# Generated by pormake.
# Topology yfs, (5)-cn, num edge types: 1
# Building blocks:
#     Node 0, Type 0, BuildingBlock: XOMCOT_clean_sbu_0, # of connection points: 5
#     Node 1, Type 0, BuildingBlock: XOMCOT_clean_sbu_0, # of connection points: 5
#     Node 2, Type 0, BuildingBlock: XOMCOT_clean_sbu_0, # of connection points: 5
#     Node 3, Type 0, BuildingBlock: XOMCOT_clean_sbu_0, # of connection points: 5
#     Node 4, Type 0, BuildingBlock: XOMCOT_clean_sbu_0, # of connection points: 5
#     Node 5, Type 0, BuildingBlock: XOMCOT_clean_sbu_0, # of connection points: 5
#     Node 6, Type 0, BuildingBlock: XOMCOT_clean_sbu_0, # of connection points: 5
#     Node 7, Type 0, BuildingBlock: XOMCOT_clean_sbu_0, # of connection points: 5
#     Node 8, Type 0, BuildingBlock: XOMCOT_clean_sbu_0, # of connection points: 5
#     Node 9, Type 0, BuildingBlock: XOMCOT_clean_sbu_0, # of connection points: 5
#     Node 10, Type 0, BuildingBlock: XOMCOT_clean_sbu_0, # of connection points: 5
#     Node 11, Type 0, BuildingBlock: XOMCOT_clean_sbu_0, # of connection points: 5
#     Node 12, Type 0, BuildingBlock: XOMCOT_clean_sbu_0, # of connection points: 5
#     Node 13, Type 0, BuildingBlock: XOMCOT_clean_sbu_0, # of connection points: 5
#     Node 14, Type 0, BuildingBlock: XOMCOT_clean_sbu_0, # of connection points: 5
#     Node 15, Type 0, BuildingBlock: XOMCOT_clean_sbu_0, # of connection points: 5
#     Node 16, Type 0, BuildingBlock: XOMCOT_clean_sbu_0, # of connection points: 5
#     Node 17, Type 0, BuildingBlock: XOMCOT_clean_sbu_0, # of connection points: 5
#     Node 18, Type 0, BuildingBlock: XOMCOT_clean_sbu_0, # of connection points: 5
#     Node 19, Type 0, BuildingBlock: XOMCOT_clean_sbu_0, # of connection points: 5
#     Node 20, Type 0, BuildingBlock: XOMCOT_clean_sbu_0, # of connection points: 5
#     Node 21, Type 0, BuildingBlock: XOMCOT_clean_sbu_0, # of connection points: 5
#     Node 22, Type 0, BuildingBlock: XOMCOT_clean_sbu_0, # of connection points: 5
#     Node 23, Type 0, BuildingBlock: XOMCOT_clean_sbu_0, # of connection points: 5
#     Node 24, Type 0, BuildingBlock: XOMCOT_clean_sbu_0, # of connection points: 5
#     Node 25, Type 0, BuildingBlock: XOMCOT_clean_sbu_0, # of connection points: 5
#     Node 26, Type 0, BuildingBlock: XOMCOT_clean_sbu_0, # of connection points: 5
#     Node 27, Type 0, BuildingBlock: XOMCOT_clean_sbu_0, # of connection points: 5
#     Node 28, Type 0, BuildingBlock: XOMCOT_clean_sbu_0, # of connection points: 5
#     Node 29, Type 0, BuildingBlock: XOMCOT_clean_sbu_0, # of connection points: 5
#     Node 30, Type 0, BuildingBlock: XOMCOT_clean_sbu_0, # of connection points: 5
#     Node 31, Type 0, BuildingBlock: XOMCOT_clean_sbu_0, # of connection points: 5
#     Edge 32, Type (0, 0), BuildingBlock: XUDNAN_clean_linker_2, # of connection points: 2
#     Edge 33, Type (0, 0), BuildingBlock: XUDNAN_clean_linker_2, # of connection points: 2
#     Edge 34, Type (0, 0), BuildingBlock: XUDNAN_clean_linker_2, # of connection points: 2
#     Edge 35, Type (0, 0), BuildingBlock: XUDNAN_clean_linker_2, # of connection points: 2
#     Edge 36, Type (0, 0), BuildingBlock: XUDNAN_clean_linker_2, # of connection points: 2
#     Edge 37, Type (0, 0), BuildingBlock: XUDNAN_clean_linker_2, # of connection points: 2
#     Edge 38, Type (0, 0), BuildingBlock: XUDNAN_clean_linker_2, # of connection points: 2
#     Edge 39, Type (0, 0), BuildingBlock: XUDNAN_clean_linker_2, # of connection points: 2
#     Edge 40, Type (0, 0), BuildingBlock: XUDNAN_clean_linker_2, # of connection points: 2
#     Edge 41, Type (0, 0), BuildingBlock: XUDNAN_clean_linker_2, # of connection points: 2
#     Edge 42, Type (0, 0), BuildingBlock: XUDNAN_clean_linker_2, # of connection points: 2
#     Edge 43, Type (0, 0), BuildingBlock: XUDNAN_clean_linker_2, # of connection points: 2
#     Edge 44, Type (0, 0), BuildingBlock: XUDNAN_clean_linker_2, # of connection points: 2
#     Edge 45, Type (0, 0), BuildingBlock: XUDNAN_clean_linker_2, # of connection points: 2
#     Edge 46, Type (0, 0), BuildingBlock: XUDNAN_clean_linker_2, # of connection points: 2
#     Edge 47, Type (0, 0), BuildingBlock: XUDNAN_clean_linker_2, # of connection points: 2
#     Edge 48, Type (0, 0), BuildingBlock: XUDNAN_clean_linker_2, # of connection points: 2
#     Edge 49, Type (0, 0), BuildingBlock: XUDNAN_clean_linker_2, # of connection points: 2
#     Edge 50, Type (0, 0), BuildingBlock: XUDNAN_clean_linker_2, # of connection points: 2
#     Edge 51, Type (0, 0), BuildingBlock: XUDNAN_clean_linker_2, # of connection points: 2
#     Edge 52, Type (0, 0), BuildingBlock: XUDNAN_clean_linker_2, # of connection points: 2
#     Edge 53, Type (0, 0), BuildingBlock: XUDNAN_clean_linker_2, # of connection points: 2
#     Edge 54, Type (0, 0), BuildingBlock: XUDNAN_clean_linker_2, # of connection points: 2
#     Edge 55, Type (0, 0), BuildingBlock: XUDNAN_clean_linker_2, # of connection points: 2
#     Edge 56, Type (0, 0), BuildingBlock: XUDNAN_clean_linker_2, # of connection points: 2
#     Edge 57, Type (0, 0), BuildingBlock: XUDNAN_clean_linker_2, # of connection points: 2
#     Edge 58, Type (0, 0), BuildingBlock: XUDNAN_clean_linker_2, # of connection points: 2
#     Edge 59, Type (0, 0), BuildingBlock: XUDNAN_clean_linker_2, # of connection points: 2
#     Edge 60, Type (0, 0), BuildingBlock: XUDNAN_clean_linker_2, # of connection points: 2
#     Edge 61, Type (0, 0), BuildingBlock: XUDNAN_clean_linker_2, # of connection points: 2
#     Edge 62, Type (0, 0), BuildingBlock: XUDNAN_clean_linker_2, # of connection points: 2
#     Edge 63, Type (0, 0), BuildingBlock: XUDNAN_clean_linker_2, # of connection points: 2
#     Edge 64, Type (0, 0), BuildingBlock: XUDNAN_clean_linker_2, # of connection points: 2
#     Edge 65, Type (0, 0), BuildingBlock: XUDNAN_clean_linker_2, # of connection points: 2
#     Edge 66, Type (0, 0), BuildingBlock: XUDNAN_clean_linker_2, # of connection points: 2
#     Edge 67, Type (0, 0), BuildingBlock: XUDNAN_clean_linker_2, # of connection points: 2
#     Edge 68, Type (0, 0), BuildingBlock: XUDNAN_clean_linker_2, # of connection points: 2
#     Edge 69, Type (0, 0), BuildingBlock: XUDNAN_clean_linker_2, # of connection points: 2
#     Edge 70, Type (0, 0), BuildingBlock: XUDNAN_clean_linker_2, # of connection points: 2
#     Edge 71, Type (0, 0), BuildingBlock: XUDNAN_clean_linker_2, # of connection points: 2
#     Edge 72, Type (0, 0), BuildingBlock: XUDNAN_clean_linker_2, # of connection points: 2
#     Edge 73, Type (0, 0), BuildingBlock: XUDNAN_clean_linker_2, # of connection points: 2
#     Edge 74, Type (0, 0), BuildingBlock: XUDNAN_clean_linker_2, # of connection points: 2
#     Edge 75, Type (0, 0), BuildingBlock: XUDNAN_clean_linker_2, # of connection points: 2
#     Edge 76, Type (0, 0), BuildingBlock: XUDNAN_clean_linker_2, # of connection points: 2
#     Edge 77, Type (0, 0), BuildingBlock: XUDNAN_clean_linker_2, # of connection points: 2
#     Edge 78, Type (0, 0), BuildingBlock: XUDNAN_clean_linker_2, # of connection points: 2
#     Edge 79, Type (0, 0), BuildingBlock: XUDNAN_clean_linker_2, # of connection points: 2
#     Edge 80, Type (0, 0), BuildingBlock: XUDNAN_clean_linker_2, # of connection points: 2
#     Edge 81, Type (0, 0), BuildingBlock: XUDNAN_clean_linker_2, # of connection points: 2
#     Edge 82, Type (0, 0), BuildingBlock: XUDNAN_clean_linker_2, # of connection points: 2
#     Edge 83, Type (0, 0), BuildingBlock: XUDNAN_clean_linker_2, # of connection points: 2
#     Edge 84, Type (0, 0), BuildingBlock: XUDNAN_clean_linker_2, # of connection points: 2
#     Edge 85, Type (0, 0), BuildingBlock: XUDNAN_clean_linker_2, # of connection points: 2
#     Edge 86, Type (0, 0), BuildingBlock: XUDNAN_clean_linker_2, # of connection points: 2
#     Edge 87, Type (0, 0), BuildingBlock: XUDNAN_clean_linker_2, # of connection points: 2
#     Edge 88, Type (0, 0), BuildingBlock: XUDNAN_clean_linker_2, # of connection points: 2
#     Edge 89, Type (0, 0), BuildingBlock: XUDNAN_clean_linker_2, # of connection points: 2
#     Edge 90, Type (0, 0), BuildingBlock: XUDNAN_clean_linker_2, # of connection points: 2
#     Edge 91, Type (0, 0), BuildingBlock: XUDNAN_clean_linker_2, # of connection points: 2
#     Edge 92, Type (0, 0), BuildingBlock: XUDNAN_clean_linker_2, # of connection points: 2
#     Edge 93, Type (0, 0), BuildingBlock: XUDNAN_clean_linker_2, # of connection points: 2
#     Edge 94, Type (0, 0), BuildingBlock: XUDNAN_clean_linker_2, # of connection points: 2
#     Edge 95, Type (0, 0), BuildingBlock: XUDNAN_clean_linker_2, # of connection points: 2
#     Edge 96, Type (0, 0), BuildingBlock: XUDNAN_clean_linker_2, # of connection points: 2
#     Edge 97, Type (0, 0), BuildingBlock: XUDNAN_clean_linker_2, # of connection points: 2
#     Edge 98, Type (0, 0), BuildingBlock: XUDNAN_clean_linker_2, # of connection points: 2
#     Edge 99, Type (0, 0), BuildingBlock: XUDNAN_clean_linker_2, # of connection points: 2
#     Edge 100, Type (0, 0), BuildingBlock: XUDNAN_clean_linker_2, # of connection points: 2
#     Edge 101, Type (0, 0), BuildingBlock: XUDNAN_clean_linker_2, # of connection points: 2
#     Edge 102, Type (0, 0), BuildingBlock: XUDNAN_clean_linker_2, # of connection points: 2
#     Edge 103, Type (0, 0), BuildingBlock: XUDNAN_clean_linker_2, # of connection points: 2
#     Edge 104, Type (0, 0), BuildingBlock: XUDNAN_clean_linker_2, # of connection points: 2
#     Edge 105, Type (0, 0), BuildingBlock: XUDNAN_clean_linker_2, # of connection points: 2
#     Edge 106, Type (0, 0), BuildingBlock: XUDNAN_clean_linker_2, # of connection points: 2
#     Edge 107, Type (0, 0), BuildingBlock: XUDNAN_clean_linker_2, # of connection points: 2
#     Edge 108, Type (0, 0), BuildingBlock: XUDNAN_clean_linker_2, # of connection points: 2
#     Edge 109, Type (0, 0), BuildingBlock: XUDNAN_clean_linker_2, # of connection points: 2
#     Edge 110, Type (0, 0), BuildingBlock: XUDNAN_clean_linker_2, # of connection points: 2
#     Edge 111, Type (0, 0), BuildingBlock: XUDNAN_clean_linker_2, # of connection points: 2
# Relax obj value: 0.407
# Max RMSD: 0.288
# Mean RMSD: 0.288
data_MOF--net-yfs--node1-XOMCOT_clean_sbu_0--edge1-XUDNAN_clean_linker_2
_symmetry_space_group_name_H-M    P1
_symmetry_Int_Tables_number       1
_symmetry_cell_setting            triclinic
loop_
_symmetry_equiv_pos_as_xyz
'x, y, z'
_cell_length_a     49.565946
_cell_length_b     49.578505
_cell_length_c     74.765391
_cell_angle_alpha  89.993169
_cell_angle_beta   90.012068
_cell_angle_gamma 89.977339
loop_
_atom_site_label
_atom_site_type_symbol
_atom_site_fract_x
_atom_site_fract_y
_atom_site_fract_z
_atom_type_partial_charge
Co0 Co 0.37847 0.16763 0.19134 0.0
C1 C 0.33916 0.19192 0.21661 0.0
C2 C 0.36447 0.22179 0.20446 0.0
C3 C 0.34592 0.23468 0.21518 0.0
N4 N 0.36039 0.19494 0.20551 0.0
N5 N 0.33001 0.21586 0.22282 0.0
H6 H 0.32986 0.17275 0.21956 0.0
H7 H 0.37972 0.23136 0.19628 0.0
C8 C 0.42109 0.19338 0.21446 0.0
O9 O 0.40481 0.19585 0.22823 0.0
N10 N 0.39601 0.14048 0.17699 0.0
C11 C 0.38493 0.11749 0.17082 0.0
C12 C 0.40399 0.10382 0.16097 0.0
C13 C 0.4215 0.14061 0.1708 0.0
N14 N 0.427 0.11838 0.16097 0.0
C15 C 0.34962 0.12482 0.20854 0.0
C16 C 0.39313 0.10604 0.22795 0.0
C17 C 0.37101 0.08899 0.22535 0.0
C18 C 0.34838 0.09916 0.21637 0.0
C19 C 0.39371 0.13123 0.21978 0.0
N20 N 0.37263 0.13998 0.2095 0.0
H21 H 0.33294 0.1314 0.20034 0.0
H22 H 0.41236 0.14212 0.22054 0.0
H23 H 0.36429 0.1113 0.17303 0.0
H24 H 0.43565 0.15674 0.17337 0.0
O25 O 0.34579 0.16415 0.17683 0.0
O26 O 0.37999 0.19191 0.17158 0.0
O27 O 0.41451 0.17899 0.201 0.0
C28 C 0.35676 0.18262 0.16673 0.0
H29 H 0.34428 0.25624 0.21713 0.0
H30 H 0.40078 0.08507 0.15388 0.0
H31 H 0.41086 0.09909 0.23508 0.0
H32 H 0.33084 0.08661 0.21408 0.0
Co33 Co 0.08095 0.12621 0.43807 0.0
C34 C 0.05397 0.08247 0.45709 0.0
C35 C 0.02855 0.11749 0.456 0.0
C36 C 0.01471 0.09709 0.46456 0.0
N37 N 0.05314 0.10818 0.45142 0.0
N38 N 0.03073 0.07509 0.46509 0.0
H39 H 0.07123 0.06941 0.45523 0.0
H40 H 0.02093 0.13739 0.45295 0.0
C41 C 0.07241 0.18296 0.45693 0.0
O42 O 0.09632 0.18885 0.46343 0.0
N43 N 0.10922 0.14408 0.4245 0.0
C44 C 0.12898 0.13181 0.4151 0.0
C45 C 0.14464 0.15102 0.40693 0.0
C46 C 0.11287 0.17069 0.42153 0.0
N47 N 0.13454 0.17547 0.41102 0.0
C48 C 0.12818 0.10283 0.45359 0.0
C49 C 0.12495 0.12972 0.48587 0.0
C50 C 0.14909 0.1166 0.48132 0.0
C51 C 0.14996 0.10174 0.46538 0.0
C52 C 0.10356 0.13007 0.47369 0.0
N53 N 0.1064 0.11873 0.45718 0.0
H54 H 0.12941 0.09188 0.44118 0.0
H55 H 0.08514 0.1403 0.4773 0.0
H56 H 0.1316 0.11029 0.41373 0.0
H57 H 0.09931 0.18624 0.42613 0.0
O58 O 0.08471 0.09382 0.42326 0.0
O59 O 0.05768 0.12862 0.4179 0.0
O60 O 0.06818 0.1611 0.44845 0.0
C61 C 0.06656 0.10518 0.41308 0.0
H62 H 0.99417 0.09807 0.46943 0.0
H63 H 0.16187 0.14722 0.39841 0.0
H64 H 0.12302 0.14048 0.49842 0.0
H65 H 0.16795 0.09084 0.46145 0.0
Co66 Co 0.1192 0.83159 0.69553 0.0
C67 C 0.16625 0.80157 0.71015 0.0
C68 C 0.13 0.77781 0.70886 0.0
C69 C 0.15066 0.76151 0.71448 0.0
N70 N 0.13973 0.80283 0.70615 0.0
N71 N 0.17339 0.77639 0.71523 0.0
H72 H 0.18016 0.81823 0.7086 0.0
H73 H 0.10946 0.77158 0.70625 0.0
C74 C 0.0667 0.82898 0.71726 0.0
O75 O 0.0635 0.85515 0.71892 0.0
N76 N 0.09746 0.85961 0.68451 0.0
C77 C 0.10418 0.88456 0.67878 0.0
C78 C 0.08225 0.89584 0.67024 0.0
C79 C 0.07195 0.85588 0.67879 0.0
N80 N 0.06196 0.87775 0.67036 0.0
C81 C 0.14822 0.877 0.70912 0.0
C82 C 0.12558 0.87617 0.7428 0.0
C83 C 0.1377 0.90013 0.73673 0.0
C84 C 0.15087 0.89959 0.72011 0.0
C85 C 0.12298 0.85429 0.73116 0.0
N86 N 0.13172 0.85626 0.71392 0.0
H87 H 0.15759 0.87721 0.69609 0.0
H88 H 0.11272 0.83641 0.73578 0.0
H89 H 0.12377 0.89379 0.67979 0.0
H90 H 0.06138 0.83693 0.68002 0.0
O91 O 0.14721 0.83626 0.6775 0.0
O92 O 0.11175 0.80904 0.67546 0.0
O93 O 0.08751 0.81899 0.7098 0.0
C94 C 0.13367 0.81838 0.66836 0.0
H95 H 0.14923 0.7402 0.7175 0.0
H96 H 0.08157 0.91558 0.66408 0.0
H97 H 0.11675 0.87486 0.75601 0.0
H98 H 0.16127 0.91708 0.7149 0.0
Co99 Co 0.4173 0.87337 0.94231 0.0
C100 C 0.44509 0.91758 0.96184 0.0
C101 C 0.47224 0.88661 0.95285 0.0
C102 C 0.48655 0.90456 0.96312 0.0
N103 N 0.44624 0.89455 0.95224 0.0
N104 N 0.46947 0.92391 0.96866 0.0
H105 H 0.42677 0.92874 0.9645 0.0
H106 H 0.48008 0.86848 0.94677 0.0
C107 C 0.42812 0.81838 0.96129 0.0
O108 O 0.40324 0.80975 0.9632 0.0
N109 N 0.38845 0.85184 0.93216 0.0
C110 C 0.36398 0.86086 0.9269 0.0
C111 C 0.35049 0.84036 0.91835 0.0
C112 C 0.38971 0.82613 0.92629 0.0
N113 N 0.36662 0.81854 0.91815 0.0
C114 C 0.37478 0.90326 0.95852 0.0
C115 C 0.37088 0.87216 0.98902 0.0
C116 C 0.34893 0.88839 0.98402 0.0
C117 C 0.35197 0.90557 0.96927 0.0
C118 C 0.39334 0.87046 0.9778 0.0
N119 N 0.3937 0.88392 0.96188 0.0
H120 H 0.37586 0.9153 0.94653 0.0
H121 H 0.4096 0.8573 0.98162 0.0
H122 H 0.35676 0.88128 0.92825 0.0
H123 H 0.40758 0.81366 0.92706 0.0
O124 O 0.40962 0.90176 0.92492 0.0
O125 O 0.43808 0.86758 0.92123 0.0
O126 O 0.43328 0.84178 0.95515 0.0
C127 C 0.42682 0.88902 0.9148 0.0
H128 H 0.50773 0.90327 0.96658 0.0
H129 H 0.33063 0.84154 0.91235 0.0
H130 H 0.36995 0.85957 0.00084 0.0
H131 H 0.33585 0.91884 0.96501 0.0
Co132 Co 0.37948 0.82665 0.30576 0.0
C133 C 0.33147 0.80236 0.28926 0.0
C134 C 0.36743 0.78096 0.28184 0.0
C135 C 0.34572 0.76859 0.27384 0.0
N136 N 0.35842 0.80218 0.29142 0.0
N137 N 0.32321 0.782 0.27864 0.0
H138 H 0.31816 0.81699 0.2954 0.0
H139 H 0.38821 0.77449 0.28094 0.0
C140 C 0.43351 0.82543 0.28578 0.0
O141 O 0.43674 0.8517 0.28509 0.0
N142 N 0.4012 0.85085 0.32027 0.0
C143 C 0.39433 0.87444 0.32801 0.0
C144 C 0.41639 0.88463 0.33687 0.0
C145 C 0.42696 0.8465 0.32532 0.0
N146 N 0.43705 0.86712 0.33508 0.0
C147 C 0.35542 0.87655 0.29433 0.0
C148 C 0.37815 0.87707 0.26067 0.0
C149 C 0.36636 0.90089 0.26721 0.0
C150 C 0.35351 0.89989 0.28393 0.0
C151 C 0.37996 0.85442 0.27169 0.0
N152 N 0.371 0.8554 0.28893 0.0
H153 H 0.34518 0.87591 0.30703 0.0
H154 H 0.3893 0.83639 0.26649 0.0
H155 H 0.37464 0.88357 0.32787 0.0
H156 H 0.43782 0.82819 0.32226 0.0
O157 O 0.34949 0.82999 0.32251 0.0
O158 O 0.38254 0.79976 0.32398 0.0
O159 O 0.41238 0.81484 0.29244 0.0
C160 C 0.36037 0.80935 0.33059 0.0
H161 H 0.34629 0.75058 0.26566 0.0
H162 H 0.41691 0.90349 0.34413 0.0
H163 H 0.38674 0.87617 0.24737 0.0
H164 H 0.34325 0.91729 0.28941 0.0
Co165 Co 0.42076 0.13313 0.55008 0.0
C166 C 0.44024 0.08695 0.52923 0.0
C167 C 0.46223 0.12289 0.52274 0.0
C168 C 0.47407 0.10141 0.51408 0.0
N169 N 0.44107 0.11374 0.53222 0.0
N170 N 0.46036 0.07873 0.51827 0.0
H171 H 0.42579 0.07373 0.53558 0.0
H172 H 0.46953 0.14339 0.52286 0.0
C173 C 0.42567 0.18829 0.5263 0.0
O174 O 0.40467 0.19621 0.51696 0.0
N175 N 0.40018 0.15242 0.56825 0.0
C176 C 0.39061 0.14199 0.58367 0.0
C177 C 0.37719 0.16174 0.59292 0.0
C178 C 0.39219 0.17851 0.56838 0.0
N179 N 0.37811 0.18478 0.58335 0.0
C180 C 0.36821 0.10959 0.54761 0.0
C181 C 0.35563 0.13231 0.51483 0.0
C182 C 0.33514 0.12047 0.52502 0.0
C183 C 0.34179 0.10785 0.54117 0.0
C184 C 0.38186 0.13302 0.52156 0.0
N185 N 0.38737 0.12342 0.53829 0.0
H186 H 0.37292 0.10119 0.56056 0.0
H187 H 0.39744 0.14235 0.51362 0.0
H188 H 0.39325 0.12144 0.58814 0.0
H189 H 0.39657 0.19268 0.55784 0.0
O190 O 0.42564 0.10284 0.56652 0.0
O191 O 0.45288 0.13805 0.5636 0.0
O192 O 0.42382 0.16682 0.53557 0.0
C193 C 0.44754 0.11539 0.57149 0.0
H194 H 0.49234 0.10233 0.50619 0.0
H195 H 0.36831 0.15936 0.60604 0.0
H196 H 0.35117 0.14182 0.50211 0.0
H197 H 0.32639 0.09833 0.54927 0.0
Co198 Co 0.11576 0.16828 0.80652 0.0
C199 C 0.1554 0.19362 0.78153 0.0
C200 C 0.13191 0.22287 0.79581 0.0
C201 C 0.15081 0.23631 0.78571 0.0
N202 N 0.13474 0.19608 0.79321 0.0
N203 N 0.16552 0.21789 0.77675 0.0
H204 H 0.16365 0.17464 0.77706 0.0
H205 H 0.11746 0.23204 0.80478 0.0
C206 C 0.07513 0.19585 0.7831 0.0
O207 O 0.09169 0.19618 0.7694 0.0
N208 N 0.09722 0.14068 0.81999 0.0
C209 C 0.10797 0.11751 0.82617 0.0
C210 C 0.08788 0.10257 0.83416 0.0
C211 C 0.07082 0.13957 0.82424 0.0
N212 N 0.06454 0.11642 0.83283 0.0
C213 C 0.14454 0.12706 0.78801 0.0
C214 C 0.10004 0.10687 0.77029 0.0
C215 C 0.12285 0.09043 0.77221 0.0
C216 C 0.14586 0.10139 0.7803 0.0
C217 C 0.09942 0.13219 0.77836 0.0
N218 N 0.1211 0.1416 0.78776 0.0
H219 H 0.16164 0.1341 0.79563 0.0
H220 H 0.0804 0.14261 0.77845 0.0
H221 H 0.12889 0.11169 0.82475 0.0
H222 H 0.05654 0.15545 0.82129 0.0
O223 O 0.14829 0.16289 0.82085 0.0
O224 O 0.11488 0.19123 0.82697 0.0
O225 O 0.08034 0.18159 0.79688 0.0
C226 C 0.13805 0.1812 0.83136 0.0
H227 H 0.15362 0.25794 0.78509 0.0
H228 H 0.09018 0.08287 0.84021 0.0
H229 H 0.08195 0.09937 0.76385 0.0
H230 H 0.16393 0.08941 0.78212 0.0
Co231 Co 0.08502 0.86816 0.05018 0.0
C232 C 0.05906 0.91385 0.03109 0.0
C233 C 0.03029 0.88914 0.04487 0.0
C234 C 0.01653 0.90915 0.03595 0.0
N235 N 0.05696 0.89218 0.04187 0.0
N236 N 0.03468 0.92445 0.0272 0.0
H237 H 0.07787 0.92167 0.02596 0.0
H238 H 0.02133 0.87304 0.05261 0.0
C239 C 0.07614 0.81626 0.02948 0.0
O240 O 0.10141 0.80864 0.03089 0.0
N241 N 0.11289 0.84355 0.05879 0.0
C242 C 0.13911 0.8415 0.05386 0.0
C243 C 0.15142 0.82181 0.06395 0.0
C244 C 0.10985 0.82497 0.07183 0.0
N245 N 0.13299 0.81167 0.07529 0.0
C246 C 0.12747 0.9009 0.03645 0.0
C247 C 0.13508 0.87192 0.00532 0.0
C248 C 0.15602 0.88824 0.01178 0.0
C249 C 0.15107 0.90467 0.02663 0.0
C250 C 0.11154 0.86914 0.01539 0.0
N251 N 0.1094 0.88134 0.0317 0.0
H252 H 0.12527 0.91175 0.04885 0.0
H253 H 0.0962 0.85568 0.01054 0.0
H254 H 0.14905 0.85308 0.04364 0.0
H255 H 0.09102 0.82093 0.07861 0.0
O256 O 0.09376 0.89312 0.06947 0.0
O257 O 0.06348 0.86019 0.07075 0.0
O258 O 0.06848 0.8395 0.03477 0.0
C259 C 0.07563 0.88006 0.07858 0.0
H260 H 0.99484 0.91158 0.03531 0.0
H261 H 0.17238 0.81579 0.06323 0.0
H262 H 0.13782 0.85971 0.99344 0.0
H263 H 0.16655 0.9179 0.03189 0.0
Co264 Co 0.61701 0.82973 0.7998 0.0
C265 C 0.66615 0.80673 0.783 0.0
C266 C 0.6324 0.77989 0.78118 0.0
C267 C 0.654 0.76825 0.77254 0.0
N268 N 0.63995 0.80422 0.78747 0.0
N269 N 0.67516 0.78529 0.77361 0.0
H270 H 0.67861 0.82359 0.78674 0.0
H271 H 0.6125 0.77125 0.78262 0.0
C272 C 0.56188 0.82203 0.78189 0.0
O273 O 0.5514 0.8446 0.78785 0.0
N274 N 0.59437 0.85535 0.81245 0.0
C275 C 0.59988 0.88173 0.81505 0.0
C276 C 0.57952 0.89316 0.82489 0.0
C277 C 0.57122 0.85087 0.82151 0.0
N278 N 0.56137 0.87384 0.82873 0.0
C279 C 0.65275 0.87086 0.78728 0.0
C280 C 0.61821 0.89325 0.76237 0.0
C281 C 0.6424 0.90637 0.76642 0.0
C282 C 0.66016 0.89459 0.77859 0.0
C283 C 0.61182 0.8691 0.77104 0.0
N284 N 0.62863 0.85855 0.78375 0.0
H285 H 0.66574 0.86349 0.79775 0.0
H286 H 0.59269 0.86 0.76811 0.0
H287 H 0.61746 0.89224 0.81018 0.0
H288 H 0.56146 0.83138 0.82237 0.0
O289 O 0.64365 0.83356 0.81874 0.0
O290 O 0.61081 0.80312 0.81795 0.0
O291 O 0.58705 0.81711 0.78347 0.0
C292 C 0.63162 0.81308 0.82614 0.0
H293 H 0.65387 0.74906 0.76566 0.0
H294 H 0.57781 0.91423 0.82851 0.0
H295 H 0.60399 0.90207 0.75304 0.0
H296 H 0.67885 0.90454 0.7822 0.0
Co297 Co 0.91595 0.86572 0.55161 0.0
C298 C 0.94891 0.90915 0.53441 0.0
C299 C 0.97264 0.87684 0.5453 0.0
C300 C 0.98957 0.89405 0.53637 0.0
N301 N 0.94713 0.88614 0.54402 0.0
N302 N 0.97463 0.91424 0.52954 0.0
H303 H 0.93186 0.92109 0.5301 0.0
H304 H 0.97842 0.85806 0.55157 0.0
C305 C 0.92251 0.8124 0.53225 0.0
O306 O 0.89919 0.80282 0.53754 0.0
N307 N 0.88493 0.84453 0.55949 0.0
C308 C 0.85881 0.8457 0.55416 0.0
C309 C 0.84385 0.8275 0.56399 0.0
C310 C 0.88518 0.82583 0.57259 0.0
N311 N 0.86055 0.81532 0.57562 0.0
C312 C 0.88062 0.90668 0.53892 0.0
C313 C 0.86494 0.88092 0.50786 0.0
C314 C 0.8496 0.9028 0.51412 0.0
C315 C 0.85867 0.9166 0.52931 0.0
C316 C 0.88695 0.87165 0.51786 0.0
N317 N 0.89344 0.88355 0.53379 0.0
H318 H 0.88605 0.91671 0.55118 0.0
H319 H 0.89718 0.85374 0.51335 0.0
H320 H 0.85063 0.85895 0.54411 0.0
H321 H 0.90307 0.81961 0.57976 0.0
O322 O 0.91086 0.88996 0.57182 0.0
O323 O 0.93644 0.85326 0.57184 0.0
O324 O 0.92887 0.83701 0.53473 0.0
C325 C 0.92726 0.87407 0.58037 0.0
H326 H 0.01107 0.89146 0.53447 0.0
H327 H 0.82233 0.82409 0.56305 0.0
H328 H 0.85902 0.87006 0.49592 0.0
H329 H 0.84762 0.93361 0.53468 0.0
Co330 Co 0.87651 0.16727 0.30542 0.0
C331 C 0.84054 0.19274 0.27824 0.0
C332 C 0.86852 0.22105 0.28929 0.0
C333 C 0.85132 0.23469 0.27798 0.0
N334 N 0.86188 0.19463 0.2894 0.0
N335 N 0.83375 0.21678 0.27105 0.0
H336 H 0.82908 0.17465 0.27605 0.0
H337 H 0.88414 0.23006 0.29739 0.0
C338 C 0.92096 0.18425 0.28077 0.0
O339 O 0.90514 0.18415 0.26668 0.0
N340 N 0.89051 0.14014 0.32152 0.0
C341 C 0.87586 0.12066 0.32943 0.0
C342 C 0.89294 0.10409 0.33886 0.0
C343 C 0.91633 0.13511 0.32616 0.0
N344 N 0.91852 0.11303 0.33679 0.0
C345 C 0.84143 0.12882 0.28886 0.0
C346 C 0.88128 0.10064 0.27103 0.0
C347 C 0.85474 0.09117 0.27048 0.0
C348 C 0.83455 0.10568 0.27927 0.0
C349 C 0.8872 0.12418 0.28043 0.0
N350 N 0.86735 0.13823 0.28905 0.0
H351 H 0.82592 0.13893 0.29646 0.0
H352 H 0.90806 0.12999 0.28151 0.0
H353 H 0.85424 0.11844 0.32824 0.0
H354 H 0.9331 0.14721 0.32162 0.0
O355 O 0.84359 0.16946 0.31972 0.0
O356 O 0.8805 0.19417 0.32348 0.0
O357 O 0.9136 0.17272 0.29522 0.0
C358 C 0.85613 0.18849 0.32842 0.0
H359 H 0.85135 0.25617 0.2754 0.0
H360 H 0.88669 0.08688 0.34671 0.0
H361 H 0.89745 0.08945 0.26468 0.0
H362 H 0.81393 0.09846 0.27945 0.0
Co363 Co 0.586 0.1392 0.04771 0.0
C364 C 0.55335 0.09492 0.03347 0.0
C365 C 0.53385 0.133 0.02897 0.0
C366 C 0.51776 0.11284 0.02206 0.0
N367 N 0.55619 0.12164 0.03599 0.0
N368 N 0.53004 0.08899 0.02504 0.0
H369 H 0.56814 0.08014 0.03765 0.0
H370 H 0.52933 0.15431 0.02904 0.0
C371 C 0.57287 0.19478 0.0413 0.0
O372 O 0.58237 0.19856 0.05749 0.0
N373 N 0.61682 0.15657 0.05924 0.0
C374 C 0.63915 0.1658 0.05085 0.0
C375 C 0.65554 0.17845 0.06301 0.0
C376 C 0.62 0.16419 0.07649 0.0
N377 N 0.64352 0.17734 0.07908 0.0
C378 C 0.62858 0.10531 0.03614 0.0
C379 C 0.6384 0.13275 0.00464 0.0
C380 C 0.659 0.11702 0.01224 0.0
C381 C 0.65306 0.10144 0.02733 0.0
C382 C 0.61389 0.13566 0.01374 0.0
N383 N 0.61056 0.12408 0.03016 0.0
H384 H 0.62571 0.09569 0.04894 0.0
H385 H 0.59906 0.14954 0.00851 0.0
H386 H 0.64274 0.16517 0.03665 0.0
H387 H 0.60466 0.16221 0.08669 0.0
O388 O 0.58625 0.11055 0.06562 0.0
O389 O 0.56269 0.14846 0.0672 0.0
O390 O 0.57817 0.17265 0.03327 0.0
C391 C 0.5689 0.1254 0.07425 0.0
H392 H 0.49829 0.11545 0.01573 0.0
H393 H 0.67365 0.18978 0.06 0.0
H394 H 0.64213 0.14465 0.99274 0.0
H395 H 0.66834 0.08891 0.03352 0.0
Co396 Co 0.61871 0.17108 0.70149 0.0
C397 C 0.66301 0.20915 0.71099 0.0
C398 C 0.63191 0.20794 0.7309 0.0
C399 C 0.65303 0.22282 0.73747 0.0
N400 N 0.638 0.1993 0.71424 0.0
N401 N 0.67252 0.22349 0.72498 0.0
H402 H 0.67506 0.20405 0.69942 0.0
H403 H 0.61447 0.20194 0.73856 0.0
C404 C 0.56066 0.17912 0.71309 0.0
O405 O 0.55141 0.16009 0.70263 0.0
N406 N 0.60047 0.14181 0.68871 0.0
C407 C 0.60585 0.11511 0.69022 0.0
C408 C 0.58962 0.10089 0.67876 0.0
C409 C 0.58242 0.14335 0.67514 0.0
N410 N 0.57489 0.11865 0.66939 0.0
C411 C 0.65764 0.13903 0.71975 0.0
C412 C 0.62054 0.10782 0.73806 0.0
C413 C 0.64731 0.09861 0.73665 0.0
C414 C 0.66631 0.11572 0.7285 0.0
C415 C 0.61287 0.13167 0.72955 0.0
N416 N 0.63098 0.14565 0.71939 0.0
H417 H 0.67202 0.15068 0.71211 0.0
H418 H 0.59174 0.13686 0.72933 0.0
H419 H 0.62112 0.10617 0.69861 0.0
H420 H 0.5742 0.16206 0.67001 0.0
O421 O 0.64756 0.16848 0.68383 0.0
O422 O 0.61158 0.19508 0.68205 0.0
O423 O 0.58589 0.18149 0.71602 0.0
C424 C 0.63377 0.18642 0.67487 0.0
H425 H 0.65469 0.23107 0.75084 0.0
H426 H 0.58907 0.0792 0.6771 0.0
H427 H 0.60493 0.09564 0.74413 0.0
H428 H 0.68744 0.1103 0.72779 0.0
Co429 Co 0.58906 0.86137 0.44862 0.0
C430 C 0.55437 0.90476 0.465 0.0
C431 C 0.5322 0.86995 0.45637 0.0
C432 C 0.51457 0.88734 0.46457 0.0
N433 N 0.55724 0.8806 0.45678 0.0
N434 N 0.52852 0.90914 0.46994 0.0
H435 H 0.57066 0.91847 0.46798 0.0
H436 H 0.52713 0.85055 0.45078 0.0
C437 C 0.58551 0.80758 0.46825 0.0
O438 O 0.60982 0.79949 0.46387 0.0
N439 N 0.62058 0.84171 0.44004 0.0
C440 C 0.64651 0.85017 0.44035 0.0
C441 C 0.66164 0.8342 0.42917 0.0
C442 C 0.62049 0.82061 0.42856 0.0
N443 N 0.64525 0.81566 0.42182 0.0
C444 C 0.62132 0.90436 0.46213 0.0
C445 C 0.64478 0.87527 0.48952 0.0
C446 C 0.65716 0.89921 0.48379 0.0
C447 C 0.64415 0.91464 0.47066 0.0
C448 C 0.62192 0.8657 0.48063 0.0
N449 N 0.61149 0.87942 0.46636 0.0
H450 H 0.61302 0.91551 0.45102 0.0
H451 H 0.61426 0.84623 0.4844 0.0
H452 H 0.65392 0.86791 0.44705 0.0
H453 H 0.60239 0.8104 0.42413 0.0
O454 O 0.59292 0.88626 0.42865 0.0
O455 O 0.56882 0.84851 0.42849 0.0
O456 O 0.57773 0.83173 0.46534 0.0
C457 C 0.57726 0.86969 0.42002 0.0
H458 H 0.49319 0.88413 0.46663 0.0
H459 H 0.68268 0.83707 0.42577 0.0
H460 H 0.65371 0.86309 0.49999 0.0
H461 H 0.65284 0.93329 0.46581 0.0
Co462 Co 0.89059 0.82637 0.19844 0.0
C463 C 0.8489 0.80014 0.22107 0.0
C464 C 0.88798 0.78189 0.2239 0.0
C465 C 0.87038 0.7688 0.23509 0.0
N466 N 0.87463 0.8018 0.21536 0.0
N467 N 0.84594 0.78032 0.23327 0.0
H468 H 0.83273 0.81309 0.21657 0.0
H469 H 0.90905 0.77699 0.22204 0.0
C470 C 0.94833 0.83342 0.21283 0.0
O471 O 0.9533 0.8566 0.20504 0.0
N472 N 0.90704 0.8506 0.18135 0.0
C473 C 0.89985 0.87613 0.17729 0.0
C474 C 0.91928 0.88714 0.16634 0.0
C475 C 0.92996 0.84607 0.17218 0.0
N476 N 0.93844 0.86833 0.16346 0.0
C477 C 0.85091 0.8653 0.20886 0.0
C478 C 0.88431 0.89652 0.2299 0.0
C479 C 0.85828 0.90605 0.22606 0.0
C480 C 0.84119 0.88954 0.21588 0.0
C481 C 0.89299 0.8719 0.22299 0.0
N482 N 0.87681 0.85707 0.21197 0.0
H483 H 0.83782 0.85374 0.20026 0.0
H484 H 0.91313 0.86573 0.22612 0.0
H485 H 0.88243 0.8866 0.18247 0.0
H486 H 0.94108 0.82736 0.17282 0.0
O487 O 0.86078 0.82058 0.18192 0.0
O488 O 0.89825 0.79615 0.18323 0.0
O489 O 0.92474 0.82318 0.21291 0.0
C490 C 0.87476 0.80015 0.17609 0.0
H491 H 0.87502 0.75184 0.24368 0.0
H492 H 0.92008 0.90785 0.1618 0.0
H493 H 0.89855 0.90841 0.23752 0.0
H494 H 0.82068 0.89553 0.21289 0.0
Co495 Co 0.91641 0.13034 0.94071 0.0
C496 C 0.95059 0.08911 0.95806 0.0
C497 C 0.97338 0.12342 0.94905 0.0
C498 C 0.99105 0.10462 0.95577 0.0
N499 N 0.94812 0.11362 0.95044 0.0
N500 N 0.97665 0.08321 0.96142 0.0
H501 H 0.93393 0.0754 0.96027 0.0
H502 H 0.97864 0.14251 0.94298 0.0
C503 C 0.92183 0.18808 0.95584 0.0
O504 O 0.89602 0.19286 0.95824 0.0
N505 N 0.88459 0.14732 0.93064 0.0
C506 C 0.85989 0.13623 0.92882 0.0
C507 C 0.84372 0.15349 0.9193 0.0
C508 C 0.88326 0.17089 0.92164 0.0
N509 N 0.8584 0.17529 0.91473 0.0
C510 C 0.87886 0.09923 0.96103 0.0
C511 C 0.87426 0.13486 0.98914 0.0
C512 C 0.85297 0.11676 0.98587 0.0
C513 C 0.85671 0.0973 0.97246 0.0
C514 C 0.89583 0.13634 0.97711 0.0
N515 N 0.89605 0.12064 0.96212 0.0
H516 H 0.88017 0.08533 0.94997 0.0
H517 H 0.91138 0.15104 0.97948 0.0
H518 H 0.85404 0.11636 0.93311 0.0
H519 H 0.9005 0.18389 0.91952 0.0
O520 O 0.91014 0.09855 0.92586 0.0
O521 O 0.93444 0.1344 0.9183 0.0
O522 O 0.93029 0.16521 0.95055 0.0
C523 C 0.92523 0.1108 0.91413 0.0
H524 H 0.01283 0.10625 0.95617 0.0
H525 H 0.82291 0.14984 0.91567 0.0
H526 H 0.87343 0.14902 0.00015 0.0
H527 H 0.8415 0.0823 0.96952 0.0
Co528 Co 0.88891 0.66765 0.69825 0.0
C529 C 0.84984 0.70391 0.71602 0.0
C530 C 0.88979 0.7206 0.71532 0.0
C531 C 0.87286 0.73912 0.72307 0.0
N532 N 0.87541 0.69851 0.71105 0.0
N533 N 0.8477 0.72872 0.72342 0.0
H534 H 0.83311 0.69038 0.71364 0.0
H535 H 0.91095 0.72346 0.71247 0.0
C536 C 0.94588 0.67539 0.70519 0.0
O537 O 0.94933 0.66818 0.68849 0.0
N538 N 0.90274 0.63622 0.68525 0.0
C539 C 0.90479 0.61052 0.6912 0.0
C540 C 0.91856 0.59532 0.67879 0.0
C541 C 0.91507 0.63594 0.6691 0.0
N542 N 0.92542 0.61148 0.66509 0.0
C543 C 0.84897 0.63088 0.71042 0.0
C544 C 0.8739 0.61691 0.74219 0.0
C545 C 0.85199 0.60172 0.73606 0.0
C546 C 0.83877 0.60953 0.72042 0.0
C547 C 0.88351 0.63827 0.73177 0.0
N548 N 0.87194 0.64394 0.71559 0.0
H549 H 0.83943 0.63551 0.69784 0.0
H550 H 0.90108 0.64904 0.73636 0.0
H551 H 0.89826 0.60326 0.7041 0.0
H552 H 0.91829 0.65368 0.66096 0.0
O553 O 0.85964 0.67104 0.6811 0.0
O554 O 0.89925 0.69156 0.67923 0.0
O555 O 0.92313 0.67105 0.7126 0.0
C556 C 0.87524 0.6879 0.67273 0.0
H557 H 0.87872 0.75883 0.72791 0.0
H558 H 0.92496 0.57458 0.6804 0.0
H559 H 0.88453 0.61125 0.75429 0.0
H560 H 0.82166 0.59821 0.71543 0.0
Co561 Co 0.58074 0.63158 0.94413 0.0
C562 C 0.54999 0.59262 0.96707 0.0
C563 C 0.52528 0.62437 0.95646 0.0
C564 C 0.50934 0.60793 0.96682 0.0
N565 N 0.5509 0.61518 0.95693 0.0
N566 N 0.52492 0.58801 0.97339 0.0
H567 H 0.56703 0.57986 0.96999 0.0
H568 H 0.51871 0.64208 0.94921 0.0
C569 C 0.56026 0.67399 0.96953 0.0
O570 O 0.55682 0.6559 0.98217 0.0
N571 N 0.60991 0.64802 0.93103 0.0
C572 C 0.63238 0.63585 0.92487 0.0
C573 C 0.64733 0.65453 0.91545 0.0
C574 C 0.61148 0.67379 0.92547 0.0
N575 N 0.63419 0.67833 0.91601 0.0
C576 C 0.61663 0.59788 0.96443 0.0
C577 C 0.64074 0.63975 0.98282 0.0
C578 C 0.65156 0.61381 0.98445 0.0
C579 C 0.63908 0.59258 0.97524 0.0
C580 C 0.61857 0.64417 0.97187 0.0
N581 N 0.6064 0.62339 0.963 0.0
H582 H 0.60838 0.58169 0.95647 0.0
H583 H 0.61288 0.6648 0.96952 0.0
H584 H 0.63729 0.6148 0.92682 0.0
H585 H 0.59586 0.68867 0.92764 0.0
O586 O 0.58368 0.59922 0.92951 0.0
O587 O 0.55825 0.63507 0.92356 0.0
O588 O 0.5711 0.66762 0.95462 0.0
C589 C 0.56662 0.61132 0.91892 0.0
H590 H 0.48792 0.61022 0.96921 0.0
H591 H 0.6662 0.65088 0.90857 0.0
H592 H 0.65045 0.657 0.98896 0.0
H593 H 0.64712 0.57229 0.97588 0.0
Co594 Co 0.62134 0.33429 0.19288 0.0
C595 C 0.65915 0.30098 0.21427 0.0
C596 C 0.62231 0.28025 0.20832 0.0
C597 C 0.64013 0.26208 0.21556 0.0
N598 N 0.63403 0.30479 0.2077 0.0
N599 N 0.66337 0.27507 0.21915 0.0
H600 H 0.67491 0.31596 0.21388 0.0
H601 H 0.60288 0.27539 0.20257 0.0
C602 C 0.57388 0.31933 0.21648 0.0
O603 O 0.5889 0.31485 0.23065 0.0
N604 N 0.60856 0.36312 0.17771 0.0
C605 C 0.62193 0.38503 0.17187 0.0
C606 C 0.6046 0.40026 0.1615 0.0
C607 C 0.58357 0.3652 0.17082 0.0
N608 N 0.58036 0.38775 0.16086 0.0
C609 C 0.65858 0.36954 0.21 0.0
C610 C 0.62018 0.40101 0.22681 0.0
C611 C 0.64647 0.41078 0.22504 0.0
C612 C 0.66606 0.39441 0.21718 0.0
C613 C 0.6134 0.37622 0.21921 0.0
N614 N 0.63231 0.36119 0.21035 0.0
H615 H 0.67352 0.35845 0.20255 0.0
H616 H 0.5924 0.37077 0.21903 0.0
H617 H 0.64278 0.38959 0.17486 0.0
H618 H 0.56812 0.35035 0.17318 0.0
O619 O 0.65427 0.33126 0.1788 0.0
O620 O 0.61594 0.30936 0.1737 0.0
O621 O 0.5838 0.33067 0.20266 0.0
C622 C 0.64079 0.31391 0.16926 0.0
H623 H 0.63675 0.24063 0.2171 0.0
H624 H 0.60976 0.41888 0.1548 0.0
H625 H 0.60446 0.41356 0.23249 0.0
H626 H 0.68649 0.40168 0.21534 0.0
Co627 Co 0.91688 0.36943 0.4436 0.0
C628 C 0.94794 0.40479 0.46832 0.0
C629 C 0.97386 0.38072 0.4518 0.0
C630 C 0.98964 0.39775 0.4619 0.0
N631 N 0.94764 0.38531 0.45571 0.0
N632 N 0.97323 0.41267 0.47229 0.0
H633 H 0.93025 0.41391 0.47411 0.0
H634 H 0.98106 0.36644 0.44197 0.0
C635 C 0.93893 0.3272 0.46855 0.0
O636 O 0.94602 0.34553 0.48031 0.0
N637 N 0.88628 0.35408 0.43132 0.0
C638 C 0.8644 0.36777 0.42559 0.0
C639 C 0.84777 0.35029 0.41651 0.0
C640 C 0.88265 0.32845 0.42582 0.0
N641 N 0.85918 0.32566 0.41688 0.0
C642 C 0.88224 0.40657 0.46122 0.0
C643 C 0.85316 0.36747 0.47913 0.0
C644 C 0.84168 0.39288 0.4764 0.0
C645 C 0.857 0.41306 0.46828 0.0
C646 C 0.87848 0.3618 0.47193 0.0
N647 N 0.89203 0.38082 0.46221 0.0
H648 H 0.89266 0.42161 0.45339 0.0
H649 H 0.88527 0.34119 0.4724 0.0
H650 H 0.86117 0.38917 0.42736 0.0
H651 H 0.89739 0.31255 0.42746 0.0
O652 O 0.91541 0.40069 0.42777 0.0
O653 O 0.93865 0.36311 0.42285 0.0
O654 O 0.92458 0.33353 0.45498 0.0
C655 C 0.93139 0.38685 0.41744 0.0
H656 H 0.01141 0.39944 0.46141 0.0
H657 H 0.82922 0.35537 0.40964 0.0
H658 H 0.84152 0.35134 0.48514 0.0
H659 H 0.84844 0.43282 0.46577 0.0
Co660 Co 0.87924 0.33909 0.80685 0.0
C661 C 0.84863 0.30833 0.77911 0.0
C662 C 0.87534 0.28304 0.7942 0.0
C663 C 0.86019 0.26695 0.78304 0.0
N664 N 0.8679 0.30903 0.7919 0.0
N665 N 0.84363 0.28298 0.77354 0.0
H666 H 0.83734 0.32553 0.77447 0.0
H667 H 0.89004 0.27609 0.80384 0.0
C668 C 0.92622 0.3251 0.78326 0.0
O669 O 0.9101 0.31981 0.76977 0.0
N670 N 0.89032 0.36866 0.82195 0.0
C671 C 0.87578 0.3906 0.82641 0.0
C672 C 0.89133 0.40691 0.83718 0.0
C673 C 0.9143 0.3717 0.83016 0.0
N674 N 0.9156 0.39502 0.83954 0.0
C675 C 0.84116 0.37244 0.78899 0.0
C676 C 0.87852 0.40571 0.77273 0.0
C677 C 0.85159 0.41405 0.77385 0.0
C678 C 0.83261 0.39664 0.78142 0.0
C679 C 0.88633 0.38143 0.78067 0.0
N680 N 0.86784 0.36546 0.78915 0.0
H681 H 0.82646 0.36021 0.79589 0.0
H682 H 0.90758 0.37705 0.78135 0.0
H683 H 0.85531 0.39452 0.82217 0.0
H684 H 0.93017 0.35677 0.82955 0.0
O685 O 0.84605 0.33531 0.82052 0.0
O686 O 0.88486 0.31484 0.82647 0.0
O687 O 0.91707 0.33627 0.7974 0.0
C688 C 0.85979 0.31889 0.83061 0.0
H689 H 0.86065 0.24514 0.78235 0.0
H690 H 0.88517 0.42609 0.84273 0.0
H691 H 0.8938 0.41893 0.76721 0.0
H692 H 0.8116 0.40247 0.7825 0.0
Co693 Co 0.9188 0.63434 0.04605 0.0
C694 C 0.9476 0.58716 0.03241 0.0
C695 C 0.97081 0.62321 0.02844 0.0
C696 C 0.9856 0.60152 0.02231 0.0
N697 N 0.94696 0.61407 0.03457 0.0
N698 N 0.97097 0.57894 0.02497 0.0
H699 H 0.9314 0.57384 0.03641 0.0
H700 H 0.97735 0.64398 0.02893 0.0
C701 C 0.93177 0.68886 0.036 0.0
O702 O 0.92692 0.69362 0.05298 0.0
N703 N 0.88971 0.6546 0.05732 0.0
C704 C 0.87099 0.66935 0.04853 0.0
C705 C 0.85614 0.68387 0.0607 0.0
C706 C 0.88557 0.66008 0.07481 0.0
N707 N 0.86535 0.67797 0.07716 0.0
C708 C 0.87669 0.59831 0.03709 0.0
C709 C 0.86048 0.62457 0.00631 0.0
C710 C 0.84267 0.60694 0.01494 0.0
C711 C 0.85174 0.59222 0.02966 0.0
C712 C 0.88574 0.62965 0.01399 0.0
N713 N 0.89232 0.61837 0.03011 0.0
H714 H 0.88198 0.58871 0.04953 0.0
H715 H 0.89844 0.64477 0.00795 0.0
H716 H 0.86934 0.67103 0.03418 0.0
H717 H 0.89815 0.65281 0.08559 0.0
O718 O 0.91851 0.60784 0.06526 0.0
O719 O 0.94385 0.64459 0.06453 0.0
O720 O 0.92687 0.66546 0.02964 0.0
C721 C 0.93719 0.62247 0.07265 0.0
H722 H 0.00588 0.60217 0.01696 0.0
H723 H 0.84068 0.69862 0.05767 0.0
H724 H 0.85393 0.6363 0.99488 0.0
H725 H 0.83838 0.57847 0.03662 0.0
Co726 Co 0.61313 0.673 0.29813 0.0
C727 C 0.66147 0.69883 0.28332 0.0
C728 C 0.62549 0.71728 0.27304 0.0
C729 C 0.64742 0.73077 0.26618 0.0
N730 N 0.63439 0.69719 0.28371 0.0
N731 N 0.6699 0.71923 0.27281 0.0
H732 H 0.67474 0.68571 0.29082 0.0
H733 H 0.6046 0.72251 0.27079 0.0
C734 C 0.55729 0.67404 0.28095 0.0
O735 O 0.54949 0.65114 0.28807 0.0
N736 N 0.59193 0.64872 0.31282 0.0
C737 C 0.59626 0.62223 0.31589 0.0
C738 C 0.57637 0.61266 0.32702 0.0
C739 C 0.56991 0.65501 0.32258 0.0
N740 N 0.55967 0.63322 0.33105 0.0
C741 C 0.64777 0.6296 0.28765 0.0
C742 C 0.61854 0.61289 0.25822 0.0
C743 C 0.64097 0.59779 0.26362 0.0
C744 C 0.65597 0.60663 0.27833 0.0
C745 C 0.61083 0.63555 0.26803 0.0
N746 N 0.62478 0.64313 0.28299 0.0
H747 H 0.65942 0.6358 0.29911 0.0
H748 H 0.59352 0.64652 0.26343 0.0
H749 H 0.61245 0.61033 0.31039 0.0
H750 H 0.56115 0.675 0.32302 0.0
O751 O 0.64134 0.67249 0.31626 0.0
O752 O 0.6075 0.70168 0.31503 0.0
O753 O 0.58142 0.68243 0.28261 0.0
C754 C 0.62938 0.69361 0.32288 0.0
H755 H 0.6469 0.7484 0.25764 0.0
H756 H 0.57389 0.59196 0.33133 0.0
H757 H 0.60651 0.60676 0.24683 0.0
H758 H 0.67371 0.5957 0.28272 0.0
Co759 Co 0.58382 0.36684 0.55343 0.0
C760 C 0.5579 0.40805 0.53016 0.0
C761 C 0.52936 0.37861 0.53908 0.0
C762 C 0.51611 0.39715 0.52842 0.0
N763 N 0.55573 0.38525 0.5399 0.0
N764 N 0.53421 0.4156 0.52276 0.0
H765 H 0.57615 0.41954 0.52888 0.0
H766 H 0.52043 0.36132 0.54562 0.0
C767 C 0.56421 0.32686 0.52605 0.0
O768 O 0.56092 0.34603 0.51412 0.0
N769 N 0.61171 0.3491 0.5671 0.0
C770 C 0.63438 0.36086 0.5732 0.0
C771 C 0.64888 0.34219 0.58278 0.0
C772 C 0.6126 0.32345 0.57309 0.0
N773 N 0.63527 0.31859 0.58273 0.0
C774 C 0.62273 0.40207 0.53699 0.0
C775 C 0.64422 0.36402 0.5141 0.0
C776 C 0.65539 0.38993 0.51434 0.0
C777 C 0.64448 0.40911 0.52603 0.0
C778 C 0.62269 0.35782 0.52528 0.0
N779 N 0.61146 0.37694 0.53614 0.0
H780 H 0.61514 0.41679 0.54638 0.0
H781 H 0.61632 0.33712 0.52574 0.0
H782 H 0.63972 0.38178 0.57116 0.0
H783 H 0.59685 0.30885 0.57058 0.0
O784 O 0.58504 0.39745 0.56988 0.0
O785 O 0.55909 0.3612 0.57259 0.0
O786 O 0.57526 0.33183 0.54112 0.0
C787 C 0.56699 0.38413 0.57902 0.0
H788 H 0.4949 0.39685 0.52502 0.0
H789 H 0.66754 0.34615 0.58982 0.0
H790 H 0.65291 0.34816 0.50596 0.0
H791 H 0.6529 0.42922 0.5269 0.0
Co792 Co 0.11745 0.33058 0.30605 0.0
C793 C 0.15942 0.29725 0.2875 0.0
C794 C 0.12398 0.27492 0.29462 0.0
C795 C 0.14282 0.25718 0.28816 0.0
N796 N 0.13411 0.30015 0.29402 0.0
N797 N 0.16516 0.27117 0.28378 0.0
H798 H 0.17405 0.31331 0.28668 0.0
H799 H 0.10463 0.26959 0.30028 0.0
C800 C 0.0736 0.309 0.28145 0.0
O801 O 0.0907 0.30474 0.26832 0.0
N802 N 0.1004 0.36011 0.31845 0.0
C803 C 0.11031 0.3848 0.32217 0.0
C804 C 0.09035 0.39967 0.33055 0.0
C805 C 0.07494 0.36017 0.32464 0.0
N806 N 0.06812 0.38411 0.33185 0.0
C807 C 0.15132 0.365 0.28512 0.0
C808 C 0.1101 0.38864 0.26576 0.0
C809 C 0.13609 0.39942 0.2646 0.0
C810 C 0.15697 0.38718 0.27422 0.0
C811 C 0.10521 0.36687 0.27707 0.0
N812 N 0.12568 0.35513 0.28654 0.0
H813 H 0.16729 0.35706 0.29337 0.0
H814 H 0.08451 0.36113 0.27916 0.0
H815 H 0.13041 0.39161 0.31882 0.0
H816 H 0.06175 0.34286 0.32412 0.0
O817 O 0.14972 0.33493 0.32061 0.0
O818 O 0.11447 0.30897 0.3271 0.0
O819 O 0.08132 0.32025 0.29593 0.0
C820 C 0.13815 0.31793 0.33144 0.0
H821 H 0.14054 0.23551 0.28729 0.0
H822 H 0.09186 0.42039 0.335 0.0
H823 H 0.09329 0.39816 0.25898 0.0
H824 H 0.17725 0.39532 0.27385 0.0
Co825 Co 0.41693 0.36887 0.05439 0.0
C826 C 0.44668 0.41308 0.03817 0.0
C827 C 0.47046 0.37694 0.03727 0.0
C828 C 0.48542 0.39794 0.03015 0.0
N829 N 0.4462 0.38665 0.04221 0.0
N830 N 0.47039 0.42063 0.03091 0.0
H831 H 0.42994 0.42657 0.04071 0.0
H832 H 0.47708 0.35633 0.0391 0.0
C833 C 0.41618 0.31286 0.03685 0.0
O834 O 0.38979 0.31082 0.03617 0.0
N835 N 0.38689 0.3519 0.06693 0.0
C836 C 0.36392 0.36461 0.07161 0.0
C837 C 0.34794 0.34747 0.08116 0.0
C838 C 0.38491 0.32718 0.07458 0.0
N839 N 0.36101 0.32383 0.08325 0.0
C840 C 0.37456 0.39983 0.03782 0.0
C841 C 0.37036 0.36794 0.00778 0.0
C842 C 0.34808 0.38373 0.01282 0.0
C843 C 0.35135 0.40157 0.02725 0.0
C844 C 0.39285 0.36655 0.01899 0.0
N845 N 0.39292 0.37979 0.03498 0.0
H846 H 0.37649 0.41295 0.04927 0.0
H847 H 0.40944 0.35374 0.01516 0.0
H848 H 0.35926 0.38549 0.06933 0.0
H849 H 0.40099 0.31244 0.0743 0.0
O850 O 0.41457 0.39991 0.07053 0.0
O851 O 0.43928 0.36315 0.07476 0.0
O852 O 0.42773 0.33407 0.04265 0.0
C853 C 0.43184 0.38668 0.0804 0.0
H854 H 0.50599 0.39678 0.02537 0.0
H855 H 0.32836 0.35268 0.08648 0.0
H856 H 0.36976 0.35542 0.99592 0.0
H857 H 0.33538 0.41512 0.03132 0.0
Co858 Co 0.38179 0.66584 0.80524 0.0
C859 C 0.34138 0.69501 0.78324 0.0
C860 C 0.37174 0.72159 0.79345 0.0
C861 C 0.35446 0.73631 0.78274 0.0
N862 N 0.36353 0.69565 0.79368 0.0
N863 N 0.33559 0.71939 0.77624 0.0
H864 H 0.32962 0.67719 0.78064 0.0
H865 H 0.38944 0.72917 0.80025 0.0
C866 C 0.43896 0.66898 0.7893 0.0
O867 O 0.44556 0.64377 0.79243 0.0
N868 N 0.39979 0.63582 0.81701 0.0
C869 C 0.38996 0.61053 0.81837 0.0
C870 C 0.40747 0.59503 0.82806 0.0
C871 C 0.42282 0.63554 0.8267 0.0
N872 N 0.42822 0.61064 0.83334 0.0
C873 C 0.34481 0.62907 0.78919 0.0
C874 C 0.38163 0.60564 0.76623 0.0
C875 C 0.35854 0.59126 0.77116 0.0
C876 C 0.33908 0.60399 0.7817 0.0
C877 C 0.38658 0.63081 0.77403 0.0
N878 N 0.3694 0.64098 0.78665 0.0
H879 H 0.3307 0.63723 0.79875 0.0
H880 H 0.40521 0.64069 0.77087 0.0
H881 H 0.37099 0.60352 0.8132 0.0
H882 H 0.43513 0.65324 0.82893 0.0
O883 O 0.3523 0.66251 0.82233 0.0
O884 O 0.38857 0.68832 0.82558 0.0
O885 O 0.41503 0.67758 0.79193 0.0
C886 C 0.36574 0.67987 0.83187 0.0
H887 H 0.3562 0.75752 0.77949 0.0
H888 H 0.40491 0.57381 0.83096 0.0
H889 H 0.39689 0.59647 0.75782 0.0
H890 H 0.32084 0.59348 0.78559 0.0
Co891 Co 0.08087 0.63459 0.54817 0.0
C892 C 0.04143 0.59377 0.53527 0.0
C893 C 0.04944 0.62431 0.51569 0.0
C894 C 0.03409 0.60454 0.50784 0.0
N895 N 0.05407 0.61766 0.53294 0.0
N896 N 0.02918 0.5854 0.52017 0.0
H897 H 0.04323 0.58139 0.54709 0.0
H898 H 0.05859 0.64103 0.50872 0.0
C899 C 0.07866 0.69389 0.53582 0.0
O900 O 0.09812 0.70256 0.54618 0.0
N901 N 0.10851 0.65046 0.56337 0.0
C902 C 0.13372 0.64068 0.56532 0.0
C903 C 0.14764 0.65659 0.5771 0.0
C904 C 0.10691 0.67108 0.57512 0.0
N905 N 0.13095 0.67605 0.58316 0.0
C906 C 0.11298 0.59608 0.52938 0.0
C907 C 0.15001 0.63306 0.5166 0.0
C908 C 0.15627 0.60542 0.51554 0.0
C909 C 0.13656 0.58684 0.52116 0.0
C910 C 0.12589 0.64138 0.52442 0.0
N911 N 0.10857 0.623 0.53162 0.0
H912 H 0.09898 0.58161 0.53492 0.0
H913 H 0.1226 0.66267 0.52635 0.0
H914 H 0.14171 0.62309 0.55863 0.0
H915 H 0.0886 0.68245 0.57738 0.0
O916 O 0.07994 0.6041 0.56465 0.0
O917 O 0.0544 0.64086 0.56633 0.0
O918 O 0.07352 0.66879 0.53427 0.0
C919 C 0.06117 0.61766 0.57298 0.0
H920 H 0.02851 0.60339 0.49386 0.0
H921 H 0.16868 0.65413 0.5805 0.0
H922 H 0.16436 0.64843 0.51276 0.0
H923 H 0.1398 0.56532 0.52007 0.0
Co924 Co 0.11064 0.664 0.20056 0.0
C925 C 0.15034 0.69626 0.22109 0.0
C926 C 0.11206 0.7162 0.21832 0.0
C927 C 0.12851 0.73212 0.22865 0.0
N928 N 0.1256 0.69362 0.21385 0.0
N929 N 0.15245 0.71955 0.2303 0.0
H930 H 0.16616 0.68129 0.22007 0.0
H931 H 0.09162 0.72076 0.21433 0.0
C932 C 0.05441 0.66854 0.21106 0.0
O933 O 0.04744 0.65644 0.19618 0.0
N934 N 0.09514 0.63386 0.1872 0.0
C935 C 0.08982 0.60888 0.19354 0.0
C936 C 0.07472 0.59496 0.18122 0.0
C937 C 0.08321 0.63452 0.17093 0.0
N938 N 0.07019 0.61126 0.16716 0.0
C939 C 0.15049 0.62467 0.2078 0.0
C940 C 0.12737 0.60496 0.2388 0.0
C941 C 0.14534 0.58874 0.22911 0.0
C942 C 0.15858 0.59972 0.21433 0.0
C943 C 0.11997 0.63019 0.23186 0.0
N944 N 0.1297 0.63834 0.21562 0.0
H945 H 0.15887 0.63128 0.19525 0.0
H946 H 0.10442 0.64154 0.2386 0.0
H947 H 0.09458 0.6016 0.20674 0.0
H948 H 0.08212 0.65229 0.16259 0.0
O949 O 0.13754 0.66907 0.1821 0.0
O950 O 0.09785 0.68965 0.1831 0.0
O951 O 0.07845 0.66583 0.21689 0.0
C952 C 0.12095 0.68643 0.17514 0.0
H953 H 0.12341 0.75148 0.23445 0.0
H954 H 0.06571 0.57529 0.18319 0.0
H955 H 0.11698 0.5971 0.25043 0.0
H956 H 0.17284 0.5878 0.20669 0.0
Co957 Co 0.08005 0.36668 0.94275 0.0
C958 C 0.05106 0.40405 0.96668 0.0
C959 C 0.02898 0.3673 0.9625 0.0
C960 C 0.01447 0.3834 0.97397 0.0
N961 N 0.05199 0.38017 0.95812 0.0
N962 N 0.02837 0.40644 0.97652 0.0
H963 H 0.06671 0.41922 0.96583 0.0
H964 H 0.02301 0.34767 0.95761 0.0
C965 C 0.0791 0.30572 0.95384 0.0
O966 O 0.10344 0.29833 0.949 0.0
N967 N 0.10841 0.3534 0.92712 0.0
C968 C 0.13123 0.36672 0.92283 0.0
C969 C 0.1467 0.35085 0.9119 0.0
C970 C 0.10973 0.3301 0.91781 0.0
N971 N 0.13336 0.32763 0.90882 0.0
C972 C 0.12275 0.39606 0.95985 0.0
C973 C 0.13675 0.35583 0.98358 0.0
C974 C 0.1558 0.37584 0.97954 0.0
C975 C 0.14775 0.39725 0.96851 0.0
C976 C 0.11217 0.3553 0.97447 0.0
N977 N 0.10678 0.37374 0.96139 0.0
H978 H 0.11765 0.41179 0.95047 0.0
H979 H 0.09833 0.33927 0.97751 0.0
H980 H 0.1364 0.38686 0.92699 0.0
H981 H 0.0936 0.31544 0.91748 0.0
O982 O 0.08016 0.40098 0.92997 0.0
O983 O 0.05508 0.36529 0.92328 0.0
O984 O 0.07081 0.32988 0.95214 0.0
C985 C 0.06183 0.38999 0.91983 0.0
H986 H 0.99494 0.37879 0.97969 0.0
H987 H 0.16647 0.35605 0.90685 0.0
H988 H 0.1414 0.33977 0.99291 0.0
H989 H 0.16141 0.41359 0.96532 0.0
Co990 Co 0.37935 0.33326 0.69368 0.0
C991 C 0.33489 0.30151 0.70991 0.0
C992 C 0.37176 0.27883 0.70791 0.0
C993 C 0.35209 0.26228 0.71482 0.0
N994 N 0.36096 0.30335 0.7048 0.0
N995 N 0.32908 0.27659 0.71607 0.0
H996 H 0.32031 0.31763 0.70853 0.0
H997 H 0.39234 0.27314 0.70494 0.0
C998 C 0.43528 0.33151 0.71164 0.0
O999 O 0.43887 0.35773 0.71248 0.0
N1000 N 0.3979 0.36321 0.68234 0.0
C1001 C 0.38755 0.38763 0.6784 0.0
C1002 C 0.40648 0.40231 0.6692 0.0
C1003 C 0.42271 0.36313 0.67491 0.0
N1004 N 0.42879 0.38702 0.66704 0.0
C1005 C 0.34563 0.37319 0.70969 0.0
C1006 C 0.37666 0.3816 0.73983 0.0
C1007 C 0.35721 0.4009 0.73511 0.0
C1008 C 0.34046 0.39553 0.72046 0.0
C1009 C 0.38102 0.35938 0.72868 0.0
N1010 N 0.36731 0.35694 0.71292 0.0
H1011 H 0.33339 0.37031 0.69792 0.0
H1012 H 0.39604 0.34488 0.73257 0.0
H1013 H 0.36725 0.39418 0.68117 0.0
H1014 H 0.43571 0.34564 0.67507 0.0
O1015 O 0.34967 0.33743 0.67672 0.0
O1016 O 0.38584 0.31167 0.6729 0.0
O1017 O 0.41312 0.32135 0.70623 0.0
C1018 C 0.36317 0.32069 0.66671 0.0
H1019 H 0.35432 0.24124 0.71842 0.0
H1020 H 0.40335 0.42238 0.66394 0.0
H1021 H 0.38948 0.38435 0.75142 0.0
H1022 H 0.32431 0.4092 0.71682 0.0
Co1023 Co 0.41613 0.63528 0.45176 0.0
C1024 C 0.45167 0.59018 0.46395 0.0
C1025 C 0.47197 0.6284 0.46326 0.0
C1026 C 0.4902 0.60899 0.46834 0.0
N1027 N 0.44778 0.61671 0.46062 0.0
N1028 N 0.47746 0.58496 0.46874 0.0
H1029 H 0.43641 0.57486 0.46231 0.0
H1030 H 0.47626 0.64955 0.46119 0.0
C1031 C 0.42812 0.69078 0.4643 0.0
O1032 O 0.41508 0.69999 0.45039 0.0
N1033 N 0.38398 0.65371 0.44228 0.0
C1034 C 0.35767 0.64835 0.44571 0.0
C1035 C 0.34156 0.66331 0.43443 0.0
C1036 C 0.38311 0.67128 0.4284 0.0
N1037 N 0.35769 0.6779 0.42374 0.0
C1038 C 0.38379 0.59283 0.46629 0.0
C1039 C 0.36153 0.62336 0.49349 0.0
C1040 C 0.34926 0.59905 0.48863 0.0
C1041 C 0.3615 0.5829 0.47564 0.0
C1042 C 0.38407 0.63237 0.48405 0.0
N1043 N 0.39386 0.61792 0.46987 0.0
H1044 H 0.3912 0.58137 0.45506 0.0
H1045 H 0.39145 0.65227 0.48708 0.0
H1046 H 0.35011 0.63398 0.45526 0.0
H1047 H 0.40072 0.679 0.42157 0.0
O1048 O 0.41312 0.60942 0.43226 0.0
O1049 O 0.43689 0.64742 0.43172 0.0
O1050 O 0.42635 0.66585 0.46839 0.0
C1051 C 0.42894 0.62577 0.42356 0.0
H1052 H 0.51124 0.61236 0.47148 0.0
H1053 H 0.31972 0.66351 0.43412 0.0
H1054 H 0.35243 0.63634 0.50347 0.0
H1055 H 0.35235 0.56407 0.4715 0.0
H1056 H 0.29869 0.2611 0.22516 0.0
H1057 H 0.30945 0.18073 0.24712 0.0
H1058 H 0.26948 0.18734 0.2662 0.0
H1059 H 0.27599 0.2927 0.267 0.0
H1060 H 0.25207 0.31428 0.25581 0.0
H1061 H 0.28238 0.30383 0.24444 0.0
H1062 H 0.25366 0.28459 0.21846 0.0
H1063 H 0.22329 0.29493 0.22974 0.0
H1064 H 0.22768 0.26019 0.22325 0.0
H1065 H 0.22749 0.20162 0.28187 0.0
H1066 H 0.18575 0.2226 0.2931 0.0
H1067 H 0.202 0.29406 0.26141 0.0
C1068 C 0.29297 0.24504 0.23418 0.0
C1069 C 0.30728 0.2203 0.23454 0.0
C1070 C 0.29869 0.19967 0.24636 0.0
C1071 C 0.27611 0.20332 0.25738 0.0
C1072 C 0.26237 0.2278 0.25654 0.0
C1073 C 0.27048 0.24837 0.24531 0.0
C1074 C 0.25154 0.27236 0.2466 0.0
C1075 C 0.26639 0.29726 0.2539 0.0
C1076 C 0.23826 0.27835 0.22843 0.0
C1077 C 0.23119 0.26178 0.26002 0.0
C1078 C 0.238 0.23611 0.26566 0.0
C1079 C 0.22198 0.22173 0.27759 0.0
C1080 C 0.1982 0.23375 0.28379 0.0
C1081 C 0.19051 0.25988 0.27803 0.0
C1082 C 0.2075 0.27419 0.26617 0.0
H1083 H 0.9624 0.96751 0.5301 0.0
H1084 H 0.00815 0.90655 0.50176 0.0
H1085 H 0.02597 0.94132 0.48125 0.0
H1086 H 0.94569 0.00971 0.4917 0.0
H1087 H 0.95028 0.0409 0.50371 0.0
H1088 H 0.93972 0.01099 0.51547 0.0
H1089 H 0.98024 0.01595 0.53712 0.0
H1090 H 0.99095 0.04583 0.52542 0.0
H1091 H 0.01394 0.01795 0.52815 0.0
H1092 H 0.03964 0.98217 0.46452 0.0
H1093 H 0.04965 0.02743 0.45271 0.0
H1094 H 0.99657 0.06288 0.49245 0.0
C1095 C 0.97589 0.96163 0.5194 0.0
C1096 C 0.98394 0.93451 0.51736 0.0
C1097 C 0.00197 0.92733 0.50349 0.0
C1098 C 0.01205 0.94687 0.49178 0.0
C1099 C 0.00404 0.97351 0.49424 0.0
C1100 C 0.9865 0.98102 0.50773 0.0
C1101 C 0.98244 0.01133 0.508 0.0
C1102 C 0.95277 0.01866 0.50451 0.0
C1103 C 0.9925 0.02347 0.52572 0.0
C1104 C 0.00033 0.01957 0.49249 0.0
C1105 C 0.01249 0.99738 0.48475 0.0
C1106 C 0.0303 0.99975 0.47046 0.0
C1107 C 0.03602 0.02556 0.46394 0.0
C1108 C 0.02406 0.04869 0.47174 0.0
C1109 C 0.00581 0.04555 0.48612 0.0
H1110 H 0.3076 0.7664 0.77252 0.0
H1111 H 0.31588 0.68543 0.75118 0.0
H1112 H 0.27774 0.6936 0.73086 0.0
H1113 H 0.23743 0.7681 0.77317 0.0
H1114 H 0.23393 0.80282 0.76637 0.0
H1115 H 0.26391 0.792 0.77789 0.0
H1116 H 0.29334 0.81004 0.75188 0.0
H1117 H 0.26338 0.82096 0.74026 0.0
H1118 H 0.28692 0.79864 0.72938 0.0
H1119 H 0.23672 0.70824 0.71515 0.0
H1120 H 0.1941 0.72875 0.70495 0.0
H1121 H 0.21167 0.80082 0.73559 0.0
C1122 C 0.30171 0.75067 0.76328 0.0
C1123 C 0.31458 0.72522 0.76351 0.0
C1124 C 0.30604 0.70492 0.75145 0.0
C1125 C 0.28458 0.70946 0.7397 0.0
C1126 C 0.27197 0.73452 0.74004 0.0
C1127 C 0.2802 0.75489 0.75141 0.0
C1128 C 0.26181 0.77927 0.74983 0.0
C1129 C 0.24848 0.78592 0.76789 0.0
C1130 C 0.27729 0.80367 0.74239 0.0
C1131 C 0.24139 0.7689 0.73637 0.0
C1132 C 0.24799 0.74318 0.73073 0.0
C1133 C 0.23149 0.72851 0.71925 0.0
C1134 C 0.2073 0.74023 0.71362 0.0
C1135 C 0.19977 0.7663 0.71948 0.0
C1136 C 0.21731 0.78106 0.73068 0.0
H1137 H 0.46419 0.97723 0.96255 0.0
H1138 H 0.49046 0.91831 0.00151 0.0
H1139 H 0.5059 0.95501 0.02156 0.0
H1140 H 0.52076 0.01967 0.96792 0.0
H1141 H 0.50261 0.05079 0.96467 0.0
H1142 H 0.49059 0.02019 0.95446 0.0
H1143 H 0.44416 0.02642 0.96985 0.0
H1144 H 0.45598 0.05717 0.98003 0.0
H1145 H 0.4426 0.03048 0.99379 0.0
H1146 H 0.52155 0.99751 0.03606 0.0
H1147 H 0.53669 0.04334 0.04428 0.0
H1148 H 0.50152 0.07495 0.99549 0.0
C1149 C 0.47258 0.97232 0.97552 0.0
C1150 C 0.47589 0.94526 0.98079 0.0
C1151 C 0.48769 0.93912 0.9975 0.0
C1152 C 0.49643 0.95976 0.0089 0.0
C1153 C 0.49342 0.98635 0.00322 0.0
C1154 C 0.48184 0.99273 0.98692 0.0
C1155 C 0.48321 0.02276 0.98333 0.0
C1156 C 0.50031 0.02869 0.96661 0.0
C1157 C 0.45479 0.03492 0.98166 0.0
C1158 C 0.49725 0.03227 0.00019 0.0
C1159 C 0.50293 0.01093 0.01147 0.0
C1160 C 0.51705 0.01443 0.02741 0.0
C1161 C 0.52572 0.04044 0.03191 0.0
C1162 C 0.52021 0.06259 0.02053 0.0
C1163 C 0.50558 0.05842 0.00456 0.0
H1164 H 0.20417 0.72284 0.21918 0.0
H1165 H 0.15113 0.73781 0.26409 0.0
H1166 H 0.18963 0.75557 0.28162 0.0
H1167 H 0.26328 0.70283 0.24352 0.0
H1168 H 0.28644 0.72047 0.22907 0.0
H1169 H 0.25485 0.70828 0.22034 0.0
H1170 H 0.243 0.75648 0.20947 0.0
H1171 H 0.27451 0.76884 0.21823 0.0
H1172 H 0.24319 0.78398 0.22524 0.0
H1173 H 0.23339 0.77191 0.29397 0.0
H1174 H 0.2802 0.78582 0.30063 0.0
H1175 H 0.30478 0.76142 0.24739 0.0
C1176 C 0.20093 0.72962 0.23277 0.0
C1177 C 0.17501 0.72888 0.24049 0.0
C1178 C 0.17103 0.73836 0.25811 0.0
C1179 C 0.19268 0.7484 0.2681 0.0
C1180 C 0.21802 0.74917 0.26008 0.0
C1181 C 0.22226 0.7402 0.24279 0.0
C1182 C 0.25129 0.74431 0.23713 0.0
C1183 C 0.26476 0.71736 0.23224 0.0
C1184 C 0.25309 0.76461 0.2216 0.0
C1185 C 0.26288 0.75606 0.25416 0.0
C1186 C 0.24326 0.75899 0.26715 0.0
C1187 C 0.24894 0.76981 0.28392 0.0
C1188 C 0.27547 0.77779 0.28754 0.0
C1189 C 0.29593 0.77469 0.27451 0.0
C1190 C 0.28949 0.76373 0.25762 0.0
H1191 H 0.53523 0.96251 0.46341 0.0
H1192 H 0.49722 0.90529 0.49915 0.0
H1193 H 0.47626 0.94283 0.51599 0.0
H1194 H 0.54811 0.01559 0.4961 0.0
H1195 H 0.53983 0.04249 0.48083 0.0
H1196 H 0.55331 0.01122 0.47241 0.0
H1197 H 0.51197 0.00621 0.45147 0.0
H1198 H 0.49828 0.03739 0.45988 0.0
H1199 H 0.47848 0.00694 0.46086 0.0
H1200 H 0.45895 0.98628 0.5285 0.0
H1201 H 0.44559 0.03271 0.53577 0.0
H1202 H 0.49241 0.06205 0.49064 0.0
C1203 C 0.52283 0.9581 0.47497 0.0
C1204 C 0.51791 0.9312 0.48019 0.0
C1205 C 0.50112 0.92588 0.49507 0.0
C1206 C 0.48923 0.94702 0.50468 0.0
C1207 C 0.49407 0.97336 0.49906 0.0
C1208 C 0.51035 0.97901 0.48451 0.0
C1209 C 0.511 0.00904 0.48072 0.0
C1210 C 0.53977 0.02024 0.48264 0.0
C1211 C 0.49923 0.01525 0.46213 0.0
C1212 C 0.4927 0.01934 0.49548 0.0
C1213 C 0.48327 0.99842 0.50592 0.0
C1214 C 0.4661 0.00285 0.52036 0.0
C1215 C 0.45841 0.02941 0.52429 0.0
C1216 C 0.46773 0.05133 0.51376 0.0
C1217 C 0.48506 0.04598 0.49911 0.0
H1218 H 0.20274 0.25774 0.78019 0.0
H1219 H 0.17957 0.18973 0.74716 0.0
H1220 H 0.21827 0.19875 0.7271 0.0
H1221 H 0.22519 0.30197 0.74506 0.0
H1222 H 0.25343 0.31488 0.75762 0.0
H1223 H 0.22369 0.30333 0.76914 0.0
H1224 H 0.25276 0.2703 0.78785 0.0
H1225 H 0.28261 0.28184 0.77645 0.0
H1226 H 0.2743 0.24646 0.77656 0.0
H1227 H 0.26008 0.21444 0.7112 0.0
H1228 H 0.30278 0.2353 0.70084 0.0
H1229 H 0.29829 0.29372 0.74371 0.0
C1230 C 0.20566 0.24495 0.76861 0.0
C1231 C 0.18809 0.22311 0.76512 0.0
C1232 C 0.19291 0.20643 0.7501 0.0
C1233 C 0.21472 0.21151 0.73861 0.0
C1234 C 0.23163 0.23324 0.74242 0.0
C1235 C 0.22746 0.2496 0.75712 0.0
C1236 C 0.24924 0.27096 0.75862 0.0
C1237 C 0.23715 0.29948 0.75754 0.0
C1238 C 0.2657 0.26715 0.77589 0.0
C1239 C 0.266 0.26445 0.74223 0.0
C1240 C 0.25559 0.24246 0.73316 0.0
C1241 C 0.26828 0.23178 0.71811 0.0
C1242 C 0.2924 0.24368 0.71231 0.0
C1243 C 0.30332 0.26617 0.72138 0.0
C1244 C 0.28985 0.27687 0.7364 0.0
H1245 H 0.99446 0.96146 0.02956 0.0
H1246 H 0.06227 0.936 0.99702 0.0
H1247 H 0.0533 0.97319 0.97593 0.0
H1248 H 0.9504 0.9819 0.99316 0.0
H1249 H 0.93732 0.0108 0.00494 0.0
H1250 H 0.94849 0.98161 0.01724 0.0
H1251 H 0.98111 0.01154 0.03562 0.0
H1252 H 0.97007 0.04082 0.02338 0.0
H1253 H 0.0054 0.0323 0.02412 0.0
H1254 H 0.03855 0.01373 0.95921 0.0
H1255 H 0.01837 0.05579 0.94749 0.0
H1256 H 0.95931 0.05487 0.99018 0.0
C1257 C 0.00719 0.96363 0.01788 0.0
C1258 C 0.02913 0.94601 0.01491 0.0
C1259 C 0.04564 0.94958 -0.00035 0.0
C1260 C 0.04057 0.97048 0.98755 0.0
C1261 C 0.01894 0.98764 0.99093 0.0
C1262 C 0.00249 0.98453 0.0057 0.0
C1263 C 0.98121 0.00647 0.00649 0.0
C1264 C 0.95266 0.99447 0.00538 0.0
C1265 C 0.98467 0.02381 0.02341 0.0
C1266 C 0.98822 0.02225 0.98977 0.0
C1267 C 0.01014 0.01105 0.98107 0.0
C1268 C 0.02127 0.02263 0.9658 0.0
C1269 C 0.00982 0.04647 0.95929 0.0
C1270 C 0.98738 0.05826 0.96795 0.0
C1271 C 0.97625 0.04587 0.98325 0.0
H1272 H 0.69981 0.73817 0.76416 0.0
H1273 H 0.71027 0.82518 0.76463 0.0
H1274 H 0.7553 0.81989 0.75134 0.0
H1275 H 0.76716 0.72051 0.77509 0.0
H1276 H 0.76855 0.69185 0.76027 0.0
H1277 H 0.73675 0.70236 0.76959 0.0
H1278 H 0.71669 0.70649 0.73769 0.0
H1279 H 0.74846 0.69598 0.72827 0.0
H1280 H 0.73341 0.72741 0.72138 0.0
H1281 H 0.79914 0.80548 0.73828 0.0
H1282 H 0.83948 0.78276 0.72654 0.0
H1283 H 0.80091 0.70499 0.73447 0.0
C1284 C 0.71141 0.75615 0.76134 0.0
C1285 C 0.70145 0.78208 0.76564 0.0
C1286 C 0.71753 0.80504 0.76185 0.0
C1287 C 0.7431 0.80229 0.75412 0.0
C1288 C 0.75228 0.77647 0.75013 0.0
C1289 C 0.73696 0.75379 0.75354 0.0
C1290 C 0.75177 0.72835 0.74807 0.0
C1291 C 0.75633 0.70968 0.76422 0.0
C1292 C 0.73668 0.7137 0.73295 0.0
C1293 C 0.77802 0.74031 0.74142 0.0
C1294 C 0.77775 0.7681 0.74259 0.0
C1295 C 0.79966 0.7837 0.73734 0.0
C1296 C 0.82261 0.77053 0.73081 0.0
C1297 C 0.8236 0.74198 0.7297 0.0
C1298 C 0.80082 0.72679 0.73499 0.0
H1299 H 0.80444 0.26331 0.26929 0.0
H1300 H 0.81028 0.18228 0.24768 0.0
H1301 H 0.76803 0.1894 0.23096 0.0
H1302 H 0.73471 0.26399 0.27585 0.0
H1303 H 0.72962 0.29858 0.26922 0.0
H1304 H 0.76158 0.28821 0.27836 0.0
H1305 H 0.78614 0.30613 0.25019 0.0
H1306 H 0.75425 0.3168 0.241 0.0
H1307 H 0.7758 0.29453 0.22839 0.0
H1308 H 0.72372 0.2037 0.21856 0.0
H1309 H 0.68076 0.22514 0.21003 0.0
H1310 H 0.70348 0.29738 0.23909 0.0
C1311 C 0.79719 0.2473 0.26072 0.0
C1312 C 0.81064 0.22215 0.25989 0.0
C1313 C 0.80015 0.20155 0.24875 0.0
C1314 C 0.77625 0.20546 0.2391 0.0
C1315 C 0.76316 0.2302 0.24058 0.0
C1316 C 0.77335 0.25091 0.25094 0.0
C1317 C 0.75465 0.27515 0.25072 0.0
C1318 C 0.74455 0.28186 0.26966 0.0
C1319 C 0.76854 0.2996 0.24206 0.0
C1320 C 0.73205 0.26451 0.23902 0.0
C1321 C 0.73751 0.2386 0.23326 0.0
C1322 C 0.71929 0.22406 0.22288 0.0
C1323 C 0.69482 0.23632 0.21826 0.0
C1324 C 0.68871 0.26286 0.224 0.0
C1325 C 0.70774 0.27717 0.2344 0.0
H1326 H 0.80585 0.24581 0.78129 0.0
H1327 H 0.83144 0.30275 0.74089 0.0
H1328 H 0.79158 0.29086 0.72233 0.0
H1329 H 0.77581 0.19489 0.75163 0.0
H1330 H 0.74812 0.18855 0.76667 0.0
H1331 H 0.78034 0.19905 0.7754 0.0
H1332 H 0.75728 0.23916 0.79156 0.0
H1333 H 0.72506 0.22887 0.78283 0.0
H1334 H 0.7372 0.26259 0.77878 0.0
H1335 H 0.74784 0.2732 0.70873 0.0
H1336 H 0.70203 0.25477 0.70273 0.0
H1337 H 0.70399 0.2127 0.75342 0.0
C1338 C 0.80331 0.25519 0.76832 0.0
C1339 C 0.82178 0.27471 0.76222 0.0
C1340 C 0.81749 0.28749 0.74555 0.0
C1341 C 0.79503 0.2808 0.73497 0.0
C1342 C 0.77692 0.26162 0.74146 0.0
C1343 C 0.78072 0.24921 0.75785 0.0
C1344 C 0.75708 0.23137 0.76267 0.0
C1345 C 0.76587 0.20171 0.76417 0.0
C1346 C 0.74335 0.24109 0.77998 0.0
C1347 C 0.73923 0.23583 0.74654 0.0
C1348 C 0.75117 0.25289 0.73425 0.0
C1349 C 0.73831 0.25985 0.71828 0.0
C1350 C 0.71244 0.24934 0.71494 0.0
C1351 C 0.69965 0.23267 0.72771 0.0
C1352 C 0.71336 0.22569 0.74358 0.0
H1353 H 0.79561 0.77711 0.21943 0.0
H1354 H 0.84223 0.76593 0.26789 0.0
H1355 H 0.80129 0.75046 0.28374 0.0
H1356 H 0.73328 0.80011 0.24028 0.0
H1357 H 0.71201 0.78179 0.22495 0.0
H1358 H 0.74463 0.79359 0.21778 0.0
H1359 H 0.75768 0.74491 0.20859 0.0
H1360 H 0.72516 0.73294 0.21581 0.0
H1361 H 0.75546 0.71816 0.22486 0.0
H1362 H 0.75628 0.73452 0.29383 0.0
H1363 H 0.70927 0.7191 0.29776 0.0
H1364 H 0.69181 0.73995 0.24264 0.0
C1365 C 0.79696 0.77183 0.23345 0.0
C1366 C 0.82185 0.77275 0.24256 0.0
C1367 C 0.82323 0.76515 0.26077 0.0
C1368 C 0.80014 0.75649 0.26985 0.0
C1369 C 0.77595 0.7554 0.26043 0.0
C1370 C 0.77414 0.76281 0.24265 0.0
C1371 C 0.74596 0.75836 0.23543 0.0
C1372 C 0.73322 0.78506 0.22925 0.0
C1373 C 0.74609 0.73734 0.22028 0.0
C1374 C 0.7322 0.7475 0.252 0.0
C1375 C 0.7499 0.74591 0.26624 0.0
C1376 C 0.74217 0.73571 0.28281 0.0
C1377 C 0.71557 0.72683 0.28488 0.0
C1378 C 0.69711 0.72831 0.27047 0.0
C1379 C 0.70553 0.73891 0.25388 0.0
H1380 H 0.53799 0.53503 0.97081 0.0
H1381 H 0.49203 0.59276 0.00183 0.0
H1382 H 0.47551 0.55597 0.02132 0.0
H1383 H 0.48753 0.484 0.97127 0.0
H1384 H 0.51089 0.4562 0.97264 0.0
H1385 H 0.52103 0.48728 0.96215 0.0
H1386 H 0.56187 0.49062 0.98367 0.0
H1387 H 0.55185 0.45953 0.99424 0.0
H1388 H 0.55631 0.48958 0.00749 0.0
H1389 H 0.46296 0.51332 0.03665 0.0
H1390 H 0.45288 0.46691 0.04621 0.0
H1391 H 0.50521 0.43582 0.00449 0.0
C1392 C 0.52482 0.53982 0.98192 0.0
C1393 C 0.51637 0.56662 0.98502 0.0
C1394 C 0.4986 0.57228 -0.00067 0.0
C1395 C 0.48928 0.55158 0.01047 0.0
C1396 C 0.49773 0.5253 0.00698 0.0
C1397 C 0.51494 0.51927 0.99299 0.0
C1398 C 0.51929 0.48906 0.99143 0.0
C1399 C 0.50907 0.47852 0.9733 0.0
C1400 C 0.54911 0.48177 0.99439 0.0
C1401 C 0.5018 0.47909 0.00671 0.0
C1402 C 0.48976 0.50041 0.01555 0.0
C1403 C 0.47221 0.49645 0.02982 0.0
C1404 C 0.46645 0.46998 0.03506 0.0
C1405 C 0.47801 0.44769 0.02598 0.0
C1406 C 0.49625 0.45242 0.01177 0.0
H1407 H 0.04081 0.55371 0.49195 0.0
H1408 H 0.99477 0.55731 0.54109 0.0
H1409 H 0.97663 0.51146 0.53506 0.0
H1410 H 0.99282 0.51937 0.46531 0.0
H1411 H 0.01747 0.49907 0.45378 0.0
H1412 H 0.02674 0.5317 0.46232 0.0
H1413 H 0.0658 0.50988 0.48032 0.0
H1414 H 0.05652 0.47712 0.4719 0.0
H1415 H 0.05855 0.48281 0.49568 0.0
H1416 H 0.96122 0.46675 0.52215 0.0
H1417 H 0.95158 0.42569 0.50431 0.0
H1418 H 0.01037 0.45076 0.46485 0.0
C1419 C 0.02678 0.54484 0.50135 0.0
C1420 C 0.01872 0.55894 0.51682 0.0
C1421 C 0.00092 0.54664 0.52913 0.0
C1422 C 0.99062 0.52073 0.52581 0.0
C1423 C 0.99891 0.50736 0.51033 0.0
C1424 C 0.01683 0.51891 0.49843 0.0
C1425 C 0.0228 0.50038 0.48287 0.0
C1426 C 0.01444 0.51341 0.46502 0.0
C1427 C 0.05269 0.49206 0.48269 0.0
C1428 C 0.00483 0.47683 0.48757 0.0
C1429 C 0.99117 0.48119 0.50344 0.0
C1430 C 0.97211 0.46294 0.50986 0.0
C1431 C 0.96672 0.43979 0.49967 0.0
C1432 C 0.98055 0.43506 0.48342 0.0
C1433 C 1.00008 0.45364 0.47747 0.0
H1434 H 0.03614 0.45935 0.96903 0.0
H1435 H 0.00136 0.40453 0.00785 0.0
H1436 H 0.9847 0.44332 0.02544 0.0
H1437 H 0.0567 0.51207 0.00037 0.0
H1438 H 0.04763 0.53905 0.98535 0.0
H1439 H 0.05839 0.50698 0.97652 0.0
H1440 H 0.01412 0.50359 0.95821 0.0
H1441 H 0.00319 0.53557 0.96702 0.0
H1442 H 0.98215 0.50619 0.96957 0.0
H1443 H 0.96999 0.48763 0.03789 0.0
H1444 H 0.95792 0.53492 0.04447 0.0
H1445 H 0.00187 0.56114 0.99744 0.0
C1446 C 0.02547 0.45561 0.98142 0.0
C1447 C 0.02009 0.42905 0.98719 0.0
C1448 C 0.0055 0.42479 0.00321 0.0
C1449 C 0.99611 0.44666 0.0133 0.0
C1450 C 0.00142 0.47261 0.00712 0.0
C1451 C 0.01574 0.47722 0.99156 0.0
C1452 C 0.01735 0.50707 0.98737 0.0
C1453 C 0.04677 0.51686 0.98741 0.0
C1454 C 0.00337 0.51347 0.96948 0.0
C1455 C 0.00171 0.5185 0.00303 0.0
C1456 C 0.99273 0.49826 0.01426 0.0
C1457 C 0.97699 0.50368 0.02925 0.0
C1458 C 0.97009 0.53054 0.03281 0.0
C1459 C 0.97895 0.55159 0.02144 0.0
C1460 C 0.99517 0.54545 0.00647 0.0
H1461 H 0.48643 0.44184 0.51646 0.0
H1462 H 0.57175 0.44248 0.5031 0.0
H1463 H 0.5654 0.48435 0.48615 0.0
H1464 H 0.46404 0.46921 0.47221 0.0
H1465 H 0.43704 0.48842 0.48214 0.0
H1466 H 0.44767 0.4571 0.49218 0.0
H1467 H 0.45572 0.48176 0.52225 0.0
H1468 H 0.44527 0.51312 0.51231 0.0
H1469 H 0.47787 0.5106 0.52288 0.0
H1470 H 0.55118 0.52788 0.47289 0.0
H1471 H 0.52939 0.57013 0.46335 0.0
H1472 H 0.45286 0.54154 0.48417 0.0
C1473 C 0.50369 0.45044 0.5097 0.0
C1474 C 0.52971 0.43888 0.51148 0.0
C1475 C 0.55173 0.4511 0.50245 0.0
C1476 C 0.5483 0.47482 0.49257 0.0
C1477 C 0.52261 0.48598 0.49147 0.0
C1478 C 0.50058 0.47408 0.49956 0.0
C1479 C 0.47532 0.49088 0.49667 0.0
C1480 C 0.4548 0.47548 0.48512 0.0
C1481 C 0.46283 0.49961 0.5146 0.0
C1482 C 0.48697 0.51472 0.48655 0.0
C1483 C 0.51422 0.51117 0.48346 0.0
C1484 C 0.52979 0.5308 0.47507 0.0
C1485 C 0.51727 0.55485 0.46983 0.0
C1486 C 0.48944 0.55925 0.47307 0.0
C1487 C 0.47406 0.53864 0.4813 0.0
H1488 H 0.37719 0.18572 0.13351 0.0
H1489 H 0.30932 0.20979 0.16613 0.0
H1490 H 0.2982 0.24556 0.14432 0.0
H1491 H 0.40123 0.24407 0.12453 0.0
H1492 H 0.41064 0.24012 0.10138 0.0
H1493 H 0.40832 0.21104 0.11556 0.0
H1494 H 0.37392 0.18867 0.09419 0.0
H1495 H 0.37684 0.21734 0.07945 0.0
H1496 H 0.34417 0.20699 0.08749 0.0
H1497 H 0.30293 0.28527 0.12478 0.0
H1498 H 0.31813 0.32274 0.10639 0.0
H1499 H 0.38254 0.27286 0.08476 0.0
C1500 C 0.35892 0.1974 0.13531 0.0
C1501 C 0.34362 0.19476 0.15114 0.0
C1502 C 0.32059 0.211 0.15374 0.0
C1503 C 0.31434 0.2315 0.14148 0.0
C1504 C 0.331 0.2349 0.12656 0.0
C1505 C 0.35228 0.21766 0.12305 0.0
C1506 C 0.36913 0.22775 0.10744 0.0
C1507 C 0.39908 0.23094 0.11256 0.0
C1508 C 0.36581 0.20908 0.09118 0.0
C1509 C 0.35584 0.25476 0.10406 0.0
C1510 C 0.33348 0.2581 0.1149 0.0
C1511 C 0.3197 0.28245 0.11569 0.0
C1512 C 0.32873 0.30384 0.10507 0.0
C1513 C 0.35153 0.30104 0.09366 0.0
C1514 C 0.36499 0.27588 0.09311 0.0
H1515 H 0.96902 0.13525 0.3373 0.0
H1516 H 0.92368 0.06512 0.35492 0.0
H1517 H 0.96332 0.0491 0.37139 0.0
H1518 H 0.03681 0.09959 0.33449 0.0
H1519 H 0.05387 0.12943 0.34232 0.0
H1520 H 0.02384 0.13247 0.32884 0.0
H1521 H 0.0014 0.16188 0.35339 0.0
H1522 H 0.03135 0.15924 0.36668 0.0
H1523 H 0.99934 0.14906 0.37592 0.0
H1524 H 0.0046 0.04524 0.39066 0.0
H1525 H 0.04138 0.05635 0.41182 0.0
H1526 H 0.06051 0.12728 0.38071 0.0
C1527 C 0.96741 0.1161 0.34408 0.0
C1528 C 0.94275 0.1018 0.34475 0.0
C1529 C 0.94194 0.07694 0.35421 0.0
C1530 C 0.96462 0.06735 0.36349 0.0
C1531 C 0.98832 0.0824 0.36294 0.0
C1532 C 0.98989 0.10615 0.35329 0.0
C1533 C 0.01639 0.12041 0.35657 0.0
C1534 C 0.03376 0.12047 0.33954 0.0
C1535 C 0.01182 0.14932 0.36357 0.0
C1536 C 0.02851 0.10221 0.37071 0.0
C1537 C 0.01252 0.07982 0.37379 0.0
C1538 C 0.01777 0.06216 0.38797 0.0
C1539 C 0.03888 0.06841 0.39984 0.0
C1540 C 0.05403 0.09226 0.39751 0.0
C1541 C 0.04969 0.10845 0.3823 0.0
H1542 H 0.10459 0.80852 0.6387 0.0
H1543 H 0.18364 0.79779 0.6622 0.0
H1544 H 0.19399 0.76257 0.63977 0.0
H1545 H 0.08938 0.74496 0.63329 0.0
H1546 H 0.07245 0.74667 0.61197 0.0
H1547 H 0.07363 0.77592 0.62609 0.0
H1548 H 0.09588 0.80403 0.6009 0.0
H1549 H 0.09383 0.77508 0.58636 0.0
H1550 H 0.12581 0.79149 0.59 0.0
H1551 H 0.19066 0.72152 0.62051 0.0
H1552 H 0.1776 0.68254 0.60238 0.0
H1553 H 0.10108 0.72133 0.59013 0.0
C1554 C 0.12464 0.79982 0.63837 0.0
C1555 C 0.14357 0.80601 0.65183 0.0
C1556 C 0.16928 0.79375 0.65161 0.0
C1557 C 0.17517 0.77358 0.63902 0.0
C1558 C 0.15532 0.76658 0.6266 0.0
C1559 C 0.13089 0.78001 0.62576 0.0
C1560 C 0.11187 0.76678 0.61253 0.0
C1561 C 0.08529 0.75807 0.62152 0.0
C1562 C 0.10655 0.78546 0.59649 0.0
C1563 C 0.12861 0.74268 0.60707 0.0
C1564 C 0.15369 0.74308 0.61513 0.0
C1565 C 0.17149 0.72151 0.61358 0.0
C1566 C 0.16372 0.69928 0.60322 0.0
C1567 C 0.1383 0.69864 0.59441 0.0
C1568 C 0.12066 0.72086 0.59646 0.0
H1569 H 0.55052 0.9084 0.85573 0.0
H1570 H 0.5144 0.84833 0.82114 0.0
H1571 H 0.47024 0.85586 0.83569 0.0
H1572 H 0.51881 0.8886 0.89408 0.0
H1573 H 0.5148 0.922 0.90326 0.0
H1574 H 0.54159 0.91531 0.88777 0.0
H1575 H 0.52402 0.95421 0.86764 0.0
H1576 H 0.49661 0.96036 0.88297 0.0
H1577 H 0.48967 0.9536 0.85973 0.0
H1578 H 0.43223 0.86522 0.85627 0.0
H1579 H 0.40619 0.86931 0.88425 0.0
H1580 H 0.46648 0.92326 0.90571 0.0
C1581 C 0.53311 0.89735 0.85096 0.0
C1582 C 0.53572 0.87793 0.83727 0.0
C1583 C 0.51279 0.86319 0.8317 0.0
C1584 C 0.48758 0.86768 0.83967 0.0
C1585 C 0.48565 0.88705 0.85316 0.0
C1586 C 0.50792 0.90144 0.8589 0.0
C1587 C 0.50151 0.91804 0.87535 0.0
C1588 C 0.52026 0.91051 0.89103 0.0
C1589 C 0.50305 0.94835 0.87116 0.0
C1590 C 0.47266 0.90938 0.8787 0.0
C1591 C 0.46352 0.89237 0.8653 0.0
C1592 C 0.4388 0.87909 0.86656 0.0
C1593 C 0.42395 0.88176 0.8824 0.0
C1594 C 0.43402 0.89736 0.89671 0.0
C1595 C 0.45787 0.91238 0.89451 0.0
H1596 H 0.37867 0.80734 0.36451 0.0
H1597 H 0.31631 0.77712 0.32939 0.0
H1598 H 0.30473 0.74196 0.35168 0.0
H1599 H 0.40404 0.74918 0.37767 0.0
H1600 H 0.41017 0.75705 0.40086 0.0
H1601 H 0.40913 0.78366 0.3846 0.0
H1602 H 0.37154 0.80813 0.40239 0.0
H1603 H 0.37297 0.78191 0.41908 0.0
H1604 H 0.34136 0.79005 0.40846 0.0
H1605 H 0.30582 0.70548 0.37542 0.0
H1606 H 0.31777 0.67267 0.39924 0.0
H1607 H 0.37992 0.72676 0.41833 0.0
C1608 C 0.36159 0.79423 0.36205 0.0
C1609 C 0.34772 0.79528 0.34564 0.0
C1610 C 0.32636 0.77712 0.34227 0.0
C1611 C 0.31985 0.757 0.35478 0.0
C1612 C 0.33467 0.75572 0.37065 0.0
C1613 C 0.35468 0.77433 0.3745 0.0
C1614 C 0.36942 0.76713 0.39158 0.0
C1615 C 0.39998 0.76406 0.38847 0.0
C1616 C 0.36347 0.78805 0.40625 0.0
C1617 C 0.35627 0.74042 0.3959 0.0
C1618 C 0.33571 0.7345 0.38403 0.0
C1619 C 0.3215 0.71022 0.38499 0.0
C1620 C 0.32841 0.6917 0.39848 0.0
C1621 C 0.34974 0.69732 0.41048 0.0
C1622 C 0.36363 0.72204 0.40921 0.0
H1623 H 0.49819 0.13225 0.57773 0.0
H1624 H 0.43649 0.07875 0.5985 0.0
H1625 H 0.46468 0.07063 0.62549 0.0
H1626 H 0.55769 0.09663 0.59642 0.0
H1627 H 0.57458 0.12816 0.60076 0.0
H1628 H 0.55164 0.12531 0.58215 0.0
H1629 H 0.52481 0.16617 0.59436 0.0
H1630 H 0.54693 0.16871 0.61334 0.0
H1631 H 0.51114 0.16486 0.6167 0.0
H1632 H 0.49851 0.07225 0.65141 0.0
H1633 H 0.53398 0.08351 0.67366 0.0
H1634 H 0.57053 0.13884 0.63608 0.0
C1635 C 0.49078 0.1183 0.58775 0.0
C1636 C 0.46524 0.10608 0.58608 0.0
C1637 C 0.4562 0.08806 0.59948 0.0
C1638 C 0.47204 0.08345 0.61484 0.0
C1639 C 0.49675 0.09688 0.61636 0.0
C1640 C 0.50607 0.11376 0.60304 0.0
C1641 C 0.5319 0.12785 0.6083 0.0
C1642 C 0.55534 0.11895 0.59619 0.0
C1643 C 0.52846 0.15872 0.60817 0.0
C1644 C 0.5353 0.11718 0.62704 0.0
C1645 C 0.51525 0.09883 0.63136 0.0
C1646 C 0.51431 0.08645 0.64808 0.0
C1647 C 0.53439 0.09297 0.6606 0.0
C1648 C 0.55461 0.11213 0.65645 0.0
C1649 C 0.55503 0.12435 0.63951 0.0
H1650 H 0.11484 0.27584 0.91009 0.0
H1651 H 0.17399 0.32727 0.88418 0.0
H1652 H 0.19054 0.28856 0.86699 0.0
H1653 H 0.15623 0.21192 0.9093 0.0
H1654 H 0.1269 0.19176 0.90438 0.0
H1655 H 0.12368 0.22181 0.91782 0.0
H1656 H 0.08753 0.24071 0.8961 0.0
H1657 H 0.09015 0.21053 0.88302 0.0
H1658 H 0.09519 0.24291 0.87255 0.0
H1659 H 0.19635 0.24674 0.84932 0.0
H1660 H 0.18494 0.20875 0.82936 0.0
H1661 H 0.12116 0.18475 0.8654 0.0
C1662 C 0.13148 0.27899 0.90099 0.0
C1663 C 0.14319 0.30476 0.89877 0.0
C1664 C 0.16493 0.30778 0.88657 0.0
C1665 C 0.17465 0.28577 0.87674 0.0
C1666 C 0.16261 0.2607 0.87924 0.0
C1667 C 0.14129 0.25727 0.89095 0.0
C1668 C 0.12913 0.22942 0.8892 0.0
C1669 C 0.1343 0.21275 0.90619 0.0
C1670 C 0.09873 0.23102 0.88494 0.0
C1671 C 0.14537 0.21861 0.87359 0.0
C1672 C 0.16553 0.23641 0.86863 0.0
C1673 C 0.18116 0.23228 0.85333 0.0
C1674 C 0.17481 0.21046 0.84215 0.0
C1675 C 0.15267 0.19365 0.8462 0.0
C1676 C 0.13881 0.19688 0.86251 0.0
H1677 H 0.9506 0.90248 0.13635 0.0
H1678 H 0.9854 0.84364 0.17255 0.0
H1679 H 0.02972 0.84977 0.1583 0.0
H1680 H 0.98256 0.88118 0.09882 0.0
H1681 H 0.98775 0.91408 0.08915 0.0
H1682 H 0.96046 0.9088 0.1045 0.0
H1683 H 0.97876 0.9478 0.12424 0.0
H1684 H 0.00658 0.95265 0.10903 0.0
H1685 H 0.01296 0.94648 0.13241 0.0
H1686 H 0.06761 0.85605 0.13733 0.0
H1687 H 0.09412 0.8586 0.10941 0.0
H1688 H 0.03612 0.9144 0.08721 0.0
C1689 C 0.96774 0.89147 0.14156 0.0
C1690 C 0.96452 0.87257 0.1555 0.0
C1691 C 0.98725 0.85798 0.16171 0.0
C1692 C 0.01266 0.86168 0.15391 0.0
C1693 C 0.01512 0.88026 0.14003 0.0
C1694 C 0.99324 0.89491 0.13388 0.0
C1695 C 0.00036 0.91075 0.11724 0.0
C1696 C 0.9817 0.90322 0.10151 0.0
C1697 C 0.99962 0.94123 0.12096 0.0
C1698 C 0.02901 0.90115 0.11424 0.0
C1699 C 0.0375 0.88431 0.12791 0.0
C1700 C 0.06166 0.86992 0.12686 0.0
C1701 C 0.07672 0.87159 0.11105 0.0
C1702 C 0.06746 0.88746 0.09663 0.0
C1703 C 0.04409 0.90329 0.09852 0.0
H1704 H 0.65417 0.68266 0.88258 0.0
H1705 H 0.62826 0.72909 0.92847 0.0
H1706 H 0.63436 0.77132 0.91128 0.0
H1707 H 0.7026 0.7346 0.86318 0.0
H1708 H 0.69234 0.72635 0.84071 0.0
H1709 H 0.69256 0.70063 0.85777 0.0
H1710 H 0.64227 0.69022 0.85118 0.0
H1711 H 0.64196 0.71574 0.83416 0.0
H1712 H 0.61787 0.71717 0.85221 0.0
H1713 H 0.63647 0.80749 0.88794 0.0
H1714 H 0.6304 0.83361 0.85991 0.0
H1715 H 0.65243 0.76324 0.82898 0.0
C1716 C 0.65088 0.70183 0.88916 0.0
C1717 C 0.64115 0.70283 0.90686 0.0
C1718 C 0.63589 0.7281 0.91492 0.0
C1719 C 0.63953 0.75212 0.9053 0.0
C1720 C 0.64838 0.75048 0.88763 0.0
C1721 C 0.65397 0.72591 0.87963 0.0
C1722 C 0.65897 0.72916 0.85977 0.0
C1723 C 0.68837 0.72228 0.85509 0.0
C1724 C 0.63907 0.71208 0.8487 0.0
C1725 C 0.65364 0.75903 0.85766 0.0
C1726 C 0.64858 0.77123 0.87396 0.0
C1727 C 0.64099 0.79831 0.87515 0.0
C1728 C 0.63766 0.81302 0.85924 0.0
C1729 C 0.64143 0.80034 0.84253 0.0
C1730 C 0.65009 0.77334 0.84174 0.0
H1731 H 0.04832 0.90941 0.64201 0.0
H1732 H 0.01647 0.85048 0.67936 0.0
H1733 H 0.97359 0.84976 0.66274 0.0
H1734 H 0.98195 0.94537 0.63371 0.0
H1735 H 0.99015 0.95048 0.61047 0.0
H1736 H 0.01659 0.95007 0.62705 0.0
H1737 H 0.04121 0.91224 0.60953 0.0
H1738 H 0.01504 0.91266 0.59293 0.0
H1739 H 0.0233 0.88161 0.60422 0.0
H1740 H 0.93811 0.84895 0.63936 0.0
H1741 H 0.91286 0.84851 0.61084 0.0
H1742 H 0.96593 0.90965 0.58945 0.0
C1743 C 0.03203 0.89709 0.64708 0.0
C1744 C 0.03586 0.87994 0.66197 0.0
C1745 C 0.01419 0.86354 0.66786 0.0
C1746 C 0.98961 0.86323 0.65863 0.0
C1747 C 0.98676 0.87981 0.64371 0.0
C1748 C 0.00729 0.89667 0.63807 0.0
C1749 C 0.00019 0.91027 0.62055 0.0
C1750 C 0.99703 0.94087 0.6231 0.0
C1751 C 0.02117 0.90378 0.60596 0.0
C1752 C 0.97325 0.89714 0.61666 0.0
C1753 C 0.96558 0.88004 0.63039 0.0
C1754 C 0.94333 0.86298 0.62883 0.0
C1755 C 0.92905 0.86286 0.61265 0.0
C1756 C 0.93699 0.87976 0.59842 0.0
C1757 C 0.95884 0.89757 0.60057 0.0
H1758 H 0.85113 0.24209 0.32852 0.0
H1759 H 0.83637 0.17101 0.36058 0.0
H1760 H 0.82918 0.19998 0.38727 0.0
H1761 H 0.89002 0.27416 0.358 0.0
H1762 H 0.87852 0.30798 0.35351 0.0
H1763 H 0.8761 0.28263 0.33643 0.0
H1764 H 0.8247 0.29098 0.33346 0.0
H1765 H 0.82698 0.31694 0.35028 0.0
H1766 H 0.80358 0.28943 0.35307 0.0
H1767 H 0.83473 0.23593 0.41117 0.0
H1768 H 0.84633 0.27625 0.42944 0.0
H1769 H 0.85501 0.3236 0.38128 0.0
C1770 C 0.84501 0.23281 0.341 0.0
C1771 C 0.84372 0.20458 0.34261 0.0
C1772 C 0.83668 0.19275 0.35914 0.0
C1773 C 0.83278 0.20905 0.37433 0.0
C1774 C 0.8356 0.23698 0.37251 0.0
C1775 C 0.84086 0.24877 0.3561 0.0
C1776 C 0.84593 0.27872 0.35781 0.0
C1777 C 0.87432 0.28628 0.35104 0.0
C1778 C 0.82398 0.29498 0.34808 0.0
C1779 C 0.8438 0.28191 0.37784 0.0
C1780 C 0.83785 0.25769 0.38616 0.0
C1781 C 0.83846 0.25515 0.40477 0.0
C1782 C 0.84522 0.27793 0.41502 0.0
C1783 C 0.85091 0.30279 0.4066 0.0
C1784 C 0.84985 0.30484 0.38787 0.0
H1785 H 0.55002 0.15769 0.10033 0.0
H1786 H 0.5555 0.07389 0.08436 0.0
H1787 H 0.5232 0.06154 0.10836 0.0
H1788 H 0.53952 0.1453 0.14984 0.0
H1789 H 0.51648 0.17337 0.15117 0.0
H1790 H 0.54419 0.17422 0.13555 0.0
H1791 H 0.51041 0.18316 0.10972 0.0
H1792 H 0.48266 0.1819 0.12512 0.0
H1793 H 0.48313 0.15977 0.10599 0.0
H1794 H 0.48431 0.06014 0.13045 0.0
H1795 H 0.44458 0.06919 0.14945 0.0
H1796 H 0.46482 0.15433 0.14993 0.0
C1797 C 0.54516 0.13659 0.10234 0.0
C1798 C 0.55526 0.11666 0.0907 0.0
C1799 C 0.54827 0.08933 0.09343 0.0
C1800 C 0.52989 0.0822 0.10696 0.0
C1801 C 0.51924 0.10265 0.11773 0.0
C1802 C 0.52709 0.12925 0.11574 0.0
C1803 C 0.51083 0.14791 0.12754 0.0
C1804 C 0.52883 0.16096 0.14188 0.0
C1805 C 0.49587 0.16942 0.11642 0.0
C1806 C 0.49151 0.12794 0.13578 0.0
C1807 C 0.49689 0.10187 0.13026 0.0
C1808 C 0.48026 0.08041 0.1351 0.0
C1809 C 0.45755 0.08581 0.14575 0.0
C1810 C 0.45148 0.11251 0.15128 0.0
C1811 C 0.46906 0.13363 0.14637 0.0
H1812 H 0.6018 0.27779 0.59301 0.0
H1813 H 0.68516 0.3044 0.595 0.0
H1814 H 0.69602 0.26682 0.61525 0.0
H1815 H 0.59387 0.26278 0.63615 0.0
H1816 H 0.57369 0.23284 0.63326 0.0
H1817 H 0.5738 0.25834 0.61625 0.0
H1818 H 0.58817 0.22264 0.59284 0.0
H1819 H 0.58859 0.19689 0.60988 0.0
H1820 H 0.6182 0.20288 0.59651 0.0
H1821 H 0.69625 0.23082 0.63905 0.0
H1822 H 0.68479 0.20146 0.66482 0.0
H1823 H 0.60183 0.1983 0.64682 0.0
C1824 C 0.62254 0.27529 0.59714 0.0
C1825 C 0.64247 0.29439 0.59244 0.0
C1826 C 0.6693 0.29044 0.59857 0.0
C1827 C 0.67581 0.26886 0.60994 0.0
C1828 C 0.65545 0.25096 0.61479 0.0
C1829 C 0.62941 0.25377 0.60838 0.0
C1830 C 0.61056 0.23361 0.61702 0.0
C1831 C 0.5866 0.24775 0.62622 0.0
C1832 C 0.6008 0.21278 0.60324 0.0
C1833 C 0.6295 0.22076 0.63043 0.0
C1834 C 0.65558 0.23021 0.62851 0.0
C1835 C 0.67605 0.2228 0.64041 0.0
C1836 C 0.66944 0.20609 0.65498 0.0
C1837 C 0.64252 0.19766 0.65763 0.0
C1838 C 0.62263 0.20435 0.64489 0.0
H1839 H 0.45412 0.90172 0.36118 0.0
H1840 H 0.48163 0.83779 0.32584 0.0
H1841 H 0.52593 0.83867 0.34048 0.0
H1842 H 0.52198 0.9374 0.36388 0.0
H1843 H 0.51613 0.94615 0.38696 0.0
H1844 H 0.48816 0.94405 0.37158 0.0
H1845 H 0.46441 0.90971 0.39247 0.0
H1846 H 0.49206 0.91192 0.40787 0.0
H1847 H 0.48214 0.87954 0.39908 0.0
H1848 H 0.5632 0.83978 0.36254 0.0
H1849 H 0.58994 0.84119 0.39044 0.0
H1850 H 0.54055 0.90673 0.41 0.0
C1851 C 0.46957 0.88844 0.35605 0.0
C1852 C 0.46395 0.86947 0.34241 0.0
C1853 C 0.48494 0.85218 0.33647 0.0
C1854 C 0.51045 0.8528 0.34454 0.0
C1855 C 0.51501 0.87127 0.35824 0.0
C1856 C 0.49525 0.88905 0.36379 0.0
C1857 C 0.50427 0.90495 0.38002 0.0
C1858 C 0.50785 0.93492 0.37532 0.0
C1859 C 0.48456 0.90127 0.39578 0.0
C1860 C 0.53126 0.89172 0.38363 0.0
C1861 C 0.53743 0.87282 0.37061 0.0
C1862 C 0.5592 0.85519 0.37244 0.0
C1863 C 0.57432 0.85615 0.38826 0.0
C1864 C 0.56772 0.87475 0.40186 0.0
C1865 C 0.54664 0.89335 0.39929 0.0
H1866 H 0.86535 0.80529 0.14016 0.0
H1867 H 0.86169 0.74931 0.18453 0.0
H1868 H 0.85178 0.71198 0.16365 0.0
H1869 H 0.813 0.77055 0.11083 0.0
H1870 H 0.83218 0.77748 0.09087 0.0
H1871 H 0.83323 0.8007 0.10942 0.0
H1872 H 0.88535 0.79691 0.11009 0.0
H1873 H 0.88447 0.77356 0.09172 0.0
H1874 H 0.90079 0.76414 0.11234 0.0
H1875 H 0.85133 0.67997 0.13825 0.0
H1876 H 0.85763 0.65562 0.1096 0.0
H1877 H 0.86042 0.73178 0.08138 0.0
C1878 C 0.86123 0.78535 0.14541 0.0
C1879 C 0.86361 0.77999 0.16385 0.0
C1880 C 0.85941 0.75361 0.17039 0.0
C1881 C 0.85377 0.73237 0.15866 0.0
C1882 C 0.85245 0.73793 0.14042 0.0
C1883 C 0.85572 0.76382 0.13379 0.0
C1884 C 0.85653 0.7637 0.11352 0.0
C1885 C 0.83228 0.77901 0.1057 0.0
C1886 C 0.88338 0.77525 0.10652 0.0
C1887 C 0.85438 0.7337 0.10989 0.0
C1888 C 0.85179 0.71921 0.12559 0.0
C1889 C 0.85257 0.69108 0.12582 0.0
C1890 C 0.85628 0.67742 0.10959 0.0
C1891 C 0.85893 0.69189 0.09342 0.0
C1892 C 0.85752 0.72033 0.09356 0.0
H1893 H 0.96767 0.07785 0.91049 0.0
H1894 H 0.90602 0.12041 0.88099 0.0
H1895 H 0.93328 0.11686 0.85349 0.0
H1896 H 0.01778 0.11145 0.89602 0.0
H1897 H 0.04295 0.0854 0.89383 0.0
H1898 H 0.01543 0.08093 0.90908 0.0
H1899 H 0.00172 0.03642 0.89358 0.0
H1900 H 0.02986 0.04011 0.87847 0.0
H1901 H 0.99623 0.03582 0.86975 0.0
H1902 H 0.97128 0.12119 0.83259 0.0
H1903 H 0.01578 0.12994 0.81907 0.0
H1904 H 0.05427 0.08593 0.86217 0.0
C1905 C 0.95919 0.08444 0.89787 0.0
C1906 C 0.93444 0.09838 0.89751 0.0
C1907 C 0.92447 0.10866 0.88121 0.0
C1908 C 0.93995 0.10688 0.86558 0.0
C1909 C 0.96533 0.09476 0.86657 0.0
C1910 C 0.97468 0.08308 0.88223 0.0
C1911 C 0.00439 0.07601 0.88077 0.0
C1912 C 0.02108 0.08927 0.8958 0.0
C1913 C 0.00827 0.04526 0.88063 0.0
C1914 C 0.01087 0.08802 0.86264 0.0
C1915 C 0.98791 0.0979 0.85442 0.0
C1916 C 0.98926 0.11282 0.83864 0.0
C1917 C 0.01466 0.11801 0.83117 0.0
C1918 C 0.03847 0.10859 0.83956 0.0
C1919 C 0.03638 0.09282 0.85525 0.0
H1920 H 0.88073 0.81393 0.60884 0.0
H1921 H 0.82583 0.77309 0.57296 0.0
H1922 H 0.81954 0.73676 0.59551 0.0
H1923 H 0.91515 0.75878 0.62327 0.0
H1924 H 0.91921 0.76974 0.64611 0.0
H1925 H 0.91548 0.79427 0.6286 0.0
H1926 H 0.87456 0.81536 0.64497 0.0
H1927 H 0.87826 0.79104 0.66273 0.0
H1928 H 0.84646 0.79431 0.65124 0.0
H1929 H 0.82354 0.70268 0.62126 0.0
H1930 H 0.83749 0.67457 0.64723 0.0
H1931 H 0.89136 0.73822 0.66459 0.0
C1932 C 0.86712 0.79753 0.60586 0.0
C1933 C 0.85392 0.79605 0.58924 0.0
C1934 C 0.83595 0.77452 0.58576 0.0
C1935 C 0.83233 0.75388 0.59845 0.0
C1936 C 0.84652 0.75551 0.61456 0.0
C1937 C 0.86331 0.77706 0.61831 0.0
C1938 C 0.87792 0.7735 0.63585 0.0
C1939 C 0.90875 0.77409 0.63328 0.0
C1940 C 0.86874 0.79482 0.6495 0.0
C1941 C 0.86804 0.74581 0.64095 0.0
C1942 C 0.84938 0.73593 0.62886 0.0
C1943 C 0.83797 0.71034 0.63085 0.0
C1944 C 0.84602 0.69452 0.64554 0.0
C1945 C 0.86572 0.70422 0.65763 0.0
C1946 C 0.87655 0.73021 0.65535 0.0
H1947 H 0.47699 0.63553 0.83646 0.0
H1948 H 0.43097 0.56648 0.85501 0.0
H1949 H 0.46895 0.55253 0.87382 0.0
H1950 H 0.54582 0.6028 0.83947 0.0
H1951 H 0.56083 0.63364 0.84747 0.0
H1952 H 0.53272 0.63488 0.83215 0.0
H1953 H 0.50594 0.66483 0.85441 0.0
H1954 H 0.53409 0.66409 0.86946 0.0
H1955 H 0.50129 0.65333 0.87709 0.0
H1956 H 0.50835 0.54968 0.89414 0.0
H1957 H 0.54235 0.56229 0.91687 0.0
H1958 H 0.56211 0.63374 0.88638 0.0
C1959 C 0.475 0.61726 0.84425 0.0
C1960 C 0.45095 0.60205 0.84397 0.0
C1961 C 0.44927 0.57828 0.85452 0.0
C1962 C 0.47088 0.57004 0.86527 0.0
C1963 C 0.4942 0.58563 0.86535 0.0
C1964 C 0.49633 0.60885 0.85518 0.0
C1965 C 0.52181 0.6242 0.85963 0.0
C1966 C 0.54146 0.62385 0.84373 0.0
C1967 C 0.51538 0.6533 0.86551 0.0
C1968 C 0.53242 0.60722 0.87494 0.0
C1969 C 0.51692 0.58435 0.87749 0.0
C1970 C 0.52108 0.56711 0.89202 0.0
C1971 C 0.54054 0.57426 0.90481 0.0
C1972 C 0.55492 0.59866 0.90305 0.0
C1973 C 0.55171 0.61462 0.88761 0.0
H1974 H 0.62067 0.22537 0.08412 0.0
H1975 H 0.68005 0.17028 0.10547 0.0
H1976 H 0.69162 0.20356 0.12925 0.0
H1977 H 0.65952 0.28729 0.09287 0.0
H1978 H 0.62972 0.30654 0.09817 0.0
H1979 H 0.62781 0.27912 0.08238 0.0
H1980 H 0.58997 0.25647 0.10109 0.0
H1981 H 0.59129 0.28413 0.11659 0.0
H1982 H 0.59559 0.25006 0.12454 0.0
H1983 H 0.69395 0.24219 0.15168 0.0
H1984 H 0.68358 0.27994 0.17235 0.0
H1985 H 0.62304 0.30931 0.13548 0.0
C1986 C 0.63605 0.2205 0.09389 0.0
C1987 C 0.64934 0.1955 0.09337 0.0
C1988 C 0.66963 0.18946 0.106 0.0
C1989 C 0.67643 0.20829 0.11933 0.0
C1990 C 0.66303 0.23308 0.11943 0.0
C1991 C 0.64321 0.23911 0.10702 0.0
C1992 C 0.63077 0.26642 0.11039 0.0
C1993 C 0.63736 0.28599 0.09504 0.0
C1994 C 0.60011 0.26411 0.11334 0.0
C1995 C 0.64548 0.27426 0.12729 0.0
C1996 C 0.66462 0.25523 0.13206 0.0
C1997 C 0.67942 0.25746 0.14788 0.0
C1998 C 0.67365 0.27905 0.15945 0.0
C1999 C 0.65302 0.29763 0.15514 0.0
C2000 C 0.63941 0.29565 0.1387 0.0
H2001 H 0.97417 0.41953 0.4121 0.0
H2002 H 0.91313 0.37278 0.38487 0.0
H2003 H 0.93903 0.3759 0.35674 0.0
H2004 H 0.99715 0.46132 0.3701 0.0
H2005 H 0.0316 0.45975 0.37774 0.0
H2006 H 0.00441 0.46183 0.39372 0.0
H2007 H 0.02239 0.41876 0.4092 0.0
H2008 H 0.04912 0.41603 0.39315 0.0
H2009 H 0.02619 0.38822 0.39634 0.0
H2010 H 0.9757 0.37335 0.33479 0.0
H2011 H 0.0196 0.36738 0.31985 0.0
H2012 H 0.05825 0.41536 0.36092 0.0
C2013 C 0.96558 0.41162 0.39985 0.0
C2014 C 0.94137 0.3968 0.40028 0.0
C2015 C 0.93123 0.38504 0.38447 0.0
C2016 C 0.94586 0.38666 0.36849 0.0
C2017 C 0.97054 0.40019 0.36862 0.0
C2018 C 0.98014 0.413 0.3838 0.0
C2019 C 0.00909 0.42216 0.38126 0.0
C2020 C 0.01065 0.45311 0.38067 0.0
C2021 C 0.02777 0.41057 0.39584 0.0
C2022 C 0.0151 0.41016 0.36305 0.0
C2023 C 0.99232 0.39836 0.35576 0.0
C2024 C 0.99346 0.38321 0.34009 0.0
C2025 C 0.01853 0.37966 0.33181 0.0
C2026 C 0.04222 0.39099 0.33924 0.0
C2027 C 0.04031 0.40706 0.35477 0.0
H2028 H 0.88001 0.22562 0.91332 0.0
H2029 H 0.81773 0.17491 0.89023 0.0
H2030 H 0.80475 0.21171 0.86996 0.0
H2031 H 0.84302 0.29154 0.90767 0.0
H2032 H 0.87375 0.30905 0.90209 0.0
H2033 H 0.87457 0.28089 0.91737 0.0
H2034 H 0.91021 0.25699 0.89751 0.0
H2035 H 0.90976 0.28515 0.88243 0.0
H2036 H 0.90307 0.25167 0.87412 0.0
H2037 H 0.80231 0.25144 0.84953 0.0
H2038 H 0.81443 0.28834 0.82871 0.0
H2039 H 0.87955 0.31206 0.86391 0.0
C2040 C 0.86339 0.22237 0.90419 0.0
C2041 C 0.84979 0.19739 0.90356 0.0
C2042 C 0.82814 0.194 0.89134 0.0
C2043 C 0.82054 0.21486 0.87974 0.0
C2044 C 0.83458 0.23913 0.88058 0.0
C2045 C 0.85561 0.24295 0.89248 0.0
C2046 C 0.86961 0.26961 0.88924 0.0
C2047 C 0.86496 0.28891 0.90503 0.0
C2048 C 0.89994 0.26559 0.88559 0.0
C2049 C 0.85461 0.27911 0.87277 0.0
C2050 C 0.83368 0.26187 0.86844 0.0
C2051 C 0.81824 0.26542 0.85299 0.0
C2052 C 0.8251 0.28648 0.8413 0.0
C2053 C 0.84757 0.30305 0.84499 0.0
C2054 C 0.86192 0.29987 0.86112 0.0
H2055 H 0.95677 0.6549 0.0987 0.0
H2056 H 0.95117 0.57129 0.08226 0.0
H2057 H 0.98343 0.55847 0.10614 0.0
H2058 H 0.02388 0.65765 0.10668 0.0
H2059 H 0.02264 0.67843 0.12645 0.0
H2060 H 0.99607 0.68052 0.11015 0.0
H2061 H 0.96033 0.66954 0.13437 0.0
H2062 H 0.98676 0.66815 0.15091 0.0
H2063 H 0.96434 0.63986 0.14804 0.0
H2064 H 0.02104 0.55621 0.12903 0.0
H2065 H 0.05745 0.56391 0.15117 0.0
H2066 H 0.03703 0.64892 0.15273 0.0
C2067 C 0.9618 0.6338 0.10051 0.0
C2068 C 0.95162 0.614 0.08882 0.0
C2069 C 0.95858 0.58661 0.09135 0.0
C2070 C 0.97696 0.57922 0.10478 0.0
C2071 C 0.98752 0.59945 0.11571 0.0
C2072 C 0.97963 0.62609 0.11401 0.0
C2073 C 0.99471 0.64417 0.12686 0.0
C2074 C 0.01025 0.66649 0.11693 0.0
C2075 C 0.97539 0.65613 0.14088 0.0
C2076 C 0.01361 0.62387 0.13522 0.0
C2077 C 0.00892 0.59811 0.12887 0.0
C2078 C 0.02458 0.57623 0.1343 0.0
C2079 C 0.04525 0.58078 0.14678 0.0
C2080 C 0.0502 0.60701 0.15351 0.0
C2081 C 0.03411 0.62874 0.14759 0.0
H2082 H 0.63325 0.76282 0.4178 0.0
H2083 H 0.66984 0.83144 0.39154 0.0
H2084 H 0.6762 0.80439 0.36408 0.0
H2085 H 0.67814 0.711 0.39449 0.0
H2086 H 0.65114 0.68671 0.39361 0.0
H2087 H 0.65314 0.71023 0.41198 0.0
H2088 H 0.60447 0.72643 0.40527 0.0
H2089 H 0.60231 0.70303 0.38698 0.0
H2090 H 0.59624 0.73843 0.38315 0.0
H2091 H 0.67235 0.77265 0.33859 0.0
H2092 H 0.6587 0.73802 0.3166 0.0
H2093 H 0.62613 0.68877 0.35925 0.0
C2094 C 0.64314 0.77175 0.40633 0.0
C2095 C 0.65129 0.79899 0.40667 0.0
C2096 C 0.66394 0.81042 0.39151 0.0
C2097 C 0.66764 0.79521 0.37592 0.0
C2098 C 0.65917 0.76841 0.3759 0.0
C2099 C 0.64756 0.7566 0.39078 0.0
C2100 C 0.63886 0.72789 0.38684 0.0
C2101 C 0.65636 0.70777 0.39736 0.0
C2102 C 0.60867 0.72373 0.39078 0.0
C2103 C 0.64496 0.72635 0.367 0.0
C2104 C 0.6575 0.74967 0.36111 0.0
C2105 C 0.66323 0.75402 0.3431 0.0
C2106 C 0.65545 0.73431 0.33073 0.0
C2107 C 0.64205 0.7107 0.33644 0.0
C2108 C 0.63714 0.70638 0.35477 0.0
H2109 H 0.55451 0.35373 0.60747 0.0
H2110 H 0.55064 0.43554 0.58744 0.0
H2111 H 0.5192 0.44758 0.61201 0.0
H2112 H 0.48979 0.3454 0.61489 0.0
H2113 H 0.4919 0.32579 0.63516 0.0
H2114 H 0.51945 0.32554 0.61962 0.0
H2115 H 0.55242 0.34124 0.6444 0.0
H2116 H 0.52498 0.34097 0.66024 0.0
H2117 H 0.5448 0.3711 0.6572 0.0
H2118 H 0.48134 0.44754 0.63461 0.0
H2119 H 0.44258 0.43673 0.65367 0.0
H2120 H 0.47096 0.354 0.65804 0.0
C2121 C 0.54794 0.37449 0.60878 0.0
C2122 C 0.55499 0.39383 0.59579 0.0
C2123 C 0.54578 0.42066 0.59754 0.0
C2124 C 0.52788 0.42757 0.61141 0.0
C2125 C 0.52001 0.40749 0.62348 0.0
C2126 C 0.5303 0.3816 0.62251 0.0
C2127 C 0.51628 0.36276 0.63543 0.0
C2128 C 0.5036 0.33848 0.62568 0.0
C2129 C 0.53578 0.35348 0.6502 0.0
C2130 C 0.49502 0.38148 0.64286 0.0
C2131 C 0.49791 0.40734 0.63622 0.0
C2132 C 0.47923 0.42746 0.64012 0.0
C2133 C 0.45695 0.42092 0.65086 0.0
C2134 C 0.45309 0.39424 0.65737 0.0
C2135 C 0.47294 0.37459 0.65354 0.0
H2136 H 0.159 0.18453 0.3792 0.0
H2137 H 0.12909 0.2245 0.42677 0.0
H2138 H 0.13914 0.26873 0.41313 0.0
H2139 H 0.2125 0.23714 0.36704 0.0
H2140 H 0.20537 0.23276 0.34357 0.0
H2141 H 0.2024 0.20456 0.35869 0.0
H2142 H 0.15301 0.19699 0.34835 0.0
H2143 H 0.15609 0.22477 0.33317 0.0
H2144 H 0.12939 0.22461 0.34955 0.0
H2145 H 0.1426 0.30739 0.39228 0.0
H2146 H 0.13641 0.3362 0.36559 0.0
H2147 H 0.16585 0.27185 0.33189 0.0
C2148 C 0.15563 0.20253 0.38706 0.0
C2149 C 0.14337 0.20108 0.40408 0.0
C2150 C 0.13832 0.22517 0.41366 0.0
C2151 C 0.14432 0.25036 0.40611 0.0
C2152 C 0.15566 0.25112 0.38904 0.0
C2153 C 0.16143 0.22776 0.37967 0.0
C2154 C 0.16945 0.23383 0.36056 0.0
C2155 C 0.1992 0.22665 0.35728 0.0
C2156 C 0.15086 0.21921 0.34714 0.0
C2157 C 0.16526 0.26406 0.36022 0.0
C2158 C 0.15818 0.27383 0.37694 0.0
C2159 C 0.14912 0.30027 0.3793 0.0
C2160 C 0.14583 0.31659 0.36413 0.0
C2161 C 0.15168 0.30634 0.34697 0.0
C2162 C 0.16261 0.28033 0.34508 0.0
H2163 H 0.53476 0.35791 0.15508 0.0
H2164 H 0.57062 0.43619 0.14418 0.0
H2165 H 0.53066 0.44841 0.12631 0.0
H2166 H 0.50991 0.34643 0.11348 0.0
H2167 H 0.47961 0.32976 0.12092 0.0
H2168 H 0.5092 0.32926 0.13473 0.0
H2169 H 0.48164 0.34984 0.16087 0.0
H2170 H 0.45191 0.35078 0.14697 0.0
H2171 H 0.46382 0.38116 0.15759 0.0
H2172 H 0.48899 0.44948 0.10618 0.0
H2173 H 0.45271 0.43749 0.08472 0.0
H2174 H 0.44428 0.35971 0.11034 0.0
C2175 C 0.53429 0.37796 0.14947 0.0
C2176 C 0.55627 0.39596 0.15126 0.0
C2177 C 0.55438 0.42175 0.14307 0.0
C2178 C 0.53152 0.42906 0.13299 0.0
C2179 C 0.51043 0.41059 0.13142 0.0
C2180 C 0.5117 0.38559 0.13954 0.0
C2181 C 0.48789 0.36815 0.13453 0.0
C2182 C 0.49722 0.34188 0.12537 0.0
C2183 C 0.47027 0.36214 0.15097 0.0
C2184 C 0.47356 0.38671 0.12161 0.0
C2185 C 0.48643 0.41138 0.1202 0.0
C2186 C 0.47836 0.43053 0.10753 0.0
C2187 C 0.45756 0.42372 0.0955 0.0
C2188 C 0.44548 0.39792 0.0962 0.0
C2189 C 0.45279 0.37983 0.1099 0.0
H2190 H 0.34283 0.81095 0.88608 0.0
H2191 H 0.37923 0.76915 0.9308 0.0
H2192 H 0.37277 0.72552 0.91523 0.0
H2193 H 0.29427 0.75638 0.87198 0.0
H2194 H 0.30016 0.7632 0.84863 0.0
H2195 H 0.30212 0.79017 0.86476 0.0
H2196 H 0.35058 0.80152 0.85407 0.0
H2197 H 0.34855 0.77493 0.83784 0.0
H2198 H 0.37579 0.77528 0.85382 0.0
H2199 H 0.36898 0.68802 0.8932 0.0
H2200 H 0.37259 0.66077 0.86554 0.0
H2201 H 0.3394 0.72688 0.8349 0.0
C2202 C 0.34858 0.79246 0.89277 0.0
C2203 C 0.36119 0.79315 0.90967 0.0
C2204 C 0.36947 0.76881 0.91785 0.0
C2205 C 0.3656 0.74402 0.90919 0.0
C2206 C 0.3535 0.74399 0.89233 0.0
C2207 C 0.34524 0.76764 0.88416 0.0
C2208 C 0.33676 0.76277 0.86498 0.0
C2209 C 0.30653 0.76846 0.86245 0.0
C2210 C 0.35396 0.7796 0.85193 0.0
C2211 C 0.34275 0.73293 0.86336 0.0
C2212 C 0.35162 0.72226 0.87943 0.0
C2213 C 0.36135 0.69589 0.88068 0.0
C2214 C 0.36317 0.68048 0.86499 0.0
C2215 C 0.35536 0.6916 0.8484 0.0
C2216 C 0.3443 0.71772 0.84766 0.0
H2217 H 0.04941 0.64531 0.60296 0.0
H2218 H 0.03869 0.56756 0.5776 0.0
H2219 H 0.004 0.55566 0.60014 0.0
H2220 H 0.03697 0.61906 0.6505 0.0
H2221 H 0.02114 0.65046 0.65661 0.0
H2222 H 0.04826 0.65017 0.64054 0.0
H2223 H 0.01734 0.6751 0.61802 0.0
H2224 H 0.98992 0.67471 0.63371 0.0
H2225 H 0.98548 0.66025 0.61178 0.0
H2226 H 0.96538 0.55575 0.62278 0.0
H2227 H 0.92974 0.56604 0.64515 0.0
H2228 H 0.96692 0.64352 0.6554 0.0
C2229 C 0.04045 0.62539 0.60262 0.0
C2230 C 0.04657 0.60731 0.58866 0.0
C2231 C 0.03439 0.58154 0.58834 0.0
C2232 C 0.01462 0.57468 0.60106 0.0
C2233 C 0.00802 0.59358 0.61421 0.0
C2234 C 0.02125 0.61809 0.61539 0.0
C2235 C 0.00964 0.6355 0.63011 0.0
C2236 C 0.03023 0.639 0.64534 0.0
C2237 C 1.00002 0.66299 0.62296 0.0
C2238 C 0.9863 0.61806 0.63599 0.0
C2239 C 0.98601 0.59364 0.62706 0.0
C2240 C 0.96572 0.57463 0.63003 0.0
C2241 C 0.94552 0.58065 0.64263 0.0
C2242 C 0.94548 0.60566 0.65175 0.0
C2243 C 0.96621 0.62446 0.64836 0.0
H2244 H 0.10132 0.73555 0.16574 0.0
H2245 H 0.15679 0.67288 0.14885 0.0
H2246 H 0.16797 0.69945 0.12177 0.0
H2247 H 0.07489 0.7531 0.12401 0.0
H2248 H 0.07393 0.78888 0.12831 0.0
H2249 H 0.07148 0.76543 0.1466 0.0
H2250 H 0.1124 0.78833 0.16198 0.0
H2251 H 0.11493 0.81185 0.14366 0.0
H2252 H 0.1437 0.79171 0.14992 0.0
H2253 H 0.17114 0.73209 0.09583 0.0
H2254 H 0.16595 0.76816 0.07314 0.0
H2255 H 0.10932 0.80947 0.10779 0.0
C2256 C 0.11582 0.72745 0.15632 0.0
C2257 C 0.12807 0.70217 0.15918 0.0
C2258 C 0.14725 0.6923 0.1468 0.0
C2259 C 0.15372 0.70723 0.13144 0.0
C2260 C 0.1412 0.73214 0.12896 0.0
C2261 C 0.12286 0.74228 0.14117 0.0
C2262 C 0.1122 0.76952 0.13545 0.0
C2263 C 0.0813 0.76918 0.13347 0.0
C2264 C 0.12136 0.79166 0.14853 0.0
C2265 C 0.12614 0.77238 0.11759 0.0
C2266 C 0.14322 0.75093 0.11422 0.0
C2267 C 0.15798 0.74908 0.09839 0.0
C2268 C 0.15498 0.76962 0.08562 0.0
C2269 C 0.13711 0.7914 0.08872 0.0
C2270 C 0.12282 0.79284 0.105 0.0
H2271 H 0.96813 0.37914 0.8376 0.0
H2272 H 0.91372 0.43213 0.86651 0.0
H2273 H 0.95086 0.44519 0.88654 0.0
H2274 H 0.99775 0.35196 0.87407 0.0
H2275 H 0.03112 0.34914 0.86464 0.0
H2276 H 0.00223 0.34918 0.8502 0.0
H2277 H 0.02237 0.38958 0.83268 0.0
H2278 H 0.05129 0.38986 0.84733 0.0
H2279 H 0.03139 0.41998 0.84447 0.0
H2280 H 0.99172 0.4472 0.90628 0.0
H2281 H 0.03 0.43356 0.92554 0.0
H2282 H 0.05651 0.37735 0.88496 0.0
C2283 C 0.96398 0.39379 0.84795 0.0
C2284 C 0.93784 0.40458 0.85033 0.0
C2285 C 0.93356 0.42382 0.86409 0.0
C2286 C 0.95463 0.43147 0.87557 0.0
C2287 C 0.97999 0.41991 0.87308 0.0
C2288 C 0.98468 0.40142 0.8596 0.0
C2289 C 0.01244 0.38897 0.86122 0.0
C2290 C 0.01076 0.358 0.86264 0.0
C2291 C 0.03044 0.39762 0.84549 0.0
C2292 C 0.02186 0.40175 0.87851 0.0
C2293 C 0.0034 0.42047 0.88475 0.0
C2294 C 0.00663 0.43311 0.90131 0.0
C2295 C 0.02853 0.42546 0.91211 0.0
C2296 C 0.04637 0.40497 0.90641 0.0
C2297 C 0.04353 0.39371 0.88922 0.0
H2298 H 0.34092 0.19546 0.60922 0.0
H2299 H 0.39455 0.23403 0.57114 0.0
H2300 H 0.3846 0.278 0.58472 0.0
H2301 H 0.29295 0.25551 0.61599 0.0
H2302 H 0.2903 0.24787 0.63949 0.0
H2303 H 0.29443 0.22098 0.62347 0.0
H2304 H 0.33653 0.20397 0.6407 0.0
H2305 H 0.33234 0.23052 0.65671 0.0
H2306 H 0.36393 0.22702 0.64497 0.0
H2307 H 0.37867 0.31498 0.60642 0.0
H2308 H 0.37918 0.34034 0.63484 0.0
H2309 H 0.33058 0.27852 0.65972 0.0
C2310 C 0.35012 0.21317 0.60342 0.0
C2311 C 0.36869 0.21101 0.58911 0.0
C2312 C 0.38003 0.2349 0.58191 0.0
C2313 C 0.37442 0.26013 0.58955 0.0
C2314 C 0.35719 0.26131 0.60429 0.0
C2315 C 0.34499 0.23841 0.61106 0.0
C2316 C 0.33117 0.24413 0.62874 0.0
C2317 C 0.30038 0.242 0.6268 0.0
C2318 C 0.34166 0.22532 0.64364 0.0
C2319 C 0.3397 0.27312 0.63171 0.0
C2320 C 0.3537 0.28304 0.61708 0.0
C2321 C 0.36692 0.30787 0.61767 0.0
C2322 C 0.36702 0.32224 0.63381 0.0
C2323 C 0.35406 0.31169 0.64909 0.0
C2324 C 0.33941 0.28745 0.64786 0.0
H2325 H 0.46777 0.59126 0.41244 0.0
H2326 H 0.41182 0.65241 0.39431 0.0
H2327 H 0.43655 0.65611 0.3658 0.0
H2328 H 0.52335 0.62113 0.39916 0.0
H2329 H 0.54216 0.59226 0.39144 0.0
H2330 H 0.51627 0.58803 0.40799 0.0
H2331 H 0.49173 0.55308 0.3881 0.0
H2332 H 0.51804 0.55651 0.3716 0.0
H2333 H 0.48329 0.56161 0.36534 0.0
H2334 H 0.47244 0.66118 0.34326 0.0
H2335 H 0.51484 0.66358 0.32617 0.0
H2336 H 0.54835 0.59922 0.35854 0.0
C2337 C 0.45992 0.60412 0.40194 0.0
C2338 C 0.43763 0.62104 0.40517 0.0
C2339 C 0.42853 0.63887 0.39174 0.0
C2340 C 0.44248 0.64112 0.37556 0.0
C2341 C 0.4654 0.62529 0.37307 0.0
C2342 C 0.47376 0.60661 0.38569 0.0
C2343 C 0.50101 0.59481 0.38078 0.0
C2344 C 0.52191 0.59936 0.39573 0.0
C2345 C 0.49835 0.56472 0.37618 0.0
C2346 C 0.50752 0.6113 0.36427 0.0
C2347 C 0.48648 0.62834 0.35987 0.0
C2348 C 0.48876 0.6474 0.34626 0.0
C2349 C 0.51306 0.64889 0.33677 0.0
C2350 C 0.53483 0.63152 0.34095 0.0
C2351 C 0.53184 0.61236 0.3548 0.0
H2352 H 0.54195 0.29359 0.24197 0.0
H2353 H 0.54742 0.31134 0.1851 0.0
H2354 H 0.50954 0.28139 0.17921 0.0
H2355 H 0.52554 0.22511 0.23846 0.0
H2356 H 0.50067 0.22432 0.25604 0.0
H2357 H 0.52745 0.24885 0.25668 0.0
H2358 H 0.49252 0.28761 0.25859 0.0
H2359 H 0.46561 0.26316 0.25828 0.0
H2360 H 0.46627 0.28993 0.24197 0.0
H2361 H 0.47632 0.24546 0.17832 0.0
H2362 H 0.44152 0.2112 0.18311 0.0
H2363 H 0.45234 0.21806 0.24064 0.0
C2364 C 0.53474 0.29161 0.22837 0.0
C2365 C 0.54789 0.30497 0.21406 0.0
C2366 C 0.53782 0.30171 0.1964 0.0
C2367 C 0.51631 0.28448 0.19282 0.0
C2368 C 0.50449 0.27095 0.20703 0.0
C2369 C 0.51261 0.27481 0.22452 0.0
C2370 C 0.49569 0.2577 0.23715 0.0
C2371 C 0.51341 0.23782 0.2477 0.0
C2372 C 0.47903 0.27567 0.24974 0.0
C2373 C 0.47767 0.24303 0.22386 0.0
C2374 C 0.48351 0.25095 0.20658 0.0
C2375 C 0.4711 0.23942 0.19179 0.0
C2376 C 0.45152 0.21972 0.19469 0.0
C2377 C 0.44414 0.21196 0.21227 0.0
C2378 C 0.45748 0.22373 0.22708 0.0
H2379 H 0.98347 0.31043 0.4879 0.0
H2380 H 0.92511 0.28385 0.44826 0.0
H2381 H 0.95253 0.24364 0.44237 0.0
H2382 H 0.04102 0.29242 0.46557 0.0
H2383 H 0.05979 0.27949 0.48437 0.0
H2384 H 0.03407 0.30458 0.48784 0.0
H2385 H 0.00965 0.27342 0.5104 0.0
H2386 H 0.03565 0.24838 0.50732 0.0
H2387 H 0.00077 0.23959 0.50383 0.0
H2388 H 0.98817 0.21092 0.43725 0.0
H2389 H 0.02812 0.18228 0.43583 0.0
H2390 H 0.06455 0.22722 0.47957 0.0
C2391 C 0.976 0.29565 0.47846 0.0
C2392 C 0.95212 0.3004 0.46848 0.0
C2393 C 0.9433 0.28078 0.45602 0.0
C2394 C 0.95876 0.25783 0.45256 0.0
C2395 C 0.98279 0.25444 0.46191 0.0
C2396 C 0.99116 0.27231 0.47493 0.0
C2397 C 0.01853 0.26402 0.48239 0.0
C2398 C 0.03959 0.28647 0.47988 0.0
C2399 C 0.016 0.25587 0.50216 0.0
C2400 C 0.02478 0.23968 0.47075 0.0
C2401 C 0.00359 0.23457 0.45921 0.0
C2402 C 0.00461 0.21421 0.44652 0.0
C2403 C 0.02756 0.19804 0.44585 0.0
C2404 C 0.04943 0.20209 0.45783 0.0
C2405 C 0.04813 0.22348 0.47034 0.0
H2406 H 0.98608 0.70091 0.68743 0.0
H2407 H 0.94586 0.69867 0.73897 0.0
H2408 H 0.97116 0.73967 0.74817 0.0
H2409 H 0.05071 0.72516 0.70133 0.0
H2410 H 0.0542 0.74616 0.68178 0.0
H2411 H 0.03458 0.7157 0.68064 0.0
H2412 H 0.99378 0.74362 0.66913 0.0
H2413 H 0.01308 0.77428 0.67079 0.0
H2414 H 0.98132 0.77136 0.68236 0.0
H2415 H 0.00086 0.7833 0.75069 0.0
H2416 H 0.03347 0.82123 0.74675 0.0
H2417 H 0.04983 0.79361 0.69288 0.0
C2418 C 0.98286 0.70848 0.70085 0.0
C2419 C 0.96411 0.69635 0.71253 0.0
C2420 C 0.96037 0.70745 0.72984 0.0
C2421 C 0.97446 0.73087 0.7351 0.0
C2422 C 0.99191 0.74298 0.72282 0.0
C2423 C 0.99611 0.73189 0.70608 0.0
C2424 C 0.01464 0.74891 0.69479 0.0
C2425 C 0.04004 0.73303 0.68934 0.0
C2426 C 0.99981 0.7602 0.6783 0.0
C2427 C 0.02107 0.77097 0.70794 0.0
C2428 C 0.00773 0.7677 0.72402 0.0
C2429 C 0.0113 0.78598 0.7381 0.0
C2430 C 0.0296 0.80755 0.73576 0.0
C2431 C 0.04397 0.81023 0.71952 0.0
C2432 C 0.03904 0.79206 0.70544 0.0
H2433 H 0.51569 0.68875 0.98919 0.0
H2434 H 0.57572 0.71919 0.95204 0.0
H2435 H 0.54943 0.7608 0.9483 0.0
H2436 H 0.46002 0.70976 0.96679 0.0
H2437 H 0.44002 0.72046 0.98564 0.0
H2438 H 0.46555 0.69503 0.98854 0.0
H2439 H 0.48847 0.72345 0.01329 0.0
H2440 H 0.46262 0.74879 0.01078 0.0
H2441 H 0.49767 0.75794 0.00874 0.0
H2442 H 0.51448 0.79408 0.94418 0.0
H2443 H 0.47404 0.82183 0.94227 0.0
H2444 H 0.43495 0.77253 0.98275 0.0
C2445 C 0.52378 0.70471 0.98088 0.0
C2446 C 0.54778 0.70087 0.97094 0.0
C2447 C 0.55742 0.72178 0.95978 0.0
C2448 C 0.54264 0.74549 0.95758 0.0
C2449 C 0.51842 0.74814 0.96682 0.0
C2450 C 0.50917 0.72872 0.97854 0.0
C2451 C 0.48134 0.7361 0.98564 0.0
C2452 C 0.46052 0.71402 0.98139 0.0
C2453 C 0.4826 0.74192 0.00581 0.0
C2454 C 0.47579 0.76174 0.97512 0.0
C2455 C 0.49782 0.7683 0.96463 0.0
C2456 C 0.49747 0.78979 0.95279 0.0
C2457 C 0.4743 0.80553 0.95189 0.0
C2458 C 0.45156 0.80002 0.96284 0.0
C2459 C 0.45216 0.77753 0.97448 0.0
H2460 H 0.44734 0.78192 0.30498 0.0
H2461 H 0.46902 0.82648 0.25722 0.0
H2462 H 0.50175 0.79028 0.24918 0.0
H2463 H 0.51524 0.75696 0.31437 0.0
H2464 H 0.50245 0.72563 0.32317 0.0
H2465 H 0.48265 0.75596 0.32503 0.0
H2466 H 0.44297 0.73163 0.3092 0.0
H2467 H 0.46295 0.70152 0.30683 0.0
H2468 H 0.44811 0.71708 0.28736 0.0
H2469 H 0.53193 0.74815 0.24684 0.0
H2470 H 0.55866 0.70635 0.25142 0.0
H2471 H 0.51359 0.68947 0.29968 0.0
C2472 C 0.4591 0.78419 0.29285 0.0
C2473 C 0.45567 0.80675 0.28159 0.0
C2474 C 0.4716 0.80932 0.26602 0.0
C2475 C 0.48999 0.7888 0.26133 0.0
C2476 C 0.49214 0.76625 0.2725 0.0
C2477 C 0.47737 0.76419 0.2881 0.0
C2478 C 0.48333 0.73841 0.2981 0.0
C2479 C 0.49672 0.74461 0.31623 0.0
C2480 C 0.45781 0.72115 0.30049 0.0
C2481 C 0.503 0.72547 0.28533 0.0
C2482 C 0.50829 0.74193 0.27079 0.0
C2483 C 0.52759 0.73498 0.25802 0.0
C2484 C 0.54243 0.71112 0.26059 0.0
C2485 C 0.53735 0.69432 0.27553 0.0
C2486 C 0.51695 0.70131 0.28774 0.0
H2487 H 0.52057 0.3145 0.50493 0.0
H2488 H 0.57713 0.2801 0.54294 0.0
H2489 H 0.54942 0.23904 0.54477 0.0
H2490 H 0.46319 0.29397 0.52562 0.0
H2491 H 0.44387 0.28556 0.50596 0.0
H2492 H 0.47037 0.31024 0.50458 0.0
H2493 H 0.49362 0.28308 0.47935 0.0
H2494 H 0.46684 0.25851 0.48035 0.0
H2495 H 0.50144 0.24796 0.48282 0.0
H2496 H 0.51289 0.20582 0.5466 0.0
H2497 H 0.47101 0.17945 0.54623 0.0
H2498 H 0.43726 0.23402 0.50667 0.0
C2499 C 0.52767 0.29784 0.51303 0.0
C2500 C 0.5511 0.30038 0.52371 0.0
C2501 C 0.55933 0.27852 0.5346 0.0
C2502 C 0.54372 0.2551 0.53572 0.0
C2503 C 0.52006 0.25373 0.52574 0.0
C2504 C 0.51222 0.27422 0.51433 0.0
C2505 C 0.48464 0.26842 0.50633 0.0
C2506 C 0.46433 0.29088 0.51091 0.0
C2507 C 0.48677 0.26424 0.486 0.0
C2508 C 0.47773 0.24221 0.51579 0.0
C2509 C 0.49867 0.23404 0.52671 0.0
C2510 C 0.4966 0.21156 0.53775 0.0
C2511 C 0.47262 0.19671 0.53748 0.0
C2512 C 0.45093 0.2043 0.52624 0.0
C2513 C 0.4536 0.22743 0.51525 0.0
H2514 H 0.03877 0.21564 0.75818 0.0
H2515 H 0.06643 0.22514 0.8129 0.0
H2516 H 0.03537 0.26328 0.81704 0.0
H2517 H 0.02618 0.28707 0.74843 0.0
H2518 H 0.99546 0.28073 0.73624 0.0
H2519 H 0.02185 0.2557 0.73658 0.0
H2520 H 0.98822 0.22012 0.74872 0.0
H2521 H 0.96171 0.24492 0.74816 0.0
H2522 H 0.96922 0.22741 0.7687 0.0
H2523 H 0.00213 0.30003 0.81563 0.0
H2524 H 0.96206 0.32812 0.81089 0.0
H2525 H 0.95168 0.29312 0.75802 0.0
C2526 C 0.03828 0.22593 0.77095 0.0
C2527 C 0.05507 0.21759 0.78519 0.0
C2528 C 0.05366 0.23116 0.80183 0.0
C2529 C 0.0363 0.25304 0.80427 0.0
C2530 C 0.02009 0.26092 0.79002 0.0
C2531 C 0.02036 0.24749 0.77381 0.0
C2532 C 0.99869 0.25854 0.76145 0.0
C2533 C 0.01131 0.27127 0.74468 0.0
C2534 C 0.97825 0.23643 0.75647 0.0
C2535 C 0.98606 0.2799 0.77339 0.0
C2536 C 0.99935 0.28133 0.7896 0.0
C2537 C 0.99146 0.29908 0.80302 0.0
C2538 C 0.96863 0.31505 0.80014 0.0
C2539 C 0.95347 0.31277 0.78411 0.0
C2540 C 0.96285 0.29549 0.77036 0.0
H2541 H 0.93825 0.74176 0.04366 0.0
H2542 H 0.96561 0.67924 0.00741 0.0
H2543 H 0.00424 0.70794 0.99861 0.0
H2544 H 0.9615 0.80159 0.01672 0.0
H2545 H 0.97105 0.8192 0.03684 0.0
H2546 H 0.94301 0.79608 0.03716 0.0
H2547 H 0.96558 0.77014 0.06327 0.0
H2548 H 0.99391 0.79269 0.0628 0.0
H2549 H 0.99918 0.7569 0.06041 0.0
H2550 H 0.04524 0.73917 -0.00054 0.0
H2551 H 0.08077 0.77292 0.00647 0.0
H2552 H 0.02454 0.8152 0.0409 0.0
C2553 C 0.95172 0.73452 0.0333 0.0
C2554 C 0.9491 0.70822 0.02634 0.0
C2555 C 0.96725 0.69935 0.01294 0.0
C2556 C 0.98931 0.7155 0.00791 0.0
C2557 C 0.99242 0.74063 0.01608 0.0
C2558 C 0.97361 0.75037 0.02813 0.0
C2559 C 0.98262 0.77661 0.03647 0.0
C2560 C 0.9634 0.79974 0.03148 0.0
C2561 C 0.98549 0.7739 0.05693 0.0
C2562 C 0.00977 0.77989 0.0276 0.0
C2563 C 0.01531 0.75896 0.01595 0.0
C2564 C 0.04074 0.75612 0.00808 0.0
C2565 C 0.06083 0.77522 0.01219 0.0
C2566 C 0.05515 0.79695 0.02386 0.0
C2567 C 0.0292 0.79933 0.03142 0.0
H2568 H 0.44031 0.72175 0.79866 0.0
H2569 H 0.48468 0.66121 0.76889 0.0
H2570 H 0.51887 0.69575 0.76077 0.0
H2571 H 0.4527 0.77925 0.77033 0.0
H2572 H 0.45705 0.80211 0.78887 0.0
H2573 H 0.4354 0.77312 0.79115 0.0
H2574 H 0.46264 0.7574 0.81885 0.0
H2575 H 0.48414 0.78646 0.81675 0.0
H2576 H 0.49865 0.75313 0.81703 0.0
H2577 H 0.54887 0.73693 0.75696 0.0
H2578 H 0.57439 0.77949 0.76013 0.0
H2579 H 0.51025 0.81238 0.793 0.0
C2580 C 0.45695 0.71583 0.79013 0.0
C2581 C 0.45962 0.68897 0.78405 0.0
C2582 C 0.4822 0.68176 0.77353 0.0
C2583 C 0.50158 0.70126 0.7688 0.0
C2584 C 0.49818 0.72768 0.77494 0.0
C2585 C 0.47658 0.73482 0.7856 0.0
C2586 C 0.4786 0.76383 0.79181 0.0
C2587 C 0.4545 0.78056 0.78513 0.0
C2588 C 0.48117 0.76528 0.81232 0.0
C2589 C 0.50455 0.77221 0.78273 0.0
C2590 C 0.51553 0.75111 0.77303 0.0
C2591 C 0.54032 0.75359 0.76439 0.0
C2592 C 0.55463 0.77787 0.76623 0.0
C2593 C 0.54416 0.79936 0.77663 0.0
C2594 C 0.51845 0.79665 0.78455 0.0
H2595 H 0.97001 0.80885 0.54946 0.0
H2596 H 0.92425 0.77326 0.50613 0.0
H2597 H 0.96252 0.74218 0.49979 0.0
H2598 H 0.03692 0.80482 0.53035 0.0
H2599 H 0.05246 0.79545 0.55126 0.0
H2600 H 0.02248 0.81603 0.5512 0.0
H2601 H 0.99842 0.78153 0.57179 0.0
H2602 H 0.0284 0.76108 0.57204 0.0
H2603 H 0.99671 0.74664 0.56511 0.0
H2604 H 0.00528 0.71401 0.4993 0.0
H2605 H 0.04633 0.68788 0.50644 0.0
H2606 H 0.06327 0.7418 0.55069 0.0
C2607 C 0.96832 0.79487 0.53839 0.0
C2608 C 0.94463 0.79371 0.52795 0.0
C2609 C 0.94247 0.7745 0.51409 0.0
C2610 C 0.96411 0.75696 0.51038 0.0
C2611 C 0.98741 0.75879 0.52088 0.0
C2612 C 0.9894 0.77703 0.53478 0.0
C2613 C 0.01533 0.77338 0.54521 0.0
C2614 C 0.03283 0.79894 0.54444 0.0
C2615 C 0.00935 0.76516 0.56468 0.0
C2616 C 0.028 0.75043 0.53486 0.0
C2617 C 0.01165 0.74234 0.52084 0.0
C2618 C 0.0183 0.72032 0.51014 0.0
C2619 C 0.04169 0.70563 0.51427 0.0
C2620 C 0.05817 0.71298 0.52898 0.0
C2621 C 0.05156 0.73615 0.53904 0.0
H2622 H 0.96082 0.19905 0.25649 0.0
H2623 H 0.92835 0.21684 0.30914 0.0
H2624 H 0.95968 0.2547 0.31221 0.0
H2625 H 0.02955 0.21029 0.26998 0.0
H2626 H 0.04018 0.22457 0.24896 0.0
H2627 H 0.0128 0.20073 0.24953 0.0
H2628 H 0.98212 0.2354 0.23342 0.0
H2629 H 0.00936 0.25949 0.23306 0.0
H2630 H 0.97748 0.26843 0.24302 0.0
H2631 H 0.99273 0.29067 0.30992 0.0
H2632 H 0.03392 0.31695 0.30594 0.0
H2633 H 0.05113 0.27363 0.25669 0.0
C2634 C 0.96034 0.2111 0.26856 0.0
C2635 C 0.94183 0.20531 0.28244 0.0
C2636 C 0.94216 0.22102 0.29826 0.0
C2637 C 0.95972 0.24277 0.3001 0.0
C2638 C 0.97745 0.24823 0.28619 0.0
C2639 C 0.97866 0.23249 0.27096 0.0
C2640 C 0.00221 0.24108 0.25923 0.0
C2641 C 0.02238 0.21778 0.25679 0.0
C2642 C 0.99218 0.25173 0.2411 0.0
C2643 C 0.01412 0.26371 0.27049 0.0
C2644 C 0.99874 0.26792 0.28563 0.0
C2645 C 0.00517 0.28744 0.29823 0.0
C2646 C 0.02875 0.30229 0.29581 0.0
C2647 C 0.04618 0.2971 0.28118 0.0
C2648 C 0.03827 0.2781 0.26801 0.0
H2649 H 0.53992 0.223 0.06329 0.0
H2650 H 0.55102 0.20202 0.00746 0.0
H2651 H 0.50892 0.227 -8e-05 0.0
H2652 H 0.4676 0.21478 0.06334 0.0
H2653 H 0.46247 0.24187 0.07905 0.0
H2654 H 0.49321 0.22248 0.07968 0.0
H2655 H 0.5215 0.26622 0.07632 0.0
H2656 H 0.49092 0.28571 0.07604 0.0
H2657 H 0.51471 0.28873 0.05791 0.0
H2658 H 0.46569 0.25677 -0.00101 0.0
H2659 H 0.42786 0.28872 0.00467 0.0
H2660 H 0.44576 0.28678 0.06128 0.0
C2661 C 0.53385 0.22384 0.04939 0.0
C2662 C 0.54909 0.211 0.03588 0.0
C2663 C 0.53982 0.21203 0.01797 0.0
C2664 C 0.51586 0.226 0.01363 0.0
C2665 C 0.5012 0.2382 0.02742 0.0
C2666 C 0.50995 0.23702 0.04495 0.0
C2667 C 0.49091 0.2514 0.05752 0.0
C2668 C 0.47778 0.23144 0.07067 0.0
C2669 C 0.50538 0.27438 0.06752 0.0
C2670 C 0.47053 0.26203 0.0443 0.0
C2671 C 0.47638 0.25401 0.02699 0.0
C2672 C 0.46076 0.26274 0.01252 0.0
C2673 C 0.4392 0.28064 0.01583 0.0
C2674 C 0.4337 0.28951 0.03343 0.0
C2675 C 0.44924 0.27967 0.04777 0.0
H2676 H 0.44488 0.28527 0.69389 0.0
H2677 H 0.4759 0.33484 0.73699 0.0
H2678 H 0.51068 0.29986 0.7434 0.0
H2679 H 0.45208 0.22166 0.71383 0.0
H2680 H 0.4628 0.20499 0.69361 0.0
H2681 H 0.44128 0.23419 0.69235 0.0
H2682 H 0.47579 0.25821 0.67173 0.0
H2683 H 0.49721 0.2289 0.67265 0.0
H2684 H 0.51036 0.26145 0.6789 0.0
H2685 H 0.54149 0.25802 0.74503 0.0
H2686 H 0.56735 0.21585 0.74035 0.0
H2687 H 0.51461 0.19486 0.6962 0.0
C2688 C 0.45895 0.2888 0.70474 0.0
C2689 C 0.45757 0.3125 0.71515 0.0
C2690 C 0.47669 0.31673 0.72891 0.0
C2691 C 0.49635 0.29694 0.73266 0.0
C2692 C 0.49668 0.27341 0.72232 0.0
C2693 C 0.47867 0.2696 0.70845 0.0
C2694 C 0.48345 0.24321 0.69886 0.0
C2695 C 0.45841 0.22494 0.69973 0.0
C2696 C 0.49223 0.24825 0.67939 0.0
C2697 C 0.50638 0.23204 0.7099 0.0
C2698 C 0.51401 0.24976 0.72326 0.0
C2699 C 0.53559 0.24404 0.73463 0.0
C2700 C 0.55009 0.21999 0.73192 0.0
C2701 C 0.5428 0.20187 0.71807 0.0
C2702 C 0.52032 0.20789 0.7072 0.0
H2703 H 0.53634 0.80525 0.45347 0.0
H2704 H 0.58746 0.76424 0.49172 0.0
H2705 H 0.55029 0.7316 0.49783 0.0
H2706 H 0.47275 0.79868 0.4763 0.0
H2707 H 0.4544 0.79289 0.45583 0.0
H2708 H 0.4845 0.81322 0.45561 0.0
H2709 H 0.50536 0.78226 0.43132 0.0
H2710 H 0.47526 0.76202 0.43133 0.0
H2711 H 0.50757 0.74647 0.43532 0.0
H2712 H 0.5068 0.70233 0.49823 0.0
H2713 H 0.46438 0.678 0.49123 0.0
H2714 H 0.4432 0.74075 0.45326 0.0
C2715 C 0.53949 0.78994 0.46356 0.0
C2716 C 0.56434 0.78771 0.47257 0.0
C2717 C 0.56833 0.7664 0.48487 0.0
C2718 C 0.54731 0.74795 0.48845 0.0
C2719 C 0.52274 0.7511 0.47944 0.0
C2720 C 0.51903 0.77154 0.46712 0.0
C2721 C 0.4919 0.76979 0.45805 0.0
C2722 C 0.47489 0.79515 0.46168 0.0
C2723 C 0.49523 0.76483 0.43782 0.0
C2724 C 0.48045 0.74536 0.46736 0.0
C2725 C 0.49838 0.73464 0.47962 0.0
C2726 C 0.49259 0.71077 0.48878 0.0
C2727 C 0.46836 0.69715 0.48479 0.0
C2728 C 0.45032 0.70746 0.47174 0.0
C2729 C 0.45623 0.73237 0.46348 0.0
H2730 H 0.96168 0.79408 0.19032 0.0
H2731 H 0.98176 0.82759 0.24206 0.0
H2732 H 0.01144 0.78802 0.24812 0.0
H2733 H 0.95511 0.72806 0.20404 0.0
H2734 H 0.96902 0.71335 0.18401 0.0
H2735 H 0.9526 0.74568 0.18302 0.0
H2736 H 0.99545 0.76738 0.16922 0.0
H2737 H 0.0117 0.7349 0.16962 0.0
H2738 H 0.02747 0.76337 0.18034 0.0
H2739 H 0.03723 0.74249 0.24843 0.0
H2740 H 0.05794 0.69775 0.24246 0.0
H2741 H 0.01695 0.69497 0.19119 0.0
C2742 C 0.9731 0.79358 0.20266 0.0
C2743 C 0.97025 0.81404 0.21554 0.0
C2744 C 0.98448 0.81231 0.23187 0.0
C2745 C 0.00109 0.78984 0.23543 0.0
C2746 C 0.00284 0.76946 0.22254 0.0
C2747 C 0.98934 0.77142 0.2064 0.0
C2748 C 0.99299 0.74656 0.19504 0.0
C2749 C 0.96582 0.7326 0.19132 0.0
C2750 C 0.00779 0.75347 0.17753 0.0
C2751 C 0.01043 0.72992 0.20734 0.0
C2752 C 0.01621 0.74336 0.22309 0.0
C2753 C 0.03272 0.73184 0.23616 0.0
C2754 C 0.0442 0.70635 0.23274 0.0
C2755 C 0.03886 0.69269 0.21647 0.0
C2756 C 0.02119 0.70452 0.20391 0.0
H2757 H 0.96604 0.19673 0.93559 0.0
H2758 H 0.92461 0.22598 0.98281 0.0
H2759 H 0.96318 0.25664 0.9891 0.0
H2760 H 0.03263 0.19644 0.95231 0.0
H2761 H 0.04782 0.20853 0.93191 0.0
H2762 H 0.01691 0.18948 0.93106 0.0
H2763 H 0.9934 0.22824 0.91375 0.0
H2764 H 0.02445 0.24706 0.91417 0.0
H2765 H 0.99395 0.26189 0.92286 0.0
H2766 H 0.0067 0.28367 0.99003 0.0
H2767 H 0.04884 0.30871 0.98384 0.0
H2768 H 0.06177 0.26087 0.93616 0.0
C2769 C 0.96503 0.20971 0.94723 0.0
C2770 C 0.94251 0.209 0.95881 0.0
C2771 C 0.94164 0.22644 0.97375 0.0
C2772 C 0.96354 0.24366 0.97747 0.0
C2773 C 0.98583 0.24327 0.96599 0.0
C2774 C 0.98642 0.2271 0.95097 0.0
C2775 C 0.01206 0.23116 0.94028 0.0
C2776 C 0.02831 0.20483 0.93882 0.0
C2777 C 0.00558 0.24278 0.92167 0.0
C2778 C 0.02636 0.25168 0.95187 0.0
C2779 C 0.01086 0.25847 0.96662 0.0
C2780 C 0.01908 0.27827 0.97866 0.0
C2781 C 0.04315 0.29217 0.97516 0.0
C2782 C 0.05888 0.28602 0.95989 0.0
C2783 C 0.05069 0.2651 0.94834 0.0
H2784 H 0.33087 0.94429 0.26529 0.0
H2785 H 0.41002 0.91726 0.2477 0.0
H2786 H 0.41803 0.96135 0.23386 0.0
H2787 H 0.31581 0.98745 0.22669 0.0
H2788 H 0.29998 0.01319 0.2401 0.0
H2789 H 0.29895 0.97846 0.24721 0.0
H2790 H 0.32031 0.99192 0.27755 0.0
H2791 H 0.32152 0.02664 0.27052 0.0
H2792 H 0.35191 0.00992 0.27777 0.0
H2793 H 0.4194 0.0086 0.22381 0.0
H2794 H 0.41355 0.05686 0.21735 0.0
H2795 H 0.33434 0.05515 0.24212 0.0
C2796 C 0.34982 0.94751 0.25843 0.0
C2797 C 0.36963 0.92692 0.25745 0.0
C2798 C 0.39412 0.9322 0.24827 0.0
C2799 C 0.39902 0.95736 0.24047 0.0
C2800 C 0.37934 0.97721 0.24196 0.0
C2801 C 0.35518 0.97267 0.25063 0.0
C2802 C 0.33809 0.99811 0.25102 0.0
C2803 C 0.31164 0.99405 0.24063 0.0
C2804 C 0.33264 0.00718 0.27037 0.0
C2805 C 0.35667 0.01767 0.24144 0.0
C2806 C 0.38028 0.00502 0.23631 0.0
C2807 C 0.40099 0.01876 0.22771 0.0
C2808 C 0.39756 0.04623 0.22426 0.0
C2809 C 0.37365 0.05984 0.22945 0.0
C2810 C 0.3528 0.04525 0.238 0.0
H2811 H 0.29816 0.08199 0.51514 0.0
H2812 H 0.30841 0.16783 0.52366 0.0
H2813 H 0.26032 0.1754 0.51635 0.0
H2814 H 0.25515 0.08882 0.47694 0.0
H2815 H 0.23454 0.06 0.48232 0.0
H2816 H 0.26914 0.06117 0.48958 0.0
H2817 H 0.25367 0.05368 0.52232 0.0
H2818 H 0.21895 0.05277 0.51516 0.0
H2819 H 0.22942 0.07639 0.53213 0.0
H2820 H 0.21185 0.17382 0.50781 0.0
H2821 H 0.16718 0.16423 0.49485 0.0
H2822 H 0.18824 0.07948 0.49053 0.0
C2823 C 0.29008 0.10228 0.51553 0.0
C2824 C 0.30667 0.12439 0.52 0.0
C2825 C 0.2958 0.15076 0.5202 0.0
C2826 C 0.26857 0.15518 0.51621 0.0
C2827 C 0.2526 0.13301 0.51189 0.0
C2828 C 0.26297 0.10713 0.51125 0.0
C2829 C 0.24185 0.08719 0.50491 0.0
C2830 C 0.2507 0.0735 0.4874 0.0
C2831 C 0.2356 0.06627 0.5195 0.0
C2832 C 0.21814 0.10598 0.50191 0.0
C2833 C 0.22468 0.13222 0.50635 0.0
C2834 C 0.2064 0.15333 0.50436 0.0
C2835 C 0.18097 0.14763 0.49714 0.0
C2836 C 0.17414 0.12109 0.49178 0.0
C2837 C 0.19287 0.09995 0.49453 0.0
H2838 H 0.17156 0.94476 0.73873 0.0
H2839 H 0.09286 0.91536 0.75552 0.0
H2840 H 0.08197 0.96006 0.76743 0.0
H2841 H 0.18204 0.99265 0.77579 0.0
H2842 H 0.19733 0.01761 0.7615 0.0
H2843 H 0.20063 0.98228 0.75624 0.0
H2844 H 0.18061 0.9912 0.72478 0.0
H2845 H 0.17696 0.02647 0.72999 0.0
H2846 H 0.14807 0.00721 0.72283 0.0
H2847 H 0.07746 0.00825 0.77511 0.0
H2848 H 0.08069 0.05718 0.7798 0.0
H2849 H 0.16116 0.05702 0.75677 0.0
C2850 C 0.15215 0.94755 0.74509 0.0
C2851 C 0.13326 0.92615 0.74629 0.0
C2852 C 0.10812 0.93093 0.75481 0.0
C2853 C 0.10154 0.95644 0.76148 0.0
C2854 C 0.12022 0.97715 0.75954 0.0
C2855 C 0.1451 0.97304 0.75171 0.0
C2856 C 0.16078 0.99927 0.75044 0.0
C2857 C 0.18673 0.99786 0.76167 0.0
C2858 C 0.16696 0.00645 0.73084 0.0
C2859 C 0.14058 0.01874 0.75852 0.0
C2860 C 0.11739 0.00543 0.76371 0.0
C2861 C 0.09552 0.01893 0.77115 0.0
C2862 C 0.09746 0.04683 0.77354 0.0
C2863 C 0.12103 0.06107 0.76841 0.0
C2864 C 0.1429 0.04672 0.76083 0.0
H2865 H 0.19513 0.92596 0.0038 0.0
H2866 H 0.18062 0.83985 0.00798 0.0
H2867 H 0.22906 0.83107 0.00366 0.0
H2868 H 0.24715 0.92078 0.96921 0.0
H2869 H 0.26667 0.94828 0.97821 0.0
H2870 H 0.23062 0.94766 0.9812 0.0
H2871 H 0.23738 0.95175 0.01547 0.0
H2872 H 0.27347 0.95176 0.01261 0.0
H2873 H 0.25779 0.92715 0.02699 0.0
H2874 H 0.27875 0.83143 0.0004 0.0
H2875 H 0.32634 0.84034 0.99339 0.0
H2876 H 0.30951 0.9263 0.99128 0.0
C2877 C 0.20218 0.90528 0.00348 0.0
C2878 C 0.18413 0.88356 0.00598 0.0
C2879 C 0.19402 0.85675 0.00566 0.0
C2880 C 0.22154 0.85156 0.00348 0.0
C2881 C 0.23889 0.8734 0.00153 0.0
C2882 C 0.22964 0.89969 0.00112 0.0
C2883 C 0.25266 0.91934 0.99832 0.0
C2884 C 0.24906 0.93493 0.98068 0.0
C2885 C 0.25548 0.93863 0.0143 0.0
C2886 C 0.27624 0.89993 0.99731 0.0
C2887 C 0.26781 0.87358 -0.00057 0.0
C2888 C 0.28568 0.85197 -0.00128 0.0
C2889 C 0.31279 0.85731 0.99496 0.0
C2890 C 0.32178 0.88406 0.99187 0.0
C2891 C 0.30329 0.90565 0.99356 0.0
H2892 H 0.61788 0.95255 0.77685 0.0
H2893 H 0.67971 0.92136 0.74154 0.0
H2894 H 0.69008 0.96795 0.73143 0.0
H2895 H 0.59378 0.00526 0.74844 0.0
H2896 H 0.58855 0.02888 0.76644 0.0
H2897 H 0.58627 0.99321 0.77064 0.0
H2898 H 0.62239 0.99762 0.79555 0.0
H2899 H 0.62496 0.0333 0.7913 0.0
H2900 H 0.65468 0.01239 0.79033 0.0
H2901 H 0.69157 0.01741 0.72419 0.0
H2902 H 0.68457 0.06591 0.72001 0.0
H2903 H 0.62481 0.06551 0.76263 0.0
C2904 C 0.63346 0.95567 0.7669 0.0
C2905 C 0.64783 0.93369 0.75968 0.0
C2906 C 0.66842 0.93818 0.74698 0.0
C2907 C 0.67446 0.96446 0.74128 0.0
C2908 C 0.66002 0.98585 0.74873 0.0
C2909 C 0.64004 0.98175 0.76133 0.0
C2910 C 0.62759 0.00815 0.7673 0.0
C2911 C 0.59726 0.00891 0.76294 0.0
C2912 C 0.63273 0.01315 0.78731 0.0
C2913 C 0.64329 0.02776 0.7558 0.0
C2914 C 0.66188 0.01449 0.74521 0.0
C2915 C 0.67746 0.0281 0.73266 0.0
C2916 C 0.6735 0.0559 0.73056 0.0
C2917 C 0.65428 0.07005 0.7411 0.0
C2918 C 0.63956 0.05563 0.75421 0.0
H2919 H 0.69914 0.86419 0.48842 0.0
H2920 H 0.67894 0.94931 0.49099 0.0
H2921 H 0.72693 0.96005 0.4968 0.0
H2922 H 0.74835 0.86478 0.52397 0.0
H2923 H 0.76967 0.84036 0.51304 0.0
H2924 H 0.73383 0.84002 0.50917 0.0
H2925 H 0.74254 0.84362 0.47505 0.0
H2926 H 0.77841 0.8446 0.47886 0.0
H2927 H 0.76226 0.87131 0.46649 0.0
H2928 H 0.7776 0.96119 0.50203 0.0
H2929 H 0.82561 0.95241 0.50893 0.0
H2930 H 0.81139 0.86641 0.50355 0.0
C2931 C 0.70459 0.88508 0.49058 0.0
C2932 C 0.68517 0.9059 0.48937 0.0
C2933 C 0.69346 0.93302 0.49179 0.0
C2934 C 0.72066 0.93931 0.49506 0.0
C2935 C 0.7393 0.91826 0.49583 0.0
C2936 C 0.73151 0.89169 0.49385 0.0
C2937 C 0.75527 0.87269 0.49546 0.0
C2938 C 0.75156 0.85333 0.51136 0.0
C2939 C 0.75988 0.85715 0.47792 0.0
C2940 C 0.77771 0.89269 0.49885 0.0
C2941 C 0.76821 0.9189 0.49885 0.0
C2942 C 0.78523 0.94073 0.50208 0.0
C2943 C 0.81246 0.93554 0.50599 0.0
C2944 C 0.82237 0.90872 0.50673 0.0
C2945 C 0.80473 0.88717 0.50271 0.0
H2946 H 0.87497 0.04271 0.2803 0.0
H2947 H 0.82108 0.08084 0.24232 0.0
H2948 H 0.81296 0.03647 0.22784 0.0
H2949 H 0.90541 0.99693 0.25079 0.0
H2950 H 0.90734 0.96969 0.2667 0.0
H2951 H 0.90755 0.00407 0.27439 0.0
H2952 H 0.86635 0.99418 0.29471 0.0
H2953 H 0.86601 0.9597 0.2871 0.0
H2954 H 0.83611 0.98019 0.28504 0.0
H2955 H 0.81492 0.98869 0.2159 0.0
H2956 H 0.82479 0.94146 0.20819 0.0
H2957 H 0.87359 0.93409 0.25627 0.0
C2958 C 0.86132 0.04157 0.269 0.0
C2959 C 0.84874 0.06491 0.26224 0.0
C2960 C 0.83083 0.06296 0.24758 0.0
C2961 C 0.82613 0.03793 0.23934 0.0
C2962 C 0.83908 0.01521 0.24625 0.0
C2963 C 0.85603 0.0168 0.2609 0.0
C2964 C 0.86788 0.98962 0.26559 0.0
C2965 C 0.89887 0.99012 0.26428 0.0
C2966 C 0.85851 0.98038 0.28421 0.0
C2967 C 0.85556 0.97252 0.251 0.0
C2968 C 0.83906 0.98758 0.23995 0.0
C2969 C 0.82729 0.97654 0.2247 0.0
C2970 C 0.83288 0.94952 0.22052 0.0
C2971 C 0.84991 0.93369 0.23164 0.0
C2972 C 0.86074 0.94543 0.24731 0.0
H2973 H 0.81324 0.0787 0.99345 0.0
H2974 H 0.82992 0.16478 0.99577 0.0
H2975 H 0.78265 0.17341 0.00331 0.0
H2976 H 0.75151 0.08538 0.97108 0.0
H2977 H 0.73472 0.05807 0.98244 0.0
H2978 H 0.77083 0.05751 0.9798 0.0
H2979 H 0.77708 0.05273 0.01405 0.0
H2980 H 0.74096 0.05268 0.01678 0.0
H2981 H 0.76127 0.07679 0.02879 0.0
H2982 H 0.73291 0.17387 0.00664 0.0
H2983 H 0.68418 0.16524 0.00988 0.0
H2984 H 0.6985 0.07923 0.0049 0.0
C2985 C 0.80716 0.09937 0.99576 0.0
C2986 C 0.82573 0.12097 0.99399 0.0
C2987 C 0.81662 0.14765 0.99738 0.0
C2988 C 0.78956 0.15289 0.00146 0.0
C2989 C 0.77168 0.13132 0.00213 0.0
C2990 C 0.78009 0.10503 -0.00031 0.0
C2991 C 0.75634 0.08571 0.00025 0.0
C2992 C 0.75318 0.07079 0.98233 0.0
C2993 C 0.75908 0.06581 0.01591 0.0
C2994 C 0.73331 0.10535 0.00323 0.0
C2995 C 0.74268 0.13156 0.00412 0.0
C2996 C 0.72532 0.15343 0.00609 0.0
C2997 C 0.69765 0.14835 0.00766 0.0
C2998 C 0.68758 0.12162 0.00737 0.0
C2999 C 0.70568 0.09986 0.00503 0.0
H3000 H 0.86024 0.55296 0.7212 0.0
H3001 H 0.83082 0.59182 0.76926 0.0
H3002 H 0.82254 0.5469 0.78295 0.0
H3003 H 0.81547 0.49347 0.72203 0.0
H3004 H 0.8418 0.4712 0.71437 0.0
H3005 H 0.84177 0.50611 0.70764 0.0
H3006 H 0.89025 0.51163 0.7201 0.0
H3007 H 0.89042 0.47683 0.72688 0.0
H3008 H 0.89706 0.50293 0.74308 0.0
H3009 H 0.81982 0.49808 0.79167 0.0
H3010 H 0.82691 0.44925 0.79625 0.0
H3011 H 0.86107 0.4426 0.74306 0.0
C3012 C 0.85153 0.55186 0.73447 0.0
C3013 C 0.84566 0.5755 0.74419 0.0
C3014 C 0.83509 0.57371 0.76168 0.0
C3015 C 0.83025 0.54838 0.76945 0.0
C3016 C 0.83641 0.52531 0.75953 0.0
C3017 C 0.84704 0.52686 0.74248 0.0
C3018 C 0.8545 0.49928 0.73533 0.0
C3019 C 0.83736 0.4921 0.71887 0.0
C3020 C 0.88486 0.49758 0.73111 0.0
C3021 C 0.84707 0.48195 0.75122 0.0
C3022 C 0.83604 0.49728 0.76485 0.0
C3023 C 0.8282 0.48586 0.78104 0.0
C3024 C 0.83218 0.45814 0.78348 0.0
C3025 C 0.84429 0.4423 0.76992 0.0
C3026 C 0.85158 0.45432 0.75354 0.0
H3027 H 0.80923 0.58244 0.99014 0.0
H3028 H 0.81074 0.63787 0.03497 0.0
H3029 H 0.76109 0.64127 0.0341 0.0
H3030 H 0.75622 0.61563 0.966 0.0
H3031 H 0.74081 0.58491 0.95813 0.0
H3032 H 0.77639 0.58571 0.96289 0.0
H3033 H 0.7704 0.54537 0.98459 0.0
H3034 H 0.73465 0.54484 0.98013 0.0
H3035 H 0.74669 0.54798 0.00279 0.0
H3036 H 0.71226 0.63885 0.02877 0.0
H3037 H 0.66637 0.63628 0.01629 0.0
H3038 H 0.69563 0.58411 0.97385 0.0
C3039 C 0.79893 0.59532 -0.00037 0.0
C3040 C 0.81343 0.60994 0.01263 0.0
C3041 C 0.79964 0.62661 0.02495 0.0
C3042 C 0.77156 0.62848 0.02465 0.0
C3043 C 0.75762 0.6135 0.01195 0.0
C3044 C 0.7707 0.59754 -0.00053 0.0
C3045 C 0.75065 0.58478 0.98671 0.0
C3046 C 0.75636 0.59328 0.96728 0.0
C3047 C 0.75061 0.55391 0.98868 0.0
C3048 C 0.72452 0.59685 0.99362 0.0
C3049 C 0.72906 0.61274 0.00848 0.0
C3050 C 0.70837 0.62652 0.01711 0.0
C3051 C 0.6824 0.62497 0.00991 0.0
C3052 C 0.67747 0.61018 0.99403 0.0
C3053 C 0.69868 0.59525 0.98614 0.0
H3054 H 0.65033 0.54878 0.27901 0.0
H3055 H 0.64538 0.5891 0.22764 0.0
H3056 H 0.65169 0.54537 0.2123 0.0
H3057 H 0.69999 0.49563 0.26533 0.0
H3058 H 0.68356 0.47033 0.27878 0.0
H3059 H 0.68302 0.50517 0.28569 0.0
H3060 H 0.63082 0.50368 0.2871 0.0
H3061 H 0.63116 0.46899 0.28009 0.0
H3062 H 0.61205 0.49351 0.26756 0.0
H3063 H 0.65455 0.49748 0.20262 0.0
H3064 H 0.65129 0.44799 0.19912 0.0
H3065 H 0.65201 0.43831 0.2567 0.0
C3066 C 0.65141 0.54843 0.26454 0.0
C3067 C 0.64771 0.57224 0.25445 0.0
C3068 C 0.6483 0.57103 0.23555 0.0
C3069 C 0.65202 0.54635 0.22676 0.0
C3070 C 0.65508 0.52314 0.23708 0.0
C3071 C 0.65481 0.52393 0.25556 0.0
C3072 C 0.65582 0.49579 0.26347 0.0
C3073 C 0.68217 0.49148 0.27394 0.0
C3074 C 0.63097 0.49018 0.27524 0.0
C3075 C 0.65544 0.47902 0.24655 0.0
C3076 C 0.65578 0.49526 0.23149 0.0
C3077 C 0.65466 0.48456 0.21429 0.0
C3078 C 0.65284 0.45654 0.21242 0.0
C3079 C 0.65174 0.43968 0.22765 0.0
C3080 C 0.65321 0.45096 0.24491 0.0
H3081 H 0.81207 0.41674 0.5032 0.0
H3082 H 0.80565 0.37486 0.45254 0.0
H3083 H 0.75593 0.37622 0.45462 0.0
H3084 H 0.76117 0.38247 0.52484 0.0
H3085 H 0.74792 0.41081 0.53714 0.0
H3086 H 0.78267 0.41064 0.53029 0.0
H3087 H 0.77558 0.45626 0.51399 0.0
H3088 H 0.74064 0.45644 0.52073 0.0
H3089 H 0.74935 0.45926 0.4974 0.0
H3090 H 0.7081 0.37729 0.46354 0.0
H3091 H 0.66473 0.37559 0.47963 0.0
H3092 H 0.70145 0.41598 0.52499 0.0
C3093 C 0.8 0.40849 0.49244 0.0
C3094 C 0.81228 0.39588 0.47766 0.0
C3095 C 0.79626 0.38472 0.46388 0.0
C3096 C 0.76813 0.38556 0.4649 0.0
C3097 C 0.75641 0.39781 0.47974 0.0
C3098 C 0.77175 0.40913 0.49328 0.0
C3099 C 0.75402 0.4186 0.50855 0.0
C3100 C 0.76191 0.40479 0.52624 0.0
C3101 C 0.75496 0.44948 0.51027 0.0
C3102 C 0.72664 0.40929 0.50196 0.0
C3103 C 0.72844 0.39808 0.48508 0.0
C3104 C 0.70631 0.38636 0.47665 0.0
C3105 C 0.68182 0.38535 0.48592 0.0
C3106 C 0.67976 0.39566 0.50353 0.0
C3107 C 0.70229 0.40847 0.51141 0.0
H3108 H 0.1614 0.55786 0.25807 0.0
H3109 H 0.12763 0.55338 0.20464 0.0
H3110 H 0.12517 0.50386 0.20696 0.0
H3111 H 0.20215 0.49562 0.2542 0.0
H3112 H 0.19644 0.48583 0.2771 0.0
H3113 H 0.19689 0.52104 0.27108 0.0
H3114 H 0.14929 0.52723 0.28483 0.0
H3115 H 0.14879 0.49214 0.29098 0.0
H3116 H 0.12205 0.50589 0.27741 0.0
H3117 H 0.12303 0.45583 0.21559 0.0
H3118 H 0.12163 0.41121 0.23034 0.0
H3119 H 0.1586 0.44563 0.27769 0.0
C3120 C 0.15376 0.54628 0.24689 0.0
C3121 C 0.14496 0.55917 0.23112 0.0
C3122 C 0.13482 0.54364 0.21672 0.0
C3123 C 0.13334 0.51558 0.2179 0.0
C3124 C 0.14235 0.50332 0.23351 0.0
C3125 C 0.1525 0.51803 0.24774 0.0
C3126 C 0.16017 0.49962 0.2631 0.0
C3127 C 0.19073 0.50059 0.26657 0.0
C3128 C 0.1441 0.50664 0.28008 0.0
C3129 C 0.15181 0.47252 0.25549 0.0
C3130 C 0.14179 0.47516 0.23834 0.0
C3131 C 0.13123 0.45334 0.2289 0.0
C3132 C 0.13049 0.42815 0.23734 0.0
C3133 C 0.14039 0.42504 0.25496 0.0
C3134 C 0.15158 0.44741 0.26401 0.0
H3135 H 0.30613 0.42008 0.00691 0.0
H3136 H 0.32764 0.33537 0.0018 0.0
H3137 H 0.28143 0.32493 0.9925 0.0
H3138 H 0.24172 0.40876 0.02604 0.0
H3139 H 0.22517 0.43616 0.0146 0.0
H3140 H 0.26075 0.43804 0.01931 0.0
H3141 H 0.27084 0.4458 0.98571 0.0
H3142 H 0.23524 0.44425 0.9809 0.0
H3143 H 0.25829 0.42209 0.96942 0.0
H3144 H 0.23272 0.32253 0.98581 0.0
H3145 H 0.18444 0.32894 0.97981 0.0
H3146 H 0.1928 0.41479 0.99017 0.0
C3147 C 0.30125 0.39937 0.00367 0.0
C3148 C 0.3209 0.37867 0.00492 0.0
C3149 C 0.31343 0.35184 0.00051 0.0
C3150 C 0.28703 0.34557 0.99539 0.0
C3151 C 0.26814 0.36626 0.99474 0.0
C3152 C 0.27484 0.39267 0.99856 0.0
C3153 C 0.25023 0.41084 0.99728 0.0
C3154 C 0.24412 0.42424 0.01539 0.0
C3155 C 0.25388 0.43199 0.98244 0.0
C3156 C 0.2287 0.39038 0.99236 0.0
C3157 C 0.23959 0.36482 0.99101 0.0
C3158 C 0.22391 0.34245 0.98683 0.0
C3159 C 0.19637 0.34629 0.98366 0.0
C3160 C 0.1846 0.37233 0.98472 0.0
C3161 C 0.20111 0.39464 0.98922 0.0
H3162 H 0.35277 0.56197 0.74006 0.0
H3163 H 0.36283 0.55448 0.79743 0.0
H3164 H 0.36272 0.50479 0.79475 0.0
H3165 H 0.30714 0.50474 0.7355 0.0
H3166 H 0.32078 0.49433 0.71424 0.0
H3167 H 0.32167 0.52937 0.72061 0.0
H3168 H 0.37346 0.53019 0.71584 0.0
H3169 H 0.37269 0.49522 0.7094 0.0
H3170 H 0.39431 0.50602 0.72741 0.0
H3171 H 0.36261 0.45613 0.78583 0.0
H3172 H 0.36171 0.41143 0.77116 0.0
H3173 H 0.35085 0.45049 0.71968 0.0
C3174 C 0.35481 0.54973 0.75198 0.0
C3175 C 0.35759 0.56176 0.76895 0.0
C3176 C 0.36035 0.54538 0.78435 0.0
C3177 C 0.36038 0.51724 0.78296 0.0
C3178 C 0.35738 0.50584 0.76608 0.0
C3179 C 0.35449 0.5215 0.75086 0.0
C3180 C 0.35136 0.50404 0.73438 0.0
C3181 C 0.32359 0.50838 0.72567 0.0
C3182 C 0.37433 0.50917 0.72097 0.0
C3183 C 0.35345 0.47623 0.74269 0.0
C3184 C 0.35686 0.47771 0.76098 0.0
C3185 C 0.35981 0.45467 0.77151 0.0
C3186 C 0.35936 0.42939 0.76307 0.0
C3187 C 0.35594 0.42741 0.74431 0.0
C3188 C 0.35287 0.45124 0.73409 0.0
H3189 H 0.19269 0.63025 0.49279 0.0
H3190 H 0.18405 0.56079 0.52786 0.0
H3191 H 0.23173 0.54952 0.52306 0.0
H3192 H 0.24348 0.60319 0.46238 0.0
H3193 H 0.26153 0.63471 0.46136 0.0
H3194 H 0.2256 0.63462 0.46502 0.0
H3195 H 0.23235 0.66271 0.49392 0.0
H3196 H 0.26827 0.66264 0.49047 0.0
H3197 H 0.25446 0.65022 0.51119 0.0
H3198 H 0.28184 0.54746 0.51605 0.0
H3199 H 0.32974 0.55606 0.50791 0.0
H3200 H 0.30583 0.62955 0.48087 0.0
C3201 C 0.20055 0.61256 0.49946 0.0
C3202 C 0.18412 0.59644 0.51065 0.0
C3203 C 0.19565 0.57324 0.51881 0.0
C3204 C 0.22295 0.56674 0.51633 0.0
C3205 C 0.23868 0.58375 0.50582 0.0
C3206 C 0.22787 0.60622 0.49756 0.0
C3207 C 0.24946 0.62275 0.4884 0.0
C3208 C 0.24473 0.62387 0.46809 0.0
C3209 C 0.25123 0.65126 0.49648 0.0
C3210 C 0.27414 0.6062 0.49295 0.0
C3211 C 0.26757 0.58353 0.50277 0.0
C3212 C 0.28722 0.56518 0.5084 0.0
C3213 C 0.31427 0.5702 0.50382 0.0
C3214 C 0.32123 0.59364 0.49411 0.0
C3215 C 0.30092 0.61173 0.4886 0.0
loop_
_geom_bond_atom_site_label_1
_geom_bond_atom_site_label_2
_geom_bond_distance
_geom_bond_site_symmetry_2
_ccdc_geom_bond_type
Co0 N4 2.148 . S
Co0 N10 2.128 . S
Co0 N20 2.194 . S
Co0 O25 2.351 . S
Co0 O26 2.155 . S
Co0 O27 2.096 . S
C1 N4 1.301 . S
C1 N5 1.328 . S
C1 H6 0.930 . S
C2 C3 1.333 . S
C2 N4 1.317 . S
C2 H7 0.930 . S
C3 C2 1.333 . S
C3 N5 1.350 . S
C3 H29 0.931 . S
N4 Co0 2.148 . S
N4 C1 1.301 . S
N4 C2 1.317 . S
N5 C1 1.328 . S
N5 C3 1.350 . S
H6 C1 0.930 . S
H7 C2 0.930 . S
C8 O9 1.224 . S
C8 O27 1.247 . S
O9 C8 1.224 . S
N10 Co0 2.128 . S
N10 C11 1.355 . S
N10 C13 1.311 . S
C11 N10 1.355 . S
C11 C12 1.363 . S
C11 H23 0.929 . S
C12 C11 1.363 . S
C12 N14 1.375 . S
C12 H30 0.931 . S
C13 N10 1.311 . S
C13 N14 1.347 . S
C13 H24 0.929 . S
N14 C12 1.375 . S
N14 C13 1.347 . S
C15 C18 1.365 . S
C15 N20 1.328 . S
C15 H21 0.929 . S
C16 C17 1.362 . S
C16 C19 1.378 . S
C16 H31 0.929 . S
C17 C16 1.362 . S
C17 C18 1.366 . S
C18 C15 1.365 . S
C18 C17 1.366 . S
C18 H32 0.930 . S
C19 C16 1.378 . S
C19 N20 1.315 . S
C19 H22 0.930 . S
N20 Co0 2.194 . S
N20 C15 1.328 . S
N20 C19 1.315 . S
H21 C15 0.929 . S
H22 C19 0.930 . S
H23 C11 0.929 . S
H24 C13 0.929 . S
O25 Co0 2.351 . S
O25 C28 1.244 . S
O26 Co0 2.155 . S
O26 C28 1.240 . S
O27 Co0 2.096 . S
O27 C8 1.247 . S
C28 O25 1.244 . S
C28 O26 1.240 . S
H29 C3 0.931 . S
H30 C12 0.931 . S
H31 C16 0.929 . S
H32 C18 0.930 . S
Co33 N37 2.148 . S
Co33 N43 2.128 . S
Co33 N53 2.194 . S
Co33 O58 2.351 . S
Co33 O59 2.155 . S
Co33 O60 2.096 . S
C34 N37 1.301 . S
C34 N38 1.328 . S
C34 H39 0.930 . S
C35 C36 1.333 . S
C35 N37 1.317 . S
C35 H40 0.930 . S
C36 C35 1.333 . S
C36 N38 1.350 . S
C36 H62 0.931 . S
N37 Co33 2.148 . S
N37 C34 1.301 . S
N37 C35 1.317 . S
N38 C34 1.328 . S
N38 C36 1.350 . S
H39 C34 0.930 . S
H40 C35 0.930 . S
C41 O42 1.224 . S
C41 O60 1.247 . S
O42 C41 1.224 . S
N43 Co33 2.128 . S
N43 C44 1.355 . S
N43 C46 1.311 . S
C44 N43 1.355 . S
C44 C45 1.363 . S
C44 H56 0.929 . S
C45 C44 1.363 . S
C45 N47 1.375 . S
C45 H63 0.931 . S
C46 N43 1.311 . S
C46 N47 1.347 . S
C46 H57 0.929 . S
N47 C45 1.375 . S
N47 C46 1.347 . S
C48 C51 1.365 . S
C48 N53 1.328 . S
C48 H54 0.929 . S
C49 C50 1.362 . S
C49 C52 1.378 . S
C49 H64 0.929 . S
C50 C49 1.362 . S
C50 C51 1.366 . S
C51 C48 1.365 . S
C51 C50 1.366 . S
C51 H65 0.930 . S
C52 C49 1.378 . S
C52 N53 1.315 . S
C52 H55 0.930 . S
N53 Co33 2.194 . S
N53 C48 1.328 . S
N53 C52 1.315 . S
H54 C48 0.929 . S
H55 C52 0.930 . S
H56 C44 0.929 . S
H57 C46 0.929 . S
O58 Co33 2.351 . S
O58 C61 1.244 . S
O59 Co33 2.155 . S
O59 C61 1.240 . S
O60 Co33 2.096 . S
O60 C41 1.247 . S
C61 O58 1.244 . S
C61 O59 1.240 . S
H62 C36 0.931 . S
H63 C45 0.931 . S
H64 C49 0.929 . S
H65 C51 0.930 . S
Co66 N70 2.148 . S
Co66 N76 2.128 . S
Co66 N86 2.194 . S
Co66 O91 2.351 . S
Co66 O92 2.155 . S
Co66 O93 2.096 . S
C67 N70 1.301 . S
C67 N71 1.328 . S
C67 H72 0.930 . S
C68 C69 1.333 . S
C68 N70 1.317 . S
C68 H73 0.930 . S
C69 C68 1.333 . S
C69 N71 1.350 . S
C69 H95 0.931 . S
N70 Co66 2.148 . S
N70 C67 1.301 . S
N70 C68 1.317 . S
N71 C67 1.328 . S
N71 C69 1.350 . S
H72 C67 0.930 . S
H73 C68 0.930 . S
C74 O75 1.224 . S
C74 O93 1.247 . S
O75 C74 1.224 . S
N76 Co66 2.128 . S
N76 C77 1.355 . S
N76 C79 1.311 . S
C77 N76 1.355 . S
C77 C78 1.363 . S
C77 H89 0.929 . S
C78 C77 1.363 . S
C78 N80 1.375 . S
C78 H96 0.931 . S
C79 N76 1.311 . S
C79 N80 1.347 . S
C79 H90 0.929 . S
N80 C78 1.375 . S
N80 C79 1.347 . S
C81 C84 1.365 . S
C81 N86 1.328 . S
C81 H87 0.929 . S
C82 C83 1.362 . S
C82 C85 1.378 . S
C82 H97 0.929 . S
C83 C82 1.362 . S
C83 C84 1.366 . S
C84 C81 1.365 . S
C84 C83 1.366 . S
C84 H98 0.930 . S
C85 C82 1.378 . S
C85 N86 1.315 . S
C85 H88 0.930 . S
N86 Co66 2.194 . S
N86 C81 1.328 . S
N86 C85 1.315 . S
H87 C81 0.929 . S
H88 C85 0.930 . S
H89 C77 0.929 . S
H90 C79 0.929 . S
O91 Co66 2.351 . S
O91 C94 1.244 . S
O92 Co66 2.155 . S
O92 C94 1.240 . S
O93 Co66 2.096 . S
O93 C74 1.247 . S
C94 O91 1.244 . S
C94 O92 1.240 . S
H95 C69 0.931 . S
H96 C78 0.931 . S
H97 C82 0.929 . S
H98 C84 0.930 . S
Co99 N103 2.148 . S
Co99 N109 2.128 . S
Co99 N119 2.194 . S
Co99 O124 2.351 . S
Co99 O125 2.155 . S
Co99 O126 2.096 . S
C100 N103 1.301 . S
C100 N104 1.328 . S
C100 H105 0.930 . S
C101 C102 1.333 . S
C101 N103 1.317 . S
C101 H106 0.930 . S
C102 C101 1.333 . S
C102 N104 1.350 . S
C102 H128 0.931 . S
N103 Co99 2.148 . S
N103 C100 1.301 . S
N103 C101 1.317 . S
N104 C100 1.328 . S
N104 C102 1.350 . S
H105 C100 0.930 . S
H106 C101 0.930 . S
C107 O108 1.224 . S
C107 O126 1.247 . S
O108 C107 1.224 . S
N109 Co99 2.128 . S
N109 C110 1.355 . S
N109 C112 1.311 . S
C110 N109 1.355 . S
C110 C111 1.363 . S
C110 H122 0.929 . S
C111 C110 1.363 . S
C111 N113 1.375 . S
C111 H129 0.931 . S
C112 N109 1.311 . S
C112 N113 1.347 . S
C112 H123 0.929 . S
N113 C111 1.375 . S
N113 C112 1.347 . S
C114 C117 1.365 . S
C114 N119 1.328 . S
C114 H120 0.929 . S
C115 C116 1.362 . S
C115 C118 1.378 . S
C115 H130 0.929 . S
C116 C115 1.362 . S
C116 C117 1.366 . S
C117 C114 1.365 . S
C117 C116 1.366 . S
C117 H131 0.930 . S
C118 C115 1.378 . S
C118 N119 1.315 . S
C118 H121 0.930 . S
N119 Co99 2.194 . S
N119 C114 1.328 . S
N119 C118 1.315 . S
H120 C114 0.929 . S
H121 C118 0.930 . S
H122 C110 0.929 . S
H123 C112 0.929 . S
O124 Co99 2.351 . S
O124 C127 1.244 . S
O125 Co99 2.155 . S
O125 C127 1.240 . S
O126 Co99 2.096 . S
O126 C107 1.247 . S
C127 O124 1.244 . S
C127 O125 1.240 . S
H128 C102 0.931 . S
H129 C111 0.931 . S
H130 C115 0.929 . S
H131 C117 0.930 . S
Co132 N136 2.148 . S
Co132 N142 2.128 . S
Co132 N152 2.194 . S
Co132 O157 2.351 . S
Co132 O158 2.155 . S
Co132 O159 2.096 . S
C133 N136 1.301 . S
C133 N137 1.328 . S
C133 H138 0.930 . S
C134 C135 1.333 . S
C134 N136 1.317 . S
C134 H139 0.930 . S
C135 C134 1.333 . S
C135 N137 1.350 . S
C135 H161 0.931 . S
N136 Co132 2.148 . S
N136 C133 1.301 . S
N136 C134 1.317 . S
N137 C133 1.328 . S
N137 C135 1.350 . S
H138 C133 0.930 . S
H139 C134 0.930 . S
C140 O141 1.224 . S
C140 O159 1.247 . S
O141 C140 1.224 . S
N142 Co132 2.128 . S
N142 C143 1.355 . S
N142 C145 1.311 . S
C143 N142 1.355 . S
C143 C144 1.363 . S
C143 H155 0.929 . S
C144 C143 1.363 . S
C144 N146 1.375 . S
C144 H162 0.931 . S
C145 N142 1.311 . S
C145 N146 1.347 . S
C145 H156 0.929 . S
N146 C144 1.375 . S
N146 C145 1.347 . S
C147 C150 1.365 . S
C147 N152 1.328 . S
C147 H153 0.929 . S
C148 C149 1.362 . S
C148 C151 1.378 . S
C148 H163 0.929 . S
C149 C148 1.362 . S
C149 C150 1.366 . S
C150 C147 1.365 . S
C150 C149 1.366 . S
C150 H164 0.930 . S
C151 C148 1.378 . S
C151 N152 1.315 . S
C151 H154 0.930 . S
N152 Co132 2.194 . S
N152 C147 1.328 . S
N152 C151 1.315 . S
H153 C147 0.929 . S
H154 C151 0.930 . S
H155 C143 0.929 . S
H156 C145 0.929 . S
O157 Co132 2.351 . S
O157 C160 1.244 . S
O158 Co132 2.155 . S
O158 C160 1.240 . S
O159 Co132 2.096 . S
O159 C140 1.247 . S
C160 O157 1.244 . S
C160 O158 1.240 . S
H161 C135 0.931 . S
H162 C144 0.931 . S
H163 C148 0.929 . S
H164 C150 0.930 . S
Co165 N169 2.148 . S
Co165 N175 2.128 . S
Co165 N185 2.194 . S
Co165 O190 2.351 . S
Co165 O191 2.155 . S
Co165 O192 2.096 . S
C166 N169 1.301 . S
C166 N170 1.328 . S
C166 H171 0.930 . S
C167 C168 1.333 . S
C167 N169 1.317 . S
C167 H172 0.930 . S
C168 C167 1.333 . S
C168 N170 1.350 . S
C168 H194 0.931 . S
N169 Co165 2.148 . S
N169 C166 1.301 . S
N169 C167 1.317 . S
N170 C166 1.328 . S
N170 C168 1.350 . S
H171 C166 0.930 . S
H172 C167 0.930 . S
C173 O174 1.224 . S
C173 O192 1.247 . S
O174 C173 1.224 . S
N175 Co165 2.128 . S
N175 C176 1.355 . S
N175 C178 1.311 . S
C176 N175 1.355 . S
C176 C177 1.363 . S
C176 H188 0.929 . S
C177 C176 1.363 . S
C177 N179 1.375 . S
C177 H195 0.931 . S
C178 N175 1.311 . S
C178 N179 1.347 . S
C178 H189 0.929 . S
N179 C177 1.375 . S
N179 C178 1.347 . S
C180 C183 1.365 . S
C180 N185 1.328 . S
C180 H186 0.929 . S
C181 C182 1.362 . S
C181 C184 1.378 . S
C181 H196 0.929 . S
C182 C181 1.362 . S
C182 C183 1.366 . S
C183 C180 1.365 . S
C183 C182 1.366 . S
C183 H197 0.930 . S
C184 C181 1.378 . S
C184 N185 1.315 . S
C184 H187 0.930 . S
N185 Co165 2.194 . S
N185 C180 1.328 . S
N185 C184 1.315 . S
H186 C180 0.929 . S
H187 C184 0.930 . S
H188 C176 0.929 . S
H189 C178 0.929 . S
O190 Co165 2.351 . S
O190 C193 1.244 . S
O191 Co165 2.155 . S
O191 C193 1.240 . S
O192 Co165 2.096 . S
O192 C173 1.247 . S
C193 O190 1.244 . S
C193 O191 1.240 . S
H194 C168 0.931 . S
H195 C177 0.931 . S
H196 C181 0.929 . S
H197 C183 0.930 . S
Co198 N202 2.148 . S
Co198 N208 2.128 . S
Co198 N218 2.194 . S
Co198 O223 2.351 . S
Co198 O224 2.155 . S
Co198 O225 2.096 . S
C199 N202 1.301 . S
C199 N203 1.328 . S
C199 H204 0.930 . S
C200 C201 1.333 . S
C200 N202 1.317 . S
C200 H205 0.930 . S
C201 C200 1.333 . S
C201 N203 1.350 . S
C201 H227 0.931 . S
N202 Co198 2.148 . S
N202 C199 1.301 . S
N202 C200 1.317 . S
N203 C199 1.328 . S
N203 C201 1.350 . S
H204 C199 0.930 . S
H205 C200 0.930 . S
C206 O207 1.224 . S
C206 O225 1.247 . S
O207 C206 1.224 . S
N208 Co198 2.128 . S
N208 C209 1.355 . S
N208 C211 1.311 . S
C209 N208 1.355 . S
C209 C210 1.363 . S
C209 H221 0.929 . S
C210 C209 1.363 . S
C210 N212 1.375 . S
C210 H228 0.931 . S
C211 N208 1.311 . S
C211 N212 1.347 . S
C211 H222 0.929 . S
N212 C210 1.375 . S
N212 C211 1.347 . S
C213 C216 1.365 . S
C213 N218 1.328 . S
C213 H219 0.929 . S
C214 C215 1.362 . S
C214 C217 1.378 . S
C214 H229 0.929 . S
C215 C214 1.362 . S
C215 C216 1.366 . S
C216 C213 1.365 . S
C216 C215 1.366 . S
C216 H230 0.930 . S
C217 C214 1.378 . S
C217 N218 1.315 . S
C217 H220 0.930 . S
N218 Co198 2.194 . S
N218 C213 1.328 . S
N218 C217 1.315 . S
H219 C213 0.929 . S
H220 C217 0.930 . S
H221 C209 0.929 . S
H222 C211 0.929 . S
O223 Co198 2.351 . S
O223 C226 1.244 . S
O224 Co198 2.155 . S
O224 C226 1.240 . S
O225 Co198 2.096 . S
O225 C206 1.247 . S
C226 O223 1.244 . S
C226 O224 1.240 . S
H227 C201 0.931 . S
H228 C210 0.931 . S
H229 C214 0.929 . S
H230 C216 0.930 . S
Co231 N235 2.148 . S
Co231 N241 2.128 . S
Co231 N251 2.194 . S
Co231 O256 2.351 . S
Co231 O257 2.155 . S
Co231 O258 2.096 . S
C232 N235 1.301 . S
C232 N236 1.328 . S
C232 H237 0.930 . S
C233 C234 1.333 . S
C233 N235 1.317 . S
C233 H238 0.930 . S
C234 C233 1.333 . S
C234 N236 1.350 . S
C234 H260 0.931 . S
N235 Co231 2.148 . S
N235 C232 1.301 . S
N235 C233 1.317 . S
N236 C232 1.328 . S
N236 C234 1.350 . S
H237 C232 0.930 . S
H238 C233 0.930 . S
C239 O240 1.224 . S
C239 O258 1.247 . S
O240 C239 1.224 . S
N241 Co231 2.128 . S
N241 C242 1.355 . S
N241 C244 1.311 . S
C242 N241 1.355 . S
C242 C243 1.363 . S
C242 H254 0.929 . S
C243 C242 1.363 . S
C243 N245 1.375 . S
C243 H261 0.931 . S
C244 N241 1.311 . S
C244 N245 1.347 . S
C244 H255 0.929 . S
N245 C243 1.375 . S
N245 C244 1.347 . S
C246 C249 1.365 . S
C246 N251 1.328 . S
C246 H252 0.929 . S
C247 C248 1.362 . S
C247 C250 1.378 . S
C247 H262 0.929 . S
C248 C247 1.362 . S
C248 C249 1.366 . S
C249 C246 1.365 . S
C249 C248 1.366 . S
C249 H263 0.930 . S
C250 C247 1.378 . S
C250 N251 1.315 . S
C250 H253 0.930 . S
N251 Co231 2.194 . S
N251 C246 1.328 . S
N251 C250 1.315 . S
H252 C246 0.929 . S
H253 C250 0.930 . S
H254 C242 0.929 . S
H255 C244 0.929 . S
O256 Co231 2.351 . S
O256 C259 1.244 . S
O257 Co231 2.155 . S
O257 C259 1.240 . S
O258 Co231 2.096 . S
O258 C239 1.247 . S
C259 O256 1.244 . S
C259 O257 1.240 . S
H260 C234 0.931 . S
H261 C243 0.931 . S
H262 C247 0.929 . S
H263 C249 0.930 . S
Co264 N268 2.148 . S
Co264 N274 2.128 . S
Co264 N284 2.194 . S
Co264 O289 2.351 . S
Co264 O290 2.155 . S
Co264 O291 2.096 . S
C265 N268 1.301 . S
C265 N269 1.328 . S
C265 H270 0.930 . S
C266 C267 1.333 . S
C266 N268 1.317 . S
C266 H271 0.930 . S
C267 C266 1.333 . S
C267 N269 1.350 . S
C267 H293 0.931 . S
N268 Co264 2.148 . S
N268 C265 1.301 . S
N268 C266 1.317 . S
N269 C265 1.328 . S
N269 C267 1.350 . S
H270 C265 0.930 . S
H271 C266 0.930 . S
C272 O273 1.224 . S
C272 O291 1.247 . S
O273 C272 1.224 . S
N274 Co264 2.128 . S
N274 C275 1.355 . S
N274 C277 1.311 . S
C275 N274 1.355 . S
C275 C276 1.363 . S
C275 H287 0.929 . S
C276 C275 1.363 . S
C276 N278 1.375 . S
C276 H294 0.931 . S
C277 N274 1.311 . S
C277 N278 1.347 . S
C277 H288 0.929 . S
N278 C276 1.375 . S
N278 C277 1.347 . S
C279 C282 1.365 . S
C279 N284 1.328 . S
C279 H285 0.929 . S
C280 C281 1.362 . S
C280 C283 1.378 . S
C280 H295 0.929 . S
C281 C280 1.362 . S
C281 C282 1.366 . S
C282 C279 1.365 . S
C282 C281 1.366 . S
C282 H296 0.930 . S
C283 C280 1.378 . S
C283 N284 1.315 . S
C283 H286 0.930 . S
N284 Co264 2.194 . S
N284 C279 1.328 . S
N284 C283 1.315 . S
H285 C279 0.929 . S
H286 C283 0.930 . S
H287 C275 0.929 . S
H288 C277 0.929 . S
O289 Co264 2.351 . S
O289 C292 1.244 . S
O290 Co264 2.155 . S
O290 C292 1.240 . S
O291 Co264 2.096 . S
O291 C272 1.247 . S
C292 O289 1.244 . S
C292 O290 1.240 . S
H293 C267 0.931 . S
H294 C276 0.931 . S
H295 C280 0.929 . S
H296 C282 0.930 . S
Co297 N301 2.148 . S
Co297 N307 2.128 . S
Co297 N317 2.194 . S
Co297 O322 2.351 . S
Co297 O323 2.155 . S
Co297 O324 2.096 . S
C298 N301 1.301 . S
C298 N302 1.328 . S
C298 H303 0.930 . S
C299 C300 1.333 . S
C299 N301 1.317 . S
C299 H304 0.930 . S
C300 C299 1.333 . S
C300 N302 1.350 . S
C300 H326 0.931 . S
N301 Co297 2.148 . S
N301 C298 1.301 . S
N301 C299 1.317 . S
N302 C298 1.328 . S
N302 C300 1.350 . S
H303 C298 0.930 . S
H304 C299 0.930 . S
C305 O306 1.224 . S
C305 O324 1.247 . S
O306 C305 1.224 . S
N307 Co297 2.128 . S
N307 C308 1.355 . S
N307 C310 1.311 . S
C308 N307 1.355 . S
C308 C309 1.363 . S
C308 H320 0.929 . S
C309 C308 1.363 . S
C309 N311 1.375 . S
C309 H327 0.931 . S
C310 N307 1.311 . S
C310 N311 1.347 . S
C310 H321 0.929 . S
N311 C309 1.375 . S
N311 C310 1.347 . S
C312 C315 1.365 . S
C312 N317 1.328 . S
C312 H318 0.929 . S
C313 C314 1.362 . S
C313 C316 1.378 . S
C313 H328 0.929 . S
C314 C313 1.362 . S
C314 C315 1.366 . S
C315 C312 1.365 . S
C315 C314 1.366 . S
C315 H329 0.930 . S
C316 C313 1.378 . S
C316 N317 1.315 . S
C316 H319 0.930 . S
N317 Co297 2.194 . S
N317 C312 1.328 . S
N317 C316 1.315 . S
H318 C312 0.929 . S
H319 C316 0.930 . S
H320 C308 0.929 . S
H321 C310 0.929 . S
O322 Co297 2.351 . S
O322 C325 1.244 . S
O323 Co297 2.155 . S
O323 C325 1.240 . S
O324 Co297 2.096 . S
O324 C305 1.247 . S
C325 O322 1.244 . S
C325 O323 1.240 . S
H326 C300 0.931 . S
H327 C309 0.931 . S
H328 C313 0.929 . S
H329 C315 0.930 . S
Co330 N334 2.148 . S
Co330 N340 2.128 . S
Co330 N350 2.194 . S
Co330 O355 2.351 . S
Co330 O356 2.155 . S
Co330 O357 2.096 . S
C331 N334 1.301 . S
C331 N335 1.328 . S
C331 H336 0.930 . S
C332 C333 1.333 . S
C332 N334 1.317 . S
C332 H337 0.930 . S
C333 C332 1.333 . S
C333 N335 1.350 . S
C333 H359 0.931 . S
N334 Co330 2.148 . S
N334 C331 1.301 . S
N334 C332 1.317 . S
N335 C331 1.328 . S
N335 C333 1.350 . S
H336 C331 0.930 . S
H337 C332 0.930 . S
C338 O339 1.224 . S
C338 O357 1.247 . S
O339 C338 1.224 . S
N340 Co330 2.128 . S
N340 C341 1.355 . S
N340 C343 1.311 . S
C341 N340 1.355 . S
C341 C342 1.363 . S
C341 H353 0.929 . S
C342 C341 1.363 . S
C342 N344 1.375 . S
C342 H360 0.931 . S
C343 N340 1.311 . S
C343 N344 1.347 . S
C343 H354 0.929 . S
N344 C342 1.375 . S
N344 C343 1.347 . S
C345 C348 1.365 . S
C345 N350 1.328 . S
C345 H351 0.929 . S
C346 C347 1.362 . S
C346 C349 1.378 . S
C346 H361 0.929 . S
C347 C346 1.362 . S
C347 C348 1.366 . S
C348 C345 1.365 . S
C348 C347 1.366 . S
C348 H362 0.930 . S
C349 C346 1.378 . S
C349 N350 1.315 . S
C349 H352 0.930 . S
N350 Co330 2.194 . S
N350 C345 1.328 . S
N350 C349 1.315 . S
H351 C345 0.929 . S
H352 C349 0.930 . S
H353 C341 0.929 . S
H354 C343 0.929 . S
O355 Co330 2.351 . S
O355 C358 1.244 . S
O356 Co330 2.155 . S
O356 C358 1.240 . S
O357 Co330 2.096 . S
O357 C338 1.247 . S
C358 O355 1.244 . S
C358 O356 1.240 . S
H359 C333 0.931 . S
H360 C342 0.931 . S
H361 C346 0.929 . S
H362 C348 0.930 . S
Co363 N367 2.148 . S
Co363 N373 2.128 . S
Co363 N383 2.194 . S
Co363 O388 2.351 . S
Co363 O389 2.155 . S
Co363 O390 2.096 . S
C364 N367 1.301 . S
C364 N368 1.328 . S
C364 H369 0.930 . S
C365 C366 1.333 . S
C365 N367 1.317 . S
C365 H370 0.930 . S
C366 C365 1.333 . S
C366 N368 1.350 . S
C366 H392 0.931 . S
N367 Co363 2.148 . S
N367 C364 1.301 . S
N367 C365 1.317 . S
N368 C364 1.328 . S
N368 C366 1.350 . S
H369 C364 0.930 . S
H370 C365 0.930 . S
C371 O372 1.224 . S
C371 O390 1.247 . S
O372 C371 1.224 . S
N373 Co363 2.128 . S
N373 C374 1.355 . S
N373 C376 1.311 . S
C374 N373 1.355 . S
C374 C375 1.363 . S
C374 H386 0.929 . S
C375 C374 1.363 . S
C375 N377 1.375 . S
C375 H393 0.931 . S
C376 N373 1.311 . S
C376 N377 1.347 . S
C376 H387 0.929 . S
N377 C375 1.375 . S
N377 C376 1.347 . S
C378 C381 1.365 . S
C378 N383 1.328 . S
C378 H384 0.929 . S
C379 C380 1.362 . S
C379 C382 1.378 . S
C379 H394 0.929 . S
C380 C379 1.362 . S
C380 C381 1.366 . S
C381 C378 1.365 . S
C381 C380 1.366 . S
C381 H395 0.930 . S
C382 C379 1.378 . S
C382 N383 1.315 . S
C382 H385 0.930 . S
N383 Co363 2.194 . S
N383 C378 1.328 . S
N383 C382 1.315 . S
H384 C378 0.929 . S
H385 C382 0.930 . S
H386 C374 0.929 . S
H387 C376 0.929 . S
O388 Co363 2.351 . S
O388 C391 1.244 . S
O389 Co363 2.155 . S
O389 C391 1.240 . S
O390 Co363 2.096 . S
O390 C371 1.247 . S
C391 O388 1.244 . S
C391 O389 1.240 . S
H392 C366 0.931 . S
H393 C375 0.931 . S
H394 C379 0.929 . S
H395 C381 0.930 . S
Co396 N400 2.148 . S
Co396 N406 2.128 . S
Co396 N416 2.194 . S
Co396 O421 2.351 . S
Co396 O422 2.155 . S
Co396 O423 2.096 . S
C397 N400 1.301 . S
C397 N401 1.328 . S
C397 H402 0.930 . S
C398 C399 1.333 . S
C398 N400 1.317 . S
C398 H403 0.930 . S
C399 C398 1.333 . S
C399 N401 1.350 . S
C399 H425 0.931 . S
N400 Co396 2.148 . S
N400 C397 1.301 . S
N400 C398 1.317 . S
N401 C397 1.328 . S
N401 C399 1.350 . S
H402 C397 0.930 . S
H403 C398 0.930 . S
C404 O405 1.224 . S
C404 O423 1.247 . S
O405 C404 1.224 . S
N406 Co396 2.128 . S
N406 C407 1.355 . S
N406 C409 1.311 . S
C407 N406 1.355 . S
C407 C408 1.363 . S
C407 H419 0.929 . S
C408 C407 1.363 . S
C408 N410 1.375 . S
C408 H426 0.931 . S
C409 N406 1.311 . S
C409 N410 1.347 . S
C409 H420 0.929 . S
N410 C408 1.375 . S
N410 C409 1.347 . S
C411 C414 1.365 . S
C411 N416 1.328 . S
C411 H417 0.929 . S
C412 C413 1.362 . S
C412 C415 1.378 . S
C412 H427 0.929 . S
C413 C412 1.362 . S
C413 C414 1.366 . S
C414 C411 1.365 . S
C414 C413 1.366 . S
C414 H428 0.930 . S
C415 C412 1.378 . S
C415 N416 1.315 . S
C415 H418 0.930 . S
N416 Co396 2.194 . S
N416 C411 1.328 . S
N416 C415 1.315 . S
H417 C411 0.929 . S
H418 C415 0.930 . S
H419 C407 0.929 . S
H420 C409 0.929 . S
O421 Co396 2.351 . S
O421 C424 1.244 . S
O422 Co396 2.155 . S
O422 C424 1.240 . S
O423 Co396 2.096 . S
O423 C404 1.247 . S
C424 O421 1.244 . S
C424 O422 1.240 . S
H425 C399 0.931 . S
H426 C408 0.931 . S
H427 C412 0.929 . S
H428 C414 0.930 . S
Co429 N433 2.148 . S
Co429 N439 2.128 . S
Co429 N449 2.194 . S
Co429 O454 2.351 . S
Co429 O455 2.155 . S
Co429 O456 2.096 . S
C430 N433 1.301 . S
C430 N434 1.328 . S
C430 H435 0.930 . S
C431 C432 1.333 . S
C431 N433 1.317 . S
C431 H436 0.930 . S
C432 C431 1.333 . S
C432 N434 1.350 . S
C432 H458 0.931 . S
N433 Co429 2.148 . S
N433 C430 1.301 . S
N433 C431 1.317 . S
N434 C430 1.328 . S
N434 C432 1.350 . S
H435 C430 0.930 . S
H436 C431 0.930 . S
C437 O438 1.224 . S
C437 O456 1.247 . S
O438 C437 1.224 . S
N439 Co429 2.128 . S
N439 C440 1.355 . S
N439 C442 1.311 . S
C440 N439 1.355 . S
C440 C441 1.363 . S
C440 H452 0.929 . S
C441 C440 1.363 . S
C441 N443 1.375 . S
C441 H459 0.931 . S
C442 N439 1.311 . S
C442 N443 1.347 . S
C442 H453 0.929 . S
N443 C441 1.375 . S
N443 C442 1.347 . S
C444 C447 1.365 . S
C444 N449 1.328 . S
C444 H450 0.929 . S
C445 C446 1.362 . S
C445 C448 1.378 . S
C445 H460 0.929 . S
C446 C445 1.362 . S
C446 C447 1.366 . S
C447 C444 1.365 . S
C447 C446 1.366 . S
C447 H461 0.930 . S
C448 C445 1.378 . S
C448 N449 1.315 . S
C448 H451 0.930 . S
N449 Co429 2.194 . S
N449 C444 1.328 . S
N449 C448 1.315 . S
H450 C444 0.929 . S
H451 C448 0.930 . S
H452 C440 0.929 . S
H453 C442 0.929 . S
O454 Co429 2.351 . S
O454 C457 1.244 . S
O455 Co429 2.155 . S
O455 C457 1.240 . S
O456 Co429 2.096 . S
O456 C437 1.247 . S
C457 O454 1.244 . S
C457 O455 1.240 . S
H458 C432 0.931 . S
H459 C441 0.931 . S
H460 C445 0.929 . S
H461 C447 0.930 . S
Co462 N466 2.148 . S
Co462 N472 2.128 . S
Co462 N482 2.194 . S
Co462 O487 2.351 . S
Co462 O488 2.155 . S
Co462 O489 2.096 . S
C463 N466 1.301 . S
C463 N467 1.328 . S
C463 H468 0.930 . S
C464 C465 1.333 . S
C464 N466 1.317 . S
C464 H469 0.930 . S
C465 C464 1.333 . S
C465 N467 1.350 . S
C465 H491 0.931 . S
N466 Co462 2.148 . S
N466 C463 1.301 . S
N466 C464 1.317 . S
N467 C463 1.328 . S
N467 C465 1.350 . S
H468 C463 0.930 . S
H469 C464 0.930 . S
C470 O471 1.224 . S
C470 O489 1.247 . S
O471 C470 1.224 . S
N472 Co462 2.128 . S
N472 C473 1.355 . S
N472 C475 1.311 . S
C473 N472 1.355 . S
C473 C474 1.363 . S
C473 H485 0.929 . S
C474 C473 1.363 . S
C474 N476 1.375 . S
C474 H492 0.931 . S
C475 N472 1.311 . S
C475 N476 1.347 . S
C475 H486 0.929 . S
N476 C474 1.375 . S
N476 C475 1.347 . S
C477 C480 1.365 . S
C477 N482 1.328 . S
C477 H483 0.929 . S
C478 C479 1.362 . S
C478 C481 1.378 . S
C478 H493 0.929 . S
C479 C478 1.362 . S
C479 C480 1.366 . S
C480 C477 1.365 . S
C480 C479 1.366 . S
C480 H494 0.930 . S
C481 C478 1.378 . S
C481 N482 1.315 . S
C481 H484 0.930 . S
N482 Co462 2.194 . S
N482 C477 1.328 . S
N482 C481 1.315 . S
H483 C477 0.929 . S
H484 C481 0.930 . S
H485 C473 0.929 . S
H486 C475 0.929 . S
O487 Co462 2.351 . S
O487 C490 1.244 . S
O488 Co462 2.155 . S
O488 C490 1.240 . S
O489 Co462 2.096 . S
O489 C470 1.247 . S
C490 O487 1.244 . S
C490 O488 1.240 . S
H491 C465 0.931 . S
H492 C474 0.931 . S
H493 C478 0.929 . S
H494 C480 0.930 . S
Co495 N499 2.148 . S
Co495 N505 2.128 . S
Co495 N515 2.194 . S
Co495 O520 2.351 . S
Co495 O521 2.155 . S
Co495 O522 2.096 . S
C496 N499 1.301 . S
C496 N500 1.328 . S
C496 H501 0.930 . S
C497 C498 1.333 . S
C497 N499 1.317 . S
C497 H502 0.930 . S
C498 C497 1.333 . S
C498 N500 1.350 . S
C498 H524 0.931 . S
N499 Co495 2.148 . S
N499 C496 1.301 . S
N499 C497 1.317 . S
N500 C496 1.328 . S
N500 C498 1.350 . S
H501 C496 0.930 . S
H502 C497 0.930 . S
C503 O504 1.224 . S
C503 O522 1.247 . S
O504 C503 1.224 . S
N505 Co495 2.128 . S
N505 C506 1.355 . S
N505 C508 1.311 . S
C506 N505 1.355 . S
C506 C507 1.363 . S
C506 H518 0.929 . S
C507 C506 1.363 . S
C507 N509 1.375 . S
C507 H525 0.931 . S
C508 N505 1.311 . S
C508 N509 1.347 . S
C508 H519 0.929 . S
N509 C507 1.375 . S
N509 C508 1.347 . S
C510 C513 1.365 . S
C510 N515 1.328 . S
C510 H516 0.929 . S
C511 C512 1.362 . S
C511 C514 1.378 . S
C511 H526 0.929 . S
C512 C511 1.362 . S
C512 C513 1.366 . S
C513 C510 1.365 . S
C513 C512 1.366 . S
C513 H527 0.930 . S
C514 C511 1.378 . S
C514 N515 1.315 . S
C514 H517 0.930 . S
N515 Co495 2.194 . S
N515 C510 1.328 . S
N515 C514 1.315 . S
H516 C510 0.929 . S
H517 C514 0.930 . S
H518 C506 0.929 . S
H519 C508 0.929 . S
O520 Co495 2.351 . S
O520 C523 1.244 . S
O521 Co495 2.155 . S
O521 C523 1.240 . S
O522 Co495 2.096 . S
O522 C503 1.247 . S
C523 O520 1.244 . S
C523 O521 1.240 . S
H524 C498 0.931 . S
H525 C507 0.931 . S
H526 C511 0.929 . S
H527 C513 0.930 . S
Co528 N532 2.148 . S
Co528 N538 2.128 . S
Co528 N548 2.194 . S
Co528 O553 2.351 . S
Co528 O554 2.155 . S
Co528 O555 2.096 . S
C529 N532 1.301 . S
C529 N533 1.328 . S
C529 H534 0.930 . S
C530 C531 1.333 . S
C530 N532 1.317 . S
C530 H535 0.930 . S
C531 C530 1.333 . S
C531 N533 1.350 . S
C531 H557 0.931 . S
N532 Co528 2.148 . S
N532 C529 1.301 . S
N532 C530 1.317 . S
N533 C529 1.328 . S
N533 C531 1.350 . S
H534 C529 0.930 . S
H535 C530 0.930 . S
C536 O537 1.224 . S
C536 O555 1.247 . S
O537 C536 1.224 . S
N538 Co528 2.128 . S
N538 C539 1.355 . S
N538 C541 1.311 . S
C539 N538 1.355 . S
C539 C540 1.363 . S
C539 H551 0.929 . S
C540 C539 1.363 . S
C540 N542 1.375 . S
C540 H558 0.931 . S
C541 N538 1.311 . S
C541 N542 1.347 . S
C541 H552 0.929 . S
N542 C540 1.375 . S
N542 C541 1.347 . S
C543 C546 1.365 . S
C543 N548 1.328 . S
C543 H549 0.929 . S
C544 C545 1.362 . S
C544 C547 1.378 . S
C544 H559 0.929 . S
C545 C544 1.362 . S
C545 C546 1.366 . S
C546 C543 1.365 . S
C546 C545 1.366 . S
C546 H560 0.930 . S
C547 C544 1.378 . S
C547 N548 1.315 . S
C547 H550 0.930 . S
N548 Co528 2.194 . S
N548 C543 1.328 . S
N548 C547 1.315 . S
H549 C543 0.929 . S
H550 C547 0.930 . S
H551 C539 0.929 . S
H552 C541 0.929 . S
O553 Co528 2.351 . S
O553 C556 1.244 . S
O554 Co528 2.155 . S
O554 C556 1.240 . S
O555 Co528 2.096 . S
O555 C536 1.247 . S
C556 O553 1.244 . S
C556 O554 1.240 . S
H557 C531 0.931 . S
H558 C540 0.931 . S
H559 C544 0.929 . S
H560 C546 0.930 . S
Co561 N565 2.148 . S
Co561 N571 2.128 . S
Co561 N581 2.194 . S
Co561 O586 2.351 . S
Co561 O587 2.155 . S
Co561 O588 2.096 . S
C562 N565 1.301 . S
C562 N566 1.328 . S
C562 H567 0.930 . S
C563 C564 1.333 . S
C563 N565 1.317 . S
C563 H568 0.930 . S
C564 C563 1.333 . S
C564 N566 1.350 . S
C564 H590 0.931 . S
N565 Co561 2.148 . S
N565 C562 1.301 . S
N565 C563 1.317 . S
N566 C562 1.328 . S
N566 C564 1.350 . S
H567 C562 0.930 . S
H568 C563 0.930 . S
C569 O570 1.224 . S
C569 O588 1.247 . S
O570 C569 1.224 . S
N571 Co561 2.128 . S
N571 C572 1.355 . S
N571 C574 1.311 . S
C572 N571 1.355 . S
C572 C573 1.363 . S
C572 H584 0.929 . S
C573 C572 1.363 . S
C573 N575 1.375 . S
C573 H591 0.931 . S
C574 N571 1.311 . S
C574 N575 1.347 . S
C574 H585 0.929 . S
N575 C573 1.375 . S
N575 C574 1.347 . S
C576 C579 1.365 . S
C576 N581 1.328 . S
C576 H582 0.929 . S
C577 C578 1.362 . S
C577 C580 1.378 . S
C577 H592 0.929 . S
C578 C577 1.362 . S
C578 C579 1.366 . S
C579 C576 1.365 . S
C579 C578 1.366 . S
C579 H593 0.930 . S
C580 C577 1.378 . S
C580 N581 1.315 . S
C580 H583 0.930 . S
N581 Co561 2.194 . S
N581 C576 1.328 . S
N581 C580 1.315 . S
H582 C576 0.929 . S
H583 C580 0.930 . S
H584 C572 0.929 . S
H585 C574 0.929 . S
O586 Co561 2.351 . S
O586 C589 1.244 . S
O587 Co561 2.155 . S
O587 C589 1.240 . S
O588 Co561 2.096 . S
O588 C569 1.247 . S
C589 O586 1.244 . S
C589 O587 1.240 . S
H590 C564 0.931 . S
H591 C573 0.931 . S
H592 C577 0.929 . S
H593 C579 0.930 . S
Co594 N598 2.148 . S
Co594 N604 2.128 . S
Co594 N614 2.194 . S
Co594 O619 2.351 . S
Co594 O620 2.155 . S
Co594 O621 2.096 . S
C595 N598 1.301 . S
C595 N599 1.328 . S
C595 H600 0.930 . S
C596 C597 1.333 . S
C596 N598 1.317 . S
C596 H601 0.930 . S
C597 C596 1.333 . S
C597 N599 1.350 . S
C597 H623 0.931 . S
N598 Co594 2.148 . S
N598 C595 1.301 . S
N598 C596 1.317 . S
N599 C595 1.328 . S
N599 C597 1.350 . S
H600 C595 0.930 . S
H601 C596 0.930 . S
C602 O603 1.224 . S
C602 O621 1.247 . S
O603 C602 1.224 . S
N604 Co594 2.128 . S
N604 C605 1.355 . S
N604 C607 1.311 . S
C605 N604 1.355 . S
C605 C606 1.363 . S
C605 H617 0.929 . S
C606 C605 1.363 . S
C606 N608 1.375 . S
C606 H624 0.931 . S
C607 N604 1.311 . S
C607 N608 1.347 . S
C607 H618 0.929 . S
N608 C606 1.375 . S
N608 C607 1.347 . S
C609 C612 1.365 . S
C609 N614 1.328 . S
C609 H615 0.929 . S
C610 C611 1.362 . S
C610 C613 1.378 . S
C610 H625 0.929 . S
C611 C610 1.362 . S
C611 C612 1.366 . S
C612 C609 1.365 . S
C612 C611 1.366 . S
C612 H626 0.930 . S
C613 C610 1.378 . S
C613 N614 1.315 . S
C613 H616 0.930 . S
N614 Co594 2.194 . S
N614 C609 1.328 . S
N614 C613 1.315 . S
H615 C609 0.929 . S
H616 C613 0.930 . S
H617 C605 0.929 . S
H618 C607 0.929 . S
O619 Co594 2.351 . S
O619 C622 1.244 . S
O620 Co594 2.155 . S
O620 C622 1.240 . S
O621 Co594 2.096 . S
O621 C602 1.247 . S
C622 O619 1.244 . S
C622 O620 1.240 . S
H623 C597 0.931 . S
H624 C606 0.931 . S
H625 C610 0.929 . S
H626 C612 0.930 . S
Co627 N631 2.148 . S
Co627 N637 2.128 . S
Co627 N647 2.194 . S
Co627 O652 2.351 . S
Co627 O653 2.155 . S
Co627 O654 2.096 . S
C628 N631 1.301 . S
C628 N632 1.328 . S
C628 H633 0.930 . S
C629 C630 1.333 . S
C629 N631 1.317 . S
C629 H634 0.930 . S
C630 C629 1.333 . S
C630 N632 1.350 . S
C630 H656 0.931 . S
N631 Co627 2.148 . S
N631 C628 1.301 . S
N631 C629 1.317 . S
N632 C628 1.328 . S
N632 C630 1.350 . S
H633 C628 0.930 . S
H634 C629 0.930 . S
C635 O636 1.224 . S
C635 O654 1.247 . S
O636 C635 1.224 . S
N637 Co627 2.128 . S
N637 C638 1.355 . S
N637 C640 1.311 . S
C638 N637 1.355 . S
C638 C639 1.363 . S
C638 H650 0.929 . S
C639 C638 1.363 . S
C639 N641 1.375 . S
C639 H657 0.931 . S
C640 N637 1.311 . S
C640 N641 1.347 . S
C640 H651 0.929 . S
N641 C639 1.375 . S
N641 C640 1.347 . S
C642 C645 1.365 . S
C642 N647 1.328 . S
C642 H648 0.929 . S
C643 C644 1.362 . S
C643 C646 1.378 . S
C643 H658 0.929 . S
C644 C643 1.362 . S
C644 C645 1.366 . S
C645 C642 1.365 . S
C645 C644 1.366 . S
C645 H659 0.930 . S
C646 C643 1.378 . S
C646 N647 1.315 . S
C646 H649 0.930 . S
N647 Co627 2.194 . S
N647 C642 1.328 . S
N647 C646 1.315 . S
H648 C642 0.929 . S
H649 C646 0.930 . S
H650 C638 0.929 . S
H651 C640 0.929 . S
O652 Co627 2.351 . S
O652 C655 1.244 . S
O653 Co627 2.155 . S
O653 C655 1.240 . S
O654 Co627 2.096 . S
O654 C635 1.247 . S
C655 O652 1.244 . S
C655 O653 1.240 . S
H656 C630 0.931 . S
H657 C639 0.931 . S
H658 C643 0.929 . S
H659 C645 0.930 . S
Co660 N664 2.148 . S
Co660 N670 2.128 . S
Co660 N680 2.194 . S
Co660 O685 2.351 . S
Co660 O686 2.155 . S
Co660 O687 2.096 . S
C661 N664 1.301 . S
C661 N665 1.328 . S
C661 H666 0.930 . S
C662 C663 1.333 . S
C662 N664 1.317 . S
C662 H667 0.930 . S
C663 C662 1.333 . S
C663 N665 1.350 . S
C663 H689 0.931 . S
N664 Co660 2.148 . S
N664 C661 1.301 . S
N664 C662 1.317 . S
N665 C661 1.328 . S
N665 C663 1.350 . S
H666 C661 0.930 . S
H667 C662 0.930 . S
C668 O669 1.224 . S
C668 O687 1.247 . S
O669 C668 1.224 . S
N670 Co660 2.128 . S
N670 C671 1.355 . S
N670 C673 1.311 . S
C671 N670 1.355 . S
C671 C672 1.363 . S
C671 H683 0.929 . S
C672 C671 1.363 . S
C672 N674 1.375 . S
C672 H690 0.931 . S
C673 N670 1.311 . S
C673 N674 1.347 . S
C673 H684 0.929 . S
N674 C672 1.375 . S
N674 C673 1.347 . S
C675 C678 1.365 . S
C675 N680 1.328 . S
C675 H681 0.929 . S
C676 C677 1.362 . S
C676 C679 1.378 . S
C676 H691 0.929 . S
C677 C676 1.362 . S
C677 C678 1.366 . S
C678 C675 1.365 . S
C678 C677 1.366 . S
C678 H692 0.930 . S
C679 C676 1.378 . S
C679 N680 1.315 . S
C679 H682 0.930 . S
N680 Co660 2.194 . S
N680 C675 1.328 . S
N680 C679 1.315 . S
H681 C675 0.929 . S
H682 C679 0.930 . S
H683 C671 0.929 . S
H684 C673 0.929 . S
O685 Co660 2.351 . S
O685 C688 1.244 . S
O686 Co660 2.155 . S
O686 C688 1.240 . S
O687 Co660 2.096 . S
O687 C668 1.247 . S
C688 O685 1.244 . S
C688 O686 1.240 . S
H689 C663 0.931 . S
H690 C672 0.931 . S
H691 C676 0.929 . S
H692 C678 0.930 . S
Co693 N697 2.148 . S
Co693 N703 2.128 . S
Co693 N713 2.194 . S
Co693 O718 2.351 . S
Co693 O719 2.155 . S
Co693 O720 2.096 . S
C694 N697 1.301 . S
C694 N698 1.328 . S
C694 H699 0.930 . S
C695 C696 1.333 . S
C695 N697 1.317 . S
C695 H700 0.930 . S
C696 C695 1.333 . S
C696 N698 1.350 . S
C696 H722 0.931 . S
N697 Co693 2.148 . S
N697 C694 1.301 . S
N697 C695 1.317 . S
N698 C694 1.328 . S
N698 C696 1.350 . S
H699 C694 0.930 . S
H700 C695 0.930 . S
C701 O702 1.224 . S
C701 O720 1.247 . S
O702 C701 1.224 . S
N703 Co693 2.128 . S
N703 C704 1.355 . S
N703 C706 1.311 . S
C704 N703 1.355 . S
C704 C705 1.363 . S
C704 H716 0.929 . S
C705 C704 1.363 . S
C705 N707 1.375 . S
C705 H723 0.931 . S
C706 N703 1.311 . S
C706 N707 1.347 . S
C706 H717 0.929 . S
N707 C705 1.375 . S
N707 C706 1.347 . S
C708 C711 1.365 . S
C708 N713 1.328 . S
C708 H714 0.929 . S
C709 C710 1.362 . S
C709 C712 1.378 . S
C709 H724 0.929 . S
C710 C709 1.362 . S
C710 C711 1.366 . S
C711 C708 1.365 . S
C711 C710 1.366 . S
C711 H725 0.930 . S
C712 C709 1.378 . S
C712 N713 1.315 . S
C712 H715 0.930 . S
N713 Co693 2.194 . S
N713 C708 1.328 . S
N713 C712 1.315 . S
H714 C708 0.929 . S
H715 C712 0.930 . S
H716 C704 0.929 . S
H717 C706 0.929 . S
O718 Co693 2.351 . S
O718 C721 1.244 . S
O719 Co693 2.155 . S
O719 C721 1.240 . S
O720 Co693 2.096 . S
O720 C701 1.247 . S
C721 O718 1.244 . S
C721 O719 1.240 . S
H722 C696 0.931 . S
H723 C705 0.931 . S
H724 C709 0.929 . S
H725 C711 0.930 . S
Co726 N730 2.148 . S
Co726 N736 2.128 . S
Co726 N746 2.194 . S
Co726 O751 2.351 . S
Co726 O752 2.155 . S
Co726 O753 2.096 . S
C727 N730 1.301 . S
C727 N731 1.328 . S
C727 H732 0.930 . S
C728 C729 1.333 . S
C728 N730 1.317 . S
C728 H733 0.930 . S
C729 C728 1.333 . S
C729 N731 1.350 . S
C729 H755 0.931 . S
N730 Co726 2.148 . S
N730 C727 1.301 . S
N730 C728 1.317 . S
N731 C727 1.328 . S
N731 C729 1.350 . S
H732 C727 0.930 . S
H733 C728 0.930 . S
C734 O735 1.224 . S
C734 O753 1.247 . S
O735 C734 1.224 . S
N736 Co726 2.128 . S
N736 C737 1.355 . S
N736 C739 1.311 . S
C737 N736 1.355 . S
C737 C738 1.363 . S
C737 H749 0.929 . S
C738 C737 1.363 . S
C738 N740 1.375 . S
C738 H756 0.931 . S
C739 N736 1.311 . S
C739 N740 1.347 . S
C739 H750 0.929 . S
N740 C738 1.375 . S
N740 C739 1.347 . S
C741 C744 1.365 . S
C741 N746 1.328 . S
C741 H747 0.929 . S
C742 C743 1.362 . S
C742 C745 1.378 . S
C742 H757 0.929 . S
C743 C742 1.362 . S
C743 C744 1.366 . S
C744 C741 1.365 . S
C744 C743 1.366 . S
C744 H758 0.930 . S
C745 C742 1.378 . S
C745 N746 1.315 . S
C745 H748 0.930 . S
N746 Co726 2.194 . S
N746 C741 1.328 . S
N746 C745 1.315 . S
H747 C741 0.929 . S
H748 C745 0.930 . S
H749 C737 0.929 . S
H750 C739 0.929 . S
O751 Co726 2.351 . S
O751 C754 1.244 . S
O752 Co726 2.155 . S
O752 C754 1.240 . S
O753 Co726 2.096 . S
O753 C734 1.247 . S
C754 O751 1.244 . S
C754 O752 1.240 . S
H755 C729 0.931 . S
H756 C738 0.931 . S
H757 C742 0.929 . S
H758 C744 0.930 . S
Co759 N763 2.148 . S
Co759 N769 2.128 . S
Co759 N779 2.194 . S
Co759 O784 2.351 . S
Co759 O785 2.155 . S
Co759 O786 2.096 . S
C760 N763 1.301 . S
C760 N764 1.328 . S
C760 H765 0.930 . S
C761 C762 1.333 . S
C761 N763 1.317 . S
C761 H766 0.930 . S
C762 C761 1.333 . S
C762 N764 1.350 . S
C762 H788 0.931 . S
N763 Co759 2.148 . S
N763 C760 1.301 . S
N763 C761 1.317 . S
N764 C760 1.328 . S
N764 C762 1.350 . S
H765 C760 0.930 . S
H766 C761 0.930 . S
C767 O768 1.224 . S
C767 O786 1.247 . S
O768 C767 1.224 . S
N769 Co759 2.128 . S
N769 C770 1.355 . S
N769 C772 1.311 . S
C770 N769 1.355 . S
C770 C771 1.363 . S
C770 H782 0.929 . S
C771 C770 1.363 . S
C771 N773 1.375 . S
C771 H789 0.931 . S
C772 N769 1.311 . S
C772 N773 1.347 . S
C772 H783 0.929 . S
N773 C771 1.375 . S
N773 C772 1.347 . S
C774 C777 1.365 . S
C774 N779 1.328 . S
C774 H780 0.929 . S
C775 C776 1.362 . S
C775 C778 1.378 . S
C775 H790 0.929 . S
C776 C775 1.362 . S
C776 C777 1.366 . S
C777 C774 1.365 . S
C777 C776 1.366 . S
C777 H791 0.930 . S
C778 C775 1.378 . S
C778 N779 1.315 . S
C778 H781 0.930 . S
N779 Co759 2.194 . S
N779 C774 1.328 . S
N779 C778 1.315 . S
H780 C774 0.929 . S
H781 C778 0.930 . S
H782 C770 0.929 . S
H783 C772 0.929 . S
O784 Co759 2.351 . S
O784 C787 1.244 . S
O785 Co759 2.155 . S
O785 C787 1.240 . S
O786 Co759 2.096 . S
O786 C767 1.247 . S
C787 O784 1.244 . S
C787 O785 1.240 . S
H788 C762 0.931 . S
H789 C771 0.931 . S
H790 C775 0.929 . S
H791 C777 0.930 . S
Co792 N796 2.148 . S
Co792 N802 2.128 . S
Co792 N812 2.194 . S
Co792 O817 2.351 . S
Co792 O818 2.155 . S
Co792 O819 2.096 . S
C793 N796 1.301 . S
C793 N797 1.328 . S
C793 H798 0.930 . S
C794 C795 1.333 . S
C794 N796 1.317 . S
C794 H799 0.930 . S
C795 C794 1.333 . S
C795 N797 1.350 . S
C795 H821 0.931 . S
N796 Co792 2.148 . S
N796 C793 1.301 . S
N796 C794 1.317 . S
N797 C793 1.328 . S
N797 C795 1.350 . S
H798 C793 0.930 . S
H799 C794 0.930 . S
C800 O801 1.224 . S
C800 O819 1.247 . S
O801 C800 1.224 . S
N802 Co792 2.128 . S
N802 C803 1.355 . S
N802 C805 1.311 . S
C803 N802 1.355 . S
C803 C804 1.363 . S
C803 H815 0.929 . S
C804 C803 1.363 . S
C804 N806 1.375 . S
C804 H822 0.931 . S
C805 N802 1.311 . S
C805 N806 1.347 . S
C805 H816 0.929 . S
N806 C804 1.375 . S
N806 C805 1.347 . S
C807 C810 1.365 . S
C807 N812 1.328 . S
C807 H813 0.929 . S
C808 C809 1.362 . S
C808 C811 1.378 . S
C808 H823 0.929 . S
C809 C808 1.362 . S
C809 C810 1.366 . S
C810 C807 1.365 . S
C810 C809 1.366 . S
C810 H824 0.930 . S
C811 C808 1.378 . S
C811 N812 1.315 . S
C811 H814 0.930 . S
N812 Co792 2.194 . S
N812 C807 1.328 . S
N812 C811 1.315 . S
H813 C807 0.929 . S
H814 C811 0.930 . S
H815 C803 0.929 . S
H816 C805 0.929 . S
O817 Co792 2.351 . S
O817 C820 1.244 . S
O818 Co792 2.155 . S
O818 C820 1.240 . S
O819 Co792 2.096 . S
O819 C800 1.247 . S
C820 O817 1.244 . S
C820 O818 1.240 . S
H821 C795 0.931 . S
H822 C804 0.931 . S
H823 C808 0.929 . S
H824 C810 0.930 . S
Co825 N829 2.148 . S
Co825 N835 2.128 . S
Co825 N845 2.194 . S
Co825 O850 2.351 . S
Co825 O851 2.155 . S
Co825 O852 2.096 . S
C826 N829 1.301 . S
C826 N830 1.328 . S
C826 H831 0.930 . S
C827 C828 1.333 . S
C827 N829 1.317 . S
C827 H832 0.930 . S
C828 C827 1.333 . S
C828 N830 1.350 . S
C828 H854 0.931 . S
N829 Co825 2.148 . S
N829 C826 1.301 . S
N829 C827 1.317 . S
N830 C826 1.328 . S
N830 C828 1.350 . S
H831 C826 0.930 . S
H832 C827 0.930 . S
C833 O834 1.224 . S
C833 O852 1.247 . S
O834 C833 1.224 . S
N835 Co825 2.128 . S
N835 C836 1.355 . S
N835 C838 1.311 . S
C836 N835 1.355 . S
C836 C837 1.363 . S
C836 H848 0.929 . S
C837 C836 1.363 . S
C837 N839 1.375 . S
C837 H855 0.931 . S
C838 N835 1.311 . S
C838 N839 1.347 . S
C838 H849 0.929 . S
N839 C837 1.375 . S
N839 C838 1.347 . S
C840 C843 1.365 . S
C840 N845 1.328 . S
C840 H846 0.929 . S
C841 C842 1.362 . S
C841 C844 1.378 . S
C841 H856 0.929 . S
C842 C841 1.362 . S
C842 C843 1.366 . S
C843 C840 1.365 . S
C843 C842 1.366 . S
C843 H857 0.930 . S
C844 C841 1.378 . S
C844 N845 1.315 . S
C844 H847 0.930 . S
N845 Co825 2.194 . S
N845 C840 1.328 . S
N845 C844 1.315 . S
H846 C840 0.929 . S
H847 C844 0.930 . S
H848 C836 0.929 . S
H849 C838 0.929 . S
O850 Co825 2.351 . S
O850 C853 1.244 . S
O851 Co825 2.155 . S
O851 C853 1.240 . S
O852 Co825 2.096 . S
O852 C833 1.247 . S
C853 O850 1.244 . S
C853 O851 1.240 . S
H854 C828 0.931 . S
H855 C837 0.931 . S
H856 C841 0.929 . S
H857 C843 0.930 . S
Co858 N862 2.148 . S
Co858 N868 2.128 . S
Co858 N878 2.194 . S
Co858 O883 2.351 . S
Co858 O884 2.155 . S
Co858 O885 2.096 . S
C859 N862 1.301 . S
C859 N863 1.328 . S
C859 H864 0.930 . S
C860 C861 1.333 . S
C860 N862 1.317 . S
C860 H865 0.930 . S
C861 C860 1.333 . S
C861 N863 1.350 . S
C861 H887 0.931 . S
N862 Co858 2.148 . S
N862 C859 1.301 . S
N862 C860 1.317 . S
N863 C859 1.328 . S
N863 C861 1.350 . S
H864 C859 0.930 . S
H865 C860 0.930 . S
C866 O867 1.224 . S
C866 O885 1.247 . S
O867 C866 1.224 . S
N868 Co858 2.128 . S
N868 C869 1.355 . S
N868 C871 1.311 . S
C869 N868 1.355 . S
C869 C870 1.363 . S
C869 H881 0.929 . S
C870 C869 1.363 . S
C870 N872 1.375 . S
C870 H888 0.931 . S
C871 N868 1.311 . S
C871 N872 1.347 . S
C871 H882 0.929 . S
N872 C870 1.375 . S
N872 C871 1.347 . S
C873 C876 1.365 . S
C873 N878 1.328 . S
C873 H879 0.929 . S
C874 C875 1.362 . S
C874 C877 1.378 . S
C874 H889 0.929 . S
C875 C874 1.362 . S
C875 C876 1.366 . S
C876 C873 1.365 . S
C876 C875 1.366 . S
C876 H890 0.930 . S
C877 C874 1.378 . S
C877 N878 1.315 . S
C877 H880 0.930 . S
N878 Co858 2.194 . S
N878 C873 1.328 . S
N878 C877 1.315 . S
H879 C873 0.929 . S
H880 C877 0.930 . S
H881 C869 0.929 . S
H882 C871 0.929 . S
O883 Co858 2.351 . S
O883 C886 1.244 . S
O884 Co858 2.155 . S
O884 C886 1.240 . S
O885 Co858 2.096 . S
O885 C866 1.247 . S
C886 O883 1.244 . S
C886 O884 1.240 . S
H887 C861 0.931 . S
H888 C870 0.931 . S
H889 C874 0.929 . S
H890 C876 0.930 . S
Co891 N895 2.148 . S
Co891 N901 2.128 . S
Co891 N911 2.194 . S
Co891 O916 2.351 . S
Co891 O917 2.155 . S
Co891 O918 2.096 . S
C892 N895 1.301 . S
C892 N896 1.328 . S
C892 H897 0.930 . S
C893 C894 1.333 . S
C893 N895 1.317 . S
C893 H898 0.930 . S
C894 C893 1.333 . S
C894 N896 1.350 . S
C894 H920 0.931 . S
N895 Co891 2.148 . S
N895 C892 1.301 . S
N895 C893 1.317 . S
N896 C892 1.328 . S
N896 C894 1.350 . S
H897 C892 0.930 . S
H898 C893 0.930 . S
C899 O900 1.224 . S
C899 O918 1.247 . S
O900 C899 1.224 . S
N901 Co891 2.128 . S
N901 C902 1.355 . S
N901 C904 1.311 . S
C902 N901 1.355 . S
C902 C903 1.363 . S
C902 H914 0.929 . S
C903 C902 1.363 . S
C903 N905 1.375 . S
C903 H921 0.931 . S
C904 N901 1.311 . S
C904 N905 1.347 . S
C904 H915 0.929 . S
N905 C903 1.375 . S
N905 C904 1.347 . S
C906 C909 1.365 . S
C906 N911 1.328 . S
C906 H912 0.929 . S
C907 C908 1.362 . S
C907 C910 1.378 . S
C907 H922 0.929 . S
C908 C907 1.362 . S
C908 C909 1.366 . S
C909 C906 1.365 . S
C909 C908 1.366 . S
C909 H923 0.930 . S
C910 C907 1.378 . S
C910 N911 1.315 . S
C910 H913 0.930 . S
N911 Co891 2.194 . S
N911 C906 1.328 . S
N911 C910 1.315 . S
H912 C906 0.929 . S
H913 C910 0.930 . S
H914 C902 0.929 . S
H915 C904 0.929 . S
O916 Co891 2.351 . S
O916 C919 1.244 . S
O917 Co891 2.155 . S
O917 C919 1.240 . S
O918 Co891 2.096 . S
O918 C899 1.247 . S
C919 O916 1.244 . S
C919 O917 1.240 . S
H920 C894 0.931 . S
H921 C903 0.931 . S
H922 C907 0.929 . S
H923 C909 0.930 . S
Co924 N928 2.148 . S
Co924 N934 2.128 . S
Co924 N944 2.194 . S
Co924 O949 2.351 . S
Co924 O950 2.155 . S
Co924 O951 2.096 . S
C925 N928 1.301 . S
C925 N929 1.328 . S
C925 H930 0.930 . S
C926 C927 1.333 . S
C926 N928 1.317 . S
C926 H931 0.930 . S
C927 C926 1.333 . S
C927 N929 1.350 . S
C927 H953 0.931 . S
N928 Co924 2.148 . S
N928 C925 1.301 . S
N928 C926 1.317 . S
N929 C925 1.328 . S
N929 C927 1.350 . S
H930 C925 0.930 . S
H931 C926 0.930 . S
C932 O933 1.224 . S
C932 O951 1.247 . S
O933 C932 1.224 . S
N934 Co924 2.128 . S
N934 C935 1.355 . S
N934 C937 1.311 . S
C935 N934 1.355 . S
C935 C936 1.363 . S
C935 H947 0.929 . S
C936 C935 1.363 . S
C936 N938 1.375 . S
C936 H954 0.931 . S
C937 N934 1.311 . S
C937 N938 1.347 . S
C937 H948 0.929 . S
N938 C936 1.375 . S
N938 C937 1.347 . S
C939 C942 1.365 . S
C939 N944 1.328 . S
C939 H945 0.929 . S
C940 C941 1.362 . S
C940 C943 1.378 . S
C940 H955 0.929 . S
C941 C940 1.362 . S
C941 C942 1.366 . S
C942 C939 1.365 . S
C942 C941 1.366 . S
C942 H956 0.930 . S
C943 C940 1.378 . S
C943 N944 1.315 . S
C943 H946 0.930 . S
N944 Co924 2.194 . S
N944 C939 1.328 . S
N944 C943 1.315 . S
H945 C939 0.929 . S
H946 C943 0.930 . S
H947 C935 0.929 . S
H948 C937 0.929 . S
O949 Co924 2.351 . S
O949 C952 1.244 . S
O950 Co924 2.155 . S
O950 C952 1.240 . S
O951 Co924 2.096 . S
O951 C932 1.247 . S
C952 O949 1.244 . S
C952 O950 1.240 . S
H953 C927 0.931 . S
H954 C936 0.931 . S
H955 C940 0.929 . S
H956 C942 0.930 . S
Co957 N961 2.148 . S
Co957 N967 2.128 . S
Co957 N977 2.194 . S
Co957 O982 2.351 . S
Co957 O983 2.155 . S
Co957 O984 2.096 . S
C958 N961 1.301 . S
C958 N962 1.328 . S
C958 H963 0.930 . S
C959 C960 1.333 . S
C959 N961 1.317 . S
C959 H964 0.930 . S
C960 C959 1.333 . S
C960 N962 1.350 . S
C960 H986 0.931 . S
N961 Co957 2.148 . S
N961 C958 1.301 . S
N961 C959 1.317 . S
N962 C958 1.328 . S
N962 C960 1.350 . S
H963 C958 0.930 . S
H964 C959 0.930 . S
C965 O966 1.224 . S
C965 O984 1.247 . S
O966 C965 1.224 . S
N967 Co957 2.128 . S
N967 C968 1.355 . S
N967 C970 1.311 . S
C968 N967 1.355 . S
C968 C969 1.363 . S
C968 H980 0.929 . S
C969 C968 1.363 . S
C969 N971 1.375 . S
C969 H987 0.931 . S
C970 N967 1.311 . S
C970 N971 1.347 . S
C970 H981 0.929 . S
N971 C969 1.375 . S
N971 C970 1.347 . S
C972 C975 1.365 . S
C972 N977 1.328 . S
C972 H978 0.929 . S
C973 C974 1.362 . S
C973 C976 1.378 . S
C973 H988 0.929 . S
C974 C973 1.362 . S
C974 C975 1.366 . S
C975 C972 1.365 . S
C975 C974 1.366 . S
C975 H989 0.930 . S
C976 C973 1.378 . S
C976 N977 1.315 . S
C976 H979 0.930 . S
N977 Co957 2.194 . S
N977 C972 1.328 . S
N977 C976 1.315 . S
H978 C972 0.929 . S
H979 C976 0.930 . S
H980 C968 0.929 . S
H981 C970 0.929 . S
O982 Co957 2.351 . S
O982 C985 1.244 . S
O983 Co957 2.155 . S
O983 C985 1.240 . S
O984 Co957 2.096 . S
O984 C965 1.247 . S
C985 O982 1.244 . S
C985 O983 1.240 . S
H986 C960 0.931 . S
H987 C969 0.931 . S
H988 C973 0.929 . S
H989 C975 0.930 . S
Co990 N994 2.148 . S
Co990 N1000 2.128 . S
Co990 N1010 2.194 . S
Co990 O1015 2.351 . S
Co990 O1016 2.155 . S
Co990 O1017 2.096 . S
C991 N994 1.301 . S
C991 N995 1.328 . S
C991 H996 0.930 . S
C992 C993 1.333 . S
C992 N994 1.317 . S
C992 H997 0.930 . S
C993 C992 1.333 . S
C993 N995 1.350 . S
C993 H1019 0.931 . S
N994 Co990 2.148 . S
N994 C991 1.301 . S
N994 C992 1.317 . S
N995 C991 1.328 . S
N995 C993 1.350 . S
H996 C991 0.930 . S
H997 C992 0.930 . S
C998 O999 1.224 . S
C998 O1017 1.247 . S
O999 C998 1.224 . S
N1000 Co990 2.128 . S
N1000 C1001 1.355 . S
N1000 C1003 1.311 . S
C1001 N1000 1.355 . S
C1001 C1002 1.363 . S
C1001 H1013 0.929 . S
C1002 C1001 1.363 . S
C1002 N1004 1.375 . S
C1002 H1020 0.931 . S
C1003 N1000 1.311 . S
C1003 N1004 1.347 . S
C1003 H1014 0.929 . S
N1004 C1002 1.375 . S
N1004 C1003 1.347 . S
C1005 C1008 1.365 . S
C1005 N1010 1.328 . S
C1005 H1011 0.929 . S
C1006 C1007 1.362 . S
C1006 C1009 1.378 . S
C1006 H1021 0.929 . S
C1007 C1006 1.362 . S
C1007 C1008 1.366 . S
C1008 C1005 1.365 . S
C1008 C1007 1.366 . S
C1008 H1022 0.930 . S
C1009 C1006 1.378 . S
C1009 N1010 1.315 . S
C1009 H1012 0.930 . S
N1010 Co990 2.194 . S
N1010 C1005 1.328 . S
N1010 C1009 1.315 . S
H1011 C1005 0.929 . S
H1012 C1009 0.930 . S
H1013 C1001 0.929 . S
H1014 C1003 0.929 . S
O1015 Co990 2.351 . S
O1015 C1018 1.244 . S
O1016 Co990 2.155 . S
O1016 C1018 1.240 . S
O1017 Co990 2.096 . S
O1017 C998 1.247 . S
C1018 O1015 1.244 . S
C1018 O1016 1.240 . S
H1019 C993 0.931 . S
H1020 C1002 0.931 . S
H1021 C1006 0.929 . S
H1022 C1008 0.930 . S
Co1023 N1027 2.148 . S
Co1023 N1033 2.128 . S
Co1023 N1043 2.194 . S
Co1023 O1048 2.351 . S
Co1023 O1049 2.155 . S
Co1023 O1050 2.096 . S
C1024 N1027 1.301 . S
C1024 N1028 1.328 . S
C1024 H1029 0.930 . S
C1025 C1026 1.333 . S
C1025 N1027 1.317 . S
C1025 H1030 0.930 . S
C1026 C1025 1.333 . S
C1026 N1028 1.350 . S
C1026 H1052 0.931 . S
N1027 Co1023 2.148 . S
N1027 C1024 1.301 . S
N1027 C1025 1.317 . S
N1028 C1024 1.328 . S
N1028 C1026 1.350 . S
H1029 C1024 0.930 . S
H1030 C1025 0.930 . S
C1031 O1032 1.224 . S
C1031 O1050 1.247 . S
O1032 C1031 1.224 . S
N1033 Co1023 2.128 . S
N1033 C1034 1.355 . S
N1033 C1036 1.311 . S
C1034 N1033 1.355 . S
C1034 C1035 1.363 . S
C1034 H1046 0.929 . S
C1035 C1034 1.363 . S
C1035 N1037 1.375 . S
C1035 H1053 0.931 . S
C1036 N1033 1.311 . S
C1036 N1037 1.347 . S
C1036 H1047 0.929 . S
N1037 C1035 1.375 . S
N1037 C1036 1.347 . S
C1038 C1041 1.365 . S
C1038 N1043 1.328 . S
C1038 H1044 0.929 . S
C1039 C1040 1.362 . S
C1039 C1042 1.378 . S
C1039 H1054 0.929 . S
C1040 C1039 1.362 . S
C1040 C1041 1.366 . S
C1041 C1038 1.365 . S
C1041 C1040 1.366 . S
C1041 H1055 0.930 . S
C1042 C1039 1.378 . S
C1042 N1043 1.315 . S
C1042 H1045 0.930 . S
N1043 Co1023 2.194 . S
N1043 C1038 1.328 . S
N1043 C1042 1.315 . S
H1044 C1038 0.929 . S
H1045 C1042 0.930 . S
H1046 C1034 0.929 . S
H1047 C1036 0.929 . S
O1048 Co1023 2.351 . S
O1048 C1051 1.244 . S
O1049 Co1023 2.155 . S
O1049 C1051 1.240 . S
O1050 Co1023 2.096 . S
O1050 C1031 1.247 . S
C1051 O1048 1.244 . S
C1051 O1049 1.240 . S
H1052 C1026 0.931 . S
H1053 C1035 0.931 . S
H1054 C1039 0.929 . S
H1055 C1041 0.930 . S
H1056 C1068 0.930 . S
H1057 C1070 0.930 . S
H1058 C1071 0.930 . S
H1059 C1075 0.959 . S
H1060 C1075 0.959 . S
H1061 C1075 0.961 . S
H1062 C1076 0.960 . S
H1063 C1076 0.961 . S
H1064 C1076 0.959 . S
H1065 C1079 0.929 . S
H1066 C1080 0.931 . S
H1067 C1082 0.930 . S
C1068 H1056 0.930 . S
C1068 C1069 1.399 . S
C1068 C1073 1.399 . S
C1069 C1068 1.399 . S
C1069 C1070 1.376 . S
C1070 H1057 0.930 . S
C1070 C1069 1.376 . S
C1070 C1071 1.388 . S
C1071 H1058 0.930 . S
C1071 C1070 1.388 . S
C1071 C1072 1.390 . S
C1072 C1071 1.390 . S
C1072 C1073 1.394 . S
C1072 C1078 1.465 . S
C1073 C1068 1.399 . S
C1073 C1072 1.394 . S
C1073 C1074 1.516 . S
C1074 C1073 1.516 . S
C1074 C1075 1.502 . S
C1074 C1076 1.561 . S
C1074 C1077 1.526 . S
C1075 H1059 0.959 . S
C1075 H1060 0.959 . S
C1075 H1061 0.961 . S
C1075 C1074 1.502 . S
C1076 H1062 0.960 . S
C1076 H1063 0.961 . S
C1076 H1064 0.959 . S
C1076 C1074 1.561 . S
C1077 C1074 1.526 . S
C1077 C1078 1.396 . S
C1077 C1082 1.390 . S
C1078 C1072 1.465 . S
C1078 C1077 1.396 . S
C1078 C1079 1.399 . S
C1079 H1065 0.929 . S
C1079 C1078 1.399 . S
C1079 C1080 1.385 . S
C1080 H1066 0.931 . S
C1080 C1079 1.385 . S
C1080 C1081 1.389 . S
C1081 C1080 1.389 . S
C1081 C1082 1.387 . S
C1082 H1067 0.930 . S
C1082 C1077 1.390 . S
C1082 C1081 1.387 . S
H1083 C1095 0.930 . S
H1084 C1097 0.930 . S
H1085 C1098 0.930 . S
H1086 C1102 0.959 . S
H1087 C1102 0.959 . S
H1088 C1102 0.961 . S
H1089 C1103 0.964 . S
H1090 C1103 0.960 1_455 S
H1091 C1103 0.954 1_455 S
H1092 C1106 0.929 1_565 S
H1093 C1107 0.931 . S
H1094 C1109 0.930 . S
C1095 H1083 0.930 . S
C1095 C1096 1.399 . S
C1095 C1100 1.399 . S
C1096 C1095 1.399 . S
C1096 C1097 1.376 . S
C1097 H1084 0.930 . S
C1097 C1096 1.376 . S
C1097 C1098 1.388 1_655 S
C1098 H1085 0.930 . S
C1098 C1097 1.388 1_455 S
C1098 C1099 1.391 . S
C1099 C1098 1.391 . S
C1099 C1100 1.371 1_455 S
C1099 C1105 1.484 1_565 S
C1100 C1095 1.399 . S
C1100 C1099 1.371 1_655 S
C1100 C1101 1.516 1_565 S
C1101 C1100 1.516 1_545 S
C1101 C1102 1.502 . S
C1101 C1103 1.563 . S
C1101 C1104 1.526 1_655 S
C1102 H1086 0.959 . S
C1102 H1087 0.959 . S
C1102 H1088 0.961 . S
C1102 C1101 1.502 . S
C1103 H1089 0.964 . S
C1103 H1090 0.960 1_655 S
C1103 H1091 0.954 1_655 S
C1103 C1101 1.563 . S
C1104 C1101 1.526 1_455 S
C1104 C1105 1.396 . S
C1104 C1109 1.390 . S
C1105 C1099 1.484 1_545 S
C1105 C1104 1.396 . S
C1105 C1106 1.399 . S
C1106 H1092 0.929 1_545 S
C1106 C1105 1.399 . S
C1106 C1107 1.385 . S
C1107 H1093 0.931 . S
C1107 C1106 1.385 . S
C1107 C1108 1.389 . S
C1108 C1107 1.389 . S
C1108 C1109 1.387 . S
C1109 H1094 0.930 . S
C1109 C1104 1.390 . S
C1109 C1108 1.387 . S
H1110 C1122 0.930 . S
H1111 C1124 0.930 . S
H1112 C1125 0.930 . S
H1113 C1129 0.959 . S
H1114 C1129 0.959 . S
H1115 C1129 0.961 . S
H1116 C1130 0.960 . S
H1117 C1130 0.961 . S
H1118 C1130 0.959 . S
H1119 C1133 0.929 . S
H1120 C1134 0.931 . S
H1121 C1136 0.930 . S
C1122 H1110 0.930 . S
C1122 C1123 1.399 . S
C1122 C1127 1.399 . S
C1123 C1122 1.399 . S
C1123 C1124 1.376 . S
C1124 H1111 0.930 . S
C1124 C1123 1.376 . S
C1124 C1125 1.388 . S
C1125 H1112 0.930 . S
C1125 C1124 1.388 . S
C1125 C1126 1.390 . S
C1126 C1125 1.390 . S
C1126 C1127 1.394 . S
C1126 C1132 1.465 . S
C1127 C1122 1.399 . S
C1127 C1126 1.394 . S
C1127 C1128 1.516 . S
C1128 C1127 1.516 . S
C1128 C1129 1.502 . S
C1128 C1130 1.561 . S
C1128 C1131 1.526 . S
C1129 H1113 0.959 . S
C1129 H1114 0.959 . S
C1129 H1115 0.961 . S
C1129 C1128 1.502 . S
C1130 H1116 0.960 . S
C1130 H1117 0.961 . S
C1130 H1118 0.959 . S
C1130 C1128 1.561 . S
C1131 C1128 1.526 . S
C1131 C1132 1.396 . S
C1131 C1136 1.390 . S
C1132 C1126 1.465 . S
C1132 C1131 1.396 . S
C1132 C1133 1.399 . S
C1133 H1119 0.929 . S
C1133 C1132 1.399 . S
C1133 C1134 1.385 . S
C1134 H1120 0.931 . S
C1134 C1133 1.385 . S
C1134 C1135 1.389 . S
C1135 C1134 1.389 . S
C1135 C1136 1.387 . S
C1136 H1121 0.930 . S
C1136 C1131 1.390 . S
C1136 C1135 1.387 . S
H1137 C1149 0.930 . S
H1138 C1151 0.930 . S
H1139 C1152 0.930 . S
H1140 C1156 0.959 . S
H1141 C1156 0.959 . S
H1142 C1156 0.961 . S
H1143 C1157 0.960 . S
H1144 C1157 0.961 . S
H1145 C1157 0.959 . S
H1146 C1160 0.929 1_565 S
H1147 C1161 0.931 . S
H1148 C1163 0.930 1_556 S
C1149 H1137 0.930 . S
C1149 C1150 1.399 . S
C1149 C1154 1.399 . S
C1150 C1149 1.399 . S
C1150 C1151 1.376 1_556 S
C1151 H1138 0.930 . S
C1151 C1150 1.376 1_554 S
C1151 C1152 1.388 . S
C1152 H1139 0.930 . S
C1152 C1151 1.388 . S
C1152 C1153 1.390 . S
C1153 C1152 1.390 . S
C1153 C1154 1.394 1_554 S
C1153 C1159 1.465 1_565 S
C1154 C1149 1.399 . S
C1154 C1153 1.394 1_556 S
C1154 C1155 1.516 1_565 S
C1155 C1154 1.516 1_545 S
C1155 C1156 1.502 . S
C1155 C1157 1.561 . S
C1155 C1158 1.574 . S
C1156 H1140 0.959 . S
C1156 H1141 0.959 . S
C1156 H1142 0.961 . S
C1156 C1155 1.502 . S
C1157 H1143 0.960 . S
C1157 H1144 0.961 . S
C1157 H1145 0.959 . S
C1157 C1155 1.561 . S
C1158 C1155 1.574 . S
C1158 C1159 1.357 1_556 S
C1158 C1163 1.379 1_556 S
C1159 C1153 1.465 1_545 S
C1159 C1158 1.357 1_554 S
C1159 C1160 1.399 . S
C1160 H1146 0.929 1_545 S
C1160 C1159 1.399 . S
C1160 C1161 1.385 . S
C1161 H1147 0.931 . S
C1161 C1160 1.385 . S
C1161 C1162 1.389 . S
C1162 C1161 1.389 . S
C1162 C1163 1.387 . S
C1163 H1148 0.930 1_554 S
C1163 C1158 1.379 1_554 S
C1163 C1162 1.387 . S
H1164 C1176 0.930 . S
H1165 C1178 0.930 . S
H1166 C1179 0.930 . S
H1167 C1183 0.959 . S
H1168 C1183 0.959 . S
H1169 C1183 0.961 . S
H1170 C1184 0.960 . S
H1171 C1184 0.961 . S
H1172 C1184 0.959 . S
H1173 C1187 0.929 . S
H1174 C1188 0.931 . S
H1175 C1190 0.930 . S
C1176 H1164 0.930 . S
C1176 C1177 1.399 . S
C1176 C1181 1.399 . S
C1177 C1176 1.399 . S
C1177 C1178 1.376 . S
C1178 H1165 0.930 . S
C1178 C1177 1.376 . S
C1178 C1179 1.388 . S
C1179 H1166 0.930 . S
C1179 C1178 1.388 . S
C1179 C1180 1.390 . S
C1180 C1179 1.390 . S
C1180 C1181 1.394 . S
C1180 C1186 1.465 . S
C1181 C1176 1.399 . S
C1181 C1180 1.394 . S
C1181 C1182 1.516 . S
C1182 C1181 1.516 . S
C1182 C1183 1.502 . S
C1182 C1184 1.561 . S
C1182 C1185 1.526 . S
C1183 H1167 0.959 . S
C1183 H1168 0.959 . S
C1183 H1169 0.961 . S
C1183 C1182 1.502 . S
C1184 H1170 0.960 . S
C1184 H1171 0.961 . S
C1184 H1172 0.959 . S
C1184 C1182 1.561 . S
C1185 C1182 1.526 . S
C1185 C1186 1.396 . S
C1185 C1190 1.390 . S
C1186 C1180 1.465 . S
C1186 C1185 1.396 . S
C1186 C1187 1.399 . S
C1187 H1173 0.929 . S
C1187 C1186 1.399 . S
C1187 C1188 1.385 . S
C1188 H1174 0.931 . S
C1188 C1187 1.385 . S
C1188 C1189 1.389 . S
C1189 C1188 1.389 . S
C1189 C1190 1.387 . S
C1190 H1175 0.930 . S
C1190 C1185 1.390 . S
C1190 C1189 1.387 . S
H1191 C1203 0.930 . S
H1192 C1205 0.930 . S
H1193 C1206 0.930 . S
H1194 C1210 0.959 . S
H1195 C1210 0.959 . S
H1196 C1210 0.961 . S
H1197 C1211 0.960 . S
H1198 C1211 0.961 . S
H1199 C1211 0.959 . S
H1200 C1214 0.929 1_565 S
H1201 C1215 0.931 . S
H1202 C1217 0.930 . S
C1203 H1191 0.930 . S
C1203 C1204 1.399 . S
C1203 C1208 1.399 . S
C1204 C1203 1.399 . S
C1204 C1205 1.376 . S
C1205 H1192 0.930 . S
C1205 C1204 1.376 . S
C1205 C1206 1.388 . S
C1206 H1193 0.930 . S
C1206 C1205 1.388 . S
C1206 C1207 1.390 . S
C1207 C1206 1.390 . S
C1207 C1208 1.394 . S
C1207 C1213 1.465 1_565 S
C1208 C1203 1.399 . S
C1208 C1207 1.394 . S
C1208 C1209 1.516 1_565 S
C1209 C1208 1.516 1_545 S
C1209 C1210 1.502 . S
C1209 C1211 1.561 . S
C1209 C1212 1.526 . S
C1210 H1194 0.959 . S
C1210 H1195 0.959 . S
C1210 H1196 0.961 . S
C1210 C1209 1.502 . S
C1211 H1197 0.960 . S
C1211 H1198 0.961 . S
C1211 H1199 0.959 . S
C1211 C1209 1.561 . S
C1212 C1209 1.526 . S
C1212 C1213 1.396 . S
C1212 C1217 1.390 . S
C1213 C1207 1.465 1_545 S
C1213 C1212 1.396 . S
C1213 C1214 1.399 . S
C1214 H1200 0.929 1_545 S
C1214 C1213 1.399 . S
C1214 C1215 1.385 . S
C1215 H1201 0.931 . S
C1215 C1214 1.385 . S
C1215 C1216 1.389 . S
C1216 C1215 1.389 . S
C1216 C1217 1.387 . S
C1217 H1202 0.930 . S
C1217 C1212 1.390 . S
C1217 C1216 1.387 . S
H1218 C1230 0.930 . S
H1219 C1232 0.930 . S
H1220 C1233 0.930 . S
H1221 C1237 0.959 . S
H1222 C1237 0.959 . S
H1223 C1237 0.961 . S
H1224 C1238 0.960 . S
H1225 C1238 0.961 . S
H1226 C1238 0.959 . S
H1227 C1241 0.929 . S
H1228 C1242 0.931 . S
H1229 C1244 0.930 . S
C1230 H1218 0.930 . S
C1230 C1231 1.399 . S
C1230 C1235 1.399 . S
C1231 C1230 1.399 . S
C1231 C1232 1.376 . S
C1232 H1219 0.930 . S
C1232 C1231 1.376 . S
C1232 C1233 1.388 . S
C1233 H1220 0.930 . S
C1233 C1232 1.388 . S
C1233 C1234 1.390 . S
C1234 C1233 1.390 . S
C1234 C1235 1.394 . S
C1234 C1240 1.465 . S
C1235 C1230 1.399 . S
C1235 C1234 1.394 . S
C1235 C1236 1.516 . S
C1236 C1235 1.516 . S
C1236 C1237 1.502 . S
C1236 C1238 1.561 . S
C1236 C1239 1.526 . S
C1237 H1221 0.959 . S
C1237 H1222 0.959 . S
C1237 H1223 0.961 . S
C1237 C1236 1.502 . S
C1238 H1224 0.960 . S
C1238 H1225 0.961 . S
C1238 H1226 0.959 . S
C1238 C1236 1.561 . S
C1239 C1236 1.526 . S
C1239 C1240 1.396 . S
C1239 C1244 1.390 . S
C1240 C1234 1.465 . S
C1240 C1239 1.396 . S
C1240 C1241 1.399 . S
C1241 H1227 0.929 . S
C1241 C1240 1.399 . S
C1241 C1242 1.385 . S
C1242 H1228 0.931 . S
C1242 C1241 1.385 . S
C1242 C1243 1.389 . S
C1243 C1242 1.389 . S
C1243 C1244 1.387 . S
C1244 H1229 0.930 . S
C1244 C1239 1.390 . S
C1244 C1243 1.387 . S
H1245 C1257 0.930 . S
H1246 C1259 0.924 1_556 S
H1247 C1260 0.930 . S
H1248 C1264 0.959 . S
H1249 C1264 0.959 . S
H1250 C1264 0.961 . S
H1251 C1265 0.960 . S
H1252 C1265 0.961 . S
H1253 C1265 0.936 1_455 S
H1254 C1268 0.929 . S
H1255 C1269 0.931 . S
H1256 C1271 0.930 1_554 S
C1257 H1245 0.930 . S
C1257 C1258 1.399 . S
C1257 C1262 1.399 . S
C1258 C1257 1.399 . S
C1258 C1259 1.376 . S
C1259 H1246 0.924 1_554 S
C1259 C1258 1.376 . S
C1259 C1260 1.388 1_554 S
C1260 H1247 0.930 . S
C1260 C1259 1.388 1_556 S
C1260 C1261 1.390 . S
C1261 C1260 1.390 . S
C1261 C1262 1.394 1_556 S
C1261 C1267 1.465 1_565 S
C1262 C1257 1.399 . S
C1262 C1261 1.394 1_554 S
C1262 C1263 1.513 1_465 S
C1263 C1262 1.513 1_645 S
C1263 C1264 1.499 1_545 S
C1263 C1265 1.565 . S
C1263 C1266 1.566 . S
C1264 H1248 0.959 . S
C1264 H1249 0.959 . S
C1264 H1250 0.961 . S
C1264 C1263 1.499 1_565 S
C1265 H1251 0.960 . S
C1265 H1252 0.961 . S
C1265 H1253 0.936 1_655 S
C1265 C1263 1.565 . S
C1266 C1263 1.566 . S
C1266 C1267 1.371 1_654 S
C1266 C1271 1.378 1_554 S
C1267 C1261 1.465 1_545 S
C1267 C1266 1.371 1_456 S
C1267 C1268 1.399 . S
C1268 H1254 0.929 . S
C1268 C1267 1.399 . S
C1268 C1269 1.385 1_455 S
C1269 H1255 0.931 . S
C1269 C1268 1.385 1_655 S
C1269 C1270 1.389 . S
C1270 C1269 1.389 . S
C1270 C1271 1.387 . S
C1271 H1256 0.930 1_556 S
C1271 C1266 1.378 1_556 S
C1271 C1270 1.387 . S
H1272 C1284 0.930 . S
H1273 C1286 0.930 . S
H1274 C1287 0.930 . S
H1275 C1291 0.959 . S
H1276 C1291 0.959 . S
H1277 C1291 0.961 . S
H1278 C1292 0.960 . S
H1279 C1292 0.961 . S
H1280 C1292 0.959 . S
H1281 C1295 0.929 . S
H1282 C1296 0.931 . S
H1283 C1298 0.930 . S
C1284 H1272 0.930 . S
C1284 C1285 1.399 . S
C1284 C1289 1.399 . S
C1285 C1284 1.399 . S
C1285 C1286 1.376 . S
C1286 H1273 0.930 . S
C1286 C1285 1.376 . S
C1286 C1287 1.388 . S
C1287 H1274 0.930 . S
C1287 C1286 1.388 . S
C1287 C1288 1.390 . S
C1288 C1287 1.390 . S
C1288 C1289 1.394 . S
C1288 C1294 1.465 . S
C1289 C1284 1.399 . S
C1289 C1288 1.394 . S
C1289 C1290 1.516 . S
C1290 C1289 1.516 . S
C1290 C1291 1.502 . S
C1290 C1292 1.561 . S
C1290 C1293 1.526 . S
C1291 H1275 0.959 . S
C1291 H1276 0.959 . S
C1291 H1277 0.961 . S
C1291 C1290 1.502 . S
C1292 H1278 0.960 . S
C1292 H1279 0.961 . S
C1292 H1280 0.959 . S
C1292 C1290 1.561 . S
C1293 C1290 1.526 . S
C1293 C1294 1.396 . S
C1293 C1298 1.390 . S
C1294 C1288 1.465 . S
C1294 C1293 1.396 . S
C1294 C1295 1.399 . S
C1295 H1281 0.929 . S
C1295 C1294 1.399 . S
C1295 C1296 1.385 . S
C1296 H1282 0.931 . S
C1296 C1295 1.385 . S
C1296 C1297 1.389 . S
C1297 C1296 1.389 . S
C1297 C1298 1.387 . S
C1298 H1283 0.930 . S
C1298 C1293 1.390 . S
C1298 C1297 1.387 . S
H1299 C1311 0.930 . S
H1300 C1313 0.930 . S
H1301 C1314 0.930 . S
H1302 C1318 0.959 . S
H1303 C1318 0.959 . S
H1304 C1318 0.961 . S
H1305 C1319 0.960 . S
H1306 C1319 0.961 . S
H1307 C1319 0.959 . S
H1308 C1322 0.929 . S
H1309 C1323 0.931 . S
H1310 C1325 0.930 . S
C1311 H1299 0.930 . S
C1311 C1312 1.399 . S
C1311 C1316 1.399 . S
C1312 C1311 1.399 . S
C1312 C1313 1.376 . S
C1313 H1300 0.930 . S
C1313 C1312 1.376 . S
C1313 C1314 1.388 . S
C1314 H1301 0.930 . S
C1314 C1313 1.388 . S
C1314 C1315 1.390 . S
C1315 C1314 1.390 . S
C1315 C1316 1.394 . S
C1315 C1321 1.465 . S
C1316 C1311 1.399 . S
C1316 C1315 1.394 . S
C1316 C1317 1.516 . S
C1317 C1316 1.516 . S
C1317 C1318 1.502 . S
C1317 C1319 1.561 . S
C1317 C1320 1.526 . S
C1318 H1302 0.959 . S
C1318 H1303 0.959 . S
C1318 H1304 0.961 . S
C1318 C1317 1.502 . S
C1319 H1305 0.960 . S
C1319 H1306 0.961 . S
C1319 H1307 0.959 . S
C1319 C1317 1.561 . S
C1320 C1317 1.526 . S
C1320 C1321 1.396 . S
C1320 C1325 1.390 . S
C1321 C1315 1.465 . S
C1321 C1320 1.396 . S
C1321 C1322 1.399 . S
C1322 H1308 0.929 . S
C1322 C1321 1.399 . S
C1322 C1323 1.385 . S
C1323 H1309 0.931 . S
C1323 C1322 1.385 . S
C1323 C1324 1.389 . S
C1324 C1323 1.389 . S
C1324 C1325 1.387 . S
C1325 H1310 0.930 . S
C1325 C1320 1.390 . S
C1325 C1324 1.387 . S
H1326 C1338 0.930 . S
H1327 C1340 0.930 . S
H1328 C1341 0.930 . S
H1329 C1345 0.959 . S
H1330 C1345 0.959 . S
H1331 C1345 0.961 . S
H1332 C1346 0.960 . S
H1333 C1346 0.961 . S
H1334 C1346 0.959 . S
H1335 C1349 0.929 . S
H1336 C1350 0.931 . S
H1337 C1352 0.930 . S
C1338 H1326 0.930 . S
C1338 C1339 1.399 . S
C1338 C1343 1.399 . S
C1339 C1338 1.399 . S
C1339 C1340 1.376 . S
C1340 H1327 0.930 . S
C1340 C1339 1.376 . S
C1340 C1341 1.388 . S
C1341 H1328 0.930 . S
C1341 C1340 1.388 . S
C1341 C1342 1.390 . S
C1342 C1341 1.390 . S
C1342 C1343 1.394 . S
C1342 C1348 1.465 . S
C1343 C1338 1.399 . S
C1343 C1342 1.394 . S
C1343 C1344 1.516 . S
C1344 C1343 1.516 . S
C1344 C1345 1.502 . S
C1344 C1346 1.561 . S
C1344 C1347 1.526 . S
C1345 H1329 0.959 . S
C1345 H1330 0.959 . S
C1345 H1331 0.961 . S
C1345 C1344 1.502 . S
C1346 H1332 0.960 . S
C1346 H1333 0.961 . S
C1346 H1334 0.959 . S
C1346 C1344 1.561 . S
C1347 C1344 1.526 . S
C1347 C1348 1.396 . S
C1347 C1352 1.390 . S
C1348 C1342 1.465 . S
C1348 C1347 1.396 . S
C1348 C1349 1.399 . S
C1349 H1335 0.929 . S
C1349 C1348 1.399 . S
C1349 C1350 1.385 . S
C1350 H1336 0.931 . S
C1350 C1349 1.385 . S
C1350 C1351 1.389 . S
C1351 C1350 1.389 . S
C1351 C1352 1.387 . S
C1352 H1337 0.930 . S
C1352 C1347 1.390 . S
C1352 C1351 1.387 . S
H1353 C1365 0.930 . S
H1354 C1367 0.930 . S
H1355 C1368 0.930 . S
H1356 C1372 0.959 . S
H1357 C1372 0.959 . S
H1358 C1372 0.961 . S
H1359 C1373 0.960 . S
H1360 C1373 0.961 . S
H1361 C1373 0.959 . S
H1362 C1376 0.929 . S
H1363 C1377 0.931 . S
H1364 C1379 0.930 . S
C1365 H1353 0.930 . S
C1365 C1366 1.399 . S
C1365 C1370 1.399 . S
C1366 C1365 1.399 . S
C1366 C1367 1.376 . S
C1367 H1354 0.930 . S
C1367 C1366 1.376 . S
C1367 C1368 1.388 . S
C1368 H1355 0.930 . S
C1368 C1367 1.388 . S
C1368 C1369 1.390 . S
C1369 C1368 1.390 . S
C1369 C1370 1.394 . S
C1369 C1375 1.465 . S
C1370 C1365 1.399 . S
C1370 C1369 1.394 . S
C1370 C1371 1.516 . S
C1371 C1370 1.516 . S
C1371 C1372 1.502 . S
C1371 C1373 1.561 . S
C1371 C1374 1.526 . S
C1372 H1356 0.959 . S
C1372 H1357 0.959 . S
C1372 H1358 0.961 . S
C1372 C1371 1.502 . S
C1373 H1359 0.960 . S
C1373 H1360 0.961 . S
C1373 H1361 0.959 . S
C1373 C1371 1.561 . S
C1374 C1371 1.526 . S
C1374 C1375 1.396 . S
C1374 C1379 1.390 . S
C1375 C1369 1.465 . S
C1375 C1374 1.396 . S
C1375 C1376 1.399 . S
C1376 H1362 0.929 . S
C1376 C1375 1.399 . S
C1376 C1377 1.385 . S
C1377 H1363 0.931 . S
C1377 C1376 1.385 . S
C1377 C1378 1.389 . S
C1378 C1377 1.389 . S
C1378 C1379 1.387 . S
C1379 H1364 0.930 . S
C1379 C1374 1.390 . S
C1379 C1378 1.387 . S
H1380 C1392 0.930 . S
H1381 C1394 0.925 1_554 S
H1382 C1395 0.930 . S
H1383 C1399 0.959 . S
H1384 C1399 0.959 . S
H1385 C1399 0.961 . S
H1386 C1400 0.960 . S
H1387 C1400 0.961 . S
H1388 C1400 0.959 1_554 S
H1389 C1403 0.929 . S
H1390 C1404 0.931 . S
H1391 C1406 0.934 . S
C1392 H1380 0.930 . S
C1392 C1393 1.399 . S
C1392 C1397 1.399 . S
C1393 C1392 1.399 . S
C1393 C1394 1.376 . S
C1394 H1381 0.925 1_556 S
C1394 C1393 1.376 . S
C1394 C1395 1.388 1_556 S
C1395 H1382 0.930 . S
C1395 C1394 1.388 1_554 S
C1395 C1396 1.390 . S
C1396 C1395 1.390 . S
C1396 C1397 1.394 1_554 S
C1396 C1402 1.465 . S
C1397 C1392 1.399 . S
C1397 C1396 1.394 1_556 S
C1397 C1398 1.516 . S
C1398 C1397 1.516 . S
C1398 C1399 1.502 . S
C1398 C1400 1.561 . S
C1398 C1401 1.526 1_556 S
C1399 H1383 0.959 . S
C1399 H1384 0.959 . S
C1399 H1385 0.961 . S
C1399 C1398 1.502 . S
C1400 H1386 0.960 . S
C1400 H1387 0.961 . S
C1400 H1388 0.959 1_556 S
C1400 C1398 1.561 . S
C1401 C1398 1.526 1_554 S
C1401 C1402 1.396 . S
C1401 C1406 1.390 . S
C1402 C1396 1.465 . S
C1402 C1401 1.396 . S
C1402 C1403 1.399 . S
C1403 H1389 0.929 . S
C1403 C1402 1.399 . S
C1403 C1404 1.385 . S
C1404 H1390 0.931 . S
C1404 C1403 1.385 . S
C1404 C1405 1.389 . S
C1405 C1404 1.389 . S
C1405 C1406 1.387 . S
C1406 H1391 0.934 . S
C1406 C1401 1.390 . S
C1406 C1405 1.387 . S
H1407 C1419 0.930 . S
H1408 C1421 0.930 . S
H1409 C1422 0.930 . S
H1410 C1426 0.959 . S
H1411 C1426 0.959 . S
H1412 C1426 0.961 . S
H1413 C1427 0.960 . S
H1414 C1427 0.961 . S
H1415 C1427 0.959 . S
H1416 C1430 0.929 . S
H1417 C1431 0.931 . S
H1418 C1433 0.930 . S
C1419 H1407 0.930 . S
C1419 C1420 1.399 . S
C1419 C1424 1.399 . S
C1420 C1419 1.399 . S
C1420 C1421 1.376 . S
C1421 H1408 0.930 . S
C1421 C1420 1.376 . S
C1421 C1422 1.388 1_455 S
C1422 H1409 0.930 . S
C1422 C1421 1.388 1_655 S
C1422 C1423 1.387 1_655 S
C1423 C1422 1.387 1_455 S
C1423 C1424 1.412 . S
C1423 C1429 1.452 1_455 S
C1424 C1419 1.399 . S
C1424 C1423 1.412 . S
C1424 C1425 1.516 . S
C1425 C1424 1.516 . S
C1425 C1426 1.502 . S
C1425 C1427 1.561 . S
C1425 C1428 1.526 1_455 S
C1426 H1410 0.959 . S
C1426 H1411 0.959 . S
C1426 H1412 0.961 . S
C1426 C1425 1.502 . S
C1427 H1413 0.960 . S
C1427 H1414 0.961 . S
C1427 H1415 0.959 . S
C1427 C1425 1.561 . S
C1428 C1425 1.526 1_655 S
C1428 C1429 1.396 . S
C1428 C1433 1.390 . S
C1429 C1423 1.452 1_655 S
C1429 C1428 1.396 . S
C1429 C1430 1.399 . S
C1430 H1416 0.929 . S
C1430 C1429 1.399 . S
C1430 C1431 1.385 . S
C1431 H1417 0.931 . S
C1431 C1430 1.385 . S
C1431 C1432 1.389 . S
C1432 C1431 1.389 . S
C1432 C1433 1.387 . S
C1433 H1418 0.930 . S
C1433 C1428 1.390 . S
C1433 C1432 1.387 . S
H1434 C1446 0.930 . S
H1435 C1448 0.923 1_554 S
H1436 C1449 0.930 1_655 S
H1437 C1453 0.959 . S
H1438 C1453 0.959 . S
H1439 C1453 0.961 . S
H1440 C1454 0.960 . S
H1441 C1454 0.961 . S
H1442 C1454 0.959 . S
H1443 C1457 0.929 . S
H1444 C1458 0.931 . S
H1445 C1460 0.930 1_556 S
C1446 H1434 0.930 . S
C1446 C1447 1.399 . S
C1446 C1451 1.399 . S
C1447 C1446 1.399 . S
C1447 C1448 1.376 . S
C1448 H1435 0.923 1_556 S
C1448 C1447 1.376 . S
C1448 C1449 1.388 1_556 S
C1449 H1436 0.930 1_455 S
C1449 C1448 1.388 1_554 S
C1449 C1450 1.390 . S
C1450 C1449 1.390 . S
C1450 C1451 1.394 1_554 S
C1450 C1456 1.465 1_455 S
C1451 C1446 1.399 . S
C1451 C1450 1.394 1_556 S
C1451 C1452 1.516 . S
C1452 C1451 1.516 . S
C1452 C1453 1.502 . S
C1452 C1454 1.561 1_455 S
C1452 C1455 1.563 1_455 S
C1453 H1437 0.959 . S
C1453 H1438 0.959 . S
C1453 H1439 0.961 . S
C1453 C1452 1.502 . S
C1454 H1440 0.960 . S
C1454 H1441 0.961 . S
C1454 H1442 0.959 . S
C1454 C1452 1.561 1_655 S
C1455 C1452 1.563 1_655 S
C1455 C1456 1.371 1_556 S
C1455 C1460 1.378 1_556 S
C1456 C1450 1.465 1_655 S
C1456 C1455 1.371 1_554 S
C1456 C1457 1.399 . S
C1457 H1443 0.929 . S
C1457 C1456 1.399 . S
C1457 C1458 1.385 . S
C1458 H1444 0.931 . S
C1458 C1457 1.385 . S
C1458 C1459 1.389 . S
C1459 C1458 1.389 . S
C1459 C1460 1.387 . S
C1460 H1445 0.930 1_554 S
C1460 C1455 1.378 1_554 S
C1460 C1459 1.387 . S
H1461 C1473 0.930 . S
H1462 C1475 0.930 . S
H1463 C1476 0.930 . S
H1464 C1480 0.959 . S
H1465 C1480 0.959 . S
H1466 C1480 0.961 . S
H1467 C1481 0.960 . S
H1468 C1481 0.961 . S
H1469 C1481 0.959 . S
H1470 C1484 0.929 . S
H1471 C1485 0.931 . S
H1472 C1487 0.930 . S
C1473 H1461 0.930 . S
C1473 C1474 1.399 . S
C1473 C1478 1.399 . S
C1474 C1473 1.399 . S
C1474 C1475 1.376 . S
C1475 H1462 0.930 . S
C1475 C1474 1.376 . S
C1475 C1476 1.388 . S
C1476 H1463 0.930 . S
C1476 C1475 1.388 . S
C1476 C1477 1.390 . S
C1477 C1476 1.390 . S
C1477 C1478 1.394 . S
C1477 C1483 1.465 . S
C1478 C1473 1.399 . S
C1478 C1477 1.394 . S
C1478 C1479 1.516 . S
C1479 C1478 1.516 . S
C1479 C1480 1.502 . S
C1479 C1481 1.561 . S
C1479 C1482 1.526 . S
C1480 H1464 0.959 . S
C1480 H1465 0.959 . S
C1480 H1466 0.961 . S
C1480 C1479 1.502 . S
C1481 H1467 0.960 . S
C1481 H1468 0.961 . S
C1481 H1469 0.959 . S
C1481 C1479 1.561 . S
C1482 C1479 1.526 . S
C1482 C1483 1.396 . S
C1482 C1487 1.390 . S
C1483 C1477 1.465 . S
C1483 C1482 1.396 . S
C1483 C1484 1.399 . S
C1484 H1470 0.929 . S
C1484 C1483 1.399 . S
C1484 C1485 1.385 . S
C1485 H1471 0.931 . S
C1485 C1484 1.385 . S
C1485 C1486 1.389 . S
C1486 C1485 1.389 . S
C1486 C1487 1.387 . S
C1487 H1472 0.930 . S
C1487 C1482 1.390 . S
C1487 C1486 1.387 . S
H1488 C1500 0.930 . S
H1489 C1502 0.930 . S
H1490 C1503 0.930 . S
H1491 C1507 0.959 . S
H1492 C1507 0.959 . S
H1493 C1507 0.961 . S
H1494 C1508 0.960 . S
H1495 C1508 0.961 . S
H1496 C1508 0.959 . S
H1497 C1511 0.929 . S
H1498 C1512 0.931 . S
H1499 C1514 0.930 . S
C1500 H1488 0.930 . S
C1500 C1501 1.399 . S
C1500 C1505 1.399 . S
C1501 C1500 1.399 . S
C1501 C1502 1.376 . S
C1502 H1489 0.930 . S
C1502 C1501 1.376 . S
C1502 C1503 1.388 . S
C1503 H1490 0.930 . S
C1503 C1502 1.388 . S
C1503 C1504 1.390 . S
C1504 C1503 1.390 . S
C1504 C1505 1.394 . S
C1504 C1510 1.465 . S
C1505 C1500 1.399 . S
C1505 C1504 1.394 . S
C1505 C1506 1.516 . S
C1506 C1505 1.516 . S
C1506 C1507 1.502 . S
C1506 C1508 1.561 . S
C1506 C1509 1.526 . S
C1507 H1491 0.959 . S
C1507 H1492 0.959 . S
C1507 H1493 0.961 . S
C1507 C1506 1.502 . S
C1508 H1494 0.960 . S
C1508 H1495 0.961 . S
C1508 H1496 0.959 . S
C1508 C1506 1.561 . S
C1509 C1506 1.526 . S
C1509 C1510 1.396 . S
C1509 C1514 1.390 . S
C1510 C1504 1.465 . S
C1510 C1509 1.396 . S
C1510 C1511 1.399 . S
C1511 H1497 0.929 . S
C1511 C1510 1.399 . S
C1511 C1512 1.385 . S
C1512 H1498 0.931 . S
C1512 C1511 1.385 . S
C1512 C1513 1.389 . S
C1513 C1512 1.389 . S
C1513 C1514 1.387 . S
C1514 H1499 0.930 . S
C1514 C1509 1.390 . S
C1514 C1513 1.387 . S
H1515 C1527 0.930 . S
H1516 C1529 0.930 . S
H1517 C1530 0.930 . S
H1518 C1534 0.959 . S
H1519 C1534 0.959 . S
H1520 C1534 0.961 . S
H1521 C1535 0.960 . S
H1522 C1535 0.961 . S
H1523 C1535 0.959 . S
H1524 C1538 0.956 . S
H1525 C1539 0.931 . S
H1526 C1541 0.930 . S
C1527 H1515 0.930 . S
C1527 C1528 1.399 . S
C1527 C1532 1.399 1_655 S
C1528 C1527 1.399 . S
C1528 C1529 1.376 . S
C1529 H1516 0.930 . S
C1529 C1528 1.376 . S
C1529 C1530 1.388 . S
C1530 H1517 0.930 . S
C1530 C1529 1.388 . S
C1530 C1531 1.390 . S
C1531 C1530 1.390 . S
C1531 C1532 1.394 1_655 S
C1531 C1537 1.465 1_655 S
C1532 C1527 1.399 1_455 S
C1532 C1531 1.394 1_455 S
C1532 C1533 1.516 . S
C1533 C1532 1.516 . S
C1533 C1534 1.502 . S
C1533 C1535 1.561 . S
C1533 C1536 1.526 . S
C1534 H1518 0.959 . S
C1534 H1519 0.959 . S
C1534 H1520 0.961 . S
C1534 C1533 1.502 . S
C1535 H1521 0.960 . S
C1535 H1522 0.961 . S
C1535 H1523 0.959 . S
C1535 C1533 1.561 . S
C1536 C1533 1.526 . S
C1536 C1537 1.396 . S
C1536 C1541 1.390 . S
C1537 C1531 1.465 1_455 S
C1537 C1536 1.396 . S
C1537 C1538 1.399 . S
C1538 H1524 0.956 . S
C1538 C1537 1.399 . S
C1538 C1539 1.385 . S
C1539 H1525 0.931 . S
C1539 C1538 1.385 . S
C1539 C1540 1.389 . S
C1540 C1539 1.389 . S
C1540 C1541 1.387 . S
C1541 H1526 0.930 . S
C1541 C1536 1.390 . S
C1541 C1540 1.387 . S
H1542 C1554 0.930 . S
H1543 C1556 0.930 . S
H1544 C1557 0.930 . S
H1545 C1561 0.959 . S
H1546 C1561 0.959 . S
H1547 C1561 0.961 . S
H1548 C1562 0.960 . S
H1549 C1562 0.961 . S
H1550 C1562 0.959 . S
H1551 C1565 0.929 . S
H1552 C1566 0.931 . S
H1553 C1568 0.930 . S
C1554 H1542 0.930 . S
C1554 C1555 1.399 . S
C1554 C1559 1.399 . S
C1555 C1554 1.399 . S
C1555 C1556 1.376 . S
C1556 H1543 0.930 . S
C1556 C1555 1.376 . S
C1556 C1557 1.388 . S
C1557 H1544 0.930 . S
C1557 C1556 1.388 . S
C1557 C1558 1.390 . S
C1558 C1557 1.390 . S
C1558 C1559 1.394 . S
C1558 C1564 1.465 . S
C1559 C1554 1.399 . S
C1559 C1558 1.394 . S
C1559 C1560 1.516 . S
C1560 C1559 1.516 . S
C1560 C1561 1.502 . S
C1560 C1562 1.561 . S
C1560 C1563 1.526 . S
C1561 H1545 0.959 . S
C1561 H1546 0.959 . S
C1561 H1547 0.961 . S
C1561 C1560 1.502 . S
C1562 H1548 0.960 . S
C1562 H1549 0.961 . S
C1562 H1550 0.959 . S
C1562 C1560 1.561 . S
C1563 C1560 1.526 . S
C1563 C1564 1.396 . S
C1563 C1568 1.390 . S
C1564 C1558 1.465 . S
C1564 C1563 1.396 . S
C1564 C1565 1.399 . S
C1565 H1551 0.929 . S
C1565 C1564 1.399 . S
C1565 C1566 1.385 . S
C1566 H1552 0.931 . S
C1566 C1565 1.385 . S
C1566 C1567 1.389 . S
C1567 C1566 1.389 . S
C1567 C1568 1.387 . S
C1568 H1553 0.930 . S
C1568 C1563 1.390 . S
C1568 C1567 1.387 . S
H1569 C1581 0.930 . S
H1570 C1583 0.930 . S
H1571 C1584 0.930 . S
H1572 C1588 0.959 . S
H1573 C1588 0.959 . S
H1574 C1588 0.961 . S
H1575 C1589 0.960 . S
H1576 C1589 0.961 . S
H1577 C1589 0.959 . S
H1578 C1592 0.929 . S
H1579 C1593 0.931 . S
H1580 C1595 0.930 . S
C1581 H1569 0.930 . S
C1581 C1582 1.399 . S
C1581 C1586 1.399 . S
C1582 C1581 1.399 . S
C1582 C1583 1.376 . S
C1583 H1570 0.930 . S
C1583 C1582 1.376 . S
C1583 C1584 1.388 . S
C1584 H1571 0.930 . S
C1584 C1583 1.388 . S
C1584 C1585 1.390 . S
C1585 C1584 1.390 . S
C1585 C1586 1.394 . S
C1585 C1591 1.465 . S
C1586 C1581 1.399 . S
C1586 C1585 1.394 . S
C1586 C1587 1.516 . S
C1587 C1586 1.516 . S
C1587 C1588 1.502 . S
C1587 C1589 1.561 . S
C1587 C1590 1.526 . S
C1588 H1572 0.959 . S
C1588 H1573 0.959 . S
C1588 H1574 0.961 . S
C1588 C1587 1.502 . S
C1589 H1575 0.960 . S
C1589 H1576 0.961 . S
C1589 H1577 0.959 . S
C1589 C1587 1.561 . S
C1590 C1587 1.526 . S
C1590 C1591 1.396 . S
C1590 C1595 1.390 . S
C1591 C1585 1.465 . S
C1591 C1590 1.396 . S
C1591 C1592 1.399 . S
C1592 H1578 0.929 . S
C1592 C1591 1.399 . S
C1592 C1593 1.385 . S
C1593 H1579 0.931 . S
C1593 C1592 1.385 . S
C1593 C1594 1.389 . S
C1594 C1593 1.389 . S
C1594 C1595 1.387 . S
C1595 H1580 0.930 . S
C1595 C1590 1.390 . S
C1595 C1594 1.387 . S
H1596 C1608 0.930 . S
H1597 C1610 0.930 . S
H1598 C1611 0.930 . S
H1599 C1615 0.959 . S
H1600 C1615 0.959 . S
H1601 C1615 0.961 . S
H1602 C1616 0.960 . S
H1603 C1616 0.961 . S
H1604 C1616 0.959 . S
H1605 C1619 0.929 . S
H1606 C1620 0.931 . S
H1607 C1622 0.930 . S
C1608 H1596 0.930 . S
C1608 C1609 1.399 . S
C1608 C1613 1.399 . S
C1609 C1608 1.399 . S
C1609 C1610 1.376 . S
C1610 H1597 0.930 . S
C1610 C1609 1.376 . S
C1610 C1611 1.388 . S
C1611 H1598 0.930 . S
C1611 C1610 1.388 . S
C1611 C1612 1.390 . S
C1612 C1611 1.390 . S
C1612 C1613 1.394 . S
C1612 C1618 1.465 . S
C1613 C1608 1.399 . S
C1613 C1612 1.394 . S
C1613 C1614 1.516 . S
C1614 C1613 1.516 . S
C1614 C1615 1.502 . S
C1614 C1616 1.561 . S
C1614 C1617 1.526 . S
C1615 H1599 0.959 . S
C1615 H1600 0.959 . S
C1615 H1601 0.961 . S
C1615 C1614 1.502 . S
C1616 H1602 0.960 . S
C1616 H1603 0.961 . S
C1616 H1604 0.959 . S
C1616 C1614 1.561 . S
C1617 C1614 1.526 . S
C1617 C1618 1.396 . S
C1617 C1622 1.390 . S
C1618 C1612 1.465 . S
C1618 C1617 1.396 . S
C1618 C1619 1.399 . S
C1619 H1605 0.929 . S
C1619 C1618 1.399 . S
C1619 C1620 1.385 . S
C1620 H1606 0.931 . S
C1620 C1619 1.385 . S
C1620 C1621 1.389 . S
C1621 C1620 1.389 . S
C1621 C1622 1.387 . S
C1622 H1607 0.930 . S
C1622 C1617 1.390 . S
C1622 C1621 1.387 . S
H1623 C1635 0.930 . S
H1624 C1637 0.930 . S
H1625 C1638 0.930 . S
H1626 C1642 0.959 . S
H1627 C1642 0.959 . S
H1628 C1642 0.961 . S
H1629 C1643 0.960 . S
H1630 C1643 0.961 . S
H1631 C1643 0.959 . S
H1632 C1646 0.929 . S
H1633 C1647 0.931 . S
H1634 C1649 0.930 . S
C1635 H1623 0.930 . S
C1635 C1636 1.399 . S
C1635 C1640 1.399 . S
C1636 C1635 1.399 . S
C1636 C1637 1.376 . S
C1637 H1624 0.930 . S
C1637 C1636 1.376 . S
C1637 C1638 1.388 . S
C1638 H1625 0.930 . S
C1638 C1637 1.388 . S
C1638 C1639 1.390 . S
C1639 C1638 1.390 . S
C1639 C1640 1.394 . S
C1639 C1645 1.465 . S
C1640 C1635 1.399 . S
C1640 C1639 1.394 . S
C1640 C1641 1.516 . S
C1641 C1640 1.516 . S
C1641 C1642 1.502 . S
C1641 C1643 1.561 . S
C1641 C1644 1.526 . S
C1642 H1626 0.959 . S
C1642 H1627 0.959 . S
C1642 H1628 0.961 . S
C1642 C1641 1.502 . S
C1643 H1629 0.960 . S
C1643 H1630 0.961 . S
C1643 H1631 0.959 . S
C1643 C1641 1.561 . S
C1644 C1641 1.526 . S
C1644 C1645 1.396 . S
C1644 C1649 1.390 . S
C1645 C1639 1.465 . S
C1645 C1644 1.396 . S
C1645 C1646 1.399 . S
C1646 H1632 0.929 . S
C1646 C1645 1.399 . S
C1646 C1647 1.385 . S
C1647 H1633 0.931 . S
C1647 C1646 1.385 . S
C1647 C1648 1.389 . S
C1648 C1647 1.389 . S
C1648 C1649 1.387 . S
C1649 H1634 0.930 . S
C1649 C1644 1.390 . S
C1649 C1648 1.387 . S
H1650 C1662 0.930 . S
H1651 C1664 0.930 . S
H1652 C1665 0.930 . S
H1653 C1669 0.959 . S
H1654 C1669 0.959 . S
H1655 C1669 0.961 . S
H1656 C1670 0.960 . S
H1657 C1670 0.961 . S
H1658 C1670 0.959 . S
H1659 C1673 0.929 . S
H1660 C1674 0.931 . S
H1661 C1676 0.930 . S
C1662 H1650 0.930 . S
C1662 C1663 1.399 . S
C1662 C1667 1.399 . S
C1663 C1662 1.399 . S
C1663 C1664 1.376 . S
C1664 H1651 0.930 . S
C1664 C1663 1.376 . S
C1664 C1665 1.388 . S
C1665 H1652 0.930 . S
C1665 C1664 1.388 . S
C1665 C1666 1.390 . S
C1666 C1665 1.390 . S
C1666 C1667 1.394 . S
C1666 C1672 1.465 . S
C1667 C1662 1.399 . S
C1667 C1666 1.394 . S
C1667 C1668 1.516 . S
C1668 C1667 1.516 . S
C1668 C1669 1.502 . S
C1668 C1670 1.561 . S
C1668 C1671 1.526 . S
C1669 H1653 0.959 . S
C1669 H1654 0.959 . S
C1669 H1655 0.961 . S
C1669 C1668 1.502 . S
C1670 H1656 0.960 . S
C1670 H1657 0.961 . S
C1670 H1658 0.959 . S
C1670 C1668 1.561 . S
C1671 C1668 1.526 . S
C1671 C1672 1.396 . S
C1671 C1676 1.390 . S
C1672 C1666 1.465 . S
C1672 C1671 1.396 . S
C1672 C1673 1.399 . S
C1673 H1659 0.929 . S
C1673 C1672 1.399 . S
C1673 C1674 1.385 . S
C1674 H1660 0.931 . S
C1674 C1673 1.385 . S
C1674 C1675 1.389 . S
C1675 C1674 1.389 . S
C1675 C1676 1.387 . S
C1676 H1661 0.930 . S
C1676 C1671 1.390 . S
C1676 C1675 1.387 . S
H1677 C1689 0.930 . S
H1678 C1691 0.930 . S
H1679 C1692 0.930 . S
H1680 C1696 0.959 . S
H1681 C1696 0.959 . S
H1682 C1696 0.961 . S
H1683 C1697 0.960 . S
H1684 C1697 0.961 . S
H1685 C1697 0.959 . S
H1686 C1700 0.929 . S
H1687 C1701 0.931 . S
H1688 C1703 0.930 . S
C1689 H1677 0.930 . S
C1689 C1690 1.399 . S
C1689 C1694 1.399 . S
C1690 C1689 1.399 . S
C1690 C1691 1.376 . S
C1691 H1678 0.930 . S
C1691 C1690 1.376 . S
C1691 C1692 1.388 1_655 S
C1692 H1679 0.930 . S
C1692 C1691 1.388 1_455 S
C1692 C1693 1.390 . S
C1693 C1692 1.390 . S
C1693 C1694 1.394 1_455 S
C1693 C1699 1.465 . S
C1694 C1689 1.399 . S
C1694 C1693 1.394 1_655 S
C1694 C1695 1.516 1_655 S
C1695 C1694 1.516 1_455 S
C1695 C1696 1.502 1_455 S
C1695 C1697 1.561 . S
C1695 C1698 1.526 . S
C1696 H1680 0.959 . S
C1696 H1681 0.959 . S
C1696 H1682 0.961 . S
C1696 C1695 1.502 1_655 S
C1697 H1683 0.960 . S
C1697 H1684 0.961 . S
C1697 H1685 0.959 . S
C1697 C1695 1.561 . S
C1698 C1695 1.526 . S
C1698 C1699 1.396 . S
C1698 C1703 1.390 . S
C1699 C1693 1.465 . S
C1699 C1698 1.396 . S
C1699 C1700 1.399 . S
C1700 H1686 0.929 . S
C1700 C1699 1.399 . S
C1700 C1701 1.385 . S
C1701 H1687 0.931 . S
C1701 C1700 1.385 . S
C1701 C1702 1.389 . S
C1702 C1701 1.389 . S
C1702 C1703 1.387 . S
C1703 H1688 0.930 . S
C1703 C1698 1.390 . S
C1703 C1702 1.387 . S
H1704 C1716 0.930 . S
H1705 C1718 0.930 . S
H1706 C1719 0.930 . S
H1707 C1723 0.959 . S
H1708 C1723 0.959 . S
H1709 C1723 0.961 . S
H1710 C1724 0.960 . S
H1711 C1724 0.961 . S
H1712 C1724 0.959 . S
H1713 C1727 0.929 . S
H1714 C1728 0.931 . S
H1715 C1730 0.930 . S
C1716 H1704 0.930 . S
C1716 C1717 1.399 . S
C1716 C1721 1.399 . S
C1717 C1716 1.399 . S
C1717 C1718 1.376 . S
C1718 H1705 0.930 . S
C1718 C1717 1.376 . S
C1718 C1719 1.388 . S
C1719 H1706 0.930 . S
C1719 C1718 1.388 . S
C1719 C1720 1.390 . S
C1720 C1719 1.390 . S
C1720 C1721 1.394 . S
C1720 C1726 1.465 . S
C1721 C1716 1.399 . S
C1721 C1720 1.394 . S
C1721 C1722 1.516 . S
C1722 C1721 1.516 . S
C1722 C1723 1.502 . S
C1722 C1724 1.561 . S
C1722 C1725 1.526 . S
C1723 H1707 0.959 . S
C1723 H1708 0.959 . S
C1723 H1709 0.961 . S
C1723 C1722 1.502 . S
C1724 H1710 0.960 . S
C1724 H1711 0.961 . S
C1724 H1712 0.959 . S
C1724 C1722 1.561 . S
C1725 C1722 1.526 . S
C1725 C1726 1.396 . S
C1725 C1730 1.390 . S
C1726 C1720 1.465 . S
C1726 C1725 1.396 . S
C1726 C1727 1.399 . S
C1727 H1713 0.929 . S
C1727 C1726 1.399 . S
C1727 C1728 1.385 . S
C1728 H1714 0.931 . S
C1728 C1727 1.385 . S
C1728 C1729 1.389 . S
C1729 C1728 1.389 . S
C1729 C1730 1.387 . S
C1730 H1715 0.930 . S
C1730 C1725 1.390 . S
C1730 C1729 1.387 . S
H1731 C1743 0.930 . S
H1732 C1745 0.930 . S
H1733 C1746 0.930 1_655 S
H1734 C1750 0.959 . S
H1735 C1750 0.959 . S
H1736 C1750 0.961 . S
H1737 C1751 0.960 . S
H1738 C1751 0.961 . S
H1739 C1751 0.959 . S
H1740 C1754 0.929 . S
H1741 C1755 0.931 . S
H1742 C1757 0.930 . S
C1743 H1731 0.930 . S
C1743 C1744 1.399 . S
C1743 C1748 1.399 . S
C1744 C1743 1.399 . S
C1744 C1745 1.376 . S
C1745 H1732 0.930 . S
C1745 C1744 1.376 . S
C1745 C1746 1.388 . S
C1746 H1733 0.930 1_455 S
C1746 C1745 1.388 . S
C1746 C1747 1.390 1_455 S
C1747 C1746 1.390 1_655 S
C1747 C1748 1.394 1_655 S
C1747 C1753 1.465 . S
C1748 C1743 1.399 . S
C1748 C1747 1.394 1_455 S
C1748 C1749 1.516 1_455 S
C1749 C1748 1.516 1_655 S
C1749 C1750 1.502 . S
C1749 C1751 1.561 1_655 S
C1749 C1752 1.526 . S
C1750 H1734 0.959 . S
C1750 H1735 0.959 . S
C1750 H1736 0.961 . S
C1750 C1749 1.502 . S
C1751 H1737 0.960 . S
C1751 H1738 0.961 . S
C1751 H1739 0.959 . S
C1751 C1749 1.561 1_455 S
C1752 C1749 1.526 . S
C1752 C1753 1.396 . S
C1752 C1757 1.390 . S
C1753 C1747 1.465 . S
C1753 C1752 1.396 . S
C1753 C1754 1.399 . S
C1754 H1740 0.929 . S
C1754 C1753 1.399 . S
C1754 C1755 1.385 . S
C1755 H1741 0.931 . S
C1755 C1754 1.385 . S
C1755 C1756 1.389 . S
C1756 C1755 1.389 . S
C1756 C1757 1.387 . S
C1757 H1742 0.930 . S
C1757 C1752 1.390 . S
C1757 C1756 1.387 . S
H1758 C1770 0.930 . S
H1759 C1772 0.930 . S
H1760 C1773 0.930 . S
H1761 C1777 0.959 . S
H1762 C1777 0.959 . S
H1763 C1777 0.961 . S
H1764 C1778 0.960 . S
H1765 C1778 0.961 . S
H1766 C1778 0.959 . S
H1767 C1781 0.929 . S
H1768 C1782 0.931 . S
H1769 C1784 0.930 . S
C1770 H1758 0.930 . S
C1770 C1771 1.399 . S
C1770 C1775 1.399 . S
C1771 C1770 1.399 . S
C1771 C1772 1.376 . S
C1772 H1759 0.930 . S
C1772 C1771 1.376 . S
C1772 C1773 1.388 . S
C1773 H1760 0.930 . S
C1773 C1772 1.388 . S
C1773 C1774 1.390 . S
C1774 C1773 1.390 . S
C1774 C1775 1.394 . S
C1774 C1780 1.465 . S
C1775 C1770 1.399 . S
C1775 C1774 1.394 . S
C1775 C1776 1.516 . S
C1776 C1775 1.516 . S
C1776 C1777 1.502 . S
C1776 C1778 1.561 . S
C1776 C1779 1.526 . S
C1777 H1761 0.959 . S
C1777 H1762 0.959 . S
C1777 H1763 0.961 . S
C1777 C1776 1.502 . S
C1778 H1764 0.960 . S
C1778 H1765 0.961 . S
C1778 H1766 0.959 . S
C1778 C1776 1.561 . S
C1779 C1776 1.526 . S
C1779 C1780 1.396 . S
C1779 C1784 1.390 . S
C1780 C1774 1.465 . S
C1780 C1779 1.396 . S
C1780 C1781 1.399 . S
C1781 H1767 0.929 . S
C1781 C1780 1.399 . S
C1781 C1782 1.385 . S
C1782 H1768 0.931 . S
C1782 C1781 1.385 . S
C1782 C1783 1.389 . S
C1783 C1782 1.389 . S
C1783 C1784 1.387 . S
C1784 H1769 0.930 . S
C1784 C1779 1.390 . S
C1784 C1783 1.387 . S
H1785 C1797 0.930 . S
H1786 C1799 0.930 . S
H1787 C1800 0.930 . S
H1788 C1804 0.959 . S
H1789 C1804 0.959 . S
H1790 C1804 0.961 . S
H1791 C1805 0.960 . S
H1792 C1805 0.961 . S
H1793 C1805 0.959 . S
H1794 C1808 0.929 . S
H1795 C1809 0.931 . S
H1796 C1811 0.930 . S
C1797 H1785 0.930 . S
C1797 C1798 1.399 . S
C1797 C1802 1.399 . S
C1798 C1797 1.399 . S
C1798 C1799 1.376 . S
C1799 H1786 0.930 . S
C1799 C1798 1.376 . S
C1799 C1800 1.388 . S
C1800 H1787 0.930 . S
C1800 C1799 1.388 . S
C1800 C1801 1.390 . S
C1801 C1800 1.390 . S
C1801 C1802 1.394 . S
C1801 C1807 1.465 . S
C1802 C1797 1.399 . S
C1802 C1801 1.394 . S
C1802 C1803 1.516 . S
C1803 C1802 1.516 . S
C1803 C1804 1.502 . S
C1803 C1805 1.561 . S
C1803 C1806 1.526 . S
C1804 H1788 0.959 . S
C1804 H1789 0.959 . S
C1804 H1790 0.961 . S
C1804 C1803 1.502 . S
C1805 H1791 0.960 . S
C1805 H1792 0.961 . S
C1805 H1793 0.959 . S
C1805 C1803 1.561 . S
C1806 C1803 1.526 . S
C1806 C1807 1.396 . S
C1806 C1811 1.390 . S
C1807 C1801 1.465 . S
C1807 C1806 1.396 . S
C1807 C1808 1.399 . S
C1808 H1794 0.929 . S
C1808 C1807 1.399 . S
C1808 C1809 1.385 . S
C1809 H1795 0.931 . S
C1809 C1808 1.385 . S
C1809 C1810 1.389 . S
C1810 C1809 1.389 . S
C1810 C1811 1.387 . S
C1811 H1796 0.930 . S
C1811 C1806 1.390 . S
C1811 C1810 1.387 . S
H1812 C1824 0.930 . S
H1813 C1826 0.930 . S
H1814 C1827 0.930 . S
H1815 C1831 0.959 . S
H1816 C1831 0.959 . S
H1817 C1831 0.961 . S
H1818 C1832 0.960 . S
H1819 C1832 0.961 . S
H1820 C1832 0.959 . S
H1821 C1835 0.929 . S
H1822 C1836 0.931 . S
H1823 C1838 0.930 . S
C1824 H1812 0.930 . S
C1824 C1825 1.399 . S
C1824 C1829 1.399 . S
C1825 C1824 1.399 . S
C1825 C1826 1.376 . S
C1826 H1813 0.930 . S
C1826 C1825 1.376 . S
C1826 C1827 1.388 . S
C1827 H1814 0.930 . S
C1827 C1826 1.388 . S
C1827 C1828 1.390 . S
C1828 C1827 1.390 . S
C1828 C1829 1.394 . S
C1828 C1834 1.465 . S
C1829 C1824 1.399 . S
C1829 C1828 1.394 . S
C1829 C1830 1.516 . S
C1830 C1829 1.516 . S
C1830 C1831 1.502 . S
C1830 C1832 1.561 . S
C1830 C1833 1.526 . S
C1831 H1815 0.959 . S
C1831 H1816 0.959 . S
C1831 H1817 0.961 . S
C1831 C1830 1.502 . S
C1832 H1818 0.960 . S
C1832 H1819 0.961 . S
C1832 H1820 0.959 . S
C1832 C1830 1.561 . S
C1833 C1830 1.526 . S
C1833 C1834 1.396 . S
C1833 C1838 1.390 . S
C1834 C1828 1.465 . S
C1834 C1833 1.396 . S
C1834 C1835 1.399 . S
C1835 H1821 0.929 . S
C1835 C1834 1.399 . S
C1835 C1836 1.385 . S
C1836 H1822 0.931 . S
C1836 C1835 1.385 . S
C1836 C1837 1.389 . S
C1837 C1836 1.389 . S
C1837 C1838 1.387 . S
C1838 H1823 0.930 . S
C1838 C1833 1.390 . S
C1838 C1837 1.387 . S
H1839 C1851 0.930 . S
H1840 C1853 0.930 . S
H1841 C1854 0.930 . S
H1842 C1858 0.959 . S
H1843 C1858 0.959 . S
H1844 C1858 0.961 . S
H1845 C1859 0.960 . S
H1846 C1859 0.961 . S
H1847 C1859 0.959 . S
H1848 C1862 0.929 . S
H1849 C1863 0.931 . S
H1850 C1865 0.930 . S
C1851 H1839 0.930 . S
C1851 C1852 1.399 . S
C1851 C1856 1.399 . S
C1852 C1851 1.399 . S
C1852 C1853 1.376 . S
C1853 H1840 0.930 . S
C1853 C1852 1.376 . S
C1853 C1854 1.388 . S
C1854 H1841 0.930 . S
C1854 C1853 1.388 . S
C1854 C1855 1.390 . S
C1855 C1854 1.390 . S
C1855 C1856 1.394 . S
C1855 C1861 1.465 . S
C1856 C1851 1.399 . S
C1856 C1855 1.394 . S
C1856 C1857 1.516 . S
C1857 C1856 1.516 . S
C1857 C1858 1.502 . S
C1857 C1859 1.561 . S
C1857 C1860 1.526 . S
C1858 H1842 0.959 . S
C1858 H1843 0.959 . S
C1858 H1844 0.961 . S
C1858 C1857 1.502 . S
C1859 H1845 0.960 . S
C1859 H1846 0.961 . S
C1859 H1847 0.959 . S
C1859 C1857 1.561 . S
C1860 C1857 1.526 . S
C1860 C1861 1.396 . S
C1860 C1865 1.390 . S
C1861 C1855 1.465 . S
C1861 C1860 1.396 . S
C1861 C1862 1.399 . S
C1862 H1848 0.929 . S
C1862 C1861 1.399 . S
C1862 C1863 1.385 . S
C1863 H1849 0.931 . S
C1863 C1862 1.385 . S
C1863 C1864 1.389 . S
C1864 C1863 1.389 . S
C1864 C1865 1.387 . S
C1865 H1850 0.930 . S
C1865 C1860 1.390 . S
C1865 C1864 1.387 . S
H1866 C1878 0.930 . S
H1867 C1880 0.930 . S
H1868 C1881 0.930 . S
H1869 C1885 0.959 . S
H1870 C1885 0.959 . S
H1871 C1885 0.961 . S
H1872 C1886 0.960 . S
H1873 C1886 0.961 . S
H1874 C1886 0.959 . S
H1875 C1889 0.929 . S
H1876 C1890 0.931 . S
H1877 C1892 0.930 . S
C1878 H1866 0.930 . S
C1878 C1879 1.399 . S
C1878 C1883 1.399 . S
C1879 C1878 1.399 . S
C1879 C1880 1.376 . S
C1880 H1867 0.930 . S
C1880 C1879 1.376 . S
C1880 C1881 1.388 . S
C1881 H1868 0.930 . S
C1881 C1880 1.388 . S
C1881 C1882 1.390 . S
C1882 C1881 1.390 . S
C1882 C1883 1.394 . S
C1882 C1888 1.465 . S
C1883 C1878 1.399 . S
C1883 C1882 1.394 . S
C1883 C1884 1.516 . S
C1884 C1883 1.516 . S
C1884 C1885 1.502 . S
C1884 C1886 1.561 . S
C1884 C1887 1.526 . S
C1885 H1869 0.959 . S
C1885 H1870 0.959 . S
C1885 H1871 0.961 . S
C1885 C1884 1.502 . S
C1886 H1872 0.960 . S
C1886 H1873 0.961 . S
C1886 H1874 0.959 . S
C1886 C1884 1.561 . S
C1887 C1884 1.526 . S
C1887 C1888 1.396 . S
C1887 C1892 1.390 . S
C1888 C1882 1.465 . S
C1888 C1887 1.396 . S
C1888 C1889 1.399 . S
C1889 H1875 0.929 . S
C1889 C1888 1.399 . S
C1889 C1890 1.385 . S
C1890 H1876 0.931 . S
C1890 C1889 1.385 . S
C1890 C1891 1.389 . S
C1891 C1890 1.389 . S
C1891 C1892 1.387 . S
C1892 H1877 0.930 . S
C1892 C1887 1.390 . S
C1892 C1891 1.387 . S
H1893 C1905 0.930 . S
H1894 C1907 0.930 . S
H1895 C1908 0.930 . S
H1896 C1912 0.959 . S
H1897 C1912 0.959 . S
H1898 C1912 0.961 1_655 S
H1899 C1913 0.960 . S
H1900 C1913 0.961 . S
H1901 C1913 0.959 . S
H1902 C1916 0.912 1_655 S
H1903 C1917 0.931 . S
H1904 C1919 0.930 . S
C1905 H1893 0.930 . S
C1905 C1906 1.399 . S
C1905 C1910 1.399 . S
C1906 C1905 1.399 . S
C1906 C1907 1.376 . S
C1907 H1894 0.930 . S
C1907 C1906 1.376 . S
C1907 C1908 1.388 . S
C1908 H1895 0.930 . S
C1908 C1907 1.388 . S
C1908 C1909 1.390 . S
C1909 C1908 1.390 . S
C1909 C1910 1.394 . S
C1909 C1915 1.465 . S
C1910 C1905 1.399 . S
C1910 C1909 1.394 . S
C1910 C1911 1.516 . S
C1911 C1910 1.516 . S
C1911 C1912 1.502 1_655 S
C1911 C1913 1.561 . S
C1911 C1914 1.526 1_655 S
C1912 H1896 0.959 . S
C1912 H1897 0.959 . S
C1912 H1898 0.961 1_455 S
C1912 C1911 1.502 1_455 S
C1913 H1899 0.960 . S
C1913 H1900 0.961 . S
C1913 H1901 0.959 . S
C1913 C1911 1.561 . S
C1914 C1911 1.526 1_455 S
C1914 C1915 1.396 1_455 S
C1914 C1919 1.390 . S
C1915 C1909 1.465 . S
C1915 C1914 1.396 1_655 S
C1915 C1916 1.386 1_655 S
C1916 H1902 0.912 1_455 S
C1916 C1915 1.386 1_455 S
C1916 C1917 1.417 . S
C1917 H1903 0.931 . S
C1917 C1916 1.417 . S
C1917 C1918 1.389 . S
C1918 C1917 1.389 . S
C1918 C1919 1.387 . S
C1919 H1904 0.930 . S
C1919 C1914 1.390 . S
C1919 C1918 1.387 . S
H1920 C1932 0.930 . S
H1921 C1934 0.930 . S
H1922 C1935 0.930 . S
H1923 C1939 0.959 . S
H1924 C1939 0.959 . S
H1925 C1939 0.961 . S
H1926 C1940 0.960 . S
H1927 C1940 0.961 . S
H1928 C1940 0.959 . S
H1929 C1943 0.929 . S
H1930 C1944 0.931 . S
H1931 C1946 0.930 . S
C1932 H1920 0.930 . S
C1932 C1933 1.399 . S
C1932 C1937 1.399 . S
C1933 C1932 1.399 . S
C1933 C1934 1.376 . S
C1934 H1921 0.930 . S
C1934 C1933 1.376 . S
C1934 C1935 1.388 . S
C1935 H1922 0.930 . S
C1935 C1934 1.388 . S
C1935 C1936 1.390 . S
C1936 C1935 1.390 . S
C1936 C1937 1.394 . S
C1936 C1942 1.465 . S
C1937 C1932 1.399 . S
C1937 C1936 1.394 . S
C1937 C1938 1.516 . S
C1938 C1937 1.516 . S
C1938 C1939 1.502 . S
C1938 C1940 1.561 . S
C1938 C1941 1.526 . S
C1939 H1923 0.959 . S
C1939 H1924 0.959 . S
C1939 H1925 0.961 . S
C1939 C1938 1.502 . S
C1940 H1926 0.960 . S
C1940 H1927 0.961 . S
C1940 H1928 0.959 . S
C1940 C1938 1.561 . S
C1941 C1938 1.526 . S
C1941 C1942 1.396 . S
C1941 C1946 1.390 . S
C1942 C1936 1.465 . S
C1942 C1941 1.396 . S
C1942 C1943 1.399 . S
C1943 H1929 0.929 . S
C1943 C1942 1.399 . S
C1943 C1944 1.385 . S
C1944 H1930 0.931 . S
C1944 C1943 1.385 . S
C1944 C1945 1.389 . S
C1945 C1944 1.389 . S
C1945 C1946 1.387 . S
C1946 H1931 0.930 . S
C1946 C1941 1.390 . S
C1946 C1945 1.387 . S
H1947 C1959 0.930 . S
H1948 C1961 0.930 . S
H1949 C1962 0.930 . S
H1950 C1966 0.959 . S
H1951 C1966 0.959 . S
H1952 C1966 0.961 . S
H1953 C1967 0.960 . S
H1954 C1967 0.961 . S
H1955 C1967 0.959 . S
H1956 C1970 0.929 . S
H1957 C1971 0.931 . S
H1958 C1973 0.930 . S
C1959 H1947 0.930 . S
C1959 C1960 1.399 . S
C1959 C1964 1.399 . S
C1960 C1959 1.399 . S
C1960 C1961 1.376 . S
C1961 H1948 0.930 . S
C1961 C1960 1.376 . S
C1961 C1962 1.388 . S
C1962 H1949 0.930 . S
C1962 C1961 1.388 . S
C1962 C1963 1.390 . S
C1963 C1962 1.390 . S
C1963 C1964 1.394 . S
C1963 C1969 1.465 . S
C1964 C1959 1.399 . S
C1964 C1963 1.394 . S
C1964 C1965 1.516 . S
C1965 C1964 1.516 . S
C1965 C1966 1.502 . S
C1965 C1967 1.561 . S
C1965 C1968 1.526 . S
C1966 H1950 0.959 . S
C1966 H1951 0.959 . S
C1966 H1952 0.961 . S
C1966 C1965 1.502 . S
C1967 H1953 0.960 . S
C1967 H1954 0.961 . S
C1967 H1955 0.959 . S
C1967 C1965 1.561 . S
C1968 C1965 1.526 . S
C1968 C1969 1.396 . S
C1968 C1973 1.390 . S
C1969 C1963 1.465 . S
C1969 C1968 1.396 . S
C1969 C1970 1.399 . S
C1970 H1956 0.929 . S
C1970 C1969 1.399 . S
C1970 C1971 1.385 . S
C1971 H1957 0.931 . S
C1971 C1970 1.385 . S
C1971 C1972 1.389 . S
C1972 C1971 1.389 . S
C1972 C1973 1.387 . S
C1973 H1958 0.930 . S
C1973 C1968 1.390 . S
C1973 C1972 1.387 . S
H1974 C1986 0.930 . S
H1975 C1988 0.930 . S
H1976 C1989 0.930 . S
H1977 C1993 0.959 . S
H1978 C1993 0.959 . S
H1979 C1993 0.961 . S
H1980 C1994 0.960 . S
H1981 C1994 0.961 . S
H1982 C1994 0.959 . S
H1983 C1997 0.929 . S
H1984 C1998 0.931 . S
H1985 C2000 0.930 . S
C1986 H1974 0.930 . S
C1986 C1987 1.399 . S
C1986 C1991 1.399 . S
C1987 C1986 1.399 . S
C1987 C1988 1.376 . S
C1988 H1975 0.930 . S
C1988 C1987 1.376 . S
C1988 C1989 1.388 . S
C1989 H1976 0.930 . S
C1989 C1988 1.388 . S
C1989 C1990 1.390 . S
C1990 C1989 1.390 . S
C1990 C1991 1.394 . S
C1990 C1996 1.465 . S
C1991 C1986 1.399 . S
C1991 C1990 1.394 . S
C1991 C1992 1.516 . S
C1992 C1991 1.516 . S
C1992 C1993 1.502 . S
C1992 C1994 1.561 . S
C1992 C1995 1.526 . S
C1993 H1977 0.959 . S
C1993 H1978 0.959 . S
C1993 H1979 0.961 . S
C1993 C1992 1.502 . S
C1994 H1980 0.960 . S
C1994 H1981 0.961 . S
C1994 H1982 0.959 . S
C1994 C1992 1.561 . S
C1995 C1992 1.526 . S
C1995 C1996 1.396 . S
C1995 C2000 1.390 . S
C1996 C1990 1.465 . S
C1996 C1995 1.396 . S
C1996 C1997 1.399 . S
C1997 H1983 0.929 . S
C1997 C1996 1.399 . S
C1997 C1998 1.385 . S
C1998 H1984 0.931 . S
C1998 C1997 1.385 . S
C1998 C1999 1.389 . S
C1999 C1998 1.389 . S
C1999 C2000 1.387 . S
C2000 H1985 0.930 . S
C2000 C1995 1.390 . S
C2000 C1999 1.387 . S
H2001 C2013 0.930 . S
H2002 C2015 0.930 . S
H2003 C2016 0.930 . S
H2004 C2020 0.959 . S
H2005 C2020 0.959 . S
H2006 C2020 0.961 . S
H2007 C2021 0.960 1_655 S
H2008 C2021 0.961 . S
H2009 C2021 0.959 . S
H2010 C2024 0.929 . S
H2011 C2025 0.931 . S
H2012 C2027 0.930 . S
C2013 H2001 0.930 . S
C2013 C2014 1.399 . S
C2013 C2018 1.399 . S
C2014 C2013 1.399 . S
C2014 C2015 1.376 . S
C2015 H2002 0.930 . S
C2015 C2014 1.376 . S
C2015 C2016 1.388 . S
C2016 H2003 0.930 . S
C2016 C2015 1.388 . S
C2016 C2017 1.390 . S
C2017 C2016 1.390 . S
C2017 C2018 1.394 . S
C2017 C2023 1.465 . S
C2018 C2013 1.399 . S
C2018 C2017 1.394 . S
C2018 C2019 1.516 . S
C2019 C2018 1.516 . S
C2019 C2020 1.502 . S
C2019 C2021 1.561 1_655 S
C2019 C2022 1.526 1_655 S
C2020 H2004 0.959 . S
C2020 H2005 0.959 . S
C2020 H2006 0.961 . S
C2020 C2019 1.502 . S
C2021 H2007 0.960 1_455 S
C2021 H2008 0.961 . S
C2021 H2009 0.959 . S
C2021 C2019 1.561 1_455 S
C2022 C2019 1.526 1_455 S
C2022 C2023 1.396 1_455 S
C2022 C2027 1.390 . S
C2023 C2017 1.465 . S
C2023 C2022 1.396 1_655 S
C2023 C2024 1.399 1_655 S
C2024 H2010 0.929 . S
C2024 C2023 1.399 1_455 S
C2024 C2025 1.385 . S
C2025 H2011 0.931 . S
C2025 C2024 1.385 . S
C2025 C2026 1.389 . S
C2026 C2025 1.389 . S
C2026 C2027 1.387 . S
C2027 H2012 0.930 . S
C2027 C2022 1.390 . S
C2027 C2026 1.387 . S
H2028 C2040 0.930 . S
H2029 C2042 0.930 . S
H2030 C2043 0.930 . S
H2031 C2047 0.959 . S
H2032 C2047 0.959 . S
H2033 C2047 0.961 . S
H2034 C2048 0.960 . S
H2035 C2048 0.961 . S
H2036 C2048 0.959 . S
H2037 C2051 0.929 . S
H2038 C2052 0.931 . S
H2039 C2054 0.930 . S
C2040 H2028 0.930 . S
C2040 C2041 1.399 . S
C2040 C2045 1.399 . S
C2041 C2040 1.399 . S
C2041 C2042 1.376 . S
C2042 H2029 0.930 . S
C2042 C2041 1.376 . S
C2042 C2043 1.388 . S
C2043 H2030 0.930 . S
C2043 C2042 1.388 . S
C2043 C2044 1.390 . S
C2044 C2043 1.390 . S
C2044 C2045 1.394 . S
C2044 C2050 1.465 . S
C2045 C2040 1.399 . S
C2045 C2044 1.394 . S
C2045 C2046 1.516 . S
C2046 C2045 1.516 . S
C2046 C2047 1.502 . S
C2046 C2048 1.561 . S
C2046 C2049 1.526 . S
C2047 H2031 0.959 . S
C2047 H2032 0.959 . S
C2047 H2033 0.961 . S
C2047 C2046 1.502 . S
C2048 H2034 0.960 . S
C2048 H2035 0.961 . S
C2048 H2036 0.959 . S
C2048 C2046 1.561 . S
C2049 C2046 1.526 . S
C2049 C2050 1.396 . S
C2049 C2054 1.390 . S
C2050 C2044 1.465 . S
C2050 C2049 1.396 . S
C2050 C2051 1.399 . S
C2051 H2037 0.929 . S
C2051 C2050 1.399 . S
C2051 C2052 1.385 . S
C2052 H2038 0.931 . S
C2052 C2051 1.385 . S
C2052 C2053 1.389 . S
C2053 C2052 1.389 . S
C2053 C2054 1.387 . S
C2054 H2039 0.930 . S
C2054 C2049 1.390 . S
C2054 C2053 1.387 . S
H2055 C2067 0.930 . S
H2056 C2069 0.930 . S
H2057 C2070 0.930 . S
H2058 C2074 0.959 . S
H2059 C2074 0.959 . S
H2060 C2074 0.961 . S
H2061 C2075 0.960 . S
H2062 C2075 0.961 . S
H2063 C2075 0.959 . S
H2064 C2078 0.929 . S
H2065 C2079 0.931 . S
H2066 C2081 0.930 . S
C2067 H2055 0.930 . S
C2067 C2068 1.399 . S
C2067 C2072 1.399 . S
C2068 C2067 1.399 . S
C2068 C2069 1.376 . S
C2069 H2056 0.930 . S
C2069 C2068 1.376 . S
C2069 C2070 1.388 . S
C2070 H2057 0.930 . S
C2070 C2069 1.388 . S
C2070 C2071 1.390 . S
C2071 C2070 1.390 . S
C2071 C2072 1.394 . S
C2071 C2077 1.465 . S
C2072 C2067 1.399 . S
C2072 C2071 1.394 . S
C2072 C2073 1.516 . S
C2073 C2072 1.516 . S
C2073 C2074 1.502 . S
C2073 C2075 1.561 . S
C2073 C2076 1.526 . S
C2074 H2058 0.959 . S
C2074 H2059 0.959 . S
C2074 H2060 0.961 . S
C2074 C2073 1.502 . S
C2075 H2061 0.960 . S
C2075 H2062 0.961 . S
C2075 H2063 0.959 . S
C2075 C2073 1.561 . S
C2076 C2073 1.526 . S
C2076 C2077 1.396 . S
C2076 C2081 1.390 1_655 S
C2077 C2071 1.465 . S
C2077 C2076 1.396 . S
C2077 C2078 1.399 1_655 S
C2078 H2064 0.929 . S
C2078 C2077 1.399 1_455 S
C2078 C2079 1.385 . S
C2079 H2065 0.931 . S
C2079 C2078 1.385 . S
C2079 C2080 1.389 . S
C2080 C2079 1.389 . S
C2080 C2081 1.387 . S
C2081 H2066 0.930 . S
C2081 C2076 1.390 1_455 S
C2081 C2080 1.387 . S
H2082 C2094 0.930 . S
H2083 C2096 0.930 . S
H2084 C2097 0.930 . S
H2085 C2101 0.959 . S
H2086 C2101 0.959 . S
H2087 C2101 0.961 . S
H2088 C2102 0.960 . S
H2089 C2102 0.961 . S
H2090 C2102 0.959 . S
H2091 C2105 0.929 . S
H2092 C2106 0.931 . S
H2093 C2108 0.930 . S
C2094 H2082 0.930 . S
C2094 C2095 1.399 . S
C2094 C2099 1.399 . S
C2095 C2094 1.399 . S
C2095 C2096 1.376 . S
C2096 H2083 0.930 . S
C2096 C2095 1.376 . S
C2096 C2097 1.388 . S
C2097 H2084 0.930 . S
C2097 C2096 1.388 . S
C2097 C2098 1.390 . S
C2098 C2097 1.390 . S
C2098 C2099 1.394 . S
C2098 C2104 1.465 . S
C2099 C2094 1.399 . S
C2099 C2098 1.394 . S
C2099 C2100 1.516 . S
C2100 C2099 1.516 . S
C2100 C2101 1.502 . S
C2100 C2102 1.561 . S
C2100 C2103 1.526 . S
C2101 H2085 0.959 . S
C2101 H2086 0.959 . S
C2101 H2087 0.961 . S
C2101 C2100 1.502 . S
C2102 H2088 0.960 . S
C2102 H2089 0.961 . S
C2102 H2090 0.959 . S
C2102 C2100 1.561 . S
C2103 C2100 1.526 . S
C2103 C2104 1.396 . S
C2103 C2108 1.390 . S
C2104 C2098 1.465 . S
C2104 C2103 1.396 . S
C2104 C2105 1.399 . S
C2105 H2091 0.929 . S
C2105 C2104 1.399 . S
C2105 C2106 1.385 . S
C2106 H2092 0.931 . S
C2106 C2105 1.385 . S
C2106 C2107 1.389 . S
C2107 C2106 1.389 . S
C2107 C2108 1.387 . S
C2108 H2093 0.930 . S
C2108 C2103 1.390 . S
C2108 C2107 1.387 . S
H2109 C2121 0.930 . S
H2110 C2123 0.930 . S
H2111 C2124 0.930 . S
H2112 C2128 0.959 . S
H2113 C2128 0.959 . S
H2114 C2128 0.961 . S
H2115 C2129 0.960 . S
H2116 C2129 0.961 . S
H2117 C2129 0.959 . S
H2118 C2132 0.929 . S
H2119 C2133 0.931 . S
H2120 C2135 0.930 . S
C2121 H2109 0.930 . S
C2121 C2122 1.399 . S
C2121 C2126 1.399 . S
C2122 C2121 1.399 . S
C2122 C2123 1.376 . S
C2123 H2110 0.930 . S
C2123 C2122 1.376 . S
C2123 C2124 1.388 . S
C2124 H2111 0.930 . S
C2124 C2123 1.388 . S
C2124 C2125 1.390 . S
C2125 C2124 1.390 . S
C2125 C2126 1.394 . S
C2125 C2131 1.465 . S
C2126 C2121 1.399 . S
C2126 C2125 1.394 . S
C2126 C2127 1.516 . S
C2127 C2126 1.516 . S
C2127 C2128 1.502 . S
C2127 C2129 1.561 . S
C2127 C2130 1.526 . S
C2128 H2112 0.959 . S
C2128 H2113 0.959 . S
C2128 H2114 0.961 . S
C2128 C2127 1.502 . S
C2129 H2115 0.960 . S
C2129 H2116 0.961 . S
C2129 H2117 0.959 . S
C2129 C2127 1.561 . S
C2130 C2127 1.526 . S
C2130 C2131 1.396 . S
C2130 C2135 1.390 . S
C2131 C2125 1.465 . S
C2131 C2130 1.396 . S
C2131 C2132 1.399 . S
C2132 H2118 0.929 . S
C2132 C2131 1.399 . S
C2132 C2133 1.385 . S
C2133 H2119 0.931 . S
C2133 C2132 1.385 . S
C2133 C2134 1.389 . S
C2134 C2133 1.389 . S
C2134 C2135 1.387 . S
C2135 H2120 0.930 . S
C2135 C2130 1.390 . S
C2135 C2134 1.387 . S
H2136 C2148 0.930 . S
H2137 C2150 0.930 . S
H2138 C2151 0.930 . S
H2139 C2155 0.959 . S
H2140 C2155 0.959 . S
H2141 C2155 0.961 . S
H2142 C2156 0.960 . S
H2143 C2156 0.961 . S
H2144 C2156 0.959 . S
H2145 C2159 0.929 . S
H2146 C2160 0.931 . S
H2147 C2162 0.930 . S
C2148 H2136 0.930 . S
C2148 C2149 1.399 . S
C2148 C2153 1.399 . S
C2149 C2148 1.399 . S
C2149 C2150 1.376 . S
C2150 H2137 0.930 . S
C2150 C2149 1.376 . S
C2150 C2151 1.388 . S
C2151 H2138 0.930 . S
C2151 C2150 1.388 . S
C2151 C2152 1.390 . S
C2152 C2151 1.390 . S
C2152 C2153 1.394 . S
C2152 C2158 1.465 . S
C2153 C2148 1.399 . S
C2153 C2152 1.394 . S
C2153 C2154 1.516 . S
C2154 C2153 1.516 . S
C2154 C2155 1.502 . S
C2154 C2156 1.561 . S
C2154 C2157 1.526 . S
C2155 H2139 0.959 . S
C2155 H2140 0.959 . S
C2155 H2141 0.961 . S
C2155 C2154 1.502 . S
C2156 H2142 0.960 . S
C2156 H2143 0.961 . S
C2156 H2144 0.959 . S
C2156 C2154 1.561 . S
C2157 C2154 1.526 . S
C2157 C2158 1.396 . S
C2157 C2162 1.390 . S
C2158 C2152 1.465 . S
C2158 C2157 1.396 . S
C2158 C2159 1.399 . S
C2159 H2145 0.929 . S
C2159 C2158 1.399 . S
C2159 C2160 1.385 . S
C2160 H2146 0.931 . S
C2160 C2159 1.385 . S
C2160 C2161 1.389 . S
C2161 C2160 1.389 . S
C2161 C2162 1.387 . S
C2162 H2147 0.930 . S
C2162 C2157 1.390 . S
C2162 C2161 1.387 . S
H2163 C2175 0.930 . S
H2164 C2177 0.930 . S
H2165 C2178 0.930 . S
H2166 C2182 0.959 . S
H2167 C2182 0.959 . S
H2168 C2182 0.961 . S
H2169 C2183 0.960 . S
H2170 C2183 0.961 . S
H2171 C2183 0.959 . S
H2172 C2186 0.929 . S
H2173 C2187 0.931 . S
H2174 C2189 0.930 . S
C2175 H2163 0.930 . S
C2175 C2176 1.399 . S
C2175 C2180 1.399 . S
C2176 C2175 1.399 . S
C2176 C2177 1.376 . S
C2177 H2164 0.930 . S
C2177 C2176 1.376 . S
C2177 C2178 1.388 . S
C2178 H2165 0.930 . S
C2178 C2177 1.388 . S
C2178 C2179 1.390 . S
C2179 C2178 1.390 . S
C2179 C2180 1.394 . S
C2179 C2185 1.465 . S
C2180 C2175 1.399 . S
C2180 C2179 1.394 . S
C2180 C2181 1.516 . S
C2181 C2180 1.516 . S
C2181 C2182 1.502 . S
C2181 C2183 1.561 . S
C2181 C2184 1.526 . S
C2182 H2166 0.959 . S
C2182 H2167 0.959 . S
C2182 H2168 0.961 . S
C2182 C2181 1.502 . S
C2183 H2169 0.960 . S
C2183 H2170 0.961 . S
C2183 H2171 0.959 . S
C2183 C2181 1.561 . S
C2184 C2181 1.526 . S
C2184 C2185 1.396 . S
C2184 C2189 1.390 . S
C2185 C2179 1.465 . S
C2185 C2184 1.396 . S
C2185 C2186 1.399 . S
C2186 H2172 0.929 . S
C2186 C2185 1.399 . S
C2186 C2187 1.385 . S
C2187 H2173 0.931 . S
C2187 C2186 1.385 . S
C2187 C2188 1.389 . S
C2188 C2187 1.389 . S
C2188 C2189 1.387 . S
C2189 H2174 0.930 . S
C2189 C2184 1.390 . S
C2189 C2188 1.387 . S
H2190 C2202 0.930 . S
H2191 C2204 0.930 . S
H2192 C2205 0.930 . S
H2193 C2209 0.959 . S
H2194 C2209 0.959 . S
H2195 C2209 0.961 . S
H2196 C2210 0.960 . S
H2197 C2210 0.961 . S
H2198 C2210 0.959 . S
H2199 C2213 0.929 . S
H2200 C2214 0.931 . S
H2201 C2216 0.930 . S
C2202 H2190 0.930 . S
C2202 C2203 1.399 . S
C2202 C2207 1.399 . S
C2203 C2202 1.399 . S
C2203 C2204 1.376 . S
C2204 H2191 0.930 . S
C2204 C2203 1.376 . S
C2204 C2205 1.388 . S
C2205 H2192 0.930 . S
C2205 C2204 1.388 . S
C2205 C2206 1.390 . S
C2206 C2205 1.390 . S
C2206 C2207 1.394 . S
C2206 C2212 1.465 . S
C2207 C2202 1.399 . S
C2207 C2206 1.394 . S
C2207 C2208 1.516 . S
C2208 C2207 1.516 . S
C2208 C2209 1.502 . S
C2208 C2210 1.561 . S
C2208 C2211 1.526 . S
C2209 H2193 0.959 . S
C2209 H2194 0.959 . S
C2209 H2195 0.961 . S
C2209 C2208 1.502 . S
C2210 H2196 0.960 . S
C2210 H2197 0.961 . S
C2210 H2198 0.959 . S
C2210 C2208 1.561 . S
C2211 C2208 1.526 . S
C2211 C2212 1.396 . S
C2211 C2216 1.390 . S
C2212 C2206 1.465 . S
C2212 C2211 1.396 . S
C2212 C2213 1.399 . S
C2213 H2199 0.929 . S
C2213 C2212 1.399 . S
C2213 C2214 1.385 . S
C2214 H2200 0.931 . S
C2214 C2213 1.385 . S
C2214 C2215 1.389 . S
C2215 C2214 1.389 . S
C2215 C2216 1.387 . S
C2216 H2201 0.930 . S
C2216 C2211 1.390 . S
C2216 C2215 1.387 . S
H2217 C2229 0.930 . S
H2218 C2231 0.930 . S
H2219 C2232 0.947 . S
H2220 C2236 0.959 . S
H2221 C2236 0.959 . S
H2222 C2236 0.961 . S
H2223 C2237 0.960 . S
H2224 C2237 0.961 . S
H2225 C2237 0.959 . S
H2226 C2240 0.929 . S
H2227 C2241 0.931 . S
H2228 C2243 0.930 . S
C2229 H2217 0.930 . S
C2229 C2230 1.399 . S
C2229 C2234 1.399 . S
C2230 C2229 1.399 . S
C2230 C2231 1.376 . S
C2231 H2218 0.930 . S
C2231 C2230 1.376 . S
C2231 C2232 1.388 . S
C2232 H2219 0.947 . S
C2232 C2231 1.388 . S
C2232 C2233 1.390 . S
C2233 C2232 1.390 . S
C2233 C2234 1.394 . S
C2233 C2239 1.465 1_455 S
C2234 C2229 1.399 . S
C2234 C2233 1.394 . S
C2234 C2235 1.516 . S
C2235 C2234 1.516 . S
C2235 C2236 1.502 . S
C2235 C2237 1.561 . S
C2235 C2238 1.526 . S
C2236 H2220 0.959 . S
C2236 H2221 0.959 . S
C2236 H2222 0.961 . S
C2236 C2235 1.502 . S
C2237 H2223 0.960 . S
C2237 H2224 0.961 . S
C2237 H2225 0.959 . S
C2237 C2235 1.561 . S
C2238 C2235 1.526 . S
C2238 C2239 1.396 1_455 S
C2238 C2243 1.390 1_455 S
C2239 C2233 1.465 1_655 S
C2239 C2238 1.396 1_655 S
C2239 C2240 1.399 . S
C2240 H2226 0.929 . S
C2240 C2239 1.399 . S
C2240 C2241 1.385 . S
C2241 H2227 0.931 . S
C2241 C2240 1.385 . S
C2241 C2242 1.389 . S
C2242 C2241 1.389 . S
C2242 C2243 1.387 . S
C2243 H2228 0.930 . S
C2243 C2238 1.390 1_655 S
C2243 C2242 1.387 . S
H2244 C2256 0.930 . S
H2245 C2258 0.930 . S
H2246 C2259 0.930 . S
H2247 C2263 0.959 . S
H2248 C2263 0.959 . S
H2249 C2263 0.961 . S
H2250 C2264 0.960 . S
H2251 C2264 0.961 . S
H2252 C2264 0.959 . S
H2253 C2267 0.929 . S
H2254 C2268 0.931 . S
H2255 C2270 0.930 . S
C2256 H2244 0.930 . S
C2256 C2257 1.399 . S
C2256 C2261 1.399 . S
C2257 C2256 1.399 . S
C2257 C2258 1.376 . S
C2258 H2245 0.930 . S
C2258 C2257 1.376 . S
C2258 C2259 1.388 . S
C2259 H2246 0.930 . S
C2259 C2258 1.388 . S
C2259 C2260 1.390 . S
C2260 C2259 1.390 . S
C2260 C2261 1.394 . S
C2260 C2266 1.465 . S
C2261 C2256 1.399 . S
C2261 C2260 1.394 . S
C2261 C2262 1.516 . S
C2262 C2261 1.516 . S
C2262 C2263 1.502 . S
C2262 C2264 1.561 . S
C2262 C2265 1.526 . S
C2263 H2247 0.959 . S
C2263 H2248 0.959 . S
C2263 H2249 0.961 . S
C2263 C2262 1.502 . S
C2264 H2250 0.960 . S
C2264 H2251 0.961 . S
C2264 H2252 0.959 . S
C2264 C2262 1.561 . S
C2265 C2262 1.526 . S
C2265 C2266 1.396 . S
C2265 C2270 1.390 . S
C2266 C2260 1.465 . S
C2266 C2265 1.396 . S
C2266 C2267 1.399 . S
C2267 H2253 0.929 . S
C2267 C2266 1.399 . S
C2267 C2268 1.385 . S
C2268 H2254 0.931 . S
C2268 C2267 1.385 . S
C2268 C2269 1.389 . S
C2269 C2268 1.389 . S
C2269 C2270 1.387 . S
C2270 H2255 0.930 . S
C2270 C2265 1.390 . S
C2270 C2269 1.387 . S
H2271 C2283 0.930 . S
H2272 C2285 0.930 . S
H2273 C2286 0.930 . S
H2274 C2290 0.959 . S
H2275 C2290 0.959 . S
H2276 C2290 0.961 . S
H2277 C2291 0.960 . S
H2278 C2291 0.961 . S
H2279 C2291 0.959 . S
H2280 C2294 0.929 . S
H2281 C2295 0.931 . S
H2282 C2297 0.930 . S
C2283 H2271 0.930 . S
C2283 C2284 1.399 . S
C2283 C2288 1.399 1_655 S
C2284 C2283 1.399 . S
C2284 C2285 1.376 . S
C2285 H2272 0.930 . S
C2285 C2284 1.376 . S
C2285 C2286 1.388 . S
C2286 H2273 0.930 . S
C2286 C2285 1.388 . S
C2286 C2287 1.390 . S
C2287 C2286 1.390 . S
C2287 C2288 1.394 1_655 S
C2287 C2293 1.465 1_655 S
C2288 C2283 1.399 1_455 S
C2288 C2287 1.394 1_455 S
C2288 C2289 1.516 . S
C2289 C2288 1.516 . S
C2289 C2290 1.502 . S
C2289 C2291 1.561 . S
C2289 C2292 1.526 . S
C2290 H2274 0.959 . S
C2290 H2275 0.959 . S
C2290 H2276 0.961 . S
C2290 C2289 1.502 . S
C2291 H2277 0.960 . S
C2291 H2278 0.961 . S
C2291 H2279 0.959 . S
C2291 C2289 1.561 . S
C2292 C2289 1.526 . S
C2292 C2293 1.396 . S
C2292 C2297 1.390 . S
C2293 C2287 1.465 1_455 S
C2293 C2292 1.396 . S
C2293 C2294 1.399 . S
C2294 H2280 0.929 . S
C2294 C2293 1.399 . S
C2294 C2295 1.385 . S
C2295 H2281 0.931 . S
C2295 C2294 1.385 . S
C2295 C2296 1.389 . S
C2296 C2295 1.389 . S
C2296 C2297 1.387 . S
C2297 H2282 0.930 . S
C2297 C2292 1.390 . S
C2297 C2296 1.387 . S
H2298 C2310 0.930 . S
H2299 C2312 0.930 . S
H2300 C2313 0.930 . S
H2301 C2317 0.959 . S
H2302 C2317 0.959 . S
H2303 C2317 0.961 . S
H2304 C2318 0.960 . S
H2305 C2318 0.961 . S
H2306 C2318 0.959 . S
H2307 C2321 0.929 . S
H2308 C2322 0.931 . S
H2309 C2324 0.930 . S
C2310 H2298 0.930 . S
C2310 C2311 1.399 . S
C2310 C2315 1.399 . S
C2311 C2310 1.399 . S
C2311 C2312 1.376 . S
C2312 H2299 0.930 . S
C2312 C2311 1.376 . S
C2312 C2313 1.388 . S
C2313 H2300 0.930 . S
C2313 C2312 1.388 . S
C2313 C2314 1.390 . S
C2314 C2313 1.390 . S
C2314 C2315 1.394 . S
C2314 C2320 1.465 . S
C2315 C2310 1.399 . S
C2315 C2314 1.394 . S
C2315 C2316 1.516 . S
C2316 C2315 1.516 . S
C2316 C2317 1.502 . S
C2316 C2318 1.561 . S
C2316 C2319 1.526 . S
C2317 H2301 0.959 . S
C2317 H2302 0.959 . S
C2317 H2303 0.961 . S
C2317 C2316 1.502 . S
C2318 H2304 0.960 . S
C2318 H2305 0.961 . S
C2318 H2306 0.959 . S
C2318 C2316 1.561 . S
C2319 C2316 1.526 . S
C2319 C2320 1.396 . S
C2319 C2324 1.390 . S
C2320 C2314 1.465 . S
C2320 C2319 1.396 . S
C2320 C2321 1.399 . S
C2321 H2307 0.929 . S
C2321 C2320 1.399 . S
C2321 C2322 1.385 . S
C2322 H2308 0.931 . S
C2322 C2321 1.385 . S
C2322 C2323 1.389 . S
C2323 C2322 1.389 . S
C2323 C2324 1.387 . S
C2324 H2309 0.930 . S
C2324 C2319 1.390 . S
C2324 C2323 1.387 . S
H2325 C2337 0.930 . S
H2326 C2339 0.930 . S
H2327 C2340 0.930 . S
H2328 C2344 0.959 . S
H2329 C2344 0.959 . S
H2330 C2344 0.961 . S
H2331 C2345 0.960 . S
H2332 C2345 0.961 . S
H2333 C2345 0.959 . S
H2334 C2348 0.929 . S
H2335 C2349 0.931 . S
H2336 C2351 0.930 . S
C2337 H2325 0.930 . S
C2337 C2338 1.399 . S
C2337 C2342 1.399 . S
C2338 C2337 1.399 . S
C2338 C2339 1.376 . S
C2339 H2326 0.930 . S
C2339 C2338 1.376 . S
C2339 C2340 1.388 . S
C2340 H2327 0.930 . S
C2340 C2339 1.388 . S
C2340 C2341 1.390 . S
C2341 C2340 1.390 . S
C2341 C2342 1.394 . S
C2341 C2347 1.465 . S
C2342 C2337 1.399 . S
C2342 C2341 1.394 . S
C2342 C2343 1.516 . S
C2343 C2342 1.516 . S
C2343 C2344 1.502 . S
C2343 C2345 1.561 . S
C2343 C2346 1.526 . S
C2344 H2328 0.959 . S
C2344 H2329 0.959 . S
C2344 H2330 0.961 . S
C2344 C2343 1.502 . S
C2345 H2331 0.960 . S
C2345 H2332 0.961 . S
C2345 H2333 0.959 . S
C2345 C2343 1.561 . S
C2346 C2343 1.526 . S
C2346 C2347 1.396 . S
C2346 C2351 1.390 . S
C2347 C2341 1.465 . S
C2347 C2346 1.396 . S
C2347 C2348 1.399 . S
C2348 H2334 0.929 . S
C2348 C2347 1.399 . S
C2348 C2349 1.385 . S
C2349 H2335 0.931 . S
C2349 C2348 1.385 . S
C2349 C2350 1.389 . S
C2350 C2349 1.389 . S
C2350 C2351 1.387 . S
C2351 H2336 0.930 . S
C2351 C2346 1.390 . S
C2351 C2350 1.387 . S
H2352 C2364 0.930 . S
H2353 C2366 0.930 . S
H2354 C2367 0.930 . S
H2355 C2371 0.959 . S
H2356 C2371 0.959 . S
H2357 C2371 0.961 . S
H2358 C2372 0.960 . S
H2359 C2372 0.961 . S
H2360 C2372 0.959 . S
H2361 C2375 0.929 . S
H2362 C2376 0.931 . S
H2363 C2378 0.930 . S
C2364 H2352 0.930 . S
C2364 C2365 1.399 . S
C2364 C2369 1.399 . S
C2365 C2364 1.399 . S
C2365 C2366 1.376 . S
C2366 H2353 0.930 . S
C2366 C2365 1.376 . S
C2366 C2367 1.388 . S
C2367 H2354 0.930 . S
C2367 C2366 1.388 . S
C2367 C2368 1.390 . S
C2368 C2367 1.390 . S
C2368 C2369 1.394 . S
C2368 C2374 1.465 . S
C2369 C2364 1.399 . S
C2369 C2368 1.394 . S
C2369 C2370 1.516 . S
C2370 C2369 1.516 . S
C2370 C2371 1.502 . S
C2370 C2372 1.561 . S
C2370 C2373 1.526 . S
C2371 H2355 0.959 . S
C2371 H2356 0.959 . S
C2371 H2357 0.961 . S
C2371 C2370 1.502 . S
C2372 H2358 0.960 . S
C2372 H2359 0.961 . S
C2372 H2360 0.959 . S
C2372 C2370 1.561 . S
C2373 C2370 1.526 . S
C2373 C2374 1.396 . S
C2373 C2378 1.390 . S
C2374 C2368 1.465 . S
C2374 C2373 1.396 . S
C2374 C2375 1.399 . S
C2375 H2361 0.929 . S
C2375 C2374 1.399 . S
C2375 C2376 1.385 . S
C2376 H2362 0.931 . S
C2376 C2375 1.385 . S
C2376 C2377 1.389 . S
C2377 C2376 1.389 . S
C2377 C2378 1.387 . S
C2378 H2363 0.930 . S
C2378 C2373 1.390 . S
C2378 C2377 1.387 . S
H2379 C2391 0.930 . S
H2380 C2393 0.930 . S
H2381 C2394 0.930 . S
H2382 C2398 0.959 . S
H2383 C2398 0.959 . S
H2384 C2398 0.961 . S
H2385 C2399 0.960 . S
H2386 C2399 0.961 . S
H2387 C2399 0.959 . S
H2388 C2402 0.929 . S
H2389 C2403 0.931 . S
H2390 C2405 0.930 . S
C2391 H2379 0.930 . S
C2391 C2392 1.399 . S
C2391 C2396 1.399 . S
C2392 C2391 1.399 . S
C2392 C2393 1.376 . S
C2393 H2380 0.930 . S
C2393 C2392 1.376 . S
C2393 C2394 1.388 . S
C2394 H2381 0.930 . S
C2394 C2393 1.388 . S
C2394 C2395 1.390 . S
C2395 C2394 1.390 . S
C2395 C2396 1.394 . S
C2395 C2401 1.465 1_655 S
C2396 C2391 1.399 . S
C2396 C2395 1.394 . S
C2396 C2397 1.516 1_655 S
C2397 C2396 1.516 1_455 S
C2397 C2398 1.502 . S
C2397 C2399 1.561 1_455 S
C2397 C2400 1.526 . S
C2398 H2382 0.959 . S
C2398 H2383 0.959 . S
C2398 H2384 0.961 . S
C2398 C2397 1.502 . S
C2399 H2385 0.960 . S
C2399 H2386 0.961 . S
C2399 H2387 0.959 . S
C2399 C2397 1.561 1_655 S
C2400 C2397 1.526 . S
C2400 C2401 1.396 . S
C2400 C2405 1.390 . S
C2401 C2395 1.465 1_455 S
C2401 C2400 1.396 . S
C2401 C2402 1.399 . S
C2402 H2388 0.929 . S
C2402 C2401 1.399 . S
C2402 C2403 1.385 . S
C2403 H2389 0.931 . S
C2403 C2402 1.385 . S
C2403 C2404 1.389 . S
C2404 C2403 1.389 . S
C2404 C2405 1.387 . S
C2405 H2390 0.930 . S
C2405 C2400 1.390 . S
C2405 C2404 1.387 . S
H2406 C2418 0.930 . S
H2407 C2420 0.930 . S
H2408 C2421 0.930 . S
H2409 C2425 0.959 . S
H2410 C2425 0.959 . S
H2411 C2425 0.961 . S
H2412 C2426 0.960 . S
H2413 C2426 0.961 . S
H2414 C2426 0.959 . S
H2415 C2429 0.929 . S
H2416 C2430 0.931 . S
H2417 C2432 0.930 . S
C2418 H2406 0.930 . S
C2418 C2419 1.399 . S
C2418 C2423 1.399 . S
C2419 C2418 1.399 . S
C2419 C2420 1.376 . S
C2420 H2407 0.930 . S
C2420 C2419 1.376 . S
C2420 C2421 1.388 . S
C2421 H2408 0.930 . S
C2421 C2420 1.388 . S
C2421 C2422 1.390 . S
C2422 C2421 1.390 . S
C2422 C2423 1.394 . S
C2422 C2428 1.465 1_655 S
C2423 C2418 1.399 . S
C2423 C2422 1.394 . S
C2423 C2424 1.516 . S
C2424 C2423 1.516 . S
C2424 C2425 1.502 1_655 S
C2424 C2426 1.561 . S
C2424 C2427 1.526 1_655 S
C2425 H2409 0.959 . S
C2425 H2410 0.959 . S
C2425 H2411 0.961 . S
C2425 C2424 1.502 1_455 S
C2426 H2412 0.960 . S
C2426 H2413 0.961 . S
C2426 H2414 0.959 . S
C2426 C2424 1.561 . S
C2427 C2424 1.526 1_455 S
C2427 C2428 1.396 . S
C2427 C2432 1.390 . S
C2428 C2422 1.465 1_455 S
C2428 C2427 1.396 . S
C2428 C2429 1.399 . S
C2429 H2415 0.929 . S
C2429 C2428 1.399 . S
C2429 C2430 1.385 . S
C2430 H2416 0.931 . S
C2430 C2429 1.385 . S
C2430 C2431 1.389 . S
C2431 C2430 1.389 . S
C2431 C2432 1.387 . S
C2432 H2417 0.930 . S
C2432 C2427 1.390 . S
C2432 C2431 1.387 . S
H2433 C2445 0.930 . S
H2434 C2447 0.930 . S
H2435 C2448 0.930 . S
H2436 C2452 0.959 . S
H2437 C2452 0.959 . S
H2438 C2452 0.961 . S
H2439 C2453 0.986 . S
H2440 C2453 0.940 1_554 S
H2441 C2453 0.959 . S
H2442 C2456 0.929 . S
H2443 C2457 0.931 . S
H2444 C2459 0.930 . S
C2445 H2433 0.930 . S
C2445 C2446 1.399 . S
C2445 C2450 1.399 . S
C2446 C2445 1.399 . S
C2446 C2447 1.376 . S
C2447 H2434 0.930 . S
C2447 C2446 1.376 . S
C2447 C2448 1.388 . S
C2448 H2435 0.930 . S
C2448 C2447 1.388 . S
C2448 C2449 1.390 . S
C2449 C2448 1.390 . S
C2449 C2450 1.394 . S
C2449 C2455 1.465 . S
C2450 C2445 1.399 . S
C2450 C2449 1.394 . S
C2450 C2451 1.516 . S
C2451 C2450 1.516 . S
C2451 C2452 1.502 . S
C2451 C2453 1.561 . S
C2451 C2454 1.526 . S
C2452 H2436 0.959 . S
C2452 H2437 0.959 . S
C2452 H2438 0.961 . S
C2452 C2451 1.502 . S
C2453 H2439 0.986 . S
C2453 H2440 0.940 1_556 S
C2453 H2441 0.959 . S
C2453 C2451 1.561 . S
C2454 C2451 1.526 . S
C2454 C2455 1.396 . S
C2454 C2459 1.390 . S
C2455 C2449 1.465 . S
C2455 C2454 1.396 . S
C2455 C2456 1.399 . S
C2456 H2442 0.929 . S
C2456 C2455 1.399 . S
C2456 C2457 1.385 . S
C2457 H2443 0.931 . S
C2457 C2456 1.385 . S
C2457 C2458 1.389 . S
C2458 C2457 1.389 . S
C2458 C2459 1.387 . S
C2459 H2444 0.930 . S
C2459 C2454 1.390 . S
C2459 C2458 1.387 . S
H2460 C2472 0.930 . S
H2461 C2474 0.930 . S
H2462 C2475 0.930 . S
H2463 C2479 0.959 . S
H2464 C2479 0.959 . S
H2465 C2479 0.961 . S
H2466 C2480 0.960 . S
H2467 C2480 0.961 . S
H2468 C2480 0.959 . S
H2469 C2483 0.929 . S
H2470 C2484 0.931 . S
H2471 C2486 0.930 . S
C2472 H2460 0.930 . S
C2472 C2473 1.399 . S
C2472 C2477 1.399 . S
C2473 C2472 1.399 . S
C2473 C2474 1.376 . S
C2474 H2461 0.930 . S
C2474 C2473 1.376 . S
C2474 C2475 1.388 . S
C2475 H2462 0.930 . S
C2475 C2474 1.388 . S
C2475 C2476 1.390 . S
C2476 C2475 1.390 . S
C2476 C2477 1.394 . S
C2476 C2482 1.465 . S
C2477 C2472 1.399 . S
C2477 C2476 1.394 . S
C2477 C2478 1.516 . S
C2478 C2477 1.516 . S
C2478 C2479 1.502 . S
C2478 C2480 1.561 . S
C2478 C2481 1.526 . S
C2479 H2463 0.959 . S
C2479 H2464 0.959 . S
C2479 H2465 0.961 . S
C2479 C2478 1.502 . S
C2480 H2466 0.960 . S
C2480 H2467 0.961 . S
C2480 H2468 0.959 . S
C2480 C2478 1.561 . S
C2481 C2478 1.526 . S
C2481 C2482 1.396 . S
C2481 C2486 1.390 . S
C2482 C2476 1.465 . S
C2482 C2481 1.396 . S
C2482 C2483 1.399 . S
C2483 H2469 0.929 . S
C2483 C2482 1.399 . S
C2483 C2484 1.385 . S
C2484 H2470 0.931 . S
C2484 C2483 1.385 . S
C2484 C2485 1.389 . S
C2485 C2484 1.389 . S
C2485 C2486 1.387 . S
C2486 H2471 0.930 . S
C2486 C2481 1.390 . S
C2486 C2485 1.387 . S
H2487 C2499 0.930 . S
H2488 C2501 0.930 . S
H2489 C2502 0.930 . S
H2490 C2506 0.959 . S
H2491 C2506 0.959 . S
H2492 C2506 0.961 . S
H2493 C2507 0.960 . S
H2494 C2507 0.961 . S
H2495 C2507 0.959 . S
H2496 C2510 0.929 . S
H2497 C2511 0.931 . S
H2498 C2513 0.930 . S
C2499 H2487 0.930 . S
C2499 C2500 1.399 . S
C2499 C2504 1.399 . S
C2500 C2499 1.399 . S
C2500 C2501 1.376 . S
C2501 H2488 0.930 . S
C2501 C2500 1.376 . S
C2501 C2502 1.388 . S
C2502 H2489 0.930 . S
C2502 C2501 1.388 . S
C2502 C2503 1.390 . S
C2503 C2502 1.390 . S
C2503 C2504 1.394 . S
C2503 C2509 1.465 . S
C2504 C2499 1.399 . S
C2504 C2503 1.394 . S
C2504 C2505 1.516 . S
C2505 C2504 1.516 . S
C2505 C2506 1.502 . S
C2505 C2507 1.561 . S
C2505 C2508 1.526 . S
C2506 H2490 0.959 . S
C2506 H2491 0.959 . S
C2506 H2492 0.961 . S
C2506 C2505 1.502 . S
C2507 H2493 0.960 . S
C2507 H2494 0.961 . S
C2507 H2495 0.959 . S
C2507 C2505 1.561 . S
C2508 C2505 1.526 . S
C2508 C2509 1.396 . S
C2508 C2513 1.390 . S
C2509 C2503 1.465 . S
C2509 C2508 1.396 . S
C2509 C2510 1.399 . S
C2510 H2496 0.929 . S
C2510 C2509 1.399 . S
C2510 C2511 1.385 . S
C2511 H2497 0.931 . S
C2511 C2510 1.385 . S
C2511 C2512 1.389 . S
C2512 C2511 1.389 . S
C2512 C2513 1.387 . S
C2513 H2498 0.930 . S
C2513 C2508 1.390 . S
C2513 C2512 1.387 . S
H2514 C2526 0.930 . S
H2515 C2528 0.930 . S
H2516 C2529 0.930 . S
H2517 C2533 0.959 . S
H2518 C2533 0.959 1_655 S
H2519 C2533 0.961 . S
H2520 C2534 0.960 . S
H2521 C2534 0.961 . S
H2522 C2534 0.959 . S
H2523 C2537 0.929 . S
H2524 C2538 0.931 . S
H2525 C2540 0.930 . S
C2526 H2514 0.930 . S
C2526 C2527 1.399 . S
C2526 C2531 1.399 . S
C2527 C2526 1.399 . S
C2527 C2528 1.376 . S
C2528 H2515 0.930 . S
C2528 C2527 1.376 . S
C2528 C2529 1.388 . S
C2529 H2516 0.930 . S
C2529 C2528 1.388 . S
C2529 C2530 1.390 . S
C2530 C2529 1.390 . S
C2530 C2531 1.394 . S
C2530 C2536 1.465 1_455 S
C2531 C2526 1.399 . S
C2531 C2530 1.394 . S
C2531 C2532 1.516 1_455 S
C2532 C2531 1.516 1_655 S
C2532 C2533 1.502 1_655 S
C2532 C2534 1.561 . S
C2532 C2535 1.526 . S
C2533 H2517 0.959 . S
C2533 H2518 0.959 1_455 S
C2533 H2519 0.961 . S
C2533 C2532 1.502 1_455 S
C2534 H2520 0.960 . S
C2534 H2521 0.961 . S
C2534 H2522 0.959 . S
C2534 C2532 1.561 . S
C2535 C2532 1.526 . S
C2535 C2536 1.396 . S
C2535 C2540 1.390 . S
C2536 C2530 1.465 1_655 S
C2536 C2535 1.396 . S
C2536 C2537 1.399 . S
C2537 H2523 0.929 . S
C2537 C2536 1.399 . S
C2537 C2538 1.385 . S
C2538 H2524 0.931 . S
C2538 C2537 1.385 . S
C2538 C2539 1.389 . S
C2539 C2538 1.389 . S
C2539 C2540 1.387 . S
C2540 H2525 0.930 . S
C2540 C2535 1.390 . S
C2540 C2539 1.387 . S
H2541 C2553 0.930 . S
H2542 C2555 0.930 . S
H2543 C2556 0.930 1_455 S
H2544 C2560 0.959 . S
H2545 C2560 0.959 . S
H2546 C2560 0.961 . S
H2547 C2561 0.960 . S
H2548 C2561 0.957 1_455 S
H2549 C2561 0.959 1_455 S
H2550 C2564 0.929 . S
H2551 C2565 0.931 . S
H2552 C2567 0.930 . S
C2553 H2541 0.930 . S
C2553 C2554 1.399 . S
C2553 C2558 1.399 . S
C2554 C2553 1.399 . S
C2554 C2555 1.376 . S
C2555 H2542 0.930 . S
C2555 C2554 1.376 . S
C2555 C2556 1.388 . S
C2556 H2543 0.930 1_655 S
C2556 C2555 1.388 . S
C2556 C2557 1.390 . S
C2557 C2556 1.390 . S
C2557 C2558 1.394 . S
C2557 C2563 1.465 1_655 S
C2558 C2553 1.399 . S
C2558 C2557 1.394 . S
C2558 C2559 1.516 . S
C2559 C2558 1.516 . S
C2559 C2560 1.502 . S
C2559 C2561 1.561 . S
C2559 C2562 1.526 1_655 S
C2560 H2544 0.959 . S
C2560 H2545 0.959 . S
C2560 H2546 0.961 . S
C2560 C2559 1.502 . S
C2561 H2547 0.960 . S
C2561 H2548 0.957 1_655 S
C2561 H2549 0.959 1_655 S
C2561 C2559 1.561 . S
C2562 C2559 1.526 1_455 S
C2562 C2563 1.396 . S
C2562 C2567 1.390 . S
C2563 C2557 1.465 1_455 S
C2563 C2562 1.396 . S
C2563 C2564 1.399 . S
C2564 H2550 0.929 . S
C2564 C2563 1.399 . S
C2564 C2565 1.385 . S
C2565 H2551 0.931 . S
C2565 C2564 1.385 . S
C2565 C2566 1.389 . S
C2566 C2565 1.389 . S
C2566 C2567 1.387 . S
C2567 H2552 0.930 . S
C2567 C2562 1.390 . S
C2567 C2566 1.387 . S
H2568 C2580 0.930 . S
H2569 C2582 0.930 . S
H2570 C2583 0.930 . S
H2571 C2587 0.959 . S
H2572 C2587 0.959 . S
H2573 C2587 0.961 . S
H2574 C2588 0.960 . S
H2575 C2588 0.961 . S
H2576 C2588 0.959 . S
H2577 C2591 0.929 . S
H2578 C2592 0.931 . S
H2579 C2594 0.930 . S
C2580 H2568 0.930 . S
C2580 C2581 1.399 . S
C2580 C2585 1.399 . S
C2581 C2580 1.399 . S
C2581 C2582 1.376 . S
C2582 H2569 0.930 . S
C2582 C2581 1.376 . S
C2582 C2583 1.388 . S
C2583 H2570 0.930 . S
C2583 C2582 1.388 . S
C2583 C2584 1.390 . S
C2584 C2583 1.390 . S
C2584 C2585 1.394 . S
C2584 C2590 1.465 . S
C2585 C2580 1.399 . S
C2585 C2584 1.394 . S
C2585 C2586 1.516 . S
C2586 C2585 1.516 . S
C2586 C2587 1.502 . S
C2586 C2588 1.561 . S
C2586 C2589 1.526 . S
C2587 H2571 0.959 . S
C2587 H2572 0.959 . S
C2587 H2573 0.961 . S
C2587 C2586 1.502 . S
C2588 H2574 0.960 . S
C2588 H2575 0.961 . S
C2588 H2576 0.959 . S
C2588 C2586 1.561 . S
C2589 C2586 1.526 . S
C2589 C2590 1.396 . S
C2589 C2594 1.390 . S
C2590 C2584 1.465 . S
C2590 C2589 1.396 . S
C2590 C2591 1.399 . S
C2591 H2577 0.929 . S
C2591 C2590 1.399 . S
C2591 C2592 1.385 . S
C2592 H2578 0.931 . S
C2592 C2591 1.385 . S
C2592 C2593 1.389 . S
C2593 C2592 1.389 . S
C2593 C2594 1.387 . S
C2594 H2579 0.930 . S
C2594 C2589 1.390 . S
C2594 C2593 1.387 . S
H2595 C2607 0.930 . S
H2596 C2609 0.930 . S
H2597 C2610 0.930 . S
H2598 C2614 0.959 . S
H2599 C2614 0.959 . S
H2600 C2614 0.961 . S
H2601 C2615 0.960 . S
H2602 C2615 0.961 1_455 S
H2603 C2615 0.959 . S
H2604 C2618 0.929 . S
H2605 C2619 0.931 . S
H2606 C2621 0.930 . S
C2607 H2595 0.930 . S
C2607 C2608 1.399 . S
C2607 C2612 1.399 . S
C2608 C2607 1.399 . S
C2608 C2609 1.376 . S
C2609 H2596 0.930 . S
C2609 C2608 1.376 . S
C2609 C2610 1.388 . S
C2610 H2597 0.930 . S
C2610 C2609 1.388 . S
C2610 C2611 1.390 . S
C2611 C2610 1.390 . S
C2611 C2612 1.394 . S
C2611 C2617 1.465 1_655 S
C2612 C2607 1.399 . S
C2612 C2611 1.394 . S
C2612 C2613 1.516 1_655 S
C2613 C2612 1.516 1_455 S
C2613 C2614 1.502 . S
C2613 C2615 1.561 1_455 S
C2613 C2616 1.526 . S
C2614 H2598 0.959 . S
C2614 H2599 0.959 . S
C2614 H2600 0.961 . S
C2614 C2613 1.502 . S
C2615 H2601 0.960 . S
C2615 H2602 0.961 1_655 S
C2615 H2603 0.959 . S
C2615 C2613 1.561 1_655 S
C2616 C2613 1.526 . S
C2616 C2617 1.396 . S
C2616 C2621 1.390 . S
C2617 C2611 1.465 1_455 S
C2617 C2616 1.396 . S
C2617 C2618 1.399 . S
C2618 H2604 0.929 . S
C2618 C2617 1.399 . S
C2618 C2619 1.385 . S
C2619 H2605 0.931 . S
C2619 C2618 1.385 . S
C2619 C2620 1.389 . S
C2620 C2619 1.389 . S
C2620 C2621 1.387 . S
C2621 H2606 0.930 . S
C2621 C2616 1.390 . S
C2621 C2620 1.387 . S
H2622 C2634 0.930 . S
H2623 C2636 0.930 . S
H2624 C2637 0.930 . S
H2625 C2641 0.959 . S
H2626 C2641 0.959 . S
H2627 C2641 0.961 . S
H2628 C2642 0.960 . S
H2629 C2642 0.961 1_455 S
H2630 C2642 0.959 . S
H2631 C2645 0.929 . S
H2632 C2646 0.931 . S
H2633 C2648 0.930 . S
C2634 H2622 0.930 . S
C2634 C2635 1.399 . S
C2634 C2639 1.399 . S
C2635 C2634 1.399 . S
C2635 C2636 1.376 . S
C2636 H2623 0.930 . S
C2636 C2635 1.376 . S
C2636 C2637 1.388 . S
C2637 H2624 0.930 . S
C2637 C2636 1.388 . S
C2637 C2638 1.390 . S
C2638 C2637 1.390 . S
C2638 C2639 1.394 . S
C2638 C2644 1.465 1_655 S
C2639 C2634 1.399 . S
C2639 C2638 1.394 . S
C2639 C2640 1.516 1_655 S
C2640 C2639 1.516 1_455 S
C2640 C2641 1.502 . S
C2640 C2642 1.561 1_455 S
C2640 C2643 1.526 . S
C2641 H2625 0.959 . S
C2641 H2626 0.959 . S
C2641 H2627 0.961 . S
C2641 C2640 1.502 . S
C2642 H2628 0.960 . S
C2642 H2629 0.961 1_655 S
C2642 H2630 0.959 . S
C2642 C2640 1.561 1_655 S
C2643 C2640 1.526 . S
C2643 C2644 1.396 . S
C2643 C2648 1.390 . S
C2644 C2638 1.465 1_455 S
C2644 C2643 1.396 . S
C2644 C2645 1.399 . S
C2645 H2631 0.929 . S
C2645 C2644 1.399 . S
C2645 C2646 1.385 . S
C2646 H2632 0.931 . S
C2646 C2645 1.385 . S
C2646 C2647 1.389 . S
C2647 C2646 1.389 . S
C2647 C2648 1.387 . S
C2648 H2633 0.930 . S
C2648 C2643 1.390 . S
C2648 C2647 1.387 . S
H2649 C2661 0.930 . S
H2650 C2663 0.930 . S
H2651 C2664 0.930 . S
H2652 C2668 0.959 . S
H2653 C2668 0.959 . S
H2654 C2668 0.961 . S
H2655 C2669 0.960 . S
H2656 C2669 0.961 . S
H2657 C2669 0.959 . S
H2658 C2672 0.929 . S
H2659 C2673 0.931 . S
H2660 C2675 0.930 . S
C2661 H2649 0.930 . S
C2661 C2662 1.399 . S
C2661 C2666 1.399 . S
C2662 C2661 1.399 . S
C2662 C2663 1.376 . S
C2663 H2650 0.930 . S
C2663 C2662 1.376 . S
C2663 C2664 1.388 . S
C2664 H2651 0.930 . S
C2664 C2663 1.388 . S
C2664 C2665 1.390 . S
C2665 C2664 1.390 . S
C2665 C2666 1.394 . S
C2665 C2671 1.465 . S
C2666 C2661 1.399 . S
C2666 C2665 1.394 . S
C2666 C2667 1.516 . S
C2667 C2666 1.516 . S
C2667 C2668 1.502 . S
C2667 C2669 1.561 . S
C2667 C2670 1.526 . S
C2668 H2652 0.959 . S
C2668 H2653 0.959 . S
C2668 H2654 0.961 . S
C2668 C2667 1.502 . S
C2669 H2655 0.960 . S
C2669 H2656 0.961 . S
C2669 H2657 0.959 . S
C2669 C2667 1.561 . S
C2670 C2667 1.526 . S
C2670 C2671 1.396 . S
C2670 C2675 1.390 . S
C2671 C2665 1.465 . S
C2671 C2670 1.396 . S
C2671 C2672 1.399 . S
C2672 H2658 0.929 . S
C2672 C2671 1.399 . S
C2672 C2673 1.385 . S
C2673 H2659 0.931 . S
C2673 C2672 1.385 . S
C2673 C2674 1.389 . S
C2674 C2673 1.389 . S
C2674 C2675 1.387 . S
C2675 H2660 0.930 . S
C2675 C2670 1.390 . S
C2675 C2674 1.387 . S
H2676 C2688 0.930 . S
H2677 C2690 0.930 . S
H2678 C2691 0.930 . S
H2679 C2695 0.959 . S
H2680 C2695 0.959 . S
H2681 C2695 0.961 . S
H2682 C2696 0.960 . S
H2683 C2696 0.961 . S
H2684 C2696 0.959 . S
H2685 C2699 0.929 . S
H2686 C2700 0.931 . S
H2687 C2702 0.930 . S
C2688 H2676 0.930 . S
C2688 C2689 1.399 . S
C2688 C2693 1.399 . S
C2689 C2688 1.399 . S
C2689 C2690 1.376 . S
C2690 H2677 0.930 . S
C2690 C2689 1.376 . S
C2690 C2691 1.388 . S
C2691 H2678 0.930 . S
C2691 C2690 1.388 . S
C2691 C2692 1.390 . S
C2692 C2691 1.390 . S
C2692 C2693 1.394 . S
C2692 C2698 1.465 . S
C2693 C2688 1.399 . S
C2693 C2692 1.394 . S
C2693 C2694 1.516 . S
C2694 C2693 1.516 . S
C2694 C2695 1.502 . S
C2694 C2696 1.561 . S
C2694 C2697 1.526 . S
C2695 H2679 0.959 . S
C2695 H2680 0.959 . S
C2695 H2681 0.961 . S
C2695 C2694 1.502 . S
C2696 H2682 0.960 . S
C2696 H2683 0.961 . S
C2696 H2684 0.959 . S
C2696 C2694 1.561 . S
C2697 C2694 1.526 . S
C2697 C2698 1.396 . S
C2697 C2702 1.390 . S
C2698 C2692 1.465 . S
C2698 C2697 1.396 . S
C2698 C2699 1.399 . S
C2699 H2685 0.929 . S
C2699 C2698 1.399 . S
C2699 C2700 1.385 . S
C2700 H2686 0.931 . S
C2700 C2699 1.385 . S
C2700 C2701 1.389 . S
C2701 C2700 1.389 . S
C2701 C2702 1.387 . S
C2702 H2687 0.930 . S
C2702 C2697 1.390 . S
C2702 C2701 1.387 . S
H2703 C2715 0.930 . S
H2704 C2717 0.930 . S
H2705 C2718 0.930 . S
H2706 C2722 0.959 . S
H2707 C2722 0.959 . S
H2708 C2722 0.961 . S
H2709 C2723 0.960 . S
H2710 C2723 0.961 . S
H2711 C2723 0.959 . S
H2712 C2726 0.929 . S
H2713 C2727 0.931 . S
H2714 C2729 0.930 . S
C2715 H2703 0.930 . S
C2715 C2716 1.399 . S
C2715 C2720 1.399 . S
C2716 C2715 1.399 . S
C2716 C2717 1.376 . S
C2717 H2704 0.930 . S
C2717 C2716 1.376 . S
C2717 C2718 1.388 . S
C2718 H2705 0.930 . S
C2718 C2717 1.388 . S
C2718 C2719 1.390 . S
C2719 C2718 1.390 . S
C2719 C2720 1.394 . S
C2719 C2725 1.465 . S
C2720 C2715 1.399 . S
C2720 C2719 1.394 . S
C2720 C2721 1.516 . S
C2721 C2720 1.516 . S
C2721 C2722 1.502 . S
C2721 C2723 1.561 . S
C2721 C2724 1.526 . S
C2722 H2706 0.959 . S
C2722 H2707 0.959 . S
C2722 H2708 0.961 . S
C2722 C2721 1.502 . S
C2723 H2709 0.960 . S
C2723 H2710 0.961 . S
C2723 H2711 0.959 . S
C2723 C2721 1.561 . S
C2724 C2721 1.526 . S
C2724 C2725 1.396 . S
C2724 C2729 1.390 . S
C2725 C2719 1.465 . S
C2725 C2724 1.396 . S
C2725 C2726 1.399 . S
C2726 H2712 0.929 . S
C2726 C2725 1.399 . S
C2726 C2727 1.385 . S
C2727 H2713 0.931 . S
C2727 C2726 1.385 . S
C2727 C2728 1.389 . S
C2728 C2727 1.389 . S
C2728 C2729 1.387 . S
C2729 H2714 0.930 . S
C2729 C2724 1.390 . S
C2729 C2728 1.387 . S
H2730 C2742 0.930 . S
H2731 C2744 0.930 . S
H2732 C2745 0.930 . S
H2733 C2749 0.959 . S
H2734 C2749 0.959 . S
H2735 C2749 0.961 . S
H2736 C2750 0.960 . S
H2737 C2750 0.961 . S
H2738 C2750 0.959 . S
H2739 C2753 0.929 . S
H2740 C2754 0.931 . S
H2741 C2756 0.930 . S
C2742 H2730 0.930 . S
C2742 C2743 1.399 . S
C2742 C2747 1.399 . S
C2743 C2742 1.399 . S
C2743 C2744 1.376 . S
C2744 H2731 0.930 . S
C2744 C2743 1.376 . S
C2744 C2745 1.388 . S
C2745 H2732 0.930 . S
C2745 C2744 1.388 . S
C2745 C2746 1.390 . S
C2746 C2745 1.390 . S
C2746 C2747 1.394 . S
C2746 C2752 1.465 1_655 S
C2747 C2742 1.399 . S
C2747 C2746 1.394 . S
C2747 C2748 1.516 . S
C2748 C2747 1.516 . S
C2748 C2749 1.502 . S
C2748 C2750 1.561 1_655 S
C2748 C2751 1.526 1_655 S
C2749 H2733 0.959 . S
C2749 H2734 0.959 . S
C2749 H2735 0.961 . S
C2749 C2748 1.502 . S
C2750 H2736 0.960 . S
C2750 H2737 0.961 . S
C2750 H2738 0.959 . S
C2750 C2748 1.561 1_455 S
C2751 C2748 1.526 1_455 S
C2751 C2752 1.396 . S
C2751 C2756 1.390 . S
C2752 C2746 1.465 1_455 S
C2752 C2751 1.396 . S
C2752 C2753 1.399 . S
C2753 H2739 0.929 . S
C2753 C2752 1.399 . S
C2753 C2754 1.385 . S
C2754 H2740 0.931 . S
C2754 C2753 1.385 . S
C2754 C2755 1.389 . S
C2755 C2754 1.389 . S
C2755 C2756 1.387 . S
C2756 H2741 0.930 . S
C2756 C2751 1.390 . S
C2756 C2755 1.387 . S
H2757 C2769 0.930 . S
H2758 C2771 0.930 . S
H2759 C2772 0.930 . S
H2760 C2776 0.959 . S
H2761 C2776 0.959 . S
H2762 C2776 0.961 . S
H2763 C2777 0.960 . S
H2764 C2777 0.980 . S
H2765 C2777 0.959 . S
H2766 C2780 0.929 . S
H2767 C2781 0.931 . S
H2768 C2783 0.930 . S
C2769 H2757 0.930 . S
C2769 C2770 1.399 . S
C2769 C2774 1.399 . S
C2770 C2769 1.399 . S
C2770 C2771 1.376 . S
C2771 H2758 0.930 . S
C2771 C2770 1.376 . S
C2771 C2772 1.388 . S
C2772 H2759 0.930 . S
C2772 C2771 1.388 . S
C2772 C2773 1.390 . S
C2773 C2772 1.390 . S
C2773 C2774 1.394 . S
C2773 C2779 1.465 1_655 S
C2774 C2769 1.399 . S
C2774 C2773 1.394 . S
C2774 C2775 1.516 1_655 S
C2775 C2774 1.516 1_455 S
C2775 C2776 1.502 . S
C2775 C2777 1.561 1_455 S
C2775 C2778 1.526 . S
C2776 H2760 0.959 . S
C2776 H2761 0.959 . S
C2776 H2762 0.961 . S
C2776 C2775 1.502 . S
C2777 H2763 0.960 . S
C2777 H2764 0.980 . S
C2777 H2765 0.959 . S
C2777 C2775 1.561 1_655 S
C2778 C2775 1.526 . S
C2778 C2779 1.396 . S
C2778 C2783 1.390 . S
C2779 C2773 1.465 1_455 S
C2779 C2778 1.396 . S
C2779 C2780 1.399 . S
C2780 H2766 0.929 . S
C2780 C2779 1.399 . S
C2780 C2781 1.385 . S
C2781 H2767 0.931 . S
C2781 C2780 1.385 . S
C2781 C2782 1.389 . S
C2782 C2781 1.389 . S
C2782 C2783 1.387 . S
C2783 H2768 0.930 . S
C2783 C2778 1.390 . S
C2783 C2782 1.387 . S
H2784 C2796 0.930 . S
H2785 C2798 0.930 . S
H2786 C2799 0.930 . S
H2787 C2803 0.959 1_565 S
H2788 C2803 0.959 . S
H2789 C2803 0.961 1_565 S
H2790 C2804 0.960 . S
H2791 C2804 0.961 . S
H2792 C2804 0.959 . S
H2793 C2807 0.929 . S
H2794 C2808 0.931 . S
H2795 C2810 0.930 . S
C2796 H2784 0.930 . S
C2796 C2797 1.399 . S
C2796 C2801 1.399 . S
C2797 C2796 1.399 . S
C2797 C2798 1.376 . S
C2798 H2785 0.930 . S
C2798 C2797 1.376 . S
C2798 C2799 1.388 . S
C2799 H2786 0.930 . S
C2799 C2798 1.388 . S
C2799 C2800 1.390 . S
C2800 C2799 1.390 . S
C2800 C2801 1.394 . S
C2800 C2806 1.465 1_565 S
C2801 C2796 1.399 . S
C2801 C2800 1.394 . S
C2801 C2802 1.516 1_565 S
C2802 C2801 1.516 1_545 S
C2802 C2803 1.502 . S
C2802 C2804 1.561 . S
C2802 C2805 1.526 . S
C2803 H2787 0.959 1_545 S
C2803 H2788 0.959 . S
C2803 H2789 0.961 1_545 S
C2803 C2802 1.502 . S
C2804 H2790 0.960 . S
C2804 H2791 0.961 . S
C2804 H2792 0.959 . S
C2804 C2802 1.561 . S
C2805 C2802 1.526 . S
C2805 C2806 1.396 . S
C2805 C2810 1.390 . S
C2806 C2800 1.465 1_545 S
C2806 C2805 1.396 . S
C2806 C2807 1.399 . S
C2807 H2793 0.929 . S
C2807 C2806 1.399 . S
C2807 C2808 1.385 . S
C2808 H2794 0.931 . S
C2808 C2807 1.385 . S
C2808 C2809 1.389 . S
C2809 C2808 1.389 . S
C2809 C2810 1.387 . S
C2810 H2795 0.930 . S
C2810 C2805 1.390 . S
C2810 C2809 1.387 . S
H2811 C2823 0.930 . S
H2812 C2825 0.930 . S
H2813 C2826 0.930 . S
H2814 C2830 0.959 . S
H2815 C2830 0.959 . S
H2816 C2830 0.961 . S
H2817 C2831 0.960 . S
H2818 C2831 0.961 . S
H2819 C2831 0.959 . S
H2820 C2834 0.929 . S
H2821 C2835 0.931 . S
H2822 C2837 0.930 . S
C2823 H2811 0.930 . S
C2823 C2824 1.399 . S
C2823 C2828 1.399 . S
C2824 C2823 1.399 . S
C2824 C2825 1.376 . S
C2825 H2812 0.930 . S
C2825 C2824 1.376 . S
C2825 C2826 1.388 . S
C2826 H2813 0.930 . S
C2826 C2825 1.388 . S
C2826 C2827 1.390 . S
C2827 C2826 1.390 . S
C2827 C2828 1.394 . S
C2827 C2833 1.465 . S
C2828 C2823 1.399 . S
C2828 C2827 1.394 . S
C2828 C2829 1.516 . S
C2829 C2828 1.516 . S
C2829 C2830 1.502 . S
C2829 C2831 1.561 . S
C2829 C2832 1.526 . S
C2830 H2814 0.959 . S
C2830 H2815 0.959 . S
C2830 H2816 0.961 . S
C2830 C2829 1.502 . S
C2831 H2817 0.960 . S
C2831 H2818 0.961 . S
C2831 H2819 0.959 . S
C2831 C2829 1.561 . S
C2832 C2829 1.526 . S
C2832 C2833 1.396 . S
C2832 C2837 1.390 . S
C2833 C2827 1.465 . S
C2833 C2832 1.396 . S
C2833 C2834 1.399 . S
C2834 H2820 0.929 . S
C2834 C2833 1.399 . S
C2834 C2835 1.385 . S
C2835 H2821 0.931 . S
C2835 C2834 1.385 . S
C2835 C2836 1.389 . S
C2836 C2835 1.389 . S
C2836 C2837 1.387 . S
C2837 H2822 0.930 . S
C2837 C2832 1.390 . S
C2837 C2836 1.387 . S
H2838 C2850 0.930 . S
H2839 C2852 0.930 . S
H2840 C2853 0.930 . S
H2841 C2857 0.959 1_565 S
H2842 C2857 0.959 . S
H2843 C2857 0.961 1_565 S
H2844 C2858 0.960 . S
H2845 C2858 0.961 . S
H2846 C2858 0.959 . S
H2847 C2861 0.929 . S
H2848 C2862 0.931 . S
H2849 C2864 0.930 . S
C2850 H2838 0.930 . S
C2850 C2851 1.399 . S
C2850 C2855 1.399 . S
C2851 C2850 1.399 . S
C2851 C2852 1.376 . S
C2852 H2839 0.930 . S
C2852 C2851 1.376 . S
C2852 C2853 1.388 . S
C2853 H2840 0.930 . S
C2853 C2852 1.388 . S
C2853 C2854 1.390 . S
C2854 C2853 1.390 . S
C2854 C2855 1.394 . S
C2854 C2860 1.465 1_565 S
C2855 C2850 1.399 . S
C2855 C2854 1.394 . S
C2855 C2856 1.516 1_565 S
C2856 C2855 1.516 1_545 S
C2856 C2857 1.502 . S
C2856 C2858 1.561 . S
C2856 C2859 1.526 . S
C2857 H2841 0.959 1_545 S
C2857 H2842 0.959 . S
C2857 H2843 0.961 1_545 S
C2857 C2856 1.502 . S
C2858 H2844 0.960 . S
C2858 H2845 0.961 . S
C2858 H2846 0.959 . S
C2858 C2856 1.561 . S
C2859 C2856 1.526 . S
C2859 C2860 1.396 . S
C2859 C2864 1.390 . S
C2860 C2854 1.465 1_545 S
C2860 C2859 1.396 . S
C2860 C2861 1.399 . S
C2861 H2847 0.929 . S
C2861 C2860 1.399 . S
C2861 C2862 1.385 . S
C2862 H2848 0.931 . S
C2862 C2861 1.385 . S
C2862 C2863 1.389 . S
C2863 C2862 1.389 . S
C2863 C2864 1.387 . S
C2864 H2849 0.930 . S
C2864 C2859 1.390 . S
C2864 C2863 1.387 . S
H2865 C2877 0.930 . S
H2866 C2879 0.930 . S
H2867 C2880 0.930 . S
H2868 C2884 0.959 . S
H2869 C2884 0.959 . S
H2870 C2884 0.961 . S
H2871 C2885 0.960 . S
H2872 C2885 0.961 . S
H2873 C2885 0.959 . S
H2874 C2888 0.929 . S
H2875 C2889 0.931 . S
H2876 C2891 0.930 . S
C2877 H2865 0.930 . S
C2877 C2878 1.399 . S
C2877 C2882 1.399 . S
C2878 C2877 1.399 . S
C2878 C2879 1.376 . S
C2879 H2866 0.930 . S
C2879 C2878 1.376 . S
C2879 C2880 1.388 . S
C2880 H2867 0.930 . S
C2880 C2879 1.388 . S
C2880 C2881 1.390 . S
C2881 C2880 1.390 . S
C2881 C2882 1.394 . S
C2881 C2887 1.465 1_554 S
C2882 C2877 1.399 . S
C2882 C2881 1.394 . S
C2882 C2883 1.516 1_554 S
C2883 C2882 1.516 1_556 S
C2883 C2884 1.502 . S
C2883 C2885 1.561 1_556 S
C2883 C2886 1.526 . S
C2884 H2868 0.959 . S
C2884 H2869 0.959 . S
C2884 H2870 0.961 . S
C2884 C2883 1.502 . S
C2885 H2871 0.960 . S
C2885 H2872 0.961 . S
C2885 H2873 0.959 . S
C2885 C2883 1.561 1_554 S
C2886 C2883 1.526 . S
C2886 C2887 1.396 . S
C2886 C2891 1.390 . S
C2887 C2881 1.465 1_556 S
C2887 C2886 1.396 . S
C2887 C2888 1.399 . S
C2888 H2874 0.929 . S
C2888 C2887 1.399 . S
C2888 C2889 1.385 . S
C2889 H2875 0.931 . S
C2889 C2888 1.385 . S
C2889 C2890 1.389 . S
C2890 C2889 1.389 . S
C2890 C2891 1.387 . S
C2891 H2876 0.930 . S
C2891 C2886 1.390 . S
C2891 C2890 1.387 . S
H2892 C2904 0.930 . S
H2893 C2906 0.930 . S
H2894 C2907 0.930 . S
H2895 C2911 0.959 . S
H2896 C2911 0.959 . S
H2897 C2911 0.961 . S
H2898 C2912 0.960 . S
H2899 C2912 0.961 . S
H2900 C2912 0.959 . S
H2901 C2915 0.929 1_565 S
H2902 C2916 0.931 . S
H2903 C2918 0.930 . S
C2904 H2892 0.930 . S
C2904 C2905 1.399 . S
C2904 C2909 1.399 . S
C2905 C2904 1.399 . S
C2905 C2906 1.376 . S
C2906 H2893 0.930 . S
C2906 C2905 1.376 . S
C2906 C2907 1.388 . S
C2907 H2894 0.930 . S
C2907 C2906 1.388 . S
C2907 C2908 1.390 . S
C2908 C2907 1.390 . S
C2908 C2909 1.394 . S
C2908 C2914 1.465 1_565 S
C2909 C2904 1.399 . S
C2909 C2908 1.394 . S
C2909 C2910 1.516 1_565 S
C2910 C2909 1.516 1_545 S
C2910 C2911 1.502 . S
C2910 C2912 1.561 . S
C2910 C2913 1.526 . S
C2911 H2895 0.959 . S
C2911 H2896 0.959 . S
C2911 H2897 0.961 . S
C2911 C2910 1.502 . S
C2912 H2898 0.960 . S
C2912 H2899 0.961 . S
C2912 H2900 0.959 . S
C2912 C2910 1.561 . S
C2913 C2910 1.526 . S
C2913 C2914 1.396 . S
C2913 C2918 1.390 . S
C2914 C2908 1.465 1_545 S
C2914 C2913 1.396 . S
C2914 C2915 1.399 . S
C2915 H2901 0.929 1_545 S
C2915 C2914 1.399 . S
C2915 C2916 1.385 . S
C2916 H2902 0.931 . S
C2916 C2915 1.385 . S
C2916 C2917 1.389 . S
C2917 C2916 1.389 . S
C2917 C2918 1.387 . S
C2918 H2903 0.930 . S
C2918 C2913 1.390 . S
C2918 C2917 1.387 . S
H2919 C2931 0.930 . S
H2920 C2933 0.930 . S
H2921 C2934 0.930 . S
H2922 C2938 0.959 . S
H2923 C2938 0.959 . S
H2924 C2938 0.961 . S
H2925 C2939 0.960 . S
H2926 C2939 0.961 . S
H2927 C2939 0.959 . S
H2928 C2942 0.929 . S
H2929 C2943 0.931 . S
H2930 C2945 0.930 . S
C2931 H2919 0.930 . S
C2931 C2932 1.399 . S
C2931 C2936 1.399 . S
C2932 C2931 1.399 . S
C2932 C2933 1.376 . S
C2933 H2920 0.930 . S
C2933 C2932 1.376 . S
C2933 C2934 1.388 . S
C2934 H2921 0.930 . S
C2934 C2933 1.388 . S
C2934 C2935 1.390 . S
C2935 C2934 1.390 . S
C2935 C2936 1.394 . S
C2935 C2941 1.465 . S
C2936 C2931 1.399 . S
C2936 C2935 1.394 . S
C2936 C2937 1.516 . S
C2937 C2936 1.516 . S
C2937 C2938 1.502 . S
C2937 C2939 1.561 . S
C2937 C2940 1.526 . S
C2938 H2922 0.959 . S
C2938 H2923 0.959 . S
C2938 H2924 0.961 . S
C2938 C2937 1.502 . S
C2939 H2925 0.960 . S
C2939 H2926 0.961 . S
C2939 H2927 0.959 . S
C2939 C2937 1.561 . S
C2940 C2937 1.526 . S
C2940 C2941 1.396 . S
C2940 C2945 1.390 . S
C2941 C2935 1.465 . S
C2941 C2940 1.396 . S
C2941 C2942 1.399 . S
C2942 H2928 0.929 . S
C2942 C2941 1.399 . S
C2942 C2943 1.385 . S
C2943 H2929 0.931 . S
C2943 C2942 1.385 . S
C2943 C2944 1.389 . S
C2944 C2943 1.389 . S
C2944 C2945 1.387 . S
C2945 H2930 0.930 . S
C2945 C2940 1.390 . S
C2945 C2944 1.387 . S
H2946 C2958 0.930 . S
H2947 C2960 0.930 . S
H2948 C2961 0.930 . S
H2949 C2965 0.959 . S
H2950 C2965 0.959 . S
H2951 C2965 0.961 . S
H2952 C2966 0.960 . S
H2953 C2966 0.961 . S
H2954 C2966 0.959 . S
H2955 C2969 0.929 1_545 S
H2956 C2970 0.931 . S
H2957 C2972 0.930 . S
C2958 H2946 0.930 . S
C2958 C2959 1.399 . S
C2958 C2963 1.399 . S
C2959 C2958 1.399 . S
C2959 C2960 1.376 . S
C2960 H2947 0.930 . S
C2960 C2959 1.376 . S
C2960 C2961 1.388 . S
C2961 H2948 0.930 . S
C2961 C2960 1.388 . S
C2961 C2962 1.390 . S
C2962 C2961 1.390 . S
C2962 C2963 1.394 . S
C2962 C2968 1.465 1_545 S
C2963 C2958 1.399 . S
C2963 C2962 1.394 . S
C2963 C2964 1.516 1_545 S
C2964 C2963 1.516 1_565 S
C2964 C2965 1.502 . S
C2964 C2966 1.561 . S
C2964 C2967 1.526 . S
C2965 H2949 0.959 . S
C2965 H2950 0.959 . S
C2965 H2951 0.961 . S
C2965 C2964 1.502 . S
C2966 H2952 0.960 . S
C2966 H2953 0.961 . S
C2966 H2954 0.959 . S
C2966 C2964 1.561 . S
C2967 C2964 1.526 . S
C2967 C2968 1.396 . S
C2967 C2972 1.390 . S
C2968 C2962 1.465 1_565 S
C2968 C2967 1.396 . S
C2968 C2969 1.399 . S
C2969 H2955 0.929 1_565 S
C2969 C2968 1.399 . S
C2969 C2970 1.385 . S
C2970 H2956 0.931 . S
C2970 C2969 1.385 . S
C2970 C2971 1.389 . S
C2971 C2970 1.389 . S
C2971 C2972 1.387 . S
C2972 H2957 0.930 . S
C2972 C2967 1.390 . S
C2972 C2971 1.387 . S
H2973 C2985 0.930 . S
H2974 C2987 0.930 . S
H2975 C2988 0.930 1_554 S
H2976 C2992 0.959 . S
H2977 C2992 0.959 . S
H2978 C2992 0.961 . S
H2979 C2993 0.960 1_556 S
H2980 C2993 0.961 . S
H2981 C2993 0.959 . S
H2982 C2996 0.929 . S
H2983 C2997 0.931 . S
H2984 C2999 0.930 . S
C2985 H2973 0.930 . S
C2985 C2986 1.399 . S
C2985 C2990 1.399 . S
C2986 C2985 1.399 . S
C2986 C2987 1.376 . S
C2987 H2974 0.930 . S
C2987 C2986 1.376 . S
C2987 C2988 1.388 . S
C2988 H2975 0.930 1_556 S
C2988 C2987 1.388 . S
C2988 C2989 1.390 . S
C2989 C2988 1.390 . S
C2989 C2990 1.394 . S
C2989 C2995 1.465 1_556 S
C2990 C2985 1.399 . S
C2990 C2989 1.394 . S
C2990 C2991 1.516 . S
C2991 C2990 1.516 . S
C2991 C2992 1.502 . S
C2991 C2993 1.561 1_556 S
C2991 C2994 1.526 1_556 S
C2992 H2976 0.959 . S
C2992 H2977 0.959 . S
C2992 H2978 0.961 . S
C2992 C2991 1.502 . S
C2993 H2979 0.960 1_554 S
C2993 H2980 0.961 . S
C2993 H2981 0.959 . S
C2993 C2991 1.561 1_554 S
C2994 C2991 1.526 1_554 S
C2994 C2995 1.396 . S
C2994 C2999 1.390 . S
C2995 C2989 1.465 1_554 S
C2995 C2994 1.396 . S
C2995 C2996 1.399 . S
C2996 H2982 0.929 . S
C2996 C2995 1.399 . S
C2996 C2997 1.385 . S
C2997 H2983 0.931 . S
C2997 C2996 1.385 . S
C2997 C2998 1.389 . S
C2998 C2997 1.389 . S
C2998 C2999 1.387 . S
C2999 H2984 0.930 . S
C2999 C2994 1.390 . S
C2999 C2998 1.387 . S
H3000 C3012 0.930 . S
H3001 C3014 0.930 . S
H3002 C3015 0.930 . S
H3003 C3019 0.959 . S
H3004 C3019 0.959 . S
H3005 C3019 0.961 . S
H3006 C3020 0.960 . S
H3007 C3020 0.961 . S
H3008 C3020 0.959 . S
H3009 C3023 0.929 . S
H3010 C3024 0.931 . S
H3011 C3026 0.930 . S
C3012 H3000 0.930 . S
C3012 C3013 1.399 . S
C3012 C3017 1.399 . S
C3013 C3012 1.399 . S
C3013 C3014 1.376 . S
C3014 H3001 0.930 . S
C3014 C3013 1.376 . S
C3014 C3015 1.388 . S
C3015 H3002 0.930 . S
C3015 C3014 1.388 . S
C3015 C3016 1.390 . S
C3016 C3015 1.390 . S
C3016 C3017 1.394 . S
C3016 C3022 1.465 . S
C3017 C3012 1.399 . S
C3017 C3016 1.394 . S
C3017 C3018 1.516 . S
C3018 C3017 1.516 . S
C3018 C3019 1.502 . S
C3018 C3020 1.561 . S
C3018 C3021 1.526 . S
C3019 H3003 0.959 . S
C3019 H3004 0.959 . S
C3019 H3005 0.961 . S
C3019 C3018 1.502 . S
C3020 H3006 0.960 . S
C3020 H3007 0.961 . S
C3020 H3008 0.959 . S
C3020 C3018 1.561 . S
C3021 C3018 1.526 . S
C3021 C3022 1.396 . S
C3021 C3026 1.390 . S
C3022 C3016 1.465 . S
C3022 C3021 1.396 . S
C3022 C3023 1.399 . S
C3023 H3009 0.929 . S
C3023 C3022 1.399 . S
C3023 C3024 1.385 . S
C3024 H3010 0.931 . S
C3024 C3023 1.385 . S
C3024 C3025 1.389 . S
C3025 C3024 1.389 . S
C3025 C3026 1.387 . S
C3026 H3011 0.930 . S
C3026 C3021 1.390 . S
C3026 C3025 1.387 . S
H3027 C3039 0.930 . S
H3028 C3041 0.930 . S
H3029 C3042 0.930 . S
H3030 C3046 0.959 . S
H3031 C3046 0.959 . S
H3032 C3046 0.961 . S
H3033 C3047 0.955 1_554 S
H3034 C3047 0.971 . S
H3035 C3047 0.949 1_554 S
H3036 C3050 0.929 1_554 S
H3037 C3051 0.931 . S
H3038 C3053 0.930 . S
C3039 H3027 0.930 . S
C3039 C3040 1.399 . S
C3039 C3044 1.399 . S
C3040 C3039 1.399 . S
C3040 C3041 1.376 . S
C3041 H3028 0.930 . S
C3041 C3040 1.376 . S
C3041 C3042 1.388 . S
C3042 H3029 0.930 . S
C3042 C3041 1.388 . S
C3042 C3043 1.390 . S
C3043 C3042 1.390 . S
C3043 C3044 1.394 . S
C3043 C3049 1.431 1_554 S
C3044 C3039 1.399 . S
C3044 C3043 1.394 . S
C3044 C3045 1.516 1_554 S
C3045 C3044 1.516 1_556 S
C3045 C3046 1.502 . S
C3045 C3047 1.566 . S
C3045 C3048 1.526 . S
C3046 H3030 0.959 . S
C3046 H3031 0.959 . S
C3046 H3032 0.961 . S
C3046 C3045 1.502 . S
C3047 H3033 0.955 1_556 S
C3047 H3034 0.971 . S
C3047 H3035 0.949 1_556 S
C3047 C3045 1.566 . S
C3048 C3045 1.526 . S
C3048 C3049 1.432 . S
C3048 C3053 1.390 . S
C3049 C3043 1.431 1_556 S
C3049 C3048 1.432 . S
C3049 C3050 1.404 . S
C3050 H3036 0.929 1_556 S
C3050 C3049 1.404 . S
C3050 C3051 1.385 . S
C3051 H3037 0.931 . S
C3051 C3050 1.385 . S
C3051 C3052 1.389 . S
C3052 C3051 1.389 . S
C3052 C3053 1.387 . S
C3053 H3038 0.930 . S
C3053 C3048 1.390 . S
C3053 C3052 1.387 . S
H3054 C3066 0.930 . S
H3055 C3068 0.930 . S
H3056 C3069 0.930 . S
H3057 C3073 0.959 . S
H3058 C3073 0.959 . S
H3059 C3073 0.961 . S
H3060 C3074 0.960 . S
H3061 C3074 0.961 . S
H3062 C3074 0.959 . S
H3063 C3077 0.929 . S
H3064 C3078 0.931 . S
H3065 C3080 0.930 . S
C3066 H3054 0.930 . S
C3066 C3067 1.399 . S
C3066 C3071 1.399 . S
C3067 C3066 1.399 . S
C3067 C3068 1.376 . S
C3068 H3055 0.930 . S
C3068 C3067 1.376 . S
C3068 C3069 1.388 . S
C3069 H3056 0.930 . S
C3069 C3068 1.388 . S
C3069 C3070 1.390 . S
C3070 C3069 1.390 . S
C3070 C3071 1.394 . S
C3070 C3076 1.465 . S
C3071 C3066 1.399 . S
C3071 C3070 1.394 . S
C3071 C3072 1.516 . S
C3072 C3071 1.516 . S
C3072 C3073 1.502 . S
C3072 C3074 1.561 . S
C3072 C3075 1.526 . S
C3073 H3057 0.959 . S
C3073 H3058 0.959 . S
C3073 H3059 0.961 . S
C3073 C3072 1.502 . S
C3074 H3060 0.960 . S
C3074 H3061 0.961 . S
C3074 H3062 0.959 . S
C3074 C3072 1.561 . S
C3075 C3072 1.526 . S
C3075 C3076 1.396 . S
C3075 C3080 1.390 . S
C3076 C3070 1.465 . S
C3076 C3075 1.396 . S
C3076 C3077 1.399 . S
C3077 H3063 0.929 . S
C3077 C3076 1.399 . S
C3077 C3078 1.385 . S
C3078 H3064 0.931 . S
C3078 C3077 1.385 . S
C3078 C3079 1.389 . S
C3079 C3078 1.389 . S
C3079 C3080 1.387 . S
C3080 H3065 0.930 . S
C3080 C3075 1.390 . S
C3080 C3079 1.387 . S
H3081 C3093 0.930 . S
H3082 C3095 0.930 . S
H3083 C3096 0.930 . S
H3084 C3100 0.959 . S
H3085 C3100 0.959 . S
H3086 C3100 0.961 . S
H3087 C3101 0.960 . S
H3088 C3101 0.961 . S
H3089 C3101 0.959 . S
H3090 C3104 0.929 . S
H3091 C3105 0.931 . S
H3092 C3107 0.930 . S
C3093 H3081 0.930 . S
C3093 C3094 1.399 . S
C3093 C3098 1.399 . S
C3094 C3093 1.399 . S
C3094 C3095 1.376 . S
C3095 H3082 0.930 . S
C3095 C3094 1.376 . S
C3095 C3096 1.388 . S
C3096 H3083 0.930 . S
C3096 C3095 1.388 . S
C3096 C3097 1.390 . S
C3097 C3096 1.390 . S
C3097 C3098 1.394 . S
C3097 C3103 1.465 . S
C3098 C3093 1.399 . S
C3098 C3097 1.394 . S
C3098 C3099 1.516 . S
C3099 C3098 1.516 . S
C3099 C3100 1.502 . S
C3099 C3101 1.561 . S
C3099 C3102 1.526 . S
C3100 H3084 0.959 . S
C3100 H3085 0.959 . S
C3100 H3086 0.961 . S
C3100 C3099 1.502 . S
C3101 H3087 0.960 . S
C3101 H3088 0.961 . S
C3101 H3089 0.959 . S
C3101 C3099 1.561 . S
C3102 C3099 1.526 . S
C3102 C3103 1.396 . S
C3102 C3107 1.390 . S
C3103 C3097 1.465 . S
C3103 C3102 1.396 . S
C3103 C3104 1.399 . S
C3104 H3090 0.929 . S
C3104 C3103 1.399 . S
C3104 C3105 1.385 . S
C3105 H3091 0.931 . S
C3105 C3104 1.385 . S
C3105 C3106 1.389 . S
C3106 C3105 1.389 . S
C3106 C3107 1.387 . S
C3107 H3092 0.930 . S
C3107 C3102 1.390 . S
C3107 C3106 1.387 . S
H3108 C3120 0.930 . S
H3109 C3122 0.930 . S
H3110 C3123 0.930 . S
H3111 C3127 0.959 . S
H3112 C3127 0.959 . S
H3113 C3127 0.961 . S
H3114 C3128 0.960 . S
H3115 C3128 0.961 . S
H3116 C3128 0.959 . S
H3117 C3131 0.929 . S
H3118 C3132 0.931 . S
H3119 C3134 0.930 . S
C3120 H3108 0.930 . S
C3120 C3121 1.399 . S
C3120 C3125 1.399 . S
C3121 C3120 1.399 . S
C3121 C3122 1.376 . S
C3122 H3109 0.930 . S
C3122 C3121 1.376 . S
C3122 C3123 1.388 . S
C3123 H3110 0.930 . S
C3123 C3122 1.388 . S
C3123 C3124 1.390 . S
C3124 C3123 1.390 . S
C3124 C3125 1.394 . S
C3124 C3130 1.465 . S
C3125 C3120 1.399 . S
C3125 C3124 1.394 . S
C3125 C3126 1.516 . S
C3126 C3125 1.516 . S
C3126 C3127 1.502 . S
C3126 C3128 1.561 . S
C3126 C3129 1.526 . S
C3127 H3111 0.959 . S
C3127 H3112 0.959 . S
C3127 H3113 0.961 . S
C3127 C3126 1.502 . S
C3128 H3114 0.960 . S
C3128 H3115 0.961 . S
C3128 H3116 0.959 . S
C3128 C3126 1.561 . S
C3129 C3126 1.526 . S
C3129 C3130 1.396 . S
C3129 C3134 1.390 . S
C3130 C3124 1.465 . S
C3130 C3129 1.396 . S
C3130 C3131 1.399 . S
C3131 H3117 0.929 . S
C3131 C3130 1.399 . S
C3131 C3132 1.385 . S
C3132 H3118 0.931 . S
C3132 C3131 1.385 . S
C3132 C3133 1.389 . S
C3133 C3132 1.389 . S
C3133 C3134 1.387 . S
C3134 H3119 0.930 . S
C3134 C3129 1.390 . S
C3134 C3133 1.387 . S
H3135 C3147 0.930 . S
H3136 C3149 0.930 . S
H3137 C3150 0.932 . S
H3138 C3154 0.959 . S
H3139 C3154 0.959 . S
H3140 C3154 0.961 . S
H3141 C3155 0.957 . S
H3142 C3155 0.961 . S
H3143 C3155 0.959 . S
H3144 C3158 0.929 . S
H3145 C3159 0.931 . S
H3146 C3161 0.930 . S
C3147 H3135 0.930 . S
C3147 C3148 1.399 . S
C3147 C3152 1.399 . S
C3148 C3147 1.399 . S
C3148 C3149 1.376 . S
C3149 H3136 0.930 . S
C3149 C3148 1.376 . S
C3149 C3150 1.388 . S
C3150 H3137 0.932 . S
C3150 C3149 1.388 . S
C3150 C3151 1.390 . S
C3151 C3150 1.390 . S
C3151 C3152 1.394 . S
C3151 C3157 1.465 1_554 S
C3152 C3147 1.399 . S
C3152 C3151 1.394 . S
C3152 C3153 1.516 . S
C3153 C3152 1.516 . S
C3153 C3154 1.502 . S
C3153 C3155 1.561 1_554 S
C3153 C3156 1.526 1_554 S
C3154 H3138 0.959 . S
C3154 H3139 0.959 . S
C3154 H3140 0.961 . S
C3154 C3153 1.502 . S
C3155 H3141 0.957 . S
C3155 H3142 0.961 . S
C3155 H3143 0.959 . S
C3155 C3153 1.561 1_556 S
C3156 C3153 1.526 1_556 S
C3156 C3157 1.396 . S
C3156 C3161 1.390 . S
C3157 C3151 1.465 1_556 S
C3157 C3156 1.396 . S
C3157 C3158 1.399 . S
C3158 H3144 0.929 . S
C3158 C3157 1.399 . S
C3158 C3159 1.385 . S
C3159 H3145 0.931 . S
C3159 C3158 1.385 . S
C3159 C3160 1.389 . S
C3160 C3159 1.389 . S
C3160 C3161 1.387 . S
C3161 H3146 0.930 . S
C3161 C3156 1.390 . S
C3161 C3160 1.387 . S
H3162 C3174 0.930 . S
H3163 C3176 0.930 . S
H3164 C3177 0.930 . S
H3165 C3181 0.959 . S
H3166 C3181 0.959 . S
H3167 C3181 0.961 . S
H3168 C3182 0.960 . S
H3169 C3182 0.961 . S
H3170 C3182 0.959 . S
H3171 C3185 0.929 . S
H3172 C3186 0.931 . S
H3173 C3188 0.930 . S
C3174 H3162 0.930 . S
C3174 C3175 1.399 . S
C3174 C3179 1.399 . S
C3175 C3174 1.399 . S
C3175 C3176 1.376 . S
C3176 H3163 0.930 . S
C3176 C3175 1.376 . S
C3176 C3177 1.388 . S
C3177 H3164 0.930 . S
C3177 C3176 1.388 . S
C3177 C3178 1.390 . S
C3178 C3177 1.390 . S
C3178 C3179 1.394 . S
C3178 C3184 1.465 . S
C3179 C3174 1.399 . S
C3179 C3178 1.394 . S
C3179 C3180 1.516 . S
C3180 C3179 1.516 . S
C3180 C3181 1.502 . S
C3180 C3182 1.561 . S
C3180 C3183 1.526 . S
C3181 H3165 0.959 . S
C3181 H3166 0.959 . S
C3181 H3167 0.961 . S
C3181 C3180 1.502 . S
C3182 H3168 0.960 . S
C3182 H3169 0.961 . S
C3182 H3170 0.959 . S
C3182 C3180 1.561 . S
C3183 C3180 1.526 . S
C3183 C3184 1.396 . S
C3183 C3188 1.390 . S
C3184 C3178 1.465 . S
C3184 C3183 1.396 . S
C3184 C3185 1.399 . S
C3185 H3171 0.929 . S
C3185 C3184 1.399 . S
C3185 C3186 1.385 . S
C3186 H3172 0.931 . S
C3186 C3185 1.385 . S
C3186 C3187 1.389 . S
C3187 C3186 1.389 . S
C3187 C3188 1.387 . S
C3188 H3173 0.930 . S
C3188 C3183 1.390 . S
C3188 C3187 1.387 . S
H3189 C3201 0.930 . S
H3190 C3203 0.930 . S
H3191 C3204 0.930 . S
H3192 C3208 0.959 . S
H3193 C3208 0.959 . S
H3194 C3208 0.961 . S
H3195 C3209 0.960 . S
H3196 C3209 0.961 . S
H3197 C3209 0.959 . S
H3198 C3212 0.929 . S
H3199 C3213 0.931 . S
H3200 C3215 0.930 . S
C3201 H3189 0.930 . S
C3201 C3202 1.399 . S
C3201 C3206 1.399 . S
C3202 C3201 1.399 . S
C3202 C3203 1.376 . S
C3203 H3190 0.930 . S
C3203 C3202 1.376 . S
C3203 C3204 1.388 . S
C3204 H3191 0.930 . S
C3204 C3203 1.388 . S
C3204 C3205 1.390 . S
C3205 C3204 1.390 . S
C3205 C3206 1.394 . S
C3205 C3211 1.465 . S
C3206 C3201 1.399 . S
C3206 C3205 1.394 . S
C3206 C3207 1.516 . S
C3207 C3206 1.516 . S
C3207 C3208 1.502 . S
C3207 C3209 1.561 . S
C3207 C3210 1.526 . S
C3208 H3192 0.959 . S
C3208 H3193 0.959 . S
C3208 H3194 0.961 . S
C3208 C3207 1.502 . S
C3209 H3195 0.960 . S
C3209 H3196 0.961 . S
C3209 H3197 0.959 . S
C3209 C3207 1.561 . S
C3210 C3207 1.526 . S
C3210 C3211 1.396 . S
C3210 C3215 1.390 . S
C3211 C3205 1.465 . S
C3211 C3210 1.396 . S
C3211 C3212 1.399 . S
C3212 H3198 0.929 . S
C3212 C3211 1.399 . S
C3212 C3213 1.385 . S
C3213 H3199 0.931 . S
C3213 C3212 1.385 . S
C3213 C3214 1.389 . S
C3214 C3213 1.389 . S
C3214 C3215 1.387 . S
C3215 H3200 0.930 . S
C3215 C3210 1.390 . S
C3215 C3214 1.387 . S
C1069 N5 1.760 . S
C1081 N797 1.709 . S
C1096 N302 1.707 . S
C1108 N38 1.757 . S
C1123 N863 1.746 . S
C1135 N71 1.715 . S
C1150 N104 1.736 . S
C1162 N368 1.740 . S
C1177 N929 1.720 . S
C1189 N137 1.740 . S
C1204 N434 1.709 . S
C1216 N170 1.754 . S
C1231 N203 1.755 . S
C1243 N995 1.718 . S
C1258 N236 1.755 . S
C1270 N500 1.719 . S
C1285 N269 1.755 . S
C1297 N533 1.709 . S
C1312 N335 1.746 . S
C1324 N599 1.715 . S
C1339 N665 1.755 . S
C1351 N401 1.719 . S
C1366 N467 1.715 . S
C1378 N731 1.746 . S
C1393 N566 1.722 . S
C1405 N830 1.752 . S
C1420 N896 1.733 . S
C1432 N632 1.743 . S
C1447 N962 1.709 . S
C1459 N698 1.754 . S
C1474 N764 1.755 . S
C1486 N1028 1.709 . S
C1501 C28 0.726 . S
C1513 N839 0.613 . S
C1528 N344 0.613 . S
C1540 C61 0.717 . S
C1555 C94 0.824 . S
C1567 N905 0.648 . S
C1582 N278 0.718 . S
C1594 C127 0.604 . S
C1609 C160 0.686 . S
C1621 N1037 0.618 . S
C1636 C193 0.768 . S
C1648 N410 0.722 . S
C1663 N971 0.624 . S
C1675 C226 0.657 . S
C1690 N476 0.725 . S
C1702 C259 0.624 . S
C1717 N575 0.722 . S
C1729 C292 0.684 . S
C1744 N80 0.666 . S
C1756 C325 0.583 . S
C1771 C358 0.827 . S
C1783 N641 0.712 . S
C1798 C391 0.798 . S
C1810 N14 0.657 . S
C1825 N773 0.633 . S
C1837 C424 0.755 . S
C1852 N146 0.636 . S
C1864 C457 0.581 . S
C1879 C490 0.575 . S
C1891 N707 0.643 . S
C1906 C523 0.628 . S
C1918 N212 0.701 . S
C1933 N311 0.688 . S
C1945 C556 0.820 . S
C1960 N872 0.612 . S
C1972 C589 0.739 . S
C1987 N377 0.630 . S
C1999 C622 0.641 . S
C2014 C655 0.584 . S
C2026 N806 0.664 . S
C2041 N509 0.637 . S
C2053 C688 0.625 . S
C2068 C721 0.829 . S
C2080 N938 0.660 . S
C2095 N443 0.676 . S
C2107 C754 0.579 . S
C2122 C787 0.823 . S
C2134 N1004 0.685 . S
C2149 N47 0.715 . S
C2161 C820 0.664 . S
C2176 N608 0.667 . S
C2188 C853 0.808 . S
C2203 N113 0.722 . S
C2215 C886 0.685 . S
C2230 C919 0.634 . S
C2242 N542 0.614 . S
C2257 C952 0.829 . S
C2269 N245 0.704 . S
C2284 N674 0.615 . S
C2296 C985 0.623 . S
C2311 N179 0.672 . S
C2323 C1018 0.587 . S
C2338 C1051 0.581 . S
C2350 N740 0.668 . S
C2365 C602 1.147 . S
C2377 C8 1.138 . S
C2392 C635 1.157 . S
C2404 C41 1.133 . S
C2419 C536 1.185 . S
C2431 C74 1.202 . S
C2446 C569 1.159 . S
C2458 C107 1.132 . S
C2473 C140 1.187 . S
C2485 C734 1.201 . S
C2500 C767 1.163 . S
C2512 C173 1.132 . S
C2527 C206 1.147 . S
C2539 C668 1.138 . S
C2554 C701 1.160 . S
C2566 C239 1.204 . S
C2581 C866 1.202 . S
C2593 C272 1.176 . S
C2608 C305 1.205 . S
C2620 C899 1.185 . S
C2635 C338 1.131 . S
C2647 C800 1.151 . S
C2662 C371 1.206 . S
C2674 C833 1.190 . S
C2689 C998 1.205 . S
C2701 C404 1.188 . S
C2716 C437 1.205 . S
C2728 C1031 1.184 . S
C2743 C470 1.205 . S
C2755 C932 1.188 . S
C2770 C503 1.206 . S
C2782 C965 1.190 . S
C2797 C149 1.161 . S
C2809 C17 1.170 . S
C2824 C182 1.182 . S
C2836 C50 1.151 . S
C2851 C83 1.163 . S
C2863 C215 1.168 . S
C2878 C248 1.182 . S
C2890 C116 1.151 . S
C2905 C281 1.171 . S
C2917 C413 1.202 . S
C2932 C446 1.186 . S
C2944 C314 1.193 . S
C2959 C347 1.169 . S
C2971 C479 1.203 . S
C2986 C512 1.142 . S
C2998 C380 1.179 . S
C3013 C545 1.141 . S
C3025 C677 1.198 . S
C3040 C710 1.192 . S
C3052 C578 1.144 . S
C3067 C743 1.143 . S
C3079 C611 1.193 . S
C3094 C644 1.193 . S
C3106 C776 1.144 . S
C3121 C941 1.172 . S
C3133 C809 1.145 . S
C3148 C842 1.143 . S
C3160 C974 1.175 . S
C3175 C875 1.176 . S
C3187 C1007 1.143 . S
C3202 C908 1.203 . S
C3214 C1040 1.169 . S
