# Generated by pormake.
# Topology vby, (6)-cn, num edge types: 1
# Building blocks:
#     Node 0, Type 0, BuildingBlock: VOLQOD_clean_sbu_1, # of connection points: 6
#     Node 1, Type 0, BuildingBlock: VOLQOD_clean_sbu_1, # of connection points: 6
#     Node 2, Type 0, BuildingBlock: VOLQOD_clean_sbu_1, # of connection points: 6
#     Node 3, Type 0, BuildingBlock: VOLQOD_clean_sbu_1, # of connection points: 6
#     Node 4, Type 0, BuildingBlock: VOLQOD_clean_sbu_1, # of connection points: 6
#     Node 5, Type 0, BuildingBlock: VOLQOD_clean_sbu_1, # of connection points: 6
#     Node 6, Type 0, BuildingBlock: VOLQOD_clean_sbu_1, # of connection points: 6
#     Node 7, Type 0, BuildingBlock: VOLQOD_clean_sbu_1, # of connection points: 6
#     Edge 8, Type (0, 0), BuildingBlock: MIFKUJ_clean_linker_0, # of connection points: 2
#     Edge 9, Type (0, 0), BuildingBlock: MIFKUJ_clean_linker_0, # of connection points: 2
#     Edge 10, Type (0, 0), BuildingBlock: MIFKUJ_clean_linker_0, # of connection points: 2
#     Edge 11, Type (0, 0), BuildingBlock: MIFKUJ_clean_linker_0, # of connection points: 2
#     Edge 12, Type (0, 0), BuildingBlock: MIFKUJ_clean_linker_0, # of connection points: 2
#     Edge 13, Type (0, 0), BuildingBlock: MIFKUJ_clean_linker_0, # of connection points: 2
#     Edge 14, Type (0, 0), BuildingBlock: MIFKUJ_clean_linker_0, # of connection points: 2
#     Edge 15, Type (0, 0), BuildingBlock: MIFKUJ_clean_linker_0, # of connection points: 2
#     Edge 16, Type (0, 0), BuildingBlock: MIFKUJ_clean_linker_0, # of connection points: 2
#     Edge 17, Type (0, 0), BuildingBlock: MIFKUJ_clean_linker_0, # of connection points: 2
#     Edge 18, Type (0, 0), BuildingBlock: MIFKUJ_clean_linker_0, # of connection points: 2
#     Edge 19, Type (0, 0), BuildingBlock: MIFKUJ_clean_linker_0, # of connection points: 2
#     Edge 20, Type (0, 0), BuildingBlock: MIFKUJ_clean_linker_0, # of connection points: 2
#     Edge 21, Type (0, 0), BuildingBlock: MIFKUJ_clean_linker_0, # of connection points: 2
#     Edge 22, Type (0, 0), BuildingBlock: MIFKUJ_clean_linker_0, # of connection points: 2
#     Edge 23, Type (0, 0), BuildingBlock: MIFKUJ_clean_linker_0, # of connection points: 2
#     Edge 24, Type (0, 0), BuildingBlock: MIFKUJ_clean_linker_0, # of connection points: 2
#     Edge 25, Type (0, 0), BuildingBlock: MIFKUJ_clean_linker_0, # of connection points: 2
#     Edge 26, Type (0, 0), BuildingBlock: MIFKUJ_clean_linker_0, # of connection points: 2
#     Edge 27, Type (0, 0), BuildingBlock: MIFKUJ_clean_linker_0, # of connection points: 2
#     Edge 28, Type (0, 0), BuildingBlock: MIFKUJ_clean_linker_0, # of connection points: 2
#     Edge 29, Type (0, 0), BuildingBlock: MIFKUJ_clean_linker_0, # of connection points: 2
#     Edge 30, Type (0, 0), BuildingBlock: MIFKUJ_clean_linker_0, # of connection points: 2
#     Edge 31, Type (0, 0), BuildingBlock: MIFKUJ_clean_linker_0, # of connection points: 2
# Relax obj value: 0.082
# Max RMSD: 0.107
# Mean RMSD: 0.107
data_MOF--net-vby--node1-VOLQOD_clean_sbu_1--edge1-MIFKUJ_clean_linker_0
_symmetry_space_group_name_H-M    P1
_symmetry_Int_Tables_number       1
_symmetry_cell_setting            triclinic
loop_
_symmetry_equiv_pos_as_xyz
'x, y, z'
_cell_length_a     21.233904
_cell_length_b     81.742171
_cell_length_c     42.513717
_cell_angle_alpha  89.950441
_cell_angle_beta   89.886332
_cell_angle_gamma 89.917771
loop_
_atom_site_label
_atom_site_type_symbol
_atom_site_fract_x
_atom_site_fract_y
_atom_site_fract_z
_atom_type_partial_charge
O0 O 0.19685 0.38463 0.00872 0.0
Zn1 Zn 0.10204 0.38497 0.00626 0.0
O2 O 0.06411 0.37323 0.04162 0.0
Zn3 Zn 0.02045 0.3537 0.02635 0.0
Zn4 Zn 0.12918 0.36693 0.07101 0.0
Zn5 Zn 0.00548 0.38739 0.06361 0.0
O6 O 0.92834 0.35435 0.03733 0.0
O7 O 0.91817 0.3792 0.05778 0.0
O8 O 0.0763 0.37497 0.96526 0.0
O9 O 0.02139 0.35303 0.97909 0.0
O10 O 0.06151 0.33296 0.04216 0.0
O11 O 0.13895 0.34258 0.07188 0.0
O12 O 0.11234 0.37476 0.11492 0.0
O13 O 0.0731 0.40844 0.00534 0.0
O14 O 0.02235 0.38834 0.11013 0.0
O15 O 0.00804 0.41017 0.04617 0.0
C16 C 0.23324 0.38119 0.03156 0.0
C17 C 0.89419 0.36588 0.04808 0.0
C18 C 0.10943 0.33066 0.05962 0.0
C19 C 0.04444 0.36235 0.95804 0.0
C20 C 0.06739 0.38296 0.12693 0.0
C21 C 0.03589 0.41667 0.02275 0.0
O22 O 0.21219 0.37538 0.05724 0.0
O23 O 0.81309 0.62417 0.03157 0.0
Zn24 Zn 0.90101 0.62129 0.01494 0.0
O25 O 0.96071 0.63233 0.04249 0.0
Zn26 Zn 0.00265 0.64973 0.0196 0.0
Zn27 Zn 0.91929 0.64224 0.07827 0.0
Zn28 Zn 0.0216 0.61665 0.0577 0.0
O29 O 0.09566 0.64944 0.02813 0.0
O30 O 0.10784 0.62413 0.04661 0.0
O31 O 0.90719 0.63011 0.97066 0.0
O32 O 0.98954 0.64683 0.97338 0.0
O33 O 0.96659 0.67175 0.03082 0.0
O34 O 0.92164 0.66669 0.07691 0.0
O35 O 0.95359 0.63427 0.11916 0.0
O36 O 0.91955 0.59705 0.01186 0.0
O37 O 0.0193 0.6145 0.10488 0.0
O38 O 0.00736 0.59446 0.03962 0.0
C39 C 0.79197 0.63038 0.05698 0.0
C40 C 0.13053 0.63764 0.03702 0.0
C41 C 0.9377 0.67663 0.05534 0.0
C42 C 0.94758 0.6394 0.95752 0.0
C43 C 0.99152 0.62277 0.12613 0.0
C44 C 0.96454 0.58832 0.02243 0.0
O45 O 0.82808 0.63704 0.07703 0.0
O46 O 0.19419 0.61259 0.57327 0.0
Zn47 Zn 0.09929 0.61141 0.57619 0.0
O48 O 0.05924 0.62371 0.54217 0.0
Zn49 Zn 0.01835 0.64325 0.55906 0.0
Zn50 Zn 0.12288 0.63022 0.51209 0.0
Zn51 Zn -0.00199 0.61001 0.52077 0.0
O52 O 0.92649 0.64379 0.54777 0.0
O53 O 0.912 0.61991 0.52382 0.0
O54 O 0.07214 0.62022 0.6183 0.0
O55 O 0.0195 0.64282 0.60611 0.0
O56 O 0.06193 0.66394 0.54488 0.0
O57 O 0.13377 0.65453 0.51152 0.0
O58 O 0.10391 0.62257 0.46858 0.0
O59 O 0.07371 0.58766 0.57457 0.0
O60 O 0.01829 0.6074 0.47473 0.0
O61 O -0.00419 0.58752 0.53969 0.0
C62 C 0.22918 0.61586 0.54974 0.0
C63 C 0.89077 0.63337 0.53453 0.0
C64 C 0.10747 0.66636 0.52588 0.0
C65 C 0.04114 0.63288 0.62644 0.0
C66 C 0.06152 0.61331 0.45735 0.0
C67 C 0.03008 0.58022 0.55986 0.0
O68 O 0.20659 0.62143 0.52421 0.0
O69 O 0.82592 0.36937 0.55535 0.0
Zn70 Zn 0.91465 0.37363 0.5684 0.0
O71 O 0.97292 0.3614 0.54199 0.0
Zn72 Zn 0.00947 0.34345 0.56579 0.0
Zn73 Zn 0.92921 0.35204 0.50627 0.0
Zn74 Zn 0.03808 0.37609 0.52725 0.0
O75 O 0.10341 0.34342 0.56151 0.0
O76 O 0.12259 0.36772 0.53994 0.0
O77 O 0.92253 0.36661 0.61362 0.0
O78 O 0.98981 0.3458 0.61171 0.0
O79 O 0.97632 0.32171 0.55113 0.0
O80 O 0.94088 0.32774 0.50349 0.0
O81 O 0.95565 0.36249 0.46566 0.0
O82 O 0.93159 0.39782 0.56665 0.0
O83 O 0.03703 0.37783 0.47993 0.0
O84 O 0.026 0.39889 0.54413 0.0
C85 C 0.80229 0.36134 0.53266 0.0
C86 C 0.14161 0.35436 0.55206 0.0
C87 C 0.95388 0.3173 0.52472 0.0
C88 C 0.95433 0.35544 0.62721 0.0
C89 C 0.00058 0.37217 0.45883 0.0
C90 C 0.97976 0.40587 0.55778 0.0
O91 O 0.83638 0.35434 0.51206 0.0
O92 O 0.66678 0.87234 0.02266 0.0
Zn93 Zn 0.57389 0.87723 0.01909 0.0
O94 O 0.52559 0.86281 0.04623 0.0
Zn95 Zn 0.48904 0.8453 0.0217 0.0
Zn96 Zn 0.5792 0.85261 0.07679 0.0
Zn97 Zn 0.46259 0.87544 0.06805 0.0
O98 O 0.39643 0.84404 0.03031 0.0
O99 O 0.37795 0.86542 0.06139 0.0
O100 O 0.54906 0.87351 0.97406 0.0
O101 O 0.49811 0.84979 0.97566 0.0
O102 O 0.52907 0.82357 0.03184 0.0
O103 O 0.56589 0.82843 0.07967 0.0
O104 O 0.57013 0.86265 0.11944 0.0
O105 O 0.5547 0.90087 0.02825 0.0
O106 O 0.48064 0.87648 0.11452 0.0
O107 O 0.46244 0.89875 0.05276 0.0
C108 C 0.69563 0.86242 0.04073 0.0
C109 C 0.35883 0.85298 0.04613 0.0
C110 C 0.55354 0.81855 0.05743 0.0
C111 C 0.52078 0.8618 0.96034 0.0
C112 C 0.5266 0.87146 0.13115 0.0
C113 C 0.50486 0.90735 0.03947 0.0
O114 O 0.66731 0.85446 0.06217 0.0
O115 O 0.27009 0.11665 0.02369 0.0
Zn116 Zn 0.36112 0.11288 0.01355 0.0
O117 O 0.41379 0.12655 0.04018 0.0
Zn118 Zn 0.44758 0.14497 0.01632 0.0
Zn119 Zn 0.36477 0.13516 0.07485 0.0
Zn120 Zn 0.48143 0.11307 0.05619 0.0
O121 O 0.54214 0.14558 0.01924 0.0
O122 O 0.56403 0.12147 0.04111 0.0
O123 O 0.37489 0.1188 0.96823 0.0
O124 O 0.42728 0.1423 0.97054 0.0
O125 O 0.41308 0.16659 0.03125 0.0
O126 O 0.36579 0.15963 0.0758 0.0
O127 O 0.39563 0.12682 0.11624 0.0
O128 O 0.38103 0.08883 0.01829 0.0
O129 O 0.48141 0.11271 0.10351 0.0
O130 O 0.47333 0.08978 0.04256 0.0
C131 C 0.24276 0.12338 0.04702 0.0
C132 C 0.58137 0.13473 0.02806 0.0
C133 C 0.38326 0.17046 0.05617 0.0
C134 C 0.40027 0.13108 0.95483 0.0
C135 C 0.44346 0.11835 0.12405 0.0
C136 C 0.42985 0.08174 0.02909 0.0
O137 O 0.27383 0.13001 0.06914 0.0
O138 O 0.66895 0.12149 0.56195 0.0
Zn139 Zn 0.57537 0.11826 0.56662 0.0
O140 O 0.52973 0.13251 0.53801 0.0
Zn141 Zn 0.49481 0.15094 0.56131 0.0
Zn142 Zn 0.58616 0.1408 0.50599 0.0
Zn143 Zn 0.46399 0.1199 0.518 0.0
O144 O 0.40175 0.15291 0.55305 0.0
O145 O 0.38058 0.13093 0.52402 0.0
O146 O 0.55154 0.12333 0.61125 0.0
O147 O 0.50246 0.14727 0.6078 0.0
O148 O 0.5389 0.17203 0.54986 0.0
O149 O 0.58724 0.16527 0.50533 0.0
O150 O 0.56538 0.1325 0.46305 0.0
O151 O 0.55271 0.09462 0.55948 0.0
O152 O 0.47999 0.1175 0.47164 0.0
O153 O 0.4608 0.09694 0.53494 0.0
C154 C 0.70107 0.12785 0.53976 0.0
C155 C 0.36306 0.1439 0.53816 0.0
C156 C 0.57119 0.1759 0.52568 0.0
C157 C 0.52398 0.13546 0.62408 0.0
C158 C 0.52186 0.12316 0.45317 0.0
C159 C 0.50238 0.08828 0.5487 0.0
O160 O 0.6748 0.13465 0.51626 0.0
O161 O 0.27461 0.87807 0.55695 0.0
Zn162 Zn 0.36397 0.88239 0.56958 0.0
O163 O 0.42079 0.86878 0.54486 0.0
Zn164 Zn 0.45451 0.85103 0.5703 0.0
Zn165 Zn 0.37677 0.8593 0.50937 0.0
Zn166 Zn 0.48876 0.8824 0.53 0.0
O167 O 0.5493 0.85025 0.5678 0.0
O168 O 0.5705 0.87459 0.54685 0.0
O169 O 0.37331 0.87709 0.61557 0.0
O170 O 0.43168 0.85448 0.61555 0.0
O171 O 0.42095 0.82927 0.55659 0.0
O172 O 0.38213 0.83477 0.50935 0.0
O173 O 0.40966 0.86792 0.46835 0.0
O174 O 0.38235 0.90648 0.56429 0.0
O175 O 0.4945 0.88188 0.48288 0.0
O176 O 0.47691 0.90584 0.54204 0.0
C177 C 0.25058 0.87054 0.53367 0.0
C178 C 0.5882 0.86131 0.55966 0.0
C179 C 0.39624 0.82459 0.53088 0.0
C180 C 0.40055 0.86544 0.63012 0.0
C181 C 0.45849 0.87625 0.4616 0.0
C182 C 0.43135 0.91376 0.55417 0.0
O183 O 0.28456 0.86351 0.51305 0.0
H184 H 0.30067 0.38115 0.97653 0.0
H185 H 0.41462 0.37678 0.97126 0.0
H186 H 0.43394 0.37859 0.07219 0.0
H187 H 0.32093 0.38276 0.07769 0.0
H188 H 0.52309 0.39308 0.99112 0.0
H189 H 0.52223 0.34679 0.09536 0.0
H190 H 0.44843 0.32733 0.12 0.0
H191 H 0.34811 0.3228 0.03288 0.0
H192 H 0.42201 0.34199 0.00751 0.0
H193 H 0.80798 0.38828 0.06807 0.0
H194 H 0.69572 0.38869 0.05691 0.0
H195 H 0.7105 0.34171 0.01139 0.0
H196 H 0.8238 0.34114 0.02233 0.0
H197 H 0.60402 0.34509 0.05048 0.0
H198 H 0.70154 0.37237 0.96526 0.0
H199 H 0.77497 0.39144 0.93929 0.0
H200 H 0.68164 0.43213 0.98305 0.0
H201 H 0.60835 0.4133 0.00977 0.0
C202 C 0.32953 0.38098 -0.00249 0.0
C203 C 0.30198 0.38204 0.02755 0.0
C204 C 0.39438 0.37843 0.99445 0.0
C205 C 0.43196 0.37693 0.02139 0.0
C206 C 0.40521 0.37931 0.05119 0.0
C207 C 0.34074 0.38176 0.05427 0.0
C208 C 0.49859 0.37204 0.01904 0.0
C209 C 0.54089 0.38252 0.00377 0.0
C210 C 0.52113 0.35792 0.03475 0.0
C211 C 0.4776 0.34592 0.04956 0.0
C212 C 0.4848 0.34154 0.08136 0.0
C213 C 0.44286 0.33057 0.09548 0.0
C214 C 0.39356 0.32386 0.07803 0.0
C215 C 0.38626 0.32804 0.04638 0.0
C216 C 0.42816 0.33897 0.03212 0.0
C217 C 0.78752 0.37791 0.056 0.0
C218 C 0.82501 0.36475 0.04578 0.0
C219 C 0.7234 0.37823 0.0495 0.0
C220 C 0.69552 0.36541 0.03273 0.0
C221 C 0.73169 0.35178 0.02408 0.0
C222 C 0.79622 0.35147 0.03045 0.0
C223 C 0.62858 0.36663 0.02405 0.0
C224 C 0.58619 0.35544 0.0372 0.0
C225 C 0.60598 0.37992 0.00591 0.0
C226 C 0.64957 0.39138 0.98967 0.0
C227 C 0.69693 0.38537 0.96954 0.0
C228 C 0.73854 0.39615 0.95468 0.0
C229 C 0.73307 0.41299 0.95958 0.0
C230 C 0.68588 0.41909 0.97931 0.0
C231 C 0.64421 0.40836 0.99429 0.0
H232 H 0.76532 0.4213 0.94804 0.0
H233 H 0.36108 0.31542 0.08906 0.0
H234 H 0.21813 0.61477 0.0237 0.0
H235 H 0.33103 0.61647 0.03322 0.0
H236 H 0.30955 0.66641 0.06455 0.0
H237 H 0.19615 0.66497 0.05351 0.0
H238 H 0.41631 0.66331 0.03423 0.0
H239 H 0.31961 0.6357 0.11749 0.0
H240 H 0.24889 0.61631 0.1443 0.0
H241 H 0.35535 0.57593 0.10749 0.0
H242 H 0.42559 0.59505 0.07953 0.0
H243 H 0.72865 0.65093 0.09627 0.0
H244 H 0.61456 0.65429 0.10078 0.0
H245 H 0.58699 0.61501 0.03462 0.0
H246 H 0.70115 0.61169 0.02946 0.0
H247 H 0.50447 0.61673 0.09514 0.0
H248 H 0.58048 0.64888 0.00168 0.0
H249 H 0.65285 0.6699 0.98084 0.0
H250 H 0.5868 0.70404 0.05022 0.0
H251 H 0.51376 0.68325 0.07124 0.0
C252 C 0.23774 0.62619 0.03211 0.0
C253 C 0.1989 0.63969 0.03821 0.0
C254 C 0.30201 0.62712 0.03777 0.0
C255 C 0.32811 0.64138 0.05062 0.0
C256 C 0.29002 0.65524 0.05497 0.0
C257 C 0.22556 0.65443 0.04861 0.0
C258 C 0.39476 0.64134 0.06032 0.0
C259 C 0.43526 0.65331 0.04808 0.0
C260 C 0.41941 0.62852 0.07913 0.0
C261 C 0.37782 0.61686 0.09623 0.0
C262 C 0.32775 0.62268 0.11488 0.0
C263 C 0.28769 0.61173 0.1303 0.0
C264 C 0.29769 0.5949 0.12767 0.0
C265 C 0.3477 0.58898 0.10953 0.0
C266 C 0.38764 0.59988 0.09385 0.0
C267 C 0.69833 0.64282 0.08306 0.0
C268 C 0.72363 0.63109 0.06234 0.0
C269 C 0.63337 0.64478 0.0857 0.0
C270 C 0.5931 0.63489 0.06802 0.0
C271 C 0.61791 0.62267 0.04849 0.0
C272 C 0.68288 0.62085 0.04545 0.0
C273 C 0.5252 0.63812 0.06759 0.0
C274 C 0.48476 0.62685 0.08184 0.0
C275 C 0.50045 0.65186 0.05172 0.0
C276 C 0.54195 0.66454 0.03803 0.0
C277 C 0.58133 0.6609 0.01237 0.0
C278 C 0.62236 0.67277 0.00051 0.0
C279 C 0.62432 0.68832 0.01414 0.0
C280 C 0.58496 0.69205 0.03953 0.0
C281 C 0.5436 0.68025 0.05136 0.0
H282 H 0.6564 0.69746 0.00505 0.0
H283 H 0.26672 0.58645 0.13972 0.0
H284 H 0.82139 0.65009 0.57783 0.0
H285 H 0.70642 0.64986 0.5833 0.0
H286 H 0.69095 0.62237 0.49716 0.0
H287 H 0.80582 0.62212 0.49196 0.0
H288 H 0.59554 0.65023 0.51022 0.0
H289 H 0.69238 0.60004 0.55316 0.0
H290 H 0.76859 0.58623 0.58799 0.0
H291 H 0.68925 0.61087 0.66799 0.0
H292 H 0.61305 0.62499 0.63348 0.0
H293 H 0.31289 0.60963 0.50318 0.0
H294 H 0.4263 0.61419 0.50462 0.0
H295 H 0.41435 0.62591 0.60342 0.0
H296 H 0.30047 0.62086 0.60229 0.0
H297 H 0.52253 0.61009 0.59014 0.0
H298 H 0.40968 0.65508 0.55027 0.0
H299 H 0.33377 0.67017 0.51743 0.0
H300 H 0.44161 0.65861 0.43487 0.0
H301 H 0.51741 0.64308 0.46709 0.0
C302 C 0.79335 0.64436 0.55965 0.0
C303 C 0.82225 0.63602 0.53457 0.0
C304 C 0.7279 0.64423 0.56286 0.0
C305 C 0.69077 0.63605 0.54067 0.0
C306 C 0.71918 0.62877 0.51441 0.0
C307 C 0.7846 0.62858 0.51155 0.0
C308 C 0.62323 0.63339 0.54652 0.0
C309 C 0.57922 0.64143 0.52752 0.0
C310 C 0.60261 0.62237 0.56998 0.0
C311 C 0.64758 0.61368 0.59074 0.0
C312 C 0.69154 0.6026 0.57814 0.0
C313 C 0.73464 0.5947 0.59782 0.0
C314 C 0.73386 0.5977 0.63017 0.0
C315 C 0.68984 0.60857 0.64292 0.0
C316 C 0.64667 0.61651 0.62332 0.0
C317 C 0.33467 0.6128 0.52537 0.0
C318 C 0.29808 0.61509 0.55254 0.0
C319 C 0.39931 0.61549 0.52613 0.0
C320 C 0.42819 0.62087 0.55389 0.0
C321 C 0.39267 0.62191 0.5817 0.0
C322 C 0.32781 0.61897 0.58106 0.0
C323 C 0.49428 0.62648 0.55297 0.0
C324 C 0.53821 0.61907 0.57303 0.0
C325 C 0.51458 0.63836 0.53081 0.0
C326 C 0.46927 0.64782 0.51119 0.0
C327 C 0.41709 0.65565 0.52509 0.0
C328 C 0.37397 0.66427 0.50657 0.0
C329 C 0.38287 0.66535 0.47409 0.0
C330 C 0.43482 0.65777 0.46006 0.0
C331 C 0.47788 0.64904 0.47846 0.0
H332 H 0.34953 0.67208 0.45982 0.0
H333 H 0.76723 0.59156 0.64536 0.0
H334 H 0.74314 0.33307 0.51779 0.0
H335 H 0.6317 0.32672 0.52516 0.0
H336 H 0.59731 0.37661 0.55416 0.0
H337 H 0.70958 0.38261 0.5489 0.0
H338 H 0.5421 0.3574 0.59249 0.0
H339 H 0.55625 0.35896 0.4774 0.0
H340 H 0.59769 0.34991 0.426 0.0
H341 H 0.53918 0.30069 0.44582 0.0
H342 H 0.49797 0.30944 0.49746 0.0
H343 H 0.2332 0.37737 0.5547 0.0
H344 H 0.34667 0.37295 0.5567 0.0
H345 H 0.31789 0.32072 0.55713 0.0
H346 H 0.20339 0.32504 0.55562 0.0
H347 H 0.40526 0.33349 0.51007 0.0
H348 H 0.37055 0.33403 0.62024 0.0
H349 H 0.32605 0.34376 0.67046 0.0
H350 H 0.42129 0.38969 0.6591 0.0
H351 H 0.46561 0.38035 0.60856 0.0
C352 C 0.7114 0.34271 0.52526 0.0
C353 C 0.73434 0.35835 0.53261 0.0
C354 C 0.6478 0.33908 0.52944 0.0
C355 C 0.60596 0.35122 0.53992 0.0
C356 C 0.62881 0.36701 0.54623 0.0
C357 C 0.69266 0.37049 0.543 0.0
C358 C 0.53867 0.34755 0.54545 0.0
C359 C 0.51217 0.35227 0.57435 0.0
C360 C 0.50017 0.34003 0.52247 0.0
C361 C 0.52468 0.33482 0.49138 0.0
C362 C 0.55259 0.3462 0.47085 0.0
C363 C 0.57597 0.34112 0.44167 0.0
C364 C 0.57126 0.32472 0.43269 0.0
C365 C 0.54294 0.31338 0.45283 0.0
C366 C 0.51951 0.31839 0.48203 0.0
C367 C 0.25091 0.36494 0.55544 0.0
C368 C 0.2097 0.35154 0.55489 0.0
C369 C 0.31559 0.36244 0.55677 0.0
C370 C 0.34013 0.34653 0.55727 0.0
C371 C 0.29935 0.33307 0.55694 0.0
C372 C 0.23428 0.33557 0.55614 0.0
C373 C 0.40877 0.34431 0.55618 0.0
C374 C 0.43559 0.33834 0.52834 0.0
C375 C 0.44755 0.3508 0.57999 0.0
C376 C 0.42122 0.35649 0.61049 0.0
C377 C 0.38166 0.34625 0.62832 0.0
C378 C 0.35652 0.35169 0.65688 0.0
C379 C 0.37079 0.36734 0.66795 0.0
C380 C 0.41031 0.37757 0.6505 0.0
C381 C 0.43554 0.37219 0.62192 0.0
H382 H 0.35128 0.37153 0.69006 0.0
H383 H 0.58941 0.32082 0.4101 0.0
H384 H 0.75225 0.83298 0.04536 0.0
H385 H 0.86421 0.82682 0.04001 0.0
H386 H 0.90165 0.87774 0.02038 0.0
H387 H 0.78861 0.88376 0.02393 0.0
H388 H 0.97589 0.8593 0.98627 0.0
H389 H 0.91375 0.86013 0.09715 0.0
H390 H 0.85092 0.85079 0.14264 0.0
H391 H 0.91722 0.80166 0.12875 0.0
H392 H 0.98001 0.8107 0.08302 0.0
H393 H 0.26861 0.86473 0.08564 0.0
H394 H 0.15493 0.86154 0.08078 0.0
H395 H 0.18127 0.83044 -0.00014 0.0
H396 H 0.29557 0.83355 0.0045 0.0
H397 H 0.07553 0.83472 0.08073 0.0
H398 H 0.06442 0.84253 0.94727 0.0
H399 H 0.12627 0.85419 0.90341 0.0
H400 H 0.2074 0.88948 0.96609 0.0
H401 H 0.14573 0.87811 0.01021 0.0
C402 C 0.78447 0.84282 0.03967 0.0
C403 C 0.7625 0.8589 0.03561 0.0
C404 C 0.84827 0.83929 0.03663 0.0
C405 C 0.89133 0.85189 0.03061 0.0
C406 C 0.86909 0.86785 0.02517 0.0
C407 C 0.80483 0.87132 0.02736 0.0
C408 C 0.95974 0.84871 0.03204 0.0
C409 C -0.0024 0.85379 0.0068 0.0
C410 C 0.98803 0.84143 0.05878 0.0
C411 C 0.95106 0.83606 0.08655 0.0
C412 C 0.91471 0.84733 0.10376 0.0
C413 C 0.87914 0.84209 0.12957 0.0
C414 C 0.87997 0.82564 0.13853 0.0
C415 C 0.91658 0.8144 0.12177 0.0
C416 C 0.95221 0.81957 0.09593 0.0
C417 C 0.25034 0.85706 0.06702 0.0
C418 C 0.29088 0.8495 0.04529 0.0
C419 C 0.18547 0.85518 0.06439 0.0
C420 C 0.1601 0.84586 0.03985 0.0
C421 C 0.20031 0.83775 0.01884 0.0
C422 C 0.26542 0.83951 0.0216 0.0
C423 C 0.09143 0.8457 0.03537 0.0
C424 C 0.05357 0.83989 0.05994 0.0
C425 C 0.06325 0.85253 0.00827 0.0
C426 C 0.10101 0.85936 0.98203 0.0
C427 C 0.09548 0.85278 0.95164 0.0
C428 C 0.13042 0.85934 0.92675 0.0
C429 C 0.17064 0.87258 0.93197 0.0
C430 C 0.17627 0.87922 0.9621 0.0
C431 C 0.14147 0.87269 0.98706 0.0
H432 H 0.19743 0.8777 0.91265 0.0
H433 H 0.85235 0.8216 0.1585 0.0
H434 H 0.15768 0.10711 0.01052 0.0
H435 H 0.04553 0.1131 0.00516 0.0
H436 H 0.06098 0.15097 0.07542 0.0
H437 H 0.17247 0.14467 0.08175 0.0
H438 H 0.95752 0.13537 0.08411 0.0
H439 H 0.05371 0.16052 -0.00359 0.0
H440 H 0.12264 0.16305 0.94995 0.0
H441 H 0.01475 0.12639 0.90198 0.0
H442 H 0.94562 0.12346 0.94835 0.0
H443 H 0.64809 0.16264 0.0385 0.0
H444 H 0.76356 0.1653 0.03801 0.0
H445 H 0.78043 0.11549 0.00566 0.0
H446 H 0.66582 0.11256 0.00732 0.0
H447 H 0.86825 0.1431 0.97723 0.0
H448 H 0.78959 0.11558 0.07442 0.0
H449 H 0.72032 0.11554 0.1211 0.0
H450 H 0.79801 0.16152 0.15053 0.0
H451 H 0.86706 0.16191 0.1037 0.0
C452 C 0.13699 0.11657 0.02509 0.0
C453 C 0.17388 0.12545 0.04645 0.0
C454 C 0.07311 0.1201 0.02178 0.0
C455 C 0.04542 0.13278 0.03929 0.0
C456 C 0.08157 0.14122 0.06152 0.0
C457 C 0.14523 0.13755 0.06517 0.0
C458 C 0.97854 0.13711 0.03451 0.0
C459 C 0.93845 0.13739 0.06077 0.0
C460 C 0.95356 0.13993 0.00409 0.0
C461 C -0.0053 0.14169 0.97598 0.0
C462 C 0.0449 0.15291 0.97604 0.0
C463 C 0.08399 0.15443 0.94971 0.0
C464 C 0.07316 0.14486 0.92305 0.0
C465 C 0.0231 0.13379 0.92266 0.0
C466 C 0.98387 0.13221 0.94895 0.0
C467 C 0.67666 0.15242 0.0307 0.0
C468 C 0.64882 0.13736 0.02323 0.0
C469 C 0.74218 0.15396 0.03035 0.0
C470 C 0.77981 0.14059 0.0217 0.0
C471 C 0.75173 0.12593 0.01215 0.0
C472 C 0.68661 0.12425 0.01334 0.0
C473 C 0.84816 0.14088 0.02664 0.0
C474 C 0.8882 0.14145 0.00049 0.0
C475 C 0.87347 0.13926 0.05714 0.0
C476 C 0.83282 0.13887 0.08546 0.0
C477 C 0.79147 0.12574 0.09073 0.0
C478 C 0.75234 0.12564 0.11722 0.0
C479 C 0.75463 0.13855 0.13872 0.0
C480 C 0.7962 0.15155 0.13382 0.0
C481 C 0.83533 0.15171 0.10733 0.0
H482 H 0.7243 0.13845 0.15922 0.0
H483 H 0.1035 0.14605 0.90268 0.0
H484 H 0.27593 0.13844 0.49273 0.0
H485 H 0.16133 0.14054 0.49805 0.0
H486 H 0.18281 0.1587 0.5926 0.0
H487 H 0.29783 0.15721 0.58705 0.0
H488 H 0.10835 0.12653 0.57876 0.0
H489 H 0.12274 0.18365 0.55667 0.0
H490 H 0.15586 0.20835 0.52783 0.0
H491 H 0.05888 0.19155 0.44548 0.0
H492 H 0.0264 0.16653 0.47358 0.0
H493 H 0.77169 0.1273 0.59339 0.0
H494 H 0.88416 0.13326 0.59798 0.0
H495 H 0.89833 0.13686 0.49689 0.0
H496 H 0.78574 0.13153 0.49227 0.0
H497 H 0.95491 0.16168 0.52246 0.0
H498 H 0.9549 0.10322 0.54041 0.0
H499 H 0.9238 0.07764 0.56704 0.0
H500 H -0.00464 0.09603 0.65453 0.0
H501 H 0.0262 0.1218 0.62846 0.0
C502 C 0.25619 0.14327 0.51433 0.0
C503 C 0.29538 0.14764 0.5395 0.0
C504 C 0.19097 0.14451 0.5173 0.0
C505 C 0.16414 0.14979 0.54567 0.0
C506 C 0.20307 0.15472 0.57048 0.0
C507 C 0.26849 0.1539 0.56723 0.0
C508 C 0.0958 0.14808 0.55031 0.0
C509 C 0.07443 0.13441 0.56711 0.0
C510 C 0.05242 0.15818 0.53438 0.0
C511 C 0.07274 0.17309 0.51717 0.0
C512 C 0.10923 0.18508 0.53228 0.0
C513 C 0.12777 0.19917 0.51607 0.0
C514 C 0.10962 0.2015 0.48482 0.0
C515 C 0.07297 0.18972 0.46969 0.0
C516 C 0.05452 0.17557 0.48574 0.0
C517 C 0.79909 0.12909 0.57215 0.0
C518 C 0.77009 0.12895 0.54247 0.0
C519 C 0.8633 0.13253 0.5748 0.0
C520 C 0.89968 0.13549 0.54777 0.0
C521 C 0.87106 0.13476 0.51808 0.0
C522 C 0.80685 0.13161 0.51546 0.0
C523 C 0.96724 0.13977 0.55011 0.0
C524 C 0.98851 0.15393 0.5346 0.0
C525 C 0.01073 0.12998 0.5669 0.0
C526 C -0.00787 0.1145 0.58257 0.0
C527 C 0.96351 0.10185 0.56538 0.0
C528 C 0.94604 0.08732 0.58036 0.0
C529 C 0.9574 0.08524 0.61248 0.0
C530 C 0.98646 0.09767 0.62967 0.0
C531 C 0.00397 0.11224 0.6148 0.0
H532 H 0.94385 0.07397 0.62404 0.0
H533 H 0.12378 0.21245 0.47238 0.0
H534 H 0.674 0.8832 0.57947 0.0
H535 H 0.78815 0.88105 0.57439 0.0
H536 H 0.76916 0.83162 0.54004 0.0
H537 H 0.65429 0.83352 0.54651 0.0
H538 H 0.87655 0.83518 0.57371 0.0
H539 H 0.77928 0.86173 0.48796 0.0
H540 H 0.70738 0.88091 0.46122 0.0
H541 H 0.80798 0.92162 0.50029 0.0
H542 H 0.87987 0.90267 0.52773 0.0
H543 H 0.1852 0.84629 0.50438 0.0
H544 H 0.07144 0.8415 0.50648 0.0
H545 H 0.04751 0.88529 0.56176 0.0
H546 H 0.1612 0.89008 0.56023 0.0
H547 H 0.96086 0.8808 0.50894 0.0
H548 H 0.053 0.85124 0.59826 0.0
H549 H 0.12306 0.83039 0.6214 0.0
H550 H 0.03055 0.79291 0.56806 0.0
H551 H 0.9608 0.8136 0.54407 0.0
C552 C 0.69441 0.87174 0.57166 0.0
C553 C 0.65595 0.85858 0.56301 0.0
C554 C 0.75939 0.87054 0.56861 0.0
C555 C 0.78665 0.85637 0.55587 0.0
C556 C 0.74875 0.8427 0.54963 0.0
C557 C 0.68343 0.84378 0.55336 0.0
C558 C 0.85359 0.85663 0.54653 0.0
C559 C 0.89494 0.84497 0.55911 0.0
C560 C 0.8772 0.86926 0.52697 0.0
C561 C 0.83479 0.88076 0.51007 0.0
C562 C 0.78589 0.87477 0.491 0.0
C563 C 0.74512 0.8856 0.47571 0.0
C564 C 0.75306 0.90247 0.47909 0.0
C565 C 0.80189 0.90854 0.4977 0.0
C566 C 0.84272 0.89776 0.5131 0.0
C567 C 0.15557 0.85503 0.5166 0.0
C568 C 0.18183 0.86859 0.53214 0.0
C569 C 0.09087 0.8522 0.51791 0.0
C570 C 0.05172 0.863 0.53441 0.0
C571 C 0.07742 0.87684 0.54896 0.0
C572 C 0.14215 0.87954 0.5481 0.0
C573 C 0.98385 0.85982 0.53731 0.0
C574 C 0.94227 0.87089 0.52318 0.0
C575 C 0.96014 0.84638 0.55462 0.0
C576 C 0.00217 0.834 0.5691 0.0
C577 C 0.04803 0.83858 0.59121 0.0
C578 C 0.0876 0.82678 0.60453 0.0
C579 C 0.08128 0.81034 0.5962 0.0
C580 C 0.03531 0.80565 0.57455 0.0
C581 C -0.00414 0.81741 0.56102 0.0
H582 H 0.11202 0.80122 0.60649 0.0
H583 H 0.72143 0.91084 0.46725 0.0
H584 H 0.0451 0.56569 0.04681 0.0
H585 H 0.05049 0.53663 0.03526 0.0
H586 H 0.89743 0.54162 0.96932 0.0
H587 H 0.89062 0.5709 0.98135 0.0
H588 H 0.88072 0.5154 0.00429 0.0
H589 H 0.04751 0.5355 0.94236 0.0
H590 H 0.14162 0.55175 0.92908 0.0
H591 H 0.24868 0.52569 -0.00143 0.0
H592 H 0.155 0.50944 0.01261 0.0
H593 H 0.06849 0.43355 0.96945 0.0
H594 H 0.04708 0.4623 0.95748 0.0
H595 H 0.95591 0.46787 0.04767 0.0
H596 H 0.97545 0.43916 0.0594 0.0
H597 H 0.0867 0.48869 0.98365 0.0
H598 H 0.84194 0.49549 0.04631 0.0
H599 H 0.74579 0.47908 0.05397 0.0
H600 H 0.78954 0.45101 0.97144 0.0
H601 H 0.88545 0.4674 0.96297 0.0
C602 C 0.01264 0.56069 0.02972 0.0
C603 C 0.96755 0.57066 0.01491 0.0
C604 C 0.01608 0.54405 0.02299 0.0
C605 C 0.97522 0.53701 0.00096 0.0
C606 C 0.9297 0.54684 0.98625 0.0
C607 C 0.92591 0.56356 0.99315 0.0
C608 C 0.9792 0.51922 0.99456 0.0
C609 C 0.92556 0.50953 -0.00055 0.0
C610 C 0.03725 0.51161 0.98705 0.0
C611 C 0.09405 0.52128 0.97862 0.0
C612 C 0.09101 0.53329 0.95494 0.0
C613 C 0.14431 0.5425 0.94727 0.0
C614 C 0.20107 0.53976 0.96299 0.0
C615 C 0.20468 0.52779 0.98639 0.0
C616 C 0.15151 0.51855 0.99418 0.0
C617 C 0.04362 0.44089 0.98666 0.0
C618 C 0.02367 0.43407 0.01539 0.0
C619 C 0.03131 0.4573 0.97975 0.0
C620 C -0.00103 0.46718 0.00143 0.0
C621 C 0.97944 0.4604 0.03019 0.0
C622 C 0.99117 0.44399 0.03699 0.0
C623 C 0.98898 0.48484 0.99518 0.0
C624 C 0.04152 0.49451 0.98783 0.0
C625 C 0.92951 0.49239 -0.00054 0.0
C626 C 0.87118 0.48265 0.00412 0.0
C627 C 0.83087 0.4859 0.02965 0.0
C628 C 0.77644 0.47657 0.03418 0.0
C629 C 0.76164 0.46399 0.01325 0.0
C630 C 0.80115 0.46073 0.98769 0.0
C631 C 0.8556 0.47002 0.98305 0.0
H632 H 0.71953 0.45678 0.01684 0.0
H633 H 0.24228 0.54691 0.95702 0.0
H634 H 0.08343 0.42549 0.56102 0.0
H635 H 0.08595 0.45528 0.56707 0.0
H636 H 0.88308 0.45647 0.57068 0.0
H637 H 0.88003 0.42662 0.56539 0.0
H638 H 0.94765 0.47839 0.52455 0.0
H639 H 0.94486 0.46336 0.6342 0.0
H640 H 0.9821 0.44846 0.68106 0.0
H641 H 0.16436 0.47062 0.67148 0.0
H642 H 0.12847 0.48547 0.62424 0.0
H643 H 0.92198 0.56285 0.55163 0.0
H644 H 0.90773 0.53333 0.55684 0.0
H645 H 0.10265 0.52814 0.58384 0.0
H646 H 0.11621 0.55779 0.58019 0.0
H647 H 0.03674 0.50781 0.61628 0.0
H648 H 0.04832 0.52101 0.50656 0.0
H649 H 0.0192 0.53533 0.4576 0.0
H650 H 0.83175 0.51595 0.46401 0.0
H651 H 0.85954 0.50169 0.51326 0.0
C652 C 0.03937 0.43208 0.56332 0.0
C653 C 0.98151 0.42374 0.56269 0.0
C654 C 0.04093 0.44905 0.56689 0.0
C655 C 0.9847 0.45797 0.56939 0.0
C656 C 0.92689 0.44972 0.56887 0.0
C657 C 0.92529 0.4327 0.56593 0.0
C658 C 0.98644 0.47599 0.57103 0.0
C659 C 0.96606 0.48489 0.54478 0.0
C660 C 0.01251 0.48429 0.59704 0.0
C661 C 0.03414 0.4754 0.62548 0.0
C662 C -0.00694 0.46493 0.64189 0.0
C663 C 0.01388 0.45652 0.66857 0.0
C664 C 0.0756 0.45855 0.67919 0.0
C665 C 0.11658 0.46904 0.6632 0.0
C666 C 0.096 0.47747 0.63649 0.0
C667 C 0.96163 0.55541 0.55893 0.0
C668 C 0.02038 0.56257 0.5652 0.0
C669 C 0.95353 0.53854 0.56176 0.0
C670 C 0.00453 0.52844 0.56996 0.0
C671 C 0.06265 0.53565 0.57736 0.0
C672 C 0.0704 0.55259 0.57521 0.0
C673 C -0.00199 0.51036 0.56967 0.0
C674 C 0.01778 0.50139 0.59609 0.0
C675 C 0.97258 0.50194 0.54347 0.0
C676 C 0.95583 0.51042 0.51377 0.0
C677 C 0.00077 0.51989 0.49764 0.0
C678 C 0.98452 0.52798 0.46982 0.0
C679 C 0.92362 0.52659 0.45775 0.0
C680 C 0.87888 0.51704 0.47342 0.0
C681 C 0.89486 0.50895 0.50127 0.0
H682 H 0.91113 0.53286 0.43622 0.0
H683 H 0.09163 0.45203 0.69985 0.0
H684 H 0.5945 0.93067 0.02887 0.0
H685 H 0.57917 0.96032 0.02554 0.0
H686 H 0.37971 0.95404 0.04031 0.0
H687 H 0.39458 0.9244 0.04418 0.0
H688 H 0.41607 0.97602 0.98883 0.0
H689 H 0.45449 0.96597 0.09913 0.0
H690 H 0.51396 0.95481 0.14406 0.0
H691 H 0.6754 0.98322 0.11735 0.0
H692 H 0.61714 0.99437 0.07194 0.0
H693 H 0.33654 0.0591 0.02052 0.0
H694 H 0.34748 0.0293 0.02036 0.0
H695 H 0.5487 0.03416 0.03124 0.0
H696 H 0.53772 0.06384 0.03269 0.0
H697 H 0.50934 0.01235 0.06967 0.0
H698 H 0.47621 0.02249 0.95997 0.0
H699 H 0.42191 0.03339 0.9132 0.0
H700 H 0.25804 0.00493 0.93565 0.0
H701 H 0.31108 0.99402 0.98282 0.0
C702 C 0.54736 0.93559 0.03134 0.0
C703 C 0.49577 0.92522 0.03692 0.0
C704 C 0.53874 0.9525 0.02946 0.0
C705 C 0.47837 0.95928 0.03276 0.0
C706 C 0.42661 0.94897 0.0377 0.0
C707 C 0.43529 0.93208 0.04007 0.0
C708 C 0.46954 0.97718 0.03171 0.0
C709 C 0.4357 0.98401 0.00664 0.0
C710 C 0.49668 0.9875 0.05457 0.0
C711 C 0.53167 0.98087 0.08195 0.0
C712 C 0.50286 0.96972 0.10267 0.0
C713 C 0.53631 0.96342 0.12826 0.0
C714 C 0.59848 0.96826 0.13351 0.0
C715 C 0.62727 0.97946 0.11322 0.0
C716 C 0.59404 0.98578 0.08757 0.0
C717 C 0.38311 0.05379 0.02262 0.0
C718 C 0.43624 0.06379 0.0267 0.0
C719 C 0.38937 0.03676 0.02239 0.0
C720 C 0.44903 0.02947 0.0255 0.0
C721 C 0.50217 0.03949 0.02894 0.0
C722 C 0.49583 0.05646 0.0297 0.0
C723 C 0.45616 0.01141 0.0265 0.0
C724 C 0.48963 0.00447 0.05169 0.0
C725 C 0.42942 0.00103 0.00345 0.0
C726 C 0.3974 0.00757 0.9751 0.0
C727 C 0.42841 0.01865 0.95507 0.0
C728 C 0.3979 0.02482 0.92847 0.0
C729 C 0.3365 0.0199 0.92151 0.0
C730 C 0.30556 0.00876 0.9411 0.0
C731 C 0.33585 0.00257 0.96776 0.0
H732 H 0.31296 0.02468 0.9009 0.0
H733 H 0.6243 0.96337 0.15334 0.0
H734 H 0.39137 0.07158 0.5446 0.0
H735 H 0.37584 0.04193 0.5473 0.0
H736 H 0.57532 0.03501 0.56071 0.0
H737 H 0.59131 0.06466 0.55861 0.0
H738 H 0.51526 0.0153 0.5112 0.0
H739 H 0.49195 0.03031 0.62096 0.0
H740 H 0.44513 0.04599 0.66469 0.0
H741 H 0.2621 0.02733 0.64148 0.0
H742 H 0.30775 0.01172 0.59729 0.0
H743 H 0.53703 0.93244 0.54971 0.0
H744 H 0.54438 0.96217 0.55013 0.0
H745 H 0.34286 0.96572 0.56179 0.0
H746 H 0.33538 0.93581 0.56249 0.0
H747 H 0.39775 0.98761 0.59705 0.0
H748 H 0.41407 0.9724 0.48949 0.0
H749 H 0.4535 0.95723 0.44335 0.0
H750 H 0.63868 0.97675 0.45818 0.0
H751 H 0.60055 0.99189 0.50466 0.0
C752 C 0.43192 0.06375 0.54826 0.0
C753 C 0.49259 0.07044 0.5514 0.0
C754 C 0.4229 0.04685 0.54987 0.0
C755 C 0.47446 0.03637 0.55422 0.0
C756 C 0.53504 0.04297 0.55734 0.0
C757 C 0.54399 0.05988 0.55627 0.0
C758 C 0.4654 0.01847 0.55487 0.0
C759 C 0.4903 0.00917 0.53012 0.0
C760 C 0.43054 0.01069 0.57894 0.0
C761 C 0.40317 0.01999 0.60562 0.0
C762 C 0.44164 0.02967 0.625 0.0
C763 C 0.41533 0.03852 0.64991 0.0
C764 C 0.35065 0.03769 0.65581 0.0
C765 C 0.31218 0.02798 0.63686 0.0
C766 C 0.33825 0.01912 0.6119 0.0
C767 C 0.49421 0.93952 0.55244 0.0
C768 C 0.43552 0.93178 0.5558 0.0
C769 C 0.49846 0.95653 0.55252 0.0
C770 C 0.44401 0.96619 0.55526 0.0
C771 C 0.38546 0.95851 0.55947 0.0
C772 C 0.38125 0.94143 0.55984 0.0
C773 C 0.44863 0.98427 0.55357 0.0
C774 C 0.42264 0.99366 0.57802 0.0
C775 C 0.48137 0.9922 0.52881 0.0
C776 C 0.50453 0.98317 0.50075 0.0
C777 C 0.4633 0.97337 0.48305 0.0
C778 C 0.4854 0.96479 0.45681 0.0
C779 C 0.54858 0.96599 0.44789 0.0
C780 C 0.58976 0.97582 0.46514 0.0
C781 C 0.56791 0.98442 0.49141 0.0
H782 H 0.5656 0.95934 0.42757 0.0
H783 H 0.33037 0.04455 0.67511 0.0
H784 H 0.05036 0.30153 0.04775 0.0
H785 H 0.09539 0.27403 0.05179 0.0
H786 H 0.27137 0.29464 0.08318 0.0
H787 H 0.22627 0.32199 0.08029 0.0
H788 H 0.18664 0.26051 0.02122 0.0
H789 H 0.35019 0.26898 0.12945 0.0
H790 H 0.35144 0.2842 0.17954 0.0
H791 H 0.14932 0.28593 0.17976 0.0
H792 H 0.14683 0.27056 0.12989 0.0
H793 H 0.4104 0.19727 0.0198 0.0
H794 H 0.36497 0.22466 0.02436 0.0
H795 H 0.26271 0.20966 0.10727 0.0
H796 H 0.3088 0.18242 0.10337 0.0
H797 H 0.30355 0.23994 0.11419 0.0
H798 H 0.19079 0.20997 0.03599 0.0
H799 H 0.17854 0.19321 0.98818 0.0
H800 H 0.25808 0.23182 0.93231 0.0
H801 H 0.27152 0.24873 0.97988 0.0
C802 C 0.09837 0.30017 0.05591 0.0
C803 C 0.13455 0.31393 0.0639 0.0
C804 C 0.12412 0.28446 0.0581 0.0
C805 C 0.18658 0.28225 0.0681 0.0
C806 C 0.22266 0.29599 0.07612 0.0
C807 C 0.19676 0.31164 0.07436 0.0
C808 C 0.21507 0.26567 0.06884 0.0
C809 C 0.21201 0.25602 0.0416 0.0
C810 C 0.2474 0.25966 0.09558 0.0
C811 C 0.2484 0.26873 0.1258 0.0
C812 C 0.30602 0.27254 0.14027 0.0
C813 C 0.30694 0.28121 0.1686 0.0
C814 C 0.25051 0.28606 0.18278 0.0
C815 C 0.19301 0.28221 0.1687 0.0
C816 C 0.19182 0.27354 0.14038 0.0
C817 C 0.37899 0.19986 0.03928 0.0
C818 C 0.36276 0.18759 0.06102 0.0
C819 C 0.35284 0.2155 0.04176 0.0
C820 C 0.30953 0.21908 0.0658 0.0
C821 C 0.29584 0.20714 0.08847 0.0
C822 C 0.32221 0.19154 0.08613 0.0
C823 C 0.27592 0.23497 0.06643 0.0
C824 C 0.2781 0.24448 0.09387 0.0
C825 C 0.24111 0.24064 0.04022 0.0
C826 C 0.23268 0.23055 0.01153 0.0
C827 C 0.20605 0.21484 0.01353 0.0
C828 C 0.19883 0.20532 0.98648 0.0
C829 C 0.21767 0.21143 0.95724 0.0
C830 C 0.24358 0.22709 0.95498 0.0
C831 C 0.25094 0.23666 0.98197 0.0
H832 H 0.21207 0.20404 0.93632 0.0
H833 H 0.25132 0.29278 0.2047 0.0
H834 H 0.57093 0.79677 0.00949 0.0
H835 H 0.63422 0.77189 0.0111 0.0
H836 H 0.65624 0.77728 0.11145 0.0
H837 H 0.59434 0.80245 0.10991 0.0
H838 H 0.76616 0.77416 0.08496 0.0
H839 H 0.57196 0.74512 0.07822 0.0
H840 H 0.46766 0.73745 0.05761 0.0
H841 H 0.55105 0.72465 0.96888 0.0
H842 H 0.65577 0.73248 0.98879 0.0
H843 H 0.90248 0.69387 0.10745 0.0
H844 H 0.83958 0.71898 0.10851 0.0
H845 H 0.84972 0.72195 0.00737 0.0
H846 H 0.91372 0.69705 0.00607 0.0
H847 H 0.72406 0.72049 0.03503 0.0
H848 H 0.91891 0.74995 0.04322 0.0
H849 H 0.02227 0.75728 0.06539 0.0
H850 H 0.93508 0.76863 0.15394 0.0
H851 H 0.83124 0.76116 0.13243 0.0
C852 C 0.58772 0.79243 0.03205 0.0
C853 C 0.57817 0.80168 0.05953 0.0
C854 C 0.62391 0.77817 0.03294 0.0
C855 C 0.65017 0.77275 0.06139 0.0
C856 C 0.63683 0.78132 0.0892 0.0
C857 C 0.60121 0.79567 0.0883 0.0
C858 C 0.69679 0.75924 0.06159 0.0
C859 C 0.75646 0.76231 0.07455 0.0
C860 C 0.6848 0.74397 0.0472 0.0
C861 C 0.62168 0.73955 0.03492 0.0
C862 C 0.56798 0.74086 0.05419 0.0
C863 C 0.50879 0.73644 0.04265 0.0
C864 C 0.5027 0.73062 0.01192 0.0
C865 C 0.5558 0.72921 0.99265 0.0
C866 C 0.61509 0.73363 0.00405 0.0
C867 C 0.89284 0.70013 0.08551 0.0
C868 C 0.91276 0.69347 0.05667 0.0
C869 C 0.85694 0.71445 0.08617 0.0
C870 C 0.83985 0.72217 0.058 0.0
C871 C 0.86255 0.71609 0.02931 0.0
C872 C 0.89943 0.70194 0.02866 0.0
C873 C 0.79293 0.7355 0.05832 0.0
C874 C 0.73334 0.73235 0.04549 0.0
C875 C 0.80474 0.75063 0.07311 0.0
C876 C 0.86736 0.75477 0.08632 0.0
C877 C 0.92185 0.7538 0.06754 0.0
C878 C 0.98051 0.75804 0.07996 0.0
C879 C 0.98527 0.76337 0.11108 0.0
C880 C 0.93136 0.76446 0.12986 0.0
C881 C 0.87258 0.76024 0.11755 0.0
H882 H 0.03071 0.76669 0.12062 0.0
H883 H 0.45687 0.72716 0.00307 0.0
H884 H 0.21134 0.67539 0.49197 0.0
H885 H 0.26188 0.70214 0.4906 0.0
H886 H 0.11641 0.72169 0.55082 0.0
H887 H 0.065 0.69495 0.5522 0.0
H888 H 0.14623 0.74314 0.5057 0.0
H889 H 0.25505 0.71099 0.58127 0.0
H890 H 0.31495 0.68803 0.60407 0.0
H891 H 0.46366 0.69583 0.53719 0.0
H892 H 0.40409 0.71867 0.51356 0.0
H893 H 0.39745 0.80062 0.57569 0.0
H894 H 0.35066 0.77347 0.57214 0.0
H895 H 0.30543 0.7821 0.47462 0.0
H896 H 0.35075 0.80949 0.47815 0.0
H897 H 0.36929 0.74675 0.53961 0.0
H898 H 0.15829 0.76486 0.4598 0.0
H899 H 0.09822 0.78964 0.44573 0.0
H900 H 0.14861 0.8118 0.53362 0.0
H901 H 0.20664 0.78689 0.54888 0.0
C902 C 0.18951 0.6854 0.50466 0.0
C903 C 0.13419 0.68299 0.52237 0.0
C904 C 0.21873 0.70067 0.50395 0.0
C905 C 0.19335 0.71383 0.52095 0.0
C906 C 0.13681 0.71167 0.53759 0.0
C907 C 0.10756 0.69637 0.53839 0.0
C908 C 0.22697 0.72967 0.52222 0.0
C909 C 0.19507 0.74394 0.51298 0.0
C910 C 0.29026 0.73073 0.53242 0.0
C911 C 0.32479 0.71646 0.54545 0.0
C912 C 0.3001 0.70767 0.57111 0.0
C913 C 0.33412 0.69472 0.58428 0.0
C914 C 0.39319 0.69053 0.57219 0.0
C915 C 0.41804 0.69915 0.54664 0.0
C916 C 0.38409 0.71207 0.53329 0.0
C917 C 0.37839 0.79669 0.55333 0.0
C918 C 0.37713 0.80731 0.5273 0.0
C919 C 0.35169 0.78114 0.55135 0.0
C920 C 0.32351 0.7759 0.5233 0.0
C921 C 0.32579 0.78605 0.49668 0.0
C922 C 0.35196 0.80167 0.49871 0.0
C923 C 0.28903 0.76017 0.52253 0.0
C924 C 0.32068 0.74593 0.53195 0.0
C925 C 0.22494 0.75924 0.51348 0.0
C926 C 0.18764 0.77405 0.50526 0.0
C927 C 0.15603 0.77494 0.47628 0.0
C928 C 0.12216 0.789 0.46815 0.0
C929 C 0.11958 0.80228 0.48879 0.0
C930 C 0.15046 0.80148 0.51773 0.0
C931 C 0.1837 0.78737 0.52616 0.0
H932 H 0.09365 0.81318 0.48236 0.0
H933 H 0.41971 0.68061 0.58263 0.0
H934 H 0.944 0.29335 0.56939 0.0
H935 H 0.88489 0.26795 0.565 0.0
H936 H 0.85538 0.27714 0.46614 0.0
H937 H 0.91323 0.30281 0.4705 0.0
H938 H 0.74788 0.27253 0.49375 0.0
H939 H 0.94211 0.2437 0.49261 0.0
H940 H 0.04871 0.23546 0.50924 0.0
H941 H 0.97574 0.21948 0.59834 0.0
H942 H 0.86877 0.22782 0.58245 0.0
H943 H 0.60781 0.19187 0.47238 0.0
H944 H 0.67369 0.21641 0.4693 0.0
H945 H 0.66764 0.22091 0.57028 0.0
H946 H 0.6004 0.19665 0.57357 0.0
H947 H 0.79438 0.21771 0.53802 0.0
H948 H 0.59948 0.2483 0.53751 0.0
H949 H 0.49436 0.25634 0.5184 0.0
H950 H 0.5727 0.26823 0.42806 0.0
H951 H 0.6782 0.26001 0.44649 0.0
C952 C 0.92655 0.28976 0.54649 0.0
C953 C 0.93255 0.30023 0.52039 0.0
C954 C 0.89283 0.27517 0.54399 0.0
C955 C 0.8654 0.27066 0.51525 0.0
C956 C 0.87572 0.28045 0.4886 0.0
C957 C 0.90898 0.2951 0.49113 0.0
C958 C 0.81947 0.25704 0.51406 0.0
C959 C 0.75861 0.26044 0.50283 0.0
C960 C 0.83291 0.24137 0.52655 0.0
C961 C 0.89741 0.23655 0.53643 0.0
C962 C 0.94884 0.23858 0.51588 0.0
C963 C 0.00933 0.23385 0.52515 0.0
C964 C 0.019 0.227 0.55487 0.0
C965 C 0.96818 0.22481 0.57535 0.0
C966 C 0.90759 0.22953 0.56621 0.0
C967 C 0.61911 0.19836 0.49385 0.0
C968 C 0.59912 0.19236 0.52322 0.0
C969 C 0.65671 0.21233 0.49204 0.0
C970 C 0.67561 0.22032 0.51958 0.0
C971 C 0.65334 0.21484 0.54881 0.0
C972 C 0.61463 0.20107 0.55061 0.0
C973 C 0.72335 0.23337 0.51807 0.0
C974 C 0.78432 0.2298 0.52872 0.0
C975 C 0.71036 0.24879 0.50462 0.0
C976 C 0.64662 0.25329 0.49325 0.0
C977 C 0.59417 0.25238 0.51343 0.0
C978 C 0.53454 0.25704 0.50275 0.0
C979 C 0.52681 0.26273 0.472 0.0
C980 C 0.57871 0.26377 0.45185 0.0
C981 C 0.63843 0.25912 0.4624 0.0
H982 H 0.48065 0.26639 0.46381 0.0
H983 H 0.06585 0.22336 0.56203 0.0
H984 H 0.96533 0.38935 0.16395 0.0
H985 H 0.96232 0.39143 0.22113 0.0
H986 H 0.16429 0.38543 0.22458 0.0
H987 H 0.16703 0.38251 0.16738 0.0
H988 H 0.11691 0.36696 0.26559 0.0
H989 H 0.08634 0.42302 0.24217 0.0
H990 H 0.04078 0.44735 0.2165 0.0
H991 H 0.86005 0.43633 0.25666 0.0
H992 H 0.90427 0.41179 0.28222 0.0
H993 H 0.10976 0.38289 0.43169 0.0
H994 H 0.12853 0.38859 0.37582 0.0
H995 H 0.93435 0.37759 0.35538 0.0
H996 H 0.9154 0.37154 0.41098 0.0
H997 H 0.98967 0.4075 0.32497 0.0
H998 H 0.02615 0.34904 0.34258 0.0
H999 H 0.07825 0.32593 0.36934 0.0
H1000 H 0.25912 0.34416 0.34075 0.0
H1001 H 0.20801 0.36753 0.31421 0.0
C1002 C 0.00917 0.38867 0.17688 0.0
C1003 C 0.06638 0.38571 0.16124 0.0
C1004 C 0.0075 0.38998 0.2096 0.0
C1005 C 0.06322 0.38883 0.22726 0.0
C1006 C 0.12066 0.38635 0.21152 0.0
C1007 C 0.12219 0.38469 0.17884 0.0
C1008 C 0.06073 0.38893 0.26219 0.0
C1009 C 0.0902 0.37608 0.27849 0.0
C1010 C 0.02554 0.40072 0.27925 0.0
C1011 C -0.00141 0.41548 0.26394 0.0
C1012 C 0.03677 0.42571 0.24535 0.0
C1013 C 0.01119 0.43955 0.23084 0.0
C1014 C 0.94754 0.44336 0.2349 0.0
C1015 C 0.90935 0.43336 0.25353 0.0
C1016 C 0.93467 0.41949 0.26807 0.0
C1017 C 0.07095 0.38183 0.41533 0.0
C1018 C 0.01121 0.37666 0.42562 0.0
C1019 C 0.08176 0.3851 0.38351 0.0
C1020 C 0.03275 0.3835 0.36168 0.0
C1021 C 0.97258 0.37894 0.37202 0.0
C1022 C 0.96201 0.37538 0.40369 0.0
C1023 C 0.04488 0.38548 0.32771 0.0
C1024 C 0.01719 0.39865 0.31179 0.0
C1025 C 0.08277 0.37423 0.31103 0.0
C1026 C 0.11334 0.36012 0.32677 0.0
C1027 C 0.07705 0.3482 0.34226 0.0
C1028 C 0.10639 0.33504 0.35733 0.0
C1029 C 0.17197 0.3336 0.35684 0.0
C1030 C 0.20833 0.3453 0.34118 0.0
C1031 C 0.17921 0.3585 0.32611 0.0
H1032 H 0.1946 0.3234 0.36851 0.0
H1033 H 0.92783 0.45409 0.22365 0.0
H1034 H 0.95742 0.64102 0.17689 0.0
H1035 H 0.97432 0.63482 0.23219 0.0
H1036 H 0.06617 0.58955 0.20689 0.0
H1037 H 0.05092 0.59592 0.15111 0.0
H1038 H 0.93148 0.6112 0.26727 0.0
H1039 H 0.17459 0.58037 0.26449 0.0
H1040 H 0.27183 0.58004 0.23255 0.0
H1041 H 0.23521 0.62922 0.202 0.0
H1042 H 0.13805 0.62987 0.23391 0.0
H1043 H -0.0077 0.59038 0.42562 0.0
H1044 H 0.98668 0.58645 0.36864 0.0
H1045 H 0.12332 0.62488 0.35523 0.0
H1046 H 0.13074 0.62851 0.41191 0.0
H1047 H 0.1427 0.6017 0.31354 0.0
H1048 H 0.96209 0.63224 0.35243 0.0
H1049 H 0.86745 0.63622 0.38533 0.0
H1050 H 0.7823 0.59377 0.34395 0.0
H1051 H 0.87685 0.58945 0.31107 0.0
C1052 C 0.98135 0.62975 0.18299 0.0
C1053 C 0.00282 0.61896 0.1596 0.0
C1054 C 0.99079 0.62619 0.21465 0.0
C1055 C 0.02153 0.61173 0.22367 0.0
C1056 C 0.04296 0.60087 0.20043 0.0
C1057 C 0.03409 0.60451 0.1686 0.0
C1058 C 0.03053 0.60826 0.25754 0.0
C1059 C 0.97764 0.60897 0.27733 0.0
C1060 C 0.09068 0.60534 0.27067 0.0
C1061 C 0.14875 0.60508 0.25128 0.0
C1062 C 0.18735 0.5911 0.25094 0.0
C1063 C 0.24241 0.59086 0.23285 0.0
C1064 C 0.25958 0.60458 0.2152 0.0
C1065 C 0.22172 0.61857 0.21559 0.0
C1066 C 0.16658 0.61888 0.23361 0.0
C1067 C 0.02164 0.59786 0.41052 0.0
C1068 C 0.06132 0.60991 0.42324 0.0
C1069 C 0.01843 0.59559 0.378 0.0
C1070 C 0.0539 0.60554 0.3577 0.0
C1071 C 0.09562 0.61704 0.37044 0.0
C1072 C 0.09948 0.61917 0.40289 0.0
C1073 C 0.04392 0.60516 0.32326 0.0
C1074 C 0.09644 0.60359 0.30336 0.0
C1075 C 0.98365 0.60777 0.31001 0.0
C1076 C 0.92673 0.61041 0.32961 0.0
C1077 C 0.92332 0.6237 0.35052 0.0
C1078 C 0.8697 0.62603 0.36913 0.0
C1079 C 0.81898 0.61522 0.36681 0.0
C1080 C 0.82169 0.60211 0.34578 0.0
C1081 C 0.87525 0.59971 0.32715 0.0
H1082 H 0.77751 0.61704 0.38124 0.0
H1083 H 0.30234 0.60438 0.2013 0.0
H1084 H 0.04613 0.64799 0.92017 0.0
H1085 H 0.04861 0.64956 0.86303 0.0
H1086 H 0.85129 0.63699 0.85955 0.0
H1087 H 0.84946 0.63457 0.91697 0.0
H1088 H 0.90694 0.62075 0.81759 0.0
H1089 H 0.90784 0.67694 0.84281 0.0
H1090 H 0.93943 0.70231 0.86978 0.0
H1091 H 0.12555 0.6981 0.83094 0.0
H1092 H 0.09538 0.67257 0.80408 0.0
H1093 H 0.97856 0.65882 0.65265 0.0
H1094 H 0.94897 0.66247 0.70778 0.0
H1095 H 0.04158 0.6171 0.73138 0.0
H1096 H 0.07092 0.61324 0.67637 0.0
H1097 H 0.01572 0.6656 0.76061 0.0
H1098 H 0.95526 0.59689 0.78494 0.0
H1099 H 0.90916 0.57359 0.75622 0.0
H1100 H 0.81516 0.60678 0.69353 0.0
H1101 H 0.85996 0.63024 0.72207 0.0
C1102 C 0.0031 0.64569 0.90727 0.0
C1103 C 0.94755 0.64119 0.92301 0.0
C1104 C 0.00444 0.64671 0.87456 0.0
C1105 C 0.94981 0.64373 0.85692 0.0
C1106 C 0.894 0.6394 0.87264 0.0
C1107 C 0.89296 0.63803 0.90541 0.0
C1108 C 0.95244 0.64421 0.82205 0.0
C1109 C 0.93029 0.63063 0.80518 0.0
C1110 C 0.98095 0.65735 0.80557 0.0
C1111 C -0.00062 0.67277 0.82155 0.0
C1112 C 0.95562 0.68136 0.84016 0.0
C1113 C 0.97327 0.69578 0.85542 0.0
C1114 C 0.03448 0.7018 0.85211 0.0
C1115 C 0.07814 0.69343 0.83348 0.0
C1116 C 0.06076 0.67899 0.81818 0.0
C1117 C -0.0071 0.64964 0.66957 0.0
C1118 C 0.02689 0.63568 0.66007 0.0
C1119 C 0.97597 0.65177 0.70105 0.0
C1120 C -0.00768 0.63995 0.7235 0.0
C1121 C 0.02758 0.62623 0.71426 0.0
C1122 C 0.04464 0.62409 0.68283 0.0
C1123 C 0.97283 0.64185 0.75671 0.0
C1124 C 0.99167 0.65586 0.77314 0.0
C1125 C 0.93903 0.62944 0.77259 0.0
C1126 C 0.91148 0.61532 0.75551 0.0
C1127 C 0.92455 0.59921 0.76511 0.0
C1128 C 0.89868 0.58597 0.74883 0.0
C1129 C 0.85941 0.5887 0.72299 0.0
C1130 C 0.84578 0.60467 0.71344 0.0
C1131 C 0.8715 0.61794 0.72963 0.0
H1132 H 0.83945 0.57844 0.71042 0.0
H1133 H 0.04805 0.71296 0.86395 0.0
H1134 H 0.0383 0.34 0.6655 0.0
H1135 H 0.03766 0.33892 0.72273 0.0
H1136 H 0.86273 0.3659 0.72452 0.0
H1137 H 0.86456 0.36762 0.66708 0.0
H1138 H 0.93471 0.37818 0.76521 0.0
H1139 H 0.87142 0.32411 0.74458 0.0
H1140 H 0.87192 0.29683 0.71994 0.0
H1141 H 0.05415 0.28699 0.75931 0.0
H1142 H 0.0552 0.31432 0.78383 0.0
H1143 H 0.96056 0.34031 0.93372 0.0
H1144 H 0.92992 0.33716 0.87862 0.0
H1145 H 0.06582 0.37381 0.85173 0.0
H1146 H 0.09581 0.37729 0.90662 0.0
H1147 H 0.98773 0.32828 0.8263 0.0
H1148 H 0.00813 0.39789 0.79563 0.0
H1149 H 0.99161 0.4244 0.82208 0.0
H1150 H 0.86494 0.40176 0.88778 0.0
H1151 H 0.87994 0.37517 0.86146 0.0
C1152 C -0.00065 0.34557 0.67804 0.0
C1153 C 0.95153 0.35392 0.66179 0.0
C1154 C -0.00122 0.34484 0.7108 0.0
C1155 C 0.94961 0.3521 0.728 0.0
C1156 C 0.90114 0.3602 0.71178 0.0
C1157 C 0.90223 0.36117 0.67897 0.0
C1158 C 0.95151 0.35218 0.76289 0.0
C1159 C 0.94578 0.36723 0.77853 0.0
C1160 C 0.96381 0.33782 0.78055 0.0
C1161 C 0.96352 0.32133 0.76591 0.0
C1162 C 0.91181 0.31618 0.74782 0.0
C1163 C 0.91179 0.3007 0.73389 0.0
C1164 C 0.96308 0.29019 0.73801 0.0
C1165 C 0.01445 0.29514 0.75613 0.0
C1166 C 0.01474 0.31063 0.77009 0.0
C1167 C 0.98429 0.34761 0.91604 0.0
C1168 C 0.03025 0.35917 0.92458 0.0
C1169 C 0.96668 0.34578 0.88459 0.0
C1170 C -0.00528 0.35547 0.86121 0.0
C1171 C 0.04253 0.36648 0.86952 0.0
C1172 C 0.05986 0.36839 0.9009 0.0
C1173 C 0.97383 0.35436 0.82809 0.0
C1174 C 0.97583 0.33915 0.81289 0.0
C1175 C 0.95555 0.36845 0.81102 0.0
C1176 C 0.9456 0.3845 0.82668 0.0
C1177 C 0.97648 0.39858 0.8156 0.0
C1178 C 0.96744 0.41362 0.83061 0.0
C1179 C 0.9274 0.41475 0.85664 0.0
C1180 C 0.89612 0.40086 0.86768 0.0
C1181 C 0.90494 0.38579 0.85275 0.0
H1182 H 0.92053 0.42641 0.86824 0.0
H1183 H 0.96297 0.27821 0.72721 0.0
H1184 H 0.62873 0.87065 0.17002 0.0
H1185 H 0.63094 0.87593 0.22656 0.0
H1186 H 0.43168 0.88643 0.22517 0.0
H1187 H 0.42966 0.8818 0.16845 0.0
H1188 H 0.488 0.90639 0.26442 0.0
H1189 H 0.49168 0.84801 0.24559 0.0
H1190 H 0.53369 0.82239 0.22319 0.0
H1191 H 0.7091 0.83007 0.27101 0.0
H1192 H 0.66833 0.85586 0.29339 0.0
H1193 H 0.3777 0.87717 0.41207 0.0
H1194 H 0.40403 0.88102 0.3565 0.0
H1195 H 0.60059 0.88543 0.3803 0.0
H1196 H 0.57452 0.88202 0.43619 0.0
H1197 H 0.56287 0.86067 0.3316 0.0
H1198 H 0.54775 0.91729 0.35752 0.0
H1199 H 0.49892 0.94172 0.38127 0.0
H1200 H 0.33797 0.93622 0.32124 0.0
H1201 H 0.38533 0.91157 0.2975 0.0
C1202 C 0.58549 0.8742 0.18174 0.0
C1203 C 0.52883 0.87561 0.1649 0.0
C1204 C 0.58683 0.87721 0.21403 0.0
C1205 C 0.53124 0.88127 0.23018 0.0
C1206 C 0.47514 0.8833 0.2132 0.0
C1207 C 0.47398 0.88057 0.18081 0.0
C1208 C 0.53034 0.8824 0.26495 0.0
C1209 C 0.50423 0.89638 0.27909 0.0
C1210 C 0.55282 0.86948 0.28415 0.0
C1211 C 0.57725 0.85395 0.27084 0.0
C1212 C 0.53936 0.84429 0.25114 0.0
C1213 C 0.56292 0.82973 0.23848 0.0
C1214 C 0.6241 0.82463 0.24559 0.0
C1215 C 0.66178 0.83405 0.26547 0.0
C1216 C 0.63847 0.84864 0.27816 0.0
C1217 C 0.42645 0.87909 0.40549 0.0
C1218 C 0.47411 0.87925 0.42834 0.0
C1219 C 0.44132 0.88137 0.37385 0.0
C1220 C 0.5041 0.88358 0.36455 0.0
C1221 C 0.55186 0.88383 0.38724 0.0
C1222 C 0.53687 0.8819 0.41903 0.0
C1223 C 0.51948 0.88446 0.33081 0.0
C1224 C 0.54801 0.87082 0.31689 0.0
C1225 C 0.49847 0.89757 0.31189 0.0
C1226 C 0.46992 0.91248 0.3259 0.0
C1227 C 0.50169 0.9212 0.34957 0.0
C1228 C 0.47432 0.93511 0.363 0.0
C1229 C 0.41533 0.9405 0.35281 0.0
C1230 C 0.38365 0.93202 0.32912 0.0
C1231 C 0.41078 0.91808 0.31564 0.0
H1232 H 0.39422 0.95128 0.36323 0.0
H1233 H 0.64226 0.81336 0.23576 0.0
H1234 H 0.52881 0.09708 0.14997 0.0
H1235 H 0.5467 0.09175 0.20593 0.0
H1236 H 0.40387 0.12727 0.22981 0.0
H1237 H 0.38453 0.13232 0.17429 0.0
H1238 H 0.58714 0.11015 0.2513 0.0
H1239 H 0.32572 0.11739 0.29378 0.0
H1240 H 0.21945 0.11039 0.27482 0.0
H1241 H 0.29732 0.07262 0.21633 0.0
H1242 H 0.40395 0.07921 0.23527 0.0
H1243 H 0.57108 0.1403 0.40407 0.0
H1244 H 0.56462 0.13367 0.34831 0.0
H1245 H 0.46491 0.08913 0.37073 0.0
H1246 H 0.46846 0.09619 0.42659 0.0
H1247 H 0.40933 0.10234 0.32566 0.0
H1248 H 0.62245 0.08931 0.34234 0.0
H1249 H 0.73148 0.09251 0.36115 0.0
H1250 H 0.75559 0.13448 0.30157 0.0
H1251 H 0.6464 0.1317 0.28273 0.0
C1252 C 0.501 0.10369 0.16718 0.0
C1253 C 0.45498 0.11506 0.1577 0.0
C1254 C 0.51131 0.10062 0.19911 0.0
C1255 C 0.47585 0.1089 0.222 0.0
C1256 C 0.43062 0.12042 0.21255 0.0
C1257 C 0.41989 0.12337 0.18075 0.0
C1258 C 0.48731 0.10614 0.25592 0.0
C1259 C 0.54847 0.10828 0.26761 0.0
C1260 C 0.43721 0.10302 0.27706 0.0
C1261 C 0.37295 0.09887 0.26585 0.0
C1262 C 0.32017 0.10752 0.27703 0.0
C1263 C 0.25985 0.10364 0.26625 0.0
C1264 C 0.25165 0.09109 0.24434 0.0
C1265 C 0.30375 0.08237 0.23323 0.0
C1266 C 0.36415 0.08619 0.24395 0.0
C1267 C 0.54814 0.12905 0.39711 0.0
C1268 C 0.52008 0.11879 0.41959 0.0
C1269 C 0.54499 0.12517 0.36523 0.0
C1270 C 0.51535 0.11073 0.35528 0.0
C1271 C 0.48813 0.10033 0.37782 0.0
C1272 C 0.49009 0.10438 0.40969 0.0
C1273 C 0.50874 0.10722 0.32123 0.0
C1274 C 0.44841 0.10387 0.30947 0.0
C1275 C 0.56008 0.10859 0.30007 0.0
C1276 C 0.62601 0.11033 0.31122 0.0
C1277 C 0.65084 0.09929 0.33338 0.0
C1278 C 0.71271 0.10102 0.34404 0.0
C1279 C 0.75041 0.1137 0.33259 0.0
C1280 C 0.72634 0.12466 0.31041 0.0
C1281 C 0.66447 0.123 0.29969 0.0
H1282 H 0.79829 0.11502 0.34087 0.0
H1283 H 0.20492 0.08812 0.23601 0.0
H1284 H 0.41762 0.15801 0.91786 0.0
H1285 H 0.43176 0.15867 0.8607 0.0
H1286 H 0.4045 0.10645 0.85664 0.0
H1287 H 0.38909 0.10568 0.9137 0.0
H1288 H 0.52005 0.1195 0.82789 0.0
H1289 H 0.295 0.1269 0.82886 0.0
H1290 H 0.19606 0.14021 0.84537 0.0
H1291 H 0.25951 0.18576 0.80627 0.0
H1292 H 0.35935 0.17279 0.78999 0.0
H1293 H 0.52511 0.1091 0.66335 0.0
H1294 H 0.49966 0.10857 0.71927 0.0
H1295 H 0.4739 0.16097 0.71841 0.0
H1296 H 0.49674 0.16148 0.66202 0.0
H1297 H 0.38359 0.1478 0.75036 0.0
H1298 H 0.60771 0.14201 0.75078 0.0
H1299 H 0.71061 0.13024 0.73607 0.0
H1300 H 0.65495 0.0838 0.77425 0.0
H1301 H 0.55136 0.09524 0.78883 0.0
C1302 C 0.41383 0.1467 0.90474 0.0
C1303 C 0.40246 0.13178 0.9202 0.0
C1304 C 0.42174 0.14711 0.87216 0.0
C1305 C 0.41919 0.1326 0.85469 0.0
C1306 C 0.40653 0.11775 0.8699 0.0
C1307 C 0.3975 0.11736 0.9024 0.0
C1308 C 0.43375 0.13281 0.8208 0.0
C1309 C 0.48989 0.12545 0.81076 0.0
C1310 C 0.39522 0.14111 0.79896 0.0
C1311 C 0.33497 0.14891 0.80849 0.0
C1312 C 0.28813 0.1398 0.82404 0.0
C1313 C 0.23182 0.14727 0.83331 0.0
C1314 C 0.22157 0.16383 0.82695 0.0
C1315 C 0.26755 0.17294 0.81122 0.0
C1316 C 0.32399 0.16553 0.80194 0.0
C1317 C 0.51462 0.12054 0.67512 0.0
C1318 C 0.51323 0.13535 0.65836 0.0
C1319 C 0.5002 0.12022 0.70713 0.0
C1320 C 0.48574 0.13476 0.72317 0.0
C1321 C 0.48488 0.1496 0.70651 0.0
C1322 C 0.49821 0.14988 0.67435 0.0
C1323 C 0.47022 0.13443 0.75716 0.0
C1324 C 0.41393 0.1418 0.76734 0.0
C1325 C 0.50922 0.12637 0.77929 0.0
C1326 C 0.57155 0.11945 0.77062 0.0
C1327 C 0.61724 0.12926 0.75583 0.0
C1328 C 0.67572 0.12265 0.74755 0.0
C1329 C 0.68925 0.10627 0.75415 0.0
C1330 C 0.64438 0.09648 0.76912 0.0
C1331 C 0.5858 0.10302 0.77742 0.0
H1332 H 0.73455 0.10117 0.74772 0.0
H1333 H 0.17795 0.1696 0.83414 0.0
H1334 H 0.37767 0.89094 0.67002 0.0
H1335 H 0.38975 0.89108 0.7273 0.0
H1336 H 0.43364 0.83956 0.72574 0.0
H1337 H 0.42259 0.83933 0.66849 0.0
H1338 H 0.34947 0.85058 0.77664 0.0
H1339 H 0.55037 0.86293 0.72625 0.0
H1340 H 0.61807 0.87877 0.69022 0.0
H1341 H 0.57488 0.92281 0.74091 0.0
H1342 H 0.50611 0.90725 0.77697 0.0
H1343 H 0.5016 0.83636 0.9202 0.0
H1344 H 0.47609 0.83783 0.86429 0.0
H1345 H 0.48714 0.89054 0.86789 0.0
H1346 H 0.5157 0.88907 0.92349 0.0
H1347 H 0.53612 0.88071 0.81607 0.0
H1348 H 0.3455 0.8689 0.87039 0.0
H1349 H 0.27626 0.85393 0.90698 0.0
H1350 H 0.29114 0.81087 0.84976 0.0
H1351 H 0.36255 0.82536 0.81341 0.0
C1352 C 0.38885 0.87959 0.68193 0.0
C1353 C 0.39976 0.86515 0.6648 0.0
C1354 C 0.39579 0.8797 0.71457 0.0
C1355 C 0.4129 0.86535 0.73051 0.0
C1356 C 0.42035 0.85073 0.71372 0.0
C1357 C 0.41436 0.85065 0.68106 0.0
C1358 C 0.42826 0.86579 0.76429 0.0
C1359 C 0.3904 0.85705 0.7854 0.0
C1360 C 0.48067 0.87466 0.7755 0.0
C1361 C 0.52258 0.88397 0.75407 0.0
C1362 C 0.5549 0.87602 0.72954 0.0
C1363 C 0.59354 0.88494 0.70915 0.0
C1364 C 0.60063 0.90179 0.71321 0.0
C1365 C 0.56926 0.90976 0.73775 0.0
C1366 C 0.53047 0.90089 0.75818 0.0
C1367 C 0.49909 0.84825 0.90897 0.0
C1368 C 0.51025 0.86261 0.92615 0.0
C1369 C 0.48408 0.84908 0.87709 0.0
C1370 C 0.47806 0.86432 0.86209 0.0
C1371 C 0.49116 0.87865 0.87901 0.0
C1372 C 0.50752 0.8778 0.91075 0.0
C1373 C 0.45774 0.86529 0.82882 0.0
C1374 C 0.49469 0.87433 0.80765 0.0
C1375 C 0.40379 0.85689 0.8177 0.0
C1376 C 0.35989 0.8482 0.83926 0.0
C1377 C 0.33443 0.8562 0.86569 0.0
C1378 C 0.29472 0.84781 0.8864 0.0
C1379 C 0.27907 0.8315 0.88064 0.0
C1380 C 0.30327 0.82352 0.85419 0.0
C1381 C 0.34351 0.8318 0.83356 0.0
H1382 H 0.24821 0.82504 0.89668 0.0
H1383 H 0.63056 0.90868 0.6974 0.0
loop_
_geom_bond_atom_site_label_1
_geom_bond_atom_site_label_2
_geom_bond_distance
_geom_bond_site_symmetry_2
_ccdc_geom_bond_type
O0 Zn1 1.953 . S
O0 C16 1.225 . S
Zn1 O0 1.953 . S
Zn1 O2 1.949 . S
Zn1 O8 1.919 1_554 S
Zn1 O13 1.924 . S
O2 Zn1 1.949 . S
O2 Zn3 1.923 . S
O2 Zn4 1.950 . S
O2 Zn5 1.945 1_455 S
Zn3 O2 1.923 . S
Zn3 O6 1.933 1_455 S
Zn3 O9 1.941 1_554 S
Zn3 O10 1.965 . S
Zn4 O2 1.950 . S
Zn4 O11 1.938 . S
Zn4 O12 1.906 . S
Zn4 O22 1.953 . S
Zn5 O2 1.945 1_655 S
Zn5 O7 1.932 . S
Zn5 O14 1.977 1_655 S
Zn5 O15 1.910 1_655 S
O6 Zn3 1.933 1_655 S
O6 C17 1.226 . S
O7 Zn5 1.932 . S
O7 C17 1.307 . S
O8 Zn1 1.919 1_556 S
O8 C19 1.253 . S
O9 Zn3 1.941 1_556 S
O9 C19 1.283 . S
O10 Zn3 1.965 . S
O10 C18 1.303 . S
O11 Zn4 1.938 . S
O11 C18 1.247 . S
O12 Zn4 1.906 . S
O12 C20 1.304 . S
O13 Zn1 1.924 . S
O13 C21 1.311 . S
O14 Zn5 1.977 1_455 S
O14 C20 1.272 . S
O15 Zn5 1.910 1_455 S
O15 C21 1.231 . S
C16 O0 1.225 . S
C16 O22 1.298 . S
C17 O6 1.226 . S
C17 O7 1.307 . S
C18 O10 1.303 . S
C18 O11 1.247 . S
C19 O8 1.253 . S
C19 O9 1.283 . S
C20 O12 1.304 . S
C20 O14 1.272 . S
C21 O13 1.311 . S
C21 O15 1.231 . S
O22 Zn4 1.953 . S
O22 C16 1.298 . S
O23 Zn24 1.953 . S
O23 C39 1.225 . S
Zn24 O23 1.953 . S
Zn24 O25 1.949 . S
Zn24 O31 1.919 1_554 S
Zn24 O36 1.924 . S
O25 Zn24 1.949 . S
O25 Zn26 1.923 . S
O25 Zn27 1.950 . S
O25 Zn28 1.945 1_655 S
Zn26 O25 1.923 . S
Zn26 O29 1.933 1_655 S
Zn26 O32 1.941 1_554 S
Zn26 O33 1.965 . S
Zn27 O25 1.950 . S
Zn27 O34 1.938 . S
Zn27 O35 1.906 . S
Zn27 O45 1.953 . S
Zn28 O25 1.945 1_455 S
Zn28 O30 1.932 . S
Zn28 O37 1.977 1_455 S
Zn28 O38 1.910 1_455 S
O29 Zn26 1.933 1_455 S
O29 C40 1.226 . S
O30 Zn28 1.932 . S
O30 C40 1.307 . S
O31 Zn24 1.919 1_556 S
O31 C42 1.253 . S
O32 Zn26 1.941 1_556 S
O32 C42 1.283 . S
O33 Zn26 1.965 . S
O33 C41 1.303 . S
O34 Zn27 1.938 . S
O34 C41 1.247 . S
O35 Zn27 1.906 . S
O35 C43 1.304 . S
O36 Zn24 1.924 . S
O36 C44 1.311 . S
O37 Zn28 1.977 1_655 S
O37 C43 1.272 . S
O38 Zn28 1.910 1_655 S
O38 C44 1.231 . S
C39 O23 1.225 . S
C39 O45 1.298 . S
C40 O29 1.226 . S
C40 O30 1.307 . S
C41 O33 1.303 . S
C41 O34 1.247 . S
C42 O31 1.253 . S
C42 O32 1.283 . S
C43 O35 1.304 . S
C43 O37 1.272 . S
C44 O36 1.311 . S
C44 O38 1.231 . S
O45 Zn27 1.953 . S
O45 C39 1.298 . S
O46 Zn47 1.953 . S
O46 C62 1.225 . S
Zn47 O46 1.953 . S
Zn47 O48 1.949 . S
Zn47 O54 1.919 . S
Zn47 O59 1.924 . S
O48 Zn47 1.949 . S
O48 Zn49 1.923 . S
O48 Zn50 1.950 . S
O48 Zn51 1.945 1_455 S
Zn49 O48 1.923 . S
Zn49 O52 1.933 1_455 S
Zn49 O55 1.941 . S
Zn49 O56 1.965 . S
Zn50 O48 1.950 . S
Zn50 O57 1.938 . S
Zn50 O58 1.906 . S
Zn50 O68 1.953 . S
Zn51 O48 1.945 1_655 S
Zn51 O53 1.932 . S
Zn51 O60 1.977 1_655 S
Zn51 O61 1.910 1_655 S
O52 Zn49 1.933 1_655 S
O52 C63 1.226 . S
O53 Zn51 1.932 . S
O53 C63 1.307 . S
O54 Zn47 1.919 . S
O54 C65 1.253 . S
O55 Zn49 1.941 . S
O55 C65 1.283 . S
O56 Zn49 1.965 . S
O56 C64 1.303 . S
O57 Zn50 1.938 . S
O57 C64 1.247 . S
O58 Zn50 1.906 . S
O58 C66 1.304 . S
O59 Zn47 1.924 . S
O59 C67 1.311 . S
O60 Zn51 1.977 1_455 S
O60 C66 1.272 . S
O61 Zn51 1.910 1_455 S
O61 C67 1.231 . S
C62 O46 1.225 . S
C62 O68 1.298 . S
C63 O52 1.226 . S
C63 O53 1.307 . S
C64 O56 1.303 . S
C64 O57 1.247 . S
C65 O54 1.253 . S
C65 O55 1.283 . S
C66 O58 1.304 . S
C66 O60 1.272 . S
C67 O59 1.311 . S
C67 O61 1.231 . S
O68 Zn50 1.953 . S
O68 C62 1.298 . S
O69 Zn70 1.953 . S
O69 C85 1.225 . S
Zn70 O69 1.953 . S
Zn70 O71 1.949 . S
Zn70 O77 1.919 . S
Zn70 O82 1.924 . S
O71 Zn70 1.949 . S
O71 Zn72 1.923 . S
O71 Zn73 1.950 . S
O71 Zn74 1.945 1_655 S
Zn72 O71 1.923 . S
Zn72 O75 1.933 1_655 S
Zn72 O78 1.941 . S
Zn72 O79 1.965 . S
Zn73 O71 1.950 . S
Zn73 O80 1.938 . S
Zn73 O81 1.906 . S
Zn73 O91 1.953 . S
Zn74 O71 1.945 1_455 S
Zn74 O76 1.932 . S
Zn74 O83 1.977 1_455 S
Zn74 O84 1.910 1_455 S
O75 Zn72 1.933 1_455 S
O75 C86 1.226 . S
O76 Zn74 1.932 . S
O76 C86 1.307 . S
O77 Zn70 1.919 . S
O77 C88 1.253 . S
O78 Zn72 1.941 . S
O78 C88 1.283 . S
O79 Zn72 1.965 . S
O79 C87 1.303 . S
O80 Zn73 1.938 . S
O80 C87 1.247 . S
O81 Zn73 1.906 . S
O81 C89 1.304 . S
O82 Zn70 1.924 . S
O82 C90 1.311 . S
O83 Zn74 1.977 1_655 S
O83 C89 1.272 . S
O84 Zn74 1.910 1_655 S
O84 C90 1.231 . S
C85 O69 1.225 . S
C85 O91 1.298 . S
C86 O75 1.226 . S
C86 O76 1.307 . S
C87 O79 1.303 . S
C87 O80 1.247 . S
C88 O77 1.253 . S
C88 O78 1.283 . S
C89 O81 1.304 . S
C89 O83 1.272 . S
C90 O82 1.311 . S
C90 O84 1.231 . S
O91 Zn73 1.953 . S
O91 C85 1.298 . S
O92 Zn93 1.953 . S
O92 C108 1.225 . S
Zn93 O92 1.953 . S
Zn93 O94 1.949 . S
Zn93 O100 1.919 1_554 S
Zn93 O105 1.924 . S
O94 Zn93 1.949 . S
O94 Zn95 1.923 . S
O94 Zn96 1.950 . S
O94 Zn97 1.945 . S
Zn95 O94 1.923 . S
Zn95 O98 1.933 . S
Zn95 O101 1.941 1_554 S
Zn95 O102 1.965 . S
Zn96 O94 1.950 . S
Zn96 O103 1.938 . S
Zn96 O104 1.906 . S
Zn96 O114 1.953 . S
Zn97 O94 1.945 . S
Zn97 O99 1.932 . S
Zn97 O106 1.977 . S
Zn97 O107 1.910 . S
O98 Zn95 1.933 . S
O98 C109 1.226 . S
O99 Zn97 1.932 . S
O99 C109 1.307 . S
O100 Zn93 1.919 1_556 S
O100 C111 1.253 . S
O101 Zn95 1.941 1_556 S
O101 C111 1.283 . S
O102 Zn95 1.965 . S
O102 C110 1.303 . S
O103 Zn96 1.938 . S
O103 C110 1.247 . S
O104 Zn96 1.906 . S
O104 C112 1.304 . S
O105 Zn93 1.924 . S
O105 C113 1.311 . S
O106 Zn97 1.977 . S
O106 C112 1.272 . S
O107 Zn97 1.910 . S
O107 C113 1.231 . S
C108 O92 1.225 . S
C108 O114 1.298 . S
C109 O98 1.226 . S
C109 O99 1.307 . S
C110 O102 1.303 . S
C110 O103 1.247 . S
C111 O100 1.253 . S
C111 O101 1.283 . S
C112 O104 1.304 . S
C112 O106 1.272 . S
C113 O105 1.311 . S
C113 O107 1.231 . S
O114 Zn96 1.953 . S
O114 C108 1.298 . S
O115 Zn116 1.953 . S
O115 C131 1.225 . S
Zn116 O115 1.953 . S
Zn116 O117 1.949 . S
Zn116 O123 1.919 1_554 S
Zn116 O128 1.924 . S
O117 Zn116 1.949 . S
O117 Zn118 1.923 . S
O117 Zn119 1.950 . S
O117 Zn120 1.945 . S
Zn118 O117 1.923 . S
Zn118 O121 1.933 . S
Zn118 O124 1.941 1_554 S
Zn118 O125 1.965 . S
Zn119 O117 1.950 . S
Zn119 O126 1.938 . S
Zn119 O127 1.906 . S
Zn119 O137 1.953 . S
Zn120 O117 1.945 . S
Zn120 O122 1.932 . S
Zn120 O129 1.977 . S
Zn120 O130 1.910 . S
O121 Zn118 1.933 . S
O121 C132 1.226 . S
O122 Zn120 1.932 . S
O122 C132 1.307 . S
O123 Zn116 1.919 1_556 S
O123 C134 1.253 . S
O124 Zn118 1.941 1_556 S
O124 C134 1.283 . S
O125 Zn118 1.965 . S
O125 C133 1.303 . S
O126 Zn119 1.938 . S
O126 C133 1.247 . S
O127 Zn119 1.906 . S
O127 C135 1.304 . S
O128 Zn116 1.924 . S
O128 C136 1.311 . S
O129 Zn120 1.977 . S
O129 C135 1.272 . S
O130 Zn120 1.910 . S
O130 C136 1.231 . S
C131 O115 1.225 . S
C131 O137 1.298 . S
C132 O121 1.226 . S
C132 O122 1.307 . S
C133 O125 1.303 . S
C133 O126 1.247 . S
C134 O123 1.253 . S
C134 O124 1.283 . S
C135 O127 1.304 . S
C135 O129 1.272 . S
C136 O128 1.311 . S
C136 O130 1.231 . S
O137 Zn119 1.953 . S
O137 C131 1.298 . S
O138 Zn139 1.953 . S
O138 C154 1.225 . S
Zn139 O138 1.953 . S
Zn139 O140 1.949 . S
Zn139 O146 1.919 . S
Zn139 O151 1.924 . S
O140 Zn139 1.949 . S
O140 Zn141 1.923 . S
O140 Zn142 1.950 . S
O140 Zn143 1.945 . S
Zn141 O140 1.923 . S
Zn141 O144 1.933 . S
Zn141 O147 1.941 . S
Zn141 O148 1.965 . S
Zn142 O140 1.950 . S
Zn142 O149 1.938 . S
Zn142 O150 1.906 . S
Zn142 O160 1.953 . S
Zn143 O140 1.945 . S
Zn143 O145 1.932 . S
Zn143 O152 1.977 . S
Zn143 O153 1.910 . S
O144 Zn141 1.933 . S
O144 C155 1.226 . S
O145 Zn143 1.932 . S
O145 C155 1.307 . S
O146 Zn139 1.919 . S
O146 C157 1.253 . S
O147 Zn141 1.941 . S
O147 C157 1.283 . S
O148 Zn141 1.965 . S
O148 C156 1.303 . S
O149 Zn142 1.938 . S
O149 C156 1.247 . S
O150 Zn142 1.906 . S
O150 C158 1.304 . S
O151 Zn139 1.924 . S
O151 C159 1.311 . S
O152 Zn143 1.977 . S
O152 C158 1.272 . S
O153 Zn143 1.910 . S
O153 C159 1.231 . S
C154 O138 1.225 . S
C154 O160 1.298 . S
C155 O144 1.226 . S
C155 O145 1.307 . S
C156 O148 1.303 . S
C156 O149 1.247 . S
C157 O146 1.253 . S
C157 O147 1.283 . S
C158 O150 1.304 . S
C158 O152 1.272 . S
C159 O151 1.311 . S
C159 O153 1.231 . S
O160 Zn142 1.953 . S
O160 C154 1.298 . S
O161 Zn162 1.953 . S
O161 C177 1.225 . S
Zn162 O161 1.953 . S
Zn162 O163 1.949 . S
Zn162 O169 1.919 . S
Zn162 O174 1.924 . S
O163 Zn162 1.949 . S
O163 Zn164 1.923 . S
O163 Zn165 1.950 . S
O163 Zn166 1.945 . S
Zn164 O163 1.923 . S
Zn164 O167 1.933 . S
Zn164 O170 1.941 . S
Zn164 O171 1.965 . S
Zn165 O163 1.950 . S
Zn165 O172 1.938 . S
Zn165 O173 1.906 . S
Zn165 O183 1.953 . S
Zn166 O163 1.945 . S
Zn166 O168 1.932 . S
Zn166 O175 1.977 . S
Zn166 O176 1.910 . S
O167 Zn164 1.933 . S
O167 C178 1.226 . S
O168 Zn166 1.932 . S
O168 C178 1.307 . S
O169 Zn162 1.919 . S
O169 C180 1.253 . S
O170 Zn164 1.941 . S
O170 C180 1.283 . S
O171 Zn164 1.965 . S
O171 C179 1.303 . S
O172 Zn165 1.938 . S
O172 C179 1.247 . S
O173 Zn165 1.906 . S
O173 C181 1.304 . S
O174 Zn162 1.924 . S
O174 C182 1.311 . S
O175 Zn166 1.977 . S
O175 C181 1.272 . S
O176 Zn166 1.910 . S
O176 C182 1.231 . S
C177 O161 1.225 . S
C177 O183 1.298 . S
C178 O167 1.226 . S
C178 O168 1.307 . S
C179 O171 1.303 . S
C179 O172 1.247 . S
C180 O169 1.253 . S
C180 O170 1.283 . S
C181 O173 1.304 . S
C181 O175 1.272 . S
C182 O174 1.311 . S
C182 O176 1.231 . S
O183 Zn165 1.953 . S
O183 C177 1.298 . S
H184 C202 0.951 . S
H185 C204 0.951 . S
H186 C206 0.950 . S
H187 C207 0.950 . S
H188 C209 0.950 . S
H189 C212 0.950 . S
H190 C213 0.950 . S
H191 C215 0.950 . S
H192 C216 0.950 . S
H193 C217 0.951 . S
H194 C219 0.951 . S
H195 C221 0.950 . S
H196 C222 0.950 . S
H197 C224 0.950 . S
H198 C227 0.950 . S
H199 C228 0.950 . S
H200 C230 0.950 . S
H201 C231 0.950 1_554 S
C202 H184 0.951 . S
C202 C203 1.366 . S
C202 C204 1.388 . S
C203 C202 1.366 . S
C203 C207 1.385 . S
C204 H185 0.951 . S
C204 C202 1.388 . S
C204 C205 1.366 . S
C205 C204 1.366 . S
C205 C206 1.414 . S
C205 C208 1.499 . S
C206 H186 0.950 . S
C206 C205 1.414 . S
C206 C207 1.374 . S
C207 H187 0.950 . S
C207 C203 1.385 . S
C207 C206 1.374 . S
C208 C205 1.499 . S
C208 C209 1.373 . S
C208 C210 1.389 . S
C209 H188 0.950 . S
C209 C208 1.373 . S
C209 C225 1.377 . S
C210 C208 1.389 . S
C210 C211 1.524 . S
C210 C224 1.377 . S
C211 C210 1.524 . S
C211 C212 1.397 . S
C211 C216 1.363 . S
C212 H189 0.950 . S
C212 C211 1.397 . S
C212 C213 1.334 . S
C213 H190 0.950 . S
C213 C212 1.334 . S
C213 C214 1.287 . S
C214 C213 1.287 . S
C214 C215 1.524 . S
C214 H233 0.913 . S
C215 H191 0.950 . S
C215 C214 1.524 . S
C215 C216 1.415 . S
C216 H192 0.950 . S
C216 C211 1.363 . S
C216 C215 1.415 . S
C217 H193 0.951 . S
C217 C218 1.366 . S
C217 C219 1.388 . S
C218 C217 1.366 . S
C218 C222 1.385 . S
C219 H194 0.951 . S
C219 C217 1.388 . S
C219 C220 1.366 . S
C220 C219 1.366 . S
C220 C221 1.414 . S
C220 C223 1.499 . S
C221 H195 0.950 . S
C221 C220 1.414 . S
C221 C222 1.374 . S
C222 H196 0.950 . S
C222 C218 1.385 . S
C222 C221 1.374 . S
C223 C220 1.499 . S
C223 C224 1.373 . S
C223 C225 1.389 . S
C224 H197 0.950 . S
C224 C210 1.377 . S
C224 C223 1.373 . S
C225 C209 1.377 . S
C225 C223 1.389 . S
C225 C226 1.524 1_554 S
C226 C225 1.524 1_556 S
C226 C227 1.397 . S
C226 C231 1.363 . S
C227 H198 0.950 . S
C227 C226 1.397 . S
C227 C228 1.334 . S
C228 H199 0.950 . S
C228 C227 1.334 . S
C228 C229 1.287 . S
C229 C228 1.287 . S
C229 C230 1.524 . S
C229 H232 0.999 . S
C230 H200 0.950 . S
C230 C229 1.524 . S
C230 C231 1.415 . S
C231 H201 0.950 1_556 S
C231 C226 1.363 . S
C231 C230 1.415 . S
H232 C229 0.999 . S
H233 C214 0.913 . S
H234 C252 0.951 . S
H235 C254 0.951 . S
H236 C256 0.950 . S
H237 C257 0.950 . S
H238 C259 0.950 . S
H239 C262 0.950 . S
H240 C263 0.950 . S
H241 C265 0.950 . S
H242 C266 0.950 . S
H243 C267 0.951 . S
H244 C269 0.951 . S
H245 C271 0.950 . S
H246 C272 0.950 . S
H247 C274 0.950 . S
H248 C277 0.950 . S
H249 C278 0.950 . S
H250 C280 0.950 . S
H251 C281 0.950 . S
C252 H234 0.951 . S
C252 C253 1.366 . S
C252 C254 1.388 . S
C253 C252 1.366 . S
C253 C257 1.385 . S
C254 H235 0.951 . S
C254 C252 1.388 . S
C254 C255 1.366 . S
C255 C254 1.366 . S
C255 C256 1.414 . S
C255 C258 1.499 . S
C256 H236 0.950 . S
C256 C255 1.414 . S
C256 C257 1.374 . S
C257 H237 0.950 . S
C257 C253 1.385 . S
C257 C256 1.374 . S
C258 C255 1.499 . S
C258 C259 1.373 . S
C258 C260 1.389 . S
C259 H238 0.950 . S
C259 C258 1.373 . S
C259 C275 1.377 . S
C260 C258 1.389 . S
C260 C261 1.524 . S
C260 C274 1.377 . S
C261 C260 1.524 . S
C261 C262 1.397 . S
C261 C266 1.363 . S
C262 H239 0.950 . S
C262 C261 1.397 . S
C262 C263 1.334 . S
C263 H240 0.950 . S
C263 C262 1.334 . S
C263 C264 1.287 . S
C264 C263 1.287 . S
C264 C265 1.524 . S
C264 H283 0.913 . S
C265 H241 0.950 . S
C265 C264 1.524 . S
C265 C266 1.415 . S
C266 H242 0.950 . S
C266 C261 1.363 . S
C266 C265 1.415 . S
C267 H243 0.951 . S
C267 C268 1.366 . S
C267 C269 1.388 . S
C268 C267 1.366 . S
C268 C272 1.385 . S
C269 H244 0.951 . S
C269 C267 1.388 . S
C269 C270 1.366 . S
C270 C269 1.366 . S
C270 C271 1.414 . S
C270 C273 1.499 . S
C271 H245 0.950 . S
C271 C270 1.414 . S
C271 C272 1.374 . S
C272 H246 0.950 . S
C272 C268 1.385 . S
C272 C271 1.374 . S
C273 C270 1.499 . S
C273 C274 1.373 . S
C273 C275 1.389 . S
C274 H247 0.950 . S
C274 C260 1.377 . S
C274 C273 1.373 . S
C275 C259 1.377 . S
C275 C273 1.389 . S
C275 C276 1.524 . S
C276 C275 1.524 . S
C276 C277 1.397 1_554 S
C276 C281 1.363 . S
C277 H248 0.950 . S
C277 C276 1.397 1_556 S
C277 C278 1.334 . S
C278 H249 0.950 . S
C278 C277 1.334 . S
C278 C279 1.287 . S
C279 C278 1.287 . S
C279 C280 1.524 . S
C279 H282 0.999 . S
C280 H250 0.950 . S
C280 C279 1.524 . S
C280 C281 1.415 1_556 S
C281 H251 0.950 . S
C281 C276 1.363 . S
C281 C280 1.415 1_554 S
H282 C279 0.999 . S
H283 C264 0.913 . S
H284 C302 0.951 . S
H285 C304 0.951 . S
H286 C306 0.950 . S
H287 C307 0.950 . S
H288 C309 0.950 . S
H289 C312 0.950 . S
H290 C313 0.950 . S
H291 C315 0.950 . S
H292 C316 0.950 . S
H293 C317 0.951 . S
H294 C319 0.951 . S
H295 C321 0.950 . S
H296 C322 0.950 . S
H297 C324 0.950 . S
H298 C327 0.950 . S
H299 C328 0.950 . S
H300 C330 0.950 . S
H301 C331 0.950 . S
C302 H284 0.951 . S
C302 C303 1.366 . S
C302 C304 1.388 . S
C303 C302 1.366 . S
C303 C307 1.385 . S
C304 H285 0.951 . S
C304 C302 1.388 . S
C304 C305 1.366 . S
C305 C304 1.366 . S
C305 C306 1.414 . S
C305 C308 1.499 . S
C306 H286 0.950 . S
C306 C305 1.414 . S
C306 C307 1.374 . S
C307 H287 0.950 . S
C307 C303 1.385 . S
C307 C306 1.374 . S
C308 C305 1.499 . S
C308 C309 1.373 . S
C308 C310 1.389 . S
C309 H288 0.950 . S
C309 C308 1.373 . S
C309 C325 1.377 . S
C310 C308 1.389 . S
C310 C311 1.524 . S
C310 C324 1.377 . S
C311 C310 1.524 . S
C311 C312 1.397 . S
C311 C316 1.363 . S
C312 H289 0.950 . S
C312 C311 1.397 . S
C312 C313 1.334 . S
C313 H290 0.950 . S
C313 C312 1.334 . S
C313 C314 1.287 . S
C314 C313 1.287 . S
C314 C315 1.524 . S
C314 H333 0.913 . S
C315 H291 0.950 . S
C315 C314 1.524 . S
C315 C316 1.415 . S
C316 H292 0.950 . S
C316 C311 1.363 . S
C316 C315 1.415 . S
C317 H293 0.951 . S
C317 C318 1.366 . S
C317 C319 1.388 . S
C318 C317 1.366 . S
C318 C322 1.385 . S
C319 H294 0.951 . S
C319 C317 1.388 . S
C319 C320 1.366 . S
C320 C319 1.366 . S
C320 C321 1.414 . S
C320 C323 1.499 . S
C321 H295 0.950 . S
C321 C320 1.414 . S
C321 C322 1.374 . S
C322 H296 0.950 . S
C322 C318 1.385 . S
C322 C321 1.374 . S
C323 C320 1.499 . S
C323 C324 1.373 . S
C323 C325 1.389 . S
C324 H297 0.950 . S
C324 C310 1.377 . S
C324 C323 1.373 . S
C325 C309 1.377 . S
C325 C323 1.389 . S
C325 C326 1.524 . S
C326 C325 1.524 . S
C326 C327 1.397 . S
C326 C331 1.363 . S
C327 H298 0.950 . S
C327 C326 1.397 . S
C327 C328 1.334 . S
C328 H299 0.950 . S
C328 C327 1.334 . S
C328 C329 1.287 . S
C329 C328 1.287 . S
C329 C330 1.524 . S
C329 H332 0.999 . S
C330 H300 0.950 . S
C330 C329 1.524 . S
C330 C331 1.415 . S
C331 H301 0.950 . S
C331 C326 1.363 . S
C331 C330 1.415 . S
H332 C329 0.999 . S
H333 C314 0.913 . S
H334 C352 0.951 . S
H335 C354 0.951 . S
H336 C356 0.950 . S
H337 C357 0.950 . S
H338 C359 0.950 . S
H339 C362 0.950 . S
H340 C363 0.950 . S
H341 C365 0.950 . S
H342 C366 0.950 . S
H343 C367 0.951 . S
H344 C369 0.951 . S
H345 C371 0.950 . S
H346 C372 0.950 . S
H347 C374 0.950 . S
H348 C377 0.950 . S
H349 C378 0.950 . S
H350 C380 0.950 . S
H351 C381 0.950 . S
C352 H334 0.951 . S
C352 C353 1.366 . S
C352 C354 1.388 . S
C353 C352 1.366 . S
C353 C357 1.385 . S
C354 H335 0.951 . S
C354 C352 1.388 . S
C354 C355 1.366 . S
C355 C354 1.366 . S
C355 C356 1.414 . S
C355 C358 1.499 . S
C356 H336 0.950 . S
C356 C355 1.414 . S
C356 C357 1.374 . S
C357 H337 0.950 . S
C357 C353 1.385 . S
C357 C356 1.374 . S
C358 C355 1.499 . S
C358 C359 1.373 . S
C358 C360 1.389 . S
C359 H338 0.950 . S
C359 C358 1.373 . S
C359 C375 1.377 . S
C360 C358 1.389 . S
C360 C361 1.524 . S
C360 C374 1.377 . S
C361 C360 1.524 . S
C361 C362 1.397 . S
C361 C366 1.363 . S
C362 H339 0.950 . S
C362 C361 1.397 . S
C362 C363 1.334 . S
C363 H340 0.950 . S
C363 C362 1.334 . S
C363 C364 1.287 . S
C364 C363 1.287 . S
C364 C365 1.524 . S
C364 H383 0.913 . S
C365 H341 0.950 . S
C365 C364 1.524 . S
C365 C366 1.415 . S
C366 H342 0.950 . S
C366 C361 1.363 . S
C366 C365 1.415 . S
C367 H343 0.951 . S
C367 C368 1.366 . S
C367 C369 1.388 . S
C368 C367 1.366 . S
C368 C372 1.385 . S
C369 H344 0.951 . S
C369 C367 1.388 . S
C369 C370 1.366 . S
C370 C369 1.366 . S
C370 C371 1.414 . S
C370 C373 1.499 . S
C371 H345 0.950 . S
C371 C370 1.414 . S
C371 C372 1.374 . S
C372 H346 0.950 . S
C372 C368 1.385 . S
C372 C371 1.374 . S
C373 C370 1.499 . S
C373 C374 1.373 . S
C373 C375 1.389 . S
C374 H347 0.950 . S
C374 C360 1.377 . S
C374 C373 1.373 . S
C375 C359 1.377 . S
C375 C373 1.389 . S
C375 C376 1.524 . S
C376 C375 1.524 . S
C376 C377 1.397 . S
C376 C381 1.363 . S
C377 H348 0.950 . S
C377 C376 1.397 . S
C377 C378 1.334 . S
C378 H349 0.950 . S
C378 C377 1.334 . S
C378 C379 1.287 . S
C379 C378 1.287 . S
C379 C380 1.524 . S
C379 H382 0.999 . S
C380 H350 0.950 . S
C380 C379 1.524 . S
C380 C381 1.415 . S
C381 H351 0.950 . S
C381 C376 1.363 . S
C381 C380 1.415 . S
H382 C379 0.999 . S
H383 C364 0.913 . S
H384 C402 0.951 . S
H385 C404 0.951 . S
H386 C406 0.950 . S
H387 C407 0.950 . S
H388 C409 0.950 . S
H389 C412 0.950 . S
H390 C413 0.950 . S
H391 C415 0.950 . S
H392 C416 0.950 . S
H393 C417 0.951 . S
H394 C419 0.951 . S
H395 C421 0.950 . S
H396 C422 0.950 . S
H397 C424 0.950 . S
H398 C427 0.950 . S
H399 C428 0.950 . S
H400 C430 0.950 . S
H401 C431 0.950 . S
C402 H384 0.951 . S
C402 C403 1.366 . S
C402 C404 1.388 . S
C403 C402 1.366 . S
C403 C407 1.385 . S
C404 H385 0.951 . S
C404 C402 1.388 . S
C404 C405 1.366 . S
C405 C404 1.366 . S
C405 C406 1.414 . S
C405 C408 1.499 . S
C406 H386 0.950 . S
C406 C405 1.414 . S
C406 C407 1.374 . S
C407 H387 0.950 . S
C407 C403 1.385 . S
C407 C406 1.374 . S
C408 C405 1.499 . S
C408 C409 1.373 1_655 S
C408 C410 1.389 1_655 S
C409 H388 0.950 . S
C409 C408 1.373 1_455 S
C409 C425 1.377 . S
C410 C408 1.389 1_455 S
C410 C411 1.524 1_455 S
C410 C424 1.377 . S
C411 C410 1.524 1_655 S
C411 C412 1.397 . S
C411 C416 1.363 1_655 S
C412 H389 0.950 . S
C412 C411 1.397 . S
C412 C413 1.334 . S
C413 H390 0.950 . S
C413 C412 1.334 . S
C413 C414 1.287 . S
C414 C413 1.287 . S
C414 C415 1.524 . S
C414 H433 0.913 . S
C415 H391 0.950 . S
C415 C414 1.524 . S
C415 C416 1.415 1_655 S
C416 H392 0.950 . S
C416 C411 1.363 1_455 S
C416 C415 1.415 1_455 S
C417 H393 0.951 . S
C417 C418 1.366 . S
C417 C419 1.388 . S
C418 C417 1.366 . S
C418 C422 1.385 . S
C419 H394 0.951 . S
C419 C417 1.388 . S
C419 C420 1.366 . S
C420 C419 1.366 . S
C420 C421 1.414 . S
C420 C423 1.499 . S
C421 H395 0.950 . S
C421 C420 1.414 . S
C421 C422 1.374 . S
C422 H396 0.950 . S
C422 C418 1.385 . S
C422 C421 1.374 . S
C423 C420 1.499 . S
C423 C424 1.373 . S
C423 C425 1.389 . S
C424 H397 0.950 . S
C424 C410 1.377 . S
C424 C423 1.373 . S
C425 C409 1.377 . S
C425 C423 1.389 . S
C425 C426 1.524 1_554 S
C426 C425 1.524 1_556 S
C426 C427 1.397 . S
C426 C431 1.363 . S
C427 H398 0.950 . S
C427 C426 1.397 . S
C427 C428 1.334 . S
C428 H399 0.950 . S
C428 C427 1.334 . S
C428 C429 1.287 . S
C429 C428 1.287 . S
C429 C430 1.524 . S
C429 H432 0.999 . S
C430 H400 0.950 . S
C430 C429 1.524 . S
C430 C431 1.415 . S
C431 H401 0.950 . S
C431 C426 1.363 . S
C431 C430 1.415 . S
H432 C429 0.999 . S
H433 C414 0.913 . S
H434 C452 0.951 . S
H435 C454 0.951 . S
H436 C456 0.950 . S
H437 C457 0.950 . S
H438 C459 0.950 1_455 S
H439 C462 0.950 . S
H440 C463 0.950 . S
H441 C465 0.950 1_655 S
H442 C466 0.950 . S
H443 C467 0.951 . S
H444 C469 0.951 . S
H445 C471 0.950 . S
H446 C472 0.950 . S
H447 C474 0.950 . S
H448 C477 0.950 . S
H449 C478 0.950 . S
H450 C480 0.950 . S
H451 C481 0.950 . S
C452 H434 0.951 . S
C452 C453 1.366 . S
C452 C454 1.388 . S
C453 C452 1.366 . S
C453 C457 1.385 . S
C454 H435 0.951 . S
C454 C452 1.388 . S
C454 C455 1.366 . S
C455 C454 1.366 . S
C455 C456 1.414 . S
C455 C458 1.499 . S
C456 H436 0.950 . S
C456 C455 1.414 . S
C456 C457 1.374 . S
C457 H437 0.950 . S
C457 C453 1.385 . S
C457 C456 1.374 . S
C458 C455 1.499 . S
C458 C459 1.373 1_455 S
C458 C460 1.389 1_455 S
C459 H438 0.950 1_655 S
C459 C458 1.373 1_655 S
C459 C475 1.377 . S
C460 C458 1.389 1_655 S
C460 C461 1.519 1_654 S
C460 C474 1.377 . S
C461 C460 1.519 1_456 S
C461 C462 1.406 . S
C461 C466 1.358 1_455 S
C462 H439 0.950 . S
C462 C461 1.406 . S
C462 C463 1.334 . S
C463 H440 0.950 . S
C463 C462 1.334 . S
C463 C464 1.287 . S
C464 C463 1.287 . S
C464 C465 1.524 . S
C464 H483 0.913 . S
C465 H441 0.950 1_455 S
C465 C464 1.524 . S
C465 C466 1.415 1_455 S
C466 H442 0.950 . S
C466 C461 1.358 1_655 S
C466 C465 1.415 1_655 S
C467 H443 0.951 . S
C467 C468 1.366 . S
C467 C469 1.388 . S
C468 C467 1.366 . S
C468 C472 1.385 . S
C469 H444 0.951 . S
C469 C467 1.388 . S
C469 C470 1.366 . S
C470 C469 1.366 . S
C470 C471 1.414 . S
C470 C473 1.499 . S
C471 H445 0.950 . S
C471 C470 1.414 . S
C471 C472 1.374 . S
C472 H446 0.950 . S
C472 C468 1.385 . S
C472 C471 1.374 . S
C473 C470 1.499 . S
C473 C474 1.373 . S
C473 C475 1.389 . S
C474 H447 0.950 . S
C474 C460 1.377 . S
C474 C473 1.373 . S
C475 C459 1.377 . S
C475 C473 1.389 . S
C475 C476 1.524 . S
C476 C475 1.524 . S
C476 C477 1.397 . S
C476 C481 1.363 . S
C477 H448 0.950 . S
C477 C476 1.397 . S
C477 C478 1.334 . S
C478 H449 0.950 . S
C478 C477 1.334 . S
C478 C479 1.287 . S
C479 C478 1.287 . S
C479 C480 1.524 . S
C479 H482 0.999 . S
C480 H450 0.950 . S
C480 C479 1.524 . S
C480 C481 1.415 . S
C481 H451 0.950 . S
C481 C476 1.363 . S
C481 C480 1.415 . S
H482 C479 0.999 . S
H483 C464 0.913 . S
H484 C502 0.951 . S
H485 C504 0.951 . S
H486 C506 0.950 . S
H487 C507 0.950 . S
H488 C509 0.950 . S
H489 C512 0.950 . S
H490 C513 0.950 . S
H491 C515 0.950 . S
H492 C516 0.950 . S
H493 C517 0.951 . S
H494 C519 0.951 . S
H495 C521 0.950 . S
H496 C522 0.950 . S
H497 C524 0.950 1_655 S
H498 C527 0.950 . S
H499 C528 0.950 . S
H500 C530 0.953 . S
H501 C531 0.950 . S
C502 H484 0.951 . S
C502 C503 1.366 . S
C502 C504 1.388 . S
C503 C502 1.366 . S
C503 C507 1.385 . S
C504 H485 0.951 . S
C504 C502 1.388 . S
C504 C505 1.366 . S
C505 C504 1.366 . S
C505 C506 1.414 . S
C505 C508 1.499 . S
C506 H486 0.950 . S
C506 C505 1.414 . S
C506 C507 1.374 . S
C507 H487 0.950 . S
C507 C503 1.385 . S
C507 C506 1.374 . S
C508 C505 1.499 . S
C508 C509 1.373 . S
C508 C510 1.389 . S
C509 H488 0.950 . S
C509 C508 1.373 . S
C509 C525 1.377 . S
C510 C508 1.389 . S
C510 C511 1.524 . S
C510 C524 1.377 . S
C511 C510 1.524 . S
C511 C512 1.397 . S
C511 C516 1.363 . S
C512 H489 0.950 . S
C512 C511 1.397 . S
C512 C513 1.334 . S
C513 H490 0.950 . S
C513 C512 1.334 . S
C513 C514 1.287 . S
C514 C513 1.287 . S
C514 C515 1.524 . S
C514 H533 0.913 . S
C515 H491 0.950 . S
C515 C514 1.524 . S
C515 C516 1.415 . S
C516 H492 0.950 . S
C516 C511 1.363 . S
C516 C515 1.415 . S
C517 H493 0.951 . S
C517 C518 1.366 . S
C517 C519 1.388 . S
C518 C517 1.366 . S
C518 C522 1.385 . S
C519 H494 0.951 . S
C519 C517 1.388 . S
C519 C520 1.366 . S
C520 C519 1.366 . S
C520 C521 1.414 . S
C520 C523 1.499 . S
C521 H495 0.950 . S
C521 C520 1.414 . S
C521 C522 1.374 . S
C522 H496 0.950 . S
C522 C518 1.385 . S
C522 C521 1.374 . S
C523 C520 1.499 . S
C523 C524 1.373 1_655 S
C523 C525 1.389 1_655 S
C524 H497 0.950 1_455 S
C524 C510 1.377 . S
C524 C523 1.373 1_455 S
C525 C509 1.377 . S
C525 C523 1.389 1_455 S
C525 C526 1.524 . S
C526 C525 1.524 . S
C526 C527 1.397 1_455 S
C526 C531 1.363 . S
C527 H498 0.950 . S
C527 C526 1.397 1_655 S
C527 C528 1.334 . S
C528 H499 0.950 . S
C528 C527 1.334 . S
C528 C529 1.287 . S
C529 C528 1.287 . S
C529 C530 1.514 1_655 S
C529 H532 0.999 . S
C530 H500 0.953 . S
C530 C529 1.514 1_455 S
C530 C531 1.421 . S
C531 H501 0.950 . S
C531 C526 1.363 . S
C531 C530 1.421 . S
H532 C529 0.999 . S
H533 C514 0.913 . S
H534 C552 0.951 . S
H535 C554 0.951 . S
H536 C556 0.950 . S
H537 C557 0.950 . S
H538 C559 0.950 . S
H539 C562 0.950 . S
H540 C563 0.950 . S
H541 C565 0.950 . S
H542 C566 0.950 . S
H543 C567 0.951 . S
H544 C569 0.951 . S
H545 C571 0.950 . S
H546 C572 0.950 . S
H547 C574 0.950 . S
H548 C577 0.950 . S
H549 C578 0.950 . S
H550 C580 0.950 . S
H551 C581 0.950 1_655 S
C552 H534 0.951 . S
C552 C553 1.366 . S
C552 C554 1.388 . S
C553 C552 1.366 . S
C553 C557 1.385 . S
C554 H535 0.951 . S
C554 C552 1.388 . S
C554 C555 1.366 . S
C555 C554 1.366 . S
C555 C556 1.414 . S
C555 C558 1.499 . S
C556 H536 0.950 . S
C556 C555 1.414 . S
C556 C557 1.374 . S
C557 H537 0.950 . S
C557 C553 1.385 . S
C557 C556 1.374 . S
C558 C555 1.499 . S
C558 C559 1.373 . S
C558 C560 1.389 . S
C559 H538 0.950 . S
C559 C558 1.373 . S
C559 C575 1.377 . S
C560 C558 1.389 . S
C560 C561 1.524 . S
C560 C574 1.377 . S
C561 C560 1.524 . S
C561 C562 1.397 . S
C561 C566 1.363 . S
C562 H539 0.950 . S
C562 C561 1.397 . S
C562 C563 1.334 . S
C563 H540 0.950 . S
C563 C562 1.334 . S
C563 C564 1.287 . S
C564 C563 1.287 . S
C564 C565 1.524 . S
C564 H583 0.913 . S
C565 H541 0.950 . S
C565 C564 1.524 . S
C565 C566 1.415 . S
C566 H542 0.950 . S
C566 C561 1.363 . S
C566 C565 1.415 . S
C567 H543 0.951 . S
C567 C568 1.366 . S
C567 C569 1.388 . S
C568 C567 1.366 . S
C568 C572 1.385 . S
C569 H544 0.951 . S
C569 C567 1.388 . S
C569 C570 1.366 . S
C570 C569 1.366 . S
C570 C571 1.414 . S
C570 C573 1.499 . S
C571 H545 0.950 . S
C571 C570 1.414 . S
C571 C572 1.374 . S
C572 H546 0.950 . S
C572 C568 1.385 . S
C572 C571 1.374 . S
C573 C570 1.499 . S
C573 C574 1.373 1_455 S
C573 C575 1.389 1_455 S
C574 H547 0.950 . S
C574 C560 1.377 . S
C574 C573 1.373 1_655 S
C575 C559 1.377 . S
C575 C573 1.389 1_655 S
C575 C576 1.524 1_655 S
C576 C575 1.524 1_455 S
C576 C577 1.397 . S
C576 C581 1.363 . S
C577 H548 0.950 . S
C577 C576 1.397 . S
C577 C578 1.334 . S
C578 H549 0.950 . S
C578 C577 1.334 . S
C578 C579 1.287 . S
C579 C578 1.287 . S
C579 C580 1.524 . S
C579 H582 0.999 . S
C580 H550 0.950 . S
C580 C579 1.524 . S
C580 C581 1.415 . S
C581 H551 0.950 1_455 S
C581 C576 1.363 . S
C581 C580 1.415 . S
H582 C579 0.999 . S
H583 C564 0.913 . S
H584 C602 0.951 1_455 S
H585 C604 0.951 . S
H586 C606 0.950 . S
H587 C607 0.950 . S
H588 C609 0.950 . S
H589 C612 0.950 1_556 S
H590 C613 0.950 1_556 S
H591 C615 0.950 . S
H592 C616 0.950 . S
H593 C617 0.951 1_655 S
H594 C619 0.951 . S
H595 C621 0.950 . S
H596 C622 0.950 . S
H597 C624 0.950 . S
H598 C627 0.950 . S
H599 C628 0.950 . S
H600 C630 0.950 . S
H601 C631 0.950 . S
C602 H584 0.951 1_655 S
C602 C603 1.366 . S
C602 C604 1.388 1_655 S
C603 C602 1.366 . S
C603 C607 1.385 . S
C604 H585 0.951 . S
C604 C602 1.388 1_455 S
C604 C605 1.366 1_455 S
C605 C604 1.366 1_655 S
C605 C606 1.414 . S
C605 C608 1.499 . S
C606 H586 0.950 . S
C606 C605 1.414 . S
C606 C607 1.374 . S
C607 H587 0.950 . S
C607 C603 1.385 . S
C607 C606 1.374 . S
C608 C605 1.499 . S
C608 C609 1.373 . S
C608 C610 1.389 1_655 S
C609 H588 0.950 . S
C609 C608 1.373 . S
C609 C625 1.377 . S
C610 C608 1.389 1_455 S
C610 C611 1.524 . S
C610 C624 1.377 . S
C611 C610 1.524 . S
C611 C612 1.397 . S
C611 C616 1.363 . S
C612 H589 0.950 1_554 S
C612 C611 1.397 . S
C612 C613 1.334 . S
C613 H590 0.950 1_554 S
C613 C612 1.334 . S
C613 C614 1.287 . S
C614 C613 1.287 . S
C614 C615 1.524 . S
C614 H633 0.913 . S
C615 H591 0.950 . S
C615 C614 1.524 . S
C615 C616 1.415 . S
C616 H592 0.950 . S
C616 C611 1.363 . S
C616 C615 1.415 . S
C617 H593 0.951 1_455 S
C617 C618 1.366 . S
C617 C619 1.388 1_455 S
C618 C617 1.366 . S
C618 C622 1.385 . S
C619 H594 0.951 . S
C619 C617 1.388 1_655 S
C619 C620 1.366 1_655 S
C620 C619 1.366 1_455 S
C620 C621 1.414 . S
C620 C623 1.499 . S
C621 H595 0.950 . S
C621 C620 1.414 . S
C621 C622 1.374 . S
C622 H596 0.950 . S
C622 C618 1.385 . S
C622 C621 1.374 . S
C623 C620 1.499 . S
C623 C624 1.373 . S
C623 C625 1.389 1_455 S
C624 H597 0.950 . S
C624 C610 1.377 . S
C624 C623 1.373 . S
C625 C609 1.377 . S
C625 C623 1.389 1_655 S
C625 C626 1.524 . S
C626 C625 1.524 . S
C626 C627 1.397 . S
C626 C631 1.363 . S
C627 H598 0.950 . S
C627 C626 1.397 . S
C627 C628 1.334 . S
C628 H599 0.950 . S
C628 C627 1.334 . S
C628 C629 1.287 . S
C629 C628 1.287 . S
C629 C630 1.524 . S
C629 H632 0.999 . S
C630 H600 0.950 . S
C630 C629 1.524 . S
C630 C631 1.415 . S
C631 H601 0.950 . S
C631 C626 1.363 . S
C631 C630 1.415 . S
H632 C629 0.999 . S
H633 C614 0.913 . S
H634 C652 0.951 . S
H635 C654 0.951 . S
H636 C656 0.950 . S
H637 C657 0.950 . S
H638 C659 0.950 . S
H639 C662 0.950 . S
H640 C663 0.950 . S
H641 C665 0.950 . S
H642 C666 0.950 . S
H643 C667 0.951 . S
H644 C669 0.951 . S
H645 C671 0.950 . S
H646 C672 0.950 . S
H647 C674 0.950 . S
H648 C677 0.950 . S
H649 C678 0.950 . S
H650 C680 0.950 . S
H651 C681 0.950 . S
C652 H634 0.951 . S
C652 C653 1.366 1_455 S
C652 C654 1.388 . S
C653 C652 1.366 1_655 S
C653 C657 1.385 . S
C654 H635 0.951 . S
C654 C652 1.388 . S
C654 C655 1.366 1_455 S
C655 C654 1.366 1_655 S
C655 C656 1.414 . S
C655 C658 1.499 . S
C656 H636 0.950 . S
C656 C655 1.414 . S
C656 C657 1.374 . S
C657 H637 0.950 . S
C657 C653 1.385 . S
C657 C656 1.374 . S
C658 C655 1.499 . S
C658 C659 1.373 . S
C658 C660 1.389 1_655 S
C659 H638 0.950 . S
C659 C658 1.373 . S
C659 C675 1.377 . S
C660 C658 1.389 1_455 S
C660 C661 1.524 . S
C660 C674 1.377 . S
C661 C660 1.524 . S
C661 C662 1.397 . S
C661 C666 1.363 . S
C662 H639 0.950 . S
C662 C661 1.397 . S
C662 C663 1.334 . S
C663 H640 0.950 . S
C663 C662 1.334 . S
C663 C664 1.287 . S
C664 C663 1.287 . S
C664 C665 1.524 . S
C664 H683 0.913 . S
C665 H641 0.950 . S
C665 C664 1.524 . S
C665 C666 1.415 . S
C666 H642 0.950 . S
C666 C661 1.363 . S
C666 C665 1.415 . S
C667 H643 0.951 . S
C667 C668 1.366 1_655 S
C667 C669 1.388 . S
C668 C667 1.366 1_455 S
C668 C672 1.385 . S
C669 H644 0.951 . S
C669 C667 1.388 . S
C669 C670 1.366 1_655 S
C670 C669 1.366 1_455 S
C670 C671 1.414 . S
C670 C673 1.499 . S
C671 H645 0.950 . S
C671 C670 1.414 . S
C671 C672 1.374 . S
C672 H646 0.950 . S
C672 C668 1.385 . S
C672 C671 1.374 . S
C673 C670 1.499 . S
C673 C674 1.373 . S
C673 C675 1.389 1_455 S
C674 H647 0.950 . S
C674 C660 1.377 . S
C674 C673 1.373 . S
C675 C659 1.377 . S
C675 C673 1.389 1_655 S
C675 C676 1.524 . S
C676 C675 1.524 . S
C676 C677 1.397 . S
C676 C681 1.363 . S
C677 H648 0.950 . S
C677 C676 1.397 . S
C677 C678 1.334 . S
C678 H649 0.950 . S
C678 C677 1.334 . S
C678 C679 1.287 . S
C679 C678 1.287 . S
C679 C680 1.524 . S
C679 H682 0.999 . S
C680 H650 0.950 . S
C680 C679 1.524 . S
C680 C681 1.415 . S
C681 H651 0.950 . S
C681 C676 1.363 . S
C681 C680 1.415 . S
H682 C679 0.999 . S
H683 C664 0.913 . S
H684 C702 0.951 . S
H685 C704 0.951 . S
H686 C706 0.950 . S
H687 C707 0.950 . S
H688 C709 0.950 . S
H689 C712 0.950 . S
H690 C713 0.950 . S
H691 C715 0.950 . S
H692 C716 0.950 1_545 S
H693 C717 0.951 . S
H694 C719 0.951 . S
H695 C721 0.950 . S
H696 C722 0.950 . S
H697 C724 0.950 . S
H698 C727 0.950 . S
H699 C728 0.950 . S
H700 C730 0.950 1_554 S
H701 C731 0.950 1_565 S
C702 H684 0.951 . S
C702 C703 1.366 . S
C702 C704 1.388 . S
C703 C702 1.366 . S
C703 C707 1.385 . S
C704 H685 0.951 . S
C704 C702 1.388 . S
C704 C705 1.366 . S
C705 C704 1.366 . S
C705 C706 1.414 . S
C705 C708 1.499 . S
C706 H686 0.950 . S
C706 C705 1.414 . S
C706 C707 1.374 . S
C707 H687 0.950 . S
C707 C703 1.385 . S
C707 C706 1.374 . S
C708 C705 1.499 . S
C708 C709 1.373 . S
C708 C710 1.389 . S
C709 H688 0.950 . S
C709 C708 1.373 . S
C709 C725 1.377 1_565 S
C710 C708 1.389 . S
C710 C711 1.524 . S
C710 C724 1.377 1_565 S
C711 C710 1.524 . S
C711 C712 1.397 . S
C711 C716 1.363 . S
C712 H689 0.950 . S
C712 C711 1.397 . S
C712 C713 1.334 . S
C713 H690 0.950 . S
C713 C712 1.334 . S
C713 C714 1.287 . S
C714 C713 1.287 . S
C714 C715 1.524 . S
C714 H733 0.913 . S
C715 H691 0.950 . S
C715 C714 1.524 . S
C715 C716 1.415 . S
C716 H692 0.950 1_565 S
C716 C711 1.363 . S
C716 C715 1.415 . S
C717 H693 0.951 . S
C717 C718 1.366 . S
C717 C719 1.388 . S
C718 C717 1.366 . S
C718 C722 1.385 . S
C719 H694 0.951 . S
C719 C717 1.388 . S
C719 C720 1.366 . S
C720 C719 1.366 . S
C720 C721 1.414 . S
C720 C723 1.499 . S
C721 H695 0.950 . S
C721 C720 1.414 . S
C721 C722 1.374 . S
C722 H696 0.950 . S
C722 C718 1.385 . S
C722 C721 1.374 . S
C723 C720 1.499 . S
C723 C724 1.373 . S
C723 C725 1.389 . S
C724 H697 0.950 . S
C724 C710 1.377 1_545 S
C724 C723 1.373 . S
C725 C709 1.377 1_545 S
C725 C723 1.389 . S
C725 C726 1.524 . S
C726 C725 1.524 . S
C726 C727 1.397 1_554 S
C726 C731 1.363 . S
C727 H698 0.950 . S
C727 C726 1.397 1_556 S
C727 C728 1.334 . S
C728 H699 0.950 . S
C728 C727 1.334 . S
C728 C729 1.287 . S
C729 C728 1.287 . S
C729 C730 1.523 . S
C729 H732 0.999 . S
C730 H700 0.950 1_556 S
C730 C729 1.523 . S
C730 C731 1.415 1_556 S
C731 H701 0.950 1_545 S
C731 C726 1.363 . S
C731 C730 1.415 1_554 S
H732 C729 0.999 . S
H733 C714 0.913 . S
H734 C752 0.951 . S
H735 C754 0.951 . S
H736 C756 0.950 . S
H737 C757 0.950 . S
H738 C759 0.950 . S
H739 C762 0.950 . S
H740 C763 0.950 . S
H741 C765 0.950 . S
H742 C766 0.950 . S
H743 C767 0.951 . S
H744 C769 0.951 . S
H745 C771 0.950 . S
H746 C772 0.950 . S
H747 C774 0.950 . S
H748 C777 0.950 . S
H749 C778 0.950 . S
H750 C780 0.950 . S
H751 C781 0.950 . S
C752 H734 0.951 . S
C752 C753 1.366 . S
C752 C754 1.388 . S
C753 C752 1.366 . S
C753 C757 1.385 . S
C754 H735 0.951 . S
C754 C752 1.388 . S
C754 C755 1.366 . S
C755 C754 1.366 . S
C755 C756 1.414 . S
C755 C758 1.499 . S
C756 H736 0.950 . S
C756 C755 1.414 . S
C756 C757 1.374 . S
C757 H737 0.950 . S
C757 C753 1.385 . S
C757 C756 1.374 . S
C758 C755 1.499 . S
C758 C759 1.373 . S
C758 C760 1.389 . S
C759 H738 0.950 . S
C759 C758 1.373 . S
C759 C775 1.377 1_545 S
C760 C758 1.389 . S
C760 C761 1.524 . S
C760 C774 1.377 1_545 S
C761 C760 1.524 . S
C761 C762 1.397 . S
C761 C766 1.363 . S
C762 H739 0.950 . S
C762 C761 1.397 . S
C762 C763 1.334 . S
C763 H740 0.950 . S
C763 C762 1.334 . S
C763 C764 1.287 . S
C764 C763 1.287 . S
C764 C765 1.524 . S
C764 H783 0.913 . S
C765 H741 0.950 . S
C765 C764 1.524 . S
C765 C766 1.415 . S
C766 H742 0.950 . S
C766 C761 1.363 . S
C766 C765 1.415 . S
C767 H743 0.951 . S
C767 C768 1.366 . S
C767 C769 1.388 . S
C768 C767 1.366 . S
C768 C772 1.385 . S
C769 H744 0.951 . S
C769 C767 1.388 . S
C769 C770 1.366 . S
C770 C769 1.366 . S
C770 C771 1.414 . S
C770 C773 1.499 . S
C771 H745 0.950 . S
C771 C770 1.414 . S
C771 C772 1.374 . S
C772 H746 0.950 . S
C772 C768 1.385 . S
C772 C771 1.374 . S
C773 C770 1.499 . S
C773 C774 1.373 . S
C773 C775 1.389 . S
C774 H747 0.950 . S
C774 C760 1.377 1_565 S
C774 C773 1.373 . S
C775 C759 1.377 1_565 S
C775 C773 1.389 . S
C775 C776 1.524 . S
C776 C775 1.524 . S
C776 C777 1.397 . S
C776 C781 1.363 . S
C777 H748 0.950 . S
C777 C776 1.397 . S
C777 C778 1.334 . S
C778 H749 0.950 . S
C778 C777 1.334 . S
C778 C779 1.287 . S
C779 C778 1.287 . S
C779 C780 1.524 . S
C779 H782 0.999 . S
C780 H750 0.950 . S
C780 C779 1.524 . S
C780 C781 1.415 . S
C781 H751 0.950 . S
C781 C776 1.363 . S
C781 C780 1.415 . S
H782 C779 0.999 . S
H783 C764 0.913 . S
H784 C802 0.951 . S
H785 C804 0.951 . S
H786 C806 0.950 . S
H787 C807 0.950 . S
H788 C809 0.950 . S
H789 C812 0.950 . S
H790 C813 0.950 . S
H791 C815 0.950 . S
H792 C816 0.950 . S
H793 C817 0.951 . S
H794 C819 0.951 . S
H795 C821 0.950 . S
H796 C822 0.950 . S
H797 C824 0.950 . S
H798 C827 0.950 . S
H799 C828 0.950 . S
H800 C830 0.950 . S
H801 C831 0.950 . S
C802 H784 0.951 . S
C802 C803 1.366 . S
C802 C804 1.388 . S
C803 C802 1.366 . S
C803 C807 1.385 . S
C804 H785 0.951 . S
C804 C802 1.388 . S
C804 C805 1.366 . S
C805 C804 1.366 . S
C805 C806 1.414 . S
C805 C808 1.499 . S
C806 H786 0.950 . S
C806 C805 1.414 . S
C806 C807 1.374 . S
C807 H787 0.950 . S
C807 C803 1.385 . S
C807 C806 1.374 . S
C808 C805 1.499 . S
C808 C809 1.373 . S
C808 C810 1.389 . S
C809 H788 0.950 . S
C809 C808 1.373 . S
C809 C825 1.377 . S
C810 C808 1.389 . S
C810 C811 1.524 . S
C810 C824 1.377 . S
C811 C810 1.524 . S
C811 C812 1.397 . S
C811 C816 1.363 . S
C812 H789 0.950 . S
C812 C811 1.397 . S
C812 C813 1.334 . S
C813 H790 0.950 . S
C813 C812 1.334 . S
C813 C814 1.287 . S
C814 C813 1.287 . S
C814 C815 1.524 . S
C814 H833 0.913 . S
C815 H791 0.950 . S
C815 C814 1.524 . S
C815 C816 1.415 . S
C816 H792 0.950 . S
C816 C811 1.363 . S
C816 C815 1.415 . S
C817 H793 0.951 . S
C817 C818 1.366 . S
C817 C819 1.388 . S
C818 C817 1.366 . S
C818 C822 1.385 . S
C819 H794 0.951 . S
C819 C817 1.388 . S
C819 C820 1.366 . S
C820 C819 1.366 . S
C820 C821 1.414 . S
C820 C823 1.499 . S
C821 H795 0.950 . S
C821 C820 1.414 . S
C821 C822 1.374 . S
C822 H796 0.950 . S
C822 C818 1.385 . S
C822 C821 1.374 . S
C823 C820 1.499 . S
C823 C824 1.373 . S
C823 C825 1.389 . S
C824 H797 0.950 . S
C824 C810 1.377 . S
C824 C823 1.373 . S
C825 C809 1.377 . S
C825 C823 1.389 . S
C825 C826 1.524 1_554 S
C826 C825 1.524 1_556 S
C826 C827 1.397 . S
C826 C831 1.363 . S
C827 H798 0.950 . S
C827 C826 1.397 . S
C827 C828 1.334 . S
C828 H799 0.950 . S
C828 C827 1.334 . S
C828 C829 1.287 . S
C829 C828 1.287 . S
C829 C830 1.524 . S
C829 H832 0.999 . S
C830 H800 0.950 . S
C830 C829 1.524 . S
C830 C831 1.415 . S
C831 H801 0.950 . S
C831 C826 1.363 . S
C831 C830 1.415 . S
H832 C829 0.999 . S
H833 C814 0.913 . S
H834 C852 0.951 1_556 S
H835 C854 0.951 1_556 S
H836 C856 0.950 . S
H837 C857 0.950 . S
H838 C859 0.950 . S
H839 C862 0.950 . S
H840 C863 0.950 1_554 S
H841 C865 0.950 . S
H842 C866 0.950 . S
H843 C867 0.951 . S
H844 C869 0.951 . S
H845 C871 0.950 1_556 S
H846 C872 0.950 1_556 S
H847 C874 0.950 . S
H848 C877 0.950 . S
H849 C878 0.950 1_455 S
H850 C880 0.950 . S
H851 C881 0.950 . S
C852 H834 0.951 1_554 S
C852 C853 1.366 . S
C852 C854 1.388 . S
C853 C852 1.366 . S
C853 C857 1.385 . S
C854 H835 0.951 1_554 S
C854 C852 1.388 . S
C854 C855 1.366 . S
C855 C854 1.366 . S
C855 C856 1.414 . S
C855 C858 1.499 . S
C856 H836 0.950 . S
C856 C855 1.414 . S
C856 C857 1.374 . S
C857 H837 0.950 . S
C857 C853 1.385 . S
C857 C856 1.374 . S
C858 C855 1.499 . S
C858 C859 1.373 . S
C858 C860 1.389 . S
C859 H838 0.950 . S
C859 C858 1.373 . S
C859 C875 1.377 . S
C860 C858 1.389 . S
C860 C861 1.520 1_554 S
C860 C874 1.377 . S
C861 C860 1.520 1_556 S
C861 C862 1.393 1_556 S
C861 C866 1.370 . S
C862 H839 0.950 . S
C862 C861 1.393 1_554 S
C862 C863 1.334 1_554 S
C863 H840 0.950 1_556 S
C863 C862 1.334 1_556 S
C863 C864 1.287 . S
C864 C863 1.287 . S
C864 C865 1.524 . S
C864 H883 0.913 . S
C865 H841 0.950 . S
C865 C864 1.524 . S
C865 C866 1.415 . S
C866 H842 0.950 . S
C866 C861 1.370 . S
C866 C865 1.415 . S
C867 H843 0.951 . S
C867 C868 1.366 . S
C867 C869 1.388 . S
C868 C867 1.366 . S
C868 C872 1.385 . S
C869 H844 0.951 . S
C869 C867 1.388 . S
C869 C870 1.366 . S
C870 C869 1.366 . S
C870 C871 1.414 . S
C870 C873 1.499 . S
C871 H845 0.950 1_554 S
C871 C870 1.414 . S
C871 C872 1.374 . S
C872 H846 0.950 1_554 S
C872 C868 1.385 . S
C872 C871 1.374 . S
C873 C870 1.499 . S
C873 C874 1.373 . S
C873 C875 1.389 . S
C874 H847 0.950 . S
C874 C860 1.377 . S
C874 C873 1.373 . S
C875 C859 1.377 . S
C875 C873 1.389 . S
C875 C876 1.524 . S
C876 C875 1.524 . S
C876 C877 1.397 . S
C876 C881 1.363 . S
C877 H848 0.950 . S
C877 C876 1.397 . S
C877 C878 1.334 . S
C878 H849 0.950 1_655 S
C878 C877 1.334 . S
C878 C879 1.287 . S
C879 C878 1.287 . S
C879 C880 1.524 . S
C879 H882 0.999 1_655 S
C880 H850 0.950 . S
C880 C879 1.524 . S
C880 C881 1.415 . S
C881 H851 0.950 . S
C881 C876 1.363 . S
C881 C880 1.415 . S
H882 C879 0.999 1_455 S
H883 C864 0.913 . S
H884 C902 0.951 . S
H885 C904 0.951 . S
H886 C906 0.950 . S
H887 C907 0.950 . S
H888 C909 0.950 . S
H889 C912 0.950 . S
H890 C913 0.950 . S
H891 C915 0.950 . S
H892 C916 0.950 . S
H893 C917 0.951 . S
H894 C919 0.951 . S
H895 C921 0.950 . S
H896 C922 0.950 . S
H897 C924 0.950 . S
H898 C927 0.950 . S
H899 C928 0.950 . S
H900 C930 0.950 . S
H901 C931 0.950 . S
C902 H884 0.951 . S
C902 C903 1.366 . S
C902 C904 1.388 . S
C903 C902 1.366 . S
C903 C907 1.385 . S
C904 H885 0.951 . S
C904 C902 1.388 . S
C904 C905 1.366 . S
C905 C904 1.366 . S
C905 C906 1.414 . S
C905 C908 1.499 . S
C906 H886 0.950 . S
C906 C905 1.414 . S
C906 C907 1.374 . S
C907 H887 0.950 . S
C907 C903 1.385 . S
C907 C906 1.374 . S
C908 C905 1.499 . S
C908 C909 1.373 . S
C908 C910 1.389 . S
C909 H888 0.950 . S
C909 C908 1.373 . S
C909 C925 1.377 . S
C910 C908 1.389 . S
C910 C911 1.524 . S
C910 C924 1.377 . S
C911 C910 1.524 . S
C911 C912 1.397 . S
C911 C916 1.363 . S
C912 H889 0.950 . S
C912 C911 1.397 . S
C912 C913 1.334 . S
C913 H890 0.950 . S
C913 C912 1.334 . S
C913 C914 1.287 . S
C914 C913 1.287 . S
C914 C915 1.524 . S
C914 H933 0.913 . S
C915 H891 0.950 . S
C915 C914 1.524 . S
C915 C916 1.415 . S
C916 H892 0.950 . S
C916 C911 1.363 . S
C916 C915 1.415 . S
C917 H893 0.951 . S
C917 C918 1.366 . S
C917 C919 1.388 . S
C918 C917 1.366 . S
C918 C922 1.385 . S
C919 H894 0.951 . S
C919 C917 1.388 . S
C919 C920 1.366 . S
C920 C919 1.366 . S
C920 C921 1.414 . S
C920 C923 1.499 . S
C921 H895 0.950 . S
C921 C920 1.414 . S
C921 C922 1.374 . S
C922 H896 0.950 . S
C922 C918 1.385 . S
C922 C921 1.374 . S
C923 C920 1.499 . S
C923 C924 1.373 . S
C923 C925 1.389 . S
C924 H897 0.950 . S
C924 C910 1.377 . S
C924 C923 1.373 . S
C925 C909 1.377 . S
C925 C923 1.389 . S
C925 C926 1.524 . S
C926 C925 1.524 . S
C926 C927 1.397 . S
C926 C931 1.363 . S
C927 H898 0.950 . S
C927 C926 1.397 . S
C927 C928 1.334 . S
C928 H899 0.950 . S
C928 C927 1.334 . S
C928 C929 1.287 . S
C929 C928 1.287 . S
C929 C930 1.524 . S
C929 H932 0.999 . S
C930 H900 0.950 . S
C930 C929 1.524 . S
C930 C931 1.415 . S
C931 H901 0.950 . S
C931 C926 1.363 . S
C931 C930 1.415 . S
H932 C929 0.999 . S
H933 C914 0.913 . S
H934 C952 0.951 . S
H935 C954 0.951 . S
H936 C956 0.950 . S
H937 C957 0.950 . S
H938 C959 0.950 . S
H939 C962 0.950 . S
H940 C963 0.950 1_455 S
H941 C965 0.950 . S
H942 C966 0.950 . S
H943 C967 0.951 . S
H944 C969 0.951 . S
H945 C971 0.950 . S
H946 C972 0.950 . S
H947 C974 0.950 . S
H948 C977 0.950 . S
H949 C978 0.950 . S
H950 C980 0.950 . S
H951 C981 0.950 . S
C952 H934 0.951 . S
C952 C953 1.366 . S
C952 C954 1.388 . S
C953 C952 1.366 . S
C953 C957 1.385 . S
C954 H935 0.951 . S
C954 C952 1.388 . S
C954 C955 1.366 . S
C955 C954 1.366 . S
C955 C956 1.414 . S
C955 C958 1.499 . S
C956 H936 0.950 . S
C956 C955 1.414 . S
C956 C957 1.374 . S
C957 H937 0.950 . S
C957 C953 1.385 . S
C957 C956 1.374 . S
C958 C955 1.499 . S
C958 C959 1.373 . S
C958 C960 1.389 . S
C959 H938 0.950 . S
C959 C958 1.373 . S
C959 C975 1.377 . S
C960 C958 1.389 . S
C960 C961 1.524 . S
C960 C974 1.377 . S
C961 C960 1.524 . S
C961 C962 1.397 . S
C961 C966 1.363 . S
C962 H939 0.950 . S
C962 C961 1.397 . S
C962 C963 1.334 . S
C963 H940 0.950 1_655 S
C963 C962 1.334 . S
C963 C964 1.287 . S
C964 C963 1.287 . S
C964 C965 1.524 . S
C964 H983 0.913 1_655 S
C965 H941 0.950 . S
C965 C964 1.524 . S
C965 C966 1.415 . S
C966 H942 0.950 . S
C966 C961 1.363 . S
C966 C965 1.415 . S
C967 H943 0.951 . S
C967 C968 1.366 . S
C967 C969 1.388 . S
C968 C967 1.366 . S
C968 C972 1.385 . S
C969 H944 0.951 . S
C969 C967 1.388 . S
C969 C970 1.366 . S
C970 C969 1.366 . S
C970 C971 1.414 . S
C970 C973 1.499 . S
C971 H945 0.950 . S
C971 C970 1.414 . S
C971 C972 1.374 . S
C972 H946 0.950 . S
C972 C968 1.385 . S
C972 C971 1.374 . S
C973 C970 1.499 . S
C973 C974 1.373 . S
C973 C975 1.389 . S
C974 H947 0.950 . S
C974 C960 1.377 . S
C974 C973 1.373 . S
C975 C959 1.377 . S
C975 C973 1.389 . S
C975 C976 1.524 . S
C976 C975 1.524 . S
C976 C977 1.397 . S
C976 C981 1.363 . S
C977 H948 0.950 . S
C977 C976 1.397 . S
C977 C978 1.334 . S
C978 H949 0.950 . S
C978 C977 1.334 . S
C978 C979 1.287 . S
C979 C978 1.287 . S
C979 C980 1.524 . S
C979 H982 0.999 . S
C980 H950 0.950 . S
C980 C979 1.524 . S
C980 C981 1.415 . S
C981 H951 0.950 . S
C981 C976 1.363 . S
C981 C980 1.415 . S
H982 C979 0.999 . S
H983 C964 0.913 1_455 S
H984 C1002 0.951 . S
H985 C1004 0.951 . S
H986 C1006 0.950 . S
H987 C1007 0.950 . S
H988 C1009 0.950 . S
H989 C1012 0.950 1_455 S
H990 C1013 0.950 1_455 S
H991 C1015 0.950 . S
H992 C1016 0.950 . S
H993 C1017 0.951 . S
H994 C1019 0.951 . S
H995 C1021 0.950 . S
H996 C1022 0.950 . S
H997 C1024 0.950 . S
H998 C1027 0.950 1_655 S
H999 C1028 0.950 1_655 S
H1000 C1030 0.950 . S
H1001 C1031 0.950 . S
C1002 H984 0.951 . S
C1002 C1003 1.366 1_655 S
C1002 C1004 1.388 . S
C1003 C1002 1.366 1_455 S
C1003 C1007 1.385 . S
C1004 H985 0.951 . S
C1004 C1002 1.388 . S
C1004 C1005 1.366 1_655 S
C1005 C1004 1.366 1_455 S
C1005 C1006 1.414 . S
C1005 C1008 1.499 . S
C1006 H986 0.950 . S
C1006 C1005 1.414 . S
C1006 C1007 1.374 . S
C1007 H987 0.950 . S
C1007 C1003 1.385 . S
C1007 C1006 1.374 . S
C1008 C1005 1.499 . S
C1008 C1009 1.373 . S
C1008 C1010 1.389 1_455 S
C1009 H988 0.950 . S
C1009 C1008 1.373 . S
C1009 C1025 1.377 . S
C1010 C1008 1.389 1_655 S
C1010 C1011 1.524 . S
C1010 C1024 1.377 . S
C1011 C1010 1.524 . S
C1011 C1012 1.397 . S
C1011 C1016 1.363 . S
C1012 H989 0.950 1_655 S
C1012 C1011 1.397 . S
C1012 C1013 1.334 . S
C1013 H990 0.950 1_655 S
C1013 C1012 1.334 . S
C1013 C1014 1.287 . S
C1014 C1013 1.287 . S
C1014 C1015 1.524 . S
C1014 H1033 0.913 . S
C1015 H991 0.950 . S
C1015 C1014 1.524 . S
C1015 C1016 1.415 . S
C1016 H992 0.950 . S
C1016 C1011 1.363 . S
C1016 C1015 1.415 . S
C1017 H993 0.951 . S
C1017 C1018 1.366 1_455 S
C1017 C1019 1.388 . S
C1018 C1017 1.366 1_655 S
C1018 C1022 1.385 . S
C1019 H994 0.951 . S
C1019 C1017 1.388 . S
C1019 C1020 1.366 1_455 S
C1020 C1019 1.366 1_655 S
C1020 C1021 1.414 . S
C1020 C1023 1.499 . S
C1021 H995 0.950 . S
C1021 C1020 1.414 . S
C1021 C1022 1.374 . S
C1022 H996 0.950 . S
C1022 C1018 1.385 . S
C1022 C1021 1.374 . S
C1023 C1020 1.499 . S
C1023 C1024 1.373 . S
C1023 C1025 1.389 1_655 S
C1024 H997 0.950 . S
C1024 C1010 1.377 . S
C1024 C1023 1.373 . S
C1025 C1009 1.377 . S
C1025 C1023 1.389 1_455 S
C1025 C1026 1.524 . S
C1026 C1025 1.524 . S
C1026 C1027 1.397 . S
C1026 C1031 1.363 . S
C1027 H998 0.950 1_455 S
C1027 C1026 1.397 . S
C1027 C1028 1.334 . S
C1028 H999 0.950 1_455 S
C1028 C1027 1.334 . S
C1028 C1029 1.287 . S
C1029 C1028 1.287 . S
C1029 C1030 1.524 . S
C1029 H1032 0.999 . S
C1030 H1000 0.950 . S
C1030 C1029 1.524 . S
C1030 C1031 1.415 . S
C1031 H1001 0.950 . S
C1031 C1026 1.363 . S
C1031 C1030 1.415 . S
H1032 C1029 0.999 . S
H1033 C1014 0.913 . S
H1034 C1052 0.954 . S
H1035 C1054 0.951 . S
H1036 C1056 0.950 . S
H1037 C1057 0.950 . S
H1038 C1059 0.950 . S
H1039 C1062 0.950 . S
H1040 C1063 0.950 . S
H1041 C1065 0.950 . S
H1042 C1066 0.950 . S
H1043 C1067 0.954 . S
H1044 C1069 0.951 . S
H1045 C1071 0.950 . S
H1046 C1072 0.950 . S
H1047 C1074 0.950 . S
H1048 C1077 0.950 . S
H1049 C1078 0.950 . S
H1050 C1080 0.950 . S
H1051 C1081 0.950 . S
C1052 H1034 0.954 . S
C1052 C1053 1.362 1_455 S
C1052 C1054 1.389 . S
C1053 C1052 1.362 1_655 S
C1053 C1057 1.385 . S
C1054 H1035 0.951 . S
C1054 C1052 1.389 . S
C1054 C1055 1.366 1_455 S
C1055 C1054 1.366 1_655 S
C1055 C1056 1.414 . S
C1055 C1058 1.499 . S
C1056 H1036 0.950 . S
C1056 C1055 1.414 . S
C1056 C1057 1.374 . S
C1057 H1037 0.950 . S
C1057 C1053 1.385 . S
C1057 C1056 1.374 . S
C1058 C1055 1.499 . S
C1058 C1059 1.373 . S
C1058 C1060 1.389 1_655 S
C1059 H1038 0.950 . S
C1059 C1058 1.373 . S
C1059 C1075 1.377 . S
C1060 C1058 1.389 1_455 S
C1060 C1061 1.524 . S
C1060 C1074 1.377 . S
C1061 C1060 1.524 . S
C1061 C1062 1.397 . S
C1061 C1066 1.363 . S
C1062 H1039 0.950 . S
C1062 C1061 1.397 . S
C1062 C1063 1.334 . S
C1063 H1040 0.950 . S
C1063 C1062 1.334 . S
C1063 C1064 1.287 . S
C1064 C1063 1.287 . S
C1064 C1065 1.524 . S
C1064 H1083 0.913 . S
C1065 H1041 0.950 . S
C1065 C1064 1.524 . S
C1065 C1066 1.415 . S
C1066 H1042 0.950 . S
C1066 C1061 1.363 . S
C1066 C1065 1.415 . S
C1067 H1043 0.954 . S
C1067 C1068 1.362 1_655 S
C1067 C1069 1.389 . S
C1068 C1067 1.362 1_455 S
C1068 C1072 1.385 . S
C1069 H1044 0.951 . S
C1069 C1067 1.389 . S
C1069 C1070 1.366 1_655 S
C1070 C1069 1.366 1_455 S
C1070 C1071 1.414 . S
C1070 C1073 1.499 . S
C1071 H1045 0.950 . S
C1071 C1070 1.414 . S
C1071 C1072 1.374 . S
C1072 H1046 0.950 . S
C1072 C1068 1.385 . S
C1072 C1071 1.374 . S
C1073 C1070 1.499 . S
C1073 C1074 1.373 . S
C1073 C1075 1.389 1_455 S
C1074 H1047 0.950 . S
C1074 C1060 1.377 . S
C1074 C1073 1.373 . S
C1075 C1059 1.377 . S
C1075 C1073 1.389 1_655 S
C1075 C1076 1.524 . S
C1076 C1075 1.524 . S
C1076 C1077 1.397 . S
C1076 C1081 1.363 . S
C1077 H1048 0.950 . S
C1077 C1076 1.397 . S
C1077 C1078 1.334 . S
C1078 H1049 0.950 . S
C1078 C1077 1.334 . S
C1078 C1079 1.287 . S
C1079 C1078 1.287 . S
C1079 C1080 1.524 . S
C1079 H1082 0.999 . S
C1080 H1050 0.950 . S
C1080 C1079 1.524 . S
C1080 C1081 1.415 . S
C1081 H1051 0.950 . S
C1081 C1076 1.363 . S
C1081 C1080 1.415 . S
H1082 C1079 0.999 . S
H1083 C1064 0.913 . S
H1084 C1102 0.951 . S
H1085 C1104 0.951 . S
H1086 C1106 0.950 . S
H1087 C1107 0.950 . S
H1088 C1109 0.950 . S
H1089 C1112 0.950 . S
H1090 C1113 0.950 . S
H1091 C1115 0.950 . S
H1092 C1116 0.950 . S
H1093 C1117 0.951 . S
H1094 C1119 0.951 . S
H1095 C1121 0.950 . S
H1096 C1122 0.950 . S
H1097 C1124 0.950 . S
H1098 C1127 0.950 . S
H1099 C1128 0.950 . S
H1100 C1130 0.950 . S
H1101 C1131 0.950 . S
C1102 H1084 0.951 . S
C1102 C1103 1.366 1_455 S
C1102 C1104 1.388 . S
C1103 C1102 1.366 1_655 S
C1103 C1107 1.385 . S
C1104 H1085 0.951 . S
C1104 C1102 1.388 . S
C1104 C1105 1.366 1_455 S
C1105 C1104 1.366 1_655 S
C1105 C1106 1.414 . S
C1105 C1108 1.499 . S
C1106 H1086 0.950 . S
C1106 C1105 1.414 . S
C1106 C1107 1.374 . S
C1107 H1087 0.950 . S
C1107 C1103 1.385 . S
C1107 C1106 1.374 . S
C1108 C1105 1.499 . S
C1108 C1109 1.373 . S
C1108 C1110 1.389 1_655 S
C1109 H1088 0.950 . S
C1109 C1108 1.373 . S
C1109 C1125 1.377 . S
C1110 C1108 1.389 1_455 S
C1110 C1111 1.524 . S
C1110 C1124 1.377 . S
C1111 C1110 1.524 . S
C1111 C1112 1.397 . S
C1111 C1116 1.363 . S
C1112 H1089 0.950 . S
C1112 C1111 1.397 . S
C1112 C1113 1.334 . S
C1113 H1090 0.950 . S
C1113 C1112 1.334 . S
C1113 C1114 1.287 . S
C1114 C1113 1.287 . S
C1114 C1115 1.524 . S
C1114 H1133 0.913 . S
C1115 H1091 0.950 . S
C1115 C1114 1.524 . S
C1115 C1116 1.415 . S
C1116 H1092 0.950 . S
C1116 C1111 1.363 . S
C1116 C1115 1.415 . S
C1117 H1093 0.951 . S
C1117 C1118 1.366 1_655 S
C1117 C1119 1.388 . S
C1118 C1117 1.366 1_455 S
C1118 C1122 1.385 . S
C1119 H1094 0.951 . S
C1119 C1117 1.388 . S
C1119 C1120 1.366 1_655 S
C1120 C1119 1.366 1_455 S
C1120 C1121 1.414 . S
C1120 C1123 1.499 . S
C1121 H1095 0.950 . S
C1121 C1120 1.414 . S
C1121 C1122 1.374 . S
C1122 H1096 0.950 . S
C1122 C1118 1.385 . S
C1122 C1121 1.374 . S
C1123 C1120 1.499 . S
C1123 C1124 1.373 . S
C1123 C1125 1.389 1_455 S
C1124 H1097 0.950 . S
C1124 C1110 1.377 . S
C1124 C1123 1.373 . S
C1125 C1109 1.377 . S
C1125 C1123 1.389 1_655 S
C1125 C1126 1.524 . S
C1126 C1125 1.524 . S
C1126 C1127 1.397 . S
C1126 C1131 1.363 . S
C1127 H1098 0.950 . S
C1127 C1126 1.397 . S
C1127 C1128 1.334 . S
C1128 H1099 0.950 . S
C1128 C1127 1.334 . S
C1128 C1129 1.287 . S
C1129 C1128 1.287 . S
C1129 C1130 1.524 . S
C1129 H1132 0.999 . S
C1130 H1100 0.950 . S
C1130 C1129 1.524 . S
C1130 C1131 1.415 . S
C1131 H1101 0.950 . S
C1131 C1126 1.363 . S
C1131 C1130 1.415 . S
H1132 C1129 0.999 . S
H1133 C1114 0.913 . S
H1134 C1152 0.951 . S
H1135 C1154 0.951 . S
H1136 C1156 0.950 . S
H1137 C1157 0.950 . S
H1138 C1159 0.950 . S
H1139 C1162 0.950 1_655 S
H1140 C1163 0.950 . S
H1141 C1165 0.950 . S
H1142 C1166 0.950 . S
H1143 C1167 0.951 . S
H1144 C1169 0.951 . S
H1145 C1171 0.950 . S
H1146 C1172 0.950 . S
H1147 C1174 0.950 . S
H1148 C1177 0.950 1_455 S
H1149 C1178 0.950 . S
H1150 C1180 0.950 . S
H1151 C1181 0.950 . S
C1152 H1134 0.951 . S
C1152 C1153 1.366 1_455 S
C1152 C1154 1.388 . S
C1153 C1152 1.366 1_655 S
C1153 C1157 1.385 . S
C1154 H1135 0.951 . S
C1154 C1152 1.388 . S
C1154 C1155 1.366 1_455 S
C1155 C1154 1.366 1_655 S
C1155 C1156 1.414 . S
C1155 C1158 1.499 . S
C1156 H1136 0.950 . S
C1156 C1155 1.414 . S
C1156 C1157 1.374 . S
C1157 H1137 0.950 . S
C1157 C1153 1.385 . S
C1157 C1156 1.374 . S
C1158 C1155 1.499 . S
C1158 C1159 1.373 . S
C1158 C1160 1.389 1_655 S
C1159 H1138 0.950 . S
C1159 C1158 1.373 . S
C1159 C1175 1.377 . S
C1160 C1158 1.389 1_455 S
C1160 C1161 1.524 . S
C1160 C1174 1.377 . S
C1161 C1160 1.524 . S
C1161 C1162 1.397 . S
C1161 C1166 1.363 . S
C1162 H1139 0.950 1_455 S
C1162 C1161 1.397 . S
C1162 C1163 1.334 . S
C1163 H1140 0.950 . S
C1163 C1162 1.334 . S
C1163 C1164 1.287 . S
C1164 C1163 1.287 . S
C1164 C1165 1.524 . S
C1164 H1183 0.913 . S
C1165 H1141 0.950 . S
C1165 C1164 1.524 . S
C1165 C1166 1.415 . S
C1166 H1142 0.950 . S
C1166 C1161 1.363 . S
C1166 C1165 1.415 . S
C1167 H1143 0.951 . S
C1167 C1168 1.366 1_655 S
C1167 C1169 1.388 . S
C1168 C1167 1.366 1_455 S
C1168 C1172 1.385 . S
C1169 H1144 0.951 . S
C1169 C1167 1.388 . S
C1169 C1170 1.366 1_655 S
C1170 C1169 1.366 1_455 S
C1170 C1171 1.414 . S
C1170 C1173 1.499 . S
C1171 H1145 0.950 . S
C1171 C1170 1.414 . S
C1171 C1172 1.374 . S
C1172 H1146 0.950 . S
C1172 C1168 1.385 . S
C1172 C1171 1.374 . S
C1173 C1170 1.499 . S
C1173 C1174 1.373 . S
C1173 C1175 1.389 1_455 S
C1174 H1147 0.950 . S
C1174 C1160 1.377 . S
C1174 C1173 1.373 . S
C1175 C1159 1.377 . S
C1175 C1173 1.389 1_655 S
C1175 C1176 1.524 . S
C1176 C1175 1.524 . S
C1176 C1177 1.397 . S
C1176 C1181 1.363 . S
C1177 H1148 0.950 1_655 S
C1177 C1176 1.397 . S
C1177 C1178 1.334 . S
C1178 H1149 0.950 . S
C1178 C1177 1.334 . S
C1178 C1179 1.287 . S
C1179 C1178 1.287 . S
C1179 C1180 1.524 . S
C1179 H1182 0.999 . S
C1180 H1150 0.950 . S
C1180 C1179 1.524 . S
C1180 C1181 1.415 . S
C1181 H1151 0.950 . S
C1181 C1176 1.363 . S
C1181 C1180 1.415 . S
H1182 C1179 0.999 . S
H1183 C1164 0.913 . S
H1184 C1202 0.951 . S
H1185 C1204 0.951 . S
H1186 C1206 0.950 . S
H1187 C1207 0.950 . S
H1188 C1209 0.950 . S
H1189 C1212 0.950 . S
H1190 C1213 0.950 . S
H1191 C1215 0.950 . S
H1192 C1216 0.950 . S
H1193 C1217 0.951 . S
H1194 C1219 0.951 . S
H1195 C1221 0.950 . S
H1196 C1222 0.950 . S
H1197 C1224 0.950 . S
H1198 C1227 0.950 . S
H1199 C1228 0.950 . S
H1200 C1230 0.950 . S
H1201 C1231 0.950 . S
C1202 H1184 0.951 . S
C1202 C1203 1.366 . S
C1202 C1204 1.388 . S
C1203 C1202 1.366 . S
C1203 C1207 1.385 . S
C1204 H1185 0.951 . S
C1204 C1202 1.388 . S
C1204 C1205 1.366 . S
C1205 C1204 1.366 . S
C1205 C1206 1.414 . S
C1205 C1208 1.499 . S
C1206 H1186 0.950 . S
C1206 C1205 1.414 . S
C1206 C1207 1.374 . S
C1207 H1187 0.950 . S
C1207 C1203 1.385 . S
C1207 C1206 1.374 . S
C1208 C1205 1.499 . S
C1208 C1209 1.373 . S
C1208 C1210 1.389 . S
C1209 H1188 0.950 . S
C1209 C1208 1.373 . S
C1209 C1225 1.377 . S
C1210 C1208 1.389 . S
C1210 C1211 1.524 . S
C1210 C1224 1.377 . S
C1211 C1210 1.524 . S
C1211 C1212 1.397 . S
C1211 C1216 1.363 . S
C1212 H1189 0.950 . S
C1212 C1211 1.397 . S
C1212 C1213 1.334 . S
C1213 H1190 0.950 . S
C1213 C1212 1.334 . S
C1213 C1214 1.287 . S
C1214 C1213 1.287 . S
C1214 C1215 1.524 . S
C1214 H1233 0.913 . S
C1215 H1191 0.950 . S
C1215 C1214 1.524 . S
C1215 C1216 1.415 . S
C1216 H1192 0.950 . S
C1216 C1211 1.363 . S
C1216 C1215 1.415 . S
C1217 H1193 0.951 . S
C1217 C1218 1.366 . S
C1217 C1219 1.388 . S
C1218 C1217 1.366 . S
C1218 C1222 1.385 . S
C1219 H1194 0.951 . S
C1219 C1217 1.388 . S
C1219 C1220 1.366 . S
C1220 C1219 1.366 . S
C1220 C1221 1.414 . S
C1220 C1223 1.499 . S
C1221 H1195 0.950 . S
C1221 C1220 1.414 . S
C1221 C1222 1.374 . S
C1222 H1196 0.950 . S
C1222 C1218 1.385 . S
C1222 C1221 1.374 . S
C1223 C1220 1.499 . S
C1223 C1224 1.373 . S
C1223 C1225 1.389 . S
C1224 H1197 0.950 . S
C1224 C1210 1.377 . S
C1224 C1223 1.373 . S
C1225 C1209 1.377 . S
C1225 C1223 1.389 . S
C1225 C1226 1.524 . S
C1226 C1225 1.524 . S
C1226 C1227 1.397 . S
C1226 C1231 1.363 . S
C1227 H1198 0.950 . S
C1227 C1226 1.397 . S
C1227 C1228 1.334 . S
C1228 H1199 0.950 . S
C1228 C1227 1.334 . S
C1228 C1229 1.287 . S
C1229 C1228 1.287 . S
C1229 C1230 1.524 . S
C1229 H1232 0.999 . S
C1230 H1200 0.950 . S
C1230 C1229 1.524 . S
C1230 C1231 1.415 . S
C1231 H1201 0.950 . S
C1231 C1226 1.363 . S
C1231 C1230 1.415 . S
H1232 C1229 0.999 . S
H1233 C1214 0.913 . S
H1234 C1252 0.951 . S
H1235 C1254 0.951 . S
H1236 C1256 0.950 . S
H1237 C1257 0.950 . S
H1238 C1259 0.950 . S
H1239 C1262 0.950 . S
H1240 C1263 0.950 . S
H1241 C1265 0.950 . S
H1242 C1266 0.950 . S
H1243 C1267 0.951 . S
H1244 C1269 0.951 . S
H1245 C1271 0.950 . S
H1246 C1272 0.950 . S
H1247 C1274 0.950 . S
H1248 C1277 0.950 . S
H1249 C1278 0.950 . S
H1250 C1280 0.950 . S
H1251 C1281 0.950 . S
C1252 H1234 0.951 . S
C1252 C1253 1.366 . S
C1252 C1254 1.388 . S
C1253 C1252 1.366 . S
C1253 C1257 1.385 . S
C1254 H1235 0.951 . S
C1254 C1252 1.388 . S
C1254 C1255 1.366 . S
C1255 C1254 1.366 . S
C1255 C1256 1.414 . S
C1255 C1258 1.499 . S
C1256 H1236 0.950 . S
C1256 C1255 1.414 . S
C1256 C1257 1.374 . S
C1257 H1237 0.950 . S
C1257 C1253 1.385 . S
C1257 C1256 1.374 . S
C1258 C1255 1.499 . S
C1258 C1259 1.373 . S
C1258 C1260 1.389 . S
C1259 H1238 0.950 . S
C1259 C1258 1.373 . S
C1259 C1275 1.377 . S
C1260 C1258 1.389 . S
C1260 C1261 1.524 . S
C1260 C1274 1.377 . S
C1261 C1260 1.524 . S
C1261 C1262 1.397 . S
C1261 C1266 1.363 . S
C1262 H1239 0.950 . S
C1262 C1261 1.397 . S
C1262 C1263 1.334 . S
C1263 H1240 0.950 . S
C1263 C1262 1.334 . S
C1263 C1264 1.287 . S
C1264 C1263 1.287 . S
C1264 C1265 1.524 . S
C1264 H1283 0.913 . S
C1265 H1241 0.950 . S
C1265 C1264 1.524 . S
C1265 C1266 1.415 . S
C1266 H1242 0.950 . S
C1266 C1261 1.363 . S
C1266 C1265 1.415 . S
C1267 H1243 0.951 . S
C1267 C1268 1.366 . S
C1267 C1269 1.388 . S
C1268 C1267 1.366 . S
C1268 C1272 1.385 . S
C1269 H1244 0.951 . S
C1269 C1267 1.388 . S
C1269 C1270 1.366 . S
C1270 C1269 1.366 . S
C1270 C1271 1.414 . S
C1270 C1273 1.499 . S
C1271 H1245 0.950 . S
C1271 C1270 1.414 . S
C1271 C1272 1.374 . S
C1272 H1246 0.950 . S
C1272 C1268 1.385 . S
C1272 C1271 1.374 . S
C1273 C1270 1.499 . S
C1273 C1274 1.373 . S
C1273 C1275 1.389 . S
C1274 H1247 0.950 . S
C1274 C1260 1.377 . S
C1274 C1273 1.373 . S
C1275 C1259 1.377 . S
C1275 C1273 1.389 . S
C1275 C1276 1.524 . S
C1276 C1275 1.524 . S
C1276 C1277 1.397 . S
C1276 C1281 1.363 . S
C1277 H1248 0.950 . S
C1277 C1276 1.397 . S
C1277 C1278 1.334 . S
C1278 H1249 0.950 . S
C1278 C1277 1.334 . S
C1278 C1279 1.287 . S
C1279 C1278 1.287 . S
C1279 C1280 1.524 . S
C1279 H1282 0.999 . S
C1280 H1250 0.950 . S
C1280 C1279 1.524 . S
C1280 C1281 1.415 . S
C1281 H1251 0.950 . S
C1281 C1276 1.363 . S
C1281 C1280 1.415 . S
H1282 C1279 0.999 . S
H1283 C1264 0.913 . S
H1284 C1302 0.951 . S
H1285 C1304 0.951 . S
H1286 C1306 0.950 . S
H1287 C1307 0.950 . S
H1288 C1309 0.950 . S
H1289 C1312 0.950 . S
H1290 C1313 0.950 . S
H1291 C1315 0.950 . S
H1292 C1316 0.950 . S
H1293 C1317 0.951 . S
H1294 C1319 0.951 . S
H1295 C1321 0.950 . S
H1296 C1322 0.950 . S
H1297 C1324 0.950 . S
H1298 C1327 0.950 . S
H1299 C1328 0.950 . S
H1300 C1330 0.950 . S
H1301 C1331 0.950 . S
C1302 H1284 0.951 . S
C1302 C1303 1.366 . S
C1302 C1304 1.388 . S
C1303 C1302 1.366 . S
C1303 C1307 1.385 . S
C1304 H1285 0.951 . S
C1304 C1302 1.388 . S
C1304 C1305 1.366 . S
C1305 C1304 1.366 . S
C1305 C1306 1.414 . S
C1305 C1308 1.499 . S
C1306 H1286 0.950 . S
C1306 C1305 1.414 . S
C1306 C1307 1.374 . S
C1307 H1287 0.950 . S
C1307 C1303 1.385 . S
C1307 C1306 1.374 . S
C1308 C1305 1.499 . S
C1308 C1309 1.373 . S
C1308 C1310 1.389 . S
C1309 H1288 0.950 . S
C1309 C1308 1.373 . S
C1309 C1325 1.377 . S
C1310 C1308 1.389 . S
C1310 C1311 1.524 . S
C1310 C1324 1.377 . S
C1311 C1310 1.524 . S
C1311 C1312 1.397 . S
C1311 C1316 1.363 . S
C1312 H1289 0.950 . S
C1312 C1311 1.397 . S
C1312 C1313 1.334 . S
C1313 H1290 0.950 . S
C1313 C1312 1.334 . S
C1313 C1314 1.287 . S
C1314 C1313 1.287 . S
C1314 C1315 1.524 . S
C1314 H1333 0.913 . S
C1315 H1291 0.950 . S
C1315 C1314 1.524 . S
C1315 C1316 1.415 . S
C1316 H1292 0.950 . S
C1316 C1311 1.363 . S
C1316 C1315 1.415 . S
C1317 H1293 0.951 . S
C1317 C1318 1.366 . S
C1317 C1319 1.388 . S
C1318 C1317 1.366 . S
C1318 C1322 1.385 . S
C1319 H1294 0.951 . S
C1319 C1317 1.388 . S
C1319 C1320 1.366 . S
C1320 C1319 1.366 . S
C1320 C1321 1.414 . S
C1320 C1323 1.499 . S
C1321 H1295 0.950 . S
C1321 C1320 1.414 . S
C1321 C1322 1.374 . S
C1322 H1296 0.950 . S
C1322 C1318 1.385 . S
C1322 C1321 1.374 . S
C1323 C1320 1.499 . S
C1323 C1324 1.373 . S
C1323 C1325 1.389 . S
C1324 H1297 0.950 . S
C1324 C1310 1.377 . S
C1324 C1323 1.373 . S
C1325 C1309 1.377 . S
C1325 C1323 1.389 . S
C1325 C1326 1.524 . S
C1326 C1325 1.524 . S
C1326 C1327 1.397 . S
C1326 C1331 1.363 . S
C1327 H1298 0.950 . S
C1327 C1326 1.397 . S
C1327 C1328 1.334 . S
C1328 H1299 0.950 . S
C1328 C1327 1.334 . S
C1328 C1329 1.287 . S
C1329 C1328 1.287 . S
C1329 C1330 1.524 . S
C1329 H1332 0.999 . S
C1330 H1300 0.950 . S
C1330 C1329 1.524 . S
C1330 C1331 1.415 . S
C1331 H1301 0.950 . S
C1331 C1326 1.363 . S
C1331 C1330 1.415 . S
H1332 C1329 0.999 . S
H1333 C1314 0.913 . S
H1334 C1352 0.951 . S
H1335 C1354 0.951 . S
H1336 C1356 0.950 . S
H1337 C1357 0.950 . S
H1338 C1359 0.950 . S
H1339 C1362 0.950 . S
H1340 C1363 0.950 . S
H1341 C1365 0.950 . S
H1342 C1366 0.950 . S
H1343 C1367 0.951 . S
H1344 C1369 0.951 . S
H1345 C1371 0.950 . S
H1346 C1372 0.950 . S
H1347 C1374 0.950 . S
H1348 C1377 0.950 . S
H1349 C1378 0.950 . S
H1350 C1380 0.950 . S
H1351 C1381 0.950 . S
C1352 H1334 0.951 . S
C1352 C1353 1.366 . S
C1352 C1354 1.388 . S
C1353 C1352 1.366 . S
C1353 C1357 1.385 . S
C1354 H1335 0.951 . S
C1354 C1352 1.388 . S
C1354 C1355 1.366 . S
C1355 C1354 1.366 . S
C1355 C1356 1.414 . S
C1355 C1358 1.499 . S
C1356 H1336 0.950 . S
C1356 C1355 1.414 . S
C1356 C1357 1.374 . S
C1357 H1337 0.950 . S
C1357 C1353 1.385 . S
C1357 C1356 1.374 . S
C1358 C1355 1.499 . S
C1358 C1359 1.373 . S
C1358 C1360 1.389 . S
C1359 H1338 0.950 . S
C1359 C1358 1.373 . S
C1359 C1375 1.377 . S
C1360 C1358 1.389 . S
C1360 C1361 1.524 . S
C1360 C1374 1.377 . S
C1361 C1360 1.524 . S
C1361 C1362 1.397 . S
C1361 C1366 1.363 . S
C1362 H1339 0.950 . S
C1362 C1361 1.397 . S
C1362 C1363 1.334 . S
C1363 H1340 0.950 . S
C1363 C1362 1.334 . S
C1363 C1364 1.287 . S
C1364 C1363 1.287 . S
C1364 C1365 1.524 . S
C1364 H1383 0.913 . S
C1365 H1341 0.950 . S
C1365 C1364 1.524 . S
C1365 C1366 1.415 . S
C1366 H1342 0.950 . S
C1366 C1361 1.363 . S
C1366 C1365 1.415 . S
C1367 H1343 0.951 . S
C1367 C1368 1.366 . S
C1367 C1369 1.388 . S
C1368 C1367 1.366 . S
C1368 C1372 1.385 . S
C1369 H1344 0.951 . S
C1369 C1367 1.388 . S
C1369 C1370 1.366 . S
C1370 C1369 1.366 . S
C1370 C1371 1.414 . S
C1370 C1373 1.499 . S
C1371 H1345 0.950 . S
C1371 C1370 1.414 . S
C1371 C1372 1.374 . S
C1372 H1346 0.950 . S
C1372 C1368 1.385 . S
C1372 C1371 1.374 . S
C1373 C1370 1.499 . S
C1373 C1374 1.373 . S
C1373 C1375 1.389 . S
C1374 H1347 0.950 . S
C1374 C1360 1.377 . S
C1374 C1373 1.373 . S
C1375 C1359 1.377 . S
C1375 C1373 1.389 . S
C1375 C1376 1.524 . S
C1376 C1375 1.524 . S
C1376 C1377 1.397 . S
C1376 C1381 1.363 . S
C1377 H1348 0.950 . S
C1377 C1376 1.397 . S
C1377 C1378 1.334 . S
C1378 H1349 0.950 . S
C1378 C1377 1.334 . S
C1378 C1379 1.287 . S
C1379 C1378 1.287 . S
C1379 C1380 1.524 . S
C1379 H1382 0.999 . S
C1380 H1350 0.950 . S
C1380 C1379 1.524 . S
C1380 C1381 1.415 . S
C1381 H1351 0.950 . S
C1381 C1376 1.363 . S
C1381 C1380 1.415 . S
H1382 C1379 0.999 . S
H1383 C1364 0.913 . S
C203 C16 1.232 . S
C218 C17 1.234 . S
C253 C40 1.234 . S
C268 C39 1.232 . S
C303 C63 1.234 . S
C318 C62 1.232 . S
C353 C85 1.232 . S
C368 C86 1.234 . S
C403 C108 1.232 . S
C418 C109 1.234 . S
C453 C131 1.232 . S
C468 C132 1.234 . S
C503 C155 1.234 . S
C518 C154 1.232 . S
C553 C178 1.234 . S
C568 C177 1.232 . S
C603 C44 1.494 . S
C618 C21 1.494 . S
C653 C90 1.494 . S
C668 C67 1.494 . S
C703 C113 1.493 . S
C718 C136 1.493 . S
C753 C159 1.494 . S
C768 C182 1.494 . S
C803 C18 1.455 . S
C818 C133 1.454 . S
C853 C110 1.455 . S
C868 C41 1.455 . S
C903 C64 1.454 . S
C918 C179 1.455 . S
C953 C87 1.455 . S
C968 C156 1.455 . S
C1003 C20 1.433 . S
C1018 C89 1.432 . S
C1053 C43 1.433 . S
C1068 C66 1.432 . S
C1103 C42 1.427 . S
C1118 C65 1.427 . S
C1153 C88 1.427 . S
C1168 C19 1.427 . S
C1203 C112 1.432 . S
C1218 C181 1.433 . S
C1253 C135 1.433 . S
C1268 C158 1.433 . S
C1303 C134 1.428 . S
C1318 C157 1.428 . S
C1353 C180 1.427 . S
C1368 C111 1.427 . S
