# Generated by pormake.
# Topology tfs, (6)-cn, num edge types: 1
# Building blocks:
#     Node 0, Type 0, BuildingBlock: BETFAJ_clean_sbu_0, # of connection points: 6
#     Node 1, Type 0, BuildingBlock: BETFAJ_clean_sbu_0, # of connection points: 6
#     Node 2, Type 0, BuildingBlock: BETFAJ_clean_sbu_0, # of connection points: 6
#     Node 3, Type 0, BuildingBlock: BETFAJ_clean_sbu_0, # of connection points: 6
#     Node 4, Type 0, BuildingBlock: BETFAJ_clean_sbu_0, # of connection points: 6
#     Node 5, Type 0, BuildingBlock: BETFAJ_clean_sbu_0, # of connection points: 6
#     Edge 6, Type (0, 0), BuildingBlock: OJICUG_clean_linker_0, # of connection points: 2
#     Edge 7, Type (0, 0), BuildingBlock: OJICUG_clean_linker_0, # of connection points: 2
#     Edge 8, Type (0, 0), BuildingBlock: OJICUG_clean_linker_0, # of connection points: 2
#     Edge 9, Type (0, 0), BuildingBlock: OJICUG_clean_linker_0, # of connection points: 2
#     Edge 10, Type (0, 0), BuildingBlock: OJICUG_clean_linker_0, # of connection points: 2
#     Edge 11, Type (0, 0), BuildingBlock: OJICUG_clean_linker_0, # of connection points: 2
#     Edge 12, Type (0, 0), BuildingBlock: OJICUG_clean_linker_0, # of connection points: 2
#     Edge 13, Type (0, 0), BuildingBlock: OJICUG_clean_linker_0, # of connection points: 2
#     Edge 14, Type (0, 0), BuildingBlock: OJICUG_clean_linker_0, # of connection points: 2
#     Edge 15, Type (0, 0), BuildingBlock: OJICUG_clean_linker_0, # of connection points: 2
#     Edge 16, Type (0, 0), BuildingBlock: OJICUG_clean_linker_0, # of connection points: 2
#     Edge 17, Type (0, 0), BuildingBlock: OJICUG_clean_linker_0, # of connection points: 2
#     Edge 18, Type (0, 0), BuildingBlock: OJICUG_clean_linker_0, # of connection points: 2
#     Edge 19, Type (0, 0), BuildingBlock: OJICUG_clean_linker_0, # of connection points: 2
#     Edge 20, Type (0, 0), BuildingBlock: OJICUG_clean_linker_0, # of connection points: 2
#     Edge 21, Type (0, 0), BuildingBlock: OJICUG_clean_linker_0, # of connection points: 2
#     Edge 22, Type (0, 0), BuildingBlock: OJICUG_clean_linker_0, # of connection points: 2
#     Edge 23, Type (0, 0), BuildingBlock: OJICUG_clean_linker_0, # of connection points: 2
# Relax obj value: 0.609
# Max RMSD: 0.477
# Mean RMSD: 0.367
data_MOF--net-tfs--node1-BETFAJ_clean_sbu_0--edge1-OJICUG_clean_linker_0
_symmetry_space_group_name_H-M    P1
_symmetry_Int_Tables_number       1
_symmetry_cell_setting            triclinic
loop_
_symmetry_equiv_pos_as_xyz
'x, y, z'
_cell_length_a     44.359445
_cell_length_b     41.143819
_cell_length_c     9.6968447
_cell_angle_alpha  97.908561
_cell_angle_beta   90.940346
_cell_angle_gamma 128.96774
loop_
_atom_site_label
_atom_site_type_symbol
_atom_site_fract_x
_atom_site_fract_y
_atom_site_fract_z
_atom_type_partial_charge
Sm0 Sm 0.34495 0.46608 0.51277 0.0
Sm1 Sm 0.31725 0.51751 0.44778 0.0
C2 C 0.35873 0.41791 0.60457 0.0
C3 C 0.38344 0.40543 0.58573 0.0
C4 C 0.38657 0.38579 0.68589 0.0
C5 C 0.40743 0.37081 0.66529 0.0
C6 C 0.42568 0.37516 0.54375 0.0
C7 C 0.42292 0.39554 0.44455 0.0
C8 C 0.40203 0.41051 0.46533 0.0
C9 C 0.3334 0.46701 0.23715 0.0
C10 C 0.25065 0.42222 0.48721 0.0
C11 C 0.30349 0.56479 0.35176 0.0
C12 C 0.31852 0.60889 0.39321 0.0
C13 C 0.35696 0.64151 0.45995 0.0
C14 C 0.3691 0.68189 0.51592 0.0
C15 C 0.34279 0.69004 0.50772 0.0
C16 C 0.30481 0.65771 0.4361 0.0
C17 C 0.29283 0.61754 0.37929 0.0
C18 C 0.33096 0.51923 0.7254 0.0
C19 C 0.41281 0.56502 0.47541 0.0
O20 O 0.37565 0.45692 0.66795 0.0
O21 O 0.33258 0.40439 0.49811 0.0
O22 O 0.31229 0.46354 0.32808 0.0
O23 O 0.36086 0.46722 0.28759 0.0
O24 O 0.27926 0.42641 0.5585 0.0
O25 O 0.25906 0.44969 0.40688 0.0
O26 O 0.28325 0.54001 0.44103 0.0
O27 O 0.32741 0.55928 0.29968 0.0
O28 O 0.35053 0.52064 0.63157 0.0
O29 O 0.30434 0.52048 0.677 0.0
O30 O 0.38387 0.56499 0.43844 0.0
O31 O 0.40636 0.53174 0.516 0.0
H32 H 0.37238 0.3815 0.77949 0.0
H33 H 0.40934 0.35592 0.74495 0.0
H34 H 0.43609 0.39904 0.34885 0.0
H35 H 0.39982 0.42535 0.38619 0.0
H36 H 0.37711 0.63534 0.47327 0.0
H37 H 0.39842 0.70605 0.57147 0.0
H38 H 0.28404 0.66322 0.42691 0.0
H39 H 0.26301 0.59273 0.32879 0.0
Sm40 Sm 0.89344 0.17733 0.44217 0.0
Sm41 Sm 0.8116 0.15325 0.33606 0.0
C42 C 0.9595 0.19896 0.5648 0.0
C43 C 1.00213 0.23019 0.55239 0.0
C44 C 1.03033 0.2486 0.67074 0.0
C45 C 0.07059 0.27829 0.66055 0.0
C46 C 0.08384 0.29053 0.53144 0.0
C47 C 0.05531 0.27161 0.41286 0.0
C48 C 1.01515 0.24207 0.42328 0.0
C49 C 0.87453 0.16054 0.15772 0.0
C50 C 0.81018 0.07753 0.39773 0.0
C51 C 0.75203 0.14623 0.22477 0.0
C52 C 0.73123 0.16389 0.25152 0.0
C53 C 0.73225 0.18808 0.15953 0.0
C54 C 0.70849 0.1997 0.16935 0.0
C55 C 0.68325 0.18814 0.27322 0.0
C56 C 0.68335 0.16518 0.36861 0.0
C57 C 0.70684 0.15313 0.35768 0.0
C58 C 0.83193 0.17326 0.62116 0.0
C59 C 0.89524 0.24849 0.32303 0.0
O60 O 0.94303 0.21452 0.6176 0.0
O61 O 0.937 0.16719 0.45866 0.0
O62 O 0.85063 0.14124 0.24287 0.0
O63 O 0.91022 0.18671 0.2205 0.0
O64 O 0.84431 0.10774 0.47925 0.0
O65 O 0.79516 0.08707 0.30767 0.0
O66 O 0.78717 0.171 0.18824 0.0
O67 O 0.74804 0.12104 0.30545 0.0
O68 O 0.85524 0.191 0.53315 0.0
O69 O 0.7962 0.14734 0.56038 0.0
O70 O 0.85743 0.21869 0.27997 0.0
O71 O 0.91516 0.24277 0.40469 0.0
H72 H 1.0212 0.24019 0.77177 0.0
H73 H 0.09126 0.29231 0.75484 0.0
H74 H 0.06394 0.27936 0.31089 0.0
H75 H 0.99423 0.22851 0.32998 0.0
H76 H 0.7502 0.19642 0.07529 0.0
H77 H 0.70907 0.21659 0.0918 0.0
H78 H 0.6651 0.1562 0.45188 0.0
H79 H 0.70506 0.1344 0.43042 0.0
Sm80 Sm 0.65752 0.79633 0.41195 0.0
Sm81 Sm 0.61926 0.83383 0.53029 0.0
C82 C 0.69567 0.77571 0.27095 0.0
C83 C 0.70918 0.7512 0.27672 0.0
C84 C 0.71611 0.73644 0.15253 0.0
C85 C 0.73348 0.71764 0.15729 0.0
C86 C 0.74441 0.71354 0.28674 0.0
C87 C 0.73578 0.72676 0.41061 0.0
C88 C 0.71823 0.74536 0.40558 0.0
C89 C 0.66283 0.81181 0.69908 0.0
C90 C 0.7047 0.90026 0.45669 0.0
C91 C 0.59435 0.86727 0.68769 0.0
C92 C 0.61812 0.91136 0.76711 0.0
C93 C 0.62768 0.92025 0.91351 0.0
C94 C 0.65181 0.96226 -0.01226 0.0
C95 C 0.66577 0.99619 0.91742 0.0
C96 C 0.65771 0.98704 0.76963 0.0
C97 C 0.63437 0.94535 0.6958 0.0
C98 C 0.61534 0.81913 0.24221 0.0
C99 C 0.56736 0.72875 0.47972 0.0
O100 O 0.71271 0.80973 0.36871 0.0
O101 O 0.65803 0.75433 0.24179 0.0
O102 O 0.66708 0.83538 0.61833 0.0
O103 O 0.65809 0.77927 0.62917 0.0
O104 O 0.69616 0.86677 0.36927 0.0
O105 O 0.68272 0.8946 0.55532 0.0
O106 O 0.59045 0.86247 0.55033 0.0
O107 O 0.60089 0.8434 0.73296 0.0
O108 O 0.61025 0.7952 0.32278 0.0
O109 O 0.62064 0.85197 0.31281 0.0
O110 O 0.57145 0.76264 0.53796 0.0
O111 O 0.59531 0.73244 0.41524 0.0
H112 H 0.70916 0.74059 0.05212 0.0
H113 H 0.73905 0.7071 0.05978 0.0
H114 H 0.74411 0.72447 0.51216 0.0
H115 H 0.71303 0.75656 0.50271 0.0
H116 H 0.616 0.89465 0.97082 0.0
H117 H 0.65786 0.96784 0.10087 0.0
H118 H 0.66704 1.01159 0.70987 0.0
H119 H 0.6284 0.93989 0.5826 0.0
Sm120 Sm 0.94801 0.60815 0.26538 0.0
Sm121 Sm 0.98316 0.56454 0.15407 0.0
C122 C 0.92425 0.64624 0.40725 0.0
C123 C 0.89573 0.65266 0.38367 0.0
C124 C 0.88326 0.66363 0.4992 0.0
C125 C 0.85637 0.67023 0.47884 0.0
C126 C 0.84158 0.66602 0.34232 0.0
C127 C 0.8538 0.65441 0.22659 0.0
C128 C 0.88058 0.64762 0.24714 0.0
C129 C 0.96561 0.61422 -0.00407 0.0
C130 C 0.03909 0.65389 0.35704 0.0
C131 C 1.00512 0.5231 0.0257 0.0
C132 C 0.99105 0.48016 0.03472 0.0
C133 C 0.95083 0.44648 0.02889 0.0
C134 C 0.93768 0.4082 0.06464 0.0
C135 C 0.96437 0.40265 0.10788 0.0
C136 C 1.00458 0.43586 0.10938 0.0
C137 C 1.01779 0.47427 0.07277 0.0
C138 C 0.96231 0.55458 0.42017 0.0
C139 C 0.88942 0.51568 0.06528 0.0
O140 O 0.95431 0.66589 0.3372 0.0
O141 O 0.90959 0.60717 0.41142 0.0
O142 O 0.9861 0.61741 0.09712 0.0
O143 O 0.93718 0.61248 0.03911 0.0
O144 O 1.00688 0.64459 0.39932 0.0
O145 O 0.03824 0.6333 0.23777 0.0
O146 O 0.98034 0.5255 0.9629 0.0
O147 O 1.02431 0.55101 0.14246 0.0
O148 O 0.94408 0.55423 0.31846 0.0
O149 O 0.99011 0.55518 0.37782 0.0
O150 O 0.91936 0.5168 0.04301 0.0
O151 O 0.89206 0.54457 0.15647 0.0
H152 H 0.8946 0.66744 0.60526 0.0
H153 H 0.84786 0.67961 0.57002 0.0
H154 H 0.84258 0.65047 0.12025 0.0
H155 H 0.88961 0.63866 0.15667 0.0
H156 H 0.92948 0.45028 0.00309 0.0
H157 H 0.90654 0.3836 0.06449 0.0
H158 H 1.02582 0.4324 0.14111 0.0
H159 H 0.04897 0.50005 0.08 0.0
Sm160 Sm 0.35392 0.89447 0.96703 0.0
Sm161 Sm 0.44042 0.95133 0.90874 0.0
C162 C 0.28372 0.85191 0.04446 0.0
C163 C 0.24646 0.82459 0.95195 0.0
C164 C 0.21347 0.78749 -0.01108 0.0
C165 C 0.17948 0.75932 0.89218 0.0
C166 C 0.17849 0.76788 0.75729 0.0
C167 C 0.21142 0.80536 0.7218 0.0
C168 C 0.24507 0.8335 0.81833 0.0
C169 C 0.36549 0.91157 0.69966 0.0
C170 C 0.40911 0.99763 0.0617 0.0
C171 C 0.50746 0.99659 0.80532 0.0
C172 C 0.54747 0.03589 0.85126 0.0
C173 C 0.57522 0.04834 0.75906 0.0
C174 C 0.61478 0.07545 0.812 0.0
C175 C 0.62651 0.08882 0.95857 0.0
C176 C 0.59927 0.0841 0.04512 0.0
C177 C 0.55955 0.05671 -0.00783 0.0
C178 C 0.4285 0.93534 0.17696 0.0
C179 C 0.38296 0.84708 0.80867 0.0
O180 O 0.30574 0.89239 0.03915 0.0
O181 O 0.30315 0.83776 0.04139 0.0
O182 O 0.38619 0.93683 0.81183 0.0
O183 O 0.33503 0.87565 0.72587 0.0
O184 O 0.38013 0.96073 0.09404 0.0
O185 O 0.43411 1.00138 0.97961 0.0
O186 O 0.49608 0.96519 0.86937 0.0
O187 O 0.48092 1.0007 0.786 0.0
O188 O 0.40814 0.90939 0.06533 0.0
O189 O 0.45908 0.97132 0.15009 0.0
O190 O 0.4124 0.88439 0.779 0.0
O191 O 0.36014 0.84389 0.90108 0.0
H192 H 0.21429 0.77992 0.09091 0.0
H193 H 0.15432 0.73043 0.92145 0.0
H194 H 0.21111 0.81298 0.61944 0.0
H195 H 0.27029 0.86194 0.78735 0.0
H196 H 0.56621 0.03344 0.64885 0.0
H197 H 0.63478 0.07959 0.73968 0.0
H198 H 0.60757 0.09569 0.15735 0.0
H199 H 0.53823 0.04834 0.06387 0.0
Sm200 Sm 0.50403 0.22306 0.35943 0.0
Sm201 Sm 0.57726 0.31227 0.32191 0.0
C202 C 0.44005 0.15656 0.43948 0.0
C203 C 0.42655 0.13849 0.56688 0.0
C204 C 0.43728 0.16459 0.69886 0.0
C205 C 0.42733 0.14698 0.82022 0.0
C206 C 0.40655 0.10322 0.8109 0.0
C207 C 0.39368 0.0769 0.67791 0.0
C208 C 0.40367 0.09444 0.55683 0.0
C209 C 0.50924 0.2383 0.09205 0.0
C210 C 0.50623 0.30655 0.42355 0.0
C211 C 0.63587 0.37417 0.2116 0.0
C212 C 0.66686 0.37931 0.13784 0.0
C213 C 0.67043 0.38801 0.0015 0.0
C214 C 0.70143 0.39607 0.93389 0.0
C215 C 0.72967 0.39621 0.00281 0.0
C216 C 0.72385 0.38363 0.13421 0.0
C217 C 0.69267 0.37515 0.20092 0.0
C218 C 0.57067 0.29821 0.59057 0.0
C219 C 0.5818 0.2342 0.30207 0.0
O220 O 0.46617 0.15535 0.38502 0.0
O221 O 0.44694 0.19236 0.43801 0.0
O222 O 0.51743 0.26357 0.20176 0.0
O223 O 0.49567 0.20175 0.11944 0.0
O224 O 0.49306 0.26974 0.45701 0.0
O225 O 0.53632 0.32744 0.35291 0.0
O226 O 0.60057 0.34576 0.14362 0.0
O227 O 0.63768 0.37359 0.34637 0.0
O228 O 0.56311 0.27241 0.48298 0.0
O229 O 0.58477 0.33503 0.56129 0.0
O230 O 0.59376 0.2691 0.25675 0.0
O231 O 0.5501 0.21317 0.36646 0.0
H232 H 0.45452 0.19868 0.70873 0.0
H233 H 0.43708 0.1676 0.92155 0.0
H234 H 0.37816 0.04309 0.66818 0.0
H235 H 0.39489 0.07382 0.45577 0.0
H236 H 0.65003 0.39006 0.94929 0.0
H237 H 0.70471 0.40489 0.83164 0.0
H238 H 0.74504 0.38364 0.1913 0.0
H239 H 0.68984 0.36714 0.30436 0.0
C240 C 0.50117 0.3642 0.42949 0.0
C241 C 0.48646 0.32469 0.46223 0.0
H242 H 0.49423 0.41122 0.43119 0.0
C243 C 0.4522 0.3025 0.5268 0.0
H244 H 0.5276 0.38247 0.38056 0.0
C245 C 0.43277 0.31902 0.55502 0.0
C246 C 0.4471 0.35816 0.51943 0.0
H247 H 0.43996 0.27199 0.55334 0.0
H248 H 0.40593 0.30053 0.60153 0.0
C249 C 0.48182 0.38066 0.45769 0.0
C250 C 0.19613 0.35847 0.58936 0.0
C251 C 0.20825 0.38742 0.49842 0.0
H252 H 0.14794 0.30523 0.67063 0.0
C253 C 0.17906 0.38382 0.41885 0.0
H254 H 0.21758 0.36017 0.65268 0.0
C255 C 0.13929 0.35268 0.42978 0.0
C256 C 0.12689 0.32364 0.52051 0.0
H257 H 0.18686 0.40545 0.34799 0.0
H258 H 0.11826 0.35204 0.36836 0.0
C259 C 0.15605 0.32708 0.60036 0.0
C260 C 0.78351 0.02085 0.54371 0.0
C261 C 0.78711 0.03202 0.41086 0.0
H262 H 0.75424 0.97046 0.66195 0.0
C263 C 0.76606 0.99909 0.29158 0.0
H264 H 0.79897 0.04537 0.63763 0.0
C265 C 0.74152 0.95603 0.30512 0.0
C266 C 0.73628 0.94493 0.4386 0.0
H267 H 0.76817 1.00667 0.1877 0.0
H268 H 0.72509 0.93154 0.21166 0.0
C269 C 0.75788 0.9779 0.55751 0.0
C270 C 0.78425 0.66123 0.40355 0.0
C271 C 0.81472 0.6754 0.32128 0.0
H272 H 0.73747 0.6612 0.45489 0.0
C273 C 0.8205 0.70023 0.22263 0.0
H274 H 0.77875 0.64153 0.47909 0.0
C275 C 0.79705 0.71166 0.20922 0.0
C276 C 0.76712 0.69836 0.29371 0.0
H277 H 0.84409 0.71214 0.15912 0.0
H278 H 0.80335 0.73223 0.13601 0.0
C279 C 0.76064 0.67251 0.38973 0.0
C280 C 0.14545 0.72657 0.51383 0.0
C281 C 0.14303 0.73834 0.65389 0.0
H282 H 0.1142 0.69034 0.30854 0.0
C283 C 0.10665 0.7228 0.69413 0.0
H284 H 0.17333 0.7381 0.48086 0.0
C285 C 0.0732 0.6961 0.59612 0.0
C286 C 0.07538 0.68404 0.45593 0.0
H287 H 0.10414 0.7318 0.80104 0.0
H288 H 0.04553 0.68451 0.63139 0.0
C289 C 0.11176 0.69935 0.41551 0.0
C290 C 0.3709 0.02128 0.03175 0.0
C291 C 0.40694 0.03209 0.07693 0.0
H292 H 0.34239 0.03643 0.90709 0.0
C293 C 0.44156 0.07346 0.0768 0.0
H294 H 0.34372 0.98957 0.03106 0.0
C295 C 0.44076 0.10007 0.00506 0.0
C296 C 0.40527 0.08584 0.9359 0.0
H297 H 0.46968 0.08252 0.11153 0.0
H298 H 0.4683 0.12866 -0.01413 0.0
C299 C 0.37009 0.0479 0.95938 0.0
C300 C 0.39949 0.80825 0.64739 0.0
C301 C 0.37362 0.80736 0.73206 0.0
H302 H 0.41014 0.77171 0.50997 0.0
C303 C 0.33777 0.76775 0.74124 0.0
H304 H 0.4273 0.83824 0.63788 0.0
C305 C 0.32788 0.73 0.6673 0.0
C306 C 0.35366 0.73074 0.58301 0.0
H307 H 0.317 0.76574 0.80486 0.0
H308 H 0.30014 0.70006 0.67777 0.0
C309 C 0.38973 0.77023 0.57441 0.0
C310 C 0.64373 0.24774 0.24488 0.0
C311 C 0.6068 0.2213 0.29111 0.0
H312 H 0.69676 0.2592 0.20718 0.0
C313 C 0.5951 0.18367 0.33144 0.0
H314 H 0.65414 0.27723 0.21411 0.0
C315 C 0.61964 0.17292 0.32584 0.0
C316 C 0.65679 0.19954 0.2803 0.0
H317 H 0.56693 0.16243 0.36756 0.0
H318 H 0.60912 0.14336 0.35602 0.0
C319 C 0.6683 0.23718 0.24017 0.0
C320 C 0.52282 0.64755 0.45103 0.0
C321 C 0.52876 0.68591 0.48149 0.0
H322 H 0.48173 0.57894 0.42781 0.0
C323 C 0.49664 0.68346 0.51363 0.0
H324 H 0.54686 0.64813 0.42629 0.0
C325 C 0.45979 0.64433 0.51266 0.0
C326 C 0.45346 0.60593 0.48145 0.0
H327 H 0.49962 0.71193 0.53766 0.0
H328 H 0.43606 0.6443 0.53726 0.0
C329 C 0.48559 0.60793 0.45257 0.0
C330 C 0.91534 0.32368 0.08582 0.0
C331 C 0.94974 0.36289 0.15669 0.0
H332 H 0.8715 0.25735 0.08278 0.0
C333 C 0.96802 0.36391 0.27944 0.0
H334 H 0.90104 0.32155 -0.01071 0.0
C335 C 0.95112 0.32666 0.33326 0.0
C336 C 0.91552 0.28801 0.26579 0.0
H337 H 0.99451 0.39372 0.33681 0.0
H338 H 0.96513 0.32837 0.42967 0.0
C339 C 0.89837 0.28685 0.1399 0.0
C340 C 0.6878 0.09853 0.93647 0.0
C341 C 0.65793 0.08905 0.01671 0.0
H342 H 0.71729 0.07662 0.84853 0.0
C343 C 0.64905 0.06374 0.11822 0.0
H344 H 0.69779 0.12044 0.86472 0.0
C345 C 0.65962 0.03812 0.10699 0.0
C346 C 0.67928 0.03807 -0.00512 0.0
H347 H 0.62819 0.05747 0.18955 0.0
H348 H 0.64603 1.01346 0.16935 0.0
C349 C 0.69895 0.0733 0.92719 0.0
C350 C 0.82756 0.48926 0.93809 0.0
C351 C 0.85047 0.48015 -0.00836 0.0
H352 H 0.77035 0.46869 0.89526 0.0
C353 C 0.83297 0.43843 0.00585 0.0
H354 H 0.84085 0.52133 0.92494 0.0
C355 C 0.79217 0.40778 -0.01158 0.0
C356 C 0.76901 0.41903 0.95771 0.0
H357 H 0.85042 0.43089 0.04622 0.0
H358 H 0.77897 0.37694 0.01427 0.0
C359 C 0.78704 0.4588 0.92016 0.0
C360 C 0.36376 0.49536 0.02606 0.0
C361 C 0.33262 0.47966 0.10495 0.0
H362 H 0.38812 0.52187 0.84453 0.0
C363 C 0.30154 0.47843 0.06121 0.0
H364 H 0.38825 0.49709 0.05925 0.0
C365 C 0.30146 0.49253 0.93907 0.0
C366 C 0.33241 0.50785 0.85953 0.0
H367 H 0.27731 0.46662 0.12143 0.0
H368 H 0.27694 0.49074 0.90576 0.0
C369 C 0.36373 0.50961 0.90415 0.0
C370 C 0.82458 0.13489 0.9578 0.0
C371 C 0.86366 0.16348 0.01998 0.0
H372 H 0.78399 0.11584 0.78097 0.0
C373 C 0.89214 0.19662 0.95346 0.0
H374 H 0.80212 0.10943 0.00834 0.0
C375 C 0.88165 0.20086 0.8252 0.0
C376 C 0.8428 0.17158 0.76124 0.0
H377 H 0.92239 0.21965 0.00139 0.0
H378 H 0.9038 0.22695 0.77629 0.0
C379 C 0.81423 0.13885 0.82884 0.0
C380 C 0.64874 0.8536 0.04124 0.0
C381 C 0.62698 0.81728 0.10225 0.0
H382 H 0.67818 0.88057 0.86621 0.0
C383 C 0.61885 0.7797 0.0333 0.0
H384 H 0.65608 0.88316 0.09398 0.0
C385 C 0.63178 0.77827 0.90411 0.0
C386 C 0.65293 0.81439 0.84185 0.0
H387 H 0.60231 0.75133 0.07907 0.0
H388 H 0.62441 0.74866 0.85155 0.0
C389 C 0.66177 0.85223 0.91219 0.0
C390 C 0.93295 0.5826 0.74878 0.0
C391 C 0.96526 0.59983 0.84827 0.0
H392 H 0.90595 0.55289 0.53536 0.0
C393 C 0.99581 0.60062 0.80715 0.0
H394 H 0.90865 0.58096 0.77849 0.0
C395 C 0.99425 0.58475 0.66818 0.0
C396 C 0.9621 0.56789 0.5684 0.0
H397 H 1.02087 0.61346 0.88229 0.0
H398 H 1.01855 0.58639 0.63846 0.0
C399 C 0.9313 0.56649 0.60999 0.0
C400 C 0.42877 0.96454 0.42012 0.0
C401 C 0.41315 0.92947 0.31211 0.0
H402 H 0.42421 0.9863 0.62611 0.0
C403 C 0.3805 0.88863 0.32956 0.0
H404 H 0.4534 0.99642 0.40774 0.0
C405 C 0.36405 0.88282 0.45437 0.0
C406 C 0.37999 0.91782 0.56307 0.0
H407 H 0.36774 0.86114 0.2468 0.0
H408 H 0.33945 0.85093 0.46677 0.0
C409 C 0.41203 0.95876 0.54437 0.0
C410 C 0.53071 0.23039 0.86529 0.0
C411 C 0.52283 0.25222 0.96022 0.0
H412 H 0.55291 0.22876 0.67322 0.0
C413 C 0.53096 0.28959 0.93398 0.0
H414 H 0.5247 0.20158 0.88413 0.0
C415 C 0.54801 0.30578 0.81566 0.0
C416 C 0.55621 0.28413 0.72142 0.0
H417 H 0.5248 0.30668 0.00643 0.0
H418 H 0.55406 0.3346 0.79664 0.0
C419 C 0.54717 0.24619 0.74606 0.0
loop_
_geom_bond_atom_site_label_1
_geom_bond_atom_site_label_2
_geom_bond_distance
_geom_bond_site_symmetry_2
_ccdc_geom_bond_type
Sm0 C2 2.846 . S
Sm0 O20 2.543 . S
Sm0 O21 2.450 . S
Sm0 O22 2.681 . S
Sm0 O23 2.464 . S
Sm0 O24 2.396 . S
Sm0 O28 2.386 1_556 S
Sm0 O31 2.408 . S
Sm1 C11 2.846 1_556 S
Sm1 O22 2.386 . S
Sm1 O25 2.408 . S
Sm1 O26 2.543 . S
Sm1 O27 2.450 1_556 S
Sm1 O28 2.681 1_556 S
Sm1 O29 2.464 1_556 S
Sm1 O30 2.396 1_556 S
C2 Sm0 2.846 . S
C2 C3 1.506 . S
C2 O20 1.261 . S
C2 O21 1.242 . S
C3 C2 1.506 . S
C3 C4 1.358 . S
C3 C8 1.382 . S
C4 C3 1.358 . S
C4 C5 1.385 . S
C4 H32 0.930 1_556 S
C5 C4 1.385 . S
C5 C6 1.395 . S
C5 H33 0.929 . S
C6 C5 1.395 . S
C6 C7 1.335 . S
C7 C6 1.335 . S
C7 C8 1.398 . S
C7 H34 0.930 . S
C8 C3 1.382 . S
C8 C7 1.398 . S
C8 H35 0.929 . S
C9 O22 1.271 . S
C9 O23 1.251 . S
C10 O24 1.252 . S
C10 O25 1.272 . S
C11 Sm1 2.846 1_554 S
C11 C12 1.506 . S
C11 O26 1.261 1_554 S
C11 O27 1.242 . S
C12 C11 1.506 . S
C12 C13 1.358 1_554 S
C12 C17 1.382 . S
C13 C12 1.358 1_556 S
C13 C14 1.385 . S
C13 H36 0.930 . S
C14 C13 1.385 . S
C14 C15 1.395 1_556 S
C14 H37 0.929 . S
C15 C14 1.395 1_554 S
C15 C16 1.335 . S
C16 C15 1.335 . S
C16 C17 1.398 . S
C16 H38 0.930 . S
C17 C12 1.382 . S
C17 C16 1.398 . S
C17 H39 0.929 . S
C18 O28 1.271 . S
C18 O29 1.251 . S
C19 O30 1.252 . S
C19 O31 1.272 1_554 S
O20 Sm0 2.543 . S
O20 C2 1.261 . S
O21 Sm0 2.450 . S
O21 C2 1.242 . S
O22 Sm0 2.681 . S
O22 Sm1 2.386 . S
O22 C9 1.271 . S
O23 Sm0 2.464 . S
O23 C9 1.251 . S
O24 Sm0 2.396 . S
O24 C10 1.252 . S
O25 Sm1 2.408 . S
O25 C10 1.272 . S
O26 Sm1 2.543 . S
O26 C11 1.261 1_556 S
O27 Sm1 2.450 1_554 S
O27 C11 1.242 . S
O28 Sm0 2.386 1_554 S
O28 Sm1 2.681 1_554 S
O28 C18 1.271 . S
O29 Sm1 2.464 1_554 S
O29 C18 1.251 . S
O30 Sm1 2.396 1_554 S
O30 C19 1.252 . S
O31 Sm0 2.408 . S
O31 C19 1.272 1_556 S
H32 C4 0.930 1_554 S
H33 C5 0.929 . S
H34 C7 0.930 . S
H35 C8 0.929 . S
H36 C13 0.930 . S
H37 C14 0.929 . S
H38 C16 0.930 . S
H39 C17 0.929 . S
Sm40 C42 2.846 . S
Sm40 O60 2.543 . S
Sm40 O61 2.450 . S
Sm40 O62 2.681 1_554 S
Sm40 O63 2.464 1_554 S
Sm40 O64 2.396 . S
Sm40 O68 2.386 . S
Sm40 O71 2.408 . S
Sm41 C51 2.846 1_554 S
Sm41 O62 2.386 1_554 S
Sm41 O65 2.408 . S
Sm41 O66 2.543 1_554 S
Sm41 O67 2.450 . S
Sm41 O68 2.681 . S
Sm41 O69 2.464 . S
Sm41 O70 2.396 . S
C42 Sm40 2.846 . S
C42 C43 1.506 1_655 S
C42 O60 1.261 . S
C42 O61 1.242 . S
C43 C42 1.506 1_455 S
C43 C44 1.358 . S
C43 C48 1.382 . S
C44 C43 1.358 . S
C44 C45 1.385 . S
C44 H72 0.930 1_455 S
C45 C44 1.385 . S
C45 C46 1.395 . S
C45 H73 0.929 . S
C46 C45 1.395 . S
C46 C47 1.335 . S
C47 C46 1.335 . S
C47 C48 1.398 . S
C47 H74 0.930 . S
C48 C43 1.382 . S
C48 C47 1.398 . S
C48 H75 0.929 . S
C49 O62 1.271 . S
C49 O63 1.251 . S
C50 O64 1.252 . S
C50 O65 1.272 . S
C51 Sm41 2.846 1_556 S
C51 C52 1.506 . S
C51 O66 1.261 . S
C51 O67 1.242 1_556 S
C52 C51 1.506 . S
C52 C53 1.358 . S
C52 C57 1.382 . S
C53 C52 1.358 . S
C53 C54 1.385 . S
C53 H76 0.930 . S
C54 C53 1.385 . S
C54 C55 1.395 . S
C54 H77 0.929 . S
C55 C54 1.395 . S
C55 C56 1.335 . S
C56 C55 1.335 . S
C56 C57 1.398 . S
C56 H78 0.930 1_556 S
C57 C52 1.382 . S
C57 C56 1.398 . S
C57 H79 0.929 1_556 S
C58 O68 1.271 . S
C58 O69 1.251 . S
C59 O70 1.252 . S
C59 O71 1.272 . S
O60 Sm40 2.543 . S
O60 C42 1.261 . S
O61 Sm40 2.450 . S
O61 C42 1.242 . S
O62 Sm40 2.681 1_556 S
O62 Sm41 2.386 1_556 S
O62 C49 1.271 . S
O63 Sm40 2.464 1_556 S
O63 C49 1.251 . S
O64 Sm40 2.396 . S
O64 C50 1.252 . S
O65 Sm41 2.408 . S
O65 C50 1.272 . S
O66 Sm41 2.543 1_556 S
O66 C51 1.261 . S
O67 Sm41 2.450 . S
O67 C51 1.242 1_554 S
O68 Sm40 2.386 . S
O68 Sm41 2.681 . S
O68 C58 1.271 . S
O69 Sm41 2.464 . S
O69 C58 1.251 . S
O70 Sm41 2.396 . S
O70 C59 1.252 . S
O71 Sm40 2.408 . S
O71 C59 1.272 . S
H72 C44 0.930 1_655 S
H73 C45 0.929 . S
H74 C47 0.930 . S
H75 C48 0.929 . S
H76 C53 0.930 . S
H77 C54 0.929 . S
H78 C56 0.930 1_554 S
H79 C57 0.929 1_554 S
Sm80 C82 2.846 . S
Sm80 O100 2.543 . S
Sm80 O101 2.450 1_556 S
Sm80 O102 2.681 1_556 S
Sm80 O103 2.464 1_556 S
Sm80 O104 2.396 1_556 S
Sm80 O108 2.386 . S
Sm80 O111 2.408 1_556 S
Sm81 C91 2.846 . S
Sm81 O102 2.386 . S
Sm81 O105 2.409 1_564 S
Sm81 O106 2.543 . S
Sm81 O107 2.450 1_554 S
Sm81 O108 2.681 1_554 S
Sm81 O109 2.464 1_554 S
Sm81 O110 2.396 1_554 S
C82 Sm80 2.846 . S
C82 C83 1.506 . S
C82 O100 1.261 . S
C82 O101 1.242 1_556 S
C83 C82 1.506 . S
C83 C84 1.358 . S
C83 C88 1.382 . S
C84 C83 1.358 . S
C84 C85 1.385 . S
C84 H112 0.930 . S
C85 C84 1.385 . S
C85 C86 1.395 . S
C85 H113 0.929 . S
C86 C85 1.395 . S
C86 C87 1.335 . S
C87 C86 1.335 . S
C87 C88 1.398 . S
C87 H114 0.930 . S
C88 C83 1.382 . S
C88 C87 1.398 . S
C88 H115 0.929 1_556 S
C89 O102 1.271 . S
C89 O103 1.251 . S
C90 O104 1.252 1_556 S
C90 O105 1.261 1_565 S
C91 Sm81 2.846 . S
C91 C92 1.506 . S
C91 O106 1.261 . S
C91 O107 1.242 1_554 S
C92 C91 1.506 . S
C92 C93 1.358 . S
C92 C97 1.382 . S
C93 C92 1.358 . S
C93 C94 1.385 . S
C93 H116 0.930 . S
C94 C93 1.385 . S
C94 C95 1.395 . S
C94 H117 0.929 . S
C95 C94 1.395 . S
C95 C96 1.335 . S
C96 C95 1.335 . S
C96 C97 1.398 . S
C96 H118 0.930 . S
C97 C92 1.382 . S
C97 C96 1.398 . S
C97 H119 0.929 1_554 S
C98 O108 1.271 . S
C98 O109 1.251 . S
C99 O110 1.252 1_554 S
C99 O111 1.272 . S
O100 Sm80 2.543 . S
O100 C82 1.261 . S
O101 Sm80 2.450 1_554 S
O101 C82 1.242 1_554 S
O102 Sm80 2.681 1_554 S
O102 Sm81 2.386 . S
O102 C89 1.271 . S
O103 Sm80 2.464 1_554 S
O103 C89 1.251 . S
O104 Sm80 2.396 1_554 S
O104 C90 1.252 1_554 S
O105 Sm81 2.409 1_546 S
O105 C90 1.261 1_545 S
O106 Sm81 2.543 . S
O106 C91 1.261 . S
O107 Sm81 2.450 1_556 S
O107 C91 1.242 1_556 S
O108 Sm80 2.386 . S
O108 Sm81 2.681 1_556 S
O108 C98 1.271 . S
O109 Sm81 2.464 1_556 S
O109 C98 1.251 . S
O110 Sm81 2.396 1_556 S
O110 C99 1.252 1_556 S
O111 Sm80 2.408 1_554 S
O111 C99 1.272 . S
H112 C84 0.930 . S
H113 C85 0.929 . S
H114 C87 0.930 . S
H115 C88 0.929 1_554 S
H116 C93 0.930 . S
H117 C94 0.929 . S
H118 C96 0.930 . S
H119 C97 0.929 1_556 S
Sm120 C122 2.846 . S
Sm120 O140 2.543 . S
Sm120 O141 2.450 1_554 S
Sm120 O142 2.681 1_554 S
Sm120 O143 2.464 1_554 S
Sm120 O144 2.396 . S
Sm120 O148 2.386 . S
Sm120 O151 2.408 1_554 S
Sm121 C131 2.846 . S
Sm121 O142 2.386 . S
Sm121 O145 2.408 1_556 S
Sm121 O146 2.543 . S
Sm121 O147 2.450 1_556 S
Sm121 O148 2.681 1_556 S
Sm121 O149 2.464 1_556 S
Sm121 O150 2.396 . S
C122 Sm120 2.846 . S
C122 C123 1.506 . S
C122 O140 1.261 . S
C122 O141 1.242 1_554 S
C123 C122 1.506 . S
C123 C124 1.358 . S
C123 C128 1.382 . S
C124 C123 1.358 . S
C124 C125 1.385 . S
C124 H152 0.930 . S
C125 C124 1.385 . S
C125 C126 1.395 . S
C125 H153 0.929 . S
C126 C125 1.395 . S
C126 C127 1.335 . S
C127 C126 1.335 . S
C127 C128 1.398 . S
C127 H154 0.930 . S
C128 C123 1.382 . S
C128 C127 1.398 . S
C128 H155 0.929 1_554 S
C129 O142 1.271 . S
C129 O143 1.251 . S
C130 O144 1.252 . S
C130 O145 1.272 . S
C131 Sm121 2.846 . S
C131 C132 1.506 . S
C131 O146 1.261 . S
C131 O147 1.242 1_556 S
C132 C131 1.506 . S
C132 C133 1.358 . S
C132 C137 1.382 . S
C133 C132 1.358 . S
C133 C134 1.385 . S
C133 H156 0.930 . S
C134 C133 1.385 . S
C134 C135 1.395 . S
C134 H157 0.929 . S
C135 C134 1.395 . S
C135 C136 1.335 . S
C136 C135 1.335 . S
C136 C137 1.398 . S
C136 H158 0.930 . S
C137 C132 1.382 . S
C137 C136 1.398 . S
C137 H159 0.929 1_556 S
C138 O148 1.271 . S
C138 O149 1.251 . S
C139 O150 1.252 . S
C139 O151 1.272 . S
O140 Sm120 2.543 . S
O140 C122 1.261 . S
O141 Sm120 2.450 1_556 S
O141 C122 1.242 1_556 S
O142 Sm120 2.681 1_556 S
O142 Sm121 2.386 . S
O142 C129 1.271 . S
O143 Sm120 2.464 1_556 S
O143 C129 1.251 . S
O144 Sm120 2.396 . S
O144 C130 1.252 . S
O145 Sm121 2.408 1_554 S
O145 C130 1.272 . S
O146 Sm121 2.543 . S
O146 C131 1.261 . S
O147 Sm121 2.450 1_554 S
O147 C131 1.242 1_554 S
O148 Sm120 2.386 . S
O148 Sm121 2.681 1_554 S
O148 C138 1.271 . S
O149 Sm121 2.464 1_554 S
O149 C138 1.251 . S
O150 Sm121 2.396 . S
O150 C139 1.252 . S
O151 Sm120 2.408 1_556 S
O151 C139 1.272 . S
H152 C124 0.930 . S
H153 C125 0.929 . S
H154 C127 0.930 . S
H155 C128 0.929 1_556 S
H156 C133 0.930 . S
H157 C134 0.929 . S
H158 C136 0.930 . S
H159 C137 0.929 1_554 S
Sm160 C162 2.846 . S
Sm160 O180 2.543 1_556 S
Sm160 O181 2.450 . S
Sm160 O182 2.681 . S
Sm160 O183 2.464 . S
Sm160 O184 2.396 . S
Sm160 O188 2.386 1_556 S
Sm160 O191 2.408 . S
Sm161 C171 2.846 . S
Sm161 O182 2.386 1_554 S
Sm161 O185 2.408 . S
Sm161 O186 2.543 1_554 S
Sm161 O187 2.450 . S
Sm161 O188 2.681 . S
Sm161 O189 2.464 . S
Sm161 O190 2.396 . S
C162 Sm160 2.846 . S
C162 C163 1.506 . S
C162 O180 1.261 1_556 S
C162 O181 1.242 . S
C163 C162 1.506 . S
C163 C164 1.358 . S
C163 C168 1.382 . S
C164 C163 1.358 . S
C164 C165 1.385 . S
C164 H192 0.930 1_556 S
C165 C164 1.385 . S
C165 C166 1.395 . S
C165 H193 0.929 1_556 S
C166 C165 1.395 . S
C166 C167 1.335 . S
C167 C166 1.335 . S
C167 C168 1.398 . S
C167 H194 0.930 . S
C168 C163 1.382 . S
C168 C167 1.398 . S
C168 H195 0.929 . S
C169 O182 1.271 . S
C169 O183 1.251 . S
C170 O184 1.252 . S
C170 O185 1.272 1_556 S
C171 Sm161 2.846 . S
C171 C172 1.506 . S
C171 O186 1.261 1_554 S
C171 O187 1.242 . S
C172 C171 1.506 . S
C172 C173 1.358 . S
C172 C177 1.382 . S
C173 C172 1.358 . S
C173 C174 1.385 . S
C173 H196 0.930 1_554 S
C174 C173 1.385 . S
C174 C175 1.395 . S
C174 H197 0.929 1_554 S
C175 C174 1.395 . S
C175 C176 1.335 . S
C176 C175 1.335 . S
C176 C177 1.398 . S
C176 H198 0.930 . S
C177 C172 1.382 . S
C177 C176 1.398 . S
C177 H199 0.929 . S
C178 O188 1.271 . S
C178 O189 1.251 . S
C179 O190 1.252 . S
C179 O191 1.272 1_554 S
O180 Sm160 2.543 1_554 S
O180 C162 1.261 1_554 S
O181 Sm160 2.450 . S
O181 C162 1.242 . S
O182 Sm160 2.681 . S
O182 Sm161 2.386 1_556 S
O182 C169 1.271 . S
O183 Sm160 2.464 . S
O183 C169 1.251 . S
O184 Sm160 2.396 . S
O184 C170 1.252 . S
O185 Sm161 2.408 . S
O185 C170 1.272 1_554 S
O186 Sm161 2.543 1_556 S
O186 C171 1.261 1_556 S
O187 Sm161 2.450 . S
O187 C171 1.242 . S
O188 Sm160 2.386 1_554 S
O188 Sm161 2.681 . S
O188 C178 1.271 . S
O189 Sm161 2.464 . S
O189 C178 1.251 . S
O190 Sm161 2.396 . S
O190 C179 1.252 . S
O191 Sm160 2.408 . S
O191 C179 1.272 1_556 S
H192 C164 0.930 1_554 S
H193 C165 0.929 1_554 S
H194 C167 0.930 . S
H195 C168 0.929 . S
H196 C173 0.930 1_556 S
H197 C174 0.929 1_556 S
H198 C176 0.930 . S
H199 C177 0.929 . S
Sm200 C202 2.846 1_556 S
Sm200 O220 2.543 1_556 S
Sm200 O221 2.450 . S
Sm200 O222 2.681 . S
Sm200 O223 2.464 . S
Sm200 O224 2.396 . S
Sm200 O228 2.386 1_556 S
Sm200 O231 2.408 . S
Sm201 C211 2.846 1_554 S
Sm201 O222 2.386 1_554 S
Sm201 O225 2.408 . S
Sm201 O226 2.543 1_554 S
Sm201 O227 2.450 . S
Sm201 O228 2.681 . S
Sm201 O229 2.464 . S
Sm201 O230 2.396 . S
C202 Sm200 2.846 1_554 S
C202 C203 1.506 . S
C202 O220 1.261 . S
C202 O221 1.242 1_554 S
C203 C202 1.506 . S
C203 C204 1.358 . S
C203 C208 1.382 1_544 S
C204 C203 1.358 . S
C204 C205 1.385 1_545 S
C204 H232 0.930 . S
C205 C204 1.385 1_565 S
C205 C206 1.395 . S
C205 H233 0.929 . S
C206 C205 1.395 . S
C206 C207 1.335 1_554 S
C207 C206 1.335 1_556 S
C207 C208 1.398 . S
C207 H234 0.930 . S
C208 C203 1.382 1_566 S
C208 C207 1.398 . S
C208 H235 0.929 . S
C209 O222 1.271 . S
C209 O223 1.251 . S
C210 O224 1.252 1_554 S
C210 O225 1.272 . S
C211 Sm201 2.846 1_556 S
C211 C212 1.506 . S
C211 O226 1.261 . S
C211 O227 1.242 1_556 S
C212 C211 1.506 . S
C212 C213 1.358 . S
C212 C217 1.382 1_556 S
C213 C212 1.358 . S
C213 C214 1.385 . S
C213 H236 0.930 . S
C214 C213 1.385 . S
C214 C215 1.395 . S
C214 H237 0.929 . S
C215 C214 1.395 . S
C215 C216 1.335 1_556 S
C216 C215 1.335 1_554 S
C216 C217 1.398 . S
C216 H238 0.930 . S
C217 C212 1.382 1_554 S
C217 C216 1.398 . S
C217 H239 0.929 . S
C218 O228 1.271 . S
C218 O229 1.251 . S
C219 O230 1.252 1_556 S
C219 O231 1.272 . S
O220 Sm200 2.543 1_554 S
O220 C202 1.261 . S
O221 Sm200 2.450 . S
O221 C202 1.242 1_556 S
O222 Sm200 2.681 . S
O222 Sm201 2.386 1_556 S
O222 C209 1.271 . S
O223 Sm200 2.464 . S
O223 C209 1.251 . S
O224 Sm200 2.396 . S
O224 C210 1.252 1_556 S
O225 Sm201 2.408 . S
O225 C210 1.272 . S
O226 Sm201 2.543 1_556 S
O226 C211 1.261 . S
O227 Sm201 2.450 . S
O227 C211 1.242 1_554 S
O228 Sm200 2.386 1_554 S
O228 Sm201 2.681 . S
O228 C218 1.271 . S
O229 Sm201 2.464 . S
O229 C218 1.251 . S
O230 Sm201 2.396 . S
O230 C219 1.252 1_554 S
O231 Sm200 2.408 . S
O231 C219 1.272 . S
H232 C204 0.930 . S
H233 C205 0.929 . S
H234 C207 0.930 . S
H235 C208 0.929 . S
H236 C213 0.930 . S
H237 C214 0.929 . S
H238 C216 0.930 . S
H239 C217 0.929 . S
C240 C241 1.387 . S
C240 H244 0.950 . S
C240 C249 1.390 . S
C241 C240 1.387 . S
C241 C243 1.387 . S
H242 C249 0.950 . S
C243 C241 1.387 . S
C243 C245 1.390 . S
C243 H247 0.950 . S
H244 C240 0.950 . S
C245 C243 1.390 . S
C245 C246 1.387 . S
C245 H248 0.950 . S
C246 C245 1.387 . S
C246 C249 1.387 . S
H247 C243 0.950 . S
H248 C245 0.950 . S
C249 C240 1.390 . S
C249 H242 0.950 . S
C249 C246 1.387 . S
C250 C251 1.387 . S
C250 H254 0.950 . S
C250 C259 1.390 . S
C251 C250 1.387 . S
C251 C253 1.387 . S
H252 C259 0.950 . S
C253 C251 1.387 . S
C253 C255 1.390 . S
C253 H257 0.950 . S
H254 C250 0.950 . S
C255 C253 1.390 . S
C255 C256 1.387 . S
C255 H258 0.950 . S
C256 C255 1.387 . S
C256 C259 1.387 . S
H257 C253 0.950 . S
H258 C255 0.950 . S
C259 C250 1.390 . S
C259 H252 0.950 . S
C259 C256 1.387 . S
C260 C261 1.387 . S
C260 H264 0.950 . S
C260 C269 1.390 . S
C261 C260 1.387 . S
C261 C263 1.387 . S
H262 C269 0.950 . S
C263 C261 1.387 . S
C263 C265 1.390 . S
C263 H267 0.950 . S
H264 C260 0.950 . S
C265 C263 1.390 . S
C265 C266 1.387 . S
C265 H268 0.950 . S
C266 C265 1.387 . S
C266 C269 1.387 . S
H267 C263 0.950 . S
H268 C265 0.950 . S
C269 C260 1.390 . S
C269 H262 0.950 . S
C269 C266 1.387 . S
C270 C271 1.387 . S
C270 H274 0.950 . S
C270 C279 1.390 . S
C271 C270 1.387 . S
C271 C273 1.387 . S
H272 C279 0.950 . S
C273 C271 1.387 . S
C273 C275 1.390 . S
C273 H277 0.950 . S
H274 C270 0.950 . S
C275 C273 1.390 . S
C275 C276 1.387 . S
C275 H278 0.950 . S
C276 C275 1.387 . S
C276 C279 1.387 . S
H277 C273 0.950 . S
H278 C275 0.950 . S
C279 C270 1.390 . S
C279 H272 0.950 . S
C279 C276 1.387 . S
C280 C281 1.387 . S
C280 H284 0.950 . S
C280 C289 1.390 . S
C281 C280 1.387 . S
C281 C283 1.387 1_455 S
H282 C289 0.950 . S
C283 C281 1.387 1_655 S
C283 C285 1.390 . S
C283 H287 0.950 . S
H284 C280 0.950 . S
C285 C283 1.390 . S
C285 C286 1.387 . S
C285 H288 0.950 . S
C286 C285 1.387 . S
C286 C289 1.387 1_655 S
H287 C283 0.950 . S
H288 C285 0.950 . S
C289 C280 1.390 . S
C289 H282 0.950 . S
C289 C286 1.387 1_455 S
C290 C291 1.387 . S
C290 H294 0.950 . S
C290 C299 1.390 . S
C291 C290 1.387 . S
C291 C293 1.387 . S
H292 C299 0.950 . S
C293 C291 1.387 . S
C293 C295 1.390 . S
C293 H297 0.950 1_565 S
H294 C290 0.950 . S
C295 C293 1.390 . S
C295 C296 1.387 . S
C295 H298 0.950 1_565 S
C296 C295 1.387 . S
C296 C299 1.387 . S
H297 C293 0.950 1_545 S
H298 C295 0.950 1_545 S
C299 C290 1.390 . S
C299 H292 0.950 . S
C299 C296 1.387 . S
C300 C301 1.387 1_556 S
C300 H304 0.950 . S
C300 C309 1.390 . S
C301 C300 1.387 1_554 S
C301 C303 1.387 . S
H302 C309 0.950 . S
C303 C301 1.387 . S
C303 C305 1.390 . S
C303 H307 0.950 . S
H304 C300 0.950 . S
C305 C303 1.390 . S
C305 C306 1.387 . S
C305 H308 0.950 . S
C306 C305 1.387 . S
C306 C309 1.387 1_554 S
H307 C303 0.950 . S
H308 C305 0.950 . S
C309 C300 1.390 . S
C309 H302 0.950 . S
C309 C306 1.387 1_556 S
C310 C311 1.387 . S
C310 H314 0.950 . S
C310 C319 1.390 . S
C311 C310 1.387 . S
C311 C313 1.387 . S
H312 C319 0.950 . S
C313 C311 1.387 . S
C313 C315 1.390 . S
C313 H317 0.950 1_556 S
H314 C310 0.950 . S
C315 C313 1.390 . S
C315 C316 1.387 . S
C315 H318 0.950 1_556 S
C316 C315 1.387 . S
C316 C319 1.387 . S
H317 C313 0.950 1_554 S
H318 C315 0.950 1_554 S
C319 C310 1.390 . S
C319 H312 0.950 . S
C319 C316 1.387 . S
C320 C321 1.387 1_556 S
C320 H324 0.950 . S
C320 C329 1.390 . S
C321 C320 1.387 1_554 S
C321 C323 1.387 . S
H322 C329 0.950 . S
C323 C321 1.387 . S
C323 C325 1.390 . S
C323 H327 0.950 . S
H324 C320 0.950 . S
C325 C323 1.390 . S
C325 C326 1.387 . S
C325 H328 0.950 . S
C326 C325 1.387 . S
C326 C329 1.387 1_554 S
H327 C323 0.950 . S
H328 C325 0.950 . S
C329 C320 1.390 . S
C329 H322 0.950 . S
C329 C326 1.387 1_556 S
C330 C331 1.387 . S
C330 H334 0.950 . S
C330 C339 1.390 . S
C331 C330 1.387 . S
C331 C333 1.387 . S
H332 C339 0.950 . S
C333 C331 1.387 . S
C333 C335 1.390 1_556 S
C333 H337 0.950 . S
H334 C330 0.950 . S
C335 C333 1.390 1_554 S
C335 C336 1.387 1_554 S
C335 H338 0.950 . S
C336 C335 1.387 1_556 S
C336 C339 1.387 . S
H337 C333 0.950 . S
H338 C335 0.950 . S
C339 C330 1.390 . S
C339 H332 0.950 . S
C339 C336 1.387 . S
C340 C341 1.387 . S
C340 H344 0.950 . S
C340 C349 1.390 . S
C341 C340 1.387 . S
C341 C343 1.387 . S
H342 C349 0.950 . S
C343 C341 1.387 . S
C343 C345 1.390 . S
C343 H347 0.950 . S
H344 C340 0.950 . S
C345 C343 1.390 . S
C345 C346 1.387 . S
C345 H348 0.950 . S
C346 C345 1.387 . S
C346 C349 1.387 . S
H347 C343 0.950 . S
H348 C345 0.950 . S
C349 C340 1.390 . S
C349 H342 0.950 . S
C349 C346 1.387 . S
C350 C351 1.387 . S
C350 H354 0.950 . S
C350 C359 1.390 . S
C351 C350 1.387 . S
C351 C353 1.387 1_556 S
H352 C359 0.950 . S
C353 C351 1.387 1_554 S
C353 C355 1.390 . S
C353 H357 0.950 . S
H354 C350 0.950 . S
C355 C353 1.390 . S
C355 C356 1.387 1_554 S
C355 H358 0.950 . S
C356 C355 1.387 1_556 S
C356 C359 1.387 . S
H357 C353 0.950 . S
H358 C355 0.950 . S
C359 C350 1.390 . S
C359 H352 0.950 . S
C359 C356 1.387 . S
C360 C361 1.387 . S
C360 H364 0.950 . S
C360 C369 1.390 . S
C361 C360 1.387 . S
C361 C363 1.387 . S
H362 C369 0.950 . S
C363 C361 1.387 . S
C363 C365 1.390 . S
C363 H367 0.950 . S
H364 C360 0.950 . S
C365 C363 1.390 . S
C365 C366 1.387 . S
C365 H368 0.950 . S
C366 C365 1.387 . S
C366 C369 1.387 . S
H367 C363 0.950 . S
H368 C365 0.950 . S
C369 C360 1.390 . S
C369 H362 0.950 . S
C369 C366 1.387 . S
C370 C371 1.387 . S
C370 H374 0.950 . S
C370 C379 1.390 . S
C371 C370 1.387 . S
C371 C373 1.387 . S
H372 C379 0.950 . S
C373 C371 1.387 . S
C373 C375 1.390 . S
C373 H377 0.950 . S
H374 C370 0.950 . S
C375 C373 1.390 . S
C375 C376 1.387 . S
C375 H378 0.950 . S
C376 C375 1.387 . S
C376 C379 1.387 . S
H377 C373 0.950 . S
H378 C375 0.950 . S
C379 C370 1.390 . S
C379 H372 0.950 . S
C379 C376 1.387 . S
C380 C381 1.387 . S
C380 H384 0.950 . S
C380 C389 1.390 . S
C381 C380 1.387 . S
C381 C383 1.387 . S
H382 C389 0.950 . S
C383 C381 1.387 . S
C383 C385 1.390 . S
C383 H387 0.950 . S
H384 C380 0.950 . S
C385 C383 1.390 . S
C385 C386 1.387 . S
C385 H388 0.950 . S
C386 C385 1.387 . S
C386 C389 1.387 . S
H387 C383 0.950 . S
H388 C385 0.950 . S
C389 C380 1.390 . S
C389 H382 0.950 . S
C389 C386 1.387 . S
C390 C391 1.387 . S
C390 H394 0.950 . S
C390 C399 1.390 . S
C391 C390 1.387 . S
C391 C393 1.387 . S
H392 C399 0.950 . S
C393 C391 1.387 . S
C393 C395 1.390 . S
C393 H397 0.950 . S
H394 C390 0.950 . S
C395 C393 1.390 . S
C395 C396 1.387 . S
C395 H398 0.950 . S
C396 C395 1.387 . S
C396 C399 1.387 . S
H397 C393 0.950 . S
H398 C395 0.950 . S
C399 C390 1.390 . S
C399 H392 0.950 . S
C399 C396 1.387 . S
C400 C401 1.387 . S
C400 H404 0.950 . S
C400 C409 1.390 . S
C401 C400 1.387 . S
C401 C403 1.387 . S
H402 C409 0.950 . S
C403 C401 1.387 . S
C403 C405 1.390 . S
C403 H407 0.950 . S
H404 C400 0.950 . S
C405 C403 1.390 . S
C405 C406 1.387 . S
C405 H408 0.950 . S
C406 C405 1.387 . S
C406 C409 1.387 . S
H407 C403 0.950 . S
H408 C405 0.950 . S
C409 C400 1.390 . S
C409 H402 0.950 . S
C409 C406 1.387 . S
C410 C411 1.387 . S
C410 H414 0.950 . S
C410 C419 1.390 . S
C411 C410 1.387 . S
C411 C413 1.387 . S
H412 C419 0.950 . S
C413 C411 1.387 . S
C413 C415 1.390 . S
C413 H417 0.950 . S
H414 C410 0.950 . S
C415 C413 1.390 . S
C415 C416 1.387 . S
C415 H418 0.950 . S
C416 C415 1.387 . S
C416 C419 1.387 . S
H417 C413 0.950 . S
H418 C415 0.950 . S
C419 C410 1.390 . S
C419 H412 0.950 . S
C419 C416 1.387 . S
C241 C210 3.699 . S
C246 C6 3.565 . S
C251 C10 3.778 . S
C256 C46 3.463 . S
C261 C50 3.261 . S
C266 C90 3.243 1_545 S
C271 C126 2.364 . S
C276 C86 2.165 . S
C281 C166 3.070 . S
C286 C130 3.646 . S
C291 C170 2.964 . S
C296 C206 2.816 . S
C301 C179 2.602 . S
C306 C15 2.497 . S
C311 C219 3.124 . S
C316 C55 3.085 . S
C321 C99 3.687 . S
C326 C19 3.710 . S
C331 C135 1.911 . S
C336 C59 2.083 1_556 S
C341 C175 0.769 . S
C346 C95 0.768 . S
C351 C139 1.150 . S
C356 C215 1.185 . S
C361 C9 0.843 . S
C366 C18 0.843 . S
C371 C49 0.949 . S
C376 C58 0.949 . S
C381 C98 0.964 . S
C386 C89 0.964 . S
C391 C129 0.791 . S
C396 C138 0.791 . S
C401 C178 1.015 . S
C406 C169 1.015 . S
C411 C209 0.968 . S
C416 C218 0.968 . S
