# Generated by pormake.
# Topology zfm, (5)-cn, num edge types: 1
# Building blocks:
#     Node 0, Type 0, BuildingBlock: BEQFEK_clean_sbu_0, # of connection points: 5
#     Node 1, Type 0, BuildingBlock: BEQFEK_clean_sbu_0, # of connection points: 5
#     Node 2, Type 0, BuildingBlock: BEQFEK_clean_sbu_0, # of connection points: 5
#     Node 3, Type 0, BuildingBlock: BEQFEK_clean_sbu_0, # of connection points: 5
#     Node 4, Type 0, BuildingBlock: BEQFEK_clean_sbu_0, # of connection points: 5
#     Node 5, Type 0, BuildingBlock: BEQFEK_clean_sbu_0, # of connection points: 5
#     Node 6, Type 0, BuildingBlock: BEQFEK_clean_sbu_0, # of connection points: 5
#     Node 7, Type 0, BuildingBlock: BEQFEK_clean_sbu_0, # of connection points: 5
#     Node 8, Type 0, BuildingBlock: BEQFEK_clean_sbu_0, # of connection points: 5
#     Node 9, Type 0, BuildingBlock: BEQFEK_clean_sbu_0, # of connection points: 5
#     Node 10, Type 0, BuildingBlock: BEQFEK_clean_sbu_0, # of connection points: 5
#     Node 11, Type 0, BuildingBlock: BEQFEK_clean_sbu_0, # of connection points: 5
#     Node 12, Type 0, BuildingBlock: BEQFEK_clean_sbu_0, # of connection points: 5
#     Node 13, Type 0, BuildingBlock: BEQFEK_clean_sbu_0, # of connection points: 5
#     Node 14, Type 0, BuildingBlock: BEQFEK_clean_sbu_0, # of connection points: 5
#     Node 15, Type 0, BuildingBlock: BEQFEK_clean_sbu_0, # of connection points: 5
#     Edge 16, Type (0, 0), BuildingBlock: XUDNAN_clean_linker_2, # of connection points: 2
#     Edge 17, Type (0, 0), BuildingBlock: XUDNAN_clean_linker_2, # of connection points: 2
#     Edge 18, Type (0, 0), BuildingBlock: XUDNAN_clean_linker_2, # of connection points: 2
#     Edge 19, Type (0, 0), BuildingBlock: XUDNAN_clean_linker_2, # of connection points: 2
#     Edge 20, Type (0, 0), BuildingBlock: XUDNAN_clean_linker_2, # of connection points: 2
#     Edge 21, Type (0, 0), BuildingBlock: XUDNAN_clean_linker_2, # of connection points: 2
#     Edge 22, Type (0, 0), BuildingBlock: XUDNAN_clean_linker_2, # of connection points: 2
#     Edge 23, Type (0, 0), BuildingBlock: XUDNAN_clean_linker_2, # of connection points: 2
#     Edge 24, Type (0, 0), BuildingBlock: XUDNAN_clean_linker_2, # of connection points: 2
#     Edge 25, Type (0, 0), BuildingBlock: XUDNAN_clean_linker_2, # of connection points: 2
#     Edge 26, Type (0, 0), BuildingBlock: XUDNAN_clean_linker_2, # of connection points: 2
#     Edge 27, Type (0, 0), BuildingBlock: XUDNAN_clean_linker_2, # of connection points: 2
#     Edge 28, Type (0, 0), BuildingBlock: XUDNAN_clean_linker_2, # of connection points: 2
#     Edge 29, Type (0, 0), BuildingBlock: XUDNAN_clean_linker_2, # of connection points: 2
#     Edge 30, Type (0, 0), BuildingBlock: XUDNAN_clean_linker_2, # of connection points: 2
#     Edge 31, Type (0, 0), BuildingBlock: XUDNAN_clean_linker_2, # of connection points: 2
#     Edge 32, Type (0, 0), BuildingBlock: XUDNAN_clean_linker_2, # of connection points: 2
#     Edge 33, Type (0, 0), BuildingBlock: XUDNAN_clean_linker_2, # of connection points: 2
#     Edge 34, Type (0, 0), BuildingBlock: XUDNAN_clean_linker_2, # of connection points: 2
#     Edge 35, Type (0, 0), BuildingBlock: XUDNAN_clean_linker_2, # of connection points: 2
#     Edge 36, Type (0, 0), BuildingBlock: XUDNAN_clean_linker_2, # of connection points: 2
#     Edge 37, Type (0, 0), BuildingBlock: XUDNAN_clean_linker_2, # of connection points: 2
#     Edge 38, Type (0, 0), BuildingBlock: XUDNAN_clean_linker_2, # of connection points: 2
#     Edge 39, Type (0, 0), BuildingBlock: XUDNAN_clean_linker_2, # of connection points: 2
#     Edge 40, Type (0, 0), BuildingBlock: XUDNAN_clean_linker_2, # of connection points: 2
#     Edge 41, Type (0, 0), BuildingBlock: XUDNAN_clean_linker_2, # of connection points: 2
#     Edge 42, Type (0, 0), BuildingBlock: XUDNAN_clean_linker_2, # of connection points: 2
#     Edge 43, Type (0, 0), BuildingBlock: XUDNAN_clean_linker_2, # of connection points: 2
#     Edge 44, Type (0, 0), BuildingBlock: XUDNAN_clean_linker_2, # of connection points: 2
#     Edge 45, Type (0, 0), BuildingBlock: XUDNAN_clean_linker_2, # of connection points: 2
#     Edge 46, Type (0, 0), BuildingBlock: XUDNAN_clean_linker_2, # of connection points: 2
#     Edge 47, Type (0, 0), BuildingBlock: XUDNAN_clean_linker_2, # of connection points: 2
#     Edge 48, Type (0, 0), BuildingBlock: XUDNAN_clean_linker_2, # of connection points: 2
#     Edge 49, Type (0, 0), BuildingBlock: XUDNAN_clean_linker_2, # of connection points: 2
#     Edge 50, Type (0, 0), BuildingBlock: XUDNAN_clean_linker_2, # of connection points: 2
#     Edge 51, Type (0, 0), BuildingBlock: XUDNAN_clean_linker_2, # of connection points: 2
#     Edge 52, Type (0, 0), BuildingBlock: XUDNAN_clean_linker_2, # of connection points: 2
#     Edge 53, Type (0, 0), BuildingBlock: XUDNAN_clean_linker_2, # of connection points: 2
#     Edge 54, Type (0, 0), BuildingBlock: XUDNAN_clean_linker_2, # of connection points: 2
#     Edge 55, Type (0, 0), BuildingBlock: XUDNAN_clean_linker_2, # of connection points: 2
# Relax obj value: 0.135
# Max RMSD: 0.194
# Mean RMSD: 0.194
data_MOF--net-zfm--node1-BEQFEK_clean_sbu_0--edge1-XUDNAN_clean_linker_2
_symmetry_space_group_name_H-M    P1
_symmetry_Int_Tables_number       1
_symmetry_cell_setting            triclinic
loop_
_symmetry_equiv_pos_as_xyz
'x, y, z'
_cell_length_a     28.516779
_cell_length_b     28.53055
_cell_length_c     76.201316
_cell_angle_alpha  89.889616
_cell_angle_beta   90.043928
_cell_angle_gamma 89.900895
loop_
_atom_site_label
_atom_site_type_symbol
_atom_site_fract_x
_atom_site_fract_y
_atom_site_fract_z
_atom_type_partial_charge
Co0 Co 0.45087 0.06108 0.15776 0.0
Co1 Co 0.43715 0.07499 0.117 0.0
C2 C 0.39758 0.99208 0.13749 0.0
O3 O 0.41531 0.00465 0.15205 0.0
O4 O 0.40415 0.01554 0.12346 0.0
C5 C 0.44555 0.03948 0.19479 0.0
O6 O 0.40844 0.01512 0.19024 0.0
C7 C 0.46633 0.0448 0.08227 0.0
C8 C 0.4366 0.0984 0.06452 0.0
C9 C 0.46404 0.05818 0.06473 0.0
N10 N 0.44229 0.07601 0.09192 0.0
N11 N 0.42431 0.10787 0.08124 0.0
C12 C 0.48954 0.00224 0.08989 0.0
H13 H 0.47273 0.99227 0.10246 0.0
H14 H 0.52688 0.01011 0.09267 0.0
H15 H 0.48785 0.97245 0.08057 0.0
C16 C 0.55058 0.06842 0.14694 0.0
N17 N 0.50436 0.06784 0.14334 0.0
N18 N 0.49778 0.08033 0.12696 0.0
C19 C 0.53901 0.09347 0.11997 0.0
C20 C 0.57474 0.08522 0.1322 0.0
C21 C 0.57036 0.04976 0.16377 0.0
H22 H 0.54513 0.02544 0.17006 0.0
H23 H 0.60366 0.03064 0.16139 0.0
H24 H 0.57698 0.07927 0.1729 0.0
O25 O 0.40617 0.11459 0.1544 0.0
O26 O 0.39675 0.12575 0.12568 0.0
H27 H 0.50919 0.13912 0.10043 0.0
H28 H 0.57163 0.14559 0.10341 0.0
C29 C 0.54239 0.11999 0.10301 0.0
H30 H 0.54842 0.09528 0.09204 0.0
H31 H 0.40407 0.1363 0.08537 0.0
O32 O 0.46888 0.06082 0.18301 0.0
C33 C 0.38713 0.13622 0.14154 0.0
Co34 Co 0.41808 0.43444 0.65469 0.0
Co35 Co 0.4187 0.43433 0.61307 0.0
C36 C 0.49225 0.38467 0.63371 0.0
O37 O 0.47368 0.39763 0.64806 0.0
O38 O 0.47522 0.39699 0.61898 0.0
C39 C 0.42568 0.40123 0.68872 0.0
O40 O 0.42712 0.36266 0.67933 0.0
C41 C 0.45692 0.45283 0.57792 0.0
C42 C 0.39314 0.4629 0.56189 0.0
C43 C 0.44166 0.46442 0.56114 0.0
N44 N 0.41918 0.44585 0.58819 0.0
N45 N 0.38116 0.45134 0.57845 0.0
C46 C 0.50639 0.44686 0.58416 0.0
H47 H 0.51245 0.4692 0.59585 0.0
H48 H 0.53246 0.45498 0.57384 0.0
H49 H 0.51162 0.40989 0.58823 0.0
C50 C 0.40822 0.53582 0.6489 0.0
N51 N 0.41483 0.49207 0.64287 0.0
N52 N 0.41699 0.49277 0.62561 0.0
C53 C 0.41372 0.53769 0.62014 0.0
C54 C 0.40737 0.56652 0.63471 0.0
C55 C 0.39908 0.54693 0.66779 0.0
H56 H 0.37807 0.51855 0.67387 0.0
H57 H 0.43302 0.54907 0.67487 0.0
H58 H 0.38003 0.58064 0.66924 0.0
O59 O 0.36325 0.39762 0.64837 0.0
O60 O 0.36247 0.39442 0.61916 0.0
H61 H 0.38838 0.5437 0.5938 0.0
H62 H 0.42712 0.5908 0.60029 0.0
C63 C 0.42018 0.55274 0.60146 0.0
H64 H 0.45049 0.534 0.59576 0.0
H65 H 0.347 0.44836 0.58323 0.0
O66 O 0.42058 0.44022 0.68079 0.0
C67 C 0.34509 0.38346 0.63407 0.0
Co68 Co 0.05331 0.42441 0.15584 0.0
Co69 Co 0.0595 0.39748 0.11569 0.0
C70 C 0.10536 0.48447 0.13165 0.0
O71 O 0.09037 0.47846 0.1472 0.0
O72 O 0.09507 0.45578 0.11951 0.0
C73 C 0.04486 0.47244 0.18897 0.0
O74 O 0.0519 0.50965 0.17915 0.0
C75 C 0.03742 0.43096 0.08094 0.0
C76 C 0.05933 0.37403 0.06318 0.0
C77 C 0.04139 0.41937 0.06323 0.0
N78 N 0.05276 0.39473 0.09067 0.0
N79 N 0.06574 0.36065 0.08002 0.0
C80 C 0.01756 0.47467 0.0889 0.0
H81 H 0.00567 0.46804 0.10251 0.0
H82 H 0.98764 0.48799 0.081 0.0
H83 H 0.04524 0.50188 0.08951 0.0
C84 C 0.95052 0.42342 0.14607 0.0
N85 N 0.9965 0.41628 0.14271 0.0
N86 N 0.00054 0.39904 0.1268 0.0
C87 C 0.95782 0.39157 0.12 0.0
C88 C 0.92414 0.40821 0.13166 0.0
C89 C 0.93304 0.44831 0.16205 0.0
H90 H 0.92084 0.42206 0.17178 0.0
H91 H 0.96148 0.46929 0.16805 0.0
H92 H 0.90325 0.47176 0.15869 0.0
O93 O 0.09559 0.36812 0.15334 0.0
O94 O 0.09825 0.34697 0.12523 0.0
H95 H 0.97831 0.33975 0.10107 0.0
H96 H 0.91559 0.34774 0.10316 0.0
C97 C 0.94998 0.36589 0.1031 0.0
H98 H 0.95081 0.39092 0.09197 0.0
H99 H 0.07975 0.32871 0.0842 0.0
O100 O 0.04191 0.43247 0.18165 0.0
C101 C 0.1108 0.34135 0.14115 0.0
Co102 Co 0.06111 0.05697 0.65843 0.0
Co103 Co 0.06827 0.05399 0.61699 0.0
C104 C 0.98907 0.1024 0.63555 0.0
O105 O 0.00186 0.08921 0.65084 0.0
O106 O 0.01205 0.0907 0.62198 0.0
C107 C 0.05941 0.07738 0.69623 0.0
O108 O 0.06138 0.12171 0.69159 0.0
C109 C 0.03306 0.04321 0.58112 0.0
C110 C 0.09733 0.03079 0.56566 0.0
C111 C 0.04909 0.03559 0.56414 0.0
N112 N 0.07004 0.04351 0.59209 0.0
N113 N 0.10839 0.03601 0.58277 0.0
C114 C 0.98314 0.0457 0.58716 0.0
H115 H 0.97971 0.02979 0.60039 0.0
H116 H 0.95947 0.02709 0.57796 0.0
H117 H 0.97221 0.08298 0.58797 0.0
C118 C 0.0821 0.95704 0.6536 0.0
N119 N 0.07243 -0.00054 0.64687 0.0
N120 N 0.06828 0.99632 0.6298 0.0
C121 C 0.06973 0.95061 0.62523 0.0
C122 C 0.07915 0.92336 0.64025 0.0
C123 C 0.10063 0.95133 0.6719 0.0
H124 H 0.11901 0.98372 0.67604 0.0
H125 H 0.07102 0.94537 0.68106 0.0
H126 H 0.1259 0.9218 0.67275 0.0
O127 O 0.11131 0.10051 0.65294 0.0
O128 O 0.12141 0.09719 0.62399 0.0
H129 H 0.09003 0.92634 0.59977 0.0
H130 H 0.03537 0.90203 0.60785 0.0
C131 C 0.05745 0.93396 0.6072 0.0
H132 H 0.03731 0.96101 0.60005 0.0
H133 H 0.14211 0.03446 0.58808 0.0
O134 O 0.05855 0.04595 0.68439 0.0
C135 C 0.13197 0.11408 0.63903 0.0
Co136 Co 0.44244 0.42004 0.85466 0.0
Co137 Co 0.44719 0.44549 0.89509 0.0
C138 C 0.39914 0.50841 0.87001 0.0
O139 O 0.40806 0.48021 0.85749 0.0
O140 O 0.41474 0.50113 0.88545 0.0
C141 C 0.44374 0.43745 0.81708 0.0
O142 O 0.43388 0.48083 0.82149 0.0
C143 C 0.46429 0.49252 0.92917 0.0
C144 C 0.46662 0.43196 0.94725 0.0
C145 C 0.46972 0.48045 0.94682 0.0
N146 N 0.45805 0.45302 0.91981 0.0
N147 N 0.45944 0.41702 0.93072 0.0
C148 C 0.46831 0.54002 0.92095 0.0
H149 H 0.47969 0.53689 0.90708 0.0
H150 H 0.49372 0.56204 0.92826 0.0
H151 H 0.43347 0.55739 0.92114 0.0
C152 C 0.54447 0.40688 0.86078 0.0
N153 N 0.50135 0.41936 0.86631 0.0
N154 N 0.50356 0.43134 0.88296 0.0
C155 C 0.54833 0.42775 0.88847 0.0
C156 C 0.57582 0.41155 0.87467 0.0
C157 C 0.5545 0.38813 0.84284 0.0
H158 H 0.52627 0.36367 0.83885 0.0
H159 H 0.55494 0.41765 0.83334 0.0
H160 H 0.58869 0.36956 0.84238 0.0
O161 O 0.40026 0.37221 0.86468 0.0
O162 O 0.40162 0.39336 0.89273 0.0
H163 H 0.55518 0.4146 0.91598 0.0
H164 H 0.60301 0.44807 0.90674 0.0
C165 C 0.5646 0.44221 0.90634 0.0
H166 H 0.54688 0.47516 0.9102 0.0
H167 H 0.45548 0.38216 0.92687 0.0
O168 O 0.44951 0.4068 0.82906 0.0
C169 C 0.38586 0.36762 0.88041 0.0
Co170 Co 0.07614 0.44899 0.35452 0.0
Co171 Co 0.0867 0.43248 0.39536 0.0
C172 C 0.00642 0.39299 0.37375 0.0
O173 O 0.02064 0.41103 0.35946 0.0
O174 O 0.02809 0.39937 0.38817 0.0
C175 C 0.06706 0.43873 0.31737 0.0
O176 O 0.06367 0.39426 0.32169 0.0
C177 C 0.05385 0.45752 0.43026 0.0
C178 C 0.10944 0.43101 0.44785 0.0
C179 C 0.06765 0.45598 0.44775 0.0
N180 N 0.08641 0.4356 0.4205 0.0
N181 N 0.11936 0.41936 0.4311 0.0
C182 C 0.01012 0.47882 0.42277 0.0
H183 H 0.01663 0.51613 0.41948 0.0
H184 H 0.98092 0.47697 0.43237 0.0
H185 H -9e-05 0.46075 0.4105 0.0
C186 C 0.07774 0.54827 0.36689 0.0
N187 N 0.07999 0.50164 0.36967 0.0
N188 N 0.09116 0.4939 0.38612 0.0
C189 C 0.10059 0.53496 0.39399 0.0
C190 C 0.09093 0.57145 0.38231 0.0
C191 C 0.05959 0.56932 0.3502 0.0
H192 H 0.03779 0.54359 0.343 0.0
H193 H 0.03807 0.6009 0.35293 0.0
H194 H 0.0896 0.57941 0.34174 0.0
O195 O 0.13093 0.40546 0.35779 0.0
O196 O 0.13869 0.39387 0.38659 0.0
H197 H 0.14808 0.56976 0.41178 0.0
H198 H 0.0992 0.54098 0.4221 0.0
C199 C 0.12518 0.53836 0.41135 0.0
H200 H 0.14691 0.50664 0.41363 0.0
H201 H 0.14908 0.4012 0.42689 0.0
O202 O 0.07329 0.46892 0.32942 0.0
C203 C 0.15129 0.38574 0.37083 0.0
Co204 Co 0.06607 0.08726 0.85935 0.0
Co205 Co 0.05045 0.09504 0.90054 0.0
C206 C 0.10935 0.01876 0.8838 0.0
O207 O 0.10206 0.03205 0.86808 0.0
O208 O 0.09101 0.04031 0.89668 0.0
C209 C 0.06658 0.04529 0.82524 0.0
O210 O 0.0692 0.00708 0.83484 0.0
C211 C 0.01384 0.05789 0.93382 0.0
C212 C 0.02619 0.11643 0.95215 0.0
C213 C 0.00897 0.07105 0.9513 0.0
N214 N 0.03258 0.09393 0.92482 0.0
N215 N 0.03978 0.12884 0.93586 0.0
C216 C 0.00382 0.01093 0.92592 0.0
H217 H 0.0217 0.00698 0.91312 0.0
H218 H 0.9656 0.00745 0.9236 0.0
H219 H 0.01496 0.98252 0.93499 0.0
C220 C 0.961 0.08603 0.86109 0.0
N221 N 0.0037 0.08864 0.86869 0.0
N222 N 0.9981 0.09528 0.88565 0.0
C223 C 0.95221 0.09945 0.88927 0.0
C224 C 0.9269 0.09277 0.87395 0.0
C225 C 0.95354 0.07368 0.84222 0.0
H226 H 0.9757 0.04309 0.83882 0.0
H227 H 0.91648 0.06489 0.83937 0.0
H228 H 0.96458 0.10356 0.83386 0.0
O229 O 0.10272 0.14423 0.86698 0.0
O230 O 0.08898 0.14981 0.8957 0.0
H231 H 0.89833 0.13064 0.90543 0.0
H232 H 0.92909 0.08204 0.9152 0.0
C233 C 0.93313 0.11352 0.90681 0.0
H234 H 0.9575 0.13817 0.91335 0.0
H235 H 0.05467 0.16089 0.93234 0.0
O236 O 0.06443 0.08481 0.83294 0.0
C237 C 0.10867 0.16463 0.88176 0.0
Co238 Co 0.43373 0.04755 0.35755 0.0
Co239 Co 0.417 0.05887 0.39841 0.0
C240 C 0.5 0.10148 0.37921 0.0
O241 O 0.48889 0.08294 0.36468 0.0
O242 O 0.47578 0.09468 0.39302 0.0
C243 C 0.4566 0.06872 0.32295 0.0
O244 O 0.46679 0.10795 0.33108 0.0
C245 C 0.44685 0.02819 0.43319 0.0
C246 C 0.39145 0.05454 0.45082 0.0
C247 C 0.43281 0.02879 0.45069 0.0
N248 N 0.41498 0.05156 0.42351 0.0
N249 N 0.38202 0.06747 0.43413 0.0
C250 C 0.49057 0.00727 0.42563 0.0
H251 H 0.48449 0.96968 0.42274 0.0
H252 H 0.52016 0.01019 0.43503 0.0
H253 H 0.49986 0.02481 0.41312 0.0
C254 C 0.42689 0.94704 0.36744 0.0
N255 N 0.42667 0.99304 0.37134 0.0
N256 N 0.41382 -0.00142 0.38774 0.0
C257 C 0.40121 0.95677 0.39439 0.0
C258 C 0.41032 0.92184 0.38197 0.0
C259 C 0.44592 0.92853 0.35051 0.0
H260 H 0.46928 0.95476 0.34429 0.0
H261 H 0.46611 0.89576 0.35274 0.0
H262 H 0.41646 0.92129 0.34139 0.0
O263 O 0.37938 0.091 0.36078 0.0
O264 O 0.36559 0.0988 0.38942 0.0
H265 H 0.34925 0.92226 0.41048 0.0
H266 H 0.39861 0.94621 0.42227 0.0
C267 C 0.37414 0.95206 0.41117 0.0
H268 H 0.35406 0.98464 0.41377 0.0
H269 H 0.35295 0.08684 0.43 0.0
O270 O 0.43986 0.03476 0.33181 0.0
C271 C 0.35632 0.10901 0.37347 0.0
Co272 Co 0.55315 0.9057 0.85842 0.0
Co273 Co 0.56268 0.89888 0.89981 0.0
C274 C 0.61069 0.97389 0.87865 0.0
O275 O 0.59383 0.95898 0.86428 0.0
O276 O 0.6012 0.95414 0.89322 0.0
C277 C 0.5408 0.94977 0.82494 0.0
O278 O 0.54588 0.98763 0.83454 0.0
C279 C 0.54855 0.92837 0.93674 0.0
C280 C 0.57352 0.86556 0.95095 0.0
C281 C 0.55644 0.91052 0.95348 0.0
N282 N 0.56032 0.89532 0.92493 0.0
N283 N 0.5749 0.8578 0.93356 0.0
C284 C 0.53318 0.9769 0.93198 0.0
H285 H 0.55169 0.00297 0.94026 0.0
H286 H 0.53982 0.98408 0.91789 0.0
H287 H 0.49503 0.98048 0.93447 0.0
C288 C 0.45128 0.91284 0.86923 0.0
N289 N 0.49745 0.90731 0.87268 0.0
N290 N 0.50253 0.89937 0.88958 0.0
C291 C 0.46026 0.89509 0.89711 0.0
C292 C 0.42574 0.90519 0.88469 0.0
C293 C 0.43293 0.92908 0.85186 0.0
H294 H 0.4207 0.89838 0.84421 0.0
H295 H 0.46079 0.94697 0.84435 0.0
H296 H 0.40329 0.95387 0.85361 0.0
O297 O 0.59155 0.84671 0.86261 0.0
O298 O 0.59553 0.84384 0.89174 0.0
H299 H 0.48188 0.84944 0.91807 0.0
H300 H 0.41939 0.8571 0.91637 0.0
C301 C 0.45369 0.87513 0.91516 0.0
H302 H 0.45564 0.90359 0.92501 0.0
H303 H 0.58684 0.82719 0.92755 0.0
O304 O 0.54019 0.90994 0.83253 0.0
C305 C 0.60527 0.82694 0.87679 0.0
Co306 Co 0.56168 0.55747 0.35314 0.0
Co307 Co 0.5787 0.55882 0.39431 0.0
C308 C 0.49322 0.60238 0.37809 0.0
O309 O 0.50521 0.59117 0.36251 0.0
O310 O 0.51818 0.59084 0.39129 0.0
C311 C 0.51544 0.54209 0.3196 0.0
O312 O 0.47695 0.54047 0.32904 0.0
C313 C 0.56206 0.54675 0.43245 0.0
C314 C 0.6344 0.53967 0.44252 0.0
C315 C 0.58788 0.54 0.44773 0.0
N316 N 0.592 0.5497 0.41883 0.0
N317 N 0.63516 0.5454 0.42497 0.0
C318 C 0.51039 0.55465 0.43079 0.0
H319 H 0.49683 0.53633 0.41901 0.0
H320 H 0.49082 0.5432 0.44257 0.0
H321 H 0.5043 0.59273 0.42904 0.0
C322 C 0.57997 0.45593 0.35934 0.0
N323 N 0.57454 0.50025 0.3651 0.0
N324 N 0.57903 0.50075 0.38228 0.0
C325 C 0.58514 0.45658 0.38811 0.0
C326 C 0.58689 0.42654 0.37376 0.0
C327 C 0.58098 0.44285 0.34033 0.0
H328 H 0.59924 0.47042 0.33269 0.0
H329 H 0.54448 0.44026 0.33538 0.0
H330 H 0.59916 0.40889 0.33827 0.0
O331 O 0.61455 0.60059 0.35612 0.0
O332 O 0.62734 0.60224 0.38488 0.0
H333 H 0.61846 0.45015 0.41317 0.0
H334 H 0.57453 0.40586 0.40903 0.0
C335 C 0.58376 0.44324 0.40713 0.0
H336 H 0.55699 0.46455 0.41397 0.0
H337 H 0.6652 0.54653 0.41717 0.0
O338 O 0.5546 0.54795 0.32728 0.0
C339 C 0.63691 0.616 0.36936 0.0
Co340 Co 0.94005 0.56864 0.85295 0.0
Co341 Co 0.94938 0.55628 0.89393 0.0
C342 C 0.90021 0.48534 0.87399 0.0
O343 O 0.90649 0.51091 0.86045 0.0
O344 O 0.91905 0.49568 0.88865 0.0
C345 C 0.95625 0.5278 0.81986 0.0
O346 O 0.9658 0.49152 0.8299 0.0
C347 C 0.96025 0.53657 0.93258 0.0
C348 C 0.99235 0.60354 0.94064 0.0
C349 C 0.97841 0.56031 0.9471 0.0
N350 N 0.96439 0.56448 0.91833 0.0
N351 N 0.9831 0.60454 0.92338 0.0
C352 C 0.93632 0.48997 0.93234 0.0
H353 H 0.91044 0.4885 0.92151 0.0
H354 H 0.96284 0.46204 0.93024 0.0
H355 H 0.91794 0.48338 0.94493 0.0
C356 C 0.04243 0.58393 0.85652 0.0
N357 N -1e-05 0.57385 0.86332 0.0
N358 N 0.00432 0.56602 0.88025 0.0
C359 C 0.04995 0.5696 0.88469 0.0
C360 C 0.07554 0.58192 0.86988 0.0
C361 C 0.05056 0.59707 0.83775 0.0
H362 H 0.02024 0.61735 0.83265 0.0
H363 H 0.05405 0.56464 0.82984 0.0
H364 H 0.08307 0.61804 0.83628 0.0
O365 O 0.89839 0.62033 0.86002 0.0
O366 O 0.90043 0.60415 0.88854 0.0
H367 H 0.07124 0.58948 0.91053 0.0
H368 H 0.10544 0.54292 0.90118 0.0
C369 C 0.06943 0.55739 0.90237 0.0
H370 H 0.04683 0.53122 0.909 0.0
H371 H 0.98996 0.63254 0.91494 0.0
O372 O 0.94483 0.56637 0.82702 0.0
C373 C 0.88343 0.62686 0.87556 0.0
Co374 Co 0.93109 0.93772 0.35732 0.0
Co375 Co 0.90863 0.94029 0.39786 0.0
C376 C 0.99324 0.89036 0.38364 0.0
O377 O 0.9845 0.9019 0.36779 0.0
O378 O 0.96697 0.9038 0.39617 0.0
C379 C 0.981 0.94688 0.32426 0.0
O380 O 0.01918 0.94299 0.33381 0.0
C381 C 0.92493 0.95913 0.43548 0.0
C382 C 0.85252 0.96822 0.44517 0.0
C383 C 0.89907 0.97002 0.4504 0.0
N384 N 0.89495 0.95162 0.42211 0.0
N385 N 0.85174 0.95647 0.42808 0.0
C386 C 0.97708 0.9611 0.43335 0.0
H387 H 0.98647 0.96803 0.41947 0.0
H388 H 0.99235 0.98881 0.4418 0.0
H389 H 0.99237 0.92687 0.43728 0.0
C390 C 0.91731 0.03986 0.36154 0.0
N391 N 0.92015 0.99623 0.36822 0.0
N392 N 0.91298 0.99785 0.38525 0.0
C393 C 0.90743 0.04296 0.3901 0.0
C394 C 0.90941 0.07123 0.37519 0.0
C395 C 0.91853 0.05038 0.34228 0.0
H396 H 0.89823 0.02354 0.33503 0.0
H397 H 0.95537 0.04903 0.33762 0.0
H398 H 0.90344 0.08536 0.33929 0.0
O399 O 0.87536 0.8985 0.35973 0.0
O400 O 0.85784 0.8995 0.38814 0.0
H401 H 0.86905 0.05054 0.41405 0.0
H402 H 0.91161 0.09652 0.41031 0.0
C403 C 0.90442 0.05861 0.40882 0.0
H404 H 0.9307 0.03945 0.41672 0.0
H405 H 0.82173 0.95317 0.42033 0.0
O406 O 0.9412 0.94577 0.33173 0.0
C407 C 0.8498 0.88559 0.37252 0.0
Co408 Co 0.54968 0.57484 0.15434 0.0
Co409 Co 0.5588 0.60733 0.11478 0.0
C410 C 0.60509 0.51898 0.1292 0.0
O411 O 0.58934 0.52385 0.14474 0.0
O412 O 0.59453 0.54795 0.11704 0.0
C413 C 0.56101 0.5602 0.19169 0.0
O414 O 0.60547 0.56809 0.18828 0.0
C415 C 0.54175 0.59542 0.07696 0.0
C416 C 0.55477 0.66665 0.0667 0.0
C417 C 0.54116 0.62202 0.06163 0.0
N418 N 0.55492 0.62314 0.09035 0.0
N419 N 0.56313 0.66554 0.08409 0.0
C420 C 0.52621 0.54575 0.0793 0.0
H421 H 0.51619 0.53918 0.09317 0.0
H422 H 0.49619 0.53783 0.07052 0.0
H423 H 0.55565 0.52195 0.07593 0.0
C424 C 0.44862 0.57672 0.14385 0.0
N425 N 0.49449 0.58409 0.14053 0.0
N426 N 0.49868 0.60265 0.12483 0.0
C427 C 0.45582 0.61073 0.1181 0.0
C428 C 0.4222 0.59358 0.12971 0.0
C429 C 0.43141 0.54991 0.15947 0.0
H430 H 0.45908 0.52581 0.16434 0.0
H431 H 0.39981 0.52909 0.15615 0.0
H432 H 0.42243 0.57487 0.17011 0.0
O433 O 0.59061 0.63212 0.1547 0.0
O434 O 0.59585 0.65483 0.12684 0.0
H435 H 0.41277 0.65554 0.10178 0.0
H436 H 0.44927 0.61425 0.09014 0.0
C437 C 0.44758 0.6381 0.10159 0.0
H438 H 0.47502 0.66526 0.10006 0.0
H439 H 0.57341 0.694 0.09175 0.0
O440 O 0.53159 0.56071 0.17913 0.0
C441 C 0.60669 0.65969 0.14294 0.0
Co442 Co 0.93265 0.54457 0.65458 0.0
Co443 Co 0.92397 0.56011 0.61382 0.0
C444 C 0.00439 0.5993 0.63495 0.0
O445 O 0.98861 0.57989 0.64875 0.0
O446 O 0.98367 0.59428 0.62021 0.0
C447 C 0.93688 0.55708 0.69154 0.0
O448 O 0.93263 0.60143 0.68712 0.0
C449 C 0.94851 0.54603 0.57646 0.0
C450 C 0.88573 0.57493 0.56331 0.0
C451 C 0.92925 0.55512 0.56003 0.0
N452 N 0.91765 0.55975 0.58881 0.0
N453 N 0.88012 0.5767 0.58082 0.0
C454 C 0.99657 0.52779 0.58046 0.0
H455 H 0.00599 0.53465 0.59434 0.0
H456 H 0.9974 0.48939 0.57827 0.0
H457 H 0.02269 0.54414 0.57157 0.0
C458 C 0.91984 0.44702 0.64454 0.0
N459 N 0.92547 0.49222 0.64015 0.0
N460 N 0.91958 0.49757 0.62315 0.0
C461 C 0.90838 0.45542 0.6162 0.0
C462 C 0.90781 0.42206 0.62961 0.0
C463 C 0.92825 0.42822 0.66265 0.0
H464 H 0.95923 0.44565 0.6685 0.0
H465 H 0.93473 0.38989 0.66256 0.0
H466 H 0.8973 0.43593 0.67098 0.0
O467 O 0.87901 0.58753 0.65205 0.0
O468 O 0.87208 0.5995 0.62335 0.0
H469 H 0.87458 0.41501 0.59583 0.0
H470 H 0.92671 0.44615 0.58929 0.0
C471 C 0.89462 0.44802 0.59747 0.0
H472 H 0.87304 0.47789 0.59279 0.0
H473 H 0.85095 0.59028 0.58734 0.0
O474 O 0.9373 0.52614 0.67958 0.0
C475 C 0.85897 0.60735 0.63907 0.0
Co476 Co 0.94317 0.93912 0.15922 0.0
Co477 Co 0.93708 0.92103 0.1183 0.0
C478 C 0.89492 0.00652 0.13509 0.0
O479 O 0.9082 0.99576 0.15057 0.0
O480 O 0.90489 0.98061 0.12206 0.0
C481 C 0.93155 0.95298 0.19669 0.0
O482 O 0.8864 0.95232 0.19325 0.0
C483 C 0.948 0.9401 0.08008 0.0
C484 C 0.93493 0.86997 0.06892 0.0
C485 C 0.94459 0.91594 0.06429 0.0
N486 N 0.94106 0.90965 0.0934 0.0
N487 N 0.93349 0.86779 0.08657 0.0
C488 C 0.95546 0.99171 0.08237 0.0
H489 H 0.94859 0.00274 0.096 0.0
H490 H 0.99243 0.00049 0.07936 0.0
H491 H 0.93268 0.01162 0.07317 0.0
C492 C 0.04284 0.91821 0.15177 0.0
N493 N 0.99849 0.92516 0.14628 0.0
N494 N 0.99684 0.92051 0.12914 0.0
C495 C 0.04058 0.9129 0.12304 0.0
C496 C 0.07143 0.91081 0.13722 0.0
C497 C 0.05637 0.91441 0.17072 0.0
H498 H 0.02902 0.89484 0.17801 0.0
H499 H 0.05901 0.95009 0.1764 0.0
H500 H 0.09027 0.89583 0.17243 0.0
O501 O 0.89954 0.886 0.15779 0.0
O502 O 0.89518 0.8726 0.12905 0.0
H503 H 0.0432 0.8765 0.09855 0.0
H504 H 0.0902 0.91842 0.10152 0.0
C505 C 0.05257 0.91137 0.10393 0.0
H506 H 0.03209 0.93829 0.09685 0.0
H507 H 0.92638 0.83782 0.09397 0.0
O508 O 0.96064 0.94887 0.18417 0.0
C509 C 0.88294 0.86336 0.14481 0.0
Co510 Co 0.57171 0.93661 0.65924 0.0
Co511 Co 0.57699 0.92852 0.61778 0.0
C512 C 0.49789 0.88722 0.63768 0.0
O513 O 0.51554 0.90078 0.65216 0.0
O514 O 0.51692 0.89707 0.62303 0.0
C515 C 0.56239 0.92105 0.69644 0.0
O516 O 0.5651 0.87672 0.69191 0.0
C517 C 0.55127 0.93792 0.58023 0.0
C518 C 0.62062 0.93397 0.56742 0.0
C519 C 0.57317 0.93875 0.56395 0.0
N520 N 0.5844 0.93334 0.59275 0.0
N521 N 0.62574 0.93112 0.58496 0.0
C522 C 0.49972 0.93789 0.58391 0.0
H523 H 0.49236 0.95779 0.59611 0.0
H524 H 0.47932 0.95277 0.57284 0.0
H525 H 0.48815 0.90121 0.58606 0.0
C526 C 0.58788 0.03572 0.65063 0.0
N527 N 0.58083 0.99111 0.64568 0.0
N528 N 0.58037 0.98875 0.62845 0.0
C529 C 0.58505 0.03239 0.62185 0.0
C530 C 0.5904 0.06377 0.63571 0.0
C531 C 0.59513 0.05018 0.66932 0.0
H532 H 0.6162 0.02325 0.6763 0.0
H533 H 0.56058 0.05288 0.67594 0.0
H534 H 0.6135 0.08434 0.67022 0.0
O535 O 0.62475 0.89429 0.65608 0.0
O536 O 0.628 0.88607 0.62705 0.0
H537 H 0.61337 0.03468 0.59589 0.0
H538 H 0.57209 0.08133 0.6005 0.0
C539 C 0.58029 0.04382 0.60274 0.0
H540 H 0.55159 0.02285 0.59698 0.0
H541 H 0.65748 0.92718 0.59164 0.0
O542 O 0.56477 0.95243 0.68458 0.0
C543 C 0.64273 0.87583 0.64245 0.0
H544 H 0.40456 0.99723 0.22346 0.0
H545 H 0.51492 0.09426 0.20861 0.0
H546 H 0.53263 0.10787 0.23984 0.0
H547 H 0.36268 0.06056 0.25978 0.0
H548 H 0.35122 0.01 0.27333 0.0
H549 H 0.34919 0.00493 0.2498 0.0
H550 H 0.41052 0.93791 0.25102 0.0
H551 H 0.41265 0.94268 0.27459 0.0
H552 H 0.46578 0.94754 0.26192 0.0
H553 H 0.53365 0.11685 0.27226 0.0
H554 H 0.52066 0.11783 0.30421 0.0
H555 H 0.41201 0.01255 0.29866 0.0
C556 C 0.43286 0.02088 0.22676 0.0
C557 C 0.4583 0.04474 0.21354 0.0
C558 C 0.49495 0.07553 0.21846 0.0
C559 C 0.50532 0.08348 0.23618 0.0
C560 C 0.47913 0.05999 0.24886 0.0
C561 C 0.44397 0.02896 0.24442 0.0
C562 C 0.42022 0.00947 0.2607 0.0
C563 C 0.36772 0.02201 0.26091 0.0
C564 C 0.42776 0.95624 0.26214 0.0
C565 C 0.44678 0.03535 0.27494 0.0
C566 C 0.48064 0.06423 0.26776 0.0
C567 C 0.50777 0.09388 0.27807 0.0
C568 C 0.49998 0.0943 0.2962 0.0
C569 C 0.4656 0.065 0.30391 0.0
C570 C 0.43907 0.03469 0.29314 0.0
H571 H 0.42731 0.49289 0.78809 0.0
H572 H 0.46456 0.35102 0.80358 0.0
H573 H 0.46488 0.32722 0.77248 0.0
H574 H 0.34965 0.46138 0.75329 0.0
H575 H 0.36689 0.50885 0.73906 0.0
H576 H 0.37097 0.51545 0.76251 0.0
H577 H 0.45906 0.53617 0.75968 0.0
H578 H 0.45522 0.52979 0.73621 0.0
H579 H 0.49793 0.49642 0.74843 0.0
H580 H 0.45868 0.31795 0.74 0.0
H581 H 0.44849 0.32397 0.708 0.0
H582 H 0.41597 0.47211 0.71317 0.0
C583 C 0.43587 0.45688 0.78495 0.0
C584 C 0.4459 0.42381 0.79832 0.0
C585 C 0.45672 0.377 0.79361 0.0
C586 C 0.457 0.36313 0.77597 0.0
C587 C 0.44652 0.39645 0.76316 0.0
C588 C 0.43635 0.44241 0.76739 0.0
C589 C 0.42571 0.47105 0.75105 0.0
C590 C 0.37531 0.4903 0.75151 0.0
C591 C 0.46163 0.5107 0.74871 0.0
C592 C 0.43127 0.43391 0.73699 0.0
C593 C 0.44324 0.39116 0.74431 0.0
C594 C 0.4495 0.35126 0.7341 0.0
C595 C 0.4435 0.35508 0.71591 0.0
C596 C 0.43144 0.39853 0.70803 0.0
C597 C 0.42535 0.43846 0.71878 0.0
H598 H 0.05715 0.38244 0.28837 0.0
H599 H 0.06704 0.52826 0.30416 0.0
H600 H 0.05918 0.55266 0.27317 0.0
H601 H 0.12405 0.39353 0.24886 0.0
H602 H 0.08865 0.35271 0.23664 0.0
H603 H 0.09379 0.34687 0.2601 0.0
H604 H 0.00332 0.35024 0.26299 0.0
H605 H 0.9979 0.35629 0.23954 0.0
H606 H 0.97173 0.3993 0.25381 0.0
H607 H 0.05152 0.56115 0.24041 0.0
H608 H 0.04696 0.55323 0.20823 0.0
H609 H 0.04204 0.40178 0.2137 0.0
C610 C 0.05755 0.41954 0.28534 0.0
C611 C 0.06268 0.45345 0.29874 0.0
C612 C 0.06319 0.50161 0.29416 0.0
C613 C 0.05863 0.51583 0.27659 0.0
C614 C 0.05357 0.4815 0.26373 0.0
C615 C 0.05311 0.43434 0.26788 0.0
C616 C 0.04822 0.40449 0.25153 0.0
C617 C 0.09124 0.37253 0.24915 0.0
C618 C 0.00257 0.3759 0.252 0.0
C619 C 0.04628 0.44221 0.23751 0.0
C620 C 0.04922 0.48638 0.24485 0.0
C621 C 0.04907 0.52674 0.23453 0.0
C622 C 0.04643 0.52184 0.21624 0.0
C623 C 0.04403 0.4769 0.20838 0.0
C624 C 0.04349 0.43665 0.21926 0.0
H625 H 0.06294 0.11676 0.8006 0.0
H626 H 0.06646 0.96514 0.80578 0.0
H627 H 0.06393 0.95736 0.77364 0.0
H628 H 0.98372 0.12067 0.76342 0.0
H629 H 0.01318 0.16906 0.75295 0.0
H630 H 0.0147 0.16317 0.77649 0.0
H631 H 0.1055 0.16473 0.77583 0.0
H632 H 0.10426 0.17065 0.75229 0.0
H633 H 0.13663 0.1233 0.7623 0.0
H634 H 0.06134 0.96529 0.74105 0.0
H635 H 0.05997 0.98865 0.70992 0.0
H636 H 0.05885 0.13518 0.72529 0.0
C637 C 0.06311 0.08194 0.79497 0.0
C638 C 0.06489 0.04156 0.8058 0.0
C639 C 0.06512 0.99666 0.79785 0.0
C640 C 0.06365 0.99181 0.77957 0.0
C641 C 0.06198 0.03217 0.76929 0.0
C642 C 0.06176 0.0764 0.77665 0.0
C643 C 0.06031 0.11395 0.7625 0.0
C644 C 0.01529 0.14345 0.76393 0.0
C645 C 0.1043 0.14498 0.76328 0.0
C646 C 0.05996 0.08383 0.74609 0.0
C647 C 0.06077 0.03676 0.75036 0.0
C648 C 0.06069 0.00205 0.73753 0.0
C649 C 0.05989 0.01572 0.71985 0.0
C650 C 0.05932 0.06376 0.71507 0.0
C651 C 0.05927 0.09817 0.72846 0.0
H652 H 0.5454 0.87916 0.80025 0.0
H653 H 0.53183 0.03006 0.8057 0.0
H654 H 0.5337 0.0387 0.77353 0.0
H655 H 0.62608 0.88166 0.7648 0.0
H656 H 0.60172 0.83163 0.75365 0.0
H657 H 0.5964 0.83661 0.77712 0.0
H658 H 0.50614 0.82884 0.77463 0.0
H659 H 0.5112 0.82357 0.75115 0.0
H660 H 0.47414 0.86827 0.76048 0.0
H661 H 0.54093 0.03178 0.7409 0.0
H662 H 0.55106 0.00933 0.70988 0.0
H663 H 0.56001 0.86297 0.72534 0.0
C664 C 0.54216 0.91395 0.79467 0.0
C665 C 0.53833 0.95392 0.80555 0.0
C666 C 0.53476 -0.00113 0.79769 0.0
C667 C 0.53577 0.00419 0.77941 0.0
C668 C 0.54034 0.96424 0.76908 0.0
C669 C 0.54326 0.91995 0.77639 0.0
C670 C 0.54945 0.88298 0.76229 0.0
C671 C 0.5962 0.85669 0.76461 0.0
C672 C 0.50774 0.84891 0.76213 0.0
C673 C 0.54994 0.9135 0.74596 0.0
C674 C 0.54454 0.96025 0.75019 0.0
C675 C 0.54489 0.99524 0.73741 0.0
C676 C 0.55076 0.98212 0.71981 0.0
C677 C 0.55623 0.93438 0.71512 0.0
C678 C 0.55573 0.89974 0.72845 0.0
H679 H 0.58832 0.54753 0.29603 0.0
H680 H 0.43713 0.53178 0.29907 0.0
H681 H 0.43261 0.53162 0.26671 0.0
H682 H 0.58958 0.62578 0.25985 0.0
H683 H 0.6415 0.60115 0.25 0.0
H684 H 0.63315 0.59743 0.27337 0.0
H685 H 0.64244 0.50714 0.272 0.0
H686 H 0.65092 0.5106 0.2486 0.0
H687 H 0.60541 0.47379 0.25748 0.0
H688 H 0.44424 0.53639 0.23391 0.0
H689 H 0.47113 0.54564 0.2033 0.0
H690 H 0.61471 0.55847 0.22169 0.0
C691 C 0.55427 0.54362 0.28992 0.0
C692 C 0.51306 0.53959 0.30015 0.0
C693 C 0.46922 0.53481 0.29156 0.0
C694 C 0.46628 0.53466 0.27317 0.0
C695 C 0.5075 0.53917 0.26349 0.0
C696 C 0.55069 0.54341 0.27157 0.0
C697 C 0.58954 0.54902 0.25817 0.0
C698 C 0.61492 0.59615 0.26049 0.0
C699 C 0.62412 0.50767 0.25912 0.0
C700 C 0.5614 0.54802 0.24129 0.0
C701 C 0.51417 0.54201 0.24464 0.0
C702 C 0.48118 0.54085 0.23114 0.0
C703 C 0.49682 0.54617 0.21378 0.0
C704 C 0.54506 0.55274 0.21003 0.0
C705 C 0.57763 0.55337 0.22405 0.0
H706 H 0.93136 0.61382 0.72051 0.0
H707 H 0.95359 0.46927 0.70476 0.0
H708 H 0.96269 0.44646 0.73584 0.0
H709 H 0.01415 0.61451 0.75625 0.0
H710 H 0.97813 0.6509 0.77009 0.0
H711 H 0.97399 0.65606 0.74658 0.0
H712 H 0.88458 0.64043 0.74818 0.0
H713 H 0.88842 0.63535 0.77169 0.0
H714 H 0.86363 0.58826 0.75899 0.0
H715 H 0.96955 0.43939 0.76858 0.0
H716 H 0.97096 0.44801 0.80079 0.0
H717 H 0.94315 0.59701 0.7952 0.0
C718 C 0.93823 0.57737 0.72357 0.0
C719 C 0.94188 0.54335 0.71019 0.0
C720 C 0.95066 0.49598 0.71478 0.0
C721 C 0.95597 0.48268 0.73239 0.0
C722 C 0.95227 0.51712 0.74525 0.0
C723 C 0.94342 0.56345 0.74108 0.0
C724 C 0.94027 0.59343 0.75743 0.0
C725 C 0.97895 0.63093 0.75759 0.0
C726 C 0.89131 0.61566 0.75917 0.0
C727 C 0.9486 0.55668 0.77145 0.0
C728 C 0.95568 0.51295 0.76414 0.0
C729 C 0.96403 0.47346 0.77446 0.0
C730 C 0.96483 0.47875 0.79275 0.0
C731 C 0.9571 0.52316 0.80053 0.0
C732 C 0.94912 0.56258 0.78967 0.0
H733 H 0.90843 0.95866 0.30101 0.0
H734 H 0.05987 0.94406 0.30369 0.0
H735 H 0.06399 0.94778 0.27133 0.0
H736 H 0.89108 0.88731 0.26374 0.0
H737 H 0.84497 0.92303 0.25455 0.0
H738 H 0.85426 0.922 0.27792 0.0
H739 H 0.8632 0.01239 0.27801 0.0
H740 H 0.85386 0.01372 0.25463 0.0
H741 H 0.90596 0.0395 0.26387 0.0
H742 H 0.05118 0.94979 0.23865 0.0
H743 H 0.02261 0.94936 0.20811 0.0
H744 H 0.87937 0.96228 0.22683 0.0
C745 C 0.94255 0.95658 0.29483 0.0
C746 C 0.98388 0.95108 0.30491 0.0
C747 C 0.02776 0.94841 0.29627 0.0
C748 C 0.03045 0.95052 0.27789 0.0
C749 C 0.98898 0.95554 0.26836 0.0
C750 C 0.94588 0.95868 0.27654 0.0
C751 C 0.90646 0.96263 0.26328 0.0
C752 C 0.87219 0.92127 0.26498 0.0
C753 C 0.88087 0.00987 0.26505 0.0
C754 C 0.93402 0.9602 0.24633 0.0
C755 C 0.98159 0.95655 0.24955 0.0
C756 C 0.01403 0.95291 0.23597 0.0
C757 C 0.9974 0.95268 0.21865 0.0
C758 C 0.9487 0.95579 0.21503 0.0
C759 C 0.91678 0.95995 0.22912 0.0
H760 H 0.42975 0.0508 0.03119 0.0
H761 H 0.55165 0.01843 0.06313 0.0
H762 H 0.58866 0.97934 0.03794 0.0
H763 H 0.42791 0.94473 0.00659 0.0
H764 H 0.41138 0.97212 0.98616 0.0
H765 H 0.39446 0.99841 0.00667 0.0
H766 H 0.43455 0.07599 0.99738 0.0
H767 H 0.45172 0.04986 0.97684 0.0
H768 H 0.49541 0.0754 0.99099 0.0
H769 H 0.61082 0.94005 0.00998 0.0
H770 H 0.61827 0.90569 0.98041 0.0
H771 H 0.48417 0.96618 0.96573 0.0
C772 C 0.46431 0.03561 0.03283 0.0
C773 C 0.48708 0.03625 0.04933 0.0
C774 C 0.5325 0.01653 0.05091 0.0
C775 C 0.55417 0.99481 0.03657 0.0
C776 C 0.53036 0.99377 0.02062 0.0
C777 C 0.48662 0.01395 0.01858 0.0
C778 C 0.46864 0.00747 0.99998 0.0
C779 C 0.42289 0.97898 0.99985 0.0
C780 C 0.46221 0.05502 0.99076 0.0
C781 C 0.50886 0.97995 0.992 0.0
C782 C 0.54406 0.97251 1.00417 0.0
C783 C 0.58379 0.94613 1.00025 0.0
C784 C 0.58765 0.92666 0.98346 0.0
C785 C 0.55225 0.934 0.97071 0.0
C786 C 0.51244 0.9612 0.97503 0.0
H787 H 0.51837 0.48241 0.46041 0.0
H788 H 0.62189 0.58492 0.47641 0.0
H789 H 0.59597 0.57664 0.50725 0.0
H790 H 0.42662 0.51984 0.49026 0.0
H791 H 0.40631 0.46107 0.49444 0.0
H792 H 0.43307 0.47527 0.4737 0.0
H793 H 0.49366 0.40858 0.47831 0.0
H794 H 0.46727 0.39434 0.49911 0.0
H795 H 0.52893 0.40777 0.49795 0.0
H796 H 0.55792 0.55826 0.53615 0.0
H797 H 0.5116 0.52963 0.56136 0.0
H798 H 0.43267 0.43883 0.52669 0.0
C799 C 0.53478 0.5039 0.47036 0.0
C800 C 0.57123 0.53533 0.46603 0.0
C801 C 0.5935 0.56111 0.4795 0.0
C802 C 0.57899 0.55668 0.497 0.0
C803 C 0.54242 0.52595 0.50082 0.0
C804 C 0.52065 0.49992 0.4879 0.0
C805 C 0.48264 0.46895 0.49557 0.0
C806 C 0.4343 0.48208 0.48805 0.0
C807 C 0.49382 0.41682 0.49255 0.0
C808 C 0.48638 0.48168 0.51482 0.0
C809 C 0.52114 0.5146 0.51755 0.0
C810 C 0.53101 0.53208 0.5342 0.0
C811 C 0.50487 0.51528 0.54846 0.0
C812 C 0.46966 0.48099 0.54601 0.0
C813 C 0.4599 0.46456 0.52893 0.0
H814 H 0.98666 0.47024 0.96167 0.0
H815 H 0.9842 0.61822 0.97517 0.0
H816 H -0.00035 0.59808 1.00596 0.0
H817 H 0.92608 0.43102 1.00195 0.0
H818 H 0.96004 0.37782 1.00348 0.0
H819 H 0.94805 0.40352 0.98232 0.0
H820 H 0.03711 0.40553 0.97574 0.0
H821 H 0.04942 0.38041 0.99695 0.0
H822 H 0.07597 0.43524 0.9907 0.0
H823 H 0.02332 0.56352 0.03438 0.0
H824 H 0.044 0.51605 0.05991 0.0
H825 H 0.02043 0.38911 0.02982 0.0
C826 C 0.98762 0.49845 0.97108 0.0
C827 C 0.98336 0.54598 0.96583 0.0
C828 C 0.98728 0.58157 0.97872 0.0
C829 C 0.99601 0.57054 0.99631 0.0
C830 C 0.00021 0.52362 1.00099 0.0
C831 C 0.99539 0.48801 0.98888 0.0
C832 C 0.00149 0.44044 0.99761 0.0
C833 C 0.95621 0.41149 0.99626 0.0
C834 C 0.0435 0.41385 0.98978 0.0
C835 C 0.0111 0.45515 0.01642 0.0
C836 C 0.01064 0.50334 0.01794 0.0
C837 C 0.02192 0.52568 0.03357 0.0
C838 C 0.03284 0.4981 0.04821 0.0
C839 C 0.03097 0.44848 0.04742 0.0
C840 C 0.02079 0.4269 0.0311 0.0
H841 H 0.06356 0.97823 0.53579 0.0
H842 H 0.97363 0.08981 0.55489 0.0
H843 H 0.92571 0.08442 0.52805 0.0
H844 H 0.06161 0.01487 0.49006 0.0
H845 H 0.0613 0.95585 0.48167 0.0
H846 H 0.08877 0.96824 0.50245 0.0
H847 H 0.03656 0.90574 0.51749 0.0
H848 H 0.00895 0.89315 0.49676 0.0
H849 H 0.9737 0.90965 0.51539 0.0
H850 H 0.88606 0.06555 0.49971 0.0
H851 H 0.85942 0.03711 0.47082 0.0
H852 H 0.9756 0.93873 0.46951 0.0
C853 C 0.03384 0.00158 0.53427 0.0
C854 C 0.02147 0.03349 0.54767 0.0
C855 C 0.9827 0.06385 0.54513 0.0
C856 C 0.95553 0.06139 0.52984 0.0
C857 C 0.96794 0.02881 0.51707 0.0
C858 C 0.00635 -0.00034 0.51902 0.0
C859 C 0.01197 0.96786 0.50322 0.0
C860 C 0.05869 0.97729 0.49379 0.0
C861 C 0.00751 0.91603 0.50854 0.0
C862 C 0.97059 0.98359 0.49215 0.0
C863 C 0.94567 0.01873 0.50043 0.0
C864 C 0.90548 0.03829 0.49303 0.0
C865 C 0.89051 0.02176 0.47666 0.0
C866 C 0.91584 0.98628 0.46777 0.0
C867 C 0.95623 0.96677 0.47573 0.0
H868 H 0.55621 0.5383 0.04424 0.0
H869 H 0.49371 0.67613 0.03815 0.0
H870 H 0.4691 0.65565 0.00804 0.0
H871 H 0.60006 0.52877 1.00034 0.0
H872 H 0.58789 0.467 0.99849 0.0
H873 H 0.60008 0.49218 0.01966 0.0
H874 H 0.52135 0.45998 0.03157 0.0
H875 H 0.50906 0.43446 0.01047 0.0
H876 H 0.46755 0.47421 0.02031 0.0
H877 H 0.44914 0.61927 0.97889 0.0
H878 H 0.43755 0.57073 0.95257 0.0
H879 H 0.51565 0.45752 0.97715 0.0
C880 C 0.53661 0.56387 0.03672 0.0
C881 C 0.52612 0.60856 0.04368 0.0
C882 C 0.50196 0.64162 0.03311 0.0
C883 C 0.48773 0.63028 0.01601 0.0
C884 C 0.49834 0.58585 0.00958 0.0
C885 C 0.52238 0.55321 0.01957 0.0
C886 C 0.53004 0.50823 0.00941 0.0
C887 C 0.58265 0.49849 0.00683 0.0
C888 C 0.50553 0.46677 0.01848 0.0
C889 C 0.5064 0.52063 0.99218 0.0
C890 C 0.48827 0.56552 0.99256 0.0
C891 C 0.46391 0.58434 0.97832 0.0
C892 C 0.45806 0.55662 0.96328 0.0
C893 C 0.47705 0.51074 0.96245 0.0
C894 C 0.5012 0.49265 0.97723 0.0
H895 H 0.98231 0.48113 0.54745 0.0
H896 H 0.92143 0.61484 0.53248 0.0
H897 H 0.95215 0.60497 0.50245 0.0
H898 H 0.08874 0.4907 0.52082 0.0
H899 H 0.08889 0.42943 0.51508 0.0
H900 H 0.06425 0.44808 0.53569 0.0
H901 H 0.986 0.40726 0.52777 0.0
H902 H 0.01027 0.38875 0.5071 0.0
H903 H 0.95669 0.42235 0.50755 0.0
H904 H 0.98856 0.58086 0.47416 0.0
H905 H 0.02639 0.54278 0.44892 0.0
H906 H 0.06187 0.42301 0.48154 0.0
C907 C 0.97646 0.50883 0.53798 0.0
C908 C 0.95021 0.54922 0.54238 0.0
C909 C 0.94166 0.58376 0.5294 0.0
C910 C 0.95906 0.57854 0.51233 0.0
C911 C 0.98469 0.53835 0.50838 0.0
C912 C 0.99334 0.50399 0.52079 0.0
C913 C 0.02019 0.46329 0.51281 0.0
C914 C 0.06838 0.45755 0.52163 0.0
C915 C 0.99156 0.41773 0.51387 0.0
C916 C 0.025 0.48012 0.494 0.0
C917 C 0.00444 0.52362 0.4918 0.0
C918 C 0.00428 0.54654 0.47566 0.0
C919 C 0.02531 0.52426 0.46131 0.0
C920 C 0.04564 0.47917 0.46308 0.0
C921 C 0.04609 0.45725 0.47975 0.0
H922 H 0.04135 0.07284 0.98504 0.0
H923 H 0.93601 0.0078 0.95204 0.0
H924 H 0.90902 0.96057 0.97718 0.0
H925 H 0.06985 0.9711 0.01071 0.0
H926 H 0.07681 0.00322 0.03089 0.0
H927 H 0.08811 0.03155 0.01018 0.0
H928 H 0.02833 0.09675 0.01802 0.0
H929 H 0.01671 0.06851 0.03872 0.0
H930 H 0.96916 0.08088 0.02382 0.0
H931 H 0.89411 0.91951 1.00599 0.0
H932 H 0.89085 0.88975 0.03647 0.0
H933 H 0.00549 0.98197 0.05066 0.0
C934 C 0.01258 0.04866 0.98311 0.0
C935 C 0.99171 0.04308 0.96641 0.0
C936 C 0.95389 0.01138 0.96447 0.0
C937 C 0.93789 0.98477 0.97876 0.0
C938 C 0.95977 0.99055 0.99497 0.0
C939 C 0.99617 0.02187 0.99724 0.0
C940 C 0.01356 0.02159 0.01604 0.0
C941 C 0.06514 0.00592 0.017 0.0
C942 C 0.00651 0.0698 0.02465 0.0
C943 C 0.98125 0.98521 0.02399 0.0
C944 C 0.9505 0.96771 0.01162 0.0
C945 C 0.91783 0.9332 0.01581 0.0
C946 C 0.91635 0.91641 0.03313 0.0
C947 C 0.94707 0.93434 0.04609 0.0
C948 C 0.98024 0.96884 0.04132 0.0
H949 H 0.51398 0.00699 0.55121 0.0
H950 H 0.58758 0.87996 0.53658 0.0
H951 H 0.55721 0.88742 0.50626 0.0
H952 H 0.41018 0.98961 0.52356 0.0
H953 H 0.40545 0.05082 0.51791 0.0
H954 H 0.43031 0.03367 0.53871 0.0
H955 H 0.50547 0.08081 0.53155 0.0
H956 H 0.48098 0.09788 0.5107 0.0
H957 H 0.53703 0.06866 0.51157 0.0
H958 H 0.51933 0.90881 0.47763 0.0
H959 H 0.47991 0.94447 0.45217 0.0
H960 H 0.43418 0.06058 0.48467 0.0
C961 C 0.52269 0.98024 0.54168 0.0
C962 C 0.55214 0.94223 0.54624 0.0
C963 C 0.56451 0.90892 0.53332 0.0
C964 C 0.54741 0.91287 0.51612 0.0
C965 C 0.51844 0.95073 0.51199 0.0
C966 C 0.50631 0.98399 0.52436 0.0
C967 C 0.47675 0.02262 0.51621 0.0
C968 C 0.42776 0.02426 0.5246 0.0
C969 C 0.50155 0.07031 0.51759 0.0
C970 C 0.47437 0.00597 0.49732 0.0
C971 C 0.49838 0.96426 0.49524 0.0
C972 C 0.50101 0.94183 0.47905 0.0
C973 C 0.47903 0.96282 0.46455 0.0
C974 C 0.45538 0.00632 0.46619 0.0
C975 C 0.45246 0.02762 0.48293 0.0
H976 H 0.64525 0.10072 0.15699 0.0
H977 H 0.62363 0.07696 0.10127 0.0
H978 H 0.70768 0.08258 0.09639 0.0
H979 H 0.76056 0.16354 0.15614 0.0
H980 H 0.7837 0.12833 0.17381 0.0
H981 H 0.72182 0.14137 0.17289 0.0
H982 H 0.70243 0.05262 0.17391 0.0
H983 H 0.76396 0.03966 0.17522 0.0
H984 H 0.72894 0.01401 0.15804 0.0
H985 H 0.79305 0.08015 0.09726 0.0
H986 H 0.86951 0.04505 0.10384 0.0
H987 H 0.83751 0.04888 0.15951 0.0
C988 C 0.6577 0.09673 0.14372 0.0
C989 C 0.62646 0.09027 0.12946 0.0
C990 C 0.64549 0.08535 0.11238 0.0
C991 C 0.69379 0.08807 0.10944 0.0
C992 C 0.72341 0.09347 0.12379 0.0
C993 C 0.7062 0.0959 0.14069 0.0
C994 C 0.74513 0.08848 0.15403 0.0
C995 C 0.75328 0.1331 0.16486 0.0
C996 C 0.73449 0.04618 0.16598 0.0
C997 C 0.78629 0.07895 0.1419 0.0
C998 C 0.77333 0.08507 0.12456 0.0
C999 C 0.80374 0.07536 0.11078 0.0
C1000 C 0.84724 0.05537 0.11468 0.0
C1001 C 0.85924 0.0435 0.13219 0.0
C1002 C 0.82957 0.05806 0.14604 0.0
H1003 H 0.49252 0.81822 0.66162 0.0
H1004 H 0.42839 0.8688 0.61365 0.0
H1005 H 0.38477 0.79412 0.61094 0.0
H1006 H 0.52076 0.71471 0.64492 0.0
H1007 H 0.51333 0.68037 0.6646 0.0
H1008 H 0.52669 0.74161 0.6662 0.0
H1009 H 0.45252 0.75531 0.68515 0.0
H1010 H 0.43913 0.69366 0.68385 0.0
H1011 H 0.39611 0.73647 0.67715 0.0
H1012 H 0.35775 0.70987 0.61124 0.0
H1013 H 0.35579 0.62326 0.61276 0.0
H1014 H 0.44935 0.62663 0.65759 0.0
C1015 C 0.46727 0.81462 0.65108 0.0
C1016 C 0.46256 0.84967 0.63813 0.0
C1017 C 0.43142 0.84269 0.62393 0.0
C1018 C 0.40658 0.80042 0.62232 0.0
C1019 C 0.41403 0.76541 0.63486 0.0
C1020 C 0.44389 0.77215 0.64895 0.0
C1021 C 0.45391 0.72671 0.65852 0.0
C1022 C 0.50677 0.71521 0.65854 0.0
C1023 C 0.43422 0.72814 0.67728 0.0
C1024 C 0.4267 0.69294 0.64721 0.0
C1025 C 0.40246 0.71599 0.63404 0.0
C1026 C 0.37648 0.69159 0.62155 0.0
C1027 C 0.37609 0.64243 0.62236 0.0
C1028 C 0.40302 0.61828 0.63513 0.0
C1029 C 0.42781 0.64406 0.64786 0.0
H1030 H 0.84838 0.40492 0.15468 0.0
H1031 H 0.88441 0.43222 0.10027 0.0
H1032 H 0.80169 0.44306 0.09318 0.0
H1033 H 0.72888 0.35558 0.14836 0.0
H1034 H 0.70462 0.38843 0.16639 0.0
H1035 H 0.76525 0.37035 0.16689 0.0
H1036 H 0.79127 0.45652 0.17144 0.0
H1037 H 0.73083 0.47453 0.17126 0.0
H1038 H 0.77176 0.50078 0.15616 0.0
H1039 H 0.71736 0.45802 0.09185 0.0
H1040 H 0.64045 0.49387 0.09735 0.0
H1041 H 0.65835 0.47006 0.15328 0.0
C1042 C 0.83891 0.41269 0.14124 0.0
C1043 C 0.87329 0.41518 0.12789 0.0
C1044 C 0.85903 0.42665 0.11057 0.0
C1045 C 0.81183 0.43339 0.10639 0.0
C1046 C 0.77891 0.4303 0.11976 0.0
C1047 C 0.79181 0.42162 0.13695 0.0
C1048 C 0.75063 0.42922 0.14924 0.0
C1049 C 0.73651 0.38314 0.15825 0.0
C1050 C 0.76179 0.46754 0.16281 0.0
C1051 C 0.7133 0.44514 0.13628 0.0
C1052 C 0.73006 0.44359 0.11929 0.0
C1053 C 0.70362 0.45921 0.10508 0.0
C1054 C 0.65986 0.47951 0.10835 0.0
C1055 C 0.64338 0.48508 0.12575 0.0
C1056 C 0.6696 0.4657 0.13982 0.0
H1057 H 0.04144 0.66115 0.61032 0.0
H1058 H 0.0462 0.6239 0.66564 0.0
H1059 H 0.0777 0.70111 0.67256 0.0
H1060 H 0.15607 0.73947 0.61384 0.0
H1061 H 0.13295 0.779 0.59749 0.0
H1062 H 0.12072 0.7171 0.59612 0.0
H1063 H 0.03204 0.73599 0.59512 0.0
H1064 H 0.04361 0.79764 0.59713 0.0
H1065 H 0.00592 0.76896 0.61278 0.0
H1066 H 0.0716 0.78642 0.67413 0.0
H1067 H 0.06383 0.8701 0.67007 0.0
H1068 H 0.09548 0.85379 0.61458 0.0
C1069 C 0.05163 0.66829 0.62373 0.0
C1070 C 0.03993 0.63672 0.63744 0.0
C1071 C 0.05378 0.64751 0.65486 0.0
C1072 C 0.07183 0.69148 0.659 0.0
C1073 C 0.07868 0.72339 0.64548 0.0
C1074 C 0.07217 0.71161 0.62807 0.0
C1075 C 0.08085 0.754 0.61636 0.0
C1076 C 0.12531 0.74698 0.6053 0.0
C1077 C 0.03805 0.76474 0.60467 0.0
C1078 C 0.08803 0.79193 0.6301 0.0
C1079 C 0.08562 0.77331 0.64677 0.0
C1080 C 0.07824 0.80154 0.66133 0.0
C1081 C 0.07469 0.84992 0.65887 0.0
C1082 C 0.08221 0.87089 0.64219 0.0
C1083 C 0.08972 0.84068 0.62764 0.0
H1084 H 0.63973 0.44118 0.85049 0.0
H1085 H 0.62736 0.36411 0.89928 0.0
H1086 H 0.71381 0.36067 0.90168 0.0
H1087 H 0.75058 0.37962 0.83481 0.0
H1088 H 0.77222 0.43328 0.8253 0.0
H1089 H 0.71002 0.42205 0.82594 0.0
H1090 H 0.69678 0.50073 0.84222 0.0
H1091 H 0.75858 0.51215 0.84155 0.0
H1092 H 0.72829 0.51189 0.86231 0.0
H1093 H 0.79969 0.38023 0.90172 0.0
H1094 H 0.87651 0.41954 0.89901 0.0
H1095 H 0.83361 0.47667 0.84868 0.0
C1096 C 0.65529 0.42197 0.8613 0.0
C1097 C 0.62709 0.40309 0.87474 0.0
C1098 C 0.64855 0.37928 0.88895 0.0
C1099 C 0.69757 0.37674 0.89032 0.0
C1100 C 0.72457 0.39711 0.87711 0.0
C1101 C 0.7041 0.41853 0.8627 0.0
C1102 C 0.74049 0.44189 0.85123 0.0
C1103 C 0.7435 0.41775 0.83325 0.0
C1104 C 0.73043 0.49476 0.84924 0.0
C1105 C 0.78424 0.43286 0.86199 0.0
C1106 C 0.7746 0.4064 0.87676 0.0
C1107 C 0.80806 0.39967 0.88993 0.0
C1108 C 0.8517 0.42209 0.88828 0.0
C1109 C 0.86144 0.4508 0.87355 0.0
C1110 C 0.82794 0.45406 0.8599 0.0
H1111 H 0.10533 0.64735 0.35985 0.0
H1112 H 0.06978 0.61281 0.41375 0.0
H1113 H 0.06538 0.69588 0.42083 0.0
H1114 H 0.1593 0.76564 0.36654 0.0
H1115 H 0.12837 0.79036 0.34807 0.0
H1116 H 0.14507 0.72935 0.34795 0.0
H1117 H 0.05864 0.70534 0.34244 0.0
H1118 H 0.04207 0.7661 0.34224 0.0
H1119 H 0.0137 0.72605 0.35716 0.0
H1120 H 0.05494 0.78074 0.4219 0.0
H1121 H 0.01918 0.85721 0.41581 0.0
H1122 H 0.04419 0.83748 0.36008 0.0
C1123 C 0.09693 0.65697 0.37318 0.0
C1124 C 0.08991 0.62264 0.38636 0.0
C1125 C 0.07862 0.63762 0.40358 0.0
C1126 C 0.07556 0.68518 0.40775 0.0
C1127 C 0.082 0.71791 0.39444 0.0
C1128 C 0.09098 0.70448 0.37736 0.0
C1129 C 0.08523 0.74559 0.36486 0.0
C1130 C 0.13231 0.75849 0.35636 0.0
C1131 C 0.04767 0.73515 0.35086 0.0
C1132 C 0.06929 0.78343 0.37753 0.0
C1133 C 0.07021 0.76715 0.39462 0.0
C1134 C 0.05425 0.79407 0.4086 0.0
C1135 C 0.03393 0.83761 0.40497 0.0
C1136 C 0.02824 0.85321 0.38742 0.0
C1137 C 0.04838 0.82678 0.37363 0.0
H1138 H 0.87138 0.04276 0.89582 0.0
H1139 H 0.8667 0.1299 0.8492 0.0
H1140 H 0.7807 0.11744 0.84726 0.0
H1141 H 0.79095 0.95987 0.88344 0.0
H1142 H 0.765 0.95312 0.90485 0.0
H1143 H 0.82478 0.9721 0.90289 0.0
H1144 H 0.80551 0.04615 0.92124 0.0
H1145 H 0.74536 0.02746 0.92316 0.0
H1146 H 0.75872 0.08455 0.91432 0.0
H1147 H 0.69731 0.08685 0.8488 0.0
H1148 H 0.62457 0.04144 0.85357 0.0
H1149 H 0.68392 0.98229 0.90111 0.0
C1150 C 0.85216 0.06034 0.88546 0.0
C1151 C 0.87548 0.08729 0.87265 0.0
C1152 C 0.84937 0.10856 0.859 0.0
C1153 C 0.80058 0.10216 0.85795 0.0
C1154 C 0.77864 0.07538 0.87091 0.0
C1155 C 0.8037 0.05529 0.88451 0.0
C1156 C 0.77278 0.02623 0.89634 0.0
C1157 C 0.78936 0.97481 0.89689 0.0
C1158 C 0.77046 0.04738 0.91486 0.0
C1159 C 0.7265 0.03131 0.88689 0.0
C1160 C 0.73036 0.06002 0.8723 0.0
C1161 C 0.69353 0.06533 0.86042 0.0
C1162 C 0.65238 0.03947 0.86323 0.0
C1163 C 0.64842 0.00906 0.87787 0.0
C1164 C 0.68536 0.00641 0.89013 0.0
H1165 H 0.39702 0.85205 0.35676 0.0
H1166 H 0.41871 0.87177 0.4127 0.0
H1167 H 0.41411 0.7875 0.41717 0.0
H1168 H 0.33583 0.73603 0.35671 0.0
H1169 H 0.37197 0.71405 0.33915 0.0
H1170 H 0.35809 0.77569 0.34028 0.0
H1171 H 0.44665 0.79625 0.33988 0.0
H1172 H 0.46045 0.73498 0.33837 0.0
H1173 H 0.48505 0.76962 0.35586 0.0
H1174 H 0.41673 0.70192 0.41591 0.0
H1175 H 0.45216 0.62581 0.40913 0.0
H1176 H 0.45157 0.66072 0.3537 0.0
C1177 C 0.40077 0.83917 0.37 0.0
C1178 C 0.40621 0.86992 0.38443 0.0
C1179 C 0.41096 0.85026 0.40145 0.0
C1180 C 0.40883 0.80184 0.40416 0.0
C1181 C 0.40427 0.77274 0.38964 0.0
C1182 C 0.40223 0.7906 0.37281 0.0
C1183 C 0.41063 0.75232 0.35934 0.0
C1184 C 0.36649 0.74404 0.34821 0.0
C1185 C 0.45323 0.76398 0.3477 0.0
C1186 C 0.42027 0.71083 0.37134 0.0
C1187 C 0.41328 0.72298 0.38869 0.0
C1188 C 0.42243 0.69197 0.40238 0.0
C1189 C 0.4428 0.64875 0.39838 0.0
C1190 C 0.45587 0.63775 0.38094 0.0
C1191 C 0.44175 0.66796 0.36714 0.0
H1192 H 0.16258 0.96705 0.86041 0.0
H1193 H 0.14172 0.99327 0.91604 0.0
H1194 H 0.21708 0.95605 0.92251 0.0
H1195 H 0.22928 0.84916 0.86805 0.0
H1196 H 0.26652 0.86068 0.84944 0.0
H1197 H 0.20633 0.88021 0.84928 0.0
H1198 H 0.2346 0.96459 0.84278 0.0
H1199 H 0.29479 0.94587 0.84343 0.0
H1200 H 0.27517 0.99235 0.85764 0.0
H1201 H 0.30162 0.94485 0.92166 0.0
H1202 H 0.38449 0.93547 0.91509 0.0
H1203 H 0.34982 0.89466 0.86172 0.0
C1204 C 0.17289 0.96297 0.874 0.0
C1205 C 0.14649 0.98389 0.88765 0.0
C1206 C 0.16132 0.97806 0.90528 0.0
C1207 C 0.20421 0.95687 0.90915 0.0
C1208 C 0.23104 0.93986 0.89534 0.0
C1209 C 0.21524 0.94039 0.87819 0.0
C1210 C 0.25286 0.92205 0.86584 0.0
C1211 C 0.23785 0.87523 0.85767 0.0
C1212 C 0.26504 0.9584 0.85159 0.0
C1213 C 0.29323 0.91523 0.8786 0.0
C1214 C 0.27969 0.92621 0.89548 0.0
C1215 C 0.31221 0.93259 0.90883 0.0
C1216 C 0.35963 0.92653 0.90496 0.0
C1217 C 0.37455 0.91155 0.88812 0.0
C1218 C 0.34038 0.90546 0.87481 0.0
H1219 H 0.4948 0.1709 0.35586 0.0
H1220 H 0.57094 0.12633 0.40215 0.0
H1221 H 0.61282 0.20279 0.40254 0.0
H1222 H 0.58415 0.24926 0.33557 0.0
H1223 H 0.5398 0.29141 0.32954 0.0
H1224 H 0.52564 0.22988 0.33036 0.0
H1225 H 0.45752 0.24764 0.35188 0.0
H1226 H 0.47151 0.30893 0.35121 0.0
H1227 H 0.46969 0.27861 0.37197 0.0
H1228 H 0.64143 0.28696 0.39871 0.0
H1229 H 0.64476 0.37286 0.39448 0.0
H1230 H 0.53824 0.36304 0.35404 0.0
C1231 C 0.52197 0.17634 0.36558 0.0
C1232 C 0.53131 0.14227 0.37854 0.0
C1233 C 0.56457 0.15168 0.39182 0.0
C1234 C 0.58843 0.19486 0.39207 0.0
C1235 C 0.57753 0.22825 0.37922 0.0
C1236 C 0.54446 0.21948 0.36638 0.0
C1237 C 0.53212 0.26318 0.35611 0.0
C1238 C 0.54629 0.25812 0.33675 0.0
C1239 C 0.47963 0.27529 0.35792 0.0
C1240 C 0.56259 0.29849 0.36539 0.0
C1241 C 0.58981 0.27753 0.37825 0.0
C1242 C 0.62006 0.30361 0.38874 0.0
C1243 C 0.62138 0.35238 0.38635 0.0
C1244 C 0.59117 0.37471 0.37413 0.0
C1245 C 0.56229 0.34711 0.36329 0.0
H1246 H 0.1374 0.54483 0.84631 0.0
H1247 H 0.1287 0.63613 0.89153 0.0
H1248 H 0.21514 0.64122 0.89247 0.0
H1249 H 0.22737 0.47854 0.8607 0.0
H1250 H 0.25613 0.4709 0.83984 0.0
H1251 H 0.19435 0.48264 0.84056 0.0
H1252 H 0.20617 0.55478 0.82029 0.0
H1253 H 0.26836 0.54329 0.81963 0.0
H1254 H 0.2471 0.59987 0.82652 0.0
H1255 H 0.30066 0.62371 0.89215 0.0
H1256 H 0.37733 0.58356 0.89096 0.0
H1257 H 0.33166 0.50757 0.84478 0.0
C1258 C 0.15378 0.56734 0.85595 0.0
C1259 C 0.12666 0.59019 0.86882 0.0
C1260 C 0.14909 0.61814 0.88163 0.0
C1261 C 0.1981 0.62163 0.88214 0.0
C1262 C 0.22412 0.59753 0.86957 0.0
C1263 C 0.2027 0.57128 0.85658 0.0
C1264 C 0.23845 0.54398 0.84605 0.0
C1265 C 0.22849 0.49091 0.84686 0.0
C1266 C 0.24012 0.56155 0.82699 0.0
C1267 C 0.28294 0.55662 0.85583 0.0
C1268 C 0.27414 0.58834 0.86912 0.0
C1269 C 0.30836 0.59998 0.88147 0.0
C1270 C 0.3519 0.57705 0.88069 0.0
C1271 C 0.36076 0.54286 0.86766 0.0
C1272 C 0.32657 0.53451 0.85459 0.0
H1273 H 0.01295 0.32007 0.35203 0.0
H1274 H 0.92957 0.3758 0.3946 0.0
H1275 H 0.88499 0.30112 0.39599 0.0
H1276 H 0.92518 0.23833 0.3319 0.0
H1277 H 0.96957 0.19415 0.32864 0.0
H1278 H 0.98496 0.25537 0.32765 0.0
H1279 H 0.04845 0.24182 0.35151 0.0
H1280 H 0.03313 0.18089 0.35268 0.0
H1281 H 0.0318 0.21628 0.37224 0.0
H1282 H 0.85495 0.21733 0.39423 0.0
H1283 H 0.84992 0.13083 0.39279 0.0
H1284 H 0.96463 0.12894 0.35549 0.0
C1285 C 0.98369 0.31729 0.36104 0.0
C1286 C 0.97312 0.35396 0.37274 0.0
C1287 C 0.93689 0.34834 0.38519 0.0
C1288 C 0.91153 0.30616 0.38603 0.0
C1289 C 0.92391 0.26987 0.37462 0.0
C1290 C 0.95967 0.275 0.36251 0.0
C1291 C 0.9729 0.22873 0.35423 0.0
C1292 C 0.96251 0.22919 0.33443 0.0
C1293 C 0.0246 0.21622 0.3579 0.0
C1294 C 0.93991 0.19638 0.36386 0.0
C1295 C 0.9107 0.22081 0.37508 0.0
C1296 C 0.87783 0.19793 0.38554 0.0
C1297 C 0.87561 0.14882 0.38479 0.0
C1298 C 0.90744 0.12313 0.37425 0.0
C1299 C 0.93934 0.14749 0.36347 0.0
H1300 H 0.1604 0.53243 0.15527 0.0
H1301 H 0.13513 0.51364 0.09953 0.0
H1302 H 0.21027 0.5515 0.09294 0.0
H1303 H 0.22919 0.64902 0.15011 0.0
H1304 H 0.26775 0.6327 0.16786 0.0
H1305 H 0.20714 0.61473 0.1682 0.0
H1306 H 0.23387 0.52854 0.17187 0.0
H1307 H 0.29438 0.54581 0.17104 0.0
H1308 H 0.27245 0.50299 0.15575 0.0
H1309 H 0.29455 0.5666 0.09277 0.0
H1310 H 0.37841 0.57527 0.09852 0.0
H1311 H 0.34933 0.59805 0.15378 0.0
C1312 C 0.16958 0.5385 0.14167 0.0
C1313 C 0.14199 0.51977 0.12793 0.0
C1314 C 0.15571 0.52746 0.1103 0.0
C1315 C 0.1984 0.54902 0.10639 0.0
C1316 C 0.22647 0.56388 0.12024 0.0
C1317 C 0.21208 0.56062 0.13752 0.0
C1318 C 0.25116 0.57533 0.1499 0.0
C1319 C 0.23802 0.62065 0.15959 0.0
C1320 C 0.26367 0.5358 0.16289 0.0
C1321 C 0.29055 0.58377 0.13691 0.0
C1322 C 0.27533 0.57701 0.11989 0.0
C1323 C 0.3065 0.57477 0.10589 0.0
C1324 C 0.35434 0.58015 0.10931 0.0
C1325 C 0.37085 0.58927 0.12651 0.0
C1326 C 0.33815 0.59163 0.14044 0.0
H1327 H 0.98483 0.16575 0.6092 0.0
H1328 H 0.91815 0.12776 0.6583 0.0
H1329 H 0.87389 0.20248 0.6577 0.0
H1330 H 0.01155 0.2731 0.62178 0.0
H1331 H 0.00467 0.30174 0.60082 0.0
H1332 H 0.01828 0.24042 0.6017 0.0
H1333 H 0.9448 0.22162 0.58299 0.0
H1334 H 0.93107 0.2833 0.58189 0.0
H1335 H 0.88805 0.24237 0.58995 0.0
H1336 H 0.84818 0.28592 0.65451 0.0
H1337 H 0.85049 0.37198 0.65127 0.0
H1338 H 0.94246 0.35795 0.60638 0.0
C1339 C 0.95916 0.17195 0.6194 0.0
C1340 C 0.95413 0.14045 0.63362 0.0
C1341 C 0.92186 0.15099 0.64713 0.0
C1342 C 0.8965 0.1933 0.64684 0.0
C1343 C 0.90427 0.22475 0.63305 0.0
C1344 C 0.93506 0.21451 0.61959 0.0
C1345 C 0.94518 0.25727 0.6084 0.0
C1346 C 0.99801 0.26878 0.60819 0.0
C1347 C 0.92612 0.25074 0.5897 0.0
C1348 C 0.91741 0.29396 0.61822 0.0
C1349 C 0.89248 0.27416 0.63194 0.0
C1350 C 0.86714 0.3016 0.6437 0.0
C1351 C 0.86893 0.35042 0.64183 0.0
C1352 C 0.89718 0.37134 0.62871 0.0
C1353 C 0.9201 0.34273 0.61635 0.0
H1354 H 0.13412 0.95836 0.15745 0.0
H1355 H 0.12632 0.85383 0.11633 0.0
H1356 H 0.21286 0.85515 0.11372 0.0
H1357 H 0.22315 0.02449 0.14216 0.0
H1358 H 0.25118 0.03429 0.16304 0.0
H1359 H 0.18945 0.02235 0.16216 0.0
H1360 H 0.20061 0.95217 0.18346 0.0
H1361 H 0.26265 0.96398 0.18442 0.0
H1362 H 0.24216 0.90668 0.17814 0.0
H1363 H 0.29858 0.88131 0.11202 0.0
H1364 H 0.37558 0.9216 0.11419 0.0
H1365 H 0.32734 0.99459 0.16055 0.0
C1366 C 0.15044 0.93429 0.14836 0.0
C1367 C 0.12334 0.90652 0.13694 0.0
C1368 C 0.14634 0.87653 0.12488 0.0
C1369 C 0.19548 0.87654 0.12347 0.0
C1370 C 0.22109 0.90509 0.13479 0.0
C1371 C 0.19922 0.93223 0.14738 0.0
C1372 C 0.23407 0.96061 0.15779 0.0
C1373 C 0.22385 0.01353 0.15617 0.0
C1374 C 0.23492 0.9449 0.1771 0.0
C1375 C 0.27887 0.94721 0.14851 0.0
C1376 C 0.27092 0.91542 0.13515 0.0
C1377 C 0.30575 0.9045 0.12292 0.0
C1378 C 0.34932 0.92735 0.12423 0.0
C1379 C 0.35776 0.9595 0.13796 0.0
C1380 C 0.32255 0.96822 0.15049 0.0
H1381 H 0.49647 0.31602 0.65789 0.0
H1382 H 0.56206 0.36431 0.6099 0.0
H1383 H 0.60639 0.28965 0.60805 0.0
H1384 H 0.5932 0.23822 0.6749 0.0
H1385 H 0.55109 0.19504 0.68191 0.0
H1386 H 0.53587 0.2564 0.6822 0.0
H1387 H 0.46314 0.23902 0.66289 0.0
H1388 H 0.47822 0.17797 0.66234 0.0
H1389 H 0.4709 0.20995 0.6421 0.0
H1390 H 0.63556 0.20548 0.60968 0.0
H1391 H 0.64073 0.1192 0.61286 0.0
H1392 H 0.54444 0.12549 0.65678 0.0
C1393 C 0.5219 0.31192 0.64745 0.0
C1394 C 0.52681 0.34627 0.63426 0.0
C1395 C 0.55854 0.33863 0.62029 0.0
C1396 C 0.58387 0.29642 0.61918 0.0
C1397 C 0.57641 0.26221 0.63202 0.0
C1398 C 0.5459 0.26962 0.64585 0.0
C1399 C 0.53667 0.22505 0.656 0.0
C1400 C 0.55534 0.22893 0.67487 0.0
C1401 C 0.48415 0.21227 0.6558 0.0
C1402 C 0.56536 0.1909 0.64539 0.0
C1403 C 0.58942 0.21303 0.632 0.0
C1404 C 0.61694 0.18792 0.62015 0.0
C1405 C 0.61919 0.13894 0.62192 0.0
C1406 C 0.59263 0.11563 0.63497 0.0
C1407 C 0.56599 0.14223 0.64693 0.0
H1408 H 0.16213 0.28924 0.11786 0.0
H1409 H 0.14601 0.31735 0.17354 0.0
H1410 H 0.21587 0.26877 0.17975 0.0
H1411 H 0.20337 0.1685 0.12222 0.0
H1412 H 0.24376 0.17428 0.10417 0.0
H1413 H 0.19056 0.20838 0.10447 0.0
H1414 H 0.23964 0.28428 0.1011 0.0
H1415 H 0.29303 0.2505 0.10114 0.0
H1416 H 0.28504 0.29695 0.11687 0.0
H1417 H 0.28997 0.2201 0.17966 0.0
H1418 H 0.35936 0.17096 0.17348 0.0
H1419 H 0.32735 0.177 0.11777 0.0
C1420 C 0.17261 0.28455 0.13142 0.0
C1421 C 0.14836 0.30705 0.14522 0.0
C1422 C 0.16383 0.30035 0.16274 0.0
C1423 C 0.2036 0.27296 0.1664 0.0
C1424 C 0.22748 0.25255 0.1524 0.0
C1425 C 0.21228 0.25765 0.13529 0.0
C1426 C 0.24483 0.23321 0.12256 0.0
C1427 C 0.21909 0.19374 0.11278 0.0
C1428 C 0.26694 0.26835 0.10966 0.0
C1429 C 0.28096 0.21381 0.13517 0.0
C1430 C 0.27036 0.22524 0.15233 0.0
C1431 C 0.29856 0.21085 0.16628 0.0
C1432 C 0.33804 0.18313 0.16261 0.0
C1433 C 0.34904 0.17023 0.14513 0.0
C1434 C 0.32031 0.18652 0.13127 0.0
H1435 H 0.19374 0.15214 0.61437 0.0
H1436 H 0.13952 0.17109 0.66727 0.0
H1437 H 0.18211 0.2448 0.66979 0.0
H1438 H 0.31009 0.19727 0.62467 0.0
H1439 H 0.31776 0.22568 0.60372 0.0
H1440 H 0.28139 0.17432 0.60543 0.0
H1441 H 0.21235 0.22052 0.59158 0.0
H1442 H 0.24834 0.27226 0.5901 0.0
H1443 H 0.19312 0.27445 0.60157 0.0
H1444 H 0.22682 0.31641 0.66709 0.0
H1445 H 0.28426 0.37818 0.66113 0.0
H1446 H 0.31604 0.31469 0.61071 0.0
C1447 C 0.19118 0.17172 0.62649 0.0
C1448 C 0.16296 0.15557 0.64056 0.0
C1449 C 0.16082 0.1822 0.65626 0.0
C1450 C 0.18459 0.22458 0.65783 0.0
C1451 C 0.2111 0.23997 0.6437 0.0
C1452 C 0.21567 0.21419 0.62848 0.0
C1453 C 0.2493 0.23828 0.61587 0.0
C1454 C 0.29218 0.20703 0.61221 0.0
C1455 C 0.22427 0.2522 0.59877 0.0
C1456 C 0.26267 0.2813 0.62653 0.0
C1457 C 0.23928 0.28157 0.64239 0.0
C1458 C 0.24564 0.31665 0.65477 0.0
C1459 C 0.27835 0.35163 0.65122 0.0
C1460 C 0.3048 0.35119 0.6355 0.0
C1461 C 0.29593 0.31622 0.62274 0.0
H1462 H 0.3405 0.30778 0.85765 0.0
H1463 H 0.33879 0.35826 0.91144 0.0
H1464 H 0.26507 0.31592 0.91667 0.0
H1465 H 0.2175 0.31535 0.84994 0.0
H1466 H 0.21396 0.2621 0.83732 0.0
H1467 H 0.26755 0.29545 0.83757 0.0
H1468 H 0.31382 0.22247 0.84821 0.0
H1469 H 0.26057 0.18866 0.84764 0.0
H1470 H 0.29453 0.19164 0.86757 0.0
H1471 H 0.1902 0.27219 0.91586 0.0
H1472 H 0.12377 0.21942 0.91049 0.0
H1473 H 0.17404 0.19459 0.85747 0.0
C1474 C 0.32499 0.30944 0.8706 0.0
C1475 C 0.34552 0.33654 0.88411 0.0
C1476 C 0.32395 0.33776 0.90086 0.0
C1477 C 0.28182 0.31409 0.90395 0.0
C1478 C 0.26183 0.28903 0.89021 0.0
C1479 C 0.283 0.28571 0.87397 0.0
C1480 C 0.2544 0.25541 0.86163 0.0
C1481 C 0.23735 0.28379 0.84567 0.0
C1482 C 0.2825 0.21196 0.85594 0.0
C1483 C 0.21389 0.24225 0.87353 0.0
C1484 C 0.21874 0.26261 0.88986 0.0
C1485 C 0.18611 0.25575 0.90316 0.0
C1486 C 0.14836 0.22578 0.89993 0.0
C1487 C 0.14368 0.20259 0.88357 0.0
C1488 C 0.17637 0.21197 0.87006 0.0
H1489 H 0.30975 0.16581 0.39685 0.0
H1490 H 0.32703 0.13927 0.3411 0.0
H1491 H 0.2789 0.20887 0.33436 0.0
H1492 H 0.18903 0.20754 0.39436 0.0
H1493 H 0.19783 0.25114 0.41112 0.0
H1494 H 0.23184 0.1979 0.41142 0.0
H1495 H 0.30817 0.24712 0.41163 0.0
H1496 H 0.27441 0.3005 0.41099 0.0
H1497 H 0.31814 0.28943 0.39443 0.0
H1498 H 0.23164 0.28336 0.33362 0.0
H1499 H 0.1827 0.35327 0.33902 0.0
H1500 H 0.19708 0.33136 0.39522 0.0
C1501 C 0.30282 0.17408 0.38321 0.0
C1502 C 0.32218 0.14686 0.36952 0.0
C1503 C 0.31254 0.15938 0.35185 0.0
C1504 C 0.2854 0.19902 0.34787 0.0
C1505 C 0.26805 0.2258 0.36167 0.0
C1506 C 0.27589 0.21358 0.37899 0.0
C1507 C 0.25356 0.24854 0.39137 0.0
C1508 C 0.21582 0.22486 0.40273 0.0
C1509 C 0.2908 0.27283 0.40277 0.0
C1510 C 0.23205 0.28237 0.3783 0.0
C1511 C 0.24096 0.26876 0.36125 0.0
C1512 C 0.22434 0.29433 0.34693 0.0
C1513 C 0.19678 0.33419 0.35014 0.0
C1514 C 0.18603 0.34804 0.36754 0.0
C1515 C 0.20477 0.32205 0.38175 0.0
H1516 H 0.67326 0.80411 0.85239 0.0
H1517 H 0.61032 0.75915 0.90147 0.0
H1518 H 0.67441 0.70275 0.90592 0.0
H1519 H 0.72019 0.68454 0.83998 0.0
H1520 H 0.77268 0.70924 0.83063 0.0
H1521 H 0.71852 0.74188 0.83001 0.0
H1522 H 0.76002 0.81127 0.84538 0.0
H1523 H 0.81393 0.77847 0.84649 0.0
H1524 H 0.78837 0.80184 0.86626 0.0
H1525 H 0.7496 0.66157 0.90776 0.0
H1526 H 0.82672 0.62462 0.9042 0.0
H1527 H 0.84182 0.69142 0.85319 0.0
C1528 C 0.67211 0.78102 0.86368 0.0
C1529 C 0.63684 0.78592 0.87659 0.0
C1530 C 0.63705 0.75596 0.89143 0.0
C1531 C 0.67336 0.72391 0.89412 0.0
C1532 C 0.709 0.72174 0.88173 0.0
C1533 C 0.70827 0.74836 0.86655 0.0
C1534 C 0.75236 0.74 0.85581 0.0
C1535 C 0.74021 0.71757 0.83805 0.0
C1536 C 0.7803 0.78562 0.85335 0.0
C1537 C 0.77831 0.70578 0.86764 0.0
C1538 C 0.75256 0.69615 0.88254 0.0
C1539 C 0.7698 0.66796 0.89598 0.0
C1540 C 0.81399 0.64755 0.8939 0.0
C1541 C 0.8404 0.65492 0.87838 0.0
C1542 C 0.82241 0.68493 0.86516 0.0
H1543 H 0.80325 0.82974 0.39642 0.0
H1544 H 0.81491 0.86003 0.34068 0.0
H1545 H 0.76317 0.79353 0.33409 0.0
H1546 H 0.80588 0.70644 0.39273 0.0
H1547 H 0.76332 0.69537 0.40971 0.0
H1548 H 0.79885 0.74745 0.41052 0.0
H1549 H 0.72423 0.79928 0.41185 0.0
H1550 H 0.68847 0.7473 0.41137 0.0
H1551 H 0.67964 0.79278 0.39525 0.0
H1552 H 0.71535 0.72151 0.33314 0.0
H1553 H 0.6663 0.65198 0.33803 0.0
H1554 H 0.68403 0.66756 0.39439 0.0
C1555 C 0.79412 0.82297 0.38286 0.0
C1556 C 0.81323 0.85012 0.36907 0.0
C1557 C 0.80086 0.83971 0.35148 0.0
C1558 C 0.77157 0.80192 0.34757 0.0
C1559 C 0.75469 0.77493 0.36139 0.0
C1560 C 0.76482 0.78522 0.37869 0.0
C1561 C 0.74246 0.74983 0.39097 0.0
C1562 C 0.77987 0.72321 0.40161 0.0
C1563 C 0.70656 0.77373 0.40307 0.0
C1564 C 0.71864 0.71796 0.37781 0.0
C1565 C 0.72642 0.73311 0.36084 0.0
C1566 C 0.70862 0.70943 0.34637 0.0
C1567 C 0.68094 0.66979 0.34931 0.0
C1568 C 0.67113 0.65424 0.3666 0.0
C1569 C 0.69095 0.67838 0.38101 0.0
H1570 H 0.65639 0.71518 0.12037 0.0
H1571 H 0.64282 0.67972 0.1756 0.0
H1572 H 0.7129 0.72758 0.18216 0.0
H1573 H 0.77881 0.70643 0.11847 0.0
H1574 H 0.78639 0.75456 0.10339 0.0
H1575 H 0.73279 0.72134 0.1032 0.0
H1576 H 0.68436 0.79721 0.108 0.0
H1577 H 0.73775 0.83083 0.10784 0.0
H1578 H 0.69824 0.83493 0.12623 0.0
H1579 H 0.78704 0.7762 0.18229 0.0
H1580 H 0.85637 0.82545 0.17635 0.0
H1581 H 0.82204 0.82578 0.12081 0.0
C1582 C 0.66741 0.71809 0.13393 0.0
C1583 C 0.64384 0.6938 0.1475 0.0
C1584 C 0.66004 0.69824 0.165 0.0
C1585 C 0.69995 0.72515 0.16883 0.0
C1586 C 0.72321 0.74725 0.15502 0.0
C1587 C 0.70723 0.74431 0.13795 0.0
C1588 C 0.73931 0.76986 0.12535 0.0
C1589 C 0.76057 0.73601 0.11181 0.0
C1590 C 0.71337 0.81063 0.11633 0.0
C1591 C 0.77614 0.78746 0.13798 0.0
C1592 C 0.76621 0.77421 0.15504 0.0
C1593 C 0.79507 0.78684 0.169 0.0
C1594 C 0.83449 0.81465 0.16546 0.0
C1595 C 0.84483 0.8293 0.1481 0.0
C1596 C 0.81551 0.81478 0.1342 0.0
H1597 H 0.81044 0.66225 0.61524 0.0
H1598 H 0.82766 0.6362 0.67112 0.0
H1599 H 0.77623 0.70305 0.67764 0.0
H1600 H 0.81102 0.78648 0.61744 0.0
H1601 H 0.76644 0.79516 0.60096 0.0
H1602 H 0.80319 0.74378 0.60028 0.0
H1603 H 0.72979 0.6904 0.60061 0.0
H1604 H 0.69278 0.74163 0.60102 0.0
H1605 H 0.68687 0.69735 0.61778 0.0
H1606 H 0.72785 0.77473 0.67844 0.0
H1607 H 0.67675 0.84278 0.67357 0.0
H1608 H 0.68777 0.82269 0.61716 0.0
C1609 C 0.80286 0.67018 0.62884 0.0
C1610 C 0.82329 0.64388 0.64265 0.0
C1611 C 0.81254 0.65562 0.66028 0.0
C1612 C 0.78348 0.69373 0.66415 0.0
C1613 C 0.76505 0.71961 0.65028 0.0
C1614 C 0.77356 0.70807 0.63298 0.0
C1615 C 0.74897 0.74194 0.62063 0.0
C1616 C 0.78454 0.7684 0.60915 0.0
C1617 C 0.71243 0.71629 0.60935 0.0
C1618 C 0.72574 0.77445 0.63375 0.0
C1619 C 0.7359 0.76094 0.65075 0.0
C1620 C 0.71926 0.78551 0.6652 0.0
C1621 C 0.69037 0.82434 0.66225 0.0
C1622 C 0.67799 0.8382 0.64496 0.0
C1623 C 0.69656 0.81314 0.63052 0.0
loop_
_geom_bond_atom_site_label_1
_geom_bond_atom_site_label_2
_geom_bond_distance
_geom_bond_site_symmetry_2
_ccdc_geom_bond_type
Co0 O3 1.970 . S
Co0 N17 1.989 . S
Co0 O25 1.967 . S
Co0 O32 1.920 . S
Co1 O4 1.966 . S
Co1 N10 2.022 . S
Co1 N18 1.993 . S
Co1 O26 1.941 . S
C2 O3 1.258 . S
C2 O4 1.263 . S
O3 Co0 1.970 . S
O3 C2 1.258 . S
O4 Co1 1.966 . S
O4 C2 1.263 . S
C5 O6 1.235 . S
C5 O32 1.289 . S
O6 C5 1.235 . S
C7 C9 1.400 . S
C7 N10 1.351 . S
C7 C12 1.501 1_545 S
C8 C9 1.387 . S
C8 N11 1.341 . S
C9 C7 1.400 . S
C9 C8 1.387 . S
N10 Co1 2.022 . S
N10 C7 1.351 . S
N10 N11 1.365 . S
N11 C8 1.341 . S
N11 N10 1.365 . S
N11 H31 0.862 . S
C12 C7 1.501 1_565 S
C12 H13 0.961 1_565 S
C12 H14 0.961 . S
C12 H15 0.960 . S
H13 C12 0.961 1_545 S
H14 C12 0.961 . S
H15 C12 0.960 . S
C16 N17 1.342 . S
C16 C20 1.401 . S
C16 C21 1.499 . S
N17 Co0 1.989 . S
N17 C16 1.342 . S
N17 N18 1.388 . S
N18 Co1 1.993 . S
N18 N17 1.388 . S
N18 C19 1.346 . S
C19 N18 1.346 . S
C19 C20 1.396 . S
C19 C29 1.510 . S
C20 C16 1.401 . S
C20 C19 1.396 . S
C21 C16 1.499 . S
C21 H22 0.959 . S
C21 H23 0.960 . S
C21 H24 0.961 . S
H22 C21 0.959 . S
H23 C21 0.960 . S
H24 C21 0.961 . S
O25 Co0 1.967 . S
O25 C33 1.258 . S
O26 Co1 1.941 . S
O26 C33 1.266 . S
H27 C29 0.959 . S
H28 C29 0.961 . S
C29 C19 1.510 . S
C29 H27 0.959 . S
C29 H28 0.961 . S
C29 H30 0.960 . S
H30 C29 0.960 . S
H31 N11 0.862 . S
O32 Co0 1.920 . S
O32 C5 1.289 . S
C33 O25 1.258 . S
C33 O26 1.266 . S
Co34 O37 1.970 . S
Co34 N51 1.989 . S
Co34 O59 1.967 . S
Co34 O66 1.920 . S
Co35 O38 1.966 . S
Co35 N44 2.022 . S
Co35 N52 1.993 . S
Co35 O60 1.941 . S
C36 O37 1.258 . S
C36 O38 1.263 . S
O37 Co34 1.970 . S
O37 C36 1.258 . S
O38 Co35 1.966 . S
O38 C36 1.263 . S
C39 O40 1.235 . S
C39 O66 1.289 . S
O40 C39 1.235 . S
C41 C43 1.400 . S
C41 N44 1.351 . S
C41 C46 1.501 . S
C42 C43 1.387 . S
C42 N45 1.341 . S
C43 C41 1.400 . S
C43 C42 1.387 . S
N44 Co35 2.022 . S
N44 C41 1.351 . S
N44 N45 1.365 . S
N45 C42 1.341 . S
N45 N44 1.365 . S
N45 H65 0.862 . S
C46 C41 1.501 . S
C46 H47 0.961 . S
C46 H48 0.961 . S
C46 H49 0.960 . S
H47 C46 0.961 . S
H48 C46 0.961 . S
H49 C46 0.960 . S
C50 N51 1.342 . S
C50 C54 1.401 . S
C50 C55 1.499 . S
N51 Co34 1.989 . S
N51 C50 1.342 . S
N51 N52 1.388 . S
N52 Co35 1.993 . S
N52 N51 1.388 . S
N52 C53 1.346 . S
C53 N52 1.346 . S
C53 C54 1.396 . S
C53 C63 1.510 . S
C54 C50 1.401 . S
C54 C53 1.396 . S
C55 C50 1.499 . S
C55 H56 0.959 . S
C55 H57 0.960 . S
C55 H58 0.961 . S
H56 C55 0.959 . S
H57 C55 0.960 . S
H58 C55 0.961 . S
O59 Co34 1.967 . S
O59 C67 1.258 . S
O60 Co35 1.941 . S
O60 C67 1.266 . S
H61 C63 0.959 . S
H62 C63 0.961 . S
C63 C53 1.510 . S
C63 H61 0.959 . S
C63 H62 0.961 . S
C63 H64 0.960 . S
H64 C63 0.960 . S
H65 N45 0.862 . S
O66 Co34 1.920 . S
O66 C39 1.289 . S
C67 O59 1.258 . S
C67 O60 1.266 . S
Co68 O71 1.970 . S
Co68 N85 1.989 . S
Co68 O93 1.967 . S
Co68 O100 1.920 . S
Co69 O72 1.966 . S
Co69 N78 2.022 . S
Co69 N86 1.993 . S
Co69 O94 1.941 . S
C70 O71 1.258 . S
C70 O72 1.263 . S
O71 Co68 1.970 . S
O71 C70 1.258 . S
O72 Co69 1.966 . S
O72 C70 1.263 . S
C73 O74 1.235 . S
C73 O100 1.289 . S
O74 C73 1.235 . S
C75 C77 1.400 . S
C75 N78 1.351 . S
C75 C80 1.501 . S
C76 C77 1.387 . S
C76 N79 1.341 . S
C77 C75 1.400 . S
C77 C76 1.387 . S
N78 Co69 2.022 . S
N78 C75 1.351 . S
N78 N79 1.365 . S
N79 C76 1.341 . S
N79 N78 1.365 . S
N79 H99 0.862 . S
C80 C75 1.501 . S
C80 H81 0.961 . S
C80 H82 0.961 . S
C80 H83 0.960 . S
H81 C80 0.961 . S
H82 C80 0.961 . S
H83 C80 0.960 . S
C84 N85 1.342 1_655 S
C84 C88 1.401 . S
C84 C89 1.499 . S
N85 Co68 1.989 . S
N85 C84 1.342 1_455 S
N85 N86 1.388 . S
N86 Co69 1.993 . S
N86 N85 1.388 . S
N86 C87 1.346 1_455 S
C87 N86 1.346 1_655 S
C87 C88 1.396 . S
C87 C97 1.510 . S
C88 C84 1.401 . S
C88 C87 1.396 . S
C89 C84 1.499 . S
C89 H90 0.953 1_655 S
C89 H91 0.960 . S
C89 H92 0.961 . S
H90 C89 0.953 1_455 S
H91 C89 0.960 . S
H92 C89 0.961 . S
O93 Co68 1.967 . S
O93 C101 1.258 . S
O94 Co69 1.941 . S
O94 C101 1.266 . S
H95 C97 0.959 . S
H96 C97 0.961 . S
C97 C87 1.510 . S
C97 H95 0.959 . S
C97 H96 0.961 . S
C97 H98 0.960 . S
H98 C97 0.960 . S
H99 N79 0.862 . S
O100 Co68 1.920 . S
O100 C73 1.289 . S
C101 O93 1.258 . S
C101 O94 1.266 . S
Co102 O105 1.970 . S
Co102 N119 1.989 . S
Co102 O127 1.967 . S
Co102 O134 1.920 . S
Co103 O106 1.966 . S
Co103 N112 2.022 . S
Co103 N120 1.993 . S
Co103 O128 1.941 . S
C104 O105 1.258 . S
C104 O106 1.263 . S
O105 Co102 1.970 . S
O105 C104 1.258 . S
O106 Co103 1.966 . S
O106 C104 1.263 . S
C107 O108 1.235 . S
C107 O134 1.289 . S
O108 C107 1.235 . S
C109 C111 1.400 . S
C109 N112 1.351 . S
C109 C114 1.501 1_455 S
C110 C111 1.387 . S
C110 N113 1.341 . S
C111 C109 1.400 . S
C111 C110 1.387 . S
N112 Co103 2.022 . S
N112 C109 1.351 . S
N112 N113 1.365 . S
N113 C110 1.341 . S
N113 N112 1.365 . S
N113 H133 0.862 . S
C114 C109 1.501 1_655 S
C114 H115 0.961 1_655 S
C114 H116 0.961 . S
C114 H117 0.960 . S
H115 C114 0.961 1_455 S
H116 C114 0.961 . S
H117 C114 0.960 . S
C118 N119 1.342 1_565 S
C118 C122 1.401 . S
C118 C123 1.499 . S
N119 Co102 1.989 . S
N119 C118 1.342 1_545 S
N119 N120 1.388 . S
N120 Co103 1.993 . S
N120 N119 1.388 . S
N120 C121 1.346 1_545 S
C121 N120 1.346 1_565 S
C121 C122 1.396 . S
C121 C131 1.510 . S
C122 C118 1.401 . S
C122 C121 1.396 . S
C123 C118 1.499 . S
C123 H124 0.953 1_565 S
C123 H125 0.960 . S
C123 H126 0.961 . S
H124 C123 0.953 1_545 S
H125 C123 0.960 . S
H126 C123 0.961 . S
O127 Co102 1.967 . S
O127 C135 1.258 . S
O128 Co103 1.941 . S
O128 C135 1.266 . S
H129 C131 0.959 . S
H130 C131 0.961 . S
C131 C121 1.510 . S
C131 H129 0.959 . S
C131 H130 0.961 . S
C131 H132 0.960 . S
H132 C131 0.960 . S
H133 N113 0.862 . S
O134 Co102 1.920 . S
O134 C107 1.289 . S
C135 O127 1.258 . S
C135 O128 1.266 . S
Co136 O139 1.970 . S
Co136 N153 1.989 . S
Co136 O161 1.967 . S
Co136 O168 1.920 . S
Co137 O140 1.966 . S
Co137 N146 2.022 . S
Co137 N154 1.993 . S
Co137 O162 1.941 . S
C138 O139 1.258 . S
C138 O140 1.263 . S
O139 Co136 1.970 . S
O139 C138 1.258 . S
O140 Co137 1.966 . S
O140 C138 1.263 . S
C141 O142 1.235 . S
C141 O168 1.289 . S
O142 C141 1.235 . S
C143 C145 1.400 . S
C143 N146 1.351 . S
C143 C148 1.501 . S
C144 C145 1.387 . S
C144 N147 1.341 . S
C145 C143 1.400 . S
C145 C144 1.387 . S
N146 Co137 2.022 . S
N146 C143 1.351 . S
N146 N147 1.365 . S
N147 C144 1.341 . S
N147 N146 1.365 . S
N147 H167 0.862 . S
C148 C143 1.501 . S
C148 H149 0.961 . S
C148 H150 0.961 . S
C148 H151 0.960 . S
H149 C148 0.961 . S
H150 C148 0.961 . S
H151 C148 0.960 . S
C152 N153 1.342 . S
C152 C156 1.401 . S
C152 C157 1.499 . S
N153 Co136 1.989 . S
N153 C152 1.342 . S
N153 N154 1.388 . S
N154 Co137 1.993 . S
N154 N153 1.388 . S
N154 C155 1.346 . S
C155 N154 1.346 . S
C155 C156 1.396 . S
C155 C165 1.510 . S
C156 C152 1.401 . S
C156 C155 1.396 . S
C157 C152 1.499 . S
C157 H158 0.959 . S
C157 H159 0.960 . S
C157 H160 0.961 . S
H158 C157 0.959 . S
H159 C157 0.960 . S
H160 C157 0.961 . S
O161 Co136 1.967 . S
O161 C169 1.258 . S
O162 Co137 1.941 . S
O162 C169 1.266 . S
H163 C165 0.959 . S
H164 C165 0.961 . S
C165 C155 1.510 . S
C165 H163 0.959 . S
C165 H164 0.961 . S
C165 H166 0.960 . S
H166 C165 0.960 . S
H167 N147 0.862 . S
O168 Co136 1.920 . S
O168 C141 1.289 . S
C169 O161 1.258 . S
C169 O162 1.266 . S
Co170 O173 1.970 . S
Co170 N187 1.989 . S
Co170 O195 1.967 . S
Co170 O202 1.920 . S
Co171 O174 1.966 . S
Co171 N180 2.022 . S
Co171 N188 1.993 . S
Co171 O196 1.941 . S
C172 O173 1.258 . S
C172 O174 1.263 . S
O173 Co170 1.970 . S
O173 C172 1.258 . S
O174 Co171 1.966 . S
O174 C172 1.263 . S
C175 O176 1.235 . S
C175 O202 1.289 . S
O176 C175 1.235 . S
C177 C179 1.400 . S
C177 N180 1.351 . S
C177 C182 1.501 1_455 S
C178 C179 1.387 . S
C178 N181 1.341 . S
C179 C177 1.400 . S
C179 C178 1.387 . S
N180 Co171 2.022 . S
N180 C177 1.351 . S
N180 N181 1.365 . S
N181 C178 1.341 . S
N181 N180 1.365 . S
N181 H201 0.862 . S
C182 C177 1.501 1_655 S
C182 H183 0.961 1_655 S
C182 H184 0.961 . S
C182 H185 0.960 . S
H183 C182 0.961 1_455 S
H184 C182 0.961 . S
H185 C182 0.960 . S
C186 N187 1.342 . S
C186 C190 1.401 . S
C186 C191 1.499 . S
N187 Co170 1.989 . S
N187 C186 1.342 . S
N187 N188 1.388 . S
N188 Co171 1.993 . S
N188 N187 1.388 . S
N188 C189 1.346 . S
C189 N188 1.346 . S
C189 C190 1.396 . S
C189 C199 1.510 . S
C190 C186 1.401 . S
C190 C189 1.396 . S
C191 C186 1.499 . S
C191 H192 0.959 . S
C191 H193 0.960 . S
C191 H194 0.961 . S
H192 C191 0.959 . S
H193 C191 0.960 . S
H194 C191 0.961 . S
O195 Co170 1.967 . S
O195 C203 1.258 . S
O196 Co171 1.941 . S
O196 C203 1.266 . S
H197 C199 0.959 . S
H198 C199 0.961 . S
C199 C189 1.510 . S
C199 H197 0.959 . S
C199 H198 0.961 . S
C199 H200 0.960 . S
H200 C199 0.960 . S
H201 N181 0.862 . S
O202 Co170 1.920 . S
O202 C175 1.289 . S
C203 O195 1.258 . S
C203 O196 1.266 . S
Co204 O207 1.970 . S
Co204 N221 1.989 . S
Co204 O229 1.967 . S
Co204 O236 1.920 . S
Co205 O208 1.966 . S
Co205 N214 2.022 . S
Co205 N222 1.993 . S
Co205 O230 1.941 . S
C206 O207 1.258 . S
C206 O208 1.263 . S
O207 Co204 1.970 . S
O207 C206 1.258 . S
O208 Co205 1.966 . S
O208 C206 1.263 . S
C209 O210 1.235 . S
C209 O236 1.289 . S
O210 C209 1.235 . S
C211 C213 1.400 . S
C211 N214 1.351 . S
C211 C216 1.501 1_545 S
C212 C213 1.387 . S
C212 N215 1.341 . S
C213 C211 1.400 . S
C213 C212 1.387 . S
N214 Co205 2.022 . S
N214 C211 1.351 . S
N214 N215 1.365 . S
N215 C212 1.341 . S
N215 N214 1.365 . S
N215 H235 0.862 . S
C216 C211 1.501 1_565 S
C216 H217 0.961 1_565 S
C216 H218 0.961 . S
C216 H219 0.960 . S
H217 C216 0.961 1_545 S
H218 C216 0.961 . S
H219 C216 0.960 . S
C220 N221 1.342 1_655 S
C220 C224 1.401 . S
C220 C225 1.499 . S
N221 Co204 1.989 . S
N221 C220 1.342 1_455 S
N221 N222 1.388 . S
N222 Co205 1.993 . S
N222 N221 1.388 . S
N222 C223 1.346 1_455 S
C223 N222 1.346 1_655 S
C223 C224 1.396 . S
C223 C233 1.510 . S
C224 C220 1.401 . S
C224 C223 1.396 . S
C225 C220 1.499 . S
C225 H226 0.953 1_655 S
C225 H227 0.960 . S
C225 H228 0.961 . S
H226 C225 0.953 1_455 S
H227 C225 0.960 . S
H228 C225 0.961 . S
O229 Co204 1.967 . S
O229 C237 1.258 . S
O230 Co205 1.941 . S
O230 C237 1.266 . S
H231 C233 0.959 . S
H232 C233 0.961 . S
C233 C223 1.510 . S
C233 H231 0.959 . S
C233 H232 0.961 . S
C233 H234 0.960 . S
H234 C233 0.960 . S
H235 N215 0.862 . S
O236 Co204 1.920 . S
O236 C209 1.289 . S
C237 O229 1.258 . S
C237 O230 1.266 . S
Co238 O241 1.970 . S
Co238 N255 1.989 . S
Co238 O263 1.967 . S
Co238 O270 1.920 . S
Co239 O242 1.966 . S
Co239 N248 2.022 . S
Co239 N256 1.993 . S
Co239 O264 1.941 . S
C240 O241 1.258 . S
C240 O242 1.263 . S
O241 Co238 1.970 . S
O241 C240 1.258 . S
O242 Co239 1.966 . S
O242 C240 1.263 . S
C243 O244 1.235 . S
C243 O270 1.289 . S
O244 C243 1.235 . S
C245 C247 1.400 . S
C245 N248 1.351 . S
C245 C250 1.501 . S
C246 C247 1.387 . S
C246 N249 1.341 . S
C247 C245 1.400 . S
C247 C246 1.387 . S
N248 Co239 2.022 . S
N248 C245 1.351 . S
N248 N249 1.365 . S
N249 C246 1.341 . S
N249 N248 1.365 . S
N249 H269 0.862 . S
C250 C245 1.501 . S
C250 H251 0.961 . S
C250 H252 0.961 . S
C250 H253 0.960 . S
H251 C250 0.961 . S
H252 C250 0.961 . S
H253 C250 0.960 . S
C254 N255 1.342 1_565 S
C254 C258 1.401 . S
C254 C259 1.499 . S
N255 Co238 1.989 . S
N255 C254 1.342 1_545 S
N255 N256 1.388 . S
N256 Co239 1.993 . S
N256 N255 1.388 . S
N256 C257 1.346 1_545 S
C257 N256 1.346 1_565 S
C257 C258 1.396 . S
C257 C267 1.510 . S
C258 C254 1.401 . S
C258 C257 1.396 . S
C259 C254 1.499 . S
C259 H260 0.953 1_565 S
C259 H261 0.960 . S
C259 H262 0.961 . S
H260 C259 0.953 1_545 S
H261 C259 0.960 . S
H262 C259 0.961 . S
O263 Co238 1.967 . S
O263 C271 1.258 . S
O264 Co239 1.941 . S
O264 C271 1.266 . S
H265 C267 0.959 . S
H266 C267 0.961 . S
C267 C257 1.510 . S
C267 H265 0.959 . S
C267 H266 0.961 . S
C267 H268 0.960 . S
H268 C267 0.960 . S
H269 N249 0.862 . S
O270 Co238 1.920 . S
O270 C243 1.289 . S
C271 O263 1.258 . S
C271 O264 1.266 . S
Co272 O275 1.970 . S
Co272 N289 1.989 . S
Co272 O297 1.967 . S
Co272 O304 1.920 . S
Co273 O276 1.966 . S
Co273 N282 2.022 . S
Co273 N290 1.993 . S
Co273 O298 1.941 . S
C274 O275 1.258 . S
C274 O276 1.263 . S
O275 Co272 1.970 . S
O275 C274 1.258 . S
O276 Co273 1.966 . S
O276 C274 1.263 . S
C277 O278 1.235 . S
C277 O304 1.289 . S
O278 C277 1.235 . S
C279 C281 1.400 . S
C279 N282 1.351 . S
C279 C284 1.501 1_565 S
C280 C281 1.387 . S
C280 N283 1.341 . S
C281 C279 1.400 . S
C281 C280 1.387 . S
N282 Co273 2.022 . S
N282 C279 1.351 . S
N282 N283 1.365 . S
N283 C280 1.341 . S
N283 N282 1.365 . S
N283 H303 0.862 . S
C284 C279 1.501 1_545 S
C284 H285 0.961 1_545 S
C284 H286 0.961 . S
C284 H287 0.960 . S
H285 C284 0.961 1_565 S
H286 C284 0.961 . S
H287 C284 0.960 . S
C288 N289 1.342 . S
C288 C292 1.401 . S
C288 C293 1.499 . S
N289 Co272 1.989 . S
N289 C288 1.342 . S
N289 N290 1.388 . S
N290 Co273 1.993 . S
N290 N289 1.388 . S
N290 C291 1.346 . S
C291 N290 1.346 . S
C291 C292 1.396 . S
C291 C301 1.510 . S
C292 C288 1.401 . S
C292 C291 1.396 . S
C293 C288 1.499 . S
C293 H294 0.959 . S
C293 H295 0.960 . S
C293 H296 0.961 . S
H294 C293 0.959 . S
H295 C293 0.960 . S
H296 C293 0.961 . S
O297 Co272 1.967 . S
O297 C305 1.258 . S
O298 Co273 1.941 . S
O298 C305 1.266 . S
H299 C301 0.959 . S
H300 C301 0.961 . S
C301 C291 1.510 . S
C301 H299 0.959 . S
C301 H300 0.961 . S
C301 H302 0.960 . S
H302 C301 0.960 . S
H303 N283 0.862 . S
O304 Co272 1.920 . S
O304 C277 1.289 . S
C305 O297 1.258 . S
C305 O298 1.266 . S
Co306 O309 1.970 . S
Co306 N323 1.989 . S
Co306 O331 1.967 . S
Co306 O338 1.920 . S
Co307 O310 1.966 . S
Co307 N316 2.022 . S
Co307 N324 1.993 . S
Co307 O332 1.941 . S
C308 O309 1.258 . S
C308 O310 1.263 . S
O309 Co306 1.970 . S
O309 C308 1.258 . S
O310 Co307 1.966 . S
O310 C308 1.263 . S
C311 O312 1.235 . S
C311 O338 1.289 . S
O312 C311 1.235 . S
C313 C315 1.400 . S
C313 N316 1.351 . S
C313 C318 1.501 . S
C314 C315 1.387 . S
C314 N317 1.341 . S
C315 C313 1.400 . S
C315 C314 1.387 . S
N316 Co307 2.022 . S
N316 C313 1.351 . S
N316 N317 1.365 . S
N317 C314 1.341 . S
N317 N316 1.365 . S
N317 H337 0.862 . S
C318 C313 1.501 . S
C318 H319 0.961 . S
C318 H320 0.961 . S
C318 H321 0.960 . S
H319 C318 0.961 . S
H320 C318 0.961 . S
H321 C318 0.960 . S
C322 N323 1.342 . S
C322 C326 1.401 . S
C322 C327 1.499 . S
N323 Co306 1.989 . S
N323 C322 1.342 . S
N323 N324 1.388 . S
N324 Co307 1.993 . S
N324 N323 1.388 . S
N324 C325 1.346 . S
C325 N324 1.346 . S
C325 C326 1.396 . S
C325 C335 1.510 . S
C326 C322 1.401 . S
C326 C325 1.396 . S
C327 C322 1.499 . S
C327 H328 0.959 . S
C327 H329 0.960 . S
C327 H330 0.961 . S
H328 C327 0.959 . S
H329 C327 0.960 . S
H330 C327 0.961 . S
O331 Co306 1.967 . S
O331 C339 1.258 . S
O332 Co307 1.941 . S
O332 C339 1.266 . S
H333 C335 0.959 . S
H334 C335 0.961 . S
C335 C325 1.510 . S
C335 H333 0.959 . S
C335 H334 0.961 . S
C335 H336 0.960 . S
H336 C335 0.960 . S
H337 N317 0.862 . S
O338 Co306 1.920 . S
O338 C311 1.289 . S
C339 O331 1.258 . S
C339 O332 1.266 . S
Co340 O343 1.970 . S
Co340 N357 1.989 . S
Co340 O365 1.967 . S
Co340 O372 1.920 . S
Co341 O344 1.966 . S
Co341 N350 2.022 . S
Co341 N358 1.993 . S
Co341 O366 1.941 . S
C342 O343 1.258 . S
C342 O344 1.263 . S
O343 Co340 1.970 . S
O343 C342 1.258 . S
O344 Co341 1.966 . S
O344 C342 1.263 . S
C345 O346 1.235 . S
C345 O372 1.289 . S
O346 C345 1.235 . S
C347 C349 1.400 . S
C347 N350 1.351 . S
C347 C352 1.501 . S
C348 C349 1.387 . S
C348 N351 1.341 . S
C349 C347 1.400 . S
C349 C348 1.387 . S
N350 Co341 2.022 . S
N350 C347 1.351 . S
N350 N351 1.365 . S
N351 C348 1.341 . S
N351 N350 1.365 . S
N351 H371 0.862 . S
C352 C347 1.501 . S
C352 H353 0.961 . S
C352 H354 0.961 . S
C352 H355 0.960 . S
H353 C352 0.961 . S
H354 C352 0.961 . S
H355 C352 0.960 . S
C356 N357 1.342 1_455 S
C356 C360 1.401 . S
C356 C361 1.499 . S
N357 Co340 1.989 . S
N357 C356 1.342 1_655 S
N357 N358 1.388 . S
N358 Co341 1.993 . S
N358 N357 1.388 . S
N358 C359 1.346 1_655 S
C359 N358 1.346 1_455 S
C359 C360 1.396 . S
C359 C369 1.510 . S
C360 C356 1.401 . S
C360 C359 1.396 . S
C361 C356 1.499 . S
C361 H362 0.953 1_455 S
C361 H363 0.960 . S
C361 H364 0.961 . S
H362 C361 0.953 1_655 S
H363 C361 0.960 . S
H364 C361 0.961 . S
O365 Co340 1.967 . S
O365 C373 1.258 . S
O366 Co341 1.941 . S
O366 C373 1.266 . S
H367 C369 0.959 . S
H368 C369 0.961 . S
C369 C359 1.510 . S
C369 H367 0.959 . S
C369 H368 0.961 . S
C369 H370 0.960 . S
H370 C369 0.960 . S
H371 N351 0.862 . S
O372 Co340 1.920 . S
O372 C345 1.289 . S
C373 O365 1.258 . S
C373 O366 1.266 . S
Co374 O377 1.970 . S
Co374 N391 1.989 . S
Co374 O399 1.967 . S
Co374 O406 1.920 . S
Co375 O378 1.966 . S
Co375 N384 2.022 . S
Co375 N392 1.993 . S
Co375 O400 1.941 . S
C376 O377 1.258 . S
C376 O378 1.263 . S
O377 Co374 1.970 . S
O377 C376 1.258 . S
O378 Co375 1.966 . S
O378 C376 1.263 . S
C379 O380 1.235 . S
C379 O406 1.289 . S
O380 C379 1.235 . S
C381 C383 1.400 . S
C381 N384 1.351 . S
C381 C386 1.501 1_655 S
C382 C383 1.387 . S
C382 N385 1.341 . S
C383 C381 1.400 . S
C383 C382 1.387 . S
N384 Co375 2.022 . S
N384 C381 1.351 . S
N384 N385 1.365 . S
N385 C382 1.341 . S
N385 N384 1.365 . S
N385 H405 0.862 . S
C386 C381 1.501 1_455 S
C386 H387 0.961 1_455 S
C386 H388 0.961 . S
C386 H389 0.960 . S
H387 C386 0.961 1_655 S
H388 C386 0.961 . S
H389 C386 0.960 . S
C390 N391 1.342 1_545 S
C390 C394 1.401 . S
C390 C395 1.499 . S
N391 Co374 1.989 . S
N391 C390 1.342 1_565 S
N391 N392 1.388 . S
N392 Co375 1.993 . S
N392 N391 1.388 . S
N392 C393 1.346 1_565 S
C393 N392 1.346 1_545 S
C393 C394 1.396 . S
C393 C403 1.510 . S
C394 C390 1.401 . S
C394 C393 1.396 . S
C395 C390 1.499 . S
C395 H396 0.953 1_545 S
C395 H397 0.960 . S
C395 H398 0.961 . S
H396 C395 0.953 1_565 S
H397 C395 0.960 . S
H398 C395 0.961 . S
O399 Co374 1.967 . S
O399 C407 1.258 . S
O400 Co375 1.941 . S
O400 C407 1.266 . S
H401 C403 0.959 . S
H402 C403 0.961 . S
C403 C393 1.510 . S
C403 H401 0.959 . S
C403 H402 0.961 . S
C403 H404 0.960 . S
H404 C403 0.960 . S
H405 N385 0.862 . S
O406 Co374 1.920 . S
O406 C379 1.289 . S
C407 O399 1.258 . S
C407 O400 1.266 . S
Co408 O411 1.970 . S
Co408 N425 1.989 . S
Co408 O433 1.967 . S
Co408 O440 1.920 . S
Co409 O412 1.966 . S
Co409 N418 2.022 . S
Co409 N426 1.993 . S
Co409 O434 1.941 . S
C410 O411 1.258 . S
C410 O412 1.263 . S
O411 Co408 1.970 . S
O411 C410 1.258 . S
O412 Co409 1.966 . S
O412 C410 1.263 . S
C413 O414 1.235 . S
C413 O440 1.289 . S
O414 C413 1.235 . S
C415 C417 1.400 . S
C415 N418 1.351 . S
C415 C420 1.501 . S
C416 C417 1.387 . S
C416 N419 1.341 . S
C417 C415 1.400 . S
C417 C416 1.387 . S
N418 Co409 2.022 . S
N418 C415 1.351 . S
N418 N419 1.365 . S
N419 C416 1.341 . S
N419 N418 1.365 . S
N419 H439 0.862 . S
C420 C415 1.501 . S
C420 H421 0.961 . S
C420 H422 0.961 . S
C420 H423 0.960 . S
H421 C420 0.961 . S
H422 C420 0.961 . S
H423 C420 0.960 . S
C424 N425 1.342 . S
C424 C428 1.401 . S
C424 C429 1.499 . S
N425 Co408 1.989 . S
N425 C424 1.342 . S
N425 N426 1.388 . S
N426 Co409 1.993 . S
N426 N425 1.388 . S
N426 C427 1.346 . S
C427 N426 1.346 . S
C427 C428 1.396 . S
C427 C437 1.510 . S
C428 C424 1.401 . S
C428 C427 1.396 . S
C429 C424 1.499 . S
C429 H430 0.959 . S
C429 H431 0.960 . S
C429 H432 0.961 . S
H430 C429 0.959 . S
H431 C429 0.960 . S
H432 C429 0.961 . S
O433 Co408 1.967 . S
O433 C441 1.258 . S
O434 Co409 1.941 . S
O434 C441 1.266 . S
H435 C437 0.959 . S
H436 C437 0.961 . S
C437 C427 1.510 . S
C437 H435 0.959 . S
C437 H436 0.961 . S
C437 H438 0.960 . S
H438 C437 0.960 . S
H439 N419 0.862 . S
O440 Co408 1.920 . S
O440 C413 1.289 . S
C441 O433 1.258 . S
C441 O434 1.266 . S
Co442 O445 1.970 . S
Co442 N459 1.989 . S
Co442 O467 1.967 . S
Co442 O474 1.920 . S
Co443 O446 1.966 . S
Co443 N452 2.022 . S
Co443 N460 1.993 . S
Co443 O468 1.941 . S
C444 O445 1.258 . S
C444 O446 1.263 . S
O445 Co442 1.970 . S
O445 C444 1.258 . S
O446 Co443 1.966 . S
O446 C444 1.263 . S
C447 O448 1.235 . S
C447 O474 1.289 . S
O448 C447 1.235 . S
C449 C451 1.400 . S
C449 N452 1.351 . S
C449 C454 1.501 1_655 S
C450 C451 1.387 . S
C450 N453 1.341 . S
C451 C449 1.400 . S
C451 C450 1.387 . S
N452 Co443 2.022 . S
N452 C449 1.351 . S
N452 N453 1.365 . S
N453 C450 1.341 . S
N453 N452 1.365 . S
N453 H473 0.862 . S
C454 C449 1.501 1_455 S
C454 H455 0.961 1_455 S
C454 H456 0.961 . S
C454 H457 0.960 . S
H455 C454 0.961 1_655 S
H456 C454 0.961 . S
H457 C454 0.960 . S
C458 N459 1.342 . S
C458 C462 1.401 . S
C458 C463 1.499 . S
N459 Co442 1.989 . S
N459 C458 1.342 . S
N459 N460 1.388 . S
N460 Co443 1.993 . S
N460 N459 1.388 . S
N460 C461 1.346 . S
C461 N460 1.346 . S
C461 C462 1.396 . S
C461 C471 1.510 . S
C462 C458 1.401 . S
C462 C461 1.396 . S
C463 C458 1.499 . S
C463 H464 0.959 . S
C463 H465 0.960 . S
C463 H466 0.961 . S
H464 C463 0.959 . S
H465 C463 0.960 . S
H466 C463 0.961 . S
O467 Co442 1.967 . S
O467 C475 1.258 . S
O468 Co443 1.941 . S
O468 C475 1.266 . S
H469 C471 0.959 . S
H470 C471 0.961 . S
C471 C461 1.510 . S
C471 H469 0.959 . S
C471 H470 0.961 . S
C471 H472 0.960 . S
H472 C471 0.960 . S
H473 N453 0.862 . S
O474 Co442 1.920 . S
O474 C447 1.289 . S
C475 O467 1.258 . S
C475 O468 1.266 . S
Co476 O479 1.970 . S
Co476 N493 1.989 . S
Co476 O501 1.967 . S
Co476 O508 1.920 . S
Co477 O480 1.966 . S
Co477 N486 2.022 . S
Co477 N494 1.993 . S
Co477 O502 1.941 . S
C478 O479 1.258 . S
C478 O480 1.263 . S
O479 Co476 1.970 . S
O479 C478 1.258 . S
O480 Co477 1.966 . S
O480 C478 1.263 . S
C481 O482 1.235 . S
C481 O508 1.289 . S
O482 C481 1.235 . S
C483 C485 1.400 . S
C483 N486 1.351 . S
C483 C488 1.501 1_565 S
C484 C485 1.387 . S
C484 N487 1.341 . S
C485 C483 1.400 . S
C485 C484 1.387 . S
N486 Co477 2.022 . S
N486 C483 1.351 . S
N486 N487 1.365 . S
N487 C484 1.341 . S
N487 N486 1.365 . S
N487 H507 0.862 . S
C488 C483 1.501 1_545 S
C488 H489 0.961 1_545 S
C488 H490 0.961 . S
C488 H491 0.960 . S
H489 C488 0.961 1_565 S
H490 C488 0.961 . S
H491 C488 0.960 . S
C492 N493 1.342 1_455 S
C492 C496 1.401 . S
C492 C497 1.499 . S
N493 Co476 1.989 . S
N493 C492 1.342 1_655 S
N493 N494 1.388 . S
N494 Co477 1.993 . S
N494 N493 1.388 . S
N494 C495 1.346 1_655 S
C495 N494 1.346 1_455 S
C495 C496 1.396 . S
C495 C505 1.510 . S
C496 C492 1.401 . S
C496 C495 1.396 . S
C497 C492 1.499 . S
C497 H498 0.953 1_455 S
C497 H499 0.960 . S
C497 H500 0.961 . S
H498 C497 0.953 1_655 S
H499 C497 0.960 . S
H500 C497 0.961 . S
O501 Co476 1.967 . S
O501 C509 1.258 . S
O502 Co477 1.941 . S
O502 C509 1.266 . S
H503 C505 0.959 . S
H504 C505 0.961 . S
C505 C495 1.510 . S
C505 H503 0.959 . S
C505 H504 0.961 . S
C505 H506 0.960 . S
H506 C505 0.960 . S
H507 N487 0.862 . S
O508 Co476 1.920 . S
O508 C481 1.289 . S
C509 O501 1.258 . S
C509 O502 1.266 . S
Co510 O513 1.970 . S
Co510 N527 1.989 . S
Co510 O535 1.967 . S
Co510 O542 1.920 . S
Co511 O514 1.966 . S
Co511 N520 2.022 . S
Co511 N528 1.993 . S
Co511 O536 1.941 . S
C512 O513 1.258 . S
C512 O514 1.263 . S
O513 Co510 1.970 . S
O513 C512 1.258 . S
O514 Co511 1.966 . S
O514 C512 1.263 . S
C515 O516 1.235 . S
C515 O542 1.289 . S
O516 C515 1.235 . S
C517 C519 1.400 . S
C517 N520 1.351 . S
C517 C522 1.501 . S
C518 C519 1.387 . S
C518 N521 1.341 . S
C519 C517 1.400 . S
C519 C518 1.387 . S
N520 Co511 2.022 . S
N520 C517 1.351 . S
N520 N521 1.365 . S
N521 C518 1.341 . S
N521 N520 1.365 . S
N521 H541 0.862 . S
C522 C517 1.501 . S
C522 H523 0.961 . S
C522 H524 0.961 . S
C522 H525 0.960 . S
H523 C522 0.961 . S
H524 C522 0.961 . S
H525 C522 0.960 . S
C526 N527 1.342 1_545 S
C526 C530 1.401 . S
C526 C531 1.499 . S
N527 Co510 1.989 . S
N527 C526 1.342 1_565 S
N527 N528 1.388 . S
N528 Co511 1.993 . S
N528 N527 1.388 . S
N528 C529 1.346 1_565 S
C529 N528 1.346 1_545 S
C529 C530 1.396 . S
C529 C539 1.510 . S
C530 C526 1.401 . S
C530 C529 1.396 . S
C531 C526 1.499 . S
C531 H532 0.953 1_545 S
C531 H533 0.960 . S
C531 H534 0.961 . S
H532 C531 0.953 1_565 S
H533 C531 0.960 . S
H534 C531 0.961 . S
O535 Co510 1.967 . S
O535 C543 1.258 . S
O536 Co511 1.941 . S
O536 C543 1.266 . S
H537 C539 0.959 . S
H538 C539 0.961 . S
C539 C529 1.510 . S
C539 H537 0.959 . S
C539 H538 0.961 . S
C539 H540 0.960 . S
H540 C539 0.960 . S
H541 N521 0.862 . S
O542 Co510 1.920 . S
O542 C515 1.289 . S
C543 O535 1.258 . S
C543 O536 1.266 . S
H544 C556 0.930 . S
H545 C558 0.930 . S
H546 C559 0.930 . S
H547 C563 0.959 1_545 S
H548 C563 0.959 . S
H549 C563 0.961 . S
H550 C564 0.960 . S
H551 C564 0.961 . S
H552 C564 0.959 . S
H553 C567 0.929 . S
H554 C568 0.931 . S
H555 C570 0.930 . S
C556 H544 0.930 . S
C556 C557 1.399 . S
C556 C561 1.399 . S
C557 C556 1.399 . S
C557 C558 1.376 . S
C558 H545 0.930 . S
C558 C557 1.376 . S
C558 C559 1.388 . S
C559 H546 0.930 . S
C559 C558 1.388 . S
C559 C560 1.390 . S
C560 C559 1.390 . S
C560 C561 1.394 . S
C560 C566 1.465 . S
C561 C556 1.399 . S
C561 C560 1.394 . S
C561 C562 1.516 . S
C562 C561 1.516 . S
C562 C563 1.502 1_545 S
C562 C564 1.561 1_545 S
C562 C565 1.526 . S
C563 H547 0.959 1_565 S
C563 H548 0.959 . S
C563 H549 0.961 . S
C563 C562 1.502 1_565 S
C564 H550 0.960 . S
C564 H551 0.961 . S
C564 H552 0.959 . S
C564 C562 1.561 1_565 S
C565 C562 1.526 . S
C565 C566 1.396 . S
C565 C570 1.390 . S
C566 C560 1.465 . S
C566 C565 1.396 . S
C566 C567 1.399 . S
C567 H553 0.929 . S
C567 C566 1.399 . S
C567 C568 1.385 . S
C568 H554 0.931 . S
C568 C567 1.385 . S
C568 C569 1.389 . S
C569 C568 1.389 . S
C569 C570 1.387 . S
C570 H555 0.930 . S
C570 C565 1.390 . S
C570 C569 1.387 . S
H571 C583 0.930 . S
H572 C585 0.930 . S
H573 C586 0.930 . S
H574 C590 0.959 . S
H575 C590 0.959 . S
H576 C590 0.961 . S
H577 C591 0.960 . S
H578 C591 0.961 . S
H579 C591 0.959 . S
H580 C594 0.929 . S
H581 C595 0.931 . S
H582 C597 0.930 . S
C583 H571 0.930 . S
C583 C584 1.399 . S
C583 C588 1.399 . S
C584 C583 1.399 . S
C584 C585 1.376 . S
C585 H572 0.930 . S
C585 C584 1.376 . S
C585 C586 1.388 . S
C586 H573 0.930 . S
C586 C585 1.388 . S
C586 C587 1.390 . S
C587 C586 1.390 . S
C587 C588 1.394 . S
C587 C593 1.465 . S
C588 C583 1.399 . S
C588 C587 1.394 . S
C588 C589 1.516 . S
C589 C588 1.516 . S
C589 C590 1.502 . S
C589 C591 1.561 . S
C589 C592 1.526 . S
C590 H574 0.959 . S
C590 H575 0.959 . S
C590 H576 0.961 . S
C590 C589 1.502 . S
C591 H577 0.960 . S
C591 H578 0.961 . S
C591 H579 0.959 . S
C591 C589 1.561 . S
C592 C589 1.526 . S
C592 C593 1.396 . S
C592 C597 1.390 . S
C593 C587 1.465 . S
C593 C592 1.396 . S
C593 C594 1.399 . S
C594 H580 0.929 . S
C594 C593 1.399 . S
C594 C595 1.385 . S
C595 H581 0.931 . S
C595 C594 1.385 . S
C595 C596 1.389 . S
C596 C595 1.389 . S
C596 C597 1.387 . S
C597 H582 0.930 . S
C597 C592 1.390 . S
C597 C596 1.387 . S
H598 C610 0.930 . S
H599 C612 0.930 . S
H600 C613 0.930 . S
H601 C617 0.959 . S
H602 C617 0.959 . S
H603 C617 0.961 . S
H604 C618 0.960 . S
H605 C618 0.961 . S
H606 C618 0.959 . S
H607 C621 0.929 . S
H608 C622 0.931 . S
H609 C624 0.930 . S
C610 H598 0.930 . S
C610 C611 1.399 . S
C610 C615 1.399 . S
C611 C610 1.399 . S
C611 C612 1.376 . S
C612 H599 0.930 . S
C612 C611 1.376 . S
C612 C613 1.388 . S
C613 H600 0.930 . S
C613 C612 1.388 . S
C613 C614 1.390 . S
C614 C613 1.390 . S
C614 C615 1.394 . S
C614 C620 1.465 . S
C615 C610 1.399 . S
C615 C614 1.394 . S
C615 C616 1.516 . S
C616 C615 1.516 . S
C616 C617 1.502 . S
C616 C618 1.561 . S
C616 C619 1.526 . S
C617 H601 0.959 . S
C617 H602 0.959 . S
C617 H603 0.961 . S
C617 C616 1.502 . S
C618 H604 0.960 . S
C618 H605 0.961 . S
C618 H606 0.959 . S
C618 C616 1.561 . S
C619 C616 1.526 . S
C619 C620 1.396 . S
C619 C624 1.390 . S
C620 C614 1.465 . S
C620 C619 1.396 . S
C620 C621 1.399 . S
C621 H607 0.929 . S
C621 C620 1.399 . S
C621 C622 1.385 . S
C622 H608 0.931 . S
C622 C621 1.385 . S
C622 C623 1.389 . S
C623 C622 1.389 . S
C623 C624 1.387 . S
C624 H609 0.930 . S
C624 C619 1.390 . S
C624 C623 1.387 . S
H625 C637 0.930 . S
H626 C639 0.930 1_565 S
H627 C640 0.930 1_565 S
H628 C644 0.959 1_655 S
H629 C644 0.959 . S
H630 C644 0.961 . S
H631 C645 0.960 . S
H632 C645 0.961 . S
H633 C645 0.959 . S
H634 C648 0.929 1_565 S
H635 C649 0.931 . S
H636 C651 0.930 . S
C637 H625 0.930 . S
C637 C638 1.399 . S
C637 C642 1.399 . S
C638 C637 1.399 . S
C638 C639 1.376 . S
C639 H626 0.930 1_545 S
C639 C638 1.376 . S
C639 C640 1.388 . S
C640 H627 0.930 1_545 S
C640 C639 1.388 . S
C640 C641 1.390 . S
C641 C640 1.390 . S
C641 C642 1.394 . S
C641 C647 1.465 . S
C642 C637 1.399 . S
C642 C641 1.394 . S
C642 C643 1.516 . S
C643 C642 1.516 . S
C643 C644 1.502 . S
C643 C645 1.561 . S
C643 C646 1.526 . S
C644 H628 0.959 1_455 S
C644 H629 0.959 . S
C644 H630 0.961 . S
C644 C643 1.502 . S
C645 H631 0.960 . S
C645 H632 0.961 . S
C645 H633 0.959 . S
C645 C643 1.561 . S
C646 C643 1.526 . S
C646 C647 1.396 . S
C646 C651 1.390 . S
C647 C641 1.465 . S
C647 C646 1.396 . S
C647 C648 1.399 . S
C648 H634 0.929 1_545 S
C648 C647 1.399 . S
C648 C649 1.385 . S
C649 H635 0.931 . S
C649 C648 1.385 . S
C649 C650 1.389 . S
C650 C649 1.389 . S
C650 C651 1.387 . S
C651 H636 0.930 . S
C651 C646 1.390 . S
C651 C650 1.387 . S
H652 C664 0.930 . S
H653 C666 0.930 1_545 S
H654 C667 0.930 1_545 S
H655 C671 0.959 . S
H656 C671 0.959 . S
H657 C671 0.961 . S
H658 C672 0.960 . S
H659 C672 0.961 . S
H660 C672 0.959 . S
H661 C675 0.929 1_545 S
H662 C676 0.931 . S
H663 C678 0.930 . S
C664 H652 0.930 . S
C664 C665 1.399 . S
C664 C669 1.399 . S
C665 C664 1.399 . S
C665 C666 1.376 . S
C666 H653 0.930 1_565 S
C666 C665 1.376 . S
C666 C667 1.388 . S
C667 H654 0.930 1_565 S
C667 C666 1.388 . S
C667 C668 1.390 . S
C668 C667 1.390 . S
C668 C669 1.394 . S
C668 C674 1.465 . S
C669 C664 1.399 . S
C669 C668 1.394 . S
C669 C670 1.516 . S
C670 C669 1.516 . S
C670 C671 1.502 . S
C670 C672 1.561 . S
C670 C673 1.526 . S
C671 H655 0.959 . S
C671 H656 0.959 . S
C671 H657 0.961 . S
C671 C670 1.502 . S
C672 H658 0.960 . S
C672 H659 0.961 . S
C672 H660 0.959 . S
C672 C670 1.561 . S
C673 C670 1.526 . S
C673 C674 1.396 . S
C673 C678 1.390 . S
C674 C668 1.465 . S
C674 C673 1.396 . S
C674 C675 1.399 . S
C675 H661 0.929 1_565 S
C675 C674 1.399 . S
C675 C676 1.385 . S
C676 H662 0.931 . S
C676 C675 1.385 . S
C676 C677 1.389 . S
C677 C676 1.389 . S
C677 C678 1.387 . S
C678 H663 0.930 . S
C678 C673 1.390 . S
C678 C677 1.387 . S
H679 C691 0.930 . S
H680 C693 0.930 . S
H681 C694 0.930 . S
H682 C698 0.959 . S
H683 C698 0.959 . S
H684 C698 0.961 . S
H685 C699 0.960 . S
H686 C699 0.961 . S
H687 C699 0.959 . S
H688 C702 0.929 . S
H689 C703 0.931 . S
H690 C705 0.930 . S
C691 H679 0.930 . S
C691 C692 1.399 . S
C691 C696 1.399 . S
C692 C691 1.399 . S
C692 C693 1.376 . S
C693 H680 0.930 . S
C693 C692 1.376 . S
C693 C694 1.388 . S
C694 H681 0.930 . S
C694 C693 1.388 . S
C694 C695 1.390 . S
C695 C694 1.390 . S
C695 C696 1.394 . S
C695 C701 1.465 . S
C696 C691 1.399 . S
C696 C695 1.394 . S
C696 C697 1.516 . S
C697 C696 1.516 . S
C697 C698 1.502 . S
C697 C699 1.561 . S
C697 C700 1.526 . S
C698 H682 0.959 . S
C698 H683 0.959 . S
C698 H684 0.961 . S
C698 C697 1.502 . S
C699 H685 0.960 . S
C699 H686 0.961 . S
C699 H687 0.959 . S
C699 C697 1.561 . S
C700 C697 1.526 . S
C700 C701 1.396 . S
C700 C705 1.390 . S
C701 C695 1.465 . S
C701 C700 1.396 . S
C701 C702 1.399 . S
C702 H688 0.929 . S
C702 C701 1.399 . S
C702 C703 1.385 . S
C703 H689 0.931 . S
C703 C702 1.385 . S
C703 C704 1.389 . S
C704 C703 1.389 . S
C704 C705 1.387 . S
C705 H690 0.930 . S
C705 C700 1.390 . S
C705 C704 1.387 . S
H706 C718 0.930 . S
H707 C720 0.930 . S
H708 C721 0.930 . S
H709 C725 0.959 1_455 S
H710 C725 0.958 1_455 S
H711 C725 0.961 1_455 S
H712 C726 0.960 . S
H713 C726 0.961 . S
H714 C726 0.959 . S
H715 C729 0.929 . S
H716 C730 0.931 . S
H717 C732 0.930 . S
C718 H706 0.930 . S
C718 C719 1.399 . S
C718 C723 1.399 . S
C719 C718 1.399 . S
C719 C720 1.376 . S
C720 H707 0.930 . S
C720 C719 1.376 . S
C720 C721 1.388 . S
C721 H708 0.930 . S
C721 C720 1.388 . S
C721 C722 1.390 . S
C722 C721 1.390 . S
C722 C723 1.394 . S
C722 C728 1.465 . S
C723 C718 1.399 . S
C723 C722 1.394 . S
C723 C724 1.516 . S
C724 C723 1.516 . S
C724 C725 1.502 . S
C724 C726 1.561 . S
C724 C727 1.526 . S
C725 H709 0.959 1_655 S
C725 H710 0.958 1_655 S
C725 H711 0.961 1_655 S
C725 C724 1.502 . S
C726 H712 0.960 . S
C726 H713 0.961 . S
C726 H714 0.959 . S
C726 C724 1.561 . S
C727 C724 1.526 . S
C727 C728 1.396 . S
C727 C732 1.390 . S
C728 C722 1.465 . S
C728 C727 1.396 . S
C728 C729 1.399 . S
C729 H715 0.929 . S
C729 C728 1.399 . S
C729 C730 1.385 . S
C730 H716 0.931 . S
C730 C729 1.385 . S
C730 C731 1.389 . S
C731 C730 1.389 . S
C731 C732 1.387 . S
C732 H717 0.930 . S
C732 C727 1.390 . S
C732 C731 1.387 . S
H733 C745 0.930 . S
H734 C747 0.930 . S
H735 C748 0.930 . S
H736 C752 0.959 1_565 S
H737 C752 0.959 . S
H738 C752 0.961 . S
H739 C753 0.960 . S
H740 C753 0.961 . S
H741 C753 0.959 . S
H742 C756 0.929 . S
H743 C757 0.931 . S
H744 C759 0.930 . S
C745 H733 0.930 . S
C745 C746 1.399 . S
C745 C750 1.399 . S
C746 C745 1.399 . S
C746 C747 1.376 . S
C747 H734 0.930 . S
C747 C746 1.376 . S
C747 C748 1.388 . S
C748 H735 0.930 . S
C748 C747 1.388 . S
C748 C749 1.390 . S
C749 C748 1.390 . S
C749 C750 1.394 . S
C749 C755 1.465 . S
C750 C745 1.399 . S
C750 C749 1.394 . S
C750 C751 1.516 . S
C751 C750 1.516 . S
C751 C752 1.502 1_565 S
C751 C753 1.561 1_565 S
C751 C754 1.526 . S
C752 H736 0.959 1_545 S
C752 H737 0.959 . S
C752 H738 0.961 . S
C752 C751 1.502 1_545 S
C753 H739 0.960 . S
C753 H740 0.961 . S
C753 H741 0.959 . S
C753 C751 1.561 1_545 S
C754 C751 1.526 . S
C754 C755 1.396 . S
C754 C759 1.390 . S
C755 C749 1.465 . S
C755 C754 1.396 . S
C755 C756 1.399 . S
C756 H742 0.929 . S
C756 C755 1.399 . S
C756 C757 1.385 . S
C757 H743 0.931 . S
C757 C756 1.385 . S
C757 C758 1.389 . S
C758 C757 1.389 . S
C758 C759 1.387 . S
C759 H744 0.930 . S
C759 C754 1.390 . S
C759 C758 1.387 . S
H760 C772 0.930 . S
H761 C774 0.930 . S
H762 C775 0.930 . S
H763 C779 0.959 . S
H764 C779 0.959 . S
H765 C779 0.961 . S
H766 C780 0.960 1_554 S
H767 C780 0.961 . S
H768 C780 0.959 . S
H769 C783 0.929 . S
H770 C784 0.931 . S
H771 C786 0.930 . S
C772 H760 0.930 . S
C772 C773 1.399 . S
C772 C777 1.399 . S
C773 C772 1.399 . S
C773 C774 1.376 1_545 S
C774 H761 0.930 . S
C774 C773 1.376 1_565 S
C774 C775 1.388 . S
C775 H762 0.930 . S
C775 C774 1.388 . S
C775 C776 1.390 . S
C776 C775 1.390 . S
C776 C777 1.394 1_565 S
C776 C782 1.465 1_554 S
C777 C772 1.399 . S
C777 C776 1.394 1_545 S
C777 C778 1.516 1_554 S
C778 C777 1.516 1_556 S
C778 C779 1.502 . S
C778 C780 1.561 . S
C778 C781 1.526 . S
C779 H763 0.959 . S
C779 H764 0.959 . S
C779 H765 0.961 . S
C779 C778 1.502 . S
C780 H766 0.960 1_556 S
C780 H767 0.961 . S
C780 H768 0.959 . S
C780 C778 1.561 . S
C781 C778 1.526 . S
C781 C782 1.396 1_545 S
C781 C786 1.390 . S
C782 C776 1.465 1_556 S
C782 C781 1.396 1_565 S
C782 C783 1.399 . S
C783 H769 0.929 . S
C783 C782 1.399 . S
C783 C784 1.385 . S
C784 H770 0.931 . S
C784 C783 1.385 . S
C784 C785 1.389 . S
C785 C784 1.389 . S
C785 C786 1.387 1_565 S
C786 H771 0.930 . S
C786 C781 1.390 . S
C786 C785 1.387 1_545 S
H787 C799 0.930 . S
H788 C801 0.930 . S
H789 C802 0.930 . S
H790 C806 0.959 . S
H791 C806 0.959 . S
H792 C806 0.961 . S
H793 C807 0.960 . S
H794 C807 0.961 . S
H795 C807 0.959 . S
H796 C810 0.929 . S
H797 C811 0.931 . S
H798 C813 0.930 . S
C799 H787 0.930 . S
C799 C800 1.399 . S
C799 C804 1.399 . S
C800 C799 1.399 . S
C800 C801 1.376 . S
C801 H788 0.930 . S
C801 C800 1.376 . S
C801 C802 1.388 . S
C802 H789 0.930 . S
C802 C801 1.388 . S
C802 C803 1.390 . S
C803 C802 1.390 . S
C803 C804 1.394 . S
C803 C809 1.465 . S
C804 C799 1.399 . S
C804 C803 1.394 . S
C804 C805 1.516 . S
C805 C804 1.516 . S
C805 C806 1.502 . S
C805 C807 1.561 . S
C805 C808 1.526 . S
C806 H790 0.959 . S
C806 H791 0.959 . S
C806 H792 0.961 . S
C806 C805 1.502 . S
C807 H793 0.960 . S
C807 H794 0.961 . S
C807 H795 0.959 . S
C807 C805 1.561 . S
C808 C805 1.526 . S
C808 C809 1.396 . S
C808 C813 1.390 . S
C809 C803 1.465 . S
C809 C808 1.396 . S
C809 C810 1.399 . S
C810 H796 0.929 . S
C810 C809 1.399 . S
C810 C811 1.385 . S
C811 H797 0.931 . S
C811 C810 1.385 . S
C811 C812 1.389 . S
C812 C811 1.389 . S
C812 C813 1.387 . S
C813 H798 0.930 . S
C813 C808 1.390 . S
C813 C812 1.387 . S
H814 C826 0.930 . S
H815 C828 0.930 . S
H816 C829 0.930 1_455 S
H817 C833 0.959 . S
H818 C833 0.959 . S
H819 C833 0.961 1_556 S
H820 C834 0.960 . S
H821 C834 1.007 . S
H822 C834 0.959 . S
H823 C837 0.929 . S
H824 C838 0.931 . S
H825 C840 0.930 . S
C826 H814 0.930 . S
C826 C827 1.399 . S
C826 C831 1.399 . S
C827 C826 1.399 . S
C827 C828 1.376 . S
C828 H815 0.930 . S
C828 C827 1.376 . S
C828 C829 1.388 . S
C829 H816 0.930 1_655 S
C829 C828 1.388 . S
C829 C830 1.389 1_655 S
C830 C829 1.389 1_455 S
C830 C831 1.391 1_455 S
C830 C836 1.468 1_556 S
C831 C826 1.399 . S
C831 C830 1.391 1_655 S
C831 C832 1.516 . S
C832 C831 1.516 . S
C832 C833 1.502 1_556 S
C832 C834 1.561 1_655 S
C832 C835 1.526 1_656 S
C833 H817 0.959 . S
C833 H818 0.959 . S
C833 H819 0.961 1_554 S
C833 C832 1.502 1_554 S
C834 H820 0.960 . S
C834 H821 1.007 . S
C834 H822 0.959 . S
C834 C832 1.561 1_455 S
C835 C832 1.526 1_454 S
C835 C836 1.396 . S
C835 C840 1.390 . S
C836 C830 1.468 1_554 S
C836 C835 1.396 . S
C836 C837 1.399 . S
C837 H823 0.929 . S
C837 C836 1.399 . S
C837 C838 1.385 . S
C838 H824 0.931 . S
C838 C837 1.385 . S
C838 C839 1.389 . S
C839 C838 1.389 . S
C839 C840 1.387 . S
C840 H825 0.930 . S
C840 C835 1.390 . S
C840 C839 1.387 . S
H841 C853 0.930 . S
H842 C855 0.930 . S
H843 C856 0.930 . S
H844 C860 0.959 1_545 S
H845 C860 0.959 . S
H846 C860 0.961 . S
H847 C861 0.960 . S
H848 C861 0.961 . S
H849 C861 0.959 . S
H850 C864 0.929 . S
H851 C865 0.931 . S
H852 C867 0.930 . S
C853 H841 0.930 . S
C853 C854 1.399 . S
C853 C858 1.405 . S
C854 C853 1.399 . S
C854 C855 1.376 1_455 S
C855 H842 0.930 . S
C855 C854 1.376 1_655 S
C855 C856 1.388 . S
C856 H843 0.930 . S
C856 C855 1.388 . S
C856 C857 1.390 . S
C857 C856 1.390 . S
C857 C858 1.400 1_655 S
C857 C863 1.465 1_545 S
C858 C853 1.405 . S
C858 C857 1.400 1_455 S
C858 C859 1.504 1_545 S
C859 C858 1.504 1_565 S
C859 C860 1.502 . S
C859 C861 1.561 . S
C859 C862 1.526 . S
C860 H844 0.959 1_565 S
C860 H845 0.959 . S
C860 H846 0.961 . S
C860 C859 1.502 . S
C861 H847 0.960 . S
C861 H848 0.961 . S
C861 H849 0.959 . S
C861 C859 1.561 . S
C862 C859 1.526 . S
C862 C863 1.396 1_455 S
C862 C867 1.390 . S
C863 C857 1.465 1_565 S
C863 C862 1.396 1_655 S
C863 C864 1.399 1_565 S
C864 H850 0.929 . S
C864 C863 1.399 1_545 S
C864 C865 1.385 1_545 S
C865 H851 0.931 . S
C865 C864 1.385 1_565 S
C865 C866 1.389 . S
C866 C865 1.389 . S
C866 C867 1.387 1_655 S
C867 H852 0.930 . S
C867 C862 1.390 . S
C867 C866 1.387 1_455 S
H868 C880 0.930 . S
H869 C882 0.930 . S
H870 C883 0.930 . S
H871 C887 0.959 . S
H872 C887 0.959 . S
H873 C887 0.961 1_554 S
H874 C888 0.960 . S
H875 C888 0.961 1_556 S
H876 C888 0.959 . S
H877 C891 0.929 . S
H878 C892 0.931 . S
H879 C894 0.930 . S
C880 H868 0.930 . S
C880 C881 1.399 . S
C880 C885 1.399 . S
C881 C880 1.399 . S
C881 C882 1.376 . S
C882 H869 0.930 . S
C882 C881 1.376 . S
C882 C883 1.388 . S
C883 H870 0.930 . S
C883 C882 1.388 . S
C883 C884 1.390 . S
C884 C883 1.390 . S
C884 C885 1.394 . S
C884 C890 1.465 1_554 S
C885 C880 1.399 . S
C885 C884 1.394 . S
C885 C886 1.510 1_554 S
C886 C885 1.510 1_556 S
C886 C887 1.504 . S
C886 C888 1.559 1_556 S
C886 C889 1.532 . S
C887 H871 0.959 . S
C887 H872 0.959 . S
C887 H873 0.961 1_556 S
C887 C886 1.504 . S
C888 H874 0.960 . S
C888 H875 0.961 1_554 S
C888 H876 0.959 . S
C888 C886 1.559 1_554 S
C889 C886 1.532 . S
C889 C890 1.396 . S
C889 C894 1.390 . S
C890 C884 1.465 1_556 S
C890 C889 1.396 . S
C890 C891 1.399 . S
C891 H877 0.929 . S
C891 C890 1.399 . S
C891 C892 1.385 . S
C892 H878 0.931 . S
C892 C891 1.385 . S
C892 C893 1.389 . S
C893 C892 1.389 . S
C893 C894 1.387 . S
C894 H879 0.930 . S
C894 C889 1.390 . S
C894 C893 1.387 . S
H895 C907 0.932 . S
H896 C909 0.930 . S
H897 C910 0.930 . S
H898 C914 0.959 . S
H899 C914 0.959 . S
H900 C914 0.961 . S
H901 C915 0.960 . S
H902 C915 0.961 . S
H903 C915 0.959 . S
H904 C918 0.929 . S
H905 C919 0.931 . S
H906 C921 0.930 . S
C907 H895 0.932 . S
C907 C908 1.397 1_455 S
C907 C912 1.399 . S
C908 C907 1.397 1_655 S
C908 C909 1.376 . S
C909 H896 0.930 . S
C909 C908 1.376 . S
C909 C910 1.388 . S
C910 H897 0.930 . S
C910 C909 1.388 . S
C910 C911 1.390 . S
C911 C910 1.390 . S
C911 C912 1.391 1_655 S
C911 C917 1.465 . S
C912 C907 1.399 . S
C912 C911 1.391 1_455 S
C912 C913 1.518 . S
C913 C912 1.518 . S
C913 C914 1.502 . S
C913 C915 1.561 1_455 S
C913 C916 1.526 . S
C914 H898 0.959 . S
C914 H899 0.959 . S
C914 H900 0.961 . S
C914 C913 1.502 . S
C915 H901 0.960 . S
C915 H902 0.961 . S
C915 H903 0.959 . S
C915 C913 1.561 1_655 S
C916 C913 1.526 . S
C916 C917 1.396 1_455 S
C916 C921 1.390 . S
C917 C911 1.465 . S
C917 C916 1.396 1_655 S
C917 C918 1.399 . S
C918 H904 0.929 . S
C918 C917 1.399 . S
C918 C919 1.385 . S
C919 H905 0.931 . S
C919 C918 1.385 . S
C919 C920 1.389 1_655 S
C920 C919 1.389 1_455 S
C920 C921 1.387 . S
C921 H906 0.930 . S
C921 C916 1.390 . S
C921 C920 1.387 . S
H922 C934 0.930 . S
H923 C936 0.930 . S
H924 C937 0.931 . S
H925 C941 0.959 . S
H926 C941 0.959 . S
H927 C941 0.961 . S
H928 C942 0.918 1_556 S
H929 C942 1.013 . S
H930 C942 0.942 1_556 S
H931 C945 0.929 . S
H932 C946 0.931 . S
H933 C948 0.930 . S
C934 H922 0.930 . S
C934 C935 1.399 . S
C934 C939 1.399 . S
C935 C934 1.399 . S
C935 C936 1.376 1_545 S
C936 H923 0.930 . S
C936 C935 1.376 1_565 S
C936 C937 1.387 1_455 S
C937 H924 0.931 . S
C937 C936 1.387 1_655 S
C937 C938 1.390 . S
C938 C937 1.390 . S
C938 C939 1.394 1_665 S
C938 C944 1.465 1_556 S
C939 C934 1.399 . S
C939 C938 1.394 1_445 S
C939 C940 1.516 1_556 S
C940 C939 1.516 1_554 S
C940 C941 1.502 . S
C940 C942 1.572 1_455 S
C940 C943 1.526 1_455 S
C941 H925 0.959 . S
C941 H926 0.959 . S
C941 H927 0.961 . S
C941 C940 1.502 . S
C942 H928 0.918 1_554 S
C942 H929 1.013 . S
C942 H930 0.942 1_554 S
C942 C940 1.572 1_655 S
C943 C940 1.526 1_655 S
C943 C944 1.396 1_545 S
C943 C948 1.390 . S
C944 C938 1.465 1_554 S
C944 C943 1.396 1_565 S
C944 C945 1.399 . S
C945 H931 0.929 . S
C945 C944 1.399 . S
C945 C946 1.385 . S
C946 H932 0.931 . S
C946 C945 1.385 . S
C946 C947 1.389 . S
C947 C946 1.389 . S
C947 C948 1.387 1_565 S
C948 H933 0.930 . S
C948 C943 1.390 . S
C948 C947 1.387 1_545 S
H949 C961 0.930 . S
H950 C963 0.930 . S
H951 C964 0.930 . S
H952 C968 0.943 1_565 S
H953 C968 0.970 . S
H954 C968 0.958 1_565 S
H955 C969 0.960 . S
H956 C969 0.961 . S
H957 C969 0.959 . S
H958 C972 0.929 1_565 S
H959 C973 0.931 . S
H960 C975 0.930 . S
C961 H949 0.930 . S
C961 C962 1.399 . S
C961 C966 1.399 . S
C962 C961 1.399 . S
C962 C963 1.376 . S
C963 H950 0.930 . S
C963 C962 1.376 . S
C963 C964 1.388 . S
C964 H951 0.930 . S
C964 C963 1.388 . S
C964 C965 1.390 . S
C965 C964 1.390 . S
C965 C966 1.394 . S
C965 C971 1.465 1_565 S
C966 C961 1.399 . S
C966 C965 1.394 . S
C966 C967 1.516 1_565 S
C967 C966 1.516 1_545 S
C967 C968 1.510 . S
C967 C969 1.561 . S
C967 C970 1.526 . S
C968 H952 0.943 1_545 S
C968 H953 0.970 . S
C968 H954 0.958 1_545 S
C968 C967 1.510 . S
C969 H955 0.960 . S
C969 H956 0.961 . S
C969 H957 0.959 . S
C969 C967 1.561 . S
C970 C967 1.526 . S
C970 C971 1.396 . S
C970 C975 1.390 . S
C971 C965 1.465 1_545 S
C971 C970 1.396 . S
C971 C972 1.399 . S
C972 H958 0.929 1_545 S
C972 C971 1.399 . S
C972 C973 1.385 . S
C973 H959 0.931 . S
C973 C972 1.385 . S
C973 C974 1.389 . S
C974 C973 1.389 . S
C974 C975 1.387 . S
C975 H960 0.930 . S
C975 C970 1.390 . S
C975 C974 1.387 . S
H976 C988 0.930 . S
H977 C990 0.930 1_565 S
H978 C991 0.930 . S
H979 C995 0.959 . S
H980 C995 0.959 . S
H981 C995 0.961 . S
H982 C996 0.960 . S
H983 C996 0.961 . S
H984 C996 0.959 . S
H985 C999 0.929 . S
H986 C1000 0.931 . S
H987 C1002 0.930 . S
C988 H976 0.930 . S
C988 C989 1.399 . S
C988 C993 1.399 . S
C989 C988 1.399 . S
C989 C990 1.376 . S
C990 H977 0.930 1_545 S
C990 C989 1.376 . S
C990 C991 1.388 1_545 S
C991 H978 0.930 . S
C991 C990 1.388 1_565 S
C991 C992 1.390 1_565 S
C992 C991 1.390 1_545 S
C992 C993 1.394 . S
C992 C998 1.465 1_545 S
C993 C988 1.399 . S
C993 C992 1.394 . S
C993 C994 1.516 . S
C994 C993 1.516 . S
C994 C995 1.502 . S
C994 C996 1.561 . S
C994 C997 1.526 . S
C995 H979 0.959 . S
C995 H980 0.959 . S
C995 H981 0.961 . S
C995 C994 1.502 . S
C996 H982 0.960 . S
C996 H983 0.961 . S
C996 H984 0.959 . S
C996 C994 1.561 . S
C997 C994 1.526 . S
C997 C998 1.396 1_545 S
C997 C1002 1.390 . S
C998 C992 1.465 1_565 S
C998 C997 1.396 1_565 S
C998 C999 1.399 . S
C999 H985 0.929 . S
C999 C998 1.399 . S
C999 C1000 1.385 . S
C1000 H986 0.931 . S
C1000 C999 1.385 . S
C1000 C1001 1.389 . S
C1001 C1000 1.389 . S
C1001 C1002 1.387 1_565 S
C1002 H987 0.930 . S
C1002 C997 1.390 . S
C1002 C1001 1.387 1_545 S
H1003 C1015 0.930 . S
H1004 C1017 0.930 . S
H1005 C1018 0.930 . S
H1006 C1022 0.959 . S
H1007 C1022 0.959 . S
H1008 C1022 0.961 . S
H1009 C1023 0.960 . S
H1010 C1023 0.961 . S
H1011 C1023 0.959 . S
H1012 C1026 0.929 . S
H1013 C1027 0.931 . S
H1014 C1029 0.930 . S
C1015 H1003 0.930 . S
C1015 C1016 1.399 . S
C1015 C1020 1.399 . S
C1016 C1015 1.399 . S
C1016 C1017 1.376 . S
C1017 H1004 0.930 . S
C1017 C1016 1.376 . S
C1017 C1018 1.388 . S
C1018 H1005 0.930 . S
C1018 C1017 1.388 . S
C1018 C1019 1.390 . S
C1019 C1018 1.390 . S
C1019 C1020 1.394 . S
C1019 C1025 1.465 . S
C1020 C1015 1.399 . S
C1020 C1019 1.394 . S
C1020 C1021 1.516 . S
C1021 C1020 1.516 . S
C1021 C1022 1.502 . S
C1021 C1023 1.561 . S
C1021 C1024 1.526 . S
C1022 H1006 0.959 . S
C1022 H1007 0.959 . S
C1022 H1008 0.961 . S
C1022 C1021 1.502 . S
C1023 H1009 0.960 . S
C1023 H1010 0.961 . S
C1023 H1011 0.959 . S
C1023 C1021 1.561 . S
C1024 C1021 1.526 . S
C1024 C1025 1.396 . S
C1024 C1029 1.390 . S
C1025 C1019 1.465 . S
C1025 C1024 1.396 . S
C1025 C1026 1.399 . S
C1026 H1012 0.929 . S
C1026 C1025 1.399 . S
C1026 C1027 1.385 . S
C1027 H1013 0.931 . S
C1027 C1026 1.385 . S
C1027 C1028 1.389 . S
C1028 C1027 1.389 . S
C1028 C1029 1.387 . S
C1029 H1014 0.930 . S
C1029 C1024 1.390 . S
C1029 C1028 1.387 . S
H1030 C1042 0.930 . S
H1031 C1044 0.930 . S
H1032 C1045 0.930 . S
H1033 C1049 0.959 . S
H1034 C1049 0.959 . S
H1035 C1049 0.961 . S
H1036 C1050 0.960 . S
H1037 C1050 0.961 . S
H1038 C1050 0.959 . S
H1039 C1053 0.929 . S
H1040 C1054 0.931 . S
H1041 C1056 0.930 . S
C1042 H1030 0.930 . S
C1042 C1043 1.399 . S
C1042 C1047 1.399 . S
C1043 C1042 1.399 . S
C1043 C1044 1.376 . S
C1044 H1031 0.930 . S
C1044 C1043 1.376 . S
C1044 C1045 1.388 . S
C1045 H1032 0.930 . S
C1045 C1044 1.388 . S
C1045 C1046 1.390 . S
C1046 C1045 1.390 . S
C1046 C1047 1.394 . S
C1046 C1052 1.465 . S
C1047 C1042 1.399 . S
C1047 C1046 1.394 . S
C1047 C1048 1.516 . S
C1048 C1047 1.516 . S
C1048 C1049 1.502 . S
C1048 C1050 1.561 . S
C1048 C1051 1.526 . S
C1049 H1033 0.959 . S
C1049 H1034 0.959 . S
C1049 H1035 0.961 . S
C1049 C1048 1.502 . S
C1050 H1036 0.960 . S
C1050 H1037 0.961 . S
C1050 H1038 0.959 . S
C1050 C1048 1.561 . S
C1051 C1048 1.526 . S
C1051 C1052 1.396 . S
C1051 C1056 1.390 . S
C1052 C1046 1.465 . S
C1052 C1051 1.396 . S
C1052 C1053 1.399 . S
C1053 H1039 0.929 . S
C1053 C1052 1.399 . S
C1053 C1054 1.385 . S
C1054 H1040 0.931 . S
C1054 C1053 1.385 . S
C1054 C1055 1.389 . S
C1055 C1054 1.389 . S
C1055 C1056 1.387 . S
C1056 H1041 0.930 . S
C1056 C1051 1.390 . S
C1056 C1055 1.387 . S
H1057 C1069 0.930 . S
H1058 C1071 0.930 . S
H1059 C1072 0.930 . S
H1060 C1076 0.959 . S
H1061 C1076 0.959 . S
H1062 C1076 0.961 . S
H1063 C1077 0.960 . S
H1064 C1077 0.961 . S
H1065 C1077 0.959 1_655 S
H1066 C1080 0.929 1_655 S
H1067 C1081 0.931 . S
H1068 C1083 0.930 . S
C1069 H1057 0.930 . S
C1069 C1070 1.399 1_455 S
C1069 C1074 1.399 . S
C1070 C1069 1.399 1_655 S
C1070 C1071 1.376 . S
C1071 H1058 0.930 . S
C1071 C1070 1.376 . S
C1071 C1072 1.388 . S
C1072 H1059 0.930 . S
C1072 C1071 1.388 . S
C1072 C1073 1.390 . S
C1073 C1072 1.390 . S
C1073 C1074 1.394 1_655 S
C1073 C1079 1.465 1_655 S
C1074 C1069 1.399 . S
C1074 C1073 1.394 1_455 S
C1074 C1075 1.516 . S
C1075 C1074 1.516 . S
C1075 C1076 1.502 . S
C1075 C1077 1.561 . S
C1075 C1078 1.526 . S
C1076 H1060 0.959 . S
C1076 H1061 0.959 . S
C1076 H1062 0.961 . S
C1076 C1075 1.502 . S
C1077 H1063 0.960 . S
C1077 H1064 0.961 . S
C1077 H1065 0.959 1_455 S
C1077 C1075 1.561 . S
C1078 C1075 1.526 . S
C1078 C1079 1.396 . S
C1078 C1083 1.390 . S
C1079 C1073 1.465 1_455 S
C1079 C1078 1.396 . S
C1079 C1080 1.399 . S
C1080 H1066 0.929 1_455 S
C1080 C1079 1.399 . S
C1080 C1081 1.385 . S
C1081 H1067 0.931 . S
C1081 C1080 1.385 . S
C1081 C1082 1.389 . S
C1082 C1081 1.389 . S
C1082 C1083 1.387 . S
C1083 H1068 0.930 . S
C1083 C1078 1.390 . S
C1083 C1082 1.387 . S
H1084 C1096 0.930 . S
H1085 C1098 0.930 . S
H1086 C1099 0.930 . S
H1087 C1103 0.959 . S
H1088 C1103 0.959 . S
H1089 C1103 0.961 . S
H1090 C1104 0.960 . S
H1091 C1104 0.961 . S
H1092 C1104 0.959 . S
H1093 C1107 0.929 . S
H1094 C1108 0.931 . S
H1095 C1110 0.930 . S
C1096 H1084 0.930 . S
C1096 C1097 1.399 . S
C1096 C1101 1.399 . S
C1097 C1096 1.399 . S
C1097 C1098 1.376 . S
C1098 H1085 0.930 . S
C1098 C1097 1.376 . S
C1098 C1099 1.388 . S
C1099 H1086 0.930 . S
C1099 C1098 1.388 . S
C1099 C1100 1.390 . S
C1100 C1099 1.390 . S
C1100 C1101 1.394 . S
C1100 C1106 1.465 . S
C1101 C1096 1.399 . S
C1101 C1100 1.394 . S
C1101 C1102 1.516 . S
C1102 C1101 1.516 . S
C1102 C1103 1.502 . S
C1102 C1104 1.561 . S
C1102 C1105 1.526 . S
C1103 H1087 0.959 . S
C1103 H1088 0.959 . S
C1103 H1089 0.961 . S
C1103 C1102 1.502 . S
C1104 H1090 0.960 . S
C1104 H1091 0.961 . S
C1104 H1092 0.959 . S
C1104 C1102 1.561 . S
C1105 C1102 1.526 . S
C1105 C1106 1.396 . S
C1105 C1110 1.390 . S
C1106 C1100 1.465 . S
C1106 C1105 1.396 . S
C1106 C1107 1.399 . S
C1107 H1093 0.929 . S
C1107 C1106 1.399 . S
C1107 C1108 1.385 . S
C1108 H1094 0.931 . S
C1108 C1107 1.385 . S
C1108 C1109 1.389 . S
C1109 C1108 1.389 . S
C1109 C1110 1.387 . S
C1110 H1095 0.930 . S
C1110 C1105 1.390 . S
C1110 C1109 1.387 . S
H1111 C1123 0.930 . S
H1112 C1125 0.930 . S
H1113 C1126 0.930 1_655 S
H1114 C1130 0.959 . S
H1115 C1130 0.959 . S
H1116 C1130 0.961 . S
H1117 C1131 0.960 1_455 S
H1118 C1131 0.961 . S
H1119 C1131 0.959 . S
H1120 C1134 0.929 . S
H1121 C1135 0.931 . S
H1122 C1137 0.930 . S
C1123 H1111 0.930 . S
C1123 C1124 1.399 . S
C1123 C1128 1.399 . S
C1124 C1123 1.399 . S
C1124 C1125 1.376 . S
C1125 H1112 0.930 . S
C1125 C1124 1.376 . S
C1125 C1126 1.388 . S
C1126 H1113 0.930 1_455 S
C1126 C1125 1.388 . S
C1126 C1127 1.390 . S
C1127 C1126 1.390 . S
C1127 C1128 1.394 . S
C1127 C1133 1.465 . S
C1128 C1123 1.399 . S
C1128 C1127 1.394 . S
C1128 C1129 1.516 . S
C1129 C1128 1.516 . S
C1129 C1130 1.502 . S
C1129 C1131 1.561 1_455 S
C1129 C1132 1.526 . S
C1130 H1114 0.959 . S
C1130 H1115 0.959 . S
C1130 H1116 0.961 . S
C1130 C1129 1.502 . S
C1131 H1117 0.960 1_655 S
C1131 H1118 0.961 . S
C1131 H1119 0.959 . S
C1131 C1129 1.561 1_655 S
C1132 C1129 1.526 . S
C1132 C1133 1.396 . S
C1132 C1137 1.390 . S
C1133 C1127 1.465 . S
C1133 C1132 1.396 . S
C1133 C1134 1.399 1_455 S
C1134 H1120 0.929 . S
C1134 C1133 1.399 1_655 S
C1134 C1135 1.385 . S
C1135 H1121 0.931 . S
C1135 C1134 1.385 . S
C1135 C1136 1.389 . S
C1136 C1135 1.389 . S
C1136 C1137 1.387 1_655 S
C1137 H1122 0.930 . S
C1137 C1132 1.390 . S
C1137 C1136 1.387 1_455 S
H1138 C1150 0.930 . S
H1139 C1152 0.930 . S
H1140 C1153 0.930 . S
H1141 C1157 0.959 . S
H1142 C1157 0.959 . S
H1143 C1157 0.961 . S
H1144 C1158 0.960 . S
H1145 C1158 0.961 . S
H1146 C1158 0.959 . S
H1147 C1161 0.929 . S
H1148 C1162 0.931 . S
H1149 C1164 0.930 . S
C1150 H1138 0.930 . S
C1150 C1151 1.399 . S
C1150 C1155 1.399 . S
C1151 C1150 1.399 . S
C1151 C1152 1.376 . S
C1152 H1139 0.930 . S
C1152 C1151 1.376 . S
C1152 C1153 1.388 . S
C1153 H1140 0.930 . S
C1153 C1152 1.388 . S
C1153 C1154 1.390 . S
C1154 C1153 1.390 . S
C1154 C1155 1.394 . S
C1154 C1160 1.465 . S
C1155 C1150 1.399 . S
C1155 C1154 1.394 . S
C1155 C1156 1.516 . S
C1156 C1155 1.516 . S
C1156 C1157 1.502 1_545 S
C1156 C1158 1.561 . S
C1156 C1159 1.526 . S
C1157 H1141 0.959 . S
C1157 H1142 0.959 . S
C1157 H1143 0.961 . S
C1157 C1156 1.502 1_565 S
C1158 H1144 0.960 . S
C1158 H1145 0.961 . S
C1158 H1146 0.959 . S
C1158 C1156 1.561 . S
C1159 C1156 1.526 . S
C1159 C1160 1.396 . S
C1159 C1164 1.390 1_545 S
C1160 C1154 1.465 . S
C1160 C1159 1.396 . S
C1160 C1161 1.399 . S
C1161 H1147 0.929 . S
C1161 C1160 1.399 . S
C1161 C1162 1.385 . S
C1162 H1148 0.931 . S
C1162 C1161 1.385 . S
C1162 C1163 1.389 1_545 S
C1163 C1162 1.389 1_565 S
C1163 C1164 1.387 . S
C1164 H1149 0.930 . S
C1164 C1159 1.390 1_565 S
C1164 C1163 1.387 . S
H1165 C1177 0.930 . S
H1166 C1179 0.930 . S
H1167 C1180 0.930 . S
H1168 C1184 0.959 . S
H1169 C1184 0.959 . S
H1170 C1184 0.961 . S
H1171 C1185 0.960 . S
H1172 C1185 0.961 . S
H1173 C1185 0.959 . S
H1174 C1188 0.929 . S
H1175 C1189 0.931 . S
H1176 C1191 0.930 . S
C1177 H1165 0.930 . S
C1177 C1178 1.399 . S
C1177 C1182 1.399 . S
C1178 C1177 1.399 . S
C1178 C1179 1.376 . S
C1179 H1166 0.930 . S
C1179 C1178 1.376 . S
C1179 C1180 1.388 . S
C1180 H1167 0.930 . S
C1180 C1179 1.388 . S
C1180 C1181 1.390 . S
C1181 C1180 1.390 . S
C1181 C1182 1.394 . S
C1181 C1187 1.465 . S
C1182 C1177 1.399 . S
C1182 C1181 1.394 . S
C1182 C1183 1.516 . S
C1183 C1182 1.516 . S
C1183 C1184 1.502 . S
C1183 C1185 1.561 . S
C1183 C1186 1.526 . S
C1184 H1168 0.959 . S
C1184 H1169 0.959 . S
C1184 H1170 0.961 . S
C1184 C1183 1.502 . S
C1185 H1171 0.960 . S
C1185 H1172 0.961 . S
C1185 H1173 0.959 . S
C1185 C1183 1.561 . S
C1186 C1183 1.526 . S
C1186 C1187 1.396 . S
C1186 C1191 1.390 . S
C1187 C1181 1.465 . S
C1187 C1186 1.396 . S
C1187 C1188 1.399 . S
C1188 H1174 0.929 . S
C1188 C1187 1.399 . S
C1188 C1189 1.385 . S
C1189 H1175 0.931 . S
C1189 C1188 1.385 . S
C1189 C1190 1.389 . S
C1190 C1189 1.389 . S
C1190 C1191 1.387 . S
C1191 H1176 0.930 . S
C1191 C1186 1.390 . S
C1191 C1190 1.387 . S
H1192 C1204 0.930 . S
H1193 C1206 0.930 . S
H1194 C1207 0.930 . S
H1195 C1211 0.959 . S
H1196 C1211 0.959 . S
H1197 C1211 0.961 . S
H1198 C1212 0.960 . S
H1199 C1212 0.961 . S
H1200 C1212 0.959 . S
H1201 C1215 0.929 . S
H1202 C1216 0.931 1_545 S
H1203 C1218 0.930 . S
C1204 H1192 0.930 . S
C1204 C1205 1.399 1_565 S
C1204 C1209 1.399 . S
C1205 C1204 1.399 1_545 S
C1205 C1206 1.376 . S
C1206 H1193 0.930 . S
C1206 C1205 1.376 . S
C1206 C1207 1.388 . S
C1207 H1194 0.930 . S
C1207 C1206 1.388 . S
C1207 C1208 1.390 . S
C1208 C1207 1.390 . S
C1208 C1209 1.394 1_545 S
C1208 C1214 1.465 1_545 S
C1209 C1204 1.399 . S
C1209 C1208 1.394 1_565 S
C1209 C1210 1.516 . S
C1210 C1209 1.516 . S
C1210 C1211 1.502 . S
C1210 C1212 1.561 . S
C1210 C1213 1.526 . S
C1211 H1195 0.959 . S
C1211 H1196 0.959 . S
C1211 H1197 0.961 . S
C1211 C1210 1.502 . S
C1212 H1198 0.960 . S
C1212 H1199 0.961 . S
C1212 H1200 0.959 . S
C1212 C1210 1.561 . S
C1213 C1210 1.526 . S
C1213 C1214 1.396 . S
C1213 C1218 1.390 . S
C1214 C1208 1.465 1_565 S
C1214 C1213 1.396 . S
C1214 C1215 1.399 1_565 S
C1215 H1201 0.929 . S
C1215 C1214 1.399 1_545 S
C1215 C1216 1.385 1_545 S
C1216 H1202 0.931 1_565 S
C1216 C1215 1.385 1_565 S
C1216 C1217 1.389 . S
C1217 C1216 1.389 . S
C1217 C1218 1.387 . S
C1218 H1203 0.930 . S
C1218 C1213 1.390 . S
C1218 C1217 1.387 . S
H1219 C1231 0.930 . S
H1220 C1233 0.930 . S
H1221 C1234 0.930 . S
H1222 C1238 0.959 . S
H1223 C1238 0.959 . S
H1224 C1238 0.961 . S
H1225 C1239 0.960 . S
H1226 C1239 0.961 . S
H1227 C1239 0.959 . S
H1228 C1242 0.929 . S
H1229 C1243 0.931 . S
H1230 C1245 0.930 . S
C1231 H1219 0.930 . S
C1231 C1232 1.399 . S
C1231 C1236 1.399 . S
C1232 C1231 1.399 . S
C1232 C1233 1.376 . S
C1233 H1220 0.930 . S
C1233 C1232 1.376 . S
C1233 C1234 1.388 . S
C1234 H1221 0.930 . S
C1234 C1233 1.388 . S
C1234 C1235 1.390 . S
C1235 C1234 1.390 . S
C1235 C1236 1.394 . S
C1235 C1241 1.465 . S
C1236 C1231 1.399 . S
C1236 C1235 1.394 . S
C1236 C1237 1.516 . S
C1237 C1236 1.516 . S
C1237 C1238 1.502 . S
C1237 C1239 1.561 . S
C1237 C1240 1.526 . S
C1238 H1222 0.959 . S
C1238 H1223 0.959 . S
C1238 H1224 0.961 . S
C1238 C1237 1.502 . S
C1239 H1225 0.960 . S
C1239 H1226 0.961 . S
C1239 H1227 0.959 . S
C1239 C1237 1.561 . S
C1240 C1237 1.526 . S
C1240 C1241 1.396 . S
C1240 C1245 1.390 . S
C1241 C1235 1.465 . S
C1241 C1240 1.396 . S
C1241 C1242 1.399 . S
C1242 H1228 0.929 . S
C1242 C1241 1.399 . S
C1242 C1243 1.385 . S
C1243 H1229 0.931 . S
C1243 C1242 1.385 . S
C1243 C1244 1.389 . S
C1244 C1243 1.389 . S
C1244 C1245 1.387 . S
C1245 H1230 0.930 . S
C1245 C1240 1.390 . S
C1245 C1244 1.387 . S
H1246 C1258 0.930 . S
H1247 C1260 0.930 . S
H1248 C1261 0.930 . S
H1249 C1265 0.959 . S
H1250 C1265 0.959 . S
H1251 C1265 0.961 . S
H1252 C1266 0.960 . S
H1253 C1266 0.961 . S
H1254 C1266 0.959 . S
H1255 C1269 0.929 . S
H1256 C1270 0.931 . S
H1257 C1272 0.930 . S
C1258 H1246 0.930 . S
C1258 C1259 1.399 . S
C1258 C1263 1.399 . S
C1259 C1258 1.399 . S
C1259 C1260 1.376 . S
C1260 H1247 0.930 . S
C1260 C1259 1.376 . S
C1260 C1261 1.388 . S
C1261 H1248 0.930 . S
C1261 C1260 1.388 . S
C1261 C1262 1.390 . S
C1262 C1261 1.390 . S
C1262 C1263 1.394 . S
C1262 C1268 1.465 . S
C1263 C1258 1.399 . S
C1263 C1262 1.394 . S
C1263 C1264 1.516 . S
C1264 C1263 1.516 . S
C1264 C1265 1.502 . S
C1264 C1266 1.561 . S
C1264 C1267 1.526 . S
C1265 H1249 0.959 . S
C1265 H1250 0.959 . S
C1265 H1251 0.961 . S
C1265 C1264 1.502 . S
C1266 H1252 0.960 . S
C1266 H1253 0.961 . S
C1266 H1254 0.959 . S
C1266 C1264 1.561 . S
C1267 C1264 1.526 . S
C1267 C1268 1.396 . S
C1267 C1272 1.390 . S
C1268 C1262 1.465 . S
C1268 C1267 1.396 . S
C1268 C1269 1.399 . S
C1269 H1255 0.929 . S
C1269 C1268 1.399 . S
C1269 C1270 1.385 . S
C1270 H1256 0.931 . S
C1270 C1269 1.385 . S
C1270 C1271 1.389 . S
C1271 C1270 1.389 . S
C1271 C1272 1.387 . S
C1272 H1257 0.930 . S
C1272 C1267 1.390 . S
C1272 C1271 1.387 . S
H1273 C1285 0.930 . S
H1274 C1287 0.930 . S
H1275 C1288 0.930 . S
H1276 C1292 0.959 . S
H1277 C1292 0.959 . S
H1278 C1292 0.961 . S
H1279 C1293 0.960 . S
H1280 C1293 0.961 . S
H1281 C1293 0.959 . S
H1282 C1296 0.929 . S
H1283 C1297 0.931 . S
H1284 C1299 0.930 . S
C1285 H1273 0.930 . S
C1285 C1286 1.399 1_655 S
C1285 C1290 1.399 . S
C1286 C1285 1.399 1_455 S
C1286 C1287 1.376 . S
C1287 H1274 0.930 . S
C1287 C1286 1.376 . S
C1287 C1288 1.388 . S
C1288 H1275 0.930 . S
C1288 C1287 1.388 . S
C1288 C1289 1.390 1_455 S
C1289 C1288 1.390 1_655 S
C1289 C1290 1.394 . S
C1289 C1295 1.465 . S
C1290 C1285 1.399 . S
C1290 C1289 1.394 . S
C1290 C1291 1.516 . S
C1291 C1290 1.516 . S
C1291 C1292 1.502 . S
C1291 C1293 1.561 1_655 S
C1291 C1294 1.526 . S
C1292 H1276 0.959 . S
C1292 H1277 0.959 . S
C1292 H1278 0.961 . S
C1292 C1291 1.502 . S
C1293 H1279 0.960 . S
C1293 H1280 0.961 . S
C1293 H1281 0.959 . S
C1293 C1291 1.561 1_455 S
C1294 C1291 1.526 . S
C1294 C1295 1.396 . S
C1294 C1299 1.390 . S
C1295 C1289 1.465 . S
C1295 C1294 1.396 . S
C1295 C1296 1.399 . S
C1296 H1282 0.929 . S
C1296 C1295 1.399 . S
C1296 C1297 1.385 . S
C1297 H1283 0.931 . S
C1297 C1296 1.385 . S
C1297 C1298 1.389 . S
C1298 C1297 1.389 . S
C1298 C1299 1.387 . S
C1299 H1284 0.930 . S
C1299 C1294 1.390 . S
C1299 C1298 1.387 . S
H1300 C1312 0.930 . S
H1301 C1314 0.930 . S
H1302 C1315 0.930 . S
H1303 C1319 0.959 . S
H1304 C1319 0.959 . S
H1305 C1319 0.961 . S
H1306 C1320 0.960 . S
H1307 C1320 0.961 . S
H1308 C1320 0.959 . S
H1309 C1323 0.929 . S
H1310 C1324 0.931 . S
H1311 C1326 0.930 . S
C1312 H1300 0.930 . S
C1312 C1313 1.399 . S
C1312 C1317 1.399 . S
C1313 C1312 1.399 . S
C1313 C1314 1.376 . S
C1314 H1301 0.930 . S
C1314 C1313 1.376 . S
C1314 C1315 1.388 . S
C1315 H1302 0.930 . S
C1315 C1314 1.388 . S
C1315 C1316 1.390 . S
C1316 C1315 1.390 . S
C1316 C1317 1.394 . S
C1316 C1322 1.465 . S
C1317 C1312 1.399 . S
C1317 C1316 1.394 . S
C1317 C1318 1.516 . S
C1318 C1317 1.516 . S
C1318 C1319 1.502 . S
C1318 C1320 1.561 . S
C1318 C1321 1.526 . S
C1319 H1303 0.959 . S
C1319 H1304 0.959 . S
C1319 H1305 0.961 . S
C1319 C1318 1.502 . S
C1320 H1306 0.960 . S
C1320 H1307 0.961 . S
C1320 H1308 0.959 . S
C1320 C1318 1.561 . S
C1321 C1318 1.526 . S
C1321 C1322 1.396 . S
C1321 C1326 1.390 . S
C1322 C1316 1.465 . S
C1322 C1321 1.396 . S
C1322 C1323 1.399 . S
C1323 H1309 0.929 . S
C1323 C1322 1.399 . S
C1323 C1324 1.385 . S
C1324 H1310 0.931 . S
C1324 C1323 1.385 . S
C1324 C1325 1.389 . S
C1325 C1324 1.389 . S
C1325 C1326 1.387 . S
C1326 H1311 0.930 . S
C1326 C1321 1.390 . S
C1326 C1325 1.387 . S
H1327 C1339 0.930 . S
H1328 C1341 0.930 . S
H1329 C1342 0.930 . S
H1330 C1346 0.959 . S
H1331 C1346 0.959 . S
H1332 C1346 0.961 . S
H1333 C1347 0.960 . S
H1334 C1347 0.961 . S
H1335 C1347 0.959 . S
H1336 C1350 0.929 . S
H1337 C1351 0.931 . S
H1338 C1353 0.930 . S
C1339 H1327 0.930 . S
C1339 C1340 1.399 . S
C1339 C1344 1.399 1_455 S
C1340 C1339 1.399 . S
C1340 C1341 1.376 1_455 S
C1341 H1328 0.930 . S
C1341 C1340 1.376 1_655 S
C1341 C1342 1.388 . S
C1342 H1329 0.930 . S
C1342 C1341 1.388 . S
C1342 C1343 1.390 . S
C1343 C1342 1.390 . S
C1343 C1344 1.394 . S
C1343 C1349 1.465 . S
C1344 C1339 1.399 1_655 S
C1344 C1343 1.394 . S
C1344 C1345 1.516 . S
C1345 C1344 1.516 . S
C1345 C1346 1.502 1_655 S
C1345 C1347 1.561 . S
C1345 C1348 1.526 . S
C1346 H1330 0.959 . S
C1346 H1331 0.959 . S
C1346 H1332 0.961 . S
C1346 C1345 1.502 1_455 S
C1347 H1333 0.960 . S
C1347 H1334 0.961 . S
C1347 H1335 0.959 . S
C1347 C1345 1.561 . S
C1348 C1345 1.526 . S
C1348 C1349 1.396 . S
C1348 C1353 1.390 . S
C1349 C1343 1.465 . S
C1349 C1348 1.396 . S
C1349 C1350 1.399 . S
C1350 H1336 0.929 . S
C1350 C1349 1.399 . S
C1350 C1351 1.385 . S
C1351 H1337 0.931 . S
C1351 C1350 1.385 . S
C1351 C1352 1.389 . S
C1352 C1351 1.389 . S
C1352 C1353 1.387 . S
C1353 H1338 0.930 . S
C1353 C1348 1.390 . S
C1353 C1352 1.387 . S
H1354 C1366 0.932 . S
H1355 C1368 0.930 . S
H1356 C1369 0.930 . S
H1357 C1373 0.959 . S
H1358 C1373 0.959 . S
H1359 C1373 0.961 . S
H1360 C1374 0.960 . S
H1361 C1374 0.961 . S
H1362 C1374 0.959 1_565 S
H1363 C1377 0.929 . S
H1364 C1378 0.931 . S
H1365 C1380 0.930 . S
C1366 H1354 0.932 . S
C1366 C1367 1.399 . S
C1366 C1371 1.399 . S
C1367 C1366 1.399 . S
C1367 C1368 1.376 . S
C1368 H1355 0.930 . S
C1368 C1367 1.376 . S
C1368 C1369 1.388 . S
C1369 H1356 0.930 . S
C1369 C1368 1.388 . S
C1369 C1370 1.390 . S
C1370 C1369 1.390 . S
C1370 C1371 1.394 . S
C1370 C1376 1.465 . S
C1371 C1366 1.399 . S
C1371 C1370 1.394 . S
C1371 C1372 1.516 1_565 S
C1372 C1371 1.516 1_545 S
C1372 C1373 1.502 . S
C1372 C1374 1.561 . S
C1372 C1375 1.526 . S
C1373 H1357 0.959 . S
C1373 H1358 0.959 . S
C1373 H1359 0.961 . S
C1373 C1372 1.502 . S
C1374 H1360 0.960 . S
C1374 H1361 0.961 . S
C1374 H1362 0.959 1_545 S
C1374 C1372 1.561 . S
C1375 C1372 1.526 . S
C1375 C1376 1.396 1_545 S
C1375 C1380 1.390 . S
C1376 C1370 1.465 . S
C1376 C1375 1.396 1_565 S
C1376 C1377 1.399 . S
C1377 H1363 0.929 . S
C1377 C1376 1.399 . S
C1377 C1378 1.385 . S
C1378 H1364 0.931 . S
C1378 C1377 1.385 . S
C1378 C1379 1.389 1_565 S
C1379 C1378 1.389 1_545 S
C1379 C1380 1.387 . S
C1380 H1365 0.930 . S
C1380 C1375 1.390 . S
C1380 C1379 1.387 . S
H1381 C1393 0.930 . S
H1382 C1395 0.930 . S
H1383 C1396 0.930 . S
H1384 C1400 0.959 . S
H1385 C1400 0.959 . S
H1386 C1400 0.961 . S
H1387 C1401 0.960 . S
H1388 C1401 0.961 . S
H1389 C1401 0.959 . S
H1390 C1404 0.929 . S
H1391 C1405 0.931 . S
H1392 C1407 0.930 . S
C1393 H1381 0.930 . S
C1393 C1394 1.399 . S
C1393 C1398 1.399 . S
C1394 C1393 1.399 . S
C1394 C1395 1.376 . S
C1395 H1382 0.930 . S
C1395 C1394 1.376 . S
C1395 C1396 1.388 . S
C1396 H1383 0.930 . S
C1396 C1395 1.388 . S
C1396 C1397 1.390 . S
C1397 C1396 1.390 . S
C1397 C1398 1.394 . S
C1397 C1403 1.465 . S
C1398 C1393 1.399 . S
C1398 C1397 1.394 . S
C1398 C1399 1.516 . S
C1399 C1398 1.516 . S
C1399 C1400 1.502 . S
C1399 C1401 1.561 . S
C1399 C1402 1.526 . S
C1400 H1384 0.959 . S
C1400 H1385 0.959 . S
C1400 H1386 0.961 . S
C1400 C1399 1.502 . S
C1401 H1387 0.960 . S
C1401 H1388 0.961 . S
C1401 H1389 0.959 . S
C1401 C1399 1.561 . S
C1402 C1399 1.526 . S
C1402 C1403 1.396 . S
C1402 C1407 1.390 . S
C1403 C1397 1.465 . S
C1403 C1402 1.396 . S
C1403 C1404 1.399 . S
C1404 H1390 0.929 . S
C1404 C1403 1.399 . S
C1404 C1405 1.385 . S
C1405 H1391 0.931 . S
C1405 C1404 1.385 . S
C1405 C1406 1.389 . S
C1406 C1405 1.389 . S
C1406 C1407 1.387 . S
C1407 H1392 0.930 . S
C1407 C1402 1.390 . S
C1407 C1406 1.387 . S
H1408 C1420 0.930 . S
H1409 C1422 0.930 . S
H1410 C1423 0.930 . S
H1411 C1427 0.959 . S
H1412 C1427 0.959 . S
H1413 C1427 0.961 . S
H1414 C1428 0.960 . S
H1415 C1428 0.961 . S
H1416 C1428 0.959 . S
H1417 C1431 0.929 . S
H1418 C1432 0.931 . S
H1419 C1434 0.930 . S
C1420 H1408 0.930 . S
C1420 C1421 1.399 . S
C1420 C1425 1.399 . S
C1421 C1420 1.399 . S
C1421 C1422 1.376 . S
C1422 H1409 0.930 . S
C1422 C1421 1.376 . S
C1422 C1423 1.388 . S
C1423 H1410 0.930 . S
C1423 C1422 1.388 . S
C1423 C1424 1.390 . S
C1424 C1423 1.390 . S
C1424 C1425 1.394 . S
C1424 C1430 1.465 . S
C1425 C1420 1.399 . S
C1425 C1424 1.394 . S
C1425 C1426 1.516 . S
C1426 C1425 1.516 . S
C1426 C1427 1.502 . S
C1426 C1428 1.561 . S
C1426 C1429 1.526 . S
C1427 H1411 0.959 . S
C1427 H1412 0.959 . S
C1427 H1413 0.961 . S
C1427 C1426 1.502 . S
C1428 H1414 0.960 . S
C1428 H1415 0.961 . S
C1428 H1416 0.959 . S
C1428 C1426 1.561 . S
C1429 C1426 1.526 . S
C1429 C1430 1.396 . S
C1429 C1434 1.390 . S
C1430 C1424 1.465 . S
C1430 C1429 1.396 . S
C1430 C1431 1.399 . S
C1431 H1417 0.929 . S
C1431 C1430 1.399 . S
C1431 C1432 1.385 . S
C1432 H1418 0.931 . S
C1432 C1431 1.385 . S
C1432 C1433 1.389 . S
C1433 C1432 1.389 . S
C1433 C1434 1.387 . S
C1434 H1419 0.930 . S
C1434 C1429 1.390 . S
C1434 C1433 1.387 . S
H1435 C1447 0.930 . S
H1436 C1449 0.930 . S
H1437 C1450 0.930 . S
H1438 C1454 0.959 . S
H1439 C1454 0.959 . S
H1440 C1454 0.961 . S
H1441 C1455 0.960 . S
H1442 C1455 0.961 . S
H1443 C1455 0.959 . S
H1444 C1458 0.929 . S
H1445 C1459 0.931 . S
H1446 C1461 0.930 . S
C1447 H1435 0.930 . S
C1447 C1448 1.399 . S
C1447 C1452 1.399 . S
C1448 C1447 1.399 . S
C1448 C1449 1.376 . S
C1449 H1436 0.930 . S
C1449 C1448 1.376 . S
C1449 C1450 1.388 . S
C1450 H1437 0.930 . S
C1450 C1449 1.388 . S
C1450 C1451 1.390 . S
C1451 C1450 1.390 . S
C1451 C1452 1.394 . S
C1451 C1457 1.465 . S
C1452 C1447 1.399 . S
C1452 C1451 1.394 . S
C1452 C1453 1.516 . S
C1453 C1452 1.516 . S
C1453 C1454 1.502 . S
C1453 C1455 1.561 . S
C1453 C1456 1.526 . S
C1454 H1438 0.959 . S
C1454 H1439 0.959 . S
C1454 H1440 0.961 . S
C1454 C1453 1.502 . S
C1455 H1441 0.960 . S
C1455 H1442 0.961 . S
C1455 H1443 0.959 . S
C1455 C1453 1.561 . S
C1456 C1453 1.526 . S
C1456 C1457 1.396 . S
C1456 C1461 1.390 . S
C1457 C1451 1.465 . S
C1457 C1456 1.396 . S
C1457 C1458 1.399 . S
C1458 H1444 0.929 . S
C1458 C1457 1.399 . S
C1458 C1459 1.385 . S
C1459 H1445 0.931 . S
C1459 C1458 1.385 . S
C1459 C1460 1.389 . S
C1460 C1459 1.389 . S
C1460 C1461 1.387 . S
C1461 H1446 0.930 . S
C1461 C1456 1.390 . S
C1461 C1460 1.387 . S
H1462 C1474 0.930 . S
H1463 C1476 0.930 . S
H1464 C1477 0.930 . S
H1465 C1481 0.959 . S
H1466 C1481 0.959 . S
H1467 C1481 0.961 . S
H1468 C1482 0.960 . S
H1469 C1482 0.961 . S
H1470 C1482 0.959 . S
H1471 C1485 0.929 . S
H1472 C1486 0.931 . S
H1473 C1488 0.930 . S
C1474 H1462 0.930 . S
C1474 C1475 1.399 . S
C1474 C1479 1.399 . S
C1475 C1474 1.399 . S
C1475 C1476 1.376 . S
C1476 H1463 0.930 . S
C1476 C1475 1.376 . S
C1476 C1477 1.388 . S
C1477 H1464 0.930 . S
C1477 C1476 1.388 . S
C1477 C1478 1.390 . S
C1478 C1477 1.390 . S
C1478 C1479 1.394 . S
C1478 C1484 1.465 . S
C1479 C1474 1.399 . S
C1479 C1478 1.394 . S
C1479 C1480 1.516 . S
C1480 C1479 1.516 . S
C1480 C1481 1.502 . S
C1480 C1482 1.561 . S
C1480 C1483 1.526 . S
C1481 H1465 0.959 . S
C1481 H1466 0.959 . S
C1481 H1467 0.961 . S
C1481 C1480 1.502 . S
C1482 H1468 0.960 . S
C1482 H1469 0.961 . S
C1482 H1470 0.959 . S
C1482 C1480 1.561 . S
C1483 C1480 1.526 . S
C1483 C1484 1.396 . S
C1483 C1488 1.390 . S
C1484 C1478 1.465 . S
C1484 C1483 1.396 . S
C1484 C1485 1.399 . S
C1485 H1471 0.929 . S
C1485 C1484 1.399 . S
C1485 C1486 1.385 . S
C1486 H1472 0.931 . S
C1486 C1485 1.385 . S
C1486 C1487 1.389 . S
C1487 C1486 1.389 . S
C1487 C1488 1.387 . S
C1488 H1473 0.930 . S
C1488 C1483 1.390 . S
C1488 C1487 1.387 . S
H1489 C1501 0.930 . S
H1490 C1503 0.930 . S
H1491 C1504 0.930 . S
H1492 C1508 0.959 . S
H1493 C1508 0.959 . S
H1494 C1508 0.961 . S
H1495 C1509 0.960 . S
H1496 C1509 0.961 . S
H1497 C1509 0.959 . S
H1498 C1512 0.929 . S
H1499 C1513 0.931 . S
H1500 C1515 0.930 . S
C1501 H1489 0.930 . S
C1501 C1502 1.399 . S
C1501 C1506 1.399 . S
C1502 C1501 1.399 . S
C1502 C1503 1.376 . S
C1503 H1490 0.930 . S
C1503 C1502 1.376 . S
C1503 C1504 1.388 . S
C1504 H1491 0.930 . S
C1504 C1503 1.388 . S
C1504 C1505 1.390 . S
C1505 C1504 1.390 . S
C1505 C1506 1.394 . S
C1505 C1511 1.465 . S
C1506 C1501 1.399 . S
C1506 C1505 1.394 . S
C1506 C1507 1.516 . S
C1507 C1506 1.516 . S
C1507 C1508 1.502 . S
C1507 C1509 1.561 . S
C1507 C1510 1.526 . S
C1508 H1492 0.959 . S
C1508 H1493 0.959 . S
C1508 H1494 0.961 . S
C1508 C1507 1.502 . S
C1509 H1495 0.960 . S
C1509 H1496 0.961 . S
C1509 H1497 0.959 . S
C1509 C1507 1.561 . S
C1510 C1507 1.526 . S
C1510 C1511 1.396 . S
C1510 C1515 1.390 . S
C1511 C1505 1.465 . S
C1511 C1510 1.396 . S
C1511 C1512 1.399 . S
C1512 H1498 0.929 . S
C1512 C1511 1.399 . S
C1512 C1513 1.385 . S
C1513 H1499 0.931 . S
C1513 C1512 1.385 . S
C1513 C1514 1.389 . S
C1514 C1513 1.389 . S
C1514 C1515 1.387 . S
C1515 H1500 0.930 . S
C1515 C1510 1.390 . S
C1515 C1514 1.387 . S
H1516 C1528 0.930 . S
H1517 C1530 0.930 . S
H1518 C1531 0.930 . S
H1519 C1535 0.959 . S
H1520 C1535 0.959 . S
H1521 C1535 0.961 . S
H1522 C1536 0.960 . S
H1523 C1536 0.961 . S
H1524 C1536 0.959 . S
H1525 C1539 0.929 . S
H1526 C1540 0.931 . S
H1527 C1542 0.930 . S
C1528 H1516 0.930 . S
C1528 C1529 1.399 . S
C1528 C1533 1.399 . S
C1529 C1528 1.399 . S
C1529 C1530 1.376 . S
C1530 H1517 0.930 . S
C1530 C1529 1.376 . S
C1530 C1531 1.388 . S
C1531 H1518 0.930 . S
C1531 C1530 1.388 . S
C1531 C1532 1.390 . S
C1532 C1531 1.390 . S
C1532 C1533 1.394 . S
C1532 C1538 1.465 . S
C1533 C1528 1.399 . S
C1533 C1532 1.394 . S
C1533 C1534 1.516 . S
C1534 C1533 1.516 . S
C1534 C1535 1.502 . S
C1534 C1536 1.561 . S
C1534 C1537 1.526 . S
C1535 H1519 0.959 . S
C1535 H1520 0.959 . S
C1535 H1521 0.961 . S
C1535 C1534 1.502 . S
C1536 H1522 0.960 . S
C1536 H1523 0.961 . S
C1536 H1524 0.959 . S
C1536 C1534 1.561 . S
C1537 C1534 1.526 . S
C1537 C1538 1.396 . S
C1537 C1542 1.390 . S
C1538 C1532 1.465 . S
C1538 C1537 1.396 . S
C1538 C1539 1.399 . S
C1539 H1525 0.929 . S
C1539 C1538 1.399 . S
C1539 C1540 1.385 . S
C1540 H1526 0.931 . S
C1540 C1539 1.385 . S
C1540 C1541 1.389 . S
C1541 C1540 1.389 . S
C1541 C1542 1.387 . S
C1542 H1527 0.930 . S
C1542 C1537 1.390 . S
C1542 C1541 1.387 . S
H1543 C1555 0.930 . S
H1544 C1557 0.930 . S
H1545 C1558 0.930 . S
H1546 C1562 0.959 . S
H1547 C1562 0.959 . S
H1548 C1562 0.961 . S
H1549 C1563 0.960 . S
H1550 C1563 0.961 . S
H1551 C1563 0.959 . S
H1552 C1566 0.929 . S
H1553 C1567 0.931 . S
H1554 C1569 0.930 . S
C1555 H1543 0.930 . S
C1555 C1556 1.399 . S
C1555 C1560 1.399 . S
C1556 C1555 1.399 . S
C1556 C1557 1.376 . S
C1557 H1544 0.930 . S
C1557 C1556 1.376 . S
C1557 C1558 1.388 . S
C1558 H1545 0.930 . S
C1558 C1557 1.388 . S
C1558 C1559 1.390 . S
C1559 C1558 1.390 . S
C1559 C1560 1.394 . S
C1559 C1565 1.465 . S
C1560 C1555 1.399 . S
C1560 C1559 1.394 . S
C1560 C1561 1.516 . S
C1561 C1560 1.516 . S
C1561 C1562 1.502 . S
C1561 C1563 1.561 . S
C1561 C1564 1.526 . S
C1562 H1546 0.959 . S
C1562 H1547 0.959 . S
C1562 H1548 0.961 . S
C1562 C1561 1.502 . S
C1563 H1549 0.960 . S
C1563 H1550 0.961 . S
C1563 H1551 0.959 . S
C1563 C1561 1.561 . S
C1564 C1561 1.526 . S
C1564 C1565 1.396 . S
C1564 C1569 1.390 . S
C1565 C1559 1.465 . S
C1565 C1564 1.396 . S
C1565 C1566 1.399 . S
C1566 H1552 0.929 . S
C1566 C1565 1.399 . S
C1566 C1567 1.385 . S
C1567 H1553 0.931 . S
C1567 C1566 1.385 . S
C1567 C1568 1.389 . S
C1568 C1567 1.389 . S
C1568 C1569 1.387 . S
C1569 H1554 0.930 . S
C1569 C1564 1.390 . S
C1569 C1568 1.387 . S
H1570 C1582 0.930 . S
H1571 C1584 0.930 . S
H1572 C1585 0.930 . S
H1573 C1589 0.959 . S
H1574 C1589 0.959 . S
H1575 C1589 0.961 . S
H1576 C1590 0.960 . S
H1577 C1590 0.961 . S
H1578 C1590 0.959 . S
H1579 C1593 0.929 . S
H1580 C1594 0.931 . S
H1581 C1596 0.930 . S
C1582 H1570 0.930 . S
C1582 C1583 1.399 . S
C1582 C1587 1.399 . S
C1583 C1582 1.399 . S
C1583 C1584 1.376 . S
C1584 H1571 0.930 . S
C1584 C1583 1.376 . S
C1584 C1585 1.388 . S
C1585 H1572 0.930 . S
C1585 C1584 1.388 . S
C1585 C1586 1.390 . S
C1586 C1585 1.390 . S
C1586 C1587 1.394 . S
C1586 C1592 1.465 . S
C1587 C1582 1.399 . S
C1587 C1586 1.394 . S
C1587 C1588 1.516 . S
C1588 C1587 1.516 . S
C1588 C1589 1.502 . S
C1588 C1590 1.561 . S
C1588 C1591 1.526 . S
C1589 H1573 0.959 . S
C1589 H1574 0.959 . S
C1589 H1575 0.961 . S
C1589 C1588 1.502 . S
C1590 H1576 0.960 . S
C1590 H1577 0.961 . S
C1590 H1578 0.959 . S
C1590 C1588 1.561 . S
C1591 C1588 1.526 . S
C1591 C1592 1.396 . S
C1591 C1596 1.390 . S
C1592 C1586 1.465 . S
C1592 C1591 1.396 . S
C1592 C1593 1.399 . S
C1593 H1579 0.929 . S
C1593 C1592 1.399 . S
C1593 C1594 1.385 . S
C1594 H1580 0.931 . S
C1594 C1593 1.385 . S
C1594 C1595 1.389 . S
C1595 C1594 1.389 . S
C1595 C1596 1.387 . S
C1596 H1581 0.930 . S
C1596 C1591 1.390 . S
C1596 C1595 1.387 . S
H1597 C1609 0.930 . S
H1598 C1611 0.930 . S
H1599 C1612 0.930 . S
H1600 C1616 0.959 . S
H1601 C1616 0.959 . S
H1602 C1616 0.961 . S
H1603 C1617 0.960 . S
H1604 C1617 0.961 . S
H1605 C1617 0.959 . S
H1606 C1620 0.929 . S
H1607 C1621 0.931 . S
H1608 C1623 0.930 . S
C1609 H1597 0.930 . S
C1609 C1610 1.399 . S
C1609 C1614 1.399 . S
C1610 C1609 1.399 . S
C1610 C1611 1.376 . S
C1611 H1598 0.930 . S
C1611 C1610 1.376 . S
C1611 C1612 1.388 . S
C1612 H1599 0.930 . S
C1612 C1611 1.388 . S
C1612 C1613 1.390 . S
C1613 C1612 1.390 . S
C1613 C1614 1.394 . S
C1613 C1619 1.465 . S
C1614 C1609 1.399 . S
C1614 C1613 1.394 . S
C1614 C1615 1.516 . S
C1615 C1614 1.516 . S
C1615 C1616 1.502 . S
C1615 C1617 1.561 . S
C1615 C1618 1.526 . S
C1616 H1600 0.959 . S
C1616 H1601 0.959 . S
C1616 H1602 0.961 . S
C1616 C1615 1.502 . S
C1617 H1603 0.960 . S
C1617 H1604 0.961 . S
C1617 H1605 0.959 . S
C1617 C1615 1.561 . S
C1618 C1615 1.526 . S
C1618 C1619 1.396 . S
C1618 C1623 1.390 . S
C1619 C1613 1.465 . S
C1619 C1618 1.396 . S
C1619 C1620 1.399 . S
C1620 H1606 0.929 . S
C1620 C1619 1.399 . S
C1620 C1621 1.385 . S
C1621 H1607 0.931 . S
C1621 C1620 1.385 . S
C1621 C1622 1.389 . S
C1622 C1621 1.389 . S
C1622 C1623 1.387 . S
C1623 H1608 0.930 . S
C1623 C1618 1.390 . S
C1623 C1622 1.387 . S
C557 C5 1.535 . S
C569 C243 1.536 . S
C584 C141 1.531 . S
C596 C39 1.533 . S
C611 C175 1.517 . S
C623 C73 1.518 . S
C638 C209 1.530 . S
C650 C107 1.529 . S
C665 C277 1.517 . S
C677 C515 1.518 . S
C692 C311 1.530 . S
C704 C413 1.538 . S
C719 C447 1.535 . S
C731 C345 1.527 . S
C746 C379 1.530 . S
C758 C481 1.538 . S
C773 C9 1.509 . S
C785 C281 1.490 . S
C800 C315 1.482 . S
C812 C43 1.517 . S
C827 C349 1.459 . S
C839 C77 1.552 . S
C854 C111 1.550 . S
C866 C383 1.459 . S
C881 C417 1.464 . S
C893 C145 1.552 . S
C908 C451 1.485 . S
C920 C179 1.514 . S
C935 C213 1.525 . S
C947 C485 1.476 . S
C962 C519 1.461 . S
C974 C247 1.544 . S
C989 C20 0.924 . S
C1001 C478 0.928 . S
C1016 C512 0.974 . S
C1028 C54 0.951 . S
C1043 C88 0.934 . S
C1055 C410 0.914 . S
C1070 C444 0.914 . S
C1082 C122 0.940 . S
C1097 C156 0.930 . S
C1109 C342 0.950 . S
C1124 C190 0.928 . S
C1136 C376 0.945 . S
C1151 C224 0.971 . S
C1163 C274 0.952 . S
C1178 C258 0.927 . S
C1190 C308 0.942 . S
C1205 C206 0.917 . S
C1217 C292 0.925 . S
C1232 C240 0.954 . S
C1244 C326 0.947 . S
C1259 C360 0.963 . S
C1271 C138 0.971 . S
C1286 C172 0.937 . S
C1298 C394 0.935 . S
C1313 C70 0.936 . S
C1325 C428 0.934 . S
C1340 C104 0.955 . S
C1352 C462 0.962 . S
C1367 C496 0.970 . S
C1379 C2 0.977 . S
C1394 C36 0.938 . S
C1406 C530 0.936 . S
C1421 C101 1.184 . S
C1433 C33 1.237 . S
C1448 C135 1.154 . S
C1460 C67 1.273 . S
C1475 C169 1.236 . S
C1487 C237 1.202 . S
C1502 C271 1.168 . S
C1514 C203 1.254 . S
C1529 C305 1.161 . S
C1541 C373 1.273 . S
C1556 C407 1.266 . S
C1568 C339 1.184 . S
C1583 C441 1.189 . S
C1595 C509 1.261 . S
C1610 C475 1.165 . S
C1622 C543 1.273 . S
