# Generated by pormake.
# Topology bcs, (6)-cn, num edge types: 1
# Building blocks:
#     Node 0, Type 0, BuildingBlock: BETFAJ_clean_sbu_0, # of connection points: 6
#     Node 1, Type 0, BuildingBlock: BETFAJ_clean_sbu_0, # of connection points: 6
#     Node 2, Type 0, BuildingBlock: BETFAJ_clean_sbu_0, # of connection points: 6
#     Node 3, Type 0, BuildingBlock: BETFAJ_clean_sbu_0, # of connection points: 6
#     Node 4, Type 0, BuildingBlock: BETFAJ_clean_sbu_0, # of connection points: 6
#     Node 5, Type 0, BuildingBlock: BETFAJ_clean_sbu_0, # of connection points: 6
#     Node 6, Type 0, BuildingBlock: BETFAJ_clean_sbu_0, # of connection points: 6
#     Node 7, Type 0, BuildingBlock: BETFAJ_clean_sbu_0, # of connection points: 6
#     Node 8, Type 0, BuildingBlock: BETFAJ_clean_sbu_0, # of connection points: 6
#     Node 9, Type 0, BuildingBlock: BETFAJ_clean_sbu_0, # of connection points: 6
#     Node 10, Type 0, BuildingBlock: BETFAJ_clean_sbu_0, # of connection points: 6
#     Node 11, Type 0, BuildingBlock: BETFAJ_clean_sbu_0, # of connection points: 6
#     Node 12, Type 0, BuildingBlock: BETFAJ_clean_sbu_0, # of connection points: 6
#     Node 13, Type 0, BuildingBlock: BETFAJ_clean_sbu_0, # of connection points: 6
#     Node 14, Type 0, BuildingBlock: BETFAJ_clean_sbu_0, # of connection points: 6
#     Node 15, Type 0, BuildingBlock: BETFAJ_clean_sbu_0, # of connection points: 6
#     Edge 16, Type (0, 0), BuildingBlock: TEMPAE_clean_linker_10, # of connection points: 2
#     Edge 17, Type (0, 0), BuildingBlock: TEMPAE_clean_linker_10, # of connection points: 2
#     Edge 18, Type (0, 0), BuildingBlock: TEMPAE_clean_linker_10, # of connection points: 2
#     Edge 19, Type (0, 0), BuildingBlock: TEMPAE_clean_linker_10, # of connection points: 2
#     Edge 20, Type (0, 0), BuildingBlock: TEMPAE_clean_linker_10, # of connection points: 2
#     Edge 21, Type (0, 0), BuildingBlock: TEMPAE_clean_linker_10, # of connection points: 2
#     Edge 22, Type (0, 0), BuildingBlock: TEMPAE_clean_linker_10, # of connection points: 2
#     Edge 23, Type (0, 0), BuildingBlock: TEMPAE_clean_linker_10, # of connection points: 2
#     Edge 24, Type (0, 0), BuildingBlock: TEMPAE_clean_linker_10, # of connection points: 2
#     Edge 25, Type (0, 0), BuildingBlock: TEMPAE_clean_linker_10, # of connection points: 2
#     Edge 26, Type (0, 0), BuildingBlock: TEMPAE_clean_linker_10, # of connection points: 2
#     Edge 27, Type (0, 0), BuildingBlock: TEMPAE_clean_linker_10, # of connection points: 2
#     Edge 28, Type (0, 0), BuildingBlock: TEMPAE_clean_linker_10, # of connection points: 2
#     Edge 29, Type (0, 0), BuildingBlock: TEMPAE_clean_linker_10, # of connection points: 2
#     Edge 30, Type (0, 0), BuildingBlock: TEMPAE_clean_linker_10, # of connection points: 2
#     Edge 31, Type (0, 0), BuildingBlock: TEMPAE_clean_linker_10, # of connection points: 2
#     Edge 32, Type (0, 0), BuildingBlock: TEMPAE_clean_linker_10, # of connection points: 2
#     Edge 33, Type (0, 0), BuildingBlock: TEMPAE_clean_linker_10, # of connection points: 2
#     Edge 34, Type (0, 0), BuildingBlock: TEMPAE_clean_linker_10, # of connection points: 2
#     Edge 35, Type (0, 0), BuildingBlock: TEMPAE_clean_linker_10, # of connection points: 2
#     Edge 36, Type (0, 0), BuildingBlock: TEMPAE_clean_linker_10, # of connection points: 2
#     Edge 37, Type (0, 0), BuildingBlock: TEMPAE_clean_linker_10, # of connection points: 2
#     Edge 38, Type (0, 0), BuildingBlock: TEMPAE_clean_linker_10, # of connection points: 2
#     Edge 39, Type (0, 0), BuildingBlock: TEMPAE_clean_linker_10, # of connection points: 2
#     Edge 40, Type (0, 0), BuildingBlock: TEMPAE_clean_linker_10, # of connection points: 2
#     Edge 41, Type (0, 0), BuildingBlock: TEMPAE_clean_linker_10, # of connection points: 2
#     Edge 42, Type (0, 0), BuildingBlock: TEMPAE_clean_linker_10, # of connection points: 2
#     Edge 43, Type (0, 0), BuildingBlock: TEMPAE_clean_linker_10, # of connection points: 2
#     Edge 44, Type (0, 0), BuildingBlock: TEMPAE_clean_linker_10, # of connection points: 2
#     Edge 45, Type (0, 0), BuildingBlock: TEMPAE_clean_linker_10, # of connection points: 2
#     Edge 46, Type (0, 0), BuildingBlock: TEMPAE_clean_linker_10, # of connection points: 2
#     Edge 47, Type (0, 0), BuildingBlock: TEMPAE_clean_linker_10, # of connection points: 2
#     Edge 48, Type (0, 0), BuildingBlock: TEMPAE_clean_linker_10, # of connection points: 2
#     Edge 49, Type (0, 0), BuildingBlock: TEMPAE_clean_linker_10, # of connection points: 2
#     Edge 50, Type (0, 0), BuildingBlock: TEMPAE_clean_linker_10, # of connection points: 2
#     Edge 51, Type (0, 0), BuildingBlock: TEMPAE_clean_linker_10, # of connection points: 2
#     Edge 52, Type (0, 0), BuildingBlock: TEMPAE_clean_linker_10, # of connection points: 2
#     Edge 53, Type (0, 0), BuildingBlock: TEMPAE_clean_linker_10, # of connection points: 2
#     Edge 54, Type (0, 0), BuildingBlock: TEMPAE_clean_linker_10, # of connection points: 2
#     Edge 55, Type (0, 0), BuildingBlock: TEMPAE_clean_linker_10, # of connection points: 2
#     Edge 56, Type (0, 0), BuildingBlock: TEMPAE_clean_linker_10, # of connection points: 2
#     Edge 57, Type (0, 0), BuildingBlock: TEMPAE_clean_linker_10, # of connection points: 2
#     Edge 58, Type (0, 0), BuildingBlock: TEMPAE_clean_linker_10, # of connection points: 2
#     Edge 59, Type (0, 0), BuildingBlock: TEMPAE_clean_linker_10, # of connection points: 2
#     Edge 60, Type (0, 0), BuildingBlock: TEMPAE_clean_linker_10, # of connection points: 2
#     Edge 61, Type (0, 0), BuildingBlock: TEMPAE_clean_linker_10, # of connection points: 2
#     Edge 62, Type (0, 0), BuildingBlock: TEMPAE_clean_linker_10, # of connection points: 2
#     Edge 63, Type (0, 0), BuildingBlock: TEMPAE_clean_linker_10, # of connection points: 2
# Relax obj value: 0.174
# Max RMSD: 0.241
# Mean RMSD: 0.202
data_MOF--net-bcs--node1-BETFAJ_clean_sbu_0--edge1-TEMPAE_clean_linker_10
_symmetry_space_group_name_H-M    P1
_symmetry_Int_Tables_number       1
_symmetry_cell_setting            triclinic
loop_
_symmetry_equiv_pos_as_xyz
'x, y, z'
_cell_length_a     44.94798
_cell_length_b     44.107012
_cell_length_c     40.759883
_cell_angle_alpha  73.190755
_cell_angle_beta   112.38846
_cell_angle_gamma 121.71124
loop_
_atom_site_label
_atom_site_type_symbol
_atom_site_fract_x
_atom_site_fract_y
_atom_site_fract_z
_atom_type_partial_charge
Sm0 Sm 0.04588 0.97775 1.0063 0.0
Sm1 Sm 1.03078 0.03802 0.02217 0.0
C2 C 0.0653 0.94234 0.98319 0.0
C3 C 0.09376 0.94119 0.97434 0.0
C4 C 0.10415 0.95948 0.94285 0.0
C5 C 0.12723 0.95355 0.93295 0.0
C6 C 0.14041 0.92933 0.95437 0.0
C7 C 0.131 0.91221 0.98647 0.0
C8 C 0.10782 0.91789 0.99615 0.0
C9 C 1.01017 0.95066 0.0598 0.0
C10 C 0.11127 0.04285 0.05609 0.0
C11 C 1.01232 0.07402 0.04584 0.0
C12 C 0.98756 0.07813 0.05801 0.0
C13 C 0.95005 0.06435 0.04052 0.0
C14 C 0.92864 0.07415 0.0485 0.0
C15 C 0.94434 0.09806 0.07405 0.0
C16 C 0.98153 0.11031 0.09267 0.0
C17 C 1.00281 0.1005 0.08469 0.0
C18 C 0.06643 0.06488 0.96848 0.0
C19 C 0.96557 0.97216 0.97252 0.0
O20 O 0.04915 0.96129 0.96145 0.0
O21 O 0.06957 0.94171 0.01702 0.0
O22 O 1.02079 0.98148 0.04255 0.0
O23 O 1.02027 0.93301 0.0497 0.0
O24 O 0.10196 0.02009 0.03439 0.0
O25 O 0.08783 0.04963 0.06087 0.0
O26 O 1.03127 0.05766 0.06745 0.0
O27 O 1.00346 0.07063 0.012 0.0
O28 O 0.05588 0.03426 0.98606 0.0
O29 O 0.05616 0.08259 0.97829 0.0
O30 O 0.97462 0.99463 0.99451 0.0
O31 O 0.98931 0.96612 0.96744 0.0
H32 H 0.09363 0.97748 0.92535 0.0
H33 H 0.13419 0.96739 0.90818 0.0
H34 H 0.14004 0.89294 1.00336 0.0
H35 H 0.09977 0.90286 0.02021 0.0
H36 H 0.93751 0.04702 0.01987 0.0
H37 H 0.90016 0.06422 0.03355 0.0
H38 H 0.99444 0.12813 0.11301 0.0
H39 H 1.03167 0.11161 0.09849 0.0
Sm40 Sm 0.30066 0.75188 0.27167 0.0
Sm41 Sm 0.24943 0.78141 0.22687 0.0
C42 C 0.33869 0.72394 0.32445 0.0
C43 C 0.33279 0.6874 0.33982 0.0
C44 C 0.34258 0.67919 0.37696 0.0
C45 C 0.34035 0.64556 0.39187 0.0
C46 C 0.32874 0.61983 0.36977 0.0
C47 C 0.3165 0.62734 0.33259 0.0
C48 C 0.31833 0.6608 0.31774 0.0
C49 C 0.26161 0.72569 0.20652 0.0
C50 C 0.21676 0.71099 0.27803 0.0
C51 C 0.21398 0.81318 0.17601 0.0
C52 C 0.22296 0.85102 0.16362 0.0
C53 C 0.21489 0.86234 0.12696 0.0
C54 C 0.22092 0.8976 0.11489 0.0
C55 C 0.2347 0.92199 0.13935 0.0
C56 C 0.24514 0.91121 0.17606 0.0
C57 C 0.23947 0.87605 0.1881 0.0
C58 C 0.29007 0.80733 0.29219 0.0
C59 C 0.33213 0.82002 0.21848 0.0
O60 O 0.31834 0.7342 0.32939 0.0
O61 O 0.34277 0.73403 0.29227 0.0
O62 O 0.24885 0.73028 0.22623 0.0
O63 O 0.29514 0.73224 0.22213 0.0
O64 O 0.25133 0.71973 0.29469 0.0
O65 O 0.20729 0.72728 0.2463 0.0
O66 O 0.23296 0.80202 0.16989 0.0
O67 O 0.2088 0.80117 0.20775 0.0
O68 O 0.3015 0.80292 0.27125 0.0
O69 O 0.25639 0.80057 0.27797 0.0
O70 O 0.29749 0.81098 0.20195 0.0
O71 O 0.34188 0.80551 0.25109 0.0
H72 H 0.35311 0.69918 0.3944 0.0
H73 H 0.3493 0.64028 0.42066 0.0
H74 H 0.30768 0.60828 0.3148 0.0
H75 H 0.30985 0.66631 0.28894 0.0
H76 H 0.20291 0.84364 0.10767 0.0
H77 H 0.21316 0.90532 0.0864 0.0
H78 H 0.25558 0.92922 0.19557 0.0
H79 H 0.24678 0.86814 0.21659 0.0
Sm80 Sm 0.5275 0.9968 0.54123 0.0
Sm81 Sm 0.54529 0.00672 0.47695 0.0
C82 C 0.52304 0.00974 0.59798 0.0
C83 C 0.50139 0.02068 0.60683 0.0
C84 C 0.51321 0.05719 0.60679 0.0
C85 C 0.49305 0.06761 0.61558 0.0
C86 C 0.46087 0.04173 0.62486 0.0
C87 C 0.4491 0.00524 0.62508 0.0
C88 C 0.46923 0.99478 0.61623 0.0
C89 C 0.47401 0.94691 0.49617 0.0
C90 C 0.49338 0.04893 0.46514 0.0
C91 C 0.54819 0.99406 0.41905 0.0
C92 C 0.56685 0.98073 0.40916 0.0
C93 C 0.58897 0.96679 0.43544 0.0
C94 C 0.60466 0.95192 0.42558 0.0
C95 C 0.59851 0.95099 0.38931 0.0
C96 C 0.57679 0.96556 0.36311 0.0
C97 C 0.561 0.98027 0.37302 0.0
C98 C 0.59829 0.0568 0.52178 0.0
C99 C 0.57972 0.95493 0.55332 0.0
O100 O 0.54556 0.03398 0.5794 0.0
O101 O 0.50635 0.9775 0.58831 0.0
O102 O 0.4914 0.98002 0.48763 0.0
O103 O 0.48384 0.93843 0.53049 0.0
O104 O 0.49809 0.03608 0.50075 0.0
O105 O 0.50933 0.04033 0.44942 0.0
O106 O 0.52502 0.97039 0.43713 0.0
O107 O 0.56817 0.02549 0.431 0.0
O108 O 0.58137 0.02364 0.53049 0.0
O109 O 0.58814 0.06524 0.48748 0.0
O110 O 0.57459 0.96735 0.51758 0.0
O111 O 0.56405 0.96383 0.56906 0.0
H112 H 0.5382 0.07777 0.60021 0.0
H113 H 0.50305 0.0959 0.61582 0.0
H114 H 0.42427 0.98477 0.63201 0.0
H115 H 0.45961 0.96643 0.61686 0.0
H116 H 0.59374 0.96704 0.46349 0.0
H117 H 0.62166 0.94124 0.44625 0.0
H118 H 0.57138 0.96486 0.33499 0.0
H119 H 0.54375 0.99078 0.3525 0.0
Sm120 Sm 0.28693 0.21711 0.7619 0.0
Sm121 Sm 0.2797 0.28232 0.75823 0.0
C122 C 0.28398 0.16034 0.74838 0.0
C123 C 0.30267 0.14979 0.73445 0.0
C124 C 0.29128 0.14575 0.69803 0.0
C125 C 0.30779 0.13419 0.68505 0.0
C126 C 0.33579 0.12619 0.70828 0.0
C127 C 0.34699 0.12998 0.74473 0.0
C128 C 0.33052 0.14158 0.75771 0.0
C129 C 0.33892 0.26172 0.81362 0.0
C130 C 0.32785 0.29145 0.70957 0.0
C131 C 0.28275 0.33865 0.77299 0.0
C132 C 0.26893 0.34773 0.79425 0.0
C133 C 0.29347 0.3677 0.8232 0.0
C134 C 0.28116 0.37771 0.84293 0.0
C135 C 0.24407 0.36815 0.83387 0.0
C136 C 0.21955 0.34792 0.80501 0.0
C137 C 0.23181 0.33773 0.78546 0.0
C138 C 0.228 0.23773 0.70643 0.0
C139 C 0.23737 0.20752 0.80853 0.0
O140 O 0.2665 0.17744 0.72546 0.0
O141 O 0.30064 0.17235 0.77969 0.0
O142 O 0.32745 0.27143 0.78114 0.0
O143 O 0.32415 0.22696 0.81978 0.0
O144 O 0.31649 0.25635 0.71813 0.0
O145 O 0.31979 0.30857 0.72394 0.0
O146 O 0.30647 0.3269 0.79101 0.0
O147 O 0.25953 0.32198 0.74484 0.0
O148 O 0.23929 0.2281 0.73896 0.0
O149 O 0.24275 0.27252 0.70021 0.0
O150 O 0.25251 0.24314 0.80377 0.0
O151 O 0.24247 0.19052 0.79097 0.0
H152 H 0.26944 0.1513 0.67953 0.0
H153 H 0.29877 0.1317 0.6568 0.0
H154 H 0.36807 0.12337 0.76335 0.0
H155 H 0.33938 0.14372 0.78603 0.0
H156 H 0.32229 0.37584 0.83041 0.0
H157 H 0.30068 0.39304 0.86517 0.0
H158 H 0.19092 0.34075 0.79684 0.0
H159 H 0.21225 0.32249 0.76319 0.0
Sm160 Sm 0.06906 1.00273 0.53237 0.0
Sm161 Sm 1.00106 0.00697 0.48153 0.0
C162 C 0.12737 0.01439 0.58742 0.0
C163 C 0.14286 1.00005 0.62264 0.0
C164 C 0.17276 0.024 0.64633 0.0
C165 C 0.19305 0.0115 0.67675 0.0
C166 C 0.18373 0.97492 0.6835 0.0
C167 C 0.15149 0.9507 0.66137 0.0
C168 C 0.13115 0.9632 0.63118 0.0
C169 C 1.02452 0.94912 0.48817 0.0
C170 C 0.99195 0.9578 0.55774 0.0
C171 C 0.94886 0.00582 0.42306 0.0
C172 C 0.95033 0.03418 0.39329 0.0
C173 C 0.93107 0.02607 0.35811 0.0
C174 C 0.93218 0.05374 0.33025 0.0
C175 C 0.95207 0.08981 0.33745 0.0
C176 C 0.97338 0.09749 0.37266 0.0
C177 C 0.9728 0.07004 0.40009 0.0
C178 C 0.04599 0.06064 0.52548 0.0
C179 C 0.07777 0.05018 0.45556 0.0
O180 O 0.10318 0.02364 0.58478 0.0
O181 O 0.12008 0.99917 0.56009 0.0
O182 O 1.01458 0.96177 0.50351 0.0
O183 O 0.05987 0.96239 0.49866 0.0
O184 O 1.02789 0.97029 0.56728 0.0
O185 O 0.97431 0.96543 0.52477 0.0
O186 O 0.96927 0.99149 0.42675 0.0
O187 O 0.95127 0.01301 0.45334 0.0
O188 O 0.05557 0.04798 0.50975 0.0
O189 O 1.01067 0.04689 0.51591 0.0
O190 O 0.042 0.03802 0.44637 0.0
O191 O 0.09535 0.04275 0.48846 0.0
H192 H 0.18176 0.05259 0.64012 0.0
H193 H 0.21736 0.0307 0.69357 0.0
H194 H 0.14359 0.92238 0.6654 0.0
H195 H 0.10785 0.94439 0.61323 0.0
H196 H 0.91465 0.99844 0.35231 0.0
H197 H 0.91626 0.04674 0.30341 0.0
H198 H 0.98876 0.12455 0.3799 0.0
H199 H 0.98898 0.07691 0.42698 0.0
Sm200 Sm 0.27274 0.74314 0.78205 0.0
Sm201 Sm 0.31187 0.77031 0.72225 0.0
C202 C 0.24798 0.73818 0.83393 0.0
C203 C 0.2478 0.76348 0.85085 0.0
C204 C 0.25135 0.79703 0.8326 0.0
C205 C 0.24675 0.81907 0.84685 0.0
C206 C 0.2382 0.80796 0.87956 0.0
C207 C 0.23638 0.77503 0.89854 0.0
C208 C 0.24109 0.75301 0.88427 0.0
C209 C 0.22897 0.71225 0.71993 0.0
C210 C 0.29065 0.82289 0.73539 0.0
C211 C 0.3367 0.77608 0.67006 0.0
C212 C 0.33758 0.75168 0.6526 0.0
C213 C 0.3476 0.7642 0.62076 0.0
C214 C 0.3536 0.74318 0.60655 0.0
C215 C 0.34975 0.70922 0.62402 0.0
C216 C 0.33786 0.69604 0.65501 0.0
C217 C 0.33195 0.71712 0.6692 0.0
C218 C 0.35559 0.80076 0.7848 0.0
C219 C 0.29426 0.69068 0.76904 0.0
O220 O 0.27924 0.73904 0.84015 0.0
O221 O 0.2285 0.73484 0.80058 0.0
O222 O 0.25312 0.74484 0.72147 0.0
O223 O 0.22521 0.69611 0.75127 0.0
O224 O 0.28637 0.80215 0.76559 0.0
O225 O 0.29478 0.81389 0.70981 0.0
O226 O 0.30513 0.77443 0.66412 0.0
O227 O 0.35618 0.77917 0.70343 0.0
O228 O 0.33135 0.76829 0.78276 0.0
O229 O 0.35949 0.81719 0.75356 0.0
O230 O 0.29849 0.71127 0.73874 0.0
O231 O 0.29001 0.69977 0.79451 0.0
H232 H 0.25641 0.8057 0.80671 0.0
H233 H 0.24827 0.84409 0.83145 0.0
H234 H 0.23058 0.76591 0.92414 0.0
H235 H 0.23836 0.7273 0.89885 0.0
H236 H 0.35206 0.79077 0.60754 0.0
H237 H 0.36215 0.7539 0.58234 0.0
H238 H 0.33487 0.67018 0.66933 0.0
H239 H 0.32434 0.70693 0.69387 0.0
Sm240 Sm 0.55292 0.96879 0.0211 0.0
Sm241 Sm 0.53469 0.03052 0.00915 0.0
C242 C 0.56272 0.9178 0.01225 0.0
C243 C 0.58773 0.91443 1.00004 0.0
C244 C 0.57318 0.89285 0.97285 0.0
C245 C 0.59604 0.88855 0.96112 0.0
C246 C 0.63402 0.90557 0.97652 0.0
C247 C 0.64862 0.92768 1.00341 0.0
C248 C 0.62571 0.93213 0.01503 0.0
C249 C 0.59834 0.01791 0.06928 0.0
C250 C 0.58724 0.04204 0.96612 0.0
C251 C 0.52254 0.08053 0.01686 0.0
C252 C 0.49884 0.08446 0.0308 0.0
C253 C 0.51475 0.11058 0.05384 0.0
C254 C 0.49306 0.11646 0.06584 0.0
C255 C 0.45479 0.09643 0.05498 0.0
C256 C 0.43891 0.06958 0.03259 0.0
C257 C 0.46068 0.06365 0.02063 0.0
C258 C 0.48776 0.9782 0.96344 0.0
C259 C 0.50336 0.95907 0.0662 0.0
O260 O 0.54108 0.92972 0.98781 0.0
O261 O 0.57556 0.93052 0.04281 0.0
O262 O 0.58622 0.02548 0.0362 0.0
O263 O 0.58895 0.98395 0.07735 0.0
O264 O 0.5773 0.00745 0.97538 0.0
O265 O 0.57825 0.05916 0.97934 0.0
O266 O 0.54712 0.07182 0.0403 0.0
O267 O 0.50752 0.06497 0.98769 0.0
O268 O 0.50146 0.97323 0.99643 0.0
O269 O 0.49711 0.012 0.95326 0.0
O270 O 0.51428 0.99383 0.05745 0.0
O271 O 0.50953 0.94107 0.05092 0.0
H272 H 0.54401 0.87917 0.9607 0.0
H273 H 0.5839 0.8719 0.93989 0.0
H274 H 0.67769 0.94096 0.01603 0.0
H275 H 0.63772 0.94914 0.03591 0.0
H276 H 0.5441 0.12683 0.06225 0.0
H277 H 0.50636 0.13685 0.08361 0.0
H278 H 0.40958 0.05377 0.02349 0.0
H279 H 0.4476 0.04317 1.003 0.0
Sm280 Sm 0.26723 0.2264 0.2272 0.0
Sm281 Sm 0.30595 0.2761 0.28842 0.0
C282 C 0.25694 0.19972 0.17094 0.0
C283 C 0.27615 0.18745 0.15943 0.0
C284 C 0.28555 0.20297 0.12721 0.0
C285 C 0.30302 0.19118 0.11561 0.0
C286 C 0.31142 0.16348 0.13596 0.0
C287 C 0.3019 0.14794 0.16822 0.0
C288 C 0.28457 0.15981 0.17985 0.0
C289 C 0.22385 0.19726 0.27346 0.0
C290 C 0.33266 0.20827 0.30392 0.0
C291 C 0.31768 0.30347 0.34487 0.0
C292 C 0.2995 0.3164 0.35717 0.0
C293 C 0.27558 0.29325 0.37822 0.0
C294 C 0.25844 0.3056 0.38958 0.0
C295 C 0.26501 0.34149 0.38037 0.0
C296 C 0.2895 0.36478 0.35992 0.0
C297 C 0.30658 0.35244 0.34856 0.0
C298 C 0.34906 0.3045 0.24194 0.0
C299 C 0.24075 0.29457 0.21187 0.0
O300 O 0.27164 0.23421 0.17228 0.0
O301 O 0.24319 0.18015 0.19756 0.0
O302 O 0.25387 0.22577 0.27525 0.0
O303 O 0.21524 0.18346 0.24499 0.0
O304 O 0.30922 0.20132 0.27033 0.0
O305 O 0.33527 0.23552 0.31651 0.0
O306 O 0.3027 0.2689 0.34362 0.0
O307 O 0.33072 0.32274 0.31779 0.0
O308 O 0.31906 0.27625 0.24071 0.0
O309 O 0.35797 0.31886 0.27011 0.0
O310 O 0.26415 0.30139 0.24549 0.0
O311 O 0.23804 0.26726 0.19923 0.0
H312 H 0.27941 0.22431 0.11096 0.0
H313 H 0.31038 0.20413 0.0909 0.0
H314 H 0.30747 0.12624 0.18435 0.0
H315 H 0.27768 0.14715 0.20482 0.0
H316 H 0.26994 0.2655 0.3858 0.0
H317 H 0.23955 0.28684 0.40509 0.0
H318 H 0.29574 0.39273 0.35292 0.0
H319 H 0.32538 0.37125 0.33297 0.0
Sm320 Sm 0.56942 0.49395 0.03513 0.0
Sm321 Sm 0.50231 0.49946 0.9822 0.0
C322 C 0.63368 0.50835 0.08195 0.0
C323 C 0.64513 0.49813 0.12026 0.0
C324 C 0.67881 0.49836 0.13526 0.0
C325 C 0.68609 0.47982 0.1688 0.0
C326 C 0.65955 0.46056 0.18762 0.0
C327 C 0.62757 0.46407 0.17419 0.0
C328 C 0.62031 0.48265 0.14054 0.0
C329 C 0.52505 0.44057 0.99132 0.0
C330 C 0.49555 0.44702 0.06027 0.0
C331 C 0.43681 0.48293 0.9369 0.0
C332 C 0.41883 0.49519 0.90171 0.0
C333 C 0.38621 0.47025 0.88111 0.0
C334 C 0.3666 0.482 0.84925 0.0
C335 C 0.37934 0.5189 0.83783 0.0
C336 C 0.41338 0.54349 0.85763 0.0
C337 C 0.43303 0.53169 0.88915 0.0
C338 C 0.54622 0.55187 0.02743 0.0
C339 C 0.57669 0.54774 0.95749 0.0
O340 O 0.61935 0.5299 0.07241 0.0
O341 O 0.61565 0.48183 0.06233 0.0
O342 O 0.53343 0.47331 0.98212 0.0
O343 O 0.54251 0.43504 0.0243 0.0
O344 O 0.53149 0.46137 0.0718 0.0
O345 O 0.47899 0.45508 0.02686 0.0
O346 O 0.4573 0.47002 0.93735 0.0
O347 O 0.45105 0.50325 0.96235 0.0
O348 O 0.53745 0.51898 0.03573 0.0
O349 O 0.52961 0.55813 0.99416 0.0
O350 O 0.54102 0.53606 0.94674 0.0
O351 O 0.59281 0.53661 0.98966 0.0
H352 H 0.6982 0.51027 0.11986 0.0
H353 H 0.71089 0.4775 0.17805 0.0
H354 H 0.60685 0.44992 0.18825 0.0
H355 H 0.5942 0.48254 0.1293 0.0
H356 H 0.37527 0.44183 0.89033 0.0
H357 H 0.3408 0.46236 0.83444 0.0
H358 H 0.4239 0.57214 0.85021 0.0
H359 H 0.45846 0.55124 0.90456 0.0
Sm360 Sm 0.77964 0.24006 0.30109 0.0
Sm361 Sm 0.77602 0.26162 0.21951 0.0
C362 C 0.77923 0.24122 0.36538 0.0
C363 C 0.76062 0.25373 0.37754 0.0
C364 C 0.78129 0.28227 0.3986 0.0
C365 C 0.76439 0.297 0.40707 0.0
C366 C 0.72627 0.28319 0.39503 0.0
C367 C 0.70553 0.25372 0.37505 0.0
C368 C 0.72246 0.23932 0.36623 0.0
C369 C 0.73415 0.1864 0.25789 0.0
C370 C 0.72809 0.27819 0.24556 0.0
C371 C 0.77082 0.25481 0.15477 0.0
C372 C 0.78657 0.23959 0.14199 0.0
C373 C 0.76466 0.21623 0.11537 0.0
C374 C 0.77831 0.19865 0.10596 0.0
C375 C 0.8142 0.20406 0.12318 0.0
C376 C 0.83635 0.2284 0.14892 0.0
C377 C 0.82276 0.24598 0.15815 0.0
C378 C 0.82168 0.31582 0.26197 0.0
C379 C 0.83441 0.23161 0.27737 0.0
O380 O 0.80499 0.26632 0.35076 0.0
O381 O 0.75871 0.21244 0.34861 0.0
O382 O 0.73811 0.21779 0.25053 0.0
O383 O 0.75398 0.18154 0.28989 0.0
O384 O 0.7458 0.27034 0.27827 0.0
O385 O 0.73162 0.27374 0.21677 0.0
O386 O 0.74667 0.23155 0.17197 0.0
O387 O 0.79343 0.28468 0.16968 0.0
O388 O 0.81724 0.28423 0.26984 0.0
O389 O 0.8034 0.32105 0.22909 0.0
O390 O 0.81571 0.23716 0.24415 0.0
O391 O 0.82832 0.23413 0.30548 0.0
H392 H 0.81066 0.29364 0.40792 0.0
H393 H 0.78123 0.31927 0.42301 0.0
H394 H 0.67618 0.24248 0.36508 0.0
H395 H 0.70561 0.2175 0.34973 0.0
H396 H 0.73681 0.21124 0.10221 0.0
H397 H 0.76054 0.18018 0.08592 0.0
H398 H 0.86435 0.23395 0.16183 0.0
H399 H 0.84048 0.26436 0.17821 0.0
Sm400 Sm 0.03954 0.4792 0.49893 0.0
Sm401 Sm 1.01967 0.5368 0.49585 0.0
C402 C 0.0508 0.43083 0.48618 0.0
C403 C 0.07572 0.42737 0.47362 0.0
C404 C 0.06311 0.41468 0.44053 0.0
C405 C 0.08507 0.40831 0.42949 0.0
C406 C 0.12015 0.41423 0.4514 0.0
C407 C 0.13303 0.42762 0.48422 0.0
C408 C 0.11108 0.43406 0.49523 0.0
C409 C 0.09096 0.53266 0.54278 0.0
C410 C 0.06051 0.55065 0.43973 0.0
C411 C 1.0121 0.58706 0.50959 0.0
C412 C 0.98968 0.59132 0.52466 0.0
C413 C 1.00701 0.61468 0.55082 0.0
C414 C 0.98655 0.62098 0.56407 0.0
C415 C 0.94829 0.60415 0.55123 0.0
C416 C 0.93094 0.58003 0.52562 0.0
C417 C 0.95144 0.57361 0.5125 0.0
C418 C 0.97019 0.48741 0.44849 0.0
C419 C 0.99418 0.46291 0.55213 0.0
O420 O 1.02932 0.44346 0.46262 0.0
O421 O 0.06317 0.44182 0.51754 0.0
O422 O 0.0728 0.53664 0.51127 0.0
O423 O 0.08384 0.49935 0.55222 0.0
O424 O 0.05184 0.51626 0.44729 0.0
O425 O 0.0571 0.56693 0.45957 0.0
O426 O 1.03441 0.57487 0.53196 0.0
O427 O 0.99649 0.57429 0.47873 0.0
O428 O 0.98583 0.48013 0.48047 0.0
O429 O 0.97861 0.52113 0.4412 0.0
O430 O 1.00284 0.49733 0.54505 0.0
O431 O 1.00039 0.44773 0.53365 0.0
H432 H 0.03592 0.40905 0.42339 0.0
H433 H 0.07443 0.39851 0.40383 0.0
H434 H 0.1597 0.43209 0.50198 0.0
H435 H 0.12161 0.44357 0.52103 0.0
H436 H 0.03649 0.62846 0.56068 0.0
H437 H 1.00072 0.63919 0.58426 0.0
H438 H 0.90155 0.56687 0.51497 0.0
H439 H 0.93737 0.5553 0.49241 0.0
Sm440 Sm 0.79213 0.72075 0.261 0.0
Sm441 Sm 0.77689 0.78081 0.25305 0.0
C442 C 0.79784 0.66755 0.25122 0.0
C443 C 0.81928 0.66168 0.23669 0.0
C444 C 0.804 0.62885 0.22395 0.0
C445 C 0.82378 0.6224 0.21001 0.0
C446 C 0.85922 0.64876 0.20865 0.0
C447 C 0.8744 0.68185 0.2212 0.0
C448 C 0.85444 0.68835 0.23499 0.0
C449 C 0.83907 0.76706 0.31249 0.0
C450 C 0.83261 0.79643 0.21091 0.0
C451 C 0.77193 0.83467 0.26227 0.0
C452 C 0.75159 0.84155 0.27723 0.0
C453 C 0.76614 0.87604 0.28584 0.0
C454 C 0.74801 0.88327 0.30122 0.0
C455 C 0.71503 0.85601 0.3082 0.0
C456 C 0.70043 0.82135 0.29947 0.0
C457 C 0.71876 0.81409 0.28421 0.0
C458 C 0.73171 0.73546 0.20081 0.0
C459 C 0.73636 0.7053 0.30354 0.0
O460 O 0.77576 0.67955 0.22798 0.0
O461 O 0.81479 0.68263 0.28083 0.0
O462 O 0.82815 0.77584 0.27962 0.0
O463 O 0.82614 0.73249 0.31935 0.0
O464 O 0.82094 0.76124 0.21706 0.0
O465 O 0.82298 0.8115 0.22586 0.0
O466 O 0.79411 0.82274 0.28543 0.0
O467 O 0.754 0.81879 0.2331 0.0
O468 O 0.74105 0.72596 0.23374 0.0
O469 O 0.74473 0.77004 0.19422 0.0
O470 O 0.74661 0.7402 0.29578 0.0
O471 O 0.74746 0.69034 0.29016 0.0
H472 H 0.7768 0.60809 0.22499 0.0
H473 H 0.81163 0.59652 0.20092 0.0
H474 H 0.90156 0.70267 0.22016 0.0
H475 H 0.86642 0.71405 0.2444 0.0
H476 H 0.79159 0.8974 0.28071 0.0
H477 H 0.75955 0.91031 0.30723 0.0
H478 H 0.67514 0.79989 0.30482 0.0
H479 H 0.70748 0.78717 0.27801 0.0
Sm480 Sm 0.8282 0.23229 0.78496 0.0
Sm481 Sm 0.77015 0.25279 0.74551 0.0
C482 C 0.87135 0.2074 0.83299 0.0
C483 C 0.86426 0.17018 0.84639 0.0
C484 C 0.87258 0.15978 0.88322 0.0
C485 C 0.86597 0.12451 0.89617 0.0
C486 C 0.85136 0.09919 0.87244 0.0
C487 C 0.84117 0.1092 0.83557 0.0
C488 C 0.84738 0.14437 0.82264 0.0
C489 C 0.78408 0.20081 0.72286 0.0
C490 C 0.7495 0.18643 0.80325 0.0
C491 C 0.72351 0.27455 0.69925 0.0
C492 C 0.72478 0.30952 0.69147 0.0
C493 C 0.69269 0.3121 0.67387 0.0
C494 C 0.69279 0.34447 0.67037 0.0
C495 C 0.72497 0.37462 0.68463 0.0
C496 C 0.75744 0.37228 0.70127 0.0
C497 C 0.75728 0.33973 0.70492 0.0
C498 C 0.81337 0.28408 0.80773 0.0
C499 C 0.84845 0.29857 0.72628 0.0
O500 O 0.85342 0.21807 0.84166 0.0
O501 O 0.87236 0.21786 0.79979 0.0
O502 O 0.7735 0.20426 0.74525 0.0
O503 O 0.81883 0.21181 0.73379 0.0
O504 O 0.78515 0.19989 0.81661 0.0
O505 O 0.73556 0.19748 0.77041 0.0
O506 O 0.74754 0.27278 0.69034 0.0
O507 O 0.72062 0.25863 0.73113 0.0
O508 O 0.82489 0.28107 0.78578 0.0
O509 O 0.77864 0.27293 0.79605 0.0
O510 O 0.81272 0.28532 0.71356 0.0
O511 O 0.86306 0.28678 0.75855 0.0
H512 H 0.88468 0.17905 0.90194 0.0
H513 H 0.87361 0.11735 0.92479 0.0
H514 H 0.83016 0.09042 0.81665 0.0
H515 H 0.8397 0.15148 0.79402 0.0
H516 H 0.66744 0.28892 0.6636 0.0
H517 H 0.66757 0.34592 0.65658 0.0
H518 H 0.78254 0.39524 0.71219 0.0
H519 H 0.78223 0.33783 0.71901 0.0
Sm520 Sm 0.76726 0.72835 0.73091 0.0
Sm521 Sm 0.80763 0.77796 0.78984 0.0
C522 C 0.75129 0.70008 0.67353 0.0
C523 C 0.77092 0.69175 0.65883 0.0
C524 C 0.80821 0.70267 0.67458 0.0
C525 C 0.82637 0.69264 0.66209 0.0
C526 C 0.80739 0.67106 0.63396 0.0
C527 C 0.77 0.66042 0.61811 0.0
C528 C 0.75193 0.67074 0.63047 0.0
C529 C 0.72481 0.69923 0.77804 0.0
C530 C 0.83374 0.7099 0.8051 0.0
C531 C 0.8236 0.80711 0.84678 0.0
C532 C 0.80775 0.82087 0.86115 0.0
C533 C 0.79305 0.80121 0.89003 0.0
C534 C 0.77848 0.81424 0.90404 0.0
C535 C 0.77838 0.84726 0.8895 0.0
C536 C 0.79357 0.86718 0.86099 0.0
C537 C 0.80816 0.8542 0.84701 0.0
C538 C 0.84996 0.80704 0.74256 0.0
C539 C 0.74122 0.7964 0.71522 0.0
O540 O 0.76232 0.73415 0.67332 0.0
O541 O 0.7449 0.68101 0.70357 0.0
O542 O 0.75488 0.72764 0.77996 0.0
O543 O 0.71579 0.68569 0.74937 0.0
O544 O 0.8111 0.70427 0.77108 0.0
O545 O 0.83546 0.73612 0.81842 0.0
O546 O 0.80787 0.7724 0.8461 0.0
O547 O 0.8345 0.82551 0.81841 0.0
O548 O 0.81991 0.77863 0.7407 0.0
O549 O 0.85932 0.82029 0.77153 0.0
O550 O 0.76547 0.80362 0.74842 0.0
O551 O 0.73786 0.76869 0.70291 0.0
H552 H 0.82313 0.71847 0.6969 0.0
H553 H 0.85526 0.70171 0.67455 0.0
H554 H 0.75451 0.64341 0.59675 0.0
H555 H 0.72299 0.66172 0.61837 0.0
H556 H 0.79268 0.77564 0.9017 0.0
H557 H 0.76666 0.79815 0.92583 0.0
H558 H 0.79429 0.89293 0.84956 0.0
H559 H 0.81973 0.87035 0.82509 0.0
Sm560 Sm 0.51921 0.46376 0.48053 0.0
Sm561 Sm 0.53368 0.51813 0.51971 0.0
C562 C 0.52023 0.42176 0.44565 0.0
C563 C 0.5446 0.41212 0.43986 0.0
C564 C 0.582 0.4271 0.45773 0.0
C565 C 0.60404 0.41608 0.45278 0.0
C566 C 0.58909 0.38999 0.42972 0.0
C567 C 0.55162 0.37544 0.41169 0.0
C568 C 0.52969 0.38638 0.41674 0.0
C569 C 0.47956 0.43438 0.53044 0.0
C570 C 0.59348 0.49286 0.54729 0.0
C571 C 0.53279 0.56182 0.55215 0.0
C572 C 0.50793 0.56943 0.55961 0.0
C573 C 0.47058 0.55453 0.54147 0.0
C574 C 0.44815 0.56418 0.5477 0.0
C575 C 0.46276 0.58877 0.57223 0.0
C576 C 0.50014 0.60311 0.59057 0.0
C577 C 0.52242 0.59351 0.58432 0.0
C578 C 0.57459 0.54719 0.47123 0.0
C579 C 0.45785 0.48632 0.45633 0.0
O580 O 0.52298 0.45354 0.43209 0.0
O581 O 0.51518 0.41219 0.47732 0.0
O582 O 0.51278 0.45815 0.53587 0.0
O583 O 0.46685 0.42523 0.49847 0.0
O584 O 0.57806 0.48014 0.51616 0.0
O585 O 0.5786 0.50537 0.55843 0.0
O586 O 0.53476 0.53242 0.56846 0.0
O587 O 0.53336 0.56841 0.51897 0.0
O588 O 0.54106 0.52404 0.46477 0.0
O589 O 0.58672 0.55552 0.50339 0.0
O590 O 0.47336 0.49758 0.48807 0.0
O591 O 0.4737 0.47688 0.44287 0.0
H592 H 0.59406 0.44712 0.47561 0.0
H593 H 0.63282 0.42813 0.46686 0.0
H594 H 0.53896 0.35493 0.39421 0.0
H595 H 0.50085 0.37434 0.40285 0.0
H596 H 0.45891 0.53583 0.52228 0.0
H597 H 0.41944 0.55241 0.53336 0.0
H598 H 0.51248 0.62257 0.60915 0.0
H599 H 0.55122 0.60546 0.59837 0.0
Sm600 Sm 1.03144 0.4999 0.04119 0.0
Sm601 Sm 0.04572 0.50663 0.9759 0.0
C602 C 1.02959 0.51289 0.09962 0.0
C603 C 1.01314 0.52828 0.11017 0.0
C604 C 0.99617 0.54777 0.08482 0.0
C605 C 0.9816 0.56324 0.09554 0.0
C606 C 0.98377 0.55932 0.13173 0.0
C607 C 1.00075 0.53965 0.15698 0.0
C608 C 1.01537 0.52426 0.14622 0.0
C609 C 0.97827 0.4463 0.99974 0.0
C610 C 0.99438 0.54918 0.96435 0.0
C611 C 0.05146 0.49328 0.92018 0.0
C612 C 0.07427 0.48153 0.91486 0.0
C613 C 0.07825 0.45174 0.93599 0.0
C614 C 0.10061 0.44142 0.93108 0.0
C615 C 0.11964 0.46084 0.90516 0.0
C616 C 0.11591 0.4909 0.88438 0.0
C617 C 0.09331 0.50105 0.88912 0.0
C618 C 0.09863 0.56037 0.01707 0.0
C619 C 0.08195 0.45645 0.05252 0.0
O620 O 0.05399 0.53546 0.08254 0.0
O621 O 1.00753 0.48226 0.08628 0.0
O622 O 0.99315 0.4792 0.98922 0.0
O623 O 0.99097 0.44002 0.03401 0.0
O624 O 1.00347 0.54044 1.00075 0.0
O625 O 1.00612 0.53652 0.94777 0.0
O626 O 1.0273 0.46967 0.93729 0.0
O627 O 0.06837 0.52554 0.92974 0.0
O628 O 0.084 0.52744 0.02779 0.0
O629 O 0.08582 0.56647 0.9828 0.0
O630 O 0.07551 0.46776 0.01657 0.0
O631 O 0.06783 0.46674 0.06876 0.0
H632 H 0.99429 0.55111 0.05685 0.0
H633 H 0.96827 0.57791 0.0755 0.0
H634 H 1.00312 0.53654 0.18508 0.0
H635 H 1.02864 0.50944 0.16608 0.0
H636 H 0.06407 0.43633 0.95628 0.0
H637 H 0.10249 0.41786 0.94719 0.0
H638 H 0.13064 0.50675 0.86456 0.0
H639 H 0.09086 0.5243 0.87281 0.0
C640 C 0.21729 0.19856 0.86265 0.0
C641 C 0.21267 0.18562 0.83243 0.0
C642 C 0.19457 0.17725 0.8856 0.0
C643 C 0.16549 0.14243 0.87771 0.0
C644 C 0.16057 0.1295 0.84697 0.0
C645 C 0.18439 0.15085 0.82522 0.0
C646 C 0.20177 0.19202 0.91846 0.0
C647 C 0.12945 0.09332 0.83645 0.0
C648 C 0.11849 0.07421 0.94928 0.0
C649 C 0.08942 0.08088 0.94326 0.0
C650 C 0.14364 0.09411 0.92858 0.0
C651 C 0.13899 0.12051 0.90022 0.0
C652 C 0.10867 0.12607 0.89327 0.0
C653 C 0.08494 0.10687 0.9152 0.0
C654 C 0.17598 0.08782 0.938 0.0
C655 C 0.10142 0.15269 0.86277 0.0
H656 H 0.23917 0.22515 0.86878 0.0
H657 H 0.18028 0.14051 0.80189 0.0
H658 H 0.17858 0.19593 0.91614 0.0
H659 H 0.20414 0.17261 0.94244 0.0
H660 H 0.22707 0.21807 0.92261 0.0
H661 H 0.12919 0.087 0.81184 0.0
H662 H 0.13121 0.07196 0.85837 0.0
H663 H 0.10314 0.09264 0.8319 0.0
H664 H 0.12263 0.05469 0.97128 0.0
H665 H 0.0627 0.11238 0.91044 0.0
H666 H 0.20155 0.11304 0.94521 0.0
H667 H 0.17631 0.0801 0.91461 0.0
H668 H 0.17588 0.06653 0.96072 0.0
H669 H 0.12384 0.18021 0.86764 0.0
H670 H 0.07533 0.15204 0.8592 0.0
H671 H 0.10055 0.14704 0.8375 0.0
C672 C 0.1762 0.07181 0.06024 0.0
C673 C 0.14939 0.05769 0.07786 0.0
C674 C 0.20593 0.06471 0.07544 0.0
C675 C 0.20777 0.04257 0.10826 0.0
C676 C 0.18619 0.03663 0.12961 0.0
C677 C 0.15674 0.04423 0.11391 0.0
C678 C 0.23047 0.07437 0.05313 0.0
C679 C 0.18938 0.01568 0.1661 0.0
C680 C 0.19954 0.95446 0.10276 0.0
C681 C 0.23192 0.95576 0.12715 0.0
C682 C 0.19239 0.98329 0.09532 0.0
C683 C 0.2186 0.01479 0.11241 0.0
C684 C 0.25267 0.01747 0.13501 0.0
C685 C 0.25877 0.98763 0.14254 0.0
C686 C 0.15566 0.97885 0.07055 0.0
C687 C 0.28215 0.0509 0.15251 0.0
H688 H 0.17101 0.08327 0.03254 0.0
H689 H 0.13641 0.03411 0.12785 0.0
H690 H 0.25707 0.07564 0.07006 0.0
H691 H 0.21718 0.05367 0.03476 0.0
H692 H 0.23515 0.10054 0.03658 0.0
H693 H 0.1765 0.01967 0.18186 0.0
H694 H 0.17547 0.98666 0.1632 0.0
H695 H 0.21839 0.02373 0.18102 0.0
H696 H 0.17851 0.92986 0.09108 0.0
H697 H 0.28416 0.98897 0.1611 0.0
H698 H 0.15923 0.99952 0.0471 0.0
H699 H 0.14076 0.98194 0.08459 0.0
H700 H 0.13831 0.95213 0.06064 0.0
H701 H 0.27889 0.07497 0.13822 0.0
H702 H 0.30945 0.05574 0.15385 0.0
H703 H 0.28138 0.0472 0.18034 0.0
C704 C 0.43456 0.93646 0.43436 0.0
C705 C 0.4438 0.92241 0.47006 0.0
C706 C 0.40686 0.91425 0.40832 0.0
C707 C 0.38787 0.87694 0.41819 0.0
C708 C 0.3965 0.86255 0.45435 0.0
C709 C 0.42453 0.88557 0.48001 0.0
C710 C 0.39859 0.93069 0.37004 0.0
C711 C 0.37672 0.82286 0.4657 0.0
C712 C 0.30077 0.831 0.34659 0.0
C713 C 0.31328 0.82108 0.32688 0.0
C714 C 0.32417 0.84714 0.37806 0.0
C715 C 0.3607 0.85329 0.38984 0.0
C716 C 0.37267 0.84126 0.3711 0.0
C717 C 0.34879 0.82535 0.33978 0.0
C718 C 0.31047 0.85955 0.39745 0.0
C719 C 0.41138 0.84724 0.3828 0.0
H720 H 0.44934 0.96499 0.42657 0.0
H721 H 0.43166 0.87474 0.50766 0.0
H722 H 0.40456 0.91997 0.35316 0.0
H723 H 0.36925 0.92344 0.35949 0.0
H724 H 0.41482 0.96041 0.36718 0.0
H725 H 0.38472 0.81632 0.49517 0.0
H726 H 0.34684 0.81301 0.45614 0.0
H727 H 0.38276 0.80807 0.45339 0.0
H728 H 0.27315 0.82734 0.33678 0.0
H729 H 0.35833 0.81718 0.32481 0.0
H730 H 0.32289 0.88925 0.39305 0.0
H731 H 0.31864 0.8518 0.42663 0.0
H732 H 0.28035 0.84829 0.388 0.0
H733 H 0.4301 0.87628 0.3782 0.0
H734 H 0.41502 0.83244 0.36796 0.0
H735 H 0.41961 0.83872 0.41178 0.0
C736 C 0.3911 0.12727 0.70624 0.0
C737 C 0.35319 0.1137 0.69466 0.0
C738 C 0.40798 0.11523 0.69418 0.0
C739 C 0.38638 0.08914 0.66989 0.0
C740 C 0.3481 0.07531 0.65806 0.0
C741 C 0.33193 0.0879 0.6705 0.0
C742 C 0.44883 0.12997 0.70785 0.0
C743 C 0.32422 0.04714 0.63244 0.0
C744 C 0.43377 0.08157 0.61565 0.0
C745 C 0.44032 0.05284 0.63542 0.0
C746 C 0.41569 0.0933 0.62634 0.0
C747 C 0.40401 0.07586 0.65753 0.0
C748 C 0.41029 0.04659 0.67743 0.0
C749 C 0.42822 0.03535 0.66596 0.0
C750 C 0.40976 0.1248 0.60468 0.0
C751 C 0.39862 0.02672 0.71097 0.0
H752 H 0.40763 0.1475 0.72462 0.0
H753 H 0.30254 0.07699 0.66189 0.0
H754 H 0.45546 0.10787 0.72275 0.0
H755 H 0.46091 0.14152 0.68513 0.0
H756 H 0.46181 0.15099 0.72581 0.0
H757 H 0.29489 0.03508 0.63047 0.0
H758 H 0.328 0.05948 0.6055 0.0
H759 H 0.33205 0.02543 0.6408 0.0
H760 H 0.44282 0.09487 0.59179 0.0
H761 H 0.43357 0.01333 0.68154 0.0
H762 H 0.42387 0.14696 0.62149 0.0
H763 H 0.3803 0.117 0.59582 0.0
H764 H 0.42 0.13499 0.58078 0.0
H765 H 0.42182 0.02437 0.73256 0.0
H766 H 0.37683 0.99901 0.70572 0.0
H767 H 0.38848 0.03947 0.72086 0.0
C768 C 0.24707 0.98287 0.70739 0.0
C769 C 0.21051 0.96272 0.70806 0.0
C770 C 0.26958 0.96666 0.71903 0.0
C771 C 0.25472 0.92954 0.73042 0.0
C772 C 0.21975 0.91052 0.73604 0.0
C773 C 0.19826 0.92767 0.72539 0.0
C774 C 0.30771 0.98824 0.71525 0.0
C775 C 0.20313 0.87094 0.74897 0.0
C776 C 0.27199 0.8692 0.69914 0.0
C777 C 0.29008 0.85667 0.73157 0.0
C778 C 0.26269 0.89533 0.69796 0.0
C779 C 0.27212 0.90911 0.72997 0.0
C780 C 0.29366 0.89912 0.76201 0.0
C781 C 0.30253 0.873 0.76238 0.0
C782 C 0.23999 0.90577 0.66312 0.0
C783 C 0.30537 0.91427 0.79627 0.0
H784 H 0.25718 0.01021 0.69455 0.0
H785 H 0.17049 0.91247 0.72724 0.0
H786 H 0.32672 0.9803 0.73784 0.0
H787 H 0.30791 0.98301 0.69034 0.0
H788 H 0.31785 0.01743 0.71407 0.0
H789 H 0.17898 0.86187 0.75798 0.0
H790 H 0.19438 0.85556 0.72683 0.0
H791 H 0.22326 0.86436 0.77126 0.0
H792 H 0.26256 0.85658 0.67541 0.0
H793 H 0.31741 0.86379 0.78736 0.0
H794 H 0.25239 0.93538 0.65716 0.0
H795 H 0.21237 0.89592 0.66531 0.0
H796 H 0.23711 0.89448 0.64035 0.0
H797 H 0.32532 0.94315 0.79386 0.0
H798 H 0.31817 0.9004 0.81969 0.0
H799 H 0.2818 0.91217 0.80145 0.0
C800 C 0.35504 0.8188 0.83725 0.0
C801 C 0.37457 0.81997 0.81677 0.0
C802 C 0.37195 0.8423 0.86333 0.0
C803 C 0.40946 0.86743 0.86912 0.0
C804 C 0.4297 0.86736 0.84971 0.0
C805 C 0.41184 0.84406 0.82332 0.0
C806 C 0.34883 0.84155 0.88272 0.0
C807 C 0.47002 0.89266 0.85602 0.0
C808 C 0.44964 0.95663 0.90337 0.0
C809 C 0.46561 0.94944 0.93965 0.0
C810 C 0.42991 0.92969 0.88041 0.0
C811 C 0.42727 0.89516 0.89385 0.0
C812 C 0.44287 0.88767 0.9306 0.0
C813 C 0.46111 0.91467 0.95318 0.0
C814 C 0.41248 0.93839 0.84164 0.0
C815 C 0.44095 0.85136 0.94591 0.0
H816 H 0.32605 0.80134 0.83132 0.0
H817 H 0.4269 0.84519 0.80721 0.0
H818 H 0.36459 0.84972 0.90996 0.0
H819 H 0.33777 0.86045 0.86744 0.0
H820 H 0.32545 0.81439 0.88483 0.0
H821 H 0.48247 0.88667 0.84146 0.0
H822 H 0.47458 0.92065 0.84708 0.0
H823 H 0.48436 0.89108 0.88497 0.0
H824 H 0.45262 0.98335 0.89289 0.0
H825 H 0.47265 0.90873 0.98139 0.0
H826 H 0.38412 0.91687 0.83287 0.0
H827 H 0.42785 0.94 0.82487 0.0
H828 H 0.41208 0.96432 0.83667 0.0
H829 H 0.41207 0.83027 0.94127 0.0
H830 H 0.45476 0.84994 0.97502 0.0
H831 H 0.4539 0.84521 0.93212 0.0
C832 C 0.40022 0.0767 0.07575 0.0
C833 C 0.43173 0.1044 0.06618 0.0
C834 C 0.37867 0.0842 0.08655 0.0
C835 C 0.38894 0.12026 0.08805 0.0
C836 C 0.42046 0.14829 0.0781 0.0
C837 C 0.44132 0.14005 0.06724 0.0
C838 C 0.34536 0.05347 0.09706 0.0
C839 C 0.4323 0.18711 0.07907 0.0
C840 C 0.32089 0.1472 0.08769 0.0
C841 C 0.33033 0.15109 0.12381 0.0
C842 C 0.33892 0.13612 0.07583 0.0
C843 C 0.36734 0.12898 0.10062 0.0
C844 C 0.37651 0.13217 0.13721 0.0
C845 C 0.35797 0.14318 0.14833 0.0
C846 C 0.32777 0.1324 0.0367 0.0
C847 C 0.4065 0.1247 0.16456 0.0
H848 H 0.39271 0.04906 0.07541 0.0
H849 H 0.4651 0.16171 0.05923 0.0
H850 H 0.35059 0.05073 0.12638 0.0
H851 H 0.32158 0.05867 0.08429 0.0
H852 H 0.33816 0.0276 0.08966 0.0
H853 H 0.45734 0.20577 0.07031 0.0
H854 H 0.41021 0.19384 0.06154 0.0
H855 H 0.43757 0.19163 0.10659 0.0
H856 H 0.29912 0.15255 0.06863 0.0
H857 H 0.36572 0.14637 0.17624 0.0
H858 H 0.32026 0.10492 0.03336 0.0
H859 H 0.35104 0.15138 0.02539 0.0
H860 H 0.30432 0.13772 0.02107 0.0
H861 H 0.4011 0.09735 0.16348 0.0
H862 H 0.40931 0.12693 0.19217 0.0
H863 H 0.43285 0.14391 0.15842 0.0
C864 C 0.08403 0.08999 0.39675 0.0
C865 C 0.09917 0.07401 0.42905 0.0
C866 C 0.10435 0.11268 0.37204 0.0
C867 C 0.14064 0.11922 0.37918 0.0
C868 C 0.15611 0.10343 0.41189 0.0
C869 C 0.13544 0.08139 0.43634 0.0
C870 C 0.08699 0.12978 0.33824 0.0
C871 C 0.19449 0.10939 0.42088 0.0
C872 C 0.17793 0.14192 0.30005 0.0
C873 C 0.20291 0.17866 0.30075 0.0
C874 C 0.15776 0.12264 0.32518 0.0
C875 C 0.16157 0.14042 0.35159 0.0
C876 C 0.18617 0.17784 0.35199 0.0
C877 C 0.20695 0.19634 0.32702 0.0
C878 C 0.13273 0.08286 0.3238 0.0
C879 C 0.19116 0.19856 0.37898 0.0
H880 H 0.05629 0.08504 0.39084 0.0
H881 H 0.14769 0.06944 0.46112 0.0
H882 H 0.10468 0.15927 0.33566 0.0
H883 H 0.08425 0.11972 0.31471 0.0
H884 H 0.05959 0.12413 0.33757 0.0
H885 H 0.20277 0.09543 0.44738 0.0
H886 H 0.19688 0.09964 0.40023 0.0
H887 H 0.21382 0.13851 0.42086 0.0
H888 H 0.17458 0.12784 0.28004 0.0
H889 H 0.22592 0.22471 0.32777 0.0
H890 H 0.1044 0.07664 0.32012 0.0
H891 H 0.14108 0.06792 0.34947 0.0
H892 H 0.13288 0.07286 0.30181 0.0
H893 H 0.16595 0.18729 0.38694 0.0
H894 H 0.19938 0.22717 0.36831 0.0
H895 H 0.21309 0.19748 0.40323 0.0
C896 C 0.84848 0.16878 0.14261 0.0
C897 C 0.82889 0.18453 0.11482 0.0
C898 C 0.86533 0.15291 0.13566 0.0
C899 C 0.8622 0.15226 0.0999 0.0
C900 C 0.8412 0.16686 0.07163 0.0
C901 C 0.82479 0.18278 0.07942 0.0
C902 C 0.88716 0.13754 0.16669 0.0
C903 C 0.83706 0.16674 0.03313 0.0
C904 C 0.93836 0.14801 0.0843 0.0
C905 C 0.92275 0.11165 0.08021 0.0
C906 C 0.91884 0.16151 0.09028 0.0
C907 C 0.88262 0.13819 0.09229 0.0
C908 C 0.8665 0.10152 0.08785 0.0
C909 C 0.88667 0.08872 0.08178 0.0
C910 C 0.93714 0.20081 0.09466 0.0
C911 C 0.82804 0.0757 0.08991 0.0
H912 H 0.85076 0.16905 0.16994 0.0
H913 H 0.80971 0.19489 0.05779 0.0
H914 H 0.87599 0.10871 0.16483 0.0
H915 H 0.91582 0.15136 0.16576 0.0
H916 H 0.88707 0.14028 0.19289 0.0
H917 H 0.81773 0.17667 0.01426 0.0
H918 H 0.86396 0.18402 0.02763 0.0
H919 H 0.82733 0.13925 0.02783 0.0
H920 H 0.96591 0.16618 0.08243 0.0
H921 H 0.87436 0.06058 0.07888 0.0
H922 H 0.93847 0.20382 0.12135 0.0
H923 H 0.92092 0.21354 0.07445 0.0
H924 H 0.96522 0.21554 0.09184 0.0
H925 H 0.82609 0.07424 0.1167 0.0
H926 H 0.81903 0.04825 0.08494 0.0
H927 H 0.80897 0.08542 0.07008 0.0
C928 C 0.07692 0.55478 0.38593 0.0
C929 C 0.07648 0.57181 0.40984 0.0
C930 C 0.09472 0.57489 0.35928 0.0
C931 C 0.11272 0.61278 0.35689 0.0
C932 C 0.11064 0.63004 0.37969 0.0
C933 C 0.0924 0.60931 0.40583 0.0
C934 C 0.09593 0.55562 0.33503 0.0
C935 C 0.12963 0.67043 0.37801 0.0
C936 C 0.19988 0.66626 0.32986 0.0
C937 C 0.18895 0.68307 0.29606 0.0
C938 C 0.17488 0.64215 0.34922 0.0
C939 C 0.13793 0.63442 0.33432 0.0
C940 C 0.12624 0.64981 0.29947 0.0
C941 C 0.15201 0.67417 0.28071 0.0
C942 C 0.18844 0.62625 0.38636 0.0
C943 C 0.08688 0.64167 0.28263 0.0
H944 H 0.06408 0.52575 0.3885 0.0
H945 H 0.09189 0.62265 0.424 0.0
H946 H 0.09037 0.56783 0.30693 0.0
H947 H 0.1236 0.55819 0.34289 0.0
H948 H 0.07595 0.52663 0.33644 0.0
H949 H 0.12244 0.67962 0.39521 0.0
H950 H 0.15958 0.68065 0.38691 0.0
H951 H 0.12255 0.68262 0.35018 0.0
H952 H 0.2283 0.67266 0.34181 0.0
H953 H 0.14335 0.68686 0.25446 0.0
H954 H 0.17219 0.5966 0.3889 0.0
H955 H 0.18504 0.63599 0.40628 0.0
H956 H 0.21762 0.63346 0.39316 0.0
H957 H 0.06861 0.61234 0.28562 0.0
H958 H 0.08138 0.65191 0.25381 0.0
H959 H 0.07982 0.65428 0.29647 0.0
C960 C 0.60592 0.91504 0.61324 0.0
C961 C 0.6034 0.93143 0.57646 0.0
C962 C 0.62629 0.89413 0.63438 0.0
C963 C 0.64852 0.88736 0.62162 0.0
C964 C 0.64644 0.90424 0.58451 0.0
C965 C 0.62501 0.92427 0.56375 0.0
C966 C 0.62275 0.87861 0.67159 0.0
C967 C 0.66782 0.90211 0.56524 0.0
C968 C 0.7225 0.85203 0.70023 0.0
C969 C 0.71745 0.81969 0.69135 0.0
C970 C 0.70222 0.87308 0.67917 0.0
C971 C 0.67254 0.8639 0.6458 0.0
C972 C 0.667 0.83094 0.63694 0.0
C973 C 0.6884 0.811 0.65812 0.0
C974 C 0.71423 0.90664 0.69378 0.0
C975 C 0.6371 0.81496 0.60424 0.0
H976 H 0.59101 0.91815 0.62647 0.0
H977 H 0.62587 0.93503 0.53645 0.0
H978 H 0.62915 0.8559 0.68195 0.0
H979 H 0.64164 0.89994 0.68962 0.0
H980 H 0.59471 0.86917 0.67236 0.0
H981 H 0.67948 0.92757 0.54802 0.0
H982 H 0.69031 0.89646 0.58385 0.0
H983 H 0.64915 0.88049 0.54751 0.0
H984 H 0.74356 0.86199 0.72457 0.0
H985 H 0.6814 0.78723 0.648 0.0
H986 H 0.70197 0.89921 0.71578 0.0
H987 H 0.70605 0.92574 0.67318 0.0
H988 H 0.7443 0.92042 0.70524 0.0
H989 H 0.6162 0.82405 0.59581 0.0
H990 H 0.62348 0.78521 0.60908 0.0
H991 H 0.64922 0.8228 0.58205 0.0
C992 C 0.4608 0.3993 0.96178 0.0
C993 C 0.49807 0.41218 0.96774 0.0
C994 C 0.43461 0.37411 0.93743 0.0
C995 C 0.44606 0.36101 0.91912 0.0
C996 C 0.48383 0.37326 0.926 0.0
C997 C 0.50942 0.39881 0.95021 0.0
C998 C 0.39474 0.36211 0.93076 0.0
C999 C 0.49722 0.3599 0.90725 0.0
C1000 C 0.37717 0.27403 0.87657 0.0
C1001 C 0.36657 0.28688 0.84063 0.0
C1002 C 0.40307 0.29779 0.9024 0.0
C1003 C 0.41862 0.33532 0.89208 0.0
C1004 C 0.40791 0.34837 0.85578 0.0
C1005 C 0.38224 0.32403 0.83052 0.0
C1006 C 0.41373 0.28274 0.94077 0.0
C1007 C 0.42347 0.38812 0.84362 0.0
H1008 H 0.45213 0.40922 0.97595 0.0
H1009 H 0.53833 0.40879 0.95502 0.0
H1010 H 0.38282 0.36966 0.90234 0.0
H1011 H 0.37965 0.33248 0.93599 0.0
H1012 H 0.39033 0.37422 0.94775 0.0
H1013 H 0.52732 0.37095 0.91657 0.0
H1014 H 0.48447 0.33019 0.91172 0.0
H1015 H 0.48908 0.36755 0.87803 0.0
H1016 H 0.36515 0.24535 0.88455 0.0
H1017 H 0.37435 0.33415 0.80275 0.0
H1018 H 0.40737 0.29264 0.95806 0.0
H1019 H 0.44354 0.29216 0.95009 0.0
H1020 H 0.39941 0.25294 0.94444 0.0
H1021 H 0.4175 0.40113 0.85814 0.0
H1022 H 0.41223 0.39392 0.81449 0.0
H1023 H 0.45355 0.40057 0.84998 0.0
C1024 C 0.87924 0.7814 0.37453 0.0
C1025 C 0.86716 0.79317 0.33853 0.0
C1026 C 0.90586 0.80603 0.39937 0.0
C1027 C 0.92082 0.84336 0.38794 0.0
C1028 C 0.90884 0.85532 0.35152 0.0
C1029 C 0.88217 0.83012 0.32732 0.0
C1030 C 0.91767 0.79212 0.43794 0.0
C1031 C 0.92391 0.8948 0.33816 0.0
C1032 C 0.96093 0.90835 0.45594 0.0
C1033 C 0.99854 0.9215 0.46313 0.0
C1034 C 0.93548 0.88283 0.43181 0.0
C1035 C 0.94781 0.86996 0.41429 0.0
C1036 C 0.98579 0.88297 0.42159 0.0
C1037 C 1.01073 0.9086 0.44595 0.0
C1038 C 0.89535 0.86983 0.42487 0.0
C1039 C 1.00006 0.87004 0.40341 0.0
H1040 H 0.86774 0.75288 0.38335 0.0
H1041 H 0.87301 0.83942 0.29951 0.0
H1042 H 0.94763 0.80248 0.4468 0.0
H1043 H 0.91106 0.80194 0.45506 0.0
H1044 H 0.90426 0.76234 0.44237 0.0
H1045 H 0.91272 0.89969 0.30884 0.0
H1046 H 0.91739 0.90818 0.35169 0.0
H1047 H 0.95403 0.90765 0.34474 0.0
H1048 H 0.95127 0.91818 0.46911 0.0
H1049 H 0.03974 0.91872 0.45134 0.0
H1050 H 0.88105 0.84024 0.431 0.0
H1051 H 0.88315 0.87634 0.39622 0.0
H1052 H 0.8902 0.88207 0.44108 0.0
H1053 H 0.98852 0.84045 0.40891 0.0
H1054 H 1.03027 0.8823 0.41234 0.0
H1055 H 0.99123 0.87658 0.37405 0.0
C1056 C 0.44464 0.60566 0.61263 0.0
C1057 C 0.43981 0.60063 0.57814 0.0
C1058 C 0.4264 0.62065 0.61839 0.0
C1059 C 0.40244 0.6307 0.58897 0.0
C1060 C 0.396 0.62407 0.55426 0.0
C1061 C 0.41481 0.60918 0.54924 0.0
C1062 C 0.43402 0.62713 0.65586 0.0
C1063 C 0.37047 0.63412 0.52221 0.0
C1064 C 0.34107 0.65157 0.61233 0.0
C1065 C 0.36107 0.68904 0.6118 0.0
C1066 C 0.35339 0.63223 0.60361 0.0
C1067 C 0.38665 0.65076 0.59443 0.0
C1068 C 0.40641 0.68864 0.59292 0.0
C1069 C 0.39339 0.70725 0.60157 0.0
C1070 C 0.33136 0.59192 0.60521 0.0
C1071 C 0.44214 0.70947 0.58356 0.0
H1072 H 0.46332 0.59846 0.6352 0.0
H1073 H 0.41103 0.6056 0.52246 0.0
H1074 H 0.4478 0.65639 0.65748 0.0
H1075 H 0.40814 0.6151 0.66281 0.0
H1076 H 0.4516 0.61579 0.67607 0.0
H1077 H 0.36534 0.62368 0.49779 0.0
H1078 H 0.34402 0.62367 0.52744 0.0
H1079 H 0.38234 0.66376 0.51701 0.0
H1080 H 0.31589 0.63731 0.61985 0.0
H1081 H 0.40938 0.7361 0.60164 0.0
H1082 H 0.3468 0.57942 0.62717 0.0
H1083 H 0.3265 0.58299 0.58 0.0
H1084 H 0.30466 0.58184 0.60979 0.0
H1085 H 0.46258 0.702 0.60427 0.0
H1086 H 0.4531 0.73893 0.58156 0.0
H1087 H 0.43871 0.70265 0.55777 0.0
C1088 C 0.62433 0.09927 0.93312 0.0
C1089 C 0.61033 0.062 0.94137 0.0
C1090 C 0.64696 0.11839 0.91036 0.0
C1091 C 0.65565 0.09975 0.89544 0.0
C1092 C 0.64147 0.06214 0.9035 0.0
C1093 C 0.61901 0.04372 0.92637 0.0
C1094 C 0.66173 0.15857 0.90243 0.0
C1095 C 0.6501 0.04135 0.88805 0.0
C1096 C 0.68741 0.14653 0.81205 0.0
C1097 C 0.72537 0.16135 0.82619 0.0
C1098 C 0.66433 0.12569 0.8342 0.0
C1099 C 0.67961 0.1197 0.87137 0.0
C1100 C 0.71784 0.13368 0.88566 0.0
C1101 C 0.74027 0.15425 0.86286 0.0
C1102 C 0.62364 0.11089 0.81796 0.0
C1103 C 0.73512 0.12783 0.92519 0.0
H1104 H 0.61787 0.11362 0.94463 0.0
H1105 H 0.60833 0.0149 0.93253 0.0
H1106 H 0.69196 0.17201 0.91091 0.0
H1107 H 0.65301 0.16605 0.87325 0.0
H1108 H 0.65241 0.16903 0.91618 0.0
H1109 H 0.63684 0.01213 0.89695 0.0
H1110 H 0.64098 0.04538 0.85845 0.0
H1111 H 0.67998 0.05142 0.89603 0.0
H1112 H 0.67568 0.15178 0.78372 0.0
H1113 H 0.76958 0.16563 0.87402 0.0
H1114 H 0.61336 0.12292 0.82868 0.0
H1115 H 0.60964 0.08147 0.82536 0.0
H1116 H 0.61602 0.11645 0.78838 0.0
H1117 H 0.72925 0.14054 0.94015 0.0
H1118 H 0.76514 0.1392 0.93182 0.0
H1119 H 0.7233 0.09875 0.93469 0.0
C1120 C 0.10818 0.4162 0.11209 0.0
C1121 C 0.10519 0.43243 0.07523 0.0
C1122 C 0.1281 0.39477 0.13278 0.0
C1123 C 0.14945 0.38728 0.11945 0.0
C1124 C 0.14691 0.40401 0.08224 0.0
C1125 C 0.12584 0.42448 0.06192 0.0
C1126 C 0.12496 0.37943 0.17013 0.0
C1127 C 0.16739 0.40126 0.06235 0.0
C1128 C 0.22277 0.35061 0.19727 0.0
C1129 C 0.21727 0.3182 0.18807 0.0
C1130 C 0.2029 0.3721 0.17652 0.0
C1131 C 0.17308 0.36332 0.1432 0.0
C1132 C 0.16704 0.33025 0.13402 0.0
C1133 C 0.18813 0.30991 0.15485 0.0
C1134 C 0.21556 0.40573 0.1914 0.0
C1135 C 0.13686 0.31453 0.10136 0.0
H1136 H 0.09396 0.41981 0.12574 0.0
H1137 H 0.12624 0.435 0.03447 0.0
H1138 H 0.13107 0.35652 0.18033 0.0
H1139 H 0.14422 0.40078 0.18809 0.0
H1140 H 0.09711 0.3703 0.17124 0.0
H1141 H 0.17908 0.42661 0.045 0.0
H1142 H 0.18975 0.39522 0.08055 0.0
H1143 H 0.1481 0.37968 0.04465 0.0
H1144 H 0.24394 0.36032 0.22163 0.0
H1145 H 0.18077 0.28612 0.1445 0.0
H1146 H 0.20371 0.39844 0.21368 0.0
H1147 H 0.20751 0.42504 0.17105 0.0
H1148 H 0.24567 0.41923 0.20257 0.0
H1149 H 0.11629 0.324 0.09314 0.0
H1150 H 0.1229 0.28477 0.10614 0.0
H1151 H 0.14877 0.32214 0.07905 0.0
C1152 C 0.58636 0.5926 0.90211 0.0
C1153 C 0.59959 0.5734 0.93269 0.0
C1154 C 0.60757 0.61614 0.87835 0.0
C1155 C 0.64279 0.62029 0.88462 0.0
C1156 C 0.65643 0.60133 0.91569 0.0
C1157 C 0.63497 0.57856 0.93934 0.0
C1158 C 0.59196 0.63614 0.84611 0.0
C1159 C 0.69333 0.60407 0.92337 0.0
C1160 C 0.67746 0.64433 0.80336 0.0
C1161 C 0.70421 0.68042 0.80561 0.0
C1162 C 0.65767 0.62478 0.82876 0.0
C1163 C 0.66387 0.64166 0.85719 0.0
C1164 C 0.6905 0.67838 0.85939 0.0
C1165 C 0.71062 0.69718 0.83388 0.0
C1166 C 0.63034 0.5857 0.82535 0.0
C1167 C 0.69774 0.69785 0.88871 0.0
H1168 H 0.55932 0.58927 0.89668 0.0
H1169 H 0.64568 0.56397 0.9627 0.0
H1170 H 0.61171 0.66516 0.84449 0.0
H1171 H 0.58697 0.62624 0.82145 0.0
H1172 H 0.5659 0.63285 0.84669 0.0
H1173 H 0.70087 0.58904 0.94937 0.0
H1174 H 0.69333 0.5933 0.9019 0.0
H1175 H 0.7146 0.63255 0.92356 0.0
H1176 H 0.67228 0.63094 0.78181 0.0
H1177 H 0.73106 0.72505 0.83586 0.0
H1178 H 0.6028 0.58125 0.82241 0.0
H1179 H 0.63751 0.56893 0.84995 0.0
H1180 H 0.62907 0.57629 0.80212 0.0
H1181 H 0.71692 0.72693 0.88516 0.0
H1182 H 0.70945 0.686 0.91493 0.0
H1183 H 0.67182 0.69464 0.88953 0.0
C1184 C 0.69712 0.2947 0.27149 0.0
C1185 C 0.70718 0.2964 0.24205 0.0
C1186 C 0.68342 0.31695 0.27113 0.0
C1187 C 0.68038 0.34183 0.24086 0.0
C1188 C 0.68832 0.34205 0.21022 0.0
C1189 C 0.70138 0.31908 0.21112 0.0
C1190 C 0.67455 0.3151 0.30407 0.0
C1191 C 0.68513 0.36809 0.17717 0.0
C1192 C 0.63147 0.39616 0.21142 0.0
C1193 C 0.66155 0.4306 0.215 0.0
C1194 C 0.63637 0.3656 0.22476 0.0
C1195 C 0.67204 0.36994 0.24145 0.0
C1196 C 0.70116 0.40399 0.25093 0.0
C1197 C 0.69546 0.43412 0.23773 0.0
C1198 C 0.60425 0.32924 0.21664 0.0
C1199 C 0.73928 0.40926 0.2706 0.0
H1200 H 0.70113 0.27686 0.2954 0.0
H1201 H 0.70913 0.3205 0.18836 0.0
H1202 H 0.70015 0.33104 0.32364 0.0
H1203 H 0.65537 0.32579 0.29835 0.0
H1204 H 0.66255 0.28702 0.31674 0.0
H1205 H 0.69128 0.36399 0.15533 0.0
H1206 H 0.65719 0.36517 0.16716 0.0
H1207 H 0.7043 0.39602 0.18379 0.0
H1208 H 0.60487 0.39295 0.19454 0.0
H1209 H 0.71847 0.46067 0.24174 0.0
H1210 H 0.60632 0.30845 0.23921 0.0
H1211 H 0.60398 0.32179 0.1927 0.0
H1212 H 0.57806 0.32921 0.21115 0.0
H1213 H 0.73896 0.38833 0.29367 0.0
H1214 H 0.75756 0.43607 0.28039 0.0
H1215 H 0.75077 0.40674 0.25236 0.0
C1216 C 0.95335 0.47359 0.38725 0.0
C1217 C 0.94834 0.46217 0.42142 0.0
C1218 C 0.93283 0.45024 0.36072 0.0
C1219 C 0.90562 0.41516 0.36823 0.0
C1220 C 0.89999 0.40382 0.40262 0.0
C1221 C 0.92209 0.42728 0.42916 0.0
C1222 C 0.94062 0.46295 0.32488 0.0
C1223 C 0.87038 0.36714 0.41121 0.0
C1224 C 0.83254 0.36651 0.28825 0.0
C1225 C 0.84361 0.34237 0.28782 0.0
C1226 C 0.85208 0.38999 0.31473 0.0
C1227 C 0.88399 0.38997 0.34045 0.0
C1228 C 0.89558 0.36605 0.33947 0.0
C1229 C 0.8748 0.34203 0.31357 0.0
C1230 C 0.83807 0.41411 0.31574 0.0
C1231 C 0.93005 0.36596 0.36563 0.0
H1232 H 0.97397 0.50062 0.38153 0.0
H1233 H 0.91815 0.41874 0.45561 0.0
H1234 H 0.94742 0.44464 0.31897 0.0
H1235 H 0.91604 0.46235 0.30349 0.0
H1236 H 0.96354 0.49062 0.3238 0.0
H1237 H 0.86826 0.36311 0.43859 0.0
H1238 H 0.84374 0.36326 0.39176 0.0
H1239 H 0.87569 0.34614 0.40875 0.0
H1240 H 0.80793 0.36614 0.26867 0.0
H1241 H 0.8832 0.32319 0.31315 0.0
H1242 H 0.85957 0.44248 0.31522 0.0
H1243 H 0.83073 0.40694 0.34103 0.0
H1244 H 0.81373 0.41187 0.293 0.0
H1245 H 0.9535 0.39325 0.3646 0.0
H1246 H 0.93618 0.3469 0.3601 0.0
H1247 H 0.92755 0.35853 0.39322 0.0
C1248 C 0.63406 0.59073 0.45715 0.0
C1249 C 0.59635 0.56843 0.44469 0.0
C1250 C 0.65575 0.61262 0.4336 0.0
C1251 C 0.63961 0.6129 0.39615 0.0
C1252 C 0.60149 0.59027 0.38329 0.0
C1253 C 0.5804 0.56819 0.40762 0.0
C1254 C 0.69614 0.63555 0.44895 0.0
C1255 C 0.58291 0.58965 0.34373 0.0
C1256 C 0.69413 0.6949 0.33779 0.0
C1257 C 0.71108 0.68188 0.32679 0.0
C1258 C 0.67019 0.67266 0.35942 0.0
C1259 C 0.66298 0.63637 0.37087 0.0
C1260 C 0.67989 0.6231 0.3597 0.0
C1261 C 0.7034 0.64577 0.33787 0.0
C1262 C 0.65282 0.68816 0.37031 0.0
C1263 C 0.67368 0.58496 0.37136 0.0
H1264 H 0.64685 0.59111 0.48568 0.0
H1265 H 0.55135 0.55126 0.3976 0.0
H1266 H 0.71171 0.62867 0.43944 0.0
H1267 H 0.70372 0.66425 0.43959 0.0
H1268 H 0.70468 0.63212 0.47862 0.0
H1269 H 0.55317 0.57104 0.33782 0.0
H1270 H 0.58711 0.617 0.33109 0.0
H1271 H 0.59517 0.58139 0.33121 0.0
H1272 H 0.69948 0.72254 0.32941 0.0
H1273 H 0.71613 0.63511 0.32977 0.0
H1274 H 0.66225 0.68803 0.39975 0.0
H1275 H 0.62277 0.67133 0.36279 0.0
H1276 H 0.65945 0.71609 0.35776 0.0
H1277 H 0.68366 0.58073 0.40089 0.0
H1278 H 0.68779 0.57823 0.35957 0.0
H1279 H 0.64411 0.56599 0.36359 0.0
C1280 C 0.87468 0.31627 0.84941 0.0
C1281 C 0.83686 0.30265 0.83991 0.0
C1282 C 0.89741 0.33615 0.87863 0.0
C1283 C 0.88178 0.34247 0.8986 0.0
C1284 C 0.84346 0.32729 0.89007 0.0
C1285 C 0.82142 0.30749 0.86078 0.0
C1286 C 0.93818 0.35183 0.88706 0.0
C1287 C 0.82583 0.33351 0.91071 0.0
C1288 C 0.94137 0.38247 0.98633 0.0
C1289 C 0.95203 0.41896 0.97501 0.0
C1290 C 0.9182 0.35696 0.9618 0.0
C1291 C 0.90553 0.36846 0.9254 0.0
C1292 C 0.91577 0.40525 0.91414 0.0
C1293 C 0.93892 0.43002 0.93908 0.0
C1294 C 0.9078 0.3179 0.97461 0.0
C1295 C 0.90266 0.41858 0.8756 0.0
H1296 H 0.88659 0.31216 0.83348 0.0
H1297 H 0.7921 0.29661 0.85365 0.0
H1298 H 0.95061 0.38144 0.88087 0.0
H1299 H 0.95016 0.34587 0.91592 0.0
H1300 H 0.94575 0.34133 0.87146 0.0
H1301 H 0.79573 0.31675 0.90316 0.0
H1302 H 0.83684 0.32763 0.93982 0.0
H1303 H 0.83222 0.36214 0.9055 0.0
H1304 H 0.95167 0.37398 0.01412 0.0
H1305 H 0.94709 0.45826 0.9303 0.0
H1306 H 0.91798 0.30819 0.96109 0.0
H1307 H 0.87771 0.30152 0.96751 0.0
H1308 H 0.91903 0.31323 1.00395 0.0
H1309 H 0.91218 0.41208 0.85839 0.0
H1310 H 0.91259 0.44801 0.87146 0.0
H1311 H 0.87244 0.40492 0.86653 0.0
C1312 C 0.85765 0.80831 0.15965 0.0
C1313 C 0.85857 0.82017 0.18866 0.0
C1314 C 0.88143 0.8314 0.13805 0.0
C1315 C 0.90784 0.86696 0.14626 0.0
C1316 C 0.9091 0.87878 0.17587 0.0
C1317 C 0.88422 0.8556 0.19618 0.0
C1318 C 0.87819 0.81774 0.10629 0.0
C1319 C 0.93738 0.91574 0.1867 0.0
C1320 C 0.9925 0.90934 0.11347 0.0
C1321 C 0.98667 0.93402 0.08447 0.0
C1322 C 0.96787 0.88852 0.13435 0.0
C1323 C 0.9354 0.891 0.12526 0.0
C1324 C 0.92948 0.9162 0.09606 0.0
C1325 C 0.95549 0.93785 0.07649 0.0
C1326 C 0.9764 0.86329 0.16584 0.0
C1327 C 0.89488 0.91915 0.08443 0.0
H1328 H 0.83778 0.78119 0.15334 0.0
H1329 H 0.88544 0.86505 0.21866 0.0
H1330 H 0.87527 0.83653 0.08188 0.0
H1331 H 0.90334 0.81641 0.11038 0.0
H1332 H 0.85456 0.79066 0.1017 0.0
H1333 H 0.93495 0.92095 0.21041 0.0
H1334 H 0.96508 0.91887 0.19292 0.0
H1335 H 0.93481 0.93646 0.16431 0.0
H1336 H 1.01637 0.90599 0.11963 0.0
H1337 H 0.95039 0.95632 0.05375 0.0
H1338 H 0.95619 0.83513 0.16079 0.0
H1339 H 0.97443 0.86785 0.19017 0.0
H1340 H 1.00407 0.86665 0.17122 0.0
H1341 H 0.87106 0.89301 0.07662 0.0
H1342 H 0.89438 0.9401 0.06148 0.0
H1343 H 0.89166 0.92549 0.10691 0.0
C1344 C 0.82459 0.03267 0.87154 0.0
C1345 C 0.85265 0.06481 0.88575 0.0
C1346 C 0.82883 1.00154 0.88106 0.0
C1347 C 0.86216 0.0031 0.9046 0.0
C1348 C 0.88991 0.03535 0.91985 0.0
C1349 C 0.88463 0.06548 0.91035 0.0
C1350 C 0.79821 0.96788 0.86462 0.0
C1351 C 0.92629 0.03911 0.94496 0.0
C1352 C 0.90002 0.94599 0.96538 0.0
C1353 C 0.92779 0.95749 0.94985 0.0
C1354 C 0.87051 0.95297 0.94643 0.0
C1355 C 0.87033 0.97279 0.9123 0.0
C1356 C 0.89241 0.97496 0.89366 0.0
C1357 C 0.92154 0.96737 0.91298 0.0
C1358 C 0.84469 0.94656 0.96575 0.0
C1359 C 0.89038 0.99257 0.8558 0.0
H1360 H 0.79967 0.03203 0.85251 0.0
H1361 H 0.90667 0.0904 0.92081 0.0
H1362 H 0.7998 0.9693 0.83767 0.0
H1363 H 0.79954 0.94342 0.88079 0.0
H1364 H 0.77136 0.96546 0.86126 0.0
H1365 H 0.94423 0.06595 0.9547 0.0
H1366 H 0.92223 0.01874 0.96853 0.0
H1367 H 0.94083 0.03514 0.93121 0.0
H1368 H 0.90411 0.93675 0.99368 0.0
H1369 H 0.94241 0.97501 0.90062 0.0
H1370 H 0.81793 0.94287 0.94671 0.0
H1371 H 0.85636 0.97014 0.9799 0.0
H1372 H 0.84062 0.92261 0.98592 0.0
H1373 H 0.86169 0.98506 0.83997 0.0
H1374 H 0.90274 0.98493 0.8427 0.0
H1375 H 0.90553 0.02216 0.85585 0.0
C1376 C 0.72311 0.17796 0.67875 0.0
C1377 C 0.75955 0.18524 0.68928 0.0
C1378 C 0.69857 0.16116 0.64805 0.0
C1379 C 0.71081 0.15122 0.62762 0.0
C1380 C 0.748 0.16003 0.63722 0.0
C1381 C 0.77206 0.1771 0.66802 0.0
C1382 C 0.65914 0.15236 0.63859 0.0
C1383 C 0.76194 0.14971 0.61609 0.0
C1384 C 0.63926 0.06751 0.58303 0.0
C1385 C 0.62832 0.08156 0.54772 0.0
C1386 C 0.66683 0.08996 0.60893 0.0
C1387 C 0.68375 0.12749 0.59934 0.0
C1388 C 0.67331 0.14192 0.56357 0.0
C1389 C 0.64561 0.11865 0.538 0.0
C1390 C 0.67721 0.07349 0.64678 0.0
C1391 C 0.69077 0.18186 0.55258 0.0
H1392 H 0.71355 0.18476 0.69494 0.0
H1393 H 0.80036 0.18306 0.67604 0.0
H1394 H 0.64927 0.16088 0.60992 0.0
H1395 H 0.6421 0.12291 0.64316 0.0
H1396 H 0.65495 0.16544 0.6548 0.0
H1397 H 0.79217 0.16227 0.62442 0.0
H1398 H 0.75083 0.12014 0.61996 0.0
H1399 H 0.75253 0.15764 0.58714 0.0
H1400 H 0.62601 0.03878 0.5906 0.0
H1401 H 0.6371 0.12947 0.51067 0.0
H1402 H 0.67082 0.08246 0.66485 0.0
H1403 H 0.70695 0.08254 0.65612 0.0
H1404 H 0.66261 0.04369 0.64934 0.0
H1405 H 0.68432 0.19498 0.56647 0.0
H1406 H 0.68124 0.18862 0.52331 0.0
H1407 H 0.72085 0.19333 0.56066 0.0
C1408 C 0.6122 0.90121 0.39586 0.0
C1409 C 0.61439 0.93455 0.37878 0.0
C1410 C 0.62699 0.88525 0.38594 0.0
C1411 C 0.64443 0.90324 0.35846 0.0
C1412 C 0.64662 0.93687 0.34106 0.0
C1413 C 0.6315 0.95211 0.35144 0.0
C1414 C 0.62404 0.84926 0.40486 0.0
C1415 C 0.66525 0.95691 0.31175 0.0
C1416 C 0.71521 0.8848 0.35261 0.0
C1417 C 0.69577 0.86439 0.32373 0.0
C1418 C 0.69837 0.89648 0.36515 0.0
C1419 C 0.66127 0.88749 0.34829 0.0
C1420 C 0.64106 0.86554 0.32015 0.0
C1421 C 0.65862 0.85416 0.30818 0.0
C1422 C 0.72067 0.91965 0.39542 0.0
C1423 C 0.60141 0.85547 0.30162 0.0
H1424 H 0.59853 0.88743 0.41671 0.0
H1425 H 0.6335 0.97807 0.33849 0.0
H1426 H 0.60978 0.82958 0.38522 0.0
H1427 H 0.65166 0.85157 0.41809 0.0
H1428 H 0.60911 0.8386 0.42531 0.0
H1429 H 0.66393 0.98246 0.30048 0.0
H1430 H 0.6943 0.96303 0.32225 0.0
H1431 H 0.65243 0.93997 0.28981 0.0
H1432 H 0.74385 0.89224 0.36494 0.0
H1433 H 0.64367 0.83856 0.28569 0.0
H1434 H 0.70679 0.90851 0.41675 0.0
H1435 H 0.72331 0.94695 0.38552 0.0
H1436 H 0.74843 0.92202 0.40725 0.0
H1437 H 0.58575 0.84402 0.32149 0.0
H1438 H 0.58885 0.83572 0.28236 0.0
H1439 H 0.59888 0.87983 0.28693 0.0
C1440 C 0.87112 0.20023 0.31357 0.0
C1441 C 0.86252 0.2216 0.28263 0.0
C1442 C 0.89365 0.18612 0.31644 0.0
C1443 C 0.90779 0.19371 0.28763 0.0
C1444 C 0.90223 0.21819 0.258 0.0
C1445 C 0.87933 0.23168 0.2557 0.0
C1446 C 0.90032 0.16117 0.34928 0.0
C1447 C 0.91871 0.22847 0.22791 0.0
C1448 C 0.97133 0.1547 0.31438 0.0
C1449 C 0.94536 0.11848 0.31104 0.0
C1450 C 0.96039 0.18136 0.30346 0.0
C1451 C 0.92316 0.17158 0.28666 0.0
C1452 C 0.89868 0.13676 0.27609 0.0
C1453 C 0.90992 0.11032 0.28894 0.0
C1454 C 0.98785 0.2183 0.31475 0.0
C1455 C 0.85915 0.1259 0.25599 0.0
H1456 H 0.85866 0.19291 0.3347 0.0
H1457 H 0.874 0.24953 0.23248 0.0
H1458 H 0.88499 0.13327 0.34229 0.0
H1459 H 0.92967 0.16842 0.35949 0.0
H1460 H 0.89151 0.1618 0.371 0.0
H1461 H 0.91848 0.25317 0.21104 0.0
H1462 H 0.94719 0.23288 0.23825 0.0
H1463 H 0.90305 0.20625 0.211 0.0
H1464 H 0.99943 0.16172 0.32935 0.0
H1465 H 0.88955 0.08277 0.285 0.0
H1466 H 0.99094 0.21786 0.34321 0.0
H1467 H 0.97955 0.23904 0.29884 0.0
H1468 H 1.01494 0.22607 0.31255 0.0
H1469 H 0.84398 0.12002 0.275 0.0
H1470 H 0.84635 0.10148 0.24267 0.0
H1471 H 0.85625 0.14781 0.23553 0.0
C1472 C 0.73408 0.15052 0.22074 0.0
C1473 C 0.71498 0.16133 0.23096 0.0
C1474 C 0.71659 0.12918 0.19266 0.0
C1475 C 0.67882 0.11709 0.17581 0.0
C1476 C 0.65957 0.12813 0.18619 0.0
C1477 C 0.67813 0.15075 0.21324 0.0
C1478 C 0.7386 0.12029 0.18043 0.0
C1479 C 0.61946 0.11622 0.16855 0.0
C1480 C 0.63309 0.08063 0.08557 0.0
C1481 C 0.61965 0.04371 0.09601 0.0
C1482 C 0.65294 0.10506 0.11113 0.0
C1483 C 0.65912 0.09211 0.14801 0.0
C1484 C 0.64524 0.05474 0.15855 0.0
C1485 C 0.62598 0.03105 0.13244 0.0
C1486 C 0.66635 0.14442 0.09785 0.0
C1487 C 0.64987 0.03966 0.19745 0.0
H1488 H 0.76295 0.15983 0.23383 0.0
H1489 H 0.66375 0.1599 0.22087 0.0
H1490 H 0.72906 0.09095 0.18549 0.0
H1491 H 0.73456 0.12798 0.1512 0.0
H1492 H 0.76821 0.13427 0.19422 0.0
H1493 H 0.60809 0.12571 0.18094 0.0
H1494 H 0.61508 0.12675 0.13981 0.0
H1495 H 0.60404 0.0865 0.17023 0.0
H1496 H 0.62814 0.09053 0.05739 0.0
H1497 H 0.61528 1.00244 0.1406 0.0
H1498 H 0.6834 0.16216 0.11942 0.0
H1499 H 0.64257 0.14929 0.08261 0.0
H1500 H 0.68231 0.15207 0.07901 0.0
H1501 H 0.67925 0.05016 0.21205 0.0
H1502 H 0.63671 0.00988 0.20115 0.0
H1503 H 0.63787 0.04839 0.20985 0.0
C1504 C 0.73731 0.87321 0.87933 0.0
C1505 C 0.76132 0.86025 0.90321 0.0
C1506 C 0.71925 0.88365 0.89174 0.0
C1507 C 0.72519 0.88089 0.92894 0.0
C1508 C 0.75037 0.869 0.95321 0.0
C1509 C 0.76807 0.85872 0.94004 0.0
C1510 C 0.69288 0.89651 0.86499 0.0
C1511 C 0.75792 0.86629 0.99306 0.0
C1512 C 0.69176 0.92779 0.96067 0.0
C1513 C 0.65805 0.89951 0.96503 0.0
C1514 C 0.71422 0.92219 0.94931 0.0
C1515 C 0.70268 0.88746 0.94222 0.0
C1516 C 0.66889 0.85879 0.94689 0.0
C1517 C 0.64711 0.86513 0.95833 0.0
C1518 C 0.75024 0.95337 0.94498 0.0
C1519 C 0.65556 0.82137 0.93954 0.0
H1520 H 0.73189 0.87431 0.85083 0.0
H1521 H 0.7871 0.84929 0.95857 0.0
H1522 H 0.6648 0.87707 0.86685 0.0
H1523 H 0.69939 0.92265 0.87104 0.0
H1524 H 0.69338 0.89964 0.83713 0.0
H1525 H 0.77997 0.85878 1.00829 0.0
H1526 H 0.76583 0.89226 1.00072 0.0
H1527 H 0.73283 0.84587 1.00104 0.0
H1528 H 0.70035 0.95449 0.96557 0.0
H1529 H 0.6215 0.84296 0.96232 0.0
H1530 H 0.75312 0.95526 0.91852 0.0
H1531 H 0.77282 0.9491 0.96555 0.0
H1532 H 0.75344 0.97932 0.94781 0.0
H1533 H 0.65295 0.82166 0.91127 0.0
H1534 H 0.62877 0.80196 0.94475 0.0
H1535 H 0.67563 0.8117 0.95645 0.0
C1536 C 0.93566 0.9287 0.5789 0.0
C1537 C 0.97053 0.93335 0.58404 0.0
C1538 C 0.91527 0.90637 0.60354 0.0
C1539 C 0.92941 0.88719 0.63397 0.0
C1540 C 0.9642 0.89101 0.6388 0.0
C1541 C 0.98443 0.91428 0.61418 0.0
C1542 C 0.87893 0.90414 0.5975 0.0
C1543 C 0.98024 0.87069 0.67022 0.0
C1544 C 0.89748 0.86202 0.71735 0.0
C1545 C 0.87017 0.82617 0.71466 0.0
C1546 C 0.91657 0.8819 0.69141 0.0
C1547 C 0.90916 0.86554 0.66202 0.0
C1548 C 0.88202 0.82903 0.65941 0.0
C1549 C 0.8625 0.80999 0.68539 0.0
C1550 C 0.94438 0.92079 0.69524 0.0
C1551 C 0.87363 0.81001 0.62919 0.0
H1552 H 0.92454 0.94327 0.55588 0.0
H1553 H 1.01109 0.91722 0.61839 0.0
H1554 H 0.85729 0.87581 0.59689 0.0
H1555 H 0.87992 0.91439 0.61997 0.0
H1556 H 0.87118 0.91987 0.57217 0.0
H1557 H 1.00595 0.874 0.66866 0.0
H1558 H 0.98597 0.88024 0.69538 0.0
H1559 H 0.96041 0.84169 0.6717 0.0
H1560 H 0.90357 0.87502 0.73966 0.0
H1561 H 0.84147 0.78248 0.6829 0.0
H1562 H 0.937 0.938 0.67123 0.0
H1563 H 0.97158 0.92505 0.69718 0.0
H1564 H 0.94653 0.92983 0.71919 0.0
H1565 H 0.86278 0.82304 0.60337 0.0
H1566 H 0.85342 0.78119 0.63193 0.0
H1567 H 0.89899 0.81212 0.62817 0.0
C1568 C 0.24709 0.86699 0.88805 0.0
C1569 C 0.22856 0.82929 0.89239 0.0
C1570 C 0.23639 0.88712 0.89788 0.0
C1571 C 0.20647 0.86919 0.91248 0.0
C1572 C 0.18809 0.83121 0.91748 0.0
C1573 C 0.19927 0.8118 0.90733 0.0
C1574 C 0.25676 0.92755 0.89219 0.0
C1575 C 0.15601 0.81096 0.93289 0.0
C1576 C 0.19015 0.91337 0.96681 0.0
C1577 C 0.16121 0.91926 0.94228 0.0
C1578 C 0.20642 0.89875 0.95703 0.0
C1579 C 0.1935 0.88976 0.92182 0.0
C1580 C 0.16568 0.89747 0.89641 0.0
C1581 C 0.14989 0.9121 0.90693 0.0
C1582 C 0.23622 0.89129 0.98488 0.0
C1583 C 0.15114 0.8884 0.85857 0.0
H1584 H 0.26999 0.88081 0.87687 0.0
H1585 H 0.18425 0.78277 0.91017 0.0
H1586 H 0.238 0.93807 0.87324 0.0
H1587 H 0.26718 0.93875 0.91775 0.0
H1588 H 0.28004 0.93743 0.88148 0.0
H1589 H 0.14534 0.78145 0.93605 0.0
H1590 H 0.16397 0.81942 0.95937 0.0
H1591 H 0.13369 0.8173 0.91523 0.0
H1592 H 0.19948 0.91934 0.99404 0.0
H1593 H 0.12735 0.9162 0.88785 0.0
H1594 H 0.25985 0.90214 0.97444 0.0
H1595 H 0.22602 0.86189 0.9914 0.0
H1596 H 0.24569 0.90308 0.0099 0.0
H1597 H 0.17386 0.89909 0.84681 0.0
H1598 H 0.13215 0.89928 0.84119 0.0
H1599 H 0.13642 0.85883 0.85858 0.0
C1600 C 0.96301 0.40334 0.58586 0.0
C1601 C 0.97552 0.44051 0.58024 0.0
C1602 C 0.94407 0.38153 0.61139 0.0
C1603 C 0.9376 0.39725 0.63197 0.0
C1604 C 0.95085 0.43484 0.62705 0.0
C1605 C 0.96959 0.45602 0.60119 0.0
C1606 C 0.93022 0.34151 0.61573 0.0
C1607 C 0.9446 0.45258 0.64861 0.0
C1608 C 0.85569 0.33613 0.66802 0.0
C1609 C 0.87177 0.32573 0.70323 0.0
C1610 C 0.87691 0.35998 0.64486 0.0
C1611 C 0.91522 0.374 0.65719 0.0
C1612 C 0.93178 0.36447 0.69298 0.0
C1613 C 0.90983 0.34035 0.71559 0.0
C1614 C 0.85818 0.3694 0.60685 0.0
C1615 C 0.9726 0.37911 0.70713 0.0
H1616 H 0.96748 0.39106 0.56989 0.0
H1617 H 0.9793 0.48474 0.59721 0.0
H1618 H 0.94031 0.33202 0.64399 0.0
H1619 H 0.90001 0.32744 0.60864 0.0
H1620 H 0.93879 0.33367 0.59868 0.0
H1621 H 0.95843 0.48229 0.64301 0.0
H1622 H 0.91497 0.44301 0.64248 0.0
H1623 H 0.95461 0.44509 0.67756 0.0
H1624 H 0.82632 0.32509 0.65819 0.0
H1625 H 0.9225 0.33257 0.74277 0.0
H1626 H 0.86324 0.35984 0.58813 0.0
H1627 H 0.86954 0.39894 0.60056 0.0
H1628 H 0.82827 0.35733 0.60186 0.0
H1629 H 0.98198 0.36948 0.69263 0.0
H1630 H 0.98138 0.37084 0.73615 0.0
H1631 H 0.98636 0.40883 0.70241 0.0
C1632 C 0.46802 0.08975 0.40561 0.0
C1633 C 0.46985 0.07259 0.4421 0.0
C1634 C 0.44779 0.11082 0.38461 0.0
C1635 C 0.42501 0.11696 0.3972 0.0
C1636 C 0.42639 0.0993 0.43399 0.0
C1637 C 0.44771 0.07915 0.45465 0.0
C1638 C 0.45212 0.12723 0.34777 0.0
C1639 C 0.40433 0.10067 0.453 0.0
C1640 C 0.38487 0.19308 0.3615 0.0
C1641 C 0.35638 0.18495 0.32785 0.0
C1642 C 0.40619 0.17304 0.38258 0.0
C1643 C 0.40112 0.14056 0.37315 0.0
C1644 C 0.372 0.13196 0.33935 0.0
C1645 C 0.35182 0.15311 0.31842 0.0
C1646 C 0.43551 0.18841 0.4158 0.0
C1647 C 0.36054 0.09896 0.3241 0.0
H1648 H 0.48339 0.08716 0.39254 0.0
H1649 H 0.44629 0.06777 0.48172 0.0
H1650 H 0.43369 0.10633 0.32921 0.0
H1651 H 0.44568 0.14992 0.33768 0.0
H1652 H 0.4804 0.13697 0.3475 0.0
H1653 H 0.39237 0.07486 0.46966 0.0
H1654 H 0.4226 0.12187 0.47124 0.0
H1655 H 0.382 0.10649 0.43424 0.0
H1656 H 0.39147 0.21645 0.37204 0.0
H1657 H 0.33123 0.14363 0.2937 0.0
H1658 H 0.45649 0.17942 0.42434 0.0
H1659 H 0.42283 0.17996 0.43769 0.0
H1660 H 0.44913 0.21819 0.41157 0.0
H1661 H 0.37337 0.10707 0.3024 0.0
H1662 H 0.33055 0.08522 0.31208 0.0
H1663 H 0.36849 0.07959 0.34445 0.0
C1664 C 0.58715 0.56928 0.08826 0.0
C1665 C 0.57238 0.57946 0.05246 0.0
C1666 C 0.61327 0.595 0.11207 0.0
C1667 C 0.6244 0.6319 0.10006 0.0
C1668 C 0.60901 0.6423 0.06408 0.0
C1669 C 0.58332 0.61597 0.04067 0.0
C1670 C 0.6292 0.58265 0.15001 0.0
C1671 C 0.61981 0.68127 0.05028 0.0
C1672 C 0.66724 0.69472 0.17112 0.0
C1673 C 0.70436 0.71015 0.17427 0.0
C1674 C 0.64088 0.6697 0.14662 0.0
C1675 C 0.65204 0.65951 0.12523 0.0
C1676 C 0.68971 0.67515 0.12851 0.0
C1677 C 0.71542 0.70051 0.15286 0.0
C1678 C 0.60109 0.65399 0.14382 0.0
C1679 C 0.70287 0.66469 0.10669 0.0
H1680 H 0.57851 0.54108 0.09767 0.0
H1681 H 0.57195 0.62399 0.01305 0.0
H1682 H 0.65928 0.59542 0.15616 0.0
H1683 H 0.6232 0.59107 0.16887 0.0
H1684 H 0.61831 0.55306 0.15489 0.0
H1685 H 0.60486 0.68492 0.02183 0.0
H1686 H 0.61442 0.69324 0.06648 0.0
H1687 H 0.64947 0.69641 0.05294 0.0
H1688 H 0.65888 0.70225 0.18788 0.0
H1689 H 0.74426 0.71241 0.15562 0.0
H1690 H 0.58925 0.62454 0.15125 0.0
H1691 H 0.58584 0.65869 0.11583 0.0
H1692 H 0.59684 0.66566 0.16137 0.0
H1693 H 0.69054 0.67013 0.0778 0.0
H1694 H 0.69406 0.63548 0.11247 0.0
H1695 H 0.73301 0.6794 0.11229 0.0
C1696 C 0.18559 0.17532 0.68963 0.0
C1697 C 0.20051 0.21246 0.67951 0.0
C1698 C 0.16 0.15086 0.66445 0.0
C1699 C 0.14881 0.1638 0.62822 0.0
C1700 C 0.16362 0.20131 0.61791 0.0
C1701 C 0.18932 0.22519 0.64366 0.0
C1702 C 0.14518 0.11114 0.6766 0.0
C1703 C 0.15254 0.21622 0.57958 0.0
C1704 C 0.10961 0.1014 0.55791 0.0
C1705 C 0.07197 0.08787 0.55088 0.0
C1706 C 0.13485 0.12613 0.58288 0.0
C1707 C 0.12222 0.13804 0.60106 0.0
C1708 C 0.08422 0.12486 0.59368 0.0
C1709 C 0.05953 0.09986 0.56872 0.0
C1710 C 0.17504 0.13917 0.59011 0.0
C1711 C 0.06963 0.13686 0.61246 0.0
H1712 H 0.19408 0.1653 0.71731 0.0
H1713 H 0.20079 0.25386 0.63569 0.0
H1714 H 0.11503 0.098 0.66983 0.0
H1715 H 0.1521 0.09872 0.66241 0.0
H1716 H 0.15618 0.10544 0.70581 0.0
H1717 H 0.16598 0.24601 0.57599 0.0
H1718 H 0.15966 0.20716 0.56225 0.0
H1719 H 0.12257 0.20588 0.57023 0.0
H1720 H 0.11943 0.09233 0.54412 0.0
H1721 H 1.03048 0.08949 0.56338 0.0
H1722 H 0.18685 0.13174 0.61861 0.0
H1723 H 0.1895 0.16885 0.585 0.0
H1724 H 0.18042 0.12773 0.57334 0.0
H1725 H 0.07804 0.1294 0.64168 0.0
H1726 H 0.03944 0.12475 0.60319 0.0
H1727 H 0.08132 0.1665 0.60792 0.0
C1728 C 0.67483 0.27875 0.41059 0.0
C1729 C 0.70819 0.30004 0.4022 0.0
C1730 C 0.65665 0.29428 0.41566 0.0
C1731 C 0.67206 0.33212 0.41223 0.0
C1732 C 0.7059 0.35379 0.40414 0.0
C1733 C 0.72357 0.33753 0.39933 0.0
C1734 C 0.62069 0.27014 0.42434 0.0
C1735 C 0.72316 0.3942 0.39991 0.0
C1736 C 0.60694 0.37022 0.39116 0.0
C1737 C 0.61199 0.3772 0.42495 0.0
C1738 C 0.62672 0.3562 0.38656 0.0
C1739 C 0.65232 0.34889 0.41644 0.0
C1740 C 0.65819 0.35661 0.45047 0.0
C1741 C 0.63801 0.37063 0.45431 0.0
C1742 C 0.61976 0.34864 0.34974 0.0
C1743 C 0.68526 0.34931 0.48302 0.0
H1744 H 0.66292 0.2498 0.41334 0.0
H1745 H 0.74898 0.35428 0.39225 0.0
H1746 H 0.62222 0.2761 0.44975 0.0
H1747 H 0.59893 0.27527 0.40313 0.0
H1748 H 0.61271 0.24126 0.42682 0.0
H1749 H 0.7502 0.40724 0.39492 0.0
H1750 H 0.70509 0.40331 0.37727 0.0
H1751 H 0.72654 0.40349 0.42426 0.0
H1752 H 0.58739 0.37572 0.36817 0.0
H1753 H 0.64192 0.37552 0.48058 0.0
H1754 H 0.60916 0.31954 0.34973 0.0
H1755 H 0.64561 0.36294 0.3422 0.0
H1756 H 0.59986 0.35688 0.32906 0.0
H1757 H 0.67674 0.32017 0.48811 0.0
H1758 H 0.6878 0.35816 0.50729 0.0
H1759 H 0.71249 0.36326 0.47834 0.0
C1760 C 0.46391 0.90245 0.09748 0.0
C1761 C 0.48192 0.94 0.09221 0.0
C1762 C 0.4414 0.88422 0.12026 0.0
C1763 C 0.43708 0.90411 0.13824 0.0
C1764 C 0.45614 0.94199 0.13398 0.0
C1765 C 0.47832 0.95951 0.11094 0.0
C1766 C 0.42131 0.84371 0.12419 0.0
C1767 C 0.45227 0.96401 0.15293 0.0
C1768 C 0.34894 0.85733 0.16326 0.0
C1769 C 0.35974 0.84461 0.19919 0.0
C1770 C 0.37411 0.8775 0.14333 0.0
C1771 C 0.41094 0.88523 0.15984 0.0
C1772 C 0.42236 0.87375 0.19645 0.0
C1773 C 0.39653 0.85345 0.21574 0.0
C1774 C 0.36103 0.88947 0.10429 0.0
C1775 C 0.46157 0.88194 0.21492 0.0
H1776 H 0.46663 0.88725 0.08312 0.0
H1777 H 0.49243 0.98858 0.10726 0.0
H1778 H 0.42693 0.83298 0.15281 0.0
H1779 H 0.39151 0.8343 0.11365 0.0
H1780 H 0.42903 0.83227 0.10973 0.0
H1781 H 0.47093 0.99315 0.14864 0.0
H1782 H 0.42386 0.95983 0.14312 0.0
H1783 H 0.45792 0.95521 0.18203 0.0
H1784 H 0.32056 0.85071 0.15032 0.0
H1785 H 0.40508 0.84383 0.24357 0.0
H1786 H 0.36492 0.87659 0.08764 0.0
H1787 H 0.3773 0.9189 0.09863 0.0
H1788 H 0.33179 0.88255 0.09595 0.0
H1789 H 0.46921 0.86816 0.20315 0.0
H1790 H 0.46644 0.8732 0.24407 0.0
H1791 H 0.4799 0.91114 0.21078 0.0
C1792 C 0.97486 0.60402 0.9519 0.0
C1793 C 0.97065 0.57276 0.9416 0.0
C1794 C 0.95517 0.62573 0.9311 0.0
C1795 C 0.92602 0.6177 0.89713 0.0
C1796 C 0.92094 0.58537 0.88725 0.0
C1797 C 0.94262 0.56554 0.9076 0.0
C1798 C 0.96775 0.65903 0.94652 0.0
C1799 C 0.89091 0.5695 0.85458 0.0
C1800 C 0.86265 0.67255 0.86623 0.0
C1801 C 0.85745 0.68642 0.82863 0.0
C1802 C 0.88234 0.65087 0.88703 0.0
C1803 C 0.90222 0.64165 0.87333 0.0
C1804 C 0.89791 0.6566 0.83547 0.0
C1805 C 0.87615 0.67635 0.8149 0.0
C1806 C 0.8801 0.63683 0.92477 0.0
C1807 C 0.91753 0.65317 0.81509 0.0
H1808 H 0.9953 0.613 0.97684 0.0
H1809 H 0.93622 0.54259 0.89646 0.0
H1810 H 0.95973 0.6785 0.92647 0.0
H1811 H 0.95603 0.65137 0.96898 0.0
H1812 H 0.99787 0.67252 0.95763 0.0
H1813 H 0.87694 0.53975 0.85964 0.0
H1814 H 0.87025 0.57889 0.84605 0.0
H1815 H 0.90292 0.57671 0.83244 0.0
H1816 H 0.84984 0.67771 0.88026 0.0
H1817 H 0.87492 0.68511 0.78691 0.0
H1818 H 0.89956 0.65884 0.94194 0.0
H1819 H 0.88628 0.61399 0.9356 0.0
H1820 H 0.85244 0.62794 0.92626 0.0
H1821 H 0.92907 0.67836 0.7975 0.0
H1822 H 0.89773 0.63155 0.79752 0.0
H1823 H 0.93998 0.64711 0.83291 0.0
C1824 C 0.48769 0.40667 0.1184 0.0
C1825 C 0.47299 0.42239 0.0856 0.0
C1826 C 0.46691 0.38446 0.14282 0.0
C1827 C 0.43063 0.37824 0.13489 0.0
C1828 C 0.41554 0.39369 0.10161 0.0
C1829 C 0.43663 0.41511 0.07738 0.0
C1830 C 0.48409 0.36808 0.17745 0.0
C1831 C 0.37744 0.38869 0.09206 0.0
C1832 C 0.36493 0.30339 0.18871 0.0
C1833 C 0.36944 0.32216 0.21425 0.0
C1834 C 0.38505 0.32091 0.16319 0.0
C1835 C 0.40964 0.35834 0.16249 0.0
C1836 C 0.41388 0.37727 0.18813 0.0
C1837 C 0.39423 0.35897 0.21375 0.0
C1838 C 0.37999 0.29929 0.13701 0.0
C1839 C 0.43894 0.41715 0.1883 0.0
H1840 H 0.51557 0.41175 0.1251 0.0
H1841 H 0.42483 0.42706 0.05229 0.0
H1842 H 0.48762 0.37984 0.20016 0.0
H1843 H 0.46597 0.33878 0.18137 0.0
H1844 H 0.51112 0.37259 0.17831 0.0
H1845 H 0.36905 0.40123 0.0647 0.0
H1846 H 0.35767 0.35973 0.09396 0.0
H1847 H 0.37586 0.40077 0.11136 0.0
H1848 H 0.34618 0.27492 0.18904 0.0
H1849 H 0.3979 0.37385 0.23322 0.0
H1850 H 0.40684 0.3044 0.13669 0.0
H1851 H 0.36637 0.30763 0.10969 0.0
H1852 H 0.36324 0.27004 0.14346 0.0
H1853 H 0.46729 0.42306 0.19256 0.0
H1854 H 0.43866 0.42816 0.20943 0.0
H1855 H 0.43077 0.43142 0.16202 0.0
C1856 C 0.37058 0.56562 0.78919 0.0
C1857 C 0.35526 0.53264 0.8096 0.0
C1858 C 0.35246 0.58638 0.77428 0.0
C1859 C 0.31778 0.57292 0.77886 0.0
C1860 C 0.29933 0.53687 0.79283 0.0
C1861 C 0.31854 0.51713 0.80868 0.0
C1862 C 0.37242 0.62431 0.75792 0.0
C1863 C 0.26088 0.52067 0.79469 0.0
C1864 C 0.31022 0.64287 0.80609 0.0
C1865 C 0.29402 0.65644 0.77311 0.0
C1866 C 0.31641 0.61422 0.80848 0.0
C1867 C 0.30541 0.59861 0.77714 0.0
C1868 C 0.28648 0.61054 0.74424 0.0
C1869 C 0.28102 0.63943 0.74263 0.0
C1870 C 0.3369 0.60229 0.84415 0.0
C1871 C 0.27263 0.5935 0.71063 0.0
H1872 H 0.39826 0.57689 0.78813 0.0
H1873 H 0.30587 0.49119 0.82333 0.0
H1874 H 0.35431 0.63042 0.7326 0.0
H1875 H 0.38105 0.64335 0.77653 0.0
H1876 H 0.39702 0.62908 0.75243 0.0
H1877 H 0.24826 0.49096 0.80016 0.0
H1878 H 0.26098 0.53134 0.81629 0.0
H1879 H 0.24384 0.52812 0.76927 0.0
H1880 H 0.32012 0.65608 0.82953 0.0
H1881 H 0.26754 0.64948 0.71719 0.0
H1882 H 0.36284 0.6065 0.84227 0.0
H1883 H 0.32061 0.57324 0.85169 0.0
H1884 H 0.34331 0.61713 0.86582 0.0
H1885 H 0.29197 0.58613 0.70873 0.0
H1886 H 0.26741 0.61149 0.68625 0.0
H1887 H 0.24665 0.56849 0.711 0.0
C1888 C 0.13299 0.5553 0.60173 0.0
C1889 C 0.11447 0.56175 0.56622 0.0
C1890 C 0.15359 0.58248 0.62452 0.0
C1891 C 0.15502 0.6166 0.61163 0.0
C1892 C 0.13707 0.62342 0.57553 0.0
C1893 C 0.11741 0.59606 0.55318 0.0
C1894 C 0.17288 0.57432 0.66268 0.0
C1895 C 0.1378 0.65932 0.56078 0.0
C1896 C 0.17234 0.66795 0.6829 0.0
C1897 C 0.20936 0.69265 0.68819 0.0
C1898 C 0.15398 0.64417 0.65693 0.0
C1899 C 0.17346 0.64438 0.63646 0.0
C1900 C 0.21071 0.67001 0.64104 0.0
C1901 C 0.22817 0.69394 0.66684 0.0
C1902 C 0.11403 0.61798 0.65227 0.0
C1903 C 0.23293 0.67082 0.62052 0.0
H1904 H 0.13101 0.5289 0.61185 0.0
H1905 H 0.10351 0.60133 0.52559 0.0
H1906 H 0.2009 0.59662 0.67066 0.0
H1907 H 0.15803 0.57153 0.68064 0.0
H1908 H 0.17443 0.54909 0.66684 0.0
H1909 H 0.1234 0.66069 0.53182 0.0
H1910 H 0.12473 0.66454 0.57526 0.0
H1911 H 0.16639 0.68104 0.56502 0.0
H1912 H 0.15789 0.66668 0.69976 0.0
H1913 H 0.25703 0.71188 0.67186 0.0
H1914 H 0.11036 0.59024 0.66069 0.0
H1915 H 0.09843 0.61937 0.62371 0.0
H1916 H 0.10221 0.62323 0.66817 0.0
H1917 H 0.24223 0.65029 0.63394 0.0
H1918 H 0.25737 0.69738 0.61965 0.0
H1919 H 0.21669 0.66459 0.59274 0.0
C1920 C 0.36556 0.29748 0.67232 0.0
C1921 C 0.35093 0.3126 0.6839 0.0
C1922 C 0.38756 0.3175 0.64855 0.0
C1923 C 0.39507 0.35365 0.63537 0.0
C1924 C 0.38027 0.36899 0.6469 0.0
C1925 C 0.35877 0.34853 0.67097 0.0
C1926 C 0.40278 0.29985 0.63747 0.0
C1927 C 0.38679 0.40705 0.63342 0.0
C1928 C 0.4757 0.41698 0.59458 0.0
C1929 C 0.45857 0.415 0.55779 0.0
C1930 C 0.45561 0.39708 0.62004 0.0
C1931 C 0.41722 0.375 0.60866 0.0
C1932 C 0.39984 0.37361 0.57145 0.0
C1933 C 0.42061 0.39324 0.54673 0.0
C1934 C 0.47558 0.39939 0.65923 0.0
C1935 C 0.35911 0.35131 0.55761 0.0
H1936 H 0.36004 0.26992 0.68202 0.0
H1937 H 0.34774 0.36078 0.67939 0.0
H1938 H 0.39207 0.29884 0.60817 0.0
H1939 H 0.43288 0.31593 0.64381 0.0
H1940 H 0.39574 0.27213 0.65094 0.0
H1941 H 0.37379 0.41533 0.64505 0.0
H1942 H 0.41646 0.42577 0.63996 0.0
H1943 H 0.37584 0.40987 0.60391 0.0
H1944 H 0.50495 0.43357 0.60355 0.0
H1945 H 0.40693 0.39163 0.51842 0.0
H1946 H 0.47095 0.37226 0.67309 0.0
H1947 H 0.46479 0.40955 0.67153 0.0
H1948 H 0.50538 0.41728 0.66395 0.0
H1949 H 0.35099 0.32269 0.56797 0.0
H1950 H 0.34951 0.35362 0.52796 0.0
H1951 H 0.34493 0.3598 0.56731 0.0
C1952 C 0.25515 0.70064 0.15533 0.0
C1953 C 0.23916 0.70736 0.17406 0.0
C1954 C 0.23369 0.68028 0.12637 0.0
C1955 C 0.19539 0.66631 0.11614 0.0
C1956 C 0.17931 0.67456 0.13387 0.0
C1957 C 0.20146 0.69514 0.16263 0.0
C1958 C 0.2518 0.67216 0.10797 0.0
C1959 C 0.13854 0.66007 0.12375 0.0
C1960 C 0.13695 0.62456 0.02917 0.0
C1961 C 0.12505 0.58805 0.04144 0.0
C1962 C 0.16039 0.65063 0.05309 0.0
C1963 C 0.1719 0.63968 0.08992 0.0
C1964 C 0.16039 0.60284 0.10221 0.0
C1965 C 0.13721 0.57751 0.07778 0.0
C1966 C 0.17229 0.68973 0.03914 0.0
C1967 C 0.17201 0.59005 0.14129 0.0
H1968 H 0.28438 0.71043 0.16393 0.0
H1969 H 0.1891 0.70062 0.17692 0.0
H1970 H 0.24473 0.64335 0.11443 0.0
H1971 H 0.24179 0.67735 0.07856 0.0
H1972 H 0.28195 0.68837 0.11633 0.0
H1973 H 0.13072 0.67182 0.13776 0.0
H1974 H 0.12766 0.66557 0.09453 0.0
H1975 H 0.12527 0.63052 0.13062 0.0
H1976 H 0.1275 0.63269 1.00104 0.0
H1977 H 0.12811 0.54926 0.08731 0.0
H1978 H 0.20247 0.70528 0.04731 0.0
H1979 H 0.16193 0.70081 0.05091 0.0
H1980 H 0.16227 0.69391 0.00958 0.0
H1981 H 0.20217 0.60284 0.15128 0.0
H1982 H 0.16111 0.56046 0.14629 0.0
H1983 H 0.16237 0.59802 0.15711 0.0
C1984 C 0.69492 0.40687 0.68765 0.0
C1985 C 0.72387 0.40828 0.68081 0.0
C1986 C 0.68494 0.43404 0.67238 0.0
C1987 C 0.70487 0.46321 0.65024 0.0
C1988 C 0.73848 0.46826 0.64977 0.0
C1989 C 0.74742 0.44015 0.66461 0.0
C1990 C 0.64986 0.4285 0.67529 0.0
C1991 C 0.76245 0.50101 0.6297 0.0
C1992 C 0.63617 0.4682 0.56392 0.0
C1993 C 0.62721 0.4915 0.57027 0.0
C1994 C 0.66428 0.46146 0.58841 0.0
C1995 C 0.68448 0.47919 0.61973 0.0
C1996 C 0.6785 0.50608 0.62404 0.0
C1997 C 0.64931 0.51148 0.59948 0.0
C1998 C 0.66976 0.43275 0.58216 0.0
C1999 C 0.70119 0.52775 0.65538 0.0
H2000 H 0.67777 0.38274 0.70172 0.0
H2001 H 0.77067 0.44182 0.6604 0.0
H2002 H 0.65383 0.45339 0.68166 0.0
H2003 H 0.62858 0.42189 0.64934 0.0
H2004 H 0.6397 0.40639 0.69621 0.0
H2005 H 0.7915 0.50749 0.64245 0.0
H2006 H 0.75514 0.49574 0.60194 0.0
H2007 H 0.75918 0.52458 0.62863 0.0
H2008 H 0.61956 0.45318 0.54103 0.0
H2009 H 0.64323 0.53053 0.6038 0.0
H2010 H 0.66357 0.40995 0.60354 0.0
H2011 H 0.69848 0.44357 0.58285 0.0
H2012 H 0.6521 0.42221 0.55603 0.0
H2013 H 0.68534 0.51778 0.67485 0.0
H2014 H 0.70755 0.55628 0.64635 0.0
H2015 H 0.72712 0.52641 0.66908 0.0
C2016 C 0.9163 0.64817 0.21464 0.0
C2017 C 0.88043 0.64101 0.19514 0.0
C2018 C 0.93539 0.6376 0.20399 0.0
C2019 C 0.91812 0.61961 0.17311 0.0
C2020 C 0.88246 0.61364 0.15254 0.0
C2021 C 0.86401 0.6244 0.16385 0.0
C2022 C 0.97341 0.64434 0.22655 0.0
C2023 C 0.8633 0.59471 0.11931 0.0
C2024 C 0.97366 0.61045 0.12978 0.0
C2025 C 0.96794 0.5753 0.14308 0.0
C2026 C 0.9581 0.62555 0.13979 0.0
C2027 C 0.9363 0.60488 0.16352 0.0
C2028 C 0.93079 0.56953 0.17737 0.0
C2029 C 0.94672 0.55516 0.16696 0.0
C2030 C 0.96464 0.66341 0.12471 0.0
C2031 C 0.90756 0.54666 0.20267 0.0
H2032 H 0.9289 0.66076 0.23901 0.0
H2033 H 0.83644 0.61933 0.14852 0.0
H2034 H 0.97338 0.61839 0.23903 0.0
H2035 H 0.99238 0.65774 0.20968 0.0
H2036 H 0.98402 0.6612 0.24805 0.0
H2037 H 0.83651 0.59422 0.10514 0.0
H2038 H 0.88047 0.60805 0.10067 0.0
H2039 H 0.85883 0.56666 0.12657 0.0
H2040 H 0.99048 0.62621 0.11167 0.0
H2041 H 0.94193 0.52783 0.17694 0.0
H2042 H 0.97666 0.68005 0.14674 0.0
H2043 H 0.93836 0.66338 0.10885 0.0
H2044 H 0.98314 0.67621 0.10735 0.0
H2045 H 0.91797 0.56063 0.2264 0.0
H2046 H 0.90698 0.52011 0.21186 0.0
H2047 H 0.87921 0.54229 0.18931 0.0
C2048 C 0.93887 0.64823 0.56786 0.0
C2049 C 0.92671 0.6127 0.56363 0.0
C2050 C 0.91878 0.65696 0.5792 0.0
C2051 C 0.88557 0.62954 0.58626 0.0
C2052 C 0.87301 0.59364 0.58193 0.0
C2053 C 0.89378 0.58562 0.57072 0.0
C2054 C 0.9331 0.69557 0.5836 0.0
C2055 C 0.83771 0.56374 0.58925 0.0
C2056 C 0.85191 0.6485 0.64654 0.0
C2057 C 0.82649 0.65928 0.62167 0.0
C2058 C 0.87096 0.63827 0.6354 0.0
C2059 C 0.86423 0.63855 0.59848 0.0
C2060 C 0.83804 0.64862 0.57324 0.0
C2061 C 0.81957 0.65899 0.58514 0.0
C2062 C 0.89867 0.62766 0.66311 0.0
C2063 C 0.83001 0.64905 0.53365 0.0
H2064 H 0.96394 0.6694 0.56181 0.0
H2065 H 0.8844 0.55806 0.56787 0.0
H2066 H 0.9131 0.70505 0.56586 0.0
H2067 H 0.93673 0.6978 0.61145 0.0
H2068 H 0.95956 0.71364 0.57729 0.0
H2069 H 0.83197 0.53714 0.5851 0.0
H2070 H 0.83868 0.56263 0.61714 0.0
H2071 H 0.81473 0.56904 0.57152 0.0
H2072 H 0.85686 0.64796 0.67484 0.0
H2073 H 0.80021 0.66758 0.56575 0.0
H2074 H 0.92605 0.6462 0.65898 0.0
H2075 H 0.89187 0.6003 0.66023 0.0
H2076 H 0.90012 0.62815 0.69079 0.0
H2077 H 0.85477 0.66905 0.52494 0.0
H2078 H 0.80755 0.65577 0.51764 0.0
H2079 H 0.8225 0.62249 0.5277 0.0
C2080 C 0.41801 0.50324 0.40181 0.0
C2081 C 0.42269 0.48555 0.43637 0.0
C2082 C 0.39154 0.51495 0.38783 0.0
C2083 C 0.36949 0.50825 0.40902 0.0
C2084 C 0.37015 0.485 0.4412 0.0
C2085 C 0.3973 0.47434 0.45486 0.0
C2086 C 0.39114 0.53905 0.35297 0.0
C2087 C 0.3461 0.47582 0.4639 0.0
C2088 C 0.36835 0.59274 0.40981 0.0
C2089 C 0.33509 0.58817 0.38468 0.0
C2090 C 0.37875 0.56592 0.41933 0.0
C2091 C 0.35526 0.53355 0.40332 0.0
C2092 C 0.32039 0.52747 0.38011 0.0
C2093 C 0.31076 0.55507 0.37081 0.0
C2094 C 0.41605 0.57339 0.44481 0.0
C2095 C 0.29406 0.49274 0.36371 0.0
H2096 H 0.4376 0.51158 0.38753 0.0
H2097 H 0.40066 0.45993 0.48143 0.0
H2098 H 0.36285 0.53317 0.33696 0.0
H2099 H 0.40607 0.56741 0.35858 0.0
H2100 H 0.40444 0.53614 0.33685 0.0
H2101 H 0.34021 0.44909 0.47962 0.0
H2102 H 0.36038 0.49601 0.48302 0.0
H2103 H 0.32002 0.4759 0.44743 0.0
H2104 H 0.38751 0.61829 0.42037 0.0
H2105 H 0.28472 0.5512 0.35179 0.0
H2106 H 0.43354 0.57486 0.43056 0.0
H2107 H 0.41383 0.55136 0.46692 0.0
H2108 H 0.42989 0.59893 0.45657 0.0
H2109 H 0.30184 0.49311 0.34079 0.0
H2110 H 0.26573 0.48888 0.35375 0.0
H2111 H 0.29473 0.46942 0.3832 0.0
C2112 C 0.19701 0.35823 0.85984 0.0
C2113 C 0.23096 0.38071 0.85292 0.0
C2114 C 0.18173 0.37128 0.87291 0.0
C2115 C 0.20102 0.40761 0.87947 0.0
C2116 C 0.2364 0.42977 0.875 0.0
C2117 C 0.25099 0.41602 0.86175 0.0
C2118 C 0.144 0.34676 0.87761 0.0
C2119 C 0.25808 0.4684 0.88266 0.0
C2120 C 0.14144 0.44967 0.8641 0.0
C2121 C 0.14231 0.44904 0.89903 0.0
C2122 C 0.16132 0.43719 0.85758 0.0
C2123 C 0.18229 0.42333 0.88668 0.0
C2124 C 0.18385 0.42311 0.92205 0.0
C2125 C 0.16391 0.43612 0.92783 0.0
C2126 C 0.15921 0.43808 0.81943 0.0
C2127 C 0.20588 0.40844 0.95368 0.0
H2128 H 0.18186 0.33063 0.854 0.0
H2129 H 0.27733 0.43347 0.85669 0.0
H2130 H 0.14345 0.3482 0.90408 0.0
H2131 H 0.12451 0.35554 0.857 0.0
H2132 H 0.1344 0.31838 0.87514 0.0
H2133 H 0.28484 0.48238 0.87689 0.0
H2134 H 0.24242 0.48312 0.86653 0.0
H2135 H 0.26293 0.46966 0.91113 0.0
H2136 H 0.1244 0.45909 0.84171 0.0
H2137 H 0.16513 0.43607 0.95492 0.0
H2138 H 0.14675 0.41035 0.81302 0.0
H2139 H 0.187 0.45282 0.81596 0.0
H2140 H 0.14289 0.4511 0.79996 0.0
H2141 H 0.19507 0.37956 0.95239 0.0
H2142 H 0.20533 0.41149 0.97953 0.0
H2143 H 0.23461 0.42232 0.95299 0.0
C2144 C 0.24129 0.34385 0.42594 0.0
C2145 C 0.24602 0.35447 0.39157 0.0
C2146 C 0.22233 0.35492 0.43634 0.0
C2147 C 0.20762 0.37711 0.41177 0.0
C2148 C 0.213 0.3886 0.37732 0.0
C2149 C 0.23206 0.37712 0.36764 0.0
C2150 C 0.21762 0.34246 0.47348 0.0
C2151 C 0.1976 0.41205 0.35021 0.0
C2152 C 0.12641 0.37387 0.42464 0.0
C2153 C 0.14265 0.40525 0.44065 0.0
C2154 C 0.14719 0.36457 0.41498 0.0
C2155 C 0.18529 0.38704 0.42161 0.0
C2156 C 0.20189 0.4188 0.43767 0.0
C2157 C 0.1804 0.42755 0.44693 0.0
C2158 C 0.12838 0.33048 0.3979 0.0
C2159 C 0.24234 0.44364 0.44486 0.0
H2160 H 0.25253 0.3269 0.44482 0.0
H2161 H 0.23518 0.38517 0.34089 0.0
H2162 H 0.22824 0.3659 0.48737 0.0
H2163 H 0.18822 0.32585 0.47188 0.0
H2164 H 0.23187 0.32641 0.48984 0.0
H2165 H 0.20814 0.42243 0.32648 0.0
H2166 H 0.16747 0.39632 0.34116 0.0
H2167 H 0.20415 0.43513 0.3623 0.0
H2168 H 0.0974 0.35614 0.42019 0.0
H2169 H 0.19316 0.45209 0.45883 0.0
H2170 H 0.13975 0.31216 0.41476 0.0
H2171 H 0.13343 0.33668 0.37154 0.0
H2172 H 0.09848 0.31619 0.39405 0.0
H2173 H 0.25768 0.42867 0.46131 0.0
H2174 H 0.25137 0.46651 0.45886 0.0
H2175 H 0.24961 0.45445 0.41928 0.0
loop_
_geom_bond_atom_site_label_1
_geom_bond_atom_site_label_2
_geom_bond_distance
_geom_bond_site_symmetry_2
_ccdc_geom_bond_type
Sm0 C2 2.846 . S
Sm0 O20 2.543 1_655 S
Sm0 O21 2.450 . S
Sm0 O22 2.681 1_556 S
Sm0 O23 2.446 1_556 S
Sm0 O24 2.396 1_656 S
Sm0 O28 2.386 1_665 S
Sm0 O31 2.408 . S
Sm1 C11 2.846 . S
Sm1 O22 2.386 1_445 S
Sm1 O25 2.408 . S
Sm1 O26 2.543 1_455 S
Sm1 O27 2.450 . S
Sm1 O28 2.681 1_554 S
Sm1 O29 2.455 1_554 S
Sm1 O30 2.396 1_454 S
C2 Sm0 2.846 . S
C2 C3 1.506 1_655 S
C2 O20 1.261 1_655 S
C2 O21 1.242 . S
C3 C2 1.506 1_455 S
C3 C4 1.358 . S
C3 C8 1.382 1_455 S
C4 C3 1.358 . S
C4 C5 1.385 . S
C4 H32 0.930 . S
C5 C4 1.385 . S
C5 C6 1.395 . S
C5 H33 0.929 . S
C6 C5 1.395 . S
C6 C7 1.335 1_455 S
C7 C6 1.335 1_655 S
C7 C8 1.398 . S
C7 H34 0.930 . S
C8 C3 1.382 1_655 S
C8 C7 1.398 . S
C8 H35 0.929 . S
C9 O22 1.271 . S
C9 O23 1.270 . S
C10 O24 1.252 . S
C10 O25 1.272 1_565 S
C11 Sm1 2.846 . S
C11 C12 1.506 1_455 S
C11 O26 1.261 1_455 S
C11 O27 1.242 . S
C12 C11 1.506 1_655 S
C12 C13 1.358 . S
C12 C17 1.382 1_655 S
C13 C12 1.358 . S
C13 C14 1.385 . S
C13 H36 0.930 . S
C14 C13 1.385 . S
C14 C15 1.395 . S
C14 H37 0.929 . S
C15 C14 1.395 . S
C15 C16 1.335 1_655 S
C16 C15 1.335 1_455 S
C16 C17 1.398 . S
C16 H38 0.930 . S
C17 C12 1.382 1_455 S
C17 C16 1.398 . S
C17 H39 0.929 . S
C18 O28 1.271 . S
C18 O29 1.260 . S
C19 O30 1.252 . S
C19 O31 1.272 1_545 S
O20 Sm0 2.543 1_455 S
O20 C2 1.261 1_455 S
O21 Sm0 2.450 . S
O21 C2 1.242 . S
O22 Sm0 2.681 1_554 S
O22 Sm1 2.386 1_665 S
O22 C9 1.271 . S
O23 Sm0 2.446 1_554 S
O23 C9 1.270 . S
O24 Sm0 2.396 1_454 S
O24 C10 1.252 . S
O25 Sm1 2.408 . S
O25 C10 1.272 1_545 S
O26 Sm1 2.543 1_655 S
O26 C11 1.261 1_655 S
O27 Sm1 2.450 . S
O27 C11 1.242 . S
O28 Sm0 2.386 1_445 S
O28 Sm1 2.681 1_556 S
O28 C18 1.271 . S
O29 Sm1 2.455 1_556 S
O29 C18 1.260 . S
O30 Sm1 2.396 1_656 S
O30 C19 1.252 . S
O31 Sm0 2.408 . S
O31 C19 1.272 1_565 S
H32 C4 0.930 . S
H33 C5 0.929 . S
H34 C7 0.930 . S
H35 C8 0.929 . S
H36 C13 0.930 . S
H37 C14 0.929 . S
H38 C16 0.930 . S
H39 C17 0.929 . S
Sm40 C42 2.846 . S
Sm40 O60 2.543 . S
Sm40 O61 2.450 . S
Sm40 O62 2.681 . S
Sm40 O63 2.464 . S
Sm40 O64 2.396 . S
Sm40 O68 2.386 . S
Sm40 O71 2.408 . S
Sm41 C51 2.846 . S
Sm41 O62 2.386 . S
Sm41 O65 2.408 . S
Sm41 O66 2.543 . S
Sm41 O67 2.450 . S
Sm41 O68 2.681 . S
Sm41 O69 2.464 . S
Sm41 O70 2.396 . S
C42 Sm40 2.846 . S
C42 C43 1.506 . S
C42 O60 1.261 . S
C42 O61 1.242 . S
C43 C42 1.506 . S
C43 C44 1.358 . S
C43 C48 1.382 . S
C44 C43 1.358 . S
C44 C45 1.385 . S
C44 H72 0.930 . S
C45 C44 1.385 . S
C45 C46 1.395 . S
C45 H73 0.929 . S
C46 C45 1.395 . S
C46 C47 1.335 . S
C47 C46 1.335 . S
C47 C48 1.398 . S
C47 H74 0.930 . S
C48 C43 1.382 . S
C48 C47 1.398 . S
C48 H75 0.929 . S
C49 O62 1.271 . S
C49 O63 1.251 . S
C50 O64 1.252 . S
C50 O65 1.272 . S
C51 Sm41 2.846 . S
C51 C52 1.506 . S
C51 O66 1.261 . S
C51 O67 1.242 . S
C52 C51 1.506 . S
C52 C53 1.358 . S
C52 C57 1.382 . S
C53 C52 1.358 . S
C53 C54 1.385 . S
C53 H76 0.930 . S
C54 C53 1.385 . S
C54 C55 1.395 . S
C54 H77 0.929 . S
C55 C54 1.395 . S
C55 C56 1.335 . S
C56 C55 1.335 . S
C56 C57 1.398 . S
C56 H78 0.930 . S
C57 C52 1.382 . S
C57 C56 1.398 . S
C57 H79 0.929 . S
C58 O68 1.271 . S
C58 O69 1.251 . S
C59 O70 1.252 . S
C59 O71 1.272 . S
O60 Sm40 2.543 . S
O60 C42 1.261 . S
O61 Sm40 2.450 . S
O61 C42 1.242 . S
O62 Sm40 2.681 . S
O62 Sm41 2.386 . S
O62 C49 1.271 . S
O63 Sm40 2.464 . S
O63 C49 1.251 . S
O64 Sm40 2.396 . S
O64 C50 1.252 . S
O65 Sm41 2.408 . S
O65 C50 1.272 . S
O66 Sm41 2.543 . S
O66 C51 1.261 . S
O67 Sm41 2.450 . S
O67 C51 1.242 . S
O68 Sm40 2.386 . S
O68 Sm41 2.681 . S
O68 C58 1.271 . S
O69 Sm41 2.464 . S
O69 C58 1.251 . S
O70 Sm41 2.396 . S
O70 C59 1.252 . S
O71 Sm40 2.408 . S
O71 C59 1.272 . S
H72 C44 0.930 . S
H73 C45 0.929 . S
H74 C47 0.930 . S
H75 C48 0.929 . S
H76 C53 0.930 . S
H77 C54 0.929 . S
H78 C56 0.930 . S
H79 C57 0.929 . S
Sm80 C82 2.846 1_565 S
Sm80 O100 2.543 1_565 S
Sm80 O101 2.450 . S
Sm80 O102 2.681 . S
Sm80 O103 2.464 . S
Sm80 O104 2.396 1_565 S
Sm80 O108 2.386 1_565 S
Sm80 O111 2.408 . S
Sm81 C91 2.846 1_545 S
Sm81 O102 2.386 1_545 S
Sm81 O105 2.408 . S
Sm81 O106 2.543 1_545 S
Sm81 O107 2.450 . S
Sm81 O108 2.681 . S
Sm81 O109 2.464 . S
Sm81 O110 2.396 1_545 S
C82 Sm80 2.846 1_545 S
C82 C83 1.506 . S
C82 O100 1.261 . S
C82 O101 1.242 1_545 S
C83 C82 1.506 . S
C83 C84 1.358 . S
C83 C88 1.382 1_545 S
C84 C83 1.358 . S
C84 C85 1.385 . S
C84 H112 0.930 . S
C85 C84 1.385 . S
C85 C86 1.395 . S
C85 H113 0.929 . S
C86 C85 1.395 . S
C86 C87 1.353 . S
C87 C86 1.353 . S
C87 C88 1.382 1_545 S
C87 H114 0.927 1_545 S
C88 C83 1.382 1_565 S
C88 C87 1.382 1_565 S
C88 H115 0.929 . S
C89 O102 1.271 . S
C89 O103 1.251 . S
C90 O104 1.252 . S
C90 O105 1.272 . S
C91 Sm81 2.846 1_565 S
C91 C92 1.506 . S
C91 O106 1.261 . S
C91 O107 1.242 1_565 S
C92 C91 1.506 . S
C92 C93 1.358 . S
C92 C97 1.382 1_565 S
C93 C92 1.358 . S
C93 C94 1.385 . S
C93 H116 0.930 . S
C94 C93 1.385 . S
C94 C95 1.395 . S
C94 H117 0.929 . S
C95 C94 1.395 . S
C95 C96 1.333 1_565 S
C96 C95 1.333 1_545 S
C96 C97 1.400 . S
C96 H118 0.930 . S
C97 C92 1.382 1_545 S
C97 C96 1.400 . S
C97 H119 0.929 . S
C98 O108 1.271 . S
C98 O109 1.251 . S
C99 O110 1.252 . S
C99 O111 1.272 . S
O100 Sm80 2.543 1_545 S
O100 C82 1.261 . S
O101 Sm80 2.450 . S
O101 C82 1.242 1_565 S
O102 Sm80 2.681 . S
O102 Sm81 2.386 1_565 S
O102 C89 1.271 . S
O103 Sm80 2.464 . S
O103 C89 1.251 . S
O104 Sm80 2.396 1_545 S
O104 C90 1.252 . S
O105 Sm81 2.408 . S
O105 C90 1.272 . S
O106 Sm81 2.543 1_565 S
O106 C91 1.261 . S
O107 Sm81 2.450 . S
O107 C91 1.242 1_545 S
O108 Sm80 2.386 1_545 S
O108 Sm81 2.681 . S
O108 C98 1.271 . S
O109 Sm81 2.464 . S
O109 C98 1.251 . S
O110 Sm81 2.396 1_565 S
O110 C99 1.252 . S
O111 Sm80 2.408 . S
O111 C99 1.272 . S
H112 C84 0.930 . S
H113 C85 0.929 . S
H114 C87 0.927 1_565 S
H115 C88 0.929 . S
H116 C93 0.930 . S
H117 C94 0.929 . S
H118 C96 0.930 . S
H119 C97 0.929 . S
Sm120 C122 2.846 . S
Sm120 O140 2.543 . S
Sm120 O141 2.450 . S
Sm120 O142 2.681 . S
Sm120 O143 2.464 . S
Sm120 O144 2.396 . S
Sm120 O148 2.386 . S
Sm120 O151 2.408 . S
Sm121 C131 2.846 . S
Sm121 O142 2.386 . S
Sm121 O145 2.408 . S
Sm121 O146 2.543 . S
Sm121 O147 2.450 . S
Sm121 O148 2.681 . S
Sm121 O149 2.464 . S
Sm121 O150 2.396 . S
C122 Sm120 2.846 . S
C122 C123 1.506 . S
C122 O140 1.261 . S
C122 O141 1.242 . S
C123 C122 1.506 . S
C123 C124 1.358 . S
C123 C128 1.382 . S
C124 C123 1.358 . S
C124 C125 1.385 . S
C124 H152 0.930 . S
C125 C124 1.385 . S
C125 C126 1.395 . S
C125 H153 0.929 . S
C126 C125 1.395 . S
C126 C127 1.335 . S
C127 C126 1.335 . S
C127 C128 1.398 . S
C127 H154 0.930 . S
C128 C123 1.382 . S
C128 C127 1.398 . S
C128 H155 0.929 . S
C129 O142 1.271 . S
C129 O143 1.251 . S
C130 O144 1.252 . S
C130 O145 1.272 . S
C131 Sm121 2.846 . S
C131 C132 1.506 . S
C131 O146 1.261 . S
C131 O147 1.242 . S
C132 C131 1.506 . S
C132 C133 1.358 . S
C132 C137 1.382 . S
C133 C132 1.358 . S
C133 C134 1.385 . S
C133 H156 0.930 . S
C134 C133 1.385 . S
C134 C135 1.395 . S
C134 H157 0.929 . S
C135 C134 1.395 . S
C135 C136 1.335 . S
C136 C135 1.335 . S
C136 C137 1.398 . S
C136 H158 0.930 . S
C137 C132 1.382 . S
C137 C136 1.398 . S
C137 H159 0.929 . S
C138 O148 1.271 . S
C138 O149 1.251 . S
C139 O150 1.252 . S
C139 O151 1.272 . S
O140 Sm120 2.543 . S
O140 C122 1.261 . S
O141 Sm120 2.450 . S
O141 C122 1.242 . S
O142 Sm120 2.681 . S
O142 Sm121 2.386 . S
O142 C129 1.271 . S
O143 Sm120 2.464 . S
O143 C129 1.251 . S
O144 Sm120 2.396 . S
O144 C130 1.252 . S
O145 Sm121 2.408 . S
O145 C130 1.272 . S
O146 Sm121 2.543 . S
O146 C131 1.261 . S
O147 Sm121 2.450 . S
O147 C131 1.242 . S
O148 Sm120 2.386 . S
O148 Sm121 2.681 . S
O148 C138 1.271 . S
O149 Sm121 2.464 . S
O149 C138 1.251 . S
O150 Sm121 2.396 . S
O150 C139 1.252 . S
O151 Sm120 2.408 . S
O151 C139 1.272 . S
H152 C124 0.930 . S
H153 C125 0.929 . S
H154 C127 0.930 . S
H155 C128 0.929 . S
H156 C133 0.930 . S
H157 C134 0.929 . S
H158 C136 0.930 . S
H159 C137 0.929 . S
Sm160 C162 2.846 . S
Sm160 O180 2.543 . S
Sm160 O181 2.450 . S
Sm160 O182 2.681 1_455 S
Sm160 O183 2.464 1_455 S
Sm160 O184 2.396 1_455 S
Sm160 O188 2.386 1_565 S
Sm160 O191 2.408 1_565 S
Sm161 C171 2.846 . S
Sm161 O182 2.386 1_545 S
Sm161 O185 2.408 1_545 S
Sm161 O186 2.543 . S
Sm161 O187 2.450 . S
Sm161 O188 2.681 1_655 S
Sm161 O189 2.464 1_655 S
Sm161 O190 2.396 1_655 S
C162 Sm160 2.846 . S
C162 C163 1.506 . S
C162 O180 1.261 . S
C162 O181 1.242 . S
C163 C162 1.506 . S
C163 C164 1.358 . S
C163 C168 1.382 . S
C164 C163 1.358 . S
C164 C165 1.385 . S
C164 H192 0.930 . S
C165 C164 1.385 . S
C165 C166 1.395 . S
C165 H193 0.929 . S
C166 C165 1.395 . S
C166 C167 1.335 . S
C167 C166 1.335 . S
C167 C168 1.398 . S
C167 H194 0.930 . S
C168 C163 1.382 . S
C168 C167 1.398 . S
C168 H195 0.929 . S
C169 O182 1.271 . S
C169 O183 1.251 . S
C170 O184 1.252 . S
C170 O185 1.272 . S
C171 Sm161 2.846 . S
C171 C172 1.506 . S
C171 O186 1.261 . S
C171 O187 1.242 . S
C172 C171 1.506 . S
C172 C173 1.358 . S
C172 C177 1.382 . S
C173 C172 1.358 . S
C173 C174 1.385 . S
C173 H196 0.930 . S
C174 C173 1.385 . S
C174 C175 1.395 . S
C174 H197 0.929 . S
C175 C174 1.395 . S
C175 C176 1.335 . S
C176 C175 1.335 . S
C176 C177 1.398 . S
C176 H198 0.930 . S
C177 C172 1.382 . S
C177 C176 1.398 . S
C177 H199 0.929 . S
C178 O188 1.271 . S
C178 O189 1.251 . S
C179 O190 1.252 . S
C179 O191 1.272 . S
O180 Sm160 2.543 . S
O180 C162 1.261 . S
O181 Sm160 2.450 . S
O181 C162 1.242 . S
O182 Sm160 2.681 1_655 S
O182 Sm161 2.386 1_565 S
O182 C169 1.271 . S
O183 Sm160 2.464 1_655 S
O183 C169 1.251 . S
O184 Sm160 2.396 1_655 S
O184 C170 1.252 . S
O185 Sm161 2.408 1_565 S
O185 C170 1.272 . S
O186 Sm161 2.543 . S
O186 C171 1.261 . S
O187 Sm161 2.450 . S
O187 C171 1.242 . S
O188 Sm160 2.386 1_545 S
O188 Sm161 2.681 1_455 S
O188 C178 1.271 . S
O189 Sm161 2.464 1_455 S
O189 C178 1.251 . S
O190 Sm161 2.396 1_455 S
O190 C179 1.252 . S
O191 Sm160 2.408 1_545 S
O191 C179 1.272 . S
H192 C164 0.930 . S
H193 C165 0.929 . S
H194 C167 0.930 . S
H195 C168 0.929 . S
H196 C173 0.930 . S
H197 C174 0.929 . S
H198 C176 0.930 . S
H199 C177 0.929 . S
Sm200 C202 2.846 . S
Sm200 O220 2.543 . S
Sm200 O221 2.450 . S
Sm200 O222 2.681 . S
Sm200 O223 2.464 . S
Sm200 O224 2.396 . S
Sm200 O228 2.386 . S
Sm200 O231 2.408 . S
Sm201 C211 2.846 . S
Sm201 O222 2.386 . S
Sm201 O225 2.408 . S
Sm201 O226 2.543 . S
Sm201 O227 2.450 . S
Sm201 O228 2.681 . S
Sm201 O229 2.464 . S
Sm201 O230 2.396 . S
C202 Sm200 2.846 . S
C202 C203 1.506 . S
C202 O220 1.261 . S
C202 O221 1.242 . S
C203 C202 1.506 . S
C203 C204 1.358 . S
C203 C208 1.382 . S
C204 C203 1.358 . S
C204 C205 1.385 . S
C204 H232 0.930 . S
C205 C204 1.385 . S
C205 C206 1.395 . S
C205 H233 0.929 . S
C206 C205 1.395 . S
C206 C207 1.335 . S
C207 C206 1.335 . S
C207 C208 1.398 . S
C207 H234 0.930 . S
C208 C203 1.382 . S
C208 C207 1.398 . S
C208 H235 0.929 . S
C209 O222 1.271 . S
C209 O223 1.251 . S
C210 O224 1.252 . S
C210 O225 1.272 . S
C211 Sm201 2.846 . S
C211 C212 1.506 . S
C211 O226 1.261 . S
C211 O227 1.242 . S
C212 C211 1.506 . S
C212 C213 1.358 . S
C212 C217 1.382 . S
C213 C212 1.358 . S
C213 C214 1.385 . S
C213 H236 0.930 . S
C214 C213 1.385 . S
C214 C215 1.395 . S
C214 H237 0.929 . S
C215 C214 1.395 . S
C215 C216 1.335 . S
C216 C215 1.335 . S
C216 C217 1.398 . S
C216 H238 0.930 . S
C217 C212 1.382 . S
C217 C216 1.398 . S
C217 H239 0.929 . S
C218 O228 1.271 . S
C218 O229 1.251 . S
C219 O230 1.252 . S
C219 O231 1.272 . S
O220 Sm200 2.543 . S
O220 C202 1.261 . S
O221 Sm200 2.450 . S
O221 C202 1.242 . S
O222 Sm200 2.681 . S
O222 Sm201 2.386 . S
O222 C209 1.271 . S
O223 Sm200 2.464 . S
O223 C209 1.251 . S
O224 Sm200 2.396 . S
O224 C210 1.252 . S
O225 Sm201 2.408 . S
O225 C210 1.272 . S
O226 Sm201 2.543 . S
O226 C211 1.261 . S
O227 Sm201 2.450 . S
O227 C211 1.242 . S
O228 Sm200 2.386 . S
O228 Sm201 2.681 . S
O228 C218 1.271 . S
O229 Sm201 2.464 . S
O229 C218 1.251 . S
O230 Sm201 2.396 . S
O230 C219 1.252 . S
O231 Sm200 2.408 . S
O231 C219 1.272 . S
H232 C204 0.930 . S
H233 C205 0.929 . S
H234 C207 0.930 . S
H235 C208 0.929 . S
H236 C213 0.930 . S
H237 C214 0.929 . S
H238 C216 0.930 . S
H239 C217 0.929 . S
Sm240 C242 2.846 1_554 S
Sm240 O260 2.543 1_554 S
Sm240 O261 2.450 . S
Sm240 O262 2.681 1_565 S
Sm240 O263 2.464 1_565 S
Sm240 O264 2.396 1_564 S
Sm240 O268 2.386 1_554 S
Sm240 O271 2.408 . S
Sm241 C251 2.846 1_556 S
Sm241 O262 2.386 1_556 S
Sm241 O265 2.408 . S
Sm241 O266 2.543 1_556 S
Sm241 O267 2.450 . S
Sm241 O268 2.681 1_545 S
Sm241 O269 2.464 1_545 S
Sm241 O270 2.396 1_546 S
C242 Sm240 2.846 1_556 S
C242 C243 1.506 . S
C242 O260 1.261 . S
C242 O261 1.242 1_556 S
C243 C242 1.506 . S
C243 C244 1.358 . S
C243 C248 1.382 . S
C244 C243 1.358 . S
C244 C245 1.385 . S
C244 H272 0.930 . S
C245 C244 1.385 . S
C245 C246 1.395 . S
C245 H273 0.929 . S
C246 C245 1.395 . S
C246 C247 1.335 . S
C247 C246 1.335 . S
C247 C248 1.398 . S
C247 H274 0.930 . S
C248 C243 1.382 . S
C248 C247 1.398 . S
C248 H275 0.929 1_556 S
C249 O262 1.271 . S
C249 O263 1.251 . S
C250 O264 1.252 . S
C250 O265 1.272 . S
C251 Sm241 2.846 1_554 S
C251 C252 1.506 . S
C251 O266 1.261 . S
C251 O267 1.242 1_554 S
C252 C251 1.506 . S
C252 C253 1.358 . S
C252 C257 1.382 . S
C253 C252 1.358 . S
C253 C254 1.385 . S
C253 H276 0.930 . S
C254 C253 1.385 . S
C254 C255 1.395 . S
C254 H277 0.929 . S
C255 C254 1.395 . S
C255 C256 1.335 . S
C256 C255 1.335 . S
C256 C257 1.398 . S
C256 H278 0.930 . S
C257 C252 1.382 . S
C257 C256 1.398 . S
C257 H279 0.929 1_554 S
C258 O268 1.271 . S
C258 O269 1.251 . S
C259 O270 1.252 . S
C259 O271 1.272 . S
O260 Sm240 2.543 1_556 S
O260 C242 1.261 . S
O261 Sm240 2.450 . S
O261 C242 1.242 1_554 S
O262 Sm240 2.681 1_545 S
O262 Sm241 2.386 1_554 S
O262 C249 1.271 . S
O263 Sm240 2.464 1_545 S
O263 C249 1.251 . S
O264 Sm240 2.396 1_546 S
O264 C250 1.252 . S
O265 Sm241 2.408 . S
O265 C250 1.272 . S
O266 Sm241 2.543 1_554 S
O266 C251 1.261 . S
O267 Sm241 2.450 . S
O267 C251 1.242 1_556 S
O268 Sm240 2.386 1_556 S
O268 Sm241 2.681 1_565 S
O268 C258 1.271 . S
O269 Sm241 2.464 1_565 S
O269 C258 1.251 . S
O270 Sm241 2.396 1_564 S
O270 C259 1.252 . S
O271 Sm240 2.408 . S
O271 C259 1.272 . S
H272 C244 0.930 . S
H273 C245 0.929 . S
H274 C247 0.930 . S
H275 C248 0.929 1_554 S
H276 C253 0.930 . S
H277 C254 0.929 . S
H278 C256 0.930 . S
H279 C257 0.929 1_556 S
Sm280 C282 2.846 . S
Sm280 O300 2.543 . S
Sm280 O301 2.450 . S
Sm280 O302 2.681 . S
Sm280 O303 2.464 . S
Sm280 O304 2.396 . S
Sm280 O308 2.386 . S
Sm280 O311 2.408 . S
Sm281 C291 2.846 . S
Sm281 O302 2.386 . S
Sm281 O305 2.408 . S
Sm281 O306 2.543 . S
Sm281 O307 2.450 . S
Sm281 O308 2.681 . S
Sm281 O309 2.464 . S
Sm281 O310 2.396 . S
C282 Sm280 2.846 . S
C282 C283 1.506 . S
C282 O300 1.261 . S
C282 O301 1.242 . S
C283 C282 1.506 . S
C283 C284 1.358 . S
C283 C288 1.382 . S
C284 C283 1.358 . S
C284 C285 1.385 . S
C284 H312 0.930 . S
C285 C284 1.385 . S
C285 C286 1.395 . S
C285 H313 0.929 . S
C286 C285 1.395 . S
C286 C287 1.335 . S
C287 C286 1.335 . S
C287 C288 1.398 . S
C287 H314 0.930 . S
C288 C283 1.382 . S
C288 C287 1.398 . S
C288 H315 0.929 . S
C289 O302 1.271 . S
C289 O303 1.251 . S
C290 O304 1.252 . S
C290 O305 1.272 . S
C291 Sm281 2.846 . S
C291 C292 1.506 . S
C291 O306 1.261 . S
C291 O307 1.242 . S
C292 C291 1.506 . S
C292 C293 1.358 . S
C292 C297 1.382 . S
C293 C292 1.358 . S
C293 C294 1.385 . S
C293 H316 0.930 . S
C294 C293 1.385 . S
C294 C295 1.395 . S
C294 H317 0.929 . S
C295 C294 1.395 . S
C295 C296 1.335 . S
C296 C295 1.335 . S
C296 C297 1.398 . S
C296 H318 0.930 . S
C297 C292 1.382 . S
C297 C296 1.398 . S
C297 H319 0.929 . S
C298 O308 1.271 . S
C298 O309 1.251 . S
C299 O310 1.252 . S
C299 O311 1.272 . S
O300 Sm280 2.543 . S
O300 C282 1.261 . S
O301 Sm280 2.450 . S
O301 C282 1.242 . S
O302 Sm280 2.681 . S
O302 Sm281 2.386 . S
O302 C289 1.271 . S
O303 Sm280 2.464 . S
O303 C289 1.251 . S
O304 Sm280 2.396 . S
O304 C290 1.252 . S
O305 Sm281 2.408 . S
O305 C290 1.272 . S
O306 Sm281 2.543 . S
O306 C291 1.261 . S
O307 Sm281 2.450 . S
O307 C291 1.242 . S
O308 Sm280 2.386 . S
O308 Sm281 2.681 . S
O308 C298 1.271 . S
O309 Sm281 2.464 . S
O309 C298 1.251 . S
O310 Sm281 2.396 . S
O310 C299 1.252 . S
O311 Sm280 2.408 . S
O311 C299 1.272 . S
H312 C284 0.930 . S
H313 C285 0.929 . S
H314 C287 0.930 . S
H315 C288 0.929 . S
H316 C293 0.930 . S
H317 C294 0.929 . S
H318 C296 0.930 . S
H319 C297 0.929 . S
Sm320 C322 2.846 . S
Sm320 O340 2.543 . S
Sm320 O341 2.450 . S
Sm320 O342 2.681 1_554 S
Sm320 O343 2.464 1_554 S
Sm320 O344 2.396 . S
Sm320 O348 2.386 . S
Sm320 O351 2.408 1_554 S
Sm321 C331 2.846 . S
Sm321 O342 2.386 . S
Sm321 O345 2.408 1_556 S
Sm321 O346 2.543 . S
Sm321 O347 2.450 . S
Sm321 O348 2.681 1_556 S
Sm321 O349 2.464 1_556 S
Sm321 O350 2.396 . S
C322 Sm320 2.846 . S
C322 C323 1.506 . S
C322 O340 1.261 . S
C322 O341 1.242 . S
C323 C322 1.506 . S
C323 C324 1.358 . S
C323 C328 1.382 . S
C324 C323 1.358 . S
C324 C325 1.385 . S
C324 H352 0.930 . S
C325 C324 1.385 . S
C325 C326 1.395 . S
C325 H353 0.929 . S
C326 C325 1.395 . S
C326 C327 1.335 . S
C327 C326 1.335 . S
C327 C328 1.398 . S
C327 H354 0.930 . S
C328 C323 1.382 . S
C328 C327 1.398 . S
C328 H355 0.929 . S
C329 O342 1.271 . S
C329 O343 1.251 . S
C330 O344 1.252 . S
C330 O345 1.272 . S
C331 Sm321 2.846 . S
C331 C332 1.506 . S
C331 O346 1.261 . S
C331 O347 1.242 . S
C332 C331 1.506 . S
C332 C333 1.358 . S
C332 C337 1.382 . S
C333 C332 1.358 . S
C333 C334 1.385 . S
C333 H356 0.930 . S
C334 C333 1.385 . S
C334 C335 1.395 . S
C334 H357 0.929 . S
C335 C334 1.395 . S
C335 C336 1.335 . S
C336 C335 1.335 . S
C336 C337 1.398 . S
C336 H358 0.930 . S
C337 C332 1.382 . S
C337 C336 1.398 . S
C337 H359 0.929 . S
C338 O348 1.271 . S
C338 O349 1.251 . S
C339 O350 1.252 . S
C339 O351 1.272 . S
O340 Sm320 2.543 . S
O340 C322 1.261 . S
O341 Sm320 2.450 . S
O341 C322 1.242 . S
O342 Sm320 2.681 1_556 S
O342 Sm321 2.386 . S
O342 C329 1.271 . S
O343 Sm320 2.464 1_556 S
O343 C329 1.251 . S
O344 Sm320 2.396 . S
O344 C330 1.252 . S
O345 Sm321 2.408 1_554 S
O345 C330 1.272 . S
O346 Sm321 2.543 . S
O346 C331 1.261 . S
O347 Sm321 2.450 . S
O347 C331 1.242 . S
O348 Sm320 2.386 . S
O348 Sm321 2.681 1_554 S
O348 C338 1.271 . S
O349 Sm321 2.464 1_554 S
O349 C338 1.251 . S
O350 Sm321 2.396 . S
O350 C339 1.252 . S
O351 Sm320 2.408 1_556 S
O351 C339 1.272 . S
H352 C324 0.930 . S
H353 C325 0.929 . S
H354 C327 0.930 . S
H355 C328 0.929 . S
H356 C333 0.930 . S
H357 C334 0.929 . S
H358 C336 0.930 . S
H359 C337 0.929 . S
Sm360 C362 2.846 . S
Sm360 O380 2.543 . S
Sm360 O381 2.450 . S
Sm360 O382 2.681 . S
Sm360 O383 2.464 . S
Sm360 O384 2.396 . S
Sm360 O388 2.386 . S
Sm360 O391 2.408 . S
Sm361 C371 2.846 . S
Sm361 O382 2.386 . S
Sm361 O385 2.408 . S
Sm361 O386 2.543 . S
Sm361 O387 2.450 . S
Sm361 O388 2.681 . S
Sm361 O389 2.464 . S
Sm361 O390 2.396 . S
C362 Sm360 2.846 . S
C362 C363 1.506 . S
C362 O380 1.261 . S
C362 O381 1.242 . S
C363 C362 1.506 . S
C363 C364 1.358 . S
C363 C368 1.382 . S
C364 C363 1.358 . S
C364 C365 1.385 . S
C364 H392 0.930 . S
C365 C364 1.385 . S
C365 C366 1.395 . S
C365 H393 0.929 . S
C366 C365 1.395 . S
C366 C367 1.335 . S
C367 C366 1.335 . S
C367 C368 1.398 . S
C367 H394 0.930 . S
C368 C363 1.382 . S
C368 C367 1.398 . S
C368 H395 0.929 . S
C369 O382 1.271 . S
C369 O383 1.251 . S
C370 O384 1.252 . S
C370 O385 1.272 . S
C371 Sm361 2.846 . S
C371 C372 1.506 . S
C371 O386 1.261 . S
C371 O387 1.242 . S
C372 C371 1.506 . S
C372 C373 1.358 . S
C372 C377 1.382 . S
C373 C372 1.358 . S
C373 C374 1.385 . S
C373 H396 0.930 . S
C374 C373 1.385 . S
C374 C375 1.395 . S
C374 H397 0.929 . S
C375 C374 1.395 . S
C375 C376 1.335 . S
C376 C375 1.335 . S
C376 C377 1.398 . S
C376 H398 0.930 . S
C377 C372 1.382 . S
C377 C376 1.398 . S
C377 H399 0.929 . S
C378 O388 1.271 . S
C378 O389 1.251 . S
C379 O390 1.252 . S
C379 O391 1.272 . S
O380 Sm360 2.543 . S
O380 C362 1.261 . S
O381 Sm360 2.450 . S
O381 C362 1.242 . S
O382 Sm360 2.681 . S
O382 Sm361 2.386 . S
O382 C369 1.271 . S
O383 Sm360 2.464 . S
O383 C369 1.251 . S
O384 Sm360 2.396 . S
O384 C370 1.252 . S
O385 Sm361 2.408 . S
O385 C370 1.272 . S
O386 Sm361 2.543 . S
O386 C371 1.261 . S
O387 Sm361 2.450 . S
O387 C371 1.242 . S
O388 Sm360 2.386 . S
O388 Sm361 2.681 . S
O388 C378 1.271 . S
O389 Sm361 2.464 . S
O389 C378 1.251 . S
O390 Sm361 2.396 . S
O390 C379 1.252 . S
O391 Sm360 2.408 . S
O391 C379 1.272 . S
H392 C364 0.930 . S
H393 C365 0.929 . S
H394 C367 0.930 . S
H395 C368 0.929 . S
H396 C373 0.930 . S
H397 C374 0.929 . S
H398 C376 0.930 . S
H399 C377 0.929 . S
Sm400 C402 2.846 . S
Sm400 O420 2.543 . S
Sm400 O421 2.450 . S
Sm400 O422 2.681 . S
Sm400 O423 2.464 . S
Sm400 O424 2.396 . S
Sm400 O428 2.386 1_455 S
Sm400 O431 2.408 1_455 S
Sm401 C411 2.846 . S
Sm401 O422 2.386 1_655 S
Sm401 O425 2.408 1_655 S
Sm401 O426 2.543 . S
Sm401 O427 2.450 . S
Sm401 O428 2.681 . S
Sm401 O429 2.464 . S
Sm401 O430 2.396 . S
C402 Sm400 2.846 . S
C402 C403 1.506 . S
C402 O420 1.261 . S
C402 O421 1.242 . S
C403 C402 1.506 . S
C403 C404 1.358 . S
C403 C408 1.382 . S
C404 C403 1.358 . S
C404 C405 1.385 . S
C404 H432 0.930 . S
C405 C404 1.385 . S
C405 C406 1.395 . S
C405 H433 0.929 . S
C406 C405 1.395 . S
C406 C407 1.335 . S
C407 C406 1.335 . S
C407 C408 1.398 . S
C407 H434 0.930 . S
C408 C403 1.382 . S
C408 C407 1.398 . S
C408 H435 0.929 . S
C409 O422 1.271 . S
C409 O423 1.251 . S
C410 O424 1.252 . S
C410 O425 1.272 . S
C411 Sm401 2.846 . S
C411 C412 1.506 . S
C411 O426 1.261 . S
C411 O427 1.242 . S
C412 C411 1.506 . S
C412 C413 1.358 . S
C412 C417 1.382 . S
C413 C412 1.358 . S
C413 C414 1.385 . S
C413 H436 0.930 . S
C414 C413 1.385 . S
C414 C415 1.395 . S
C414 H437 0.929 . S
C415 C414 1.395 . S
C415 C416 1.335 . S
C416 C415 1.335 . S
C416 C417 1.398 . S
C416 H438 0.930 . S
C417 C412 1.382 . S
C417 C416 1.398 . S
C417 H439 0.929 . S
C418 O428 1.271 . S
C418 O429 1.251 . S
C419 O430 1.252 . S
C419 O431 1.272 . S
O420 Sm400 2.543 . S
O420 C402 1.261 . S
O421 Sm400 2.450 . S
O421 C402 1.242 . S
O422 Sm400 2.681 . S
O422 Sm401 2.386 1_455 S
O422 C409 1.271 . S
O423 Sm400 2.464 . S
O423 C409 1.251 . S
O424 Sm400 2.396 . S
O424 C410 1.252 . S
O425 Sm401 2.408 1_455 S
O425 C410 1.272 . S
O426 Sm401 2.543 . S
O426 C411 1.261 . S
O427 Sm401 2.450 . S
O427 C411 1.242 . S
O428 Sm400 2.386 1_655 S
O428 Sm401 2.681 . S
O428 C418 1.271 . S
O429 Sm401 2.464 . S
O429 C418 1.251 . S
O430 Sm401 2.396 . S
O430 C419 1.252 . S
O431 Sm400 2.408 1_655 S
O431 C419 1.272 . S
H432 C404 0.930 . S
H433 C405 0.929 . S
H434 C407 0.930 . S
H435 C408 0.929 . S
H436 C413 0.930 . S
H437 C414 0.929 . S
H438 C416 0.930 . S
H439 C417 0.929 . S
Sm440 C442 2.846 . S
Sm440 O460 2.543 . S
Sm440 O461 2.450 . S
Sm440 O462 2.681 . S
Sm440 O463 2.464 . S
Sm440 O464 2.396 . S
Sm440 O468 2.386 . S
Sm440 O471 2.408 . S
Sm441 C451 2.846 . S
Sm441 O462 2.386 . S
Sm441 O465 2.408 . S
Sm441 O466 2.543 . S
Sm441 O467 2.450 . S
Sm441 O468 2.681 . S
Sm441 O469 2.464 . S
Sm441 O470 2.396 . S
C442 Sm440 2.846 . S
C442 C443 1.506 . S
C442 O460 1.261 . S
C442 O461 1.242 . S
C443 C442 1.506 . S
C443 C444 1.358 . S
C443 C448 1.382 . S
C444 C443 1.358 . S
C444 C445 1.385 . S
C444 H472 0.930 . S
C445 C444 1.385 . S
C445 C446 1.395 . S
C445 H473 0.929 . S
C446 C445 1.395 . S
C446 C447 1.335 . S
C447 C446 1.335 . S
C447 C448 1.398 . S
C447 H474 0.930 . S
C448 C443 1.382 . S
C448 C447 1.398 . S
C448 H475 0.929 . S
C449 O462 1.271 . S
C449 O463 1.251 . S
C450 O464 1.252 . S
C450 O465 1.272 . S
C451 Sm441 2.846 . S
C451 C452 1.506 . S
C451 O466 1.261 . S
C451 O467 1.242 . S
C452 C451 1.506 . S
C452 C453 1.358 . S
C452 C457 1.382 . S
C453 C452 1.358 . S
C453 C454 1.385 . S
C453 H476 0.930 . S
C454 C453 1.385 . S
C454 C455 1.395 . S
C454 H477 0.929 . S
C455 C454 1.395 . S
C455 C456 1.335 . S
C456 C455 1.335 . S
C456 C457 1.398 . S
C456 H478 0.930 . S
C457 C452 1.382 . S
C457 C456 1.398 . S
C457 H479 0.929 . S
C458 O468 1.271 . S
C458 O469 1.251 . S
C459 O470 1.252 . S
C459 O471 1.272 . S
O460 Sm440 2.543 . S
O460 C442 1.261 . S
O461 Sm440 2.450 . S
O461 C442 1.242 . S
O462 Sm440 2.681 . S
O462 Sm441 2.386 . S
O462 C449 1.271 . S
O463 Sm440 2.464 . S
O463 C449 1.251 . S
O464 Sm440 2.396 . S
O464 C450 1.252 . S
O465 Sm441 2.408 . S
O465 C450 1.272 . S
O466 Sm441 2.543 . S
O466 C451 1.261 . S
O467 Sm441 2.450 . S
O467 C451 1.242 . S
O468 Sm440 2.386 . S
O468 Sm441 2.681 . S
O468 C458 1.271 . S
O469 Sm441 2.464 . S
O469 C458 1.251 . S
O470 Sm441 2.396 . S
O470 C459 1.252 . S
O471 Sm440 2.408 . S
O471 C459 1.272 . S
H472 C444 0.930 . S
H473 C445 0.929 . S
H474 C447 0.930 . S
H475 C448 0.929 . S
H476 C453 0.930 . S
H477 C454 0.929 . S
H478 C456 0.930 . S
H479 C457 0.929 . S
Sm480 C482 2.846 . S
Sm480 O500 2.543 . S
Sm480 O501 2.450 . S
Sm480 O502 2.681 . S
Sm480 O503 2.464 . S
Sm480 O504 2.396 . S
Sm480 O508 2.386 . S
Sm480 O511 2.408 . S
Sm481 C491 2.846 . S
Sm481 O502 2.386 . S
Sm481 O505 2.408 . S
Sm481 O506 2.543 . S
Sm481 O507 2.450 . S
Sm481 O508 2.681 . S
Sm481 O509 2.464 . S
Sm481 O510 2.396 . S
C482 Sm480 2.846 . S
C482 C483 1.506 . S
C482 O500 1.261 . S
C482 O501 1.242 . S
C483 C482 1.506 . S
C483 C484 1.358 . S
C483 C488 1.382 . S
C484 C483 1.358 . S
C484 C485 1.385 . S
C484 H512 0.930 . S
C485 C484 1.385 . S
C485 C486 1.395 . S
C485 H513 0.929 . S
C486 C485 1.395 . S
C486 C487 1.335 . S
C487 C486 1.335 . S
C487 C488 1.398 . S
C487 H514 0.930 . S
C488 C483 1.382 . S
C488 C487 1.398 . S
C488 H515 0.929 . S
C489 O502 1.271 . S
C489 O503 1.251 . S
C490 O504 1.252 . S
C490 O505 1.272 . S
C491 Sm481 2.846 . S
C491 C492 1.506 . S
C491 O506 1.261 . S
C491 O507 1.242 . S
C492 C491 1.506 . S
C492 C493 1.358 . S
C492 C497 1.382 . S
C493 C492 1.358 . S
C493 C494 1.385 . S
C493 H516 0.930 . S
C494 C493 1.385 . S
C494 C495 1.395 . S
C494 H517 0.929 . S
C495 C494 1.395 . S
C495 C496 1.335 . S
C496 C495 1.335 . S
C496 C497 1.398 . S
C496 H518 0.930 . S
C497 C492 1.382 . S
C497 C496 1.398 . S
C497 H519 0.929 . S
C498 O508 1.271 . S
C498 O509 1.251 . S
C499 O510 1.252 . S
C499 O511 1.272 . S
O500 Sm480 2.543 . S
O500 C482 1.261 . S
O501 Sm480 2.450 . S
O501 C482 1.242 . S
O502 Sm480 2.681 . S
O502 Sm481 2.386 . S
O502 C489 1.271 . S
O503 Sm480 2.464 . S
O503 C489 1.251 . S
O504 Sm480 2.396 . S
O504 C490 1.252 . S
O505 Sm481 2.408 . S
O505 C490 1.272 . S
O506 Sm481 2.543 . S
O506 C491 1.261 . S
O507 Sm481 2.450 . S
O507 C491 1.242 . S
O508 Sm480 2.386 . S
O508 Sm481 2.681 . S
O508 C498 1.271 . S
O509 Sm481 2.464 . S
O509 C498 1.251 . S
O510 Sm481 2.396 . S
O510 C499 1.252 . S
O511 Sm480 2.408 . S
O511 C499 1.272 . S
H512 C484 0.930 . S
H513 C485 0.929 . S
H514 C487 0.930 . S
H515 C488 0.929 . S
H516 C493 0.930 . S
H517 C494 0.929 . S
H518 C496 0.930 . S
H519 C497 0.929 . S
Sm520 C522 2.846 . S
Sm520 O540 2.543 . S
Sm520 O541 2.450 . S
Sm520 O542 2.681 . S
Sm520 O543 2.464 . S
Sm520 O544 2.396 . S
Sm520 O548 2.386 . S
Sm520 O551 2.408 . S
Sm521 C531 2.846 . S
Sm521 O542 2.386 . S
Sm521 O545 2.408 . S
Sm521 O546 2.543 . S
Sm521 O547 2.450 . S
Sm521 O548 2.681 . S
Sm521 O549 2.464 . S
Sm521 O550 2.396 . S
C522 Sm520 2.846 . S
C522 C523 1.506 . S
C522 O540 1.261 . S
C522 O541 1.242 . S
C523 C522 1.506 . S
C523 C524 1.358 . S
C523 C528 1.382 . S
C524 C523 1.358 . S
C524 C525 1.385 . S
C524 H552 0.930 . S
C525 C524 1.385 . S
C525 C526 1.395 . S
C525 H553 0.929 . S
C526 C525 1.395 . S
C526 C527 1.335 . S
C527 C526 1.335 . S
C527 C528 1.398 . S
C527 H554 0.930 . S
C528 C523 1.382 . S
C528 C527 1.398 . S
C528 H555 0.929 . S
C529 O542 1.271 . S
C529 O543 1.251 . S
C530 O544 1.252 . S
C530 O545 1.272 . S
C531 Sm521 2.846 . S
C531 C532 1.506 . S
C531 O546 1.261 . S
C531 O547 1.242 . S
C532 C531 1.506 . S
C532 C533 1.358 . S
C532 C537 1.382 . S
C533 C532 1.358 . S
C533 C534 1.385 . S
C533 H556 0.930 . S
C534 C533 1.385 . S
C534 C535 1.395 . S
C534 H557 0.929 . S
C535 C534 1.395 . S
C535 C536 1.335 . S
C536 C535 1.335 . S
C536 C537 1.398 . S
C536 H558 0.930 . S
C537 C532 1.382 . S
C537 C536 1.398 . S
C537 H559 0.929 . S
C538 O548 1.271 . S
C538 O549 1.251 . S
C539 O550 1.252 . S
C539 O551 1.272 . S
O540 Sm520 2.543 . S
O540 C522 1.261 . S
O541 Sm520 2.450 . S
O541 C522 1.242 . S
O542 Sm520 2.681 . S
O542 Sm521 2.386 . S
O542 C529 1.271 . S
O543 Sm520 2.464 . S
O543 C529 1.251 . S
O544 Sm520 2.396 . S
O544 C530 1.252 . S
O545 Sm521 2.408 . S
O545 C530 1.272 . S
O546 Sm521 2.543 . S
O546 C531 1.261 . S
O547 Sm521 2.450 . S
O547 C531 1.242 . S
O548 Sm520 2.386 . S
O548 Sm521 2.681 . S
O548 C538 1.271 . S
O549 Sm521 2.464 . S
O549 C538 1.251 . S
O550 Sm521 2.396 . S
O550 C539 1.252 . S
O551 Sm520 2.408 . S
O551 C539 1.272 . S
H552 C524 0.930 . S
H553 C525 0.929 . S
H554 C527 0.930 . S
H555 C528 0.929 . S
H556 C533 0.930 . S
H557 C534 0.929 . S
H558 C536 0.930 . S
H559 C537 0.929 . S
Sm560 C562 2.846 . S
Sm560 O580 2.543 . S
Sm560 O581 2.450 . S
Sm560 O582 2.681 . S
Sm560 O583 2.464 . S
Sm560 O584 2.396 . S
Sm560 O588 2.386 . S
Sm560 O591 2.408 . S
Sm561 C571 2.846 . S
Sm561 O582 2.386 . S
Sm561 O585 2.408 . S
Sm561 O586 2.543 . S
Sm561 O587 2.450 . S
Sm561 O588 2.681 . S
Sm561 O589 2.464 . S
Sm561 O590 2.396 . S
C562 Sm560 2.846 . S
C562 C563 1.506 . S
C562 O580 1.261 . S
C562 O581 1.242 . S
C563 C562 1.506 . S
C563 C564 1.358 . S
C563 C568 1.382 . S
C564 C563 1.358 . S
C564 C565 1.385 . S
C564 H592 0.930 . S
C565 C564 1.385 . S
C565 C566 1.395 . S
C565 H593 0.929 . S
C566 C565 1.395 . S
C566 C567 1.335 . S
C567 C566 1.335 . S
C567 C568 1.398 . S
C567 H594 0.930 . S
C568 C563 1.382 . S
C568 C567 1.398 . S
C568 H595 0.929 . S
C569 O582 1.271 . S
C569 O583 1.251 . S
C570 O584 1.252 . S
C570 O585 1.272 . S
C571 Sm561 2.846 . S
C571 C572 1.506 . S
C571 O586 1.261 . S
C571 O587 1.242 . S
C572 C571 1.506 . S
C572 C573 1.358 . S
C572 C577 1.382 . S
C573 C572 1.358 . S
C573 C574 1.385 . S
C573 H596 0.930 . S
C574 C573 1.385 . S
C574 C575 1.395 . S
C574 H597 0.929 . S
C575 C574 1.395 . S
C575 C576 1.335 . S
C576 C575 1.335 . S
C576 C577 1.398 . S
C576 H598 0.930 . S
C577 C572 1.382 . S
C577 C576 1.398 . S
C577 H599 0.929 . S
C578 O588 1.271 . S
C578 O589 1.251 . S
C579 O590 1.252 . S
C579 O591 1.272 . S
O580 Sm560 2.543 . S
O580 C562 1.261 . S
O581 Sm560 2.450 . S
O581 C562 1.242 . S
O582 Sm560 2.681 . S
O582 Sm561 2.386 . S
O582 C569 1.271 . S
O583 Sm560 2.464 . S
O583 C569 1.251 . S
O584 Sm560 2.396 . S
O584 C570 1.252 . S
O585 Sm561 2.408 . S
O585 C570 1.272 . S
O586 Sm561 2.543 . S
O586 C571 1.261 . S
O587 Sm561 2.450 . S
O587 C571 1.242 . S
O588 Sm560 2.386 . S
O588 Sm561 2.681 . S
O588 C578 1.271 . S
O589 Sm561 2.464 . S
O589 C578 1.251 . S
O590 Sm561 2.396 . S
O590 C579 1.252 . S
O591 Sm560 2.408 . S
O591 C579 1.272 . S
H592 C564 0.930 . S
H593 C565 0.929 . S
H594 C567 0.930 . S
H595 C568 0.929 . S
H596 C573 0.930 . S
H597 C574 0.929 . S
H598 C576 0.930 . S
H599 C577 0.929 . S
Sm600 C602 2.846 . S
Sm600 O620 2.543 . S
Sm600 O621 2.450 . S
Sm600 O622 2.681 1_554 S
Sm600 O623 2.464 1_554 S
Sm600 O624 2.396 1_554 S
Sm600 O628 2.386 1_655 S
Sm600 O631 2.408 1_655 S
Sm601 C611 2.846 . S
Sm601 O622 2.386 1_455 S
Sm601 O625 2.406 1_455 S
Sm601 O626 2.543 . S
Sm601 O627 2.450 . S
Sm601 O628 2.681 1_556 S
Sm601 O629 2.464 1_556 S
Sm601 O630 2.396 1_556 S
C602 Sm600 2.846 . S
C602 C603 1.506 . S
C602 O620 1.261 . S
C602 O621 1.242 . S
C603 C602 1.506 . S
C603 C604 1.358 . S
C603 C608 1.382 . S
C604 C603 1.358 . S
C604 C605 1.385 . S
C604 H632 0.930 . S
C605 C604 1.385 . S
C605 C606 1.395 . S
C605 H633 0.929 . S
C606 C605 1.395 . S
C606 C607 1.335 . S
C607 C606 1.335 . S
C607 C608 1.398 . S
C607 H634 0.930 . S
C608 C603 1.382 . S
C608 C607 1.398 . S
C608 H635 0.929 . S
C609 O622 1.271 . S
C609 O623 1.251 . S
C610 O624 1.252 . S
C610 O625 1.274 . S
C611 Sm601 2.846 . S
C611 C612 1.506 . S
C611 O626 1.261 . S
C611 O627 1.242 . S
C612 C611 1.506 . S
C612 C613 1.358 . S
C612 C617 1.382 . S
C613 C612 1.358 . S
C613 C614 1.385 . S
C613 H636 0.930 . S
C614 C613 1.385 . S
C614 C615 1.395 . S
C614 H637 0.929 . S
C615 C614 1.395 . S
C615 C616 1.335 . S
C616 C615 1.335 . S
C616 C617 1.398 . S
C616 H638 0.930 . S
C617 C612 1.382 . S
C617 C616 1.398 . S
C617 H639 0.929 . S
C618 O628 1.271 . S
C618 O629 1.251 . S
C619 O630 1.252 . S
C619 O631 1.272 . S
O620 Sm600 2.543 . S
O620 C602 1.261 . S
O621 Sm600 2.450 . S
O621 C602 1.242 . S
O622 Sm600 2.681 1_556 S
O622 Sm601 2.386 1_655 S
O622 C609 1.271 . S
O623 Sm600 2.464 1_556 S
O623 C609 1.251 . S
O624 Sm600 2.396 1_556 S
O624 C610 1.252 . S
O625 Sm601 2.406 1_655 S
O625 C610 1.274 . S
O626 Sm601 2.543 . S
O626 C611 1.261 . S
O627 Sm601 2.450 . S
O627 C611 1.242 . S
O628 Sm600 2.386 1_455 S
O628 Sm601 2.681 1_554 S
O628 C618 1.271 . S
O629 Sm601 2.464 1_554 S
O629 C618 1.251 . S
O630 Sm601 2.396 1_554 S
O630 C619 1.252 . S
O631 Sm600 2.408 1_455 S
O631 C619 1.272 . S
H632 C604 0.930 . S
H633 C605 0.929 . S
H634 C607 0.930 . S
H635 C608 0.929 . S
H636 C613 0.930 . S
H637 C614 0.929 . S
H638 C616 0.930 . S
H639 C617 0.929 . S
C640 C641 1.391 . S
C640 C642 1.394 . S
C640 H656 0.931 . S
C641 C640 1.391 . S
C641 C645 1.376 . S
C642 C640 1.394 . S
C642 C643 1.369 . S
C642 C646 1.531 . S
C643 C642 1.369 . S
C643 C644 1.410 . S
C643 C651 1.503 . S
C644 C643 1.410 . S
C644 C645 1.392 . S
C644 C647 1.511 . S
C645 C641 1.376 . S
C645 C644 1.392 . S
C645 H657 0.929 . S
C646 C642 1.531 . S
C646 H658 0.960 . S
C646 H659 0.962 . S
C646 H660 0.960 . S
C647 C644 1.511 . S
C647 H661 0.961 . S
C647 H662 0.961 . S
C647 H663 0.961 . S
C648 C649 1.370 . S
C648 C650 1.363 . S
C648 H664 0.931 . S
C649 C648 1.370 . S
C649 C653 1.408 . S
C650 C648 1.363 . S
C650 C651 1.370 . S
C650 C654 1.524 . S
C651 C643 1.503 . S
C651 C650 1.370 . S
C651 C652 1.403 . S
C652 C651 1.403 . S
C652 C653 1.404 . S
C652 C655 1.539 . S
C653 C649 1.408 . S
C653 C652 1.404 . S
C653 H665 0.930 . S
C654 C650 1.524 . S
C654 H666 0.956 . S
C654 H667 0.961 . S
C654 H668 0.961 . S
C655 C652 1.539 . S
C655 H669 0.958 . S
C655 H670 0.961 . S
C655 H671 0.960 . S
H656 C640 0.931 . S
H657 C645 0.929 . S
H658 C646 0.960 . S
H659 C646 0.962 . S
H660 C646 0.960 . S
H661 C647 0.961 . S
H662 C647 0.961 . S
H663 C647 0.961 . S
H664 C648 0.931 . S
H665 C653 0.930 . S
H666 C654 0.956 . S
H667 C654 0.961 . S
H668 C654 0.961 . S
H669 C655 0.958 . S
H670 C655 0.961 . S
H671 C655 0.960 . S
C672 C673 1.391 . S
C672 C674 1.394 . S
C672 H688 0.931 1_565 S
C673 C672 1.391 . S
C673 C677 1.376 . S
C674 C672 1.394 . S
C674 C675 1.369 . S
C674 C678 1.530 . S
C675 C674 1.369 . S
C675 C676 1.410 . S
C675 C683 1.503 . S
C676 C675 1.410 . S
C676 C677 1.392 . S
C676 C679 1.511 . S
C677 C673 1.376 . S
C677 C676 1.392 . S
C677 H689 0.929 . S
C678 C674 1.530 . S
C678 H690 0.965 . S
C678 H691 0.967 . S
C678 H692 0.951 1_565 S
C679 C676 1.511 . S
C679 H693 0.961 . S
C679 H694 0.961 . S
C679 H695 0.961 . S
C680 C681 1.370 . S
C680 C682 1.363 . S
C680 H696 0.931 . S
C681 C680 1.370 . S
C681 C685 1.408 . S
C682 C680 1.363 . S
C682 C683 1.370 . S
C682 C686 1.524 . S
C683 C675 1.503 . S
C683 C682 1.370 . S
C683 C684 1.403 . S
C684 C683 1.403 . S
C684 C685 1.404 . S
C684 C687 1.539 . S
C685 C681 1.408 . S
C685 C684 1.404 . S
C685 H697 0.930 . S
C686 C682 1.524 . S
C686 H698 0.956 . S
C686 H699 0.961 . S
C686 H700 0.961 . S
C687 C684 1.539 . S
C687 H701 0.958 . S
C687 H702 0.961 . S
C687 H703 0.960 . S
H688 C672 0.931 1_545 S
H689 C677 0.929 . S
H690 C678 0.965 . S
H691 C678 0.967 . S
H692 C678 0.951 1_545 S
H693 C679 0.961 . S
H694 C679 0.961 . S
H695 C679 0.961 . S
H696 C680 0.931 . S
H697 C685 0.930 . S
H698 C686 0.956 . S
H699 C686 0.961 . S
H700 C686 0.961 . S
H701 C687 0.958 . S
H702 C687 0.961 . S
H703 C687 0.960 . S
C704 C705 1.391 . S
C704 C706 1.394 . S
C704 H720 0.931 . S
C705 C704 1.391 . S
C705 C709 1.376 . S
C706 C704 1.394 . S
C706 C707 1.369 . S
C706 C710 1.531 . S
C707 C706 1.369 . S
C707 C708 1.410 . S
C707 C715 1.503 . S
C708 C707 1.410 . S
C708 C709 1.392 . S
C708 C711 1.511 . S
C709 C705 1.376 . S
C709 C708 1.392 . S
C709 H721 0.929 . S
C710 C706 1.531 . S
C710 H722 0.960 . S
C710 H723 0.962 . S
C710 H724 0.960 . S
C711 C708 1.511 . S
C711 H725 0.961 . S
C711 H726 0.961 . S
C711 H727 0.961 . S
C712 C713 1.370 . S
C712 C714 1.363 . S
C712 H728 0.931 . S
C713 C712 1.370 . S
C713 C717 1.408 . S
C714 C712 1.363 . S
C714 C715 1.370 . S
C714 C718 1.524 . S
C715 C707 1.503 . S
C715 C714 1.370 . S
C715 C716 1.403 . S
C716 C715 1.403 . S
C716 C717 1.404 . S
C716 C719 1.539 . S
C717 C713 1.408 . S
C717 C716 1.404 . S
C717 H729 0.930 . S
C718 C714 1.524 . S
C718 H730 0.956 . S
C718 H731 0.961 . S
C718 H732 0.961 . S
C719 C716 1.539 . S
C719 H733 0.958 . S
C719 H734 0.961 . S
C719 H735 0.960 . S
H720 C704 0.931 . S
H721 C709 0.929 . S
H722 C710 0.960 . S
H723 C710 0.962 . S
H724 C710 0.960 . S
H725 C711 0.961 . S
H726 C711 0.961 . S
H727 C711 0.961 . S
H728 C712 0.931 . S
H729 C717 0.930 . S
H730 C718 0.956 . S
H731 C718 0.961 . S
H732 C718 0.961 . S
H733 C719 0.958 . S
H734 C719 0.961 . S
H735 C719 0.960 . S
C736 C737 1.391 . S
C736 C738 1.394 . S
C736 H752 0.931 . S
C737 C736 1.391 . S
C737 C741 1.376 . S
C738 C736 1.394 . S
C738 C739 1.369 . S
C738 C742 1.531 . S
C739 C738 1.369 . S
C739 C740 1.410 . S
C739 C747 1.503 . S
C740 C739 1.410 . S
C740 C741 1.392 . S
C740 C743 1.511 . S
C741 C737 1.376 . S
C741 C740 1.392 . S
C741 H753 0.929 . S
C742 C738 1.531 . S
C742 H754 0.960 . S
C742 H755 0.962 . S
C742 H756 0.960 . S
C743 C740 1.511 . S
C743 H757 0.961 . S
C743 H758 0.961 . S
C743 H759 0.961 . S
C744 C745 1.370 . S
C744 C746 1.363 . S
C744 H760 0.931 . S
C745 C744 1.370 . S
C745 C749 1.408 . S
C746 C744 1.363 . S
C746 C747 1.370 . S
C746 C750 1.524 . S
C747 C739 1.503 . S
C747 C746 1.370 . S
C747 C748 1.403 . S
C748 C747 1.403 . S
C748 C749 1.404 . S
C748 C751 1.539 . S
C749 C745 1.408 . S
C749 C748 1.404 . S
C749 H761 0.930 . S
C750 C746 1.524 . S
C750 H762 0.956 . S
C750 H763 0.961 . S
C750 H764 0.961 . S
C751 C748 1.539 . S
C751 H765 0.958 . S
C751 H766 0.961 . S
C751 H767 0.960 . S
H752 C736 0.931 . S
H753 C741 0.929 . S
H754 C742 0.960 . S
H755 C742 0.962 . S
H756 C742 0.960 . S
H757 C743 0.961 . S
H758 C743 0.961 . S
H759 C743 0.961 . S
H760 C744 0.931 . S
H761 C749 0.930 . S
H762 C750 0.956 . S
H763 C750 0.961 . S
H764 C750 0.961 . S
H765 C751 0.958 . S
H766 C751 0.961 . S
H767 C751 0.960 . S
C768 C769 1.391 . S
C768 C770 1.394 . S
C768 H784 0.931 . S
C769 C768 1.391 . S
C769 C773 1.376 . S
C770 C768 1.394 . S
C770 C771 1.369 . S
C770 C774 1.531 . S
C771 C770 1.369 . S
C771 C772 1.410 . S
C771 C779 1.503 . S
C772 C771 1.410 . S
C772 C773 1.392 . S
C772 C775 1.511 . S
C773 C769 1.376 . S
C773 C772 1.392 . S
C773 H785 0.929 . S
C774 C770 1.531 . S
C774 H786 0.960 . S
C774 H787 0.962 . S
C774 H788 0.960 . S
C775 C772 1.511 . S
C775 H789 0.961 . S
C775 H790 0.961 . S
C775 H791 0.961 . S
C776 C777 1.370 . S
C776 C778 1.363 . S
C776 H792 0.931 . S
C777 C776 1.370 . S
C777 C781 1.408 . S
C778 C776 1.363 . S
C778 C779 1.370 . S
C778 C782 1.524 . S
C779 C771 1.503 . S
C779 C778 1.370 . S
C779 C780 1.403 . S
C780 C779 1.403 . S
C780 C781 1.404 . S
C780 C783 1.539 . S
C781 C777 1.408 . S
C781 C780 1.404 . S
C781 H793 0.930 . S
C782 C778 1.524 . S
C782 H794 0.956 . S
C782 H795 0.961 . S
C782 H796 0.961 . S
C783 C780 1.539 . S
C783 H797 0.958 . S
C783 H798 0.961 . S
C783 H799 0.960 . S
H784 C768 0.931 . S
H785 C773 0.929 . S
H786 C774 0.960 . S
H787 C774 0.962 . S
H788 C774 0.960 . S
H789 C775 0.961 . S
H790 C775 0.961 . S
H791 C775 0.961 . S
H792 C776 0.931 . S
H793 C781 0.930 . S
H794 C782 0.956 . S
H795 C782 0.961 . S
H796 C782 0.961 . S
H797 C783 0.958 . S
H798 C783 0.961 . S
H799 C783 0.960 . S
C800 C801 1.391 . S
C800 C802 1.394 . S
C800 H816 0.931 . S
C801 C800 1.391 . S
C801 C805 1.376 . S
C802 C800 1.394 . S
C802 C803 1.369 . S
C802 C806 1.531 . S
C803 C802 1.369 . S
C803 C804 1.410 . S
C803 C811 1.503 . S
C804 C803 1.410 . S
C804 C805 1.392 . S
C804 C807 1.511 . S
C805 C801 1.376 . S
C805 C804 1.392 . S
C805 H817 0.929 . S
C806 C802 1.531 . S
C806 H818 0.960 . S
C806 H819 0.962 . S
C806 H820 0.960 . S
C807 C804 1.511 . S
C807 H821 0.961 . S
C807 H822 0.961 . S
C807 H823 0.961 . S
C808 C809 1.370 . S
C808 C810 1.363 . S
C808 H824 0.931 . S
C809 C808 1.370 . S
C809 C813 1.408 . S
C810 C808 1.363 . S
C810 C811 1.370 . S
C810 C814 1.524 . S
C811 C803 1.503 . S
C811 C810 1.370 . S
C811 C812 1.403 . S
C812 C811 1.403 . S
C812 C813 1.404 . S
C812 C815 1.539 . S
C813 C809 1.408 . S
C813 C812 1.404 . S
C813 H825 0.930 . S
C814 C810 1.524 . S
C814 H826 0.956 . S
C814 H827 0.961 . S
C814 H828 0.961 . S
C815 C812 1.539 . S
C815 H829 0.958 . S
C815 H830 0.961 . S
C815 H831 0.960 . S
H816 C800 0.931 . S
H817 C805 0.929 . S
H818 C806 0.960 . S
H819 C806 0.962 . S
H820 C806 0.960 . S
H821 C807 0.961 . S
H822 C807 0.961 . S
H823 C807 0.961 . S
H824 C808 0.931 . S
H825 C813 0.930 . S
H826 C814 0.956 . S
H827 C814 0.961 . S
H828 C814 0.961 . S
H829 C815 0.958 . S
H830 C815 0.961 . S
H831 C815 0.960 . S
C832 C833 1.391 . S
C832 C834 1.394 . S
C832 H848 0.931 . S
C833 C832 1.391 . S
C833 C837 1.376 . S
C834 C832 1.394 . S
C834 C835 1.369 . S
C834 C838 1.531 . S
C835 C834 1.369 . S
C835 C836 1.410 . S
C835 C843 1.503 . S
C836 C835 1.410 . S
C836 C837 1.392 . S
C836 C839 1.511 . S
C837 C833 1.376 . S
C837 C836 1.392 . S
C837 H849 0.929 . S
C838 C834 1.531 . S
C838 H850 0.960 . S
C838 H851 0.962 . S
C838 H852 0.960 1_545 S
C839 C836 1.511 . S
C839 H853 0.961 . S
C839 H854 0.961 . S
C839 H855 0.961 . S
C840 C841 1.370 . S
C840 C842 1.363 . S
C840 H856 0.931 . S
C841 C840 1.370 . S
C841 C845 1.408 . S
C842 C840 1.363 . S
C842 C843 1.370 . S
C842 C846 1.524 . S
C843 C835 1.503 . S
C843 C842 1.370 . S
C843 C844 1.403 . S
C844 C843 1.403 . S
C844 C845 1.404 . S
C844 C847 1.539 . S
C845 C841 1.408 . S
C845 C844 1.404 . S
C845 H857 0.930 . S
C846 C842 1.524 . S
C846 H858 0.956 . S
C846 H859 0.961 . S
C846 H860 0.961 . S
C847 C844 1.539 . S
C847 H861 0.958 . S
C847 H862 0.961 . S
C847 H863 0.960 . S
H848 C832 0.931 . S
H849 C837 0.929 . S
H850 C838 0.960 . S
H851 C838 0.962 . S
H852 C838 0.960 1_565 S
H853 C839 0.961 . S
H854 C839 0.961 . S
H855 C839 0.961 . S
H856 C840 0.931 . S
H857 C845 0.930 . S
H858 C846 0.956 . S
H859 C846 0.961 . S
H860 C846 0.961 . S
H861 C847 0.958 . S
H862 C847 0.961 . S
H863 C847 0.960 . S
C864 C865 1.391 . S
C864 C866 1.394 . S
C864 H880 0.931 . S
C865 C864 1.391 . S
C865 C869 1.376 . S
C866 C864 1.394 . S
C866 C867 1.369 . S
C866 C870 1.531 . S
C867 C866 1.369 . S
C867 C868 1.410 . S
C867 C875 1.503 . S
C868 C867 1.410 . S
C868 C869 1.392 . S
C868 C871 1.511 . S
C869 C865 1.376 . S
C869 C868 1.392 . S
C869 H881 0.929 . S
C870 C866 1.531 . S
C870 H882 0.960 . S
C870 H883 0.962 . S
C870 H884 0.960 . S
C871 C868 1.511 . S
C871 H885 0.961 . S
C871 H886 0.961 . S
C871 H887 0.961 . S
C872 C873 1.370 . S
C872 C874 1.363 . S
C872 H888 0.931 . S
C873 C872 1.370 . S
C873 C877 1.408 . S
C874 C872 1.363 . S
C874 C875 1.370 . S
C874 C878 1.524 . S
C875 C867 1.503 . S
C875 C874 1.370 . S
C875 C876 1.403 . S
C876 C875 1.403 . S
C876 C877 1.404 . S
C876 C879 1.539 . S
C877 C873 1.408 . S
C877 C876 1.404 . S
C877 H889 0.930 . S
C878 C874 1.524 . S
C878 H890 0.956 . S
C878 H891 0.961 . S
C878 H892 0.961 . S
C879 C876 1.539 . S
C879 H893 0.958 . S
C879 H894 0.961 . S
C879 H895 0.960 . S
H880 C864 0.931 . S
H881 C869 0.929 . S
H882 C870 0.960 . S
H883 C870 0.962 . S
H884 C870 0.960 . S
H885 C871 0.961 . S
H886 C871 0.961 . S
H887 C871 0.961 . S
H888 C872 0.931 . S
H889 C877 0.930 . S
H890 C878 0.956 . S
H891 C878 0.961 . S
H892 C878 0.961 . S
H893 C879 0.958 . S
H894 C879 0.961 . S
H895 C879 0.960 . S
C896 C897 1.391 . S
C896 C898 1.394 . S
C896 H912 0.931 . S
C897 C896 1.391 . S
C897 C901 1.376 . S
C898 C896 1.394 . S
C898 C899 1.369 . S
C898 C902 1.531 . S
C899 C898 1.369 . S
C899 C900 1.410 . S
C899 C907 1.503 . S
C900 C899 1.410 . S
C900 C901 1.392 . S
C900 C903 1.511 . S
C901 C897 1.376 . S
C901 C900 1.392 . S
C901 H913 0.929 . S
C902 C898 1.531 . S
C902 H914 0.960 . S
C902 H915 0.962 . S
C902 H916 0.960 . S
C903 C900 1.511 . S
C903 H917 0.961 . S
C903 H918 0.961 . S
C903 H919 0.961 . S
C904 C905 1.370 . S
C904 C906 1.363 . S
C904 H920 0.931 . S
C905 C904 1.370 . S
C905 C909 1.408 . S
C906 C904 1.363 . S
C906 C907 1.370 . S
C906 C910 1.524 . S
C907 C899 1.503 . S
C907 C906 1.370 . S
C907 C908 1.403 . S
C908 C907 1.403 . S
C908 C909 1.404 . S
C908 C911 1.539 . S
C909 C905 1.408 . S
C909 C908 1.404 . S
C909 H921 0.930 . S
C910 C906 1.524 . S
C910 H922 0.956 . S
C910 H923 0.961 . S
C910 H924 0.961 . S
C911 C908 1.539 . S
C911 H925 0.958 . S
C911 H926 0.961 . S
C911 H927 0.960 . S
H912 C896 0.931 . S
H913 C901 0.929 . S
H914 C902 0.960 . S
H915 C902 0.962 . S
H916 C902 0.960 . S
H917 C903 0.961 . S
H918 C903 0.961 . S
H919 C903 0.961 . S
H920 C904 0.931 . S
H921 C909 0.930 . S
H922 C910 0.956 . S
H923 C910 0.961 . S
H924 C910 0.961 . S
H925 C911 0.958 . S
H926 C911 0.961 . S
H927 C911 0.960 . S
C928 C929 1.391 . S
C928 C930 1.394 . S
C928 H944 0.931 . S
C929 C928 1.391 . S
C929 C933 1.376 . S
C930 C928 1.394 . S
C930 C931 1.369 . S
C930 C934 1.531 . S
C931 C930 1.369 . S
C931 C932 1.410 . S
C931 C939 1.503 . S
C932 C931 1.410 . S
C932 C933 1.392 . S
C932 C935 1.511 . S
C933 C929 1.376 . S
C933 C932 1.392 . S
C933 H945 0.929 . S
C934 C930 1.531 . S
C934 H946 0.960 . S
C934 H947 0.962 . S
C934 H948 0.960 . S
C935 C932 1.511 . S
C935 H949 0.961 . S
C935 H950 0.961 . S
C935 H951 0.961 . S
C936 C937 1.370 . S
C936 C938 1.363 . S
C936 H952 0.931 . S
C937 C936 1.370 . S
C937 C941 1.408 . S
C938 C936 1.363 . S
C938 C939 1.370 . S
C938 C942 1.524 . S
C939 C931 1.503 . S
C939 C938 1.370 . S
C939 C940 1.403 . S
C940 C939 1.403 . S
C940 C941 1.404 . S
C940 C943 1.539 . S
C941 C937 1.408 . S
C941 C940 1.404 . S
C941 H953 0.930 . S
C942 C938 1.524 . S
C942 H954 0.956 . S
C942 H955 0.961 . S
C942 H956 0.961 . S
C943 C940 1.539 . S
C943 H957 0.958 . S
C943 H958 0.961 . S
C943 H959 0.960 . S
H944 C928 0.931 . S
H945 C933 0.929 . S
H946 C934 0.960 . S
H947 C934 0.962 . S
H948 C934 0.960 . S
H949 C935 0.961 . S
H950 C935 0.961 . S
H951 C935 0.961 . S
H952 C936 0.931 . S
H953 C941 0.930 . S
H954 C942 0.956 . S
H955 C942 0.961 . S
H956 C942 0.961 . S
H957 C943 0.958 . S
H958 C943 0.961 . S
H959 C943 0.960 . S
C960 C961 1.391 . S
C960 C962 1.394 . S
C960 H976 0.931 . S
C961 C960 1.391 . S
C961 C965 1.376 . S
C962 C960 1.394 . S
C962 C963 1.369 . S
C962 C966 1.531 . S
C963 C962 1.369 . S
C963 C964 1.410 . S
C963 C971 1.503 . S
C964 C963 1.410 . S
C964 C965 1.392 . S
C964 C967 1.511 . S
C965 C961 1.376 . S
C965 C964 1.392 . S
C965 H977 0.929 . S
C966 C962 1.531 . S
C966 H978 0.960 . S
C966 H979 0.962 . S
C966 H980 0.960 . S
C967 C964 1.511 . S
C967 H981 0.961 . S
C967 H982 0.961 . S
C967 H983 0.961 . S
C968 C969 1.370 . S
C968 C970 1.363 . S
C968 H984 0.931 . S
C969 C968 1.370 . S
C969 C973 1.408 . S
C970 C968 1.363 . S
C970 C971 1.370 . S
C970 C974 1.524 . S
C971 C963 1.503 . S
C971 C970 1.370 . S
C971 C972 1.403 . S
C972 C971 1.403 . S
C972 C973 1.404 . S
C972 C975 1.539 . S
C973 C969 1.408 . S
C973 C972 1.404 . S
C973 H985 0.930 . S
C974 C970 1.524 . S
C974 H986 0.956 . S
C974 H987 0.961 . S
C974 H988 0.961 . S
C975 C972 1.539 . S
C975 H989 0.958 . S
C975 H990 0.961 . S
C975 H991 0.960 . S
H976 C960 0.931 . S
H977 C965 0.929 . S
H978 C966 0.960 . S
H979 C966 0.962 . S
H980 C966 0.960 . S
H981 C967 0.961 . S
H982 C967 0.961 . S
H983 C967 0.961 . S
H984 C968 0.931 . S
H985 C973 0.930 . S
H986 C974 0.956 . S
H987 C974 0.961 . S
H988 C974 0.961 . S
H989 C975 0.958 . S
H990 C975 0.961 . S
H991 C975 0.960 . S
C992 C993 1.391 . S
C992 C994 1.394 . S
C992 H1008 0.931 . S
C993 C992 1.391 . S
C993 C997 1.376 . S
C994 C992 1.394 . S
C994 C995 1.369 . S
C994 C998 1.531 . S
C995 C994 1.369 . S
C995 C996 1.410 . S
C995 C1003 1.503 . S
C996 C995 1.410 . S
C996 C997 1.392 . S
C996 C999 1.511 . S
C997 C993 1.376 . S
C997 C996 1.392 . S
C997 H1009 0.929 . S
C998 C994 1.531 . S
C998 H1010 0.960 . S
C998 H1011 0.962 . S
C998 H1012 0.960 . S
C999 C996 1.511 . S
C999 H1013 0.961 . S
C999 H1014 0.961 . S
C999 H1015 0.961 . S
C1000 C1001 1.370 . S
C1000 C1002 1.363 . S
C1000 H1016 0.931 . S
C1001 C1000 1.370 . S
C1001 C1005 1.408 . S
C1002 C1000 1.363 . S
C1002 C1003 1.370 . S
C1002 C1006 1.524 . S
C1003 C995 1.503 . S
C1003 C1002 1.370 . S
C1003 C1004 1.403 . S
C1004 C1003 1.403 . S
C1004 C1005 1.404 . S
C1004 C1007 1.539 . S
C1005 C1001 1.408 . S
C1005 C1004 1.404 . S
C1005 H1017 0.930 . S
C1006 C1002 1.524 . S
C1006 H1018 0.956 . S
C1006 H1019 0.961 . S
C1006 H1020 0.961 . S
C1007 C1004 1.539 . S
C1007 H1021 0.958 . S
C1007 H1022 0.961 . S
C1007 H1023 0.960 . S
H1008 C992 0.931 . S
H1009 C997 0.929 . S
H1010 C998 0.960 . S
H1011 C998 0.962 . S
H1012 C998 0.960 . S
H1013 C999 0.961 . S
H1014 C999 0.961 . S
H1015 C999 0.961 . S
H1016 C1000 0.931 . S
H1017 C1005 0.930 . S
H1018 C1006 0.956 . S
H1019 C1006 0.961 . S
H1020 C1006 0.961 . S
H1021 C1007 0.958 . S
H1022 C1007 0.961 . S
H1023 C1007 0.960 . S
C1024 C1025 1.391 . S
C1024 C1026 1.394 . S
C1024 H1040 0.931 . S
C1025 C1024 1.391 . S
C1025 C1029 1.376 . S
C1026 C1024 1.394 . S
C1026 C1027 1.369 . S
C1026 C1030 1.531 . S
C1027 C1026 1.369 . S
C1027 C1028 1.410 . S
C1027 C1035 1.503 . S
C1028 C1027 1.410 . S
C1028 C1029 1.392 . S
C1028 C1031 1.511 . S
C1029 C1025 1.376 . S
C1029 C1028 1.392 . S
C1029 H1041 0.929 . S
C1030 C1026 1.531 . S
C1030 H1042 0.960 . S
C1030 H1043 0.962 . S
C1030 H1044 0.960 . S
C1031 C1028 1.511 . S
C1031 H1045 0.961 . S
C1031 H1046 0.961 . S
C1031 H1047 0.961 . S
C1032 C1033 1.370 . S
C1032 C1034 1.363 . S
C1032 H1048 0.931 . S
C1033 C1032 1.370 . S
C1033 C1037 1.408 . S
C1034 C1032 1.363 . S
C1034 C1035 1.370 . S
C1034 C1038 1.524 . S
C1035 C1027 1.503 . S
C1035 C1034 1.370 . S
C1035 C1036 1.403 . S
C1036 C1035 1.403 . S
C1036 C1037 1.404 . S
C1036 C1039 1.539 . S
C1037 C1033 1.408 . S
C1037 C1036 1.404 . S
C1037 H1049 0.930 . S
C1038 C1034 1.524 . S
C1038 H1050 0.956 . S
C1038 H1051 0.961 . S
C1038 H1052 0.961 . S
C1039 C1036 1.539 . S
C1039 H1053 0.958 . S
C1039 H1054 0.961 . S
C1039 H1055 0.960 . S
H1040 C1024 0.931 . S
H1041 C1029 0.929 . S
H1042 C1030 0.960 . S
H1043 C1030 0.962 . S
H1044 C1030 0.960 . S
H1045 C1031 0.961 . S
H1046 C1031 0.961 . S
H1047 C1031 0.961 . S
H1048 C1032 0.931 . S
H1049 C1037 0.930 . S
H1050 C1038 0.956 . S
H1051 C1038 0.961 . S
H1052 C1038 0.961 . S
H1053 C1039 0.958 . S
H1054 C1039 0.961 . S
H1055 C1039 0.960 . S
C1056 C1057 1.391 . S
C1056 C1058 1.394 . S
C1056 H1072 0.931 . S
C1057 C1056 1.391 . S
C1057 C1061 1.376 . S
C1058 C1056 1.394 . S
C1058 C1059 1.369 . S
C1058 C1062 1.531 . S
C1059 C1058 1.369 . S
C1059 C1060 1.410 . S
C1059 C1067 1.503 . S
C1060 C1059 1.410 . S
C1060 C1061 1.392 . S
C1060 C1063 1.511 . S
C1061 C1057 1.376 . S
C1061 C1060 1.392 . S
C1061 H1073 0.929 . S
C1062 C1058 1.531 . S
C1062 H1074 0.960 . S
C1062 H1075 0.962 . S
C1062 H1076 0.960 . S
C1063 C1060 1.511 . S
C1063 H1077 0.961 . S
C1063 H1078 0.961 . S
C1063 H1079 0.961 . S
C1064 C1065 1.370 . S
C1064 C1066 1.363 . S
C1064 H1080 0.931 . S
C1065 C1064 1.370 . S
C1065 C1069 1.408 . S
C1066 C1064 1.363 . S
C1066 C1067 1.370 . S
C1066 C1070 1.524 . S
C1067 C1059 1.503 . S
C1067 C1066 1.370 . S
C1067 C1068 1.403 . S
C1068 C1067 1.403 . S
C1068 C1069 1.404 . S
C1068 C1071 1.539 . S
C1069 C1065 1.408 . S
C1069 C1068 1.404 . S
C1069 H1081 0.930 . S
C1070 C1066 1.524 . S
C1070 H1082 0.956 . S
C1070 H1083 0.961 . S
C1070 H1084 0.961 . S
C1071 C1068 1.539 . S
C1071 H1085 0.958 . S
C1071 H1086 0.961 . S
C1071 H1087 0.960 . S
H1072 C1056 0.931 . S
H1073 C1061 0.929 . S
H1074 C1062 0.960 . S
H1075 C1062 0.962 . S
H1076 C1062 0.960 . S
H1077 C1063 0.961 . S
H1078 C1063 0.961 . S
H1079 C1063 0.961 . S
H1080 C1064 0.931 . S
H1081 C1069 0.930 . S
H1082 C1070 0.956 . S
H1083 C1070 0.961 . S
H1084 C1070 0.961 . S
H1085 C1071 0.958 . S
H1086 C1071 0.961 . S
H1087 C1071 0.960 . S
C1088 C1089 1.391 . S
C1088 C1090 1.394 . S
C1088 H1104 0.931 . S
C1089 C1088 1.391 . S
C1089 C1093 1.376 . S
C1090 C1088 1.394 . S
C1090 C1091 1.369 . S
C1090 C1094 1.531 . S
C1091 C1090 1.369 . S
C1091 C1092 1.410 . S
C1091 C1099 1.503 . S
C1092 C1091 1.410 . S
C1092 C1093 1.392 . S
C1092 C1095 1.511 . S
C1093 C1089 1.376 . S
C1093 C1092 1.392 . S
C1093 H1105 0.929 . S
C1094 C1090 1.531 . S
C1094 H1106 0.960 . S
C1094 H1107 0.962 . S
C1094 H1108 0.960 . S
C1095 C1092 1.511 . S
C1095 H1109 0.961 . S
C1095 H1110 0.961 . S
C1095 H1111 0.961 . S
C1096 C1097 1.370 . S
C1096 C1098 1.363 . S
C1096 H1112 0.931 . S
C1097 C1096 1.370 . S
C1097 C1101 1.408 . S
C1098 C1096 1.363 . S
C1098 C1099 1.370 . S
C1098 C1102 1.524 . S
C1099 C1091 1.503 . S
C1099 C1098 1.370 . S
C1099 C1100 1.403 . S
C1100 C1099 1.403 . S
C1100 C1101 1.404 . S
C1100 C1103 1.539 . S
C1101 C1097 1.408 . S
C1101 C1100 1.404 . S
C1101 H1113 0.930 . S
C1102 C1098 1.524 . S
C1102 H1114 0.956 . S
C1102 H1115 0.961 . S
C1102 H1116 0.961 . S
C1103 C1100 1.539 . S
C1103 H1117 0.958 . S
C1103 H1118 0.961 . S
C1103 H1119 0.960 . S
H1104 C1088 0.931 . S
H1105 C1093 0.929 . S
H1106 C1094 0.960 . S
H1107 C1094 0.962 . S
H1108 C1094 0.960 . S
H1109 C1095 0.961 . S
H1110 C1095 0.961 . S
H1111 C1095 0.961 . S
H1112 C1096 0.931 . S
H1113 C1101 0.930 . S
H1114 C1102 0.956 . S
H1115 C1102 0.961 . S
H1116 C1102 0.961 . S
H1117 C1103 0.958 . S
H1118 C1103 0.961 . S
H1119 C1103 0.960 . S
C1120 C1121 1.391 . S
C1120 C1122 1.394 . S
C1120 H1136 0.931 . S
C1121 C1120 1.391 . S
C1121 C1125 1.376 . S
C1122 C1120 1.394 . S
C1122 C1123 1.369 . S
C1122 C1126 1.531 . S
C1123 C1122 1.369 . S
C1123 C1124 1.410 . S
C1123 C1131 1.503 . S
C1124 C1123 1.410 . S
C1124 C1125 1.392 . S
C1124 C1127 1.511 . S
C1125 C1121 1.376 . S
C1125 C1124 1.392 . S
C1125 H1137 0.929 . S
C1126 C1122 1.531 . S
C1126 H1138 0.960 . S
C1126 H1139 0.962 . S
C1126 H1140 0.960 . S
C1127 C1124 1.511 . S
C1127 H1141 0.961 . S
C1127 H1142 0.961 . S
C1127 H1143 0.961 . S
C1128 C1129 1.370 . S
C1128 C1130 1.363 . S
C1128 H1144 0.931 . S
C1129 C1128 1.370 . S
C1129 C1133 1.408 . S
C1130 C1128 1.363 . S
C1130 C1131 1.370 . S
C1130 C1134 1.524 . S
C1131 C1123 1.503 . S
C1131 C1130 1.370 . S
C1131 C1132 1.403 . S
C1132 C1131 1.403 . S
C1132 C1133 1.404 . S
C1132 C1135 1.539 . S
C1133 C1129 1.408 . S
C1133 C1132 1.404 . S
C1133 H1145 0.930 . S
C1134 C1130 1.524 . S
C1134 H1146 0.956 . S
C1134 H1147 0.961 . S
C1134 H1148 0.961 . S
C1135 C1132 1.539 . S
C1135 H1149 0.958 . S
C1135 H1150 0.961 . S
C1135 H1151 0.960 . S
H1136 C1120 0.931 . S
H1137 C1125 0.929 . S
H1138 C1126 0.960 . S
H1139 C1126 0.962 . S
H1140 C1126 0.960 . S
H1141 C1127 0.961 . S
H1142 C1127 0.961 . S
H1143 C1127 0.961 . S
H1144 C1128 0.931 . S
H1145 C1133 0.930 . S
H1146 C1134 0.956 . S
H1147 C1134 0.961 . S
H1148 C1134 0.961 . S
H1149 C1135 0.958 . S
H1150 C1135 0.961 . S
H1151 C1135 0.960 . S
C1152 C1153 1.391 . S
C1152 C1154 1.394 . S
C1152 H1168 0.931 . S
C1153 C1152 1.391 . S
C1153 C1157 1.376 . S
C1154 C1152 1.394 . S
C1154 C1155 1.369 . S
C1154 C1158 1.531 . S
C1155 C1154 1.369 . S
C1155 C1156 1.410 . S
C1155 C1163 1.503 . S
C1156 C1155 1.410 . S
C1156 C1157 1.392 . S
C1156 C1159 1.511 . S
C1157 C1153 1.376 . S
C1157 C1156 1.392 . S
C1157 H1169 0.929 . S
C1158 C1154 1.531 . S
C1158 H1170 0.960 . S
C1158 H1171 0.962 . S
C1158 H1172 0.960 . S
C1159 C1156 1.511 . S
C1159 H1173 0.961 . S
C1159 H1174 0.961 . S
C1159 H1175 0.961 . S
C1160 C1161 1.370 . S
C1160 C1162 1.363 . S
C1160 H1176 0.931 . S
C1161 C1160 1.370 . S
C1161 C1165 1.408 . S
C1162 C1160 1.363 . S
C1162 C1163 1.370 . S
C1162 C1166 1.524 . S
C1163 C1155 1.503 . S
C1163 C1162 1.370 . S
C1163 C1164 1.403 . S
C1164 C1163 1.403 . S
C1164 C1165 1.404 . S
C1164 C1167 1.539 . S
C1165 C1161 1.408 . S
C1165 C1164 1.404 . S
C1165 H1177 0.930 . S
C1166 C1162 1.524 . S
C1166 H1178 0.956 . S
C1166 H1179 0.961 . S
C1166 H1180 0.961 . S
C1167 C1164 1.539 . S
C1167 H1181 0.958 . S
C1167 H1182 0.961 . S
C1167 H1183 0.960 . S
H1168 C1152 0.931 . S
H1169 C1157 0.929 . S
H1170 C1158 0.960 . S
H1171 C1158 0.962 . S
H1172 C1158 0.960 . S
H1173 C1159 0.961 . S
H1174 C1159 0.961 . S
H1175 C1159 0.961 . S
H1176 C1160 0.931 . S
H1177 C1165 0.930 . S
H1178 C1166 0.956 . S
H1179 C1166 0.961 . S
H1180 C1166 0.961 . S
H1181 C1167 0.958 . S
H1182 C1167 0.961 . S
H1183 C1167 0.960 . S
C1184 C1185 1.391 . S
C1184 C1186 1.394 . S
C1184 H1200 0.931 . S
C1185 C1184 1.391 . S
C1185 C1189 1.376 . S
C1186 C1184 1.394 . S
C1186 C1187 1.369 . S
C1186 C1190 1.531 . S
C1187 C1186 1.369 . S
C1187 C1188 1.410 . S
C1187 C1195 1.503 . S
C1188 C1187 1.410 . S
C1188 C1189 1.392 . S
C1188 C1191 1.511 . S
C1189 C1185 1.376 . S
C1189 C1188 1.392 . S
C1189 H1201 0.929 . S
C1190 C1186 1.531 . S
C1190 H1202 0.960 . S
C1190 H1203 0.962 . S
C1190 H1204 0.960 . S
C1191 C1188 1.511 . S
C1191 H1205 0.961 . S
C1191 H1206 0.961 . S
C1191 H1207 0.961 . S
C1192 C1193 1.370 . S
C1192 C1194 1.363 . S
C1192 H1208 0.931 . S
C1193 C1192 1.370 . S
C1193 C1197 1.408 . S
C1194 C1192 1.363 . S
C1194 C1195 1.370 . S
C1194 C1198 1.524 . S
C1195 C1187 1.503 . S
C1195 C1194 1.370 . S
C1195 C1196 1.403 . S
C1196 C1195 1.403 . S
C1196 C1197 1.404 . S
C1196 C1199 1.539 . S
C1197 C1193 1.408 . S
C1197 C1196 1.404 . S
C1197 H1209 0.930 . S
C1198 C1194 1.524 . S
C1198 H1210 0.956 . S
C1198 H1211 0.961 . S
C1198 H1212 0.961 . S
C1199 C1196 1.539 . S
C1199 H1213 0.958 . S
C1199 H1214 0.961 . S
C1199 H1215 0.960 . S
H1200 C1184 0.931 . S
H1201 C1189 0.929 . S
H1202 C1190 0.960 . S
H1203 C1190 0.962 . S
H1204 C1190 0.960 . S
H1205 C1191 0.961 . S
H1206 C1191 0.961 . S
H1207 C1191 0.961 . S
H1208 C1192 0.931 . S
H1209 C1197 0.930 . S
H1210 C1198 0.956 . S
H1211 C1198 0.961 . S
H1212 C1198 0.961 . S
H1213 C1199 0.958 . S
H1214 C1199 0.961 . S
H1215 C1199 0.960 . S
C1216 C1217 1.391 . S
C1216 C1218 1.394 . S
C1216 H1232 0.931 . S
C1217 C1216 1.391 . S
C1217 C1221 1.376 . S
C1218 C1216 1.394 . S
C1218 C1219 1.369 . S
C1218 C1222 1.531 . S
C1219 C1218 1.369 . S
C1219 C1220 1.410 . S
C1219 C1227 1.503 . S
C1220 C1219 1.410 . S
C1220 C1221 1.392 . S
C1220 C1223 1.511 . S
C1221 C1217 1.376 . S
C1221 C1220 1.392 . S
C1221 H1233 0.929 . S
C1222 C1218 1.531 . S
C1222 H1234 0.960 . S
C1222 H1235 0.962 . S
C1222 H1236 0.960 . S
C1223 C1220 1.511 . S
C1223 H1237 0.961 . S
C1223 H1238 0.961 . S
C1223 H1239 0.961 . S
C1224 C1225 1.370 . S
C1224 C1226 1.363 . S
C1224 H1240 0.931 . S
C1225 C1224 1.370 . S
C1225 C1229 1.408 . S
C1226 C1224 1.363 . S
C1226 C1227 1.370 . S
C1226 C1230 1.524 . S
C1227 C1219 1.503 . S
C1227 C1226 1.370 . S
C1227 C1228 1.403 . S
C1228 C1227 1.403 . S
C1228 C1229 1.404 . S
C1228 C1231 1.539 . S
C1229 C1225 1.408 . S
C1229 C1228 1.404 . S
C1229 H1241 0.930 . S
C1230 C1226 1.524 . S
C1230 H1242 0.956 . S
C1230 H1243 0.961 . S
C1230 H1244 0.961 . S
C1231 C1228 1.539 . S
C1231 H1245 0.958 . S
C1231 H1246 0.961 . S
C1231 H1247 0.960 . S
H1232 C1216 0.931 . S
H1233 C1221 0.929 . S
H1234 C1222 0.960 . S
H1235 C1222 0.962 . S
H1236 C1222 0.960 . S
H1237 C1223 0.961 . S
H1238 C1223 0.961 . S
H1239 C1223 0.961 . S
H1240 C1224 0.931 . S
H1241 C1229 0.930 . S
H1242 C1230 0.956 . S
H1243 C1230 0.961 . S
H1244 C1230 0.961 . S
H1245 C1231 0.958 . S
H1246 C1231 0.961 . S
H1247 C1231 0.960 . S
C1248 C1249 1.391 . S
C1248 C1250 1.394 . S
C1248 H1264 0.931 . S
C1249 C1248 1.391 . S
C1249 C1253 1.376 . S
C1250 C1248 1.394 . S
C1250 C1251 1.369 . S
C1250 C1254 1.531 . S
C1251 C1250 1.369 . S
C1251 C1252 1.410 . S
C1251 C1259 1.503 . S
C1252 C1251 1.410 . S
C1252 C1253 1.392 . S
C1252 C1255 1.511 . S
C1253 C1249 1.376 . S
C1253 C1252 1.392 . S
C1253 H1265 0.929 . S
C1254 C1250 1.531 . S
C1254 H1266 0.960 . S
C1254 H1267 0.962 . S
C1254 H1268 0.960 . S
C1255 C1252 1.511 . S
C1255 H1269 0.961 . S
C1255 H1270 0.961 . S
C1255 H1271 0.961 . S
C1256 C1257 1.370 . S
C1256 C1258 1.363 . S
C1256 H1272 0.931 . S
C1257 C1256 1.370 . S
C1257 C1261 1.408 . S
C1258 C1256 1.363 . S
C1258 C1259 1.370 . S
C1258 C1262 1.524 . S
C1259 C1251 1.503 . S
C1259 C1258 1.370 . S
C1259 C1260 1.403 . S
C1260 C1259 1.403 . S
C1260 C1261 1.404 . S
C1260 C1263 1.539 . S
C1261 C1257 1.408 . S
C1261 C1260 1.404 . S
C1261 H1273 0.930 . S
C1262 C1258 1.524 . S
C1262 H1274 0.956 . S
C1262 H1275 0.961 . S
C1262 H1276 0.961 . S
C1263 C1260 1.539 . S
C1263 H1277 0.958 . S
C1263 H1278 0.961 . S
C1263 H1279 0.960 . S
H1264 C1248 0.931 . S
H1265 C1253 0.929 . S
H1266 C1254 0.960 . S
H1267 C1254 0.962 . S
H1268 C1254 0.960 . S
H1269 C1255 0.961 . S
H1270 C1255 0.961 . S
H1271 C1255 0.961 . S
H1272 C1256 0.931 . S
H1273 C1261 0.930 . S
H1274 C1262 0.956 . S
H1275 C1262 0.961 . S
H1276 C1262 0.961 . S
H1277 C1263 0.958 . S
H1278 C1263 0.961 . S
H1279 C1263 0.960 . S
C1280 C1281 1.391 . S
C1280 C1282 1.394 . S
C1280 H1296 0.931 . S
C1281 C1280 1.391 . S
C1281 C1285 1.376 . S
C1282 C1280 1.394 . S
C1282 C1283 1.369 . S
C1282 C1286 1.531 . S
C1283 C1282 1.369 . S
C1283 C1284 1.410 . S
C1283 C1291 1.503 . S
C1284 C1283 1.410 . S
C1284 C1285 1.392 . S
C1284 C1287 1.511 . S
C1285 C1281 1.376 . S
C1285 C1284 1.392 . S
C1285 H1297 0.929 . S
C1286 C1282 1.531 . S
C1286 H1298 0.960 . S
C1286 H1299 0.962 . S
C1286 H1300 0.960 . S
C1287 C1284 1.511 . S
C1287 H1301 0.961 . S
C1287 H1302 0.961 . S
C1287 H1303 0.961 . S
C1288 C1289 1.370 . S
C1288 C1290 1.363 . S
C1288 H1304 0.931 . S
C1289 C1288 1.370 . S
C1289 C1293 1.408 . S
C1290 C1288 1.363 . S
C1290 C1291 1.370 . S
C1290 C1294 1.524 . S
C1291 C1283 1.503 . S
C1291 C1290 1.370 . S
C1291 C1292 1.403 . S
C1292 C1291 1.403 . S
C1292 C1293 1.404 . S
C1292 C1295 1.539 . S
C1293 C1289 1.408 . S
C1293 C1292 1.404 . S
C1293 H1305 0.930 . S
C1294 C1290 1.524 . S
C1294 H1306 0.956 . S
C1294 H1307 0.961 . S
C1294 H1308 0.961 . S
C1295 C1292 1.539 . S
C1295 H1309 0.958 . S
C1295 H1310 0.961 . S
C1295 H1311 0.960 . S
H1296 C1280 0.931 . S
H1297 C1285 0.929 . S
H1298 C1286 0.960 . S
H1299 C1286 0.962 . S
H1300 C1286 0.960 . S
H1301 C1287 0.961 . S
H1302 C1287 0.961 . S
H1303 C1287 0.961 . S
H1304 C1288 0.931 . S
H1305 C1293 0.930 . S
H1306 C1294 0.956 . S
H1307 C1294 0.961 . S
H1308 C1294 0.961 . S
H1309 C1295 0.958 . S
H1310 C1295 0.961 . S
H1311 C1295 0.960 . S
C1312 C1313 1.391 . S
C1312 C1314 1.394 . S
C1312 H1328 0.931 . S
C1313 C1312 1.391 . S
C1313 C1317 1.376 . S
C1314 C1312 1.394 . S
C1314 C1315 1.369 . S
C1314 C1318 1.531 . S
C1315 C1314 1.369 . S
C1315 C1316 1.410 . S
C1315 C1323 1.503 . S
C1316 C1315 1.410 . S
C1316 C1317 1.392 . S
C1316 C1319 1.511 . S
C1317 C1313 1.376 . S
C1317 C1316 1.392 . S
C1317 H1329 0.929 . S
C1318 C1314 1.531 . S
C1318 H1330 0.960 . S
C1318 H1331 0.962 . S
C1318 H1332 0.960 . S
C1319 C1316 1.511 . S
C1319 H1333 0.961 . S
C1319 H1334 0.961 . S
C1319 H1335 0.961 . S
C1320 C1321 1.370 . S
C1320 C1322 1.363 . S
C1320 H1336 0.931 . S
C1321 C1320 1.370 . S
C1321 C1325 1.408 . S
C1322 C1320 1.363 . S
C1322 C1323 1.370 . S
C1322 C1326 1.524 . S
C1323 C1315 1.503 . S
C1323 C1322 1.370 . S
C1323 C1324 1.403 . S
C1324 C1323 1.403 . S
C1324 C1325 1.404 . S
C1324 C1327 1.539 . S
C1325 C1321 1.408 . S
C1325 C1324 1.404 . S
C1325 H1337 0.930 . S
C1326 C1322 1.524 . S
C1326 H1338 0.956 . S
C1326 H1339 0.961 . S
C1326 H1340 0.961 . S
C1327 C1324 1.539 . S
C1327 H1341 0.958 . S
C1327 H1342 0.961 . S
C1327 H1343 0.960 . S
H1328 C1312 0.931 . S
H1329 C1317 0.929 . S
H1330 C1318 0.960 . S
H1331 C1318 0.962 . S
H1332 C1318 0.960 . S
H1333 C1319 0.961 . S
H1334 C1319 0.961 . S
H1335 C1319 0.961 . S
H1336 C1320 0.931 . S
H1337 C1325 0.930 . S
H1338 C1326 0.956 . S
H1339 C1326 0.961 . S
H1340 C1326 0.961 . S
H1341 C1327 0.958 . S
H1342 C1327 0.961 . S
H1343 C1327 0.960 . S
C1344 C1345 1.391 . S
C1344 C1346 1.394 . S
C1344 H1360 0.931 . S
C1345 C1344 1.391 . S
C1345 C1349 1.376 . S
C1346 C1344 1.394 . S
C1346 C1347 1.369 . S
C1346 C1350 1.531 . S
C1347 C1346 1.369 . S
C1347 C1348 1.410 . S
C1347 C1355 1.503 . S
C1348 C1347 1.410 . S
C1348 C1349 1.392 . S
C1348 C1351 1.511 . S
C1349 C1345 1.376 . S
C1349 C1348 1.392 . S
C1349 H1361 0.929 . S
C1350 C1346 1.531 . S
C1350 H1362 0.960 . S
C1350 H1363 0.968 . S
C1350 H1364 0.960 . S
C1351 C1348 1.511 . S
C1351 H1365 0.961 . S
C1351 H1366 0.961 . S
C1351 H1367 0.961 . S
C1352 C1353 1.370 . S
C1352 C1354 1.363 . S
C1352 H1368 0.931 . S
C1353 C1352 1.370 . S
C1353 C1357 1.408 . S
C1354 C1352 1.363 . S
C1354 C1355 1.370 . S
C1354 C1358 1.524 . S
C1355 C1347 1.503 . S
C1355 C1354 1.370 . S
C1355 C1356 1.403 . S
C1356 C1355 1.403 . S
C1356 C1357 1.404 . S
C1356 C1359 1.539 . S
C1357 C1353 1.408 . S
C1357 C1356 1.404 . S
C1357 H1369 0.930 . S
C1358 C1354 1.524 . S
C1358 H1370 0.956 . S
C1358 H1371 0.961 . S
C1358 H1372 0.961 1_556 S
C1359 C1356 1.539 . S
C1359 H1373 0.958 . S
C1359 H1374 0.961 . S
C1359 H1375 0.960 . S
H1360 C1344 0.931 . S
H1361 C1349 0.929 . S
H1362 C1350 0.960 . S
H1363 C1350 0.968 . S
H1364 C1350 0.960 . S
H1365 C1351 0.961 . S
H1366 C1351 0.961 . S
H1367 C1351 0.961 . S
H1368 C1352 0.931 . S
H1369 C1357 0.930 . S
H1370 C1358 0.956 . S
H1371 C1358 0.961 . S
H1372 C1358 0.961 1_554 S
H1373 C1359 0.958 . S
H1374 C1359 0.961 . S
H1375 C1359 0.960 . S
C1376 C1377 1.391 . S
C1376 C1378 1.394 . S
C1376 H1392 0.931 . S
C1377 C1376 1.391 . S
C1377 C1381 1.376 . S
C1378 C1376 1.394 . S
C1378 C1379 1.369 . S
C1378 C1382 1.531 . S
C1379 C1378 1.369 . S
C1379 C1380 1.410 . S
C1379 C1387 1.503 . S
C1380 C1379 1.410 . S
C1380 C1381 1.392 . S
C1380 C1383 1.511 . S
C1381 C1377 1.376 . S
C1381 C1380 1.392 . S
C1381 H1393 0.929 . S
C1382 C1378 1.531 . S
C1382 H1394 0.960 . S
C1382 H1395 0.962 . S
C1382 H1396 0.960 . S
C1383 C1380 1.511 . S
C1383 H1397 0.961 . S
C1383 H1398 0.961 . S
C1383 H1399 0.961 . S
C1384 C1385 1.370 . S
C1384 C1386 1.363 . S
C1384 H1400 0.931 . S
C1385 C1384 1.370 . S
C1385 C1389 1.408 . S
C1386 C1384 1.363 . S
C1386 C1387 1.370 . S
C1386 C1390 1.524 . S
C1387 C1379 1.503 . S
C1387 C1386 1.370 . S
C1387 C1388 1.403 . S
C1388 C1387 1.403 . S
C1388 C1389 1.404 . S
C1388 C1391 1.539 . S
C1389 C1385 1.408 . S
C1389 C1388 1.404 . S
C1389 H1401 0.930 . S
C1390 C1386 1.524 . S
C1390 H1402 0.956 . S
C1390 H1403 0.961 . S
C1390 H1404 0.961 . S
C1391 C1388 1.539 . S
C1391 H1405 0.958 . S
C1391 H1406 0.961 . S
C1391 H1407 0.960 . S
H1392 C1376 0.931 . S
H1393 C1381 0.929 . S
H1394 C1382 0.960 . S
H1395 C1382 0.962 . S
H1396 C1382 0.960 . S
H1397 C1383 0.961 . S
H1398 C1383 0.961 . S
H1399 C1383 0.961 . S
H1400 C1384 0.931 . S
H1401 C1389 0.930 . S
H1402 C1390 0.956 . S
H1403 C1390 0.961 . S
H1404 C1390 0.961 . S
H1405 C1391 0.958 . S
H1406 C1391 0.961 . S
H1407 C1391 0.960 . S
C1408 C1409 1.391 . S
C1408 C1410 1.394 . S
C1408 H1424 0.931 . S
C1409 C1408 1.391 . S
C1409 C1413 1.376 . S
C1410 C1408 1.394 . S
C1410 C1411 1.369 . S
C1410 C1414 1.531 . S
C1411 C1410 1.369 . S
C1411 C1412 1.410 . S
C1411 C1419 1.503 . S
C1412 C1411 1.410 . S
C1412 C1413 1.392 . S
C1412 C1415 1.511 . S
C1413 C1409 1.376 . S
C1413 C1412 1.392 . S
C1413 H1425 0.929 . S
C1414 C1410 1.531 . S
C1414 H1426 0.960 . S
C1414 H1427 0.962 . S
C1414 H1428 0.960 . S
C1415 C1412 1.511 . S
C1415 H1429 0.961 . S
C1415 H1430 0.961 . S
C1415 H1431 0.961 . S
C1416 C1417 1.370 . S
C1416 C1418 1.363 . S
C1416 H1432 0.931 . S
C1417 C1416 1.370 . S
C1417 C1421 1.408 . S
C1418 C1416 1.363 . S
C1418 C1419 1.370 . S
C1418 C1422 1.524 . S
C1419 C1411 1.503 . S
C1419 C1418 1.370 . S
C1419 C1420 1.403 . S
C1420 C1419 1.403 . S
C1420 C1421 1.404 . S
C1420 C1423 1.539 . S
C1421 C1417 1.408 . S
C1421 C1420 1.404 . S
C1421 H1433 0.930 . S
C1422 C1418 1.524 . S
C1422 H1434 0.956 . S
C1422 H1435 0.961 . S
C1422 H1436 0.961 . S
C1423 C1420 1.539 . S
C1423 H1437 0.958 . S
C1423 H1438 0.961 . S
C1423 H1439 0.960 . S
H1424 C1408 0.931 . S
H1425 C1413 0.929 . S
H1426 C1414 0.960 . S
H1427 C1414 0.962 . S
H1428 C1414 0.960 . S
H1429 C1415 0.961 . S
H1430 C1415 0.961 . S
H1431 C1415 0.961 . S
H1432 C1416 0.931 . S
H1433 C1421 0.930 . S
H1434 C1422 0.956 . S
H1435 C1422 0.961 . S
H1436 C1422 0.961 . S
H1437 C1423 0.958 . S
H1438 C1423 0.961 . S
H1439 C1423 0.960 . S
C1440 C1441 1.391 . S
C1440 C1442 1.394 . S
C1440 H1456 0.931 . S
C1441 C1440 1.391 . S
C1441 C1445 1.376 . S
C1442 C1440 1.394 . S
C1442 C1443 1.369 . S
C1442 C1446 1.531 . S
C1443 C1442 1.369 . S
C1443 C1444 1.410 . S
C1443 C1451 1.503 . S
C1444 C1443 1.410 . S
C1444 C1445 1.392 . S
C1444 C1447 1.511 . S
C1445 C1441 1.376 . S
C1445 C1444 1.392 . S
C1445 H1457 0.929 . S
C1446 C1442 1.531 . S
C1446 H1458 0.960 . S
C1446 H1459 0.962 . S
C1446 H1460 0.960 . S
C1447 C1444 1.511 . S
C1447 H1461 0.961 . S
C1447 H1462 0.961 . S
C1447 H1463 0.961 . S
C1448 C1449 1.370 . S
C1448 C1450 1.363 . S
C1448 H1464 0.931 . S
C1449 C1448 1.370 . S
C1449 C1453 1.408 . S
C1450 C1448 1.363 . S
C1450 C1451 1.370 . S
C1450 C1454 1.524 . S
C1451 C1443 1.503 . S
C1451 C1450 1.370 . S
C1451 C1452 1.403 . S
C1452 C1451 1.403 . S
C1452 C1453 1.404 . S
C1452 C1455 1.539 . S
C1453 C1449 1.408 . S
C1453 C1452 1.404 . S
C1453 H1465 0.930 . S
C1454 C1450 1.524 . S
C1454 H1466 0.956 . S
C1454 H1467 0.961 . S
C1454 H1468 0.961 . S
C1455 C1452 1.539 . S
C1455 H1469 0.958 . S
C1455 H1470 0.961 . S
C1455 H1471 0.960 . S
H1456 C1440 0.931 . S
H1457 C1445 0.929 . S
H1458 C1446 0.960 . S
H1459 C1446 0.962 . S
H1460 C1446 0.960 . S
H1461 C1447 0.961 . S
H1462 C1447 0.961 . S
H1463 C1447 0.961 . S
H1464 C1448 0.931 . S
H1465 C1453 0.930 . S
H1466 C1454 0.956 . S
H1467 C1454 0.961 . S
H1468 C1454 0.961 . S
H1469 C1455 0.958 . S
H1470 C1455 0.961 . S
H1471 C1455 0.960 . S
C1472 C1473 1.391 . S
C1472 C1474 1.394 . S
C1472 H1488 0.931 . S
C1473 C1472 1.391 . S
C1473 C1477 1.376 . S
C1474 C1472 1.394 . S
C1474 C1475 1.369 . S
C1474 C1478 1.531 . S
C1475 C1474 1.369 . S
C1475 C1476 1.410 . S
C1475 C1483 1.503 . S
C1476 C1475 1.410 . S
C1476 C1477 1.392 . S
C1476 C1479 1.511 . S
C1477 C1473 1.376 . S
C1477 C1476 1.392 . S
C1477 H1489 0.929 . S
C1478 C1474 1.531 . S
C1478 H1490 0.960 . S
C1478 H1491 0.962 . S
C1478 H1492 0.960 . S
C1479 C1476 1.511 . S
C1479 H1493 0.961 . S
C1479 H1494 0.961 . S
C1479 H1495 0.961 . S
C1480 C1481 1.370 . S
C1480 C1482 1.363 . S
C1480 H1496 0.931 . S
C1481 C1480 1.370 . S
C1481 C1485 1.408 . S
C1482 C1480 1.363 . S
C1482 C1483 1.370 . S
C1482 C1486 1.524 . S
C1483 C1475 1.503 . S
C1483 C1482 1.370 . S
C1483 C1484 1.403 . S
C1484 C1483 1.403 . S
C1484 C1485 1.404 . S
C1484 C1487 1.539 . S
C1485 C1481 1.408 . S
C1485 C1484 1.404 . S
C1485 H1497 0.930 . S
C1486 C1482 1.524 . S
C1486 H1498 0.956 . S
C1486 H1499 0.961 . S
C1486 H1500 0.961 . S
C1487 C1484 1.539 . S
C1487 H1501 0.958 . S
C1487 H1502 0.961 . S
C1487 H1503 0.960 . S
H1488 C1472 0.931 . S
H1489 C1477 0.929 . S
H1490 C1478 0.960 . S
H1491 C1478 0.962 . S
H1492 C1478 0.960 . S
H1493 C1479 0.961 . S
H1494 C1479 0.961 . S
H1495 C1479 0.961 . S
H1496 C1480 0.931 . S
H1497 C1485 0.930 . S
H1498 C1486 0.956 . S
H1499 C1486 0.961 . S
H1500 C1486 0.961 . S
H1501 C1487 0.958 . S
H1502 C1487 0.961 . S
H1503 C1487 0.960 . S
C1504 C1505 1.391 . S
C1504 C1506 1.394 . S
C1504 H1520 0.931 . S
C1505 C1504 1.391 . S
C1505 C1509 1.376 . S
C1506 C1504 1.394 . S
C1506 C1507 1.369 . S
C1506 C1510 1.531 . S
C1507 C1506 1.369 . S
C1507 C1508 1.410 . S
C1507 C1515 1.503 . S
C1508 C1507 1.410 . S
C1508 C1509 1.392 . S
C1508 C1511 1.511 . S
C1509 C1505 1.376 . S
C1509 C1508 1.392 . S
C1509 H1521 0.929 . S
C1510 C1506 1.531 . S
C1510 H1522 0.960 . S
C1510 H1523 0.962 . S
C1510 H1524 0.960 . S
C1511 C1508 1.511 . S
C1511 H1525 0.961 . S
C1511 H1526 0.961 . S
C1511 H1527 0.961 . S
C1512 C1513 1.370 . S
C1512 C1514 1.363 . S
C1512 H1528 0.931 . S
C1513 C1512 1.370 . S
C1513 C1517 1.408 . S
C1514 C1512 1.363 . S
C1514 C1515 1.370 . S
C1514 C1518 1.524 . S
C1515 C1507 1.503 . S
C1515 C1514 1.370 . S
C1515 C1516 1.403 . S
C1516 C1515 1.403 . S
C1516 C1517 1.404 . S
C1516 C1519 1.539 . S
C1517 C1513 1.408 . S
C1517 C1516 1.404 . S
C1517 H1529 0.930 . S
C1518 C1514 1.524 . S
C1518 H1530 0.956 . S
C1518 H1531 0.961 . S
C1518 H1532 0.961 . S
C1519 C1516 1.539 . S
C1519 H1533 0.958 . S
C1519 H1534 0.961 . S
C1519 H1535 0.960 . S
H1520 C1504 0.931 . S
H1521 C1509 0.929 . S
H1522 C1510 0.960 . S
H1523 C1510 0.962 . S
H1524 C1510 0.960 . S
H1525 C1511 0.961 . S
H1526 C1511 0.961 . S
H1527 C1511 0.961 . S
H1528 C1512 0.931 . S
H1529 C1517 0.930 . S
H1530 C1518 0.956 . S
H1531 C1518 0.961 . S
H1532 C1518 0.961 . S
H1533 C1519 0.958 . S
H1534 C1519 0.961 . S
H1535 C1519 0.960 . S
C1536 C1537 1.391 . S
C1536 C1538 1.394 . S
C1536 H1552 0.931 . S
C1537 C1536 1.391 . S
C1537 C1541 1.376 . S
C1538 C1536 1.394 . S
C1538 C1539 1.369 . S
C1538 C1542 1.531 . S
C1539 C1538 1.369 . S
C1539 C1540 1.410 . S
C1539 C1547 1.503 . S
C1540 C1539 1.410 . S
C1540 C1541 1.392 . S
C1540 C1543 1.511 . S
C1541 C1537 1.376 . S
C1541 C1540 1.392 . S
C1541 H1553 0.929 . S
C1542 C1538 1.531 . S
C1542 H1554 0.960 . S
C1542 H1555 0.962 . S
C1542 H1556 0.960 . S
C1543 C1540 1.511 . S
C1543 H1557 0.961 . S
C1543 H1558 0.961 . S
C1543 H1559 0.961 . S
C1544 C1545 1.370 . S
C1544 C1546 1.363 . S
C1544 H1560 0.931 . S
C1545 C1544 1.370 . S
C1545 C1549 1.408 . S
C1546 C1544 1.363 . S
C1546 C1547 1.370 . S
C1546 C1550 1.524 . S
C1547 C1539 1.503 . S
C1547 C1546 1.370 . S
C1547 C1548 1.403 . S
C1548 C1547 1.403 . S
C1548 C1549 1.404 . S
C1548 C1551 1.539 . S
C1549 C1545 1.408 . S
C1549 C1548 1.404 . S
C1549 H1561 0.930 . S
C1550 C1546 1.524 . S
C1550 H1562 0.956 . S
C1550 H1563 0.961 . S
C1550 H1564 0.961 . S
C1551 C1548 1.539 . S
C1551 H1565 0.958 . S
C1551 H1566 0.961 . S
C1551 H1567 0.960 . S
H1552 C1536 0.931 . S
H1553 C1541 0.929 . S
H1554 C1542 0.960 . S
H1555 C1542 0.962 . S
H1556 C1542 0.960 . S
H1557 C1543 0.961 . S
H1558 C1543 0.961 . S
H1559 C1543 0.961 . S
H1560 C1544 0.931 . S
H1561 C1549 0.930 . S
H1562 C1550 0.956 . S
H1563 C1550 0.961 . S
H1564 C1550 0.961 . S
H1565 C1551 0.958 . S
H1566 C1551 0.961 . S
H1567 C1551 0.960 . S
C1568 C1569 1.391 . S
C1568 C1570 1.394 . S
C1568 H1584 0.931 . S
C1569 C1568 1.391 . S
C1569 C1573 1.376 . S
C1570 C1568 1.394 . S
C1570 C1571 1.369 . S
C1570 C1574 1.531 . S
C1571 C1570 1.369 . S
C1571 C1572 1.410 . S
C1571 C1579 1.503 . S
C1572 C1571 1.410 . S
C1572 C1573 1.392 . S
C1572 C1575 1.511 . S
C1573 C1569 1.376 . S
C1573 C1572 1.392 . S
C1573 H1585 0.929 . S
C1574 C1570 1.531 . S
C1574 H1586 0.960 . S
C1574 H1587 0.962 . S
C1574 H1588 0.960 . S
C1575 C1572 1.511 . S
C1575 H1589 0.961 . S
C1575 H1590 0.961 . S
C1575 H1591 0.960 . S
C1576 C1577 1.370 . S
C1576 C1578 1.363 . S
C1576 H1592 0.931 . S
C1577 C1576 1.370 . S
C1577 C1581 1.408 . S
C1578 C1576 1.363 . S
C1578 C1579 1.370 . S
C1578 C1582 1.524 . S
C1579 C1571 1.503 . S
C1579 C1578 1.370 . S
C1579 C1580 1.403 . S
C1580 C1579 1.403 . S
C1580 C1581 1.404 . S
C1580 C1583 1.539 . S
C1581 C1577 1.408 . S
C1581 C1580 1.404 . S
C1581 H1593 0.930 . S
C1582 C1578 1.524 . S
C1582 H1594 0.956 . S
C1582 H1595 0.961 . S
C1582 H1596 0.961 . S
C1583 C1580 1.539 . S
C1583 H1597 0.958 . S
C1583 H1598 0.961 . S
C1583 H1599 0.960 . S
H1584 C1568 0.931 . S
H1585 C1573 0.929 . S
H1586 C1574 0.960 . S
H1587 C1574 0.962 . S
H1588 C1574 0.960 . S
H1589 C1575 0.961 . S
H1590 C1575 0.961 . S
H1591 C1575 0.960 . S
H1592 C1576 0.931 . S
H1593 C1581 0.930 . S
H1594 C1582 0.956 . S
H1595 C1582 0.961 . S
H1596 C1582 0.961 . S
H1597 C1583 0.958 . S
H1598 C1583 0.961 . S
H1599 C1583 0.960 . S
C1600 C1601 1.391 . S
C1600 C1602 1.394 . S
C1600 H1616 0.931 . S
C1601 C1600 1.391 . S
C1601 C1605 1.376 . S
C1602 C1600 1.394 . S
C1602 C1603 1.369 . S
C1602 C1606 1.531 . S
C1603 C1602 1.369 . S
C1603 C1604 1.410 . S
C1603 C1611 1.503 . S
C1604 C1603 1.410 . S
C1604 C1605 1.392 . S
C1604 C1607 1.511 . S
C1605 C1601 1.376 . S
C1605 C1604 1.392 . S
C1605 H1617 0.929 . S
C1606 C1602 1.531 . S
C1606 H1618 0.960 . S
C1606 H1619 0.962 . S
C1606 H1620 0.960 . S
C1607 C1604 1.511 . S
C1607 H1621 0.961 . S
C1607 H1622 0.961 . S
C1607 H1623 0.961 . S
C1608 C1609 1.370 . S
C1608 C1610 1.363 . S
C1608 H1624 0.931 . S
C1609 C1608 1.370 . S
C1609 C1613 1.408 . S
C1610 C1608 1.363 . S
C1610 C1611 1.370 . S
C1610 C1614 1.524 . S
C1611 C1603 1.503 . S
C1611 C1610 1.370 . S
C1611 C1612 1.403 . S
C1612 C1611 1.403 . S
C1612 C1613 1.404 . S
C1612 C1615 1.539 . S
C1613 C1609 1.408 . S
C1613 C1612 1.404 . S
C1613 H1625 0.930 . S
C1614 C1610 1.524 . S
C1614 H1626 0.956 . S
C1614 H1627 0.961 . S
C1614 H1628 0.961 . S
C1615 C1612 1.539 . S
C1615 H1629 0.958 . S
C1615 H1630 0.961 . S
C1615 H1631 0.960 . S
H1616 C1600 0.931 . S
H1617 C1605 0.929 . S
H1618 C1606 0.960 . S
H1619 C1606 0.962 . S
H1620 C1606 0.960 . S
H1621 C1607 0.961 . S
H1622 C1607 0.961 . S
H1623 C1607 0.961 . S
H1624 C1608 0.931 . S
H1625 C1613 0.930 . S
H1626 C1614 0.956 . S
H1627 C1614 0.961 . S
H1628 C1614 0.961 . S
H1629 C1615 0.958 . S
H1630 C1615 0.961 . S
H1631 C1615 0.960 . S
C1632 C1633 1.391 . S
C1632 C1634 1.394 . S
C1632 H1648 0.931 . S
C1633 C1632 1.391 . S
C1633 C1637 1.376 . S
C1634 C1632 1.394 . S
C1634 C1635 1.369 . S
C1634 C1638 1.531 . S
C1635 C1634 1.369 . S
C1635 C1636 1.410 . S
C1635 C1643 1.503 . S
C1636 C1635 1.410 . S
C1636 C1637 1.392 . S
C1636 C1639 1.511 . S
C1637 C1633 1.376 . S
C1637 C1636 1.392 . S
C1637 H1649 0.929 . S
C1638 C1634 1.531 . S
C1638 H1650 0.960 . S
C1638 H1651 0.962 . S
C1638 H1652 0.960 . S
C1639 C1636 1.511 . S
C1639 H1653 0.961 . S
C1639 H1654 0.961 . S
C1639 H1655 0.961 . S
C1640 C1641 1.370 . S
C1640 C1642 1.363 . S
C1640 H1656 0.931 . S
C1641 C1640 1.370 . S
C1641 C1645 1.408 . S
C1642 C1640 1.363 . S
C1642 C1643 1.370 . S
C1642 C1646 1.524 . S
C1643 C1635 1.503 . S
C1643 C1642 1.370 . S
C1643 C1644 1.403 . S
C1644 C1643 1.403 . S
C1644 C1645 1.404 . S
C1644 C1647 1.539 . S
C1645 C1641 1.408 . S
C1645 C1644 1.404 . S
C1645 H1657 0.930 . S
C1646 C1642 1.524 . S
C1646 H1658 0.956 . S
C1646 H1659 0.961 . S
C1646 H1660 0.961 . S
C1647 C1644 1.539 . S
C1647 H1661 0.958 . S
C1647 H1662 0.961 . S
C1647 H1663 0.960 . S
H1648 C1632 0.931 . S
H1649 C1637 0.929 . S
H1650 C1638 0.960 . S
H1651 C1638 0.962 . S
H1652 C1638 0.960 . S
H1653 C1639 0.961 . S
H1654 C1639 0.961 . S
H1655 C1639 0.961 . S
H1656 C1640 0.931 . S
H1657 C1645 0.930 . S
H1658 C1646 0.956 . S
H1659 C1646 0.961 . S
H1660 C1646 0.961 . S
H1661 C1647 0.958 . S
H1662 C1647 0.961 . S
H1663 C1647 0.960 . S
C1664 C1665 1.391 . S
C1664 C1666 1.394 . S
C1664 H1680 0.931 . S
C1665 C1664 1.391 . S
C1665 C1669 1.376 . S
C1666 C1664 1.394 . S
C1666 C1667 1.369 . S
C1666 C1670 1.531 . S
C1667 C1666 1.369 . S
C1667 C1668 1.410 . S
C1667 C1675 1.503 . S
C1668 C1667 1.410 . S
C1668 C1669 1.392 . S
C1668 C1671 1.511 . S
C1669 C1665 1.376 . S
C1669 C1668 1.392 . S
C1669 H1681 0.929 . S
C1670 C1666 1.531 . S
C1670 H1682 0.960 . S
C1670 H1683 0.962 . S
C1670 H1684 0.960 . S
C1671 C1668 1.511 . S
C1671 H1685 0.961 . S
C1671 H1686 0.961 . S
C1671 H1687 0.961 . S
C1672 C1673 1.370 . S
C1672 C1674 1.363 . S
C1672 H1688 0.931 . S
C1673 C1672 1.370 . S
C1673 C1677 1.408 . S
C1674 C1672 1.363 . S
C1674 C1675 1.370 . S
C1674 C1678 1.524 . S
C1675 C1667 1.503 . S
C1675 C1674 1.370 . S
C1675 C1676 1.403 . S
C1676 C1675 1.403 . S
C1676 C1677 1.404 . S
C1676 C1679 1.539 . S
C1677 C1673 1.408 . S
C1677 C1676 1.404 . S
C1677 H1689 0.930 . S
C1678 C1674 1.524 . S
C1678 H1690 0.956 . S
C1678 H1691 0.961 . S
C1678 H1692 0.961 . S
C1679 C1676 1.539 . S
C1679 H1693 0.958 . S
C1679 H1694 0.961 . S
C1679 H1695 0.960 . S
H1680 C1664 0.931 . S
H1681 C1669 0.929 . S
H1682 C1670 0.960 . S
H1683 C1670 0.962 . S
H1684 C1670 0.960 . S
H1685 C1671 0.961 . S
H1686 C1671 0.961 . S
H1687 C1671 0.961 . S
H1688 C1672 0.931 . S
H1689 C1677 0.930 . S
H1690 C1678 0.956 . S
H1691 C1678 0.961 . S
H1692 C1678 0.961 . S
H1693 C1679 0.958 . S
H1694 C1679 0.961 . S
H1695 C1679 0.960 . S
C1696 C1697 1.391 . S
C1696 C1698 1.394 . S
C1696 H1712 0.931 . S
C1697 C1696 1.391 . S
C1697 C1701 1.376 . S
C1698 C1696 1.394 . S
C1698 C1699 1.369 . S
C1698 C1702 1.531 . S
C1699 C1698 1.369 . S
C1699 C1700 1.410 . S
C1699 C1707 1.503 . S
C1700 C1699 1.410 . S
C1700 C1701 1.392 . S
C1700 C1703 1.511 . S
C1701 C1697 1.376 . S
C1701 C1700 1.392 . S
C1701 H1713 0.929 . S
C1702 C1698 1.531 . S
C1702 H1714 0.960 . S
C1702 H1715 0.962 . S
C1702 H1716 0.960 . S
C1703 C1700 1.511 . S
C1703 H1717 0.961 . S
C1703 H1718 0.961 . S
C1703 H1719 0.961 . S
C1704 C1705 1.370 . S
C1704 C1706 1.363 . S
C1704 H1720 0.931 . S
C1705 C1704 1.370 . S
C1705 C1709 1.408 . S
C1706 C1704 1.363 . S
C1706 C1707 1.370 . S
C1706 C1710 1.524 . S
C1707 C1699 1.503 . S
C1707 C1706 1.370 . S
C1707 C1708 1.403 . S
C1708 C1707 1.403 . S
C1708 C1709 1.404 . S
C1708 C1711 1.539 . S
C1709 C1705 1.408 . S
C1709 C1708 1.404 . S
C1709 H1721 0.930 . S
C1710 C1706 1.524 . S
C1710 H1722 0.956 . S
C1710 H1723 0.961 . S
C1710 H1724 0.961 . S
C1711 C1708 1.539 . S
C1711 H1725 0.958 . S
C1711 H1726 0.961 . S
C1711 H1727 0.960 . S
H1712 C1696 0.931 . S
H1713 C1701 0.929 . S
H1714 C1702 0.960 . S
H1715 C1702 0.962 . S
H1716 C1702 0.960 . S
H1717 C1703 0.961 . S
H1718 C1703 0.961 . S
H1719 C1703 0.961 . S
H1720 C1704 0.931 . S
H1721 C1709 0.930 . S
H1722 C1710 0.956 . S
H1723 C1710 0.961 . S
H1724 C1710 0.961 . S
H1725 C1711 0.958 . S
H1726 C1711 0.961 . S
H1727 C1711 0.960 . S
C1728 C1729 1.391 . S
C1728 C1730 1.394 . S
C1728 H1744 0.931 . S
C1729 C1728 1.391 . S
C1729 C1733 1.376 . S
C1730 C1728 1.394 . S
C1730 C1731 1.369 . S
C1730 C1734 1.531 . S
C1731 C1730 1.369 . S
C1731 C1732 1.410 . S
C1731 C1739 1.503 . S
C1732 C1731 1.410 . S
C1732 C1733 1.392 . S
C1732 C1735 1.511 . S
C1733 C1729 1.376 . S
C1733 C1732 1.392 . S
C1733 H1745 0.929 . S
C1734 C1730 1.531 . S
C1734 H1746 0.960 . S
C1734 H1747 0.962 . S
C1734 H1748 0.960 . S
C1735 C1732 1.511 . S
C1735 H1749 0.961 . S
C1735 H1750 0.961 . S
C1735 H1751 0.961 . S
C1736 C1737 1.370 . S
C1736 C1738 1.363 . S
C1736 H1752 0.931 . S
C1737 C1736 1.370 . S
C1737 C1741 1.408 . S
C1738 C1736 1.363 . S
C1738 C1739 1.370 . S
C1738 C1742 1.524 . S
C1739 C1731 1.503 . S
C1739 C1738 1.370 . S
C1739 C1740 1.403 . S
C1740 C1739 1.403 . S
C1740 C1741 1.404 . S
C1740 C1743 1.539 . S
C1741 C1737 1.408 . S
C1741 C1740 1.404 . S
C1741 H1753 0.930 . S
C1742 C1738 1.524 . S
C1742 H1754 0.956 . S
C1742 H1755 0.961 . S
C1742 H1756 0.961 . S
C1743 C1740 1.539 . S
C1743 H1757 0.958 . S
C1743 H1758 0.961 . S
C1743 H1759 0.960 . S
H1744 C1728 0.931 . S
H1745 C1733 0.929 . S
H1746 C1734 0.960 . S
H1747 C1734 0.962 . S
H1748 C1734 0.960 . S
H1749 C1735 0.961 . S
H1750 C1735 0.961 . S
H1751 C1735 0.961 . S
H1752 C1736 0.931 . S
H1753 C1741 0.930 . S
H1754 C1742 0.956 . S
H1755 C1742 0.961 . S
H1756 C1742 0.961 . S
H1757 C1743 0.958 . S
H1758 C1743 0.961 . S
H1759 C1743 0.960 . S
C1760 C1761 1.391 . S
C1760 C1762 1.394 . S
C1760 H1776 0.931 . S
C1761 C1760 1.391 . S
C1761 C1765 1.376 . S
C1762 C1760 1.394 . S
C1762 C1763 1.369 . S
C1762 C1766 1.531 . S
C1763 C1762 1.369 . S
C1763 C1764 1.410 . S
C1763 C1771 1.503 . S
C1764 C1763 1.410 . S
C1764 C1765 1.392 . S
C1764 C1767 1.511 . S
C1765 C1761 1.376 . S
C1765 C1764 1.392 . S
C1765 H1777 0.929 . S
C1766 C1762 1.531 . S
C1766 H1778 0.960 . S
C1766 H1779 0.962 . S
C1766 H1780 0.960 . S
C1767 C1764 1.511 . S
C1767 H1781 0.961 . S
C1767 H1782 0.961 . S
C1767 H1783 0.961 . S
C1768 C1769 1.370 . S
C1768 C1770 1.363 . S
C1768 H1784 0.931 . S
C1769 C1768 1.370 . S
C1769 C1773 1.408 . S
C1770 C1768 1.363 . S
C1770 C1771 1.370 . S
C1770 C1774 1.524 . S
C1771 C1763 1.503 . S
C1771 C1770 1.370 . S
C1771 C1772 1.403 . S
C1772 C1771 1.403 . S
C1772 C1773 1.404 . S
C1772 C1775 1.539 . S
C1773 C1769 1.408 . S
C1773 C1772 1.404 . S
C1773 H1785 0.930 . S
C1774 C1770 1.524 . S
C1774 H1786 0.956 . S
C1774 H1787 0.961 . S
C1774 H1788 0.961 . S
C1775 C1772 1.539 . S
C1775 H1789 0.958 . S
C1775 H1790 0.961 . S
C1775 H1791 0.960 . S
H1776 C1760 0.931 . S
H1777 C1765 0.929 . S
H1778 C1766 0.960 . S
H1779 C1766 0.962 . S
H1780 C1766 0.960 . S
H1781 C1767 0.961 . S
H1782 C1767 0.961 . S
H1783 C1767 0.961 . S
H1784 C1768 0.931 . S
H1785 C1773 0.930 . S
H1786 C1774 0.956 . S
H1787 C1774 0.961 . S
H1788 C1774 0.961 . S
H1789 C1775 0.958 . S
H1790 C1775 0.961 . S
H1791 C1775 0.960 . S
C1792 C1793 1.391 . S
C1792 C1794 1.394 . S
C1792 H1808 0.931 . S
C1793 C1792 1.391 . S
C1793 C1797 1.376 . S
C1794 C1792 1.394 . S
C1794 C1795 1.369 . S
C1794 C1798 1.531 . S
C1795 C1794 1.369 . S
C1795 C1796 1.410 . S
C1795 C1803 1.503 . S
C1796 C1795 1.410 . S
C1796 C1797 1.392 . S
C1796 C1799 1.511 . S
C1797 C1793 1.376 . S
C1797 C1796 1.392 . S
C1797 H1809 0.929 . S
C1798 C1794 1.531 . S
C1798 H1810 0.960 . S
C1798 H1811 0.962 . S
C1798 H1812 0.960 . S
C1799 C1796 1.511 . S
C1799 H1813 0.961 . S
C1799 H1814 0.961 . S
C1799 H1815 0.961 . S
C1800 C1801 1.370 . S
C1800 C1802 1.363 . S
C1800 H1816 0.931 . S
C1801 C1800 1.370 . S
C1801 C1805 1.408 . S
C1802 C1800 1.363 . S
C1802 C1803 1.370 . S
C1802 C1806 1.524 . S
C1803 C1795 1.503 . S
C1803 C1802 1.370 . S
C1803 C1804 1.403 . S
C1804 C1803 1.403 . S
C1804 C1805 1.404 . S
C1804 C1807 1.539 . S
C1805 C1801 1.408 . S
C1805 C1804 1.404 . S
C1805 H1817 0.930 . S
C1806 C1802 1.524 . S
C1806 H1818 0.956 . S
C1806 H1819 0.961 . S
C1806 H1820 0.961 . S
C1807 C1804 1.539 . S
C1807 H1821 0.958 . S
C1807 H1822 0.961 . S
C1807 H1823 0.960 . S
H1808 C1792 0.931 . S
H1809 C1797 0.929 . S
H1810 C1798 0.960 . S
H1811 C1798 0.962 . S
H1812 C1798 0.960 . S
H1813 C1799 0.961 . S
H1814 C1799 0.961 . S
H1815 C1799 0.961 . S
H1816 C1800 0.931 . S
H1817 C1805 0.930 . S
H1818 C1806 0.956 . S
H1819 C1806 0.961 . S
H1820 C1806 0.961 . S
H1821 C1807 0.958 . S
H1822 C1807 0.961 . S
H1823 C1807 0.960 . S
C1824 C1825 1.391 . S
C1824 C1826 1.394 . S
C1824 H1840 0.931 . S
C1825 C1824 1.391 . S
C1825 C1829 1.376 . S
C1826 C1824 1.394 . S
C1826 C1827 1.369 . S
C1826 C1830 1.531 . S
C1827 C1826 1.369 . S
C1827 C1828 1.410 . S
C1827 C1835 1.503 . S
C1828 C1827 1.410 . S
C1828 C1829 1.392 . S
C1828 C1831 1.511 . S
C1829 C1825 1.376 . S
C1829 C1828 1.392 . S
C1829 H1841 0.929 . S
C1830 C1826 1.531 . S
C1830 H1842 0.960 . S
C1830 H1843 0.962 . S
C1830 H1844 0.960 . S
C1831 C1828 1.511 . S
C1831 H1845 0.961 . S
C1831 H1846 0.961 . S
C1831 H1847 0.961 . S
C1832 C1833 1.370 . S
C1832 C1834 1.363 . S
C1832 H1848 0.931 . S
C1833 C1832 1.370 . S
C1833 C1837 1.408 . S
C1834 C1832 1.363 . S
C1834 C1835 1.370 . S
C1834 C1838 1.524 . S
C1835 C1827 1.503 . S
C1835 C1834 1.370 . S
C1835 C1836 1.403 . S
C1836 C1835 1.403 . S
C1836 C1837 1.404 . S
C1836 C1839 1.539 . S
C1837 C1833 1.408 . S
C1837 C1836 1.404 . S
C1837 H1849 0.930 . S
C1838 C1834 1.524 . S
C1838 H1850 0.956 . S
C1838 H1851 0.961 . S
C1838 H1852 0.961 . S
C1839 C1836 1.539 . S
C1839 H1853 0.958 . S
C1839 H1854 0.961 . S
C1839 H1855 0.960 . S
H1840 C1824 0.931 . S
H1841 C1829 0.929 . S
H1842 C1830 0.960 . S
H1843 C1830 0.962 . S
H1844 C1830 0.960 . S
H1845 C1831 0.961 . S
H1846 C1831 0.961 . S
H1847 C1831 0.961 . S
H1848 C1832 0.931 . S
H1849 C1837 0.930 . S
H1850 C1838 0.956 . S
H1851 C1838 0.961 . S
H1852 C1838 0.961 . S
H1853 C1839 0.958 . S
H1854 C1839 0.961 . S
H1855 C1839 0.960 . S
C1856 C1857 1.391 . S
C1856 C1858 1.394 . S
C1856 H1872 0.931 . S
C1857 C1856 1.391 . S
C1857 C1861 1.376 . S
C1858 C1856 1.394 . S
C1858 C1859 1.369 . S
C1858 C1862 1.531 . S
C1859 C1858 1.369 . S
C1859 C1860 1.410 . S
C1859 C1867 1.503 . S
C1860 C1859 1.410 . S
C1860 C1861 1.392 . S
C1860 C1863 1.511 . S
C1861 C1857 1.376 . S
C1861 C1860 1.392 . S
C1861 H1873 0.929 . S
C1862 C1858 1.531 . S
C1862 H1874 0.960 . S
C1862 H1875 0.962 . S
C1862 H1876 0.960 . S
C1863 C1860 1.511 . S
C1863 H1877 0.961 . S
C1863 H1878 0.961 . S
C1863 H1879 0.961 . S
C1864 C1865 1.370 . S
C1864 C1866 1.363 . S
C1864 H1880 0.931 . S
C1865 C1864 1.370 . S
C1865 C1869 1.408 . S
C1866 C1864 1.363 . S
C1866 C1867 1.370 . S
C1866 C1870 1.524 . S
C1867 C1859 1.503 . S
C1867 C1866 1.370 . S
C1867 C1868 1.403 . S
C1868 C1867 1.403 . S
C1868 C1869 1.404 . S
C1868 C1871 1.539 . S
C1869 C1865 1.408 . S
C1869 C1868 1.404 . S
C1869 H1881 0.930 . S
C1870 C1866 1.524 . S
C1870 H1882 0.956 . S
C1870 H1883 0.961 . S
C1870 H1884 0.961 . S
C1871 C1868 1.539 . S
C1871 H1885 0.958 . S
C1871 H1886 0.961 . S
C1871 H1887 0.960 . S
H1872 C1856 0.931 . S
H1873 C1861 0.929 . S
H1874 C1862 0.960 . S
H1875 C1862 0.962 . S
H1876 C1862 0.960 . S
H1877 C1863 0.961 . S
H1878 C1863 0.961 . S
H1879 C1863 0.961 . S
H1880 C1864 0.931 . S
H1881 C1869 0.930 . S
H1882 C1870 0.956 . S
H1883 C1870 0.961 . S
H1884 C1870 0.961 . S
H1885 C1871 0.958 . S
H1886 C1871 0.961 . S
H1887 C1871 0.960 . S
C1888 C1889 1.391 . S
C1888 C1890 1.394 . S
C1888 H1904 0.931 . S
C1889 C1888 1.391 . S
C1889 C1893 1.376 . S
C1890 C1888 1.394 . S
C1890 C1891 1.369 . S
C1890 C1894 1.531 . S
C1891 C1890 1.369 . S
C1891 C1892 1.410 . S
C1891 C1899 1.503 . S
C1892 C1891 1.410 . S
C1892 C1893 1.392 . S
C1892 C1895 1.511 . S
C1893 C1889 1.376 . S
C1893 C1892 1.392 . S
C1893 H1905 0.929 . S
C1894 C1890 1.531 . S
C1894 H1906 0.960 . S
C1894 H1907 0.962 . S
C1894 H1908 0.960 . S
C1895 C1892 1.511 . S
C1895 H1909 0.961 . S
C1895 H1910 0.961 . S
C1895 H1911 0.961 . S
C1896 C1897 1.370 . S
C1896 C1898 1.363 . S
C1896 H1912 0.931 . S
C1897 C1896 1.370 . S
C1897 C1901 1.408 . S
C1898 C1896 1.363 . S
C1898 C1899 1.370 . S
C1898 C1902 1.524 . S
C1899 C1891 1.503 . S
C1899 C1898 1.370 . S
C1899 C1900 1.403 . S
C1900 C1899 1.403 . S
C1900 C1901 1.404 . S
C1900 C1903 1.539 . S
C1901 C1897 1.408 . S
C1901 C1900 1.404 . S
C1901 H1913 0.930 . S
C1902 C1898 1.524 . S
C1902 H1914 0.956 . S
C1902 H1915 0.961 . S
C1902 H1916 0.961 . S
C1903 C1900 1.539 . S
C1903 H1917 0.958 . S
C1903 H1918 0.961 . S
C1903 H1919 0.960 . S
H1904 C1888 0.931 . S
H1905 C1893 0.929 . S
H1906 C1894 0.960 . S
H1907 C1894 0.962 . S
H1908 C1894 0.960 . S
H1909 C1895 0.961 . S
H1910 C1895 0.961 . S
H1911 C1895 0.961 . S
H1912 C1896 0.931 . S
H1913 C1901 0.930 . S
H1914 C1902 0.956 . S
H1915 C1902 0.961 . S
H1916 C1902 0.961 . S
H1917 C1903 0.958 . S
H1918 C1903 0.961 . S
H1919 C1903 0.960 . S
C1920 C1921 1.391 . S
C1920 C1922 1.394 . S
C1920 H1936 0.931 . S
C1921 C1920 1.391 . S
C1921 C1925 1.376 . S
C1922 C1920 1.394 . S
C1922 C1923 1.369 . S
C1922 C1926 1.531 . S
C1923 C1922 1.369 . S
C1923 C1924 1.410 . S
C1923 C1931 1.503 . S
C1924 C1923 1.410 . S
C1924 C1925 1.392 . S
C1924 C1927 1.511 . S
C1925 C1921 1.376 . S
C1925 C1924 1.392 . S
C1925 H1937 0.929 . S
C1926 C1922 1.531 . S
C1926 H1938 0.960 . S
C1926 H1939 0.962 . S
C1926 H1940 0.960 . S
C1927 C1924 1.511 . S
C1927 H1941 0.961 . S
C1927 H1942 0.961 . S
C1927 H1943 0.961 . S
C1928 C1929 1.370 . S
C1928 C1930 1.363 . S
C1928 H1944 0.931 . S
C1929 C1928 1.370 . S
C1929 C1933 1.408 . S
C1930 C1928 1.363 . S
C1930 C1931 1.370 . S
C1930 C1934 1.524 . S
C1931 C1923 1.503 . S
C1931 C1930 1.370 . S
C1931 C1932 1.403 . S
C1932 C1931 1.403 . S
C1932 C1933 1.404 . S
C1932 C1935 1.539 . S
C1933 C1929 1.408 . S
C1933 C1932 1.404 . S
C1933 H1945 0.930 . S
C1934 C1930 1.524 . S
C1934 H1946 0.956 . S
C1934 H1947 0.961 . S
C1934 H1948 0.961 . S
C1935 C1932 1.539 . S
C1935 H1949 0.958 . S
C1935 H1950 0.961 . S
C1935 H1951 0.960 . S
H1936 C1920 0.931 . S
H1937 C1925 0.929 . S
H1938 C1926 0.960 . S
H1939 C1926 0.962 . S
H1940 C1926 0.960 . S
H1941 C1927 0.961 . S
H1942 C1927 0.961 . S
H1943 C1927 0.961 . S
H1944 C1928 0.931 . S
H1945 C1933 0.930 . S
H1946 C1934 0.956 . S
H1947 C1934 0.961 . S
H1948 C1934 0.961 . S
H1949 C1935 0.958 . S
H1950 C1935 0.961 . S
H1951 C1935 0.960 . S
C1952 C1953 1.391 . S
C1952 C1954 1.394 . S
C1952 H1968 0.931 . S
C1953 C1952 1.391 . S
C1953 C1957 1.376 . S
C1954 C1952 1.394 . S
C1954 C1955 1.369 . S
C1954 C1958 1.531 . S
C1955 C1954 1.369 . S
C1955 C1956 1.410 . S
C1955 C1963 1.503 . S
C1956 C1955 1.410 . S
C1956 C1957 1.392 . S
C1956 C1959 1.511 . S
C1957 C1953 1.376 . S
C1957 C1956 1.392 . S
C1957 H1969 0.929 . S
C1958 C1954 1.531 . S
C1958 H1970 0.960 . S
C1958 H1971 0.962 . S
C1958 H1972 0.960 . S
C1959 C1956 1.511 . S
C1959 H1973 0.961 . S
C1959 H1974 0.961 . S
C1959 H1975 0.961 . S
C1960 C1961 1.370 . S
C1960 C1962 1.363 . S
C1960 H1976 0.931 . S
C1961 C1960 1.370 . S
C1961 C1965 1.408 . S
C1962 C1960 1.363 . S
C1962 C1963 1.370 . S
C1962 C1966 1.524 . S
C1963 C1955 1.503 . S
C1963 C1962 1.370 . S
C1963 C1964 1.403 . S
C1964 C1963 1.403 . S
C1964 C1965 1.404 . S
C1964 C1967 1.539 . S
C1965 C1961 1.408 . S
C1965 C1964 1.404 . S
C1965 H1977 0.930 . S
C1966 C1962 1.524 . S
C1966 H1978 0.956 . S
C1966 H1979 0.961 . S
C1966 H1980 0.961 . S
C1967 C1964 1.539 . S
C1967 H1981 0.958 . S
C1967 H1982 0.961 . S
C1967 H1983 0.960 . S
H1968 C1952 0.931 . S
H1969 C1957 0.929 . S
H1970 C1958 0.960 . S
H1971 C1958 0.962 . S
H1972 C1958 0.960 . S
H1973 C1959 0.961 . S
H1974 C1959 0.961 . S
H1975 C1959 0.961 . S
H1976 C1960 0.931 . S
H1977 C1965 0.930 . S
H1978 C1966 0.956 . S
H1979 C1966 0.961 . S
H1980 C1966 0.961 . S
H1981 C1967 0.958 . S
H1982 C1967 0.961 . S
H1983 C1967 0.960 . S
C1984 C1985 1.391 . S
C1984 C1986 1.394 . S
C1984 H2000 0.931 . S
C1985 C1984 1.391 . S
C1985 C1989 1.376 . S
C1986 C1984 1.394 . S
C1986 C1987 1.369 . S
C1986 C1990 1.531 . S
C1987 C1986 1.369 . S
C1987 C1988 1.410 . S
C1987 C1995 1.503 . S
C1988 C1987 1.410 . S
C1988 C1989 1.392 . S
C1988 C1991 1.511 . S
C1989 C1985 1.376 . S
C1989 C1988 1.392 . S
C1989 H2001 0.929 . S
C1990 C1986 1.531 . S
C1990 H2002 0.960 . S
C1990 H2003 0.962 . S
C1990 H2004 0.960 . S
C1991 C1988 1.511 . S
C1991 H2005 0.961 . S
C1991 H2006 0.961 . S
C1991 H2007 0.961 . S
C1992 C1993 1.370 . S
C1992 C1994 1.363 . S
C1992 H2008 0.931 . S
C1993 C1992 1.370 . S
C1993 C1997 1.408 . S
C1994 C1992 1.363 . S
C1994 C1995 1.370 . S
C1994 C1998 1.524 . S
C1995 C1987 1.503 . S
C1995 C1994 1.370 . S
C1995 C1996 1.403 . S
C1996 C1995 1.403 . S
C1996 C1997 1.404 . S
C1996 C1999 1.539 . S
C1997 C1993 1.408 . S
C1997 C1996 1.404 . S
C1997 H2009 0.930 . S
C1998 C1994 1.524 . S
C1998 H2010 0.956 . S
C1998 H2011 0.961 . S
C1998 H2012 0.961 . S
C1999 C1996 1.539 . S
C1999 H2013 0.958 . S
C1999 H2014 0.961 . S
C1999 H2015 0.960 . S
H2000 C1984 0.931 . S
H2001 C1989 0.929 . S
H2002 C1990 0.960 . S
H2003 C1990 0.962 . S
H2004 C1990 0.960 . S
H2005 C1991 0.961 . S
H2006 C1991 0.961 . S
H2007 C1991 0.961 . S
H2008 C1992 0.931 . S
H2009 C1997 0.930 . S
H2010 C1998 0.956 . S
H2011 C1998 0.961 . S
H2012 C1998 0.961 . S
H2013 C1999 0.958 . S
H2014 C1999 0.961 . S
H2015 C1999 0.960 . S
C2016 C2017 1.391 . S
C2016 C2018 1.394 . S
C2016 H2032 0.931 . S
C2017 C2016 1.391 . S
C2017 C2021 1.376 . S
C2018 C2016 1.394 . S
C2018 C2019 1.369 . S
C2018 C2022 1.531 . S
C2019 C2018 1.369 . S
C2019 C2020 1.410 . S
C2019 C2027 1.503 . S
C2020 C2019 1.410 . S
C2020 C2021 1.392 . S
C2020 C2023 1.511 . S
C2021 C2017 1.376 . S
C2021 C2020 1.392 . S
C2021 H2033 0.929 . S
C2022 C2018 1.531 . S
C2022 H2034 0.960 . S
C2022 H2035 0.962 . S
C2022 H2036 0.960 . S
C2023 C2020 1.511 . S
C2023 H2037 0.961 . S
C2023 H2038 0.961 . S
C2023 H2039 0.961 . S
C2024 C2025 1.370 . S
C2024 C2026 1.363 . S
C2024 H2040 0.931 . S
C2025 C2024 1.370 . S
C2025 C2029 1.408 . S
C2026 C2024 1.363 . S
C2026 C2027 1.370 . S
C2026 C2030 1.524 . S
C2027 C2019 1.503 . S
C2027 C2026 1.370 . S
C2027 C2028 1.403 . S
C2028 C2027 1.403 . S
C2028 C2029 1.404 . S
C2028 C2031 1.539 . S
C2029 C2025 1.408 . S
C2029 C2028 1.404 . S
C2029 H2041 0.930 . S
C2030 C2026 1.524 . S
C2030 H2042 0.956 . S
C2030 H2043 0.961 . S
C2030 H2044 0.961 . S
C2031 C2028 1.539 . S
C2031 H2045 0.958 . S
C2031 H2046 0.961 . S
C2031 H2047 0.960 . S
H2032 C2016 0.931 . S
H2033 C2021 0.929 . S
H2034 C2022 0.960 . S
H2035 C2022 0.962 . S
H2036 C2022 0.960 . S
H2037 C2023 0.961 . S
H2038 C2023 0.961 . S
H2039 C2023 0.961 . S
H2040 C2024 0.931 . S
H2041 C2029 0.930 . S
H2042 C2030 0.956 . S
H2043 C2030 0.961 . S
H2044 C2030 0.961 . S
H2045 C2031 0.958 . S
H2046 C2031 0.961 . S
H2047 C2031 0.960 . S
C2048 C2049 1.391 . S
C2048 C2050 1.394 . S
C2048 H2064 0.931 . S
C2049 C2048 1.391 . S
C2049 C2053 1.376 . S
C2050 C2048 1.394 . S
C2050 C2051 1.369 . S
C2050 C2054 1.531 . S
C2051 C2050 1.369 . S
C2051 C2052 1.410 . S
C2051 C2059 1.503 . S
C2052 C2051 1.410 . S
C2052 C2053 1.392 . S
C2052 C2055 1.511 . S
C2053 C2049 1.376 . S
C2053 C2052 1.392 . S
C2053 H2065 0.929 . S
C2054 C2050 1.531 . S
C2054 H2066 0.960 . S
C2054 H2067 0.962 . S
C2054 H2068 0.960 . S
C2055 C2052 1.511 . S
C2055 H2069 0.961 . S
C2055 H2070 0.961 . S
C2055 H2071 0.961 . S
C2056 C2057 1.370 . S
C2056 C2058 1.363 . S
C2056 H2072 0.931 . S
C2057 C2056 1.370 . S
C2057 C2061 1.408 . S
C2058 C2056 1.363 . S
C2058 C2059 1.370 . S
C2058 C2062 1.524 . S
C2059 C2051 1.503 . S
C2059 C2058 1.370 . S
C2059 C2060 1.403 . S
C2060 C2059 1.403 . S
C2060 C2061 1.404 . S
C2060 C2063 1.539 . S
C2061 C2057 1.408 . S
C2061 C2060 1.404 . S
C2061 H2073 0.930 . S
C2062 C2058 1.524 . S
C2062 H2074 0.956 . S
C2062 H2075 0.961 . S
C2062 H2076 0.961 . S
C2063 C2060 1.539 . S
C2063 H2077 0.958 . S
C2063 H2078 0.961 . S
C2063 H2079 0.960 . S
H2064 C2048 0.931 . S
H2065 C2053 0.929 . S
H2066 C2054 0.960 . S
H2067 C2054 0.962 . S
H2068 C2054 0.960 . S
H2069 C2055 0.961 . S
H2070 C2055 0.961 . S
H2071 C2055 0.961 . S
H2072 C2056 0.931 . S
H2073 C2061 0.930 . S
H2074 C2062 0.956 . S
H2075 C2062 0.961 . S
H2076 C2062 0.961 . S
H2077 C2063 0.958 . S
H2078 C2063 0.961 . S
H2079 C2063 0.960 . S
C2080 C2081 1.391 . S
C2080 C2082 1.394 . S
C2080 H2096 0.931 . S
C2081 C2080 1.391 . S
C2081 C2085 1.376 . S
C2082 C2080 1.394 . S
C2082 C2083 1.369 . S
C2082 C2086 1.531 . S
C2083 C2082 1.369 . S
C2083 C2084 1.410 . S
C2083 C2091 1.503 . S
C2084 C2083 1.410 . S
C2084 C2085 1.392 . S
C2084 C2087 1.511 . S
C2085 C2081 1.376 . S
C2085 C2084 1.392 . S
C2085 H2097 0.929 . S
C2086 C2082 1.531 . S
C2086 H2098 0.960 . S
C2086 H2099 0.962 . S
C2086 H2100 0.960 . S
C2087 C2084 1.511 . S
C2087 H2101 0.961 . S
C2087 H2102 0.961 . S
C2087 H2103 0.961 . S
C2088 C2089 1.370 . S
C2088 C2090 1.363 . S
C2088 H2104 0.931 . S
C2089 C2088 1.370 . S
C2089 C2093 1.408 . S
C2090 C2088 1.363 . S
C2090 C2091 1.370 . S
C2090 C2094 1.524 . S
C2091 C2083 1.503 . S
C2091 C2090 1.370 . S
C2091 C2092 1.403 . S
C2092 C2091 1.403 . S
C2092 C2093 1.404 . S
C2092 C2095 1.539 . S
C2093 C2089 1.408 . S
C2093 C2092 1.404 . S
C2093 H2105 0.930 . S
C2094 C2090 1.524 . S
C2094 H2106 0.956 . S
C2094 H2107 0.961 . S
C2094 H2108 0.961 . S
C2095 C2092 1.539 . S
C2095 H2109 0.958 . S
C2095 H2110 0.961 . S
C2095 H2111 0.960 . S
H2096 C2080 0.931 . S
H2097 C2085 0.929 . S
H2098 C2086 0.960 . S
H2099 C2086 0.962 . S
H2100 C2086 0.960 . S
H2101 C2087 0.961 . S
H2102 C2087 0.961 . S
H2103 C2087 0.961 . S
H2104 C2088 0.931 . S
H2105 C2093 0.930 . S
H2106 C2094 0.956 . S
H2107 C2094 0.961 . S
H2108 C2094 0.961 . S
H2109 C2095 0.958 . S
H2110 C2095 0.961 . S
H2111 C2095 0.960 . S
C2112 C2113 1.391 . S
C2112 C2114 1.394 . S
C2112 H2128 0.931 . S
C2113 C2112 1.391 . S
C2113 C2117 1.376 . S
C2114 C2112 1.394 . S
C2114 C2115 1.369 . S
C2114 C2118 1.531 . S
C2115 C2114 1.369 . S
C2115 C2116 1.410 . S
C2115 C2123 1.503 . S
C2116 C2115 1.410 . S
C2116 C2117 1.392 . S
C2116 C2119 1.511 . S
C2117 C2113 1.376 . S
C2117 C2116 1.392 . S
C2117 H2129 0.929 . S
C2118 C2114 1.531 . S
C2118 H2130 0.960 . S
C2118 H2131 0.962 . S
C2118 H2132 0.960 . S
C2119 C2116 1.511 . S
C2119 H2133 0.961 . S
C2119 H2134 0.961 . S
C2119 H2135 0.961 . S
C2120 C2121 1.370 . S
C2120 C2122 1.363 . S
C2120 H2136 0.931 . S
C2121 C2120 1.370 . S
C2121 C2125 1.408 . S
C2122 C2120 1.363 . S
C2122 C2123 1.370 . S
C2122 C2126 1.524 . S
C2123 C2115 1.503 . S
C2123 C2122 1.370 . S
C2123 C2124 1.403 . S
C2124 C2123 1.403 . S
C2124 C2125 1.404 . S
C2124 C2127 1.539 . S
C2125 C2121 1.408 . S
C2125 C2124 1.404 . S
C2125 H2137 0.930 . S
C2126 C2122 1.524 . S
C2126 H2138 0.956 . S
C2126 H2139 0.961 . S
C2126 H2140 0.961 . S
C2127 C2124 1.539 . S
C2127 H2141 0.958 . S
C2127 H2142 0.961 . S
C2127 H2143 0.960 . S
H2128 C2112 0.931 . S
H2129 C2117 0.929 . S
H2130 C2118 0.960 . S
H2131 C2118 0.962 . S
H2132 C2118 0.960 . S
H2133 C2119 0.961 . S
H2134 C2119 0.961 . S
H2135 C2119 0.961 . S
H2136 C2120 0.931 . S
H2137 C2125 0.930 . S
H2138 C2126 0.956 . S
H2139 C2126 0.961 . S
H2140 C2126 0.961 . S
H2141 C2127 0.958 . S
H2142 C2127 0.961 . S
H2143 C2127 0.960 . S
C2144 C2145 1.391 . S
C2144 C2146 1.394 . S
C2144 H2160 0.931 . S
C2145 C2144 1.391 . S
C2145 C2149 1.376 . S
C2146 C2144 1.394 . S
C2146 C2147 1.369 . S
C2146 C2150 1.531 . S
C2147 C2146 1.369 . S
C2147 C2148 1.410 . S
C2147 C2155 1.503 . S
C2148 C2147 1.410 . S
C2148 C2149 1.392 . S
C2148 C2151 1.511 . S
C2149 C2145 1.376 . S
C2149 C2148 1.392 . S
C2149 H2161 0.929 . S
C2150 C2146 1.531 . S
C2150 H2162 0.960 . S
C2150 H2163 0.962 . S
C2150 H2164 0.960 . S
C2151 C2148 1.511 . S
C2151 H2165 0.961 . S
C2151 H2166 0.961 . S
C2151 H2167 0.961 . S
C2152 C2153 1.370 . S
C2152 C2154 1.363 . S
C2152 H2168 0.931 . S
C2153 C2152 1.370 . S
C2153 C2157 1.408 . S
C2154 C2152 1.363 . S
C2154 C2155 1.370 . S
C2154 C2158 1.524 . S
C2155 C2147 1.503 . S
C2155 C2154 1.370 . S
C2155 C2156 1.403 . S
C2156 C2155 1.403 . S
C2156 C2157 1.404 . S
C2156 C2159 1.539 . S
C2157 C2153 1.408 . S
C2157 C2156 1.404 . S
C2157 H2169 0.930 . S
C2158 C2154 1.524 . S
C2158 H2170 0.956 . S
C2158 H2171 0.961 . S
C2158 H2172 0.961 . S
C2159 C2156 1.539 . S
C2159 H2173 0.958 . S
C2159 H2174 0.961 . S
C2159 H2175 0.960 . S
H2160 C2144 0.931 . S
H2161 C2149 0.929 . S
H2162 C2150 0.960 . S
H2163 C2150 0.962 . S
H2164 C2150 0.960 . S
H2165 C2151 0.961 . S
H2166 C2151 0.961 . S
H2167 C2151 0.961 . S
H2168 C2152 0.931 . S
H2169 C2157 0.930 . S
H2170 C2158 0.956 . S
H2171 C2158 0.961 . S
H2172 C2158 0.961 . S
H2173 C2159 0.958 . S
H2174 C2159 0.961 . S
H2175 C2159 0.960 . S
C641 C139 1.824 . S
C649 C18 1.826 . S
C673 C10 1.179 . S
C681 C55 1.133 . S
C705 C89 0.856 . S
C713 C58 0.862 . S
C737 C126 1.544 . S
C745 C86 1.575 . S
C769 C166 1.238 . S
C777 C210 1.244 . S
C801 C218 0.908 . S
C809 C258 0.900 . S
C833 C255 1.264 . S
C841 C286 1.263 . S
C865 C179 1.853 . S
C873 C289 1.903 . S
C897 C375 1.250 . S
C905 C15 1.238 . S
C929 C410 1.731 . S
C937 C50 1.697 . S
C961 C99 3.888 . S
C969 C539 3.877 . S
C993 C329 0.856 . S
C1001 C129 0.855 . S
C1025 C449 0.828 . S
C1033 C169 0.819 . S
C1057 C575 1.253 . S
C1065 C215 1.253 . S
C1089 C250 1.705 . S
C1097 C490 1.713 . S
C1121 C619 3.888 . S
C1129 C299 3.872 . S
C1153 C339 1.846 . S
C1161 C529 1.903 . S
C1185 C370 1.225 . S
C1193 C326 1.241 . S
C1217 C418 0.910 . S
C1225 C378 0.899 . S
C1249 C578 1.836 . S
C1257 C459 1.814 . S
C1281 C498 0.807 . S
C1289 C609 0.854 . S
C1313 C450 1.804 . S
C1321 C9 1.834 . S
C1345 C486 1.104 . S
C1353 C19 1.171 . S
C1377 C489 0.891 . S
C1385 C98 0.854 . S
C1409 C95 1.566 . S
C1417 C455 1.560 . S
C1441 C379 1.268 . S
C1449 C175 1.227 . S
C1473 C369 0.873 . S
C1481 C249 0.883 . S
C1505 C535 1.246 . S
C1513 C246 1.271 . S
C1537 C170 1.864 . S
C1545 C538 1.901 . S
C1569 C206 1.261 . S
C1577 C6 1.243 . S
C1601 C419 1.716 . S
C1609 C499 1.699 . S
C1633 C90 3.877 . S
C1641 C290 3.870 . S
C1665 C338 0.897 . S
C1673 C458 0.864 . S
C1697 C138 0.863 . S
C1705 C178 0.846 . S
C1729 C366 1.245 . S
C1737 C566 1.248 . S
C1761 C259 1.744 . S
C1769 C59 1.695 . S
C1793 C610 3.882 . S
C1801 C530 3.877 . S
C1825 C330 1.834 . S
C1833 C298 1.900 . S
C1857 C335 1.258 . S
C1865 C219 1.240 . S
C1889 C409 0.904 . S
C1897 C209 0.900 . S
C1921 C130 1.828 . S
C1929 C569 1.827 . S
C1953 C49 0.857 . S
C1961 C618 0.865 . S
C1985 C495 1.122 . S
C1993 C570 1.178 . S
C2017 C446 1.524 . S
C2025 C606 1.581 . S
C2049 C415 1.284 . S
C2057 C526 1.253 . S
C2081 C579 1.188 . S
C2089 C46 1.149 . S
C2113 C135 1.550 . S
C2121 C615 1.574 . S
C2145 C295 1.273 . S
C2153 C406 1.279 . S
