# Generated by pormake.
# Topology ske, (6)-cn, num edge types: 1
# Building blocks:
#     Node 0, Type 0, BuildingBlock: KUMBUR_clean_sbu_0, # of connection points: 6
#     Node 1, Type 0, BuildingBlock: KUMBUR_clean_sbu_0, # of connection points: 6
#     Node 2, Type 0, BuildingBlock: KUMBUR_clean_sbu_0, # of connection points: 6
#     Node 3, Type 0, BuildingBlock: KUMBUR_clean_sbu_0, # of connection points: 6
#     Node 4, Type 0, BuildingBlock: KUMBUR_clean_sbu_0, # of connection points: 6
#     Node 5, Type 0, BuildingBlock: KUMBUR_clean_sbu_0, # of connection points: 6
#     Node 6, Type 0, BuildingBlock: KUMBUR_clean_sbu_0, # of connection points: 6
#     Node 7, Type 0, BuildingBlock: KUMBUR_clean_sbu_0, # of connection points: 6
#     Edge 8, Type (0, 0), BuildingBlock: UVAHIK_clean_linker_0, # of connection points: 2
#     Edge 9, Type (0, 0), BuildingBlock: UVAHIK_clean_linker_0, # of connection points: 2
#     Edge 10, Type (0, 0), BuildingBlock: UVAHIK_clean_linker_0, # of connection points: 2
#     Edge 11, Type (0, 0), BuildingBlock: UVAHIK_clean_linker_0, # of connection points: 2
#     Edge 12, Type (0, 0), BuildingBlock: UVAHIK_clean_linker_0, # of connection points: 2
#     Edge 13, Type (0, 0), BuildingBlock: UVAHIK_clean_linker_0, # of connection points: 2
#     Edge 14, Type (0, 0), BuildingBlock: UVAHIK_clean_linker_0, # of connection points: 2
#     Edge 15, Type (0, 0), BuildingBlock: UVAHIK_clean_linker_0, # of connection points: 2
#     Edge 16, Type (0, 0), BuildingBlock: UVAHIK_clean_linker_0, # of connection points: 2
#     Edge 17, Type (0, 0), BuildingBlock: UVAHIK_clean_linker_0, # of connection points: 2
#     Edge 18, Type (0, 0), BuildingBlock: UVAHIK_clean_linker_0, # of connection points: 2
#     Edge 19, Type (0, 0), BuildingBlock: UVAHIK_clean_linker_0, # of connection points: 2
#     Edge 20, Type (0, 0), BuildingBlock: UVAHIK_clean_linker_0, # of connection points: 2
#     Edge 21, Type (0, 0), BuildingBlock: UVAHIK_clean_linker_0, # of connection points: 2
#     Edge 22, Type (0, 0), BuildingBlock: UVAHIK_clean_linker_0, # of connection points: 2
#     Edge 23, Type (0, 0), BuildingBlock: UVAHIK_clean_linker_0, # of connection points: 2
#     Edge 24, Type (0, 0), BuildingBlock: UVAHIK_clean_linker_0, # of connection points: 2
#     Edge 25, Type (0, 0), BuildingBlock: UVAHIK_clean_linker_0, # of connection points: 2
#     Edge 26, Type (0, 0), BuildingBlock: UVAHIK_clean_linker_0, # of connection points: 2
#     Edge 27, Type (0, 0), BuildingBlock: UVAHIK_clean_linker_0, # of connection points: 2
#     Edge 28, Type (0, 0), BuildingBlock: UVAHIK_clean_linker_0, # of connection points: 2
#     Edge 29, Type (0, 0), BuildingBlock: UVAHIK_clean_linker_0, # of connection points: 2
#     Edge 30, Type (0, 0), BuildingBlock: UVAHIK_clean_linker_0, # of connection points: 2
#     Edge 31, Type (0, 0), BuildingBlock: UVAHIK_clean_linker_0, # of connection points: 2
# Relax obj value: 0.119
# Max RMSD: 0.190
# Mean RMSD: 0.185
data_MOF--net-ske--node1-KUMBUR_clean_sbu_0--edge1-UVAHIK_clean_linker_0
_symmetry_space_group_name_H-M    P1
_symmetry_Int_Tables_number       1
_symmetry_cell_setting            triclinic
loop_
_symmetry_equiv_pos_as_xyz
'x, y, z'
_cell_length_a     114.82496
_cell_length_b     39.12319
_cell_length_c     18.89045
_cell_angle_alpha  90.03518
_cell_angle_beta   89.962687
_cell_angle_gamma 115.71726
loop_
_atom_site_label
_atom_site_type_symbol
_atom_site_fract_x
_atom_site_fract_y
_atom_site_fract_z
_atom_type_partial_charge
Tb0 Tb 0.1163 0.22723 0.59252 0.0
C1 C 0.16649 0.33123 0.45681 0.0
C2 C 0.16742 0.30042 0.34739 0.0
C3 C 0.17757 0.36928 0.3548 0.0
C4 C 0.16324 0.2985 0.4181 0.0
C5 C 0.17403 0.367 0.42646 0.0
C6 C 0.17426 0.336 0.31527 0.0
C7 C 0.1752 0.39496 0.5419 0.0
N8 N 0.16313 0.32764 0.52619 0.0
C9 C 0.16778 0.35877 0.56965 0.0
C10 C 0.17818 0.39917 0.46977 0.0
Tb11 Tb 0.15072 0.26727 0.56652 0.0
N12 N 0.15683 0.26477 0.45161 0.0
C13 C 0.15515 0.23181 0.41856 0.0
C14 C 0.16501 0.26659 0.31204 0.0
C15 C 0.15904 0.23219 0.34821 0.0
H16 H 0.16545 0.35584 0.62536 0.0
H17 H 0.15736 0.20589 0.32183 0.0
H18 H 0.1774 0.33807 0.26069 0.0
H19 H 0.17859 0.41957 0.57614 0.0
H20 H 0.15048 0.20488 0.44529 0.0
H21 H 0.11102 0.28439 0.8458 0.0
H22 H 0.16802 0.26679 0.2576 0.0
H23 H 0.09675 0.14293 0.52283 0.0
H24 H 0.11719 0.28813 0.72096 0.0
H25 H 0.08252 0.07913 0.56696 0.0
H26 H 0.18323 0.39652 0.33016 0.0
H27 H 0.1004 0.22214 0.90535 0.0
H28 H 0.09006 0.15114 0.89526 0.0
H29 H 0.18399 0.4272 0.44851 0.0
H30 H 0.08226 0.0947 0.81869 0.0
N31 N 0.11093 0.22836 0.70921 0.0
C32 C 0.11271 0.26059 0.74546 0.0
C33 C 0.10316 0.2235 0.8502 0.0
C34 C 0.10019 0.19043 0.81098 0.0
C35 C 0.10913 0.25868 0.81672 0.0
C36 C 0.10402 0.19381 0.73932 0.0
H37 H 0.07908 0.06766 0.69569 0.0
N38 N 0.10214 0.16711 0.62578 0.0
C39 C 0.08736 0.1021 0.60396 0.0
C40 C 0.09952 0.16206 0.69616 0.0
C41 C 0.09546 0.13839 0.57914 0.0
C42 C 0.08548 0.09571 0.67667 0.0
C43 C 0.09125 0.12613 0.72366 0.0
O44 O 0.1084 0.24871 0.51263 0.0
O45 O 0.13193 0.24707 0.5162 0.0
O46 O 0.14351 0.30837 0.53427 0.0
O47 O 0.12572 0.28906 0.60818 0.0
O48 O 0.11537 0.20077 0.48859 0.0
O49 O 0.09807 0.22722 0.60862 0.0
O50 O 0.16715 0.2869 0.63266 0.0
O51 O 0.13503 0.24443 0.64396 0.0
O52 O 0.12086 0.17856 0.59882 0.0
O53 O 0.14263 0.20495 0.56375 0.0
O54 O 0.15126 0.29115 0.67242 0.0
O55 O 0.16241 0.238 0.56662 0.0
C56 C 0.12673 0.22357 0.46608 0.0
C57 C 0.0855 0.21941 0.50596 0.0
C58 C 0.06304 0.20731 0.48149 0.0
C59 C 0.0747 0.22672 0.51935 0.0
C60 C 0.06238 0.18013 0.43078 0.0
C61 C 0.08456 0.19246 0.45449 0.0
C62 C 0.07306 0.1729 0.41745 0.0
C63 C 0.13442 0.31472 0.56667 0.0
C64 C 0.09762 0.24003 0.54604 0.0
C65 C 0.08842 0.12218 0.79637 0.0
C66 C 0.09287 0.15432 0.83998 0.0
C67 C 0.14024 0.26692 0.69531 0.0
C68 C 0.18461 0.27551 0.59044 0.0
C69 C 0.1929 0.26384 0.62803 0.0
C70 C 0.20598 0.27663 0.60731 0.0
C71 C 0.21059 0.30157 0.54944 0.0
C72 C 0.18957 0.30031 0.53306 0.0
C73 C 0.20243 0.31327 0.51279 0.0
C74 C 0.1316 0.17585 0.58131 0.0
C75 C 0.17082 0.26156 0.61048 0.0
H76 H 0.07548 0.24791 0.5584 0.0
H77 H 0.05354 0.16406 0.40174 0.0
H78 H 0.0927 0.18646 0.44265 0.0
H79 H 0.07241 0.15198 0.37818 0.0
H80 H 0.18916 0.24452 0.67232 0.0
H81 H 0.22059 0.31251 0.53293 0.0
H82 H 0.18353 0.30978 0.50375 0.0
H83 H 0.20611 0.33254 0.46847 0.0
Tb84 Tb 0.89706 0.27197 0.58123 0.0
C85 C 0.84766 0.15543 0.4438 0.0
C86 C 0.84566 0.18191 0.33145 0.0
C87 C 0.83705 0.11352 0.34522 0.0
C88 C 0.85007 0.18659 0.40207 0.0
C89 C 0.8409 0.11845 0.41653 0.0
C90 C 0.83943 0.14523 0.30271 0.0
C91 C 0.84133 0.09427 0.53361 0.0
N92 N 0.85138 0.16155 0.51259 0.0
C93 C 0.84792 0.13154 0.55828 0.0
C94 C 0.83791 0.08766 0.46225 0.0
Tb95 Tb 0.8626 0.22369 0.54771 0.0
N96 N 0.85598 0.22141 0.4323 0.0
C97 C 0.85695 0.25271 0.39569 0.0
C98 C 0.84729 0.21411 0.29269 0.0
C99 C 0.85279 0.24961 0.32535 0.0
H100 H 0.85057 0.13611 0.61343 0.0
H101 H 0.85391 0.27467 0.29626 0.0
H102 H 0.83611 0.14106 0.24831 0.0
H103 H 0.83889 0.07067 0.56966 0.0
H104 H 0.86126 0.28045 0.41953 0.0
H105 H 0.90505 0.21876 0.83161 0.0
H106 H 0.84409 0.21179 0.23821 0.0
H107 H 0.90938 0.35959 0.51665 0.0
H108 H 0.89767 0.21387 0.70816 0.0
H109 H 0.92168 0.42484 0.56103 0.0
H110 H 0.83195 0.08534 0.32299 0.0
H111 H 0.91528 0.2814 0.89039 0.0
H112 H 0.92374 0.3523 0.88124 0.0
H113 H 0.83275 0.05878 0.44337 0.0
H114 H 0.92827 0.40856 0.80746 0.0
N115 N 0.90327 0.27316 0.69687 0.0
C116 C 0.90212 0.24147 0.73276 0.0
C117 C 0.91205 0.27946 0.83603 0.0
C118 C 0.91388 0.31202 0.7978 0.0
C119 C 0.9063 0.24408 0.80298 0.0
C120 C 0.90943 0.30785 0.72731 0.0
H121 H 0.92774 0.43591 0.68753 0.0
N122 N 0.9081 0.3338 0.61756 0.0
C123 C 0.91893 0.40105 0.59692 0.0
C124 C 0.91191 0.33934 0.68624 0.0
C125 C 0.91196 0.36399 0.57195 0.0
C126 C 0.9223 0.40719 0.66841 0.0
C127 C 0.91899 0.37611 0.71384 0.0
O128 O 0.91356 0.29165 0.51592 0.0
O129 O 0.88184 0.248 0.50271 0.0
O130 O 0.87129 0.18651 0.51494 0.0
O131 O 0.88957 0.20936 0.58666 0.0
O132 O 0.89803 0.29367 0.47225 0.0
O133 O 0.90977 0.24603 0.58912 0.0
O134 O 0.84619 0.20428 0.614 0.0
O135 O 0.87784 0.24804 0.62667 0.0
O136 O 0.88847 0.31054 0.60874 0.0
O137 O 0.87029 0.28572 0.53633 0.0
O138 O 0.86203 0.20086 0.65522 0.0
O139 O 0.85048 0.25158 0.54446 0.0
C140 C 0.88695 0.26941 0.45007 0.0
C141 C 0.93176 0.28814 0.56904 0.0
C142 C 0.95274 0.28697 0.58742 0.0
C143 C 0.93984 0.26946 0.5626 0.0
C144 C 0.95737 0.32314 0.61848 0.0
C145 C 0.93686 0.32467 0.59867 0.0
C146 C 0.9495 0.34183 0.62369 0.0
C147 C 0.88092 0.18251 0.54632 0.0
C148 C 0.9181 0.26969 0.54506 0.0
C149 C 0.92293 0.38054 0.78499 0.0
C150 C 0.92036 0.34852 0.82697 0.0
C151 C 0.87294 0.22565 0.67825 0.0
C152 C 0.82841 0.2129 0.56899 0.0
C153 C 0.81988 0.22459 0.60415 0.0
C154 C 0.80678 0.21021 0.58325 0.0
C155 C 0.80238 0.18383 0.52743 0.0
C156 C 0.82366 0.1864 0.51393 0.0
C157 C 0.81077 0.17203 0.49328 0.0
C158 C 0.879 0.31383 0.57394 0.0
C159 C 0.8422 0.22844 0.58938 0.0
H160 H 0.93611 0.24146 0.53897 0.0
H161 H 0.96725 0.33742 0.63729 0.0
H162 H 0.93118 0.34036 0.60197 0.0
H163 H 0.95326 0.36995 0.64662 0.0
H164 H 0.82347 0.24507 0.64682 0.0
H165 H 0.79237 0.17177 0.51082 0.0
H166 H 0.82988 0.17666 0.4869 0.0
H167 H 0.80724 0.15152 0.45072 0.0
Tb168 Tb 0.15088 0.76765 0.47197 0.0
C169 C 0.0997 0.66201 0.34287 0.0
C170 C 0.10034 0.69027 0.22805 0.0
C171 C 0.08861 0.62202 0.24273 0.0
C172 C 0.10418 0.69373 0.29968 0.0
C173 C 0.09145 0.62603 0.31542 0.0
C174 C 0.09304 0.65413 0.1991 0.0
C175 C 0.08759 0.60208 0.43515 0.0
N176 N 0.10233 0.66711 0.41323 0.0
C177 C 0.09567 0.63841 0.45991 0.0
C178 C 0.08571 0.59564 0.36245 0.0
Tb179 Tb 0.11646 0.72728 0.4464 0.0
N180 N 0.11107 0.72831 0.32976 0.0
C181 C 0.11281 0.76049 0.29353 0.0
C182 C 0.10329 0.72331 0.18883 0.0
C183 C 0.10922 0.75851 0.2223 0.0
H184 H 0.09696 0.643 0.51622 0.0
H185 H 0.11108 0.78419 0.19322 0.0
H186 H 0.09023 0.6509 0.14384 0.0
H187 H 0.08276 0.57913 0.47218 0.0
H188 H 0.11727 0.78804 0.31802 0.0
H189 H 0.15775 0.70656 0.71624 0.0
H190 H 0.10051 0.72189 0.1337 0.0
H191 H 0.16542 0.85627 0.41319 0.0
H192 H 0.15079 0.70541 0.59299 0.0
H193 H 0.17849 0.92005 0.46237 0.0
H194 H 0.08247 0.59451 0.22046 0.0
H195 H 0.16841 0.76751 0.78037 0.0
H196 H 0.1777 0.83877 0.77732 0.0
H197 H 0.07931 0.56756 0.34347 0.0
H198 H 0.18337 0.89716 0.70801 0.0
N199 N 0.15709 0.76528 0.58667 0.0
C200 C 0.15546 0.73237 0.61966 0.0
C201 C 0.16537 0.76725 0.726 0.0
C202 C 0.16772 0.80103 0.69072 0.0
C203 C 0.1594 0.73282 0.6899 0.0
C204 C 0.16349 0.79904 0.62012 0.0
H205 H 0.18398 0.92776 0.58986 0.0
N206 N 0.16321 0.8281 0.51227 0.0
C207 C 0.17516 0.89545 0.49657 0.0
C208 C 0.16663 0.83173 0.58156 0.0
C209 C 0.16778 0.85923 0.46884 0.0
C210 C 0.1782 0.89971 0.56862 0.0
C211 C 0.17413 0.86755 0.61187 0.0
O212 O 0.16724 0.78731 0.40519 0.0
O213 O 0.13518 0.74454 0.39458 0.0
O214 O 0.12106 0.6787 0.4402 0.0
O215 O 0.14287 0.70533 0.47471 0.0
O216 O 0.15137 0.79154 0.36627 0.0
O217 O 0.16271 0.73879 0.47186 0.0
O218 O 0.10858 0.74885 0.52636 0.0
O219 O 0.1321 0.74718 0.52238 0.0
O220 O 0.1436 0.80853 0.50465 0.0
O221 O 0.12583 0.7891 0.43072 0.0
O222 O 0.11558 0.70094 0.55038 0.0
O223 O 0.09819 0.72701 0.4307 0.0
C224 C 0.14037 0.76715 0.34337 0.0
C225 C 0.18486 0.77667 0.44699 0.0
C226 C 0.2062 0.7775 0.43076 0.0
C227 C 0.19307 0.76412 0.41081 0.0
C228 C 0.21094 0.80387 0.48647 0.0
C229 C 0.18994 0.8029 0.50221 0.0
C230 C 0.20286 0.81641 0.52174 0.0
C231 C 0.13184 0.67612 0.45746 0.0
C232 C 0.17103 0.76229 0.42753 0.0
C233 C 0.17774 0.86989 0.6834 0.0
C234 C 0.17452 0.83665 0.72282 0.0
C235 C 0.12695 0.72378 0.57267 0.0
C236 C 0.08569 0.71939 0.53366 0.0
C237 C 0.07489 0.72669 0.52066 0.0
C238 C 0.06325 0.70729 0.55878 0.0
C239 C 0.06263 0.68013 0.60938 0.0
C240 C 0.0848 0.69247 0.58505 0.0
C241 C 0.07332 0.67292 0.62235 0.0
C242 C 0.13449 0.81478 0.47233 0.0
C243 C 0.09777 0.73998 0.49322 0.0
H244 H 0.18923 0.74372 0.36817 0.0
H245 H 0.22099 0.8153 0.50228 0.0
H246 H 0.18398 0.81313 0.53029 0.0
H247 H 0.20665 0.83679 0.56436 0.0
H248 H 0.07564 0.74788 0.4817 0.0
H249 H 0.05381 0.66406 0.63861 0.0
H250 H 0.09294 0.68648 0.5966 0.0
H251 H 0.07269 0.65202 0.66155 0.0
Tb252 Tb 0.86289 0.72445 0.49384 0.0
C253 C 0.91255 0.84013 0.35804 0.0
C254 C 0.91476 0.81314 0.2465 0.0
C255 C 0.92383 0.88163 0.26017 0.0
C256 C 0.91013 0.80875 0.31667 0.0
C257 C 0.9197 0.87698 0.33102 0.0
C258 C 0.92135 0.84974 0.21793 0.0
C259 C 0.91932 0.90159 0.44791 0.0
N260 N 0.90855 0.8344 0.42644 0.0
C261 C 0.91229 0.86447 0.47234 0.0
C262 C 0.92289 0.90793 0.3767 0.0
Tb263 Tb 0.89746 0.77246 0.46188 0.0
N264 N 0.90387 0.77394 0.34651 0.0
C265 C 0.90278 0.74236 0.31036 0.0
C266 C 0.91299 0.78071 0.20798 0.0
C267 C 0.90713 0.74521 0.24044 0.0
H268 H 0.90956 0.85991 0.52744 0.0
H269 H 0.90592 0.71998 0.21158 0.0
H270 H 0.92488 0.8537 0.16392 0.0
H271 H 0.92197 0.92528 0.484 0.0
H272 H 0.89825 0.71466 0.33447 0.0
H273 H 0.855 0.77626 0.74678 0.0
H274 H 0.91637 0.78283 0.15386 0.0
H275 H 0.8482 0.63772 0.42639 0.0
H276 H 0.86189 0.78158 0.62282 0.0
H277 H 0.83615 0.57224 0.4697 0.0
H278 H 0.92925 0.90971 0.23816 0.0
H279 H 0.84535 0.7136 0.80556 0.0
H280 H 0.83709 0.64274 0.79548 0.0
H281 H 0.92839 0.9367 0.358 0.0
H282 H 0.832 0.58679 0.7197 0.0
N283 N 0.85659 0.7225 0.61014 0.0
C284 C 0.85767 0.75392 0.64684 0.0
C285 C 0.84837 0.71572 0.75075 0.0
C286 C 0.84652 0.68336 0.71183 0.0
C287 C 0.85376 0.75108 0.71766 0.0
C288 C 0.85067 0.6878 0.64071 0.0
H289 H 0.83139 0.56016 0.59749 0.0
N290 N 0.8509 0.66267 0.529 0.0
C291 C 0.83943 0.5957 0.50667 0.0
C292 C 0.84776 0.65658 0.59849 0.0
C293 C 0.84627 0.63293 0.48231 0.0
C294 C 0.83681 0.58898 0.57884 0.0
C295 C 0.8407 0.6197 0.62558 0.0
O296 O 0.84678 0.7072 0.42555 0.0
O297 O 0.8783 0.74892 0.41585 0.0
O298 O 0.88893 0.81098 0.43363 0.0
O299 O 0.8709 0.78651 0.50684 0.0
O300 O 0.86234 0.70233 0.38587 0.0
O301 O 0.85104 0.75319 0.49796 0.0
O302 O 0.91384 0.79237 0.52801 0.0
O303 O 0.88212 0.74714 0.53986 0.0
O304 O 0.87062 0.68363 0.51676 0.0
O305 O 0.89033 0.71022 0.45558 0.0
O306 O 0.89809 0.79378 0.57051 0.0
O307 O 0.91032 0.74704 0.45435 0.0
C308 C 0.87338 0.72682 0.36383 0.0
C309 C 0.82902 0.71582 0.47083 0.0
C310 C 0.8074 0.71287 0.45393 0.0
C311 C 0.82056 0.72713 0.43404 0.0
C312 C 0.80289 0.68684 0.51027 0.0
C313 C 0.82419 0.68996 0.52681 0.0
C314 C 0.81123 0.67554 0.54625 0.0
C315 C 0.87956 0.81455 0.46899 0.0
C316 C 0.84286 0.73122 0.45147 0.0
C317 C 0.8373 0.6149 0.69757 0.0
C318 C 0.84019 0.64674 0.74069 0.0
C319 C 0.88713 0.76874 0.5925 0.0
C320 C 0.93222 0.78945 0.47576 0.0
C321 C 0.94028 0.77066 0.48137 0.0
C322 C 0.95321 0.78839 0.4572 0.0
C323 C 0.95792 0.8249 0.42761 0.0
C324 C 0.93739 0.82632 0.44765 0.0
C325 C 0.95007 0.84371 0.42326 0.0
C326 C 0.88082 0.6816 0.48807 0.0
C327 C 0.91852 0.7707 0.49894 0.0
H328 H 0.82425 0.74732 0.391 0.0
H329 H 0.79283 0.67474 0.52612 0.0
H330 H 0.83041 0.68085 0.55562 0.0
H331 H 0.80762 0.65546 0.58943 0.0
H332 H 0.9365 0.7424 0.50384 0.0
H333 H 0.96783 0.83934 0.40931 0.0
H334 H 0.93172 0.84208 0.44503 0.0
H335 H 0.95388 0.87208 0.40147 0.0
Tb336 Tb 0.61746 0.71901 0.08982 0.0
C337 C 0.66725 0.83823 0.95843 0.0
C338 C 0.66971 0.81264 0.84595 0.0
C339 C 0.67826 0.88091 0.86151 0.0
C340 C 0.66503 0.80741 0.91608 0.0
C341 C 0.67414 0.87542 0.93237 0.0
C342 C 0.67605 0.84953 0.81832 0.0
C343 C 0.67333 0.89869 0.0498 0.0
N344 N 0.66329 0.83158 0.02678 0.0
C345 C 0.6666 0.86124 0.07325 0.0
C346 C 0.677 0.90585 0.97886 0.0
Tb347 Tb 0.652 0.76919 0.06013 0.0
N348 N 0.65905 0.77238 0.94532 0.0
C349 C 0.65829 0.7414 0.9083 0.0
C350 C 0.66826 0.78076 0.80664 0.0
C351 C 0.6627 0.74504 0.83836 0.0
H352 H 0.66378 0.85628 0.12811 0.0
H353 H 0.66173 0.72021 0.80889 0.0
H354 H 0.67959 0.85412 0.76433 0.0
H355 H 0.67567 0.92201 0.08649 0.0
H356 H 0.65395 0.7135 0.93138 0.0
H357 H 0.60829 0.76881 0.34118 0.0
H358 H 0.67168 0.7835 0.75252 0.0
H359 H 0.60601 0.63196 0.02184 0.0
H360 H 0.61623 0.77537 0.2185 0.0
H361 H 0.59361 0.56623 0.06309 0.0
H362 H 0.68347 0.90925 0.8402 0.0
H363 H 0.5978 0.70538 0.39675 0.0
H364 H 0.58939 0.63465 0.3843 0.0
H365 H 0.68227 0.93488 0.96093 0.0
H366 H 0.58534 0.57942 0.30843 0.0
N367 N 0.61075 0.71629 0.20482 0.0
C368 C 0.6117 0.74746 0.24187 0.0
C369 C 0.6013 0.70808 0.34281 0.0
C370 C 0.59966 0.67605 0.30328 0.0
C371 C 0.60719 0.7439 0.31157 0.0
C372 C 0.60446 0.68118 0.2334 0.0
H373 H 0.58667 0.55363 0.18819 0.0
N374 N 0.60648 0.65666 0.12317 0.0
C375 C 0.59603 0.58959 0.09975 0.0
C376 C 0.60221 0.65024 0.19106 0.0
C377 C 0.60307 0.62696 0.07656 0.0
C378 C 0.59216 0.58259 0.17044 0.0
C379 C 0.59507 0.6131 0.21687 0.0
O380 O 0.60184 0.70128 1.01867 0.0
O381 O 0.63293 0.74459 1.013 0.0
O382 O 0.64326 0.80639 0.02801 0.0
O383 O 0.62448 0.78151 0.09618 0.0
O384 O 0.61716 0.69779 0.98129 0.0
O385 O 0.60381 0.74165 0.10024 0.0
O386 O 0.66805 0.78831 0.12899 0.0
O387 O 0.63651 0.74369 0.13736 0.0
O388 O 0.62618 0.68072 0.11723 0.0
O389 O 0.6447 0.70732 0.04753 0.0
O390 O 0.652 0.79147 0.16732 0.0
O391 O 0.66434 0.742 0.05776 0.0
C392 C 0.62818 0.72294 0.96016 0.0
C393 C 0.58241 0.69896 0.06678 0.0
C394 C 0.56051 0.69502 0.07133 0.0
C395 C 0.57395 0.71641 0.0606 0.0
C396 C 0.55573 0.65659 0.08999 0.0
C397 C 0.57726 0.66042 0.08544 0.0
C398 C 0.56407 0.63955 0.09742 0.0
C399 C 0.63326 0.80921 0.05776 0.0
C400 C 0.5964 0.72023 0.05041 0.0
C401 C 0.59074 0.60773 0.28736 0.0
C402 C 0.59305 0.63917 0.33055 0.0
C403 C 0.64111 0.7661 0.18926 0.0
C404 C 0.68621 0.78082 0.08646 0.0
C405 C 0.69456 0.7687 0.12219 0.0
C406 C 0.7078 0.78366 0.10371 0.0
C407 C 0.71249 0.8111 0.04974 0.0
C408 C 0.69124 0.80825 0.03315 0.0
C409 C 0.70427 0.82326 1.01495 0.0
C410 C 0.63596 0.67849 0.08352 0.0
C411 C 0.67229 0.7647 0.10441 0.0
H412 H 0.57771 0.74603 0.04564 0.0
H413 H 0.54549 0.6397 0.09891 0.0
H414 H 0.58334 0.64599 0.08957 0.0
H415 H 0.56028 0.60986 0.11162 0.0
H416 H 0.69074 0.74741 0.16337 0.0
H417 H 0.72262 0.82366 0.03502 0.0
H418 H 0.68513 0.81822 1.00559 0.0
H419 H 0.70802 0.84451 0.97377 0.0
Tb420 Tb 0.39795 0.77534 0.0872 0.0
C421 C 0.3486 0.65687 0.95235 0.0
C422 C 0.34625 0.68286 0.84019 0.0
C423 C 0.33796 0.61457 0.85431 0.0
C424 C 0.35078 0.68784 0.91058 0.0
C425 C 0.34194 0.61978 0.9254 0.0
C426 C 0.34011 0.6461 0.81173 0.0
C427 C 0.34272 0.59599 0.04235 0.0
N428 N 0.35245 0.66324 1.02093 0.0
C429 C 0.34922 0.63335 0.06673 0.0
C430 C 0.33918 0.58915 0.9712 0.0
Tb431 Tb 0.36348 0.72554 0.05553 0.0
N432 N 0.35661 0.72275 0.94051 0.0
C433 C 0.35739 0.75383 0.90385 0.0
C434 C 0.34768 0.71485 0.80134 0.0
C435 C 0.35311 0.75043 0.83371 0.0
H436 H 0.35196 0.63809 0.12172 0.0
H437 H 0.35408 0.77533 0.80457 0.0
H438 H 0.3367 0.64171 0.75751 0.0
H439 H 0.34047 0.57251 0.07848 0.0
H440 H 0.36164 0.78162 0.92746 0.0
H441 H 0.4067 0.72482 0.33858 0.0
H442 H 0.34438 0.7123 0.74702 0.0
H443 H 0.40911 0.86266 1.02064 0.0
H444 H 0.3989 0.71858 0.21565 0.0
H445 H 0.42137 0.92829 0.0629 0.0
H446 H 0.33292 0.58631 0.83232 0.0
H447 H 0.41717 0.78813 0.39475 0.0
H448 H 0.4256 0.85889 0.38298 0.0
H449 H 0.33411 0.56019 0.95255 0.0
H450 H 0.42967 0.91433 0.30777 0.0
N451 N 0.40447 0.77772 0.20244 0.0
C452 C 0.40343 0.74643 0.2393 0.0
C453 C 0.41374 0.78557 0.34068 0.0
C454 C 0.41545 0.81771 0.30138 0.0
C455 C 0.40786 0.74982 0.30913 0.0
C456 C 0.41075 0.81277 0.23135 0.0
H457 H 0.42831 0.94048 0.18801 0.0
N458 N 0.40876 0.83762 0.12143 0.0
C459 C 0.41903 0.9048 0.09912 0.0
C460 C 0.413 0.84384 0.18936 0.0
C461 C 0.41207 0.8675 0.07536 0.0
C462 C 0.4229 0.91157 0.16982 0.0
C463 C 0.42005 0.8809 0.21572 0.0
O464 O 0.41387 0.79383 1.01792 0.0
O465 O 0.38263 0.75039 1.00947 0.0
O466 O 0.37238 0.68901 0.0222 0.0
O467 O 0.39088 0.71274 0.0924 0.0
O468 O 0.39855 0.79683 0.9785 0.0
O469 O 0.41155 0.75254 0.09823 0.0
O470 O 0.34724 0.70576 0.12306 0.0
O471 O 0.37881 0.75055 0.13374 0.0
O472 O 0.3891 0.81317 0.11569 0.0
O473 O 0.37084 0.78751 0.04403 0.0
O474 O 0.36323 0.70286 0.16272 0.0
O475 O 0.35107 0.75252 0.0528 0.0
C476 C 0.38752 0.77201 0.95681 0.0
C477 C 0.43307 0.7966 0.07034 0.0
C478 C 0.45472 0.80025 0.09114 0.0
C479 C 0.44156 0.77906 0.07237 0.0
C480 C 0.45916 0.83898 0.10752 0.0
C481 C 0.43797 0.83543 0.08631 0.0
C482 C 0.45085 0.85628 0.10516 0.0
C483 C 0.38217 0.68551 0.05281 0.0
C484 C 0.41925 0.77491 0.05033 0.0
C485 C 0.42433 0.88607 0.28629 0.0
C486 C 0.42201 0.85451 0.32911 0.0
C487 C 0.3741 0.72803 0.18535 0.0
C488 C 0.32913 0.71305 0.07919 0.0
C489 C 0.32061 0.72501 0.11366 0.0
C490 C 0.30743 0.70978 0.09392 0.0
C491 C 0.30296 0.68228 0.03998 0.0
C492 C 0.32431 0.68547 0.02596 0.0
C493 C 0.31134 0.67025 1.00648 0.0
C494 C 0.37949 0.81593 0.08128 0.0
C495 C 0.34299 0.72936 0.09848 0.0
H496 H 0.43793 0.74919 0.05966 0.0
H497 H 0.46921 0.85632 0.12062 0.0
H498 H 0.43196 0.85009 0.08323 0.0
H499 H 0.45445 0.88621 0.11709 0.0
H500 H 0.32425 0.74634 0.15489 0.0
H501 H 0.29289 0.66954 0.02434 0.0
H502 H 0.33053 0.67552 0.9995 0.0
H503 H 0.30776 0.64889 0.96537 0.0
Tb504 Tb 0.64993 0.26213 0.97402 0.0
C505 C 0.59831 0.15899 0.84601 0.0
C506 C 0.59908 0.18745 0.73126 0.0
C507 C 0.58692 0.11935 0.74609 0.0
C508 C 0.60299 0.1907 0.80277 0.0
C509 C 0.58982 0.12323 0.81871 0.0
C510 C 0.59153 0.15145 0.70242 0.0
C511 C 0.58583 0.0994 0.9385 0.0
N512 N 0.60098 0.16399 0.91633 0.0
C513 C 0.59416 0.13553 0.96313 0.0
C514 C 0.58389 0.09297 0.86584 0.0
Tb515 Tb 0.61547 0.22378 0.94937 0.0
N516 N 0.61009 0.22517 0.83277 0.0
C517 C 0.61201 0.25753 0.7966 0.0
C518 C 0.60221 0.2206 0.69208 0.0
C519 C 0.60838 0.25575 0.72549 0.0
H520 H 0.59551 0.14012 1.01941 0.0
H521 H 0.61039 0.28154 0.69645 0.0
H522 H 0.58867 0.14837 0.64725 0.0
H523 H 0.58087 0.0766 0.97562 0.0
H524 H 0.61666 0.28506 0.821 0.0
H525 H 0.65538 0.19585 0.21542 0.0
H526 H 0.5994 0.21935 0.63705 0.0
H527 H 0.66659 0.35074 0.91963 0.0
H528 H 0.64909 0.19727 0.09176 0.0
H529 H 0.67964 0.4136 0.97292 0.0
H530 H 0.58059 0.09199 0.72392 0.0
H531 H 0.66582 0.25545 0.28383 0.0
H532 H 0.67537 0.32677 0.28541 0.0
H533 H 0.57731 0.06507 0.84696 0.0
H534 H 0.68187 0.38651 0.21926 0.0
N535 N 0.65557 0.25733 0.0891 0.0
C536 C 0.65367 0.2237 0.12016 0.0
C537 C 0.66308 0.25634 0.22923 0.0
C538 C 0.66573 0.29086 0.19599 0.0
C539 C 0.65723 0.22268 0.1907 0.0
C540 C 0.6619 0.29036 0.12493 0.0
H541 H 0.68374 0.41923 0.102 0.0
N542 N 0.66275 0.32141 1.01808 0.0
C543 C 0.67566 0.38858 1.00607 0.0
C544 C 0.66555 0.32376 0.08812 0.0
C545 C 0.66829 0.35294 0.97605 0.0
C546 C 0.6779 0.39166 0.07899 0.0
C547 C 0.67312 0.35887 0.12073 0.0
O548 O 0.6663 0.28143 0.90721 0.0
O549 O 0.63412 0.24004 0.89719 0.0
O550 O 0.61955 0.17425 0.94319 0.0
O551 O 0.64147 0.19967 0.97489 0.0
O552 O 0.65054 0.28637 0.86859 0.0
O553 O 0.66143 0.23227 0.97228 0.0
O554 O 0.60772 0.24518 0.03019 0.0
O555 O 0.63122 0.2434 0.025 0.0
O556 O 0.64358 0.30576 1.00169 0.0
O557 O 0.62481 0.28558 0.93433 0.0
O558 O 0.6146 0.19727 0.05295 0.0
O559 O 0.59738 0.22473 0.93388 0.0
C560 C 0.63941 0.26261 0.84604 0.0
C561 C 0.68365 0.26953 0.94901 0.0
C562 C 0.7051 0.27135 0.9311 0.0
C563 C 0.69206 0.25886 0.90996 0.0
C564 C 0.70957 0.29512 0.99069 0.0
C565 C 0.68845 0.29295 1.00836 0.0
C566 C 0.70129 0.30576 0.02885 0.0
C567 C 0.63024 0.17088 0.95904 0.0
C568 C 0.66989 0.25587 0.92872 0.0
C569 C 0.6762 0.35979 0.19288 0.0
C570 C 0.67251 0.32579 0.2305 0.0
C571 C 0.62599 0.21994 0.07518 0.0
C572 C 0.58483 0.21664 0.03673 0.0
C573 C 0.57407 0.22399 0.02274 0.0
C574 C 0.56235 0.20467 0.06018 0.0
C575 C 0.56161 0.17754 0.11115 0.0
C576 C 0.58382 0.18978 0.08851 0.0
C577 C 0.57226 0.1703 0.12515 0.0
C578 C 0.63426 0.31172 0.9713 0.0
C579 C 0.59698 0.23715 0.99691 0.0
H580 H 0.68842 0.24048 0.86432 0.0
H581 H 0.71955 0.30587 1.00756 0.0
H582 H 0.6823 0.30139 0.03916 0.0
H583 H 0.70485 0.32402 0.07465 0.0
H584 H 0.57491 0.24515 0.98352 0.0
H585 H 0.55272 0.16153 0.1399 0.0
H586 H 0.59194 0.18381 0.10086 0.0
H587 H 0.57154 0.14944 0.16463 0.0
Tb588 Tb 0.36297 0.22595 0.99055 0.0
C589 C 0.41248 0.34118 0.85314 0.0
C590 C 0.41451 0.31391 0.74155 0.0
C591 C 0.42363 0.38243 0.75471 0.0
C592 C 0.40998 0.30969 0.81191 0.0
C593 C 0.41964 0.37796 0.82578 0.0
C594 C 0.42106 0.35043 0.71262 0.0
C595 C 0.41959 0.40282 0.94285 0.0
N596 N 0.40864 0.33561 0.92178 0.0
C597 C 0.41255 0.36576 0.9676 0.0
C598 C 0.42298 0.409 0.87139 0.0
Tb599 Tb 0.39752 0.27378 0.95777 0.0
N600 N 0.40376 0.27496 0.84212 0.0
C601 C 0.40264 0.2433 0.80615 0.0
C602 C 0.4127 0.28137 0.70323 0.0
C603 C 0.4069 0.24597 0.73606 0.0
H604 H 0.40995 0.36129 0.02289 0.0
H605 H 0.40565 0.22066 0.70736 0.0
H606 H 0.4245 0.35424 0.65844 0.0
H607 H 0.42237 0.42657 0.97889 0.0
H608 H 0.39815 0.21566 0.83052 0.0
H609 H 0.35512 0.27681 0.24454 0.0
H610 H 0.41599 0.28336 0.64897 0.0
H611 H 0.34826 0.13941 0.92213 0.0
H612 H 0.36198 0.28256 0.12047 0.0
H613 H 0.33622 0.0738 0.96471 0.0
H614 H 0.42904 0.41045 0.73243 0.0
H615 H 0.34553 0.21396 0.30262 0.0
H616 H 0.3373 0.14315 0.29166 0.0
H617 H 0.42848 0.43772 0.85244 0.0
H618 H 0.33218 0.08746 0.21509 0.0
N619 N 0.35673 0.22356 0.10706 0.0
C620 C 0.35779 0.25483 0.14419 0.0
C621 C 0.34854 0.21627 0.24777 0.0
C622 C 0.34671 0.18406 0.20841 0.0
C623 C 0.3539 0.25174 0.21508 0.0
C624 C 0.35084 0.18875 0.13725 0.0
H625 H 0.33151 0.06127 0.09244 0.0
N626 N 0.35099 0.16402 0.02506 0.0
C627 C 0.33951 0.09713 1.00197 0.0
C628 C 0.34789 0.15769 0.09456 0.0
C629 C 0.34635 0.13445 0.97802 0.0
C630 C 0.33692 0.09015 0.07411 0.0
C631 C 0.34084 0.12071 0.12125 0.0
O632 O 0.34676 0.20877 0.92303 0.0
O633 O 0.37833 0.25051 0.91218 0.0
O634 O 0.38904 0.31268 0.93108 0.0
O635 O 0.37101 0.28801 1.00435 0.0
O636 O 0.36233 0.20399 0.88236 0.0
O637 O 0.3512 0.2549 0.99533 0.0
O638 O 0.41402 0.29386 0.02302 0.0
O639 O 0.38224 0.24854 0.03606 0.0
O640 O 0.37069 0.18504 1.01326 0.0
O641 O 0.39035 0.21147 0.95173 0.0
O642 O 0.39829 0.29499 0.06662 0.0
O643 O 0.41029 0.24808 0.9501 0.0
C644 C 0.37336 0.22847 0.86015 0.0
C645 C 0.32912 0.21761 0.96957 0.0
C646 C 0.30747 0.21455 0.9539 0.0
C647 C 0.32056 0.22849 0.93277 0.0
C648 C 0.30313 0.18928 1.01143 0.0
C649 C 0.32445 0.19241 0.02663 0.0
C650 C 0.31156 0.17832 0.04729 0.0
C651 C 0.37973 0.31624 0.9671 0.0
C652 C 0.34291 0.23288 0.94929 0.0
C653 C 0.33747 0.11565 0.19327 0.0
C654 C 0.34038 0.14735 0.23684 0.0
C655 C 0.38732 0.27004 0.08874 0.0
C656 C 0.43225 0.29032 0.9701 0.0
C657 C 0.44026 0.27141 0.97601 0.0
C658 C 0.45315 0.28877 0.95115 0.0
C659 C 0.45786 0.32503 0.92049 0.0
C660 C 0.43741 0.32694 0.94091 0.0
C661 C 0.45006 0.34397 0.91578 0.0
C662 C 0.38086 0.1829 0.98445 0.0
C663 C 0.41859 0.27191 0.99407 0.0
H664 H 0.32411 0.24812 0.8888 0.0
H665 H 0.29312 0.17753 0.02826 0.0
H666 H 0.33074 0.1836 0.05541 0.0
H667 H 0.30808 0.15879 0.09136 0.0
H668 H 0.43647 0.24333 0.99929 0.0
H669 H 0.46774 0.33922 0.90166 0.0
H670 H 0.43179 0.3428 0.938 0.0
H671 H 0.45386 0.37216 0.89317 0.0
C672 C 0.216 0.26618 0.71937 0.0
C673 C 0.21508 0.26492 0.64513 0.0
C674 C 0.22575 0.25987 0.75361 0.0
C675 C 0.24991 0.22086 0.72577 0.0
H676 H 0.26802 0.28793 0.88055 0.0
C677 C 0.29719 0.2247 0.84261 0.0
C678 C 0.29812 0.22553 0.91684 0.0
C679 C 0.28733 0.23066 0.8089 0.0
C680 C 0.263 0.26872 0.83779 0.0
H681 H 0.22322 0.2539 0.54905 0.0
H682 H 0.24017 0.24332 0.6082 0.0
H683 H 0.24965 0.29314 0.82552 0.0
H684 H 0.28984 0.23533 1.01353 0.0
H685 H 0.27271 0.24547 0.95519 0.0
H686 H 0.26329 0.19652 0.73793 0.0
C687 C 0.23342 0.24912 0.64036 0.0
C688 C 0.25241 0.27161 0.80637 0.0
C689 C 0.22374 0.25552 0.60629 0.0
C690 C 0.28931 0.23407 0.95628 0.0
C691 C 0.27953 0.2402 0.92271 0.0
C692 C 0.26051 0.21801 0.75713 0.0
C693 C 0.23473 0.25187 0.71442 0.0
C694 C 0.24571 0.24774 0.74983 0.0
C695 C 0.27825 0.23794 0.84862 0.0
C696 C 0.26721 0.24189 0.8136 0.0
H697 H 0.20952 0.2735 0.75081 0.0
H698 H 0.22633 0.26165 0.8108 0.0
H699 H 0.2449 0.20162 0.68305 0.0
H700 H 0.30378 0.21805 0.81072 0.0
H701 H 0.28675 0.22925 0.75168 0.0
C702 C 0.71532 0.26251 0.81813 0.0
C703 C 0.7143 0.26036 0.89234 0.0
C704 C 0.72517 0.25685 0.78335 0.0
C705 C 0.75766 0.26141 0.81747 0.0
H706 H 0.7523 0.20706 0.63996 0.0
C707 C 0.79652 0.2217 0.69337 0.0
C708 C 0.79744 0.22164 0.61919 0.0
C709 C 0.78663 0.22787 0.72631 0.0
C710 C 0.75404 0.22282 0.68905 0.0
H711 H 0.72228 0.24795 0.98759 0.0
H712 H 0.73928 0.23794 0.92734 0.0
H713 H 0.73423 0.21337 0.69648 0.0
H714 H 0.78915 0.23032 0.52165 0.0
H715 H 0.77215 0.24174 0.57872 0.0
H716 H 0.77746 0.27106 0.81006 0.0
C717 C 0.73275 0.24503 0.89593 0.0
C718 C 0.74363 0.22635 0.72153 0.0
C719 C 0.72295 0.25063 0.93049 0.0
C720 C 0.78859 0.22954 0.57891 0.0
C721 C 0.77877 0.23587 0.6117 0.0
C722 C 0.76807 0.25799 0.78491 0.0
C723 C 0.73419 0.24887 0.82207 0.0
C724 C 0.74528 0.24552 0.7864 0.0
C725 C 0.77747 0.23436 0.68582 0.0
C726 C 0.76641 0.23856 0.72029 0.0
H727 H 0.70887 0.27017 0.78722 0.0
H728 H 0.726 0.26013 0.7264 0.0
H729 H 0.75936 0.27699 0.86676 0.0
H730 H 0.80311 0.21538 0.72588 0.0
H731 H 0.78591 0.2262 0.78347 0.0
C732 C 0.289 0.72803 0.08844 0.0
C733 C 0.29809 0.7215 0.12915 0.0
C734 C 0.27921 0.73465 0.12085 0.0
C735 C 0.26075 0.71696 0.28797 0.0
H736 H 0.24913 0.78876 0.2112 0.0
C737 C 0.22411 0.75697 0.43401 0.0
C738 C 0.21524 0.76501 0.39422 0.0
C739 C 0.23373 0.74995 0.40073 0.0
C740 C 0.25211 0.76814 0.23274 0.0
H741 H 0.30425 0.71807 0.23617 0.0
H742 H 0.2872 0.73009 0.29313 0.0
H743 H 0.26745 0.78275 0.15717 0.0
H744 H 0.20926 0.77043 0.28777 0.0
H745 H 0.22596 0.75742 0.22922 0.0
H746 H 0.2454 0.70222 0.36335 0.0
C747 C 0.28757 0.72959 0.23587 0.0
C748 C 0.26267 0.76482 0.20189 0.0
C749 C 0.29743 0.72316 0.2033 0.0
C750 C 0.2159 0.76421 0.31997 0.0
C751 C 0.22559 0.75724 0.2865 0.0
C752 C 0.25017 0.72022 0.31872 0.0
C753 C 0.2782 0.73485 0.19502 0.0
C754 C 0.26716 0.73923 0.22914 0.0
C755 C 0.23478 0.75065 0.32652 0.0
C756 C 0.24571 0.74593 0.29169 0.0
H757 H 0.2893 0.72731 0.03116 0.0
H758 H 0.27216 0.73833 0.08758 0.0
H759 H 0.26376 0.69643 0.30958 0.0
H760 H 0.22379 0.75692 0.49133 0.0
H761 H 0.24064 0.7453 0.43351 0.0
C762 C 0.71724 0.76933 0.21434 0.0
C763 C 0.71696 0.77163 0.14014 0.0
C764 C 0.72688 0.76235 0.24818 0.0
C765 C 0.75987 0.76932 0.21643 0.0
H766 H 0.75304 0.70819 0.38627 0.0
C767 C 0.79776 0.72569 0.34244 0.0
C768 C 0.79816 0.7243 0.41675 0.0
C769 C 0.78809 0.73239 0.30819 0.0
C770 C 0.75517 0.72574 0.33931 0.0
H771 H 0.72614 0.76607 0.04332 0.0
H772 H 0.74275 0.75343 0.10186 0.0
H773 H 0.73542 0.71627 0.32852 0.0
H774 H 0.78914 0.73125 0.51317 0.0
H775 H 0.77245 0.74314 0.45384 0.0
H776 H 0.77962 0.77872 0.22721 0.0
C777 C 0.73579 0.75812 0.13428 0.0
C778 C 0.74504 0.73036 0.30613 0.0
C779 C 0.72621 0.76519 0.10063 0.0
C780 C 0.78898 0.73132 0.45584 0.0
C781 C 0.77936 0.73802 0.42176 0.0
C782 C 0.77001 0.76466 0.24958 0.0
C783 C 0.73644 0.75734 0.20857 0.0
C784 C 0.74723 0.75221 0.24416 0.0
C785 C 0.77861 0.73795 0.34747 0.0
C786 C 0.76782 0.74287 0.3116 0.0
H787 H 0.71033 0.77446 0.24636 0.0
H788 H 0.7271 0.7622 0.30547 0.0
H789 H 0.76202 0.78693 0.16957 0.0
H790 H 0.80461 0.72013 0.31071 0.0
H791 H 0.7878 0.73194 0.2509 0.0
C792 C 0.12468 0.85994 0.44859 0.0
C793 C 0.13389 0.8515 0.48393 0.0
C794 C 0.12399 0.89432 0.46081 0.0
C795 C 0.13478 0.97545 0.58838 0.0
H796 H 0.12573 0.02505 0.43473 0.0
C797 C 0.14179 0.1315 0.59753 0.0
C798 C 0.13116 0.13768 0.57602 0.0
C799 C 0.14169 0.09584 0.58895 0.0
C800 C 0.12817 0.01134 0.47823 0.0
H801 H 0.14931 0.87233 0.56158 0.0
H802 H 0.1487 0.93282 0.57948 0.0
H803 H 0.12662 0.96477 0.41338 0.0
H804 H 0.11233 0.11198 0.52624 0.0
H805 H 0.11214 0.0497 0.51096 0.0
H806 H 0.13676 0.023 0.65231 0.0
C807 C 0.14178 0.91273 0.54337 0.0
C808 C 0.12863 0.97666 0.4662 0.0
C809 C 0.14231 0.87815 0.53205 0.0
C810 C 0.12047 0.10769 0.54528 0.0
C811 C 0.12045 0.07223 0.53558 0.0
C812 C 0.13452 0.01043 0.60002 0.0
C813 C 0.13258 0.92132 0.5082 0.0
C814 C 0.13195 0.95817 0.52111 0.0
C815 C 0.13107 0.06597 0.55721 0.0
C816 C 0.13121 0.02868 0.54511 0.0
H817 H 0.11791 0.83989 0.41184 0.0
H818 H 0.11659 0.89941 0.43372 0.0
H819 H 0.13708 0.96185 0.63252 0.0
H820 H 0.1502 0.15429 0.62087 0.0
H821 H 0.15005 0.09187 0.60551 0.0
C822 C 0.87085 0.35829 0.52212 0.0
C823 C 0.87874 0.35141 0.57145 0.0
C824 C 0.87136 0.39444 0.51504 0.0
C825 C 0.8826 0.48845 0.60328 0.0
H826 H 0.87997 0.52158 0.41295 0.0
C827 C 0.89119 0.64247 0.5367 0.0
C828 C 0.88171 0.64541 0.49382 0.0
C829 C 0.89141 0.60728 0.54646 0.0
C830 C 0.88065 0.51266 0.46645 0.0
H831 H 0.89263 0.37667 0.65592 0.0
H832 H 0.89399 0.44021 0.64148 0.0
H833 H 0.87907 0.4589 0.43136 0.0
H834 H 0.86547 0.615 0.42472 0.0
H835 H 0.86577 0.55343 0.44163 0.0
H836 H 0.88437 0.54271 0.63787 0.0
C837 C 0.88735 0.4176 0.60824 0.0
C838 C 0.88007 0.47663 0.47715 0.0
C839 C 0.88672 0.38123 0.61587 0.0
C840 C 0.8727 0.61312 0.45909 0.0
C841 C 0.87298 0.57805 0.46821 0.0
C842 C 0.88331 0.52469 0.59243 0.0
C843 C 0.87983 0.42482 0.55684 0.0
C844 C 0.88088 0.46381 0.54578 0.0
C845 C 0.88225 0.57465 0.51258 0.0
C846 C 0.8822 0.53701 0.52396 0.0
H847 H 0.8644 0.33596 0.4878 0.0
H848 H 0.86512 0.39855 0.47638 0.0
H849 H 0.88312 0.47947 0.65692 0.0
H850 H 0.89823 0.66721 0.56387 0.0
H851 H 0.89875 0.60558 0.58034 0.0
C852 C 0.8873 0.88182 0.42659 0.0
C853 C 0.87939 0.85223 0.4717 0.0
C854 C 0.88786 0.91813 0.43345 0.0
C855 C 0.86947 0.96848 0.49829 0.0
H856 H 0.90269 0.05663 0.50738 0.0
C857 C 0.89011 0.13642 0.57702 0.0
C858 C 0.88182 0.14619 0.53569 0.0
C859 C 0.89037 0.10118 0.568 0.0
C860 C 0.89336 0.03223 0.50521 0.0
H861 H 0.86533 0.83734 0.55685 0.0
H862 H 0.86612 0.90023 0.56758 0.0
H863 H 0.90182 0.9933 0.49219 0.0
H864 H 0.86791 0.12739 0.44963 0.0
H865 H 0.86812 0.06601 0.43561 0.0
H866 H 0.86099 0.00719 0.51102 0.0
C867 C 0.87204 0.89549 0.52771 0.0
C868 C 0.89286 0.9961 0.49586 0.0
C869 C 0.87162 0.85939 0.52154 0.0
C870 C 0.87412 0.12047 0.48392 0.0
C871 C 0.87427 0.08526 0.47558 0.0
C872 C 0.86997 0.00455 0.50672 0.0
C873 C 0.88029 0.92536 0.48439 0.0
C874 C 0.8809 0.96385 0.49252 0.0
C875 C 0.88229 0.07503 0.51792 0.0
C876 C 0.88191 0.03681 0.51029 0.0
H877 H 0.8931 0.87702 0.38616 0.0
H878 H 0.89413 0.94048 0.39846 0.0
H879 H 0.86012 0.94418 0.49554 0.0
H880 H 0.89622 0.15566 0.61706 0.0
H881 H 0.89664 0.09397 0.60142 0.0
C882 C 0.12074 0.60806 0.49392 0.0
C883 C 0.13142 0.63799 0.46299 0.0
C884 C 0.12072 0.57262 0.50376 0.0
C885 C 0.13476 0.51069 0.43932 0.0
H886 H 0.1268 0.46513 0.62598 0.0
C887 C 0.14235 0.37814 0.50717 0.0
C888 C 0.13388 0.35153 0.55522 0.0
C889 C 0.14188 0.41279 0.49593 0.0
C890 C 0.12883 0.477 0.57316 0.0
H891 H 0.15046 0.65454 0.41801 0.0
H892 H 0.15031 0.59214 0.43362 0.0
H893 H 0.12598 0.5255 0.60464 0.0
H894 H 0.1179 0.34008 0.62731 0.0
H895 H 0.11669 0.39975 0.60557 0.0
H896 H 0.13726 0.462 0.40681 0.0
C897 C 0.14195 0.59615 0.45021 0.0
C898 C 0.12841 0.51173 0.56114 0.0
C899 C 0.14206 0.63179 0.44148 0.0
C900 C 0.1247 0.3601 0.59061 0.0
C901 C 0.12407 0.39456 0.57847 0.0
C902 C 0.13497 0.47567 0.45096 0.0
C903 C 0.13133 0.56633 0.4821 0.0
C904 C 0.13146 0.52903 0.49424 0.0
C905 C 0.13269 0.4215 0.53112 0.0
C906 C 0.13211 0.45842 0.51824 0.0
H907 H 0.1126 0.61237 0.51298 0.0
H908 H 0.11241 0.55013 0.52849 0.0
H909 H 0.13701 0.52323 0.38702 0.0
H910 H 0.14933 0.37222 0.47761 0.0
H911 H 0.14881 0.43284 0.45986 0.0
C912 C 0.64506 0.63609 0.03205 0.0
C913 C 0.63654 0.64129 0.07961 0.0
C914 C 0.64488 0.60043 0.02306 0.0
C915 C 0.63296 0.50391 0.10271 0.0
H916 H 0.63822 0.47665 0.91189 0.0
C917 C 0.62429 0.35144 0.02223 0.0
C918 C 0.63408 0.34876 0.98153 0.0
C919 C 0.62442 0.38683 0.03525 0.0
C920 C 0.63682 0.48394 0.96555 0.0
H921 H 0.62191 0.61343 0.15949 0.0
H922 H 0.62109 0.55073 0.14136 0.0
H923 H 0.63881 0.53864 0.93425 0.0
H924 H 0.65131 0.3802 0.91981 0.0
H925 H 0.6516 0.44217 0.9424 0.0
H926 H 0.6307 0.44856 0.13327 0.0
C927 C 0.62797 0.5743 0.11094 0.0
C928 C 0.63722 0.5196 0.97858 0.0
C929 C 0.62828 0.61021 0.12061 0.0
C930 C 0.64382 0.38174 0.95255 0.0
C931 C 0.64389 0.41709 0.96487 0.0
C932 C 0.63243 0.46802 0.08946 0.0
C933 C 0.63612 0.56878 0.06105 0.0
C934 C 0.63541 0.53029 0.04746 0.0
C935 C 0.63424 0.42007 1.00684 0.0
C936 C 0.63445 0.45776 1.02081 0.0
H937 H 0.65176 0.6594 1.00052 0.0
H938 H 0.65161 0.59772 0.98586 0.0
H939 H 0.63169 0.51116 0.15655 0.0
H940 H 0.61667 0.32623 0.04496 0.0
H941 H 0.61678 0.38817 0.06708 0.0
C942 C 0.3711 0.85969 0.02861 0.0
C943 C 0.37907 0.85333 0.07818 0.0
C944 C 0.37152 0.89569 1.02053 0.0
C945 C 0.38281 0.99065 0.10572 0.0
H946 H 0.37977 0.02176 0.91436 0.0
C947 C 0.39131 0.1441 0.03399 0.0
C948 C 0.38179 0.14674 0.99094 0.0
C949 C 0.39152 0.10896 0.0449 0.0
C950 C 0.38056 0.01342 0.96815 0.0
H951 H 0.39297 0.87941 0.16223 0.0
H952 H 0.39418 0.94269 0.14603 0.0
H953 H 0.37891 0.9593 0.93492 0.0
H954 H 0.36547 0.11575 0.92271 0.0
H955 H 0.36576 0.05429 0.94158 0.0
H956 H 0.38465 0.0453 0.1384 0.0
C957 C 0.38755 0.91978 0.11332 0.0
C958 C 0.38 0.97749 0.9801 0.0
C959 C 0.387 0.88355 0.12199 0.0
C960 C 0.37274 0.11415 0.95717 0.0
C961 C 0.37301 0.07912 0.96742 0.0
C962 C 0.38349 0.0268 0.0936 0.0
C963 C 0.37997 0.92649 0.06153 0.0
C964 C 0.38096 0.96537 0.04914 0.0
C965 C 0.38231 0.07602 1.01204 0.0
C966 C 0.38224 0.03842 0.02474 0.0
H967 H 0.36467 0.83706 0.99478 0.0
H968 H 0.36523 0.89936 0.98165 0.0
H969 H 0.38344 0.98226 0.15965 0.0
H970 H 0.39837 0.16905 0.06049 0.0
H971 H 0.39888 0.10754 0.07892 0.0
C972 C 0.37215 0.36131 0.02258 0.0
C973 C 0.37973 0.35415 0.97144 0.0
C974 C 0.37277 0.39757 0.03039 0.0
C975 C 0.39379 0.49838 1.00002 0.0
H976 H 0.36212 0.5103 1.01884 0.0
C977 C 0.37542 0.62352 0.99029 0.0
C978 C 0.38316 0.64928 0.04194 0.0
C979 C 0.37552 0.58824 0.98199 0.0
C980 C 0.37105 0.50743 1.01362 0.0
H981 H 0.39328 0.37925 0.88534 0.0
H982 H 0.39464 0.44296 0.90049 0.0
H983 H 0.36103 0.44711 1.00199 0.0
H984 H 0.39761 0.65875 0.12297 0.0
H985 H 0.39797 0.59689 0.10724 0.0
H986 H 0.4038 0.5589 1.01192 0.0
C987 C 0.38839 0.42047 0.93526 0.0
C988 C 0.37042 0.47124 1.00437 0.0
C989 C 0.38763 0.38399 0.92675 0.0
C990 C 0.39147 0.63948 0.08303 0.0
C991 C 0.39169 0.60414 0.07399 0.0
C992 C 0.39443 0.53464 1.01025 0.0
C993 C 0.38101 0.42767 0.98747 0.0
C994 C 0.38177 0.4663 0.99709 0.0
C995 C 0.38353 0.57793 0.02418 0.0
C996 C 0.38305 0.53953 1.01656 0.0
H997 H 0.36588 0.33911 0.05765 0.0
H998 H 0.36698 0.40224 0.07119 0.0
H999 H 0.4027 0.49536 0.99519 0.0
H1000 H 0.3692 0.63044 0.95611 0.0
H1001 H 0.36932 0.56899 0.9422 0.0
C1002 C 0.63997 0.1253 0.94226 0.0
C1003 C 0.62951 0.13231 0.96411 0.0
C1004 C 0.63953 0.08918 0.95002 0.0
C1005 C 0.62512 0.00326 0.05757 0.0
H1006 H 0.63429 0.95536 0.9015 0.0
C1007 C 0.62232 0.85179 0.08166 0.0
C1008 C 0.63191 0.84492 0.04661 0.0
C1009 C 0.62124 0.88575 0.07048 0.0
C1010 C 0.63188 0.96846 0.94613 0.0
H1011 H 0.61067 0.10752 1.01399 0.0
H1012 H 0.60989 0.04445 0.02772 0.0
H1013 H 0.63425 0.01699 0.88433 0.0
H1014 H 0.64758 0.86816 0.97055 0.0
H1015 H 0.64623 0.92754 0.95446 0.0
H1016 H 0.6232 0.95557 0.12031 0.0
C1017 C 0.61832 0.06671 1.00348 0.0
C1018 C 0.6318 0.00375 0.936 0.0
C1019 C 0.61868 0.10266 0.99463 0.0
C1020 C 0.64026 0.87262 0.99975 0.0
C1021 C 0.63932 0.90664 0.98943 0.0
C1022 C 0.62539 0.96818 0.0681 0.0
C1023 C 0.62874 0.05958 0.98124 0.0
C1024 C 0.62847 0.02161 0.99165 0.0
C1025 C 0.62977 0.91376 0.02433 0.0
C1026 C 0.62888 0.95036 1.01263 0.0
H1027 H 0.64848 0.14777 0.91911 0.0
H1028 H 0.64775 0.08459 0.93303 0.0
H1029 H 0.62261 0.01654 0.10161 0.0
H1030 H 0.61564 0.83097 0.11768 0.0
H1031 H 0.61362 0.88982 0.09754 0.0
C1032 C 0.12547 0.19716 0.34374 0.0
C1033 C 0.12931 0.22916 0.38799 0.0
C1034 C 0.12672 0.20084 0.26968 0.0
C1035 C 0.14317 0.27077 0.12396 0.0
H1036 H 0.11698 0.19543 1.00559 0.0
C1037 C 0.14202 0.2918 0.81908 0.0
C1038 C 0.13797 0.26025 0.77354 0.0
C1039 C 0.14089 0.28742 0.89299 0.0
C1040 C 0.12451 0.21654 0.03746 0.0
H1041 H 0.13679 0.2903 0.38783 0.0
H1042 H 0.13913 0.29703 0.25869 0.0
H1043 H 0.11521 0.18969 0.13422 0.0
H1044 H 0.1302 0.19905 0.77123 0.0
H1045 H 0.12817 0.19109 0.90054 0.0
H1046 H 0.15248 0.29761 0.02734 0.0
C1047 C 0.13544 0.26887 0.28131 0.0
C1048 C 0.12349 0.21327 0.11187 0.0
C1049 C 0.13416 0.26511 0.3557 0.0
C1050 C 0.13306 0.22394 0.80448 0.0
C1051 C 0.13193 0.21948 0.87891 0.0
C1052 C 0.14419 0.27402 0.0496 0.0
C1053 C 0.13169 0.23673 0.23675 0.0
C1054 C 0.13279 0.24036 0.1567 0.0
C1055 C 0.13587 0.25122 0.92469 0.0
C1056 C 0.13486 0.24705 1.00472 0.0
H1057 H 0.12148 0.16899 0.36668 0.0
H1058 H 0.12384 0.17532 0.23824 0.0
H1059 H 0.15069 0.29192 0.15583 0.0
H1060 H 0.14602 0.32021 0.79724 0.0
H1061 H 0.14388 0.31267 0.92528 0.0
C1062 C 0.88719 0.29469 0.32773 0.0
C1063 C 0.88399 0.26306 0.3723 0.0
C1064 C 0.88588 0.2907 0.25369 0.0
C1065 C 0.87067 0.21942 0.10755 0.0
H1066 H 0.89571 0.29821 0.98964 0.0
C1067 C 0.8721 0.20051 0.80135 0.0
C1068 C 0.87544 0.2321 0.75647 0.0
C1069 C 0.87329 0.2046 0.87541 0.0
C1070 C 0.8885 0.27607 1.02132 0.0
H1071 H 0.87756 0.20226 0.37238 0.0
H1072 H 0.87515 0.19497 0.2433 0.0
H1073 H 0.89734 0.30392 0.11823 0.0
H1074 H 0.88202 0.29295 0.75583 0.0
H1075 H 0.8842 0.30041 0.88505 0.0
H1076 H 0.86182 0.19157 1.01068 0.0
C1077 C 0.87836 0.22307 0.26572 0.0
C1078 C 0.88943 0.27933 0.09581 0.0
C1079 C 0.87968 0.22714 0.34017 0.0
C1080 C 0.87975 0.26808 0.78836 0.0
C1081 C 0.88095 0.27226 0.86285 0.0
C1082 C 0.86973 0.21617 0.03307 0.0
C1083 C 0.88154 0.25487 0.22085 0.0
C1084 C 0.88054 0.25108 0.1406 0.0
C1085 C 0.87767 0.2405 0.908 0.0
C1086 C 0.87863 0.24439 0.98826 0.0
H1087 H 0.89076 0.32287 0.35039 0.0
H1088 H 0.88828 0.31596 0.22218 0.0
H1089 H 0.86346 0.19725 0.13925 0.0
H1090 H 0.86856 0.1723 0.7789 0.0
H1091 H 0.87082 0.17937 0.9071 0.0
C1092 C 0.14216 0.79206 0.21966 0.0
C1093 C 0.13813 0.7605 0.26513 0.0
C1094 C 0.14104 0.78769 0.14574 0.0
C1095 C 0.12475 0.7168 1.00114 0.0
H1096 H 0.15092 0.79232 0.88292 0.0
C1097 C 0.12578 0.69744 0.6949 0.0
C1098 C 0.12958 0.72943 0.65069 0.0
C1099 C 0.12704 0.70114 0.76895 0.0
C1100 C 0.14341 0.77113 0.91475 0.0
H1101 H 0.1304 0.69931 0.26729 0.0
H1102 H 0.12841 0.69138 0.13797 0.0
H1103 H 0.15267 0.798 1.01142 0.0
H1104 H 0.13701 0.79056 0.6509 0.0
H1105 H 0.13936 0.79732 0.78003 0.0
H1106 H 0.11549 0.68992 0.90432 0.0
C1107 C 0.13214 0.71976 0.15967 0.0
C1108 C 0.14441 0.77437 0.98911 0.0
C1109 C 0.13324 0.7242 0.2341 0.0
C1110 C 0.13441 0.76538 0.683 0.0
C1111 C 0.1357 0.76916 0.75739 0.0
C1112 C 0.12375 0.71354 0.92673 0.0
C1113 C 0.13606 0.75151 0.11397 0.0
C1114 C 0.13508 0.74735 0.03394 0.0
C1115 C 0.13198 0.73704 0.8019 0.0
C1116 C 0.13305 0.74067 0.88195 0.0
H1117 H 0.14613 0.82046 0.24157 0.0
H1118 H 0.14401 0.81295 0.11351 0.0
H1119 H 0.11722 0.69565 0.03296 0.0
H1120 H 0.12181 0.66927 0.67194 0.0
H1121 H 0.12419 0.67564 0.80036 0.0
C1122 C 0.88019 0.72626 0.7022 0.0
C1123 C 0.88432 0.76215 0.6703 0.0
C1124 C 0.87896 0.72214 0.77669 0.0
C1125 C 0.87731 0.7741 0.94334 0.0
H1126 H 0.8858 0.70013 0.03809 0.0
C1127 C 0.88045 0.76904 0.25376 0.0
C1128 C 0.87617 0.73316 0.28592 0.0
C1129 C 0.88173 0.77302 0.17929 0.0
C1130 C 0.88324 0.72077 1.01288 0.0
H1131 H 0.89099 0.82191 0.69251 0.0
H1132 H 0.88886 0.81502 0.82067 0.0
H1133 H 0.88686 0.70472 0.90931 0.0
H1134 H 0.86936 0.6733 0.26413 0.0
H1135 H 0.87156 0.67997 0.13588 0.0
H1136 H 0.8737 0.79018 0.0469 0.0
C1137 C 0.88617 0.78966 0.78898 0.0
C1138 C 0.88383 0.72335 0.93829 0.0
C1139 C 0.88745 0.79372 0.71501 0.0
C1140 C 0.87298 0.70148 0.24143 0.0
C1141 C 0.87431 0.7054 0.16744 0.0
C1142 C 0.87673 0.77154 1.01791 0.0
C1143 C 0.88192 0.75384 0.82164 0.0
C1144 C 0.8809 0.75013 0.90185 0.0
C1145 C 0.87867 0.74119 0.13456 0.0
C1146 C 0.87967 0.74479 0.05435 0.0
H1147 H 0.87807 0.70145 0.66969 0.0
H1148 H 0.87559 0.69397 0.79891 0.0
H1149 H 0.87473 0.79472 0.91818 0.0
H1150 H 0.88264 0.79397 0.28603 0.0
H1151 H 0.8852 0.80118 0.15688 0.0
C1152 C 0.64155 0.79084 0.3121 0.0
C1153 C 0.63847 0.75937 0.26721 0.0
C1154 C 0.64036 0.78671 0.38607 0.0
C1155 C 0.63858 0.7207 0.53453 0.0
H1156 H 0.62826 0.78655 0.64487 0.0
C1157 C 0.62832 0.69821 0.83799 0.0
C1158 C 0.63125 0.72967 0.88267 0.0
C1159 C 0.62963 0.70231 0.76404 0.0
C1160 C 0.63136 0.76821 0.61539 0.0
H1161 H 0.63225 0.69866 0.26631 0.0
H1162 H 0.62993 0.69106 0.39555 0.0
H1163 H 0.629 0.79115 0.51614 0.0
H1164 H 0.63731 0.79031 0.88322 0.0
H1165 H 0.63987 0.79788 0.75417 0.0
H1166 H 0.64095 0.69777 0.6338 0.0
C1167 C 0.63323 0.71924 0.37342 0.0
C1168 C 0.63175 0.77079 0.54083 0.0
C1169 C 0.63438 0.72343 0.29893 0.0
C1170 C 0.63533 0.76556 0.85081 0.0
C1171 C 0.6366 0.76973 0.77638 0.0
C1172 C 0.63819 0.71813 0.60912 0.0
C1173 C 0.63623 0.75089 0.41854 0.0
C1174 C 0.6354 0.74714 0.49874 0.0
C1175 C 0.63371 0.73808 0.73141 0.0
C1176 C 0.63455 0.74179 0.65121 0.0
H1177 H 0.645 0.81905 0.28975 0.0
H1178 H 0.64305 0.81201 0.41792 0.0
H1179 H 0.64167 0.70235 0.50501 0.0
H1180 H 0.62485 0.67002 0.86048 0.0
H1181 H 0.62703 0.677 0.73233 0.0
C1182 C 0.38036 0.72959 0.84708 0.0
C1183 C 0.38453 0.76548 0.87915 0.0
C1184 C 0.37908 0.72549 0.77263 0.0
C1185 C 0.39015 0.78193 0.60307 0.0
H1186 H 0.36283 0.69381 0.51708 0.0
C1187 C 0.38082 0.77061 0.29531 0.0
C1188 C 0.37661 0.73463 0.2635 0.0
C1189 C 0.38197 0.77479 0.36981 0.0
C1190 C 0.37066 0.71851 0.53973 0.0
H1191 H 0.39101 0.82518 0.85724 0.0
H1192 H 0.38859 0.81821 0.72904 0.0
H1193 H 0.3643 0.6994 0.6457 0.0
H1194 H 0.36992 0.6749 0.28599 0.0
H1195 H 0.37208 0.68201 0.41417 0.0
H1196 H 0.39653 0.80101 0.49714 0.0
C1197 C 0.3863 0.79301 0.76057 0.0
C1198 C 0.3715 0.7217 0.61422 0.0
C1199 C 0.38757 0.79703 0.83459 0.0
C1200 C 0.37336 0.7031 0.30841 0.0
C1201 C 0.37449 0.70721 0.38244 0.0
C1202 C 0.38932 0.77872 0.52858 0.0
C1203 C 0.38214 0.75724 0.72777 0.0
C1204 C 0.38126 0.7535 0.64755 0.0
C1205 C 0.37873 0.74306 0.41498 0.0
C1206 C 0.37957 0.74691 0.49523 0.0
H1207 H 0.37836 0.70479 0.87932 0.0
H1208 H 0.376 0.69744 0.7502 0.0
H1209 H 0.39798 0.80663 0.62577 0.0
H1210 H 0.38304 0.79543 0.26274 0.0
H1211 H 0.38511 0.80292 0.39199 0.0
C1212 C 0.63323 0.26171 0.18539 0.0
C1213 C 0.62851 0.22573 0.15327 0.0
C1214 C 0.63446 0.2656 0.25979 0.0
C1215 C 0.63492 0.21211 0.42616 0.0
H1216 H 0.62844 0.29011 0.52032 0.0
C1217 C 0.63204 0.21984 0.73666 0.0
C1218 C 0.63706 0.25612 0.76784 0.0
C1219 C 0.63083 0.21549 0.66224 0.0
C1220 C 0.63044 0.26833 0.49524 0.0
H1221 H 0.62071 0.16561 0.17488 0.0
H1222 H 0.62278 0.1721 0.30328 0.0
H1223 H 0.62712 0.28497 0.39172 0.0
H1224 H 0.6453 0.31614 0.74452 0.0
H1225 H 0.64319 0.3088 0.61638 0.0
H1226 H 0.63821 0.19544 0.52985 0.0
C1227 C 0.62597 0.19764 0.27169 0.0
C1228 C 0.6297 0.26542 0.42079 0.0
C1229 C 0.62471 0.19382 0.19767 0.0
C1230 C 0.64112 0.28775 0.72253 0.0
C1231 C 0.63983 0.28346 0.64864 0.0
C1232 C 0.63565 0.215 0.50067 0.0
C1233 C 0.63086 0.23358 0.3045 0.0
C1234 C 0.63192 0.23726 0.3846 0.0
C1235 C 0.63465 0.24729 0.61676 0.0
C1236 C 0.63346 0.24325 0.53679 0.0
H1237 H 0.63587 0.28683 0.15306 0.0
H1238 H 0.63834 0.29386 0.28214 0.0
H1239 H 0.63693 0.19036 0.4011 0.0
H1240 H 0.62914 0.19488 0.76973 0.0
H1241 H 0.62674 0.18708 0.64047 0.0
C1242 C 0.38762 0.29512 0.21113 0.0
C1243 C 0.38451 0.26353 0.16653 0.0
C1244 C 0.38631 0.29112 0.2851 0.0
C1245 C 0.38391 0.2249 0.43475 0.0
H1246 H 0.3737 0.29173 0.54277 0.0
C1247 C 0.3729 0.20308 0.73772 0.0
C1248 C 0.3761 0.23478 0.78219 0.0
C1249 C 0.37424 0.20697 0.66373 0.0
C1250 C 0.37675 0.27309 0.51395 0.0
H1251 H 0.3783 0.20284 0.16614 0.0
H1252 H 0.37578 0.19546 0.29535 0.0
H1253 H 0.37482 0.29624 0.41405 0.0
H1254 H 0.38256 0.29558 0.78222 0.0
H1255 H 0.38513 0.30275 0.65304 0.0
H1256 H 0.38581 0.20171 0.53471 0.0
C1257 C 0.37914 0.22361 0.27305 0.0
C1258 C 0.37738 0.27564 0.43938 0.0
C1259 C 0.38039 0.22767 0.19856 0.0
C1260 C 0.38037 0.27065 0.74997 0.0
C1261 C 0.38166 0.2746 0.67549 0.0
C1262 C 0.38327 0.22233 0.50933 0.0
C1263 C 0.38207 0.25533 0.31789 0.0
C1264 C 0.38101 0.25166 0.3981 0.0
C1265 C 0.37861 0.24276 0.63081 0.0
C1266 C 0.37966 0.24635 0.5506 0.0
H1267 H 0.39115 0.3233 0.18853 0.0
H1268 H 0.38899 0.3165 0.3167 0.0
H1269 H 0.38697 0.20627 0.40594 0.0
H1270 H 0.36928 0.17491 0.76044 0.0
H1271 H 0.3715 0.18154 0.6322 0.0
C1272 C 0.04806 0.22088 0.56304 0.0
C1273 C 0.05152 0.21495 0.49423 0.0
C1274 C 0.0369 0.22624 0.57469 0.0
C1275 C 1.00545 0.2091 0.49256 0.0
H1276 H 1.00615 0.28548 0.62533 0.0
C1277 C 0.96417 0.25736 0.51337 0.0
C1278 C 0.96177 0.26907 0.57987 0.0
C1279 C 0.97442 0.24728 0.50436 0.0
C1280 C 1.00567 0.26354 0.58889 0.0
H1281 H 0.04611 0.21156 0.38347 0.0
H1282 H 0.0267 0.22064 0.40386 0.0
H1283 H 0.02551 0.27584 0.60743 0.0
H1284 H 0.96759 0.27683 0.68995 0.0
H1285 H 0.98512 0.25818 0.67502 0.0
H1286 H 0.9856 0.19678 0.47401 0.0
C1287 C 0.03247 0.2204 0.44903 0.0
C1288 C 0.01683 0.2581 0.57851 0.0
C1289 C 0.04363 0.2152 0.43738 0.0
C1290 C 0.9693 0.26828 0.6379 0.0
C1291 C 0.97944 0.25795 0.62911 0.0
C1292 C 0.99426 0.21442 0.50318 0.0
C1293 C 0.02889 0.22575 0.51785 0.0
C1294 C 0.0169 0.23093 0.53001 0.0
C1295 C 0.98242 0.24844 0.56183 0.0
C1296 C 0.99421 0.24179 0.55142 0.0
H1297 H 0.0538 0.22043 0.60821 0.0
H1298 H 0.03439 0.22996 0.62848 0.0
H1299 H 1.00509 0.18754 0.45549 0.0
H1300 H 0.95861 0.25807 0.46759 0.0
H1301 H 0.97643 0.24033 0.45166 0.0
C1302 C 0.96454 0.75809 0.53005 0.0
C1303 C 0.9622 0.77034 0.46397 0.0
C1304 C 0.97475 0.74781 0.53853 0.0
C1305 C 1.00602 0.76432 0.45368 0.0
H1306 H 1.00529 0.68752 0.58537 0.0
C1307 C 0.04826 0.72099 0.47772 0.0
C1308 C 0.05173 0.71493 0.54639 0.0
C1309 C 0.03711 0.72645 0.4664 0.0
C1310 C 1.00569 0.7093 0.54876 0.0
H1311 H 0.9681 0.77891 0.35403 0.0
H1312 H 0.98556 0.75988 0.36796 0.0
H1313 H 0.98585 0.69703 0.5674 0.0
H1314 H 0.04633 0.71136 0.65724 0.0
H1315 H 0.02693 0.72056 0.63738 0.0
H1316 H 0.02584 0.77653 0.43501 0.0
C1317 C 0.97986 0.75937 0.41399 0.0
C1318 C 0.99452 0.71477 0.53848 0.0
C1319 C 0.96976 0.76992 0.40576 0.0
C1320 C 0.04385 0.7151 0.60343 0.0
C1321 C 0.03269 0.72037 0.59208 0.0
C1322 C 0.01715 0.7587 0.4637 0.0
C1323 C 0.98278 0.74931 0.48091 0.0
C1324 C 0.99453 0.74244 0.49087 0.0
C1325 C 0.02912 0.7259 0.52341 0.0
C1326 C 0.01716 0.73124 0.51159 0.0
H1327 H 0.95895 0.75851 0.57597 0.0
H1328 H 0.97671 0.74045 0.59097 0.0
H1329 H 1.00655 0.78649 0.41776 0.0
H1330 H 0.05398 0.7206 0.43241 0.0
H1331 H 0.0346 0.73031 0.41271 0.0
C1332 C 0.54099 0.69517 1.01354 0.0
C1333 C 0.55112 0.71143 0.06247 0.0
C1334 C 0.53076 0.70556 1.01266 0.0
C1335 C 0.51991 0.77654 0.08329 0.0
H1336 H 0.48578 0.69571 0.04738 0.0
C1337 C 0.47367 0.79395 0.14527 0.0
C1338 C 0.46419 0.78347 0.09191 0.0
C1339 C 0.48393 0.78386 0.14076 0.0
C1340 C 0.49525 0.71866 0.05694 0.0
H1341 H 0.5587 0.75186 0.14794 0.0
H1342 H 0.54072 0.76965 0.14791 0.0
H1343 H 0.50469 0.68279 0.03955 0.0
H1344 H 0.45772 0.75211 0.99389 0.0
H1345 H 0.47556 0.73364 0.98678 0.0
H1346 H 0.51034 0.81205 0.1025 0.0
C1347 C 0.54075 0.74944 0.10884 0.0
C1348 C 0.50615 0.71137 0.05212 0.0
C1349 C 0.55109 0.73935 0.10898 0.0
C1350 C 0.4648 0.76048 0.03608 0.0
C1351 C 0.47507 0.75009 0.03184 0.0
C1352 C 0.50899 0.78368 0.08884 0.0
C1353 C 0.53027 0.73205 0.06164 0.0
C1354 C 0.51867 0.74019 0.06528 0.0
C1355 C 0.48495 0.76261 0.08316 0.0
C1356 C 0.49652 0.75482 0.07598 0.0
H1357 H 0.5408 0.67352 0.97712 0.0
H1358 H 0.52313 0.69223 0.97423 0.0
H1359 H 0.52933 0.7997 0.09257 0.0
H1360 H 0.47336 0.81095 0.18988 0.0
H1361 H 0.49118 0.79316 0.18211 0.0
C1362 C 0.46969 0.26997 0.90056 0.0
C1363 C 0.46209 0.27058 0.95845 0.0
C1364 C 0.4797 0.25908 0.9093 0.0
C1365 C 0.49393 0.21367 0.03462 0.0
H1366 H 0.52552 0.27491 0.93284 0.0
C1367 C 0.54291 0.21278 0.10319 0.0
C1368 C 0.55089 0.21244 0.04677 0.0
C1369 C 0.53184 0.21832 0.0909 0.0
C1370 C 0.51674 0.25722 0.96104 0.0
H1371 H 0.45868 0.25877 0.07038 0.0
H1372 H 0.47629 0.24013 0.08624 0.0
H1373 H 0.50637 0.2855 0.91431 0.0
H1374 H 0.55339 0.21804 0.9329 0.0
H1375 H 0.53414 0.2282 0.91156 0.0
H1376 H 0.50446 0.18593 0.08232 0.0
C1377 C 0.47442 0.2476 0.03367 0.0
C1378 C 0.50571 0.2632 0.9503 0.0
C1379 C 0.4643 0.25822 0.0247 0.0
C1380 C 0.54759 0.21856 0.97775 0.0
C1381 C 0.53652 0.22428 0.96549 0.0
C1382 C 0.505 0.20783 0.04563 0.0
C1383 C 0.48249 0.24886 0.9764 0.0
C1384 C 0.49413 0.24155 0.98693 0.0
C1385 C 0.52844 0.22393 0.02189 0.0
C1386 C 0.51657 0.2296 1.00911 0.0
H1387 H 0.46812 0.279 0.84868 0.0
H1388 H 0.48543 0.25943 0.86353 0.0
H1389 H 0.48518 0.19608 0.06309 0.0
H1390 H 0.54527 0.209 0.15724 0.0
H1391 H 0.52601 0.21865 0.13575 0.0
loop_
_geom_bond_atom_site_label_1
_geom_bond_atom_site_label_2
_geom_bond_distance
_geom_bond_site_symmetry_2
_ccdc_geom_bond_type
Tb0 N31 2.660 . S
Tb0 N38 2.600 . S
Tb0 O44 2.546 . S
Tb0 O45 2.610 . S
Tb0 O47 2.320 . S
Tb0 O48 2.552 . S
Tb0 O49 2.413 . S
Tb0 O51 2.362 . S
Tb0 O52 2.421 . S
Tb0 C64 2.833 . S
C1 C4 1.432 . S
C1 C5 1.414 . S
C1 N8 1.359 . S
C2 C4 1.417 . S
C2 C6 1.432 . S
C2 C14 1.410 . S
C3 C5 1.444 . S
C3 C6 1.317 . S
C3 H26 0.929 . S
C4 C1 1.432 . S
C4 C2 1.417 . S
C4 N12 1.360 . S
C5 C1 1.414 . S
C5 C3 1.444 . S
C5 C10 1.385 . S
C6 C2 1.432 . S
C6 C3 1.317 . S
C6 H18 0.930 . S
C7 C9 1.392 . S
C7 C10 1.370 . S
C7 H19 0.931 . S
N8 C1 1.359 . S
N8 C9 1.327 . S
N8 Tb11 2.600 . S
C9 C7 1.392 . S
C9 N8 1.327 . S
C9 H16 0.930 . S
C10 C5 1.385 . S
C10 C7 1.370 . S
C10 H29 0.930 . S
Tb11 N8 2.600 . S
Tb11 N12 2.660 . S
Tb11 O45 2.362 . S
Tb11 O46 2.421 . S
Tb11 O50 2.546 . S
Tb11 O51 2.610 . S
Tb11 O53 2.320 . S
Tb11 O54 2.552 . S
Tb11 O55 2.413 . S
Tb11 C75 2.833 . S
N12 C4 1.360 . S
N12 Tb11 2.660 . S
N12 C13 1.305 . S
C13 N12 1.305 . S
C13 C15 1.407 . S
C13 H20 0.930 . S
C14 C2 1.410 . S
C14 C15 1.345 . S
C14 H22 0.930 . S
C15 C13 1.407 . S
C15 C14 1.345 . S
C15 H17 0.930 . S
H16 C9 0.930 . S
H17 C15 0.930 . S
H18 C6 0.930 . S
H19 C7 0.931 . S
H20 C13 0.930 . S
H21 C35 0.930 . S
H22 C14 0.930 . S
H23 C41 0.930 . S
H24 C32 0.930 . S
H25 C39 0.931 . S
H26 C3 0.929 . S
H27 C33 0.930 . S
H28 C66 0.930 . S
H29 C10 0.930 . S
H30 C65 0.929 . S
N31 Tb0 2.660 . S
N31 C32 1.305 . S
N31 C36 1.360 . S
C32 H24 0.930 . S
C32 N31 1.305 . S
C32 C35 1.407 . S
C33 H27 0.930 . S
C33 C34 1.410 . S
C33 C35 1.345 . S
C34 C33 1.410 . S
C34 C36 1.417 . S
C34 C66 1.432 . S
C35 H21 0.930 . S
C35 C32 1.407 . S
C35 C33 1.345 . S
C36 N31 1.360 . S
C36 C34 1.417 . S
C36 C40 1.432 . S
H37 C42 0.930 . S
N38 Tb0 2.600 . S
N38 C40 1.359 . S
N38 C41 1.327 . S
C39 H25 0.931 . S
C39 C41 1.392 . S
C39 C42 1.370 . S
C40 C36 1.432 . S
C40 N38 1.359 . S
C40 C43 1.414 . S
C41 H23 0.930 . S
C41 N38 1.327 . S
C41 C39 1.392 . S
C42 H37 0.930 . S
C42 C39 1.370 . S
C42 C43 1.385 . S
C43 C40 1.414 . S
C43 C42 1.385 . S
C43 C65 1.444 . S
O44 Tb0 2.546 . S
O44 C64 1.251 . S
O45 Tb0 2.610 . S
O45 Tb11 2.362 . S
O45 C56 1.283 . S
O46 Tb11 2.421 . S
O46 C63 1.262 . S
O47 Tb0 2.320 . S
O47 C63 1.260 . S
O48 Tb0 2.552 . S
O48 C56 1.243 . S
O49 Tb0 2.413 . S
O49 C64 1.256 . S
O50 Tb11 2.546 . S
O50 C75 1.251 . S
O51 Tb0 2.362 . S
O51 Tb11 2.610 . S
O51 C67 1.283 . S
O52 Tb0 2.421 . S
O52 C74 1.262 . S
O53 Tb11 2.320 . S
O53 C74 1.260 . S
O54 Tb11 2.552 . S
O54 C67 1.243 . S
O55 Tb11 2.413 . S
O55 C75 1.256 . S
C56 O45 1.283 . S
C56 O48 1.243 . S
C57 C59 1.382 . S
C57 C61 1.393 . S
C57 C64 1.500 . S
C58 C59 1.400 . S
C58 C60 1.384 . S
C59 C57 1.382 . S
C59 C58 1.400 . S
C59 H76 0.930 . S
C60 C58 1.384 . S
C60 C62 1.392 . S
C60 H77 0.931 . S
C61 C57 1.393 . S
C61 C62 1.401 . S
C61 H78 0.930 . S
C62 C60 1.392 . S
C62 C61 1.401 . S
C62 H79 0.930 . S
C63 O46 1.262 . S
C63 O47 1.260 . S
C64 Tb0 2.833 . S
C64 O44 1.251 . S
C64 O49 1.256 . S
C64 C57 1.500 . S
C65 H30 0.929 . S
C65 C43 1.444 . S
C65 C66 1.317 . S
C66 H28 0.930 . S
C66 C34 1.432 . S
C66 C65 1.317 . S
C67 O51 1.283 . S
C67 O54 1.243 . S
C68 C69 1.382 . S
C68 C72 1.393 . S
C68 C75 1.500 . S
C69 C68 1.382 . S
C69 C70 1.400 . S
C69 H80 0.930 . S
C70 C69 1.400 . S
C70 C71 1.384 . S
C71 C70 1.384 . S
C71 C73 1.392 . S
C71 H81 0.931 . S
C72 C68 1.393 . S
C72 C73 1.401 . S
C72 H82 0.930 . S
C73 C71 1.392 . S
C73 C72 1.401 . S
C73 H83 0.930 . S
C74 O52 1.262 . S
C74 O53 1.260 . S
C75 Tb11 2.833 . S
C75 O50 1.251 . S
C75 O55 1.256 . S
C75 C68 1.500 . S
H76 C59 0.930 . S
H77 C60 0.931 . S
H78 C61 0.930 . S
H79 C62 0.930 . S
H80 C69 0.930 . S
H81 C71 0.931 . S
H82 C72 0.930 . S
H83 C73 0.930 . S
Tb84 N115 2.660 . S
Tb84 N122 2.600 . S
Tb84 O128 2.546 . S
Tb84 O129 2.610 . S
Tb84 O131 2.320 . S
Tb84 O132 2.552 . S
Tb84 O133 2.413 . S
Tb84 O135 2.362 . S
Tb84 O136 2.421 . S
Tb84 C148 2.833 . S
C85 C88 1.432 . S
C85 C89 1.414 . S
C85 N92 1.359 . S
C86 C88 1.417 . S
C86 C90 1.432 . S
C86 C98 1.410 . S
C87 C89 1.444 . S
C87 C90 1.317 . S
C87 H110 0.929 . S
C88 C85 1.432 . S
C88 C86 1.417 . S
C88 N96 1.360 . S
C89 C85 1.414 . S
C89 C87 1.444 . S
C89 C94 1.385 . S
C90 C86 1.432 . S
C90 C87 1.317 . S
C90 H102 0.930 . S
C91 C93 1.392 . S
C91 C94 1.370 . S
C91 H103 0.931 . S
N92 C85 1.359 . S
N92 C93 1.327 . S
N92 Tb95 2.600 . S
C93 C91 1.392 . S
C93 N92 1.327 . S
C93 H100 0.930 . S
C94 C89 1.385 . S
C94 C91 1.370 . S
C94 H113 0.930 . S
Tb95 N92 2.600 . S
Tb95 N96 2.660 . S
Tb95 O129 2.362 . S
Tb95 O130 2.421 . S
Tb95 O134 2.546 . S
Tb95 O135 2.610 . S
Tb95 O137 2.320 . S
Tb95 O138 2.552 . S
Tb95 O139 2.413 . S
Tb95 C159 2.833 . S
N96 C88 1.360 . S
N96 Tb95 2.660 . S
N96 C97 1.305 . S
C97 N96 1.305 . S
C97 C99 1.407 . S
C97 H104 0.930 . S
C98 C86 1.410 . S
C98 C99 1.345 . S
C98 H106 0.930 . S
C99 C97 1.407 . S
C99 C98 1.345 . S
C99 H101 0.930 . S
H100 C93 0.930 . S
H101 C99 0.930 . S
H102 C90 0.930 . S
H103 C91 0.931 . S
H104 C97 0.930 . S
H105 C119 0.930 . S
H106 C98 0.930 . S
H107 C125 0.930 . S
H108 C116 0.930 . S
H109 C123 0.931 . S
H110 C87 0.929 . S
H111 C117 0.930 . S
H112 C150 0.930 . S
H113 C94 0.930 . S
H114 C149 0.929 . S
N115 Tb84 2.660 . S
N115 C116 1.305 . S
N115 C120 1.360 . S
C116 H108 0.930 . S
C116 N115 1.305 . S
C116 C119 1.407 . S
C117 H111 0.930 . S
C117 C118 1.410 . S
C117 C119 1.345 . S
C118 C117 1.410 . S
C118 C120 1.417 . S
C118 C150 1.432 . S
C119 H105 0.930 . S
C119 C116 1.407 . S
C119 C117 1.345 . S
C120 N115 1.360 . S
C120 C118 1.417 . S
C120 C124 1.432 . S
H121 C126 0.930 . S
N122 Tb84 2.600 . S
N122 C124 1.359 . S
N122 C125 1.327 . S
C123 H109 0.931 . S
C123 C125 1.392 . S
C123 C126 1.370 . S
C124 C120 1.432 . S
C124 N122 1.359 . S
C124 C127 1.414 . S
C125 H107 0.930 . S
C125 N122 1.327 . S
C125 C123 1.392 . S
C126 H121 0.930 . S
C126 C123 1.370 . S
C126 C127 1.385 . S
C127 C124 1.414 . S
C127 C126 1.385 . S
C127 C149 1.444 . S
O128 Tb84 2.546 . S
O128 C148 1.251 . S
O129 Tb84 2.610 . S
O129 Tb95 2.362 . S
O129 C140 1.283 . S
O130 Tb95 2.421 . S
O130 C147 1.262 . S
O131 Tb84 2.320 . S
O131 C147 1.260 . S
O132 Tb84 2.552 . S
O132 C140 1.243 . S
O133 Tb84 2.413 . S
O133 C148 1.256 . S
O134 Tb95 2.546 . S
O134 C159 1.251 . S
O135 Tb84 2.362 . S
O135 Tb95 2.610 . S
O135 C151 1.283 . S
O136 Tb84 2.421 . S
O136 C158 1.262 . S
O137 Tb95 2.320 . S
O137 C158 1.260 . S
O138 Tb95 2.552 . S
O138 C151 1.243 . S
O139 Tb95 2.413 . S
O139 C159 1.256 . S
C140 O129 1.283 . S
C140 O132 1.243 . S
C141 C143 1.382 . S
C141 C145 1.393 . S
C141 C148 1.500 . S
C142 C143 1.400 . S
C142 C144 1.384 . S
C143 C141 1.382 . S
C143 C142 1.400 . S
C143 H160 0.930 . S
C144 C142 1.384 . S
C144 C146 1.392 . S
C144 H161 0.931 . S
C145 C141 1.393 . S
C145 C146 1.401 . S
C145 H162 0.930 . S
C146 C144 1.392 . S
C146 C145 1.401 . S
C146 H163 0.930 . S
C147 O130 1.262 . S
C147 O131 1.260 . S
C148 Tb84 2.833 . S
C148 O128 1.251 . S
C148 O133 1.256 . S
C148 C141 1.500 . S
C149 H114 0.929 . S
C149 C127 1.444 . S
C149 C150 1.317 . S
C150 H112 0.930 . S
C150 C118 1.432 . S
C150 C149 1.317 . S
C151 O135 1.283 . S
C151 O138 1.243 . S
C152 C153 1.382 . S
C152 C156 1.393 . S
C152 C159 1.500 . S
C153 C152 1.382 . S
C153 C154 1.400 . S
C153 H164 0.930 . S
C154 C153 1.400 . S
C154 C155 1.384 . S
C155 C154 1.384 . S
C155 C157 1.392 . S
C155 H165 0.931 . S
C156 C152 1.393 . S
C156 C157 1.401 . S
C156 H166 0.930 . S
C157 C155 1.392 . S
C157 C156 1.401 . S
C157 H167 0.930 . S
C158 O136 1.262 . S
C158 O137 1.260 . S
C159 Tb95 2.833 . S
C159 O134 1.251 . S
C159 O139 1.256 . S
C159 C152 1.500 . S
H160 C143 0.930 . S
H161 C144 0.931 . S
H162 C145 0.930 . S
H163 C146 0.930 . S
H164 C153 0.930 . S
H165 C155 0.931 . S
H166 C156 0.930 . S
H167 C157 0.930 . S
Tb168 N199 2.660 . S
Tb168 N206 2.600 . S
Tb168 O212 2.546 . S
Tb168 O213 2.610 . S
Tb168 O215 2.320 . S
Tb168 O216 2.552 . S
Tb168 O217 2.413 . S
Tb168 O219 2.362 . S
Tb168 O220 2.421 . S
Tb168 C232 2.833 . S
C169 C172 1.432 . S
C169 C173 1.414 . S
C169 N176 1.359 . S
C170 C172 1.417 . S
C170 C174 1.432 . S
C170 C182 1.410 . S
C171 C173 1.444 . S
C171 C174 1.317 . S
C171 H194 0.929 . S
C172 C169 1.432 . S
C172 C170 1.417 . S
C172 N180 1.360 . S
C173 C169 1.414 . S
C173 C171 1.444 . S
C173 C178 1.385 . S
C174 C170 1.432 . S
C174 C171 1.317 . S
C174 H186 0.930 . S
C175 C177 1.392 . S
C175 C178 1.370 . S
C175 H187 0.931 . S
N176 C169 1.359 . S
N176 C177 1.327 . S
N176 Tb179 2.600 . S
C177 C175 1.392 . S
C177 N176 1.327 . S
C177 H184 0.930 . S
C178 C173 1.385 . S
C178 C175 1.370 . S
C178 H197 0.930 . S
Tb179 N176 2.600 . S
Tb179 N180 2.660 . S
Tb179 O213 2.362 . S
Tb179 O214 2.421 . S
Tb179 O218 2.546 . S
Tb179 O219 2.610 . S
Tb179 O221 2.320 . S
Tb179 O222 2.552 . S
Tb179 O223 2.413 . S
Tb179 C243 2.833 . S
N180 C172 1.360 . S
N180 Tb179 2.660 . S
N180 C181 1.305 . S
C181 N180 1.305 . S
C181 C183 1.407 . S
C181 H188 0.930 . S
C182 C170 1.410 . S
C182 C183 1.345 . S
C182 H190 0.930 . S
C183 C181 1.407 . S
C183 C182 1.345 . S
C183 H185 0.930 . S
H184 C177 0.930 . S
H185 C183 0.930 . S
H186 C174 0.930 . S
H187 C175 0.931 . S
H188 C181 0.930 . S
H189 C203 0.930 . S
H190 C182 0.930 . S
H191 C209 0.930 . S
H192 C200 0.930 . S
H193 C207 0.931 . S
H194 C171 0.929 . S
H195 C201 0.930 . S
H196 C234 0.930 . S
H197 C178 0.930 . S
H198 C233 0.929 . S
N199 Tb168 2.660 . S
N199 C200 1.305 . S
N199 C204 1.360 . S
C200 H192 0.930 . S
C200 N199 1.305 . S
C200 C203 1.407 . S
C201 H195 0.930 . S
C201 C202 1.410 . S
C201 C203 1.345 . S
C202 C201 1.410 . S
C202 C204 1.417 . S
C202 C234 1.432 . S
C203 H189 0.930 . S
C203 C200 1.407 . S
C203 C201 1.345 . S
C204 N199 1.360 . S
C204 C202 1.417 . S
C204 C208 1.432 . S
H205 C210 0.930 . S
N206 Tb168 2.600 . S
N206 C208 1.359 . S
N206 C209 1.327 . S
C207 H193 0.931 . S
C207 C209 1.392 . S
C207 C210 1.370 . S
C208 C204 1.432 . S
C208 N206 1.359 . S
C208 C211 1.414 . S
C209 H191 0.930 . S
C209 N206 1.327 . S
C209 C207 1.392 . S
C210 H205 0.930 . S
C210 C207 1.370 . S
C210 C211 1.385 . S
C211 C208 1.414 . S
C211 C210 1.385 . S
C211 C233 1.444 . S
O212 Tb168 2.546 . S
O212 C232 1.251 . S
O213 Tb168 2.610 . S
O213 Tb179 2.362 . S
O213 C224 1.283 . S
O214 Tb179 2.421 . S
O214 C231 1.262 . S
O215 Tb168 2.320 . S
O215 C231 1.260 . S
O216 Tb168 2.552 . S
O216 C224 1.243 . S
O217 Tb168 2.413 . S
O217 C232 1.256 . S
O218 Tb179 2.546 . S
O218 C243 1.251 . S
O219 Tb168 2.362 . S
O219 Tb179 2.610 . S
O219 C235 1.283 . S
O220 Tb168 2.421 . S
O220 C242 1.262 . S
O221 Tb179 2.320 . S
O221 C242 1.260 . S
O222 Tb179 2.552 . S
O222 C235 1.243 . S
O223 Tb179 2.413 . S
O223 C243 1.256 . S
C224 O213 1.283 . S
C224 O216 1.243 . S
C225 C227 1.382 . S
C225 C229 1.393 . S
C225 C232 1.500 . S
C226 C227 1.400 . S
C226 C228 1.384 . S
C227 C225 1.382 . S
C227 C226 1.400 . S
C227 H244 0.930 . S
C228 C226 1.384 . S
C228 C230 1.392 . S
C228 H245 0.931 . S
C229 C225 1.393 . S
C229 C230 1.401 . S
C229 H246 0.930 . S
C230 C228 1.392 . S
C230 C229 1.401 . S
C230 H247 0.930 . S
C231 O214 1.262 . S
C231 O215 1.260 . S
C232 Tb168 2.833 . S
C232 O212 1.251 . S
C232 O217 1.256 . S
C232 C225 1.500 . S
C233 H198 0.929 . S
C233 C211 1.444 . S
C233 C234 1.317 . S
C234 H196 0.930 . S
C234 C202 1.432 . S
C234 C233 1.317 . S
C235 O219 1.283 . S
C235 O222 1.243 . S
C236 C237 1.382 . S
C236 C240 1.393 . S
C236 C243 1.500 . S
C237 C236 1.382 . S
C237 C238 1.400 . S
C237 H248 0.930 . S
C238 C237 1.400 . S
C238 C239 1.384 . S
C239 C238 1.384 . S
C239 C241 1.392 . S
C239 H249 0.931 . S
C240 C236 1.393 . S
C240 C241 1.401 . S
C240 H250 0.930 . S
C241 C239 1.392 . S
C241 C240 1.401 . S
C241 H251 0.930 . S
C242 O220 1.262 . S
C242 O221 1.260 . S
C243 Tb179 2.833 . S
C243 O218 1.251 . S
C243 O223 1.256 . S
C243 C236 1.500 . S
H244 C227 0.930 . S
H245 C228 0.931 . S
H246 C229 0.930 . S
H247 C230 0.930 . S
H248 C237 0.930 . S
H249 C239 0.931 . S
H250 C240 0.930 . S
H251 C241 0.930 . S
Tb252 N283 2.660 . S
Tb252 N290 2.600 . S
Tb252 O296 2.546 . S
Tb252 O297 2.610 . S
Tb252 O299 2.320 . S
Tb252 O300 2.552 . S
Tb252 O301 2.413 . S
Tb252 O303 2.362 . S
Tb252 O304 2.421 . S
Tb252 C316 2.833 . S
C253 C256 1.432 . S
C253 C257 1.414 . S
C253 N260 1.359 . S
C254 C256 1.417 . S
C254 C258 1.432 . S
C254 C266 1.410 . S
C255 C257 1.444 . S
C255 C258 1.317 . S
C255 H278 0.929 . S
C256 C253 1.432 . S
C256 C254 1.417 . S
C256 N264 1.360 . S
C257 C253 1.414 . S
C257 C255 1.444 . S
C257 C262 1.385 . S
C258 C254 1.432 . S
C258 C255 1.317 . S
C258 H270 0.930 . S
C259 C261 1.392 . S
C259 C262 1.370 . S
C259 H271 0.931 . S
N260 C253 1.359 . S
N260 C261 1.327 . S
N260 Tb263 2.600 . S
C261 C259 1.392 . S
C261 N260 1.327 . S
C261 H268 0.930 . S
C262 C257 1.385 . S
C262 C259 1.370 . S
C262 H281 0.930 . S
Tb263 N260 2.600 . S
Tb263 N264 2.660 . S
Tb263 O297 2.362 . S
Tb263 O298 2.421 . S
Tb263 O302 2.546 . S
Tb263 O303 2.610 . S
Tb263 O305 2.320 . S
Tb263 O306 2.552 . S
Tb263 O307 2.413 . S
Tb263 C327 2.833 . S
N264 C256 1.360 . S
N264 Tb263 2.660 . S
N264 C265 1.305 . S
C265 N264 1.305 . S
C265 C267 1.407 . S
C265 H272 0.930 . S
C266 C254 1.410 . S
C266 C267 1.345 . S
C266 H274 0.930 . S
C267 C265 1.407 . S
C267 C266 1.345 . S
C267 H269 0.930 . S
H268 C261 0.930 . S
H269 C267 0.930 . S
H270 C258 0.930 . S
H271 C259 0.931 . S
H272 C265 0.930 . S
H273 C287 0.930 . S
H274 C266 0.930 . S
H275 C293 0.930 . S
H276 C284 0.930 . S
H277 C291 0.931 . S
H278 C255 0.929 . S
H279 C285 0.930 . S
H280 C318 0.930 . S
H281 C262 0.930 . S
H282 C317 0.929 . S
N283 Tb252 2.660 . S
N283 C284 1.305 . S
N283 C288 1.360 . S
C284 H276 0.930 . S
C284 N283 1.305 . S
C284 C287 1.407 . S
C285 H279 0.930 . S
C285 C286 1.410 . S
C285 C287 1.345 . S
C286 C285 1.410 . S
C286 C288 1.417 . S
C286 C318 1.432 . S
C287 H273 0.930 . S
C287 C284 1.407 . S
C287 C285 1.345 . S
C288 N283 1.360 . S
C288 C286 1.417 . S
C288 C292 1.432 . S
H289 C294 0.930 . S
N290 Tb252 2.600 . S
N290 C292 1.359 . S
N290 C293 1.327 . S
C291 H277 0.931 . S
C291 C293 1.392 . S
C291 C294 1.370 . S
C292 C288 1.432 . S
C292 N290 1.359 . S
C292 C295 1.414 . S
C293 H275 0.930 . S
C293 N290 1.327 . S
C293 C291 1.392 . S
C294 H289 0.930 . S
C294 C291 1.370 . S
C294 C295 1.385 . S
C295 C292 1.414 . S
C295 C294 1.385 . S
C295 C317 1.444 . S
O296 Tb252 2.546 . S
O296 C316 1.251 . S
O297 Tb252 2.610 . S
O297 Tb263 2.362 . S
O297 C308 1.283 . S
O298 Tb263 2.421 . S
O298 C315 1.262 . S
O299 Tb252 2.320 . S
O299 C315 1.260 . S
O300 Tb252 2.552 . S
O300 C308 1.243 . S
O301 Tb252 2.413 . S
O301 C316 1.256 . S
O302 Tb263 2.546 . S
O302 C327 1.251 . S
O303 Tb252 2.362 . S
O303 Tb263 2.610 . S
O303 C319 1.283 . S
O304 Tb252 2.421 . S
O304 C326 1.262 . S
O305 Tb263 2.320 . S
O305 C326 1.260 . S
O306 Tb263 2.552 . S
O306 C319 1.243 . S
O307 Tb263 2.413 . S
O307 C327 1.256 . S
C308 O297 1.283 . S
C308 O300 1.243 . S
C309 C311 1.382 . S
C309 C313 1.393 . S
C309 C316 1.500 . S
C310 C311 1.400 . S
C310 C312 1.384 . S
C311 C309 1.382 . S
C311 C310 1.400 . S
C311 H328 0.930 . S
C312 C310 1.384 . S
C312 C314 1.392 . S
C312 H329 0.931 . S
C313 C309 1.393 . S
C313 C314 1.401 . S
C313 H330 0.930 . S
C314 C312 1.392 . S
C314 C313 1.401 . S
C314 H331 0.930 . S
C315 O298 1.262 . S
C315 O299 1.260 . S
C316 Tb252 2.833 . S
C316 O296 1.251 . S
C316 O301 1.256 . S
C316 C309 1.500 . S
C317 H282 0.929 . S
C317 C295 1.444 . S
C317 C318 1.317 . S
C318 H280 0.930 . S
C318 C286 1.432 . S
C318 C317 1.317 . S
C319 O303 1.283 . S
C319 O306 1.243 . S
C320 C321 1.382 . S
C320 C324 1.393 . S
C320 C327 1.500 . S
C321 C320 1.382 . S
C321 C322 1.400 . S
C321 H332 0.930 . S
C322 C321 1.400 . S
C322 C323 1.384 . S
C323 C322 1.384 . S
C323 C325 1.392 . S
C323 H333 0.931 . S
C324 C320 1.393 . S
C324 C325 1.401 . S
C324 H334 0.930 . S
C325 C323 1.392 . S
C325 C324 1.401 . S
C325 H335 0.930 . S
C326 O304 1.262 . S
C326 O305 1.260 . S
C327 Tb263 2.833 . S
C327 O302 1.251 . S
C327 O307 1.256 . S
C327 C320 1.500 . S
H328 C311 0.930 . S
H329 C312 0.931 . S
H330 C313 0.930 . S
H331 C314 0.930 . S
H332 C321 0.930 . S
H333 C323 0.931 . S
H334 C324 0.930 . S
H335 C325 0.930 . S
Tb336 N367 2.660 . S
Tb336 N374 2.600 . S
Tb336 O380 2.546 1_554 S
Tb336 O381 2.610 1_554 S
Tb336 O383 2.320 . S
Tb336 O384 2.552 1_554 S
Tb336 O385 2.413 1_554 S
Tb336 O387 2.362 . S
Tb336 O388 2.421 1_554 S
Tb336 C400 2.833 1_554 S
C337 C340 1.432 . S
C337 C341 1.414 . S
C337 N344 1.359 . S
C338 C340 1.417 . S
C338 C342 1.432 . S
C338 C350 1.410 . S
C339 C341 1.444 . S
C339 C342 1.317 . S
C339 H362 0.929 . S
C340 C337 1.432 . S
C340 C338 1.417 . S
C340 N348 1.360 . S
C341 C337 1.414 . S
C341 C339 1.444 . S
C341 C346 1.385 . S
C342 C338 1.432 . S
C342 C339 1.317 . S
C342 H354 0.930 . S
C343 C345 1.392 . S
C343 C346 1.370 . S
C343 H355 0.931 . S
N344 C337 1.359 . S
N344 C345 1.327 . S
N344 Tb347 2.600 . S
C345 C343 1.392 . S
C345 N344 1.327 . S
C345 H352 0.930 . S
C346 C341 1.385 . S
C346 C343 1.370 . S
C346 H365 0.930 . S
Tb347 N344 2.600 . S
Tb347 N348 2.660 . S
Tb347 O381 2.362 . S
Tb347 O382 2.421 1_556 S
Tb347 O386 2.546 1_556 S
Tb347 O387 2.610 1_556 S
Tb347 O389 2.320 . S
Tb347 O390 2.552 1_556 S
Tb347 O391 2.413 1_556 S
Tb347 C411 2.833 1_556 S
N348 C340 1.360 . S
N348 Tb347 2.660 . S
N348 C349 1.305 . S
C349 N348 1.305 . S
C349 C351 1.407 . S
C349 H356 0.930 . S
C350 C338 1.410 . S
C350 C351 1.345 . S
C350 H358 0.930 . S
C351 C349 1.407 . S
C351 C350 1.345 . S
C351 H353 0.930 . S
H352 C345 0.930 . S
H353 C351 0.930 . S
H354 C342 0.930 . S
H355 C343 0.931 . S
H356 C349 0.930 . S
H357 C371 0.930 . S
H358 C350 0.930 . S
H359 C377 0.930 . S
H360 C368 0.930 . S
H361 C375 0.931 . S
H362 C339 0.929 . S
H363 C369 0.930 . S
H364 C402 0.930 . S
H365 C346 0.930 . S
H366 C401 0.929 . S
N367 Tb336 2.660 . S
N367 C368 1.305 . S
N367 C372 1.360 . S
C368 H360 0.930 . S
C368 N367 1.305 . S
C368 C371 1.407 . S
C369 H363 0.930 . S
C369 C370 1.410 . S
C369 C371 1.345 . S
C370 C369 1.410 . S
C370 C372 1.417 . S
C370 C402 1.432 . S
C371 H357 0.930 . S
C371 C368 1.407 . S
C371 C369 1.345 . S
C372 N367 1.360 . S
C372 C370 1.417 . S
C372 C376 1.432 . S
H373 C378 0.930 . S
N374 Tb336 2.600 . S
N374 C376 1.359 . S
N374 C377 1.327 . S
C375 H361 0.931 . S
C375 C377 1.392 . S
C375 C378 1.370 . S
C376 C372 1.432 . S
C376 N374 1.359 . S
C376 C379 1.414 . S
C377 H359 0.930 . S
C377 N374 1.327 . S
C377 C375 1.392 . S
C378 H373 0.930 . S
C378 C375 1.370 . S
C378 C379 1.385 . S
C379 C376 1.414 . S
C379 C378 1.385 . S
C379 C401 1.444 . S
O380 Tb336 2.546 1_556 S
O380 C400 1.251 . S
O381 Tb336 2.610 1_556 S
O381 Tb347 2.362 . S
O381 C392 1.283 . S
O382 Tb347 2.421 1_554 S
O382 C399 1.262 1_554 S
O383 Tb336 2.320 . S
O383 C399 1.260 1_554 S
O384 Tb336 2.552 1_556 S
O384 C392 1.243 . S
O385 Tb336 2.413 1_556 S
O385 C400 1.256 . S
O386 Tb347 2.546 1_554 S
O386 C411 1.251 . S
O387 Tb336 2.362 . S
O387 Tb347 2.610 1_554 S
O387 C403 1.283 . S
O388 Tb336 2.421 1_556 S
O388 C410 1.262 1_556 S
O389 Tb347 2.320 . S
O389 C410 1.260 1_556 S
O390 Tb347 2.552 1_554 S
O390 C403 1.243 . S
O391 Tb347 2.413 1_554 S
O391 C411 1.256 . S
C392 O381 1.283 . S
C392 O384 1.243 . S
C393 C395 1.382 . S
C393 C397 1.393 . S
C393 C400 1.500 . S
C394 C395 1.400 . S
C394 C396 1.384 . S
C395 C393 1.382 . S
C395 C394 1.400 . S
C395 H412 0.930 . S
C396 C394 1.384 . S
C396 C398 1.392 . S
C396 H413 0.931 . S
C397 C393 1.393 . S
C397 C398 1.401 . S
C397 H414 0.930 . S
C398 C396 1.392 . S
C398 C397 1.401 . S
C398 H415 0.930 . S
C399 O382 1.262 1_556 S
C399 O383 1.260 1_556 S
C400 Tb336 2.833 1_556 S
C400 O380 1.251 . S
C400 O385 1.256 . S
C400 C393 1.500 . S
C401 H366 0.929 . S
C401 C379 1.444 . S
C401 C402 1.317 . S
C402 H364 0.930 . S
C402 C370 1.432 . S
C402 C401 1.317 . S
C403 O387 1.283 . S
C403 O390 1.243 . S
C404 C405 1.382 . S
C404 C408 1.393 . S
C404 C411 1.500 . S
C405 C404 1.382 . S
C405 C406 1.400 . S
C405 H416 0.930 . S
C406 C405 1.400 . S
C406 C407 1.384 . S
C407 C406 1.384 . S
C407 C409 1.392 . S
C407 H417 0.931 . S
C408 C404 1.393 . S
C408 C409 1.401 . S
C408 H418 0.930 . S
C409 C407 1.392 . S
C409 C408 1.401 . S
C409 H419 0.930 . S
C410 O388 1.262 1_554 S
C410 O389 1.260 1_554 S
C411 Tb347 2.833 1_554 S
C411 O386 1.251 . S
C411 O391 1.256 . S
C411 C404 1.500 . S
H412 C395 0.930 . S
H413 C396 0.931 . S
H414 C397 0.930 . S
H415 C398 0.930 . S
H416 C405 0.930 . S
H417 C407 0.931 . S
H418 C408 0.930 . S
H419 C409 0.930 . S
Tb420 N451 2.660 . S
Tb420 N458 2.600 . S
Tb420 O464 2.546 1_554 S
Tb420 O465 2.610 1_554 S
Tb420 O467 2.320 . S
Tb420 O468 2.552 1_554 S
Tb420 O469 2.413 1_554 S
Tb420 O471 2.362 . S
Tb420 O472 2.421 1_554 S
Tb420 C484 2.833 1_554 S
C421 C424 1.432 . S
C421 C425 1.414 . S
C421 N428 1.359 . S
C422 C424 1.417 . S
C422 C426 1.432 . S
C422 C434 1.410 . S
C423 C425 1.444 . S
C423 C426 1.317 . S
C423 H446 0.929 . S
C424 C421 1.432 . S
C424 C422 1.417 . S
C424 N432 1.360 . S
C425 C421 1.414 . S
C425 C423 1.444 . S
C425 C430 1.385 . S
C426 C422 1.432 . S
C426 C423 1.317 . S
C426 H438 0.930 . S
C427 C429 1.392 . S
C427 C430 1.370 . S
C427 H439 0.931 . S
N428 C421 1.359 . S
N428 C429 1.327 . S
N428 Tb431 2.600 . S
C429 C427 1.392 . S
C429 N428 1.327 . S
C429 H436 0.930 . S
C430 C425 1.385 . S
C430 C427 1.370 . S
C430 H449 0.930 . S
Tb431 N428 2.600 . S
Tb431 N432 2.660 . S
Tb431 O465 2.362 . S
Tb431 O466 2.421 1_556 S
Tb431 O470 2.546 1_556 S
Tb431 O471 2.610 1_556 S
Tb431 O473 2.320 . S
Tb431 O474 2.552 1_556 S
Tb431 O475 2.413 1_556 S
Tb431 C495 2.833 1_556 S
N432 C424 1.360 . S
N432 Tb431 2.660 . S
N432 C433 1.305 . S
C433 N432 1.305 . S
C433 C435 1.407 . S
C433 H440 0.930 . S
C434 C422 1.410 . S
C434 C435 1.345 . S
C434 H442 0.930 . S
C435 C433 1.407 . S
C435 C434 1.345 . S
C435 H437 0.930 . S
H436 C429 0.930 . S
H437 C435 0.930 . S
H438 C426 0.930 . S
H439 C427 0.931 . S
H440 C433 0.930 . S
H441 C455 0.930 . S
H442 C434 0.930 . S
H443 C461 0.930 . S
H444 C452 0.930 . S
H445 C459 0.931 . S
H446 C423 0.929 . S
H447 C453 0.930 . S
H448 C486 0.930 . S
H449 C430 0.930 . S
H450 C485 0.929 . S
N451 Tb420 2.660 . S
N451 C452 1.305 . S
N451 C456 1.360 . S
C452 H444 0.930 . S
C452 N451 1.305 . S
C452 C455 1.407 . S
C453 H447 0.930 . S
C453 C454 1.410 . S
C453 C455 1.345 . S
C454 C453 1.410 . S
C454 C456 1.417 . S
C454 C486 1.432 . S
C455 H441 0.930 . S
C455 C452 1.407 . S
C455 C453 1.345 . S
C456 N451 1.360 . S
C456 C454 1.417 . S
C456 C460 1.432 . S
H457 C462 0.930 . S
N458 Tb420 2.600 . S
N458 C460 1.359 . S
N458 C461 1.327 . S
C459 H445 0.931 . S
C459 C461 1.392 . S
C459 C462 1.370 . S
C460 C456 1.432 . S
C460 N458 1.359 . S
C460 C463 1.414 . S
C461 H443 0.930 . S
C461 N458 1.327 . S
C461 C459 1.392 . S
C462 H457 0.930 . S
C462 C459 1.370 . S
C462 C463 1.385 . S
C463 C460 1.414 . S
C463 C462 1.385 . S
C463 C485 1.444 . S
O464 Tb420 2.546 1_556 S
O464 C484 1.251 . S
O465 Tb420 2.610 1_556 S
O465 Tb431 2.362 . S
O465 C476 1.283 . S
O466 Tb431 2.421 1_554 S
O466 C483 1.262 1_554 S
O467 Tb420 2.320 . S
O467 C483 1.260 1_554 S
O468 Tb420 2.552 1_556 S
O468 C476 1.243 . S
O469 Tb420 2.413 1_556 S
O469 C484 1.256 . S
O470 Tb431 2.546 1_554 S
O470 C495 1.251 . S
O471 Tb420 2.362 . S
O471 Tb431 2.610 1_554 S
O471 C487 1.283 . S
O472 Tb420 2.421 1_556 S
O472 C494 1.262 1_556 S
O473 Tb431 2.320 . S
O473 C494 1.260 1_556 S
O474 Tb431 2.552 1_554 S
O474 C487 1.243 . S
O475 Tb431 2.413 1_554 S
O475 C495 1.256 . S
C476 O465 1.283 . S
C476 O468 1.243 . S
C477 C479 1.382 . S
C477 C481 1.393 . S
C477 C484 1.500 . S
C478 C479 1.400 . S
C478 C480 1.384 . S
C479 C477 1.382 . S
C479 C478 1.400 . S
C479 H496 0.930 . S
C480 C478 1.384 . S
C480 C482 1.392 . S
C480 H497 0.931 . S
C481 C477 1.393 . S
C481 C482 1.401 . S
C481 H498 0.930 . S
C482 C480 1.392 . S
C482 C481 1.401 . S
C482 H499 0.930 . S
C483 O466 1.262 1_556 S
C483 O467 1.260 1_556 S
C484 Tb420 2.833 1_556 S
C484 O464 1.251 . S
C484 O469 1.256 . S
C484 C477 1.500 . S
C485 H450 0.929 . S
C485 C463 1.444 . S
C485 C486 1.317 . S
C486 H448 0.930 . S
C486 C454 1.432 . S
C486 C485 1.317 . S
C487 O471 1.283 . S
C487 O474 1.243 . S
C488 C489 1.382 . S
C488 C492 1.393 . S
C488 C495 1.500 . S
C489 C488 1.382 . S
C489 C490 1.400 . S
C489 H500 0.930 . S
C490 C489 1.400 . S
C490 C491 1.384 . S
C491 C490 1.384 . S
C491 C493 1.392 . S
C491 H501 0.931 . S
C492 C488 1.393 . S
C492 C493 1.401 . S
C492 H502 0.930 . S
C493 C491 1.392 . S
C493 C492 1.401 . S
C493 H503 0.930 . S
C494 O472 1.262 1_554 S
C494 O473 1.260 1_554 S
C495 Tb431 2.833 1_554 S
C495 O470 1.251 . S
C495 O475 1.256 . S
C495 C488 1.500 . S
H496 C479 0.930 . S
H497 C480 0.931 . S
H498 C481 0.930 . S
H499 C482 0.930 . S
H500 C489 0.930 . S
H501 C491 0.931 . S
H502 C492 0.930 . S
H503 C493 0.930 . S
Tb504 N535 2.660 . S
Tb504 N542 2.600 . S
Tb504 O548 2.546 1_554 S
Tb504 O549 2.610 1_554 S
Tb504 O551 2.320 . S
Tb504 O552 2.552 1_554 S
Tb504 O553 2.413 1_554 S
Tb504 O555 2.362 . S
Tb504 O556 2.421 1_554 S
Tb504 C568 2.833 1_554 S
C505 C508 1.432 . S
C505 C509 1.414 . S
C505 N512 1.359 . S
C506 C508 1.417 . S
C506 C510 1.432 . S
C506 C518 1.410 . S
C507 C509 1.444 . S
C507 C510 1.317 . S
C507 H530 0.929 . S
C508 C505 1.432 . S
C508 C506 1.417 . S
C508 N516 1.360 . S
C509 C505 1.414 . S
C509 C507 1.444 . S
C509 C514 1.385 . S
C510 C506 1.432 . S
C510 C507 1.317 . S
C510 H522 0.930 . S
C511 C513 1.392 . S
C511 C514 1.370 . S
C511 H523 0.931 . S
N512 C505 1.359 . S
N512 C513 1.327 . S
N512 Tb515 2.600 . S
C513 C511 1.392 . S
C513 N512 1.327 . S
C513 H520 0.930 . S
C514 C509 1.385 . S
C514 C511 1.370 . S
C514 H533 0.930 . S
Tb515 N512 2.600 . S
Tb515 N516 2.660 . S
Tb515 O549 2.362 . S
Tb515 O550 2.421 1_556 S
Tb515 O554 2.546 1_556 S
Tb515 O555 2.610 1_556 S
Tb515 O557 2.320 . S
Tb515 O558 2.552 1_556 S
Tb515 O559 2.413 1_556 S
Tb515 C579 2.833 1_556 S
N516 C508 1.360 . S
N516 Tb515 2.660 . S
N516 C517 1.305 . S
C517 N516 1.305 . S
C517 C519 1.407 . S
C517 H524 0.930 . S
C518 C506 1.410 . S
C518 C519 1.345 . S
C518 H526 0.930 . S
C519 C517 1.407 . S
C519 C518 1.345 . S
C519 H521 0.930 . S
H520 C513 0.930 . S
H521 C519 0.930 . S
H522 C510 0.930 . S
H523 C511 0.931 . S
H524 C517 0.930 . S
H525 C539 0.930 . S
H526 C518 0.930 . S
H527 C545 0.930 . S
H528 C536 0.930 . S
H529 C543 0.931 . S
H530 C507 0.929 . S
H531 C537 0.930 . S
H532 C570 0.930 . S
H533 C514 0.930 . S
H534 C569 0.929 . S
N535 Tb504 2.660 . S
N535 C536 1.305 . S
N535 C540 1.360 . S
C536 H528 0.930 . S
C536 N535 1.305 . S
C536 C539 1.407 . S
C537 H531 0.930 . S
C537 C538 1.410 . S
C537 C539 1.345 . S
C538 C537 1.410 . S
C538 C540 1.417 . S
C538 C570 1.432 . S
C539 H525 0.930 . S
C539 C536 1.407 . S
C539 C537 1.345 . S
C540 N535 1.360 . S
C540 C538 1.417 . S
C540 C544 1.432 . S
H541 C546 0.930 . S
N542 Tb504 2.600 . S
N542 C544 1.359 . S
N542 C545 1.327 . S
C543 H529 0.931 . S
C543 C545 1.392 . S
C543 C546 1.370 . S
C544 C540 1.432 . S
C544 N542 1.359 . S
C544 C547 1.414 . S
C545 H527 0.930 . S
C545 N542 1.327 . S
C545 C543 1.392 . S
C546 H541 0.930 . S
C546 C543 1.370 . S
C546 C547 1.385 . S
C547 C544 1.414 . S
C547 C546 1.385 . S
C547 C569 1.444 . S
O548 Tb504 2.546 1_556 S
O548 C568 1.251 . S
O549 Tb504 2.610 1_556 S
O549 Tb515 2.362 . S
O549 C560 1.283 . S
O550 Tb515 2.421 1_554 S
O550 C567 1.262 1_554 S
O551 Tb504 2.320 . S
O551 C567 1.260 1_554 S
O552 Tb504 2.552 1_556 S
O552 C560 1.243 . S
O553 Tb504 2.413 1_556 S
O553 C568 1.256 . S
O554 Tb515 2.546 1_554 S
O554 C579 1.251 . S
O555 Tb504 2.362 . S
O555 Tb515 2.610 1_554 S
O555 C571 1.283 . S
O556 Tb504 2.421 1_556 S
O556 C578 1.262 1_556 S
O557 Tb515 2.320 . S
O557 C578 1.260 1_556 S
O558 Tb515 2.552 1_554 S
O558 C571 1.243 . S
O559 Tb515 2.413 1_554 S
O559 C579 1.256 . S
C560 O549 1.283 . S
C560 O552 1.243 . S
C561 C563 1.382 . S
C561 C565 1.393 . S
C561 C568 1.500 . S
C562 C563 1.400 . S
C562 C564 1.384 . S
C563 C561 1.382 . S
C563 C562 1.400 . S
C563 H580 0.930 . S
C564 C562 1.384 . S
C564 C566 1.392 . S
C564 H581 0.931 . S
C565 C561 1.393 . S
C565 C566 1.401 . S
C565 H582 0.930 . S
C566 C564 1.392 . S
C566 C565 1.401 . S
C566 H583 0.930 . S
C567 O550 1.262 1_556 S
C567 O551 1.260 1_556 S
C568 Tb504 2.833 1_556 S
C568 O548 1.251 . S
C568 O553 1.256 . S
C568 C561 1.500 . S
C569 H534 0.929 . S
C569 C547 1.444 . S
C569 C570 1.317 . S
C570 H532 0.930 . S
C570 C538 1.432 . S
C570 C569 1.317 . S
C571 O555 1.283 . S
C571 O558 1.243 . S
C572 C573 1.382 . S
C572 C576 1.393 . S
C572 C579 1.500 . S
C573 C572 1.382 . S
C573 C574 1.400 . S
C573 H584 0.930 . S
C574 C573 1.400 . S
C574 C575 1.384 . S
C575 C574 1.384 . S
C575 C577 1.392 . S
C575 H585 0.931 . S
C576 C572 1.393 . S
C576 C577 1.401 . S
C576 H586 0.930 . S
C577 C575 1.392 . S
C577 C576 1.401 . S
C577 H587 0.930 . S
C578 O556 1.262 1_554 S
C578 O557 1.260 1_554 S
C579 Tb515 2.833 1_554 S
C579 O554 1.251 . S
C579 O559 1.256 . S
C579 C572 1.500 . S
H580 C563 0.930 . S
H581 C564 0.931 . S
H582 C565 0.930 . S
H583 C566 0.930 . S
H584 C573 0.930 . S
H585 C575 0.931 . S
H586 C576 0.930 . S
H587 C577 0.930 . S
Tb588 N619 2.660 . S
Tb588 N626 2.600 . S
Tb588 O632 2.546 1_554 S
Tb588 O633 2.610 1_554 S
Tb588 O635 2.320 . S
Tb588 O636 2.552 1_554 S
Tb588 O637 2.413 1_554 S
Tb588 O639 2.362 . S
Tb588 O640 2.421 1_554 S
Tb588 C652 2.833 1_554 S
C589 C592 1.432 . S
C589 C593 1.414 . S
C589 N596 1.359 . S
C590 C592 1.417 . S
C590 C594 1.432 . S
C590 C602 1.410 . S
C591 C593 1.444 . S
C591 C594 1.317 . S
C591 H614 0.929 . S
C592 C589 1.432 . S
C592 C590 1.417 . S
C592 N600 1.360 . S
C593 C589 1.414 . S
C593 C591 1.444 . S
C593 C598 1.385 . S
C594 C590 1.432 . S
C594 C591 1.317 . S
C594 H606 0.930 . S
C595 C597 1.392 . S
C595 C598 1.370 . S
C595 H607 0.931 . S
N596 C589 1.359 . S
N596 C597 1.327 . S
N596 Tb599 2.600 . S
C597 C595 1.392 . S
C597 N596 1.327 . S
C597 H604 0.930 . S
C598 C593 1.385 . S
C598 C595 1.370 . S
C598 H617 0.930 . S
Tb599 N596 2.600 . S
Tb599 N600 2.660 . S
Tb599 O633 2.362 . S
Tb599 O634 2.421 1_556 S
Tb599 O638 2.546 1_556 S
Tb599 O639 2.610 1_556 S
Tb599 O641 2.320 . S
Tb599 O642 2.552 1_556 S
Tb599 O643 2.413 1_556 S
Tb599 C663 2.833 1_556 S
N600 C592 1.360 . S
N600 Tb599 2.660 . S
N600 C601 1.305 . S
C601 N600 1.305 . S
C601 C603 1.407 . S
C601 H608 0.930 . S
C602 C590 1.410 . S
C602 C603 1.345 . S
C602 H610 0.930 . S
C603 C601 1.407 . S
C603 C602 1.345 . S
C603 H605 0.930 . S
H604 C597 0.930 . S
H605 C603 0.930 . S
H606 C594 0.930 . S
H607 C595 0.931 . S
H608 C601 0.930 . S
H609 C623 0.930 . S
H610 C602 0.930 . S
H611 C629 0.930 . S
H612 C620 0.930 . S
H613 C627 0.931 . S
H614 C591 0.929 . S
H615 C621 0.930 . S
H616 C654 0.930 . S
H617 C598 0.930 . S
H618 C653 0.929 . S
N619 Tb588 2.660 . S
N619 C620 1.305 . S
N619 C624 1.360 . S
C620 H612 0.930 . S
C620 N619 1.305 . S
C620 C623 1.407 . S
C621 H615 0.930 . S
C621 C622 1.410 . S
C621 C623 1.345 . S
C622 C621 1.410 . S
C622 C624 1.417 . S
C622 C654 1.432 . S
C623 H609 0.930 . S
C623 C620 1.407 . S
C623 C621 1.345 . S
C624 N619 1.360 . S
C624 C622 1.417 . S
C624 C628 1.432 . S
H625 C630 0.930 . S
N626 Tb588 2.600 . S
N626 C628 1.359 . S
N626 C629 1.327 . S
C627 H613 0.931 . S
C627 C629 1.392 . S
C627 C630 1.370 . S
C628 C624 1.432 . S
C628 N626 1.359 . S
C628 C631 1.414 . S
C629 H611 0.930 . S
C629 N626 1.327 . S
C629 C627 1.392 . S
C630 H625 0.930 . S
C630 C627 1.370 . S
C630 C631 1.385 . S
C631 C628 1.414 . S
C631 C630 1.385 . S
C631 C653 1.444 . S
O632 Tb588 2.546 1_556 S
O632 C652 1.251 . S
O633 Tb588 2.610 1_556 S
O633 Tb599 2.362 . S
O633 C644 1.283 . S
O634 Tb599 2.421 1_554 S
O634 C651 1.262 1_554 S
O635 Tb588 2.320 . S
O635 C651 1.260 1_554 S
O636 Tb588 2.552 1_556 S
O636 C644 1.243 . S
O637 Tb588 2.413 1_556 S
O637 C652 1.256 . S
O638 Tb599 2.546 1_554 S
O638 C663 1.251 . S
O639 Tb588 2.362 . S
O639 Tb599 2.610 1_554 S
O639 C655 1.283 . S
O640 Tb588 2.421 1_556 S
O640 C662 1.262 1_556 S
O641 Tb599 2.320 . S
O641 C662 1.260 1_556 S
O642 Tb599 2.552 1_554 S
O642 C655 1.243 . S
O643 Tb599 2.413 1_554 S
O643 C663 1.256 . S
C644 O633 1.283 . S
C644 O636 1.243 . S
C645 C647 1.382 . S
C645 C649 1.393 . S
C645 C652 1.500 . S
C646 C647 1.400 . S
C646 C648 1.384 . S
C647 C645 1.382 . S
C647 C646 1.400 . S
C647 H664 0.930 . S
C648 C646 1.384 . S
C648 C650 1.392 . S
C648 H665 0.931 . S
C649 C645 1.393 . S
C649 C650 1.401 . S
C649 H666 0.930 . S
C650 C648 1.392 . S
C650 C649 1.401 . S
C650 H667 0.930 . S
C651 O634 1.262 1_556 S
C651 O635 1.260 1_556 S
C652 Tb588 2.833 1_556 S
C652 O632 1.251 . S
C652 O637 1.256 . S
C652 C645 1.500 . S
C653 H618 0.929 . S
C653 C631 1.444 . S
C653 C654 1.317 . S
C654 H616 0.930 . S
C654 C622 1.432 . S
C654 C653 1.317 . S
C655 O639 1.283 . S
C655 O642 1.243 . S
C656 C657 1.382 . S
C656 C660 1.393 . S
C656 C663 1.500 . S
C657 C656 1.382 . S
C657 C658 1.400 . S
C657 H668 0.930 . S
C658 C657 1.400 . S
C658 C659 1.384 . S
C659 C658 1.384 . S
C659 C661 1.392 . S
C659 H669 0.931 . S
C660 C656 1.393 . S
C660 C661 1.401 . S
C660 H670 0.930 . S
C661 C659 1.392 . S
C661 C660 1.401 . S
C661 H671 0.930 . S
C662 O640 1.262 1_554 S
C662 O641 1.260 1_554 S
C663 Tb599 2.833 1_554 S
C663 O638 1.251 . S
C663 O643 1.256 . S
C663 C656 1.500 . S
H664 C647 0.930 . S
H665 C648 0.931 . S
H666 C649 0.930 . S
H667 C650 0.930 . S
H668 C657 0.930 . S
H669 C659 0.931 . S
H670 C660 0.930 . S
H671 C661 0.930 . S
C672 C673 1.349 . S
C672 C674 1.327 . S
C672 H697 0.950 . S
C673 C672 1.349 . S
C673 C689 1.349 . S
C674 C672 1.327 . S
C674 C693 1.429 . S
C674 H698 0.950 . S
C675 C692 1.574 . S
C675 C694 1.368 . S
C675 H699 0.949 . S
H676 C680 0.949 . S
C677 C678 1.349 . S
C677 C679 1.327 . S
C677 H700 0.950 . S
C678 C677 1.349 . S
C678 C690 1.349 . S
C679 C677 1.327 . S
C679 C695 1.429 . S
C679 H701 0.950 . S
C680 H676 0.949 . S
C680 C688 1.574 . S
C680 C696 1.368 . S
H681 C689 0.950 . S
H682 C687 0.950 . S
H683 C688 0.949 . S
H684 C690 0.950 . S
H685 C691 0.950 . S
H686 C692 0.949 . S
C687 H682 0.950 . S
C687 C689 1.327 . S
C687 C693 1.429 . S
C688 C680 1.574 . S
C688 H683 0.949 . S
C688 C694 1.368 . S
C689 C673 1.349 . S
C689 H681 0.950 . S
C689 C687 1.327 . S
C690 C678 1.349 . S
C690 H684 0.950 . S
C690 C691 1.327 . S
C691 H685 0.950 . S
C691 C690 1.327 . S
C691 C695 1.429 . S
C692 C675 1.574 . S
C692 H686 0.949 . S
C692 C696 1.368 . S
C693 C674 1.429 . S
C693 C687 1.429 . S
C693 C694 1.523 . S
C694 C675 1.368 . S
C694 C688 1.368 . S
C694 C693 1.523 . S
C695 C679 1.429 . S
C695 C691 1.429 . S
C695 C696 1.523 . S
C696 C680 1.368 . S
C696 C692 1.368 . S
C696 C695 1.523 . S
H697 C672 0.950 . S
H698 C674 0.950 . S
H699 C675 0.949 . S
H700 C677 0.950 . S
H701 C679 0.950 . S
C702 C703 1.349 . S
C702 C704 1.327 . S
C702 H727 0.950 . S
C703 C702 1.349 . S
C703 C719 1.349 . S
C704 C702 1.327 . S
C704 C723 1.429 . S
C704 H728 0.950 . S
C705 C722 1.574 . S
C705 C724 1.368 . S
C705 H729 0.949 . S
H706 C710 0.949 . S
C707 C708 1.349 . S
C707 C709 1.327 . S
C707 H730 0.950 . S
C708 C707 1.349 . S
C708 C720 1.349 . S
C709 C707 1.327 . S
C709 C725 1.429 . S
C709 H731 0.950 . S
C710 H706 0.949 . S
C710 C718 1.574 . S
C710 C726 1.368 . S
H711 C719 0.950 . S
H712 C717 0.950 . S
H713 C718 0.949 . S
H714 C720 0.950 . S
H715 C721 0.950 . S
H716 C722 0.949 . S
C717 H712 0.950 . S
C717 C719 1.327 . S
C717 C723 1.429 . S
C718 C710 1.574 . S
C718 H713 0.949 . S
C718 C724 1.368 . S
C719 C703 1.349 . S
C719 H711 0.950 . S
C719 C717 1.327 . S
C720 C708 1.349 . S
C720 H714 0.950 . S
C720 C721 1.327 . S
C721 H715 0.950 . S
C721 C720 1.327 . S
C721 C725 1.429 . S
C722 C705 1.574 . S
C722 H716 0.949 . S
C722 C726 1.368 . S
C723 C704 1.429 . S
C723 C717 1.429 . S
C723 C724 1.523 . S
C724 C705 1.368 . S
C724 C718 1.368 . S
C724 C723 1.523 . S
C725 C709 1.429 . S
C725 C721 1.429 . S
C725 C726 1.523 . S
C726 C710 1.368 . S
C726 C722 1.368 . S
C726 C725 1.523 . S
H727 C702 0.950 . S
H728 C704 0.950 . S
H729 C705 0.949 . S
H730 C707 0.950 . S
H731 C709 0.950 . S
C732 C733 1.349 . S
C732 C734 1.327 . S
C732 H757 0.950 . S
C733 C732 1.349 . S
C733 C749 1.349 . S
C734 C732 1.327 . S
C734 C753 1.429 . S
C734 H758 0.950 . S
C735 C752 1.574 . S
C735 C754 1.368 . S
C735 H759 0.949 . S
H736 C740 0.949 . S
C737 C738 1.349 . S
C737 C739 1.327 . S
C737 H760 0.950 . S
C738 C737 1.349 . S
C738 C750 1.349 . S
C739 C737 1.327 . S
C739 C755 1.429 . S
C739 H761 0.950 . S
C740 H736 0.949 . S
C740 C748 1.574 . S
C740 C756 1.368 . S
H741 C749 0.950 . S
H742 C747 0.950 . S
H743 C748 0.949 . S
H744 C750 0.950 . S
H745 C751 0.950 . S
H746 C752 0.949 . S
C747 H742 0.950 . S
C747 C749 1.327 . S
C747 C753 1.429 . S
C748 C740 1.574 . S
C748 H743 0.949 . S
C748 C754 1.368 . S
C749 C733 1.349 . S
C749 H741 0.950 . S
C749 C747 1.327 . S
C750 C738 1.349 . S
C750 H744 0.950 . S
C750 C751 1.327 . S
C751 H745 0.950 . S
C751 C750 1.327 . S
C751 C755 1.429 . S
C752 C735 1.574 . S
C752 H746 0.949 . S
C752 C756 1.368 . S
C753 C734 1.429 . S
C753 C747 1.429 . S
C753 C754 1.523 . S
C754 C735 1.368 . S
C754 C748 1.368 . S
C754 C753 1.523 . S
C755 C739 1.429 . S
C755 C751 1.429 . S
C755 C756 1.523 . S
C756 C740 1.368 . S
C756 C752 1.368 . S
C756 C755 1.523 . S
H757 C732 0.950 . S
H758 C734 0.950 . S
H759 C735 0.949 . S
H760 C737 0.950 . S
H761 C739 0.950 . S
C762 C763 1.349 . S
C762 C764 1.327 . S
C762 H787 0.950 . S
C763 C762 1.349 . S
C763 C779 1.349 . S
C764 C762 1.327 . S
C764 C783 1.429 . S
C764 H788 0.950 . S
C765 C782 1.574 . S
C765 C784 1.368 . S
C765 H789 0.949 . S
H766 C770 0.949 . S
C767 C768 1.349 . S
C767 C769 1.327 . S
C767 H790 0.950 . S
C768 C767 1.349 . S
C768 C780 1.349 . S
C769 C767 1.327 . S
C769 C785 1.429 . S
C769 H791 0.950 . S
C770 H766 0.949 . S
C770 C778 1.574 . S
C770 C786 1.368 . S
H771 C779 0.950 . S
H772 C777 0.950 . S
H773 C778 0.949 . S
H774 C780 0.950 . S
H775 C781 0.950 . S
H776 C782 0.949 . S
C777 H772 0.950 . S
C777 C779 1.327 . S
C777 C783 1.429 . S
C778 C770 1.574 . S
C778 H773 0.949 . S
C778 C784 1.368 . S
C779 C763 1.349 . S
C779 H771 0.950 . S
C779 C777 1.327 . S
C780 C768 1.349 . S
C780 H774 0.950 . S
C780 C781 1.327 . S
C781 H775 0.950 . S
C781 C780 1.327 . S
C781 C785 1.429 . S
C782 C765 1.574 . S
C782 H776 0.949 . S
C782 C786 1.368 . S
C783 C764 1.429 . S
C783 C777 1.429 . S
C783 C784 1.523 . S
C784 C765 1.368 . S
C784 C778 1.368 . S
C784 C783 1.523 . S
C785 C769 1.429 . S
C785 C781 1.429 . S
C785 C786 1.523 . S
C786 C770 1.368 . S
C786 C782 1.368 . S
C786 C785 1.523 . S
H787 C762 0.950 . S
H788 C764 0.950 . S
H789 C765 0.949 . S
H790 C767 0.950 . S
H791 C769 0.950 . S
C792 C793 1.349 . S
C792 C794 1.327 . S
C792 H817 0.950 . S
C793 C792 1.349 . S
C793 C809 1.349 . S
C794 C792 1.327 . S
C794 C813 1.429 . S
C794 H818 0.950 . S
C795 C812 1.574 1_565 S
C795 C814 1.368 . S
C795 H819 0.949 . S
H796 C800 0.949 . S
C797 C798 1.349 . S
C797 C799 1.327 . S
C797 H820 0.950 . S
C798 C797 1.349 . S
C798 C810 1.349 . S
C799 C797 1.327 . S
C799 C815 1.429 . S
C799 H821 0.950 . S
C800 H796 0.949 . S
C800 C808 1.574 1_545 S
C800 C816 1.368 . S
H801 C809 0.950 . S
H802 C807 0.950 . S
H803 C808 0.949 . S
H804 C810 0.950 . S
H805 C811 0.950 . S
H806 C812 0.949 . S
C807 H802 0.950 . S
C807 C809 1.327 . S
C807 C813 1.429 . S
C808 C800 1.574 1_565 S
C808 H803 0.949 . S
C808 C814 1.368 . S
C809 C793 1.349 . S
C809 H801 0.950 . S
C809 C807 1.327 . S
C810 C798 1.349 . S
C810 H804 0.950 . S
C810 C811 1.327 . S
C811 H805 0.950 . S
C811 C810 1.327 . S
C811 C815 1.429 . S
C812 C795 1.574 1_545 S
C812 H806 0.949 . S
C812 C816 1.368 . S
C813 C794 1.429 . S
C813 C807 1.429 . S
C813 C814 1.523 . S
C814 C795 1.368 . S
C814 C808 1.368 . S
C814 C813 1.523 . S
C815 C799 1.429 . S
C815 C811 1.429 . S
C815 C816 1.523 . S
C816 C800 1.368 . S
C816 C812 1.368 . S
C816 C815 1.523 . S
H817 C792 0.950 . S
H818 C794 0.950 . S
H819 C795 0.949 . S
H820 C797 0.950 . S
H821 C799 0.950 . S
C822 C823 1.349 . S
C822 C824 1.327 . S
C822 H847 0.950 . S
C823 C822 1.349 . S
C823 C839 1.349 . S
C824 C822 1.327 . S
C824 C843 1.429 . S
C824 H848 0.950 . S
C825 C842 1.574 . S
C825 C844 1.368 . S
C825 H849 0.949 . S
H826 C830 0.949 . S
C827 C828 1.349 . S
C827 C829 1.327 . S
C827 H850 0.950 . S
C828 C827 1.349 . S
C828 C840 1.349 . S
C829 C827 1.327 . S
C829 C845 1.429 . S
C829 H851 0.950 . S
C830 H826 0.949 . S
C830 C838 1.574 . S
C830 C846 1.368 . S
H831 C839 0.950 . S
H832 C837 0.950 . S
H833 C838 0.949 . S
H834 C840 0.950 . S
H835 C841 0.950 . S
H836 C842 0.949 . S
C837 H832 0.950 . S
C837 C839 1.327 . S
C837 C843 1.429 . S
C838 C830 1.574 . S
C838 H833 0.949 . S
C838 C844 1.368 . S
C839 C823 1.349 . S
C839 H831 0.950 . S
C839 C837 1.327 . S
C840 C828 1.349 . S
C840 H834 0.950 . S
C840 C841 1.327 . S
C841 H835 0.950 . S
C841 C840 1.327 . S
C841 C845 1.429 . S
C842 C825 1.574 . S
C842 H836 0.949 . S
C842 C846 1.368 . S
C843 C824 1.429 . S
C843 C837 1.429 . S
C843 C844 1.523 . S
C844 C825 1.368 . S
C844 C838 1.368 . S
C844 C843 1.523 . S
C845 C829 1.429 . S
C845 C841 1.429 . S
C845 C846 1.523 . S
C846 C830 1.368 . S
C846 C842 1.368 . S
C846 C845 1.523 . S
H847 C822 0.950 . S
H848 C824 0.950 . S
H849 C825 0.949 . S
H850 C827 0.950 . S
H851 C829 0.950 . S
C852 C853 1.349 . S
C852 C854 1.327 . S
C852 H877 0.950 . S
C853 C852 1.349 . S
C853 C869 1.349 . S
C854 C852 1.327 . S
C854 C873 1.429 . S
C854 H878 0.950 . S
C855 C872 1.574 1_565 S
C855 C874 1.368 . S
C855 H879 0.949 . S
H856 C860 0.949 . S
C857 C858 1.349 . S
C857 C859 1.327 . S
C857 H880 0.950 . S
C858 C857 1.349 . S
C858 C870 1.349 . S
C859 C857 1.327 . S
C859 C875 1.429 . S
C859 H881 0.950 . S
C860 H856 0.949 . S
C860 C868 1.574 1_545 S
C860 C876 1.368 . S
H861 C869 0.950 . S
H862 C867 0.950 . S
H863 C868 0.949 . S
H864 C870 0.950 . S
H865 C871 0.950 . S
H866 C872 0.949 . S
C867 H862 0.950 . S
C867 C869 1.327 . S
C867 C873 1.429 . S
C868 C860 1.574 1_565 S
C868 H863 0.949 . S
C868 C874 1.368 . S
C869 C853 1.349 . S
C869 H861 0.950 . S
C869 C867 1.327 . S
C870 C858 1.349 . S
C870 H864 0.950 . S
C870 C871 1.327 . S
C871 H865 0.950 . S
C871 C870 1.327 . S
C871 C875 1.429 . S
C872 C855 1.574 1_545 S
C872 H866 0.949 . S
C872 C876 1.368 . S
C873 C854 1.429 . S
C873 C867 1.429 . S
C873 C874 1.523 . S
C874 C855 1.368 . S
C874 C868 1.368 . S
C874 C873 1.523 . S
C875 C859 1.429 . S
C875 C871 1.429 . S
C875 C876 1.523 . S
C876 C860 1.368 . S
C876 C872 1.368 . S
C876 C875 1.523 . S
H877 C852 0.950 . S
H878 C854 0.950 . S
H879 C855 0.949 . S
H880 C857 0.950 . S
H881 C859 0.950 . S
C882 C883 1.349 . S
C882 C884 1.327 . S
C882 H907 0.950 . S
C883 C882 1.349 . S
C883 C899 1.349 . S
C884 C882 1.327 . S
C884 C903 1.429 . S
C884 H908 0.950 . S
C885 C902 1.574 . S
C885 C904 1.368 . S
C885 H909 0.949 . S
H886 C890 0.949 . S
C887 C888 1.349 . S
C887 C889 1.327 . S
C887 H910 0.950 . S
C888 C887 1.349 . S
C888 C900 1.349 . S
C889 C887 1.327 . S
C889 C905 1.429 . S
C889 H911 0.950 . S
C890 H886 0.949 . S
C890 C898 1.574 . S
C890 C906 1.368 . S
H891 C899 0.950 . S
H892 C897 0.950 . S
H893 C898 0.949 . S
H894 C900 0.950 . S
H895 C901 0.950 . S
H896 C902 0.949 . S
C897 H892 0.950 . S
C897 C899 1.327 . S
C897 C903 1.429 . S
C898 C890 1.574 . S
C898 H893 0.949 . S
C898 C904 1.368 . S
C899 C883 1.349 . S
C899 H891 0.950 . S
C899 C897 1.327 . S
C900 C888 1.349 . S
C900 H894 0.950 . S
C900 C901 1.327 . S
C901 H895 0.950 . S
C901 C900 1.327 . S
C901 C905 1.429 . S
C902 C885 1.574 . S
C902 H896 0.949 . S
C902 C906 1.368 . S
C903 C884 1.429 . S
C903 C897 1.429 . S
C903 C904 1.523 . S
C904 C885 1.368 . S
C904 C898 1.368 . S
C904 C903 1.523 . S
C905 C889 1.429 . S
C905 C901 1.429 . S
C905 C906 1.523 . S
C906 C890 1.368 . S
C906 C902 1.368 . S
C906 C905 1.523 . S
H907 C882 0.950 . S
H908 C884 0.950 . S
H909 C885 0.949 . S
H910 C887 0.950 . S
H911 C889 0.950 . S
C912 C913 1.349 1_556 S
C912 C914 1.327 . S
C912 H937 0.950 . S
C913 C912 1.349 1_554 S
C913 C929 1.349 . S
C914 C912 1.327 . S
C914 C933 1.429 1_556 S
C914 H938 0.950 . S
C915 C932 1.574 . S
C915 C934 1.368 . S
C915 H939 0.949 . S
H916 C920 0.949 . S
C917 C918 1.349 . S
C917 C919 1.327 . S
C917 H940 0.950 . S
C918 C917 1.349 . S
C918 C930 1.349 1_554 S
C919 C917 1.327 . S
C919 C935 1.429 . S
C919 H941 0.950 . S
C920 H916 0.949 . S
C920 C928 1.574 . S
C920 C936 1.368 1_556 S
H921 C929 0.950 . S
H922 C927 0.950 . S
H923 C928 0.949 . S
H924 C930 0.950 . S
H925 C931 0.950 . S
H926 C932 0.949 . S
C927 H922 0.950 . S
C927 C929 1.327 . S
C927 C933 1.429 . S
C928 C920 1.574 . S
C928 H923 0.949 . S
C928 C934 1.368 1_556 S
C929 C913 1.349 . S
C929 H921 0.950 . S
C929 C927 1.327 . S
C930 C918 1.349 1_556 S
C930 H924 0.950 . S
C930 C931 1.327 . S
C931 H925 0.950 . S
C931 C930 1.327 . S
C931 C935 1.429 1_556 S
C932 C915 1.574 . S
C932 H926 0.949 . S
C932 C936 1.368 . S
C933 C914 1.429 1_554 S
C933 C927 1.429 . S
C933 C934 1.523 . S
C934 C915 1.368 . S
C934 C928 1.368 1_554 S
C934 C933 1.523 . S
C935 C919 1.429 . S
C935 C931 1.429 1_554 S
C935 C936 1.523 . S
C936 C920 1.368 1_554 S
C936 C932 1.368 . S
C936 C935 1.523 . S
H937 C912 0.950 . S
H938 C914 0.950 . S
H939 C915 0.949 . S
H940 C917 0.950 . S
H941 C919 0.950 . S
C942 C943 1.349 1_556 S
C942 C944 1.327 . S
C942 H967 0.950 . S
C943 C942 1.349 1_554 S
C943 C959 1.349 . S
C944 C942 1.327 . S
C944 C963 1.429 1_556 S
C944 H968 0.950 . S
C945 C962 1.574 1_565 S
C945 C964 1.368 . S
C945 H969 0.949 . S
H946 C950 0.949 . S
C947 C948 1.349 . S
C947 C949 1.327 . S
C947 H970 0.950 . S
C948 C947 1.349 . S
C948 C960 1.349 1_554 S
C949 C947 1.327 . S
C949 C965 1.429 . S
C949 H971 0.950 . S
C950 H946 0.949 . S
C950 C958 1.574 1_545 S
C950 C966 1.368 1_556 S
H951 C959 0.950 . S
H952 C957 0.950 . S
H953 C958 0.949 . S
H954 C960 0.950 . S
H955 C961 0.950 . S
H956 C962 0.949 . S
C957 H952 0.950 . S
C957 C959 1.327 . S
C957 C963 1.429 . S
C958 C950 1.574 1_565 S
C958 H953 0.949 . S
C958 C964 1.368 1_556 S
C959 C943 1.349 . S
C959 H951 0.950 . S
C959 C957 1.327 . S
C960 C948 1.349 1_556 S
C960 H954 0.950 . S
C960 C961 1.327 . S
C961 H955 0.950 . S
C961 C960 1.327 . S
C961 C965 1.429 1_556 S
C962 C945 1.574 1_545 S
C962 H956 0.949 . S
C962 C966 1.368 . S
C963 C944 1.429 1_554 S
C963 C957 1.429 . S
C963 C964 1.523 . S
C964 C945 1.368 . S
C964 C958 1.368 1_554 S
C964 C963 1.523 . S
C965 C949 1.429 . S
C965 C961 1.429 1_554 S
C965 C966 1.523 . S
C966 C950 1.368 1_554 S
C966 C962 1.368 . S
C966 C965 1.523 . S
H967 C942 0.950 . S
H968 C944 0.950 . S
H969 C945 0.949 . S
H970 C947 0.950 . S
H971 C949 0.950 . S
C972 C973 1.349 1_554 S
C972 C974 1.327 . S
C972 H997 0.950 . S
C973 C972 1.349 1_556 S
C973 C989 1.349 . S
C974 C972 1.327 . S
C974 C993 1.429 1_554 S
C974 H998 0.950 . S
C975 C992 1.574 . S
C975 C994 1.368 . S
C975 H999 0.949 . S
H976 C980 0.949 . S
C977 C978 1.349 . S
C977 C979 1.327 . S
C977 H1000 0.950 . S
C978 C977 1.349 . S
C978 C990 1.349 1_556 S
C979 C977 1.327 . S
C979 C995 1.429 . S
C979 H1001 0.950 . S
C980 H976 0.949 . S
C980 C988 1.574 . S
C980 C996 1.368 1_554 S
H981 C989 0.950 . S
H982 C987 0.950 . S
H983 C988 0.949 . S
H984 C990 0.950 . S
H985 C991 0.950 . S
H986 C992 0.949 . S
C987 H982 0.950 . S
C987 C989 1.327 . S
C987 C993 1.429 . S
C988 C980 1.574 . S
C988 H983 0.949 . S
C988 C994 1.368 1_554 S
C989 C973 1.349 . S
C989 H981 0.950 . S
C989 C987 1.327 . S
C990 C978 1.349 1_554 S
C990 H984 0.950 . S
C990 C991 1.327 . S
C991 H985 0.950 . S
C991 C990 1.327 . S
C991 C995 1.429 1_554 S
C992 C975 1.574 . S
C992 H986 0.949 . S
C992 C996 1.368 . S
C993 C974 1.429 1_556 S
C993 C987 1.429 . S
C993 C994 1.523 . S
C994 C975 1.368 . S
C994 C988 1.368 1_556 S
C994 C993 1.523 . S
C995 C979 1.429 . S
C995 C991 1.429 1_556 S
C995 C996 1.523 . S
C996 C980 1.368 1_556 S
C996 C992 1.368 . S
C996 C995 1.523 . S
H997 C972 0.950 . S
H998 C974 0.950 . S
H999 C975 0.949 . S
H1000 C977 0.950 . S
H1001 C979 0.950 . S
C1002 C1003 1.349 . S
C1002 C1004 1.327 . S
C1002 H1027 0.950 . S
C1003 C1002 1.349 . S
C1003 C1019 1.349 1_556 S
C1004 C1002 1.327 . S
C1004 C1023 1.429 . S
C1004 H1028 0.950 . S
C1005 C1022 1.574 1_545 S
C1005 C1024 1.368 1_554 S
C1005 H1029 0.949 . S
H1006 C1010 0.949 . S
C1007 C1008 1.349 1_554 S
C1007 C1009 1.327 . S
C1007 H1030 0.950 . S
C1008 C1007 1.349 1_556 S
C1008 C1020 1.349 . S
C1009 C1007 1.327 . S
C1009 C1025 1.429 1_554 S
C1009 H1031 0.950 . S
C1010 H1006 0.949 . S
C1010 C1018 1.574 1_565 S
C1010 C1026 1.368 . S
H1011 C1019 0.950 . S
H1012 C1017 0.950 . S
H1013 C1018 0.949 . S
H1014 C1020 0.950 . S
H1015 C1021 0.950 . S
H1016 C1022 0.949 . S
C1017 H1012 0.950 . S
C1017 C1019 1.327 . S
C1017 C1023 1.429 1_554 S
C1018 C1010 1.574 1_545 S
C1018 H1013 0.949 . S
C1018 C1024 1.368 . S
C1019 C1003 1.349 1_554 S
C1019 H1011 0.950 . S
C1019 C1017 1.327 . S
C1020 C1008 1.349 . S
C1020 H1014 0.950 . S
C1020 C1021 1.327 . S
C1021 H1015 0.950 . S
C1021 C1020 1.327 . S
C1021 C1025 1.429 . S
C1022 C1005 1.574 1_565 S
C1022 H1016 0.949 . S
C1022 C1026 1.368 1_554 S
C1023 C1004 1.429 . S
C1023 C1017 1.429 1_556 S
C1023 C1024 1.523 . S
C1024 C1005 1.368 1_556 S
C1024 C1018 1.368 . S
C1024 C1023 1.523 . S
C1025 C1009 1.429 1_556 S
C1025 C1021 1.429 . S
C1025 C1026 1.523 . S
C1026 C1010 1.368 . S
C1026 C1022 1.368 1_556 S
C1026 C1025 1.523 . S
H1027 C1002 0.950 . S
H1028 C1004 0.950 . S
H1029 C1005 0.949 . S
H1030 C1007 0.950 . S
H1031 C1009 0.950 . S
C1032 C1033 1.349 . S
C1032 C1034 1.327 . S
C1032 H1057 0.950 . S
C1033 C1032 1.349 . S
C1033 C1049 1.349 . S
C1034 C1032 1.327 . S
C1034 C1053 1.429 . S
C1034 H1058 0.950 . S
C1035 C1052 1.574 1_554 S
C1035 C1054 1.368 . S
C1035 H1059 0.949 . S
H1036 C1040 0.949 . S
C1037 C1038 1.349 . S
C1037 C1039 1.327 . S
C1037 H1060 0.950 . S
C1038 C1037 1.349 . S
C1038 C1050 1.349 . S
C1039 C1037 1.327 . S
C1039 C1055 1.429 . S
C1039 H1061 0.950 . S
C1040 H1036 0.949 . S
C1040 C1048 1.574 1_556 S
C1040 C1056 1.368 . S
H1041 C1049 0.950 . S
H1042 C1047 0.950 . S
H1043 C1048 0.949 . S
H1044 C1050 0.950 . S
H1045 C1051 0.950 . S
H1046 C1052 0.949 . S
C1047 H1042 0.950 . S
C1047 C1049 1.327 . S
C1047 C1053 1.429 . S
C1048 C1040 1.574 1_554 S
C1048 H1043 0.949 . S
C1048 C1054 1.368 . S
C1049 C1033 1.349 . S
C1049 H1041 0.950 . S
C1049 C1047 1.327 . S
C1050 C1038 1.349 . S
C1050 H1044 0.950 . S
C1050 C1051 1.327 . S
C1051 H1045 0.950 . S
C1051 C1050 1.327 . S
C1051 C1055 1.429 . S
C1052 C1035 1.574 1_556 S
C1052 H1046 0.949 . S
C1052 C1056 1.368 . S
C1053 C1034 1.429 . S
C1053 C1047 1.429 . S
C1053 C1054 1.523 . S
C1054 C1035 1.368 . S
C1054 C1048 1.368 . S
C1054 C1053 1.523 . S
C1055 C1039 1.429 . S
C1055 C1051 1.429 . S
C1055 C1056 1.523 . S
C1056 C1040 1.368 . S
C1056 C1052 1.368 . S
C1056 C1055 1.523 . S
H1057 C1032 0.950 . S
H1058 C1034 0.950 . S
H1059 C1035 0.949 . S
H1060 C1037 0.950 . S
H1061 C1039 0.950 . S
C1062 C1063 1.349 . S
C1062 C1064 1.327 . S
C1062 H1087 0.950 . S
C1063 C1062 1.349 . S
C1063 C1079 1.349 . S
C1064 C1062 1.327 . S
C1064 C1083 1.429 . S
C1064 H1088 0.950 . S
C1065 C1082 1.574 1_554 S
C1065 C1084 1.368 . S
C1065 H1089 0.949 . S
H1066 C1070 0.949 . S
C1067 C1068 1.349 . S
C1067 C1069 1.327 . S
C1067 H1090 0.950 . S
C1068 C1067 1.349 . S
C1068 C1080 1.349 . S
C1069 C1067 1.327 . S
C1069 C1085 1.429 . S
C1069 H1091 0.950 . S
C1070 H1066 0.949 . S
C1070 C1078 1.574 1_556 S
C1070 C1086 1.368 . S
H1071 C1079 0.950 . S
H1072 C1077 0.950 . S
H1073 C1078 0.949 . S
H1074 C1080 0.950 . S
H1075 C1081 0.950 . S
H1076 C1082 0.949 . S
C1077 H1072 0.950 . S
C1077 C1079 1.327 . S
C1077 C1083 1.429 . S
C1078 C1070 1.574 1_554 S
C1078 H1073 0.949 . S
C1078 C1084 1.368 . S
C1079 C1063 1.349 . S
C1079 H1071 0.950 . S
C1079 C1077 1.327 . S
C1080 C1068 1.349 . S
C1080 H1074 0.950 . S
C1080 C1081 1.327 . S
C1081 H1075 0.950 . S
C1081 C1080 1.327 . S
C1081 C1085 1.429 . S
C1082 C1065 1.574 1_556 S
C1082 H1076 0.949 . S
C1082 C1086 1.368 . S
C1083 C1064 1.429 . S
C1083 C1077 1.429 . S
C1083 C1084 1.523 . S
C1084 C1065 1.368 . S
C1084 C1078 1.368 . S
C1084 C1083 1.523 . S
C1085 C1069 1.429 . S
C1085 C1081 1.429 . S
C1085 C1086 1.523 . S
C1086 C1070 1.368 . S
C1086 C1082 1.368 . S
C1086 C1085 1.523 . S
H1087 C1062 0.950 . S
H1088 C1064 0.950 . S
H1089 C1065 0.949 . S
H1090 C1067 0.950 . S
H1091 C1069 0.950 . S
C1092 C1093 1.349 . S
C1092 C1094 1.327 . S
C1092 H1117 0.950 . S
C1093 C1092 1.349 . S
C1093 C1109 1.349 . S
C1094 C1092 1.327 . S
C1094 C1113 1.429 . S
C1094 H1118 0.950 . S
C1095 C1112 1.574 1_554 S
C1095 C1114 1.368 . S
C1095 H1119 0.949 . S
H1096 C1100 0.949 . S
C1097 C1098 1.349 . S
C1097 C1099 1.327 . S
C1097 H1120 0.950 . S
C1098 C1097 1.349 . S
C1098 C1110 1.349 . S
C1099 C1097 1.327 . S
C1099 C1115 1.429 . S
C1099 H1121 0.950 . S
C1100 H1096 0.949 . S
C1100 C1108 1.574 1_556 S
C1100 C1116 1.368 . S
H1101 C1109 0.950 . S
H1102 C1107 0.950 . S
H1103 C1108 0.949 . S
H1104 C1110 0.950 . S
H1105 C1111 0.950 . S
H1106 C1112 0.949 . S
C1107 H1102 0.950 . S
C1107 C1109 1.327 . S
C1107 C1113 1.429 . S
C1108 C1100 1.574 1_554 S
C1108 H1103 0.949 . S
C1108 C1114 1.368 . S
C1109 C1093 1.349 . S
C1109 H1101 0.950 . S
C1109 C1107 1.327 . S
C1110 C1098 1.349 . S
C1110 H1104 0.950 . S
C1110 C1111 1.327 . S
C1111 H1105 0.950 . S
C1111 C1110 1.327 . S
C1111 C1115 1.429 . S
C1112 C1095 1.574 1_556 S
C1112 H1106 0.949 . S
C1112 C1116 1.368 . S
C1113 C1094 1.429 . S
C1113 C1107 1.429 . S
C1113 C1114 1.523 . S
C1114 C1095 1.368 . S
C1114 C1108 1.368 . S
C1114 C1113 1.523 . S
C1115 C1099 1.429 . S
C1115 C1111 1.429 . S
C1115 C1116 1.523 . S
C1116 C1100 1.368 . S
C1116 C1112 1.368 . S
C1116 C1115 1.523 . S
H1117 C1092 0.950 . S
H1118 C1094 0.950 . S
H1119 C1095 0.949 . S
H1120 C1097 0.950 . S
H1121 C1099 0.950 . S
C1122 C1123 1.349 . S
C1122 C1124 1.327 . S
C1122 H1147 0.950 . S
C1123 C1122 1.349 . S
C1123 C1139 1.349 . S
C1124 C1122 1.327 . S
C1124 C1143 1.429 . S
C1124 H1148 0.950 . S
C1125 C1142 1.574 1_556 S
C1125 C1144 1.368 . S
C1125 H1149 0.949 . S
H1126 C1130 0.949 . S
C1127 C1128 1.349 . S
C1127 C1129 1.327 . S
C1127 H1150 0.950 . S
C1128 C1127 1.349 . S
C1128 C1140 1.349 . S
C1129 C1127 1.327 . S
C1129 C1145 1.429 . S
C1129 H1151 0.950 . S
C1130 H1126 0.949 . S
C1130 C1138 1.574 . S
C1130 C1146 1.368 . S
H1131 C1139 0.950 . S
H1132 C1137 0.950 . S
H1133 C1138 0.949 1_556 S
H1134 C1140 0.950 . S
H1135 C1141 0.950 . S
H1136 C1142 0.949 . S
C1137 H1132 0.950 . S
C1137 C1139 1.327 . S
C1137 C1143 1.429 . S
C1138 C1130 1.574 . S
C1138 H1133 0.949 1_554 S
C1138 C1144 1.368 1_554 S
C1139 C1123 1.349 . S
C1139 H1131 0.950 . S
C1139 C1137 1.327 . S
C1140 C1128 1.349 . S
C1140 H1134 0.950 . S
C1140 C1141 1.327 . S
C1141 H1135 0.950 . S
C1141 C1140 1.327 . S
C1141 C1145 1.429 . S
C1142 C1125 1.574 1_554 S
C1142 H1136 0.949 . S
C1142 C1146 1.368 . S
C1143 C1124 1.429 . S
C1143 C1137 1.429 . S
C1143 C1144 1.523 . S
C1144 C1125 1.368 . S
C1144 C1138 1.368 1_556 S
C1144 C1143 1.523 . S
C1145 C1129 1.429 . S
C1145 C1141 1.429 . S
C1145 C1146 1.523 . S
C1146 C1130 1.368 . S
C1146 C1142 1.368 . S
C1146 C1145 1.523 . S
H1147 C1122 0.950 . S
H1148 C1124 0.950 . S
H1149 C1125 0.949 . S
H1150 C1127 0.950 . S
H1151 C1129 0.950 . S
C1152 C1153 1.349 . S
C1152 C1154 1.327 . S
C1152 H1177 0.950 . S
C1153 C1152 1.349 . S
C1153 C1169 1.349 . S
C1154 C1152 1.327 . S
C1154 C1173 1.429 . S
C1154 H1178 0.950 . S
C1155 C1172 1.574 . S
C1155 C1174 1.368 . S
C1155 H1179 0.949 . S
H1156 C1160 0.949 . S
C1157 C1158 1.349 . S
C1157 C1159 1.327 . S
C1157 H1180 0.950 . S
C1158 C1157 1.349 . S
C1158 C1170 1.349 . S
C1159 C1157 1.327 . S
C1159 C1175 1.429 . S
C1159 H1181 0.950 . S
C1160 H1156 0.949 . S
C1160 C1168 1.574 . S
C1160 C1176 1.368 . S
H1161 C1169 0.950 . S
H1162 C1167 0.950 . S
H1163 C1168 0.949 . S
H1164 C1170 0.950 . S
H1165 C1171 0.950 . S
H1166 C1172 0.949 . S
C1167 H1162 0.950 . S
C1167 C1169 1.327 . S
C1167 C1173 1.429 . S
C1168 C1160 1.574 . S
C1168 H1163 0.949 . S
C1168 C1174 1.368 . S
C1169 C1153 1.349 . S
C1169 H1161 0.950 . S
C1169 C1167 1.327 . S
C1170 C1158 1.349 . S
C1170 H1164 0.950 . S
C1170 C1171 1.327 . S
C1171 H1165 0.950 . S
C1171 C1170 1.327 . S
C1171 C1175 1.429 . S
C1172 C1155 1.574 . S
C1172 H1166 0.949 . S
C1172 C1176 1.368 . S
C1173 C1154 1.429 . S
C1173 C1167 1.429 . S
C1173 C1174 1.523 . S
C1174 C1155 1.368 . S
C1174 C1168 1.368 . S
C1174 C1173 1.523 . S
C1175 C1159 1.429 . S
C1175 C1171 1.429 . S
C1175 C1176 1.523 . S
C1176 C1160 1.368 . S
C1176 C1172 1.368 . S
C1176 C1175 1.523 . S
H1177 C1152 0.950 . S
H1178 C1154 0.950 . S
H1179 C1155 0.949 . S
H1180 C1157 0.950 . S
H1181 C1159 0.950 . S
C1182 C1183 1.349 . S
C1182 C1184 1.327 . S
C1182 H1207 0.950 . S
C1183 C1182 1.349 . S
C1183 C1199 1.349 . S
C1184 C1182 1.327 . S
C1184 C1203 1.429 . S
C1184 H1208 0.950 . S
C1185 C1202 1.574 . S
C1185 C1204 1.368 . S
C1185 H1209 0.949 . S
H1186 C1190 0.949 . S
C1187 C1188 1.349 . S
C1187 C1189 1.327 . S
C1187 H1210 0.950 . S
C1188 C1187 1.349 . S
C1188 C1200 1.349 . S
C1189 C1187 1.327 . S
C1189 C1205 1.429 . S
C1189 H1211 0.950 . S
C1190 H1186 0.949 . S
C1190 C1198 1.574 . S
C1190 C1206 1.368 . S
H1191 C1199 0.950 . S
H1192 C1197 0.950 . S
H1193 C1198 0.949 . S
H1194 C1200 0.950 . S
H1195 C1201 0.950 . S
H1196 C1202 0.949 . S
C1197 H1192 0.950 . S
C1197 C1199 1.327 . S
C1197 C1203 1.429 . S
C1198 C1190 1.574 . S
C1198 H1193 0.949 . S
C1198 C1204 1.368 . S
C1199 C1183 1.349 . S
C1199 H1191 0.950 . S
C1199 C1197 1.327 . S
C1200 C1188 1.349 . S
C1200 H1194 0.950 . S
C1200 C1201 1.327 . S
C1201 H1195 0.950 . S
C1201 C1200 1.327 . S
C1201 C1205 1.429 . S
C1202 C1185 1.574 . S
C1202 H1196 0.949 . S
C1202 C1206 1.368 . S
C1203 C1184 1.429 . S
C1203 C1197 1.429 . S
C1203 C1204 1.523 . S
C1204 C1185 1.368 . S
C1204 C1198 1.368 . S
C1204 C1203 1.523 . S
C1205 C1189 1.429 . S
C1205 C1201 1.429 . S
C1205 C1206 1.523 . S
C1206 C1190 1.368 . S
C1206 C1202 1.368 . S
C1206 C1205 1.523 . S
H1207 C1182 0.950 . S
H1208 C1184 0.950 . S
H1209 C1185 0.949 . S
H1210 C1187 0.950 . S
H1211 C1189 0.950 . S
C1212 C1213 1.349 . S
C1212 C1214 1.327 . S
C1212 H1237 0.950 . S
C1213 C1212 1.349 . S
C1213 C1229 1.349 . S
C1214 C1212 1.327 . S
C1214 C1233 1.429 . S
C1214 H1238 0.950 . S
C1215 C1232 1.574 . S
C1215 C1234 1.368 . S
C1215 H1239 0.949 . S
H1216 C1220 0.949 . S
C1217 C1218 1.349 . S
C1217 C1219 1.327 . S
C1217 H1240 0.950 . S
C1218 C1217 1.349 . S
C1218 C1230 1.349 . S
C1219 C1217 1.327 . S
C1219 C1235 1.429 . S
C1219 H1241 0.950 . S
C1220 H1216 0.949 . S
C1220 C1228 1.574 . S
C1220 C1236 1.368 . S
H1221 C1229 0.950 . S
H1222 C1227 0.950 . S
H1223 C1228 0.949 . S
H1224 C1230 0.950 . S
H1225 C1231 0.950 . S
H1226 C1232 0.949 . S
C1227 H1222 0.950 . S
C1227 C1229 1.327 . S
C1227 C1233 1.429 . S
C1228 C1220 1.574 . S
C1228 H1223 0.949 . S
C1228 C1234 1.368 . S
C1229 C1213 1.349 . S
C1229 H1221 0.950 . S
C1229 C1227 1.327 . S
C1230 C1218 1.349 . S
C1230 H1224 0.950 . S
C1230 C1231 1.327 . S
C1231 H1225 0.950 . S
C1231 C1230 1.327 . S
C1231 C1235 1.429 . S
C1232 C1215 1.574 . S
C1232 H1226 0.949 . S
C1232 C1236 1.368 . S
C1233 C1214 1.429 . S
C1233 C1227 1.429 . S
C1233 C1234 1.523 . S
C1234 C1215 1.368 . S
C1234 C1228 1.368 . S
C1234 C1233 1.523 . S
C1235 C1219 1.429 . S
C1235 C1231 1.429 . S
C1235 C1236 1.523 . S
C1236 C1220 1.368 . S
C1236 C1232 1.368 . S
C1236 C1235 1.523 . S
H1237 C1212 0.950 . S
H1238 C1214 0.950 . S
H1239 C1215 0.949 . S
H1240 C1217 0.950 . S
H1241 C1219 0.950 . S
C1242 C1243 1.349 . S
C1242 C1244 1.327 . S
C1242 H1267 0.950 . S
C1243 C1242 1.349 . S
C1243 C1259 1.349 . S
C1244 C1242 1.327 . S
C1244 C1263 1.429 . S
C1244 H1268 0.950 . S
C1245 C1262 1.574 . S
C1245 C1264 1.368 . S
C1245 H1269 0.949 . S
H1246 C1250 0.949 . S
C1247 C1248 1.349 . S
C1247 C1249 1.327 . S
C1247 H1270 0.950 . S
C1248 C1247 1.349 . S
C1248 C1260 1.349 . S
C1249 C1247 1.327 . S
C1249 C1265 1.429 . S
C1249 H1271 0.950 . S
C1250 H1246 0.949 . S
C1250 C1258 1.574 . S
C1250 C1266 1.368 . S
H1251 C1259 0.950 . S
H1252 C1257 0.950 . S
H1253 C1258 0.949 . S
H1254 C1260 0.950 . S
H1255 C1261 0.950 . S
H1256 C1262 0.949 . S
C1257 H1252 0.950 . S
C1257 C1259 1.327 . S
C1257 C1263 1.429 . S
C1258 C1250 1.574 . S
C1258 H1253 0.949 . S
C1258 C1264 1.368 . S
C1259 C1243 1.349 . S
C1259 H1251 0.950 . S
C1259 C1257 1.327 . S
C1260 C1248 1.349 . S
C1260 H1254 0.950 . S
C1260 C1261 1.327 . S
C1261 H1255 0.950 . S
C1261 C1260 1.327 . S
C1261 C1265 1.429 . S
C1262 C1245 1.574 . S
C1262 H1256 0.949 . S
C1262 C1266 1.368 . S
C1263 C1244 1.429 . S
C1263 C1257 1.429 . S
C1263 C1264 1.523 . S
C1264 C1245 1.368 . S
C1264 C1258 1.368 . S
C1264 C1263 1.523 . S
C1265 C1249 1.429 . S
C1265 C1261 1.429 . S
C1265 C1266 1.523 . S
C1266 C1250 1.368 . S
C1266 C1262 1.368 . S
C1266 C1265 1.523 . S
H1267 C1242 0.950 . S
H1268 C1244 0.950 . S
H1269 C1245 0.949 . S
H1270 C1247 0.950 . S
H1271 C1249 0.950 . S
C1272 C1273 1.349 . S
C1272 C1274 1.327 . S
C1272 H1297 0.950 . S
C1273 C1272 1.349 . S
C1273 C1289 1.349 . S
C1274 C1272 1.327 . S
C1274 C1293 1.429 . S
C1274 H1298 0.950 . S
C1275 C1292 1.574 1_455 S
C1275 C1294 1.368 . S
C1275 H1299 0.949 . S
H1276 C1280 0.949 . S
C1277 C1278 1.349 . S
C1277 C1279 1.327 . S
C1277 H1300 0.950 . S
C1278 C1277 1.349 . S
C1278 C1290 1.349 . S
C1279 C1277 1.327 . S
C1279 C1295 1.429 . S
C1279 H1301 0.950 . S
C1280 H1276 0.949 . S
C1280 C1288 1.574 1_655 S
C1280 C1296 1.368 . S
H1281 C1289 0.950 . S
H1282 C1287 0.950 . S
H1283 C1288 0.949 . S
H1284 C1290 0.950 . S
H1285 C1291 0.950 . S
H1286 C1292 0.949 . S
C1287 H1282 0.950 . S
C1287 C1289 1.327 . S
C1287 C1293 1.429 . S
C1288 C1280 1.574 1_455 S
C1288 H1283 0.949 . S
C1288 C1294 1.368 . S
C1289 C1273 1.349 . S
C1289 H1281 0.950 . S
C1289 C1287 1.327 . S
C1290 C1278 1.349 . S
C1290 H1284 0.950 . S
C1290 C1291 1.327 . S
C1291 H1285 0.950 . S
C1291 C1290 1.327 . S
C1291 C1295 1.429 . S
C1292 C1275 1.574 1_655 S
C1292 H1286 0.949 . S
C1292 C1296 1.368 . S
C1293 C1274 1.429 . S
C1293 C1287 1.429 . S
C1293 C1294 1.523 . S
C1294 C1275 1.368 . S
C1294 C1288 1.368 . S
C1294 C1293 1.523 . S
C1295 C1279 1.429 . S
C1295 C1291 1.429 . S
C1295 C1296 1.523 . S
C1296 C1280 1.368 . S
C1296 C1292 1.368 . S
C1296 C1295 1.523 . S
H1297 C1272 0.950 . S
H1298 C1274 0.950 . S
H1299 C1275 0.949 . S
H1300 C1277 0.950 . S
H1301 C1279 0.950 . S
C1302 C1303 1.349 . S
C1302 C1304 1.327 . S
C1302 H1327 0.950 . S
C1303 C1302 1.349 . S
C1303 C1319 1.349 . S
C1304 C1302 1.327 . S
C1304 C1323 1.429 . S
C1304 H1328 0.950 . S
C1305 C1322 1.574 1_655 S
C1305 C1324 1.368 . S
C1305 H1329 0.949 . S
H1306 C1310 0.949 . S
C1307 C1308 1.349 . S
C1307 C1309 1.327 . S
C1307 H1330 0.950 . S
C1308 C1307 1.349 . S
C1308 C1320 1.349 . S
C1309 C1307 1.327 . S
C1309 C1325 1.429 . S
C1309 H1331 0.950 . S
C1310 H1306 0.949 . S
C1310 C1318 1.574 1_455 S
C1310 C1326 1.368 . S
H1311 C1319 0.950 . S
H1312 C1317 0.950 . S
H1313 C1318 0.949 . S
H1314 C1320 0.950 . S
H1315 C1321 0.950 . S
H1316 C1322 0.949 . S
C1317 H1312 0.950 . S
C1317 C1319 1.327 . S
C1317 C1323 1.429 . S
C1318 C1310 1.574 1_655 S
C1318 H1313 0.949 . S
C1318 C1324 1.368 . S
C1319 C1303 1.349 . S
C1319 H1311 0.950 . S
C1319 C1317 1.327 . S
C1320 C1308 1.349 . S
C1320 H1314 0.950 . S
C1320 C1321 1.327 . S
C1321 H1315 0.950 . S
C1321 C1320 1.327 . S
C1321 C1325 1.429 . S
C1322 C1305 1.574 1_455 S
C1322 H1316 0.949 . S
C1322 C1326 1.368 . S
C1323 C1304 1.429 . S
C1323 C1317 1.429 . S
C1323 C1324 1.523 . S
C1324 C1305 1.368 . S
C1324 C1318 1.368 . S
C1324 C1323 1.523 . S
C1325 C1309 1.429 . S
C1325 C1321 1.429 . S
C1325 C1326 1.523 . S
C1326 C1310 1.368 . S
C1326 C1322 1.368 . S
C1326 C1325 1.523 . S
H1327 C1302 0.950 . S
H1328 C1304 0.950 . S
H1329 C1305 0.949 . S
H1330 C1307 0.950 . S
H1331 C1309 0.950 . S
C1332 C1333 1.349 . S
C1332 C1334 1.327 . S
C1332 H1357 0.950 . S
C1333 C1332 1.349 . S
C1333 C1349 1.349 . S
C1334 C1332 1.327 . S
C1334 C1353 1.429 . S
C1334 H1358 0.950 . S
C1335 C1352 1.574 . S
C1335 C1354 1.368 . S
C1335 H1359 0.949 . S
H1336 C1340 0.949 . S
C1337 C1338 1.349 . S
C1337 C1339 1.327 . S
C1337 H1360 0.950 . S
C1338 C1337 1.349 . S
C1338 C1350 1.349 . S
C1339 C1337 1.327 . S
C1339 C1355 1.429 . S
C1339 H1361 0.950 . S
C1340 H1336 0.949 . S
C1340 C1348 1.574 . S
C1340 C1356 1.368 . S
H1341 C1349 0.950 . S
H1342 C1347 0.950 . S
H1343 C1348 0.949 . S
H1344 C1350 0.950 . S
H1345 C1351 0.950 . S
H1346 C1352 0.949 . S
C1347 H1342 0.950 . S
C1347 C1349 1.327 . S
C1347 C1353 1.429 . S
C1348 C1340 1.574 . S
C1348 H1343 0.949 . S
C1348 C1354 1.368 . S
C1349 C1333 1.349 . S
C1349 H1341 0.950 . S
C1349 C1347 1.327 . S
C1350 C1338 1.349 . S
C1350 H1344 0.950 . S
C1350 C1351 1.327 . S
C1351 H1345 0.950 . S
C1351 C1350 1.327 . S
C1351 C1355 1.429 . S
C1352 C1335 1.574 . S
C1352 H1346 0.949 . S
C1352 C1356 1.368 . S
C1353 C1334 1.429 . S
C1353 C1347 1.429 . S
C1353 C1354 1.523 . S
C1354 C1335 1.368 . S
C1354 C1348 1.368 . S
C1354 C1353 1.523 . S
C1355 C1339 1.429 . S
C1355 C1351 1.429 . S
C1355 C1356 1.523 . S
C1356 C1340 1.368 . S
C1356 C1352 1.368 . S
C1356 C1355 1.523 . S
H1357 C1332 0.950 . S
H1358 C1334 0.950 . S
H1359 C1335 0.949 . S
H1360 C1337 0.950 . S
H1361 C1339 0.950 . S
C1362 C1363 1.349 . S
C1362 C1364 1.327 . S
C1362 H1387 0.950 . S
C1363 C1362 1.349 . S
C1363 C1379 1.349 . S
C1364 C1362 1.327 . S
C1364 C1383 1.429 . S
C1364 H1388 0.950 . S
C1365 C1382 1.574 . S
C1365 C1384 1.368 . S
C1365 H1389 0.949 . S
H1366 C1370 0.949 . S
C1367 C1368 1.349 . S
C1367 C1369 1.327 . S
C1367 H1390 0.950 . S
C1368 C1367 1.349 . S
C1368 C1380 1.349 . S
C1369 C1367 1.327 . S
C1369 C1385 1.429 . S
C1369 H1391 0.950 . S
C1370 H1366 0.949 . S
C1370 C1378 1.574 . S
C1370 C1386 1.368 . S
H1371 C1379 0.950 . S
H1372 C1377 0.950 . S
H1373 C1378 0.949 . S
H1374 C1380 0.950 . S
H1375 C1381 0.950 . S
H1376 C1382 0.949 . S
C1377 H1372 0.950 . S
C1377 C1379 1.327 . S
C1377 C1383 1.429 . S
C1378 C1370 1.574 . S
C1378 H1373 0.949 . S
C1378 C1384 1.368 . S
C1379 C1363 1.349 . S
C1379 H1371 0.950 . S
C1379 C1377 1.327 . S
C1380 C1368 1.349 . S
C1380 H1374 0.950 . S
C1380 C1381 1.327 . S
C1381 H1375 0.950 . S
C1381 C1380 1.327 . S
C1381 C1385 1.429 . S
C1382 C1365 1.574 . S
C1382 H1376 0.949 . S
C1382 C1386 1.368 . S
C1383 C1364 1.429 . S
C1383 C1377 1.429 . S
C1383 C1384 1.523 . S
C1384 C1365 1.368 . S
C1384 C1378 1.368 . S
C1384 C1383 1.523 . S
C1385 C1369 1.429 . S
C1385 C1381 1.429 . S
C1385 C1386 1.523 . S
C1386 C1370 1.368 . S
C1386 C1382 1.368 . S
C1386 C1385 1.523 . S
H1387 C1362 0.950 . S
H1388 C1364 0.950 . S
H1389 C1365 0.949 . S
H1390 C1367 0.950 . S
H1391 C1369 0.950 . S
C673 C70 1.522 . S
C678 C646 1.521 . S
C703 C562 1.522 . S
C708 C154 1.521 . S
C733 C490 1.521 . S
C738 C226 1.520 . S
C763 C406 1.521 . S
C768 C310 1.520 . S
C793 C242 1.486 . S
C798 C74 1.527 . S
C823 C158 1.527 . S
C828 C326 1.487 . S
C853 C315 1.529 . S
C858 C147 1.488 . S
C883 C231 1.529 . S
C888 C63 1.488 . S
C913 C410 1.472 . S
C918 C578 1.473 . S
C943 C494 1.473 . S
C948 C662 1.474 . S
C973 C651 1.472 . S
C978 C483 1.473 . S
C1003 C567 1.473 . S
C1008 C399 1.474 . S
C1033 C56 1.859 . S
C1038 C67 1.859 . S
C1063 C140 1.859 . S
C1068 C151 1.859 . S
C1093 C224 1.859 . S
C1098 C235 1.859 . S
C1123 C319 1.859 . S
C1128 C308 1.859 . S
C1153 C403 1.859 . S
C1158 C392 1.859 . S
C1183 C476 1.859 . S
C1188 C487 1.859 . S
C1213 C571 1.859 . S
C1218 C560 1.859 . S
C1243 C655 1.859 . S
C1248 C644 1.859 . S
C1273 C58 1.795 . S
C1278 C142 1.795 . S
C1303 C322 1.795 . S
C1308 C238 1.795 . S
C1333 C394 1.795 . S
C1338 C478 1.795 . S
C1363 C658 1.796 . S
C1368 C574 1.796 . S
