# Generated by pormake.
# Topology sow, (4)-cn, num edge types: 1
# Building blocks:
#     Node 0, Type 0, BuildingBlock: ICAMEG_clean_sbu_1, # of connection points: 4
#     Node 1, Type 0, BuildingBlock: ICAMEG_clean_sbu_1, # of connection points: 4
#     Node 2, Type 0, BuildingBlock: ICAMEG_clean_sbu_1, # of connection points: 4
#     Node 3, Type 0, BuildingBlock: ICAMEG_clean_sbu_1, # of connection points: 4
#     Node 4, Type 0, BuildingBlock: ICAMEG_clean_sbu_1, # of connection points: 4
#     Node 5, Type 0, BuildingBlock: ICAMEG_clean_sbu_1, # of connection points: 4
#     Node 6, Type 0, BuildingBlock: ICAMEG_clean_sbu_1, # of connection points: 4
#     Node 7, Type 0, BuildingBlock: ICAMEG_clean_sbu_1, # of connection points: 4
#     Edge 8, Type (0, 0), BuildingBlock: OJICUG_clean_linker_0, # of connection points: 2
#     Edge 9, Type (0, 0), BuildingBlock: OJICUG_clean_linker_0, # of connection points: 2
#     Edge 10, Type (0, 0), BuildingBlock: OJICUG_clean_linker_0, # of connection points: 2
#     Edge 11, Type (0, 0), BuildingBlock: OJICUG_clean_linker_0, # of connection points: 2
#     Edge 12, Type (0, 0), BuildingBlock: OJICUG_clean_linker_0, # of connection points: 2
#     Edge 13, Type (0, 0), BuildingBlock: OJICUG_clean_linker_0, # of connection points: 2
#     Edge 14, Type (0, 0), BuildingBlock: OJICUG_clean_linker_0, # of connection points: 2
#     Edge 15, Type (0, 0), BuildingBlock: OJICUG_clean_linker_0, # of connection points: 2
#     Edge 16, Type (0, 0), BuildingBlock: OJICUG_clean_linker_0, # of connection points: 2
#     Edge 17, Type (0, 0), BuildingBlock: OJICUG_clean_linker_0, # of connection points: 2
#     Edge 18, Type (0, 0), BuildingBlock: OJICUG_clean_linker_0, # of connection points: 2
#     Edge 19, Type (0, 0), BuildingBlock: OJICUG_clean_linker_0, # of connection points: 2
#     Edge 20, Type (0, 0), BuildingBlock: OJICUG_clean_linker_0, # of connection points: 2
#     Edge 21, Type (0, 0), BuildingBlock: OJICUG_clean_linker_0, # of connection points: 2
#     Edge 22, Type (0, 0), BuildingBlock: OJICUG_clean_linker_0, # of connection points: 2
#     Edge 23, Type (0, 0), BuildingBlock: OJICUG_clean_linker_0, # of connection points: 2
# Relax obj value: 0.047
# Max RMSD: 0.153
# Mean RMSD: 0.153
data_MOF--net-sow--node1-ICAMEG_clean_sbu_1--edge1-OJICUG_clean_linker_0
_symmetry_space_group_name_H-M    P1
_symmetry_Int_Tables_number       1
_symmetry_cell_setting            triclinic
loop_
_symmetry_equiv_pos_as_xyz
'x, y, z'
_cell_length_a     31.989647
_cell_length_b     13.540341
_cell_length_c     20.037691
_cell_angle_alpha  90.000292
_cell_angle_beta   89.995884
_cell_angle_gamma 90.068278
loop_
_atom_site_label
_atom_site_type_symbol
_atom_site_fract_x
_atom_site_fract_y
_atom_site_fract_z
_atom_type_partial_charge
Co0 Co 0.11034 0.30888 0.02786 0.0
Co1 Co 0.13518 0.13775 0.14708 0.0
O2 O 0.15176 0.23869 0.08161 0.0
C3 C 0.16931 0.22488 0.9287 0.0
O4 O 0.16016 0.13861 0.9546 0.0
C5 C 0.19689 0.25231 0.22664 0.0
O6 O 0.17473 0.33122 0.21261 0.0
O7 O 0.10186 0.23889 0.19494 0.0
O8 O 0.07101 0.31381 0.10716 0.0
H9 H 0.03523 0.9596 0.2994 0.0
H10 H 0.19506 0.40251 0.0155 0.0
O11 O 0.14997 0.30169 0.94902 0.0
H12 H 0.10572 0.6532 0.12225 0.0
H13 H 0.06454 0.5319 0.84187 0.0
H14 H 0.01759 0.3047 0.0182 0.0
H15 H 0.07701 0.49045 0.09276 0.0
H16 H 0.11528 0.45779 0.91865 0.0
O17 O 0.18656 0.16914 0.20165 0.0
H18 H 0.05576 0.0838 0.21565 0.0
H19 H 0.18136 0.98241 0.22221 0.0
H20 H 0.96526 0.38372 0.94573 0.0
H21 H 0.22326 0.5686 0.03695 0.0
H22 H 0.98858 0.49676 0.85561 0.0
H23 H 0.17962 0.69276 0.09495 0.0
O24 O 0.08404 0.18276 0.00028 0.0
H25 H 0.25422 0.01867 0.00518 0.0
H26 H 0.1165 0.93402 0.09956 0.0
H27 H 0.15054 0.81895 0.02167 0.0
H28 H 0.22007 0.85999 0.97492 0.0
H29 H 0.21894 0.13208 0.08371 0.0
H30 H 0.16185 0.85559 0.30474 0.0
H31 H 0.08857 0.84392 0.34447 0.0
O32 O 0.08315 0.10131 0.09685 0.0
C33 C 0.07272 0.29145 0.16944 0.0
C34 C 0.06737 0.96403 0.28273 0.0
C35 C 0.13849 0.90601 0.28602 0.0
N36 N 0.1197 0.04016 0.21373 0.0
C37 C 0.07922 0.03432 0.23528 0.0
C38 C 0.1493 0.97783 0.23907 0.0
C39 C 0.09728 0.8993 0.30806 0.0
C40 C 0.17496 0.45721 0.03792 0.0
N41 N 0.13448 0.43515 0.05385 0.0
C42 C 0.19137 0.55107 0.05067 0.0
C43 C 0.16675 0.62115 0.08271 0.0
C44 C 0.12547 0.59853 0.09866 0.0
C45 C 0.10961 0.50525 0.08287 0.0
C46 C 0.05371 0.48426 0.88143 0.0
C47 C 0.02791 0.35684 0.98101 0.0
C48 C 0.08248 0.44094 0.92473 0.0
N49 N 0.06948 0.37709 0.97325 0.0
C50 C 0.99813 0.40049 0.93949 0.0
C51 C 0.01124 0.46408 0.88903 0.0
C52 C 0.06888 0.11698 0.03859 0.0
C53 C 0.22426 0.99897 0.02649 0.0
C54 C 0.147 0.95234 0.07992 0.0
C55 C 0.16614 0.8867 0.03586 0.0
C56 C 0.20506 0.91021 0.00917 0.0
N57 N 0.16592 0.03955 0.09657 0.0
C58 C 0.2043 0.06266 0.0712 0.0
Co59 Co 0.38631 0.19328 0.52792 0.0
Co60 Co 0.36137 0.36441 0.64707 0.0
O61 O 0.34485 0.26334 0.58167 0.0
C62 C 0.32726 0.27696 0.42879 0.0
O63 O 0.33639 0.36326 0.45466 0.0
C64 C 0.29973 0.24964 0.72664 0.0
O65 O 0.32192 0.17078 0.7126 0.0
O66 O 0.39476 0.26345 0.69496 0.0
O67 O 0.42567 0.18861 0.60719 0.0
H68 H 0.46119 0.54307 0.79931 0.0
H69 H 0.30166 0.09927 0.51581 0.0
O70 O 0.34663 0.2002 0.44911 0.0
H71 H 0.39128 0.84915 0.62256 0.0
H72 H 0.43222 0.97074 0.34177 0.0
H73 H 0.47907 0.19775 0.51825 0.0
H74 H 0.41985 0.01191 0.59276 0.0
H75 H 0.38145 0.04442 0.41869 0.0
O76 O 0.31002 0.33285 0.70167 0.0
H77 H 0.44075 0.41877 0.71558 0.0
H78 H 0.31507 0.5196 0.72218 0.0
H79 H 0.53143 0.11903 0.44569 0.0
H80 H 0.27355 0.93322 0.53775 0.0
H81 H 0.50817 0.00608 0.35548 0.0
H82 H 0.31735 0.80932 0.59569 0.0
O83 O 0.41251 0.31949 0.50026 0.0
H84 H 0.24222 0.48276 0.50517 0.0
H85 H 0.37986 0.56823 0.59947 0.0
H86 H 0.34569 0.68308 0.52158 0.0
H87 H 0.27621 0.64158 0.47483 0.0
H88 H 0.27761 0.36966 0.58377 0.0
H89 H 0.33449 0.64651 0.8047 0.0
H90 H 0.40776 0.65852 0.84439 0.0
O91 O 0.41335 0.40102 0.5968 0.0
C92 C 0.42394 0.211 0.66947 0.0
C93 C 0.42905 0.5385 0.78265 0.0
C94 C 0.35788 0.59621 0.78597 0.0
N95 N 0.37677 0.46212 0.71368 0.0
C96 C 0.41726 0.46815 0.73521 0.0
C97 C 0.34713 0.52433 0.73902 0.0
C98 C 0.39909 0.6031 0.80799 0.0
C99 C 0.32181 0.0447 0.53826 0.0
N100 N 0.3623 0.06692 0.55401 0.0
C101 C 0.30545 0.95086 0.55128 0.0
C102 C 0.33017 0.88094 0.58329 0.0
C103 C 0.37146 0.9037 0.599 0.0
C104 C 0.38725 0.99698 0.58301 0.0
C105 C 0.44303 0.0183 0.38137 0.0
C106 C 0.46878 0.14561 0.48104 0.0
C107 C 0.41424 0.06139 0.42475 0.0
N108 N 0.42721 0.12522 0.4733 0.0
C109 C 0.49857 0.10214 0.43947 0.0
C110 C 0.4855 0.03861 0.38896 0.0
C111 C 0.42762 0.38536 0.53855 0.0
C112 C 0.27217 0.50263 0.52645 0.0
C113 C 0.34938 0.54974 0.57985 0.0
C114 C 0.33017 0.61525 0.53578 0.0
C115 C 0.29128 0.59148 0.5091 0.0
N116 N 0.33054 0.46244 0.59654 0.0
C117 C 0.29219 0.43912 0.57121 0.0
Co118 Co 0.61009 0.1964 0.97313 0.0
Co119 Co 0.63464 0.36326 0.85119 0.0
O120 O 0.6514 0.26421 0.91768 0.0
C121 C 0.67031 0.28155 0.07 0.0
O122 O 0.66143 0.36749 0.04345 0.0
C123 C 0.69534 0.24681 0.7709 0.0
O124 O 0.67269 0.16839 0.78453 0.0
O125 O 0.60083 0.26091 0.80537 0.0
O126 O 0.56999 0.19021 0.89481 0.0
H127 H 0.53442 0.53721 0.69737 0.0
H128 H 0.69452 0.10177 0.98435 0.0
O129 O 0.65041 0.20476 0.0509 0.0
H130 H 0.60348 0.85082 0.88106 0.0
H131 H 0.56477 0.97819 0.16246 0.0
H132 H 0.5175 0.20349 0.98522 0.0
H133 H 0.57536 0.01376 0.91126 0.0
H134 H 0.61526 0.0497 0.08374 0.0
O135 O 0.68564 0.33 0.7964 0.0
H136 H 0.55494 0.4161 0.78312 0.0
H137 H 0.68083 0.51548 0.77312 0.0
H138 H 0.46546 0.12772 0.05994 0.0
H139 H 0.72223 0.93558 0.96222 0.0
H140 H 0.48897 0.0155 0.15036 0.0
H141 H 0.67781 0.81166 0.90544 0.0
O142 O 0.58476 0.3239 -0.00034 0.0
H143 H 0.75481 0.48599 0.98936 0.0
H144 H 0.6163 0.56776 0.89713 0.0
H145 H 0.65044 0.68337 0.97454 0.0
H146 H 0.72048 0.6442 0.01985 0.0
H147 H 0.71908 0.37126 0.91211 0.0
H148 H 0.66144 0.63865 0.68811 0.0
H149 H 0.58798 0.65001 0.64935 0.0
O150 O 0.58302 0.40137 0.90166 0.0
C151 C 0.5715 0.2102 0.83215 0.0
C152 C 0.56662 0.53299 0.71372 0.0
C153 C 0.63795 0.58966 0.70831 0.0
N154 N 0.61903 0.45893 0.78343 0.0
C155 C 0.57845 0.46449 0.76232 0.0
C156 C 0.64871 0.51984 0.7566 0.0
C157 C 0.59665 0.5961 0.68672 0.0
C158 C 0.67405 0.04696 0.9628 0.0
N159 N 0.63341 0.06907 0.94805 0.0
C160 C 0.69017 0.95305 0.94967 0.0
C161 C 0.66508 0.88304 0.91839 0.0
C162 C 0.62359 0.90552 0.90397 0.0
C163 C 0.60804 0.99884 0.92018 0.0
C164 C 0.5539 0.02564 0.1228 0.0
C165 C 0.52788 0.15194 0.02273 0.0
C166 C 0.5825 0.06734 0.07836 0.0
N167 N 0.5694 0.13056 0.02955 0.0
C168 C 0.49827 0.11004 0.06544 0.0
C169 C 0.51149 0.04698 0.11611 0.0
C170 C 0.5694 0.38834 0.9606 0.0
C171 C 0.72464 0.50499 0.96858 0.0
C172 C 0.64694 0.54998 0.91637 0.0
C173 C 0.66618 0.61608 0.96003 0.0
C174 C 0.70535 0.59348 0.98602 0.0
N175 N 0.66584 0.46279 0.89988 0.0
C176 C 0.70445 0.44057 0.92455 0.0
Co177 Co 0.8865 0.30679 0.47303 0.0
Co178 Co 0.8619 0.13986 0.35116 0.0
O179 O 0.84518 0.23903 0.41759 0.0
C180 C 0.82624 0.22185 0.56989 0.0
O181 O 0.83511 0.13589 0.54336 0.0
C182 C 0.80126 0.25645 0.27088 0.0
O183 O 0.82391 0.33483 0.28454 0.0
O184 O 0.89578 0.24207 0.30531 0.0
O185 O 0.92664 0.31276 0.39473 0.0
H186 H 0.96207 0.96545 0.19746 0.0
H187 H 0.80213 0.40172 0.48413 0.0
O188 O 0.84615 0.29862 0.55078 0.0
H189 H 0.89336 0.65217 0.38069 0.0
H190 H 0.93187 0.52497 0.66231 0.0
H191 H 0.9791 0.2995 0.48513 0.0
H192 H 0.92137 0.48923 0.41111 0.0
H193 H 0.88137 0.45354 0.58359 0.0
O194 O 0.81094 0.17322 0.29634 0.0
H195 H 0.9416 0.0867 0.28315 0.0
H196 H 0.81565 0.98772 0.27312 0.0
H197 H 0.03115 0.37525 0.55982 0.0
H198 H 0.7745 0.5679 0.46167 0.0
H199 H 0.00767 0.48755 0.65022 0.0
H200 H 0.81903 0.69158 0.40486 0.0
O201 O 0.91176 0.17924 0.49963 0.0
H202 H 0.74164 0.01767 0.48935 0.0
H203 H 0.88012 0.93531 0.39719 0.0
H204 H 0.84587 0.81986 0.47461 0.0
H205 H 0.77585 0.85936 0.51989 0.0
H206 H 0.77745 0.13216 0.41203 0.0
H207 H 0.83499 0.86443 0.18816 0.0
H208 H 0.90846 0.85279 0.14944 0.0
O209 O 0.91349 0.10165 0.40167 0.0
C210 C 0.92513 0.29272 0.33207 0.0
C211 C 0.92986 0.96979 0.21379 0.0
C212 C 0.8585 0.91335 0.20835 0.0
N213 N 0.87748 0.04408 0.28344 0.0
C214 C 0.91806 0.03837 0.26236 0.0
C215 C 0.84777 0.98325 0.25662 0.0
C216 C 0.89981 0.90676 0.1868 0.0
C217 C 0.82264 0.45642 0.46253 0.0
N218 N 0.86327 0.43416 0.44786 0.0
C219 C 0.80656 0.55032 0.44922 0.0
C220 C 0.83171 0.6202 0.41792 0.0
C221 C 0.8732 0.59759 0.40362 0.0
C222 C 0.8887 0.50426 0.41996 0.0
C223 C 0.94273 0.4775 0.62266 0.0
C224 C 0.96873 0.3511 0.52262 0.0
C225 C 0.91413 0.43583 0.57822 0.0
N226 N 0.92721 0.37257 0.52943 0.0
C227 C -0.00165 0.39298 0.56532 0.0
C228 C 0.98514 0.45609 0.61598 0.0
C229 C 0.9271 0.11471 0.4606 0.0
C230 C 0.77181 0.99854 0.46859 0.0
C231 C 0.84948 0.95322 0.41641 0.0
C232 C 0.83018 0.88721 0.46008 0.0
C233 C 0.79102 0.90999 0.48606 0.0
N234 N 0.83065 0.04046 0.39988 0.0
C235 C 0.79204 0.06283 0.42452 0.0
Co236 Co 0.86309 0.89966 0.82801 0.0
Co237 Co 0.87639 0.72299 0.94865 0.0
O238 O 0.83991 0.80322 0.8906 0.0
C239 C 0.81025 0.77622 0.7423 0.0
O240 O 0.83083 0.70134 0.76753 0.0
C241 C 0.81108 0.7964 0.03959 0.0
O242 O 0.81729 0.88492 0.01461 0.0
O243 O 0.90221 0.84535 0.98607 0.0
O244 O 0.90883 0.93317 0.8917 0.0
H245 H 0.01253 0.63359 0.05793 0.0
H246 H 0.77082 0.93148 0.83943 0.0
O247 O 0.81882 0.86424 0.76091 0.0
H248 H 0.8356 0.23338 0.93024 0.0
H249 H 0.86278 0.21254 0.69307 0.0
H250 H 0.94801 0.93426 0.77126 0.0
H251 H 0.87909 0.09323 0.89715 0.0
H252 H 0.82936 0.07175 0.74969 0.0
O253 O 0.83206 0.72328 0.01832 0.0
H254 H 0.96668 0.72633 0.98191 0.0
H255 H 0.86219 0.55501 0.04318 0.0
H256 H 0.97996 0.06247 0.7003 0.0
H257 H 0.72765 0.07757 0.8603 0.0
H258 H 0.93774 0.20683 0.66522 0.0
H259 H 0.75917 0.22761 0.91001 0.0
O260 O 0.89888 0.79671 0.78923 0.0
H261 H 0.76348 0.52102 0.83986 0.0
H262 H 0.91198 0.53123 0.90355 0.0
H263 H 0.8846 0.38605 0.8438 0.0
H264 H 0.80984 0.38069 0.81094 0.0
H265 H 0.79094 0.65973 0.90703 0.0
H266 H 0.90692 0.46146 0.12108 0.0
H267 H 0.98268 0.5019 0.12908 0.0
O268 O 0.92133 0.71828 0.8807 0.0
C269 C 0.91899 0.91465 0.95198 0.0
C270 C 0.97958 0.6158 0.055 0.0
C271 C 0.92029 0.51927 0.09048 0.0
N272 N 0.91177 0.64604 0.00784 0.0
C273 C 0.95344 0.66778 0.01178 0.0
C274 C 0.89507 0.57276 0.0465 0.0
C275 C 0.96277 0.54148 0.09479 0.0
C276 C 0.78551 0.99729 0.85882 0.0
N277 N 0.82787 0.00238 0.86664 0.0
C278 C 0.76054 0.07942 0.87192 0.0
C279 C 0.77838 0.16421 0.89884 0.0
C280 C 0.8212 0.16723 0.91038 0.0
C281 C 0.84567 0.08589 0.89301 0.0
C282 C 0.88096 0.14872 0.70657 0.0
C283 C 0.92848 0.99217 0.75135 0.0
C284 C 0.86258 0.06982 0.74054 0.0
N285 N 0.88667 0.99516 0.76564 0.0
C286 C 0.94712 0.06589 0.71257 0.0
C287 C 0.92336 0.1462 0.69193 0.0
C288 C 0.9235 0.7379 0.81888 0.0
C289 C 0.79569 0.52089 0.85618 0.0
C290 C 0.87901 0.52775 0.89209 0.0
C291 C 0.8638 0.44573 0.85748 0.0
C292 C 0.82187 0.44279 0.83901 0.0
N293 N 0.85297 0.60349 0.90983 0.0
C294 C 0.81153 0.59966 0.89366 0.0
Co295 Co 0.63343 0.60276 0.32803 0.0
Co296 Co 0.62015 0.77943 0.44867 0.0
O297 O 0.65663 0.69916 0.39064 0.0
C298 C 0.68635 0.7261 0.2424 0.0
O299 O 0.66579 0.80099 0.26766 0.0
C300 C 0.68545 0.70592 0.53961 0.0
O301 O 0.67925 0.61743 0.5146 0.0
O302 O 0.59428 0.65711 0.48606 0.0
O303 O 0.58764 0.56938 0.39166 0.0
H304 H 0.48399 0.86902 0.55783 0.0
H305 H 0.72568 0.5707 0.33956 0.0
O306 O 0.67775 0.63808 0.26098 0.0
H307 H 0.66071 0.26921 0.43066 0.0
H308 H 0.63367 0.28976 0.19319 0.0
H309 H 0.54854 0.56839 0.27112 0.0
H310 H 0.6173 0.40927 0.39719 0.0
H311 H 0.66713 0.43047 0.24985 0.0
O312 O 0.66445 0.77905 0.51838 0.0
H313 H 0.52985 0.77624 0.48184 0.0
H314 H 0.63436 0.94737 0.54324 0.0
H315 H 0.51657 0.44023 0.20015 0.0
H316 H 0.76879 0.42461 0.36081 0.0
H317 H 0.55874 0.29573 0.16517 0.0
H318 H 0.73717 0.27486 0.41074 0.0
O319 O 0.59771 0.70579 0.2892 0.0
H320 H 0.73317 0.98113 0.33994 0.0
H321 H 0.58465 0.97129 0.40358 0.0
H322 H 0.61211 0.1164 0.34383 0.0
H323 H 0.68688 0.12157 0.31099 0.0
H324 H 0.70564 0.84252 0.40713 0.0
H325 H 0.58962 0.04097 0.62111 0.0
H326 H 0.51384 1.00064 0.62904 0.0
O327 O 0.57525 0.78425 0.38067 0.0
C328 C 0.57748 0.58788 0.45194 0.0
C329 C 0.51695 0.88676 0.55494 0.0
C330 C 0.57625 0.98319 0.59049 0.0
N331 N 0.58477 0.85643 0.50783 0.0
C332 C 0.54309 0.83476 0.51173 0.0
C333 C 0.60147 0.92967 0.54653 0.0
C334 C 0.53375 0.96104 0.59476 0.0
C335 C 0.71096 0.50498 0.35901 0.0
N336 N 0.66858 0.49998 0.36673 0.0
C337 C 0.73589 0.42287 0.37235 0.0
C338 C 0.71799 0.33822 0.39937 0.0
C339 C 0.67515 0.33527 0.41075 0.0
C340 C 0.65073 0.41657 0.39315 0.0
C341 C 0.61552 0.35365 0.20664 0.0
C342 C 0.56805 0.5104 0.25128 0.0
C343 C 0.63391 0.43252 0.24062 0.0
N344 N 0.60985 0.50728 0.26564 0.0
C345 C 0.54941 0.43671 0.21248 0.0
C346 C 0.57313 0.35632 0.1919 0.0
C347 C 0.57311 0.76468 0.31884 0.0
C348 C 0.70096 0.98135 0.35624 0.0
C349 C 0.61763 0.97469 0.39213 0.0
C350 C 0.63288 0.05668 0.35752 0.0
C351 C 0.67482 0.05951 0.33907 0.0
N352 N 0.64364 0.89889 0.40989 0.0
C353 C 0.68508 0.90264 0.39374 0.0
Co354 Co 0.36358 0.60999 0.16855 0.0
Co355 Co 0.37707 0.78303 0.04604 0.0
O356 O 0.34033 0.70386 0.10453 0.0
C357 C 0.30939 0.7326 0.25257 0.0
O358 O 0.32959 0.80823 0.22739 0.0
C359 C 0.31186 0.70717 0.95602 0.0
O360 O 0.31823 0.6193 0.98186 0.0
O361 O 0.40276 0.65981 0.01007 0.0
O362 O 0.41 0.57675 0.1062 0.0
H363 H 0.51329 0.86946 0.93551 0.0
H364 H 0.2716 0.57258 0.15615 0.0
O365 O 0.3186 0.64487 0.23433 0.0
H366 H 0.33973 0.27186 0.07052 0.0
H367 H 0.36425 0.30202 0.30817 0.0
H368 H 0.44828 0.58115 0.22765 0.0
H369 H 0.38166 0.41539 0.10216 0.0
H370 H 0.3304 0.43903 0.24852 0.0
O371 O 0.33281 0.78104 0.97639 0.0
H372 H 0.46742 0.77895 0.01287 0.0
H373 H 0.36306 0.9486 0.94969 0.0
H374 H 0.48024 0.45809 0.30234 0.0
H375 H 0.22998 0.42309 0.13707 0.0
H376 H 0.43877 0.31226 0.33789 0.0
H377 H 0.26319 0.27334 0.09011 0.0
O378 O 0.39821 0.71578 0.20649 0.0
H379 H 0.26458 0.98649 0.15392 0.0
H380 H 0.41287 0.97573 0.08916 0.0
H381 H 0.38578 0.12156 0.14833 0.0
H382 H 0.31111 0.12709 0.1819 0.0
H383 H 0.29169 0.84721 0.08708 0.0
H384 H 0.40778 0.0397 0.87037 0.0
H385 H 0.4835 0.99909 0.86264 0.0
O386 O 0.42204 0.78914 0.11408 0.0
C387 C 0.41994 0.59267 0.0455 0.0
C388 C 0.48037 0.88744 0.93835 0.0
C389 C 0.42114 0.98291 0.90176 0.0
N390 N 0.41258 0.85862 0.98612 0.0
C391 C 0.45422 0.83672 0.98234 0.0
C392 C 0.39593 0.93078 0.94655 0.0
C393 C 0.4636 0.96058 0.8976 0.0
C394 C 0.287 0.50712 0.13782 0.0
N395 N 0.32945 0.50435 0.1306 0.0
C396 C 0.2629 0.42303 0.12568 0.0
C397 C 0.28169 0.33843 0.10031 0.0
C398 C 0.32458 0.33773 0.08922 0.0
C399 C 0.34816 0.42104 0.10568 0.0
C400 C 0.38208 0.3662 0.29422 0.0
C401 C 0.42893 0.52324 0.2481 0.0
C402 C 0.36351 0.44285 0.25843 0.0
N403 N 0.38733 0.51759 0.23265 0.0
C404 C 0.44762 0.45225 0.28895 0.0
C405 C 0.42427 0.37142 0.31007 0.0
C406 C 0.4236 0.77227 0.17633 0.0
C407 C 0.29671 0.9866 0.1372 0.0
C408 C 0.37992 0.97938 0.10073 0.0
C409 C 0.36487 0.06177 0.13505 0.0
C410 C 0.32301 0.06484 0.15388 0.0
N411 N 0.35377 0.90338 0.08363 0.0
C412 C 0.31237 0.90747 0.09995 0.0
Co413 Co 0.13295 0.89346 0.66858 0.0
Co414 Co 0.11957 0.72027 0.54613 0.0
O415 O 0.15625 0.79963 0.60458 0.0
C416 C 0.18721 0.77107 0.75255 0.0
O417 O 0.16705 0.69542 0.72736 0.0
C418 C 0.18472 0.79638 0.45605 0.0
O419 O 0.17831 0.88425 0.48189 0.0
O420 O 0.09377 0.84335 0.51017 0.0
O421 O 0.08648 0.92645 0.60628 0.0
H422 H 0.9834 0.63311 0.43575 0.0
H423 H 0.22489 0.93114 0.65597 0.0
O424 O 0.17798 0.85879 0.73433 0.0
H425 H 0.15653 0.23136 0.57001 0.0
H426 H 0.13214 0.20169 0.80796 0.0
H427 H 0.04826 0.92202 0.72787 0.0
H428 H 0.1147 0.08792 0.60217 0.0
H429 H 0.16604 0.06474 0.74832 0.0
O430 O 0.16381 0.72246 0.47644 0.0
H431 H 0.02922 0.72393 0.51302 0.0
H432 H 0.1337 0.55469 0.44983 0.0
H433 H 0.01627 0.04506 0.80254 0.0
H434 H 0.26644 0.0806 0.6363 0.0
H435 H 0.05766 0.19113 0.8379 0.0
H436 H 0.23311 0.23002 0.58914 0.0
O437 O 0.09837 0.78759 0.7066 0.0
H438 H 0.2323 0.51754 0.65396 0.0
H439 H 0.08397 0.52738 0.58932 0.0
H440 H 0.11124 0.38173 0.6485 0.0
H441 H 0.18592 0.37666 0.682 0.0
H442 H 0.20503 0.65658 0.58708 0.0
H443 H 0.08903 0.46326 0.37061 0.0
H444 H 0.01328 0.50351 0.36294 0.0
O445 O 0.07464 0.71396 0.61422 0.0
C446 C 0.07654 0.91045 0.54559 0.0
C447 C 0.01633 0.61529 0.43858 0.0
C448 C 0.07563 0.52003 0.40198 0.0
N449 N 0.08412 0.64448 0.48626 0.0
C450 C 0.04245 0.66618 0.4825 0.0
C451 C 0.10082 0.57234 0.44671 0.0
C452 C 0.03315 0.54217 0.39785 0.0
C453 C 0.20944 0.99649 0.63755 0.0
N454 N 0.16699 0.99916 0.63051 0.0
C455 C 0.2335 0.08054 0.62508 0.0
C456 C 0.21464 0.16498 0.5996 0.0
C457 C 0.17173 0.1656 0.58877 0.0
C458 C 0.1482 0.08233 0.60554 0.0
C459 C 0.11435 0.1374 0.7941 0.0
C460 C 0.06758 0.98006 0.74822 0.0
C461 C 0.13295 0.06077 0.75832 0.0
N462 N 0.10917 0.98587 0.73267 0.0
C463 C 0.04888 0.05103 0.78907 0.0
C464 C 0.07218 0.13201 0.81007 0.0
C465 C 0.07305 0.73091 0.67646 0.0
C466 C 0.20016 0.51723 0.63728 0.0
C467 C 0.11694 0.52393 0.60087 0.0
C468 C 0.13208 0.44164 0.63519 0.0
C469 C 0.17395 0.43884 0.65398 0.0
N470 N 0.14301 0.60006 0.58371 0.0
C471 C 0.18441 0.59622 0.6 0.0
C472 C 0.25394 0.15223 0.80462 0.0
C473 C 0.26486 0.24339 0.77583 0.0
H474 H 0.21576 0.075 0.87511 0.0
C475 C 0.24355 0.3288 0.79713 0.0
H476 H 0.26957 0.08493 0.78952 0.0
C477 C 0.21253 0.32317 0.84655 0.0
C478 C 0.20208 0.23201 0.87595 0.0
H479 H 0.25114 0.40039 0.77622 0.0
H480 H 0.19693 0.39039 0.86195 0.0
C481 C 0.22309 0.14664 0.85405 0.0
C482 C 0.25303 0.17305 0.29718 0.0
C483 C 0.23175 0.25848 0.27585 0.0
H484 H 0.29961 0.11141 0.36205 0.0
C485 C 0.24269 0.34964 0.30464 0.0
H486 H 0.24542 0.10147 0.27627 0.0
C487 C 0.27351 0.35519 0.3541 0.0
C488 C 0.2945 0.26979 0.37603 0.0
H489 H 0.2271 0.41697 0.28951 0.0
H490 H 0.28086 0.42683 0.37513 0.0
C491 C 0.28403 0.17864 0.34663 0.0
C492 C 0.75596 0.35406 0.19242 0.0
C493 C 0.76645 0.26302 0.22169 0.0
H494 H 0.71787 0.43124 0.12183 0.0
C495 C 0.74472 0.17782 0.20097 0.0
H496 H 0.772 0.42114 0.20702 0.0
C497 C 0.71357 0.18353 0.15185 0.0
C498 C 0.7034 0.27457 0.12215 0.0
H499 H 0.75203 0.1063 0.22218 0.0
H500 H 0.69758 0.11645 0.13702 0.0
C501 C 0.72495 0.35974 0.14325 0.0
C502 C 0.75182 0.32553 0.70091 0.0
C503 C 0.73013 0.2403 0.72168 0.0
H504 H 0.79891 0.38697 0.63688 0.0
C505 C 0.74066 0.14926 0.69243 0.0
H506 H 0.74449 0.39705 0.7221 0.0
C507 C 0.77165 0.14363 0.64321 0.0
C508 C 0.79315 0.22883 0.62206 0.0
H509 H 0.72466 0.08215 0.70707 0.0
H510 H 0.77875 0.07212 0.62182 0.0
C511 C 0.78296 0.31987 0.65175 0.0
C512 C 0.77565 0.68588 0.12202 0.0
C513 C 0.77963 0.77976 0.09242 0.0
H514 H 0.74282 0.59513 0.19201 0.0
C515 C 0.7533 0.8564 0.11373 0.0
H516 H 0.79558 0.62519 0.10703 0.0
C517 C 0.72329 0.83912 0.16303 0.0
C518 C 0.71879 0.74465 0.19152 0.0
H519 H 0.75572 0.92959 0.09221 0.0
H520 H 0.70331 0.89965 0.1782 0.0
C521 C 0.74537 0.66838 0.17069 0.0
C522 C 0.74327 0.64593 0.61366 0.0
C523 C 0.71692 0.72256 0.59241 0.0
H524 H 0.7933 0.60269 0.67806 0.0
C525 C 0.72088 0.81641 0.62205 0.0
H526 H 0.74086 0.57275 0.59212 0.0
C527 C 0.75119 0.83392 0.67068 0.0
C528 C 0.7778 0.75767 0.69145 0.0
H529 H 0.70094 0.87709 0.6071 0.0
H530 H 0.75373 0.90717 0.69201 0.0
C531 C 0.7733 0.66321 0.66293 0.0
C532 C 0.25465 0.64423 0.88185 0.0
C533 C 0.28035 0.72219 0.90318 0.0
H534 H 0.20524 0.5984 0.81696 0.0
C535 C 0.27582 0.81572 0.87336 0.0
H536 H 0.25751 0.57127 0.90356 0.0
C537 C 0.24563 0.83159 0.82438 0.0
C538 C 0.2197 0.75398 0.80346 0.0
H539 H 0.29526 0.8774 0.88839 0.0
H540 H 0.24262 0.90468 0.80295 0.0
C541 C 0.22474 0.65987 0.83219 0.0
C542 C 0.25097 0.67207 0.32439 0.0
C543 C 0.27689 0.7497 0.30346 0.0
H544 H 0.20135 0.62622 0.38839 0.0
C545 C 0.27184 0.84381 0.33219 0.0
H546 H 0.25398 0.59896 0.30297 0.0
C547 C 0.24192 0.85942 0.38186 0.0
C548 C 0.21624 0.78143 0.40319 0.0
H549 H 0.29133 0.9053 0.31696 0.0
H550 H 0.23904 0.93238 0.40357 0.0
C551 C 0.22077 0.68791 0.37336 0.0
C552 C 0.9957 0.31654 0.18187 0.0
C553 C 0.03555 0.31131 0.21132 0.0
H554 H 0.92942 0.31597 0.19699 0.0
C555 C 0.0386 0.31066 0.28121 0.0
H556 H 0.9921 0.31492 0.12824 0.0
C557 C 0.00255 0.31147 0.32065 0.0
C558 C 0.96268 0.31224 0.29106 0.0
H559 H 0.0688 0.30527 0.30539 0.0
H560 H 0.00604 0.30603 0.37421 0.0
C561 C 0.95967 0.31671 0.22127 0.0
C562 C 0.45805 0.19208 0.78125 0.0
C563 C 0.46111 0.19128 0.71137 0.0
H564 H 0.49059 0.19691 0.87427 0.0
C565 C 0.50097 0.18602 0.68194 0.0
H566 H 0.42784 0.1975 0.80542 0.0
C567 C 0.53699 0.18596 0.72135 0.0
C568 C 0.53396 0.19056 0.79114 0.0
H569 H 0.50459 0.18753 0.6283 0.0
H570 H 0.56725 0.18666 0.69709 0.0
C571 C 0.49408 0.19136 0.82071 0.0
C572 C 0.99726 0.69853 0.67799 0.0
C573 C 0.03541 0.70294 0.71234 0.0
H574 H 0.93084 0.7075 0.68602 0.0
C575 C 0.03602 0.70058 0.78215 0.0
H576 H 0.99604 0.70107 0.62402 0.0
C577 C -0.0012 0.70155 0.81743 0.0
C578 C 0.96076 0.70772 0.78302 0.0
H579 H 0.06522 0.70495 0.80941 0.0
H580 H 0.0001 0.70636 0.87133 0.0
C581 C 0.96003 0.70245 0.71328 0.0
C582 C 0.49942 0.80446 0.17791 0.0
C583 C 0.46125 0.80008 0.21223 0.0
H584 H 0.56583 0.79533 0.18598 0.0
C585 C 0.46063 0.8023 0.28204 0.0
H586 H 0.50065 0.80202 0.12393 0.0
C587 C 0.49783 0.80118 0.31734 0.0
C588 C 0.53588 0.79499 0.28295 0.0
H589 H 0.43141 0.79794 0.30929 0.0
H590 H 0.49651 0.79628 0.37124 0.0
C591 C 0.53664 0.80038 0.21322 0.0
C592 C 0.01407 0.98533 0.05549 0.0
C593 C 0.0305 0.06401 0.0176 0.0
H594 H 0.96554 0.87673 0.06528 0.0
C595 C 0.00829 0.09642 0.96147 0.0
H596 H 0.03011 0.95924 0.0997 0.0
C597 C 0.97133 0.05033 0.94237 0.0
C598 C 0.95524 0.97011 0.97893 0.0
H599 H 0.01913 0.15837 0.93229 0.0
H600 H 0.9558 0.07708 0.89789 0.0
C601 C 0.97678 0.93873 0.03628 0.0
C602 C 0.52515 0.45219 0.4423 0.0
C603 C 0.54122 0.53242 0.47886 0.0
H604 H 0.47739 0.34405 0.43224 0.0
C605 C 0.51966 0.56379 0.5362 0.0
H606 H 0.54069 0.42545 0.39782 0.0
C607 C 0.48238 0.51714 0.55541 0.0
C608 C 0.46597 0.43842 0.51753 0.0
H609 H 0.53088 0.6258 0.56521 0.0
H610 H 0.46633 0.54321 0.59962 0.0
C611 C 0.48821 0.40603 0.4614 0.0
C612 C 0.47687 0.56455 0.96043 0.0
C613 C 0.45636 0.53708 0.01962 0.0
H614 H 0.52923 0.54034 0.89568 0.0
C615 C 0.47345 0.46065 0.05858 0.0
H616 H 0.46483 0.62365 0.92959 0.0
C617 C 0.51035 0.41425 0.03982 0.0
C618 C 0.53139 0.4424 0.98152 0.0
H619 H 0.45872 0.43703 0.10456 0.0
H620 H 0.52205 0.35531 0.07092 0.0
C621 C 0.51405 0.51753 0.94149 0.0
C622 C 0.01959 0.93841 0.46054 0.0
C623 C 0.04011 0.96595 0.51971 0.0
H624 H 0.96724 0.96257 0.39578 0.0
C625 C 0.02301 0.04242 0.55864 0.0
H626 H 0.03164 0.87927 0.42973 0.0
C627 C 0.98612 0.08882 0.53985 0.0
C628 C 0.96509 0.06061 0.48156 0.0
H629 H 0.03774 0.06609 0.60461 0.0
H630 H 0.97443 0.1478 0.57092 0.0
C631 C 0.98242 0.98542 0.44158 0.0
loop_
_geom_bond_atom_site_label_1
_geom_bond_atom_site_label_2
_geom_bond_distance
_geom_bond_site_symmetry_2
_ccdc_geom_bond_type
Co0 O2 2.143 . S
Co0 O8 2.074 . S
Co0 O11 2.093 1_554 S
Co0 O24 2.097 . S
Co0 N41 2.151 . S
Co0 N49 2.214 1_554 S
Co1 O2 2.160 . S
Co1 O7 2.058 . S
Co1 O17 2.057 . S
Co1 O32 2.037 . S
Co1 N36 2.145 . S
Co1 N57 2.257 . S
O2 Co0 2.143 . S
O2 Co1 2.160 . S
C3 O4 1.278 1_556 S
C3 O11 1.224 . S
O4 C3 1.278 1_554 S
C5 O6 1.245 . S
C5 O17 1.232 . S
O6 C5 1.245 . S
O7 Co1 2.058 . S
O7 C33 1.269 . S
O8 Co0 2.074 . S
O8 C33 1.257 . S
H9 C34 0.930 . S
H10 C40 0.930 . S
O11 Co0 2.093 1_556 S
O11 C3 1.224 . S
H12 C44 0.929 . S
H13 C46 0.930 . S
H14 C47 0.930 1_554 S
H15 C45 0.929 . S
H16 C48 0.928 . S
O17 Co1 2.057 . S
O17 C5 1.232 . S
H18 C37 0.929 1_545 S
H19 C38 0.929 . S
H20 C50 0.931 . S
H21 C42 0.929 . S
H22 C51 0.930 . S
H23 C43 0.931 . S
O24 Co0 2.097 . S
O24 C52 1.214 . S
H25 C53 0.929 1_545 S
H26 C54 0.929 . S
H27 C55 0.930 . S
H28 C56 0.929 . S
H29 C58 0.930 . S
H30 C35 0.930 . S
H31 C39 0.930 . S
O32 Co1 2.037 . S
O32 C52 1.234 . S
C33 O7 1.269 . S
C33 O8 1.257 . S
C34 H9 0.930 . S
C34 C37 1.388 . S
C34 C39 1.418 . S
C35 H30 0.930 . S
C35 C38 1.404 1_565 S
C35 C39 1.353 . S
N36 Co1 2.145 . S
N36 C37 1.397 1_545 S
N36 C38 1.334 . S
C37 H18 0.929 1_565 S
C37 C34 1.388 . S
C37 N36 1.397 1_565 S
C38 H19 0.929 . S
C38 C35 1.404 1_545 S
C38 N36 1.334 . S
C39 H31 0.930 . S
C39 C34 1.418 . S
C39 C35 1.353 . S
C40 H10 0.930 . S
C40 N41 1.330 . S
C40 C42 1.446 . S
N41 Co0 2.151 . S
N41 C40 1.330 . S
N41 C45 1.418 . S
C42 H21 0.929 . S
C42 C40 1.446 . S
C42 C43 1.332 . S
C43 H23 0.931 . S
C43 C42 1.332 . S
C43 C44 1.267 . S
C44 H12 0.929 . S
C44 C43 1.267 . S
C44 C45 1.251 . S
C45 H15 0.929 . S
C45 N41 1.418 . S
C45 C44 1.251 . S
C46 H13 0.930 . S
C46 C48 1.406 . S
C46 C51 1.261 1_455 S
C47 H14 0.930 1_556 S
C47 N49 1.325 . S
C47 C50 1.357 1_455 S
C48 H16 0.928 . S
C48 C46 1.406 . S
C48 N49 1.261 . S
N49 Co0 2.214 1_556 S
N49 C47 1.325 . S
N49 C48 1.261 . S
C50 H20 0.931 . S
C50 C47 1.357 1_655 S
C50 C51 1.312 . S
C51 H22 0.930 . S
C51 C46 1.261 1_655 S
C51 C50 1.312 . S
C52 O24 1.214 . S
C52 O32 1.234 . S
C53 H25 0.929 1_565 S
C53 C56 1.391 . S
C53 C58 1.391 1_565 S
C54 H26 0.929 . S
C54 C55 1.390 . S
C54 N57 1.391 1_565 S
C55 H27 0.930 . S
C55 C54 1.390 . S
C55 C56 1.392 . S
C56 H28 0.929 . S
C56 C53 1.391 . S
C56 C55 1.392 . S
N57 Co1 2.257 . S
N57 C54 1.391 1_545 S
N57 C58 1.388 . S
C58 H29 0.930 . S
C58 C53 1.391 1_545 S
C58 N57 1.388 . S
Co59 O61 2.143 . S
Co59 O67 2.074 . S
Co59 O70 2.093 . S
Co59 O83 2.097 . S
Co59 N100 2.151 . S
Co59 N108 2.214 . S
Co60 O61 2.160 . S
Co60 O66 2.058 . S
Co60 O76 2.057 . S
Co60 O91 2.037 . S
Co60 N95 2.145 . S
Co60 N116 2.257 . S
O61 Co59 2.143 . S
O61 Co60 2.160 . S
C62 O63 1.278 . S
C62 O70 1.224 . S
O63 C62 1.278 . S
C64 O65 1.245 . S
C64 O76 1.232 . S
O65 C64 1.245 . S
O66 Co60 2.058 . S
O66 C92 1.269 . S
O67 Co59 2.074 . S
O67 C92 1.257 . S
H68 C93 0.930 . S
H69 C99 0.930 1_545 S
O70 Co59 2.093 . S
O70 C62 1.224 . S
H71 C103 0.929 . S
H72 C105 0.930 1_565 S
H73 C106 0.930 . S
H74 C104 0.929 . S
H75 C107 0.928 . S
O76 Co60 2.057 . S
O76 C64 1.232 . S
H77 C96 0.929 . S
H78 C97 0.929 . S
H79 C109 0.931 . S
H80 C101 0.929 . S
H81 C110 0.930 . S
H82 C102 0.931 . S
O83 Co59 2.097 . S
O83 C111 1.214 . S
H84 C112 0.929 . S
H85 C113 0.929 . S
H86 C114 0.930 . S
H87 C115 0.929 . S
H88 C117 0.930 . S
H89 C94 0.930 . S
H90 C98 0.930 . S
O91 Co60 2.037 . S
O91 C111 1.234 . S
C92 O66 1.269 . S
C92 O67 1.257 . S
C93 H68 0.930 . S
C93 C96 1.388 . S
C93 C98 1.418 . S
C94 H89 0.930 . S
C94 C97 1.404 . S
C94 C98 1.353 . S
N95 Co60 2.145 . S
N95 C96 1.397 . S
N95 C97 1.334 . S
C96 H77 0.929 . S
C96 C93 1.388 . S
C96 N95 1.397 . S
C97 H78 0.929 . S
C97 C94 1.404 . S
C97 N95 1.334 . S
C98 H90 0.930 . S
C98 C93 1.418 . S
C98 C94 1.353 . S
C99 H69 0.930 1_565 S
C99 N100 1.330 1_565 S
C99 C101 1.446 . S
N100 Co59 2.151 . S
N100 C99 1.330 1_545 S
N100 C104 1.418 1_545 S
C101 H80 0.929 . S
C101 C99 1.446 . S
C101 C102 1.332 . S
C102 H82 0.931 . S
C102 C101 1.332 . S
C102 C103 1.267 . S
C103 H71 0.929 . S
C103 C102 1.267 . S
C103 C104 1.251 . S
C104 H74 0.929 . S
C104 N100 1.418 1_565 S
C104 C103 1.251 . S
C105 H72 0.930 1_545 S
C105 C107 1.406 . S
C105 C110 1.261 . S
C106 H73 0.930 . S
C106 N108 1.325 . S
C106 C109 1.357 . S
C107 H75 0.928 . S
C107 C105 1.406 . S
C107 N108 1.261 . S
N108 Co59 2.214 . S
N108 C106 1.325 . S
N108 C107 1.261 . S
C109 H79 0.931 . S
C109 C106 1.357 . S
C109 C110 1.312 . S
C110 H81 0.930 . S
C110 C105 1.261 . S
C110 C109 1.312 . S
C111 O83 1.214 . S
C111 O91 1.234 . S
C112 H84 0.929 . S
C112 C115 1.391 . S
C112 C117 1.391 . S
C113 H85 0.929 . S
C113 C114 1.390 . S
C113 N116 1.391 . S
C114 H86 0.930 . S
C114 C113 1.390 . S
C114 C115 1.392 . S
C115 H87 0.929 . S
C115 C112 1.391 . S
C115 C114 1.392 . S
N116 Co60 2.257 . S
N116 C113 1.391 . S
N116 C117 1.388 . S
C117 H88 0.930 . S
C117 C112 1.391 . S
C117 N116 1.388 . S
Co118 O120 2.143 . S
Co118 O126 2.074 . S
Co118 O129 2.093 1_556 S
Co118 O142 2.097 . S
Co118 N159 2.151 . S
Co118 N167 2.214 1_556 S
Co119 O120 2.160 . S
Co119 O125 2.058 . S
Co119 O135 2.057 . S
Co119 O150 2.037 . S
Co119 N154 2.145 . S
Co119 N175 2.257 . S
O120 Co118 2.143 . S
O120 Co119 2.160 . S
C121 O122 1.278 1_554 S
C121 O129 1.224 . S
O122 C121 1.278 1_556 S
C123 O124 1.245 . S
C123 O135 1.232 . S
O124 C123 1.245 . S
O125 Co119 2.058 . S
O125 C151 1.269 . S
O126 Co118 2.074 . S
O126 C151 1.257 . S
H127 C152 0.930 . S
H128 C158 0.930 1_545 S
O129 Co118 2.093 1_554 S
O129 C121 1.224 . S
H130 C162 0.929 . S
H131 C164 0.930 1_565 S
H132 C165 0.930 1_556 S
H133 C163 0.929 . S
H134 C166 0.928 . S
O135 Co119 2.057 . S
O135 C123 1.232 . S
H136 C155 0.929 . S
H137 C156 0.929 . S
H138 C168 0.931 . S
H139 C160 0.929 . S
H140 C169 0.930 . S
H141 C161 0.931 . S
O142 Co118 2.097 . S
O142 C170 1.214 . S
H143 C171 0.929 . S
H144 C172 0.929 . S
H145 C173 0.930 . S
H146 C174 0.929 . S
H147 C176 0.930 . S
H148 C153 0.930 . S
H149 C157 0.930 . S
O150 Co119 2.037 . S
O150 C170 1.234 . S
C151 O125 1.269 . S
C151 O126 1.257 . S
C152 H127 0.930 . S
C152 C155 1.388 . S
C152 C157 1.418 . S
C153 H148 0.930 . S
C153 C156 1.404 . S
C153 C157 1.353 . S
N154 Co119 2.145 . S
N154 C155 1.397 . S
N154 C156 1.334 . S
C155 H136 0.929 . S
C155 C152 1.388 . S
C155 N154 1.397 . S
C156 H137 0.929 . S
C156 C153 1.404 . S
C156 N154 1.334 . S
C157 H149 0.930 . S
C157 C152 1.418 . S
C157 C153 1.353 . S
C158 H128 0.930 1_565 S
C158 N159 1.330 1_565 S
C158 C160 1.446 . S
N159 Co118 2.151 . S
N159 C158 1.330 1_545 S
N159 C163 1.418 1_545 S
C160 H139 0.929 . S
C160 C158 1.446 . S
C160 C161 1.332 . S
C161 H141 0.931 . S
C161 C160 1.332 . S
C161 C162 1.267 . S
C162 H130 0.929 . S
C162 C161 1.267 . S
C162 C163 1.251 . S
C163 H133 0.929 . S
C163 N159 1.418 1_565 S
C163 C162 1.251 . S
C164 H131 0.930 1_545 S
C164 C166 1.406 . S
C164 C169 1.261 . S
C165 H132 0.930 1_554 S
C165 N167 1.325 . S
C165 C168 1.357 . S
C166 H134 0.928 . S
C166 C164 1.406 . S
C166 N167 1.261 . S
N167 Co118 2.214 1_554 S
N167 C165 1.325 . S
N167 C166 1.261 . S
C168 H138 0.931 . S
C168 C165 1.357 . S
C168 C169 1.312 . S
C169 H140 0.930 . S
C169 C164 1.261 . S
C169 C168 1.312 . S
C170 O142 1.214 . S
C170 O150 1.234 . S
C171 H143 0.929 . S
C171 C174 1.391 . S
C171 C176 1.391 . S
C172 H144 0.929 . S
C172 C173 1.390 . S
C172 N175 1.391 . S
C173 H145 0.930 . S
C173 C172 1.390 . S
C173 C174 1.392 . S
C174 H146 0.929 . S
C174 C171 1.391 . S
C174 C173 1.392 . S
N175 Co119 2.257 . S
N175 C172 1.391 . S
N175 C176 1.388 . S
C176 H147 0.930 . S
C176 C171 1.391 . S
C176 N175 1.388 . S
Co177 O179 2.143 . S
Co177 O185 2.074 . S
Co177 O188 2.093 . S
Co177 O201 2.097 . S
Co177 N218 2.151 . S
Co177 N226 2.214 . S
Co178 O179 2.160 . S
Co178 O184 2.058 . S
Co178 O194 2.057 . S
Co178 O209 2.037 . S
Co178 N213 2.145 . S
Co178 N234 2.257 . S
O179 Co177 2.143 . S
O179 Co178 2.160 . S
C180 O181 1.278 . S
C180 O188 1.224 . S
O181 C180 1.278 . S
C182 O183 1.245 . S
C182 O194 1.232 . S
O183 C182 1.245 . S
O184 Co178 2.058 . S
O184 C210 1.269 . S
O185 Co177 2.074 . S
O185 C210 1.257 . S
H186 C211 0.930 . S
H187 C217 0.930 . S
O188 Co177 2.093 . S
O188 C180 1.224 . S
H189 C221 0.929 . S
H190 C223 0.930 . S
H191 C224 0.930 . S
H192 C222 0.929 . S
H193 C225 0.928 . S
O194 Co178 2.057 . S
O194 C182 1.232 . S
H195 C214 0.929 1_545 S
H196 C215 0.929 . S
H197 C227 0.931 . S
H198 C219 0.929 . S
H199 C228 0.930 . S
H200 C220 0.931 . S
O201 Co177 2.097 . S
O201 C229 1.214 . S
H202 C230 0.929 1_545 S
H203 C231 0.929 . S
H204 C232 0.930 . S
H205 C233 0.929 . S
H206 C235 0.930 . S
H207 C212 0.930 . S
H208 C216 0.930 . S
O209 Co178 2.037 . S
O209 C229 1.234 . S
C210 O184 1.269 . S
C210 O185 1.257 . S
C211 H186 0.930 . S
C211 C214 1.388 . S
C211 C216 1.418 . S
C212 H207 0.930 . S
C212 C215 1.404 1_565 S
C212 C216 1.353 . S
N213 Co178 2.145 . S
N213 C214 1.397 1_545 S
N213 C215 1.334 . S
C214 H195 0.929 1_565 S
C214 C211 1.388 . S
C214 N213 1.397 1_565 S
C215 H196 0.929 . S
C215 C212 1.404 1_545 S
C215 N213 1.334 . S
C216 H208 0.930 . S
C216 C211 1.418 . S
C216 C212 1.353 . S
C217 H187 0.930 . S
C217 N218 1.330 . S
C217 C219 1.446 . S
N218 Co177 2.151 . S
N218 C217 1.330 . S
N218 C222 1.418 . S
C219 H198 0.929 . S
C219 C217 1.446 . S
C219 C220 1.332 . S
C220 H200 0.931 . S
C220 C219 1.332 . S
C220 C221 1.267 . S
C221 H189 0.929 . S
C221 C220 1.267 . S
C221 C222 1.251 . S
C222 H192 0.929 . S
C222 N218 1.418 . S
C222 C221 1.251 . S
C223 H190 0.930 . S
C223 C225 1.406 . S
C223 C228 1.261 1_655 S
C224 H191 0.930 . S
C224 N226 1.325 . S
C224 C227 1.357 1_655 S
C225 H193 0.928 . S
C225 C223 1.406 . S
C225 N226 1.261 . S
N226 Co177 2.214 . S
N226 C224 1.325 . S
N226 C225 1.261 . S
C227 H197 0.931 . S
C227 C224 1.357 1_455 S
C227 C228 1.312 . S
C228 H199 0.930 . S
C228 C223 1.261 1_455 S
C228 C227 1.312 . S
C229 O201 1.214 . S
C229 O209 1.234 . S
C230 H202 0.929 1_565 S
C230 C233 1.391 . S
C230 C235 1.391 1_565 S
C231 H203 0.929 . S
C231 C232 1.390 . S
C231 N234 1.391 1_565 S
C232 H204 0.930 . S
C232 C231 1.390 . S
C232 C233 1.392 . S
C233 H205 0.929 . S
C233 C230 1.391 . S
C233 C232 1.392 . S
N234 Co178 2.257 . S
N234 C231 1.391 1_545 S
N234 C235 1.388 . S
C235 H206 0.930 . S
C235 C230 1.391 1_545 S
C235 N234 1.388 . S
Co236 O238 2.143 . S
Co236 O244 2.074 . S
Co236 O247 2.093 . S
Co236 O260 2.097 . S
Co236 N277 2.151 . S
Co236 N285 2.214 . S
Co237 O238 2.160 . S
Co237 O243 2.058 . S
Co237 O253 2.057 1_556 S
Co237 O268 2.037 . S
Co237 N272 2.145 1_556 S
Co237 N293 2.257 . S
O238 Co236 2.143 . S
O238 Co237 2.160 . S
C239 O240 1.278 . S
C239 O247 1.224 . S
O240 C239 1.278 . S
C241 O242 1.245 1_554 S
C241 O253 1.232 . S
O242 C241 1.245 1_556 S
O243 Co237 2.058 . S
O243 C269 1.269 . S
O244 Co236 2.074 . S
O244 C269 1.257 . S
H245 C270 0.930 . S
H246 C276 0.930 . S
O247 Co236 2.093 . S
O247 C239 1.224 . S
H248 C280 0.929 . S
H249 C282 0.930 . S
H250 C283 0.930 . S
H251 C281 0.929 . S
H252 C284 0.928 . S
O253 Co237 2.057 1_554 S
O253 C241 1.232 . S
H254 C273 0.929 1_556 S
H255 C274 0.929 . S
H256 C286 0.931 1_455 S
H257 C278 0.929 . S
H258 C287 0.930 . S
H259 C279 0.931 . S
O260 Co236 2.097 . S
O260 C288 1.214 . S
H261 C289 0.929 . S
H262 C290 0.929 . S
H263 C291 0.930 . S
H264 C292 0.929 . S
H265 C294 0.930 . S
H266 C271 0.930 . S
H267 C275 0.930 1_455 S
O268 Co237 2.037 . S
O268 C288 1.234 . S
C269 O243 1.269 . S
C269 O244 1.257 . S
C270 H245 0.930 . S
C270 C273 1.388 1_455 S
C270 C275 1.418 1_455 S
C271 H266 0.930 . S
C271 C274 1.404 . S
C271 C275 1.353 . S
N272 Co237 2.145 1_554 S
N272 C273 1.397 . S
N272 C274 1.334 . S
C273 H254 0.929 1_554 S
C273 C270 1.388 1_655 S
C273 N272 1.397 . S
C274 H255 0.929 . S
C274 C271 1.404 . S
C274 N272 1.334 . S
C275 H267 0.930 1_655 S
C275 C270 1.418 1_655 S
C275 C271 1.353 . S
C276 H246 0.930 . S
C276 N277 1.330 . S
C276 C278 1.446 1_565 S
N277 Co236 2.151 . S
N277 C276 1.330 . S
N277 C281 1.418 1_565 S
C278 H257 0.929 . S
C278 C276 1.446 1_545 S
C278 C279 1.332 . S
C279 H259 0.931 . S
C279 C278 1.332 . S
C279 C280 1.267 . S
C280 H248 0.929 . S
C280 C279 1.267 . S
C280 C281 1.251 . S
C281 H251 0.929 . S
C281 N277 1.418 1_545 S
C281 C280 1.251 . S
C282 H249 0.930 . S
C282 C284 1.406 . S
C282 C287 1.261 . S
C283 H250 0.930 . S
C283 N285 1.325 . S
C283 C286 1.357 1_565 S
C284 H252 0.928 . S
C284 C282 1.406 . S
C284 N285 1.261 1_545 S
N285 Co236 2.214 . S
N285 C283 1.325 . S
N285 C284 1.261 1_565 S
C286 H256 0.931 1_655 S
C286 C283 1.357 1_545 S
C286 C287 1.312 . S
C287 H258 0.930 . S
C287 C282 1.261 . S
C287 C286 1.312 . S
C288 O260 1.214 . S
C288 O268 1.234 . S
C289 H261 0.929 . S
C289 C292 1.391 . S
C289 C294 1.391 . S
C290 H262 0.929 . S
C290 C291 1.390 . S
C290 N293 1.391 . S
C291 H263 0.930 . S
C291 C290 1.390 . S
C291 C292 1.392 . S
C292 H264 0.929 . S
C292 C289 1.391 . S
C292 C291 1.392 . S
N293 Co237 2.257 . S
N293 C290 1.391 . S
N293 C294 1.388 . S
C294 H265 0.930 . S
C294 C289 1.391 . S
C294 N293 1.388 . S
Co295 O297 2.143 . S
Co295 O303 2.074 . S
Co295 O306 2.093 . S
Co295 O319 2.097 . S
Co295 N336 2.151 . S
Co295 N344 2.214 . S
Co296 O297 2.160 . S
Co296 O302 2.058 . S
Co296 O312 2.057 . S
Co296 O327 2.037 . S
Co296 N331 2.145 . S
Co296 N352 2.257 . S
O297 Co295 2.143 . S
O297 Co296 2.160 . S
C298 O299 1.278 . S
C298 O306 1.224 . S
O299 C298 1.278 . S
C300 O301 1.245 . S
C300 O312 1.232 . S
O301 C300 1.245 . S
O302 Co296 2.058 . S
O302 C328 1.269 . S
O303 Co295 2.074 . S
O303 C328 1.257 . S
H304 C329 0.930 . S
H305 C335 0.930 . S
O306 Co295 2.093 . S
O306 C298 1.224 . S
H307 C339 0.929 . S
H308 C341 0.930 . S
H309 C342 0.930 . S
H310 C340 0.929 . S
H311 C343 0.928 . S
O312 Co296 2.057 . S
O312 C300 1.232 . S
H313 C332 0.929 . S
H314 C333 0.929 . S
H315 C345 0.931 . S
H316 C337 0.929 . S
H317 C346 0.930 . S
H318 C338 0.931 . S
O319 Co295 2.097 . S
O319 C347 1.214 . S
H320 C348 0.929 . S
H321 C349 0.929 . S
H322 C350 0.930 . S
H323 C351 0.929 . S
H324 C353 0.930 . S
H325 C330 0.930 . S
H326 C334 0.930 . S
O327 Co296 2.037 . S
O327 C347 1.234 . S
C328 O302 1.269 . S
C328 O303 1.257 . S
C329 H304 0.930 . S
C329 C332 1.388 . S
C329 C334 1.418 1_565 S
C330 H325 0.930 . S
C330 C333 1.404 1_545 S
C330 C334 1.353 . S
N331 Co296 2.145 . S
N331 C332 1.397 . S
N331 C333 1.334 . S
C332 H313 0.929 . S
C332 C329 1.388 . S
C332 N331 1.397 . S
C333 H314 0.929 . S
C333 C330 1.404 1_565 S
C333 N331 1.334 . S
C334 H326 0.930 . S
C334 C329 1.418 1_545 S
C334 C330 1.353 . S
C335 H305 0.930 . S
C335 N336 1.330 . S
C335 C337 1.446 . S
N336 Co295 2.151 . S
N336 C335 1.330 . S
N336 C340 1.418 . S
C337 H316 0.929 . S
C337 C335 1.446 . S
C337 C338 1.332 . S
C338 H318 0.931 . S
C338 C337 1.332 . S
C338 C339 1.267 . S
C339 H307 0.929 . S
C339 C338 1.267 . S
C339 C340 1.251 . S
C340 H310 0.929 . S
C340 N336 1.418 . S
C340 C339 1.251 . S
C341 H308 0.930 . S
C341 C343 1.406 . S
C341 C346 1.261 . S
C342 H309 0.930 . S
C342 N344 1.325 . S
C342 C345 1.357 . S
C343 H311 0.928 . S
C343 C341 1.406 . S
C343 N344 1.261 . S
N344 Co295 2.214 . S
N344 C342 1.325 . S
N344 C343 1.261 . S
C345 H315 0.931 . S
C345 C342 1.357 . S
C345 C346 1.312 . S
C346 H317 0.930 . S
C346 C341 1.261 . S
C346 C345 1.312 . S
C347 O319 1.214 . S
C347 O327 1.234 . S
C348 H320 0.929 . S
C348 C351 1.391 . S
C348 C353 1.391 1_545 S
C349 H321 0.929 . S
C349 C350 1.390 . S
C349 N352 1.391 1_545 S
C350 H322 0.930 . S
C350 C349 1.390 . S
C350 C351 1.392 . S
C351 H323 0.929 . S
C351 C348 1.391 . S
C351 C350 1.392 . S
N352 Co296 2.257 . S
N352 C349 1.391 1_565 S
N352 C353 1.388 . S
C353 H324 0.930 . S
C353 C348 1.391 1_565 S
C353 N352 1.388 . S
Co354 O356 2.143 . S
Co354 O362 2.074 . S
Co354 O365 2.093 . S
Co354 O378 2.097 . S
Co354 N395 2.151 . S
Co354 N403 2.214 . S
Co355 O356 2.160 . S
Co355 O361 2.058 . S
Co355 O371 2.057 1_554 S
Co355 O386 2.037 . S
Co355 N390 2.145 1_554 S
Co355 N411 2.257 . S
O356 Co354 2.143 . S
O356 Co355 2.160 . S
C357 O358 1.278 . S
C357 O365 1.224 . S
O358 C357 1.278 . S
C359 O360 1.245 1_556 S
C359 O371 1.232 . S
O360 C359 1.245 1_554 S
O361 Co355 2.058 . S
O361 C387 1.269 . S
O362 Co354 2.074 . S
O362 C387 1.257 . S
H363 C388 0.930 . S
H364 C394 0.930 . S
O365 Co354 2.093 . S
O365 C357 1.224 . S
H366 C398 0.929 . S
H367 C400 0.930 . S
H368 C401 0.930 . S
H369 C399 0.929 . S
H370 C402 0.928 . S
O371 Co355 2.057 1_556 S
O371 C359 1.232 . S
H372 C391 0.929 1_554 S
H373 C392 0.929 . S
H374 C404 0.931 . S
H375 C396 0.929 . S
H376 C405 0.930 . S
H377 C397 0.931 . S
O378 Co354 2.097 . S
O378 C406 1.214 . S
H379 C407 0.929 . S
H380 C408 0.929 . S
H381 C409 0.930 . S
H382 C410 0.929 . S
H383 C412 0.930 . S
H384 C389 0.930 . S
H385 C393 0.930 . S
O386 Co355 2.037 . S
O386 C406 1.234 . S
C387 O361 1.269 . S
C387 O362 1.257 . S
C388 H363 0.930 . S
C388 C391 1.388 . S
C388 C393 1.418 1_565 S
C389 H384 0.930 . S
C389 C392 1.404 1_545 S
C389 C393 1.353 . S
N390 Co355 2.145 1_556 S
N390 C391 1.397 . S
N390 C392 1.334 . S
C391 H372 0.929 1_556 S
C391 C388 1.388 . S
C391 N390 1.397 . S
C392 H373 0.929 . S
C392 C389 1.404 1_565 S
C392 N390 1.334 . S
C393 H385 0.930 . S
C393 C388 1.418 1_545 S
C393 C389 1.353 . S
C394 H364 0.930 . S
C394 N395 1.330 . S
C394 C396 1.446 . S
N395 Co354 2.151 . S
N395 C394 1.330 . S
N395 C399 1.418 . S
C396 H375 0.929 . S
C396 C394 1.446 . S
C396 C397 1.332 . S
C397 H377 0.931 . S
C397 C396 1.332 . S
C397 C398 1.267 . S
C398 H366 0.929 . S
C398 C397 1.267 . S
C398 C399 1.251 . S
C399 H369 0.929 . S
C399 N395 1.418 . S
C399 C398 1.251 . S
C400 H367 0.930 . S
C400 C402 1.406 . S
C400 C405 1.261 . S
C401 H368 0.930 . S
C401 N403 1.325 . S
C401 C404 1.357 . S
C402 H370 0.928 . S
C402 C400 1.406 . S
C402 N403 1.261 . S
N403 Co354 2.214 . S
N403 C401 1.325 . S
N403 C402 1.261 . S
C404 H374 0.931 . S
C404 C401 1.357 . S
C404 C405 1.312 . S
C405 H376 0.930 . S
C405 C400 1.261 . S
C405 C404 1.312 . S
C406 O378 1.214 . S
C406 O386 1.234 . S
C407 H379 0.929 . S
C407 C410 1.391 . S
C407 C412 1.391 1_545 S
C408 H380 0.929 . S
C408 C409 1.390 . S
C408 N411 1.391 1_545 S
C409 H381 0.930 . S
C409 C408 1.390 . S
C409 C410 1.392 . S
C410 H382 0.929 . S
C410 C407 1.391 . S
C410 C409 1.392 . S
N411 Co355 2.257 . S
N411 C408 1.391 1_565 S
N411 C412 1.388 . S
C412 H383 0.930 . S
C412 C407 1.391 1_565 S
C412 N411 1.388 . S
Co413 O415 2.143 . S
Co413 O421 2.074 . S
Co413 O424 2.093 . S
Co413 O437 2.097 . S
Co413 N454 2.151 . S
Co413 N462 2.214 . S
Co414 O415 2.160 . S
Co414 O420 2.058 . S
Co414 O430 2.057 . S
Co414 O445 2.037 . S
Co414 N449 2.145 . S
Co414 N470 2.257 . S
O415 Co413 2.143 . S
O415 Co414 2.160 . S
C416 O417 1.278 . S
C416 O424 1.224 . S
O417 C416 1.278 . S
C418 O419 1.245 . S
C418 O430 1.232 . S
O419 C418 1.245 . S
O420 Co414 2.058 . S
O420 C446 1.269 . S
O421 Co413 2.074 . S
O421 C446 1.257 . S
H422 C447 0.930 . S
H423 C453 0.930 . S
O424 Co413 2.093 . S
O424 C416 1.224 . S
H425 C457 0.929 . S
H426 C459 0.930 . S
H427 C460 0.930 . S
H428 C458 0.929 . S
H429 C461 0.928 . S
O430 Co414 2.057 . S
O430 C418 1.232 . S
H431 C450 0.929 . S
H432 C451 0.929 . S
H433 C463 0.931 1_655 S
H434 C455 0.929 . S
H435 C464 0.930 . S
H436 C456 0.931 . S
O437 Co413 2.097 . S
O437 C465 1.214 . S
H438 C466 0.929 . S
H439 C467 0.929 . S
H440 C468 0.930 . S
H441 C469 0.929 . S
H442 C471 0.930 . S
H443 C448 0.930 . S
H444 C452 0.930 1_655 S
O445 Co414 2.037 . S
O445 C465 1.234 . S
C446 O420 1.269 . S
C446 O421 1.257 . S
C447 H422 0.930 . S
C447 C450 1.388 1_655 S
C447 C452 1.418 1_655 S
C448 H443 0.930 . S
C448 C451 1.404 . S
C448 C452 1.353 . S
N449 Co414 2.145 . S
N449 C450 1.397 . S
N449 C451 1.334 . S
C450 H431 0.929 . S
C450 C447 1.388 1_455 S
C450 N449 1.397 . S
C451 H432 0.929 . S
C451 C448 1.404 . S
C451 N449 1.334 . S
C452 H444 0.930 1_455 S
C452 C447 1.418 1_455 S
C452 C448 1.353 . S
C453 H423 0.930 . S
C453 N454 1.330 . S
C453 C455 1.446 1_565 S
N454 Co413 2.151 . S
N454 C453 1.330 . S
N454 C458 1.418 1_565 S
C455 H434 0.929 . S
C455 C453 1.446 1_545 S
C455 C456 1.332 . S
C456 H436 0.931 . S
C456 C455 1.332 . S
C456 C457 1.267 . S
C457 H425 0.929 . S
C457 C456 1.267 . S
C457 C458 1.251 . S
C458 H428 0.929 . S
C458 N454 1.418 1_545 S
C458 C457 1.251 . S
C459 H426 0.930 . S
C459 C461 1.406 . S
C459 C464 1.261 . S
C460 H427 0.930 . S
C460 N462 1.325 . S
C460 C463 1.357 1_565 S
C461 H429 0.928 . S
C461 C459 1.406 . S
C461 N462 1.261 1_545 S
N462 Co413 2.214 . S
N462 C460 1.325 . S
N462 C461 1.261 1_565 S
C463 H433 0.931 1_455 S
C463 C460 1.357 1_545 S
C463 C464 1.312 . S
C464 H435 0.930 . S
C464 C459 1.261 . S
C464 C463 1.312 . S
C465 O437 1.214 . S
C465 O445 1.234 . S
C466 H438 0.929 . S
C466 C469 1.391 . S
C466 C471 1.391 . S
C467 H439 0.929 . S
C467 C468 1.390 . S
C467 N470 1.391 . S
C468 H440 0.930 . S
C468 C467 1.390 . S
C468 C469 1.392 . S
C469 H441 0.929 . S
C469 C466 1.391 . S
C469 C468 1.392 . S
N470 Co414 2.257 . S
N470 C467 1.391 . S
N470 C471 1.388 . S
C471 H442 0.930 . S
C471 C466 1.391 . S
C471 N470 1.388 . S
C472 C473 1.387 . S
C472 H476 0.950 . S
C472 C481 1.390 . S
C473 C472 1.387 . S
C473 C475 1.387 . S
H474 C481 0.950 . S
C475 C473 1.387 . S
C475 C477 1.390 . S
C475 H479 0.950 . S
H476 C472 0.950 . S
C477 C475 1.390 . S
C477 C478 1.387 . S
C477 H480 0.950 . S
C478 C477 1.387 . S
C478 C481 1.387 . S
H479 C475 0.950 . S
H480 C477 0.950 . S
C481 C472 1.390 . S
C481 H474 0.950 . S
C481 C478 1.387 . S
C482 C483 1.387 . S
C482 H486 0.950 . S
C482 C491 1.390 . S
C483 C482 1.387 . S
C483 C485 1.387 . S
H484 C491 0.950 . S
C485 C483 1.387 . S
C485 C487 1.390 . S
C485 H489 0.950 . S
H486 C482 0.950 . S
C487 C485 1.390 . S
C487 C488 1.387 . S
C487 H490 0.950 . S
C488 C487 1.387 . S
C488 C491 1.387 . S
H489 C485 0.950 . S
H490 C487 0.950 . S
C491 C482 1.390 . S
C491 H484 0.950 . S
C491 C488 1.387 . S
C492 C493 1.387 . S
C492 H496 0.950 . S
C492 C501 1.390 . S
C493 C492 1.387 . S
C493 C495 1.387 . S
H494 C501 0.950 . S
C495 C493 1.387 . S
C495 C497 1.390 . S
C495 H499 0.950 . S
H496 C492 0.950 . S
C497 C495 1.390 . S
C497 C498 1.387 . S
C497 H500 0.950 . S
C498 C497 1.387 . S
C498 C501 1.387 . S
H499 C495 0.950 . S
H500 C497 0.950 . S
C501 C492 1.390 . S
C501 H494 0.950 . S
C501 C498 1.387 . S
C502 C503 1.387 . S
C502 H506 0.950 . S
C502 C511 1.390 . S
C503 C502 1.387 . S
C503 C505 1.387 . S
H504 C511 0.950 . S
C505 C503 1.387 . S
C505 C507 1.390 . S
C505 H509 0.950 . S
H506 C502 0.950 . S
C507 C505 1.390 . S
C507 C508 1.387 . S
C507 H510 0.950 . S
C508 C507 1.387 . S
C508 C511 1.387 . S
H509 C505 0.950 . S
H510 C507 0.950 . S
C511 C502 1.390 . S
C511 H504 0.950 . S
C511 C508 1.387 . S
C512 C513 1.387 . S
C512 H516 0.950 . S
C512 C521 1.390 . S
C513 C512 1.387 . S
C513 C515 1.387 . S
H514 C521 0.950 . S
C515 C513 1.387 . S
C515 C517 1.390 . S
C515 H519 0.950 . S
H516 C512 0.950 . S
C517 C515 1.390 . S
C517 C518 1.387 . S
C517 H520 0.950 . S
C518 C517 1.387 . S
C518 C521 1.387 . S
H519 C515 0.950 . S
H520 C517 0.950 . S
C521 C512 1.390 . S
C521 H514 0.950 . S
C521 C518 1.387 . S
C522 C523 1.387 . S
C522 H526 0.950 . S
C522 C531 1.390 . S
C523 C522 1.387 . S
C523 C525 1.387 . S
H524 C531 0.950 . S
C525 C523 1.387 . S
C525 C527 1.390 . S
C525 H529 0.950 . S
H526 C522 0.950 . S
C527 C525 1.390 . S
C527 C528 1.387 . S
C527 H530 0.950 . S
C528 C527 1.387 . S
C528 C531 1.387 . S
H529 C525 0.950 . S
H530 C527 0.950 . S
C531 C522 1.390 . S
C531 H524 0.950 . S
C531 C528 1.387 . S
C532 C533 1.387 . S
C532 H536 0.950 . S
C532 C541 1.390 . S
C533 C532 1.387 . S
C533 C535 1.387 . S
H534 C541 0.950 . S
C535 C533 1.387 . S
C535 C537 1.390 . S
C535 H539 0.950 . S
H536 C532 0.950 . S
C537 C535 1.390 . S
C537 C538 1.387 . S
C537 H540 0.950 . S
C538 C537 1.387 . S
C538 C541 1.387 . S
H539 C535 0.950 . S
H540 C537 0.950 . S
C541 C532 1.390 . S
C541 H534 0.950 . S
C541 C538 1.387 . S
C542 C543 1.387 . S
C542 H546 0.950 . S
C542 C551 1.390 . S
C543 C542 1.387 . S
C543 C545 1.387 . S
H544 C551 0.950 . S
C545 C543 1.387 . S
C545 C547 1.390 . S
C545 H549 0.950 . S
H546 C542 0.950 . S
C547 C545 1.390 . S
C547 C548 1.387 . S
C547 H550 0.950 . S
C548 C547 1.387 . S
C548 C551 1.387 . S
H549 C545 0.950 . S
H550 C547 0.950 . S
C551 C542 1.390 . S
C551 H544 0.950 . S
C551 C548 1.387 . S
C552 C553 1.387 . S
C552 H556 0.950 . S
C552 C561 1.390 1_455 S
C553 C552 1.387 . S
C553 C555 1.387 . S
H554 C561 0.950 . S
C555 C553 1.387 . S
C555 C557 1.390 1_455 S
C555 H559 0.950 . S
H556 C552 0.950 . S
C557 C555 1.390 1_655 S
C557 C558 1.387 . S
C557 H560 0.950 . S
C558 C557 1.387 . S
C558 C561 1.387 . S
H559 C555 0.950 . S
H560 C557 0.950 . S
C561 C552 1.390 1_655 S
C561 H554 0.950 . S
C561 C558 1.387 . S
C562 C563 1.387 . S
C562 H566 0.950 . S
C562 C571 1.390 . S
C563 C562 1.387 . S
C563 C565 1.387 . S
H564 C571 0.950 . S
C565 C563 1.387 . S
C565 C567 1.390 . S
C565 H569 0.950 . S
H566 C562 0.950 . S
C567 C565 1.390 . S
C567 C568 1.387 . S
C567 H570 0.950 . S
C568 C567 1.387 . S
C568 C571 1.387 . S
H569 C565 0.950 . S
H570 C567 0.950 . S
C571 C562 1.390 . S
C571 H564 0.950 . S
C571 C568 1.387 . S
C572 C573 1.387 . S
C572 H576 0.950 . S
C572 C581 1.390 1_455 S
C573 C572 1.387 . S
C573 C575 1.387 . S
H574 C581 0.950 . S
C575 C573 1.387 . S
C575 C577 1.390 1_455 S
C575 H579 0.950 . S
H576 C572 0.950 . S
C577 C575 1.390 1_655 S
C577 C578 1.387 . S
C577 H580 0.950 . S
C578 C577 1.387 . S
C578 C581 1.387 . S
H579 C575 0.950 . S
H580 C577 0.950 . S
C581 C572 1.390 1_655 S
C581 H574 0.950 . S
C581 C578 1.387 . S
C582 C583 1.387 . S
C582 H586 0.950 . S
C582 C591 1.390 . S
C583 C582 1.387 . S
C583 C585 1.387 . S
H584 C591 0.950 . S
C585 C583 1.387 . S
C585 C587 1.390 . S
C585 H589 0.950 . S
H586 C582 0.950 . S
C587 C585 1.390 . S
C587 C588 1.387 . S
C587 H590 0.950 . S
C588 C587 1.387 . S
C588 C591 1.387 . S
H589 C585 0.950 . S
H590 C587 0.950 . S
C591 C582 1.390 . S
C591 H584 0.950 . S
C591 C588 1.387 . S
C592 C593 1.387 1_565 S
C592 H596 0.950 . S
C592 C601 1.390 1_455 S
C593 C592 1.387 1_545 S
C593 C595 1.387 1_554 S
H594 C601 0.950 . S
C595 C593 1.387 1_556 S
C595 C597 1.390 1_455 S
C595 H599 0.950 . S
H596 C592 0.950 . S
C597 C595 1.390 1_655 S
C597 C598 1.387 1_545 S
C597 H600 0.950 . S
C598 C597 1.387 1_565 S
C598 C601 1.387 1_556 S
H599 C595 0.950 . S
H600 C597 0.950 . S
C601 C592 1.390 1_655 S
C601 H594 0.950 . S
C601 C598 1.387 1_554 S
C602 C603 1.387 . S
C602 H606 0.950 . S
C602 C611 1.390 . S
C603 C602 1.387 . S
C603 C605 1.387 . S
H604 C611 0.950 . S
C605 C603 1.387 . S
C605 C607 1.390 . S
C605 H609 0.950 . S
H606 C602 0.950 . S
C607 C605 1.390 . S
C607 C608 1.387 . S
C607 H610 0.950 . S
C608 C607 1.387 . S
C608 C611 1.387 . S
H609 C605 0.950 . S
H610 C607 0.950 . S
C611 C602 1.390 . S
C611 H604 0.950 . S
C611 C608 1.387 . S
C612 C613 1.387 1_556 S
C612 H616 0.950 . S
C612 C621 1.390 . S
C613 C612 1.387 1_554 S
C613 C615 1.387 . S
H614 C621 0.950 . S
C615 C613 1.387 . S
C615 C617 1.390 . S
C615 H619 0.950 . S
H616 C612 0.950 . S
C617 C615 1.390 . S
C617 C618 1.387 1_554 S
C617 H620 0.950 . S
C618 C617 1.387 1_556 S
C618 C621 1.387 . S
H619 C615 0.950 . S
H620 C617 0.950 . S
C621 C612 1.390 . S
C621 H614 0.950 . S
C621 C618 1.387 . S
C622 C623 1.387 . S
C622 H626 0.950 . S
C622 C631 1.390 1_455 S
C623 C622 1.387 . S
C623 C625 1.387 1_565 S
H624 C631 0.950 . S
C625 C623 1.387 1_545 S
C625 C627 1.390 1_455 S
C625 H629 0.950 . S
H626 C622 0.950 . S
C627 C625 1.390 1_655 S
C627 C628 1.387 . S
C627 H630 0.950 . S
C628 C627 1.387 . S
C628 C631 1.387 1_545 S
H629 C625 0.950 . S
H630 C627 0.950 . S
C631 C622 1.390 1_655 S
C631 H624 0.950 . S
C631 C628 1.387 1_565 S
C473 C64 1.617 . S
C478 C3 1.567 . S
C483 C5 1.616 . S
C488 C62 1.566 . S
C493 C182 1.617 . S
C498 C121 1.567 . S
C503 C123 1.617 . S
C508 C180 1.566 . S
C513 C241 1.580 . S
C518 C298 1.605 . S
C523 C300 1.579 . S
C528 C239 1.603 . S
C533 C359 1.580 . S
C538 C416 1.603 . S
C543 C357 1.605 . S
C548 C418 1.580 . S
C553 C33 1.010 . S
C558 C210 1.010 . S
C563 C92 1.011 . S
C568 C151 1.011 . S
C573 C465 1.017 . S
C578 C288 1.017 . S
C583 C406 1.017 . S
C588 C347 1.017 . S
C593 C52 1.541 . S
C598 C269 1.530 . S
C603 C328 1.528 . S
C608 C111 1.540 . S
C613 C387 1.530 . S
C618 C170 1.541 . S
C623 C446 1.530 . S
C628 C229 1.541 . S
