# Generated by pormake.
# Topology lcy-a-x, (5)-cn, num edge types: 1
# Building blocks:
#     Node 0, Type 0, BuildingBlock: BEQFEK_clean_sbu_0, # of connection points: 5
#     Node 1, Type 0, BuildingBlock: BEQFEK_clean_sbu_0, # of connection points: 5
#     Node 2, Type 0, BuildingBlock: BEQFEK_clean_sbu_0, # of connection points: 5
#     Node 3, Type 0, BuildingBlock: BEQFEK_clean_sbu_0, # of connection points: 5
#     Node 4, Type 0, BuildingBlock: BEQFEK_clean_sbu_0, # of connection points: 5
#     Node 5, Type 0, BuildingBlock: BEQFEK_clean_sbu_0, # of connection points: 5
#     Node 6, Type 0, BuildingBlock: BEQFEK_clean_sbu_0, # of connection points: 5
#     Node 7, Type 0, BuildingBlock: BEQFEK_clean_sbu_0, # of connection points: 5
#     Node 8, Type 0, BuildingBlock: BEQFEK_clean_sbu_0, # of connection points: 5
#     Node 9, Type 0, BuildingBlock: BEQFEK_clean_sbu_0, # of connection points: 5
#     Node 10, Type 0, BuildingBlock: BEQFEK_clean_sbu_0, # of connection points: 5
#     Node 11, Type 0, BuildingBlock: BEQFEK_clean_sbu_0, # of connection points: 5
#     Node 12, Type 0, BuildingBlock: BEQFEK_clean_sbu_0, # of connection points: 5
#     Node 13, Type 0, BuildingBlock: BEQFEK_clean_sbu_0, # of connection points: 5
#     Node 14, Type 0, BuildingBlock: BEQFEK_clean_sbu_0, # of connection points: 5
#     Node 15, Type 0, BuildingBlock: BEQFEK_clean_sbu_0, # of connection points: 5
#     Node 16, Type 0, BuildingBlock: BEQFEK_clean_sbu_0, # of connection points: 5
#     Node 17, Type 0, BuildingBlock: BEQFEK_clean_sbu_0, # of connection points: 5
#     Node 18, Type 0, BuildingBlock: BEQFEK_clean_sbu_0, # of connection points: 5
#     Node 19, Type 0, BuildingBlock: BEQFEK_clean_sbu_0, # of connection points: 5
#     Node 20, Type 0, BuildingBlock: BEQFEK_clean_sbu_0, # of connection points: 5
#     Node 21, Type 0, BuildingBlock: BEQFEK_clean_sbu_0, # of connection points: 5
#     Node 22, Type 0, BuildingBlock: BEQFEK_clean_sbu_0, # of connection points: 5
#     Node 23, Type 0, BuildingBlock: BEQFEK_clean_sbu_0, # of connection points: 5
#     Edge 24, Type (0, 0), BuildingBlock: UVAHIK_clean_linker_0, # of connection points: 2
#     Edge 25, Type (0, 0), BuildingBlock: UVAHIK_clean_linker_0, # of connection points: 2
#     Edge 26, Type (0, 0), BuildingBlock: UVAHIK_clean_linker_0, # of connection points: 2
#     Edge 27, Type (0, 0), BuildingBlock: UVAHIK_clean_linker_0, # of connection points: 2
#     Edge 28, Type (0, 0), BuildingBlock: UVAHIK_clean_linker_0, # of connection points: 2
#     Edge 29, Type (0, 0), BuildingBlock: UVAHIK_clean_linker_0, # of connection points: 2
#     Edge 30, Type (0, 0), BuildingBlock: UVAHIK_clean_linker_0, # of connection points: 2
#     Edge 31, Type (0, 0), BuildingBlock: UVAHIK_clean_linker_0, # of connection points: 2
#     Edge 32, Type (0, 0), BuildingBlock: UVAHIK_clean_linker_0, # of connection points: 2
#     Edge 33, Type (0, 0), BuildingBlock: UVAHIK_clean_linker_0, # of connection points: 2
#     Edge 34, Type (0, 0), BuildingBlock: UVAHIK_clean_linker_0, # of connection points: 2
#     Edge 35, Type (0, 0), BuildingBlock: UVAHIK_clean_linker_0, # of connection points: 2
#     Edge 36, Type (0, 0), BuildingBlock: UVAHIK_clean_linker_0, # of connection points: 2
#     Edge 37, Type (0, 0), BuildingBlock: UVAHIK_clean_linker_0, # of connection points: 2
#     Edge 38, Type (0, 0), BuildingBlock: UVAHIK_clean_linker_0, # of connection points: 2
#     Edge 39, Type (0, 0), BuildingBlock: UVAHIK_clean_linker_0, # of connection points: 2
#     Edge 40, Type (0, 0), BuildingBlock: UVAHIK_clean_linker_0, # of connection points: 2
#     Edge 41, Type (0, 0), BuildingBlock: UVAHIK_clean_linker_0, # of connection points: 2
#     Edge 42, Type (0, 0), BuildingBlock: UVAHIK_clean_linker_0, # of connection points: 2
#     Edge 43, Type (0, 0), BuildingBlock: UVAHIK_clean_linker_0, # of connection points: 2
#     Edge 44, Type (0, 0), BuildingBlock: UVAHIK_clean_linker_0, # of connection points: 2
#     Edge 45, Type (0, 0), BuildingBlock: UVAHIK_clean_linker_0, # of connection points: 2
#     Edge 46, Type (0, 0), BuildingBlock: UVAHIK_clean_linker_0, # of connection points: 2
#     Edge 47, Type (0, 0), BuildingBlock: UVAHIK_clean_linker_0, # of connection points: 2
#     Edge 48, Type (0, 0), BuildingBlock: UVAHIK_clean_linker_0, # of connection points: 2
#     Edge 49, Type (0, 0), BuildingBlock: UVAHIK_clean_linker_0, # of connection points: 2
#     Edge 50, Type (0, 0), BuildingBlock: UVAHIK_clean_linker_0, # of connection points: 2
#     Edge 51, Type (0, 0), BuildingBlock: UVAHIK_clean_linker_0, # of connection points: 2
#     Edge 52, Type (0, 0), BuildingBlock: UVAHIK_clean_linker_0, # of connection points: 2
#     Edge 53, Type (0, 0), BuildingBlock: UVAHIK_clean_linker_0, # of connection points: 2
#     Edge 54, Type (0, 0), BuildingBlock: UVAHIK_clean_linker_0, # of connection points: 2
#     Edge 55, Type (0, 0), BuildingBlock: UVAHIK_clean_linker_0, # of connection points: 2
#     Edge 56, Type (0, 0), BuildingBlock: UVAHIK_clean_linker_0, # of connection points: 2
#     Edge 57, Type (0, 0), BuildingBlock: UVAHIK_clean_linker_0, # of connection points: 2
#     Edge 58, Type (0, 0), BuildingBlock: UVAHIK_clean_linker_0, # of connection points: 2
#     Edge 59, Type (0, 0), BuildingBlock: UVAHIK_clean_linker_0, # of connection points: 2
#     Edge 60, Type (0, 0), BuildingBlock: UVAHIK_clean_linker_0, # of connection points: 2
#     Edge 61, Type (0, 0), BuildingBlock: UVAHIK_clean_linker_0, # of connection points: 2
#     Edge 62, Type (0, 0), BuildingBlock: UVAHIK_clean_linker_0, # of connection points: 2
#     Edge 63, Type (0, 0), BuildingBlock: UVAHIK_clean_linker_0, # of connection points: 2
#     Edge 64, Type (0, 0), BuildingBlock: UVAHIK_clean_linker_0, # of connection points: 2
#     Edge 65, Type (0, 0), BuildingBlock: UVAHIK_clean_linker_0, # of connection points: 2
#     Edge 66, Type (0, 0), BuildingBlock: UVAHIK_clean_linker_0, # of connection points: 2
#     Edge 67, Type (0, 0), BuildingBlock: UVAHIK_clean_linker_0, # of connection points: 2
#     Edge 68, Type (0, 0), BuildingBlock: UVAHIK_clean_linker_0, # of connection points: 2
#     Edge 69, Type (0, 0), BuildingBlock: UVAHIK_clean_linker_0, # of connection points: 2
#     Edge 70, Type (0, 0), BuildingBlock: UVAHIK_clean_linker_0, # of connection points: 2
#     Edge 71, Type (0, 0), BuildingBlock: UVAHIK_clean_linker_0, # of connection points: 2
#     Edge 72, Type (0, 0), BuildingBlock: UVAHIK_clean_linker_0, # of connection points: 2
#     Edge 73, Type (0, 0), BuildingBlock: UVAHIK_clean_linker_0, # of connection points: 2
#     Edge 74, Type (0, 0), BuildingBlock: UVAHIK_clean_linker_0, # of connection points: 2
#     Edge 75, Type (0, 0), BuildingBlock: UVAHIK_clean_linker_0, # of connection points: 2
#     Edge 76, Type (0, 0), BuildingBlock: UVAHIK_clean_linker_0, # of connection points: 2
#     Edge 77, Type (0, 0), BuildingBlock: UVAHIK_clean_linker_0, # of connection points: 2
#     Edge 78, Type (0, 0), BuildingBlock: UVAHIK_clean_linker_0, # of connection points: 2
#     Edge 79, Type (0, 0), BuildingBlock: UVAHIK_clean_linker_0, # of connection points: 2
#     Edge 80, Type (0, 0), BuildingBlock: UVAHIK_clean_linker_0, # of connection points: 2
#     Edge 81, Type (0, 0), BuildingBlock: UVAHIK_clean_linker_0, # of connection points: 2
#     Edge 82, Type (0, 0), BuildingBlock: UVAHIK_clean_linker_0, # of connection points: 2
#     Edge 83, Type (0, 0), BuildingBlock: UVAHIK_clean_linker_0, # of connection points: 2
# Relax obj value: 1.243
# Max RMSD: 0.187
# Mean RMSD: 0.187
data_MOF--net-lcy-a-x--node1-BEQFEK_clean_sbu_0--edge1-UVAHIK_clean_linker_0
_symmetry_space_group_name_H-M    P1
_symmetry_Int_Tables_number       1
_symmetry_cell_setting            triclinic
loop_
_symmetry_equiv_pos_as_xyz
'x, y, z'
_cell_length_a     66.289404
_cell_length_b     66.366877
_cell_length_c     66.375165
_cell_angle_alpha  90.009489
_cell_angle_beta   90.013038
_cell_angle_gamma 90.009167
loop_
_atom_site_label
_atom_site_type_symbol
_atom_site_fract_x
_atom_site_fract_y
_atom_site_fract_z
_atom_type_partial_charge
Co0 Co 0.04043 0.01024 0.74152 0.0
Co1 Co 0.06489 0.03189 0.70725 0.0
C2 C 0.02151 0.02183 0.70208 0.0
O3 O 0.02084 0.01387 0.71941 0.0
O4 O 0.03765 0.0297 0.69558 0.0
C5 C 0.00843 0.01451 0.76709 0.0
O6 O 0.00965 0.0321 0.75809 0.0
C7 C 0.07105 0.06538 0.68094 0.0
C8 C 0.09586 0.05525 0.66124 0.0
C9 C 0.08143 0.07023 0.6635 0.0
N10 N 0.07886 0.04837 0.68855 0.0
N11 N 0.09402 0.04259 0.67701 0.0
C12 C 0.05182 0.07465 0.68834 0.0
H13 H 0.04007 0.0736 0.67646 0.0
H14 H 0.04647 0.06708 0.70224 0.0
H15 H 0.05427 0.09081 0.69176 0.0
C16 C 0.05922 0.04311 0.76568 0.0
N17 N 0.05493 0.03411 0.74796 0.0
N18 N 0.06524 0.04302 0.73353 0.0
C19 C 0.07639 0.05794 0.74155 0.0
C20 C 0.07294 0.05857 0.76216 0.0
C21 C 0.05004 0.03705 0.7854 0.0
H22 H 0.0483 0.02045 0.78603 0.0
H23 H 0.03491 0.04404 0.78674 0.0
H24 H 0.05907 0.04209 0.79846 0.0
O25 O 0.06035 0.98948 0.73314 0.0
O26 O 0.0769 0.00481 0.70809 0.0
H27 H 0.10017 0.06012 0.71976 0.0
H28 H 0.10221 0.07793 0.74019 0.0
C29 C 0.09152 0.07008 0.73 0.0
H30 H 0.0835 0.08146 0.72076 0.0
H31 H 0.10195 0.02913 0.67891 0.0
O32 O 0.02204 0.00143 0.76357 0.0
C33 C 0.07384 0.98955 0.71935 0.0
Co34 Co 0.30742 0.80666 0.0111 0.0
Co35 Co 0.28105 0.83164 0.98043 0.0
C36 C 0.29103 0.78882 0.97272 0.0
O37 O 0.30074 0.78789 0.98913 0.0
O38 O 0.28244 0.805 0.96733 0.0
C39 C 0.30728 0.77303 0.03473 0.0
O40 O 0.28851 0.77455 0.02853 0.0
C41 C 0.2443 0.83852 0.95833 0.0
C42 C 0.24691 0.8698 0.94727 0.0
C43 C 0.23438 0.85307 0.94713 0.0
N44 N 0.26169 0.84635 0.96511 0.0
N45 N 0.26321 0.86508 0.95852 0.0
C46 C 0.23855 0.81683 0.96104 0.0
H47 H 0.24524 0.80789 0.94858 0.0
H48 H 0.2446 0.81103 0.9755 0.0
H49 H 0.22204 0.81451 0.96069 0.0
C50 C 0.27633 0.82191 0.03955 0.0
N51 N 0.28439 0.82025 0.021 0.0
N52 N 0.27318 0.8304 0.00813 0.0
C53 C 0.25751 0.83864 0.01812 0.0
C54 C 0.25896 0.83349 0.03838 0.0
C55 C 0.28521 0.81294 0.05823 0.0
H56 H 0.30187 0.81209 0.05692 0.0
H57 H 0.27918 0.79751 0.06039 0.0
H58 H 0.28106 0.82204 0.07165 0.0
O59 O 0.32675 0.82665 0.00023 0.0
O60 O 0.30826 0.84381 0.97786 0.0
H61 H 0.24683 0.86193 -0.0015 0.0
H62 H 0.22985 0.85643 0.01889 0.0
C63 C 0.24059 0.84974 0.00805 0.0
H64 H 0.23209 0.83916 -0.00165 0.0
H65 H 0.27549 0.8745 0.9614 0.0
O66 O 0.31942 0.78736 0.03074 0.0
C67 C 0.32497 0.8403 0.98675 0.0
Co68 Co 0.52099 0.02817 0.26427 0.0
Co69 Co 0.49296 0.01515 0.22827 0.0
C70 C 0.53577 0.02766 0.22163 0.0
O71 O 0.53834 0.03083 0.2403 0.0
O72 O 0.519 0.02128 0.21497 0.0
C73 C 0.55588 0.02162 0.28581 0.0
O74 O 0.5566 0.00753 0.27191 0.0
C75 C 0.48455 0.98757 0.19617 0.0
C76 C 0.45274 0.993 0.18795 0.0
C77 C 0.46945 0.98138 0.18321 0.0
N78 N 0.47731 0.00227 0.20795 0.0
N79 N 0.45828 0.00561 0.20295 0.0
C80 C 0.50517 0.97865 0.19848 0.0
H81 H 0.51093 0.98114 0.21397 0.0
H82 H 0.50493 0.96227 0.19512 0.0
H83 H 0.5156 0.98608 0.18772 0.0
C84 C 0.50476 0.99021 0.28134 0.0
N85 N 0.50771 0.00295 0.26579 0.0
N86 N 0.49552 -0.00202 0.25094 0.0
C87 C 0.48417 0.98216 0.25665 0.0
C88 C 0.48965 0.97665 0.27606 0.0
C89 C 0.51583 0.99157 0.30096 0.0
H90 H 0.51351 0.00673 0.30764 0.0
H91 H 0.53218 0.98963 0.29819 0.0
H92 H 0.51111 0.9798 0.31179 0.0
O93 O 0.50002 0.04938 0.26311 0.0
O94 O 0.48039 0.04049 0.23723 0.0
H95 H 0.45737 0.98772 0.23954 0.0
H96 H 0.45622 0.96514 0.25435 0.0
C97 C 0.46627 0.97471 0.24504 0.0
H98 H 0.47153 0.96589 0.23186 0.0
H99 H 0.44905 0.01628 0.20989 0.0
O100 O 0.54021 0.03263 0.28688 0.0
C101 C 0.48483 0.05243 0.25164 0.0
Co102 Co 0.28183 0.27877 0.51756 0.0
Co103 Co 0.30113 0.25301 0.48285 0.0
C104 C 0.28455 0.29422 0.47539 0.0
O105 O 0.27988 0.29659 0.49375 0.0
O106 O 0.29283 0.27809 0.46942 0.0
C107 C 0.2844 0.31315 0.54009 0.0
O108 O 0.3002 0.31415 0.52816 0.0
C109 C 0.33404 0.24886 0.45531 0.0
C110 C 0.32607 0.22238 0.43683 0.0
C111 C 0.34003 0.23785 0.43867 0.0
N112 N 0.31749 0.24027 0.46312 0.0
N113 N 0.31286 0.22427 0.45219 0.0
C114 C 0.34218 0.26882 0.46203 0.0
H115 H 0.3323 0.27579 0.47355 0.0
H116 H 0.35739 0.26669 0.46866 0.0
H117 H 0.34371 0.2791 0.44892 0.0
C118 C 0.31951 0.2658 0.53827 0.0
N119 N 0.30805 0.26793 0.52159 0.0
N120 N 0.31566 0.25673 0.50709 0.0
C121 C 0.33191 0.24684 0.51411 0.0
C122 C 0.33504 0.25237 0.53401 0.0
C123 C 0.31516 0.27601 0.55793 0.0
H124 H 0.29906 0.27384 0.56196 0.0
H125 H 0.31791 0.29239 0.55628 0.0
H126 H 0.3249 0.27051 0.57029 0.0
O127 O 0.26287 0.25569 0.51372 0.0
O128 O 0.2768 0.23745 0.48904 0.0
H129 H 0.33094 0.22122 0.49433 0.0
H130 H 0.3499 0.21957 0.51367 0.0
C131 C 0.34214 0.22996 0.50312 0.0
H132 H 0.35349 0.23628 0.49262 0.0
H133 H 0.30011 0.21537 0.4545 0.0
O134 O 0.27357 0.29732 0.53966 0.0
C135 C 0.26283 0.24041 0.50193 0.0
Co136 Co 0.55558 0.53984 0.29583 0.0
Co137 Co 0.57884 0.51737 0.33045 0.0
C138 C 0.53599 0.5288 0.33528 0.0
O139 O 0.53618 0.53691 0.31802 0.0
O140 O 0.55152 0.51997 0.34206 0.0
C141 C 0.52239 0.53699 0.27149 0.0
O142 O 0.52359 0.51905 0.27977 0.0
C143 C 0.58502 0.48345 0.35655 0.0
C144 C 0.61071 0.4928 0.37551 0.0
C145 C 0.59618 0.47794 0.37326 0.0
N146 N 0.59261 0.50067 0.34915 0.0
N147 N 0.60823 0.50604 0.3603 0.0
C148 C 0.56553 0.47435 0.34968 0.0
H149 H 0.55391 0.47644 0.36154 0.0
H150 H 0.56032 0.48144 0.33547 0.0
H151 H 0.56744 0.45794 0.34722 0.0
C152 C 0.57272 0.50567 0.27204 0.0
N153 N 0.56918 0.51538 0.28955 0.0
N154 N 0.57913 0.50629 0.30412 0.0
C155 C 0.58947 0.49068 0.29635 0.0
C156 C 0.58564 0.48959 0.27583 0.0
C157 C 0.56328 0.51141 0.25236 0.0
H158 H 0.56116 0.52796 0.25161 0.0
H159 H 0.5483 0.50406 0.25115 0.0
H160 H 0.57243 0.50648 0.23934 0.0
O161 O 0.57589 0.5602 0.30436 0.0
O162 O 0.59134 0.54428 0.32969 0.0
H163 H 0.61308 0.48773 0.31828 0.0
H164 H 0.61461 0.46989 0.29786 0.0
C165 C 0.60413 0.47806 0.30801 0.0
H166 H 0.5957 0.46691 0.31716 0.0
H167 H 0.61625 0.51944 0.35841 0.0
O168 O 0.53683 0.54933 0.27433 0.0
C169 C 0.589 0.55973 0.31851 0.0
Co170 Co 0.76802 0.29257 0.55538 0.0
Co171 Co 0.79078 0.3151 0.59044 0.0
C172 C 0.76839 0.27669 0.59767 0.0
O173 O 0.76311 0.27524 0.57934 0.0
O174 O 0.77921 0.29127 0.6036 0.0
C175 C 0.76841 0.25863 0.53227 0.0
O176 O 0.78301 0.25593 0.54539 0.0
C177 C 0.82033 0.31512 0.62193 0.0
C178 C 0.8233 0.34696 0.63109 0.0
C179 C 0.82998 0.32765 0.63542 0.0
N180 N 0.80827 0.3263 0.6102 0.0
N181 N 0.81006 0.34538 0.61569 0.0
C182 C 0.82324 0.29288 0.61959 0.0
H183 H 0.8194 0.28808 0.60404 0.0
H184 H 0.83906 0.28864 0.62308 0.0
H185 H 0.81324 0.28488 0.63032 0.0
C186 C 0.8072 0.30076 0.5351 0.0
N187 N 0.79557 0.29991 0.55176 0.0
N188 N 0.805 0.30909 0.56661 0.0
C189 C 0.8229 0.31597 0.55999 0.0
C190 C 0.8249 0.31095 0.53981 0.0
C191 C 0.80107 0.29263 0.51495 0.0
H192 H 0.7851 0.29653 0.51185 0.0
H193 H 0.80247 0.27599 0.51516 0.0
H194 H 0.81072 0.29828 0.50259 0.0
O195 O 0.75217 0.3179 0.5589 0.0
O196 O 0.76859 0.33356 0.58383 0.0
H197 H 0.82726 0.34232 0.57802 0.0
H198 H 0.84871 0.33606 0.56268 0.0
C199 C 0.83632 0.32969 0.5719 0.0
H200 H 0.84287 0.32123 0.58473 0.0
H201 H 0.80214 0.35725 0.60908 0.0
O202 O 0.75867 0.27516 0.53266 0.0
C203 C 0.75431 0.33284 0.57095 0.0
Co204 Co 0.02169 0.54214 0.79851 0.0
Co205 Co 0.98973 0.54909 0.83293 0.0
C206 C 0.0339 0.54696 0.84163 0.0
O207 O 0.0379 0.54465 0.82312 0.0
O208 O 0.01582 0.549 0.84754 0.0
C209 C 0.05712 0.55317 0.77929 0.0
O210 O 0.0545 0.5682 0.79192 0.0
C211 C 0.97281 0.57652 0.86176 0.0
C212 C 0.94922 0.55883 0.87715 0.0
C213 C 0.95907 0.57727 0.87742 0.0
N214 N 0.97104 0.55867 0.85245 0.0
N215 N 0.95672 0.54819 0.86152 0.0
C216 C 0.98921 0.5914 0.8573 0.0
H217 H -0.00026 0.58548 0.84576 0.0
H218 H 0.98245 0.60557 0.85158 0.0
H219 H 0.99762 0.59502 0.87131 0.0
C220 C 0.99799 0.57549 0.77967 0.0
N221 N 0.00285 0.56347 0.79534 0.0
N222 N 0.98905 0.56549 0.80948 0.0
C223 C 0.97467 0.57826 0.80301 0.0
C224 C 0.97993 0.58525 0.78403 0.0
C225 C 0.0101 0.57714 0.76072 0.0
H226 H 0.00456 0.56585 0.7497 0.0
H227 H 0.02618 0.57412 0.76371 0.0
H228 H 0.00864 0.59238 0.75401 0.0
O229 O 0.00652 0.51642 0.80055 0.0
O230 O 0.98388 0.52125 0.82499 0.0
H231 H 0.94991 0.56706 0.82064 0.0
H232 H 0.94299 0.58615 0.80264 0.0
C233 C 0.95483 0.58128 0.81341 0.0
H234 H 0.95648 0.59302 0.82518 0.0
H235 H 0.95284 0.53343 0.85775 0.0
O236 O 0.04303 0.54027 0.77738 0.0
C237 C 0.99206 0.51011 0.81163 0.0
Co238 Co 0.79189 0.75454 0.04041 0.0
Co239 Co 0.76447 0.73791 0.07534 0.0
C240 C 0.7748 0.7813 0.0731 0.0
O241 O 0.78545 0.77812 0.05754 0.0
O242 O 0.76516 0.76704 0.08144 0.0
C243 C 0.79408 0.78154 0.00934 0.0
O244 O 0.77507 0.78256 0.01488 0.0
C245 C 0.72935 0.73567 0.10127 0.0
C246 C 0.732 0.70578 0.11561 0.0
C247 C 0.72044 0.72318 0.1154 0.0
N248 N 0.74556 0.72629 0.09362 0.0
N249 N 0.74703 0.70835 0.10215 0.0
C250 C 0.722 0.75583 0.09433 0.0
H251 H 0.72884 0.76772 0.10384 0.0
H252 H 0.72648 0.75851 0.07845 0.0
H253 H 0.70534 0.75687 0.09573 0.0
C254 C 0.76097 0.73299 0.01569 0.0
N255 N 0.76868 0.73932 0.03341 0.0
N256 N 0.75735 0.73241 0.04817 0.0
C257 C 0.74213 0.72152 0.04033 0.0
C258 C 0.74401 0.72141 0.01952 0.0
C259 C 0.76982 0.73749 0.99547 0.0
H260 H 0.78646 0.73884 0.99658 0.0
H261 H 0.76361 0.75197 0.98988 0.0
H262 H 0.76581 0.72552 0.98448 0.0
O263 O 0.81087 0.73747 0.05582 0.0
O264 O 0.79162 0.7271 0.08137 0.0
H265 H 0.73181 0.70111 0.06301 0.0
H266 H 0.71378 0.70518 0.04303 0.0
C267 C 0.72543 0.71246 0.05254 0.0
H268 H 0.71811 0.7244 0.06162 0.0
H269 H 0.75851 0.69803 0.09908 0.0
O270 O 0.80505 0.76784 0.01706 0.0
C271 C 0.80858 0.72788 0.07235 0.0
Co272 Co 0.7753 0.00479 0.02639 0.0
Co273 Co 0.74135 0.02842 0.05003 0.0
C274 C 0.74349 0.98362 0.05107 0.0
O275 O 0.75896 0.98391 0.03979 0.0
O276 O 0.73512 -9e-05 0.05675 0.0
C277 C 0.80673 0.97708 0.02702 0.0
O278 O 0.80193 0.97787 0.04622 0.0
C279 C 0.70985 0.04085 0.07859 0.0
C280 C 0.70698 0.07344 0.07253 0.0
C281 C 0.69899 0.05786 0.08384 0.0
N282 N 0.7236 0.04596 0.06464 0.0
N283 N 0.72184 0.06551 0.06112 0.0
C284 C 0.70719 0.02007 0.08687 0.0
H285 H 0.69922 0.01075 0.07552 0.0
H286 H 0.72215 0.01325 0.08995 0.0
H287 H 0.69826 0.02019 0.101 0.0
C288 C 0.80124 0.0331 0.04945 0.0
N289 N 0.78307 0.02557 0.0443 0.0
N290 N 0.76895 0.03503 0.05458 0.0
C291 C 0.77775 0.04863 0.06681 0.0
C292 C 0.79845 0.04807 0.06373 0.0
C293 C 0.82089 0.02606 0.04092 0.0
H294 H 0.81904 0.02208 0.02479 0.0
H295 H 0.82588 0.01243 0.0492 0.0
H296 H 0.83267 0.03785 0.04252 0.0
O297 O 0.75848 0.01555 0.00449 0.0
O298 O 0.73452 0.03194 0.02128 0.0
H299 H 0.76055 0.07434 0.0757 0.0
H300 H 0.77697 0.06488 0.0951 0.0
C301 C 0.76678 0.06045 0.0826 0.0
H302 H 0.75418 0.05143 0.08886 0.0
H303 H 0.73051 0.07337 0.05061 0.0
O304 O 0.79829 0.98939 0.015 0.0
C305 C 0.74229 0.0259 0.00482 0.0
Co306 Co 0.28149 0.51494 0.28258 0.0
Co307 Co 0.25022 0.48119 0.2944 0.0
C308 C 0.29395 0.47205 0.28814 0.0
O309 O 0.2979 0.49037 0.28449 0.0
O310 O 0.27612 0.46653 0.29234 0.0
C311 C 0.31732 0.53562 0.28984 0.0
O312 O 0.31658 0.52343 0.30543 0.0
C313 C 0.23593 0.4539 0.32471 0.0
C314 C 0.21096 0.43759 0.30994 0.0
C315 C 0.22242 0.43824 0.32742 0.0
N316 N 0.23252 0.46229 0.30665 0.0
N317 N 0.21738 0.45269 0.29794 0.0
C318 C 0.25357 0.4591 0.33781 0.0
H319 H 0.26359 0.47017 0.3303 0.0
H320 H 0.24808 0.46573 0.35213 0.0
H321 H 0.26222 0.44527 0.34154 0.0
C322 C 0.26056 0.5361 0.31584 0.0
N323 N 0.26481 0.51925 0.30532 0.0
N324 N 0.25128 0.50537 0.30961 0.0
C325 C 0.23774 0.51305 0.32263 0.0
C326 C 0.24316 0.53274 0.32705 0.0
C327 C 0.27247 0.5552 0.31435 0.0
H328 H 0.28878 0.55175 0.31492 0.0
H329 H 0.26889 0.56575 0.32679 0.0
H330 H 0.26924 0.56256 0.29969 0.0
O331 O 0.26352 0.51214 0.25886 0.0
O332 O 0.24144 0.48804 0.267 0.0
H333 H 0.20684 0.514 0.33327 0.0
H334 H 0.22105 0.49199 0.3404 0.0
C335 C 0.21828 0.50295 0.3281 0.0
H336 H 0.21217 0.49474 0.3149 0.0
H337 H 0.2122 0.4557 0.2834 0.0
O338 O 0.30223 0.53628 0.27799 0.0
C339 C 0.24835 0.50102 0.25463 0.0
Co340 Co 0.79065 0.02924 0.4905 0.0
Co341 Co 0.823 0.00611 0.51664 0.0
C342 C 0.83327 0.04443 0.49624 0.0
O343 O 0.81555 0.04568 0.48911 0.0
O344 O 0.83831 0.02983 0.50749 0.0
C345 C 0.76919 0.06381 0.49238 0.0
O346 O 0.78 0.06332 0.50896 0.0
C347 C 0.85314 0.00136 0.54772 0.0
C348 C 0.85508 0.96844 0.55219 0.0
C349 C 0.86317 0.98663 0.55857 0.0
N350 N 0.83991 0.99238 0.53533 0.0
N351 N 0.84111 0.97268 0.53803 0.0
C352 C 0.85484 0.02372 0.55019 0.0
H353 H 0.86615 0.0296 0.53936 0.0
H354 H 0.84012 0.03102 0.54696 0.0
H355 H 0.85972 0.0277 0.56568 0.0
C356 C 0.76629 0.02108 0.52706 0.0
N357 N 0.78399 0.02112 0.51707 0.0
N358 N 0.79784 0.0125 0.52837 0.0
C359 C 0.78948 0.00706 0.54605 0.0
C360 C 0.76921 0.01221 0.54569 0.0
C361 C 0.74654 0.0276 0.5183 0.0
H362 H 0.74662 0.0257 0.5017 0.0
H363 H 0.74398 0.04372 0.52192 0.0
H364 H 0.73393 0.01878 0.52487 0.0
O365 O 0.79503 0.0045 0.47407 0.0
O366 O 0.81811 0.98883 0.49299 0.0
H367 H 0.80443 0.98152 0.55875 0.0
H368 H 0.79197 0.99727 0.57715 0.0
C369 C 0.80078 0.99728 0.56295 0.0
H370 H 0.8151 0.00546 0.5656 0.0
H371 H 0.83242 0.96215 0.5302 0.0
O372 O 0.7702 0.04893 0.48028 0.0
C373 C 0.80688 0.98962 0.47739 0.0
Co374 Co 0.2966 0.55649 0.7731 0.0
Co375 Co 0.31947 0.59183 0.79474 0.0
C376 C 0.27512 0.59187 0.79235 0.0
O377 O 0.27596 0.57567 0.7823 0.0
O378 O 0.29108 0.60005 0.799 0.0
C379 C 0.26649 0.52854 0.77785 0.0
O380 O 0.27032 0.53391 0.79652 0.0
C381 C 0.33056 0.61831 0.8275 0.0
C382 C 0.35475 0.63681 0.81406 0.0
C383 C 0.34264 0.63497 0.83099 0.0
N384 N 0.33527 0.61067 0.80938 0.0
N385 N 0.35005 0.62151 0.80158 0.0
C386 C 0.3128 0.61158 0.83968 0.0
H387 H 0.30041 0.6227 0.83804 0.0
H388 H 0.30749 0.59657 0.83456 0.0
H389 H 0.31684 0.61071 0.85586 0.0
C390 C 0.32193 0.53228 0.80162 0.0
N391 N 0.31523 0.54986 0.79389 0.0
N392 N 0.32491 0.56485 0.80263 0.0
C393 C 0.33815 0.55731 0.81599 0.0
C394 C 0.33658 0.53644 0.81607 0.0
C395 C 0.31354 0.51209 0.79607 0.0
H396 H 0.30601 0.51274 0.78121 0.0
H397 H 0.30245 0.50737 0.80767 0.0
H398 H 0.32554 0.50054 0.7954 0.0
O399 O 0.31135 0.56912 0.75044 0.0
O400 O 0.32584 0.59513 0.76605 0.0
H401 H 0.35998 0.58105 0.81781 0.0
H402 H 0.36466 0.56046 0.83486 0.0
C403 C 0.35272 0.56985 0.82784 0.0
H404 H 0.34445 0.57806 0.83982 0.0
H405 H 0.35595 0.61931 0.78717 0.0
O406 O 0.27863 0.53423 0.76412 0.0
C407 C 0.32213 0.58507 0.75016 0.0
Co408 Co 0.27272 0.53823 0.01762 0.0
Co409 Co 0.23718 0.50917 0.00539 0.0
C410 C 0.23215 0.5541 0.00648 0.0
O411 O 0.25041 0.55686 0.01149 0.0
O412 O 0.22534 0.53648 0.00348 0.0
C413 C 0.29818 0.571 0.01032 0.0
O414 O 0.28712 0.5711 0.99389 0.0
C415 C 0.20798 0.4956 0.97644 0.0
C416 C 0.19066 0.47264 0.99315 0.0
C417 C 0.19088 0.48361 0.97535 0.0
N418 N 0.21732 0.49196 0.99399 0.0
N419 N 0.20717 0.4779 0.00378 0.0
C420 C 0.21375 0.51245 0.96257 0.0
H421 H 0.22727 0.52051 0.96822 0.0
H422 H 0.2173 0.50633 0.94745 0.0
H423 H 0.20096 0.52313 0.96098 0.0
C424 C 0.29408 0.51296 0.98731 0.0
N425 N 0.27726 0.51878 0.99711 0.0
N426 N 0.26243 0.50645 0.99241 0.0
C427 C 0.26936 0.49222 0.97975 0.0
C428 C 0.28964 0.49582 0.97604 0.0
C429 C 0.31372 0.52403 0.98856 0.0
H430 H 0.31923 0.52378 0.00434 0.0
H431 H 0.3113 0.53998 0.9843 0.0
H432 H 0.32534 0.51764 0.97843 0.0
O433 O 0.26509 0.52429 0.04287 0.0
O434 O 0.24033 0.50329 0.03414 0.0
H435 H 0.24821 0.46848 0.98558 0.0
H436 H 0.26705 0.46225 0.96698 0.0
C437 C 0.25725 0.47446 0.97286 0.0
H438 H 0.24675 0.4793 0.96079 0.0
H439 H 0.21066 0.47301 0.0183 0.0
O440 O 0.29603 0.55653 0.02271 0.0
C441 C 0.25199 0.51091 0.04735 0.0
Co442 Co 0.78466 0.01058 0.28294 0.0
Co443 Co 0.80341 0.97969 0.25212 0.0
C444 C 0.76102 0.97566 0.2654 0.0
O445 O 0.76321 0.99093 0.27669 0.0
O446 O 0.77537 0.96958 0.25429 0.0
C447 C 0.75477 0.0386 0.28743 0.0
O448 O 0.75429 0.03452 0.26806 0.0
C449 C 0.80867 0.95734 0.21435 0.0
C450 C 0.83857 0.94338 0.21879 0.0
C451 C 0.82224 0.94389 0.20572 0.0
N452 N 0.8166 0.96427 0.23168 0.0
N453 N 0.83463 0.95614 0.23406 0.0
C454 C 0.78784 0.96234 0.20719 0.0
H455 H 0.77901 0.94831 0.20494 0.0
H456 H 0.78001 0.97244 0.21788 0.0
H457 H 0.78873 0.97038 0.19259 0.0
C458 C 0.80236 0.03962 0.25384 0.0
N459 N 0.79748 0.02077 0.25965 0.0
N460 N 0.80519 0.0078 0.24674 0.0
C461 C 0.81516 0.01801 0.23232 0.0
C462 C 0.81378 0.03844 0.23645 0.0
C463 C 0.79742 0.05834 0.26536 0.0
H464 H 0.79679 0.05508 0.28173 0.0
H465 H 0.78247 0.06401 0.26044 0.0
H466 H 0.80876 0.0703 0.2624 0.0
O467 O 0.80493 0.99667 0.29969 0.0
O468 O 0.81676 0.97369 0.27814 0.0
H469 H 0.83778 -0.00172 0.22059 0.0
H470 H 0.83243 0.01965 0.20457 0.0
C471 C 0.82571 0.00835 0.21488 0.0
H472 H 0.81479 -0.00094 0.20632 0.0
H473 H 0.84383 0.95855 0.24658 0.0
O474 O 0.76905 0.03127 0.29794 0.0
C475 C 0.81632 0.9817 0.29559 0.0
Co476 Co 0.3017 0.54472 0.53843 0.0
Co477 Co 0.33777 0.56678 0.51692 0.0
C478 C 0.34209 0.52511 0.53298 0.0
O479 O 0.32389 0.52489 0.53881 0.0
O480 O 0.34941 0.54048 0.52432 0.0
C481 C 0.27622 0.51246 0.53641 0.0
O482 O 0.28646 0.51148 0.51948 0.0
C483 C 0.36805 0.56866 0.4861 0.0
C484 C 0.37908 0.60004 0.48682 0.0
C485 C 0.38197 0.58156 0.47752 0.0
N486 N 0.3575 0.57884 0.49999 0.0
N487 N 0.36411 0.59764 0.5004 0.0
C488 C 0.36415 0.54711 0.48066 0.0
H489 H 0.34813 0.54322 0.48356 0.0
H490 H 0.36783 0.54429 0.46459 0.0
H491 H 0.37379 0.53724 0.49011 0.0
C492 C 0.28021 0.55998 0.50232 0.0
N493 N 0.2973 0.55603 0.5126 0.0
N494 N 0.31253 0.56511 0.50367 0.0
C495 C 0.30566 0.57514 0.48745 0.0
C496 C 0.28498 0.57226 0.48605 0.0
C497 C 0.25979 0.55244 0.50841 0.0
H498 H 0.25865 0.53622 0.50461 0.0
H499 H 0.24741 0.56033 0.50051 0.0
H500 H 0.25786 0.55405 0.52493 0.0
O501 O 0.30846 0.5672 0.55713 0.0
O502 O 0.33412 0.58259 0.54161 0.0
H503 H 0.32587 0.60016 0.4857 0.0
H504 H 0.30904 0.59838 0.46457 0.0
C505 C 0.31819 0.58952 0.47537 0.0
H506 H 0.32989 0.58099 0.467 0.0
H507 H 0.35857 0.60874 0.51008 0.0
O508 O 0.27878 0.52772 0.54775 0.0
C509 C 0.32177 0.58115 0.55627 0.0
Co510 Co 0.76962 0.05882 0.79078 0.0
Co511 Co 0.73895 0.09402 0.78208 0.0
C512 C 0.78001 0.10209 0.79872 0.0
O513 O 0.78426 0.08345 0.79853 0.0
O514 O 0.76294 0.10834 0.7927 0.0
C515 C 0.80644 0.0416 0.78183 0.0
O516 O 0.80633 0.0578 0.77044 0.0
C517 C 0.72833 0.12942 0.75968 0.0
C518 C 0.69519 0.13164 0.7623 0.0
C519 C 0.71188 0.14058 0.75342 0.0
N520 N 0.72182 0.1146 0.77176 0.0
N521 N 0.70201 0.11612 0.77357 0.0
C522 C 0.74967 0.13129 0.75253 0.0
H523 H 0.75774 0.14229 0.76221 0.0
H524 H 0.75753 0.11657 0.75358 0.0
H525 H 0.7502 0.13678 0.73674 0.0
C526 C 0.75785 0.0477 0.74915 0.0
N527 N 0.75813 0.06071 0.76475 0.0
N528 N 0.74512 0.0753 0.76129 0.0
C529 C 0.73604 0.07197 0.74344 0.0
C530 C 0.74383 0.05445 0.73515 0.0
C531 C 0.77038 0.02894 0.74812 0.0
H532 H 0.78636 0.03319 0.74576 0.0
H533 H 0.76594 0.01896 0.73552 0.0
H534 H 0.76928 0.02061 0.76256 0.0
O535 O 0.74735 0.05416 0.81021 0.0
O536 O 0.72576 0.0793 0.80423 0.0
H537 H 0.71043 0.07575 0.72331 0.0
H538 H 0.72304 0.09862 0.73081 0.0
C539 C 0.71812 0.08351 0.73596 0.0
H540 H 0.7071 0.08535 0.74835 0.0
H541 H 0.6931 0.10616 0.78186 0.0
O542 O 0.79087 0.0376 0.7923 0.0
C543 C 0.73084 0.06345 0.81385 0.0
Co544 Co 0.01332 0.76442 0.0433 0.0
Co545 Co 0.03537 0.72899 0.06577 0.0
C546 C 0.0143 0.72316 0.02598 0.0
O547 O 0.00969 0.74166 0.02428 0.0
O548 O 0.02384 0.71677 0.04127 0.0
C549 C 0.98715 0.78653 0.01847 0.0
O550 O 0.97607 0.77039 0.02155 0.0
C551 C 0.06605 0.6987 0.06409 0.0
C552 C 0.07072 0.68911 0.09558 0.0
C553 C 0.07723 0.68583 0.076 0.0
N554 N 0.05334 0.70906 0.07589 0.0
N555 N 0.05604 0.7032 0.09475 0.0
C556 C 0.06846 0.70234 0.04195 0.0
H557 H 0.06406 0.71801 0.03811 0.0
H558 H 0.08426 0.69961 0.03714 0.0
H559 H 0.05848 0.69184 0.03358 0.0
C560 C 0.05339 0.78356 0.04935 0.0
N561 N 0.04071 0.76773 0.05053 0.0
N562 N 0.04957 0.75309 0.06053 0.0
C563 C 0.06795 0.75925 0.06648 0.0
C564 C 0.07111 0.77869 0.05944 0.0
C565 C 0.04853 0.8028 0.03866 0.0
H566 H 0.04135 0.79939 0.02395 0.0
H567 H 0.06224 0.81203 0.03609 0.0
H568 H 0.03759 0.81154 0.04781 0.0
O569 O 0.99681 0.75901 0.06801 0.0
O570 O 0.01301 0.7344 0.08427 0.0
H571 H 0.09243 0.75745 0.08815 0.0
H572 H 0.08904 0.73559 0.07231 0.0
C573 C 0.0811 0.74766 0.08071 0.0
H574 H 0.07169 0.74062 0.09256 0.0
H575 H 0.04812 0.70902 0.10703 0.0
O576 O 0.00364 0.78831 0.02808 0.0
C577 C -0.00159 0.74683 0.08289 0.0
Co578 Co 0.51014 0.77752 0.03383 0.0
Co579 Co 0.54353 0.80684 0.0171 0.0
C580 C 0.52098 0.81665 0.05439 0.0
O581 O 0.51081 0.80049 0.05305 0.0
O582 O 0.53456 0.82076 0.04159 0.0
C583 C 0.50326 0.75066 0.06442 0.0
O584 O 0.52206 0.75617 0.06735 0.0
C585 C 0.58039 0.8298 0.0199 0.0
C586 C 0.58813 0.83683 0.98832 0.0
C587 C 0.5944 0.8397 0.00805 0.0
N588 N 0.56638 0.82156 0.00785 0.0
N589 N 0.57102 0.82582 0.98895 0.0
C590 C 0.58109 0.82677 0.04224 0.0
H591 H 0.57357 0.81242 0.04638 0.0
H592 H 0.59691 0.82663 0.04773 0.0
H593 H 0.573 0.83933 0.04972 0.0
C594 C 0.54274 0.74786 0.02516 0.0
N595 N 0.536 0.76694 0.02734 0.0
N596 N 0.5502 0.77948 0.02138 0.0
C597 C 0.56652 0.76883 0.01574 0.0
C598 C 0.56229 0.74855 0.01797 0.0
C599 C 0.53004 0.72937 0.0275 0.0
H600 H 0.53184 0.72344 0.04302 0.0
H601 H 0.53497 0.71743 0.01686 0.0
H602 H 0.51392 0.73295 0.02486 0.0
O603 O 0.49749 0.78757 0.00861 0.0
O604 O 0.52127 0.80859 0.99728 0.0
H605 H 0.58115 0.78533 0.99227 0.0
H606 H 0.59675 0.76608 0.00352 0.0
C607 C 0.58514 0.77772 0.0066 0.0
H608 H 0.59157 0.78909 0.017 0.0
H609 H 0.56254 0.82122 0.97653 0.0
O610 O 0.49382 0.75746 0.04917 0.0
C611 C 0.50397 0.80029 0.99563 0.0
Co612 Co 0.51633 0.28563 0.27423 0.0
Co613 Co 0.48222 0.29763 0.24353 0.0
C614 C 0.47752 0.30256 0.28845 0.0
O615 O 0.49544 0.29689 0.29199 0.0
O616 O 0.47081 0.30328 0.27055 0.0
C617 C 0.54297 0.29309 0.30614 0.0
O618 O 0.53382 0.31061 0.30486 0.0
C619 C 0.45568 0.3278 0.22789 0.0
C620 C 0.43636 0.31093 0.20672 0.0
C621 C 0.43837 0.32941 0.21629 0.0
N622 N 0.46344 0.30932 0.22538 0.0
N623 N 0.45213 0.2994 0.21233 0.0
C624 C 0.46282 0.34219 0.24376 0.0
H625 H 0.45083 0.3443 0.25525 0.0
H626 H 0.47678 0.3366 0.25107 0.0
H627 H 0.46608 0.35706 0.23689 0.0
C628 C 0.54023 0.31218 0.24688 0.0
N629 N 0.52293 0.30318 0.2526 0.0
N630 N 0.50864 0.30773 0.23961 0.0
C631 C 0.51643 0.31941 0.225 0.0
C632 C 0.53667 0.32281 0.22911 0.0
C633 C 0.55908 0.31192 0.25932 0.0
H634 H 0.56244 0.29625 0.26406 0.0
H635 H 0.55658 0.32103 0.2731 0.0
H636 H 0.57224 0.3182 0.25125 0.0
O637 O 0.5052 0.25986 0.26366 0.0
O638 O 0.48213 0.26837 0.24076 0.0
H639 H 0.49489 0.31449 0.20139 0.0
H640 H 0.51509 0.33155 0.19479 0.0
C641 C 0.50483 0.32667 0.20707 0.0
H642 H 0.49525 0.33961 0.21156 0.0
H643 H 0.4542 0.28427 0.20856 0.0
O644 O 0.53917 0.27977 0.29288 0.0
C645 C 0.49184 0.25509 0.25063 0.0
Co646 Co 0.03167 0.24705 0.51185 0.0
Co647 Co 0.0215 0.21853 0.47544 0.0
C648 C 0.0122 0.20782 0.5188 0.0
O649 O 0.01778 0.22487 0.52536 0.0
O650 O 0.0133 0.20365 0.50014 0.0
C651 C 0.02507 0.26882 0.54782 0.0
O652 O 0.00681 0.26157 0.54518 0.0
C653 C 0.99097 0.19655 0.45423 0.0
C654 C 0.00799 0.17954 0.4313 0.0
C655 C 0.98901 0.18156 0.43988 0.0
N656 N 0.01008 0.20319 0.45411 0.0
N657 N 0.02015 0.19328 0.44007 0.0
C658 C 0.97593 0.20205 0.47015 0.0
H659 H 0.97326 0.18886 0.48008 0.0
H660 H 0.98139 0.21493 0.4793 0.0
H661 H 0.96135 0.20618 0.4631 0.0
C662 C 0.00683 0.27541 0.48755 0.0
N663 N 0.01619 0.25762 0.49036 0.0
N664 N 0.01253 0.2458 0.47486 0.0
C665 C 0.00112 0.25589 0.46145 0.0
C666 C 0.99678 0.27488 0.4691 0.0
C667 C 0.00541 0.29125 0.50355 0.0
H668 H 0.02013 0.2928 0.51129 0.0
H669 H 0.99399 0.28655 0.51483 0.0
H670 H 0.00094 0.30609 0.49744 0.0
O671 O 0.05744 0.236 0.50167 0.0
O672 O 0.05107 0.21715 0.47467 0.0
H673 H 0.00631 0.23824 0.43486 0.0
H674 H 0.98975 0.25965 0.43121 0.0
C675 C 0.99415 0.24741 0.44174 0.0
H676 H 0.98087 0.23759 0.44428 0.0
H677 H 0.03563 0.19476 0.43758 0.0
O678 O 0.03814 0.2662 0.53404 0.0
C679 C 0.0634 0.22466 0.48733 0.0
Co680 Co 0.0387 0.80251 0.79283 0.0
Co681 Co 0.06981 0.76972 0.77823 0.0
C682 C 0.07574 0.79065 0.81691 0.0
O683 O 0.06002 0.801 0.81352 0.0
O684 O 0.08128 0.77702 0.80471 0.0
C685 C 0.00937 0.80763 0.8216 0.0
O686 O 0.01369 0.78836 0.82299 0.0
C687 C 0.09567 0.7343 0.77864 0.0
C688 C 0.10232 0.72939 0.74642 0.0
C689 C 0.1066 0.72226 0.76557 0.0
N690 N 0.08556 0.74807 0.76782 0.0
N691 N 0.08951 0.74503 0.74853 0.0
C692 C 0.09409 0.73223 0.80103 0.0
H693 H 0.07898 0.73719 0.80623 0.0
H694 H 0.09675 0.71641 0.80575 0.0
H695 H 0.10565 0.74193 0.80822 0.0
C696 C 0.01035 0.77141 0.77857 0.0
N697 N 0.02903 0.77711 0.78421 0.0
N698 N 0.04203 0.76305 0.77897 0.0
C699 C 0.03194 0.74779 0.77018 0.0
C700 C 0.01163 0.75271 0.76947 0.0
C701 C 0.99223 0.78486 0.77894 0.0
H702 H 0.99687 0.80089 0.77813 0.0
H703 H 0.98389 0.78239 0.79322 0.0
H704 H 0.98189 0.78135 0.76625 0.0
O705 O 0.05027 0.81611 0.76899 0.0
O706 O 0.0731 0.79302 0.75993 0.0
H707 H 0.04877 0.73355 0.74673 0.0
H708 H 0.03052 0.71732 0.75869 0.0
C709 C 0.0417 0.72949 0.76132 0.0
H710 H 0.05359 0.72385 0.77161 0.0
H711 H 0.08373 0.75382 0.73685 0.0
O712 O 0.01759 0.81795 0.80767 0.0
C713 C 0.06448 0.81003 0.75745 0.0
Co714 Co 0.55 0.30372 0.54166 0.0
Co715 Co 0.52223 0.33349 0.56614 0.0
C716 C 0.52911 0.33967 0.52274 0.0
O717 O 0.5405 0.32432 0.5224 0.0
O718 O 0.52033 0.34504 0.53885 0.0
C719 C 0.54994 0.27762 0.5097 0.0
O720 O 0.53076 0.28211 0.51194 0.0
C721 C 0.48648 0.35643 0.57673 0.0
C722 C 0.49454 0.36921 0.60637 0.0
C723 C 0.47992 0.36966 0.59145 0.0
N724 N 0.5041 0.34841 0.58267 0.0
N725 N 0.50867 0.3558 0.60059 0.0
C726 C 0.47767 0.35355 0.55617 0.0
H727 H 0.48244 0.36623 0.54636 0.0
H728 H 0.48301 0.33919 0.54948 0.0
H729 H 0.46096 0.35347 0.5568 0.0
C730 C 0.52351 0.27379 0.56177 0.0
N731 N 0.52886 0.29287 0.5574 0.0
N732 N 0.51692 0.30535 0.56716 0.0
C733 C 0.50338 0.29462 0.57779 0.0
C734 C 0.50723 0.27422 0.57488 0.0
C735 C 0.53439 0.25549 0.55432 0.0
H736 H 0.55064 0.25887 0.55223 0.0
H737 H 0.52796 0.25091 0.53958 0.0
H738 H 0.53258 0.24276 0.56502 0.0
O739 O 0.56975 0.31691 0.55965 0.0
O740 O 0.54994 0.33891 0.57567 0.0
H741 H 0.49257 0.31199 0.60268 0.0
H742 H 0.47518 0.29263 0.59451 0.0
C743 C 0.48639 0.30391 0.58941 0.0
H744 H 0.47854 0.31504 0.57978 0.0
H745 H 0.52203 0.35266 0.6083 0.0
O746 O 0.56236 0.28382 0.52295 0.0
C747 C 0.56724 0.3313 0.57217 0.0
Co748 Co 0.017 0.26642 0.79056 0.0
Co749 Co 0.98387 0.25815 0.82351 0.0
C750 C 0.97409 0.25798 0.77952 0.0
O751 O 0.99234 0.26152 0.77505 0.0
O752 O 0.96866 0.25603 0.79776 0.0
C753 C 0.03748 0.25576 0.75534 0.0
O754 O 0.02605 0.23977 0.75781 0.0
C755 C 0.95426 0.23252 0.84225 0.0
C756 C 0.94217 0.25133 0.86687 0.0
C757 C 0.93932 0.23322 0.85683 0.0
N758 N 0.96544 0.24931 0.84362 0.0
N759 N 0.9584 0.26038 0.85861 0.0
C760 C 0.95606 0.2177 0.82532 0.0
H761 H 0.96918 0.2213 0.8156 0.0
H762 H 0.95807 0.20229 0.83142 0.0
H763 H 0.94201 0.21784 0.8162 0.0
C764 C 0.03816 0.23461 0.81365 0.0
N765 N 0.02196 0.24627 0.81004 0.0
N766 N 0.00822 0.24294 0.82398 0.0
C767 C 0.01534 0.22911 0.83702 0.0
C768 C 0.03452 0.22334 0.83095 0.0
C769 C 0.05602 0.23352 0.79988 0.0
H770 H 0.06077 0.24896 0.7956 0.0
H771 H 0.05159 0.22545 0.78593 0.0
H772 H 0.06893 0.22544 0.80665 0.0
O773 O 0.01337 0.29256 0.80407 0.0
O774 O 0.98993 0.28697 0.82745 0.0
H775 H 0.99719 0.23521 0.86306 0.0
H776 H 0.01476 0.21463 0.86621 0.0
C777 C 0.00438 0.22218 0.85548 0.0
H778 H 0.99242 0.21138 0.85105 0.0
H779 H 0.96382 0.27467 0.86232 0.0
O780 O 0.03787 0.269 0.7692 0.0
C781 C 0.00201 0.29877 0.81827 0.0
Co782 Co 0.53633 0.75605 0.28861 0.0
Co783 Co 0.56754 0.78809 0.30474 0.0
C784 C 0.57077 0.7718 0.26329 0.0
O785 O 0.5556 0.76052 0.26627 0.0
O786 O 0.57678 0.78389 0.27682 0.0
C787 C 0.50625 0.75118 0.26071 0.0
O788 O 0.51081 0.7704 0.25926 0.0
C789 C 0.59116 0.8248 0.30417 0.0
C790 C 0.60438 0.82626 0.33464 0.0
C791 C 0.6046 0.83558 0.31595 0.0
N792 N 0.58359 0.8096 0.31516 0.0
N793 N 0.59137 0.81065 0.33347 0.0
C794 C 0.58499 0.82926 0.28294 0.0
H795 H 0.59546 0.82159 0.27246 0.0
H796 H 0.5695 0.8236 0.28007 0.0
H797 H 0.58568 0.8457 0.27996 0.0
C798 C 0.50783 0.78595 0.30585 0.0
N799 N 0.52654 0.78014 0.30043 0.0
N800 N 0.53961 0.79371 0.30669 0.0
C801 C 0.52962 0.8087 0.316 0.0
C802 C 0.50918 0.80416 0.31592 0.0
C803 C 0.48917 0.77357 0.30307 0.0
H804 H 0.49292 0.75729 0.30328 0.0
H805 H 0.48221 0.77733 0.28834 0.0
H806 H 0.47798 0.77692 0.31507 0.0
O807 O 0.5507 0.74057 0.30964 0.0
O808 O 0.57352 0.76312 0.31997 0.0
H809 H 0.54865 0.82283 0.33782 0.0
H810 H 0.52844 0.83879 0.32888 0.0
C811 C 0.53955 0.82712 0.32446 0.0
H812 H 0.54987 0.83363 0.31307 0.0
H813 H 0.58837 0.80032 0.34493 0.0
O814 O 0.51466 0.74079 0.27448 0.0
C815 C 0.56567 0.74558 0.32072 0.0
C816 C 0.09201 0.96642 0.6959 0.0
C817 C 0.08539 0.97105 0.7155 0.0
C818 C 0.1001 0.94745 0.69165 0.0
C819 C 0.1177 0.89991 0.7148 0.0
H820 H 0.07548 0.87478 0.68312 0.0
C821 C 0.06002 0.83935 0.73442 0.0
C822 C 0.07201 0.82344 0.74145 0.0
C823 C 0.06806 0.85358 0.72126 0.0
C824 C 0.08783 0.88146 0.69147 0.0
H825 H 0.08379 0.96048 0.74632 0.0
H826 H 0.09814 0.92755 0.73903 0.0
H827 H 0.08182 0.91076 0.6796 0.0
H828 H 0.10133 0.80903 0.73913 0.0
H829 H 0.11563 0.83451 0.71667 0.0
H830 H 0.12219 0.87107 0.7283 0.0
C831 C 0.09705 0.93844 0.72691 0.0
C832 C 0.09155 0.90204 0.6894 0.0
C833 C 0.08857 0.95717 0.73107 0.0
C834 C 0.09177 0.82125 0.73403 0.0
C835 C 0.09995 0.83571 0.72112 0.0
C836 C 0.1141 0.87931 0.71675 0.0
C837 C 0.10215 0.93313 0.70704 0.0
C838 C 0.10528 0.91165 0.70235 0.0
C839 C 0.08834 0.85232 0.71513 0.0
C840 C 0.09793 0.87037 0.70637 0.0
H841 H 0.08975 0.97694 0.68363 0.0
H842 H 0.10377 0.9436 0.67621 0.0
H843 H 0.12852 0.90702 0.72477 0.0
H844 H 0.04467 0.84125 0.73969 0.0
H845 H 0.05884 0.86641 0.71715 0.0
C846 C 0.47164 0.79789 0.97642 0.0
C847 C 0.49005 0.80772 0.9799 0.0
C848 C 0.45649 0.80735 0.96532 0.0
C849 C 0.42572 0.83048 0.94109 0.0
H850 H 0.41617 0.87825 0.97339 0.0
C851 C 0.3458 0.85366 0.9585 0.0
C852 C 0.34346 0.85 0.97924 0.0
C853 C 0.36496 0.85729 0.95049 0.0
C854 C 0.41876 0.86533 0.96374 0.0
H855 H 0.50788 0.83419 0.97254 0.0
H856 H 0.48116 0.85087 0.95357 0.0
H857 H 0.4501 0.86447 0.97101 0.0
H858 H 0.3586 0.84971 0.00813 0.0
H859 H 0.39188 0.85652 0.99432 0.0
H860 H 0.39398 0.83022 0.93553 0.0
C861 C 0.4785 0.83587 0.95942 0.0
C862 C 0.43821 0.85745 0.96228 0.0
C863 C 0.49376 0.82629 0.97032 0.0
C864 C 0.36006 0.85236 0.99209 0.0
C865 C 0.37909 0.85642 0.98416 0.0
C866 C 0.40628 0.83846 0.94243 0.0
C867 C 0.45941 0.8269 0.95768 0.0
C868 C 0.44154 0.8391 0.95222 0.0
C869 C 0.38189 0.85779 0.9632 0.0
C870 C 0.40244 0.85505 0.95503 0.0
H871 H 0.46841 0.78347 0.98337 0.0
H872 H 0.44188 0.80009 0.96437 0.0
H873 H 0.42796 0.81646 0.93303 0.0
H874 H 0.3332 0.85188 0.94826 0.0
H875 H 0.36676 0.85827 0.9343 0.0
C876 C 0.47156 0.22798 0.234 0.0
C877 C 0.48549 0.23388 0.24888 0.0
C878 C 0.46351 0.20854 0.23405 0.0
C879 C 0.4619 0.16223 0.23196 0.0
H880 H 0.44748 0.1383 0.28332 0.0
C881 C 0.45954 0.07744 0.23907 0.0
C882 C 0.47326 0.07125 0.25401 0.0
C883 C 0.45176 0.09699 0.23928 0.0
C884 C 0.45118 0.14482 0.26882 0.0
H885 H 0.50223 0.22388 0.27517 0.0
H886 H 0.4883 0.19 0.2751 0.0
H887 H 0.45327 0.17457 0.28109 0.0
H888 H 0.48767 0.07978 0.28211 0.0
H889 H 0.47451 0.11378 0.28227 0.0
H890 H 0.46144 0.13244 0.21996 0.0
C891 C 0.48339 0.20052 0.26363 0.0
C892 C 0.45453 0.16551 0.26757 0.0
C893 C 0.49159 0.21982 0.26346 0.0
C894 C 0.47741 0.08421 0.27019 0.0
C895 C 0.46963 0.10368 0.27041 0.0
C896 C 0.4587 0.14152 0.23324 0.0
C897 C 0.46908 0.19482 0.24911 0.0
C898 C 0.46092 0.17417 0.24936 0.0
C899 C 0.45752 0.11057 0.25445 0.0
C900 C 0.4544 0.13249 0.25193 0.0
H901 H 0.46655 0.23849 0.22256 0.0
H902 H 0.45264 0.20436 0.2226 0.0
H903 H 0.46679 0.16861 0.21775 0.0
H904 H 0.45579 0.06768 0.22654 0.0
H905 H 0.44222 0.10184 0.22695 0.0
C906 C 0.09742 0.22361 0.50307 0.0
C907 C 0.08477 0.21848 0.48689 0.0
C908 C 0.11711 0.2165 0.50386 0.0
C909 C 0.15871 0.2024 0.47263 0.0
H910 H 0.18185 0.18826 0.52445 0.0
C911 C 0.24256 0.21277 0.48623 0.0
C912 C 0.24535 0.22665 0.50202 0.0
C913 C 0.22443 0.20224 0.4844 0.0
C914 C 0.17561 0.19182 0.50979 0.0
H915 H 0.08296 0.20198 0.45869 0.0
H916 H 0.11793 0.18997 0.45987 0.0
H917 H 0.14528 0.18796 0.52008 0.0
H918 H 0.23221 0.23885 0.52935 0.0
H919 H 0.20061 0.22066 0.52609 0.0
H920 H 0.18887 0.20782 0.46276 0.0
C921 C 0.11229 0.19928 0.47203 0.0
C922 C 0.15474 0.19168 0.5073 0.0
C923 C 0.09239 0.20626 0.47132 0.0
C924 C 0.23041 0.22847 0.51688 0.0
C925 C 0.21238 0.21784 0.51512 0.0
C926 C 0.1796 0.20255 0.47512 0.0
C927 C 0.12471 0.20418 0.48845 0.0
C928 C 0.14613 0.19819 0.48908 0.0
C929 C 0.2089 0.20526 0.49843 0.0
C930 C 0.18812 0.19848 0.4941 0.0
H931 H 0.09209 0.23294 0.51535 0.0
H932 H 0.12654 0.22098 0.51643 0.0
H933 H 0.15243 0.20748 0.45844 0.0
H934 H 0.25389 0.21085 0.47463 0.0
H935 H 0.22215 0.19252 0.47148 0.0
C936 C 0.60063 0.5945 0.31004 0.0
C937 C 0.60032 0.57822 0.3235 0.0
C938 C 0.608 0.61318 0.31621 0.0
C939 C 0.60523 0.6423 0.36075 0.0
H940 H 0.62701 0.68305 0.32507 0.0
C941 C 0.59637 0.73126 0.33716 0.0
C942 C 0.57559 0.72997 0.33299 0.0
C943 C 0.60674 0.71456 0.3447 0.0
C944 C 0.62144 0.67194 0.33565 0.0
H945 H 0.60919 0.5682 0.35339 0.0
H946 H 0.62152 0.60109 0.36429 0.0
H947 H 0.63525 0.64774 0.31939 0.0
H948 H 0.54898 0.7112 0.33559 0.0
H949 H 0.56695 0.6822 0.34894 0.0
H950 H 0.58976 0.66633 0.37573 0.0
C951 C 0.61619 0.59931 0.34896 0.0
C952 C 0.62607 0.65172 0.33229 0.0
C953 C 0.60907 0.58052 0.34269 0.0
C954 C 0.56502 0.71251 0.33844 0.0
C955 C 0.5753 0.69599 0.34631 0.0
C956 C 0.60047 0.66251 0.364 0.0
C957 C 0.61498 0.61596 0.33602 0.0
C958 C 0.61685 0.63668 0.34395 0.0
C959 C 0.59639 0.69653 0.34856 0.0
C960 C 0.6074 0.6773 0.35059 0.0
H961 H 0.59421 0.59312 0.29509 0.0
H962 H 0.60667 0.62581 0.30596 0.0
H963 H 0.59791 0.63101 0.37 0.0
H964 H 0.6049 0.7446 0.33316 0.0
H965 H 0.62298 0.71532 0.34631 0.0
C966 C 0.60243 0.32949 0.58501 0.0
C967 C 0.58506 0.34087 0.58118 0.0
C968 C 0.62029 0.33906 0.59054 0.0
C969 C 0.65501 0.36403 0.60744 0.0
H970 H 0.67327 0.39039 0.55856 0.0
C971 C 0.73702 0.36112 0.58883 0.0
C972 C 0.73841 0.34839 0.57191 0.0
C973 C 0.7194 0.372 0.5925 0.0
C974 C 0.66834 0.38369 0.5726 0.0
H975 H 0.57229 0.37099 0.58099 0.0
H976 H 0.60404 0.38782 0.58974 0.0
H977 H 0.63718 0.38566 0.56437 0.0
H978 H 0.72372 0.33941 0.54413 0.0
H979 H 0.69303 0.35834 0.55053 0.0
H980 H 0.68608 0.3603 0.61484 0.0
C981 C 0.60358 0.37152 0.58899 0.0
C982 C 0.64772 0.38105 0.57597 0.0
C983 C 0.58553 0.36188 0.58398 0.0
C984 C 0.72295 0.34878 0.55747 0.0
C985 C 0.70544 0.35985 0.56104 0.0
C986 C 0.67557 0.36692 0.60422 0.0
C987 C 0.62116 0.36017 0.59187 0.0
C988 C 0.64108 0.36991 0.59269 0.0
C989 C 0.70304 0.37053 0.57918 0.0
C990 C 0.68242 0.3754 0.58605 0.0
H991 H 0.60239 0.31329 0.58299 0.0
H992 H 0.63379 0.33003 0.5924 0.0
H993 H 0.65013 0.35544 0.62044 0.0
H994 H 0.74882 0.3614 0.60012 0.0
H995 H 0.71793 0.38024 0.60652 0.0
C996 C 0.98594 0.32852 0.83505 0.0
C997 C 0.00066 0.32064 0.82194 0.0
C998 C 0.98185 0.34917 0.83521 0.0
C999 C 0.98495 0.39594 0.83696 0.0
H1000 H 0.97774 0.41776 0.78316 0.0
C1001 C 0.97255 0.48049 0.82442 0.0
C1002 C 0.98609 0.48875 0.81034 0.0
C1003 C 0.96953 0.4597 0.82532 0.0
C1004 C 0.97967 0.41188 0.79827 0.0
H1005 H 0.0238 0.32844 0.80009 0.0
H1006 H 0.01657 0.36432 0.80044 0.0
H1007 H 0.98374 0.38178 0.78756 0.0
H1008 H 0.00584 0.48186 0.78518 0.0
H1009 H 0.00079 0.44575 0.78691 0.0
H1010 H 0.98188 0.42618 0.84764 0.0
C1011 C 0.00799 0.35447 0.81025 0.0
C1012 C 0.98313 0.39136 0.80077 0.0
C1013 C 0.0122 0.33394 0.81018 0.0
C1014 C 0.99542 0.47598 0.7963 0.0
C1015 C 0.9924 0.45525 0.79719 0.0
C1016 C 0.98166 0.41656 0.83445 0.0
C1017 C 0.99233 0.36211 0.8222 0.0
C1018 C 0.9864 0.38336 0.82007 0.0
C1019 C 0.97992 0.44686 0.81211 0.0
C1020 C 0.9796 0.42479 0.81502 0.0
H1021 H 0.97686 0.31868 0.84437 0.0
H1022 H 0.96981 0.35485 0.84467 0.0
H1023 H 0.98739 0.39001 0.85197 0.0
H1024 H 0.96497 0.48995 0.83535 0.0
H1025 H 0.9596 0.45363 0.83677 0.0
C1026 C 0.96487 0.75803 0.09595 0.0
C1027 C 0.98133 0.74477 0.09706 0.0
C1028 C 0.9466 0.75303 0.10509 0.0
C1029 C 0.91914 0.70749 0.1103 0.0
H1030 H 0.87658 0.74407 0.12654 0.0
C1031 C 0.844 0.71537 0.07156 0.0
C1032 C 0.8266 0.71998 0.08264 0.0
C1033 C 0.86228 0.71207 0.08142 0.0
C1034 C 0.88829 0.7334 0.12255 0.0
H1035 H 0.99237 0.7172 0.11089 0.0
H1036 H 0.96029 0.70837 0.12647 0.0
H1037 H 0.91176 0.75335 0.13229 0.0
H1038 H 0.81425 0.72333 0.11275 0.0
H1039 H 0.8465 0.71824 0.12993 0.0
H1040 H 0.89573 0.68846 0.09877 0.0
C1041 C 0.96153 0.72253 0.11844 0.0
C1042 C 0.9084 0.73878 0.12575 0.0
C1043 C 0.97988 0.72762 0.10947 0.0
C1044 C 0.82746 0.71976 0.10382 0.0
C1045 C 0.84586 0.71689 0.11368 0.0
C1046 C 0.89906 0.70224 0.10688 0.0
C1047 C 0.94446 0.73463 0.11537 0.0
C1048 C 0.92399 0.72638 0.1186 0.0
C1049 C 0.86351 0.71369 0.1025 0.0
C1050 C 0.88356 0.71568 0.11196 0.0
H1051 H 0.96559 0.77149 0.08675 0.0
H1052 H 0.93367 0.76264 0.1024 0.0
H1053 H 0.93084 0.69766 0.10451 0.0
H1054 H 0.84372 0.71535 0.05524 0.0
H1055 H 0.87573 0.70984 0.07243 0.0
C1056 C 0.71537 0.04341 0.98487 0.0
C1057 C 0.73131 0.02943 0.98583 0.0
C1058 C 0.70454 0.04601 0.96699 0.0
C1059 C 0.69943 0.05792 0.92251 0.0
H1060 H 0.68882 0.01228 0.88755 0.0
C1061 C 0.70273 0.06897 0.83843 0.0
C1062 C 0.71809 0.05655 0.83071 0.0
C1063 C 0.69332 0.06415 0.85663 0.0
C1064 C 0.69132 0.02522 0.8972 0.0
H1065 H 0.74804 0.0069 0.969 0.0
H1066 H 0.72928 0.01153 0.93794 0.0
H1067 H 0.69379 0.00687 0.9236 0.0
H1068 H 0.73393 0.02823 0.83469 0.0
H1069 H 0.71789 0.02002 0.86639 0.0
H1070 H 0.69891 0.07607 0.89602 0.0
C1071 C 0.72501 0.02032 0.95102 0.0
C1072 C 0.69416 0.02212 0.91778 0.0
C1073 C 0.73598 0.01792 0.96872 0.0
C1074 C 0.72241 0.03829 0.84043 0.0
C1075 C 0.71296 0.03344 0.85851 0.0
C1076 C 0.6967 0.06101 0.90191 0.0
C1077 C 0.70924 0.03441 0.94995 0.0
C1078 C 0.69958 0.03829 0.93031 0.0
C1079 C 0.69903 0.04679 0.86729 0.0
C1080 C 0.69404 0.04449 0.8889 0.0
H1081 H 0.71138 0.05243 -0.00213 0.0
H1082 H 0.69257 0.0571 0.96643 0.0
H1083 H 0.70354 0.07065 0.93188 0.0
H1084 H 0.69884 0.08303 0.83112 0.0
H1085 H 0.68248 0.0746 0.86295 0.0
C1086 C 0.2348 0.49078 0.07424 0.0
C1087 C 0.24835 0.50616 0.06872 0.0
C1088 C 0.22895 0.48847 0.09432 0.0
C1089 C 0.23164 0.48267 0.14101 0.0
H1090 H 0.21582 0.53219 0.16784 0.0
C1091 C 0.22689 0.48697 0.22698 0.0
C1092 C 0.23941 0.5024 0.23437 0.0
C1093 C 0.22085 0.48695 0.20683 0.0
C1094 C 0.21997 0.5182 0.16052 0.0
H1095 H 0.26707 0.53054 0.08004 0.0
H1096 H 0.25675 0.52651 0.11494 0.0
H1097 H 0.22052 0.53192 0.13137 0.0
H1098 H 0.25406 0.5307 0.227 0.0
H1099 H 0.24371 0.53059 0.19199 0.0
H1100 H 0.23258 0.46929 0.17029 0.0
C1101 C 0.25055 0.51643 0.10369 0.0
C1102 C 0.22267 0.51806 0.13973 0.0
C1103 C 0.2566 0.51857 0.08375 0.0
C1104 C 0.2446 0.51849 0.22169 0.0
C1105 C 0.23846 0.51854 0.20166 0.0
C1106 C 0.22911 0.48284 0.16189 0.0
C1107 C 0.23634 0.50171 0.10902 0.0
C1108 C 0.2294 0.50054 0.13001 0.0
C1109 C 0.22705 0.50247 0.19388 0.0
C1110 C 0.2242 0.50088 0.17188 0.0
H1111 H 0.22825 0.48093 0.06298 0.0
H1112 H 0.21813 0.47689 0.09825 0.0
H1113 H 0.2368 0.469 0.13372 0.0
H1114 H 0.22255 0.47441 0.23647 0.0
H1115 H 0.21195 0.47447 0.2012 0.0
C1116 C 0.82605 0.96065 0.46281 0.0
C1117 C 0.80948 0.9739 0.46184 0.0
C1118 C 0.83114 0.94872 0.44626 0.0
C1119 C 0.81515 0.9335 0.39491 0.0
H1120 H 0.86604 0.95722 0.37851 0.0
C1121 C 0.82835 0.95073 0.31304 0.0
C1122 C 0.82721 0.97187 0.31217 0.0
C1123 C 0.83385 0.94118 0.33098 0.0
C1124 C 0.85216 0.94982 0.38295 0.0
H1125 H 0.78389 0.98321 0.44376 0.0
H1126 H 0.79272 0.96243 0.41492 0.0
H1127 H 0.85727 0.95597 0.41409 0.0
H1128 H 0.83318 -0.00038 0.32824 0.0
H1129 H 0.84327 0.98304 0.35934 0.0
H1130 H 0.80916 0.92929 0.36358 0.0
C1131 C 0.80184 0.96127 0.42842 0.0
C1132 C 0.84712 0.94904 0.40333 0.0
C1133 C 0.79689 0.97339 0.44487 0.0
C1134 C 0.83381 0.98331 0.32864 0.0
C1135 C 0.83978 0.97378 0.34635 0.0
C1136 C 0.82029 0.93408 0.37454 0.0
C1137 C 0.81956 0.94961 0.42861 0.0
C1138 C 0.82788 0.94239 0.40927 0.0
C1139 C 0.83878 0.95268 0.34802 0.0
C1140 C 0.8381 0.94377 0.36836 0.0
H1141 H 0.83596 0.96047 0.47579 0.0
H1142 H 0.84483 0.93982 0.44677 0.0
H1143 H 0.80034 0.92807 0.39918 0.0
H1144 H 0.8233 0.9416 0.30049 0.0
H1145 H 0.83288 0.92491 0.33197 0.0
C1146 C 0.30926 0.59604 0.58844 0.0
C1147 C 0.32416 0.59497 0.57348 0.0
C1148 C 0.31309 0.60621 0.6064 0.0
C1149 C 0.35497 0.61022 0.6387 0.0
H1150 H 0.31525 0.63432 0.67415 0.0
C1151 C 0.33262 0.57974 0.71454 0.0
C1152 C 0.32963 0.59282 0.73083 0.0
C1153 C 0.33813 0.58738 0.69579 0.0
C1154 C 0.32681 0.62812 0.66442 0.0
H1155 H 0.35398 0.60538 0.5647 0.0
H1156 H 0.36082 0.62262 0.59643 0.0
H1157 H 0.31144 0.63763 0.63767 0.0
H1158 H 0.33064 0.62404 0.74063 0.0
H1159 H 0.33945 0.63745 0.7074 0.0
H1160 H 0.36911 0.59887 0.66539 0.0
C1161 C 0.34618 0.61571 0.59415 0.0
C1162 C 0.32459 0.62996 0.6436 0.0
C1163 C 0.34226 0.60576 0.57606 0.0
C1164 C 0.3329 0.61362 0.72826 0.0
C1165 C 0.33797 0.62131 0.70937 0.0
C1166 C 0.35703 0.60815 0.65948 0.0
C1167 C 0.33195 0.61528 0.60977 0.0
C1168 C 0.33798 0.61997 0.63062 0.0
C1169 C 0.34036 0.60824 0.69298 0.0
C1170 C 0.3423 0.61609 0.67237 0.0
H1171 H 0.29507 0.58813 0.58674 0.0
H1172 H 0.30191 0.60547 0.61828 0.0
H1173 H 0.36547 0.60227 0.62903 0.0
H1174 H 0.33031 0.56366 0.71618 0.0
H1175 H 0.3396 0.57707 0.68322 0.0
C1176 C 0.00895 0.19576 0.55427 0.0
C1177 C 0.00863 0.19147 0.53352 0.0
C1178 C 0.01195 0.18036 0.56825 0.0
C1179 C 0.03927 0.133 0.56965 0.0
H1180 H 0.02138 0.13157 0.62523 0.0
C1181 C 0.07117 0.07668 0.62801 0.0
C1182 C 0.07428 0.084 0.64761 0.0
C1183 C 0.06138 0.08856 0.61366 0.0
C1184 C 0.02662 0.13191 0.60978 0.0
H1185 H 0.00845 0.16738 0.51139 0.0
H1186 H 0.01348 0.14049 0.53589 0.0
H1187 H 0.00405 0.15333 0.60111 0.0
H1188 H 0.0711 0.10987 0.66721 0.0
H1189 H 0.05414 0.13078 0.6421 0.0
H1190 H 0.0622 0.11209 0.57837 0.0
C1191 C 0.01196 0.15583 0.54126 0.0
C1192 C 0.01661 0.14425 0.59596 0.0
C1193 C 0.00892 0.17124 0.52724 0.0
C1194 C 0.06841 0.10374 0.65233 0.0
C1195 C 0.05865 0.11564 0.63799 0.0
C1196 C 0.04929 0.1207 0.58346 0.0
C1197 C 0.01462 0.16039 0.56177 0.0
C1198 C 0.02304 0.14517 0.57582 0.0
C1199 C 0.05462 0.10802 0.61863 0.0
C1200 C 0.04331 0.12028 0.60375 0.0
H1201 H 0.00852 0.21117 0.55964 0.0
H1202 H 0.01388 0.18439 0.58395 0.0
H1203 H 0.04489 0.13367 0.55435 0.0
H1204 H 0.07544 0.06143 0.62406 0.0
H1205 H 0.05845 0.08221 0.59892 0.0
C1206 C 0.21457 0.855 0.91523 0.0
C1207 C 0.21534 0.85073 0.93591 0.0
C1208 C 0.19735 0.85018 0.90405 0.0
C1209 C 0.15641 0.81378 0.90395 0.0
H1210 H 0.13273 0.84788 0.86283 0.0
C1211 C 0.0853 0.81422 0.84473 0.0
C1212 C 0.08888 0.79624 0.83407 0.0
C1213 C 0.09916 0.82113 0.85899 0.0
C1214 C 0.1391 0.83827 0.87439 0.0
H1215 H 0.19818 0.84028 0.96162 0.0
H1216 H 0.16825 0.83129 0.942 0.0
H1217 H 0.15984 0.86107 0.88413 0.0
H1218 H 0.10928 0.77089 0.83088 0.0
H1219 H 0.1333 0.78283 0.85609 0.0
H1220 H 0.13602 0.79081 0.89388 0.0
C1221 C 0.18107 0.83791 0.93435 0.0
C1222 C 0.15467 0.84577 0.88644 0.0
C1223 C 0.19818 0.84294 0.94552 0.0
C1224 C 0.10608 0.7848 0.83877 0.0
C1225 C 0.11982 0.7916 0.85324 0.0
C1226 C 0.14104 0.80619 0.89171 0.0
C1227 C 0.18069 0.84101 0.91343 0.0
C1228 C 0.16351 0.83356 0.90128 0.0
C1229 C 0.11672 0.81008 0.8631 0.0
C1230 C 0.13231 0.81834 0.87677 0.0
H1231 H 0.22761 0.86118 0.90756 0.0
H1232 H 0.19743 0.85273 0.88793 0.0
H1233 H 0.16312 0.80399 0.91516 0.0
H1234 H 0.07219 0.82342 0.84154 0.0
H1235 H 0.09631 0.83531 0.86657 0.0
C1236 C 0.52626 0.85019 0.07076 0.0
C1237 C 0.5154 0.83203 0.06957 0.0
C1238 C 0.51949 0.86591 0.08296 0.0
C1239 C 0.48577 0.87876 0.12531 0.0
H1240 H 0.48933 0.93231 0.10216 0.0
C1241 C 0.45668 0.94989 0.16689 0.0
C1242 C 0.47094 0.96548 0.16778 0.0
C1243 C 0.45963 0.93357 0.15383 0.0
C1244 C 0.48826 0.91746 0.10883 0.0
H1245 H 0.48934 0.81588 0.08104 0.0
H1246 H 0.47748 0.84345 0.1023 0.0
H1247 H 0.50009 0.90327 0.08247 0.0
H1248 H 0.49859 0.97717 0.15495 0.0
H1249 H 0.50377 0.94886 0.13219 0.0
H1250 H 0.47411 0.89311 0.1518 0.0
C1251 C 0.49128 0.84545 0.09381 0.0
C1252 C 0.49451 0.90083 0.09761 0.0
C1253 C 0.49809 0.82965 0.08161 0.0
C1254 C 0.48756 0.96513 0.15473 0.0
C1255 C 0.49041 0.94901 0.14158 0.0
C1256 C 0.47944 0.89544 0.13655 0.0
C1257 C 0.50166 0.86392 0.09423 0.0
C1258 C 0.49375 0.88133 0.10586 0.0
C1259 C 0.47671 0.93286 0.14126 0.0
C1260 C 0.48101 0.91499 0.12856 0.0
H1261 H 0.5397 0.85254 0.0618 0.0
H1262 H 0.52812 0.87977 0.08333 0.0
H1263 H 0.48506 0.86395 0.13212 0.0
H1264 H 0.44373 0.94991 0.17684 0.0
H1265 H 0.44874 0.92141 0.15374 0.0
C1266 C 0.35002 0.24558 0.40331 0.0
C1267 C 0.35528 0.24396 0.42372 0.0
C1268 C 0.36349 0.25413 0.38956 0.0
C1269 C 0.41689 0.2654 0.38099 0.0
H1270 H 0.39654 0.30646 0.34471 0.0
C1271 C 0.47038 0.30355 0.32545 0.0
C1272 C 0.46328 0.30444 0.30551 0.0
C1273 C 0.45703 0.30001 0.34134 0.0
C1274 C 0.40245 0.29495 0.35465 0.0
H1275 H 0.37901 0.24868 0.44563 0.0
H1276 H 0.40269 0.26346 0.42156 0.0
H1277 H 0.37375 0.29055 0.36883 0.0
H1278 H 0.43638 0.3043 0.28686 0.0
H1279 H 0.41326 0.29769 0.3144 0.0
H1280 H 0.44537 0.26915 0.3665 0.0
C1281 C 0.3881 0.2584 0.41622 0.0
C1282 C 0.38938 0.28583 0.36843 0.0
C1283 C 0.37455 0.25006 0.43 0.0
C1284 C 0.44238 0.3036 0.30203 0.0
C1285 C 0.42906 0.29985 0.31789 0.0
C1286 C 0.42991 0.27436 0.36711 0.0
C1287 C 0.38253 0.2609 0.39595 0.0
C1288 C 0.39645 0.27084 0.3816 0.0
C1289 C 0.43634 0.29711 0.33761 0.0
C1290 C 0.42283 0.28915 0.35364 0.0
H1291 H 0.33519 0.24102 0.39816 0.0
H1292 H 0.35895 0.2556 0.37395 0.0
H1293 H 0.4227 0.25377 0.39087 0.0
H1294 H 0.48638 0.30442 0.32868 0.0
H1295 H 0.46307 0.29861 0.35644 0.0
C1296 C 0.5246 0.37374 0.5074 0.0
C1297 C 0.52894 0.35314 0.50503 0.0
C1298 C 0.52915 0.38737 0.49203 0.0
C1299 C 0.54174 0.39349 0.43862 0.0
H1300 H 0.57912 0.43423 0.45767 0.0
C1301 C 0.58691 0.44288 0.38319 0.0
C1302 C 0.59014 0.46305 0.38854 0.0
C1303 C 0.57892 0.42933 0.39719 0.0
C1304 C 0.56844 0.42323 0.45206 0.0
H1305 H 0.53955 0.33042 0.48403 0.0
H1306 H 0.54704 0.35427 0.45702 0.0
H1307 H 0.56321 0.41156 0.48165 0.0
H1308 H 0.58785 0.48504 0.41248 0.0
H1309 H 0.57332 0.4617 0.43679 0.0
H1310 H 0.54658 0.40533 0.40907 0.0
C1311 C 0.54041 0.35984 0.47086 0.0
C1312 C 0.55935 0.41023 0.46584 0.0
C1313 C 0.53617 0.34623 0.48634 0.0
C1314 C 0.58572 0.46943 0.40816 0.0
C1315 C 0.57741 0.45601 0.42206 0.0
C1316 C 0.55057 0.40674 0.42483 0.0
C1317 C 0.53774 0.3806 0.47392 0.0
C1318 C 0.54601 0.39518 0.45925 0.0
C1319 C 0.5737 0.43581 0.41672 0.0
C1320 C 0.56417 0.42171 0.43135 0.0
H1321 H 0.51902 0.37954 0.5216 0.0
H1322 H 0.52678 0.40331 0.49461 0.0
H1323 H 0.53149 0.38198 0.43321 0.0
H1324 H 0.59042 0.43765 0.36813 0.0
H1325 H 0.57676 0.41381 0.39265 0.0
C1326 C 0.9643 0.26677 0.7443 0.0
C1327 C 0.95868 0.25959 0.76345 0.0
C1328 C 0.94967 0.27252 0.73037 0.0
C1329 C 0.89818 0.26797 0.71372 0.0
H1330 H 0.90251 0.32458 0.6997 0.0
C1331 C 0.83734 0.30683 0.66561 0.0
C1332 C 0.84366 0.32139 0.65168 0.0
C1333 C 0.85074 0.29934 0.67997 0.0
C1334 C 0.9012 0.30868 0.70313 0.0
H1335 H 0.93326 0.2512 0.78227 0.0
H1336 H 0.9076 0.26079 0.75744 0.0
H1337 H 0.92728 0.30945 0.72218 0.0
H1338 H 0.86859 0.33986 0.64176 0.0
H1339 H 0.89245 0.32625 0.66629 0.0
H1340 H 0.87268 0.26681 0.69409 0.0
C1341 C 0.92341 0.26223 0.75355 0.0
C1342 C 0.91534 0.30008 0.71611 0.0
C1343 C 0.93808 0.25675 0.7677 0.0
C1344 C 0.86343 0.32874 0.65254 0.0
C1345 C 0.87701 0.32095 0.66665 0.0
C1346 C 0.88424 0.27646 0.70038 0.0
C1347 C 0.92915 0.27085 0.7351 0.0
C1348 C 0.91396 0.27968 0.72147 0.0
C1349 C 0.8709 0.30597 0.68044 0.0
C1350 C 0.88556 0.29696 0.6949 0.0
H1351 H 0.98001 0.26906 0.74043 0.0
H1352 H 0.95439 0.27892 0.71611 0.0
H1353 H 0.89693 0.25217 0.71761 0.0
H1354 H 0.82202 0.30113 0.66528 0.0
H1355 H 0.84527 0.28827 0.69063 0.0
C1356 C 0.00903 0.68774 0.01436 0.0
C1357 C 0.00761 0.70852 0.01054 0.0
C1358 C 0.00189 0.67376 0.00038 0.0
C1359 C 0.9685 0.6688 0.95564 0.0
H1360 H 0.99759 0.61855 0.94894 0.0
C1361 C 0.9583 0.61305 0.88902 0.0
C1362 C 0.9586 0.59242 0.89366 0.0
C1363 C 0.96152 0.62739 0.90409 0.0
C1364 C 0.98916 0.63241 0.95084 0.0
H1365 H 0.99782 0.73091 0.98884 0.0
H1366 H 0.986 0.70645 0.96404 0.0
H1367 H 0.00991 0.64349 0.97278 0.0
H1368 H 0.96123 0.57051 0.91768 0.0
H1369 H 0.967 0.59562 0.9441 0.0
H1370 H 0.94818 0.65777 0.933 0.0
C1371 C 0.99216 0.70097 0.97812 0.0
C1372 C 0.99619 0.64672 0.96453 0.0
C1373 C -0.0009 0.715 0.99226 0.0
C1374 C 0.96091 0.58636 0.91377 0.0
C1375 C 0.96438 0.60068 0.92881 0.0
C1376 C 0.96161 0.65453 0.94172 0.0
C1377 C 0.99339 0.68016 0.98206 0.0
C1378 C 0.98593 0.66509 0.96719 0.0
C1379 C 0.96527 0.62129 0.924 0.0
C1380 C 0.97185 0.63618 0.93927 0.0
H1381 H 0.01533 0.6822 0.02836 0.0
H1382 H 0.00276 0.65792 0.00416 0.0
H1383 H 0.96003 0.68262 0.95749 0.0
H1384 H 0.95623 0.61805 0.87363 0.0
H1385 H 0.96213 0.64317 0.89997 0.0
C1386 C 0.70335 0.74698 0.13887 0.0
C1387 C 0.70376 0.72816 0.12924 0.0
C1388 C 0.68787 0.75178 0.15222 0.0
C1389 C 0.63598 0.73966 0.16635 0.0
H1390 H 0.65111 0.76376 0.21739 0.0
C1391 C 0.57987 0.75228 0.23226 0.0
C1392 C 0.58301 0.76906 0.24483 0.0
C1393 C 0.59341 0.74788 0.21672 0.0
C1394 C 0.64654 0.75738 0.20307 0.0
H1395 H 0.68862 0.69941 0.12621 0.0
H1396 H 0.66121 0.7079 0.14966 0.0
H1397 H 0.67716 0.7543 0.19344 0.0
H1398 H 0.60206 0.79511 0.24997 0.0
H1399 H 0.62517 0.7879 0.22253 0.0
H1400 H 0.60529 0.74297 0.17591 0.0
C1401 C 0.67282 0.71898 0.14663 0.0
C1402 C 0.66151 0.75185 0.18941 0.0
C1403 C 0.6885 0.71409 0.13336 0.0
C1404 C 0.59926 0.782 0.24072 0.0
C1405 C 0.61265 0.77773 0.22508 0.0
C1406 C 0.62092 0.74537 0.17999 0.0
C1407 C 0.67245 0.73785 0.15626 0.0
C1408 C 0.6564 0.74303 0.17088 0.0
C1409 C 0.61028 0.76026 0.21331 0.0
C1410 C 0.62604 0.7544 0.19849 0.0
H1411 H 0.71523 0.75789 0.13642 0.0
H1412 H 0.68794 0.76645 0.15938 0.0
H1413 H 0.63164 0.73302 0.15208 0.0
H1414 H 0.56751 0.74196 0.235 0.0
H1415 H 0.59116 0.73425 0.20803 0.0
C1416 C 0.68048 0.07163 0.11359 0.0
C1417 C 0.68106 0.05873 0.09687 0.0
C1418 C 0.66413 0.07091 0.12692 0.0
C1419 C 0.61122 0.05523 0.13166 0.0
H1420 H 0.62411 0.04501 0.18771 0.0
C1421 C 0.55148 0.02575 0.18732 0.0
C1422 C 0.55233 0.0323 0.20743 0.0
C1423 C 0.56693 0.03061 0.17385 0.0
C1424 C 0.62016 0.04823 0.17221 0.0
H1425 H 0.66485 0.03591 0.08011 0.0
H1426 H 0.6361 0.0349 0.10313 0.0
H1427 H 0.65114 0.05215 0.16388 0.0
H1428 H 0.56998 0.0493 0.2291 0.0
H1429 H 0.59655 0.05828 0.20553 0.0
H1430 H 0.58027 0.05151 0.13987 0.0
C1431 C 0.64828 0.04537 0.10613 0.0
C1432 C 0.63569 0.05229 0.15858 0.0
C1433 C 0.66473 0.04585 0.09306 0.0
C1434 C 0.56894 0.04385 0.21375 0.0
C1435 C 0.58425 0.04894 0.20023 0.0
C1436 C 0.59566 0.05144 0.14533 0.0
C1437 C 0.64798 0.05761 0.12338 0.0
C1438 C 0.63138 0.0555 0.13813 0.0
C1439 C 0.58348 0.04237 0.18009 0.0
C1440 C 0.59994 0.04754 0.16574 0.0
H1441 H 0.69296 0.0817 0.11671 0.0
H1442 H 0.66417 0.08057 0.14007 0.0
H1443 H 0.60751 0.05784 0.11598 0.0
H1444 H 0.53893 0.01677 0.18199 0.0
H1445 H 0.56599 0.02493 0.15859 0.0
C1446 C 0.22498 0.42831 0.36359 0.0
C1447 C 0.22346 0.42272 0.34325 0.0
C1448 C 0.22949 0.41391 0.37825 0.0
C1449 C 0.25726 0.36718 0.38323 0.0
H1450 H 0.23174 0.36294 0.4356 0.0
C1451 C 0.27923 0.30519 0.43976 0.0
C1452 C 0.27877 0.30971 0.46044 0.0
C1453 C 0.27205 0.31902 0.42563 0.0
C1454 C 0.23924 0.36414 0.42116 0.0
H1455 H 0.22428 0.39773 0.3223 0.0
H1456 H 0.23232 0.37247 0.34797 0.0
H1457 H 0.21837 0.38651 0.4107 0.0
H1458 H 0.27111 0.33261 0.48246 0.0
H1459 H 0.25925 0.35706 0.45774 0.0
H1460 H 0.27853 0.34542 0.3937 0.0
C1461 C 0.23012 0.38799 0.35254 0.0
C1462 C 0.23147 0.37752 0.40688 0.0
C1463 C 0.22535 0.40236 0.33792 0.0
C1464 C 0.27155 0.32863 0.46664 0.0
C1465 C 0.26458 0.34257 0.45246 0.0
C1466 C 0.26519 0.354 0.39756 0.0
C1467 C 0.23274 0.39373 0.37276 0.0
C1468 C 0.24036 0.37909 0.38775 0.0
C1469 C 0.26449 0.33783 0.4318 0.0
C1470 C 0.25626 0.35224 0.41671 0.0
H1471 H 0.2233 0.44392 0.36805 0.0
H1472 H 0.23143 0.41873 0.39373 0.0
H1473 H 0.26466 0.36839 0.36872 0.0
H1474 H 0.28456 0.2907 0.43446 0.0
H1475 H 0.27195 0.31467 0.40991 0.0
C1476 C 0.89499 0.00336 0.5696 0.0
C1477 C 0.87946 0.98951 0.57343 0.0
C1478 C 0.91003 0.00675 0.58388 0.0
C1479 C 0.92053 0.00325 0.6379 0.0
H1480 H 0.97636 0.00746 0.62098 0.0
C1481 C 0.98708 0.00849 0.69407 0.0
C1482 C 0.00373 0.02046 0.68867 0.0
C1483 C 0.97127 0.0054 0.68051 0.0
C1484 C 0.96082 0.00665 0.62593 0.0
H1485 H 0.86774 0.96781 0.59478 0.0
H1486 H 0.89419 0.97376 0.61997 0.0
H1487 H 0.95039 -0.00024 0.59621 0.0
H1488 H 0.01629 0.03947 0.66521 0.0
H1489 H 0.98849 0.03445 0.64176 0.0
H1490 H 0.93093 0.01036 0.6676 0.0
C1491 C 0.89452 0.98218 0.60599 0.0
C1492 C 0.94596 0.00213 0.61174 0.0
C1493 C 0.87952 0.97866 0.59157 0.0
C1494 C 0.00379 0.02999 0.66977 0.0
C1495 C 0.98791 0.02699 0.65626 0.0
C1496 C 0.9354 0.00789 0.6521 0.0
C1497 C 0.90987 0.99633 0.60229 0.0
C1498 C 0.92566 0.00044 0.61756 0.0
C1499 C 0.97168 0.0143 0.6613 0.0
C1500 C 0.95572 0.0097 0.64626 0.0
H1501 H 0.89556 0.01155 0.55551 0.0
H1502 H 0.92162 0.01779 0.58063 0.0
H1503 H 0.90496 0.00229 0.64275 0.0
H1504 H 0.98655 0.00092 0.70851 0.0
H1505 H 0.95909 0.99541 0.68483 0.0
C1506 C 0.28752 0.77405 0.93824 0.0
C1507 C 0.29178 0.77146 0.95882 0.0
C1508 C 0.29154 0.75858 0.92454 0.0
C1509 C 0.30121 0.70444 0.91911 0.0
H1510 H 0.33552 0.72079 0.8747 0.0
C1511 C 0.33849 0.64603 0.86672 0.0
C1512 C 0.3391 0.65074 0.84615 0.0
C1513 C 0.33292 0.66068 0.88079 0.0
C1514 C 0.32571 0.71597 0.88682 0.0
H1515 H 0.30214 0.75017 0.98139 0.0
H1516 H 0.30883 0.72308 0.95744 0.0
H1517 H 0.32299 0.74601 0.89819 0.0
H1518 H 0.33488 0.67429 0.824 0.0
H1519 H 0.3247 0.69976 0.84836 0.0
H1520 H 0.30357 0.67445 0.9076 0.0
C1521 C 0.30259 0.73712 0.95192 0.0
C1522 C 0.31855 0.73044 0.90027 0.0
C1523 C 0.29883 0.75266 0.9656 0.0
C1524 C 0.33468 0.6704 0.83985 0.0
C1525 C 0.32888 0.68498 0.85384 0.0
C1526 C 0.30816 0.68997 0.9055 0.0
C1527 C 0.29958 0.74018 0.93122 0.0
C1528 C 0.30627 0.72481 0.91654 0.0
C1529 C 0.32769 0.68024 0.87447 0.0
C1530 C 0.32055 0.69555 0.88919 0.0
H1531 H 0.28204 0.78833 0.93255 0.0
H1532 H 0.28886 0.76119 0.90865 0.0
H1533 H 0.2917 0.69976 0.93153 0.0
H1534 H 0.34219 0.631 0.87189 0.0
H1535 H 0.33263 0.65663 0.89659 0.0
C1536 C 0.17699 0.48855 0.94067 0.0
C1537 C 0.17373 0.48631 0.96142 0.0
C1538 C 0.16122 0.4944 0.928 0.0
C1539 C 0.11293 0.52166 0.92974 0.0
H1540 H 0.10714 0.50171 0.87516 0.0
C1541 C 0.04596 0.54187 0.8771 0.0
C1542 C 0.05033 0.54437 0.85652 0.0
C1543 C 0.06104 0.53576 0.89052 0.0
C1544 C 0.10873 0.50761 0.8903 0.0
H1545 H 0.15124 0.48702 0.98509 0.0
H1546 H 0.12352 0.49683 0.9629 0.0
H1547 H 0.13262 0.48708 0.89719 0.0
H1548 H 0.07428 0.54392 0.8342 0.0
H1549 H 0.10051 0.53357 0.85764 0.0
H1550 H 0.08898 0.54219 0.92279 0.0
C1551 C 0.13837 0.49458 0.95647 0.0
C1552 C 0.12329 0.49918 0.90293 0.0
C1553 C 0.15416 0.48872 0.96912 0.0
C1554 C 0.07033 0.54192 0.84991 0.0
C1555 C 0.08535 0.53582 0.86331 0.0
C1556 C 0.09833 0.53007 0.9171 0.0
C1557 C 0.14185 0.49799 0.93586 0.0
C1558 C 0.12565 0.50618 0.92276 0.0
C1559 C 0.08074 0.53206 0.88362 0.0
C1560 C 0.09618 0.52324 0.89719 0.0
H1561 H 0.19182 0.48624 0.93427 0.0
H1562 H 0.16442 0.49687 0.9122 0.0
H1563 H 0.11459 0.52762 0.94485 0.0
H1564 H 0.03072 0.54365 0.88269 0.0
H1565 H 0.05702 0.53297 0.90609 0.0
C1566 C 0.7897 0.81584 0.0766 0.0
C1567 C 0.77564 0.8013 0.08299 0.0
C1568 C 0.79299 0.83328 0.08796 0.0
C1569 C 0.78839 0.85023 0.1405 0.0
H1570 H 0.80471 0.90195 0.11877 0.0
C1571 C 0.80763 0.93489 0.17181 0.0
C1572 C 0.81857 0.92943 0.1891 0.0
C1573 C 0.80231 0.92037 0.15748 0.0
C1574 C 0.80003 0.88765 0.12507 0.0
H1575 H 0.75287 0.79453 0.10545 0.0
H1576 H 0.75814 0.82514 0.12486 0.0
H1577 H 0.79311 0.87543 0.09598 0.0
H1578 H 0.83395 0.9048 0.20409 0.0
H1579 H 0.82523 0.87966 0.17889 0.0
H1580 H 0.79489 0.86241 0.16954 0.0
C1581 C 0.7671 0.82278 0.11143 0.0
C1582 C 0.79355 0.8724 0.11201 0.0
C1583 C 0.76395 0.80528 0.10019 0.0
C1584 C 0.82527 0.90946 0.19106 0.0
C1585 C 0.82007 0.89499 0.17673 0.0
C1586 C 0.79478 0.86544 0.15351 0.0
C1587 C 0.78217 0.83663 0.10586 0.0
C1588 C 0.78777 0.85345 0.11958 0.0
C1589 C 0.80804 0.90014 0.16006 0.0
C1590 C 0.8009 0.88425 0.14597 0.0
H1591 H 0.79895 0.81331 0.06338 0.0
H1592 H 0.80477 0.84355 0.08325 0.0
H1593 H 0.7844 0.83575 0.14688 0.0
H1594 H 0.80304 0.95031 0.16933 0.0
H1595 H 0.79317 0.9249 0.14473 0.0
C1596 C 0.51677 0.52187 0.36712 0.0
C1597 C 0.51806 0.53145 0.34826 0.0
C1598 C 0.50085 0.52626 0.38022 0.0
C1599 C 0.46689 0.56718 0.39306 0.0
H1600 H 0.43598 0.52663 0.42154 0.0
C1601 C 0.40046 0.58824 0.44543 0.0
C1602 C 0.39761 0.57638 0.46265 0.0
C1603 C 0.4146 0.58255 0.43086 0.0
C1604 C 0.44466 0.53817 0.41395 0.0
H1605 H 0.50316 0.55249 0.32806 0.0
H1606 H 0.47562 0.56025 0.35107 0.0
H1607 H 0.46147 0.51627 0.39714 0.0
H1608 H 0.40797 0.55008 0.47894 0.0
H1609 H 0.43304 0.54045 0.454 0.0
H1610 H 0.45073 0.58911 0.41023 0.0
C1611 C 0.48697 0.54945 0.35569 0.0
C1612 C 0.45916 0.53219 0.3999 0.0
C1613 C 0.5027 0.5449 0.3425 0.0
C1614 C 0.40956 0.55918 0.4655 0.0
C1615 C 0.42386 0.55364 0.45114 0.0
C1616 C 0.4526 0.57317 0.4073 0.0
C1617 C 0.48609 0.54045 0.37478 0.0
C1618 C 0.4704 0.54665 0.38935 0.0
C1619 C 0.4264 0.56507 0.43348 0.0
C1620 C 0.44133 0.55875 0.41798 0.0
H1621 H 0.52832 0.51139 0.37196 0.0
H1622 H 0.5005 0.51915 0.39491 0.0
H1623 H 0.47557 0.57862 0.38529 0.0
H1624 H 0.39136 0.60158 0.44297 0.0
H1625 H 0.41598 0.59162 0.41738 0.0
C1626 C 0.74637 0.24743 0.60749 0.0
C1627 C 0.76078 0.26208 0.61273 0.0
C1628 C 0.73807 0.23483 0.62224 0.0
C1629 C 0.73085 0.23181 0.67759 0.0
H1630 H 0.7226 0.17481 0.66783 0.0
C1631 C 0.72589 0.17281 0.74046 0.0
C1632 C 0.71203 0.15697 0.73848 0.0
C1633 C 0.72823 0.18685 0.72501 0.0
C1634 C 0.72448 0.19077 0.67065 0.0
H1635 H 0.77818 0.27452 0.63751 0.0
H1636 H 0.76423 0.2523 0.66291 0.0
H1637 H 0.7345 0.1964 0.6405 0.0
H1638 H 0.68915 0.14368 0.71938 0.0
H1639 H 0.69338 0.16828 0.69205 0.0
H1640 H 0.72156 0.22601 0.70793 0.0
C1641 C 0.75889 0.25085 0.64756 0.0
C1642 C 0.73132 0.20314 0.65502 0.0
C1643 C 0.76708 0.26347 0.6329 0.0
C1644 C 0.69988 0.15587 0.72121 0.0
C1645 C 0.70241 0.16979 0.70557 0.0
C1646 C 0.72416 0.21944 0.69321 0.0
C1647 C 0.74406 0.2366 0.6425 0.0
C1648 C 0.73502 0.22372 0.65844 0.0
C1649 C 0.71688 0.1852 0.70721 0.0
C1650 C 0.72131 0.19873 0.69002 0.0
H1651 H 0.74113 0.246 0.5921 0.0
H1652 H 0.72661 0.22405 0.61785 0.0
H1653 H 0.73304 0.2477 0.6806 0.0
H1654 H 0.73534 0.17398 0.75373 0.0
H1655 H 0.7396 0.19846 0.72664 0.0
C1656 C 0.19766 0.56877 0.0016 0.0
C1657 C 0.21784 0.57116 0.0077 0.0
C1658 C 0.18316 0.58317 0.00678 0.0
C1659 C 0.17251 0.61724 0.04766 0.0
H1660 H 0.13078 0.63918 0.01318 0.0
C1661 C 0.11252 0.67287 0.07774 0.0
C1662 C 0.09322 0.67203 0.06919 0.0
C1663 C 0.12821 0.66132 0.06967 0.0
C1664 C 0.14213 0.63295 0.02311 0.0
H1665 H 0.23887 0.59131 0.0227 0.0
H1666 H 0.21347 0.61621 0.03191 0.0
H1667 H 0.15749 0.61852 -0.00143 0.0
H1668 H 0.07467 0.65785 0.04642 0.0
H1669 H 0.10168 0.63698 0.03289 0.0
H1670 H 0.15689 0.63074 0.07234 0.0
C1671 C 0.20892 0.60315 0.02322 0.0
C1672 C 0.1575 0.62127 0.01466 0.0
C1673 C 0.22346 0.58894 0.01781 0.0
C1674 C 0.08957 0.6589 0.05305 0.0
C1675 C 0.10511 0.64711 0.0452 0.0
C1676 C 0.15698 0.62862 0.05617 0.0
C1677 C 0.18857 0.60006 0.01832 0.0
C1678 C 0.17282 0.61332 0.02687 0.0
C1679 C 0.12476 0.64844 0.05313 0.0
C1680 C 0.14152 0.63658 0.04403 0.0
H1681 H 0.19286 0.55529 0.99373 0.0
H1682 H 0.16754 0.58046 0.00282 0.0
H1683 H 0.18399 0.61098 0.05745 0.0
H1684 H 0.11565 0.68304 0.09012 0.0
H1685 H 0.14315 0.66295 0.07605 0.0
C1686 C 0.71453 0.96329 0.06452 0.0
C1687 C 0.73315 0.96409 0.05442 0.0
C1688 C 0.70236 0.94614 0.06314 0.0
C1689 C 0.69176 0.90779 0.02594 0.0
H1690 H 0.65605 0.88558 0.06647 0.0
C1691 C 0.63069 0.84944 0.00514 0.0
C1692 C 0.61202 0.85147 0.01484 0.0
C1693 C 0.6474 0.86048 0.01179 0.0
C1694 C 0.66581 0.89174 0.05493 0.0
H1695 H 0.75462 0.94656 0.03695 0.0
H1696 H 0.73335 0.91677 0.03456 0.0
H1697 H 0.68253 0.90918 0.07644 0.0
H1698 H 0.59579 0.86719 0.03839 0.0
H1699 H 0.62463 0.88682 0.04966 0.0
H1700 H 0.67458 0.89137 0.00427 0.0
C1701 C 0.72802 0.92956 0.0432 0.0
C1702 C 0.68104 0.90514 0.0607 0.0
C1703 C 0.74022 0.94663 0.04467 0.0
C1704 C 0.61018 0.86495 0.03102 0.0
C1705 C 0.62676 0.87615 0.03751 0.0
C1706 C 0.67642 0.89461 0.02015 0.0
C1707 C 0.7086 0.9295 0.05163 0.0
C1708 C 0.694 0.91349 0.04621 0.0
C1709 C 0.64562 0.87404 0.02803 0.0
C1710 C 0.66303 0.88665 0.03451 0.0
H1711 H 0.70874 0.97631 0.0724 0.0
H1712 H 0.68747 0.9465 0.06984 0.0
H1713 H 0.70128 0.91428 0.01437 0.0
H1714 H 0.63244 0.8391 0.99263 0.0
H1715 H 0.66171 0.85829 0.00425 0.0
C1716 C 0.40273 0.33807 0.22426 0.0
C1717 C 0.42226 0.34445 0.21916 0.0
C1718 C 0.38844 0.35195 0.23106 0.0
C1719 C 0.38633 0.40109 0.25636 0.0
H1720 H 0.3292 0.39825 0.24419 0.0
C1721 C 0.32937 0.4627 0.27916 0.0
C1722 C 0.30978 0.45673 0.28469 0.0
C1723 C 0.34339 0.44852 0.27247 0.0
C1724 C 0.34508 0.39904 0.24797 0.0
H1725 H 0.44161 0.37041 0.21513 0.0
H1726 H 0.41662 0.39477 0.22694 0.0
H1727 H 0.35249 0.37513 0.22762 0.0
H1728 H 0.29002 0.43097 0.28879 0.0
H1729 H 0.31464 0.40618 0.27732 0.0
H1730 H 0.37893 0.42501 0.27668 0.0
C1731 C 0.41253 0.37898 0.2263 0.0
C1732 C 0.35842 0.38586 0.2384 0.0
C1733 C 0.42681 0.36509 0.21951 0.0
C1734 C 0.30493 0.4361 0.28453 0.0
C1735 C 0.31896 0.42191 0.27779 0.0
C1736 C 0.37299 0.41426 0.26593 0.0
C1737 C 0.39341 0.37247 0.23278 0.0
C1738 C 0.3792 0.38679 0.24244 0.0
C1739 C 0.33814 0.42805 0.27116 0.0
C1740 C 0.35223 0.41341 0.26181 0.0
H1741 H 0.39889 0.3222 0.2242 0.0
H1742 H 0.37388 0.34643 0.236 0.0
H1743 H 0.4022 0.4019 0.26014 0.0
H1744 H 0.33364 0.47846 0.27916 0.0
H1745 H 0.35801 0.45375 0.2674 0.0
C1746 C 0.97644 0.14645 0.44324 0.0
C1747 C 0.97249 0.16675 0.43897 0.0
C1748 C 0.96056 0.13304 0.44663 0.0
C1749 C 0.9073 0.13377 0.46307 0.0
H1750 H 0.91057 0.07645 0.45225 0.0
C1751 C 0.8428 0.07729 0.48029 0.0
C1752 C 0.84859 0.05942 0.4901 0.0
C1753 C 0.85736 0.09069 0.47305 0.0
C1754 C 0.90953 0.09242 0.45544 0.0
H1755 H 0.94913 0.18874 0.43317 0.0
H1756 H 0.92125 0.16521 0.4384 0.0
H1757 H 0.93657 0.09891 0.43911 0.0
H1758 H 0.8742 0.04179 0.50031 0.0
H1759 H 0.89959 0.06515 0.4875 0.0
H1760 H 0.88011 0.12718 0.47923 0.0
C1761 C 0.93656 0.15972 0.43987 0.0
C1762 C 0.92442 0.1053 0.44794 0.0
C1763 C 0.95247 0.17317 0.43672 0.0
C1764 C 0.86924 0.05543 0.49285 0.0
C1765 C 0.88378 0.0687 0.48538 0.0
C1766 C 0.89229 0.12091 0.47034 0.0
C1767 C 0.94041 0.13965 0.44557 0.0
C1768 C 0.92365 0.12612 0.4519 0.0
C1769 C 0.87797 0.08635 0.47525 0.0
C1770 C 0.89343 0.10009 0.46684 0.0
H1771 H 0.9918 0.14124 0.44525 0.0
H1772 H 0.96417 0.11779 0.45118 0.0
H1773 H 0.90637 0.14962 0.46679 0.0
H1774 H 0.82701 0.08082 0.47797 0.0
H1775 H 0.85249 0.10418 0.46526 0.0
C1776 C 0.25388 0.62087 0.80428 0.0
C1777 C 0.25542 0.60217 0.79445 0.0
C1778 C 0.23581 0.63174 0.80372 0.0
C1779 C 0.19303 0.63927 0.77059 0.0
H1780 H 0.16885 0.66753 0.81561 0.0
C1781 C 0.12231 0.68857 0.75974 0.0
C1782 C 0.12154 0.70662 0.77068 0.0
C1783 C 0.13697 0.67408 0.76417 0.0
C1784 C 0.17553 0.65991 0.80283 0.0
H1785 H 0.23877 0.57965 0.77741 0.0
H1786 H 0.20746 0.59876 0.7763 0.0
H1787 H 0.19771 0.64538 0.82136 0.0
H1788 H 0.13587 0.72414 0.79421 0.0
H1789 H 0.16171 0.69926 0.8016 0.0
H1790 H 0.17166 0.65433 0.75185 0.0
C1791 C 0.22027 0.60504 0.78427 0.0
C1792 C 0.19198 0.64717 0.80618 0.0
C1793 C 0.23821 0.5941 0.78498 0.0
C1794 C 0.13575 0.71007 0.78596 0.0
C1795 C 0.15057 0.69575 0.7902 0.0
C1796 C 0.17679 0.6522 0.76718 0.0
C1797 C 0.21905 0.62417 0.79318 0.0
C1798 C 0.20093 0.63682 0.79006 0.0
C1799 C 0.15143 0.67757 0.77934 0.0
C1800 C 0.16791 0.66283 0.78323 0.0
H1801 H 0.26682 0.62745 0.81177 0.0
H1802 H 0.23526 0.6465 0.81067 0.0
H1803 H 0.19985 0.63169 0.75784 0.0
H1804 H 0.1115 0.68562 0.74786 0.0
H1805 H 0.13697 0.66015 0.75566 0.0
C1806 C 0.46934 0.40544 0.58904 0.0
C1807 C 0.46407 0.38501 0.58916 0.0
C1808 C 0.45499 0.42006 0.58426 0.0
C1809 C 0.40572 0.42559 0.55824 0.0
H1810 H 0.40886 0.47968 0.58014 0.0
C1811 C 0.34704 0.48928 0.5438 0.0
C1812 C 0.35532 0.50785 0.53779 0.0
C1813 C 0.35958 0.47355 0.55006 0.0
C1814 C 0.40789 0.46463 0.57387 0.0
H1815 H 0.43967 0.36367 0.58567 0.0
H1816 H 0.41422 0.38924 0.57805 0.0
H1817 H 0.4313 0.4536 0.59302 0.0
H1818 H 0.38324 0.5243 0.53318 0.0
H1819 H 0.40506 0.49691 0.54451 0.0
H1820 H 0.38188 0.43676 0.53943 0.0
C1821 C 0.42957 0.39404 0.58091 0.0
C1822 C 0.42078 0.44969 0.58117 0.0
C1823 C 0.44404 0.3794 0.58541 0.0
C1824 C 0.37639 0.51019 0.53771 0.0
C1825 C 0.38888 0.49459 0.5443 0.0
C1826 C 0.39259 0.44049 0.55119 0.0
C1827 C 0.43496 0.41454 0.57983 0.0
C1828 C 0.42011 0.43004 0.57323 0.0
C1829 C 0.38057 0.47624 0.55075 0.0
C1830 C 0.3938 0.46019 0.55873 0.0
H1831 H 0.4848 0.41005 0.59172 0.0
H1832 H 0.45986 0.4356 0.58327 0.0
H1833 H 0.40495 0.41076 0.55149 0.0
H1834 H 0.33085 0.487 0.54396 0.0
H1835 H 0.35284 0.45951 0.55498 0.0
C1836 C 0.81415 0.10975 0.81287 0.0
C1837 C 0.79501 0.11654 0.80675 0.0
C1838 C 0.82814 0.12313 0.8211 0.0
C1839 C 0.8412 0.17699 0.82361 0.0
H1840 H 0.87562 0.15941 0.86749 0.0
C1841 C 0.90197 0.22915 0.85673 0.0
C1842 C 0.9212 0.22037 0.85771 0.0
C1843 C 0.8849 0.2171 0.8539 0.0
C1844 C 0.86612 0.16452 0.85524 0.0
H1845 H 0.77564 0.14279 0.8044 0.0
H1846 H 0.80008 0.16614 0.81894 0.0
H1847 H 0.84887 0.13727 0.8553 0.0
H1848 H 0.93764 0.19221 0.85849 0.0
H1849 H 0.90792 0.17111 0.85332 0.0
H1850 H 0.85866 0.20409 0.82332 0.0
C1851 C 0.80429 0.15047 0.8172 0.0
C1852 C 0.85085 0.15183 0.8482 0.0
C1853 C 0.79026 0.13707 0.80891 0.0
C1854 C 0.92299 0.19933 0.8573 0.0
C1855 C 0.90595 0.18726 0.85458 0.0
C1856 C 0.85642 0.1897 0.83069 0.0
C1857 C 0.82336 0.14362 0.82346 0.0
C1858 C 0.83846 0.15776 0.83204 0.0
C1859 C 0.8868 0.19607 0.85222 0.0
C1860 C 0.86927 0.18346 0.84635 0.0
H1861 H 0.81837 0.09406 0.81134 0.0
H1862 H 0.84284 0.11742 0.82537 0.0
H1863 H 0.83208 0.18194 0.811 0.0
H1864 H 0.90022 0.24537 0.85705 0.0
H1865 H 0.8703 0.22428 0.85244 0.0
C1866 C 0.62931 0.84918 0.29107 0.0
C1867 C 0.61882 0.85138 0.30932 0.0
C1868 C 0.64337 0.86358 0.285 0.0
C1869 C 0.65893 0.91613 0.29176 0.0
H1870 H 0.71093 0.89683 0.27321 0.0
C1871 C 0.72788 0.96831 0.28187 0.0
C1872 C 0.74221 0.96371 0.26693 0.0
C1873 C 0.71148 0.95558 0.28531 0.0
C1874 C 0.69638 0.90253 0.27795 0.0
H1875 H 0.615 0.87012 0.33572 0.0
H1876 H 0.63963 0.89562 0.325 0.0
H1877 H 0.68509 0.87277 0.28308 0.0
H1878 H 0.74978 0.94277 0.24301 0.0
H1879 H 0.7208 0.92084 0.24862 0.0
H1880 H 0.67013 0.94591 0.28649 0.0
C1881 C 0.63673 0.88281 0.31531 0.0
C1882 C 0.6816 0.8887 0.28373 0.0
C1883 C 0.62275 0.86823 0.32149 0.0
C1884 C 0.73914 0.94665 0.25477 0.0
C1885 C 0.7226 0.93399 0.2581 0.0
C1886 C 0.67366 0.93 0.28578 0.0
C1887 C 0.64727 0.88052 0.29705 0.0
C1888 C 0.66278 0.89535 0.29079 0.0
C1889 C 0.70886 0.93801 0.27377 0.0
C1890 C 0.69263 0.92337 0.27892 0.0
H1891 H 0.62711 0.83603 0.28169 0.0
H1892 H 0.65124 0.86143 0.27086 0.0
H1893 H 0.64445 0.92165 0.29692 0.0
H1894 H 0.72974 0.98134 0.29154 0.0
H1895 H 0.70137 0.9591 0.29763 0.0
C1896 C 0.08966 0.06813 0.79483 0.0
C1897 C 0.08068 0.07372 0.77648 0.0
C1898 C 0.09508 0.08286 0.80893 0.0
C1899 C 0.10305 0.13758 0.81517 0.0
H1900 H 0.06621 0.13379 0.86033 0.0
C1901 C 0.03757 0.18727 0.84016 0.0
C1902 C 0.04651 0.20633 0.83875 0.0
C1903 C 0.04944 0.17028 0.84337 0.0
C1904 C 0.07705 0.135 0.84818 0.0
H1905 H 0.07165 0.09886 0.75777 0.0
H1906 H 0.08157 0.12451 0.78195 0.0
H1907 H 0.0756 0.10339 0.84194 0.0
H1908 H 0.07425 0.22316 0.84234 0.0
H1909 H 0.09535 0.1932 0.84728 0.0
H1910 H 0.1027 0.16934 0.81977 0.0
C1911 C 0.08435 0.10884 0.78562 0.0
C1912 C 0.08253 0.11757 0.83772 0.0
C1913 C 0.07853 0.09418 0.77182 0.0
C1914 C 0.06719 0.20844 0.84276 0.0
C1915 C 0.07918 0.19137 0.84579 0.0
C1916 C 0.0976 0.15498 0.8256 0.0
C1917 C 0.0922 0.10333 0.8045 0.0
C1918 C 0.09417 0.11904 0.82012 0.0
C1919 C 0.07054 0.17203 0.84506 0.0
C1920 C 0.08311 0.15401 0.84104 0.0
H1921 H 0.09217 0.05241 0.7984 0.0
H1922 H 0.10107 0.07829 0.82341 0.0
H1923 H 0.11232 0.13899 0.80179 0.0
H1924 H 0.02161 0.1853 0.8372 0.0
H1925 H 0.04225 0.15565 0.84249 0.0
C1926 C 0.08783 0.81094 0.07024 0.0
C1927 C 0.08925 0.79114 0.0628 0.0
C1928 C 0.10533 0.82172 0.07515 0.0
C1929 C 0.14962 0.83938 0.06638 0.0
H1930 H 0.18685 0.81237 0.10253 0.0
C1931 C 0.23447 0.8169 0.0611 0.0
C1932 C 0.24273 0.83476 0.0535 0.0
C1933 C 0.21611 0.81723 0.07126 0.0
C1934 C 0.17657 0.82036 0.09268 0.0
H1935 H 0.10979 0.7674 0.05386 0.0
H1936 H 0.14022 0.78595 0.06294 0.0
H1937 H 0.15151 0.80202 0.10155 0.0
H1938 H 0.23988 0.86722 0.05262 0.0
H1939 H 0.2073 0.86787 0.07016 0.0
H1940 H 0.17498 0.8562 0.05584 0.0
C1941 C 0.12566 0.79306 0.06511 0.0
C1942 C 0.15637 0.81449 0.09219 0.0
C1943 C 0.10832 0.78251 0.05987 0.0
C1944 C 0.23348 0.85323 0.05806 0.0
C1945 C 0.21492 0.85358 0.06809 0.0
C1946 C 0.1699 0.84513 0.0667 0.0
C1947 C 0.1243 0.8126 0.07302 0.0
C1948 C 0.14309 0.82319 0.07824 0.0
C1949 C 0.2056 0.83547 0.07392 0.0
C1950 C 0.18381 0.83474 0.07893 0.0
H1951 H 0.07324 0.81782 0.07277 0.0
H1952 H 0.10408 0.83689 0.08103 0.0
H1953 H 0.13958 0.8462 0.05546 0.0
H1954 H 0.24129 0.80246 0.05771 0.0
H1955 H 0.20933 0.80295 0.07532 0.0
C1956 C 0.47387 0.96423 0.30819 0.0
C1957 C 0.48039 0.9606 0.28836 0.0
C1958 C 0.46576 0.94855 0.31974 0.0
C1959 C 0.44328 0.89828 0.3173 0.0
H1960 H 0.48601 0.88054 0.35286 0.0
C1961 C 0.47844 0.82402 0.30879 0.0
C1962 C 0.49255 0.81709 0.32282 0.0
C1963 C 0.46601 0.84026 0.31354 0.0
C1964 C 0.47332 0.8852 0.34372 0.0
H1965 H 0.48269 0.93826 0.2647 0.0
H1966 H 0.46791 0.91114 0.28454 0.0
H1967 H 0.48388 0.91563 0.34355 0.0
H1968 H 0.50288 0.81919 0.35365 0.0
H1969 H 0.48067 0.84731 0.36234 0.0
H1970 H 0.43339 0.86765 0.31644 0.0
C1971 C 0.46913 0.926 0.2912 0.0
C1972 C 0.47218 0.90548 0.33836 0.0
C1973 C 0.47773 0.94143 0.27993 0.0
C1974 C 0.49231 0.82473 0.3425 0.0
C1975 C 0.47963 0.84082 0.3474 0.0
C1976 C 0.44411 0.87806 0.32303 0.0
C1977 C 0.46339 0.92933 0.31128 0.0
C1978 C 0.4583 0.91171 0.32374 0.0
C1979 C 0.46741 0.84974 0.33252 0.0
C1980 C 0.46042 0.87097 0.33462 0.0
H1981 H 0.47525 0.97907 0.31481 0.0
H1982 H 0.46165 0.95131 0.33529 0.0
H1983 H 0.43226 0.90293 0.30618 0.0
H1984 H 0.47835 0.81818 0.29354 0.0
H1985 H 0.45695 0.84656 0.30153 0.0
C1986 C 0.48636 0.24437 0.5666 0.0
C1987 C 0.4945 0.25716 0.58125 0.0
C1988 C 0.47031 0.23171 0.57139 0.0
C1989 C 0.42705 0.23768 0.60327 0.0
H1990 H 0.40806 0.1975 0.56543 0.0
C1991 C 0.3471 0.23662 0.5664 0.0
C1992 C 0.35122 0.24478 0.54727 0.0
C1993 C 0.36282 0.22914 0.57838 0.0
C1994 C 0.41303 0.20821 0.57671 0.0
H1995 H 0.49459 0.26478 0.61295 0.0
H1996 H 0.46628 0.24263 0.62146 0.0
H1997 H 0.4436 0.19812 0.57495 0.0
H1998 H 0.37462 0.25098 0.52538 0.0
H1999 H 0.40187 0.23738 0.54592 0.0
H2000 H 0.39672 0.24875 0.60362 0.0
C2001 C 0.472 0.24261 0.60618 0.0
C2002 C 0.4334 0.20871 0.58204 0.0
C2003 C 0.48813 0.2553 0.60133 0.0
C2004 C 0.37107 0.24477 0.54006 0.0
C2005 C 0.38659 0.23688 0.55172 0.0
C2006 C 0.40663 0.23694 0.59821 0.0
C2007 C 0.46206 0.23168 0.59096 0.0
C2008 C 0.44091 0.22474 0.59371 0.0
C2009 C 0.38262 0.22911 0.57096 0.0
C2010 C 0.39994 0.22334 0.58353 0.0
H2011 H 0.49107 0.24551 0.55102 0.0
H2012 H 0.46308 0.22369 0.55916 0.0
H2013 H 0.43216 0.25016 0.61247 0.0
H2014 H 0.33178 0.23589 0.57201 0.0
H2015 H 0.35958 0.22339 0.5933 0.0
C2016 C 0.6005 0.47676 0.24328 0.0
C2017 C 0.59171 0.47309 0.2622 0.0
C2018 C 0.60511 0.46067 0.23039 0.0
C2019 C 0.61181 0.4055 0.2294 0.0
H2020 H 0.57248 0.40487 0.18625 0.0
C2021 C 0.54227 0.35761 0.21674 0.0
C2022 C 0.54973 0.33805 0.21948 0.0
C2023 C 0.55501 0.37303 0.21051 0.0
C2024 C 0.58405 0.40482 0.19778 0.0
H2025 H 0.58167 0.44994 0.28289 0.0
H2026 H 0.59022 0.42203 0.26088 0.0
H2027 H 0.58397 0.437 0.19988 0.0
H2028 H 0.57573 0.31867 0.21576 0.0
H2029 H 0.59858 0.3461 0.20584 0.0
H2030 H 0.60996 0.37344 0.2292 0.0
C2031 C 0.59359 0.43721 0.25589 0.0
C2032 C 0.59072 0.42323 0.2055 0.0
C2033 C 0.58855 0.45318 0.26844 0.0
C2034 C 0.56983 0.33382 0.21432 0.0
C2035 C 0.58278 0.3494 0.20838 0.0
C2036 C 0.60513 0.38712 0.22172 0.0
C2037 C 0.6016 0.44077 0.23663 0.0
C2038 C 0.60314 0.42357 0.22262 0.0
C2039 C 0.57563 0.36931 0.20716 0.0
C2040 C 0.58966 0.3867 0.20724 0.0
H2041 H 0.60374 0.49199 0.23843 0.0
H2042 H 0.61113 0.46373 0.21553 0.0
H2043 H 0.62167 0.40547 0.24242 0.0
H2044 H 0.52686 0.36131 0.22069 0.0
H2045 H 0.54902 0.38821 0.21012 0.0
C2046 C 0.96073 0.27915 0.46015 0.0
C2047 C 0.97978 0.28788 0.46294 0.0
C2048 C 0.94362 0.29119 0.45874 0.0
C2049 C 0.92726 0.33474 0.48433 0.0
H2050 H 0.87627 0.3171 0.46175 0.0
C2051 C 0.83806 0.32763 0.50854 0.0
C2052 C 0.8416 0.31672 0.52634 0.0
C2053 C 0.85414 0.33284 0.49591 0.0
C2054 C 0.89032 0.32276 0.46789 0.0
H2055 H 0.99633 0.31598 0.46388 0.0
H2056 H 0.96605 0.33727 0.46257 0.0
H2057 H 0.90754 0.31083 0.44334 0.0
H2058 H 0.86443 0.30341 0.54543 0.0
H2059 H 0.89254 0.31274 0.52365 0.0
H2060 H 0.91022 0.34492 0.50974 0.0
C2061 C 0.96444 0.32108 0.46133 0.0
C2062 C 0.90821 0.31914 0.45737 0.0
C2063 C 0.98167 0.30894 0.46233 0.0
C2064 C 0.8614 0.31176 0.53173 0.0
C2065 C 0.87743 0.31728 0.51938 0.0
C2066 C 0.90941 0.33828 0.49485 0.0
C2067 C 0.94518 0.31223 0.46048 0.0
C2068 C 0.92692 0.32369 0.46627 0.0
C2069 C 0.87396 0.32769 0.50127 0.0
C2070 C 0.89101 0.33097 0.48736 0.0
H2071 H 0.95876 0.26296 0.46073 0.0
H2072 H 0.92904 0.28383 0.45838 0.0
H2073 H 0.94141 0.33848 0.49159 0.0
H2074 H 0.8229 0.33209 0.50441 0.0
H2075 H 0.85112 0.3408 0.48199 0.0
C2076 C 0.96751 0.59945 0.75107 0.0
C2077 C 0.96932 0.60084 0.77212 0.0
C2078 C 0.9601 0.61577 0.73994 0.0
C2079 C 0.93762 0.667 0.74488 0.0
H2080 H 0.98704 0.68392 0.71889 0.0
C2081 C 0.97909 0.7343 0.77001 0.0
C2082 C 0.99552 0.74161 0.75906 0.0
C2083 C 0.96604 0.72029 0.7613 0.0
C2084 C 0.97267 0.6797 0.72536 0.0
H2085 H 0.9634 0.6197 0.79812 0.0
H2086 H 0.95001 0.64764 0.77901 0.0
H2087 H 0.9799 0.64856 0.72224 0.0
H2088 H 0.00989 0.74262 0.72982 0.0
H2089 H 0.98673 0.71856 0.71423 0.0
H2090 H 0.9312 0.69824 0.74942 0.0
C2091 C 0.95417 0.63406 0.77096 0.0
C2092 C 0.96856 0.65919 0.72725 0.0
C2093 C 0.96198 0.61804 0.78196 0.0
C2094 C 0.99748 0.73667 0.73862 0.0
C2095 C 0.98422 0.72293 0.72974 0.0
C2096 C 0.94159 0.68756 0.74274 0.0
C2097 C 0.95394 0.63346 0.7498 0.0
C2098 C 0.95209 0.65276 0.73884 0.0
C2099 C 0.96914 0.71356 0.74137 0.0
C2100 C 0.96021 0.69402 0.73488 0.0
H2101 H 0.97251 0.5861 0.74314 0.0
H2102 H 0.96016 0.61499 0.72364 0.0
H2103 H 0.92452 0.66234 0.75346 0.0
H2104 H 0.97728 0.73817 0.78577 0.0
H2105 H 0.95477 0.71344 0.7709 0.0
C2106 C 0.57707 0.72702 0.99119 0.0
C2107 C 0.57528 0.73181 0.01167 0.0
C2108 C 0.59314 0.71515 0.98447 0.0
C2109 C 0.63731 0.71059 0.97468 0.0
H2110 H 0.66833 0.67723 0.01112 0.0
C2111 C 0.71707 0.72819 0.99468 0.0
C2112 C 0.72881 0.71414 0.00512 0.0
C2113 C 0.69867 0.72238 0.98631 0.0
C2114 C 0.65994 0.68605 0.00025 0.0
H2115 H 0.58759 0.72723 0.04142 0.0
H2116 H 0.61586 0.70697 0.02994 0.0
H2117 H 0.63211 0.6792 0.01497 0.0
H2118 H 0.73232 0.6827 0.01284 0.0
H2119 H 0.70044 0.67222 0.99751 0.0
H2120 H 0.6652 0.71775 0.9602 0.0
C2121 C 0.60481 0.71172 0.01891 0.0
C2122 C 0.63908 0.68739 0.0027 0.0
C2123 C 0.58868 0.72342 0.02558 0.0
C2124 C 0.72328 0.69375 0.00492 0.0
C2125 C 0.70497 0.68785 0.99631 0.0
C2126 C 0.65813 0.70894 0.97198 0.0
C2127 C 0.6078 0.70822 -0.00184 0.0
C2128 C 0.62778 0.70094 0.99099 0.0
C2129 C 0.6918 0.70235 0.98815 0.0
C2130 C 0.66989 0.69796 0.98577 0.0
H2131 H 0.56683 0.73356 0.98027 0.0
H2132 H 0.59477 0.7125 0.96846 0.0
H2133 H 0.62915 0.72104 0.96516 0.0
H2134 H 0.72112 0.74401 0.99475 0.0
H2135 H 0.68904 0.73409 0.98029 0.0
C2136 C 0.80718 0.06584 0.21218 0.0
C2137 C 0.82105 0.055 0.22371 0.0
C2138 C 0.81383 0.07752 0.19604 0.0
C2139 C 0.8286 0.09826 0.15936 0.0
H2140 H 0.86751 0.06438 0.13213 0.0
C2141 C 0.8135 0.07906 0.07879 0.0
C2142 C 0.81386 0.0581 0.07617 0.0
C2143 C 0.82456 0.08799 0.09436 0.0
C2144 C 0.85659 0.07407 0.13944 0.0
H2145 H 0.85266 0.04959 0.22955 0.0
H2146 H 0.86457 0.07092 0.20199 0.0
H2147 H 0.86628 0.0645 0.1684 0.0
H2148 H 0.82723 0.03017 0.0862 0.0
H2149 H 0.84569 0.04521 0.11371 0.0
H2150 H 0.81695 0.10552 0.13043 0.0
C2151 C 0.8485 0.06984 0.20465 0.0
C2152 C 0.8561 0.07445 0.16046 0.0
C2153 C 0.84176 0.05777 0.22055 0.0
C2154 C 0.82682 0.0464 0.08796 0.0
C2155 C 0.83755 0.0552 0.10372 0.0
C2156 C 0.8286 0.09729 0.13835 0.0
C2157 C 0.83457 0.07874 0.19131 0.0
C2158 C 0.84081 0.08512 0.17065 0.0
C2159 C 0.83567 0.07598 0.10789 0.0
C2160 C 0.84139 0.0837 0.12823 0.0
H2161 H 0.79112 0.06383 0.21448 0.0
H2162 H 0.80244 0.08388 0.18627 0.0
H2163 H 0.81743 0.10766 0.16667 0.0
H2164 H 0.8037 0.08835 0.06961 0.0
H2165 H 0.8232 0.10408 0.09662 0.0
C2166 C 0.25405 0.59162 0.47559 0.0
C2167 C 0.27148 0.58065 0.47052 0.0
C2168 C 0.2413 0.59896 0.46043 0.0
C2169 C 0.2395 0.6095 0.40605 0.0
H2170 H 0.1941 0.5729 0.40362 0.0
C2171 C 0.22882 0.56681 0.33534 0.0
C2172 C 0.23262 0.54671 0.34078 0.0
C2173 C 0.22147 0.58046 0.34963 0.0
C2174 C 0.20627 0.58378 0.40405 0.0
H2175 H 0.28979 0.56944 0.44599 0.0
H2176 H 0.26804 0.58259 0.41964 0.0
H2177 H 0.20776 0.58271 0.43622 0.0
H2178 H 0.22991 0.52457 0.36454 0.0
H2179 H 0.21727 0.54802 0.38935 0.0
H2180 H 0.24011 0.60821 0.37402 0.0
C2181 C 0.26412 0.58561 0.4352 0.0
C2182 C 0.21401 0.58952 0.42276 0.0
C2183 C 0.27646 0.57789 0.45024 0.0
C2184 C 0.22717 0.54002 0.36001 0.0
C2185 C 0.21967 0.55351 0.37418 0.0
C2186 C 0.23189 0.60364 0.38736 0.0
C2187 C 0.24631 0.59599 0.44011 0.0
C2188 C 0.23206 0.60051 0.42368 0.0
C2189 C 0.21765 0.57411 0.36949 0.0
C2190 C 0.21681 0.58877 0.38633 0.0
H2191 H 0.25024 0.5944 0.49121 0.0
H2192 H 0.2275 0.60669 0.46451 0.0
H2193 H 0.25321 0.61839 0.4065 0.0
H2194 H 0.23232 0.57214 0.32032 0.0
H2195 H 0.21996 0.59619 0.34553 0.0
C2196 C 0.75147 0.99125 0.57138 0.0
C2197 C 0.75441 0.00995 0.56201 0.0
C2198 C 0.74017 0.98998 0.58909 0.0
C2199 C 0.73625 0.99688 0.63364 0.0
H2200 H 0.69882 0.03848 0.65045 0.0
C2201 C 0.73699 0.05617 0.69846 0.0
C2202 C 0.73737 0.0448 0.71623 0.0
C2203 C 0.73081 0.04741 0.68043 0.0
C2204 C 0.70893 0.02646 0.64596 0.0
H2205 H 0.74663 0.04158 0.56238 0.0
H2206 H 0.72755 0.0397 0.59349 0.0
H2207 H 0.70114 0.02947 0.61486 0.0
H2208 H 0.73063 0.01575 0.72952 0.0
H2209 H 0.72104 -0.0001 0.69744 0.0
H2210 H 0.74465 0.99461 0.66467 0.0
C2211 C 0.73345 0.02583 0.58724 0.0
C2212 C 0.71038 0.02138 0.62562 0.0
C2213 C 0.74455 0.02702 0.56947 0.0
C2214 C 0.73103 0.02461 0.71583 0.0
C2215 C 0.72525 0.01567 0.69764 0.0
C2216 C 0.73452 0.00172 0.65401 0.0
C2217 C 0.73188 0.00746 0.59777 0.0
C2218 C 0.72511 0.00759 0.61909 0.0
C2219 C 0.72517 0.02703 0.67982 0.0
C2220 C 0.72182 0.01745 0.66009 0.0
H2221 H 0.75871 0.97784 0.56553 0.0
H2222 H 0.7389 0.97554 0.59656 0.0
H2223 H 0.7478 0.98621 0.62927 0.0
H2224 H 0.74176 0.07179 0.69848 0.0
H2225 H 0.73125 0.05636 0.66678 0.0
C2226 C 0.34304 0.52828 0.85187 0.0
C2227 C 0.3448 0.52272 0.83158 0.0
C2228 C 0.34926 0.51528 0.86701 0.0
C2229 C 0.34544 0.46502 0.87913 0.0
H2230 H 0.36551 0.48792 0.92894 0.0
C2231 C 0.32239 0.47897 0.96707 0.0
C2232 C 0.30277 0.48492 0.96175 0.0
C2233 C 0.3355 0.47129 0.95243 0.0
C2234 C 0.3604 0.48057 0.9153 0.0
H2235 H 0.3557 0.49966 0.81115 0.0
H2236 H 0.365 0.47587 0.83805 0.0
H2237 H 0.3786 0.49988 0.89704 0.0
H2238 H 0.2808 0.48588 0.93766 0.0
H2239 H 0.30332 0.4726 0.91227 0.0
H2240 H 0.32563 0.44728 0.89735 0.0
C2241 C 0.35927 0.49063 0.84201 0.0
C2242 C 0.36795 0.48749 0.89695 0.0
C2243 C 0.35353 0.50403 0.8267 0.0
C2244 C 0.29587 0.48141 0.94213 0.0
C2245 C 0.3088 0.47357 0.92761 0.0
C2246 C 0.33799 0.45796 0.8975 0.0
C2247 C 0.35699 0.49615 0.8623 0.0
C2248 C 0.35882 0.48141 0.87885 0.0
C2249 C 0.32905 0.46924 0.93234 0.0
C2250 C 0.34375 0.46744 0.91558 0.0
H2251 H 0.33607 0.54241 0.85613 0.0
H2252 H 0.34675 0.51973 0.88252 0.0
H2253 H 0.3384 0.45983 0.86534 0.0
H2254 H 0.32783 0.48105 0.98232 0.0
H2255 H 0.35097 0.46801 0.95655 0.0
C2256 C 0.8388 0.02961 0.76715 0.0
C2257 C 0.82501 0.02937 0.78319 0.0
C2258 C 0.85772 0.02063 0.76915 0.0
C2259 C 0.8957 0.0118 0.807 0.0
H2260 H 0.92336 0.98533 0.76285 0.0
C2261 C 0.98128 0.98997 0.77644 0.0
C2262 C 0.98967 0.00936 0.7779 0.0
C2263 C 0.96118 0.98662 0.78212 0.0
C2264 C 0.91584 0.99228 0.77556 0.0
H2265 H 0.81983 0.01887 0.81366 0.0
H2266 H 0.85333 0.00346 0.81735 0.0
H2267 H 0.88676 0.98905 0.76183 0.0
H2268 H 0.98442 0.03991 0.78808 0.0
H2269 H 0.94967 0.03404 0.79831 0.0
H2270 H 0.92493 0.01608 0.82017 0.0
C2271 C 0.84933 0.01048 0.80317 0.0
C2272 C 0.89489 0.99457 0.77487 0.0
C2273 C 0.83017 0.01918 0.80102 0.0
C2274 C 0.97829 0.02482 0.78678 0.0
C2275 C 0.9584 0.02142 0.79273 0.0
C2276 C 0.9167 0.00967 0.80761 0.0
C2277 C 0.86342 0.01145 0.78736 0.0
C2278 C 0.8847 0.00503 0.79021 0.0
C2279 C 0.94933 0.00252 0.78966 0.0
C2280 C 0.92706 0.00057 0.79152 0.0
H2281 H 0.8352 0.03731 0.75321 0.0
H2282 H 0.8683 0.02185 0.75677 0.0
H2283 H 0.88828 0.02001 0.81901 0.0
H2284 H 0.98968 0.97781 0.76952 0.0
H2285 H 0.95462 0.97187 0.7797 0.0
C2286 C 0.3005 0.73908 0.04904 0.0
C2287 C 0.31454 0.75319 0.04186 0.0
C2288 C 0.30575 0.71883 0.05104 0.0
C2289 C 0.33921 0.68268 0.02664 0.0
H2290 H 0.31206 0.64562 0.06271 0.0
C2291 C 0.31654 0.59238 0.0357 0.0
C2292 C 0.30981 0.58927 0.01584 0.0
C2293 C 0.32387 0.61127 0.04168 0.0
C2294 C 0.32017 0.65564 0.05271 0.0
H2295 H 0.34562 0.75745 0.03269 0.0
H2296 H 0.35492 0.72193 0.03633 0.0
H2297 H 0.31275 0.68141 0.07064 0.0
H2298 H 0.30705 0.60304 0.98634 0.0
H2299 H 0.31954 0.63577 0.99671 0.0
H2300 H 0.34624 0.65697 0.00847 0.0
C2301 C 0.33973 0.72654 0.04019 0.0
C2302 C 0.32037 0.67624 0.05716 0.0
C2303 C 0.33448 0.74692 0.0383 0.0
C2304 C 0.31199 0.60494 0.00179 0.0
C2305 C 0.31933 0.62374 0.00773 0.0
C2306 C 0.3391 0.66206 0.02223 0.0
C2307 C 0.32519 0.71213 0.04583 0.0
C2308 C 0.32912 0.69011 0.04373 0.0
C2309 C 0.32472 0.62738 0.02791 0.0
C2310 C 0.32882 0.64839 0.03475 0.0
H2311 H 0.28503 0.74347 0.05197 0.0
H2312 H 0.29407 0.70823 0.05526 0.0
H2313 H 0.34605 0.69287 0.01589 0.0
H2314 H 0.31514 0.58059 0.04689 0.0
H2315 H 0.32819 0.61346 0.05727 0.0
C2316 C 0.73171 0.04239 0.31717 0.0
C2317 C 0.73646 0.04696 0.29704 0.0
C2318 C 0.71209 0.04538 0.32442 0.0
C2319 C 0.66785 0.03383 0.32628 0.0
H2320 H 0.63034 0.07263 0.30389 0.0
C2321 C 0.59001 0.01206 0.29818 0.0
C2322 C 0.57419 0.0261 0.29775 0.0
C2323 C 0.60881 0.01732 0.30601 0.0
C2324 C 0.64052 0.06187 0.31074 0.0
H2325 H 0.72513 0.06029 0.26948 0.0
H2326 H 0.69116 0.06537 0.28192 0.0
H2327 H 0.66633 0.07989 0.3036 0.0
H2328 H 0.5652 0.05626 0.30652 0.0
H2329 H 0.59821 0.06551 0.3203 0.0
H2330 H 0.64209 0.01555 0.33286 0.0
C2331 C 0.70236 0.05951 0.29224 0.0
C2332 C 0.66122 0.06594 0.31036 0.0
C2333 C 0.72188 0.05646 0.28501 0.0
C2334 C 0.57713 0.04512 0.30661 0.0
C2335 C 0.59607 0.05046 0.31438 0.0
C2336 C 0.64716 0.02982 0.32676 0.0
C2337 C 0.69694 0.0531 0.31171 0.0
C2338 C 0.67519 0.05151 0.31716 0.0
C2339 C 0.6123 0.0368 0.31359 0.0
C2340 C 0.63334 0.04331 0.31803 0.0
H2341 H 0.74266 0.03509 0.32684 0.0
H2342 H 0.7085 0.04061 0.33961 0.0
H2343 H 0.6781 0.02231 0.33163 0.0
H2344 H 0.58819 0.99724 0.29157 0.0
H2345 H 0.62095 0.00646 0.30489 0.0
C2346 C 0.25973 0.47956 0.52942 0.0
C2347 C 0.26548 0.49427 0.54349 0.0
C2348 C 0.25426 0.46028 0.53573 0.0
C2349 C 0.2408 0.42007 0.55205 0.0
H2350 H 0.28235 0.39944 0.58758 0.0
C2351 C 0.2576 0.33526 0.55513 0.0
C2352 C 0.27806 0.33144 0.55109 0.0
C2353 C 0.25138 0.35451 0.56128 0.0
C2354 C 0.27048 0.40495 0.57782 0.0
H2355 H 0.26836 0.50089 0.57533 0.0
H2356 H 0.25875 0.46703 0.58645 0.0
H2357 H 0.27789 0.43566 0.58407 0.0
H2358 H 0.30818 0.34407 0.55205 0.0
H2359 H 0.29748 0.37734 0.56276 0.0
H2360 H 0.23453 0.38937 0.54454 0.0
C2361 C 0.25865 0.47041 0.57049 0.0
C2362 C 0.26775 0.42576 0.57596 0.0
C2363 C 0.26399 0.48984 0.56414 0.0
C2364 C 0.29229 0.34661 0.55494 0.0
C2365 C 0.28614 0.36569 0.56124 0.0
C2366 C 0.24356 0.39926 0.55388 0.0
C2367 C 0.25451 0.45518 0.5563 0.0
C2368 C 0.25355 0.43358 0.56229 0.0
C2369 C 0.26554 0.37012 0.56374 0.0
C2370 C 0.25911 0.3915 0.56603 0.0
H2371 H 0.26065 0.48258 0.5134 0.0
H2372 H 0.25136 0.44897 0.52433 0.0
H2373 H 0.22948 0.4256 0.54166 0.0
H2374 H 0.24628 0.32384 0.55225 0.0
H2375 H 0.23542 0.3574 0.56325 0.0
C2376 C 0.49647 0.56389 0.26546 0.0
C2377 C 0.50265 0.54372 0.26355 0.0
C2378 C 0.47612 0.5691 0.26298 0.0
C2379 C 0.42589 0.54942 0.24642 0.0
H2380 H 0.40594 0.57832 0.29311 0.0
C2381 C 0.34086 0.55163 0.26481 0.0
C2382 C 0.33666 0.54554 0.28466 0.0
C2383 C 0.36047 0.55731 0.25928 0.0
C2384 C 0.41125 0.57037 0.27988 0.0
H2385 H 0.4928 0.51358 0.25578 0.0
H2386 H 0.45757 0.52259 0.2513 0.0
H2387 H 0.44211 0.5768 0.28676 0.0
H2388 H 0.34935 0.54208 0.31457 0.0
H2389 H 0.3833 0.55201 0.30503 0.0
H2390 H 0.3951 0.54189 0.24028 0.0
C2391 C 0.46825 0.53445 0.25474 0.0
C2392 C 0.432 0.56968 0.2761 0.0
C2393 C 0.48848 0.52924 0.25739 0.0
C2394 C 0.3521 0.54661 0.29913 0.0
C2395 C 0.37158 0.55244 0.29367 0.0
C2396 C 0.40513 0.55014 0.25018 0.0
C2397 C 0.46165 0.55427 0.25832 0.0
C2398 C 0.43963 0.55856 0.25974 0.0
C2399 C 0.37618 0.55725 0.27355 0.0
C2400 C 0.39762 0.55999 0.26738 0.0
H2401 H 0.50703 0.57537 0.27029 0.0
H2402 H 0.47156 0.58455 0.2656 0.0
H2403 H 0.43125 0.54093 0.23355 0.0
H2404 H 0.3293 0.55094 0.2533 0.0
H2405 H 0.36348 0.56114 0.2437 0.0
C2406 C 0.75824 0.09093 0.46845 0.0
C2407 C 0.75783 0.08233 0.48777 0.0
C2408 C 0.75233 0.11105 0.46568 0.0
C2409 C 0.75954 0.15611 0.4713 0.0
H2410 H 0.7212 0.18359 0.50583 0.0
C2411 C 0.77841 0.22797 0.5133 0.0
C2412 C 0.76351 0.24224 0.51801 0.0
C2413 C 0.77359 0.21068 0.5024 0.0
C2414 C 0.7317 0.1763 0.49567 0.0
H2415 H 0.74915 0.0871 0.51884 0.0
H2416 H 0.73869 0.12178 0.5141 0.0
H2417 H 0.71743 0.14759 0.4995 0.0
H2418 H 0.73206 0.25016 0.51412 0.0
H2419 H 0.72345 0.21951 0.49516 0.0
H2420 H 0.77433 0.18462 0.46821 0.0
C2421 C 0.74352 0.11331 0.50101 0.0
C2422 C 0.72965 0.1556 0.49219 0.0
C2423 C 0.74965 0.09342 0.50379 0.0
C2424 C 0.74384 0.23939 0.51065 0.0
C2425 C 0.73891 0.22184 0.49991 0.0
C2426 C 0.76157 0.17679 0.47475 0.0
C2427 C 0.74566 0.12271 0.48214 0.0
C2428 C 0.74417 0.14507 0.48087 0.0
C2429 C 0.75368 0.20707 0.49607 0.0
C2430 C 0.74832 0.18689 0.48786 0.0
H2431 H 0.76463 0.0827 0.45588 0.0
H2432 H 0.75399 0.1178 0.45092 0.0
H2433 H 0.77103 0.14855 0.46251 0.0
H2434 H 0.79374 0.22982 0.51866 0.0
H2435 H 0.78531 0.19956 0.5 0.0
C2436 C 0.09248 0.56428 0.77302 0.0
C2437 C 0.07753 0.54941 0.77098 0.0
C2438 C 0.11271 0.55968 0.7696 0.0
C2439 C 0.14924 0.52357 0.74867 0.0
H2440 H 0.18097 0.53975 0.79505 0.0
C2441 C 0.23729 0.52634 0.75386 0.0
C2442 C 0.2458 0.52187 0.77276 0.0
C2443 C 0.21632 0.5256 0.75112 0.0
C2444 C 0.17232 0.53492 0.78207 0.0
H2445 H 0.07195 0.51846 0.76204 0.0
H2446 H 0.10754 0.51044 0.75598 0.0
H2447 H 0.14534 0.54808 0.79368 0.0
H2448 H 0.2393 0.51085 0.8028 0.0
H2449 H 0.20292 0.50929 0.79794 0.0
H2450 H 0.17663 0.51061 0.73703 0.0
C2451 C 0.10347 0.52565 0.76029 0.0
C2452 C 0.15195 0.53994 0.78117 0.0
C2453 C 0.08311 0.53026 0.76377 0.0
C2454 C 0.23319 0.51462 0.78814 0.0
C2455 C 0.21233 0.51383 0.7854 0.0
C2456 C 0.16986 0.51874 0.74946 0.0
C2457 C 0.11852 0.54011 0.76402 0.0
C2458 C 0.14018 0.53445 0.76445 0.0
C2459 C 0.2036 0.52032 0.76723 0.0
C2460 C 0.18157 0.52433 0.76624 0.0
H2461 H 0.08869 0.57926 0.7783 0.0
H2462 H 0.12397 0.57124 0.77221 0.0
H2463 H 0.14049 0.51915 0.73562 0.0
H2464 H 0.24659 0.53203 0.74171 0.0
H2465 H 0.21002 0.53067 0.73694 0.0
C2466 C 0.82341 0.94382 0.03237 0.0
C2467 C 0.81771 0.95931 0.01914 0.0
C2468 C 0.82936 0.92507 0.02497 0.0
C2469 C 0.84296 0.88579 0.00729 0.0
H2470 H 0.80686 0.86854 0.96474 0.0
C2471 C 0.82417 0.80234 -0.00055 0.0
C2472 C 0.80323 0.79902 -0.00107 0.0
C2473 C 0.83209 0.82129 0.99454 0.0
C2474 C 0.81712 0.87307 0.97661 0.0
H2475 H 0.81597 0.96799 0.98768 0.0
H2476 H 0.82698 0.93538 0.9747 0.0
H2477 H 0.8107 0.90417 0.97175 0.0
H2478 H 0.77447 0.81218 0.99065 0.0
H2479 H 0.78798 0.84499 0.98264 0.0
H2480 H 0.84773 0.85463 0.01355 0.0
C2481 C 0.82617 0.9375 0.99085 0.0
C2482 C 0.81959 0.89363 0.98046 0.0
C2483 C 0.82001 0.95627 -0.0017 0.0
C2484 C 0.79066 0.8143 0.99143 0.0
C2485 C 0.79851 0.83319 0.98665 0.0
C2486 C 0.8402 0.86522 0.00369 0.0
C2487 C 0.83001 0.92136 0.00409 0.0
C2488 C 0.83172 0.90023 0.99657 0.0
C2489 C 0.81921 0.83726 0.98906 0.0
C2490 C 0.8264 0.85858 0.989 0.0
H2491 H 0.82197 0.94567 0.04852 0.0
H2492 H 0.83197 0.91311 0.03574 0.0
H2493 H 0.85294 0.8903 0.0194 0.0
H2494 H 0.8343 0.7908 0.005 0.0
H2495 H 0.84817 0.82372 0.9961 0.0
C2496 C 0.00628 0.83509 0.84713 0.0
C2497 C -0.00123 0.81724 0.83858 0.0
C2498 C 0.0004 0.84079 0.8666 0.0
C2499 C 0.96523 0.82961 0.90879 0.0
H2500 H 0.01367 0.82932 0.94147 0.0
C2501 C 0.96772 0.79435 0.98716 0.0
C2502 C 0.98292 0.7997 0.00092 0.0
C2503 C 0.96632 0.80396 0.9685 0.0
C2504 C -0.00013 0.83004 0.93278 0.0
H2505 H 0.97791 0.79248 0.84259 0.0
H2506 H 0.96721 0.8027 0.87619 0.0
H2507 H 0.01634 0.83382 0.90534 0.0
H2508 H 0.00729 0.82072 0.00669 0.0
H2509 H 0.0044 0.838 0.97437 0.0
H2510 H 0.94877 0.82522 0.93617 0.0
C2511 C 0.97769 0.81224 0.86809 0.0
C2512 C 0.00145 0.83261 0.91195 0.0
C2513 C 0.98385 0.80635 0.84887 0.0
C2514 C 0.99555 0.81607 0.99631 0.0
C2515 C 0.99399 0.82587 0.97769 0.0
C2516 C 0.96361 0.82733 0.92969 0.0
C2517 C 0.98666 0.82893 0.87756 0.0
C2518 C 0.98424 0.83154 0.89965 0.0
C2519 C 0.97991 0.81937 0.96318 0.0
C2520 C 0.981 0.82654 0.94187 0.0
H2521 H 0.01798 0.84362 0.83958 0.0
H2522 H 0.00749 0.85376 0.87353 0.0
H2523 H 0.95169 0.82893 0.89967 0.0
H2524 H 0.95768 0.78185 0.99021 0.0
H2525 H 0.95539 0.7983 0.95778 0.0
C2526 C 0.49956 0.7218 0.23799 0.0
C2527 C 0.49506 0.74158 0.24403 0.0
C2528 C 0.49335 0.71481 0.21907 0.0
C2529 C 0.46278 0.72706 0.17346 0.0
H2530 H 0.51183 0.71309 0.14503 0.0
C2531 C 0.47736 0.74931 0.09135 0.0
C2532 C 0.49292 0.73981 0.0807 0.0
C2533 C 0.47207 0.74258 0.11063 0.0
C2534 C 0.4977 0.71633 0.15254 0.0
H2535 H 0.47869 0.76871 0.23614 0.0
H2536 H 0.46769 0.7565 0.20335 0.0
H2537 H 0.51164 0.71321 0.18136 0.0
H2538 H 0.51374 0.71476 0.08056 0.0
H2539 H 0.5035 0.70195 0.11344 0.0
H2540 H 0.44899 0.73076 0.14451 0.0
C2541 C 0.47607 0.74637 0.21304 0.0
C2542 C 0.49766 0.71643 0.17355 0.0
C2543 C 0.48248 0.75343 0.23179 0.0
C2544 C 0.50165 0.72228 0.08858 0.0
C2545 C 0.49597 0.71518 0.10756 0.0
C2546 C 0.46271 0.72667 0.15234 0.0
C2547 C 0.48231 0.7274 0.20603 0.0
C2548 C 0.48047 0.72258 0.18425 0.0
C2549 C 0.48205 0.72599 0.11942 0.0
C2550 C 0.48045 0.72212 0.14156 0.0
H2551 H 0.50926 0.71234 0.2471 0.0
H2552 H 0.49823 0.70004 0.21411 0.0
H2553 H 0.44923 0.73168 0.18133 0.0
H2554 H 0.47068 0.76308 0.08566 0.0
H2555 H 0.4614 0.75147 0.11918 0.0
C2556 C 0.54276 0.26219 0.47625 0.0
C2557 C 0.55695 0.26979 0.49002 0.0
C2558 C 0.54796 0.25917 0.45611 0.0
C2559 C 0.58245 0.28066 0.41884 0.0
H2560 H 0.55385 0.24392 0.38355 0.0
C2561 C 0.55958 0.26784 0.32904 0.0
C2562 C 0.55418 0.28788 0.32476 0.0
C2563 C 0.56653 0.2625 0.34826 0.0
C2564 C 0.56237 0.25407 0.39308 0.0
H2565 H 0.58824 0.2785 0.49383 0.0
H2566 H 0.59744 0.27294 0.45858 0.0
H2567 H 0.55408 0.23784 0.41967 0.0
H2568 H 0.55336 0.31825 0.33683 0.0
H2569 H 0.56506 0.30899 0.37013 0.0
H2570 H 0.59051 0.29705 0.39227 0.0
C2571 C 0.58216 0.26968 0.46332 0.0
C2572 C 0.56229 0.2507 0.41388 0.0
C2573 C 0.57694 0.27269 0.48357 0.0
C2574 C 0.55727 0.30265 0.33962 0.0
C2575 C 0.56416 0.29733 0.35876 0.0
C2576 C 0.58267 0.28395 0.39803 0.0
C2577 C 0.56751 0.26364 0.44918 0.0
C2578 C 0.57155 0.26445 0.4271 0.0
C2579 C 0.56824 0.27709 0.36357 0.0
C2580 C 0.57188 0.2712 0.38495 0.0
H2581 H 0.52726 0.25969 0.48075 0.0
H2582 H 0.53618 0.25467 0.44573 0.0
H2583 H 0.58973 0.29163 0.42849 0.0
H2584 H 0.55749 0.2561 0.3179 0.0
H2585 H 0.56986 0.24682 0.35132 0.0
C2586 C 0.05003 0.28017 0.72934 0.0
C2587 C 0.04574 0.26024 0.7351 0.0
C2588 C 0.0535 0.28492 0.70908 0.0
C2589 C 0.04089 0.29068 0.66518 0.0
H2590 H 0.06862 0.25564 0.62753 0.0
C2591 C 0.01657 0.27969 0.58286 0.0
C2592 C 0.03125 0.27588 0.56808 0.0
C2593 C 0.02212 0.28247 0.60298 0.0
C2594 C 0.06109 0.26583 0.63782 0.0
H2595 H 0.04336 0.22946 0.72443 0.0
H2596 H 0.0496 0.23767 0.68925 0.0
H2597 H 0.07331 0.25083 0.66368 0.0
H2598 H 0.06342 0.27333 0.56263 0.0
H2599 H 0.0731 0.27812 0.59785 0.0
H2600 H 0.02808 0.30519 0.63933 0.0
C2601 C 0.05022 0.24968 0.70028 0.0
C2602 C 0.06364 0.26294 0.65854 0.0
C2603 C 0.04655 0.24497 0.72047 0.0
C2604 C 0.05172 0.27622 0.57365 0.0
C2605 C 0.05727 0.27881 0.59384 0.0
C2606 C 0.03823 0.29348 0.64446 0.0
C2607 C 0.05301 0.26979 0.69425 0.0
C2608 C 0.05314 0.27497 0.67245 0.0
C2609 C 0.04248 0.28137 0.60881 0.0
C2610 C 0.04786 0.28073 0.63056 0.0
H2611 H 0.04949 0.2923 0.74025 0.0
H2612 H 0.05583 0.30053 0.70491 0.0
H2613 H 0.03245 0.30011 0.67549 0.0
H2614 H 0.00067 0.27959 0.57906 0.0
H2615 H 0.01033 0.28426 0.61413 0.0
loop_
_geom_bond_atom_site_label_1
_geom_bond_atom_site_label_2
_geom_bond_distance
_geom_bond_site_symmetry_2
_ccdc_geom_bond_type
Co0 O3 1.970 . S
Co0 N17 1.989 . S
Co0 O25 1.967 1_545 S
Co0 O32 1.920 . S
Co1 O4 1.966 . S
Co1 N10 2.022 . S
Co1 N18 1.993 . S
Co1 O26 1.914 1_545 S
C2 O3 1.258 . S
C2 O4 1.263 . S
O3 Co0 1.970 . S
O3 C2 1.258 . S
O4 Co1 1.966 . S
O4 C2 1.263 . S
C5 O6 1.220 1_455 S
C5 O32 1.335 . S
O6 C5 1.220 1_655 S
C7 C9 1.400 . S
C7 N10 1.351 . S
C7 C12 1.501 . S
C8 C9 1.387 . S
C8 N11 1.341 . S
C9 C7 1.400 . S
C9 C8 1.387 . S
N10 Co1 2.022 . S
N10 C7 1.351 . S
N10 N11 1.365 . S
N11 C8 1.341 . S
N11 N10 1.365 . S
N11 H31 0.862 . S
C12 C7 1.501 . S
C12 H13 0.961 . S
C12 H14 0.961 . S
C12 H15 0.960 . S
H13 C12 0.961 . S
H14 C12 0.961 . S
H15 C12 0.960 . S
C16 N17 1.342 . S
C16 C20 1.401 . S
C16 C21 1.499 . S
N17 Co0 1.989 . S
N17 C16 1.342 . S
N17 N18 1.388 . S
N18 Co1 1.993 . S
N18 N17 1.388 . S
N18 C19 1.346 . S
C19 N18 1.346 . S
C19 C20 1.396 . S
C19 C29 1.510 . S
C20 C16 1.401 . S
C20 C19 1.396 . S
C21 C16 1.499 . S
C21 H22 0.959 . S
C21 H23 0.960 . S
C21 H24 0.961 . S
H22 C21 0.959 . S
H23 C21 0.960 . S
H24 C21 0.961 . S
O25 Co0 1.967 1_565 S
O25 C33 1.258 . S
O26 Co1 1.914 1_565 S
O26 C33 1.286 . S
H27 C29 0.959 . S
H28 C29 0.961 . S
C29 C19 1.510 . S
C29 H27 0.959 . S
C29 H28 0.961 . S
C29 H30 0.960 . S
H30 C29 0.960 . S
H31 N11 0.862 . S
O32 Co0 1.920 . S
O32 C5 1.335 . S
C33 O25 1.258 . S
C33 O26 1.286 . S
Co34 O37 1.970 . S
Co34 N51 1.989 1_556 S
Co34 O59 1.967 . S
Co34 O66 1.920 1_556 S
Co35 O38 1.966 . S
Co35 N44 2.022 . S
Co35 N52 1.993 . S
Co35 O60 1.941 . S
C36 O37 1.258 . S
C36 O38 1.263 . S
O37 Co34 1.970 . S
O37 C36 1.258 . S
O38 Co35 1.966 . S
O38 C36 1.263 . S
C39 O40 1.235 . S
C39 O66 1.289 . S
O40 C39 1.235 . S
C41 C43 1.400 . S
C41 N44 1.351 . S
C41 C46 1.501 . S
C42 C43 1.387 . S
C42 N45 1.341 . S
C43 C41 1.400 . S
C43 C42 1.387 . S
N44 Co35 2.022 . S
N44 C41 1.351 . S
N44 N45 1.365 . S
N45 C42 1.341 . S
N45 N44 1.365 . S
N45 H65 0.862 . S
C46 C41 1.501 . S
C46 H47 0.961 . S
C46 H48 0.961 . S
C46 H49 0.960 . S
H47 C46 0.961 . S
H48 C46 0.961 . S
H49 C46 0.960 . S
C50 N51 1.342 . S
C50 C54 1.401 . S
C50 C55 1.499 . S
N51 Co34 1.989 1_554 S
N51 C50 1.342 . S
N51 N52 1.388 1_554 S
N52 Co35 1.993 . S
N52 N51 1.388 1_556 S
N52 C53 1.346 . S
C53 N52 1.346 . S
C53 C54 1.396 1_556 S
C53 C63 1.510 . S
C54 C50 1.401 . S
C54 C53 1.396 1_554 S
C55 C50 1.499 . S
C55 H56 0.959 . S
C55 H57 0.960 . S
C55 H58 0.961 . S
H56 C55 0.959 . S
H57 C55 0.960 . S
H58 C55 0.961 . S
O59 Co34 1.967 . S
O59 C67 1.258 . S
O60 Co35 1.941 . S
O60 C67 1.266 . S
H61 C63 0.959 . S
H62 C63 0.961 . S
C63 C53 1.510 . S
C63 H61 0.959 . S
C63 H62 0.961 . S
C63 H64 0.960 . S
H64 C63 0.960 . S
H65 N45 0.862 . S
O66 Co34 1.920 1_554 S
O66 C39 1.289 . S
C67 O59 1.258 . S
C67 O60 1.266 . S
Co68 O71 1.970 . S
Co68 N85 1.989 . S
Co68 O93 1.967 . S
Co68 O100 1.920 . S
Co69 O72 1.966 . S
Co69 N78 2.022 . S
Co69 N86 1.993 . S
Co69 O94 1.941 . S
C70 O71 1.258 . S
C70 O72 1.263 . S
O71 Co68 1.970 . S
O71 C70 1.258 . S
O72 Co69 1.966 . S
O72 C70 1.263 . S
C73 O74 1.235 . S
C73 O100 1.289 . S
O74 C73 1.235 . S
C75 C77 1.400 . S
C75 N78 1.351 . S
C75 C80 1.501 . S
C76 C77 1.387 . S
C76 N79 1.341 . S
C77 C75 1.400 . S
C77 C76 1.387 . S
N78 Co69 2.022 . S
N78 C75 1.351 . S
N78 N79 1.365 . S
N79 C76 1.341 . S
N79 N78 1.365 . S
N79 H99 0.862 . S
C80 C75 1.501 . S
C80 H81 0.961 . S
C80 H82 0.961 . S
C80 H83 0.960 . S
H81 C80 0.961 . S
H82 C80 0.961 . S
H83 C80 0.960 . S
C84 N85 1.342 . S
C84 C88 1.401 1_545 S
C84 C89 1.499 . S
N85 Co68 1.989 . S
N85 C84 1.342 . S
N85 N86 1.388 . S
N86 Co69 1.993 . S
N86 N85 1.388 . S
N86 C87 1.363 . S
C87 N86 1.363 . S
C87 C88 1.391 1_545 S
C87 C97 1.501 1_545 S
C88 C84 1.401 1_565 S
C88 C87 1.391 1_565 S
C89 C84 1.499 . S
C89 H90 0.959 . S
C89 H91 0.960 . S
C89 H92 0.961 . S
H90 C89 0.959 . S
H91 C89 0.960 . S
H92 C89 0.961 . S
O93 Co68 1.967 . S
O93 C101 1.258 . S
O94 Co69 1.941 . S
O94 C101 1.266 . S
H95 C97 0.959 . S
H96 C97 0.961 . S
C97 C87 1.501 1_565 S
C97 H95 0.959 . S
C97 H96 0.961 . S
C97 H98 0.960 . S
H98 C97 0.960 . S
H99 N79 0.862 . S
O100 Co68 1.920 . S
O100 C73 1.289 . S
C101 O93 1.258 . S
C101 O94 1.266 . S
Co102 O105 1.970 . S
Co102 N119 1.989 . S
Co102 O127 1.967 . S
Co102 O134 1.920 . S
Co103 O106 1.966 . S
Co103 N112 2.022 . S
Co103 N120 1.993 . S
Co103 O128 1.941 . S
C104 O105 1.258 . S
C104 O106 1.263 . S
O105 Co102 1.970 . S
O105 C104 1.258 . S
O106 Co103 1.966 . S
O106 C104 1.263 . S
C107 O108 1.235 . S
C107 O134 1.289 . S
O108 C107 1.235 . S
C109 C111 1.400 . S
C109 N112 1.351 . S
C109 C114 1.501 . S
C110 C111 1.387 . S
C110 N113 1.341 . S
C111 C109 1.400 . S
C111 C110 1.387 . S
N112 Co103 2.022 . S
N112 C109 1.351 . S
N112 N113 1.365 . S
N113 C110 1.341 . S
N113 N112 1.365 . S
N113 H133 0.862 . S
C114 C109 1.501 . S
C114 H115 0.961 . S
C114 H116 0.961 . S
C114 H117 0.960 . S
H115 C114 0.961 . S
H116 C114 0.961 . S
H117 C114 0.960 . S
C118 N119 1.342 . S
C118 C122 1.401 . S
C118 C123 1.499 . S
N119 Co102 1.989 . S
N119 C118 1.342 . S
N119 N120 1.388 . S
N120 Co103 1.993 . S
N120 N119 1.388 . S
N120 C121 1.346 . S
C121 N120 1.346 . S
C121 C122 1.396 . S
C121 C131 1.510 . S
C122 C118 1.401 . S
C122 C121 1.396 . S
C123 C118 1.499 . S
C123 H124 0.959 . S
C123 H125 0.960 . S
C123 H126 0.961 . S
H124 C123 0.959 . S
H125 C123 0.960 . S
H126 C123 0.961 . S
O127 Co102 1.967 . S
O127 C135 1.258 . S
O128 Co103 1.941 . S
O128 C135 1.266 . S
H129 C131 0.959 . S
H130 C131 0.961 . S
C131 C121 1.510 . S
C131 H129 0.959 . S
C131 H130 0.961 . S
C131 H132 0.960 . S
H132 C131 0.960 . S
H133 N113 0.862 . S
O134 Co102 1.920 . S
O134 C107 1.289 . S
C135 O127 1.258 . S
C135 O128 1.266 . S
Co136 O139 1.970 . S
Co136 N153 1.989 . S
Co136 O161 1.967 . S
Co136 O168 1.920 . S
Co137 O140 1.966 . S
Co137 N146 2.022 . S
Co137 N154 1.993 . S
Co137 O162 1.941 . S
C138 O139 1.258 . S
C138 O140 1.263 . S
O139 Co136 1.970 . S
O139 C138 1.258 . S
O140 Co137 1.966 . S
O140 C138 1.263 . S
C141 O142 1.235 . S
C141 O168 1.289 . S
O142 C141 1.235 . S
C143 C145 1.400 . S
C143 N146 1.351 . S
C143 C148 1.501 . S
C144 C145 1.387 . S
C144 N147 1.341 . S
C145 C143 1.400 . S
C145 C144 1.387 . S
N146 Co137 2.022 . S
N146 C143 1.351 . S
N146 N147 1.365 . S
N147 C144 1.341 . S
N147 N146 1.365 . S
N147 H167 0.862 . S
C148 C143 1.501 . S
C148 H149 0.961 . S
C148 H150 0.961 . S
C148 H151 0.960 . S
H149 C148 0.961 . S
H150 C148 0.961 . S
H151 C148 0.960 . S
C152 N153 1.342 . S
C152 C156 1.401 . S
C152 C157 1.499 . S
N153 Co136 1.989 . S
N153 C152 1.342 . S
N153 N154 1.388 . S
N154 Co137 1.993 . S
N154 N153 1.388 . S
N154 C155 1.346 . S
C155 N154 1.346 . S
C155 C156 1.396 . S
C155 C165 1.510 . S
C156 C152 1.401 . S
C156 C155 1.396 . S
C157 C152 1.499 . S
C157 H158 0.959 . S
C157 H159 0.960 . S
C157 H160 0.961 . S
H158 C157 0.959 . S
H159 C157 0.960 . S
H160 C157 0.961 . S
O161 Co136 1.967 . S
O161 C169 1.258 . S
O162 Co137 1.941 . S
O162 C169 1.266 . S
H163 C165 0.959 . S
H164 C165 0.961 . S
C165 C155 1.510 . S
C165 H163 0.959 . S
C165 H164 0.961 . S
C165 H166 0.960 . S
H166 C165 0.960 . S
H167 N147 0.862 . S
O168 Co136 1.920 . S
O168 C141 1.289 . S
C169 O161 1.258 . S
C169 O162 1.266 . S
Co170 O173 1.970 . S
Co170 N187 1.989 . S
Co170 O195 1.967 . S
Co170 O202 1.920 . S
Co171 O174 1.966 . S
Co171 N180 2.022 . S
Co171 N188 1.993 . S
Co171 O196 1.941 . S
C172 O173 1.258 . S
C172 O174 1.263 . S
O173 Co170 1.970 . S
O173 C172 1.258 . S
O174 Co171 1.966 . S
O174 C172 1.263 . S
C175 O176 1.235 . S
C175 O202 1.289 . S
O176 C175 1.235 . S
C177 C179 1.400 . S
C177 N180 1.351 . S
C177 C182 1.501 . S
C178 C179 1.387 . S
C178 N181 1.341 . S
C179 C177 1.400 . S
C179 C178 1.387 . S
N180 Co171 2.022 . S
N180 C177 1.351 . S
N180 N181 1.365 . S
N181 C178 1.341 . S
N181 N180 1.365 . S
N181 H201 0.862 . S
C182 C177 1.501 . S
C182 H183 0.961 . S
C182 H184 0.961 . S
C182 H185 0.960 . S
H183 C182 0.961 . S
H184 C182 0.961 . S
H185 C182 0.960 . S
C186 N187 1.342 . S
C186 C190 1.401 . S
C186 C191 1.499 . S
N187 Co170 1.989 . S
N187 C186 1.342 . S
N187 N188 1.388 . S
N188 Co171 1.993 . S
N188 N187 1.388 . S
N188 C189 1.346 . S
C189 N188 1.346 . S
C189 C190 1.396 . S
C189 C199 1.510 . S
C190 C186 1.401 . S
C190 C189 1.396 . S
C191 C186 1.499 . S
C191 H192 0.959 . S
C191 H193 0.960 . S
C191 H194 0.961 . S
H192 C191 0.959 . S
H193 C191 0.960 . S
H194 C191 0.961 . S
O195 Co170 1.967 . S
O195 C203 1.258 . S
O196 Co171 1.941 . S
O196 C203 1.266 . S
H197 C199 0.959 . S
H198 C199 0.961 . S
C199 C189 1.510 . S
C199 H197 0.959 . S
C199 H198 0.961 . S
C199 H200 0.960 . S
H200 C199 0.960 . S
H201 N181 0.862 . S
O202 Co170 1.920 . S
O202 C175 1.289 . S
C203 O195 1.258 . S
C203 O196 1.266 . S
Co204 O207 1.970 . S
Co204 N221 1.989 . S
Co204 O229 1.967 . S
Co204 O236 1.920 . S
Co205 O208 1.966 1_655 S
Co205 N214 2.022 . S
Co205 N222 2.006 . S
Co205 O230 1.941 . S
C206 O207 1.258 . S
C206 O208 1.263 . S
O207 Co204 1.970 . S
O207 C206 1.258 . S
O208 Co205 1.966 1_455 S
O208 C206 1.263 . S
C209 O210 1.235 . S
C209 O236 1.289 . S
O210 C209 1.235 . S
C211 C213 1.400 . S
C211 N214 1.351 . S
C211 C216 1.501 . S
C212 C213 1.387 . S
C212 N215 1.341 . S
C213 C211 1.400 . S
C213 C212 1.387 . S
N214 Co205 2.022 . S
N214 C211 1.351 . S
N214 N215 1.365 . S
N215 C212 1.341 . S
N215 N214 1.365 . S
N215 H235 0.862 . S
C216 C211 1.501 . S
C216 H217 0.973 . S
C216 H218 0.961 . S
C216 H219 0.960 . S
H217 C216 0.973 . S
H218 C216 0.961 . S
H219 C216 0.960 . S
C220 N221 1.342 . S
C220 C224 1.423 . S
C220 C225 1.499 . S
N221 Co204 1.989 . S
N221 C220 1.342 . S
N221 N222 1.361 1_455 S
N222 Co205 2.006 . S
N222 N221 1.361 1_655 S
N222 C223 1.361 . S
C223 N222 1.361 . S
C223 C224 1.382 1_655 S
C223 C233 1.510 . S
C224 C220 1.423 . S
C224 C223 1.382 1_455 S
C225 C220 1.499 . S
C225 H226 0.959 . S
C225 H227 0.960 . S
C225 H228 0.961 . S
H226 C225 0.959 . S
H227 C225 0.960 . S
H228 C225 0.961 . S
O229 Co204 1.967 . S
O229 C237 1.258 1_455 S
O230 Co205 1.941 . S
O230 C237 1.266 . S
H231 C233 0.959 . S
H232 C233 0.961 . S
C233 C223 1.510 . S
C233 H231 0.959 . S
C233 H232 0.961 . S
C233 H234 0.960 . S
H234 C233 0.960 . S
H235 N215 0.862 . S
O236 Co204 1.920 . S
O236 C209 1.289 . S
C237 O229 1.258 1_655 S
C237 O230 1.266 . S
Co238 O241 1.970 . S
Co238 N255 1.989 . S
Co238 O263 1.967 . S
Co238 O270 1.920 . S
Co239 O242 1.966 . S
Co239 N248 2.022 . S
Co239 N256 1.993 . S
Co239 O264 1.941 . S
C240 O241 1.258 . S
C240 O242 1.263 . S
O241 Co238 1.970 . S
O241 C240 1.258 . S
O242 Co239 1.966 . S
O242 C240 1.263 . S
C243 O244 1.235 . S
C243 O270 1.289 . S
O244 C243 1.235 . S
C245 C247 1.400 . S
C245 N248 1.351 . S
C245 C250 1.501 . S
C246 C247 1.387 . S
C246 N249 1.341 . S
C247 C245 1.400 . S
C247 C246 1.387 . S
N248 Co239 2.022 . S
N248 C245 1.351 . S
N248 N249 1.365 . S
N249 C246 1.341 . S
N249 N248 1.365 . S
N249 H269 0.862 . S
C250 C245 1.501 . S
C250 H251 0.961 . S
C250 H252 0.961 . S
C250 H253 0.960 . S
H251 C250 0.961 . S
H252 C250 0.961 . S
H253 C250 0.960 . S
C254 N255 1.342 . S
C254 C258 1.401 . S
C254 C259 1.499 . S
N255 Co238 1.989 . S
N255 C254 1.342 . S
N255 N256 1.388 . S
N256 Co239 1.993 . S
N256 N255 1.388 . S
N256 C257 1.346 . S
C257 N256 1.346 . S
C257 C258 1.396 . S
C257 C267 1.510 . S
C258 C254 1.401 . S
C258 C257 1.396 . S
C259 C254 1.499 . S
C259 H260 0.959 . S
C259 H261 0.960 . S
C259 H262 0.961 . S
H260 C259 0.959 . S
H261 C259 0.960 . S
H262 C259 0.961 . S
O263 Co238 1.967 . S
O263 C271 1.258 . S
O264 Co239 1.941 . S
O264 C271 1.266 . S
H265 C267 0.959 . S
H266 C267 0.961 . S
C267 C257 1.510 . S
C267 H265 0.959 . S
C267 H266 0.961 . S
C267 H268 0.960 . S
H268 C267 0.960 . S
H269 N249 0.862 . S
O270 Co238 1.920 . S
O270 C243 1.289 . S
C271 O263 1.258 . S
C271 O264 1.266 . S
Co272 O275 1.970 . S
Co272 N289 1.989 . S
Co272 O297 1.967 1_554 S
Co272 O304 1.920 . S
Co273 O276 1.966 . S
Co273 N282 2.022 . S
Co273 N290 1.993 . S
Co273 O298 1.914 1_554 S
C274 O275 1.258 . S
C274 O276 1.263 . S
O275 Co272 1.970 . S
O275 C274 1.258 . S
O276 Co273 1.966 . S
O276 C274 1.263 . S
C277 O278 1.220 1_545 S
C277 O304 1.335 . S
O278 C277 1.220 1_565 S
C279 C281 1.400 . S
C279 N282 1.351 . S
C279 C284 1.501 . S
C280 C281 1.387 . S
C280 N283 1.341 . S
C281 C279 1.400 . S
C281 C280 1.387 . S
N282 Co273 2.022 . S
N282 C279 1.351 . S
N282 N283 1.365 . S
N283 C280 1.341 . S
N283 N282 1.365 . S
N283 H303 0.862 . S
C284 C279 1.501 . S
C284 H285 0.961 . S
C284 H286 0.961 . S
C284 H287 0.960 . S
H285 C284 0.961 . S
H286 C284 0.961 . S
H287 C284 0.960 . S
C288 N289 1.342 . S
C288 C292 1.401 . S
C288 C293 1.499 . S
N289 Co272 1.989 . S
N289 C288 1.342 . S
N289 N290 1.388 . S
N290 Co273 1.993 . S
N290 N289 1.388 . S
N290 C291 1.346 . S
C291 N290 1.346 . S
C291 C292 1.396 . S
C291 C301 1.510 . S
C292 C288 1.401 . S
C292 C291 1.396 . S
C293 C288 1.499 . S
C293 H294 0.959 . S
C293 H295 0.960 . S
C293 H296 0.961 . S
H294 C293 0.959 . S
H295 C293 0.960 . S
H296 C293 0.961 . S
O297 Co272 1.967 1_556 S
O297 C305 1.258 . S
O298 Co273 1.914 1_556 S
O298 C305 1.286 . S
H299 C301 0.959 . S
H300 C301 0.961 . S
C301 C291 1.510 . S
C301 H299 0.959 . S
C301 H300 0.961 . S
C301 H302 0.960 . S
H302 C301 0.960 . S
H303 N283 0.862 . S
O304 Co272 1.920 . S
O304 C277 1.335 . S
C305 O297 1.258 . S
C305 O298 1.286 . S
Co306 O309 1.970 . S
Co306 N323 1.989 . S
Co306 O331 1.967 . S
Co306 O338 1.920 . S
Co307 O310 1.966 . S
Co307 N316 2.022 . S
Co307 N324 1.993 . S
Co307 O332 1.941 . S
C308 O309 1.258 . S
C308 O310 1.263 . S
O309 Co306 1.970 . S
O309 C308 1.258 . S
O310 Co307 1.966 . S
O310 C308 1.263 . S
C311 O312 1.235 . S
C311 O338 1.289 . S
O312 C311 1.235 . S
C313 C315 1.400 . S
C313 N316 1.351 . S
C313 C318 1.501 . S
C314 C315 1.387 . S
C314 N317 1.341 . S
C315 C313 1.400 . S
C315 C314 1.387 . S
N316 Co307 2.022 . S
N316 C313 1.351 . S
N316 N317 1.365 . S
N317 C314 1.341 . S
N317 N316 1.365 . S
N317 H337 0.862 . S
C318 C313 1.501 . S
C318 H319 0.961 . S
C318 H320 0.961 . S
C318 H321 0.960 . S
H319 C318 0.961 . S
H320 C318 0.961 . S
H321 C318 0.960 . S
C322 N323 1.342 . S
C322 C326 1.401 . S
C322 C327 1.499 . S
N323 Co306 1.989 . S
N323 C322 1.342 . S
N323 N324 1.388 . S
N324 Co307 1.993 . S
N324 N323 1.388 . S
N324 C325 1.346 . S
C325 N324 1.346 . S
C325 C326 1.396 . S
C325 C335 1.510 . S
C326 C322 1.401 . S
C326 C325 1.396 . S
C327 C322 1.499 . S
C327 H328 0.959 . S
C327 H329 0.960 . S
C327 H330 0.961 . S
H328 C327 0.959 . S
H329 C327 0.960 . S
H330 C327 0.961 . S
O331 Co306 1.967 . S
O331 C339 1.258 . S
O332 Co307 1.941 . S
O332 C339 1.266 . S
H333 C335 0.959 . S
H334 C335 0.961 . S
C335 C325 1.510 . S
C335 H333 0.959 . S
C335 H334 0.961 . S
C335 H336 0.960 . S
H336 C335 0.960 . S
H337 N317 0.862 . S
O338 Co306 1.920 . S
O338 C311 1.289 . S
C339 O331 1.258 . S
C339 O332 1.266 . S
Co340 O343 1.970 . S
Co340 N357 1.989 . S
Co340 O365 1.967 . S
Co340 O372 1.920 . S
Co341 O344 1.966 1_565 S
Co341 N350 2.022 . S
Co341 N358 2.006 . S
Co341 O366 1.941 . S
C342 O343 1.258 . S
C342 O344 1.263 . S
O343 Co340 1.970 . S
O343 C342 1.258 . S
O344 Co341 1.966 1_545 S
O344 C342 1.263 . S
C345 O346 1.235 . S
C345 O372 1.289 . S
O346 C345 1.235 . S
C347 C349 1.400 . S
C347 N350 1.351 . S
C347 C352 1.501 . S
C348 C349 1.387 . S
C348 N351 1.341 . S
C349 C347 1.400 . S
C349 C348 1.387 . S
N350 Co341 2.022 . S
N350 C347 1.351 . S
N350 N351 1.365 . S
N351 C348 1.341 . S
N351 N350 1.365 . S
N351 H371 0.862 . S
C352 C347 1.501 . S
C352 H353 0.973 . S
C352 H354 0.961 . S
C352 H355 0.960 . S
H353 C352 0.973 . S
H354 C352 0.961 . S
H355 C352 0.960 . S
C356 N357 1.342 . S
C356 C360 1.423 . S
C356 C361 1.499 . S
N357 Co340 1.989 . S
N357 C356 1.342 . S
N357 N358 1.361 1_545 S
N358 Co341 2.006 . S
N358 N357 1.361 1_565 S
N358 C359 1.361 . S
C359 N358 1.361 . S
C359 C360 1.382 1_565 S
C359 C369 1.510 . S
C360 C356 1.423 . S
C360 C359 1.382 1_545 S
C361 C356 1.499 . S
C361 H362 0.959 . S
C361 H363 0.960 . S
C361 H364 0.961 . S
H362 C361 0.959 . S
H363 C361 0.960 . S
H364 C361 0.961 . S
O365 Co340 1.967 . S
O365 C373 1.258 1_545 S
O366 Co341 1.941 . S
O366 C373 1.266 . S
H367 C369 0.959 . S
H368 C369 0.961 . S
C369 C359 1.510 . S
C369 H367 0.959 . S
C369 H368 0.961 . S
C369 H370 0.960 . S
H370 C369 0.960 . S
H371 N351 0.862 . S
O372 Co340 1.920 . S
O372 C345 1.289 . S
C373 O365 1.258 1_565 S
C373 O366 1.266 . S
Co374 O377 1.970 . S
Co374 N391 1.989 . S
Co374 O399 1.967 . S
Co374 O406 1.920 . S
Co375 O378 1.966 . S
Co375 N384 2.022 . S
Co375 N392 1.993 . S
Co375 O400 1.941 . S
C376 O377 1.258 . S
C376 O378 1.263 . S
O377 Co374 1.970 . S
O377 C376 1.258 . S
O378 Co375 1.966 . S
O378 C376 1.263 . S
C379 O380 1.235 . S
C379 O406 1.289 . S
O380 C379 1.235 . S
C381 C383 1.400 . S
C381 N384 1.351 . S
C381 C386 1.501 . S
C382 C383 1.387 . S
C382 N385 1.341 . S
C383 C381 1.400 . S
C383 C382 1.387 . S
N384 Co375 2.022 . S
N384 C381 1.351 . S
N384 N385 1.365 . S
N385 C382 1.341 . S
N385 N384 1.365 . S
N385 H405 0.862 . S
C386 C381 1.501 . S
C386 H387 0.961 . S
C386 H388 0.961 . S
C386 H389 0.960 . S
H387 C386 0.961 . S
H388 C386 0.961 . S
H389 C386 0.960 . S
C390 N391 1.342 . S
C390 C394 1.401 . S
C390 C395 1.499 . S
N391 Co374 1.989 . S
N391 C390 1.342 . S
N391 N392 1.388 . S
N392 Co375 1.993 . S
N392 N391 1.388 . S
N392 C393 1.346 . S
C393 N392 1.346 . S
C393 C394 1.396 . S
C393 C403 1.510 . S
C394 C390 1.401 . S
C394 C393 1.396 . S
C395 C390 1.499 . S
C395 H396 0.959 . S
C395 H397 0.960 . S
C395 H398 0.961 . S
H396 C395 0.959 . S
H397 C395 0.960 . S
H398 C395 0.961 . S
O399 Co374 1.967 . S
O399 C407 1.258 . S
O400 Co375 1.941 . S
O400 C407 1.266 . S
H401 C403 0.959 . S
H402 C403 0.961 . S
C403 C393 1.510 . S
C403 H401 0.959 . S
C403 H402 0.961 . S
C403 H404 0.960 . S
H404 C403 0.960 . S
H405 N385 0.862 . S
O406 Co374 1.920 . S
O406 C379 1.289 . S
C407 O399 1.258 . S
C407 O400 1.266 . S
Co408 O411 1.970 . S
Co408 N425 1.989 . S
Co408 O433 1.967 . S
Co408 O440 1.920 . S
Co409 O412 1.966 . S
Co409 N418 2.022 . S
Co409 N426 1.993 . S
Co409 O434 1.941 . S
C410 O411 1.258 . S
C410 O412 1.263 . S
O411 Co408 1.970 . S
O411 C410 1.258 . S
O412 Co409 1.966 . S
O412 C410 1.263 . S
C413 O414 1.235 . S
C413 O440 1.289 . S
O414 C413 1.235 . S
C415 C417 1.400 . S
C415 N418 1.351 . S
C415 C420 1.501 . S
C416 C417 1.387 . S
C416 N419 1.341 . S
C417 C415 1.400 . S
C417 C416 1.387 . S
N418 Co409 2.022 . S
N418 C415 1.351 . S
N418 N419 1.365 . S
N419 C416 1.341 . S
N419 N418 1.365 . S
N419 H439 0.862 . S
C420 C415 1.501 . S
C420 H421 0.961 . S
C420 H422 0.961 . S
C420 H423 0.960 . S
H421 C420 0.961 . S
H422 C420 0.961 . S
H423 C420 0.960 . S
C424 N425 1.342 . S
C424 C428 1.401 1_554 S
C424 C429 1.499 . S
N425 Co408 1.989 . S
N425 C424 1.342 . S
N425 N426 1.388 . S
N426 Co409 1.993 . S
N426 N425 1.388 . S
N426 C427 1.363 . S
C427 N426 1.363 . S
C427 C428 1.391 1_554 S
C427 C437 1.501 1_554 S
C428 C424 1.401 1_556 S
C428 C427 1.391 1_556 S
C429 C424 1.499 . S
C429 H430 0.959 . S
C429 H431 0.960 . S
C429 H432 0.961 . S
H430 C429 0.959 . S
H431 C429 0.960 . S
H432 C429 0.961 . S
O433 Co408 1.967 . S
O433 C441 1.258 . S
O434 Co409 1.941 . S
O434 C441 1.266 . S
H435 C437 0.959 . S
H436 C437 0.961 . S
C437 C427 1.501 1_556 S
C437 H435 0.959 . S
C437 H436 0.961 . S
C437 H438 0.960 . S
H438 C437 0.960 . S
H439 N419 0.862 . S
O440 Co408 1.920 . S
O440 C413 1.289 . S
C441 O433 1.258 . S
C441 O434 1.266 . S
Co442 O445 1.970 . S
Co442 N459 1.989 1_565 S
Co442 O467 1.967 . S
Co442 O474 1.920 1_565 S
Co443 O446 1.966 . S
Co443 N452 2.022 . S
Co443 N460 1.993 . S
Co443 O468 1.941 . S
C444 O445 1.258 . S
C444 O446 1.263 . S
O445 Co442 1.970 . S
O445 C444 1.258 . S
O446 Co443 1.966 . S
O446 C444 1.263 . S
C447 O448 1.235 . S
C447 O474 1.289 . S
O448 C447 1.235 . S
C449 C451 1.400 . S
C449 N452 1.351 . S
C449 C454 1.501 . S
C450 C451 1.387 . S
C450 N453 1.341 . S
C451 C449 1.400 . S
C451 C450 1.387 . S
N452 Co443 2.022 . S
N452 C449 1.351 . S
N452 N453 1.365 . S
N453 C450 1.341 . S
N453 N452 1.365 . S
N453 H473 0.862 . S
C454 C449 1.501 . S
C454 H455 0.961 . S
C454 H456 0.961 . S
C454 H457 0.960 . S
H455 C454 0.961 . S
H456 C454 0.961 . S
H457 C454 0.960 . S
C458 N459 1.342 . S
C458 C462 1.401 . S
C458 C463 1.499 . S
N459 Co442 1.989 1_545 S
N459 C458 1.342 . S
N459 N460 1.388 1_545 S
N460 Co443 1.993 . S
N460 N459 1.388 1_565 S
N460 C461 1.346 . S
C461 N460 1.346 . S
C461 C462 1.396 1_565 S
C461 C471 1.510 . S
C462 C458 1.401 . S
C462 C461 1.396 1_545 S
C463 C458 1.499 . S
C463 H464 0.959 . S
C463 H465 0.960 . S
C463 H466 0.961 . S
H464 C463 0.959 . S
H465 C463 0.960 . S
H466 C463 0.961 . S
O467 Co442 1.967 . S
O467 C475 1.258 . S
O468 Co443 1.941 . S
O468 C475 1.266 . S
H469 C471 0.959 . S
H470 C471 0.961 . S
C471 C461 1.510 . S
C471 H469 0.959 . S
C471 H470 0.961 . S
C471 H472 0.960 . S
H472 C471 0.960 . S
H473 N453 0.862 . S
O474 Co442 1.920 1_545 S
O474 C447 1.289 . S
C475 O467 1.258 . S
C475 O468 1.266 . S
Co476 O479 1.970 . S
Co476 N493 1.989 . S
Co476 O501 1.967 . S
Co476 O508 1.920 . S
Co477 O480 1.966 . S
Co477 N486 2.022 . S
Co477 N494 1.993 . S
Co477 O502 1.941 . S
C478 O479 1.258 . S
C478 O480 1.263 . S
O479 Co476 1.970 . S
O479 C478 1.258 . S
O480 Co477 1.966 . S
O480 C478 1.263 . S
C481 O482 1.235 . S
C481 O508 1.289 . S
O482 C481 1.235 . S
C483 C485 1.400 . S
C483 N486 1.351 . S
C483 C488 1.501 . S
C484 C485 1.387 . S
C484 N487 1.341 . S
C485 C483 1.400 . S
C485 C484 1.387 . S
N486 Co477 2.022 . S
N486 C483 1.351 . S
N486 N487 1.365 . S
N487 C484 1.341 . S
N487 N486 1.365 . S
N487 H507 0.862 . S
C488 C483 1.501 . S
C488 H489 0.961 . S
C488 H490 0.961 . S
C488 H491 0.960 . S
H489 C488 0.961 . S
H490 C488 0.961 . S
H491 C488 0.960 . S
C492 N493 1.342 . S
C492 C496 1.401 . S
C492 C497 1.499 . S
N493 Co476 1.989 . S
N493 C492 1.342 . S
N493 N494 1.388 . S
N494 Co477 1.993 . S
N494 N493 1.388 . S
N494 C495 1.346 . S
C495 N494 1.346 . S
C495 C496 1.396 . S
C495 C505 1.510 . S
C496 C492 1.401 . S
C496 C495 1.396 . S
C497 C492 1.499 . S
C497 H498 0.959 . S
C497 H499 0.960 . S
C497 H500 0.961 . S
H498 C497 0.959 . S
H499 C497 0.960 . S
H500 C497 0.961 . S
O501 Co476 1.967 . S
O501 C509 1.258 . S
O502 Co477 1.941 . S
O502 C509 1.266 . S
H503 C505 0.959 . S
H504 C505 0.961 . S
C505 C495 1.510 . S
C505 H503 0.959 . S
C505 H504 0.961 . S
C505 H506 0.960 . S
H506 C505 0.960 . S
H507 N487 0.862 . S
O508 Co476 1.920 . S
O508 C481 1.289 . S
C509 O501 1.258 . S
C509 O502 1.266 . S
Co510 O513 1.970 . S
Co510 N527 1.989 . S
Co510 O535 1.967 . S
Co510 O542 1.920 . S
Co511 O514 1.966 . S
Co511 N520 2.022 . S
Co511 N528 1.993 . S
Co511 O536 1.941 . S
C512 O513 1.258 . S
C512 O514 1.263 . S
O513 Co510 1.970 . S
O513 C512 1.258 . S
O514 Co511 1.966 . S
O514 C512 1.263 . S
C515 O516 1.235 . S
C515 O542 1.289 . S
O516 C515 1.235 . S
C517 C519 1.400 . S
C517 N520 1.351 . S
C517 C522 1.501 . S
C518 C519 1.387 . S
C518 N521 1.341 . S
C519 C517 1.400 . S
C519 C518 1.387 . S
N520 Co511 2.022 . S
N520 C517 1.351 . S
N520 N521 1.365 . S
N521 C518 1.341 . S
N521 N520 1.365 . S
N521 H541 0.862 . S
C522 C517 1.501 . S
C522 H523 0.961 . S
C522 H524 0.961 . S
C522 H525 0.960 . S
H523 C522 0.961 . S
H524 C522 0.961 . S
H525 C522 0.960 . S
C526 N527 1.342 . S
C526 C530 1.401 . S
C526 C531 1.499 . S
N527 Co510 1.989 . S
N527 C526 1.342 . S
N527 N528 1.388 . S
N528 Co511 1.993 . S
N528 N527 1.388 . S
N528 C529 1.346 . S
C529 N528 1.346 . S
C529 C530 1.396 . S
C529 C539 1.510 . S
C530 C526 1.401 . S
C530 C529 1.396 . S
C531 C526 1.499 . S
C531 H532 0.959 . S
C531 H533 0.960 . S
C531 H534 0.961 . S
H532 C531 0.959 . S
H533 C531 0.960 . S
H534 C531 0.961 . S
O535 Co510 1.967 . S
O535 C543 1.258 . S
O536 Co511 1.941 . S
O536 C543 1.266 . S
H537 C539 0.959 . S
H538 C539 0.961 . S
C539 C529 1.510 . S
C539 H537 0.959 . S
C539 H538 0.961 . S
C539 H540 0.960 . S
H540 C539 0.960 . S
H541 N521 0.862 . S
O542 Co510 1.920 . S
O542 C515 1.289 . S
C543 O535 1.258 . S
C543 O536 1.266 . S
Co544 O547 1.970 . S
Co544 N561 1.989 . S
Co544 O569 1.967 1_455 S
Co544 O576 1.920 . S
Co545 O548 1.966 . S
Co545 N554 2.022 . S
Co545 N562 1.993 . S
Co545 O570 1.914 1_455 S
C546 O547 1.258 . S
C546 O548 1.263 . S
O547 Co544 1.970 . S
O547 C546 1.258 . S
O548 Co545 1.966 . S
O548 C546 1.263 . S
C549 O550 1.220 1_554 S
C549 O576 1.335 . S
O550 C549 1.220 1_556 S
C551 C553 1.400 . S
C551 N554 1.351 . S
C551 C556 1.501 . S
C552 C553 1.387 . S
C552 N555 1.341 . S
C553 C551 1.400 . S
C553 C552 1.387 . S
N554 Co545 2.022 . S
N554 C551 1.351 . S
N554 N555 1.365 . S
N555 C552 1.341 . S
N555 N554 1.365 . S
N555 H575 0.862 . S
C556 C551 1.501 . S
C556 H557 0.961 . S
C556 H558 0.961 . S
C556 H559 0.960 . S
H557 C556 0.961 . S
H558 C556 0.961 . S
H559 C556 0.960 . S
C560 N561 1.342 . S
C560 C564 1.401 . S
C560 C565 1.499 . S
N561 Co544 1.989 . S
N561 C560 1.342 . S
N561 N562 1.388 . S
N562 Co545 1.993 . S
N562 N561 1.388 . S
N562 C563 1.346 . S
C563 N562 1.346 . S
C563 C564 1.396 . S
C563 C573 1.510 . S
C564 C560 1.401 . S
C564 C563 1.396 . S
C565 C560 1.499 . S
C565 H566 0.959 . S
C565 H567 0.960 . S
C565 H568 0.961 . S
H566 C565 0.959 . S
H567 C565 0.960 . S
H568 C565 0.961 . S
O569 Co544 1.967 1_655 S
O569 C577 1.258 . S
O570 Co545 1.914 1_655 S
O570 C577 1.286 . S
H571 C573 0.959 . S
H572 C573 0.961 . S
C573 C563 1.510 . S
C573 H571 0.959 . S
C573 H572 0.961 . S
C573 H574 0.960 . S
H574 C573 0.960 . S
H575 N555 0.862 . S
O576 Co544 1.920 . S
O576 C549 1.335 . S
C577 O569 1.258 . S
C577 O570 1.286 . S
Co578 O581 1.970 . S
Co578 N595 1.989 . S
Co578 O603 1.967 . S
Co578 O610 1.920 . S
Co579 O582 1.966 1_556 S
Co579 N588 2.022 . S
Co579 N596 2.006 . S
Co579 O604 1.941 . S
C580 O581 1.258 . S
C580 O582 1.263 . S
O581 Co578 1.970 . S
O581 C580 1.258 . S
O582 Co579 1.966 1_554 S
O582 C580 1.263 . S
C583 O584 1.235 . S
C583 O610 1.289 . S
O584 C583 1.235 . S
C585 C587 1.400 . S
C585 N588 1.351 . S
C585 C590 1.501 . S
C586 C587 1.387 . S
C586 N589 1.341 . S
C587 C585 1.400 . S
C587 C586 1.387 . S
N588 Co579 2.022 . S
N588 C585 1.351 . S
N588 N589 1.365 . S
N589 C586 1.341 . S
N589 N588 1.365 . S
N589 H609 0.862 . S
C590 C585 1.501 . S
C590 H591 0.973 . S
C590 H592 0.961 . S
C590 H593 0.960 . S
H591 C590 0.973 . S
H592 C590 0.961 . S
H593 C590 0.960 . S
C594 N595 1.342 . S
C594 C598 1.423 . S
C594 C599 1.499 . S
N595 Co578 1.989 . S
N595 C594 1.342 . S
N595 N596 1.361 1_554 S
N596 Co579 2.006 . S
N596 N595 1.361 1_556 S
N596 C597 1.361 . S
C597 N596 1.361 . S
C597 C598 1.382 1_556 S
C597 C607 1.510 . S
C598 C594 1.423 . S
C598 C597 1.382 1_554 S
C599 C594 1.499 . S
C599 H600 0.959 . S
C599 H601 0.960 . S
C599 H602 0.961 . S
H600 C599 0.959 . S
H601 C599 0.960 . S
H602 C599 0.961 . S
O603 Co578 1.967 . S
O603 C611 1.258 1_554 S
O604 Co579 1.941 . S
O604 C611 1.266 . S
H605 C607 0.959 . S
H606 C607 0.961 . S
C607 C597 1.510 . S
C607 H605 0.959 . S
C607 H606 0.961 . S
C607 H608 0.960 . S
H608 C607 0.960 . S
H609 N589 0.862 . S
O610 Co578 1.920 . S
O610 C583 1.289 . S
C611 O603 1.258 1_556 S
C611 O604 1.266 . S
Co612 O615 1.970 . S
Co612 N629 1.989 . S
Co612 O637 1.967 . S
Co612 O644 1.920 . S
Co613 O616 1.966 . S
Co613 N622 2.022 . S
Co613 N630 1.993 . S
Co613 O638 1.941 . S
C614 O615 1.258 . S
C614 O616 1.263 . S
O615 Co612 1.970 . S
O615 C614 1.258 . S
O616 Co613 1.966 . S
O616 C614 1.263 . S
C617 O618 1.235 . S
C617 O644 1.289 . S
O618 C617 1.235 . S
C619 C621 1.400 . S
C619 N622 1.351 . S
C619 C624 1.501 . S
C620 C621 1.387 . S
C620 N623 1.341 . S
C621 C619 1.400 . S
C621 C620 1.387 . S
N622 Co613 2.022 . S
N622 C619 1.351 . S
N622 N623 1.365 . S
N623 C620 1.341 . S
N623 N622 1.365 . S
N623 H643 0.862 . S
C624 C619 1.501 . S
C624 H625 0.961 . S
C624 H626 0.961 . S
C624 H627 0.960 . S
H625 C624 0.961 . S
H626 C624 0.961 . S
H627 C624 0.960 . S
C628 N629 1.342 . S
C628 C632 1.401 . S
C628 C633 1.499 . S
N629 Co612 1.989 . S
N629 C628 1.342 . S
N629 N630 1.388 . S
N630 Co613 1.993 . S
N630 N629 1.388 . S
N630 C631 1.346 . S
C631 N630 1.346 . S
C631 C632 1.396 . S
C631 C641 1.510 . S
C632 C628 1.401 . S
C632 C631 1.396 . S
C633 C628 1.499 . S
C633 H634 0.959 . S
C633 H635 0.960 . S
C633 H636 0.961 . S
H634 C633 0.959 . S
H635 C633 0.960 . S
H636 C633 0.961 . S
O637 Co612 1.967 . S
O637 C645 1.258 . S
O638 Co613 1.941 . S
O638 C645 1.266 . S
H639 C641 0.959 . S
H640 C641 0.961 . S
C641 C631 1.510 . S
C641 H639 0.959 . S
C641 H640 0.961 . S
C641 H642 0.960 . S
H642 C641 0.960 . S
H643 N623 0.862 . S
O644 Co612 1.920 . S
O644 C617 1.289 . S
C645 O637 1.258 . S
C645 O638 1.266 . S
Co646 O649 1.970 . S
Co646 N663 1.989 . S
Co646 O671 1.967 . S
Co646 O678 1.920 . S
Co647 O650 1.966 . S
Co647 N656 2.022 . S
Co647 N664 1.993 . S
Co647 O672 1.941 . S
C648 O649 1.258 . S
C648 O650 1.263 . S
O649 Co646 1.970 . S
O649 C648 1.258 . S
O650 Co647 1.966 . S
O650 C648 1.263 . S
C651 O652 1.235 . S
C651 O678 1.289 . S
O652 C651 1.235 . S
C653 C655 1.400 . S
C653 N656 1.351 . S
C653 C658 1.501 . S
C654 C655 1.387 . S
C654 N657 1.341 . S
C655 C653 1.400 . S
C655 C654 1.387 . S
N656 Co647 2.022 . S
N656 C653 1.351 . S
N656 N657 1.365 . S
N657 C654 1.341 . S
N657 N656 1.365 . S
N657 H677 0.862 . S
C658 C653 1.501 . S
C658 H659 0.961 . S
C658 H660 0.961 . S
C658 H661 0.960 . S
H659 C658 0.961 . S
H660 C658 0.961 . S
H661 C658 0.960 . S
C662 N663 1.342 . S
C662 C666 1.401 1_455 S
C662 C667 1.499 . S
N663 Co646 1.989 . S
N663 C662 1.342 . S
N663 N664 1.388 . S
N664 Co647 1.993 . S
N664 N663 1.388 . S
N664 C665 1.363 . S
C665 N664 1.363 . S
C665 C666 1.391 1_455 S
C665 C675 1.501 1_455 S
C666 C662 1.401 1_655 S
C666 C665 1.391 1_655 S
C667 C662 1.499 . S
C667 H668 0.959 . S
C667 H669 0.960 . S
C667 H670 0.961 . S
H668 C667 0.959 . S
H669 C667 0.960 . S
H670 C667 0.961 . S
O671 Co646 1.967 . S
O671 C679 1.258 . S
O672 Co647 1.941 . S
O672 C679 1.266 . S
H673 C675 0.959 . S
H674 C675 0.961 . S
C675 C665 1.501 1_655 S
C675 H673 0.959 . S
C675 H674 0.961 . S
C675 H676 0.960 . S
H676 C675 0.960 . S
H677 N657 0.862 . S
O678 Co646 1.920 . S
O678 C651 1.289 . S
C679 O671 1.258 . S
C679 O672 1.266 . S
Co680 O683 1.970 . S
Co680 N697 1.989 . S
Co680 O705 1.967 . S
Co680 O712 1.920 . S
Co681 O684 1.966 . S
Co681 N690 2.022 . S
Co681 N698 1.993 . S
Co681 O706 1.941 . S
C682 O683 1.258 . S
C682 O684 1.263 . S
O683 Co680 1.970 . S
O683 C682 1.258 . S
O684 Co681 1.966 . S
O684 C682 1.263 . S
C685 O686 1.235 . S
C685 O712 1.289 . S
O686 C685 1.235 . S
C687 C689 1.400 . S
C687 N690 1.351 . S
C687 C692 1.501 . S
C688 C689 1.387 . S
C688 N691 1.341 . S
C689 C687 1.400 . S
C689 C688 1.387 . S
N690 Co681 2.022 . S
N690 C687 1.351 . S
N690 N691 1.365 . S
N691 C688 1.341 . S
N691 N690 1.365 . S
N691 H711 0.862 . S
C692 C687 1.501 . S
C692 H693 0.961 . S
C692 H694 0.961 . S
C692 H695 0.960 . S
H693 C692 0.961 . S
H694 C692 0.961 . S
H695 C692 0.960 . S
C696 N697 1.342 . S
C696 C700 1.401 . S
C696 C701 1.499 . S
N697 Co680 1.989 . S
N697 C696 1.342 . S
N697 N698 1.388 . S
N698 Co681 1.993 . S
N698 N697 1.388 . S
N698 C699 1.346 . S
C699 N698 1.346 . S
C699 C700 1.396 . S
C699 C709 1.510 . S
C700 C696 1.401 . S
C700 C699 1.396 . S
C701 C696 1.499 . S
C701 H702 0.959 . S
C701 H703 0.960 . S
C701 H704 0.961 . S
H702 C701 0.959 . S
H703 C701 0.960 . S
H704 C701 0.961 . S
O705 Co680 1.967 . S
O705 C713 1.258 . S
O706 Co681 1.941 . S
O706 C713 1.266 . S
H707 C709 0.959 . S
H708 C709 0.961 . S
C709 C699 1.510 . S
C709 H707 0.959 . S
C709 H708 0.961 . S
C709 H710 0.960 . S
H710 C709 0.960 . S
H711 N691 0.862 . S
O712 Co680 1.920 . S
O712 C685 1.289 . S
C713 O705 1.258 . S
C713 O706 1.266 . S
Co714 O717 1.970 . S
Co714 N731 1.989 . S
Co714 O739 1.967 . S
Co714 O746 1.920 . S
Co715 O718 1.966 . S
Co715 N724 2.022 . S
Co715 N732 1.993 . S
Co715 O740 1.941 . S
C716 O717 1.258 . S
C716 O718 1.263 . S
O717 Co714 1.970 . S
O717 C716 1.258 . S
O718 Co715 1.966 . S
O718 C716 1.263 . S
C719 O720 1.235 . S
C719 O746 1.289 . S
O720 C719 1.235 . S
C721 C723 1.400 . S
C721 N724 1.351 . S
C721 C726 1.501 . S
C722 C723 1.387 . S
C722 N725 1.341 . S
C723 C721 1.400 . S
C723 C722 1.387 . S
N724 Co715 2.022 . S
N724 C721 1.351 . S
N724 N725 1.365 . S
N725 C722 1.341 . S
N725 N724 1.365 . S
N725 H745 0.862 . S
C726 C721 1.501 . S
C726 H727 0.961 . S
C726 H728 0.961 . S
C726 H729 0.960 . S
H727 C726 0.961 . S
H728 C726 0.961 . S
H729 C726 0.960 . S
C730 N731 1.342 . S
C730 C734 1.401 . S
C730 C735 1.499 . S
N731 Co714 1.989 . S
N731 C730 1.342 . S
N731 N732 1.388 . S
N732 Co715 1.993 . S
N732 N731 1.388 . S
N732 C733 1.346 . S
C733 N732 1.346 . S
C733 C734 1.396 . S
C733 C743 1.510 . S
C734 C730 1.401 . S
C734 C733 1.396 . S
C735 C730 1.499 . S
C735 H736 0.959 . S
C735 H737 0.960 . S
C735 H738 0.961 . S
H736 C735 0.959 . S
H737 C735 0.960 . S
H738 C735 0.961 . S
O739 Co714 1.967 . S
O739 C747 1.258 . S
O740 Co715 1.941 . S
O740 C747 1.266 . S
H741 C743 0.959 . S
H742 C743 0.961 . S
C743 C733 1.510 . S
C743 H741 0.959 . S
C743 H742 0.961 . S
C743 H744 0.960 . S
H744 C743 0.960 . S
H745 N725 0.862 . S
O746 Co714 1.920 . S
O746 C719 1.289 . S
C747 O739 1.258 . S
C747 O740 1.266 . S
Co748 O751 1.970 . S
Co748 N765 1.989 1_655 S
Co748 O773 1.967 . S
Co748 O780 1.920 1_655 S
Co749 O752 1.966 . S
Co749 N758 2.022 . S
Co749 N766 1.993 . S
Co749 O774 1.941 . S
C750 O751 1.258 . S
C750 O752 1.263 . S
O751 Co748 1.970 . S
O751 C750 1.258 . S
O752 Co749 1.966 . S
O752 C750 1.263 . S
C753 O754 1.235 . S
C753 O780 1.289 . S
O754 C753 1.235 . S
C755 C757 1.400 . S
C755 N758 1.351 . S
C755 C760 1.501 . S
C756 C757 1.387 . S
C756 N759 1.341 . S
C757 C755 1.400 . S
C757 C756 1.387 . S
N758 Co749 2.022 . S
N758 C755 1.351 . S
N758 N759 1.365 . S
N759 C756 1.341 . S
N759 N758 1.365 . S
N759 H779 0.862 . S
C760 C755 1.501 . S
C760 H761 0.961 . S
C760 H762 0.961 . S
C760 H763 0.960 . S
H761 C760 0.961 . S
H762 C760 0.961 . S
H763 C760 0.960 . S
C764 N765 1.342 . S
C764 C768 1.401 . S
C764 C769 1.499 . S
N765 Co748 1.989 1_455 S
N765 C764 1.342 . S
N765 N766 1.388 1_455 S
N766 Co749 1.993 . S
N766 N765 1.388 1_655 S
N766 C767 1.346 . S
C767 N766 1.346 . S
C767 C768 1.396 1_655 S
C767 C777 1.510 . S
C768 C764 1.401 . S
C768 C767 1.396 1_455 S
C769 C764 1.499 . S
C769 H770 0.959 . S
C769 H771 0.960 . S
C769 H772 0.961 . S
H770 C769 0.959 . S
H771 C769 0.960 . S
H772 C769 0.961 . S
O773 Co748 1.967 . S
O773 C781 1.258 . S
O774 Co749 1.941 . S
O774 C781 1.266 . S
H775 C777 0.959 . S
H776 C777 0.961 . S
C777 C767 1.510 . S
C777 H775 0.959 . S
C777 H776 0.961 . S
C777 H778 0.960 . S
H778 C777 0.960 . S
H779 N759 0.862 . S
O780 Co748 1.920 1_455 S
O780 C753 1.289 . S
C781 O773 1.258 . S
C781 O774 1.266 . S
Co782 O785 1.970 . S
Co782 N799 1.989 . S
Co782 O807 1.967 . S
Co782 O814 1.920 . S
Co783 O786 1.966 . S
Co783 N792 2.022 . S
Co783 N800 1.993 . S
Co783 O808 1.941 . S
C784 O785 1.258 . S
C784 O786 1.263 . S
O785 Co782 1.970 . S
O785 C784 1.258 . S
O786 Co783 1.966 . S
O786 C784 1.263 . S
C787 O788 1.235 . S
C787 O814 1.289 . S
O788 C787 1.235 . S
C789 C791 1.400 . S
C789 N792 1.351 . S
C789 C794 1.501 . S
C790 C791 1.387 . S
C790 N793 1.341 . S
C791 C789 1.400 . S
C791 C790 1.387 . S
N792 Co783 2.022 . S
N792 C789 1.351 . S
N792 N793 1.365 . S
N793 C790 1.341 . S
N793 N792 1.365 . S
N793 H813 0.862 . S
C794 C789 1.501 . S
C794 H795 0.961 . S
C794 H796 0.961 . S
C794 H797 0.960 . S
H795 C794 0.961 . S
H796 C794 0.961 . S
H797 C794 0.960 . S
C798 N799 1.342 . S
C798 C802 1.401 . S
C798 C803 1.499 . S
N799 Co782 1.989 . S
N799 C798 1.342 . S
N799 N800 1.388 . S
N800 Co783 1.993 . S
N800 N799 1.388 . S
N800 C801 1.346 . S
C801 N800 1.346 . S
C801 C802 1.396 . S
C801 C811 1.510 . S
C802 C798 1.401 . S
C802 C801 1.396 . S
C803 C798 1.499 . S
C803 H804 0.959 . S
C803 H805 0.960 . S
C803 H806 0.961 . S
H804 C803 0.959 . S
H805 C803 0.960 . S
H806 C803 0.961 . S
O807 Co782 1.967 . S
O807 C815 1.258 . S
O808 Co783 1.941 . S
O808 C815 1.266 . S
H809 C811 0.959 . S
H810 C811 0.961 . S
C811 C801 1.510 . S
C811 H809 0.959 . S
C811 H810 0.961 . S
C811 H812 0.960 . S
H812 C811 0.960 . S
H813 N793 0.862 . S
O814 Co782 1.920 . S
O814 C787 1.289 . S
C815 O807 1.258 . S
C815 O808 1.266 . S
C816 C817 1.349 . S
C816 C818 1.327 . S
C816 H841 0.950 . S
C817 C816 1.349 . S
C817 C833 1.349 . S
C818 C816 1.327 . S
C818 C837 1.429 . S
C818 H842 0.950 . S
C819 C836 1.574 . S
C819 C838 1.368 . S
C819 H843 0.949 . S
H820 C824 0.949 . S
C821 C822 1.349 . S
C821 C823 1.327 . S
C821 H844 0.950 . S
C822 C821 1.349 . S
C822 C834 1.349 . S
C823 C821 1.327 . S
C823 C839 1.429 . S
C823 H845 0.950 . S
C824 H820 0.949 . S
C824 C832 1.574 . S
C824 C840 1.368 . S
H825 C833 0.950 . S
H826 C831 0.950 . S
H827 C832 0.949 . S
H828 C834 0.950 . S
H829 C835 0.950 . S
H830 C836 0.949 . S
C831 H826 0.950 . S
C831 C833 1.327 . S
C831 C837 1.429 . S
C832 C824 1.574 . S
C832 H827 0.949 . S
C832 C838 1.368 . S
C833 C817 1.349 . S
C833 H825 0.950 . S
C833 C831 1.327 . S
C834 C822 1.349 . S
C834 H828 0.950 . S
C834 C835 1.327 . S
C835 H829 0.950 . S
C835 C834 1.327 . S
C835 C839 1.429 . S
C836 C819 1.574 . S
C836 H830 0.949 . S
C836 C840 1.368 . S
C837 C818 1.429 . S
C837 C831 1.429 . S
C837 C838 1.523 . S
C838 C819 1.368 . S
C838 C832 1.368 . S
C838 C837 1.523 . S
C839 C823 1.429 . S
C839 C835 1.429 . S
C839 C840 1.523 . S
C840 C824 1.368 . S
C840 C836 1.368 . S
C840 C839 1.523 . S
H841 C816 0.950 . S
H842 C818 0.950 . S
H843 C819 0.949 . S
H844 C821 0.950 . S
H845 C823 0.950 . S
C846 C847 1.349 1_554 S
C846 C848 1.327 . S
C846 H871 0.950 . S
C847 C846 1.349 1_556 S
C847 C863 1.349 . S
C848 C846 1.327 . S
C848 C867 1.429 1_554 S
C848 H872 0.950 . S
C849 C866 1.574 . S
C849 C868 1.368 . S
C849 H873 0.949 . S
H850 C854 0.949 . S
C851 C852 1.349 . S
C851 C853 1.327 . S
C851 H874 0.950 . S
C852 C851 1.349 . S
C852 C864 1.349 1_556 S
C853 C851 1.327 . S
C853 C869 1.429 . S
C853 H875 0.950 . S
C854 H850 0.949 . S
C854 C862 1.574 . S
C854 C870 1.368 1_554 S
H855 C863 0.950 . S
H856 C861 0.950 . S
H857 C862 0.949 . S
H858 C864 0.950 . S
H859 C865 0.950 . S
H860 C866 0.949 . S
C861 H856 0.950 . S
C861 C863 1.327 . S
C861 C867 1.429 . S
C862 C854 1.574 . S
C862 H857 0.949 . S
C862 C868 1.368 1_554 S
C863 C847 1.349 . S
C863 H855 0.950 . S
C863 C861 1.327 . S
C864 C852 1.349 1_554 S
C864 H858 0.950 . S
C864 C865 1.327 . S
C865 H859 0.950 . S
C865 C864 1.327 . S
C865 C869 1.429 1_554 S
C866 C849 1.574 . S
C866 H860 0.949 . S
C866 C870 1.368 . S
C867 C848 1.429 1_556 S
C867 C861 1.429 . S
C867 C868 1.523 . S
C868 C849 1.368 . S
C868 C862 1.368 1_556 S
C868 C867 1.523 . S
C869 C853 1.429 . S
C869 C865 1.429 1_556 S
C869 C870 1.523 . S
C870 C854 1.368 1_556 S
C870 C866 1.368 . S
C870 C869 1.523 . S
H871 C846 0.950 . S
H872 C848 0.950 . S
H873 C849 0.949 . S
H874 C851 0.950 . S
H875 C853 0.950 . S
C876 C877 1.349 . S
C876 C878 1.327 . S
C876 H901 0.950 . S
C877 C876 1.349 . S
C877 C893 1.349 . S
C878 C876 1.327 . S
C878 C897 1.429 . S
C878 H902 0.950 . S
C879 C896 1.574 . S
C879 C898 1.368 . S
C879 H903 0.949 . S
H880 C884 0.949 . S
C881 C882 1.349 . S
C881 C883 1.327 . S
C881 H904 0.950 . S
C882 C881 1.349 . S
C882 C894 1.349 . S
C883 C881 1.327 . S
C883 C899 1.429 . S
C883 H905 0.950 . S
C884 H880 0.949 . S
C884 C892 1.574 . S
C884 C900 1.368 . S
H885 C893 0.950 . S
H886 C891 0.950 . S
H887 C892 0.949 . S
H888 C894 0.950 . S
H889 C895 0.950 . S
H890 C896 0.949 . S
C891 H886 0.950 . S
C891 C893 1.327 . S
C891 C897 1.429 . S
C892 C884 1.574 . S
C892 H887 0.949 . S
C892 C898 1.368 . S
C893 C877 1.349 . S
C893 H885 0.950 . S
C893 C891 1.327 . S
C894 C882 1.349 . S
C894 H888 0.950 . S
C894 C895 1.327 . S
C895 H889 0.950 . S
C895 C894 1.327 . S
C895 C899 1.429 . S
C896 C879 1.574 . S
C896 H890 0.949 . S
C896 C900 1.368 . S
C897 C878 1.429 . S
C897 C891 1.429 . S
C897 C898 1.523 . S
C898 C879 1.368 . S
C898 C892 1.368 . S
C898 C897 1.523 . S
C899 C883 1.429 . S
C899 C895 1.429 . S
C899 C900 1.523 . S
C900 C884 1.368 . S
C900 C896 1.368 . S
C900 C899 1.523 . S
H901 C876 0.950 . S
H902 C878 0.950 . S
H903 C879 0.949 . S
H904 C881 0.950 . S
H905 C883 0.950 . S
C906 C907 1.349 . S
C906 C908 1.327 . S
C906 H931 0.950 . S
C907 C906 1.349 . S
C907 C923 1.349 . S
C908 C906 1.327 . S
C908 C927 1.429 . S
C908 H932 0.950 . S
C909 C926 1.574 . S
C909 C928 1.368 . S
C909 H933 0.949 . S
H910 C914 0.949 . S
C911 C912 1.349 . S
C911 C913 1.327 . S
C911 H934 0.950 . S
C912 C911 1.349 . S
C912 C924 1.349 . S
C913 C911 1.327 . S
C913 C929 1.429 . S
C913 H935 0.950 . S
C914 H910 0.949 . S
C914 C922 1.574 . S
C914 C930 1.368 . S
H915 C923 0.950 . S
H916 C921 0.950 . S
H917 C922 0.949 . S
H918 C924 0.950 . S
H919 C925 0.950 . S
H920 C926 0.949 . S
C921 H916 0.950 . S
C921 C923 1.327 . S
C921 C927 1.429 . S
C922 C914 1.574 . S
C922 H917 0.949 . S
C922 C928 1.368 . S
C923 C907 1.349 . S
C923 H915 0.950 . S
C923 C921 1.327 . S
C924 C912 1.349 . S
C924 H918 0.950 . S
C924 C925 1.327 . S
C925 H919 0.950 . S
C925 C924 1.327 . S
C925 C929 1.429 . S
C926 C909 1.574 . S
C926 H920 0.949 . S
C926 C930 1.368 . S
C927 C908 1.429 . S
C927 C921 1.429 . S
C927 C928 1.523 . S
C928 C909 1.368 . S
C928 C922 1.368 . S
C928 C927 1.523 . S
C929 C913 1.429 . S
C929 C925 1.429 . S
C929 C930 1.523 . S
C930 C914 1.368 . S
C930 C926 1.368 . S
C930 C929 1.523 . S
H931 C906 0.950 . S
H932 C908 0.950 . S
H933 C909 0.949 . S
H934 C911 0.950 . S
H935 C913 0.950 . S
C936 C937 1.349 . S
C936 C938 1.327 . S
C936 H961 0.950 . S
C937 C936 1.349 . S
C937 C953 1.349 . S
C938 C936 1.327 . S
C938 C957 1.429 . S
C938 H962 0.950 . S
C939 C956 1.574 . S
C939 C958 1.368 . S
C939 H963 0.949 . S
H940 C944 0.949 . S
C941 C942 1.349 . S
C941 C943 1.327 . S
C941 H964 0.950 . S
C942 C941 1.349 . S
C942 C954 1.349 . S
C943 C941 1.327 . S
C943 C959 1.429 . S
C943 H965 0.950 . S
C944 H940 0.949 . S
C944 C952 1.574 . S
C944 C960 1.368 . S
H945 C953 0.950 . S
H946 C951 0.950 . S
H947 C952 0.949 . S
H948 C954 0.950 . S
H949 C955 0.950 . S
H950 C956 0.949 . S
C951 H946 0.950 . S
C951 C953 1.327 . S
C951 C957 1.429 . S
C952 C944 1.574 . S
C952 H947 0.949 . S
C952 C958 1.368 . S
C953 C937 1.349 . S
C953 H945 0.950 . S
C953 C951 1.327 . S
C954 C942 1.349 . S
C954 H948 0.950 . S
C954 C955 1.327 . S
C955 H949 0.950 . S
C955 C954 1.327 . S
C955 C959 1.429 . S
C956 C939 1.574 . S
C956 H950 0.949 . S
C956 C960 1.368 . S
C957 C938 1.429 . S
C957 C951 1.429 . S
C957 C958 1.523 . S
C958 C939 1.368 . S
C958 C952 1.368 . S
C958 C957 1.523 . S
C959 C943 1.429 . S
C959 C955 1.429 . S
C959 C960 1.523 . S
C960 C944 1.368 . S
C960 C956 1.368 . S
C960 C959 1.523 . S
H961 C936 0.950 . S
H962 C938 0.950 . S
H963 C939 0.949 . S
H964 C941 0.950 . S
H965 C943 0.950 . S
C966 C967 1.349 . S
C966 C968 1.327 . S
C966 H991 0.950 . S
C967 C966 1.349 . S
C967 C983 1.349 . S
C968 C966 1.327 . S
C968 C987 1.429 . S
C968 H992 0.950 . S
C969 C986 1.574 . S
C969 C988 1.368 . S
C969 H993 0.949 . S
H970 C974 0.949 . S
C971 C972 1.349 . S
C971 C973 1.327 . S
C971 H994 0.950 . S
C972 C971 1.349 . S
C972 C984 1.349 . S
C973 C971 1.327 . S
C973 C989 1.429 . S
C973 H995 0.950 . S
C974 H970 0.949 . S
C974 C982 1.574 . S
C974 C990 1.368 . S
H975 C983 0.950 . S
H976 C981 0.950 . S
H977 C982 0.949 . S
H978 C984 0.950 . S
H979 C985 0.950 . S
H980 C986 0.949 . S
C981 H976 0.950 . S
C981 C983 1.327 . S
C981 C987 1.429 . S
C982 C974 1.574 . S
C982 H977 0.949 . S
C982 C988 1.368 . S
C983 C967 1.349 . S
C983 H975 0.950 . S
C983 C981 1.327 . S
C984 C972 1.349 . S
C984 H978 0.950 . S
C984 C985 1.327 . S
C985 H979 0.950 . S
C985 C984 1.327 . S
C985 C989 1.429 . S
C986 C969 1.574 . S
C986 H980 0.949 . S
C986 C990 1.368 . S
C987 C968 1.429 . S
C987 C981 1.429 . S
C987 C988 1.523 . S
C988 C969 1.368 . S
C988 C982 1.368 . S
C988 C987 1.523 . S
C989 C973 1.429 . S
C989 C985 1.429 . S
C989 C990 1.523 . S
C990 C974 1.368 . S
C990 C986 1.368 . S
C990 C989 1.523 . S
H991 C966 0.950 . S
H992 C968 0.950 . S
H993 C969 0.949 . S
H994 C971 0.950 . S
H995 C973 0.950 . S
C996 C997 1.349 . S
C996 C998 1.327 . S
C996 H1021 0.950 . S
C997 C996 1.349 . S
C997 C1013 1.349 1_655 S
C998 C996 1.327 . S
C998 C1017 1.429 . S
C998 H1022 0.950 . S
C999 C1016 1.571 1_455 S
C999 C1018 1.353 1_455 S
C999 H1023 0.965 . S
H1000 C1004 0.949 . S
C1001 C1002 1.349 . S
C1001 C1003 1.327 . S
C1001 H1024 0.931 1_655 S
C1002 C1001 1.349 . S
C1002 C1014 1.349 . S
C1003 C1001 1.327 . S
C1003 C1019 1.429 . S
C1003 H1025 0.950 1_655 S
C1004 H1000 0.949 . S
C1004 C1012 1.574 . S
C1004 C1020 1.368 . S
H1005 C1013 0.950 . S
H1006 C1011 0.950 . S
H1007 C1012 0.949 . S
H1008 C1014 0.950 . S
H1009 C1015 0.950 . S
H1010 C1016 0.929 1_455 S
C1011 H1006 0.950 . S
C1011 C1013 1.327 . S
C1011 C1017 1.429 1_455 S
C1012 C1004 1.574 . S
C1012 H1007 0.949 . S
C1012 C1018 1.368 . S
C1013 C997 1.349 1_455 S
C1013 H1005 0.950 . S
C1013 C1011 1.327 . S
C1014 C1002 1.349 . S
C1014 H1008 0.950 . S
C1014 C1015 1.327 . S
C1015 H1009 0.950 . S
C1015 C1014 1.327 . S
C1015 C1019 1.429 . S
C1016 C999 1.571 1_655 S
C1016 H1010 0.929 1_655 S
C1016 C1020 1.396 . S
C1017 C998 1.429 . S
C1017 C1011 1.429 1_655 S
C1017 C1018 1.523 . S
C1018 C999 1.353 1_655 S
C1018 C1012 1.368 . S
C1018 C1017 1.523 . S
C1019 C1003 1.429 . S
C1019 C1015 1.429 . S
C1019 C1020 1.523 . S
C1020 C1004 1.368 . S
C1020 C1016 1.396 . S
C1020 C1019 1.523 . S
H1021 C996 0.950 . S
H1022 C998 0.950 . S
H1023 C999 0.965 . S
H1024 C1001 0.931 1_455 S
H1025 C1003 0.950 1_455 S
C1026 C1027 1.349 . S
C1026 C1028 1.327 . S
C1026 H1051 0.950 . S
C1027 C1026 1.349 . S
C1027 C1043 1.349 . S
C1028 C1026 1.327 . S
C1028 C1047 1.429 . S
C1028 H1052 0.950 . S
C1029 C1046 1.574 . S
C1029 C1048 1.368 . S
C1029 H1053 0.949 . S
H1030 C1034 0.949 . S
C1031 C1032 1.349 . S
C1031 C1033 1.327 . S
C1031 H1054 0.950 . S
C1032 C1031 1.349 . S
C1032 C1044 1.349 . S
C1033 C1031 1.327 . S
C1033 C1049 1.429 . S
C1033 H1055 0.950 . S
C1034 H1030 0.949 . S
C1034 C1042 1.574 . S
C1034 C1050 1.368 . S
H1035 C1043 0.950 . S
H1036 C1041 0.950 . S
H1037 C1042 0.949 . S
H1038 C1044 0.950 . S
H1039 C1045 0.950 . S
H1040 C1046 0.949 . S
C1041 H1036 0.950 . S
C1041 C1043 1.327 . S
C1041 C1047 1.429 . S
C1042 C1034 1.574 . S
C1042 H1037 0.949 . S
C1042 C1048 1.368 . S
C1043 C1027 1.349 . S
C1043 H1035 0.950 . S
C1043 C1041 1.327 . S
C1044 C1032 1.349 . S
C1044 H1038 0.950 . S
C1044 C1045 1.327 . S
C1045 H1039 0.950 . S
C1045 C1044 1.327 . S
C1045 C1049 1.429 . S
C1046 C1029 1.574 . S
C1046 H1040 0.949 . S
C1046 C1050 1.368 . S
C1047 C1028 1.429 . S
C1047 C1041 1.429 . S
C1047 C1048 1.523 . S
C1048 C1029 1.368 . S
C1048 C1042 1.368 . S
C1048 C1047 1.523 . S
C1049 C1033 1.429 . S
C1049 C1045 1.429 . S
C1049 C1050 1.523 . S
C1050 C1034 1.368 . S
C1050 C1046 1.368 . S
C1050 C1049 1.523 . S
H1051 C1026 0.950 . S
H1052 C1028 0.950 . S
H1053 C1029 0.949 . S
H1054 C1031 0.950 . S
H1055 C1033 0.950 . S
C1056 C1057 1.349 . S
C1056 C1058 1.327 . S
C1056 H1081 0.950 . S
C1057 C1056 1.349 . S
C1057 C1073 1.349 . S
C1058 C1056 1.327 . S
C1058 C1077 1.429 . S
C1058 H1082 0.950 . S
C1059 C1076 1.574 . S
C1059 C1078 1.368 . S
C1059 H1083 0.949 . S
H1060 C1064 0.949 . S
C1061 C1062 1.349 . S
C1061 C1063 1.327 . S
C1061 H1084 0.950 . S
C1062 C1061 1.349 . S
C1062 C1074 1.349 . S
C1063 C1061 1.327 . S
C1063 C1079 1.429 . S
C1063 H1085 0.950 . S
C1064 H1060 0.949 . S
C1064 C1072 1.574 . S
C1064 C1080 1.368 . S
H1065 C1073 0.950 . S
H1066 C1071 0.950 . S
H1067 C1072 0.949 . S
H1068 C1074 0.950 . S
H1069 C1075 0.950 . S
H1070 C1076 0.949 . S
C1071 H1066 0.950 . S
C1071 C1073 1.327 . S
C1071 C1077 1.429 . S
C1072 C1064 1.574 . S
C1072 H1067 0.949 . S
C1072 C1078 1.368 . S
C1073 C1057 1.349 . S
C1073 H1065 0.950 . S
C1073 C1071 1.327 . S
C1074 C1062 1.349 . S
C1074 H1068 0.950 . S
C1074 C1075 1.327 . S
C1075 H1069 0.950 . S
C1075 C1074 1.327 . S
C1075 C1079 1.429 . S
C1076 C1059 1.574 . S
C1076 H1070 0.949 . S
C1076 C1080 1.368 . S
C1077 C1058 1.429 . S
C1077 C1071 1.429 . S
C1077 C1078 1.523 . S
C1078 C1059 1.368 . S
C1078 C1072 1.368 . S
C1078 C1077 1.523 . S
C1079 C1063 1.429 . S
C1079 C1075 1.429 . S
C1079 C1080 1.523 . S
C1080 C1064 1.368 . S
C1080 C1076 1.368 . S
C1080 C1079 1.523 . S
H1081 C1056 0.950 . S
H1082 C1058 0.950 . S
H1083 C1059 0.949 . S
H1084 C1061 0.950 . S
H1085 C1063 0.950 . S
C1086 C1087 1.349 . S
C1086 C1088 1.327 . S
C1086 H1111 0.950 . S
C1087 C1086 1.349 . S
C1087 C1103 1.349 . S
C1088 C1086 1.327 . S
C1088 C1107 1.429 . S
C1088 H1112 0.950 . S
C1089 C1106 1.574 . S
C1089 C1108 1.368 . S
C1089 H1113 0.949 . S
H1090 C1094 0.949 . S
C1091 C1092 1.349 . S
C1091 C1093 1.327 . S
C1091 H1114 0.950 . S
C1092 C1091 1.349 . S
C1092 C1104 1.349 . S
C1093 C1091 1.327 . S
C1093 C1109 1.429 . S
C1093 H1115 0.950 . S
C1094 H1090 0.949 . S
C1094 C1102 1.574 . S
C1094 C1110 1.368 . S
H1095 C1103 0.950 . S
H1096 C1101 0.950 . S
H1097 C1102 0.949 . S
H1098 C1104 0.950 . S
H1099 C1105 0.950 . S
H1100 C1106 0.949 . S
C1101 H1096 0.950 . S
C1101 C1103 1.327 . S
C1101 C1107 1.429 . S
C1102 C1094 1.574 . S
C1102 H1097 0.949 . S
C1102 C1108 1.368 . S
C1103 C1087 1.349 . S
C1103 H1095 0.950 . S
C1103 C1101 1.327 . S
C1104 C1092 1.349 . S
C1104 H1098 0.950 . S
C1104 C1105 1.327 . S
C1105 H1099 0.950 . S
C1105 C1104 1.327 . S
C1105 C1109 1.429 . S
C1106 C1089 1.574 . S
C1106 H1100 0.949 . S
C1106 C1110 1.368 . S
C1107 C1088 1.429 . S
C1107 C1101 1.429 . S
C1107 C1108 1.523 . S
C1108 C1089 1.368 . S
C1108 C1102 1.368 . S
C1108 C1107 1.523 . S
C1109 C1093 1.429 . S
C1109 C1105 1.429 . S
C1109 C1110 1.523 . S
C1110 C1094 1.368 . S
C1110 C1106 1.368 . S
C1110 C1109 1.523 . S
H1111 C1086 0.950 . S
H1112 C1088 0.950 . S
H1113 C1089 0.949 . S
H1114 C1091 0.950 . S
H1115 C1093 0.950 . S
C1116 C1117 1.349 . S
C1116 C1118 1.327 . S
C1116 H1141 0.950 1_565 S
C1117 C1116 1.349 . S
C1117 C1133 1.349 . S
C1118 C1116 1.327 . S
C1118 C1137 1.429 . S
C1118 H1142 0.950 1_565 S
C1119 C1136 1.574 . S
C1119 C1138 1.368 . S
C1119 H1143 0.949 . S
H1120 C1124 0.949 . S
C1121 C1122 1.349 . S
C1121 C1123 1.327 . S
C1121 H1144 0.950 . S
C1122 C1121 1.349 . S
C1122 C1134 1.349 1_565 S
C1123 C1121 1.327 . S
C1123 C1139 1.429 . S
C1123 H1145 0.950 . S
C1124 H1120 0.949 . S
C1124 C1132 1.574 . S
C1124 C1140 1.368 1_545 S
H1125 C1133 0.950 . S
H1126 C1131 0.950 . S
H1127 C1132 0.949 . S
H1128 C1134 0.950 . S
H1129 C1135 0.950 . S
H1130 C1136 0.949 . S
C1131 H1126 0.950 . S
C1131 C1133 1.327 . S
C1131 C1137 1.429 . S
C1132 C1124 1.574 . S
C1132 H1127 0.949 . S
C1132 C1138 1.368 1_545 S
C1133 C1117 1.349 . S
C1133 H1125 0.950 . S
C1133 C1131 1.327 . S
C1134 C1122 1.349 1_545 S
C1134 H1128 0.950 . S
C1134 C1135 1.327 . S
C1135 H1129 0.950 . S
C1135 C1134 1.327 . S
C1135 C1139 1.429 1_545 S
C1136 C1119 1.574 . S
C1136 H1130 0.949 . S
C1136 C1140 1.368 . S
C1137 C1118 1.429 . S
C1137 C1131 1.429 . S
C1137 C1138 1.523 . S
C1138 C1119 1.368 . S
C1138 C1132 1.368 1_565 S
C1138 C1137 1.523 . S
C1139 C1123 1.429 . S
C1139 C1135 1.429 1_565 S
C1139 C1140 1.523 . S
C1140 C1124 1.368 1_565 S
C1140 C1136 1.368 . S
C1140 C1139 1.523 . S
H1141 C1116 0.950 1_545 S
H1142 C1118 0.950 1_545 S
H1143 C1119 0.949 . S
H1144 C1121 0.950 . S
H1145 C1123 0.950 . S
C1146 C1147 1.349 . S
C1146 C1148 1.327 . S
C1146 H1171 0.950 . S
C1147 C1146 1.349 . S
C1147 C1163 1.349 . S
C1148 C1146 1.327 . S
C1148 C1167 1.429 . S
C1148 H1172 0.950 . S
C1149 C1166 1.574 . S
C1149 C1168 1.368 . S
C1149 H1173 0.949 . S
H1150 C1154 0.949 . S
C1151 C1152 1.349 . S
C1151 C1153 1.327 . S
C1151 H1174 0.950 . S
C1152 C1151 1.349 . S
C1152 C1164 1.349 . S
C1153 C1151 1.327 . S
C1153 C1169 1.429 . S
C1153 H1175 0.950 . S
C1154 H1150 0.949 . S
C1154 C1162 1.574 . S
C1154 C1170 1.368 . S
H1155 C1163 0.950 . S
H1156 C1161 0.950 . S
H1157 C1162 0.949 . S
H1158 C1164 0.950 . S
H1159 C1165 0.950 . S
H1160 C1166 0.949 . S
C1161 H1156 0.950 . S
C1161 C1163 1.327 . S
C1161 C1167 1.429 . S
C1162 C1154 1.574 . S
C1162 H1157 0.949 . S
C1162 C1168 1.368 . S
C1163 C1147 1.349 . S
C1163 H1155 0.950 . S
C1163 C1161 1.327 . S
C1164 C1152 1.349 . S
C1164 H1158 0.950 . S
C1164 C1165 1.327 . S
C1165 H1159 0.950 . S
C1165 C1164 1.327 . S
C1165 C1169 1.429 . S
C1166 C1149 1.574 . S
C1166 H1160 0.949 . S
C1166 C1170 1.368 . S
C1167 C1148 1.429 . S
C1167 C1161 1.429 . S
C1167 C1168 1.523 . S
C1168 C1149 1.368 . S
C1168 C1162 1.368 . S
C1168 C1167 1.523 . S
C1169 C1153 1.429 . S
C1169 C1165 1.429 . S
C1169 C1170 1.523 . S
C1170 C1154 1.368 . S
C1170 C1166 1.368 . S
C1170 C1169 1.523 . S
H1171 C1146 0.950 . S
H1172 C1148 0.950 . S
H1173 C1149 0.949 . S
H1174 C1151 0.950 . S
H1175 C1153 0.950 . S
C1176 C1177 1.349 . S
C1176 C1178 1.327 . S
C1176 H1201 0.950 . S
C1177 C1176 1.349 . S
C1177 C1193 1.349 . S
C1178 C1176 1.327 . S
C1178 C1197 1.429 . S
C1178 H1202 0.950 . S
C1179 C1196 1.574 . S
C1179 C1198 1.368 . S
C1179 H1203 0.949 . S
H1180 C1184 0.949 . S
C1181 C1182 1.349 . S
C1181 C1183 1.327 . S
C1181 H1204 0.950 . S
C1182 C1181 1.349 . S
C1182 C1194 1.349 . S
C1183 C1181 1.327 . S
C1183 C1199 1.429 . S
C1183 H1205 0.950 . S
C1184 H1180 0.949 . S
C1184 C1192 1.574 . S
C1184 C1200 1.368 . S
H1185 C1193 0.950 . S
H1186 C1191 0.950 . S
H1187 C1192 0.949 . S
H1188 C1194 0.950 . S
H1189 C1195 0.950 . S
H1190 C1196 0.949 . S
C1191 H1186 0.950 . S
C1191 C1193 1.327 . S
C1191 C1197 1.429 . S
C1192 C1184 1.574 . S
C1192 H1187 0.949 . S
C1192 C1198 1.368 . S
C1193 C1177 1.349 . S
C1193 H1185 0.950 . S
C1193 C1191 1.327 . S
C1194 C1182 1.349 . S
C1194 H1188 0.950 . S
C1194 C1195 1.327 . S
C1195 H1189 0.950 . S
C1195 C1194 1.327 . S
C1195 C1199 1.429 . S
C1196 C1179 1.574 . S
C1196 H1190 0.949 . S
C1196 C1200 1.368 . S
C1197 C1178 1.429 . S
C1197 C1191 1.429 . S
C1197 C1198 1.523 . S
C1198 C1179 1.368 . S
C1198 C1192 1.368 . S
C1198 C1197 1.523 . S
C1199 C1183 1.429 . S
C1199 C1195 1.429 . S
C1199 C1200 1.523 . S
C1200 C1184 1.368 . S
C1200 C1196 1.368 . S
C1200 C1199 1.523 . S
H1201 C1176 0.950 . S
H1202 C1178 0.950 . S
H1203 C1179 0.949 . S
H1204 C1181 0.950 . S
H1205 C1183 0.950 . S
C1206 C1207 1.349 . S
C1206 C1208 1.327 . S
C1206 H1231 0.950 . S
C1207 C1206 1.349 . S
C1207 C1223 1.349 . S
C1208 C1206 1.327 . S
C1208 C1227 1.429 . S
C1208 H1232 0.950 . S
C1209 C1226 1.574 . S
C1209 C1228 1.368 . S
C1209 H1233 0.949 . S
H1210 C1214 0.949 . S
C1211 C1212 1.349 . S
C1211 C1213 1.327 . S
C1211 H1234 0.950 . S
C1212 C1211 1.349 . S
C1212 C1224 1.349 . S
C1213 C1211 1.327 . S
C1213 C1229 1.429 . S
C1213 H1235 0.950 . S
C1214 H1210 0.949 . S
C1214 C1222 1.574 . S
C1214 C1230 1.368 . S
H1215 C1223 0.950 . S
H1216 C1221 0.950 . S
H1217 C1222 0.949 . S
H1218 C1224 0.950 . S
H1219 C1225 0.950 . S
H1220 C1226 0.949 . S
C1221 H1216 0.950 . S
C1221 C1223 1.327 . S
C1221 C1227 1.429 . S
C1222 C1214 1.574 . S
C1222 H1217 0.949 . S
C1222 C1228 1.368 . S
C1223 C1207 1.349 . S
C1223 H1215 0.950 . S
C1223 C1221 1.327 . S
C1224 C1212 1.349 . S
C1224 H1218 0.950 . S
C1224 C1225 1.327 . S
C1225 H1219 0.950 . S
C1225 C1224 1.327 . S
C1225 C1229 1.429 . S
C1226 C1209 1.574 . S
C1226 H1220 0.949 . S
C1226 C1230 1.368 . S
C1227 C1208 1.429 . S
C1227 C1221 1.429 . S
C1227 C1228 1.523 . S
C1228 C1209 1.368 . S
C1228 C1222 1.368 . S
C1228 C1227 1.523 . S
C1229 C1213 1.429 . S
C1229 C1225 1.429 . S
C1229 C1230 1.523 . S
C1230 C1214 1.368 . S
C1230 C1226 1.368 . S
C1230 C1229 1.523 . S
H1231 C1206 0.950 . S
H1232 C1208 0.950 . S
H1233 C1209 0.949 . S
H1234 C1211 0.950 . S
H1235 C1213 0.950 . S
C1236 C1237 1.349 . S
C1236 C1238 1.327 . S
C1236 H1261 0.950 . S
C1237 C1236 1.349 . S
C1237 C1253 1.349 . S
C1238 C1236 1.327 . S
C1238 C1257 1.429 . S
C1238 H1262 0.950 . S
C1239 C1256 1.574 . S
C1239 C1258 1.368 . S
C1239 H1263 0.949 . S
H1240 C1244 0.949 . S
C1241 C1242 1.349 . S
C1241 C1243 1.327 . S
C1241 H1264 0.950 . S
C1242 C1241 1.349 . S
C1242 C1254 1.349 . S
C1243 C1241 1.327 . S
C1243 C1259 1.429 . S
C1243 H1265 0.950 . S
C1244 H1240 0.949 . S
C1244 C1252 1.574 . S
C1244 C1260 1.368 . S
H1245 C1253 0.950 . S
H1246 C1251 0.950 . S
H1247 C1252 0.949 . S
H1248 C1254 0.950 1_545 S
H1249 C1255 0.950 . S
H1250 C1256 0.949 . S
C1251 H1246 0.950 . S
C1251 C1253 1.327 . S
C1251 C1257 1.429 . S
C1252 C1244 1.574 . S
C1252 H1247 0.949 . S
C1252 C1258 1.368 . S
C1253 C1237 1.349 . S
C1253 H1245 0.950 . S
C1253 C1251 1.327 . S
C1254 C1242 1.349 . S
C1254 H1248 0.950 1_565 S
C1254 C1255 1.327 . S
C1255 H1249 0.950 . S
C1255 C1254 1.327 . S
C1255 C1259 1.429 . S
C1256 C1239 1.574 . S
C1256 H1250 0.949 . S
C1256 C1260 1.368 . S
C1257 C1238 1.429 . S
C1257 C1251 1.429 . S
C1257 C1258 1.523 . S
C1258 C1239 1.368 . S
C1258 C1252 1.368 . S
C1258 C1257 1.523 . S
C1259 C1243 1.429 . S
C1259 C1255 1.429 . S
C1259 C1260 1.523 . S
C1260 C1244 1.368 . S
C1260 C1256 1.368 . S
C1260 C1259 1.523 . S
H1261 C1236 0.950 . S
H1262 C1238 0.950 . S
H1263 C1239 0.949 . S
H1264 C1241 0.950 . S
H1265 C1243 0.950 . S
C1266 C1267 1.349 . S
C1266 C1268 1.327 . S
C1266 H1291 0.950 . S
C1267 C1266 1.349 . S
C1267 C1283 1.349 . S
C1268 C1266 1.327 . S
C1268 C1287 1.429 . S
C1268 H1292 0.950 . S
C1269 C1286 1.574 . S
C1269 C1288 1.368 . S
C1269 H1293 0.949 . S
H1270 C1274 0.949 . S
C1271 C1272 1.349 . S
C1271 C1273 1.327 . S
C1271 H1294 0.950 . S
C1272 C1271 1.349 . S
C1272 C1284 1.349 . S
C1273 C1271 1.327 . S
C1273 C1289 1.429 . S
C1273 H1295 0.950 . S
C1274 H1270 0.949 . S
C1274 C1282 1.574 . S
C1274 C1290 1.368 . S
H1275 C1283 0.950 . S
H1276 C1281 0.950 . S
H1277 C1282 0.949 . S
H1278 C1284 0.950 . S
H1279 C1285 0.950 . S
H1280 C1286 0.949 . S
C1281 H1276 0.950 . S
C1281 C1283 1.327 . S
C1281 C1287 1.429 . S
C1282 C1274 1.574 . S
C1282 H1277 0.949 . S
C1282 C1288 1.368 . S
C1283 C1267 1.349 . S
C1283 H1275 0.950 . S
C1283 C1281 1.327 . S
C1284 C1272 1.349 . S
C1284 H1278 0.950 . S
C1284 C1285 1.327 . S
C1285 H1279 0.950 . S
C1285 C1284 1.327 . S
C1285 C1289 1.429 . S
C1286 C1269 1.574 . S
C1286 H1280 0.949 . S
C1286 C1290 1.368 . S
C1287 C1268 1.429 . S
C1287 C1281 1.429 . S
C1287 C1288 1.523 . S
C1288 C1269 1.368 . S
C1288 C1282 1.368 . S
C1288 C1287 1.523 . S
C1289 C1273 1.429 . S
C1289 C1285 1.429 . S
C1289 C1290 1.523 . S
C1290 C1274 1.368 . S
C1290 C1286 1.368 . S
C1290 C1289 1.523 . S
H1291 C1266 0.950 . S
H1292 C1268 0.950 . S
H1293 C1269 0.949 . S
H1294 C1271 0.950 . S
H1295 C1273 0.950 . S
C1296 C1297 1.349 . S
C1296 C1298 1.327 . S
C1296 H1321 0.950 . S
C1297 C1296 1.349 . S
C1297 C1313 1.349 . S
C1298 C1296 1.327 . S
C1298 C1317 1.429 . S
C1298 H1322 0.950 . S
C1299 C1316 1.574 . S
C1299 C1318 1.368 . S
C1299 H1323 0.949 . S
H1300 C1304 0.949 . S
C1301 C1302 1.349 . S
C1301 C1303 1.327 . S
C1301 H1324 0.950 . S
C1302 C1301 1.349 . S
C1302 C1314 1.349 . S
C1303 C1301 1.327 . S
C1303 C1319 1.429 . S
C1303 H1325 0.950 . S
C1304 H1300 0.949 . S
C1304 C1312 1.574 . S
C1304 C1320 1.368 . S
H1305 C1313 0.950 . S
H1306 C1311 0.950 . S
H1307 C1312 0.949 . S
H1308 C1314 0.950 . S
H1309 C1315 0.950 . S
H1310 C1316 0.949 . S
C1311 H1306 0.950 . S
C1311 C1313 1.327 . S
C1311 C1317 1.429 . S
C1312 C1304 1.574 . S
C1312 H1307 0.949 . S
C1312 C1318 1.368 . S
C1313 C1297 1.349 . S
C1313 H1305 0.950 . S
C1313 C1311 1.327 . S
C1314 C1302 1.349 . S
C1314 H1308 0.950 . S
C1314 C1315 1.327 . S
C1315 H1309 0.950 . S
C1315 C1314 1.327 . S
C1315 C1319 1.429 . S
C1316 C1299 1.574 . S
C1316 H1310 0.949 . S
C1316 C1320 1.368 . S
C1317 C1298 1.429 . S
C1317 C1311 1.429 . S
C1317 C1318 1.523 . S
C1318 C1299 1.368 . S
C1318 C1312 1.368 . S
C1318 C1317 1.523 . S
C1319 C1303 1.429 . S
C1319 C1315 1.429 . S
C1319 C1320 1.523 . S
C1320 C1304 1.368 . S
C1320 C1316 1.368 . S
C1320 C1319 1.523 . S
H1321 C1296 0.950 . S
H1322 C1298 0.950 . S
H1323 C1299 0.949 . S
H1324 C1301 0.950 . S
H1325 C1303 0.950 . S
C1326 C1327 1.349 . S
C1326 C1328 1.327 . S
C1326 H1351 0.950 . S
C1327 C1326 1.349 . S
C1327 C1343 1.349 . S
C1328 C1326 1.327 . S
C1328 C1347 1.429 . S
C1328 H1352 0.950 . S
C1329 C1346 1.574 . S
C1329 C1348 1.368 . S
C1329 H1353 0.949 . S
H1330 C1334 0.949 . S
C1331 C1332 1.349 . S
C1331 C1333 1.327 . S
C1331 H1354 0.950 . S
C1332 C1331 1.349 . S
C1332 C1344 1.349 . S
C1333 C1331 1.327 . S
C1333 C1349 1.429 . S
C1333 H1355 0.950 . S
C1334 H1330 0.949 . S
C1334 C1342 1.574 . S
C1334 C1350 1.368 . S
H1335 C1343 0.950 . S
H1336 C1341 0.950 . S
H1337 C1342 0.949 . S
H1338 C1344 0.950 . S
H1339 C1345 0.950 . S
H1340 C1346 0.949 . S
C1341 H1336 0.950 . S
C1341 C1343 1.327 . S
C1341 C1347 1.429 . S
C1342 C1334 1.574 . S
C1342 H1337 0.949 . S
C1342 C1348 1.368 . S
C1343 C1327 1.349 . S
C1343 H1335 0.950 . S
C1343 C1341 1.327 . S
C1344 C1332 1.349 . S
C1344 H1338 0.950 . S
C1344 C1345 1.327 . S
C1345 H1339 0.950 . S
C1345 C1344 1.327 . S
C1345 C1349 1.429 . S
C1346 C1329 1.574 . S
C1346 H1340 0.949 . S
C1346 C1350 1.368 . S
C1347 C1328 1.429 . S
C1347 C1341 1.429 . S
C1347 C1348 1.523 . S
C1348 C1329 1.368 . S
C1348 C1342 1.368 . S
C1348 C1347 1.523 . S
C1349 C1333 1.429 . S
C1349 C1345 1.429 . S
C1349 C1350 1.523 . S
C1350 C1334 1.368 . S
C1350 C1346 1.368 . S
C1350 C1349 1.523 . S
H1351 C1326 0.950 . S
H1352 C1328 0.950 . S
H1353 C1329 0.949 . S
H1354 C1331 0.950 . S
H1355 C1333 0.950 . S
C1356 C1357 1.349 . S
C1356 C1358 1.327 . S
C1356 H1381 0.950 . S
C1357 C1356 1.349 . S
C1357 C1373 1.349 1_455 S
C1358 C1356 1.327 . S
C1358 C1377 1.429 1_454 S
C1358 H1382 0.950 . S
C1359 C1376 1.574 . S
C1359 C1378 1.368 . S
C1359 H1383 0.949 . S
H1360 C1364 0.949 . S
C1361 C1362 1.349 . S
C1361 C1363 1.327 . S
C1361 H1384 0.950 . S
C1362 C1361 1.349 . S
C1362 C1374 1.349 . S
C1363 C1361 1.327 . S
C1363 C1379 1.429 . S
C1363 H1385 0.950 . S
C1364 H1360 0.949 . S
C1364 C1372 1.574 . S
C1364 C1380 1.368 . S
H1365 C1373 0.950 . S
H1366 C1371 0.950 . S
H1367 C1372 0.949 1_455 S
H1368 C1374 0.950 . S
H1369 C1375 0.950 . S
H1370 C1376 0.949 . S
C1371 H1366 0.950 . S
C1371 C1373 1.327 1_556 S
C1371 C1377 1.429 . S
C1372 C1364 1.574 . S
C1372 H1367 0.949 1_655 S
C1372 C1378 1.368 . S
C1373 C1357 1.349 1_655 S
C1373 H1365 0.950 . S
C1373 C1371 1.327 1_554 S
C1374 C1362 1.349 . S
C1374 H1368 0.950 . S
C1374 C1375 1.327 . S
C1375 H1369 0.950 . S
C1375 C1374 1.327 . S
C1375 C1379 1.429 . S
C1376 C1359 1.574 . S
C1376 H1370 0.949 . S
C1376 C1380 1.368 . S
C1377 C1358 1.429 1_656 S
C1377 C1371 1.429 . S
C1377 C1378 1.523 . S
C1378 C1359 1.368 . S
C1378 C1372 1.368 . S
C1378 C1377 1.523 . S
C1379 C1363 1.429 . S
C1379 C1375 1.429 . S
C1379 C1380 1.523 . S
C1380 C1364 1.368 . S
C1380 C1376 1.368 . S
C1380 C1379 1.523 . S
H1381 C1356 0.950 . S
H1382 C1358 0.950 . S
H1383 C1359 0.949 . S
H1384 C1361 0.950 . S
H1385 C1363 0.950 . S
C1386 C1387 1.349 . S
C1386 C1388 1.327 . S
C1386 H1411 0.950 . S
C1387 C1386 1.349 . S
C1387 C1403 1.349 . S
C1388 C1386 1.327 . S
C1388 C1407 1.429 . S
C1388 H1412 0.950 . S
C1389 C1406 1.574 . S
C1389 C1408 1.368 . S
C1389 H1413 0.949 . S
H1390 C1394 0.949 . S
C1391 C1392 1.349 . S
C1391 C1393 1.327 . S
C1391 H1414 0.950 . S
C1392 C1391 1.349 . S
C1392 C1404 1.349 . S
C1393 C1391 1.327 . S
C1393 C1409 1.429 . S
C1393 H1415 0.950 . S
C1394 H1390 0.949 . S
C1394 C1402 1.574 . S
C1394 C1410 1.368 . S
H1395 C1403 0.950 . S
H1396 C1401 0.950 . S
H1397 C1402 0.949 . S
H1398 C1404 0.950 . S
H1399 C1405 0.950 . S
H1400 C1406 0.949 . S
C1401 H1396 0.950 . S
C1401 C1403 1.327 . S
C1401 C1407 1.429 . S
C1402 C1394 1.574 . S
C1402 H1397 0.949 . S
C1402 C1408 1.368 . S
C1403 C1387 1.349 . S
C1403 H1395 0.950 . S
C1403 C1401 1.327 . S
C1404 C1392 1.349 . S
C1404 H1398 0.950 . S
C1404 C1405 1.327 . S
C1405 H1399 0.950 . S
C1405 C1404 1.327 . S
C1405 C1409 1.429 . S
C1406 C1389 1.574 . S
C1406 H1400 0.949 . S
C1406 C1410 1.368 . S
C1407 C1388 1.429 . S
C1407 C1401 1.429 . S
C1407 C1408 1.523 . S
C1408 C1389 1.368 . S
C1408 C1402 1.368 . S
C1408 C1407 1.523 . S
C1409 C1393 1.429 . S
C1409 C1405 1.429 . S
C1409 C1410 1.523 . S
C1410 C1394 1.368 . S
C1410 C1406 1.368 . S
C1410 C1409 1.523 . S
H1411 C1386 0.950 . S
H1412 C1388 0.950 . S
H1413 C1389 0.949 . S
H1414 C1391 0.950 . S
H1415 C1393 0.950 . S
C1416 C1417 1.349 . S
C1416 C1418 1.327 . S
C1416 H1441 0.950 . S
C1417 C1416 1.349 . S
C1417 C1433 1.349 . S
C1418 C1416 1.327 . S
C1418 C1437 1.429 . S
C1418 H1442 0.950 . S
C1419 C1436 1.574 . S
C1419 C1438 1.368 . S
C1419 H1443 0.949 . S
H1420 C1424 0.949 . S
C1421 C1422 1.349 . S
C1421 C1423 1.327 . S
C1421 H1444 0.950 . S
C1422 C1421 1.349 . S
C1422 C1434 1.349 . S
C1423 C1421 1.327 . S
C1423 C1439 1.429 . S
C1423 H1445 0.950 . S
C1424 H1420 0.949 . S
C1424 C1432 1.574 . S
C1424 C1440 1.368 . S
H1425 C1433 0.950 . S
H1426 C1431 0.950 . S
H1427 C1432 0.949 . S
H1428 C1434 0.950 . S
H1429 C1435 0.950 . S
H1430 C1436 0.949 . S
C1431 H1426 0.950 . S
C1431 C1433 1.327 . S
C1431 C1437 1.429 . S
C1432 C1424 1.574 . S
C1432 H1427 0.949 . S
C1432 C1438 1.368 . S
C1433 C1417 1.349 . S
C1433 H1425 0.950 . S
C1433 C1431 1.327 . S
C1434 C1422 1.349 . S
C1434 H1428 0.950 . S
C1434 C1435 1.327 . S
C1435 H1429 0.950 . S
C1435 C1434 1.327 . S
C1435 C1439 1.429 . S
C1436 C1419 1.574 . S
C1436 H1430 0.949 . S
C1436 C1440 1.368 . S
C1437 C1418 1.429 . S
C1437 C1431 1.429 . S
C1437 C1438 1.523 . S
C1438 C1419 1.368 . S
C1438 C1432 1.368 . S
C1438 C1437 1.523 . S
C1439 C1423 1.429 . S
C1439 C1435 1.429 . S
C1439 C1440 1.523 . S
C1440 C1424 1.368 . S
C1440 C1436 1.368 . S
C1440 C1439 1.523 . S
H1441 C1416 0.950 . S
H1442 C1418 0.950 . S
H1443 C1419 0.949 . S
H1444 C1421 0.950 . S
H1445 C1423 0.950 . S
C1446 C1447 1.349 . S
C1446 C1448 1.327 . S
C1446 H1471 0.950 . S
C1447 C1446 1.349 . S
C1447 C1463 1.349 . S
C1448 C1446 1.327 . S
C1448 C1467 1.429 . S
C1448 H1472 0.950 . S
C1449 C1466 1.574 . S
C1449 C1468 1.368 . S
C1449 H1473 0.949 . S
H1450 C1454 0.949 . S
C1451 C1452 1.349 . S
C1451 C1453 1.327 . S
C1451 H1474 0.950 . S
C1452 C1451 1.349 . S
C1452 C1464 1.349 . S
C1453 C1451 1.327 . S
C1453 C1469 1.429 . S
C1453 H1475 0.950 . S
C1454 H1450 0.949 . S
C1454 C1462 1.574 . S
C1454 C1470 1.368 . S
H1455 C1463 0.950 . S
H1456 C1461 0.950 . S
H1457 C1462 0.949 . S
H1458 C1464 0.950 . S
H1459 C1465 0.950 . S
H1460 C1466 0.949 . S
C1461 H1456 0.950 . S
C1461 C1463 1.327 . S
C1461 C1467 1.429 . S
C1462 C1454 1.574 . S
C1462 H1457 0.949 . S
C1462 C1468 1.368 . S
C1463 C1447 1.349 . S
C1463 H1455 0.950 . S
C1463 C1461 1.327 . S
C1464 C1452 1.349 . S
C1464 H1458 0.950 . S
C1464 C1465 1.327 . S
C1465 H1459 0.950 . S
C1465 C1464 1.327 . S
C1465 C1469 1.429 . S
C1466 C1449 1.574 . S
C1466 H1460 0.949 . S
C1466 C1470 1.368 . S
C1467 C1448 1.429 . S
C1467 C1461 1.429 . S
C1467 C1468 1.523 . S
C1468 C1449 1.368 . S
C1468 C1462 1.368 . S
C1468 C1467 1.523 . S
C1469 C1453 1.429 . S
C1469 C1465 1.429 . S
C1469 C1470 1.523 . S
C1470 C1454 1.368 . S
C1470 C1466 1.368 . S
C1470 C1469 1.523 . S
H1471 C1446 0.950 . S
H1472 C1448 0.950 . S
H1473 C1449 0.949 . S
H1474 C1451 0.950 . S
H1475 C1453 0.950 . S
C1476 C1477 1.349 . S
C1476 C1478 1.327 . S
C1476 H1501 0.950 . S
C1477 C1476 1.349 . S
C1477 C1493 1.349 . S
C1478 C1476 1.327 . S
C1478 C1497 1.429 . S
C1478 H1502 0.950 . S
C1479 C1496 1.574 . S
C1479 C1498 1.368 . S
C1479 H1503 0.949 . S
H1480 C1484 0.949 . S
C1481 C1482 1.349 . S
C1481 C1483 1.327 1_455 S
C1481 H1504 0.959 . S
C1482 C1481 1.349 . S
C1482 C1494 1.349 1_545 S
C1483 C1481 1.327 1_655 S
C1483 C1499 1.429 1_545 S
C1483 H1505 0.950 . S
C1484 H1480 0.949 . S
C1484 C1492 1.574 . S
C1484 C1500 1.368 . S
H1485 C1493 0.950 . S
H1486 C1491 0.950 . S
H1487 C1492 0.949 . S
H1488 C1494 0.950 . S
H1489 C1495 0.950 . S
H1490 C1496 0.949 1_545 S
C1491 H1486 0.950 . S
C1491 C1493 1.327 . S
C1491 C1497 1.429 . S
C1492 C1484 1.574 . S
C1492 H1487 0.949 . S
C1492 C1498 1.368 . S
C1493 C1477 1.349 . S
C1493 H1485 0.950 . S
C1493 C1491 1.327 . S
C1494 C1482 1.349 1_565 S
C1494 H1488 0.950 . S
C1494 C1495 1.327 . S
C1495 H1489 0.950 . S
C1495 C1494 1.327 . S
C1495 C1499 1.429 1_455 S
C1496 C1479 1.574 . S
C1496 H1490 0.949 1_565 S
C1496 C1500 1.368 . S
C1497 C1478 1.429 . S
C1497 C1491 1.429 . S
C1497 C1498 1.523 . S
C1498 C1479 1.368 . S
C1498 C1492 1.368 . S
C1498 C1497 1.523 . S
C1499 C1483 1.429 1_565 S
C1499 C1495 1.429 1_655 S
C1499 C1500 1.523 . S
C1500 C1484 1.368 . S
C1500 C1496 1.368 . S
C1500 C1499 1.523 . S
H1501 C1476 0.950 . S
H1502 C1478 0.950 . S
H1503 C1479 0.949 . S
H1504 C1481 0.959 . S
H1505 C1483 0.950 . S
C1506 C1507 1.349 . S
C1506 C1508 1.327 . S
C1506 H1531 0.950 . S
C1507 C1506 1.349 . S
C1507 C1523 1.349 . S
C1508 C1506 1.327 . S
C1508 C1527 1.429 . S
C1508 H1532 0.950 . S
C1509 C1526 1.574 . S
C1509 C1528 1.368 . S
C1509 H1533 0.949 . S
H1510 C1514 0.949 . S
C1511 C1512 1.349 . S
C1511 C1513 1.327 . S
C1511 H1534 0.950 . S
C1512 C1511 1.349 . S
C1512 C1524 1.349 . S
C1513 C1511 1.327 . S
C1513 C1529 1.429 . S
C1513 H1535 0.950 . S
C1514 H1510 0.949 . S
C1514 C1522 1.574 . S
C1514 C1530 1.368 . S
H1515 C1523 0.950 . S
H1516 C1521 0.950 . S
H1517 C1522 0.949 . S
H1518 C1524 0.950 . S
H1519 C1525 0.950 . S
H1520 C1526 0.949 . S
C1521 H1516 0.950 . S
C1521 C1523 1.327 . S
C1521 C1527 1.429 . S
C1522 C1514 1.574 . S
C1522 H1517 0.949 . S
C1522 C1528 1.368 . S
C1523 C1507 1.349 . S
C1523 H1515 0.950 . S
C1523 C1521 1.327 . S
C1524 C1512 1.349 . S
C1524 H1518 0.950 . S
C1524 C1525 1.327 . S
C1525 H1519 0.950 . S
C1525 C1524 1.327 . S
C1525 C1529 1.429 . S
C1526 C1509 1.574 . S
C1526 H1520 0.949 . S
C1526 C1530 1.368 . S
C1527 C1508 1.429 . S
C1527 C1521 1.429 . S
C1527 C1528 1.523 . S
C1528 C1509 1.368 . S
C1528 C1522 1.368 . S
C1528 C1527 1.523 . S
C1529 C1513 1.429 . S
C1529 C1525 1.429 . S
C1529 C1530 1.523 . S
C1530 C1514 1.368 . S
C1530 C1526 1.368 . S
C1530 C1529 1.523 . S
H1531 C1506 0.950 . S
H1532 C1508 0.950 . S
H1533 C1509 0.949 . S
H1534 C1511 0.950 . S
H1535 C1513 0.950 . S
C1536 C1537 1.349 . S
C1536 C1538 1.327 . S
C1536 H1561 0.950 . S
C1537 C1536 1.349 . S
C1537 C1553 1.349 . S
C1538 C1536 1.327 . S
C1538 C1557 1.429 . S
C1538 H1562 0.950 . S
C1539 C1556 1.574 . S
C1539 C1558 1.368 . S
C1539 H1563 0.949 . S
H1540 C1544 0.949 . S
C1541 C1542 1.349 . S
C1541 C1543 1.327 . S
C1541 H1564 0.950 . S
C1542 C1541 1.349 . S
C1542 C1554 1.349 . S
C1543 C1541 1.327 . S
C1543 C1559 1.429 . S
C1543 H1565 0.950 . S
C1544 H1540 0.949 . S
C1544 C1552 1.574 . S
C1544 C1560 1.368 . S
H1545 C1553 0.950 1_554 S
H1546 C1551 0.950 . S
H1547 C1552 0.949 . S
H1548 C1554 0.950 . S
H1549 C1555 0.950 . S
H1550 C1556 0.949 . S
C1551 H1546 0.950 . S
C1551 C1553 1.327 . S
C1551 C1557 1.429 . S
C1552 C1544 1.574 . S
C1552 H1547 0.949 . S
C1552 C1558 1.368 . S
C1553 C1537 1.349 . S
C1553 H1545 0.950 1_556 S
C1553 C1551 1.327 . S
C1554 C1542 1.349 . S
C1554 H1548 0.950 . S
C1554 C1555 1.327 . S
C1555 H1549 0.950 . S
C1555 C1554 1.327 . S
C1555 C1559 1.429 . S
C1556 C1539 1.574 . S
C1556 H1550 0.949 . S
C1556 C1560 1.368 . S
C1557 C1538 1.429 . S
C1557 C1551 1.429 . S
C1557 C1558 1.523 . S
C1558 C1539 1.368 . S
C1558 C1552 1.368 . S
C1558 C1557 1.523 . S
C1559 C1543 1.429 . S
C1559 C1555 1.429 . S
C1559 C1560 1.523 . S
C1560 C1544 1.368 . S
C1560 C1556 1.368 . S
C1560 C1559 1.523 . S
H1561 C1536 0.950 . S
H1562 C1538 0.950 . S
H1563 C1539 0.949 . S
H1564 C1541 0.950 . S
H1565 C1543 0.950 . S
C1566 C1567 1.349 . S
C1566 C1568 1.327 . S
C1566 H1591 0.950 . S
C1567 C1566 1.349 . S
C1567 C1583 1.349 . S
C1568 C1566 1.327 . S
C1568 C1587 1.429 . S
C1568 H1592 0.950 . S
C1569 C1586 1.574 . S
C1569 C1588 1.368 . S
C1569 H1593 0.949 . S
H1570 C1574 0.949 . S
C1571 C1572 1.349 . S
C1571 C1573 1.327 . S
C1571 H1594 0.950 . S
C1572 C1571 1.349 . S
C1572 C1584 1.349 . S
C1573 C1571 1.327 . S
C1573 C1589 1.429 . S
C1573 H1595 0.950 . S
C1574 H1570 0.949 . S
C1574 C1582 1.574 . S
C1574 C1590 1.368 . S
H1575 C1583 0.950 . S
H1576 C1581 0.950 . S
H1577 C1582 0.949 . S
H1578 C1584 0.950 . S
H1579 C1585 0.950 . S
H1580 C1586 0.949 . S
C1581 H1576 0.950 . S
C1581 C1583 1.327 . S
C1581 C1587 1.429 . S
C1582 C1574 1.574 . S
C1582 H1577 0.949 . S
C1582 C1588 1.368 . S
C1583 C1567 1.349 . S
C1583 H1575 0.950 . S
C1583 C1581 1.327 . S
C1584 C1572 1.349 . S
C1584 H1578 0.950 . S
C1584 C1585 1.327 . S
C1585 H1579 0.950 . S
C1585 C1584 1.327 . S
C1585 C1589 1.429 . S
C1586 C1569 1.574 . S
C1586 H1580 0.949 . S
C1586 C1590 1.368 . S
C1587 C1568 1.429 . S
C1587 C1581 1.429 . S
C1587 C1588 1.523 . S
C1588 C1569 1.368 . S
C1588 C1582 1.368 . S
C1588 C1587 1.523 . S
C1589 C1573 1.429 . S
C1589 C1585 1.429 . S
C1589 C1590 1.523 . S
C1590 C1574 1.368 . S
C1590 C1586 1.368 . S
C1590 C1589 1.523 . S
H1591 C1566 0.950 . S
H1592 C1568 0.950 . S
H1593 C1569 0.949 . S
H1594 C1571 0.950 . S
H1595 C1573 0.950 . S
C1596 C1597 1.349 . S
C1596 C1598 1.327 . S
C1596 H1621 0.950 . S
C1597 C1596 1.349 . S
C1597 C1613 1.349 . S
C1598 C1596 1.327 . S
C1598 C1617 1.429 . S
C1598 H1622 0.950 . S
C1599 C1616 1.574 . S
C1599 C1618 1.368 . S
C1599 H1623 0.949 . S
H1600 C1604 0.949 . S
C1601 C1602 1.349 . S
C1601 C1603 1.327 . S
C1601 H1624 0.950 . S
C1602 C1601 1.349 . S
C1602 C1614 1.349 . S
C1603 C1601 1.327 . S
C1603 C1619 1.429 . S
C1603 H1625 0.950 . S
C1604 H1600 0.949 . S
C1604 C1612 1.574 . S
C1604 C1620 1.368 . S
H1605 C1613 0.950 . S
H1606 C1611 0.950 . S
H1607 C1612 0.949 . S
H1608 C1614 0.950 . S
H1609 C1615 0.950 . S
H1610 C1616 0.949 . S
C1611 H1606 0.950 . S
C1611 C1613 1.327 . S
C1611 C1617 1.429 . S
C1612 C1604 1.574 . S
C1612 H1607 0.949 . S
C1612 C1618 1.368 . S
C1613 C1597 1.349 . S
C1613 H1605 0.950 . S
C1613 C1611 1.327 . S
C1614 C1602 1.349 . S
C1614 H1608 0.950 . S
C1614 C1615 1.327 . S
C1615 H1609 0.950 . S
C1615 C1614 1.327 . S
C1615 C1619 1.429 . S
C1616 C1599 1.574 . S
C1616 H1610 0.949 . S
C1616 C1620 1.368 . S
C1617 C1598 1.429 . S
C1617 C1611 1.429 . S
C1617 C1618 1.523 . S
C1618 C1599 1.368 . S
C1618 C1612 1.368 . S
C1618 C1617 1.523 . S
C1619 C1603 1.429 . S
C1619 C1615 1.429 . S
C1619 C1620 1.523 . S
C1620 C1604 1.368 . S
C1620 C1616 1.368 . S
C1620 C1619 1.523 . S
H1621 C1596 0.950 . S
H1622 C1598 0.950 . S
H1623 C1599 0.949 . S
H1624 C1601 0.950 . S
H1625 C1603 0.950 . S
C1626 C1627 1.349 . S
C1626 C1628 1.327 . S
C1626 H1651 0.950 . S
C1627 C1626 1.349 . S
C1627 C1643 1.349 . S
C1628 C1626 1.327 . S
C1628 C1647 1.429 . S
C1628 H1652 0.950 . S
C1629 C1646 1.574 . S
C1629 C1648 1.368 . S
C1629 H1653 0.949 . S
H1630 C1634 0.949 . S
C1631 C1632 1.349 . S
C1631 C1633 1.327 . S
C1631 H1654 0.950 . S
C1632 C1631 1.349 . S
C1632 C1644 1.349 . S
C1633 C1631 1.327 . S
C1633 C1649 1.429 . S
C1633 H1655 0.950 . S
C1634 H1630 0.949 . S
C1634 C1642 1.574 . S
C1634 C1650 1.368 . S
H1635 C1643 0.950 . S
H1636 C1641 0.950 . S
H1637 C1642 0.949 . S
H1638 C1644 0.950 . S
H1639 C1645 0.950 . S
H1640 C1646 0.949 . S
C1641 H1636 0.950 . S
C1641 C1643 1.327 . S
C1641 C1647 1.429 . S
C1642 C1634 1.574 . S
C1642 H1637 0.949 . S
C1642 C1648 1.368 . S
C1643 C1627 1.349 . S
C1643 H1635 0.950 . S
C1643 C1641 1.327 . S
C1644 C1632 1.349 . S
C1644 H1638 0.950 . S
C1644 C1645 1.327 . S
C1645 H1639 0.950 . S
C1645 C1644 1.327 . S
C1645 C1649 1.429 . S
C1646 C1629 1.574 . S
C1646 H1640 0.949 . S
C1646 C1650 1.368 . S
C1647 C1628 1.429 . S
C1647 C1641 1.429 . S
C1647 C1648 1.523 . S
C1648 C1629 1.368 . S
C1648 C1642 1.368 . S
C1648 C1647 1.523 . S
C1649 C1633 1.429 . S
C1649 C1645 1.429 . S
C1649 C1650 1.523 . S
C1650 C1634 1.368 . S
C1650 C1646 1.368 . S
C1650 C1649 1.523 . S
H1651 C1626 0.950 . S
H1652 C1628 0.950 . S
H1653 C1629 0.949 . S
H1654 C1631 0.950 . S
H1655 C1633 0.950 . S
C1656 C1657 1.349 . S
C1656 C1658 1.327 . S
C1656 H1681 0.950 . S
C1657 C1656 1.349 . S
C1657 C1673 1.349 . S
C1658 C1656 1.327 . S
C1658 C1677 1.429 . S
C1658 H1682 0.950 . S
C1659 C1676 1.574 . S
C1659 C1678 1.368 . S
C1659 H1683 0.949 . S
H1660 C1664 0.949 . S
C1661 C1662 1.349 . S
C1661 C1663 1.327 . S
C1661 H1684 0.950 . S
C1662 C1661 1.349 . S
C1662 C1674 1.349 . S
C1663 C1661 1.327 . S
C1663 C1679 1.429 . S
C1663 H1685 0.950 . S
C1664 H1660 0.949 . S
C1664 C1672 1.574 . S
C1664 C1680 1.368 . S
H1665 C1673 0.950 . S
H1666 C1671 0.950 . S
H1667 C1672 0.949 . S
H1668 C1674 0.950 . S
H1669 C1675 0.950 . S
H1670 C1676 0.949 . S
C1671 H1666 0.950 . S
C1671 C1673 1.327 . S
C1671 C1677 1.429 . S
C1672 C1664 1.574 . S
C1672 H1667 0.949 . S
C1672 C1678 1.368 . S
C1673 C1657 1.349 . S
C1673 H1665 0.950 . S
C1673 C1671 1.327 . S
C1674 C1662 1.349 . S
C1674 H1668 0.950 . S
C1674 C1675 1.327 . S
C1675 H1669 0.950 . S
C1675 C1674 1.327 . S
C1675 C1679 1.429 . S
C1676 C1659 1.574 . S
C1676 H1670 0.949 . S
C1676 C1680 1.368 . S
C1677 C1658 1.429 . S
C1677 C1671 1.429 . S
C1677 C1678 1.523 . S
C1678 C1659 1.368 . S
C1678 C1672 1.368 . S
C1678 C1677 1.523 . S
C1679 C1663 1.429 . S
C1679 C1675 1.429 . S
C1679 C1680 1.523 . S
C1680 C1664 1.368 . S
C1680 C1676 1.368 . S
C1680 C1679 1.523 . S
H1681 C1656 0.950 . S
H1682 C1658 0.950 . S
H1683 C1659 0.949 . S
H1684 C1661 0.950 . S
H1685 C1663 0.950 . S
C1686 C1687 1.349 . S
C1686 C1688 1.327 1_554 S
C1686 H1711 0.950 . S
C1687 C1686 1.349 . S
C1687 C1703 1.349 1_554 S
C1688 C1686 1.327 1_556 S
C1688 C1707 1.429 1_545 S
C1688 H1712 0.950 1_556 S
C1689 C1706 1.574 . S
C1689 C1708 1.368 . S
C1689 H1713 0.949 . S
H1690 C1694 0.949 . S
C1691 C1692 1.349 . S
C1691 C1693 1.327 . S
C1691 H1714 0.950 . S
C1692 C1691 1.349 . S
C1692 C1704 1.349 . S
C1693 C1691 1.327 . S
C1693 C1709 1.429 . S
C1693 H1715 0.950 . S
C1694 H1690 0.949 . S
C1694 C1702 1.574 . S
C1694 C1710 1.368 . S
H1695 C1703 0.943 1_565 S
H1696 C1701 0.950 . S
H1697 C1702 0.949 . S
H1698 C1704 0.950 . S
H1699 C1705 0.950 . S
H1700 C1706 0.949 . S
C1701 H1696 0.950 . S
C1701 C1703 1.327 1_565 S
C1701 C1707 1.429 . S
C1702 C1694 1.574 . S
C1702 H1697 0.949 . S
C1702 C1708 1.368 . S
C1703 C1687 1.349 1_556 S
C1703 H1695 0.943 1_545 S
C1703 C1701 1.327 1_545 S
C1704 C1692 1.349 . S
C1704 H1698 0.950 . S
C1704 C1705 1.327 . S
C1705 H1699 0.950 . S
C1705 C1704 1.327 . S
C1705 C1709 1.429 . S
C1706 C1689 1.574 . S
C1706 H1700 0.949 . S
C1706 C1710 1.368 . S
C1707 C1688 1.429 1_565 S
C1707 C1701 1.429 . S
C1707 C1708 1.523 . S
C1708 C1689 1.368 . S
C1708 C1702 1.368 . S
C1708 C1707 1.523 . S
C1709 C1693 1.429 . S
C1709 C1705 1.429 . S
C1709 C1710 1.523 . S
C1710 C1694 1.368 . S
C1710 C1706 1.368 . S
C1710 C1709 1.523 . S
H1711 C1686 0.950 . S
H1712 C1688 0.950 1_554 S
H1713 C1689 0.949 . S
H1714 C1691 0.950 . S
H1715 C1693 0.950 . S
C1716 C1717 1.349 . S
C1716 C1718 1.327 . S
C1716 H1741 0.950 . S
C1717 C1716 1.349 . S
C1717 C1733 1.349 . S
C1718 C1716 1.327 . S
C1718 C1737 1.429 . S
C1718 H1742 0.950 . S
C1719 C1736 1.574 . S
C1719 C1738 1.368 . S
C1719 H1743 0.949 . S
H1720 C1724 0.949 . S
C1721 C1722 1.349 . S
C1721 C1723 1.327 . S
C1721 H1744 0.950 . S
C1722 C1721 1.349 . S
C1722 C1734 1.349 . S
C1723 C1721 1.327 . S
C1723 C1739 1.429 . S
C1723 H1745 0.950 . S
C1724 H1720 0.949 . S
C1724 C1732 1.574 . S
C1724 C1740 1.368 . S
H1725 C1733 0.950 . S
H1726 C1731 0.950 . S
H1727 C1732 0.949 . S
H1728 C1734 0.950 . S
H1729 C1735 0.950 . S
H1730 C1736 0.949 . S
C1731 H1726 0.950 . S
C1731 C1733 1.327 . S
C1731 C1737 1.429 . S
C1732 C1724 1.574 . S
C1732 H1727 0.949 . S
C1732 C1738 1.368 . S
C1733 C1717 1.349 . S
C1733 H1725 0.950 . S
C1733 C1731 1.327 . S
C1734 C1722 1.349 . S
C1734 H1728 0.950 . S
C1734 C1735 1.327 . S
C1735 H1729 0.950 . S
C1735 C1734 1.327 . S
C1735 C1739 1.429 . S
C1736 C1719 1.574 . S
C1736 H1730 0.949 . S
C1736 C1740 1.368 . S
C1737 C1718 1.429 . S
C1737 C1731 1.429 . S
C1737 C1738 1.523 . S
C1738 C1719 1.368 . S
C1738 C1732 1.368 . S
C1738 C1737 1.523 . S
C1739 C1723 1.429 . S
C1739 C1735 1.429 . S
C1739 C1740 1.523 . S
C1740 C1724 1.368 . S
C1740 C1736 1.368 . S
C1740 C1739 1.523 . S
H1741 C1716 0.950 . S
H1742 C1718 0.950 . S
H1743 C1719 0.949 . S
H1744 C1721 0.950 . S
H1745 C1723 0.950 . S
C1746 C1747 1.349 . S
C1746 C1748 1.327 . S
C1746 H1771 0.950 1_655 S
C1747 C1746 1.349 . S
C1747 C1763 1.349 . S
C1748 C1746 1.327 . S
C1748 C1767 1.429 . S
C1748 H1772 0.950 . S
C1749 C1766 1.574 . S
C1749 C1768 1.368 . S
C1749 H1773 0.949 . S
H1750 C1754 0.949 . S
C1751 C1752 1.349 . S
C1751 C1753 1.327 . S
C1751 H1774 0.950 . S
C1752 C1751 1.349 . S
C1752 C1764 1.349 . S
C1753 C1751 1.327 . S
C1753 C1769 1.429 . S
C1753 H1775 0.950 . S
C1754 H1750 0.949 . S
C1754 C1762 1.574 . S
C1754 C1770 1.368 . S
H1755 C1763 0.950 . S
H1756 C1761 0.950 . S
H1757 C1762 0.949 . S
H1758 C1764 0.950 . S
H1759 C1765 0.950 . S
H1760 C1766 0.949 . S
C1761 H1756 0.950 . S
C1761 C1763 1.327 . S
C1761 C1767 1.429 . S
C1762 C1754 1.574 . S
C1762 H1757 0.949 . S
C1762 C1768 1.368 . S
C1763 C1747 1.349 . S
C1763 H1755 0.950 . S
C1763 C1761 1.327 . S
C1764 C1752 1.349 . S
C1764 H1758 0.950 . S
C1764 C1765 1.327 . S
C1765 H1759 0.950 . S
C1765 C1764 1.327 . S
C1765 C1769 1.429 . S
C1766 C1749 1.574 . S
C1766 H1760 0.949 . S
C1766 C1770 1.368 . S
C1767 C1748 1.429 . S
C1767 C1761 1.429 . S
C1767 C1768 1.523 . S
C1768 C1749 1.368 . S
C1768 C1762 1.368 . S
C1768 C1767 1.523 . S
C1769 C1753 1.429 . S
C1769 C1765 1.429 . S
C1769 C1770 1.523 . S
C1770 C1754 1.368 . S
C1770 C1766 1.368 . S
C1770 C1769 1.523 . S
H1771 C1746 0.950 1_455 S
H1772 C1748 0.950 . S
H1773 C1749 0.949 . S
H1774 C1751 0.950 . S
H1775 C1753 0.950 . S
C1776 C1777 1.349 . S
C1776 C1778 1.327 . S
C1776 H1801 0.950 . S
C1777 C1776 1.349 . S
C1777 C1793 1.349 . S
C1778 C1776 1.327 . S
C1778 C1797 1.429 . S
C1778 H1802 0.950 . S
C1779 C1796 1.574 . S
C1779 C1798 1.368 . S
C1779 H1803 0.949 . S
H1780 C1784 0.949 . S
C1781 C1782 1.349 . S
C1781 C1783 1.327 . S
C1781 H1804 0.950 . S
C1782 C1781 1.349 . S
C1782 C1794 1.349 . S
C1783 C1781 1.327 . S
C1783 C1799 1.429 . S
C1783 H1805 0.950 . S
C1784 H1780 0.949 . S
C1784 C1792 1.574 . S
C1784 C1800 1.368 . S
H1785 C1793 0.950 . S
H1786 C1791 0.950 . S
H1787 C1792 0.949 . S
H1788 C1794 0.950 . S
H1789 C1795 0.950 . S
H1790 C1796 0.949 . S
C1791 H1786 0.950 . S
C1791 C1793 1.327 . S
C1791 C1797 1.429 . S
C1792 C1784 1.574 . S
C1792 H1787 0.949 . S
C1792 C1798 1.368 . S
C1793 C1777 1.349 . S
C1793 H1785 0.950 . S
C1793 C1791 1.327 . S
C1794 C1782 1.349 . S
C1794 H1788 0.950 . S
C1794 C1795 1.327 . S
C1795 H1789 0.950 . S
C1795 C1794 1.327 . S
C1795 C1799 1.429 . S
C1796 C1779 1.574 . S
C1796 H1790 0.949 . S
C1796 C1800 1.368 . S
C1797 C1778 1.429 . S
C1797 C1791 1.429 . S
C1797 C1798 1.523 . S
C1798 C1779 1.368 . S
C1798 C1792 1.368 . S
C1798 C1797 1.523 . S
C1799 C1783 1.429 . S
C1799 C1795 1.429 . S
C1799 C1800 1.523 . S
C1800 C1784 1.368 . S
C1800 C1796 1.368 . S
C1800 C1799 1.523 . S
H1801 C1776 0.950 . S
H1802 C1778 0.950 . S
H1803 C1779 0.949 . S
H1804 C1781 0.950 . S
H1805 C1783 0.950 . S
C1806 C1807 1.349 . S
C1806 C1808 1.327 . S
C1806 H1831 0.950 . S
C1807 C1806 1.349 . S
C1807 C1823 1.349 . S
C1808 C1806 1.327 . S
C1808 C1827 1.429 . S
C1808 H1832 0.950 . S
C1809 C1826 1.574 . S
C1809 C1828 1.368 . S
C1809 H1833 0.949 . S
H1810 C1814 0.949 . S
C1811 C1812 1.349 . S
C1811 C1813 1.327 . S
C1811 H1834 0.950 . S
C1812 C1811 1.349 . S
C1812 C1824 1.349 . S
C1813 C1811 1.327 . S
C1813 C1829 1.429 . S
C1813 H1835 0.950 . S
C1814 H1810 0.949 . S
C1814 C1822 1.574 . S
C1814 C1830 1.368 . S
H1815 C1823 0.950 . S
H1816 C1821 0.950 . S
H1817 C1822 0.949 . S
H1818 C1824 0.950 . S
H1819 C1825 0.950 . S
H1820 C1826 0.949 . S
C1821 H1816 0.950 . S
C1821 C1823 1.327 . S
C1821 C1827 1.429 . S
C1822 C1814 1.574 . S
C1822 H1817 0.949 . S
C1822 C1828 1.368 . S
C1823 C1807 1.349 . S
C1823 H1815 0.950 . S
C1823 C1821 1.327 . S
C1824 C1812 1.349 . S
C1824 H1818 0.950 . S
C1824 C1825 1.327 . S
C1825 H1819 0.950 . S
C1825 C1824 1.327 . S
C1825 C1829 1.429 . S
C1826 C1809 1.574 . S
C1826 H1820 0.949 . S
C1826 C1830 1.368 . S
C1827 C1808 1.429 . S
C1827 C1821 1.429 . S
C1827 C1828 1.523 . S
C1828 C1809 1.368 . S
C1828 C1822 1.368 . S
C1828 C1827 1.523 . S
C1829 C1813 1.429 . S
C1829 C1825 1.429 . S
C1829 C1830 1.523 . S
C1830 C1814 1.368 . S
C1830 C1826 1.368 . S
C1830 C1829 1.523 . S
H1831 C1806 0.950 . S
H1832 C1808 0.950 . S
H1833 C1809 0.949 . S
H1834 C1811 0.950 . S
H1835 C1813 0.950 . S
C1836 C1837 1.349 . S
C1836 C1838 1.327 . S
C1836 H1861 0.950 . S
C1837 C1836 1.349 . S
C1837 C1853 1.349 . S
C1838 C1836 1.327 . S
C1838 C1857 1.429 . S
C1838 H1862 0.950 . S
C1839 C1856 1.574 . S
C1839 C1858 1.368 . S
C1839 H1863 0.949 . S
H1840 C1844 0.949 . S
C1841 C1842 1.349 . S
C1841 C1843 1.327 . S
C1841 H1864 0.950 . S
C1842 C1841 1.349 . S
C1842 C1854 1.349 . S
C1843 C1841 1.327 . S
C1843 C1859 1.429 . S
C1843 H1865 0.950 . S
C1844 H1840 0.949 . S
C1844 C1852 1.574 . S
C1844 C1860 1.368 . S
H1845 C1853 0.950 . S
H1846 C1851 0.950 . S
H1847 C1852 0.949 . S
H1848 C1854 0.950 . S
H1849 C1855 0.950 . S
H1850 C1856 0.949 . S
C1851 H1846 0.950 . S
C1851 C1853 1.327 . S
C1851 C1857 1.429 . S
C1852 C1844 1.574 . S
C1852 H1847 0.949 . S
C1852 C1858 1.368 . S
C1853 C1837 1.349 . S
C1853 H1845 0.950 . S
C1853 C1851 1.327 . S
C1854 C1842 1.349 . S
C1854 H1848 0.950 . S
C1854 C1855 1.327 . S
C1855 H1849 0.950 . S
C1855 C1854 1.327 . S
C1855 C1859 1.429 . S
C1856 C1839 1.574 . S
C1856 H1850 0.949 . S
C1856 C1860 1.368 . S
C1857 C1838 1.429 . S
C1857 C1851 1.429 . S
C1857 C1858 1.523 . S
C1858 C1839 1.368 . S
C1858 C1852 1.368 . S
C1858 C1857 1.523 . S
C1859 C1843 1.429 . S
C1859 C1855 1.429 . S
C1859 C1860 1.523 . S
C1860 C1844 1.368 . S
C1860 C1856 1.368 . S
C1860 C1859 1.523 . S
H1861 C1836 0.950 . S
H1862 C1838 0.950 . S
H1863 C1839 0.949 . S
H1864 C1841 0.950 . S
H1865 C1843 0.950 . S
C1866 C1867 1.349 . S
C1866 C1868 1.327 . S
C1866 H1891 0.950 . S
C1867 C1866 1.349 . S
C1867 C1883 1.349 . S
C1868 C1866 1.327 . S
C1868 C1887 1.429 . S
C1868 H1892 0.950 . S
C1869 C1886 1.574 . S
C1869 C1888 1.368 . S
C1869 H1893 0.949 . S
H1870 C1874 0.949 . S
C1871 C1872 1.349 . S
C1871 C1873 1.327 . S
C1871 H1894 0.950 . S
C1872 C1871 1.349 . S
C1872 C1884 1.349 . S
C1873 C1871 1.327 . S
C1873 C1889 1.429 . S
C1873 H1895 0.950 . S
C1874 H1870 0.949 . S
C1874 C1882 1.574 . S
C1874 C1890 1.368 . S
H1875 C1883 0.950 . S
H1876 C1881 0.950 . S
H1877 C1882 0.949 . S
H1878 C1884 0.950 . S
H1879 C1885 0.950 . S
H1880 C1886 0.949 . S
C1881 H1876 0.950 . S
C1881 C1883 1.327 . S
C1881 C1887 1.429 . S
C1882 C1874 1.574 . S
C1882 H1877 0.949 . S
C1882 C1888 1.368 . S
C1883 C1867 1.349 . S
C1883 H1875 0.950 . S
C1883 C1881 1.327 . S
C1884 C1872 1.349 . S
C1884 H1878 0.950 . S
C1884 C1885 1.327 . S
C1885 H1879 0.950 . S
C1885 C1884 1.327 . S
C1885 C1889 1.429 . S
C1886 C1869 1.574 . S
C1886 H1880 0.949 . S
C1886 C1890 1.368 . S
C1887 C1868 1.429 . S
C1887 C1881 1.429 . S
C1887 C1888 1.523 . S
C1888 C1869 1.368 . S
C1888 C1882 1.368 . S
C1888 C1887 1.523 . S
C1889 C1873 1.429 . S
C1889 C1885 1.429 . S
C1889 C1890 1.523 . S
C1890 C1874 1.368 . S
C1890 C1886 1.368 . S
C1890 C1889 1.523 . S
H1891 C1866 0.950 . S
H1892 C1868 0.950 . S
H1893 C1869 0.949 . S
H1894 C1871 0.950 . S
H1895 C1873 0.950 . S
C1896 C1897 1.349 . S
C1896 C1898 1.327 . S
C1896 H1921 0.950 . S
C1897 C1896 1.349 . S
C1897 C1913 1.349 . S
C1898 C1896 1.327 . S
C1898 C1917 1.429 . S
C1898 H1922 0.950 . S
C1899 C1916 1.574 . S
C1899 C1918 1.368 . S
C1899 H1923 0.949 . S
H1900 C1904 0.949 . S
C1901 C1902 1.349 . S
C1901 C1903 1.327 . S
C1901 H1924 0.950 . S
C1902 C1901 1.349 . S
C1902 C1914 1.349 . S
C1903 C1901 1.327 . S
C1903 C1919 1.429 . S
C1903 H1925 0.950 . S
C1904 H1900 0.949 . S
C1904 C1912 1.574 . S
C1904 C1920 1.368 . S
H1905 C1913 0.950 . S
H1906 C1911 0.950 . S
H1907 C1912 0.949 . S
H1908 C1914 0.950 . S
H1909 C1915 0.950 . S
H1910 C1916 0.949 . S
C1911 H1906 0.950 . S
C1911 C1913 1.327 . S
C1911 C1917 1.429 . S
C1912 C1904 1.574 . S
C1912 H1907 0.949 . S
C1912 C1918 1.368 . S
C1913 C1897 1.349 . S
C1913 H1905 0.950 . S
C1913 C1911 1.327 . S
C1914 C1902 1.349 . S
C1914 H1908 0.950 . S
C1914 C1915 1.327 . S
C1915 H1909 0.950 . S
C1915 C1914 1.327 . S
C1915 C1919 1.429 . S
C1916 C1899 1.574 . S
C1916 H1910 0.949 . S
C1916 C1920 1.368 . S
C1917 C1898 1.429 . S
C1917 C1911 1.429 . S
C1917 C1918 1.523 . S
C1918 C1899 1.368 . S
C1918 C1912 1.368 . S
C1918 C1917 1.523 . S
C1919 C1903 1.429 . S
C1919 C1915 1.429 . S
C1919 C1920 1.523 . S
C1920 C1904 1.368 . S
C1920 C1916 1.368 . S
C1920 C1919 1.523 . S
H1921 C1896 0.950 . S
H1922 C1898 0.950 . S
H1923 C1899 0.949 . S
H1924 C1901 0.950 . S
H1925 C1903 0.950 . S
C1926 C1927 1.349 . S
C1926 C1928 1.327 . S
C1926 H1951 0.950 . S
C1927 C1926 1.349 . S
C1927 C1943 1.349 . S
C1928 C1926 1.327 . S
C1928 C1947 1.429 . S
C1928 H1952 0.950 . S
C1929 C1946 1.574 . S
C1929 C1948 1.368 . S
C1929 H1953 0.949 . S
H1930 C1934 0.949 . S
C1931 C1932 1.349 . S
C1931 C1933 1.327 . S
C1931 H1954 0.950 . S
C1932 C1931 1.349 . S
C1932 C1944 1.349 . S
C1933 C1931 1.327 . S
C1933 C1949 1.429 . S
C1933 H1955 0.950 . S
C1934 H1930 0.949 . S
C1934 C1942 1.574 . S
C1934 C1950 1.368 . S
H1935 C1943 0.950 . S
H1936 C1941 0.950 . S
H1937 C1942 0.949 . S
H1938 C1944 0.950 . S
H1939 C1945 0.950 . S
H1940 C1946 0.949 . S
C1941 H1936 0.950 . S
C1941 C1943 1.327 . S
C1941 C1947 1.429 . S
C1942 C1934 1.574 . S
C1942 H1937 0.949 . S
C1942 C1948 1.368 . S
C1943 C1927 1.349 . S
C1943 H1935 0.950 . S
C1943 C1941 1.327 . S
C1944 C1932 1.349 . S
C1944 H1938 0.950 . S
C1944 C1945 1.327 . S
C1945 H1939 0.950 . S
C1945 C1944 1.327 . S
C1945 C1949 1.429 . S
C1946 C1929 1.574 . S
C1946 H1940 0.949 . S
C1946 C1950 1.368 . S
C1947 C1928 1.429 . S
C1947 C1941 1.429 . S
C1947 C1948 1.523 . S
C1948 C1929 1.368 . S
C1948 C1942 1.368 . S
C1948 C1947 1.523 . S
C1949 C1933 1.429 . S
C1949 C1945 1.429 . S
C1949 C1950 1.523 . S
C1950 C1934 1.368 . S
C1950 C1946 1.368 . S
C1950 C1949 1.523 . S
H1951 C1926 0.950 . S
H1952 C1928 0.950 . S
H1953 C1929 0.949 . S
H1954 C1931 0.950 . S
H1955 C1933 0.950 . S
C1956 C1957 1.349 . S
C1956 C1958 1.327 . S
C1956 H1981 0.950 . S
C1957 C1956 1.349 . S
C1957 C1973 1.349 . S
C1958 C1956 1.327 . S
C1958 C1977 1.429 . S
C1958 H1982 0.950 . S
C1959 C1976 1.574 . S
C1959 C1978 1.368 . S
C1959 H1983 0.949 . S
H1960 C1964 0.949 . S
C1961 C1962 1.349 . S
C1961 C1963 1.327 . S
C1961 H1984 0.950 . S
C1962 C1961 1.349 . S
C1962 C1974 1.349 . S
C1963 C1961 1.327 . S
C1963 C1979 1.429 . S
C1963 H1985 0.950 . S
C1964 H1960 0.949 . S
C1964 C1972 1.574 . S
C1964 C1980 1.368 . S
H1965 C1973 0.950 . S
H1966 C1971 0.950 . S
H1967 C1972 0.949 . S
H1968 C1974 0.950 . S
H1969 C1975 0.950 . S
H1970 C1976 0.949 . S
C1971 H1966 0.950 . S
C1971 C1973 1.327 . S
C1971 C1977 1.429 . S
C1972 C1964 1.574 . S
C1972 H1967 0.949 . S
C1972 C1978 1.368 . S
C1973 C1957 1.349 . S
C1973 H1965 0.950 . S
C1973 C1971 1.327 . S
C1974 C1962 1.349 . S
C1974 H1968 0.950 . S
C1974 C1975 1.327 . S
C1975 H1969 0.950 . S
C1975 C1974 1.327 . S
C1975 C1979 1.429 . S
C1976 C1959 1.574 . S
C1976 H1970 0.949 . S
C1976 C1980 1.368 . S
C1977 C1958 1.429 . S
C1977 C1971 1.429 . S
C1977 C1978 1.523 . S
C1978 C1959 1.368 . S
C1978 C1972 1.368 . S
C1978 C1977 1.523 . S
C1979 C1963 1.429 . S
C1979 C1975 1.429 . S
C1979 C1980 1.523 . S
C1980 C1964 1.368 . S
C1980 C1976 1.368 . S
C1980 C1979 1.523 . S
H1981 C1956 0.950 . S
H1982 C1958 0.950 . S
H1983 C1959 0.949 . S
H1984 C1961 0.950 . S
H1985 C1963 0.950 . S
C1986 C1987 1.349 . S
C1986 C1988 1.327 . S
C1986 H2011 0.950 . S
C1987 C1986 1.349 . S
C1987 C2003 1.349 . S
C1988 C1986 1.327 . S
C1988 C2007 1.429 . S
C1988 H2012 0.950 . S
C1989 C2006 1.574 . S
C1989 C2008 1.368 . S
C1989 H2013 0.949 . S
H1990 C1994 0.949 . S
C1991 C1992 1.349 . S
C1991 C1993 1.327 . S
C1991 H2014 0.950 . S
C1992 C1991 1.349 . S
C1992 C2004 1.349 . S
C1993 C1991 1.327 . S
C1993 C2009 1.429 . S
C1993 H2015 0.950 . S
C1994 H1990 0.949 . S
C1994 C2002 1.574 . S
C1994 C2010 1.368 . S
H1995 C2003 0.950 . S
H1996 C2001 0.950 . S
H1997 C2002 0.949 . S
H1998 C2004 0.950 . S
H1999 C2005 0.950 . S
H2000 C2006 0.949 . S
C2001 H1996 0.950 . S
C2001 C2003 1.327 . S
C2001 C2007 1.429 . S
C2002 C1994 1.574 . S
C2002 H1997 0.949 . S
C2002 C2008 1.368 . S
C2003 C1987 1.349 . S
C2003 H1995 0.950 . S
C2003 C2001 1.327 . S
C2004 C1992 1.349 . S
C2004 H1998 0.950 . S
C2004 C2005 1.327 . S
C2005 H1999 0.950 . S
C2005 C2004 1.327 . S
C2005 C2009 1.429 . S
C2006 C1989 1.574 . S
C2006 H2000 0.949 . S
C2006 C2010 1.368 . S
C2007 C1988 1.429 . S
C2007 C2001 1.429 . S
C2007 C2008 1.523 . S
C2008 C1989 1.368 . S
C2008 C2002 1.368 . S
C2008 C2007 1.523 . S
C2009 C1993 1.429 . S
C2009 C2005 1.429 . S
C2009 C2010 1.523 . S
C2010 C1994 1.368 . S
C2010 C2006 1.368 . S
C2010 C2009 1.523 . S
H2011 C1986 0.950 . S
H2012 C1988 0.950 . S
H2013 C1989 0.949 . S
H2014 C1991 0.950 . S
H2015 C1993 0.950 . S
C2016 C2017 1.349 . S
C2016 C2018 1.327 . S
C2016 H2041 0.950 . S
C2017 C2016 1.349 . S
C2017 C2033 1.349 . S
C2018 C2016 1.327 . S
C2018 C2037 1.429 . S
C2018 H2042 0.950 . S
C2019 C2036 1.574 . S
C2019 C2038 1.368 . S
C2019 H2043 0.949 . S
H2020 C2024 0.949 . S
C2021 C2022 1.349 . S
C2021 C2023 1.327 . S
C2021 H2044 0.950 . S
C2022 C2021 1.349 . S
C2022 C2034 1.349 . S
C2023 C2021 1.327 . S
C2023 C2039 1.429 . S
C2023 H2045 0.950 . S
C2024 H2020 0.949 . S
C2024 C2032 1.574 . S
C2024 C2040 1.368 . S
H2025 C2033 0.950 . S
H2026 C2031 0.950 . S
H2027 C2032 0.949 . S
H2028 C2034 0.950 . S
H2029 C2035 0.950 . S
H2030 C2036 0.949 . S
C2031 H2026 0.950 . S
C2031 C2033 1.327 . S
C2031 C2037 1.429 . S
C2032 C2024 1.574 . S
C2032 H2027 0.949 . S
C2032 C2038 1.368 . S
C2033 C2017 1.349 . S
C2033 H2025 0.950 . S
C2033 C2031 1.327 . S
C2034 C2022 1.349 . S
C2034 H2028 0.950 . S
C2034 C2035 1.327 . S
C2035 H2029 0.950 . S
C2035 C2034 1.327 . S
C2035 C2039 1.429 . S
C2036 C2019 1.574 . S
C2036 H2030 0.949 . S
C2036 C2040 1.368 . S
C2037 C2018 1.429 . S
C2037 C2031 1.429 . S
C2037 C2038 1.523 . S
C2038 C2019 1.368 . S
C2038 C2032 1.368 . S
C2038 C2037 1.523 . S
C2039 C2023 1.429 . S
C2039 C2035 1.429 . S
C2039 C2040 1.523 . S
C2040 C2024 1.368 . S
C2040 C2036 1.368 . S
C2040 C2039 1.523 . S
H2041 C2016 0.950 . S
H2042 C2018 0.950 . S
H2043 C2019 0.949 . S
H2044 C2021 0.950 . S
H2045 C2023 0.950 . S
C2046 C2047 1.349 . S
C2046 C2048 1.327 . S
C2046 H2071 0.950 . S
C2047 C2046 1.349 . S
C2047 C2063 1.349 . S
C2048 C2046 1.327 . S
C2048 C2067 1.429 . S
C2048 H2072 0.950 . S
C2049 C2066 1.574 . S
C2049 C2068 1.368 . S
C2049 H2073 0.949 . S
H2050 C2054 0.949 . S
C2051 C2052 1.349 . S
C2051 C2053 1.327 . S
C2051 H2074 0.950 . S
C2052 C2051 1.349 . S
C2052 C2064 1.349 . S
C2053 C2051 1.327 . S
C2053 C2069 1.429 . S
C2053 H2075 0.950 . S
C2054 H2050 0.949 . S
C2054 C2062 1.574 . S
C2054 C2070 1.368 . S
H2055 C2063 0.950 . S
H2056 C2061 0.950 . S
H2057 C2062 0.949 . S
H2058 C2064 0.950 . S
H2059 C2065 0.950 . S
H2060 C2066 0.949 . S
C2061 H2056 0.950 . S
C2061 C2063 1.327 . S
C2061 C2067 1.429 . S
C2062 C2054 1.574 . S
C2062 H2057 0.949 . S
C2062 C2068 1.368 . S
C2063 C2047 1.349 . S
C2063 H2055 0.950 . S
C2063 C2061 1.327 . S
C2064 C2052 1.349 . S
C2064 H2058 0.950 . S
C2064 C2065 1.327 . S
C2065 H2059 0.950 . S
C2065 C2064 1.327 . S
C2065 C2069 1.429 . S
C2066 C2049 1.574 . S
C2066 H2060 0.949 . S
C2066 C2070 1.368 . S
C2067 C2048 1.429 . S
C2067 C2061 1.429 . S
C2067 C2068 1.523 . S
C2068 C2049 1.368 . S
C2068 C2062 1.368 . S
C2068 C2067 1.523 . S
C2069 C2053 1.429 . S
C2069 C2065 1.429 . S
C2069 C2070 1.523 . S
C2070 C2054 1.368 . S
C2070 C2066 1.368 . S
C2070 C2069 1.523 . S
H2071 C2046 0.950 . S
H2072 C2048 0.950 . S
H2073 C2049 0.949 . S
H2074 C2051 0.950 . S
H2075 C2053 0.950 . S
C2076 C2077 1.349 . S
C2076 C2078 1.327 1_655 S
C2076 H2101 0.950 . S
C2077 C2076 1.349 . S
C2077 C2093 1.349 1_655 S
C2078 C2076 1.327 1_455 S
C2078 C2097 1.429 . S
C2078 H2102 0.950 . S
C2079 C2096 1.574 . S
C2079 C2098 1.368 . S
C2079 H2103 0.949 . S
H2080 C2084 0.949 . S
C2081 C2082 1.349 . S
C2081 C2083 1.327 . S
C2081 H2104 0.950 . S
C2082 C2081 1.349 . S
C2082 C2094 1.349 . S
C2083 C2081 1.327 . S
C2083 C2099 1.429 . S
C2083 H2105 0.950 . S
C2084 H2080 0.949 . S
C2084 C2092 1.574 . S
C2084 C2100 1.368 . S
H2085 C2093 0.950 . S
H2086 C2091 0.950 . S
H2087 C2092 0.949 . S
H2088 C2094 0.950 . S
H2089 C2095 0.950 . S
H2090 C2096 0.949 . S
C2091 H2086 0.950 . S
C2091 C2093 1.327 . S
C2091 C2097 1.429 . S
C2092 C2084 1.574 . S
C2092 H2087 0.949 . S
C2092 C2098 1.368 . S
C2093 C2077 1.349 1_455 S
C2093 H2085 0.950 . S
C2093 C2091 1.327 . S
C2094 C2082 1.349 . S
C2094 H2088 0.950 . S
C2094 C2095 1.327 . S
C2095 H2089 0.950 . S
C2095 C2094 1.327 . S
C2095 C2099 1.429 . S
C2096 C2079 1.574 . S
C2096 H2090 0.949 . S
C2096 C2100 1.368 . S
C2097 C2078 1.429 . S
C2097 C2091 1.429 . S
C2097 C2098 1.523 . S
C2098 C2079 1.368 . S
C2098 C2092 1.368 . S
C2098 C2097 1.523 . S
C2099 C2083 1.429 . S
C2099 C2095 1.429 . S
C2099 C2100 1.523 . S
C2100 C2084 1.368 . S
C2100 C2096 1.368 . S
C2100 C2099 1.523 . S
H2101 C2076 0.950 . S
H2102 C2078 0.950 . S
H2103 C2079 0.949 . S
H2104 C2081 0.950 . S
H2105 C2083 0.950 . S
C2106 C2107 1.349 1_554 S
C2106 C2108 1.327 . S
C2106 H2131 0.950 . S
C2107 C2106 1.349 1_556 S
C2107 C2123 1.349 . S
C2108 C2106 1.327 . S
C2108 C2127 1.429 . S
C2108 H2132 0.950 . S
C2109 C2126 1.574 . S
C2109 C2128 1.368 . S
C2109 H2133 0.949 . S
H2110 C2114 0.949 . S
C2111 C2112 1.349 . S
C2111 C2113 1.327 . S
C2111 H2134 0.950 . S
C2112 C2111 1.349 . S
C2112 C2124 1.349 . S
C2113 C2111 1.327 . S
C2113 C2129 1.429 . S
C2113 H2135 0.950 . S
C2114 H2110 0.949 . S
C2114 C2122 1.574 . S
C2114 C2130 1.368 . S
H2115 C2123 0.950 . S
H2116 C2121 0.950 . S
H2117 C2122 0.949 . S
H2118 C2124 0.950 . S
H2119 C2125 0.950 . S
H2120 C2126 0.949 . S
C2121 H2116 0.950 . S
C2121 C2123 1.327 1_554 S
C2121 C2127 1.429 . S
C2122 C2114 1.574 . S
C2122 H2117 0.949 . S
C2122 C2128 1.368 . S
C2123 C2107 1.349 . S
C2123 H2115 0.950 . S
C2123 C2121 1.327 1_556 S
C2124 C2112 1.349 . S
C2124 H2118 0.950 . S
C2124 C2125 1.327 . S
C2125 H2119 0.950 . S
C2125 C2124 1.327 . S
C2125 C2129 1.429 . S
C2126 C2109 1.574 . S
C2126 H2120 0.949 . S
C2126 C2130 1.368 . S
C2127 C2108 1.429 . S
C2127 C2121 1.429 . S
C2127 C2128 1.523 . S
C2128 C2109 1.368 . S
C2128 C2122 1.368 . S
C2128 C2127 1.523 . S
C2129 C2113 1.429 . S
C2129 C2125 1.429 . S
C2129 C2130 1.523 . S
C2130 C2114 1.368 . S
C2130 C2126 1.368 . S
C2130 C2129 1.523 . S
H2131 C2106 0.950 . S
H2132 C2108 0.950 . S
H2133 C2109 0.949 . S
H2134 C2111 0.950 . S
H2135 C2113 0.950 . S
C2136 C2137 1.349 . S
C2136 C2138 1.327 . S
C2136 H2161 0.950 1_545 S
C2137 C2136 1.349 . S
C2137 C2153 1.349 . S
C2138 C2136 1.327 . S
C2138 C2157 1.429 . S
C2138 H2162 0.910 1_545 S
C2139 C2156 1.574 . S
C2139 C2158 1.368 . S
C2139 H2163 0.949 . S
H2140 C2144 0.949 . S
C2141 C2142 1.349 . S
C2141 C2143 1.327 . S
C2141 H2164 0.950 . S
C2142 C2141 1.349 . S
C2142 C2154 1.349 . S
C2143 C2141 1.327 . S
C2143 C2159 1.429 . S
C2143 H2165 0.950 . S
C2144 H2140 0.949 . S
C2144 C2152 1.574 . S
C2144 C2160 1.368 . S
H2145 C2153 0.950 . S
H2146 C2151 0.950 . S
H2147 C2152 0.949 . S
H2148 C2154 0.950 . S
H2149 C2155 0.950 . S
H2150 C2156 0.949 . S
C2151 H2146 0.950 . S
C2151 C2153 1.327 . S
C2151 C2157 1.429 . S
C2152 C2144 1.574 . S
C2152 H2147 0.949 . S
C2152 C2158 1.368 . S
C2153 C2137 1.349 . S
C2153 H2145 0.950 . S
C2153 C2151 1.327 . S
C2154 C2142 1.349 . S
C2154 H2148 0.950 . S
C2154 C2155 1.327 . S
C2155 H2149 0.950 . S
C2155 C2154 1.327 . S
C2155 C2159 1.429 . S
C2156 C2139 1.574 . S
C2156 H2150 0.949 . S
C2156 C2160 1.368 . S
C2157 C2138 1.429 . S
C2157 C2151 1.429 . S
C2157 C2158 1.523 . S
C2158 C2139 1.368 . S
C2158 C2152 1.368 . S
C2158 C2157 1.523 . S
C2159 C2143 1.429 . S
C2159 C2155 1.429 . S
C2159 C2160 1.523 . S
C2160 C2144 1.368 . S
C2160 C2156 1.368 . S
C2160 C2159 1.523 . S
H2161 C2136 0.950 1_565 S
H2162 C2138 0.910 1_565 S
H2163 C2139 0.949 . S
H2164 C2141 0.950 . S
H2165 C2143 0.950 . S
C2166 C2167 1.349 . S
C2166 C2168 1.327 . S
C2166 H2191 0.950 . S
C2167 C2166 1.349 . S
C2167 C2183 1.349 . S
C2168 C2166 1.327 . S
C2168 C2187 1.429 . S
C2168 H2192 0.950 . S
C2169 C2186 1.574 . S
C2169 C2188 1.368 . S
C2169 H2193 0.949 . S
H2170 C2174 0.949 . S
C2171 C2172 1.349 . S
C2171 C2173 1.327 . S
C2171 H2194 0.950 . S
C2172 C2171 1.349 . S
C2172 C2184 1.349 . S
C2173 C2171 1.327 . S
C2173 C2189 1.429 . S
C2173 H2195 0.950 . S
C2174 H2170 0.949 . S
C2174 C2182 1.574 . S
C2174 C2190 1.368 . S
H2175 C2183 0.950 . S
H2176 C2181 0.950 . S
H2177 C2182 0.949 . S
H2178 C2184 0.950 . S
H2179 C2185 0.950 . S
H2180 C2186 0.949 . S
C2181 H2176 0.950 . S
C2181 C2183 1.327 . S
C2181 C2187 1.429 . S
C2182 C2174 1.574 . S
C2182 H2177 0.949 . S
C2182 C2188 1.368 . S
C2183 C2167 1.349 . S
C2183 H2175 0.950 . S
C2183 C2181 1.327 . S
C2184 C2172 1.349 . S
C2184 H2178 0.950 . S
C2184 C2185 1.327 . S
C2185 H2179 0.950 . S
C2185 C2184 1.327 . S
C2185 C2189 1.429 . S
C2186 C2169 1.574 . S
C2186 H2180 0.949 . S
C2186 C2190 1.368 . S
C2187 C2168 1.429 . S
C2187 C2181 1.429 . S
C2187 C2188 1.523 . S
C2188 C2169 1.368 . S
C2188 C2182 1.368 . S
C2188 C2187 1.523 . S
C2189 C2173 1.429 . S
C2189 C2185 1.429 . S
C2189 C2190 1.523 . S
C2190 C2174 1.368 . S
C2190 C2186 1.368 . S
C2190 C2189 1.523 . S
H2191 C2166 0.950 . S
H2192 C2168 0.950 . S
H2193 C2169 0.949 . S
H2194 C2171 0.950 . S
H2195 C2173 0.950 . S
C2196 C2197 1.349 . S
C2196 C2198 1.327 . S
C2196 H2221 0.950 . S
C2197 C2196 1.349 . S
C2197 C2213 1.349 1_565 S
C2198 C2196 1.327 . S
C2198 C2217 1.429 1_565 S
C2198 H2222 0.950 . S
C2199 C2216 1.574 . S
C2199 C2218 1.368 . S
C2199 H2223 0.949 . S
H2200 C2204 0.949 . S
C2201 C2202 1.349 . S
C2201 C2203 1.327 . S
C2201 H2224 0.950 . S
C2202 C2201 1.349 . S
C2202 C2214 1.349 . S
C2203 C2201 1.327 . S
C2203 C2219 1.429 . S
C2203 H2225 0.950 . S
C2204 H2200 0.949 . S
C2204 C2212 1.574 . S
C2204 C2220 1.368 . S
H2205 C2213 0.950 . S
H2206 C2211 0.950 . S
H2207 C2212 0.949 1_565 S
H2208 C2214 0.950 . S
H2209 C2215 0.950 . S
H2210 C2216 0.949 . S
C2211 H2206 0.950 . S
C2211 C2213 1.327 . S
C2211 C2217 1.429 . S
C2212 C2204 1.574 . S
C2212 H2207 0.949 1_545 S
C2212 C2218 1.368 . S
C2213 C2197 1.349 1_545 S
C2213 H2205 0.950 . S
C2213 C2211 1.327 . S
C2214 C2202 1.349 . S
C2214 H2208 0.950 . S
C2214 C2215 1.327 . S
C2215 H2209 0.950 . S
C2215 C2214 1.327 . S
C2215 C2219 1.429 . S
C2216 C2199 1.574 . S
C2216 H2210 0.949 . S
C2216 C2220 1.368 . S
C2217 C2198 1.429 1_545 S
C2217 C2211 1.429 . S
C2217 C2218 1.523 . S
C2218 C2199 1.368 . S
C2218 C2212 1.368 . S
C2218 C2217 1.523 . S
C2219 C2203 1.429 . S
C2219 C2215 1.429 . S
C2219 C2220 1.523 . S
C2220 C2204 1.368 . S
C2220 C2216 1.368 . S
C2220 C2219 1.523 . S
H2221 C2196 0.950 . S
H2222 C2198 0.950 . S
H2223 C2199 0.949 . S
H2224 C2201 0.950 . S
H2225 C2203 0.950 . S
C2226 C2227 1.349 . S
C2226 C2228 1.327 . S
C2226 H2251 0.950 . S
C2227 C2226 1.349 . S
C2227 C2243 1.349 . S
C2228 C2226 1.327 . S
C2228 C2247 1.429 . S
C2228 H2252 0.950 . S
C2229 C2246 1.574 . S
C2229 C2248 1.368 . S
C2229 H2253 0.949 . S
H2230 C2234 0.949 . S
C2231 C2232 1.349 . S
C2231 C2233 1.327 . S
C2231 H2254 0.950 . S
C2232 C2231 1.349 . S
C2232 C2244 1.349 . S
C2233 C2231 1.327 . S
C2233 C2249 1.429 . S
C2233 H2255 0.950 . S
C2234 H2230 0.949 . S
C2234 C2242 1.574 . S
C2234 C2250 1.368 . S
H2235 C2243 0.950 . S
H2236 C2241 0.950 . S
H2237 C2242 0.949 . S
H2238 C2244 0.950 . S
H2239 C2245 0.950 . S
H2240 C2246 0.949 . S
C2241 H2236 0.950 . S
C2241 C2243 1.327 . S
C2241 C2247 1.429 . S
C2242 C2234 1.574 . S
C2242 H2237 0.949 . S
C2242 C2248 1.368 . S
C2243 C2227 1.349 . S
C2243 H2235 0.950 . S
C2243 C2241 1.327 . S
C2244 C2232 1.349 . S
C2244 H2238 0.950 . S
C2244 C2245 1.327 . S
C2245 H2239 0.950 . S
C2245 C2244 1.327 . S
C2245 C2249 1.429 . S
C2246 C2229 1.574 . S
C2246 H2240 0.949 . S
C2246 C2250 1.368 . S
C2247 C2228 1.429 . S
C2247 C2241 1.429 . S
C2247 C2248 1.523 . S
C2248 C2229 1.368 . S
C2248 C2242 1.368 . S
C2248 C2247 1.523 . S
C2249 C2233 1.429 . S
C2249 C2245 1.429 . S
C2249 C2250 1.523 . S
C2250 C2234 1.368 . S
C2250 C2246 1.368 . S
C2250 C2249 1.523 . S
H2251 C2226 0.950 . S
H2252 C2228 0.950 . S
H2253 C2229 0.949 . S
H2254 C2231 0.950 . S
H2255 C2233 0.950 . S
C2256 C2257 1.349 . S
C2256 C2258 1.327 . S
C2256 H2281 0.950 . S
C2257 C2256 1.349 . S
C2257 C2273 1.349 . S
C2258 C2256 1.327 . S
C2258 C2277 1.429 . S
C2258 H2282 0.950 . S
C2259 C2276 1.574 . S
C2259 C2278 1.368 . S
C2259 H2283 0.949 1_545 S
H2260 C2264 0.949 . S
C2261 C2262 1.349 1_565 S
C2261 C2263 1.327 . S
C2261 H2284 0.950 . S
C2262 C2261 1.349 1_545 S
C2262 C2274 1.349 . S
C2263 C2261 1.327 . S
C2263 C2279 1.429 1_565 S
C2263 H2285 0.950 . S
C2264 H2260 0.949 . S
C2264 C2272 1.574 . S
C2264 C2280 1.368 . S
H2265 C2273 0.950 . S
H2266 C2271 0.914 1_565 S
H2267 C2272 0.949 . S
H2268 C2274 0.950 . S
H2269 C2275 0.950 . S
H2270 C2276 0.949 1_565 S
C2271 H2266 0.914 1_545 S
C2271 C2273 1.327 . S
C2271 C2277 1.429 . S
C2272 C2264 1.574 . S
C2272 H2267 0.949 . S
C2272 C2278 1.368 . S
C2273 C2257 1.349 . S
C2273 H2265 0.950 . S
C2273 C2271 1.327 . S
C2274 C2262 1.349 . S
C2274 H2268 0.950 . S
C2274 C2275 1.327 . S
C2275 H2269 0.950 . S
C2275 C2274 1.327 . S
C2275 C2279 1.429 . S
C2276 C2259 1.574 . S
C2276 H2270 0.949 1_545 S
C2276 C2280 1.368 . S
C2277 C2258 1.429 . S
C2277 C2271 1.429 . S
C2277 C2278 1.523 . S
C2278 C2259 1.368 . S
C2278 C2272 1.368 . S
C2278 C2277 1.523 . S
C2279 C2263 1.429 1_545 S
C2279 C2275 1.429 . S
C2279 C2280 1.523 . S
C2280 C2264 1.368 . S
C2280 C2276 1.368 . S
C2280 C2279 1.523 . S
H2281 C2256 0.950 . S
H2282 C2258 0.950 . S
H2283 C2259 0.949 1_565 S
H2284 C2261 0.950 . S
H2285 C2263 0.950 . S
C2286 C2287 1.349 . S
C2286 C2288 1.327 . S
C2286 H2311 0.950 . S
C2287 C2286 1.349 . S
C2287 C2303 1.349 . S
C2288 C2286 1.327 . S
C2288 C2307 1.429 . S
C2288 H2312 0.950 . S
C2289 C2306 1.574 . S
C2289 C2308 1.368 . S
C2289 H2313 0.949 . S
H2290 C2294 0.949 . S
C2291 C2292 1.349 . S
C2291 C2293 1.327 . S
C2291 H2314 0.950 . S
C2292 C2291 1.349 . S
C2292 C2304 1.349 . S
C2293 C2291 1.327 . S
C2293 C2309 1.429 . S
C2293 H2315 0.950 . S
C2294 H2290 0.949 . S
C2294 C2302 1.574 . S
C2294 C2310 1.368 . S
H2295 C2303 0.950 . S
H2296 C2301 0.950 . S
H2297 C2302 0.949 . S
H2298 C2304 0.950 . S
H2299 C2305 0.950 . S
H2300 C2306 0.949 . S
C2301 H2296 0.950 . S
C2301 C2303 1.327 . S
C2301 C2307 1.429 . S
C2302 C2294 1.574 . S
C2302 H2297 0.949 . S
C2302 C2308 1.368 . S
C2303 C2287 1.349 . S
C2303 H2295 0.950 . S
C2303 C2301 1.327 . S
C2304 C2292 1.349 . S
C2304 H2298 0.950 . S
C2304 C2305 1.327 . S
C2305 H2299 0.950 . S
C2305 C2304 1.327 . S
C2305 C2309 1.429 . S
C2306 C2289 1.574 . S
C2306 H2300 0.949 . S
C2306 C2310 1.368 . S
C2307 C2288 1.429 . S
C2307 C2301 1.429 . S
C2307 C2308 1.523 . S
C2308 C2289 1.368 . S
C2308 C2302 1.368 . S
C2308 C2307 1.523 . S
C2309 C2293 1.429 . S
C2309 C2305 1.429 . S
C2309 C2310 1.523 . S
C2310 C2294 1.368 . S
C2310 C2306 1.368 . S
C2310 C2309 1.523 . S
H2311 C2286 0.950 . S
H2312 C2288 0.950 . S
H2313 C2289 0.949 . S
H2314 C2291 0.950 . S
H2315 C2293 0.950 . S
C2316 C2317 1.349 . S
C2316 C2318 1.327 . S
C2316 H2341 0.950 . S
C2317 C2316 1.349 . S
C2317 C2333 1.349 . S
C2318 C2316 1.327 . S
C2318 C2337 1.429 . S
C2318 H2342 0.950 . S
C2319 C2336 1.574 . S
C2319 C2338 1.368 . S
C2319 H2343 0.949 . S
H2320 C2324 0.949 . S
C2321 C2322 1.349 . S
C2321 C2323 1.327 . S
C2321 H2344 0.950 . S
C2322 C2321 1.349 . S
C2322 C2334 1.349 . S
C2323 C2321 1.327 . S
C2323 C2339 1.429 . S
C2323 H2345 0.950 . S
C2324 H2320 0.949 . S
C2324 C2332 1.574 . S
C2324 C2340 1.368 . S
H2325 C2333 0.950 . S
H2326 C2331 0.950 . S
H2327 C2332 0.949 . S
H2328 C2334 0.950 . S
H2329 C2335 0.950 . S
H2330 C2336 0.949 . S
C2331 H2326 0.950 . S
C2331 C2333 1.327 . S
C2331 C2337 1.429 . S
C2332 C2324 1.574 . S
C2332 H2327 0.949 . S
C2332 C2338 1.368 . S
C2333 C2317 1.349 . S
C2333 H2325 0.950 . S
C2333 C2331 1.327 . S
C2334 C2322 1.349 . S
C2334 H2328 0.950 . S
C2334 C2335 1.327 . S
C2335 H2329 0.950 . S
C2335 C2334 1.327 . S
C2335 C2339 1.429 . S
C2336 C2319 1.574 . S
C2336 H2330 0.949 . S
C2336 C2340 1.368 . S
C2337 C2318 1.429 . S
C2337 C2331 1.429 . S
C2337 C2338 1.523 . S
C2338 C2319 1.368 . S
C2338 C2332 1.368 . S
C2338 C2337 1.523 . S
C2339 C2323 1.429 . S
C2339 C2335 1.429 . S
C2339 C2340 1.523 . S
C2340 C2324 1.368 . S
C2340 C2336 1.368 . S
C2340 C2339 1.523 . S
H2341 C2316 0.950 . S
H2342 C2318 0.950 . S
H2343 C2319 0.949 . S
H2344 C2321 0.950 . S
H2345 C2323 0.950 . S
C2346 C2347 1.349 . S
C2346 C2348 1.327 . S
C2346 H2371 0.950 . S
C2347 C2346 1.349 . S
C2347 C2363 1.349 . S
C2348 C2346 1.327 . S
C2348 C2367 1.429 . S
C2348 H2372 0.950 . S
C2349 C2366 1.574 . S
C2349 C2368 1.368 . S
C2349 H2373 0.949 . S
H2350 C2354 0.949 . S
C2351 C2352 1.349 . S
C2351 C2353 1.327 . S
C2351 H2374 0.950 . S
C2352 C2351 1.349 . S
C2352 C2364 1.349 . S
C2353 C2351 1.327 . S
C2353 C2369 1.429 . S
C2353 H2375 0.950 . S
C2354 H2350 0.949 . S
C2354 C2362 1.574 . S
C2354 C2370 1.368 . S
H2355 C2363 0.950 . S
H2356 C2361 0.950 . S
H2357 C2362 0.949 . S
H2358 C2364 0.950 . S
H2359 C2365 0.950 . S
H2360 C2366 0.949 . S
C2361 H2356 0.950 . S
C2361 C2363 1.327 . S
C2361 C2367 1.429 . S
C2362 C2354 1.574 . S
C2362 H2357 0.949 . S
C2362 C2368 1.368 . S
C2363 C2347 1.349 . S
C2363 H2355 0.950 . S
C2363 C2361 1.327 . S
C2364 C2352 1.349 . S
C2364 H2358 0.950 . S
C2364 C2365 1.327 . S
C2365 H2359 0.950 . S
C2365 C2364 1.327 . S
C2365 C2369 1.429 . S
C2366 C2349 1.574 . S
C2366 H2360 0.949 . S
C2366 C2370 1.368 . S
C2367 C2348 1.429 . S
C2367 C2361 1.429 . S
C2367 C2368 1.523 . S
C2368 C2349 1.368 . S
C2368 C2362 1.368 . S
C2368 C2367 1.523 . S
C2369 C2353 1.429 . S
C2369 C2365 1.429 . S
C2369 C2370 1.523 . S
C2370 C2354 1.368 . S
C2370 C2366 1.368 . S
C2370 C2369 1.523 . S
H2371 C2346 0.950 . S
H2372 C2348 0.950 . S
H2373 C2349 0.949 . S
H2374 C2351 0.950 . S
H2375 C2353 0.950 . S
C2376 C2377 1.349 . S
C2376 C2378 1.327 . S
C2376 H2401 0.950 . S
C2377 C2376 1.349 . S
C2377 C2393 1.349 . S
C2378 C2376 1.327 . S
C2378 C2397 1.429 . S
C2378 H2402 0.950 . S
C2379 C2396 1.574 . S
C2379 C2398 1.368 . S
C2379 H2403 0.949 . S
H2380 C2384 0.949 . S
C2381 C2382 1.349 . S
C2381 C2383 1.327 . S
C2381 H2404 0.950 . S
C2382 C2381 1.349 . S
C2382 C2394 1.349 . S
C2383 C2381 1.327 . S
C2383 C2399 1.429 . S
C2383 H2405 0.950 . S
C2384 H2380 0.949 . S
C2384 C2392 1.574 . S
C2384 C2400 1.368 . S
H2385 C2393 0.950 . S
H2386 C2391 0.950 . S
H2387 C2392 0.949 . S
H2388 C2394 0.950 . S
H2389 C2395 0.950 . S
H2390 C2396 0.949 . S
C2391 H2386 0.950 . S
C2391 C2393 1.327 . S
C2391 C2397 1.429 . S
C2392 C2384 1.574 . S
C2392 H2387 0.949 . S
C2392 C2398 1.368 . S
C2393 C2377 1.349 . S
C2393 H2385 0.950 . S
C2393 C2391 1.327 . S
C2394 C2382 1.349 . S
C2394 H2388 0.950 . S
C2394 C2395 1.327 . S
C2395 H2389 0.950 . S
C2395 C2394 1.327 . S
C2395 C2399 1.429 . S
C2396 C2379 1.574 . S
C2396 H2390 0.949 . S
C2396 C2400 1.368 . S
C2397 C2378 1.429 . S
C2397 C2391 1.429 . S
C2397 C2398 1.523 . S
C2398 C2379 1.368 . S
C2398 C2392 1.368 . S
C2398 C2397 1.523 . S
C2399 C2383 1.429 . S
C2399 C2395 1.429 . S
C2399 C2400 1.523 . S
C2400 C2384 1.368 . S
C2400 C2396 1.368 . S
C2400 C2399 1.523 . S
H2401 C2376 0.950 . S
H2402 C2378 0.950 . S
H2403 C2379 0.949 . S
H2404 C2381 0.950 . S
H2405 C2383 0.950 . S
C2406 C2407 1.349 . S
C2406 C2408 1.327 . S
C2406 H2431 0.950 . S
C2407 C2406 1.349 . S
C2407 C2423 1.349 . S
C2408 C2406 1.327 . S
C2408 C2427 1.429 . S
C2408 H2432 0.950 . S
C2409 C2426 1.574 . S
C2409 C2428 1.368 . S
C2409 H2433 0.949 . S
H2410 C2414 0.949 . S
C2411 C2412 1.349 . S
C2411 C2413 1.327 . S
C2411 H2434 0.950 . S
C2412 C2411 1.349 . S
C2412 C2424 1.349 . S
C2413 C2411 1.327 . S
C2413 C2429 1.429 . S
C2413 H2435 0.950 . S
C2414 H2410 0.949 . S
C2414 C2422 1.574 . S
C2414 C2430 1.368 . S
H2415 C2423 0.950 . S
H2416 C2421 0.950 . S
H2417 C2422 0.949 . S
H2418 C2424 0.950 . S
H2419 C2425 0.950 . S
H2420 C2426 0.949 . S
C2421 H2416 0.950 . S
C2421 C2423 1.327 . S
C2421 C2427 1.429 . S
C2422 C2414 1.574 . S
C2422 H2417 0.949 . S
C2422 C2428 1.368 . S
C2423 C2407 1.349 . S
C2423 H2415 0.950 . S
C2423 C2421 1.327 . S
C2424 C2412 1.349 . S
C2424 H2418 0.950 . S
C2424 C2425 1.327 . S
C2425 H2419 0.950 . S
C2425 C2424 1.327 . S
C2425 C2429 1.429 . S
C2426 C2409 1.574 . S
C2426 H2420 0.949 . S
C2426 C2430 1.368 . S
C2427 C2408 1.429 . S
C2427 C2421 1.429 . S
C2427 C2428 1.523 . S
C2428 C2409 1.368 . S
C2428 C2422 1.368 . S
C2428 C2427 1.523 . S
C2429 C2413 1.429 . S
C2429 C2425 1.429 . S
C2429 C2430 1.523 . S
C2430 C2414 1.368 . S
C2430 C2426 1.368 . S
C2430 C2429 1.523 . S
H2431 C2406 0.950 . S
H2432 C2408 0.950 . S
H2433 C2409 0.949 . S
H2434 C2411 0.950 . S
H2435 C2413 0.950 . S
C2436 C2437 1.349 . S
C2436 C2438 1.327 . S
C2436 H2461 0.950 . S
C2437 C2436 1.349 . S
C2437 C2453 1.349 . S
C2438 C2436 1.327 . S
C2438 C2457 1.429 . S
C2438 H2462 0.950 . S
C2439 C2456 1.574 . S
C2439 C2458 1.368 . S
C2439 H2463 0.949 . S
H2440 C2444 0.949 . S
C2441 C2442 1.349 . S
C2441 C2443 1.327 . S
C2441 H2464 0.950 . S
C2442 C2441 1.349 . S
C2442 C2454 1.349 . S
C2443 C2441 1.327 . S
C2443 C2459 1.429 . S
C2443 H2465 0.950 . S
C2444 H2440 0.949 . S
C2444 C2452 1.574 . S
C2444 C2460 1.368 . S
H2445 C2453 0.950 . S
H2446 C2451 0.950 . S
H2447 C2452 0.949 . S
H2448 C2454 0.950 . S
H2449 C2455 0.950 . S
H2450 C2456 0.949 . S
C2451 H2446 0.950 . S
C2451 C2453 1.327 . S
C2451 C2457 1.429 . S
C2452 C2444 1.574 . S
C2452 H2447 0.949 . S
C2452 C2458 1.368 . S
C2453 C2437 1.349 . S
C2453 H2445 0.950 . S
C2453 C2451 1.327 . S
C2454 C2442 1.349 . S
C2454 H2448 0.950 . S
C2454 C2455 1.327 . S
C2455 H2449 0.950 . S
C2455 C2454 1.327 . S
C2455 C2459 1.429 . S
C2456 C2439 1.574 . S
C2456 H2450 0.949 . S
C2456 C2460 1.368 . S
C2457 C2438 1.429 . S
C2457 C2451 1.429 . S
C2457 C2458 1.523 . S
C2458 C2439 1.368 . S
C2458 C2452 1.368 . S
C2458 C2457 1.523 . S
C2459 C2443 1.429 . S
C2459 C2455 1.429 . S
C2459 C2460 1.523 . S
C2460 C2444 1.368 . S
C2460 C2456 1.368 . S
C2460 C2459 1.523 . S
H2461 C2436 0.950 . S
H2462 C2438 0.950 . S
H2463 C2439 0.949 . S
H2464 C2441 0.950 . S
H2465 C2443 0.950 . S
C2466 C2467 1.349 . S
C2466 C2468 1.327 . S
C2466 H2491 0.950 . S
C2467 C2466 1.349 . S
C2467 C2483 1.349 1_554 S
C2468 C2466 1.327 . S
C2468 C2487 1.429 . S
C2468 H2492 0.950 . S
C2469 C2486 1.574 . S
C2469 C2488 1.368 . S
C2469 H2493 0.949 1_554 S
H2470 C2474 0.949 . S
C2471 C2472 1.349 . S
C2471 C2473 1.327 . S
C2471 H2494 0.950 . S
C2472 C2471 1.349 . S
C2472 C2484 1.349 . S
C2473 C2471 1.327 . S
C2473 C2489 1.429 . S
C2473 H2495 0.950 . S
C2474 H2470 0.949 . S
C2474 C2482 1.574 . S
C2474 C2490 1.368 . S
H2475 C2483 0.950 . S
H2476 C2481 0.942 1_556 S
H2477 C2482 0.949 . S
H2478 C2484 0.950 . S
H2479 C2485 0.950 . S
H2480 C2486 0.949 . S
C2481 H2476 0.942 1_554 S
C2481 C2483 1.326 1_554 S
C2481 C2487 1.438 . S
C2482 C2474 1.574 . S
C2482 H2477 0.949 . S
C2482 C2488 1.368 . S
C2483 C2467 1.349 1_556 S
C2483 H2475 0.950 . S
C2483 C2481 1.326 1_556 S
C2484 C2472 1.349 . S
C2484 H2478 0.950 . S
C2484 C2485 1.327 . S
C2485 H2479 0.950 . S
C2485 C2484 1.327 . S
C2485 C2489 1.429 . S
C2486 C2469 1.574 . S
C2486 H2480 0.949 . S
C2486 C2490 1.368 . S
C2487 C2468 1.429 . S
C2487 C2481 1.438 . S
C2487 C2488 1.523 . S
C2488 C2469 1.368 . S
C2488 C2482 1.368 . S
C2488 C2487 1.523 . S
C2489 C2473 1.429 . S
C2489 C2485 1.429 . S
C2489 C2490 1.523 . S
C2490 C2474 1.368 . S
C2490 C2486 1.368 . S
C2490 C2489 1.523 . S
H2491 C2466 0.950 . S
H2492 C2468 0.950 . S
H2493 C2469 0.949 1_556 S
H2494 C2471 0.950 . S
H2495 C2473 0.950 . S
C2496 C2497 1.349 . S
C2496 C2498 1.327 . S
C2496 H2521 0.950 . S
C2497 C2496 1.349 . S
C2497 C2513 1.349 . S
C2498 C2496 1.327 . S
C2498 C2517 1.429 . S
C2498 H2522 0.950 . S
C2499 C2516 1.574 . S
C2499 C2518 1.368 . S
C2499 H2523 0.949 1_455 S
H2500 C2504 0.949 . S
C2501 C2502 1.349 1_655 S
C2501 C2503 1.327 . S
C2501 H2524 0.950 . S
C2502 C2501 1.349 1_455 S
C2502 C2514 1.349 . S
C2503 C2501 1.327 . S
C2503 C2519 1.429 1_655 S
C2503 H2525 0.950 . S
C2504 H2500 0.949 . S
C2504 C2512 1.574 . S
C2504 C2520 1.368 . S
H2505 C2513 0.950 . S
H2506 C2511 0.934 1_655 S
H2507 C2512 0.949 . S
H2508 C2514 0.950 . S
H2509 C2515 0.950 . S
H2510 C2516 0.949 1_655 S
C2511 H2506 0.934 1_455 S
C2511 C2513 1.327 . S
C2511 C2517 1.429 . S
C2512 C2504 1.574 . S
C2512 H2507 0.949 . S
C2512 C2518 1.368 . S
C2513 C2497 1.349 . S
C2513 H2505 0.950 . S
C2513 C2511 1.327 . S
C2514 C2502 1.349 . S
C2514 H2508 0.950 . S
C2514 C2515 1.327 . S
C2515 H2509 0.950 . S
C2515 C2514 1.327 . S
C2515 C2519 1.429 . S
C2516 C2499 1.574 . S
C2516 H2510 0.949 1_455 S
C2516 C2520 1.368 . S
C2517 C2498 1.429 . S
C2517 C2511 1.429 . S
C2517 C2518 1.523 . S
C2518 C2499 1.368 . S
C2518 C2512 1.368 . S
C2518 C2517 1.523 . S
C2519 C2503 1.429 1_455 S
C2519 C2515 1.429 . S
C2519 C2520 1.523 . S
C2520 C2504 1.368 . S
C2520 C2516 1.368 . S
C2520 C2519 1.523 . S
H2521 C2496 0.950 . S
H2522 C2498 0.950 . S
H2523 C2499 0.949 1_655 S
H2524 C2501 0.950 . S
H2525 C2503 0.950 . S
C2526 C2527 1.349 . S
C2526 C2528 1.327 . S
C2526 H2551 0.950 . S
C2527 C2526 1.349 . S
C2527 C2543 1.349 . S
C2528 C2526 1.327 . S
C2528 C2547 1.429 . S
C2528 H2552 0.950 . S
C2529 C2546 1.574 . S
C2529 C2548 1.368 . S
C2529 H2553 0.949 . S
H2530 C2534 0.949 . S
C2531 C2532 1.349 . S
C2531 C2533 1.327 . S
C2531 H2554 0.950 . S
C2532 C2531 1.349 . S
C2532 C2544 1.349 . S
C2533 C2531 1.327 . S
C2533 C2549 1.429 . S
C2533 H2555 0.950 . S
C2534 H2530 0.949 . S
C2534 C2542 1.574 . S
C2534 C2550 1.368 . S
H2535 C2543 0.950 . S
H2536 C2541 0.950 . S
H2537 C2542 0.949 . S
H2538 C2544 0.950 . S
H2539 C2545 0.950 . S
H2540 C2546 0.949 . S
C2541 H2536 0.950 . S
C2541 C2543 1.327 . S
C2541 C2547 1.429 . S
C2542 C2534 1.574 . S
C2542 H2537 0.949 . S
C2542 C2548 1.368 . S
C2543 C2527 1.349 . S
C2543 H2535 0.950 . S
C2543 C2541 1.327 . S
C2544 C2532 1.349 . S
C2544 H2538 0.950 . S
C2544 C2545 1.327 . S
C2545 H2539 0.950 . S
C2545 C2544 1.327 . S
C2545 C2549 1.429 . S
C2546 C2529 1.574 . S
C2546 H2540 0.949 . S
C2546 C2550 1.368 . S
C2547 C2528 1.429 . S
C2547 C2541 1.429 . S
C2547 C2548 1.523 . S
C2548 C2529 1.368 . S
C2548 C2542 1.368 . S
C2548 C2547 1.523 . S
C2549 C2533 1.429 . S
C2549 C2545 1.429 . S
C2549 C2550 1.523 . S
C2550 C2534 1.368 . S
C2550 C2546 1.368 . S
C2550 C2549 1.523 . S
H2551 C2526 0.950 . S
H2552 C2528 0.950 . S
H2553 C2529 0.949 . S
H2554 C2531 0.950 . S
H2555 C2533 0.950 . S
C2556 C2557 1.349 . S
C2556 C2558 1.327 . S
C2556 H2581 0.950 . S
C2557 C2556 1.349 . S
C2557 C2573 1.349 . S
C2558 C2556 1.327 . S
C2558 C2577 1.429 . S
C2558 H2582 0.950 . S
C2559 C2576 1.574 . S
C2559 C2578 1.368 . S
C2559 H2583 0.949 . S
H2560 C2564 0.949 . S
C2561 C2562 1.349 . S
C2561 C2563 1.327 . S
C2561 H2584 0.950 . S
C2562 C2561 1.349 . S
C2562 C2574 1.349 . S
C2563 C2561 1.327 . S
C2563 C2579 1.429 . S
C2563 H2585 0.950 . S
C2564 H2560 0.949 . S
C2564 C2572 1.574 . S
C2564 C2580 1.368 . S
H2565 C2573 0.950 . S
H2566 C2571 0.950 . S
H2567 C2572 0.949 . S
H2568 C2574 0.950 . S
H2569 C2575 0.950 . S
H2570 C2576 0.949 . S
C2571 H2566 0.950 . S
C2571 C2573 1.327 . S
C2571 C2577 1.429 . S
C2572 C2564 1.574 . S
C2572 H2567 0.949 . S
C2572 C2578 1.368 . S
C2573 C2557 1.349 . S
C2573 H2565 0.950 . S
C2573 C2571 1.327 . S
C2574 C2562 1.349 . S
C2574 H2568 0.950 . S
C2574 C2575 1.327 . S
C2575 H2569 0.950 . S
C2575 C2574 1.327 . S
C2575 C2579 1.429 . S
C2576 C2559 1.574 . S
C2576 H2570 0.949 . S
C2576 C2580 1.368 . S
C2577 C2558 1.429 . S
C2577 C2571 1.429 . S
C2577 C2578 1.523 . S
C2578 C2559 1.368 . S
C2578 C2572 1.368 . S
C2578 C2577 1.523 . S
C2579 C2563 1.429 . S
C2579 C2575 1.429 . S
C2579 C2580 1.523 . S
C2580 C2564 1.368 . S
C2580 C2576 1.368 . S
C2580 C2579 1.523 . S
H2581 C2556 0.950 . S
H2582 C2558 0.950 . S
H2583 C2559 0.949 . S
H2584 C2561 0.950 . S
H2585 C2563 0.950 . S
C2586 C2587 1.349 . S
C2586 C2588 1.327 . S
C2586 H2611 0.950 . S
C2587 C2586 1.349 . S
C2587 C2603 1.349 . S
C2588 C2586 1.327 . S
C2588 C2607 1.429 . S
C2588 H2612 0.950 . S
C2589 C2606 1.574 . S
C2589 C2608 1.368 . S
C2589 H2613 0.949 . S
H2590 C2594 0.949 . S
C2591 C2592 1.349 . S
C2591 C2593 1.327 . S
C2591 H2614 0.950 . S
C2592 C2591 1.349 . S
C2592 C2604 1.349 . S
C2593 C2591 1.327 . S
C2593 C2609 1.429 . S
C2593 H2615 0.950 . S
C2594 H2590 0.949 . S
C2594 C2602 1.574 . S
C2594 C2610 1.368 . S
H2595 C2603 0.950 . S
H2596 C2601 0.950 . S
H2597 C2602 0.949 . S
H2598 C2604 0.950 . S
H2599 C2605 0.950 . S
H2600 C2606 0.949 . S
C2601 H2596 0.950 . S
C2601 C2603 1.327 . S
C2601 C2607 1.429 . S
C2602 C2594 1.574 . S
C2602 H2597 0.949 . S
C2602 C2608 1.368 . S
C2603 C2587 1.349 . S
C2603 H2595 0.950 . S
C2603 C2601 1.327 . S
C2604 C2592 1.349 . S
C2604 H2598 0.950 . S
C2604 C2605 1.327 . S
C2605 H2599 0.950 . S
C2605 C2604 1.327 . S
C2605 C2609 1.429 . S
C2606 C2589 1.574 . S
C2606 H2600 0.949 . S
C2606 C2610 1.368 . S
C2607 C2588 1.429 . S
C2607 C2601 1.429 . S
C2607 C2608 1.523 . S
C2608 C2589 1.368 . S
C2608 C2602 1.368 . S
C2608 C2607 1.523 . S
C2609 C2593 1.429 . S
C2609 C2605 1.429 . S
C2609 C2610 1.523 . S
C2610 C2594 1.368 . S
C2610 C2606 1.368 . S
C2610 C2609 1.523 . S
H2611 C2586 0.950 . S
H2612 C2588 0.950 . S
H2613 C2589 0.949 . S
H2614 C2591 0.950 . S
H2615 C2593 0.950 . S
C817 C33 0.526 . S
C822 C713 0.526 . S
C847 C611 0.526 . S
C852 C67 0.526 . S
C877 C645 0.526 . S
C882 C101 0.526 . S
C907 C679 0.526 . S
C912 C135 0.526 . S
C937 C169 0.526 . S
C942 C815 0.526 . S
C967 C747 0.526 . S
C972 C203 0.526 . S
C997 C781 0.526 . S
C1002 C237 0.526 . S
C1027 C577 0.526 . S
C1032 C271 0.526 . S
C1057 C305 0.526 . S
C1062 C543 0.526 . S
C1087 C441 0.526 . S
C1092 C339 0.526 . S
C1117 C373 0.526 . S
C1122 C475 0.526 . S
C1147 C509 0.526 . S
C1152 C407 0.526 . S
C1177 C648 1.475 . S
C1182 C9 1.452 . S
C1207 C43 1.451 . S
C1212 C682 1.474 . S
C1237 C580 1.474 . S
C1242 C77 1.451 1_565 S
C1267 C111 1.451 . S
C1272 C614 1.474 . S
C1297 C716 1.474 . S
C1302 C145 1.451 . S
C1327 C750 1.474 . S
C1332 C179 1.451 . S
C1357 C546 1.475 . S
C1362 C213 1.452 . S
C1387 C247 1.451 . S
C1392 C784 1.474 . S
C1417 C281 1.452 . S
C1422 C70 1.475 . S
C1447 C315 1.451 . S
C1452 C104 1.474 . S
C1477 C349 1.452 . S
C1482 C2 1.475 . S
C1507 C36 1.474 . S
C1512 C383 1.451 . S
C1537 C417 1.451 1_556 S
C1542 C206 1.474 . S
C1567 C240 1.474 . S
C1572 C451 1.451 . S
C1597 C138 1.474 . S
C1602 C485 1.451 . S
C1627 C172 1.474 . S
C1632 C519 1.451 . S
C1657 C410 1.475 . S
C1662 C553 1.452 . S
C1687 C274 1.475 . S
C1692 C587 1.452 . S
C1717 C621 1.451 . S
C1722 C308 1.474 . S
C1747 C655 1.451 1_655 S
C1752 C342 1.474 . S
C1777 C376 1.474 . S
C1782 C689 1.451 . S
C1807 C723 1.451 . S
C1812 C478 1.474 . S
C1837 C512 1.474 . S
C1842 C757 1.451 . S
C1867 C791 1.451 . S
C1872 C444 1.474 . S
C1897 C20 0.799 . S
C1902 C768 0.799 . S
C1927 C564 0.799 . S
C1932 C54 0.799 . S
C1957 C88 0.799 . S
C1962 C802 0.799 . S
C1987 C734 0.799 . S
C1992 C122 0.799 . S
C2017 C156 0.799 . S
C2022 C632 0.799 . S
C2047 C666 0.799 . S
C2052 C190 0.799 . S
C2077 C224 0.792 1_655 S
C2082 C700 0.799 . S
C2107 C598 0.792 1_556 S
C2112 C258 0.799 . S
C2137 C462 0.799 . S
C2142 C292 0.799 . S
C2167 C496 0.799 . S
C2172 C326 0.799 . S
C2197 C360 0.792 1_565 S
C2202 C530 0.799 . S
C2227 C394 0.799 . S
C2232 C428 0.799 . S
C2257 C515 0.956 . S
C2262 C5 0.918 1_655 S
C2287 C39 0.956 . S
C2292 C413 0.956 . S
C2317 C447 0.956 . S
C2322 C73 0.956 . S
C2347 C481 0.955 . S
C2352 C107 0.955 . S
C2377 C141 0.955 . S
C2382 C311 0.955 . S
C2407 C345 0.956 . S
C2412 C175 0.955 . S
C2437 C209 0.956 . S
C2442 C379 0.955 . S
C2467 C277 0.918 1_565 S
C2472 C243 0.956 . S
C2497 C685 0.956 . S
C2502 C549 0.918 1_556 S
C2527 C787 0.955 . S
C2532 C583 0.956 . S
C2557 C719 0.955 . S
C2562 C617 0.955 . S
C2587 C753 0.956 . S
C2592 C651 0.956 . S
