# Generated by pormake.
# Topology umz, (4)-cn, num edge types: 1
# Building blocks:
#     Node 0, Type 0, BuildingBlock: UXUYUI_clean_sbu_0, # of connection points: 4
#     Node 1, Type 0, BuildingBlock: UXUYUI_clean_sbu_0, # of connection points: 4
#     Node 2, Type 0, BuildingBlock: UXUYUI_clean_sbu_0, # of connection points: 4
#     Node 3, Type 0, BuildingBlock: UXUYUI_clean_sbu_0, # of connection points: 4
#     Node 4, Type 0, BuildingBlock: UXUYUI_clean_sbu_0, # of connection points: 4
#     Node 5, Type 0, BuildingBlock: UXUYUI_clean_sbu_0, # of connection points: 4
#     Node 6, Type 0, BuildingBlock: UXUYUI_clean_sbu_0, # of connection points: 4
#     Node 7, Type 0, BuildingBlock: UXUYUI_clean_sbu_0, # of connection points: 4
#     Node 8, Type 0, BuildingBlock: UXUYUI_clean_sbu_0, # of connection points: 4
#     Node 9, Type 0, BuildingBlock: UXUYUI_clean_sbu_0, # of connection points: 4
#     Node 10, Type 0, BuildingBlock: UXUYUI_clean_sbu_0, # of connection points: 4
#     Node 11, Type 0, BuildingBlock: UXUYUI_clean_sbu_0, # of connection points: 4
#     Node 12, Type 0, BuildingBlock: UXUYUI_clean_sbu_0, # of connection points: 4
#     Node 13, Type 0, BuildingBlock: UXUYUI_clean_sbu_0, # of connection points: 4
#     Node 14, Type 0, BuildingBlock: UXUYUI_clean_sbu_0, # of connection points: 4
#     Node 15, Type 0, BuildingBlock: UXUYUI_clean_sbu_0, # of connection points: 4
#     Edge 16, Type (0, 0), BuildingBlock: OJICUG_clean_linker_0, # of connection points: 2
#     Edge 17, Type (0, 0), BuildingBlock: OJICUG_clean_linker_0, # of connection points: 2
#     Edge 18, Type (0, 0), BuildingBlock: OJICUG_clean_linker_0, # of connection points: 2
#     Edge 19, Type (0, 0), BuildingBlock: OJICUG_clean_linker_0, # of connection points: 2
#     Edge 20, Type (0, 0), BuildingBlock: OJICUG_clean_linker_0, # of connection points: 2
#     Edge 21, Type (0, 0), BuildingBlock: OJICUG_clean_linker_0, # of connection points: 2
#     Edge 22, Type (0, 0), BuildingBlock: OJICUG_clean_linker_0, # of connection points: 2
#     Edge 23, Type (0, 0), BuildingBlock: OJICUG_clean_linker_0, # of connection points: 2
#     Edge 24, Type (0, 0), BuildingBlock: OJICUG_clean_linker_0, # of connection points: 2
#     Edge 25, Type (0, 0), BuildingBlock: OJICUG_clean_linker_0, # of connection points: 2
#     Edge 26, Type (0, 0), BuildingBlock: OJICUG_clean_linker_0, # of connection points: 2
#     Edge 27, Type (0, 0), BuildingBlock: OJICUG_clean_linker_0, # of connection points: 2
#     Edge 28, Type (0, 0), BuildingBlock: OJICUG_clean_linker_0, # of connection points: 2
#     Edge 29, Type (0, 0), BuildingBlock: OJICUG_clean_linker_0, # of connection points: 2
#     Edge 30, Type (0, 0), BuildingBlock: OJICUG_clean_linker_0, # of connection points: 2
#     Edge 31, Type (0, 0), BuildingBlock: OJICUG_clean_linker_0, # of connection points: 2
#     Edge 32, Type (0, 0), BuildingBlock: OJICUG_clean_linker_0, # of connection points: 2
#     Edge 33, Type (0, 0), BuildingBlock: OJICUG_clean_linker_0, # of connection points: 2
#     Edge 34, Type (0, 0), BuildingBlock: OJICUG_clean_linker_0, # of connection points: 2
#     Edge 35, Type (0, 0), BuildingBlock: OJICUG_clean_linker_0, # of connection points: 2
#     Edge 36, Type (0, 0), BuildingBlock: OJICUG_clean_linker_0, # of connection points: 2
#     Edge 37, Type (0, 0), BuildingBlock: OJICUG_clean_linker_0, # of connection points: 2
#     Edge 38, Type (0, 0), BuildingBlock: OJICUG_clean_linker_0, # of connection points: 2
#     Edge 39, Type (0, 0), BuildingBlock: OJICUG_clean_linker_0, # of connection points: 2
#     Edge 40, Type (0, 0), BuildingBlock: OJICUG_clean_linker_0, # of connection points: 2
#     Edge 41, Type (0, 0), BuildingBlock: OJICUG_clean_linker_0, # of connection points: 2
#     Edge 42, Type (0, 0), BuildingBlock: OJICUG_clean_linker_0, # of connection points: 2
#     Edge 43, Type (0, 0), BuildingBlock: OJICUG_clean_linker_0, # of connection points: 2
#     Edge 44, Type (0, 0), BuildingBlock: OJICUG_clean_linker_0, # of connection points: 2
#     Edge 45, Type (0, 0), BuildingBlock: OJICUG_clean_linker_0, # of connection points: 2
#     Edge 46, Type (0, 0), BuildingBlock: OJICUG_clean_linker_0, # of connection points: 2
#     Edge 47, Type (0, 0), BuildingBlock: OJICUG_clean_linker_0, # of connection points: 2
# Relax obj value: 0.340
# Max RMSD: 0.205
# Mean RMSD: 0.205
data_MOF--net-umz--node1-UXUYUI_clean_sbu_0--edge1-OJICUG_clean_linker_0
_symmetry_space_group_name_H-M    P1
_symmetry_Int_Tables_number       1
_symmetry_cell_setting            triclinic
loop_
_symmetry_equiv_pos_as_xyz
'x, y, z'
_cell_length_a     71.607395
_cell_length_b     71.611927
_cell_length_c     26.020482
_cell_angle_alpha  90.003322
_cell_angle_beta   89.99635
_cell_angle_gamma 89.981995
loop_
_atom_site_label
_atom_site_type_symbol
_atom_site_fract_x
_atom_site_fract_y
_atom_site_fract_z
_atom_type_partial_charge
Li0 Li -0.00051 0.63145 0.18282 0.0
Li1 Li 0.02989 0.63613 0.2228 0.0
Li2 Li 0.01862 0.65618 0.14702 0.0
Li3 Li 0.02743 0.6242 0.13497 0.0
C4 C 0.99685 0.6646 0.24812 0.0
N5 N 0.97337 0.68608 0.30841 0.0
C6 C 0.99648 0.66215 0.30142 0.0
C7 C 0.98563 0.67837 0.22572 0.0
C8 C 0.9844 0.67302 0.33117 0.0
C9 C 0.97377 0.68898 0.25677 0.0
C10 C 0.01102 0.59517 0.19466 0.0
C11 C 0.0011 0.56608 0.23259 0.0
N12 N 0.99403 0.56065 0.18643 0.0
C13 C 0.00365 0.58929 0.14759 0.0
C14 C 0.00973 0.58349 0.23754 0.0
C15 C 0.99513 0.5718 0.14422 0.0
C16 C 0.96444 0.61374 0.16673 0.0
N17 N 0.97546 0.62251 0.20172 0.0
C18 C 0.95521 0.61335 0.27014 0.0
C19 C 0.97111 0.62257 0.25252 0.0
C20 C 0.94398 0.60343 0.23532 0.0
C21 C 0.94855 0.60407 0.18275 0.0
H22 H 0.96857 0.6133 0.12678 0.0
H23 H 0.98051 0.62888 0.2798 0.0
C24 C 0.06097 0.63777 0.2916 0.0
N25 N 0.04271 0.63315 0.28538 0.0
C26 C 0.07083 0.63117 0.33427 0.0
C27 C 0.04259 0.61615 0.36418 0.0
C28 C 0.03334 0.62298 0.32105 0.0
C29 C 0.06174 0.61972 0.37042 0.0
H30 H 0.0681 0.64569 0.26216 0.0
H31 H 0.01889 0.61929 0.31439 0.0
C32 C 0.99035 0.64308 0.07986 0.0
N33 N 0.96142 0.65672 0.02043 0.0
C34 C 0.99013 0.6399 0.02686 0.0
C35 C 0.97573 0.65297 0.10268 0.0
C36 C 0.97543 0.64698 0.99744 0.0
C37 C 0.96126 0.65981 0.07201 0.0
C38 C 0.06033 0.64151 0.13831 0.0
C39 C 0.06588 0.6517 0.09512 0.0
C40 C 0.07182 0.62731 0.15725 0.0
C41 C 0.08278 0.64731 0.0711 0.0
C42 C 0.0886 0.62334 0.13209 0.0
N43 N 0.09367 0.63332 0.08987 0.0
C44 C 0.02026 0.69607 0.13921 0.0
C45 C 0.01982 0.67889 0.06123 0.0
C46 C 0.02096 0.71289 0.11194 0.0
N47 N 0.0195 0.67957 0.11343 0.0
C48 C 0.02029 0.69529 0.03257 0.0
C49 C 0.02083 0.71246 0.05807 0.0
H50 H 0.02036 0.69616 0.18078 0.0
H51 H 0.0199 0.66556 0.04182 0.0
C52 C 0.04855 0.59278 0.09948 0.0
N53 N 0.04016 0.60913 0.08644 0.0
C54 C 0.06076 0.58408 0.06509 0.0
C55 C 0.05516 0.60913 0.00467 0.0
C56 C 0.04285 0.61712 0.03975 0.0
C57 C 0.06458 0.59251 0.01734 0.0
H58 H 0.04642 0.58694 0.13736 0.0
H59 H 0.03631 0.63037 0.03111 0.0
O60 O 0.00891 0.65433 0.2186 0.0
O61 O 0.01895 0.61247 0.19925 0.0
O62 O 0.00473 0.63625 0.10901 0.0
O63 O 0.04357 0.6452 0.16138 0.0
H64 H 0.00535 0.6519 0.31965 0.0
H65 H 0.98622 0.68105 0.18488 0.0
H66 H 0.98386 0.67111 0.37239 0.0
H67 H 0.96496 0.6996 0.23985 0.0
H68 H -1e-05 0.55691 0.26548 0.0
H69 H 0.00429 0.59822 0.11412 0.0
H70 H 0.01529 0.58783 0.2743 0.0
H71 H 0.98931 0.56711 0.10809 0.0
H72 H 0.95221 0.6134 0.31091 0.0
H73 H 0.94062 0.59628 0.15454 0.0
H74 H 0.08554 0.63439 0.33793 0.0
H75 H 0.03508 0.60717 0.39054 0.0
H76 H 0.00127 0.63212 0.00862 0.0
H77 H 0.97537 0.65501 0.1437 0.0
H78 H 0.97514 0.64472 0.95635 0.0
H79 H 0.94985 0.66748 0.08925 0.0
H80 H 0.05715 0.66273 0.08 0.0
H81 H 0.06763 0.61918 0.19037 0.0
H82 H 0.08719 0.65498 0.03741 0.0
H83 H 0.09753 0.61225 0.14596 0.0
H84 H 0.02154 0.72603 0.13249 0.0
H85 H 0.02042 0.6946 0.99097 0.0
H86 H 0.06741 0.57114 0.07632 0.0
H87 H 0.05787 0.61644 0.96904 0.0
Li88 Li 0.86135 -0.0004 0.67177 0.0
Li89 Li 0.85537 0.03105 0.70482 0.0
Li90 Li 0.83605 0.01844 0.64011 0.0
Li91 Li 0.86664 0.02911 0.61658 0.0
C92 C 0.82576 0.99698 0.72776 0.0
N93 N 0.79799 0.97326 0.76212 0.0
C94 C 0.81263 0.00323 0.76362 0.0
C95 C 0.82492 0.97857 0.71 0.0
C96 C 0.79864 0.99106 0.7803 0.0
C97 C 0.81075 0.96682 0.7277 0.0
C98 C 0.8929 0.02813 0.70986 0.0
C99 C 0.91334 0.05368 0.73173 0.0
N100 N 0.91931 0.04404 0.77367 0.0
C101 C 0.89933 0.01841 0.75294 0.0
C102 C 0.90002 0.04586 0.69893 0.0
C103 C 0.91266 0.02672 0.78481 0.0
C104 C 0.88179 0.9661 0.65737 0.0
N105 N 0.87198 0.97657 0.6915 0.0
C106 C 0.88118 0.9568 0.76084 0.0
C107 C 0.87121 0.97208 0.74217 0.0
C108 C 0.89217 0.94616 0.72703 0.0
C109 C 0.89202 0.95067 0.6744 0.0
H110 H 0.88232 0.97022 0.61739 0.0
H111 H 0.86344 0.98085 0.76842 0.0
C112 C 0.86407 0.06358 0.75961 0.0
N113 N 0.85927 0.04533 0.76486 0.0
C114 C 0.87292 0.07289 0.79981 0.0
C115 C 0.8705 0.04484 0.85115 0.0
C116 C 0.86161 0.03607 0.80996 0.0
C117 C 0.87702 0.06323 0.84542 0.0
H118 H 0.86257 0.07041 0.72282 0.0
H119 H 0.85811 0.0214 0.81233 0.0
C120 C 0.8448 -0.00115 0.55702 0.0
N121 N 0.82284 0.98794 0.47503 0.0
C122 C 0.84399 0.00981 0.51263 0.0
C123 C 0.8347 0.98217 0.55936 0.0
C124 C 0.83275 0.00409 0.47167 0.0
C125 C 0.8236 0.97695 0.51761 0.0
C126 C 0.83292 0.05718 0.65837 0.0
C127 C 0.81845 0.05207 0.69151 0.0
C128 C 0.83394 0.07553 0.64026 0.0
C129 C 0.80519 0.06538 0.70593 0.0
C130 C 0.82042 0.08846 0.6556 0.0
N131 N 0.80644 0.08316 0.68784 0.0
C132 C 0.79772 0.00613 0.61968 0.0
C133 C 0.80989 0.03135 0.57125 0.0
C134 C 0.78111 0.00665 0.59146 0.0
N135 N 0.81173 0.01836 0.60902 0.0
C136 C 0.79362 0.03233 0.54212 0.0
C137 C 0.77896 0.01984 0.55189 0.0
H138 H 0.79942 0.99578 0.64929 0.0
H139 H 0.82135 0.04066 0.56271 0.0
C140 C 0.89982 0.03678 0.56043 0.0
N141 N 0.88158 0.04136 0.56746 0.0
C142 C 0.91088 0.04722 0.52675 0.0
C143 C 0.88407 0.06668 0.50832 0.0
C144 C 0.87355 0.05583 0.54202 0.0
C145 C 0.90303 0.06252 0.50066 0.0
H146 H 0.90583 0.02529 0.58175 0.0
H147 H 0.85898 0.05904 0.54834 0.0
O148 O 0.83973 0.00866 0.71182 0.0
O149 O 0.87947 0.02045 0.67899 0.0
O150 O 0.85533 0.0045 0.59802 0.0
O151 O 0.84609 0.0444 0.6436 0.0
H152 H 0.81328 0.01731 0.77862 0.0
H153 H 0.83503 0.97341 0.68271 0.0
H154 H 0.78834 0.99574 0.80786 0.0
H155 H 0.80988 0.95258 0.71404 0.0
H156 H 0.91884 0.06747 0.72404 0.0
H157 H 0.89394 0.0047 0.76201 0.0
H158 H 0.89507 0.05364 0.66599 0.0
H159 H 0.91765 0.01943 0.81852 0.0
H160 H 0.88076 0.9537 0.80156 0.0
H161 H 0.90049 0.94301 0.64713 0.0
H162 H 0.87751 0.08716 0.79413 0.0
H163 H 0.87354 0.03683 0.88545 0.0
H164 H 0.85176 0.02273 0.51012 0.0
H165 H 0.83534 0.9734 0.59308 0.0
H166 H 0.83184 0.01254 0.43729 0.0
H167 H 0.81559 0.96416 0.51907 0.0
H168 H 0.81738 0.03796 0.70567 0.0
H169 H 0.84511 0.07977 0.61479 0.0
H170 H 0.79389 0.06158 0.73147 0.0
H171 H 0.82106 0.1027 0.64191 0.0
H172 H 0.77009 0.99684 0.60058 0.0
H173 H 0.79276 0.04248 0.51137 0.0
H174 H 0.92547 0.04363 0.52206 0.0
H175 H 0.87742 0.07815 0.48826 0.0
Li176 Li 0.49271 0.86224 0.16602 0.0
Li177 Li 0.46389 0.85581 0.21294 0.0
Li178 Li 0.47432 0.8348 0.14913 0.0
Li179 Li 0.46023 0.86365 0.12238 0.0
C180 C 0.50048 0.82881 0.22932 0.0
N181 N 0.52705 0.80327 0.26095 0.0
C182 C 0.49668 0.81667 0.27008 0.0
C183 C 0.51791 0.82815 0.20522 0.0
C184 C 0.51025 0.80379 0.28531 0.0
C185 C 0.53113 0.8151 0.22164 0.0
C186 C 0.46434 0.8934 0.20731 0.0
C187 C 0.43933 0.91405 0.2324 0.0
N188 N 0.45028 0.92104 0.27054 0.0
C189 C 0.47539 0.90088 0.2465 0.0
C190 C 0.44619 0.90009 0.19997 0.0
C191 C 0.46801 0.9148 0.27817 0.0
C192 C 0.52477 0.88251 0.13277 0.0
N193 N 0.51595 0.87441 0.17326 0.0
C194 C 0.53856 0.88654 0.23177 0.0
C195 C 0.52264 0.87596 0.22192 0.0
C196 C 0.54767 0.89568 0.19111 0.0
C197 C 0.5408 0.89326 0.14087 0.0
H198 H 0.51903 0.88107 0.09451 0.0
H199 H 0.51516 0.86949 0.25335 0.0
C200 C 0.43415 0.86586 0.27615 0.0
N201 N 0.45249 0.86102 0.2768 0.0
C202 C 0.42637 0.87527 0.31778 0.0
C203 C 0.45612 0.87326 0.36153 0.0
C204 C 0.46338 0.86392 0.31882 0.0
C205 C 0.43761 0.87973 0.36023 0.0
H206 H 0.42601 0.86387 0.24162 0.0
H207 H 0.47805 0.86035 0.3175 0.0
C208 C 0.48911 0.84186 0.05691 0.0
N209 N 0.49813 0.81822 0.97672 0.0
C210 C 0.47644 0.83896 0.01683 0.0
C211 C 0.50651 0.83303 0.05568 0.0
C212 C 0.48123 0.82689 0.97676 0.0
C213 C 0.51076 0.82104 0.01496 0.0
C214 C 0.43716 0.83043 0.18463 0.0
C215 C 0.44497 0.81693 0.21688 0.0
C216 C 0.41785 0.83073 0.17685 0.0
C217 C 0.43334 0.80393 0.24085 0.0
C218 C 0.40667 0.8175 0.20155 0.0
N219 N 0.41458 0.80448 0.23277 0.0
C220 C 0.4883 0.79686 0.13051 0.0
C221 C 0.46015 0.80645 0.09069 0.0
C222 C 0.48798 0.78004 0.10316 0.0
N223 N 0.4746 0.80975 0.12328 0.0
C224 C 0.45936 0.78999 0.06238 0.0
C225 C 0.4735 0.77656 0.06787 0.0
H226 H 0.49977 0.79974 0.15607 0.0
H227 H 0.44964 0.81707 0.08474 0.0
C228 C 0.4468 0.89301 0.05835 0.0
N229 N 0.44432 0.8751 0.07407 0.0
C230 C 0.43419 0.90108 0.02389 0.0
C231 C 0.41685 0.87209 0.02279 0.0
C232 C 0.42978 0.86461 0.05711 0.0
C233 C 0.41896 0.89057 0.00567 0.0
H234 H 0.45849 0.90101 0.07276 0.0
H235 H 0.42822 0.85039 0.07038 0.0
O236 O 0.48742 0.84171 0.21466 0.0
O237 O 0.47115 0.87946 0.17663 0.0
O238 O 0.48444 0.85321 0.09722 0.0
O239 O 0.44824 0.8434 0.1609 0.0
H240 H 0.48341 0.81725 0.28996 0.0
H241 H 0.52121 0.83754 0.17411 0.0
H242 H 0.50746 0.79427 0.31664 0.0
H243 H 0.54464 0.81438 0.20312 0.0
H244 H 0.42526 0.91925 0.22746 0.0
H245 H 0.48943 0.89583 0.2528 0.0
H246 H 0.43739 0.89436 0.17008 0.0
H247 H 0.47635 0.9206 0.30893 0.0
H248 H 0.54313 0.88825 0.27115 0.0
H249 H 0.54749 0.89993 0.10837 0.0
H250 H 0.41199 0.87991 0.31563 0.0
H251 H 0.46523 0.87659 0.39345 0.0
H252 H 0.46295 0.84575 0.01704 0.0
H253 H 0.51659 0.8353 0.08593 0.0
H254 H 0.47147 0.82436 0.94579 0.0
H255 H 0.52411 0.81397 0.01378 0.0
H256 H 0.45985 0.81642 0.2231 0.0
H257 H 0.41155 0.84116 0.15222 0.0
H258 H 0.43923 0.79339 0.26584 0.0
H259 H 0.3917 0.8176 0.19595 0.0
H260 H 0.49907 0.76999 0.10913 0.0
H261 H 0.44813 0.78821 0.03495 0.0
H262 H 0.43649 0.91529 0.01112 0.0
H263 H 0.40525 0.86355 0.0102 0.0
Li264 Li 0.63535 0.49243 0.67962 0.0
Li265 Li 0.64195 0.46335 0.72271 0.0
Li266 Li 0.66383 0.47654 0.66468 0.0
Li267 Li 0.63444 0.46171 0.6314 0.0
C268 C 0.67187 0.49362 0.74815 0.0
N269 N 0.70641 0.50582 0.78133 0.0
C270 C 0.68124 0.48403 0.78714 0.0
C271 C 0.67989 0.5096 0.72663 0.0
C272 C 0.69874 0.49038 0.80324 0.0
C273 C 0.69742 0.51548 0.74374 0.0
C274 C 0.60423 0.46619 0.71918 0.0
C275 C 0.58188 0.44386 0.7513 0.0
N276 N 0.57636 0.4564 0.7875 0.0
C277 C 0.59826 0.47889 0.75651 0.0
C278 C 0.59592 0.44855 0.71633 0.0
C279 C 0.58417 0.47367 0.79074 0.0
C280 C 0.60699 0.51921 0.66219 0.0
N281 N 0.62286 0.51555 0.68901 0.0
C282 C 0.61889 0.54322 0.73915 0.0
C283 C 0.62903 0.52721 0.72658 0.0
C284 C 0.60235 0.54725 0.71249 0.0
C285 C 0.59658 0.53521 0.67293 0.0
H286 H 0.60215 0.50941 0.63354 0.0
H287 H 0.64147 0.52374 0.74806 0.0
C288 C 0.63033 0.43249 0.78307 0.0
N289 N 0.63584 0.45064 0.78473 0.0
C290 C 0.62059 0.42471 0.82407 0.0
C291 C 0.62269 0.45427 0.86851 0.0
C292 C 0.6328 0.46138 0.82698 0.0
C293 C 0.61582 0.43589 0.86646 0.0
H294 H 0.63198 0.42446 0.74835 0.0
H295 H 0.63678 0.47595 0.82653 0.0
C296 C 0.63888 0.49987 0.58102 0.0
N297 N 0.62334 0.5279 0.52176 0.0
C298 C 0.62502 0.49567 0.54501 0.0
C299 C 0.64492 0.51834 0.58661 0.0
C300 C 0.61732 0.51003 0.51547 0.0
C301 C 0.63686 0.5323 0.55639 0.0
C302 C 0.66149 0.4334 0.68805 0.0
C303 C 0.67335 0.43307 0.7307 0.0
C304 C 0.65542 0.41656 0.66656 0.0
C305 C 0.67896 0.41593 0.75113 0.0
C306 C 0.66135 0.39969 0.68807 0.0
N307 N 0.6729 0.39973 0.72956 0.0
C308 C 0.70233 0.4666 0.65631 0.0
C309 C 0.69252 0.49274 0.60744 0.0
C310 C 0.71944 0.4663 0.63059 0.0
N311 N 0.6891 0.47936 0.64327 0.0
C312 C 0.70944 0.49302 0.58099 0.0
C313 C 0.72287 0.47925 0.59116 0.0
H314 H 0.6993 0.45604 0.68457 0.0
H315 H 0.6817 0.50253 0.59721 0.0
C316 C 0.60507 0.44458 0.57563 0.0
N317 N 0.62387 0.44665 0.57962 0.0
C318 C 0.5976 0.43207 0.54001 0.0
C319 C 0.62898 0.42441 0.51279 0.0
C320 C 0.63582 0.43713 0.54871 0.0
C321 C 0.60962 0.42162 0.50835 0.0
H322 H 0.59591 0.45253 0.6004 0.0
H323 H 0.65072 0.43907 0.55307 0.0
O324 O 0.65485 0.48748 0.73135 0.0
O325 O 0.61831 0.47089 0.68607 0.0
O326 O 0.64648 0.48599 0.61057 0.0
O327 O 0.65576 0.45005 0.66756 0.0
H328 H 0.67505 0.47186 0.80493 0.0
H329 H 0.67274 0.51724 0.69664 0.0
H330 H 0.7062 0.48304 0.83323 0.0
H331 H 0.70388 0.52772 0.72709 0.0
H332 H 0.57546 0.4302 0.74989 0.0
H333 H 0.60462 0.49255 0.75953 0.0
H334 H 0.60053 0.43846 0.6881 0.0
H335 H 0.57951 0.48331 0.82007 0.0
H336 H 0.62372 0.55216 0.76998 0.0
H337 H 0.58371 0.53769 0.65217 0.0
H338 H 0.61593 0.41037 0.82116 0.0
H339 H 0.6192 0.46349 0.90004 0.0
H340 H 0.6202 0.48149 0.53994 0.0
H341 H 0.65548 0.52192 0.61464 0.0
H342 H 0.60655 0.50697 0.48757 0.0
H343 H 0.6413 0.54666 0.56064 0.0
H344 H 0.678 0.44592 0.74823 0.0
H345 H 0.64608 0.41646 0.63396 0.0
H346 H 0.68809 0.41551 0.78424 0.0
H347 H 0.65672 0.38657 0.67187 0.0
H348 H 0.72956 0.45558 0.63997 0.0
H349 H 0.71143 0.50314 0.55055 0.0
H350 H 0.58258 0.4307 0.53707 0.0
H351 H 0.63877 0.41658 0.48951 0.0
Li352 Li 0.02382 0.83784 0.85503 0.0
Li353 Li 0.03533 0.86752 0.88386 0.0
Li354 Li 0.00477 0.86421 0.83225 0.0
Li355 Li 0.03542 0.859 0.7934 0.0
C356 C 0.00596 0.84463 0.94347 0.0
N357 N 0.99628 0.82131 0.0238 0.0
C358 C 0.01705 0.84385 0.98762 0.0
C359 C 0.98975 0.83381 0.9406 0.0
C360 C 0.01196 0.83192 0.02773 0.0
C361 C 0.98516 0.82202 0.98147 0.0
C362 C 0.06192 0.83467 0.83053 0.0
C363 C 0.09288 0.8215 0.82539 0.0
N364 N 0.08657 0.80868 0.79096 0.0
C365 C 0.05577 0.82138 0.79508 0.0
C366 C 0.08063 0.83475 0.84584 0.0
C367 C 0.06843 0.80835 0.77554 0.0
C368 C 0.01201 0.79893 0.86602 0.0
N369 N 0.0238 0.81282 0.88072 0.0
C370 C 0.03628 0.79376 0.94778 0.0
C371 C 0.03609 0.81035 0.91993 0.0
C372 C 0.0239 0.77933 0.93469 0.0
C373 C 0.0119 0.78195 0.89248 0.0
H374 H 0.00239 0.80105 0.83478 0.0
H375 H 0.04524 0.82167 0.93103 0.0
C376 C 0.04406 0.89831 0.94827 0.0
N377 N 0.04858 0.88053 0.93503 0.0
C378 C 0.05483 0.9079 0.98446 0.0
C379 C 0.07458 0.88063 0.99237 0.0
C380 C 0.06342 0.87159 0.95628 0.0
C381 C 0.07038 0.89906 0.00689 0.0
H382 H 0.0322 0.90506 0.93041 0.0
H383 H 0.06662 0.85743 0.94486 0.0
C384 C 0.00064 0.83074 0.7676 0.0
N385 N 0.97604 0.80466 0.72825 0.0
C386 C 0.00603 0.81925 0.72677 0.0
C387 C 0.98263 0.82915 0.78787 0.0
C388 C 0.99343 0.80609 0.70759 0.0
C389 C 0.97043 0.81584 0.76759 0.0
C390 C 0.03355 0.89651 0.79796 0.0
C391 C 0.02354 0.90492 0.75808 0.0
C392 C 0.05179 0.90232 0.80839 0.0
C393 C 0.03206 0.91886 0.72876 0.0
C394 C 0.05982 0.91632 0.7782 0.0
N395 N 0.04988 0.92421 0.7393 0.0
C396 C 0.96997 0.88112 0.85728 0.0
C397 C 0.97667 0.87733 0.76862 0.0
C398 C 0.9535 0.8907 0.84558 0.0
N399 N 0.98124 0.87497 0.81885 0.0
C400 C 0.9604 0.88683 0.75518 0.0
C401 C 0.94873 0.89398 0.79389 0.0
H402 H 0.97403 0.879 0.89691 0.0
H403 H 0.98602 0.87233 0.739 0.0
C404 C 0.06697 0.86834 0.73453 0.0
N405 N 0.04844 0.86442 0.73211 0.0
C406 C 0.07557 0.87799 0.69449 0.0
C407 C 0.04611 0.87826 0.64899 0.0
C408 C 0.0381 0.86848 0.6898 0.0
C409 C 0.0649 0.88382 0.65211 0.0
H410 H 0.07471 0.86542 0.76926 0.0
H411 H 0.02327 0.86561 0.68977 0.0
O412 O 0.011 0.85588 0.90329 0.0
O413 O 0.04981 0.84763 0.85021 0.0
O414 O 0.01276 0.84387 0.78618 0.0
O415 O 0.02566 0.88243 0.82607 0.0
H416 H 0.02959 0.85219 0.99065 0.0
H417 H 0.98088 0.83437 0.90708 0.0
H418 H 0.02052 0.83106 0.06191 0.0
H419 H 0.97276 0.81342 0.97953 0.0
H420 H 0.1074 0.82142 0.83685 0.0
H421 H 0.04138 0.82103 0.78296 0.0
H422 H 0.08567 0.84501 0.87304 0.0
H423 H 0.06383 0.79796 0.74813 0.0
H424 H 0.04559 0.79259 0.9804 0.0
H425 H 0.00236 0.77109 0.8803 0.0
H426 H 0.05092 0.92199 0.99504 0.0
H427 H 0.08653 0.87335 0.00812 0.0
H428 H 0.0198 0.82053 0.70993 0.0
H429 H 0.97811 0.83803 0.81896 0.0
H430 H 0.99746 0.79706 0.67616 0.0
H431 H 0.95649 0.8144 0.78311 0.0
H432 H 0.00942 0.90057 0.74946 0.0
H433 H 0.05979 0.89585 0.83883 0.0
H434 H 0.02454 0.92538 0.69749 0.0
H435 H 0.07399 0.92082 0.78548 0.0
H436 H 0.9448 0.89579 0.8766 0.0
H437 H 0.95747 0.88926 0.71491 0.0
H438 H 0.09016 0.88176 0.69805 0.0
H439 H 0.03732 0.88263 0.61734 0.0
Li440 Li 0.6555 0.02409 0.33837 0.0
Li441 Li 0.62459 0.03363 0.35874 0.0
Li442 Li 0.63106 0.00555 0.30584 0.0
Li443 Li 0.63701 0.03596 0.27043 0.0
C444 C 0.64789 -0.00017 0.41067 0.0
N445 N 0.67233 0.98036 0.47294 0.0
C446 C 0.65138 0.00595 0.46075 0.0
C447 C 0.65669 0.98373 0.39238 0.0
C448 C 0.66383 0.99594 0.49159 0.0
C449 C 0.66902 0.97409 0.42445 0.0
C450 C 0.63945 0.06775 0.33216 0.0
C451 C 0.61588 0.09093 0.31404 0.0
N452 N 0.62764 0.1045 0.33102 0.0
C453 C 0.65127 0.08193 0.34951 0.0
C454 C 0.62157 0.07227 0.31435 0.0
C455 C 0.64506 0.10042 0.34858 0.0
C456 C 0.69268 0.01093 0.35742 0.0
N457 N 0.67944 0.02381 0.3694 0.0
C458 C 0.69836 0.03613 0.4368 0.0
C459 C 0.68201 0.03639 0.40779 0.0
C460 C 0.71222 0.02281 0.42609 0.0
C461 C 0.70931 0.01018 0.38546 0.0
H462 H 0.69013 0.00094 0.32704 0.0
H463 H 0.67105 0.04624 0.41692 0.0
C464 C 0.59156 0.05072 0.39984 0.0
N465 N 0.60979 0.04633 0.40818 0.0
C466 C 0.58203 0.06222 0.43436 0.0
C467 C 0.61028 0.06466 0.48481 0.0
C468 C 0.6192 0.05301 0.4496 0.0
C469 C 0.59149 0.06952 0.47716 0.0
H470 H 0.5846 0.04592 0.36548 0.0
H471 H 0.63386 0.04978 0.45425 0.0
C472 C 0.66912 0.01812 0.23998 0.0
N473 N 0.70064 0.02687 0.18358 0.0
C474 C 0.67754 0.03563 0.24527 0.0
C475 C 0.67674 0.00507 0.20598 0.0
C476 C 0.69346 0.03978 0.21642 0.0
C477 C 0.69268 0.00975 0.17782 0.0
C478 C 0.59569 0.01734 0.29255 0.0
C479 C 0.58904 0.00849 0.33682 0.0
C480 C 0.58516 0.01667 0.24736 0.0
C481 C 0.57198 -0.00093 0.3351 0.0
C482 C 0.56816 0.0071 0.2472 0.0
N483 N 0.56198 -0.00143 0.29069 0.0
C484 C 0.61428 0.96986 0.32036 0.0
C485 C 0.62035 0.979 0.23435 0.0
C486 C 0.60451 0.95415 0.30335 0.0
N487 N 0.6216 0.98203 0.28575 0.0
C488 C 0.61072 0.96351 0.21566 0.0
C489 C 0.60224 0.95108 0.25031 0.0
H490 H 0.61521 0.97286 0.36102 0.0
H491 H 0.62616 0.9891 0.20788 0.0
C492 C 0.64039 0.06734 0.2014 0.0
N493 N 0.63476 0.04936 0.2079 0.0
C494 C 0.63416 0.07755 0.15899 0.0
C495 C 0.61826 0.04992 0.12831 0.0
C496 C 0.62468 0.04033 0.1714 0.0
C497 C 0.62232 0.069 0.12289 0.0
H498 H 0.64884 0.07409 0.23036 0.0
H499 H 0.62074 0.02592 0.17734 0.0
O500 O 0.63623 0.00975 0.37926 0.0
O501 O 0.64537 0.04958 0.33377 0.0
O502 O 0.65354 0.01356 0.26773 0.0
O503 O 0.61269 0.02607 0.29314 0.0
H504 H 0.64468 0.01838 0.4755 0.0
H505 H 0.65426 0.9789 0.35353 0.0
H506 H 0.66678 0.00059 0.53031 0.0
H507 H 0.67604 0.96168 0.41068 0.0
H508 H 0.60211 0.09461 0.30028 0.0
H509 H 0.66512 0.07865 0.36361 0.0
H510 H 0.61218 0.06157 0.30069 0.0
H511 H 0.65408 0.11153 0.36189 0.0
H512 H 0.69985 0.04592 0.46826 0.0
H513 H 0.71971 -0.00019 0.3756 0.0
H514 H 0.56762 0.06589 0.4267 0.0
H515 H 0.61804 0.06991 0.51748 0.0
H516 H 0.67195 0.04595 0.27132 0.0
H517 H 0.67039 0.99145 0.20146 0.0
H518 H 0.70011 0.05328 0.22016 0.0
H519 H 0.69872 -0.00022 0.15139 0.0
H520 H 0.59709 0.00872 0.37202 0.0
H521 H 0.59002 0.02345 0.21275 0.0
H522 H 0.56672 0.9921 0.36901 0.0
H523 H 0.55988 0.00645 0.21247 0.0
H524 H 0.59797 0.94509 0.33137 0.0
H525 H 0.60946 0.96157 0.17453 0.0
H526 H 0.63786 0.09216 0.15564 0.0
H527 H 0.60915 0.04279 0.10152 0.0
Li528 Li 0.47257 0.65606 0.84133 0.0
Li529 Li 0.46064 0.62536 0.85741 0.0
Li530 Li 0.49089 0.63099 0.8135 0.0
Li531 Li 0.46219 0.63685 0.76775 0.0
C532 C 0.48961 0.64605 0.92759 0.0
N533 N 0.50028 0.66708 0.01173 0.0
C534 C 0.47922 0.64537 0.97302 0.0
C535 C 0.50568 0.6571 0.92542 0.0
C536 C 0.48478 0.65618 0.01504 0.0
C537 C 0.51077 0.66773 0.9682 0.0
C538 C 0.42862 0.64195 0.81841 0.0
C539 C 0.40505 0.61963 0.79364 0.0
N540 N 0.39159 0.63255 0.80353 0.0
C541 C 0.41456 0.65498 0.82848 0.0
C542 C 0.42385 0.6241 0.801 0.0
C543 C 0.39592 0.64996 0.82066 0.0
C544 C 0.48446 0.69365 0.86282 0.0
N545 N 0.47207 0.67981 0.87335 0.0
C546 C 0.45933 0.69715 0.94334 0.0
C547 C 0.45942 0.68141 0.91196 0.0
C548 C 0.4722 0.7116 0.93443 0.0
C549 C 0.48472 0.70982 0.89298 0.0
H550 H 0.4944 0.69196 0.83192 0.0
H551 H 0.44988 0.67004 0.91966 0.0
C552 C 0.44289 0.59281 0.90351 0.0
N553 N 0.4449 0.6117 0.9034 0.0
C554 C 0.42984 0.58434 0.93592 0.0
C555 C 0.42085 0.61489 0.96654 0.0
C556 C 0.43413 0.62273 0.93392 0.0
C557 C 0.41856 0.59543 0.96797 0.0
H558 H 0.45112 0.58424 0.87808 0.0
H559 H 0.43566 0.63773 0.93216 0.0
C560 C 0.49999 0.65623 0.744 0.0
N561 N 0.53227 0.66034 0.68679 0.0
C562 C 0.50007 0.65183 0.69167 0.0
C563 C 0.51624 0.66312 0.76692 0.0
C564 C 0.51654 0.6539 0.66347 0.0
C565 C 0.53244 0.66498 0.73747 0.0
C566 C 0.47591 0.59474 0.80329 0.0
C567 C 0.48721 0.58998 0.84515 0.0
C568 C 0.47011 0.58086 0.7691 0.0
C569 C 0.49253 0.57138 0.85202 0.0
C570 C 0.47569 0.56241 0.77738 0.0
N571 N 0.4867 0.55809 0.81829 0.0
C572 C 0.52941 0.62027 0.832 0.0
C573 C 0.51562 0.61205 0.75235 0.0
C574 C 0.54584 0.61085 0.81861 0.0
N575 N 0.51472 0.62054 0.79893 0.0
C576 C 0.53162 0.60247 0.73755 0.0
C577 C 0.54699 0.60157 0.77098 0.0
H578 H 0.52823 0.62697 0.86908 0.0
H579 H 0.50362 0.61231 0.72718 0.0
C580 C 0.43457 0.64116 0.68691 0.0
N581 N 0.45096 0.63339 0.70244 0.0
C582 C 0.42573 0.63461 0.64243 0.0
C583 C 0.45149 0.61327 0.62938 0.0
C584 C 0.45963 0.62001 0.67418 0.0
C585 C 0.43406 0.62018 0.61376 0.0
H586 H 0.4279 0.65172 0.71026 0.0
H587 H 0.47255 0.61399 0.68778 0.0
O588 O 0.4841 0.63595 0.88556 0.0
O589 O 0.4469 0.64666 0.82661 0.0
O590 O 0.48406 0.65396 0.77245 0.0
O591 O 0.47091 0.61292 0.79493 0.0
H592 H 0.46696 0.63666 0.97584 0.0
H593 H 0.51404 0.65762 0.89095 0.0
H594 H 0.47676 0.6559 0.05026 0.0
H595 H 0.52305 0.67651 0.96678 0.0
H596 H 0.40116 0.60589 0.7801 0.0
H597 H 0.41803 0.66881 0.8423 0.0
H598 H 0.43449 0.61378 0.7932 0.0
H599 H 0.38489 0.65991 0.82827 0.0
H600 H 0.44964 0.69766 0.97525 0.0
H601 H 0.49469 0.72071 0.8841 0.0
H602 H 0.42869 0.56926 0.93602 0.0
H603 H 0.41224 0.62404 0.98971 0.0
H604 H 0.48756 0.64686 0.67294 0.0
H605 H 0.5164 0.66686 0.80709 0.0
H606 H 0.51682 0.65041 0.62303 0.0
H607 H 0.54516 0.67012 0.7549 0.0
H608 H 0.49186 0.6005 0.87205 0.0
H609 H 0.46136 0.5843 0.73652 0.0
H610 H 0.50128 0.5675 0.88417 0.0
H611 H 0.47129 0.55152 0.75124 0.0
H612 H 0.55738 0.6106 0.84549 0.0
H613 H 0.53159 0.59521 0.70106 0.0
H614 H 0.41231 0.64032 0.63147 0.0
H615 H 0.45825 0.60196 0.60894 0.0
Li616 Li 0.83828 0.47003 0.35056 0.0
Li617 Li 0.86904 0.45833 0.3659 0.0
Li618 Li 0.86312 0.48904 0.32492 0.0
Li619 Li 0.85759 0.46079 0.27642 0.0
C620 C 0.84781 0.48678 0.43766 0.0
N621 N 0.82627 0.49753 0.52078 0.0
C622 C 0.8472 0.47572 0.48189 0.0
C623 C 0.83778 0.50352 0.43622 0.0
C624 C 0.83616 0.48134 0.52339 0.0
C625 C 0.82689 0.50866 0.47847 0.0
C626 C 0.85308 0.42655 0.32408 0.0
C627 C 0.87602 0.4038 0.29773 0.0
N628 N 0.86337 0.38995 0.30586 0.0
C629 C 0.84033 0.41209 0.33234 0.0
C630 C 0.87111 0.42239 0.30681 0.0
C631 C 0.84579 0.39368 0.32284 0.0
C632 C 0.80202 0.48355 0.37576 0.0
N633 N 0.81458 0.46954 0.38235 0.0
C634 C 0.7968 0.4568 0.45148 0.0
C635 C 0.81205 0.45602 0.41829 0.0
C636 C 0.78402 0.4716 0.4474 0.0
C637 C 0.78651 0.48485 0.40809 0.0
H638 H 0.8045 0.49418 0.34712 0.0
H639 H 0.8225 0.44525 0.42309 0.0
C640 C 0.90173 0.44061 0.41109 0.0
N641 N 0.88283 0.44243 0.41093 0.0
C642 C 0.9103 0.42761 0.44351 0.0
C643 C 0.8798 0.41825 0.47367 0.0
C644 C 0.87186 0.43146 0.44104 0.0
C645 C 0.89929 0.41623 0.47547 0.0
H646 H 0.91022 0.44897 0.38578 0.0
H647 H 0.85684 0.43281 0.43904 0.0
C648 C 0.83743 0.49814 0.2542 0.0
N649 N 0.83178 0.52991 0.19584 0.0
C650 C 0.84011 0.49766 0.201 0.0
C651 C 0.83146 0.51469 0.27751 0.0
C652 C 0.83729 0.51389 0.17221 0.0
C653 C 0.82881 0.53063 0.24742 0.0
C654 C 0.89946 0.47514 0.31261 0.0
C655 C 0.90416 0.4853 0.35666 0.0
C656 C 0.91319 0.47115 0.27607 0.0
C657 C 0.92255 0.49133 0.36332 0.0
C658 C 0.93144 0.47739 0.28421 0.0
N659 N 0.93569 0.48728 0.32727 0.0
C660 C 0.87577 0.5257 0.35304 0.0
C661 C 0.87913 0.51682 0.26569 0.0
C662 C 0.88495 0.54257 0.34349 0.0
N663 N 0.87317 0.51324 0.31426 0.0
C664 C 0.88805 0.53357 0.25428 0.0
C665 C 0.8913 0.54656 0.2936 0.0
H666 H 0.87134 0.52226 0.39159 0.0
H667 H 0.8774 0.50638 0.23607 0.0
C668 C 0.85402 0.43378 0.19418 0.0
N669 N 0.8612 0.45037 0.21019 0.0
C670 C 0.86102 0.42526 0.14978 0.0
C671 C 0.88139 0.45181 0.13736 0.0
C672 C 0.87421 0.45965 0.18211 0.0
C673 C 0.87527 0.4341 0.12165 0.0
H674 H 0.84368 0.42667 0.21725 0.0
H675 H 0.87968 0.47279 0.19602 0.0
O676 O 0.85812 0.48123 0.39601 0.0
O677 O 0.84792 0.44461 0.33397 0.0
O678 O 0.8403 0.4824 0.28304 0.0
O679 O 0.88142 0.46954 0.30448 0.0
H680 H 0.85506 0.46289 0.48414 0.0
H681 H 0.83824 0.51238 0.40268 0.0
H682 H 0.83543 0.47281 0.55764 0.0
H683 H 0.81889 0.52147 0.47757 0.0
H684 H 0.8899 0.40039 0.28425 0.0
H685 H 0.82637 0.41509 0.34603 0.0
H686 H 0.88122 0.43334 0.30037 0.0
H687 H 0.83606 0.38235 0.32902 0.0
H688 H 0.79556 0.44641 0.48154 0.0
H689 H 0.77682 0.49631 0.40309 0.0
H690 H 0.92539 0.42663 0.44383 0.0
H691 H 0.87072 0.40953 0.49671 0.0
H692 H 0.84429 0.48491 0.18206 0.0
H693 H 0.82911 0.51531 0.31843 0.0
H694 H 0.83944 0.51373 0.13107 0.0
H695 H 0.8244 0.54357 0.26509 0.0
H696 H 0.89376 0.4885 0.38545 0.0
H697 H 0.90981 0.46329 0.24179 0.0
H698 H 0.92637 0.49922 0.39717 0.0
H699 H 0.94221 0.47439 0.25625 0.0
H700 H 0.8874 0.55221 0.37485 0.0
H701 H 0.89314 0.53594 0.21563 0.0
H702 H 0.85586 0.41163 0.13864 0.0
H703 H 0.89249 0.45901 0.1172 0.0
Li704 Li 0.96346 0.36775 0.85955 0.0
Li705 Li 0.97659 0.33745 0.84643 0.0
Li706 Li 0.9943 0.36458 0.81478 0.0
Li707 Li 0.9659 0.35353 0.77275 0.0
C708 C 0.99641 0.37046 0.91982 0.0
N709 N 0.01478 0.39508 0.98404 0.0
C710 C 0.00765 0.36373 0.95961 0.0
C711 C 0.99449 0.38971 0.91273 0.0
C712 C 0.01683 0.3764 0.99168 0.0
C713 C 0.00389 0.40193 0.94558 0.0
C714 C 0.94069 0.3312 0.85213 0.0
C715 C 0.92741 0.30035 0.84548 0.0
N716 N 0.92195 0.30138 0.89547 0.0
C717 C 0.93477 0.33204 0.90326 0.0
C718 C 0.93683 0.31532 0.82281 0.0
C719 C 0.92538 0.31679 0.92453 0.0
C720 C 0.93281 0.391 0.88537 0.0
N721 N 0.9479 0.38184 0.90466 0.0
C722 C 0.93844 0.38902 0.9905 0.0
C723 C 0.95085 0.38064 0.95619 0.0
C724 C 0.92277 0.39861 0.97162 0.0
C725 C 0.92011 0.39972 0.91828 0.0
H726 H 0.93022 0.39099 0.84459 0.0
H727 H 0.96249 0.37266 0.97082 0.0
C728 C 0.98179 0.29791 0.85976 0.0
N729 N 0.9787 0.31469 0.88267 0.0
C730 C 0.98234 0.28164 0.88944 0.0
C731 C 0.97665 0.30037 0.96526 0.0
C732 C 0.9764 0.31621 0.93433 0.0
C733 C 0.97953 0.2828 0.94283 0.0
H734 H 0.98358 0.29715 0.81857 0.0
H735 H 0.97401 0.32979 0.95135 0.0
C736 C 0.96566 0.39602 0.77889 0.0
N737 N 0.9522 0.43004 0.74475 0.0
C738 C 0.94806 0.3972 0.75585 0.0
C739 C 0.97641 0.41219 0.78447 0.0
C740 C 0.9415 0.4145 0.73885 0.0
C741 C 0.96936 0.42925 0.76705 0.0
C742 C 0.99236 0.33281 0.73245 0.0
C743 C 0.00613 0.33982 0.69965 0.0
C744 C 0.98065 0.31848 0.71548 0.0
C745 C 0.00772 0.33259 0.64997 0.0
C746 C 0.98267 0.31163 0.66551 0.0
N747 N 0.99604 0.31879 0.63404 0.0
C748 C 0.03284 0.37442 0.82978 0.0
C749 C 0.01737 0.38687 0.75689 0.0
C750 C 0.04919 0.38403 0.81689 0.0
N751 N 0.01733 0.37626 0.8001 0.0
C752 C 0.03328 0.39675 0.74274 0.0
C753 C 0.04948 0.39557 0.77308 0.0
H754 H 0.03248 0.36564 0.86357 0.0
H755 H 0.00488 0.38782 0.73369 0.0
C756 C 0.93633 0.3501 0.70066 0.0
N757 N 0.95461 0.35459 0.70717 0.0
C758 C 0.92671 0.35652 0.65741 0.0
C759 C 0.9553 0.3707 0.62695 0.0
C760 C 0.96431 0.36417 0.67085 0.0
C761 C 0.93607 0.36759 0.62099 0.0
H762 H 0.92887 0.34296 0.73096 0.0
H763 H 0.97862 0.36816 0.67813 0.0
O764 O 0.98759 0.35817 0.88774 0.0
O765 O 0.95036 0.34579 0.83106 0.0
O766 O 0.97258 0.3791 0.79457 0.0
O767 O 0.99044 0.33986 0.78103 0.0
H768 H 0.0093 0.34885 0.96552 0.0
H769 H 0.98574 0.39514 0.88247 0.0
H770 H 0.0256 0.37139 0.02259 0.0
H771 H 0.00251 0.41686 0.94054 0.0
H772 H 0.92444 0.28792 0.82333 0.0
H773 H 0.93762 0.34421 0.92653 0.0
H774 H 0.94111 0.31452 0.78304 0.0
H775 H 0.92087 0.31718 0.9642 0.0
H776 H 0.94103 0.38791 0.03139 0.0
H777 H 0.90802 0.40669 0.90224 0.0
H778 H 0.98448 0.2683 0.87078 0.0
H779 H 0.97464 0.30184 0.00632 0.0
H780 H 0.9394 0.38494 0.75174 0.0
H781 H 0.99011 0.41162 0.80196 0.0
H782 H 0.92789 0.41557 0.72104 0.0
H783 H 0.97754 0.44185 0.77116 0.0
H784 H 0.01548 0.35073 0.71234 0.0
H785 H 0.97003 0.3128 0.74048 0.0
H786 H 0.01825 0.33796 0.62407 0.0
H787 H 0.9736 0.30063 0.65176 0.0
H788 H 0.0614 0.38254 0.84108 0.0
H789 H 0.03266 0.40568 0.70922 0.0
H790 H 0.91188 0.35381 0.65403 0.0
H791 H 0.96296 0.37944 0.60032 0.0
Li792 Li 0.12493 0.97669 0.38968 0.0
Li793 Li 0.15589 0.98428 0.36396 0.0
Li794 Li 0.12954 0.00567 0.34356 0.0
Li795 Li 0.1326 0.97454 0.30083 0.0
C796 C 0.13685 0.00259 0.46147 0.0
N797 N 0.13098 0.01026 0.56425 0.0
C798 C 0.14553 0.99174 0.49922 0.0
C799 C 0.12533 0.01744 0.47595 0.0
C800 C 0.14234 0.99582 0.55099 0.0
C801 C 0.1225 0.02107 0.52813 0.0
C802 C 0.15562 0.94712 0.33818 0.0
C803 C 0.17988 0.93856 0.2783 0.0
N804 N 0.18043 0.92116 0.29919 0.0
C805 C 0.15644 0.92915 0.35906 0.0
C806 C 0.16745 0.95188 0.29747 0.0
C807 C 0.16908 0.91623 0.33882 0.0
C808 C 0.10943 0.94436 0.42593 0.0
N809 N 0.11133 0.96255 0.43981 0.0
C810 C 0.0959 0.95661 0.51962 0.0
C811 C 0.10447 0.96893 0.48532 0.0
C812 C 0.09439 0.93758 0.50693 0.0
C813 C 0.10106 0.93157 0.45901 0.0
H814 H 0.11472 0.93967 0.38926 0.0
H815 H 0.10555 0.98351 0.4952 0.0
C816 C 0.19407 0.99556 0.3735 0.0
N817 N 0.18082 0.9829 0.38703 0.0
C818 C 0.21173 0.99494 0.39645 0.0
C819 C 0.20167 0.96817 0.44589 0.0
C820 C 0.18433 0.96927 0.42199 0.0
C821 C 0.21562 0.98121 0.43365 0.0
H822 H 0.19077 0.00635 0.34585 0.0
H823 H 0.17341 0.95959 0.43256 0.0
C824 C 0.09213 0.98315 0.3456 0.0
N825 N 0.0558 0.97625 0.37626 0.0
C826 C 0.08043 0.97201 0.31545 0.0
C827 C 0.0852 0.99106 0.39084 0.0
C828 C 0.06215 0.96861 0.3317 0.0
C829 C 0.06685 0.98733 0.40587 0.0
C830 C 0.14883 0.00471 0.24897 0.0
C831 C 0.13126 0.00844 0.2277 0.0
C832 C 0.16493 0.00978 0.22207 0.0
C833 C 0.13015 0.01727 0.17995 0.0
C834 C 0.16322 0.01855 0.17433 0.0
N835 N 0.14601 0.0221 0.15447 0.0
C836 C 0.13401 0.04297 0.30748 0.0
C837 C 0.10426 0.03577 0.34212 0.0
C838 C 0.12721 0.05976 0.28736 0.0
N839 N 0.12225 0.031 0.33209 0.0
C840 C 0.09706 0.05261 0.3242 0.0
C841 C 0.10838 0.06442 0.29467 0.0
H842 H 0.14833 0.03895 0.30037 0.0
H843 H 0.09516 0.02609 0.36144 0.0
C844 C 0.11566 0.94516 0.25359 0.0
N845 N 0.12708 0.95971 0.24221 0.0
C846 C 0.10818 0.93417 0.21458 0.0
C847 C 0.12546 0.95247 0.15268 0.0
C848 C 0.13262 0.96316 0.19312 0.0
C849 C 0.1127 0.93804 0.16317 0.0
H850 H 0.1117 0.94263 0.29308 0.0
H851 H 0.14222 0.97438 0.18498 0.0
O852 O 0.13993 -0.00101 0.4106 0.0
O853 O 0.14327 0.95986 0.35786 0.0
O854 O 0.11012 0.98657 0.33036 0.0
O855 O 0.15038 0.99636 0.29608 0.0
H856 H 0.15446 0.98019 0.48871 0.0
H857 H 0.11862 0.02605 0.44719 0.0
H858 H 0.14886 0.98747 0.58063 0.0
H859 H 0.11356 0.03248 0.53991 0.0
H860 H 0.1891 0.94205 0.24679 0.0
H861 H 0.14745 0.92525 0.39072 0.0
H862 H 0.1671 0.96567 0.28072 0.0
H863 H 0.16986 0.90228 0.35465 0.0
H864 H 0.09057 0.96192 0.55571 0.0
H865 H 0.10034 0.91704 0.44768 0.0
H866 H 0.22214 0.00516 0.38553 0.0
H867 H 0.20386 0.95758 0.47498 0.0
H868 H 0.08529 0.96623 0.27951 0.0
H869 H 0.09401 -0.00025 0.41463 0.0
H870 H 0.05298 0.95997 0.30877 0.0
H871 H 0.06141 0.9932 0.44113 0.0
H872 H 0.11862 0.00461 0.24777 0.0
H873 H 0.17862 0.00699 0.23802 0.0
H874 H 0.11666 0.0203 0.16314 0.0
H875 H 0.17557 0.02256 0.15312 0.0
H876 H 0.13629 0.06857 0.26457 0.0
H877 H 0.08239 0.05568 0.33002 0.0
H878 H 0.09831 0.92331 0.22457 0.0
H879 H 0.12964 0.95564 0.11365 0.0
Li880 Li 0.5183 0.16334 0.83779 0.0
Li881 Li 0.53075 0.13436 0.86793 0.0
Li882 Li 0.52863 0.13961 0.77677 0.0
Li883 Li 0.49992 0.13415 0.8288 0.0
C884 C 0.55706 0.16305 0.85422 0.0
N885 N 0.58338 0.18278 0.90971 0.0
C886 C 0.55403 0.16703 0.90611 0.0
C887 C 0.57352 0.16904 0.83056 0.0
C888 C 0.56748 0.17703 0.93351 0.0
C889 C 0.58666 0.17901 0.85926 0.0
C890 C 0.50233 0.14488 0.94167 0.0
C891 C 0.48718 0.12686 0.008 0.0
N892 N 0.49126 0.14044 0.04275 0.0
C893 C 0.50624 0.15873 0.97804 0.0
C894 C 0.4926 0.12888 0.95673 0.0
C895 C 0.50058 0.1562 0.02894 0.0
C896 C 0.5006 0.19338 0.88368 0.0
N897 N 0.51596 0.18889 0.85561 0.0
C898 C 0.53034 0.21795 0.87646 0.0
C899 C 0.53028 0.20113 0.84939 0.0
C900 C 0.5154 0.2222 0.90945 0.0
C901 C 0.49999 0.21011 0.91106 0.0
H902 H 0.48945 0.1833 0.88801 0.0
H903 H 0.54222 0.19734 0.82626 0.0
C904 C 0.56432 0.1182 0.89691 0.0
N905 N 0.54754 0.12341 0.91684 0.0
C906 C 0.57793 0.11016 0.92821 0.0
C907 C 0.55694 0.11332 0.00041 0.0
C908 C 0.54367 0.12115 0.96762 0.0
C909 C 0.57431 0.10769 0.98073 0.0
H910 H 0.56709 0.1203 0.85645 0.0
H911 H 0.53036 0.12533 0.98296 0.0
C912 C 0.50547 0.16742 0.73765 0.0
N913 N 0.50715 0.19401 0.66081 0.0
C914 C 0.48968 0.17136 0.70803 0.0
C915 C 0.52215 0.17696 0.72807 0.0
C916 C 0.4908 0.18486 0.66938 0.0
C917 C 0.5227 0.19036 0.6891 0.0
C918 C 0.52925 0.10048 0.82786 0.0
C919 C 0.54285 0.09259 0.796 0.0
C920 C 0.5245 0.09155 0.87385 0.0
C921 C 0.55165 0.07605 0.81101 0.0
C922 C 0.53365 0.07506 0.88757 0.0
N923 N 0.54693 0.06772 0.85614 0.0
C924 C 0.55868 0.13199 0.71143 0.0
C925 C 0.52878 0.12852 0.67337 0.0
C926 C 0.56716 0.12372 0.66886 0.0
N927 N 0.53981 0.13375 0.7133 0.0
C928 C 0.53669 0.12029 0.62986 0.0
C929 C 0.55608 0.11725 0.62794 0.0
H930 H 0.56699 0.13584 0.74445 0.0
H931 H 0.51377 0.12988 0.67645 0.0
C932 C 0.46145 0.13314 0.80335 0.0
N933 N 0.47581 0.12341 0.82472 0.0
C934 C 0.4444 0.12429 0.79349 0.0
C935 C 0.45709 0.09597 0.83019 0.0
C936 C 0.47391 0.10521 0.83826 0.0
C937 C 0.4422 0.10541 0.80666 0.0
H938 H 0.46347 0.14755 0.79228 0.0
H939 H 0.48566 0.09765 0.85376 0.0
O940 O 0.54405 0.15336 0.82643 0.0
O941 O 0.50762 0.14719 0.89149 0.0
O942 O 0.50455 0.15417 0.77544 0.0
O943 O 0.52073 0.11687 0.81418 0.0
H944 H 0.54144 0.16244 0.92498 0.0
H945 H 0.57607 0.16611 0.79036 0.0
H946 H 0.56527 0.18023 0.97369 0.0
H947 H 0.59944 0.18377 0.84142 0.0
H948 H 0.47972 0.11448 0.02016 0.0
H949 H 0.51359 0.17133 0.96726 0.0
H950 H 0.48936 0.11807 0.92931 0.0
H951 H 0.50358 0.16677 0.05745 0.0
H952 H 0.54234 0.2271 0.87361 0.0
H953 H 0.48824 0.21287 0.93616 0.0
H954 H 0.5912 0.1061 0.91164 0.0
H955 H 0.55352 0.11141 0.04062 0.0
H956 H 0.47668 0.16405 0.71474 0.0
H957 H 0.53456 0.17406 0.75025 0.0
H958 H 0.47868 0.18806 0.64617 0.0
H959 H 0.53551 0.19785 0.6813 0.0
H960 H 0.54658 0.09912 0.76003 0.0
H961 H 0.51423 0.09754 0.89941 0.0
H962 H 0.56224 0.06984 0.78677 0.0
H963 H 0.53027 0.06815 0.92335 0.0
H964 H 0.5821 0.12142 0.66952 0.0
H965 H 0.52765 0.11578 0.59892 0.0
H966 H 0.43324 0.13194 0.77489 0.0
H967 H 0.45607 0.08128 0.83978 0.0
Li968 Li 0.33675 0.5206 0.33714 0.0
Li969 Li 0.36728 0.5332 0.34994 0.0
Li970 Li 0.35327 0.5302 0.26312 0.0
Li971 Li 0.36353 0.502 0.30736 0.0
C972 C 0.33124 0.55675 0.3397 0.0
N973 N 0.30174 0.57681 0.38019 0.0
C974 C 0.33225 0.56378 0.38974 0.0
C975 C 0.31536 0.56018 0.30997 0.0
C976 C 0.31715 0.57382 0.40959 0.0
C977 C 0.30055 0.57029 0.33121 0.0
C978 C 0.3693 0.50095 0.41243 0.0
C979 C 0.40064 0.49298 0.4383 0.0
N980 N 0.39364 0.48303 0.47843 0.0
C981 C 0.36241 0.49068 0.45394 0.0
C982 C 0.38857 0.50215 0.40453 0.0
C983 C 0.37494 0.48171 0.48688 0.0
C984 C 0.29718 0.51526 0.3528 0.0
N985 N 0.31406 0.51927 0.37393 0.0
C986 C 0.30042 0.52311 0.45687 0.0
C987 C 0.31598 0.52289 0.4249 0.0
C988 C 0.28275 0.51927 0.43629 0.0
C989 C 0.28118 0.51509 0.38368 0.0
H990 H 0.29612 0.51235 0.31213 0.0
H991 H 0.32965 0.52589 0.44054 0.0
C992 C 0.39107 0.56358 0.37556 0.0
N993 N 0.38139 0.54883 0.39487 0.0
C994 C 0.39969 0.57632 0.40853 0.0
C995 C 0.38786 0.55872 0.48076 0.0
C996 C 0.37958 0.54628 0.44642 0.0
C997 C 0.39798 0.57406 0.4619 0.0
H998 H 0.39156 0.56589 0.33468 0.0
H999 H 0.37117 0.53495 0.46102 0.0
C1000 C 0.33204 0.50397 0.22417 0.0
N1001 N 0.31823 0.49996 0.12563 0.0
C1002 C 0.33935 0.4903 0.19152 0.0
C1003 C 0.3175 0.51539 0.20699 0.0
C1004 C 0.33223 0.48855 0.14176 0.0
C1005 C 0.31076 0.51321 0.15696 0.0
C1006 C 0.39557 0.52989 0.26946 0.0
C1007 C 0.3968 0.5475 0.24653 0.0
C1008 C 0.41165 0.51894 0.27416 0.0
C1009 C 0.41405 0.55385 0.2286 0.0
C1010 C 0.42866 0.52579 0.25585 0.0
N1011 N 0.4295 0.54295 0.23359 0.0
C1012 C 0.35043 0.55931 0.18975 0.0
C1013 C 0.36444 0.53111 0.16133 0.0
C1014 C 0.35729 0.56876 0.14674 0.0
N1015 N 0.3547 0.54101 0.19692 0.0
C1016 C 0.37141 0.53994 0.11765 0.0
C1017 C 0.36858 0.55919 0.11121 0.0
H1018 H 0.34316 0.56695 0.2195 0.0
H1019 H 0.36827 0.51679 0.16917 0.0
C1020 C 0.37187 0.46352 0.32717 0.0
N1021 N 0.37454 0.47842 0.29566 0.0
C1022 C 0.38096 0.44663 0.31712 0.0
C1023 C 0.39483 0.46072 0.24175 0.0
C1024 C 0.3855 0.47724 0.25323 0.0
C1025 C 0.39279 0.44515 0.27412 0.0
H1026 H 0.36283 0.4648 0.36028 0.0
H1027 H 0.38713 0.48929 0.22855 0.0
O1028 O 0.34568 0.54646 0.32006 0.0
O1029 O 0.35714 0.50957 0.37956 0.0
O1030 O 0.33898 0.50607 0.27279 0.0
O1031 O 0.37869 0.52315 0.28595 0.0
H1032 H 0.34443 0.5613 0.41327 0.0
H1033 H 0.31445 0.55509 0.27097 0.0
H1034 H 0.31767 0.57918 0.44843 0.0
H1035 H 0.28813 0.57294 0.30874 0.0
H1036 H 0.41559 0.4938 0.43264 0.0
H1037 H 0.34751 0.48961 0.46051 0.0
H1038 H 0.39414 0.51014 0.3729 0.0
H1039 H 0.3698 0.47368 0.51913 0.0
H1040 H 0.30219 0.52619 0.49734 0.0
H1041 H 0.26771 0.51213 0.36655 0.0
H1042 H 0.4071 0.58814 0.39245 0.0
H1043 H 0.38628 0.55641 0.52166 0.0
H1044 H 0.35044 0.48119 0.20435 0.0
H1045 H 0.31153 0.52586 0.23194 0.0
H1046 H 0.33785 0.47811 0.11598 0.0
H1047 H 0.2996 0.52204 0.14306 0.0
H1048 H 0.38463 0.55633 0.2432 0.0
H1049 H 0.41104 0.50526 0.2917 0.0
H1050 H 0.41516 0.56746 0.21082 0.0
H1051 H 0.4412 0.51745 0.25926 0.0
H1052 H 0.35479 0.58361 0.14296 0.0
H1053 H 0.3803 0.53214 0.0917 0.0
H1054 H 0.37886 0.43492 0.34281 0.0
H1055 H 0.40403 0.46038 0.20873 0.0
Li1056 Li 0.96811 0.13215 0.20105 0.0
Li1057 Li 0.9974 0.12882 0.14921 0.0
Li1058 Li 0.97534 0.15622 0.13647 0.0
Li1059 Li 0.96654 0.12551 0.11267 0.0
C1060 C 0.99766 0.15205 0.24618 0.0
N1061 N 0.01302 0.15756 0.34247 0.0
C1062 C 0.00666 0.13738 0.27154 0.0
C1063 C 0.99672 0.16961 0.26955 0.0
C1064 C 0.01427 0.14041 0.32024 0.0
C1065 C 0.00449 0.17208 0.31832 0.0
C1066 C 0.96923 0.09333 0.1564 0.0
C1067 C 0.96731 0.06371 0.11239 0.0
N1068 N 0.95019 0.06076 0.13351 0.0
C1069 C 0.95155 0.09002 0.17739 0.0
C1070 C 0.97713 0.08008 0.12342 0.0
C1071 C 0.94219 0.07347 0.16548 0.0
C1072 C 0.94166 0.13084 0.286 0.0
N1073 N 0.95846 0.12515 0.2672 0.0
C1074 C 0.96112 0.10227 0.3338 0.0
C1075 C 0.96828 0.11131 0.29066 0.0
C1076 C 0.94342 0.10722 0.35256 0.0
C1077 C 0.93388 0.12206 0.32888 0.0
H1078 H 0.93366 0.14137 0.26641 0.0
H1079 H 0.98122 0.10646 0.27406 0.0
C1080 C 0.03519 0.13455 0.17426 0.0
N1081 N 0.02303 0.12209 0.15331 0.0
C1082 C 0.05287 0.12871 0.19019 0.0
C1083 C 0.04597 0.09797 0.15673 0.0
C1084 C 0.02829 0.1043 0.14255 0.0
C1085 C 0.05815 0.11003 0.18294 0.0
H1086 H 0.03068 0.14869 0.18199 0.0
H1087 H 0.01843 0.09472 0.12585 0.0
C1088 C 0.93954 0.15662 0.17443 0.0
N1089 N 0.91684 0.1825 0.22276 0.0
C1090 C 0.92024 0.15648 0.16607 0.0
C1091 C 0.94726 0.17006 0.20708 0.0
C1092 C 0.90901 0.16963 0.19096 0.0
C1093 C 0.93557 0.18298 0.23122 0.0
C1094 C 0.98709 0.13969 0.03329 0.0
C1095 C 0.9722 0.14827 0.00787 0.0
C1096 C 0.00101 0.13069 0.00496 0.0
C1097 C 0.97141 0.14757 0.95426 0.0
C1098 C -0.00028 0.13032 0.95138 0.0
N1099 N 0.98506 0.13868 0.92737 0.0
C1100 C 0.99181 0.19077 0.1138 0.0
C1101 C 0.95963 0.18863 0.09293 0.0
C1102 C 0.99303 0.20815 0.08967 0.0
N1103 N 0.97534 0.18136 0.11438 0.0
C1104 C 0.96016 0.20603 0.06899 0.0
C1105 C 0.9771 0.21582 0.06628 0.0
H1106 H 0.00414 0.18441 0.13028 0.0
H1107 H 0.94688 0.18058 0.09231 0.0
C1108 C 0.93321 0.11259 0.07205 0.0
N1109 N 0.95191 0.11212 0.06351 0.0
C1110 C 0.92093 0.10392 0.03814 0.0
C1111 C 0.94743 0.09381 0.98776 0.0
C1112 C 0.95923 0.10264 0.02293 0.0
C1113 C 0.92797 0.09458 0.99493 0.0
H1114 H 0.92781 0.11975 0.10536 0.0
H1115 H 0.97418 0.10193 0.01783 0.0
O1116 O 0.99027 0.14941 0.19816 0.0
O1117 O 0.9784 0.10971 0.16666 0.0
O1118 O 0.95072 0.144 0.14946 0.0
O1119 O 0.98809 0.14008 0.0857 0.0
H1120 H 0.00788 0.1238 0.25363 0.0
H1121 H 0.99021 0.18127 0.25009 0.0
H1122 H 0.02124 0.12916 0.34027 0.0
H1123 H 0.00381 0.18558 0.33688 0.0
H1124 H 0.97324 0.05341 0.08673 0.0
H1125 H 0.94491 0.10025 0.20184 0.0
H1126 H 0.99049 0.08254 0.10549 0.0
H1127 H 0.92849 0.07079 0.18139 0.0
H1128 H 0.96908 0.09104 0.35105 0.0
H1129 H 0.92005 0.12617 0.34137 0.0
H1130 H 0.06193 0.13837 0.21028 0.0
H1131 H 0.04949 0.08341 0.15097 0.0
H1132 H 0.91395 0.14638 0.14052 0.0
H1133 H 0.96208 0.17058 0.21361 0.0
H1134 H 0.89407 0.16963 0.18487 0.0
H1135 H 0.94141 0.19342 0.25662 0.0
H1136 H 0.96125 0.15515 0.02934 0.0
H1137 H 0.01263 0.12399 0.02421 0.0
H1138 H 0.9599 0.15405 0.93404 0.0
H1139 H 0.01036 0.12336 0.92891 0.0
H1140 H 0.00633 0.21534 0.08845 0.0
H1141 H 0.94766 0.21133 0.05064 0.0
H1142 H 0.90605 0.10492 0.04509 0.0
H1143 H 0.95345 0.08642 0.95544 0.0
Li1144 Li 0.3674 0.99352 0.67737 0.0
Li1145 Li 0.35917 0.96206 0.70986 0.0
Li1146 Li 0.37216 0.96582 0.62681 0.0
Li1147 Li 0.34082 0.97549 0.63986 0.0
C1148 C 0.40249 0.97138 0.67955 0.0
N1149 N 0.43949 0.96903 0.65003 0.0
C1150 C 0.41326 0.95596 0.69387 0.0
C1151 C 0.41058 0.98565 0.6504 0.0
C1152 C 0.43193 0.95502 0.6785 0.0
C1153 C 0.42929 0.9842 0.63585 0.0
C1154 C 0.34181 0.99381 0.75859 0.0
C1155 C 0.32437 0.01248 0.81901 0.0
N1156 N 0.33905 0.01187 0.85214 0.0
C1157 C 0.35672 0.99338 0.79322 0.0
C1158 C 0.3255 0.00346 0.77149 0.0
C1159 C 0.35505 0.00259 0.84033 0.0
C1160 C 0.37 0.03367 0.68105 0.0
N1161 N 0.37661 0.01709 0.69895 0.0
C1162 C 0.39777 0.03266 0.75516 0.0
C1163 C 0.39025 0.01634 0.73514 0.0
C1164 C 0.39134 0.05002 0.73762 0.0
C1165 C 0.37734 0.05049 0.69975 0.0
H1166 H 0.35909 0.03381 0.65229 0.0
H1167 H 0.39532 0.003 0.74858 0.0
C1168 C 0.37259 0.93134 0.75764 0.0
N1169 N 0.36066 0.94566 0.76698 0.0
C1170 C 0.37902 0.92024 0.79779 0.0
C1171 C 0.35934 0.93772 0.85603 0.0
C1172 C 0.3532 0.94847 0.81443 0.0
C1173 C 0.37298 0.92388 0.84814 0.0
H1174 H 0.37797 0.92927 0.71922 0.0
H1175 H 0.34321 0.95954 0.82064 0.0
C1176 C 0.36632 0.99382 0.55604 0.0
N1177 N 0.37778 0.00179 0.45707 0.0
C1178 C 0.36003 0.98294 0.51496 0.0
C1179 C 0.3783 0.00885 0.54678 0.0
C1180 C 0.36603 0.98716 0.4652 0.0
C1181 C 0.38396 0.01263 0.49646 0.0
C1182 C 0.33646 0.93797 0.65708 0.0
C1183 C 0.33483 0.921 0.63095 0.0
C1184 C 0.3232 0.94277 0.6943 0.0
C1185 C 0.31997 0.90908 0.64249 0.0
C1186 C 0.30855 0.93046 0.70475 0.0
N1187 N 0.30725 0.91402 0.67885 0.0
C1188 C 0.3873 0.93378 0.58647 0.0
C1189 C 0.39925 0.96055 0.54423 0.0
C1190 C 0.39715 0.92204 0.55352 0.0
N1191 N 0.38811 0.95262 0.58052 0.0
C1192 C 0.4092 0.9493 0.50995 0.0
C1193 C 0.40793 0.92977 0.51393 0.0
H1194 H 0.37871 0.92784 0.61642 0.0
H1195 H 0.40026 0.97554 0.54127 0.0
C1196 C 0.3045 0.9902 0.6187 0.0
N1197 N 0.31742 0.97701 0.60663 0.0
C1198 C 0.28782 0.99128 0.59089 0.0
C1199 C 0.29825 0.96529 0.53894 0.0
C1200 C 0.31458 0.96464 0.56785 0.0
C1201 C 0.28456 0.97873 0.55022 0.0
H1202 H 0.30722 -6e-05 0.64955 0.0
H1203 H 0.32518 0.9544 0.55888 0.0
O1204 O 0.38403 0.97241 0.69309 0.0
O1205 O 0.34328 0.98535 0.71161 0.0
O1206 O 0.36057 0.99002 0.60502 0.0
O1207 O 0.35093 0.94977 0.64567 0.0
H1208 H 0.40734 0.94482 0.7166 0.0
H1209 H 0.40243 0.99759 0.63853 0.0
H1210 H 0.44042 0.94314 0.68921 0.0
H1211 H 0.43568 0.9951 0.61306 0.0
H1212 H 0.31183 0.02 0.8295 0.0
H1213 H 0.36937 0.98585 0.78405 0.0
H1214 H 0.31386 0.004 0.74502 0.0
H1215 H 0.36648 0.00233 0.86751 0.0
H1216 H 0.40886 0.03165 0.78336 0.0
H1217 H 0.37211 0.06364 0.68511 0.0
H1218 H 0.38955 0.90978 0.78983 0.0
H1219 H 0.35403 0.94068 0.89415 0.0
H1220 H 0.35086 0.9712 0.52147 0.0
H1221 H 0.38319 0.0175 0.57813 0.0
H1222 H 0.36139 0.97877 0.43308 0.0
H1223 H 0.39328 0.02418 0.48873 0.0
H1224 H 0.34491 0.91711 0.60186 0.0
H1225 H 0.32413 0.9558 0.71499 0.0
H1226 H 0.31854 0.89591 0.62251 0.0
H1227 H 0.29821 0.934 0.73346 0.0
H1228 H 0.39575 0.90706 0.55778 0.0
H1229 H 0.41764 0.95578 0.48037 0.0
H1230 H 0.27756 0.00173 0.60133 0.0
H1231 H 0.29655 0.95554 0.50747 0.0
Li1232 Li 0.50517 0.36261 0.18949 0.0
Li1233 Li 0.53599 0.35704 0.21952 0.0
Li1234 Li 0.53243 0.36892 0.13559 0.0
Li1235 Li 0.52425 0.33629 0.15534 0.0
C1236 C 0.51839 0.39867 0.18919 0.0
N1237 N 0.50461 0.43396 0.16888 0.0
C1238 C 0.5235 0.41375 0.2202 0.0
C1239 C 0.50627 0.40155 0.14777 0.0
C1240 C 0.51638 0.43149 0.20932 0.0
C1241 C 0.49946 0.41948 0.13817 0.0
C1242 C 0.5136 0.33303 0.27429 0.0
C1243 C 0.51661 0.30746 0.33402 0.0
N1244 N 0.51235 0.31922 0.37337 0.0
C1245 C 0.50911 0.34483 0.31524 0.0
C1246 C 0.51725 0.31416 0.28363 0.0
C1247 C 0.5086 0.33759 0.36509 0.0
C1248 C 0.46558 0.36749 0.18128 0.0
N1249 N 0.48123 0.37138 0.2088 0.0
C1250 C 0.4643 0.39195 0.26379 0.0
C1251 C 0.48081 0.38308 0.24983 0.0
C1252 C 0.44797 0.38878 0.23522 0.0
C1253 C 0.44865 0.37611 0.19393 0.0
H1254 H 0.46637 0.35816 0.14869 0.0
H1255 H 0.49354 0.38619 0.27044 0.0
C1256 C 0.56127 0.37806 0.26791 0.0
N1257 N 0.55239 0.36156 0.27579 0.0
C1258 C 0.57272 0.38562 0.30554 0.0
C1259 C 0.56656 0.3586 0.3586 0.0
C1260 C 0.55525 0.35142 0.31933 0.0
C1261 C 0.5752 0.37609 0.35209 0.0
H1262 H 0.55905 0.38565 0.23254 0.0
H1263 H 0.54856 0.33803 0.32418 0.0
C1264 C 0.50855 0.35025 0.06547 0.0
N1265 N 0.5074 0.33889 0.964 0.0
C1266 C 0.52509 0.34619 0.03917 0.0
C1267 C 0.49143 0.34852 0.04014 0.0
C1268 C 0.52422 0.34048 0.9879 0.0
C1269 C 0.49114 0.34277 0.98883 0.0
C1270 C 0.56417 0.33974 0.17935 0.0
C1271 C 0.58192 0.34778 0.17595 0.0
C1272 C 0.5618 0.3232 0.20706 0.0
C1273 C 0.59694 0.33924 0.20093 0.0
C1274 C 0.57715 0.31508 0.23149 0.0
N1275 N 0.59426 0.32322 0.22801 0.0
C1276 C 0.56131 0.39055 0.10099 0.0
C1277 C 0.53582 0.39098 0.04301 0.0
C1278 C 0.57227 0.40073 0.06686 0.0
N1279 N 0.54376 0.3853 0.08779 0.0
C1280 C 0.5462 0.40144 0.00784 0.0
C1281 C 0.56493 0.40596 0.01892 0.0
H1282 H 0.56694 0.38639 0.13769 0.0
H1283 H 0.52161 0.38705 0.03406 0.0
C1284 C 0.50698 0.30294 0.12125 0.0
N1285 N 0.5233 0.31256 0.1236 0.0
C1286 C 0.50541 0.28737 0.0891 0.0
C1287 C 0.53756 0.29183 0.06349 0.0
C1288 C 0.53853 0.30717 0.09623 0.0
C1289 C 0.52075 0.28187 0.05886 0.0
H1290 H 0.49498 0.30783 0.14266 0.0
H1291 H 0.55114 0.31544 0.09751 0.0
O1292 O 0.52519 0.38122 0.19993 0.0
O1293 O 0.51392 0.33975 0.22511 0.0
O1294 O 0.50898 0.35538 0.11613 0.0
O1295 O 0.54908 0.34812 0.15664 0.0
H1296 H 0.53282 0.41176 0.2525 0.0
H1297 H 0.50206 0.3901 0.12335 0.0
H1298 H 0.52021 0.44328 0.23307 0.0
H1299 H 0.49005 0.42189 0.10632 0.0
H1300 H 0.51945 0.29289 0.34184 0.0
H1301 H 0.50634 0.35946 0.30876 0.0
H1302 H 0.52043 0.30476 0.25224 0.0
H1303 H 0.50528 0.3466 0.3972 0.0
H1304 H 0.4646 0.40192 0.29506 0.0
H1305 H 0.43636 0.37322 0.17102 0.0
H1306 H 0.57891 0.39921 0.29897 0.0
H1307 H 0.56835 0.35072 0.39377 0.0
H1308 H 0.53847 0.34737 0.05812 0.0
H1309 H 0.47849 0.35151 0.05998 0.0
H1310 H 0.53691 0.33727 0.96716 0.0
H1311 H 0.47799 0.34135 0.96878 0.0
H1312 H 0.58418 0.36042 0.15426 0.0
H1313 H 0.5482 0.31676 0.20991 0.0
H1314 H 0.61073 0.34534 0.19877 0.0
H1315 H 0.57545 0.30233 0.2533 0.0
H1316 H 0.58659 0.40374 0.07731 0.0
H1317 H 0.53974 0.40561 0.97203 0.0
H1318 H 0.49224 0.27999 0.08719 0.0
H1319 H 0.54963 0.28839 0.04027 0.0
Li1320 Li 0.14232 0.53673 0.72911 0.0
Li1321 Li 0.13356 0.50789 0.6855 0.0
Li1322 Li 0.162 0.52679 0.65753 0.0
Li1323 Li 0.13143 0.53815 0.64275 0.0
C1324 C 0.16729 0.50685 0.76392 0.0
N1325 N 0.18801 0.49308 0.84523 0.0
C1326 C 0.15895 0.49528 0.80059 0.0
C1327 C 0.18633 0.51099 0.76796 0.0
C1328 C 0.16961 0.48858 0.84161 0.0
C1329 C 0.19652 0.50402 0.80951 0.0
C1330 C 0.10392 0.54128 0.71955 0.0
C1331 C 0.07468 0.54716 0.76269 0.0
N1332 N 0.07703 0.5658 0.75507 0.0
C1333 C 0.10602 0.56051 0.71212 0.0
C1334 C 0.08811 0.53454 0.74496 0.0
C1335 C 0.09228 0.57267 0.73036 0.0
C1336 C 0.13758 0.56672 0.79848 0.0
N1337 N 0.13881 0.54781 0.79483 0.0
C1338 C 0.12303 0.54406 0.87506 0.0
C1339 C 0.13222 0.53648 0.83262 0.0
C1340 C 0.12021 0.56339 0.87749 0.0
C1341 C 0.12817 0.57486 0.83973 0.0
H1342 H 0.14211 0.57541 0.76693 0.0
H1343 H 0.13241 0.52154 0.82745 0.0
C1344 C 0.12506 0.46905 0.66868 0.0
N1345 N 0.12272 0.48442 0.69866 0.0
C1346 C 0.11583 0.45241 0.68106 0.0
C1347 C 0.10234 0.46786 0.75494 0.0
C1348 C 0.11181 0.48406 0.74125 0.0
C1349 C 0.10416 0.45174 0.72458 0.0
H1350 H 0.13389 0.46979 0.635 0.0
H1351 H 0.11037 0.49651 0.76444 0.0
C1352 C 0.16656 0.5639 0.68819 0.0
N1353 N 0.19518 0.58711 0.71987 0.0
C1354 C 0.1701 0.5806 0.66208 0.0
C1355 C 0.17742 0.55918 0.73082 0.0
C1356 C 0.18468 0.59209 0.67854 0.0
C1357 C 0.19185 0.57104 0.74617 0.0
C1358 C 0.13425 0.51429 0.56809 0.0
C1359 C 0.14342 0.52236 0.52622 0.0
C1360 C 0.11648 0.50658 0.56162 0.0
C1361 C 0.13453 0.52275 0.47844 0.0
C1362 C 0.10808 0.50723 0.51321 0.0
N1363 N 0.11719 0.51526 0.47299 0.0
C1364 C 0.19598 0.50934 0.628 0.0
C1365 C 0.19085 0.53997 0.59627 0.0
C1366 C 0.21235 0.50781 0.59903 0.0
N1367 N 0.18567 0.52527 0.62601 0.0
C1368 C 0.20718 0.53915 0.56737 0.0
C1369 C 0.21804 0.52286 0.56816 0.0
H1370 H 0.19122 0.49769 0.651 0.0
H1371 H 0.18194 0.55209 0.5935 0.0
C1372 C 0.09916 0.55104 0.58771 0.0
N1373 N 0.11794 0.55252 0.5939 0.0
C1374 C 0.08994 0.56248 0.55238 0.0
C1375 C 0.11963 0.57637 0.53003 0.0
C1376 C 0.12824 0.56474 0.56582 0.0
C1377 C 0.10022 0.5754 0.52312 0.0
H1378 H 0.09136 0.54105 0.61029 0.0
H1379 H 0.14319 0.5654 0.57127 0.0
O1380 O 0.15718 0.51322 0.7228 0.0
O1381 O 0.11734 0.52909 0.70273 0.0
O1382 O 0.15237 0.55247 0.67216 0.0
O1383 O 0.14247 0.51424 0.61546 0.0
H1384 H 0.14439 0.49151 0.79754 0.0
H1385 H 0.19321 0.51946 0.73921 0.0
H1386 H 0.16326 0.47975 0.87046 0.0
H1387 H 0.21122 0.50724 0.81324 0.0
H1388 H 0.0624 0.54213 0.78252 0.0
H1389 H 0.11821 0.56604 0.69288 0.0
H1390 H 0.08619 0.51972 0.75097 0.0
H1391 H 0.09378 0.58757 0.72503 0.0
H1392 H 0.1167 0.53482 0.90306 0.0
H1393 H 0.12599 0.58983 0.84028 0.0
H1394 H 0.11772 0.44029 0.65674 0.0
H1395 H 0.09324 0.4682 0.78815 0.0
H1396 H 0.16173 0.58461 0.62929 0.0
H1397 H 0.17449 0.54671 0.75247 0.0
H1398 H 0.18764 0.60499 0.65848 0.0
H1399 H 0.20034 0.56752 0.77917 0.0
H1400 H 0.15716 0.52844 0.53075 0.0
H1401 H 0.10919 0.50037 0.59381 0.0
H1402 H 0.14139 0.52906 0.44573 0.0
H1403 H 0.09428 0.50143 0.50765 0.0
H1404 H 0.2204 0.49501 0.60047 0.0
H1405 H 0.21093 0.55089 0.54321 0.0
H1406 H 0.07498 0.56108 0.5476 0.0
H1407 H 0.12807 0.58619 0.50851 0.0
C1408 C 0.00519 0.73709 0.00634 0.0
C1409 C 0.02153 0.72979 0.02803 0.0
H1410 H 0.99302 0.75871 0.9607 0.0
C1411 C 0.03868 0.73853 0.01867 0.0
H1412 H 0.99185 0.73038 0.01309 0.0
C1413 C 0.0395 0.75444 0.98775 0.0
C1414 C 0.02313 0.762 0.96608 0.0
H1415 H 0.05145 0.73286 0.03467 0.0
H1416 H 0.05301 0.76068 0.98039 0.0
C1417 C 0.00595 0.75313 0.9759 0.0
C1418 C 0.73699 0.00469 0.47301 0.0
C1419 C 0.72942 0.02196 0.4579 0.0
H1420 H 0.7586 0.99045 0.51426 0.0
C1421 C 0.73817 0.03847 0.47439 0.0
H1422 H 0.73045 0.99171 0.46151 0.0
C1423 C 0.75407 0.03775 0.50529 0.0
C1424 C 0.7617 0.0205 0.5203 0.0
H1425 H 0.73281 0.052 0.46309 0.0
H1426 H 0.76034 0.05076 0.51771 0.0
C1427 C 0.75296 0.00396 0.50387 0.0
C1428 C 0.49002 0.75219 0.01496 0.0
C1429 C 0.47335 0.75948 0.03535 0.0
H1430 H 0.50281 0.7313 0.96786 0.0
C1431 C 0.45637 0.7508 0.02248 0.0
H1432 H 0.50334 0.75866 0.02345 0.0
C1433 C 0.45601 0.73548 0.98939 0.0
C1434 C 0.47265 0.72821 0.96882 0.0
H1435 H 0.44326 0.75584 0.03794 0.0
H1436 H 0.4426 0.72949 0.97952 0.0
C1437 C 0.48968 0.7367 0.98226 0.0
C1438 C 0.74928 0.49305 0.54036 0.0
C1439 C 0.73936 0.47727 0.55717 0.0
H1440 H 0.77133 0.50361 0.49309 0.0
C1441 C 0.7444 0.4596 0.53821 0.0
H1442 H 0.74578 0.50683 0.55462 0.0
C1443 C 0.75885 0.45777 0.50257 0.0
C1444 C 0.76862 0.47356 0.48518 0.0
H1445 H 0.73678 0.44722 0.54964 0.0
H1446 H 0.76208 0.444 0.48779 0.0
C1447 C 0.7638 0.49121 0.50485 0.0
C1448 C 0.99306 0.25204 0.96981 0.0
C1449 C 0.97921 0.26579 0.97511 0.0
H1450 H 0.00334 0.22549 0.99509 0.0
C1451 C 0.96498 0.26326 0.01165 0.0
H1452 H 0.00425 0.25373 0.94218 0.0
C1453 C 0.96446 0.24717 0.04185 0.0
C1454 C 0.97827 0.23338 0.03645 0.0
H1455 H 0.95405 0.27359 0.01624 0.0
H1456 H 0.95325 0.24548 0.0694 0.0
C1457 C 0.99266 0.23602 0.00044 0.0
C1458 C 0.25845 0.96295 0.50291 0.0
C1459 C 0.26706 0.97952 0.51958 0.0
H1460 H 0.23591 0.95051 0.46155 0.0
C1461 C 0.25894 0.99673 0.50624 0.0
H1462 H 0.26418 0.94944 0.5129 0.0
C1463 C 0.24246 0.99733 0.47743 0.0
C1464 C 0.23378 0.98073 0.46123 0.0
H1465 H 0.26534 0.00976 0.51783 0.0
H1466 H 0.23632 0.0108 0.46885 0.0
C1467 C 0.24209 0.96356 0.47389 0.0
C1468 C 0.50155 0.24985 0.955 0.0
C1469 C 0.51678 0.23792 0.9462 0.0
H1470 H 0.49094 0.2733 0.99681 0.0
C1471 C 0.53314 0.24029 0.97523 0.0
H1472 H 0.48878 0.24831 0.93311 0.0
C1473 C 0.53428 0.25431 0.01232 0.0
C1474 C 0.51914 0.26641 0.02097 0.0
H1475 H 0.54494 0.231 0.97015 0.0
H1476 H 0.54698 0.2555 0.03464 0.0
C1477 C 0.50275 0.26403 0.99182 0.0
C1478 C 0.25307 0.50541 0.47019 0.0
C1479 C 0.26611 0.52005 0.46982 0.0
H1480 H 0.22767 0.49471 0.50249 0.0
C1481 C 0.26342 0.5354 0.50258 0.0
H1482 H 0.25493 0.49337 0.4455 0.0
C1483 C 0.24789 0.53619 0.53487 0.0
C1484 C 0.23488 0.52154 0.53547 0.0
H1485 H 0.27323 0.54692 0.50277 0.0
H1486 H 0.24609 0.54824 0.55955 0.0
C1487 C 0.23763 0.50608 0.50308 0.0
C1488 C 0.07668 0.58643 0.92822 0.0
C1489 C 0.07883 0.58459 0.98174 0.0
H1490 H 0.08837 0.5815 0.85375 0.0
C1491 C 0.09499 0.57571 0.00076 0.0
H1492 H 0.06429 0.59274 0.9119 0.0
C1493 C 0.10858 0.56882 0.96706 0.0
C1494 C 0.10647 0.57112 0.9139 0.0
H1495 H 0.09734 0.57431 0.04167 0.0
H1496 H 0.12082 0.56192 0.98245 0.0
C1497 C 0.09044 0.57995 0.89478 0.0
C1498 C 0.92273 0.10446 0.4303 0.0
C1499 C 0.93426 0.09595 0.39338 0.0
H1500 H 0.90397 0.10056 0.49348 0.0
C1501 C 0.93612 0.07638 0.39379 0.0
H1502 H 0.9212 0.1195 0.4316 0.0
C1503 C 0.92637 0.06557 0.42946 0.0
C1504 C 0.91441 0.07405 0.46524 0.0
H1505 H 0.94459 0.0693 0.36534 0.0
H1506 H 0.92767 0.05051 0.42782 0.0
C1507 C 0.91287 0.09362 0.46575 0.0
C1508 C 0.39912 0.88783 0.92655 0.0
C1509 C 0.40563 0.89863 0.96799 0.0
H1510 H 0.38327 0.8872 0.85688 0.0
C1511 C 0.39976 0.9173 0.97217 0.0
H1512 H 0.40344 0.87344 0.922 0.0
C1513 C 0.3883 0.92522 0.9346 0.0
C1514 C 0.38247 0.91464 0.892 0.0
H1515 H 0.40428 0.92589 0.00409 0.0
H1516 H 0.38472 0.93987 0.93775 0.0
C1517 C 0.38766 0.89575 0.88903 0.0
C1518 C 0.5782 0.38584 0.4442 0.0
C1519 C 0.58562 0.38532 0.39425 0.0
H1520 H 0.58006 0.39761 0.51964 0.0
C1521 C 0.60189 0.39557 0.38345 0.0
H1522 H 0.56561 0.37819 0.45359 0.0
C1523 C 0.60995 0.40695 0.42085 0.0
C1524 C 0.60199 0.40826 0.47009 0.0
H1525 H 0.60805 0.39527 0.34542 0.0
H1526 H 0.62197 0.4153 0.41043 0.0
C1527 C 0.5863 0.39721 0.48175 0.0
C1528 C 0.09945 0.90857 0.12588 0.0
C1529 C 0.10322 0.92775 0.12107 0.0
H1530 H 0.08586 0.88461 0.09441 0.0
C1531 C 0.09671 0.93728 0.07737 0.0
H1532 H 0.10443 0.90076 0.15879 0.0
C1533 C 0.08626 0.92795 0.04001 0.0
C1534 C 0.08205 0.90888 0.04555 0.0
H1535 H 0.0992 0.9521 0.07273 0.0
H1536 H 0.08142 0.93571 0.00686 0.0
C1537 C 0.08895 0.89926 0.08867 0.0
C1538 C 0.58241 0.1102 0.56696 0.0
C1539 C 0.56454 0.10595 0.58601 0.0
H1540 H 0.60486 0.10211 0.51734 0.0
C1541 C 0.55529 0.09001 0.56716 0.0
H1542 H 0.58981 0.12251 0.58002 0.0
C1543 C 0.56388 0.0784 0.53107 0.0
C1544 C 0.58195 0.08237 0.51331 0.0
H1545 H 0.54166 0.08609 0.58164 0.0
H1546 H 0.5566 0.06597 0.51833 0.0
C1547 C 0.59104 0.09852 0.53112 0.0
C1548 C 0.38199 0.56242 0.02243 0.0
C1549 C 0.37963 0.56952 0.07235 0.0
H1550 H 0.39581 0.56523 0.9499 0.0
C1551 C 0.38955 0.58559 0.08691 0.0
H1552 H 0.37447 0.55007 0.01019 0.0
C1553 C 0.40195 0.59409 0.05283 0.0
C1554 C 0.40467 0.58679 0.00321 0.0
H1555 H 0.38837 0.59113 0.12552 0.0
H1556 H 0.40989 0.60602 0.0661 0.0
C1557 C 0.39432 0.57102 0.98813 0.0
C1558 C 0.90933 0.38795 0.59552 0.0
C1559 C 0.92556 0.37818 0.58151 0.0
H1560 H 0.88864 0.4079 0.57369 0.0
C1561 C 0.93266 0.38032 0.53151 0.0
H1562 H 0.90378 0.38694 0.63414 0.0
C1563 C 0.92394 0.39235 0.49664 0.0
C1564 C 0.90802 0.40258 0.5112 0.0
H1565 H 0.94512 0.3729 0.51966 0.0
H1566 H 0.92975 0.39372 0.4584 0.0
C1567 C 0.90069 0.40003 0.56084 0.0
C1568 C 0.90234 0.42527 -0.00101 0.0
C1569 C 0.90915 0.40714 0.00754 0.0
H1570 H 0.88601 0.44799 0.02821 0.0
C1571 C 0.90327 0.39736 0.05149 0.0
H1572 H 0.90665 0.43314 0.96547 0.0
C1573 C 0.89142 0.40581 0.0872 0.0
C1574 C 0.88529 0.42425 0.07984 0.0
H1575 H 0.90807 0.38325 0.05866 0.0
H1576 H 0.88775 0.39819 0.12171 0.0
C1577 C 0.89059 0.43378 0.03492 0.0
C1578 C 0.08393 0.91215 0.63131 0.0
C1579 C 0.07273 0.89723 0.61437 0.0
H1580 H 0.09962 0.9364 0.61084 0.0
C1581 C 0.06841 0.89586 0.56184 0.0
H1582 H 0.08718 0.91387 0.67168 0.0
C1583 C 0.07523 0.90906 0.52702 0.0
C1584 C 0.08653 0.92391 0.54398 0.0
H1585 H 0.05982 0.88454 0.5476 0.0
H1586 H 0.07153 0.9077 0.48684 0.0
C1587 C 0.09078 0.92529 0.59654 0.0
C1588 C 0.60374 0.09709 0.09791 0.0
C1589 C 0.61234 0.08022 0.0837 0.0
H1590 H 0.58501 0.11904 0.07632 0.0
C1591 C 0.60949 0.07323 0.03384 0.0
H1592 H 0.60547 0.10272 0.13625 0.0
C1593 C 0.59766 0.08253 -0.00037 0.0
C1594 C 0.58835 0.0989 0.01483 0.0
H1595 H 0.61601 0.0603 0.0218 0.0
H1596 H 0.59519 0.07648 0.96209 0.0
C1597 C 0.59183 0.10631 0.06387 0.0
C1598 C 0.39673 0.59374 0.5415 0.0
C1599 C 0.40657 0.58762 0.49789 0.0
H1600 H 0.39768 0.60907 0.61207 0.0
C1601 C 0.42491 0.59396 0.49002 0.0
H1602 H 0.38246 0.58933 0.54813 0.0
C1603 C 0.43356 0.60541 0.5264 0.0
C1604 C 0.424 0.61082 0.57119 0.0
H1605 H 0.43284 0.58946 0.4568 0.0
H1606 H 0.44793 0.60957 0.52026 0.0
C1607 C 0.40534 0.60527 0.57773 0.0
C1608 C 0.88646 0.06922 0.93698 0.0
C1609 C 0.88973 0.07153 0.88414 0.0
H1610 H 0.89612 0.07448 0.01351 0.0
C1611 C 0.90584 0.08114 0.86812 0.0
H1612 H 0.87419 0.06186 0.95047 0.0
C1613 C 0.91833 0.08839 0.90407 0.0
C1614 C 0.91502 0.08621 0.9569 0.0
H1615 H 0.90897 0.08283 0.82766 0.0
H1616 H 0.93046 0.09595 0.89043 0.0
C1617 C 0.89896 0.07653 0.97302 0.0
C1618 C 0.41452 0.92144 0.4226 0.0
C1619 C 0.41668 0.91747 0.47507 0.0
H1620 H 0.41936 0.91253 0.34535 0.0
C1621 C 0.42619 0.90113 0.4898 0.0
H1622 H 0.40709 0.93382 0.41014 0.0
C1623 C 0.4332 0.88888 0.45262 0.0
C1624 C 0.43056 0.89265 0.40017 0.0
H1625 H 0.42812 0.8978 0.53006 0.0
H1626 H 0.44035 0.87631 0.46483 0.0
C1627 C 0.42132 0.90913 0.38556 0.0
C1628 C 0.59166 0.42704 0.99421 0.0
C1629 C 0.57716 0.41485 0.9797 0.0
H1630 H 0.61553 0.4428 0.97045 0.0
C1631 C 0.57519 0.41022 0.92751 0.0
H1632 H 0.59343 0.43122 0.0339 0.0
C1633 C 0.58756 0.41727 0.89101 0.0
C1634 C 0.60249 0.42886 0.90573 0.0
H1635 H 0.56438 0.40072 0.91475 0.0
H1636 H 0.58538 0.41356 0.85112 0.0
C1637 C 0.60425 0.43387 0.95771 0.0
C1638 C 0.09886 0.59074 0.43662 0.0
C1639 C 0.09082 0.58767 0.48516 0.0
H1640 H 0.09596 0.60318 0.36239 0.0
C1641 C 0.07368 0.59623 0.49688 0.0
H1642 H 0.11194 0.58415 0.4262 0.0
C1643 C 0.06456 0.60727 0.46038 0.0
C1644 C 0.07237 0.60993 0.41133 0.0
H1645 H 0.06731 0.5944 0.53429 0.0
H1646 H 0.0513 0.61356 0.47039 0.0
C1647 C 0.08973 0.60173 0.40012 0.0
C1648 C 0.89992 0.57402 0.23894 0.0
C1649 C 0.90297 0.56314 0.28306 0.0
H1650 H 0.91012 0.59577 0.19007 0.0
C1651 C 0.91855 0.56689 0.31405 0.0
H1652 H 0.8879 0.57147 0.21465 0.0
C1653 C 0.93144 0.58051 0.2996 0.0
C1654 C 0.92892 0.59086 0.25411 0.0
H1655 H 0.92137 0.55852 0.34787 0.0
H1656 H 0.94389 0.58215 0.32277 0.0
C1657 C 0.9127 0.58783 0.22477 0.0
C1658 C 0.90799 0.91489 0.72028 0.0
C1659 C 0.90508 0.93167 0.74713 0.0
H1660 H 0.92373 0.88953 0.71477 0.0
C1661 C 0.91558 0.93516 0.79176 0.0
H1662 H 0.89994 0.91169 0.68616 0.0
C1663 C 0.92919 0.92254 0.80805 0.0
C1664 C 0.93264 0.9061 0.78014 0.0
H1665 H 0.91391 0.94809 0.81288 0.0
H1666 H 0.93762 0.92614 0.84116 0.0
C1667 C 0.92161 0.90222 0.73667 0.0
C1668 C 0.57646 0.90493 0.24036 0.0
C1669 C 0.56318 0.90889 0.20201 0.0
H1670 H 0.59942 0.91505 0.28523 0.0
C1671 C 0.56385 0.92629 0.17713 0.0
H1672 H 0.5765 0.89155 0.25975 0.0
C1673 C 0.57697 0.9397 0.19165 0.0
C1674 C 0.58975 0.93603 0.23141 0.0
H1675 H 0.55365 0.92993 0.14807 0.0
H1676 H 0.57652 0.95326 0.17327 0.0
C1677 C 0.58958 0.91838 0.25497 0.0
C1678 C 0.5853 0.5652 0.78024 0.0
C1679 C 0.59029 0.563 0.72839 0.0
H1680 H 0.56753 0.57893 0.83437 0.0
C1681 C 0.5825 0.57498 0.69151 0.0
H1682 H 0.59101 0.55602 0.80939 0.0
C1683 C 0.56928 0.58833 0.70587 0.0
C1684 C 0.56333 0.58976 0.7573 0.0
H1685 H 0.58633 0.57372 0.65138 0.0
H1686 H 0.56331 0.59716 0.67636 0.0
C1687 C 0.57189 0.57839 0.79456 0.0
C1688 C 0.08917 0.43004 0.78819 0.0
C1689 C 0.0928 0.43495 0.7368 0.0
H1690 H 0.07254 0.41397 0.84003 0.0
C1691 C 0.08391 0.42489 0.69742 0.0
H1692 H 0.09611 0.4372 0.81948 0.0
C1693 C 0.07068 0.41121 0.70924 0.0
C1694 C 0.06592 0.40741 0.76066 0.0
H1695 H 0.08634 0.42828 0.65743 0.0
H1696 H 0.06366 0.40414 0.67796 0.0
C1697 C 0.07581 0.4165 0.80001 0.0
C1698 C 0.07601 0.10412 0.26329 0.0
C1699 C 0.07457 0.10218 0.2097 0.0
H1700 H 0.08813 0.09348 0.33273 0.0
C1701 C 0.08686 0.0901 0.18392 0.0
H1702 H 0.06654 0.11319 0.2841 0.0
C1703 C 0.09941 0.07909 0.21172 0.0
C1704 C 0.09955 0.07976 0.26566 0.0
H1705 H 0.08595 0.08837 0.14263 0.0
H1706 H 0.10783 0.06892 0.19135 0.0
C1707 C 0.08829 0.09285 0.29113 0.0
C1708 C 0.40711 0.08079 0.72285 0.0
C1709 C 0.40032 0.06725 0.75715 0.0
H1710 H 0.42582 0.10383 0.71214 0.0
C1711 C 0.40466 0.0688 0.80965 0.0
H1712 H 0.40401 0.0799 0.68218 0.0
C1713 C 0.41716 0.08237 0.82666 0.0
C1714 C 0.42541 0.09474 0.79156 0.0
H1715 H 0.3993 0.05876 0.83708 0.0
H1716 H 0.42126 0.08247 0.86674 0.0
C1717 C 0.41958 0.09448 0.73999 0.0
C1718 C 0.42113 0.40831 0.20477 0.0
C1719 C 0.43109 0.40023 0.24562 0.0
H1720 H 0.4008 0.42855 0.18182 0.0
C1721 C 0.4263 0.40512 0.29629 0.0
H1722 H 0.42448 0.40492 0.16528 0.0
C1723 C 0.41298 0.41895 0.30574 0.0
C1724 C 0.40409 0.4281 0.2647 0.0
H1725 H 0.43348 0.39888 0.32865 0.0
H1726 H 0.41054 0.42324 0.34508 0.0
C1727 C 0.40773 0.42206 0.21424 0.0
loop_
_geom_bond_atom_site_label_1
_geom_bond_atom_site_label_2
_geom_bond_distance
_geom_bond_site_symmetry_2
_ccdc_geom_bond_type
Li0 N17 1.990 1_455 S
Li0 O60 1.956 . S
Li0 O61 1.970 . S
Li0 O62 1.961 . S
Li1 N25 1.990 . S
Li1 O60 1.970 . S
Li1 O61 1.956 . S
Li1 O63 1.961 . S
Li2 N47 1.990 . S
Li2 O60 1.961 . S
Li2 O62 1.956 . S
Li2 O63 1.970 . S
Li3 N53 1.990 . S
Li3 O61 1.961 . S
Li3 O62 1.970 . S
Li3 O63 1.956 . S
C4 C6 1.348 . S
C4 C7 1.356 1_455 S
C4 O60 1.325 . S
N5 C8 1.314 1_655 S
N5 C9 1.279 . S
C6 C4 1.348 . S
C6 C8 1.353 . S
C6 H64 0.929 . S
C7 C4 1.356 1_655 S
C7 C9 1.358 . S
C7 H65 0.930 . S
C8 N5 1.314 1_455 S
C8 C6 1.353 . S
C8 H66 0.930 . S
C9 N5 1.279 . S
C9 C7 1.358 . S
C9 H67 0.930 . S
C10 C13 1.348 . S
C10 C14 1.356 . S
C10 O61 1.325 . S
C11 N12 1.279 . S
C11 C14 1.358 . S
C11 H68 0.930 . S
N12 C11 1.279 . S
N12 C15 1.314 . S
C13 C10 1.348 . S
C13 C15 1.353 . S
C13 H69 0.929 . S
C14 C10 1.356 . S
C14 C11 1.358 . S
C14 H70 0.930 . S
C15 N12 1.314 . S
C15 C13 1.353 . S
C15 H71 0.930 . S
C16 N17 1.314 . S
C16 C21 1.353 . S
C16 H22 0.930 . S
N17 Li0 1.990 1_655 S
N17 C16 1.314 . S
N17 C19 1.279 . S
C18 C19 1.358 . S
C18 C20 1.356 . S
C18 H72 0.930 . S
C19 N17 1.279 . S
C19 C18 1.358 . S
C19 H23 0.930 . S
C20 C18 1.356 . S
C20 C21 1.348 . S
C21 C16 1.353 . S
C21 C20 1.348 . S
C21 H73 0.929 . S
H22 C16 0.930 . S
H23 C19 0.930 . S
C24 N25 1.314 . S
C24 C26 1.353 . S
C24 H30 0.930 . S
N25 Li1 1.990 . S
N25 C24 1.314 . S
N25 C28 1.279 . S
C26 C24 1.353 . S
C26 C29 1.348 . S
C26 H74 0.929 . S
C27 C28 1.358 . S
C27 C29 1.356 . S
C27 H75 0.930 . S
C28 N25 1.279 . S
C28 C27 1.358 . S
C28 H31 0.930 . S
C29 C26 1.348 . S
C29 C27 1.356 . S
H30 C24 0.930 . S
H31 C28 0.930 . S
C32 C34 1.329 1_654 S
C32 C35 1.415 . S
C32 O62 1.288 1_655 S
N33 C36 1.314 . S
N33 C37 1.279 1_556 S
C34 C32 1.329 1_456 S
C34 C36 1.353 1_455 S
C34 H76 0.929 . S
C35 C32 1.415 . S
C35 C37 1.358 . S
C35 H77 0.930 . S
C36 N33 1.314 . S
C36 C34 1.353 1_655 S
C36 H78 0.930 . S
C37 N33 1.279 1_554 S
C37 C35 1.358 . S
C37 H79 0.930 . S
C38 C39 1.348 . S
C38 C40 1.356 . S
C38 O63 1.325 . S
C39 C38 1.348 . S
C39 C41 1.353 . S
C39 H80 0.929 . S
C40 C38 1.356 . S
C40 C42 1.358 . S
C40 H81 0.930 . S
C41 C39 1.353 . S
C41 N43 1.314 . S
C41 H82 0.930 . S
C42 C40 1.358 . S
C42 N43 1.279 . S
C42 H83 0.930 . S
N43 C41 1.314 . S
N43 C42 1.279 . S
C44 C46 1.353 . S
C44 N47 1.314 . S
C44 H50 0.930 . S
C45 N47 1.279 . S
C45 C48 1.358 . S
C45 H51 0.930 . S
C46 C44 1.353 . S
C46 C49 1.348 . S
C46 H84 0.929 . S
N47 Li2 1.990 . S
N47 C44 1.314 . S
N47 C45 1.279 . S
C48 C45 1.358 . S
C48 C49 1.356 . S
C48 H85 0.930 . S
C49 C46 1.348 . S
C49 C48 1.356 . S
H50 C44 0.930 . S
H51 C45 0.930 . S
C52 N53 1.314 . S
C52 C54 1.353 1_554 S
C52 H58 0.930 . S
N53 Li3 1.990 . S
N53 C52 1.314 . S
N53 C56 1.279 1_554 S
C54 C52 1.353 1_556 S
C54 C57 1.348 . S
C54 H86 0.929 . S
C55 C56 1.358 . S
C55 C57 1.356 . S
C55 H87 0.930 . S
C56 N53 1.279 1_556 S
C56 C55 1.358 . S
C56 H59 0.930 1_556 S
C57 C54 1.348 . S
C57 C55 1.356 . S
H58 C52 0.930 . S
H59 C56 0.930 1_554 S
O60 Li0 1.956 . S
O60 Li1 1.970 . S
O60 Li2 1.961 . S
O60 C4 1.325 . S
O61 Li0 1.970 . S
O61 Li1 1.956 . S
O61 Li3 1.961 . S
O61 C10 1.325 . S
O62 Li0 1.961 . S
O62 Li2 1.956 . S
O62 Li3 1.970 . S
O62 C32 1.288 1_455 S
O63 Li1 1.961 . S
O63 Li2 1.970 . S
O63 Li3 1.956 . S
O63 C38 1.325 . S
H64 C6 0.929 . S
H65 C7 0.930 . S
H66 C8 0.930 . S
H67 C9 0.930 . S
H68 C11 0.930 . S
H69 C13 0.929 . S
H70 C14 0.930 . S
H71 C15 0.930 . S
H72 C18 0.930 . S
H73 C21 0.929 . S
H74 C26 0.929 . S
H75 C27 0.930 . S
H76 C34 0.929 . S
H77 C35 0.930 . S
H78 C36 0.930 . S
H79 C37 0.930 . S
H80 C39 0.929 . S
H81 C40 0.930 . S
H82 C41 0.930 . S
H83 C42 0.930 . S
H84 C46 0.929 . S
H85 C48 0.930 . S
H86 C54 0.929 . S
H87 C55 0.930 . S
Li88 N105 1.990 1_545 S
Li88 O148 1.956 . S
Li88 O149 1.970 . S
Li88 O150 1.961 . S
Li89 N113 1.990 . S
Li89 O148 1.970 . S
Li89 O149 1.956 . S
Li89 O151 1.961 . S
Li90 N135 1.990 . S
Li90 O148 1.961 . S
Li90 O150 1.956 . S
Li90 O151 1.970 . S
Li91 N141 1.990 . S
Li91 O149 1.961 . S
Li91 O150 1.970 . S
Li91 O151 1.956 . S
C92 C94 1.348 . S
C92 C95 1.356 1_545 S
C92 O148 1.325 . S
N93 C96 1.314 1_565 S
N93 C97 1.279 . S
C94 C92 1.348 . S
C94 C96 1.353 . S
C94 H152 0.929 . S
C95 C92 1.356 1_565 S
C95 C97 1.358 . S
C95 H153 0.930 . S
C96 N93 1.314 1_545 S
C96 C94 1.353 . S
C96 H154 0.930 . S
C97 N93 1.279 . S
C97 C95 1.358 . S
C97 H155 0.930 . S
C98 C101 1.348 . S
C98 C102 1.356 . S
C98 O149 1.325 . S
C99 N100 1.279 . S
C99 C102 1.358 . S
C99 H156 0.930 . S
N100 C99 1.279 . S
N100 C103 1.314 . S
C101 C98 1.348 . S
C101 C103 1.353 . S
C101 H157 0.929 . S
C102 C98 1.356 . S
C102 C99 1.358 . S
C102 H158 0.930 . S
C103 N100 1.314 . S
C103 C101 1.353 . S
C103 H159 0.930 . S
C104 N105 1.314 . S
C104 C109 1.353 . S
C104 H110 0.930 . S
N105 Li88 1.990 1_565 S
N105 C104 1.314 . S
N105 C107 1.279 . S
C106 C107 1.358 . S
C106 C108 1.356 . S
C106 H160 0.930 . S
C107 N105 1.279 . S
C107 C106 1.358 . S
C107 H111 0.930 . S
C108 C106 1.356 . S
C108 C109 1.348 . S
C109 C104 1.353 . S
C109 C108 1.348 . S
C109 H161 0.929 . S
H110 C104 0.930 . S
H111 C107 0.930 . S
C112 N113 1.314 . S
C112 C114 1.353 . S
C112 H118 0.930 . S
N113 Li89 1.990 . S
N113 C112 1.314 . S
N113 C116 1.279 . S
C114 C112 1.353 . S
C114 C117 1.348 . S
C114 H162 0.929 . S
C115 C116 1.358 . S
C115 C117 1.356 . S
C115 H163 0.930 . S
C116 N113 1.279 . S
C116 C115 1.358 . S
C116 H119 0.930 . S
C117 C114 1.348 . S
C117 C115 1.356 . S
H118 C112 0.930 . S
H119 C116 0.930 . S
C120 C122 1.330 1_565 S
C120 C123 1.413 . S
C120 O150 1.290 1_565 S
N121 C124 1.314 . S
N121 C125 1.279 . S
C122 C120 1.330 1_545 S
C122 C124 1.353 1_545 S
C122 H164 0.929 . S
C123 C120 1.413 . S
C123 C125 1.358 . S
C123 H165 0.930 . S
C124 N121 1.314 . S
C124 C122 1.353 1_565 S
C124 H166 0.930 . S
C125 N121 1.279 . S
C125 C123 1.358 . S
C125 H167 0.930 . S
C126 C127 1.348 . S
C126 C128 1.356 . S
C126 O151 1.325 . S
C127 C126 1.348 . S
C127 C129 1.353 . S
C127 H168 0.929 . S
C128 C126 1.356 . S
C128 C130 1.358 . S
C128 H169 0.930 . S
C129 C127 1.353 . S
C129 N131 1.314 . S
C129 H170 0.930 . S
C130 C128 1.358 . S
C130 N131 1.279 . S
C130 H171 0.930 . S
N131 C129 1.314 . S
N131 C130 1.279 . S
C132 C134 1.353 . S
C132 N135 1.314 . S
C132 H138 0.930 . S
C133 N135 1.279 . S
C133 C136 1.358 . S
C133 H139 0.930 . S
C134 C132 1.353 . S
C134 C137 1.348 . S
C134 H172 0.929 . S
N135 Li90 1.990 . S
N135 C132 1.314 . S
N135 C133 1.279 . S
C136 C133 1.358 . S
C136 C137 1.356 . S
C136 H173 0.930 . S
C137 C134 1.348 . S
C137 C136 1.356 . S
H138 C132 0.930 . S
H139 C133 0.930 . S
C140 N141 1.314 . S
C140 C142 1.353 . S
C140 H146 0.930 . S
N141 Li91 1.990 . S
N141 C140 1.314 . S
N141 C144 1.279 . S
C142 C140 1.353 . S
C142 C145 1.348 . S
C142 H174 0.929 . S
C143 C144 1.358 . S
C143 C145 1.356 . S
C143 H175 0.930 . S
C144 N141 1.279 . S
C144 C143 1.358 . S
C144 H147 0.930 . S
C145 C142 1.348 . S
C145 C143 1.356 . S
H146 C140 0.930 . S
H147 C144 0.930 . S
O148 Li88 1.956 . S
O148 Li89 1.970 . S
O148 Li90 1.961 . S
O148 C92 1.325 . S
O149 Li88 1.970 . S
O149 Li89 1.956 . S
O149 Li91 1.961 . S
O149 C98 1.325 . S
O150 Li88 1.961 . S
O150 Li90 1.956 . S
O150 Li91 1.970 . S
O150 C120 1.290 1_545 S
O151 Li89 1.961 . S
O151 Li90 1.970 . S
O151 Li91 1.956 . S
O151 C126 1.325 . S
H152 C94 0.929 . S
H153 C95 0.930 . S
H154 C96 0.930 . S
H155 C97 0.930 . S
H156 C99 0.930 . S
H157 C101 0.929 . S
H158 C102 0.930 . S
H159 C103 0.930 . S
H160 C106 0.930 . S
H161 C109 0.929 . S
H162 C114 0.929 . S
H163 C115 0.930 . S
H164 C122 0.929 . S
H165 C123 0.930 . S
H166 C124 0.930 . S
H167 C125 0.930 . S
H168 C127 0.929 . S
H169 C128 0.930 . S
H170 C129 0.930 . S
H171 C130 0.930 . S
H172 C134 0.929 . S
H173 C136 0.930 . S
H174 C142 0.929 . S
H175 C143 0.930 . S
Li176 N193 1.990 . S
Li176 O236 1.956 . S
Li176 O237 1.970 . S
Li176 O238 1.961 . S
Li177 N201 1.990 . S
Li177 O236 1.970 . S
Li177 O237 1.956 . S
Li177 O239 1.961 . S
Li178 N223 1.990 . S
Li178 O236 1.961 . S
Li178 O238 1.956 . S
Li178 O239 1.970 . S
Li179 N229 1.990 . S
Li179 O237 1.961 . S
Li179 O238 1.970 . S
Li179 O239 1.956 . S
C180 C182 1.348 . S
C180 C183 1.356 . S
C180 O236 1.325 . S
N181 C184 1.314 . S
N181 C185 1.279 . S
C182 C180 1.348 . S
C182 C184 1.353 . S
C182 H240 0.929 . S
C183 C180 1.356 . S
C183 C185 1.358 . S
C183 H241 0.930 . S
C184 N181 1.314 . S
C184 C182 1.353 . S
C184 H242 0.930 . S
C185 N181 1.279 . S
C185 C183 1.358 . S
C185 H243 0.930 . S
C186 C189 1.348 . S
C186 C190 1.356 . S
C186 O237 1.325 . S
C187 N188 1.279 . S
C187 C190 1.358 . S
C187 H244 0.930 . S
N188 C187 1.279 . S
N188 C191 1.314 . S
C189 C186 1.348 . S
C189 C191 1.353 . S
C189 H245 0.929 . S
C190 C186 1.356 . S
C190 C187 1.358 . S
C190 H246 0.930 . S
C191 N188 1.314 . S
C191 C189 1.353 . S
C191 H247 0.930 . S
C192 N193 1.314 . S
C192 C197 1.353 . S
C192 H198 0.930 . S
N193 Li176 1.990 . S
N193 C192 1.314 . S
N193 C195 1.279 . S
C194 C195 1.358 . S
C194 C196 1.356 . S
C194 H248 0.930 . S
C195 N193 1.279 . S
C195 C194 1.358 . S
C195 H199 0.930 . S
C196 C194 1.356 . S
C196 C197 1.348 . S
C197 C192 1.353 . S
C197 C196 1.348 . S
C197 H249 0.929 . S
H198 C192 0.930 . S
H199 C195 0.930 . S
C200 N201 1.314 . S
C200 C202 1.353 . S
C200 H206 0.930 . S
N201 Li177 1.990 . S
N201 C200 1.314 . S
N201 C204 1.279 . S
C202 C200 1.353 . S
C202 C205 1.348 . S
C202 H250 0.929 . S
C203 C204 1.358 . S
C203 C205 1.356 . S
C203 H251 0.930 . S
C204 N201 1.279 . S
C204 C203 1.358 . S
C204 H207 0.930 . S
C205 C202 1.348 . S
C205 C203 1.356 . S
H206 C200 0.930 . S
H207 C204 0.930 . S
C208 C210 1.348 1_554 S
C208 C211 1.356 . S
C208 O238 1.325 . S
N209 C212 1.314 . S
N209 C213 1.279 1_556 S
C210 C208 1.348 1_556 S
C210 C212 1.353 . S
C210 H252 0.929 . S
C211 C208 1.356 . S
C211 C213 1.358 . S
C211 H253 0.930 . S
C212 N209 1.314 . S
C212 C210 1.353 . S
C212 H254 0.930 . S
C213 N209 1.279 1_554 S
C213 C211 1.358 . S
C213 H255 0.930 . S
C214 C215 1.348 . S
C214 C216 1.356 . S
C214 O239 1.325 . S
C215 C214 1.348 . S
C215 C217 1.353 . S
C215 H256 0.929 . S
C216 C214 1.356 . S
C216 C218 1.358 . S
C216 H257 0.930 . S
C217 C215 1.353 . S
C217 N219 1.314 . S
C217 H258 0.930 . S
C218 C216 1.358 . S
C218 N219 1.279 . S
C218 H259 0.930 . S
N219 C217 1.314 . S
N219 C218 1.279 . S
C220 C222 1.353 . S
C220 N223 1.314 . S
C220 H226 0.930 . S
C221 N223 1.279 . S
C221 C224 1.358 . S
C221 H227 0.930 . S
C222 C220 1.353 . S
C222 C225 1.348 . S
C222 H260 0.929 . S
N223 Li178 1.990 . S
N223 C220 1.314 . S
N223 C221 1.279 . S
C224 C221 1.358 . S
C224 C225 1.356 . S
C224 H261 0.930 . S
C225 C222 1.348 . S
C225 C224 1.356 . S
H226 C220 0.930 . S
H227 C221 0.930 . S
C228 N229 1.314 . S
C228 C230 1.353 1_554 S
C228 H234 0.930 . S
N229 Li179 1.990 . S
N229 C228 1.314 . S
N229 C232 1.279 1_554 S
C230 C228 1.353 1_556 S
C230 C233 1.348 . S
C230 H262 0.929 . S
C231 C232 1.358 . S
C231 C233 1.356 . S
C231 H263 0.930 . S
C232 N229 1.279 1_556 S
C232 C231 1.358 . S
C232 H235 0.930 1_556 S
C233 C230 1.348 . S
C233 C231 1.356 . S
H234 C228 0.930 . S
H235 C232 0.930 1_554 S
O236 Li176 1.956 . S
O236 Li177 1.970 . S
O236 Li178 1.961 . S
O236 C180 1.325 . S
O237 Li176 1.970 . S
O237 Li177 1.956 . S
O237 Li179 1.961 . S
O237 C186 1.325 . S
O238 Li176 1.961 . S
O238 Li178 1.956 . S
O238 Li179 1.970 . S
O238 C208 1.325 . S
O239 Li177 1.961 . S
O239 Li178 1.970 . S
O239 Li179 1.956 . S
O239 C214 1.325 . S
H240 C182 0.929 . S
H241 C183 0.930 . S
H242 C184 0.930 . S
H243 C185 0.930 . S
H244 C187 0.930 . S
H245 C189 0.929 . S
H246 C190 0.930 . S
H247 C191 0.930 . S
H248 C194 0.930 . S
H249 C197 0.929 . S
H250 C202 0.929 . S
H251 C203 0.930 . S
H252 C210 0.929 . S
H253 C211 0.930 . S
H254 C212 0.930 . S
H255 C213 0.930 . S
H256 C215 0.929 . S
H257 C216 0.930 . S
H258 C217 0.930 . S
H259 C218 0.930 . S
H260 C222 0.929 . S
H261 C224 0.930 . S
H262 C230 0.929 . S
H263 C231 0.930 . S
Li264 N281 1.990 . S
Li264 O324 1.956 . S
Li264 O325 1.970 . S
Li264 O326 1.961 . S
Li265 N289 1.990 . S
Li265 O324 1.970 . S
Li265 O325 1.956 . S
Li265 O327 1.961 . S
Li266 N311 1.990 . S
Li266 O324 1.961 . S
Li266 O326 1.956 . S
Li266 O327 1.970 . S
Li267 N317 1.990 . S
Li267 O325 1.961 . S
Li267 O326 1.970 . S
Li267 O327 1.956 . S
C268 C270 1.348 . S
C268 C271 1.356 . S
C268 O324 1.325 . S
N269 C272 1.314 . S
N269 C273 1.279 . S
C270 C268 1.348 . S
C270 C272 1.353 . S
C270 H328 0.929 . S
C271 C268 1.356 . S
C271 C273 1.358 . S
C271 H329 0.930 . S
C272 N269 1.314 . S
C272 C270 1.353 . S
C272 H330 0.930 . S
C273 N269 1.279 . S
C273 C271 1.358 . S
C273 H331 0.930 . S
C274 C277 1.348 . S
C274 C278 1.356 . S
C274 O325 1.325 . S
C275 N276 1.279 . S
C275 C278 1.358 . S
C275 H332 0.930 . S
N276 C275 1.279 . S
N276 C279 1.314 . S
C277 C274 1.348 . S
C277 C279 1.353 . S
C277 H333 0.929 . S
C278 C274 1.356 . S
C278 C275 1.358 . S
C278 H334 0.930 . S
C279 N276 1.314 . S
C279 C277 1.353 . S
C279 H335 0.930 . S
C280 N281 1.314 . S
C280 C285 1.353 . S
C280 H286 0.930 . S
N281 Li264 1.990 . S
N281 C280 1.314 . S
N281 C283 1.279 . S
C282 C283 1.358 . S
C282 C284 1.356 . S
C282 H336 0.930 . S
C283 N281 1.279 . S
C283 C282 1.358 . S
C283 H287 0.930 . S
C284 C282 1.356 . S
C284 C285 1.348 . S
C285 C280 1.353 . S
C285 C284 1.348 . S
C285 H337 0.929 . S
H286 C280 0.930 . S
H287 C283 0.930 . S
C288 N289 1.314 . S
C288 C290 1.353 . S
C288 H294 0.930 . S
N289 Li265 1.990 . S
N289 C288 1.314 . S
N289 C292 1.279 . S
C290 C288 1.353 . S
C290 C293 1.348 . S
C290 H338 0.929 . S
C291 C292 1.358 . S
C291 C293 1.356 . S
C291 H339 0.930 . S
C292 N289 1.279 . S
C292 C291 1.358 . S
C292 H295 0.930 . S
C293 C290 1.348 . S
C293 C291 1.356 . S
H294 C288 0.930 . S
H295 C292 0.930 . S
C296 C298 1.348 . S
C296 C299 1.356 . S
C296 O326 1.325 . S
N297 C300 1.314 . S
N297 C301 1.279 . S
C298 C296 1.348 . S
C298 C300 1.353 . S
C298 H340 0.929 . S
C299 C296 1.356 . S
C299 C301 1.358 . S
C299 H341 0.930 . S
C300 N297 1.314 . S
C300 C298 1.353 . S
C300 H342 0.930 . S
C301 N297 1.279 . S
C301 C299 1.358 . S
C301 H343 0.930 . S
C302 C303 1.348 . S
C302 C304 1.356 . S
C302 O327 1.325 . S
C303 C302 1.348 . S
C303 C305 1.353 . S
C303 H344 0.929 . S
C304 C302 1.356 . S
C304 C306 1.358 . S
C304 H345 0.930 . S
C305 C303 1.353 . S
C305 N307 1.314 . S
C305 H346 0.930 . S
C306 C304 1.358 . S
C306 N307 1.279 . S
C306 H347 0.930 . S
N307 C305 1.314 . S
N307 C306 1.279 . S
C308 C310 1.353 . S
C308 N311 1.314 . S
C308 H314 0.930 . S
C309 N311 1.279 . S
C309 C312 1.358 . S
C309 H315 0.930 . S
C310 C308 1.353 . S
C310 C313 1.348 . S
C310 H348 0.929 . S
N311 Li266 1.990 . S
N311 C308 1.314 . S
N311 C309 1.279 . S
C312 C309 1.358 . S
C312 C313 1.356 . S
C312 H349 0.930 . S
C313 C310 1.348 . S
C313 C312 1.356 . S
H314 C308 0.930 . S
H315 C309 0.930 . S
C316 N317 1.314 . S
C316 C318 1.353 . S
C316 H322 0.930 . S
N317 Li267 1.990 . S
N317 C316 1.314 . S
N317 C320 1.279 . S
C318 C316 1.353 . S
C318 C321 1.348 . S
C318 H350 0.929 . S
C319 C320 1.358 . S
C319 C321 1.356 . S
C319 H351 0.930 . S
C320 N317 1.279 . S
C320 C319 1.358 . S
C320 H323 0.930 . S
C321 C318 1.348 . S
C321 C319 1.356 . S
H322 C316 0.930 . S
H323 C320 0.930 . S
O324 Li264 1.956 . S
O324 Li265 1.970 . S
O324 Li266 1.961 . S
O324 C268 1.325 . S
O325 Li264 1.970 . S
O325 Li265 1.956 . S
O325 Li267 1.961 . S
O325 C274 1.325 . S
O326 Li264 1.961 . S
O326 Li266 1.956 . S
O326 Li267 1.970 . S
O326 C296 1.325 . S
O327 Li265 1.961 . S
O327 Li266 1.970 . S
O327 Li267 1.956 . S
O327 C302 1.325 . S
H328 C270 0.929 . S
H329 C271 0.930 . S
H330 C272 0.930 . S
H331 C273 0.930 . S
H332 C275 0.930 . S
H333 C277 0.929 . S
H334 C278 0.930 . S
H335 C279 0.930 . S
H336 C282 0.930 . S
H337 C285 0.929 . S
H338 C290 0.929 . S
H339 C291 0.930 . S
H340 C298 0.929 . S
H341 C299 0.930 . S
H342 C300 0.930 . S
H343 C301 0.930 . S
H344 C303 0.929 . S
H345 C304 0.930 . S
H346 C305 0.930 . S
H347 C306 0.930 . S
H348 C310 0.929 . S
H349 C312 0.930 . S
H350 C318 0.929 . S
H351 C319 0.930 . S
Li352 N369 1.990 . S
Li352 O412 1.956 . S
Li352 O413 1.970 . S
Li352 O414 1.961 . S
Li353 N377 1.990 . S
Li353 O412 1.970 . S
Li353 O413 1.956 . S
Li353 O415 1.961 . S
Li354 N399 1.990 1_455 S
Li354 O412 1.961 . S
Li354 O414 1.956 . S
Li354 O415 1.970 . S
Li355 N405 1.990 . S
Li355 O413 1.961 . S
Li355 O414 1.970 . S
Li355 O415 1.956 . S
C356 C358 1.330 1_656 S
C356 C359 1.413 . S
C356 O412 1.289 1_655 S
N357 C360 1.314 . S
N357 C361 1.279 1_554 S
C358 C356 1.330 1_454 S
C358 C360 1.353 1_455 S
C358 H416 0.929 . S
C359 C356 1.413 . S
C359 C361 1.358 . S
C359 H417 0.930 . S
C360 N357 1.314 . S
C360 C358 1.353 1_655 S
C360 H418 0.930 . S
C361 N357 1.279 1_556 S
C361 C359 1.358 . S
C361 H419 0.930 . S
C362 C365 1.348 . S
C362 C366 1.356 . S
C362 O413 1.325 . S
C363 N364 1.279 . S
C363 C366 1.358 . S
C363 H420 0.930 . S
N364 C363 1.279 . S
N364 C367 1.314 . S
C365 C362 1.348 . S
C365 C367 1.353 . S
C365 H421 0.929 . S
C366 C362 1.356 . S
C366 C363 1.358 . S
C366 H422 0.930 . S
C367 N364 1.314 . S
C367 C365 1.353 . S
C367 H423 0.930 . S
C368 N369 1.314 . S
C368 C373 1.353 . S
C368 H374 0.930 . S
N369 Li352 1.990 . S
N369 C368 1.314 . S
N369 C371 1.279 . S
C370 C371 1.358 . S
C370 C372 1.356 . S
C370 H424 0.930 . S
C371 N369 1.279 . S
C371 C370 1.358 . S
C371 H375 0.930 . S
C372 C370 1.356 . S
C372 C373 1.348 . S
C373 C368 1.353 . S
C373 C372 1.348 . S
C373 H425 0.929 . S
H374 C368 0.930 . S
H375 C371 0.930 . S
C376 N377 1.314 . S
C376 C378 1.353 1_556 S
C376 H382 0.930 . S
N377 Li353 1.990 . S
N377 C376 1.314 . S
N377 C380 1.279 1_556 S
C378 C376 1.353 1_554 S
C378 C381 1.348 . S
C378 H426 0.929 . S
C379 C380 1.358 . S
C379 C381 1.356 . S
C379 H427 0.930 . S
C380 N377 1.279 1_554 S
C380 C379 1.358 . S
C380 H383 0.930 1_554 S
C381 C378 1.348 . S
C381 C379 1.356 . S
H382 C376 0.930 . S
H383 C380 0.930 1_556 S
C384 C386 1.348 . S
C384 C387 1.356 1_455 S
C384 O414 1.325 . S
N385 C388 1.314 1_655 S
N385 C389 1.279 . S
C386 C384 1.348 . S
C386 C388 1.353 . S
C386 H428 0.929 . S
C387 C384 1.356 1_655 S
C387 C389 1.358 . S
C387 H429 0.930 . S
C388 N385 1.314 1_455 S
C388 C386 1.353 . S
C388 H430 0.930 . S
C389 N385 1.279 . S
C389 C387 1.358 . S
C389 H431 0.930 . S
C390 C391 1.348 . S
C390 C392 1.356 . S
C390 O415 1.325 . S
C391 C390 1.348 . S
C391 C393 1.353 . S
C391 H432 0.929 . S
C392 C390 1.356 . S
C392 C394 1.358 . S
C392 H433 0.930 . S
C393 C391 1.353 . S
C393 N395 1.314 . S
C393 H434 0.930 . S
C394 C392 1.358 . S
C394 N395 1.279 . S
C394 H435 0.930 . S
N395 C393 1.314 . S
N395 C394 1.279 . S
C396 C398 1.353 . S
C396 N399 1.314 . S
C396 H402 0.930 . S
C397 N399 1.279 . S
C397 C400 1.358 . S
C397 H403 0.930 . S
C398 C396 1.353 . S
C398 C401 1.348 . S
C398 H436 0.929 . S
N399 Li354 1.990 1_655 S
N399 C396 1.314 . S
N399 C397 1.279 . S
C400 C397 1.358 . S
C400 C401 1.356 . S
C400 H437 0.930 . S
C401 C398 1.348 . S
C401 C400 1.356 . S
H402 C396 0.930 . S
H403 C397 0.930 . S
C404 N405 1.314 . S
C404 C406 1.353 . S
C404 H410 0.930 . S
N405 Li355 1.990 . S
N405 C404 1.314 . S
N405 C408 1.279 . S
C406 C404 1.353 . S
C406 C409 1.348 . S
C406 H438 0.929 . S
C407 C408 1.358 . S
C407 C409 1.356 . S
C407 H439 0.930 . S
C408 N405 1.279 . S
C408 C407 1.358 . S
C408 H411 0.930 . S
C409 C406 1.348 . S
C409 C407 1.356 . S
H410 C404 0.930 . S
H411 C408 0.930 . S
O412 Li352 1.956 . S
O412 Li353 1.970 . S
O412 Li354 1.961 . S
O412 C356 1.289 1_455 S
O413 Li352 1.970 . S
O413 Li353 1.956 . S
O413 Li355 1.961 . S
O413 C362 1.325 . S
O414 Li352 1.961 . S
O414 Li354 1.956 . S
O414 Li355 1.970 . S
O414 C384 1.325 . S
O415 Li353 1.961 . S
O415 Li354 1.970 . S
O415 Li355 1.956 . S
O415 C390 1.325 . S
H416 C358 0.929 . S
H417 C359 0.930 . S
H418 C360 0.930 . S
H419 C361 0.930 . S
H420 C363 0.930 . S
H421 C365 0.929 . S
H422 C366 0.930 . S
H423 C367 0.930 . S
H424 C370 0.930 . S
H425 C373 0.929 . S
H426 C378 0.929 . S
H427 C379 0.930 . S
H428 C386 0.929 . S
H429 C387 0.930 . S
H430 C388 0.930 . S
H431 C389 0.930 . S
H432 C391 0.929 . S
H433 C392 0.930 . S
H434 C393 0.930 . S
H435 C394 0.930 . S
H436 C398 0.929 . S
H437 C400 0.930 . S
H438 C406 0.929 . S
H439 C407 0.930 . S
Li440 N457 1.990 . S
Li440 O500 1.956 . S
Li440 O501 1.970 . S
Li440 O502 1.961 . S
Li441 N465 1.990 . S
Li441 O500 1.970 . S
Li441 O501 1.956 . S
Li441 O503 1.961 . S
Li442 N487 1.990 1_545 S
Li442 O500 1.961 . S
Li442 O502 1.956 . S
Li442 O503 1.970 . S
Li443 N493 1.990 . S
Li443 O501 1.961 . S
Li443 O502 1.970 . S
Li443 O503 1.956 . S
C444 C446 1.329 1_565 S
C444 C447 1.415 . S
C444 O500 1.288 1_565 S
N445 C448 1.314 . S
N445 C449 1.279 . S
C446 C444 1.329 1_545 S
C446 C448 1.353 1_545 S
C446 H504 0.929 . S
C447 C444 1.415 . S
C447 C449 1.358 . S
C447 H505 0.930 . S
C448 N445 1.314 . S
C448 C446 1.353 1_565 S
C448 H506 0.930 . S
C449 N445 1.279 . S
C449 C447 1.358 . S
C449 H507 0.930 . S
C450 C453 1.348 . S
C450 C454 1.356 . S
C450 O501 1.325 . S
C451 N452 1.279 . S
C451 C454 1.358 . S
C451 H508 0.930 . S
N452 C451 1.279 . S
N452 C455 1.314 . S
C453 C450 1.348 . S
C453 C455 1.353 . S
C453 H509 0.929 . S
C454 C450 1.356 . S
C454 C451 1.358 . S
C454 H510 0.930 . S
C455 N452 1.314 . S
C455 C453 1.353 . S
C455 H511 0.930 . S
C456 N457 1.314 . S
C456 C461 1.353 . S
C456 H462 0.930 . S
N457 Li440 1.990 . S
N457 C456 1.314 . S
N457 C459 1.279 . S
C458 C459 1.358 . S
C458 C460 1.356 . S
C458 H512 0.930 . S
C459 N457 1.279 . S
C459 C458 1.358 . S
C459 H463 0.930 . S
C460 C458 1.356 . S
C460 C461 1.348 . S
C461 C456 1.353 . S
C461 C460 1.348 . S
C461 H513 0.929 . S
H462 C456 0.930 . S
H463 C459 0.930 . S
C464 N465 1.314 . S
C464 C466 1.353 . S
C464 H470 0.930 . S
N465 Li441 1.990 . S
N465 C464 1.314 . S
N465 C468 1.279 . S
C466 C464 1.353 . S
C466 C469 1.348 . S
C466 H514 0.929 . S
C467 C468 1.358 . S
C467 C469 1.356 . S
C467 H515 0.930 . S
C468 N465 1.279 . S
C468 C467 1.358 . S
C468 H471 0.930 . S
C469 C466 1.348 . S
C469 C467 1.356 . S
H470 C464 0.930 . S
H471 C468 0.930 . S
C472 C474 1.348 . S
C472 C475 1.356 1_545 S
C472 O502 1.325 . S
N473 C476 1.314 1_565 S
N473 C477 1.279 . S
C474 C472 1.348 . S
C474 C476 1.353 . S
C474 H516 0.929 . S
C475 C472 1.356 1_565 S
C475 C477 1.358 . S
C475 H517 0.930 . S
C476 N473 1.314 1_545 S
C476 C474 1.353 . S
C476 H518 0.930 . S
C477 N473 1.279 . S
C477 C475 1.358 . S
C477 H519 0.930 . S
C478 C479 1.348 . S
C478 C480 1.356 . S
C478 O503 1.325 . S
C479 C478 1.348 . S
C479 C481 1.353 . S
C479 H520 0.929 . S
C480 C478 1.356 . S
C480 C482 1.358 . S
C480 H521 0.930 . S
C481 C479 1.353 . S
C481 N483 1.314 . S
C481 H522 0.930 . S
C482 C480 1.358 . S
C482 N483 1.279 . S
C482 H523 0.930 . S
N483 C481 1.314 . S
N483 C482 1.279 . S
C484 C486 1.353 . S
C484 N487 1.314 . S
C484 H490 0.930 . S
C485 N487 1.279 . S
C485 C488 1.358 . S
C485 H491 0.930 . S
C486 C484 1.353 . S
C486 C489 1.348 . S
C486 H524 0.929 . S
N487 Li442 1.990 1_565 S
N487 C484 1.314 . S
N487 C485 1.279 . S
C488 C485 1.358 . S
C488 C489 1.356 . S
C488 H525 0.930 . S
C489 C486 1.348 . S
C489 C488 1.356 . S
H490 C484 0.930 . S
H491 C485 0.930 . S
C492 N493 1.314 . S
C492 C494 1.353 . S
C492 H498 0.930 . S
N493 Li443 1.990 . S
N493 C492 1.314 . S
N493 C496 1.279 . S
C494 C492 1.353 . S
C494 C497 1.348 . S
C494 H526 0.929 . S
C495 C496 1.358 . S
C495 C497 1.356 . S
C495 H527 0.930 . S
C496 N493 1.279 . S
C496 C495 1.358 . S
C496 H499 0.930 . S
C497 C494 1.348 . S
C497 C495 1.356 . S
H498 C492 0.930 . S
H499 C496 0.930 . S
O500 Li440 1.956 . S
O500 Li441 1.970 . S
O500 Li442 1.961 . S
O500 C444 1.288 1_545 S
O501 Li440 1.970 . S
O501 Li441 1.956 . S
O501 Li443 1.961 . S
O501 C450 1.325 . S
O502 Li440 1.961 . S
O502 Li442 1.956 . S
O502 Li443 1.970 . S
O502 C472 1.325 . S
O503 Li441 1.961 . S
O503 Li442 1.970 . S
O503 Li443 1.956 . S
O503 C478 1.325 . S
H504 C446 0.929 . S
H505 C447 0.930 . S
H506 C448 0.930 . S
H507 C449 0.930 . S
H508 C451 0.930 . S
H509 C453 0.929 . S
H510 C454 0.930 . S
H511 C455 0.930 . S
H512 C458 0.930 . S
H513 C461 0.929 . S
H514 C466 0.929 . S
H515 C467 0.930 . S
H516 C474 0.929 . S
H517 C475 0.930 . S
H518 C476 0.930 . S
H519 C477 0.930 . S
H520 C479 0.929 . S
H521 C480 0.930 . S
H522 C481 0.930 . S
H523 C482 0.930 . S
H524 C486 0.929 . S
H525 C488 0.930 . S
H526 C494 0.929 . S
H527 C495 0.930 . S
Li528 N545 1.990 . S
Li528 O588 1.956 . S
Li528 O589 1.970 . S
Li528 O590 1.961 . S
Li529 N553 1.990 . S
Li529 O588 1.970 . S
Li529 O589 1.956 . S
Li529 O591 1.961 . S
Li530 N575 1.990 . S
Li530 O588 1.961 . S
Li530 O590 1.956 . S
Li530 O591 1.970 . S
Li531 N581 1.990 . S
Li531 O589 1.961 . S
Li531 O590 1.970 . S
Li531 O591 1.956 . S
C532 C534 1.348 1_556 S
C532 C535 1.356 . S
C532 O588 1.325 . S
N533 C536 1.314 . S
N533 C537 1.279 1_554 S
C534 C532 1.348 1_554 S
C534 C536 1.353 . S
C534 H592 0.929 . S
C535 C532 1.356 . S
C535 C537 1.358 . S
C535 H593 0.930 . S
C536 N533 1.314 . S
C536 C534 1.353 . S
C536 H594 0.930 . S
C537 N533 1.279 1_556 S
C537 C535 1.358 . S
C537 H595 0.930 . S
C538 C541 1.348 . S
C538 C542 1.356 . S
C538 O589 1.325 . S
C539 N540 1.279 . S
C539 C542 1.358 . S
C539 H596 0.930 . S
N540 C539 1.279 . S
N540 C543 1.314 . S
C541 C538 1.348 . S
C541 C543 1.353 . S
C541 H597 0.929 . S
C542 C538 1.356 . S
C542 C539 1.358 . S
C542 H598 0.930 . S
C543 N540 1.314 . S
C543 C541 1.353 . S
C543 H599 0.930 . S
C544 N545 1.314 . S
C544 C549 1.353 . S
C544 H550 0.930 . S
N545 Li528 1.990 . S
N545 C544 1.314 . S
N545 C547 1.279 . S
C546 C547 1.358 . S
C546 C548 1.356 . S
C546 H600 0.930 . S
C547 N545 1.279 . S
C547 C546 1.358 . S
C547 H551 0.930 . S
C548 C546 1.356 . S
C548 C549 1.348 . S
C549 C544 1.353 . S
C549 C548 1.348 . S
C549 H601 0.929 . S
H550 C544 0.930 . S
H551 C547 0.930 . S
C552 N553 1.314 . S
C552 C554 1.353 1_556 S
C552 H558 0.930 . S
N553 Li529 1.990 . S
N553 C552 1.314 . S
N553 C556 1.279 1_556 S
C554 C552 1.353 1_554 S
C554 C557 1.348 . S
C554 H602 0.929 . S
C555 C556 1.358 . S
C555 C557 1.356 . S
C555 H603 0.930 . S
C556 N553 1.279 1_554 S
C556 C555 1.358 . S
C556 H559 0.930 1_554 S
C557 C554 1.348 . S
C557 C555 1.356 . S
H558 C552 0.930 . S
H559 C556 0.930 1_556 S
C560 C562 1.348 . S
C560 C563 1.356 . S
C560 O590 1.325 . S
N561 C564 1.314 . S
N561 C565 1.279 . S
C562 C560 1.348 . S
C562 C564 1.353 . S
C562 H604 0.929 . S
C563 C560 1.356 . S
C563 C565 1.358 . S
C563 H605 0.930 . S
C564 N561 1.314 . S
C564 C562 1.353 . S
C564 H606 0.930 . S
C565 N561 1.279 . S
C565 C563 1.358 . S
C565 H607 0.930 . S
C566 C567 1.348 . S
C566 C568 1.356 . S
C566 O591 1.325 . S
C567 C566 1.348 . S
C567 C569 1.353 . S
C567 H608 0.929 . S
C568 C566 1.356 . S
C568 C570 1.358 . S
C568 H609 0.930 . S
C569 C567 1.353 . S
C569 N571 1.314 . S
C569 H610 0.930 . S
C570 C568 1.358 . S
C570 N571 1.279 . S
C570 H611 0.930 . S
N571 C569 1.314 . S
N571 C570 1.279 . S
C572 C574 1.353 . S
C572 N575 1.314 . S
C572 H578 0.930 . S
C573 N575 1.279 . S
C573 C576 1.358 . S
C573 H579 0.930 . S
C574 C572 1.353 . S
C574 C577 1.348 . S
C574 H612 0.929 . S
N575 Li530 1.990 . S
N575 C572 1.314 . S
N575 C573 1.279 . S
C576 C573 1.358 . S
C576 C577 1.356 . S
C576 H613 0.930 . S
C577 C574 1.348 . S
C577 C576 1.356 . S
H578 C572 0.930 . S
H579 C573 0.930 . S
C580 N581 1.314 . S
C580 C582 1.353 . S
C580 H586 0.930 . S
N581 Li531 1.990 . S
N581 C580 1.314 . S
N581 C584 1.279 . S
C582 C580 1.353 . S
C582 C585 1.348 . S
C582 H614 0.929 . S
C583 C584 1.358 . S
C583 C585 1.356 . S
C583 H615 0.930 . S
C584 N581 1.279 . S
C584 C583 1.358 . S
C584 H587 0.930 . S
C585 C582 1.348 . S
C585 C583 1.356 . S
H586 C580 0.930 . S
H587 C584 0.930 . S
O588 Li528 1.956 . S
O588 Li529 1.970 . S
O588 Li530 1.961 . S
O588 C532 1.325 . S
O589 Li528 1.970 . S
O589 Li529 1.956 . S
O589 Li531 1.961 . S
O589 C538 1.325 . S
O590 Li528 1.961 . S
O590 Li530 1.956 . S
O590 Li531 1.970 . S
O590 C560 1.325 . S
O591 Li529 1.961 . S
O591 Li530 1.970 . S
O591 Li531 1.956 . S
O591 C566 1.325 . S
H592 C534 0.929 . S
H593 C535 0.930 . S
H594 C536 0.930 . S
H595 C537 0.930 . S
H596 C539 0.930 . S
H597 C541 0.929 . S
H598 C542 0.930 . S
H599 C543 0.930 . S
H600 C546 0.930 . S
H601 C549 0.929 . S
H602 C554 0.929 . S
H603 C555 0.930 . S
H604 C562 0.929 . S
H605 C563 0.930 . S
H606 C564 0.930 . S
H607 C565 0.930 . S
H608 C567 0.929 . S
H609 C568 0.930 . S
H610 C569 0.930 . S
H611 C570 0.930 . S
H612 C574 0.929 . S
H613 C576 0.930 . S
H614 C582 0.929 . S
H615 C583 0.930 . S
Li616 N633 1.990 . S
Li616 O676 1.956 . S
Li616 O677 1.970 . S
Li616 O678 1.961 . S
Li617 N641 1.990 . S
Li617 O676 1.970 . S
Li617 O677 1.956 . S
Li617 O679 1.961 . S
Li618 N663 1.990 . S
Li618 O676 1.961 . S
Li618 O678 1.956 . S
Li618 O679 1.970 . S
Li619 N669 1.990 . S
Li619 O677 1.961 . S
Li619 O678 1.970 . S
Li619 O679 1.956 . S
C620 C622 1.348 . S
C620 C623 1.356 . S
C620 O676 1.325 . S
N621 C624 1.314 . S
N621 C625 1.279 . S
C622 C620 1.348 . S
C622 C624 1.353 . S
C622 H680 0.929 . S
C623 C620 1.356 . S
C623 C625 1.358 . S
C623 H681 0.930 . S
C624 N621 1.314 . S
C624 C622 1.353 . S
C624 H682 0.930 . S
C625 N621 1.279 . S
C625 C623 1.358 . S
C625 H683 0.930 . S
C626 C629 1.348 . S
C626 C630 1.356 . S
C626 O677 1.325 . S
C627 N628 1.279 . S
C627 C630 1.358 . S
C627 H684 0.930 . S
N628 C627 1.279 . S
N628 C631 1.314 . S
C629 C626 1.348 . S
C629 C631 1.353 . S
C629 H685 0.929 . S
C630 C626 1.356 . S
C630 C627 1.358 . S
C630 H686 0.930 . S
C631 N628 1.314 . S
C631 C629 1.353 . S
C631 H687 0.930 . S
C632 N633 1.314 . S
C632 C637 1.353 . S
C632 H638 0.930 . S
N633 Li616 1.990 . S
N633 C632 1.314 . S
N633 C635 1.279 . S
C634 C635 1.358 . S
C634 C636 1.356 . S
C634 H688 0.930 . S
C635 N633 1.279 . S
C635 C634 1.358 . S
C635 H639 0.930 . S
C636 C634 1.356 . S
C636 C637 1.348 . S
C637 C632 1.353 . S
C637 C636 1.348 . S
C637 H689 0.929 . S
H638 C632 0.930 . S
H639 C635 0.930 . S
C640 N641 1.314 . S
C640 C642 1.353 . S
C640 H646 0.930 . S
N641 Li617 1.990 . S
N641 C640 1.314 . S
N641 C644 1.279 . S
C642 C640 1.353 . S
C642 C645 1.348 . S
C642 H690 0.929 . S
C643 C644 1.358 . S
C643 C645 1.356 . S
C643 H691 0.930 . S
C644 N641 1.279 . S
C644 C643 1.358 . S
C644 H647 0.930 . S
C645 C642 1.348 . S
C645 C643 1.356 . S
H646 C640 0.930 . S
H647 C644 0.930 . S
C648 C650 1.348 . S
C648 C651 1.356 . S
C648 O678 1.325 . S
N649 C652 1.314 . S
N649 C653 1.279 . S
C650 C648 1.348 . S
C650 C652 1.353 . S
C650 H692 0.929 . S
C651 C648 1.356 . S
C651 C653 1.358 . S
C651 H693 0.930 . S
C652 N649 1.314 . S
C652 C650 1.353 . S
C652 H694 0.930 . S
C653 N649 1.279 . S
C653 C651 1.358 . S
C653 H695 0.930 . S
C654 C655 1.348 . S
C654 C656 1.356 . S
C654 O679 1.325 . S
C655 C654 1.348 . S
C655 C657 1.353 . S
C655 H696 0.929 . S
C656 C654 1.356 . S
C656 C658 1.358 . S
C656 H697 0.930 . S
C657 C655 1.353 . S
C657 N659 1.314 . S
C657 H698 0.930 . S
C658 C656 1.358 . S
C658 N659 1.279 . S
C658 H699 0.930 . S
N659 C657 1.314 . S
N659 C658 1.279 . S
C660 C662 1.353 . S
C660 N663 1.314 . S
C660 H666 0.930 . S
C661 N663 1.279 . S
C661 C664 1.358 . S
C661 H667 0.930 . S
C662 C660 1.353 . S
C662 C665 1.348 . S
C662 H700 0.929 . S
N663 Li618 1.990 . S
N663 C660 1.314 . S
N663 C661 1.279 . S
C664 C661 1.358 . S
C664 C665 1.356 . S
C664 H701 0.930 . S
C665 C662 1.348 . S
C665 C664 1.356 . S
H666 C660 0.930 . S
H667 C661 0.930 . S
C668 N669 1.314 . S
C668 C670 1.353 . S
C668 H674 0.930 . S
N669 Li619 1.990 . S
N669 C668 1.314 . S
N669 C672 1.279 . S
C670 C668 1.353 . S
C670 C673 1.348 . S
C670 H702 0.929 . S
C671 C672 1.358 . S
C671 C673 1.356 . S
C671 H703 0.930 . S
C672 N669 1.279 . S
C672 C671 1.358 . S
C672 H675 0.930 . S
C673 C670 1.348 . S
C673 C671 1.356 . S
H674 C668 0.930 . S
H675 C672 0.930 . S
O676 Li616 1.956 . S
O676 Li617 1.970 . S
O676 Li618 1.961 . S
O676 C620 1.325 . S
O677 Li616 1.970 . S
O677 Li617 1.956 . S
O677 Li619 1.961 . S
O677 C626 1.325 . S
O678 Li616 1.961 . S
O678 Li618 1.956 . S
O678 Li619 1.970 . S
O678 C648 1.325 . S
O679 Li617 1.961 . S
O679 Li618 1.970 . S
O679 Li619 1.956 . S
O679 C654 1.325 . S
H680 C622 0.929 . S
H681 C623 0.930 . S
H682 C624 0.930 . S
H683 C625 0.930 . S
H684 C627 0.930 . S
H685 C629 0.929 . S
H686 C630 0.930 . S
H687 C631 0.930 . S
H688 C634 0.930 . S
H689 C637 0.929 . S
H690 C642 0.929 . S
H691 C643 0.930 . S
H692 C650 0.929 . S
H693 C651 0.930 . S
H694 C652 0.930 . S
H695 C653 0.930 . S
H696 C655 0.929 . S
H697 C656 0.930 . S
H698 C657 0.930 . S
H699 C658 0.930 . S
H700 C662 0.929 . S
H701 C664 0.930 . S
H702 C670 0.929 . S
H703 C671 0.930 . S
Li704 N721 1.990 . S
Li704 O764 1.956 . S
Li704 O765 1.970 . S
Li704 O766 1.961 . S
Li705 N729 1.990 . S
Li705 O764 1.970 . S
Li705 O765 1.956 . S
Li705 O767 1.961 . S
Li706 N751 1.990 1_655 S
Li706 O764 1.961 . S
Li706 O766 1.956 . S
Li706 O767 1.970 . S
Li707 N757 1.990 . S
Li707 O765 1.961 . S
Li707 O766 1.970 . S
Li707 O767 1.956 . S
C708 C710 1.349 . S
C708 C711 1.373 . S
C708 O764 1.306 1_455 S
N709 C712 1.314 . S
N709 C713 1.279 . S
C710 C708 1.349 . S
C710 C712 1.353 1_556 S
C710 H768 0.929 1_455 S
C711 C708 1.373 . S
C711 C713 1.358 1_556 S
C711 H769 0.930 . S
C712 N709 1.314 . S
C712 C710 1.353 1_554 S
C712 H770 0.930 . S
C713 N709 1.279 . S
C713 C711 1.358 1_554 S
C713 H771 0.930 . S
C714 C717 1.348 . S
C714 C718 1.356 . S
C714 O765 1.325 . S
C715 N716 1.279 . S
C715 C718 1.358 . S
C715 H772 0.930 . S
N716 C715 1.279 . S
N716 C719 1.314 . S
C717 C714 1.348 . S
C717 C719 1.353 . S
C717 H773 0.929 . S
C718 C714 1.356 . S
C718 C715 1.358 . S
C718 H774 0.930 . S
C719 N716 1.314 . S
C719 C717 1.353 . S
C719 H775 0.930 . S
C720 N721 1.314 . S
C720 C725 1.353 1_556 S
C720 H726 0.930 . S
N721 Li704 1.990 . S
N721 C720 1.314 . S
N721 C723 1.279 1_556 S
C722 C723 1.358 . S
C722 C724 1.356 . S
C722 H776 0.930 . S
C723 N721 1.279 1_554 S
C723 C722 1.358 . S
C723 H727 0.930 . S
C724 C722 1.356 . S
C724 C725 1.348 . S
C725 C720 1.353 1_554 S
C725 C724 1.348 . S
C725 H777 0.929 . S
H726 C720 0.930 . S
H727 C723 0.930 . S
C728 N729 1.314 . S
C728 C730 1.353 . S
C728 H734 0.930 1_655 S
N729 Li705 1.990 . S
N729 C728 1.314 . S
N729 C732 1.279 . S
C730 C728 1.353 . S
C730 C733 1.348 . S
C730 H778 0.929 1_655 S
C731 C732 1.358 . S
C731 C733 1.356 . S
C731 H779 0.930 . S
C732 N729 1.279 . S
C732 C731 1.358 . S
C732 H735 0.930 . S
C733 C730 1.348 . S
C733 C731 1.356 . S
H734 C728 0.930 1_455 S
H735 C732 0.930 . S
C736 C738 1.348 . S
C736 C739 1.356 . S
C736 O766 1.325 . S
N737 C740 1.314 . S
N737 C741 1.279 . S
C738 C736 1.348 . S
C738 C740 1.353 . S
C738 H780 0.929 . S
C739 C736 1.356 . S
C739 C741 1.358 . S
C739 H781 0.930 . S
C740 N737 1.314 . S
C740 C738 1.353 . S
C740 H782 0.930 . S
C741 N737 1.279 . S
C741 C739 1.358 . S
C741 H783 0.930 . S
C742 C743 1.348 1_655 S
C742 C744 1.356 . S
C742 O767 1.325 . S
C743 C742 1.348 1_455 S
C743 C745 1.353 . S
C743 H784 0.929 . S
C744 C742 1.356 . S
C744 C746 1.358 . S
C744 H785 0.930 . S
C745 C743 1.353 . S
C745 N747 1.314 . S
C745 H786 0.930 . S
C746 C744 1.358 . S
C746 N747 1.279 1_655 S
C746 H787 0.930 . S
N747 C745 1.314 . S
N747 C746 1.279 1_455 S
C748 C750 1.353 . S
C748 N751 1.314 . S
C748 H754 0.930 . S
C749 N751 1.279 . S
C749 C752 1.358 . S
C749 H755 0.930 . S
C750 C748 1.353 . S
C750 C753 1.348 . S
C750 H788 0.929 . S
N751 Li706 1.990 1_455 S
N751 C748 1.314 . S
N751 C749 1.279 . S
C752 C749 1.358 . S
C752 C753 1.356 . S
C752 H789 0.930 . S
C753 C750 1.348 . S
C753 C752 1.356 . S
H754 C748 0.930 . S
H755 C749 0.930 . S
C756 N757 1.314 . S
C756 C758 1.353 . S
C756 H762 0.930 . S
N757 Li707 1.990 . S
N757 C756 1.314 . S
N757 C760 1.279 . S
C758 C756 1.353 . S
C758 C761 1.348 . S
C758 H790 0.929 . S
C759 C760 1.358 . S
C759 C761 1.356 . S
C759 H791 0.930 . S
C760 N757 1.279 . S
C760 C759 1.358 . S
C760 H763 0.930 . S
C761 C758 1.348 . S
C761 C759 1.356 . S
H762 C756 0.930 . S
H763 C760 0.930 . S
O764 Li704 1.956 . S
O764 Li705 1.970 . S
O764 Li706 1.961 . S
O764 C708 1.306 1_655 S
O765 Li704 1.970 . S
O765 Li705 1.956 . S
O765 Li707 1.961 . S
O765 C714 1.325 . S
O766 Li704 1.961 . S
O766 Li706 1.956 . S
O766 Li707 1.970 . S
O766 C736 1.325 . S
O767 Li705 1.961 . S
O767 Li706 1.970 . S
O767 Li707 1.956 . S
O767 C742 1.325 . S
H768 C710 0.929 1_655 S
H769 C711 0.930 . S
H770 C712 0.930 . S
H771 C713 0.930 . S
H772 C715 0.930 . S
H773 C717 0.929 . S
H774 C718 0.930 . S
H775 C719 0.930 . S
H776 C722 0.930 . S
H777 C725 0.929 . S
H778 C730 0.929 1_455 S
H779 C731 0.930 . S
H780 C738 0.929 . S
H781 C739 0.930 . S
H782 C740 0.930 . S
H783 C741 0.930 . S
H784 C743 0.929 . S
H785 C744 0.930 . S
H786 C745 0.930 . S
H787 C746 0.930 . S
H788 C750 0.929 . S
H789 C752 0.930 . S
H790 C758 0.929 . S
H791 C759 0.930 . S
Li792 N809 1.990 . S
Li792 O852 1.956 . S
Li792 O853 1.970 . S
Li792 O854 1.961 . S
Li793 N817 1.990 . S
Li793 O852 1.970 . S
Li793 O853 1.956 . S
Li793 O855 1.961 . S
Li794 N839 1.990 1_565 S
Li794 O852 1.961 . S
Li794 O854 1.956 . S
Li794 O855 1.970 . S
Li795 N845 1.990 . S
Li795 O853 1.961 . S
Li795 O854 1.970 . S
Li795 O855 1.956 . S
C796 C798 1.349 . S
C796 C799 1.374 . S
C796 O852 1.306 1_545 S
N797 C800 1.314 . S
N797 C801 1.279 . S
C798 C796 1.349 . S
C798 C800 1.353 . S
C798 H856 0.929 1_545 S
C799 C796 1.374 . S
C799 C801 1.358 . S
C799 H857 0.930 . S
C800 N797 1.314 . S
C800 C798 1.353 . S
C800 H858 0.930 . S
C801 N797 1.279 . S
C801 C799 1.358 . S
C801 H859 0.930 . S
C802 C805 1.348 . S
C802 C806 1.356 . S
C802 O853 1.325 . S
C803 N804 1.279 . S
C803 C806 1.358 . S
C803 H860 0.930 . S
N804 C803 1.279 . S
N804 C807 1.314 . S
C805 C802 1.348 . S
C805 C807 1.353 . S
C805 H861 0.929 . S
C806 C802 1.356 . S
C806 C803 1.358 . S
C806 H862 0.930 . S
C807 N804 1.314 . S
C807 C805 1.353 . S
C807 H863 0.930 . S
C808 N809 1.314 . S
C808 C813 1.353 . S
C808 H814 0.930 . S
N809 Li792 1.990 . S
N809 C808 1.314 . S
N809 C811 1.279 . S
C810 C811 1.358 . S
C810 C812 1.356 . S
C810 H864 0.930 . S
C811 N809 1.279 . S
C811 C810 1.358 . S
C811 H815 0.930 . S
C812 C810 1.356 . S
C812 C813 1.348 . S
C813 C808 1.353 . S
C813 C812 1.348 . S
C813 H865 0.929 . S
H814 C808 0.930 . S
H815 C811 0.930 . S
C816 N817 1.314 . S
C816 C818 1.353 . S
C816 H822 0.930 1_565 S
N817 Li793 1.990 . S
N817 C816 1.314 . S
N817 C820 1.279 . S
C818 C816 1.353 . S
C818 C821 1.348 . S
C818 H866 0.929 1_565 S
C819 C820 1.358 . S
C819 C821 1.356 . S
C819 H867 0.930 . S
C820 N817 1.279 . S
C820 C819 1.358 . S
C820 H823 0.930 . S
C821 C818 1.348 . S
C821 C819 1.356 . S
H822 C816 0.930 1_545 S
H823 C820 0.930 . S
C824 C826 1.348 . S
C824 C827 1.356 . S
C824 O854 1.325 . S
N825 C828 1.314 . S
N825 C829 1.279 . S
C826 C824 1.348 . S
C826 C828 1.353 . S
C826 H868 0.929 . S
C827 C824 1.356 . S
C827 C829 1.358 . S
C827 H869 0.930 . S
C828 N825 1.314 . S
C828 C826 1.353 . S
C828 H870 0.930 . S
C829 N825 1.279 . S
C829 C827 1.358 . S
C829 H871 0.930 . S
C830 C831 1.348 1_565 S
C830 C832 1.356 . S
C830 O855 1.325 . S
C831 C830 1.348 1_545 S
C831 C833 1.353 . S
C831 H872 0.929 . S
C832 C830 1.356 . S
C832 C834 1.358 . S
C832 H873 0.930 . S
C833 C831 1.353 . S
C833 N835 1.314 . S
C833 H874 0.930 . S
C834 C832 1.358 . S
C834 N835 1.279 1_565 S
C834 H875 0.930 . S
N835 C833 1.314 . S
N835 C834 1.279 1_545 S
C836 C838 1.353 . S
C836 N839 1.314 . S
C836 H842 0.930 . S
C837 N839 1.279 . S
C837 C840 1.358 . S
C837 H843 0.930 . S
C838 C836 1.353 . S
C838 C841 1.348 . S
C838 H876 0.929 . S
N839 Li794 1.990 1_545 S
N839 C836 1.314 . S
N839 C837 1.279 . S
C840 C837 1.358 . S
C840 C841 1.356 . S
C840 H877 0.930 . S
C841 C838 1.348 . S
C841 C840 1.356 . S
H842 C836 0.930 . S
H843 C837 0.930 . S
C844 N845 1.314 . S
C844 C846 1.353 . S
C844 H850 0.930 . S
N845 Li795 1.990 . S
N845 C844 1.314 . S
N845 C848 1.279 . S
C846 C844 1.353 . S
C846 C849 1.348 . S
C846 H878 0.929 . S
C847 C848 1.358 . S
C847 C849 1.356 . S
C847 H879 0.930 . S
C848 N845 1.279 . S
C848 C847 1.358 . S
C848 H851 0.930 . S
C849 C846 1.348 . S
C849 C847 1.356 . S
H850 C844 0.930 . S
H851 C848 0.930 . S
O852 Li792 1.956 . S
O852 Li793 1.970 . S
O852 Li794 1.961 . S
O852 C796 1.306 1_565 S
O853 Li792 1.970 . S
O853 Li793 1.956 . S
O853 Li795 1.961 . S
O853 C802 1.325 . S
O854 Li792 1.961 . S
O854 Li794 1.956 . S
O854 Li795 1.970 . S
O854 C824 1.325 . S
O855 Li793 1.961 . S
O855 Li794 1.970 . S
O855 Li795 1.956 . S
O855 C830 1.325 . S
H856 C798 0.929 1_565 S
H857 C799 0.930 . S
H858 C800 0.930 . S
H859 C801 0.930 . S
H860 C803 0.930 . S
H861 C805 0.929 . S
H862 C806 0.930 . S
H863 C807 0.930 . S
H864 C810 0.930 . S
H865 C813 0.929 . S
H866 C818 0.929 1_545 S
H867 C819 0.930 . S
H868 C826 0.929 . S
H869 C827 0.930 . S
H870 C828 0.930 . S
H871 C829 0.930 . S
H872 C831 0.929 . S
H873 C832 0.930 . S
H874 C833 0.930 . S
H875 C834 0.930 . S
H876 C838 0.929 . S
H877 C840 0.930 . S
H878 C846 0.929 . S
H879 C847 0.930 . S
Li880 N897 1.990 . S
Li880 O940 1.956 . S
Li880 O941 1.970 . S
Li880 O942 1.961 . S
Li881 N905 1.990 . S
Li881 O940 1.970 . S
Li881 O941 1.956 . S
Li881 O943 1.961 . S
Li882 N927 1.990 . S
Li882 O940 1.961 . S
Li882 O942 1.956 . S
Li882 O943 1.970 . S
Li883 N933 1.990 . S
Li883 O941 1.961 . S
Li883 O942 1.970 . S
Li883 O943 1.956 . S
C884 C886 1.348 . S
C884 C887 1.356 . S
C884 O940 1.325 . S
N885 C888 1.314 . S
N885 C889 1.279 . S
C886 C884 1.348 . S
C886 C888 1.353 . S
C886 H944 0.929 . S
C887 C884 1.356 . S
C887 C889 1.358 . S
C887 H945 0.930 . S
C888 N885 1.314 . S
C888 C886 1.353 . S
C888 H946 0.930 . S
C889 N885 1.279 . S
C889 C887 1.358 . S
C889 H947 0.930 . S
C890 C893 1.348 . S
C890 C894 1.356 . S
C890 O941 1.325 . S
C891 N892 1.279 . S
C891 C894 1.358 1_554 S
C891 H948 0.930 . S
N892 C891 1.279 . S
N892 C895 1.314 . S
C893 C890 1.348 . S
C893 C895 1.353 1_556 S
C893 H949 0.929 . S
C894 C890 1.356 . S
C894 C891 1.358 1_556 S
C894 H950 0.930 . S
C895 N892 1.314 . S
C895 C893 1.353 1_554 S
C895 H951 0.930 . S
C896 N897 1.314 . S
C896 C901 1.353 . S
C896 H902 0.930 . S
N897 Li880 1.990 . S
N897 C896 1.314 . S
N897 C899 1.279 . S
C898 C899 1.358 . S
C898 C900 1.356 . S
C898 H952 0.930 . S
C899 N897 1.279 . S
C899 C898 1.358 . S
C899 H903 0.930 . S
C900 C898 1.356 . S
C900 C901 1.348 . S
C901 C896 1.353 . S
C901 C900 1.348 . S
C901 H953 0.929 . S
H902 C896 0.930 . S
H903 C899 0.930 . S
C904 N905 1.314 . S
C904 C906 1.353 1_556 S
C904 H910 0.930 . S
N905 Li881 1.990 . S
N905 C904 1.314 . S
N905 C908 1.279 1_556 S
C906 C904 1.353 1_554 S
C906 C909 1.348 . S
C906 H954 0.929 . S
C907 C908 1.358 . S
C907 C909 1.356 . S
C907 H955 0.930 . S
C908 N905 1.279 1_554 S
C908 C907 1.358 . S
C908 H911 0.930 . S
C909 C906 1.348 . S
C909 C907 1.356 . S
H910 C904 0.930 . S
H911 C908 0.930 . S
C912 C914 1.348 . S
C912 C915 1.356 . S
C912 O942 1.325 . S
N913 C916 1.314 . S
N913 C917 1.279 . S
C914 C912 1.348 . S
C914 C916 1.353 . S
C914 H956 0.929 . S
C915 C912 1.356 . S
C915 C917 1.358 . S
C915 H957 0.930 . S
C916 N913 1.314 . S
C916 C914 1.353 . S
C916 H958 0.930 . S
C917 N913 1.279 . S
C917 C915 1.358 . S
C917 H959 0.930 . S
C918 C919 1.348 . S
C918 C920 1.356 . S
C918 O943 1.325 . S
C919 C918 1.348 . S
C919 C921 1.353 . S
C919 H960 0.929 . S
C920 C918 1.356 . S
C920 C922 1.358 . S
C920 H961 0.930 . S
C921 C919 1.353 . S
C921 N923 1.314 . S
C921 H962 0.930 . S
C922 C920 1.358 . S
C922 N923 1.279 . S
C922 H963 0.930 . S
N923 C921 1.314 . S
N923 C922 1.279 . S
C924 C926 1.353 . S
C924 N927 1.314 . S
C924 H930 0.930 . S
C925 N927 1.279 . S
C925 C928 1.358 . S
C925 H931 0.930 . S
C926 C924 1.353 . S
C926 C929 1.348 . S
C926 H964 0.929 . S
N927 Li882 1.990 . S
N927 C924 1.314 . S
N927 C925 1.279 . S
C928 C925 1.358 . S
C928 C929 1.356 . S
C928 H965 0.930 . S
C929 C926 1.348 . S
C929 C928 1.356 . S
H930 C924 0.930 . S
H931 C925 0.930 . S
C932 N933 1.314 . S
C932 C934 1.353 . S
C932 H938 0.930 . S
N933 Li883 1.990 . S
N933 C932 1.314 . S
N933 C936 1.279 . S
C934 C932 1.353 . S
C934 C937 1.348 . S
C934 H966 0.929 . S
C935 C936 1.358 . S
C935 C937 1.356 . S
C935 H967 0.930 . S
C936 N933 1.279 . S
C936 C935 1.358 . S
C936 H939 0.930 . S
C937 C934 1.348 . S
C937 C935 1.356 . S
H938 C932 0.930 . S
H939 C936 0.930 . S
O940 Li880 1.956 . S
O940 Li881 1.970 . S
O940 Li882 1.961 . S
O940 C884 1.325 . S
O941 Li880 1.970 . S
O941 Li881 1.956 . S
O941 Li883 1.961 . S
O941 C890 1.325 . S
O942 Li880 1.961 . S
O942 Li882 1.956 . S
O942 Li883 1.970 . S
O942 C912 1.325 . S
O943 Li881 1.961 . S
O943 Li882 1.970 . S
O943 Li883 1.956 . S
O943 C918 1.325 . S
H944 C886 0.929 . S
H945 C887 0.930 . S
H946 C888 0.930 . S
H947 C889 0.930 . S
H948 C891 0.930 . S
H949 C893 0.929 . S
H950 C894 0.930 . S
H951 C895 0.930 . S
H952 C898 0.930 . S
H953 C901 0.929 . S
H954 C906 0.929 . S
H955 C907 0.930 . S
H956 C914 0.929 . S
H957 C915 0.930 . S
H958 C916 0.930 . S
H959 C917 0.930 . S
H960 C919 0.929 . S
H961 C920 0.930 . S
H962 C921 0.930 . S
H963 C922 0.930 . S
H964 C926 0.929 . S
H965 C928 0.930 . S
H966 C934 0.929 . S
H967 C935 0.930 . S
Li968 N985 1.990 . S
Li968 O1028 1.956 . S
Li968 O1029 1.970 . S
Li968 O1030 1.961 . S
Li969 N993 1.990 . S
Li969 O1028 1.970 . S
Li969 O1029 1.956 . S
Li969 O1031 1.961 . S
Li970 N1015 1.990 . S
Li970 O1028 1.961 . S
Li970 O1030 1.956 . S
Li970 O1031 1.970 . S
Li971 N1021 1.990 . S
Li971 O1029 1.961 . S
Li971 O1030 1.970 . S
Li971 O1031 1.956 . S
C972 C974 1.348 . S
C972 C975 1.356 . S
C972 O1028 1.325 . S
N973 C976 1.314 . S
N973 C977 1.279 . S
C974 C972 1.348 . S
C974 C976 1.353 . S
C974 H1032 0.929 . S
C975 C972 1.356 . S
C975 C977 1.358 . S
C975 H1033 0.930 . S
C976 N973 1.314 . S
C976 C974 1.353 . S
C976 H1034 0.930 . S
C977 N973 1.279 . S
C977 C975 1.358 . S
C977 H1035 0.930 . S
C978 C981 1.348 . S
C978 C982 1.356 . S
C978 O1029 1.325 . S
C979 N980 1.279 . S
C979 C982 1.358 . S
C979 H1036 0.930 . S
N980 C979 1.279 . S
N980 C983 1.314 . S
C981 C978 1.348 . S
C981 C983 1.353 . S
C981 H1037 0.929 . S
C982 C978 1.356 . S
C982 C979 1.358 . S
C982 H1038 0.930 . S
C983 N980 1.314 . S
C983 C981 1.353 . S
C983 H1039 0.930 . S
C984 N985 1.314 . S
C984 C989 1.353 . S
C984 H990 0.930 . S
N985 Li968 1.990 . S
N985 C984 1.314 . S
N985 C987 1.279 . S
C986 C987 1.358 . S
C986 C988 1.356 . S
C986 H1040 0.930 . S
C987 N985 1.279 . S
C987 C986 1.358 . S
C987 H991 0.930 . S
C988 C986 1.356 . S
C988 C989 1.348 . S
C989 C984 1.353 . S
C989 C988 1.348 . S
C989 H1041 0.929 . S
H990 C984 0.930 . S
H991 C987 0.930 . S
C992 N993 1.314 . S
C992 C994 1.353 . S
C992 H998 0.930 . S
N993 Li969 1.990 . S
N993 C992 1.314 . S
N993 C996 1.279 . S
C994 C992 1.353 . S
C994 C997 1.348 . S
C994 H1042 0.929 . S
C995 C996 1.358 . S
C995 C997 1.356 . S
C995 H1043 0.930 . S
C996 N993 1.279 . S
C996 C995 1.358 . S
C996 H999 0.930 . S
C997 C994 1.348 . S
C997 C995 1.356 . S
H998 C992 0.930 . S
H999 C996 0.930 . S
C1000 C1002 1.348 . S
C1000 C1003 1.356 . S
C1000 O1030 1.325 . S
N1001 C1004 1.314 . S
N1001 C1005 1.279 . S
C1002 C1000 1.348 . S
C1002 C1004 1.353 . S
C1002 H1044 0.929 . S
C1003 C1000 1.356 . S
C1003 C1005 1.358 . S
C1003 H1045 0.930 . S
C1004 N1001 1.314 . S
C1004 C1002 1.353 . S
C1004 H1046 0.930 . S
C1005 N1001 1.279 . S
C1005 C1003 1.358 . S
C1005 H1047 0.930 . S
C1006 C1007 1.348 . S
C1006 C1008 1.356 . S
C1006 O1031 1.325 . S
C1007 C1006 1.348 . S
C1007 C1009 1.353 . S
C1007 H1048 0.929 . S
C1008 C1006 1.356 . S
C1008 C1010 1.358 . S
C1008 H1049 0.930 . S
C1009 C1007 1.353 . S
C1009 N1011 1.314 . S
C1009 H1050 0.930 . S
C1010 C1008 1.358 . S
C1010 N1011 1.279 . S
C1010 H1051 0.930 . S
N1011 C1009 1.314 . S
N1011 C1010 1.279 . S
C1012 C1014 1.353 . S
C1012 N1015 1.314 . S
C1012 H1018 0.930 . S
C1013 N1015 1.279 . S
C1013 C1016 1.358 . S
C1013 H1019 0.930 . S
C1014 C1012 1.353 . S
C1014 C1017 1.348 . S
C1014 H1052 0.929 . S
N1015 Li970 1.990 . S
N1015 C1012 1.314 . S
N1015 C1013 1.279 . S
C1016 C1013 1.358 . S
C1016 C1017 1.356 . S
C1016 H1053 0.930 . S
C1017 C1014 1.348 . S
C1017 C1016 1.356 . S
H1018 C1012 0.930 . S
H1019 C1013 0.930 . S
C1020 N1021 1.314 . S
C1020 C1022 1.353 . S
C1020 H1026 0.930 . S
N1021 Li971 1.990 . S
N1021 C1020 1.314 . S
N1021 C1024 1.279 . S
C1022 C1020 1.353 . S
C1022 C1025 1.348 . S
C1022 H1054 0.929 . S
C1023 C1024 1.358 . S
C1023 C1025 1.356 . S
C1023 H1055 0.930 . S
C1024 N1021 1.279 . S
C1024 C1023 1.358 . S
C1024 H1027 0.930 . S
C1025 C1022 1.348 . S
C1025 C1023 1.356 . S
H1026 C1020 0.930 . S
H1027 C1024 0.930 . S
O1028 Li968 1.956 . S
O1028 Li969 1.970 . S
O1028 Li970 1.961 . S
O1028 C972 1.325 . S
O1029 Li968 1.970 . S
O1029 Li969 1.956 . S
O1029 Li971 1.961 . S
O1029 C978 1.325 . S
O1030 Li968 1.961 . S
O1030 Li970 1.956 . S
O1030 Li971 1.970 . S
O1030 C1000 1.325 . S
O1031 Li969 1.961 . S
O1031 Li970 1.970 . S
O1031 Li971 1.956 . S
O1031 C1006 1.325 . S
H1032 C974 0.929 . S
H1033 C975 0.930 . S
H1034 C976 0.930 . S
H1035 C977 0.930 . S
H1036 C979 0.930 . S
H1037 C981 0.929 . S
H1038 C982 0.930 . S
H1039 C983 0.930 . S
H1040 C986 0.930 . S
H1041 C989 0.929 . S
H1042 C994 0.929 . S
H1043 C995 0.930 . S
H1044 C1002 0.929 . S
H1045 C1003 0.930 . S
H1046 C1004 0.930 . S
H1047 C1005 0.930 . S
H1048 C1007 0.929 . S
H1049 C1008 0.930 . S
H1050 C1009 0.930 . S
H1051 C1010 0.930 . S
H1052 C1014 0.929 . S
H1053 C1016 0.930 . S
H1054 C1022 0.929 . S
H1055 C1023 0.930 . S
Li1056 N1073 1.990 . S
Li1056 O1116 1.956 . S
Li1056 O1117 1.970 . S
Li1056 O1118 1.961 . S
Li1057 N1081 1.990 1_655 S
Li1057 O1116 1.970 . S
Li1057 O1117 1.956 . S
Li1057 O1119 1.961 . S
Li1058 N1103 1.990 . S
Li1058 O1116 1.961 . S
Li1058 O1118 1.956 . S
Li1058 O1119 1.970 . S
Li1059 N1109 1.990 . S
Li1059 O1117 1.961 . S
Li1059 O1118 1.970 . S
Li1059 O1119 1.956 . S
C1060 C1062 1.348 1_655 S
C1060 C1063 1.356 . S
C1060 O1116 1.325 . S
N1061 C1064 1.314 . S
N1061 C1065 1.279 1_455 S
C1062 C1060 1.348 1_455 S
C1062 C1064 1.353 . S
C1062 H1120 0.929 . S
C1063 C1060 1.356 . S
C1063 C1065 1.358 . S
C1063 H1121 0.930 . S
C1064 N1061 1.314 . S
C1064 C1062 1.353 . S
C1064 H1122 0.930 . S
C1065 N1061 1.279 1_655 S
C1065 C1063 1.358 . S
C1065 H1123 0.930 . S
C1066 C1069 1.348 . S
C1066 C1070 1.356 . S
C1066 O1117 1.325 . S
C1067 N1068 1.279 . S
C1067 C1070 1.358 . S
C1067 H1124 0.930 . S
N1068 C1067 1.279 . S
N1068 C1071 1.314 . S
C1069 C1066 1.348 . S
C1069 C1071 1.353 . S
C1069 H1125 0.929 . S
C1070 C1066 1.356 . S
C1070 C1067 1.358 . S
C1070 H1126 0.930 . S
C1071 N1068 1.314 . S
C1071 C1069 1.353 . S
C1071 H1127 0.930 . S
C1072 N1073 1.314 . S
C1072 C1077 1.353 . S
C1072 H1078 0.930 . S
N1073 Li1056 1.990 . S
N1073 C1072 1.314 . S
N1073 C1075 1.279 . S
C1074 C1075 1.358 . S
C1074 C1076 1.356 . S
C1074 H1128 0.930 . S
C1075 N1073 1.279 . S
C1075 C1074 1.358 . S
C1075 H1079 0.930 . S
C1076 C1074 1.356 . S
C1076 C1077 1.348 . S
C1077 C1072 1.353 . S
C1077 C1076 1.348 . S
C1077 H1129 0.929 . S
H1078 C1072 0.930 . S
H1079 C1075 0.930 . S
C1080 N1081 1.314 . S
C1080 C1082 1.353 . S
C1080 H1086 0.930 . S
N1081 Li1057 1.990 1_455 S
N1081 C1080 1.314 . S
N1081 C1084 1.279 . S
C1082 C1080 1.353 . S
C1082 C1085 1.348 . S
C1082 H1130 0.929 . S
C1083 C1084 1.358 . S
C1083 C1085 1.356 . S
C1083 H1131 0.930 . S
C1084 N1081 1.279 . S
C1084 C1083 1.358 . S
C1084 H1087 0.930 . S
C1085 C1082 1.348 . S
C1085 C1083 1.356 . S
H1086 C1080 0.930 . S
H1087 C1084 0.930 . S
C1088 C1090 1.348 . S
C1088 C1091 1.356 . S
C1088 O1118 1.325 . S
N1089 C1092 1.314 . S
N1089 C1093 1.279 . S
C1090 C1088 1.348 . S
C1090 C1092 1.353 . S
C1090 H1132 0.929 . S
C1091 C1088 1.356 . S
C1091 C1093 1.358 . S
C1091 H1133 0.930 . S
C1092 N1089 1.314 . S
C1092 C1090 1.353 . S
C1092 H1134 0.930 . S
C1093 N1089 1.279 . S
C1093 C1091 1.358 . S
C1093 H1135 0.930 . S
C1094 C1095 1.349 . S
C1094 C1096 1.374 . S
C1094 O1119 1.306 1_455 S
C1095 C1094 1.349 . S
C1095 C1097 1.353 1_554 S
C1095 H1136 0.929 1_455 S
C1096 C1094 1.374 . S
C1096 C1098 1.358 1_554 S
C1096 H1137 0.930 . S
C1097 C1095 1.353 1_556 S
C1097 N1099 1.314 . S
C1097 H1138 0.930 . S
C1098 C1096 1.358 1_556 S
C1098 N1099 1.279 . S
C1098 H1139 0.930 . S
N1099 C1097 1.314 . S
N1099 C1098 1.279 . S
C1100 C1102 1.353 . S
C1100 N1103 1.314 . S
C1100 H1106 0.930 1_655 S
C1101 N1103 1.279 . S
C1101 C1104 1.358 . S
C1101 H1107 0.930 . S
C1102 C1100 1.353 . S
C1102 C1105 1.348 . S
C1102 H1140 0.929 1_655 S
N1103 Li1058 1.990 . S
N1103 C1100 1.314 . S
N1103 C1101 1.279 . S
C1104 C1101 1.358 . S
C1104 C1105 1.356 . S
C1104 H1141 0.930 . S
C1105 C1102 1.348 . S
C1105 C1104 1.356 . S
H1106 C1100 0.930 1_455 S
H1107 C1101 0.930 . S
C1108 N1109 1.314 . S
C1108 C1110 1.353 1_554 S
C1108 H1114 0.930 . S
N1109 Li1059 1.990 . S
N1109 C1108 1.314 . S
N1109 C1112 1.279 1_554 S
C1110 C1108 1.353 1_556 S
C1110 C1113 1.348 . S
C1110 H1142 0.929 . S
C1111 C1112 1.358 . S
C1111 C1113 1.356 . S
C1111 H1143 0.930 . S
C1112 N1109 1.279 1_556 S
C1112 C1111 1.358 . S
C1112 H1115 0.930 . S
C1113 C1110 1.348 . S
C1113 C1111 1.356 . S
H1114 C1108 0.930 . S
H1115 C1112 0.930 . S
O1116 Li1056 1.956 . S
O1116 Li1057 1.970 . S
O1116 Li1058 1.961 . S
O1116 C1060 1.325 . S
O1117 Li1056 1.970 . S
O1117 Li1057 1.956 . S
O1117 Li1059 1.961 . S
O1117 C1066 1.325 . S
O1118 Li1056 1.961 . S
O1118 Li1058 1.956 . S
O1118 Li1059 1.970 . S
O1118 C1088 1.325 . S
O1119 Li1057 1.961 . S
O1119 Li1058 1.970 . S
O1119 Li1059 1.956 . S
O1119 C1094 1.306 1_655 S
H1120 C1062 0.929 . S
H1121 C1063 0.930 . S
H1122 C1064 0.930 . S
H1123 C1065 0.930 . S
H1124 C1067 0.930 . S
H1125 C1069 0.929 . S
H1126 C1070 0.930 . S
H1127 C1071 0.930 . S
H1128 C1074 0.930 . S
H1129 C1077 0.929 . S
H1130 C1082 0.929 . S
H1131 C1083 0.930 . S
H1132 C1090 0.929 . S
H1133 C1091 0.930 . S
H1134 C1092 0.930 . S
H1135 C1093 0.930 . S
H1136 C1095 0.929 1_655 S
H1137 C1096 0.930 . S
H1138 C1097 0.930 . S
H1139 C1098 0.930 . S
H1140 C1102 0.929 1_455 S
H1141 C1104 0.930 . S
H1142 C1110 0.929 . S
H1143 C1111 0.930 . S
Li1144 N1161 1.990 1_565 S
Li1144 O1204 1.956 . S
Li1144 O1205 1.970 . S
Li1144 O1206 1.961 . S
Li1145 N1169 1.990 . S
Li1145 O1204 1.970 . S
Li1145 O1205 1.956 . S
Li1145 O1207 1.961 . S
Li1146 N1191 1.990 . S
Li1146 O1204 1.961 . S
Li1146 O1206 1.956 . S
Li1146 O1207 1.970 . S
Li1147 N1197 1.990 . S
Li1147 O1205 1.961 . S
Li1147 O1206 1.970 . S
Li1147 O1207 1.956 . S
C1148 C1150 1.348 . S
C1148 C1151 1.356 . S
C1148 O1204 1.325 . S
N1149 C1152 1.314 . S
N1149 C1153 1.279 . S
C1150 C1148 1.348 . S
C1150 C1152 1.353 . S
C1150 H1208 0.929 . S
C1151 C1148 1.356 . S
C1151 C1153 1.358 . S
C1151 H1209 0.930 . S
C1152 N1149 1.314 . S
C1152 C1150 1.353 . S
C1152 H1210 0.930 . S
C1153 N1149 1.279 . S
C1153 C1151 1.358 . S
C1153 H1211 0.930 . S
C1154 C1157 1.348 1_565 S
C1154 C1158 1.356 . S
C1154 O1205 1.325 . S
C1155 N1156 1.279 1_565 S
C1155 C1158 1.358 . S
C1155 H1212 0.930 . S
N1156 C1155 1.279 1_545 S
N1156 C1159 1.314 . S
C1157 C1154 1.348 1_545 S
C1157 C1159 1.353 . S
C1157 H1213 0.929 . S
C1158 C1154 1.356 . S
C1158 C1155 1.358 . S
C1158 H1214 0.930 . S
C1159 N1156 1.314 . S
C1159 C1157 1.353 . S
C1159 H1215 0.930 . S
C1160 N1161 1.314 . S
C1160 C1165 1.353 . S
C1160 H1166 0.930 . S
N1161 Li1144 1.990 1_545 S
N1161 C1160 1.314 . S
N1161 C1163 1.279 . S
C1162 C1163 1.358 . S
C1162 C1164 1.356 . S
C1162 H1216 0.930 . S
C1163 N1161 1.279 . S
C1163 C1162 1.358 . S
C1163 H1167 0.930 . S
C1164 C1162 1.356 . S
C1164 C1165 1.348 . S
C1165 C1160 1.353 . S
C1165 C1164 1.348 . S
C1165 H1217 0.929 . S
H1166 C1160 0.930 . S
H1167 C1163 0.930 . S
C1168 N1169 1.314 . S
C1168 C1170 1.353 . S
C1168 H1174 0.930 . S
N1169 Li1145 1.990 . S
N1169 C1168 1.314 . S
N1169 C1172 1.279 . S
C1170 C1168 1.353 . S
C1170 C1173 1.348 . S
C1170 H1218 0.929 . S
C1171 C1172 1.358 . S
C1171 C1173 1.356 . S
C1171 H1219 0.930 . S
C1172 N1169 1.279 . S
C1172 C1171 1.358 . S
C1172 H1175 0.930 . S
C1173 C1170 1.348 . S
C1173 C1171 1.356 . S
H1174 C1168 0.930 . S
H1175 C1172 0.930 . S
C1176 C1178 1.349 . S
C1176 C1179 1.374 . S
C1176 O1206 1.306 1_545 S
N1177 C1180 1.314 . S
N1177 C1181 1.279 . S
C1178 C1176 1.349 . S
C1178 C1180 1.353 . S
C1178 H1220 0.929 1_545 S
C1179 C1176 1.374 . S
C1179 C1181 1.358 . S
C1179 H1221 0.930 . S
C1180 N1177 1.314 . S
C1180 C1178 1.353 . S
C1180 H1222 0.930 . S
C1181 N1177 1.279 . S
C1181 C1179 1.358 . S
C1181 H1223 0.930 . S
C1182 C1183 1.348 . S
C1182 C1184 1.356 . S
C1182 O1207 1.325 . S
C1183 C1182 1.348 . S
C1183 C1185 1.353 . S
C1183 H1224 0.929 . S
C1184 C1182 1.356 . S
C1184 C1186 1.358 . S
C1184 H1225 0.930 . S
C1185 C1183 1.353 . S
C1185 N1187 1.314 . S
C1185 H1226 0.930 . S
C1186 C1184 1.358 . S
C1186 N1187 1.279 . S
C1186 H1227 0.930 . S
N1187 C1185 1.314 . S
N1187 C1186 1.279 . S
C1188 C1190 1.353 . S
C1188 N1191 1.314 . S
C1188 H1194 0.930 . S
C1189 N1191 1.279 . S
C1189 C1192 1.358 . S
C1189 H1195 0.930 . S
C1190 C1188 1.353 . S
C1190 C1193 1.348 . S
C1190 H1228 0.929 . S
N1191 Li1146 1.990 . S
N1191 C1188 1.314 . S
N1191 C1189 1.279 . S
C1192 C1189 1.358 . S
C1192 C1193 1.356 . S
C1192 H1229 0.930 . S
C1193 C1190 1.348 . S
C1193 C1192 1.356 . S
H1194 C1188 0.930 . S
H1195 C1189 0.930 . S
C1196 N1197 1.314 . S
C1196 C1198 1.353 . S
C1196 H1202 0.930 1_565 S
N1197 Li1147 1.990 . S
N1197 C1196 1.314 . S
N1197 C1200 1.279 . S
C1198 C1196 1.353 . S
C1198 C1201 1.348 . S
C1198 H1230 0.929 1_565 S
C1199 C1200 1.358 . S
C1199 C1201 1.356 . S
C1199 H1231 0.930 . S
C1200 N1197 1.279 . S
C1200 C1199 1.358 . S
C1200 H1203 0.930 . S
C1201 C1198 1.348 . S
C1201 C1199 1.356 . S
H1202 C1196 0.930 1_545 S
H1203 C1200 0.930 . S
O1204 Li1144 1.956 . S
O1204 Li1145 1.970 . S
O1204 Li1146 1.961 . S
O1204 C1148 1.325 . S
O1205 Li1144 1.970 . S
O1205 Li1145 1.956 . S
O1205 Li1147 1.961 . S
O1205 C1154 1.325 . S
O1206 Li1144 1.961 . S
O1206 Li1146 1.956 . S
O1206 Li1147 1.970 . S
O1206 C1176 1.306 1_565 S
O1207 Li1145 1.961 . S
O1207 Li1146 1.970 . S
O1207 Li1147 1.956 . S
O1207 C1182 1.325 . S
H1208 C1150 0.929 . S
H1209 C1151 0.930 . S
H1210 C1152 0.930 . S
H1211 C1153 0.930 . S
H1212 C1155 0.930 . S
H1213 C1157 0.929 . S
H1214 C1158 0.930 . S
H1215 C1159 0.930 . S
H1216 C1162 0.930 . S
H1217 C1165 0.929 . S
H1218 C1170 0.929 . S
H1219 C1171 0.930 . S
H1220 C1178 0.929 1_565 S
H1221 C1179 0.930 . S
H1222 C1180 0.930 . S
H1223 C1181 0.930 . S
H1224 C1183 0.929 . S
H1225 C1184 0.930 . S
H1226 C1185 0.930 . S
H1227 C1186 0.930 . S
H1228 C1190 0.929 . S
H1229 C1192 0.930 . S
H1230 C1198 0.929 1_545 S
H1231 C1199 0.930 . S
Li1232 N1249 1.990 . S
Li1232 O1292 1.956 . S
Li1232 O1293 1.970 . S
Li1232 O1294 1.961 . S
Li1233 N1257 1.990 . S
Li1233 O1292 1.970 . S
Li1233 O1293 1.956 . S
Li1233 O1295 1.961 . S
Li1234 N1279 1.990 . S
Li1234 O1292 1.961 . S
Li1234 O1294 1.956 . S
Li1234 O1295 1.970 . S
Li1235 N1285 1.990 . S
Li1235 O1293 1.961 . S
Li1235 O1294 1.970 . S
Li1235 O1295 1.956 . S
C1236 C1238 1.348 . S
C1236 C1239 1.356 . S
C1236 O1292 1.325 . S
N1237 C1240 1.314 . S
N1237 C1241 1.279 . S
C1238 C1236 1.348 . S
C1238 C1240 1.353 . S
C1238 H1296 0.929 . S
C1239 C1236 1.356 . S
C1239 C1241 1.358 . S
C1239 H1297 0.930 . S
C1240 N1237 1.314 . S
C1240 C1238 1.353 . S
C1240 H1298 0.930 . S
C1241 N1237 1.279 . S
C1241 C1239 1.358 . S
C1241 H1299 0.930 . S
C1242 C1245 1.348 . S
C1242 C1246 1.356 . S
C1242 O1293 1.325 . S
C1243 N1244 1.279 . S
C1243 C1246 1.358 . S
C1243 H1300 0.930 . S
N1244 C1243 1.279 . S
N1244 C1247 1.314 . S
C1245 C1242 1.348 . S
C1245 C1247 1.353 . S
C1245 H1301 0.929 . S
C1246 C1242 1.356 . S
C1246 C1243 1.358 . S
C1246 H1302 0.930 . S
C1247 N1244 1.314 . S
C1247 C1245 1.353 . S
C1247 H1303 0.930 . S
C1248 N1249 1.314 . S
C1248 C1253 1.353 . S
C1248 H1254 0.930 . S
N1249 Li1232 1.990 . S
N1249 C1248 1.314 . S
N1249 C1251 1.279 . S
C1250 C1251 1.358 . S
C1250 C1252 1.356 . S
C1250 H1304 0.930 . S
C1251 N1249 1.279 . S
C1251 C1250 1.358 . S
C1251 H1255 0.930 . S
C1252 C1250 1.356 . S
C1252 C1253 1.348 . S
C1253 C1248 1.353 . S
C1253 C1252 1.348 . S
C1253 H1305 0.929 . S
H1254 C1248 0.930 . S
H1255 C1251 0.930 . S
C1256 N1257 1.314 . S
C1256 C1258 1.353 . S
C1256 H1262 0.930 . S
N1257 Li1233 1.990 . S
N1257 C1256 1.314 . S
N1257 C1260 1.279 . S
C1258 C1256 1.353 . S
C1258 C1261 1.348 . S
C1258 H1306 0.929 . S
C1259 C1260 1.358 . S
C1259 C1261 1.356 . S
C1259 H1307 0.930 . S
C1260 N1257 1.279 . S
C1260 C1259 1.358 . S
C1260 H1263 0.930 . S
C1261 C1258 1.348 . S
C1261 C1259 1.356 . S
H1262 C1256 0.930 . S
H1263 C1260 0.930 . S
C1264 C1266 1.348 . S
C1264 C1267 1.356 . S
C1264 O1294 1.325 . S
N1265 C1268 1.314 . S
N1265 C1269 1.279 . S
C1266 C1264 1.348 . S
C1266 C1268 1.353 1_554 S
C1266 H1308 0.929 . S
C1267 C1264 1.356 . S
C1267 C1269 1.358 1_554 S
C1267 H1309 0.930 . S
C1268 N1265 1.314 . S
C1268 C1266 1.353 1_556 S
C1268 H1310 0.930 . S
C1269 N1265 1.279 . S
C1269 C1267 1.358 1_556 S
C1269 H1311 0.930 . S
C1270 C1271 1.348 . S
C1270 C1272 1.356 . S
C1270 O1295 1.325 . S
C1271 C1270 1.348 . S
C1271 C1273 1.353 . S
C1271 H1312 0.929 . S
C1272 C1270 1.356 . S
C1272 C1274 1.358 . S
C1272 H1313 0.930 . S
C1273 C1271 1.353 . S
C1273 N1275 1.314 . S
C1273 H1314 0.930 . S
C1274 C1272 1.358 . S
C1274 N1275 1.279 . S
C1274 H1315 0.930 . S
N1275 C1273 1.314 . S
N1275 C1274 1.279 . S
C1276 C1278 1.353 1_554 S
C1276 N1279 1.314 . S
C1276 H1282 0.930 . S
C1277 N1279 1.279 1_556 S
C1277 C1280 1.358 . S
C1277 H1283 0.930 . S
C1278 C1276 1.353 1_556 S
C1278 C1281 1.348 . S
C1278 H1316 0.929 . S
N1279 Li1234 1.990 . S
N1279 C1276 1.314 . S
N1279 C1277 1.279 1_554 S
C1280 C1277 1.358 . S
C1280 C1281 1.356 . S
C1280 H1317 0.930 . S
C1281 C1278 1.348 . S
C1281 C1280 1.356 . S
H1282 C1276 0.930 . S
H1283 C1277 0.930 . S
C1284 N1285 1.314 . S
C1284 C1286 1.353 . S
C1284 H1290 0.930 . S
N1285 Li1235 1.990 . S
N1285 C1284 1.314 . S
N1285 C1288 1.279 . S
C1286 C1284 1.353 . S
C1286 C1289 1.348 . S
C1286 H1318 0.929 . S
C1287 C1288 1.358 . S
C1287 C1289 1.356 . S
C1287 H1319 0.930 . S
C1288 N1285 1.279 . S
C1288 C1287 1.358 . S
C1288 H1291 0.930 . S
C1289 C1286 1.348 . S
C1289 C1287 1.356 . S
H1290 C1284 0.930 . S
H1291 C1288 0.930 . S
O1292 Li1232 1.956 . S
O1292 Li1233 1.970 . S
O1292 Li1234 1.961 . S
O1292 C1236 1.325 . S
O1293 Li1232 1.970 . S
O1293 Li1233 1.956 . S
O1293 Li1235 1.961 . S
O1293 C1242 1.325 . S
O1294 Li1232 1.961 . S
O1294 Li1234 1.956 . S
O1294 Li1235 1.970 . S
O1294 C1264 1.325 . S
O1295 Li1233 1.961 . S
O1295 Li1234 1.970 . S
O1295 Li1235 1.956 . S
O1295 C1270 1.325 . S
H1296 C1238 0.929 . S
H1297 C1239 0.930 . S
H1298 C1240 0.930 . S
H1299 C1241 0.930 . S
H1300 C1243 0.930 . S
H1301 C1245 0.929 . S
H1302 C1246 0.930 . S
H1303 C1247 0.930 . S
H1304 C1250 0.930 . S
H1305 C1253 0.929 . S
H1306 C1258 0.929 . S
H1307 C1259 0.930 . S
H1308 C1266 0.929 . S
H1309 C1267 0.930 . S
H1310 C1268 0.930 . S
H1311 C1269 0.930 . S
H1312 C1271 0.929 . S
H1313 C1272 0.930 . S
H1314 C1273 0.930 . S
H1315 C1274 0.930 . S
H1316 C1278 0.929 . S
H1317 C1280 0.930 . S
H1318 C1286 0.929 . S
H1319 C1287 0.930 . S
Li1320 N1337 1.990 . S
Li1320 O1380 1.956 . S
Li1320 O1381 1.970 . S
Li1320 O1382 1.961 . S
Li1321 N1345 1.990 . S
Li1321 O1380 1.970 . S
Li1321 O1381 1.956 . S
Li1321 O1383 1.961 . S
Li1322 N1367 1.990 . S
Li1322 O1380 1.961 . S
Li1322 O1382 1.956 . S
Li1322 O1383 1.970 . S
Li1323 N1373 1.990 . S
Li1323 O1381 1.961 . S
Li1323 O1382 1.970 . S
Li1323 O1383 1.956 . S
C1324 C1326 1.348 . S
C1324 C1327 1.356 . S
C1324 O1380 1.325 . S
N1325 C1328 1.314 . S
N1325 C1329 1.279 . S
C1326 C1324 1.348 . S
C1326 C1328 1.353 . S
C1326 H1384 0.929 . S
C1327 C1324 1.356 . S
C1327 C1329 1.358 . S
C1327 H1385 0.930 . S
C1328 N1325 1.314 . S
C1328 C1326 1.353 . S
C1328 H1386 0.930 . S
C1329 N1325 1.279 . S
C1329 C1327 1.358 . S
C1329 H1387 0.930 . S
C1330 C1333 1.348 . S
C1330 C1334 1.356 . S
C1330 O1381 1.325 . S
C1331 N1332 1.279 . S
C1331 C1334 1.358 . S
C1331 H1388 0.930 . S
N1332 C1331 1.279 . S
N1332 C1335 1.314 . S
C1333 C1330 1.348 . S
C1333 C1335 1.353 . S
C1333 H1389 0.929 . S
C1334 C1330 1.356 . S
C1334 C1331 1.358 . S
C1334 H1390 0.930 . S
C1335 N1332 1.314 . S
C1335 C1333 1.353 . S
C1335 H1391 0.930 . S
C1336 N1337 1.314 . S
C1336 C1341 1.353 . S
C1336 H1342 0.930 . S
N1337 Li1320 1.990 . S
N1337 C1336 1.314 . S
N1337 C1339 1.279 . S
C1338 C1339 1.358 . S
C1338 C1340 1.356 . S
C1338 H1392 0.930 . S
C1339 N1337 1.279 . S
C1339 C1338 1.358 . S
C1339 H1343 0.930 . S
C1340 C1338 1.356 . S
C1340 C1341 1.348 . S
C1341 C1336 1.353 . S
C1341 C1340 1.348 . S
C1341 H1393 0.929 . S
H1342 C1336 0.930 . S
H1343 C1339 0.930 . S
C1344 N1345 1.314 . S
C1344 C1346 1.353 . S
C1344 H1350 0.930 . S
N1345 Li1321 1.990 . S
N1345 C1344 1.314 . S
N1345 C1348 1.279 . S
C1346 C1344 1.353 . S
C1346 C1349 1.348 . S
C1346 H1394 0.929 . S
C1347 C1348 1.358 . S
C1347 C1349 1.356 . S
C1347 H1395 0.930 . S
C1348 N1345 1.279 . S
C1348 C1347 1.358 . S
C1348 H1351 0.930 . S
C1349 C1346 1.348 . S
C1349 C1347 1.356 . S
H1350 C1344 0.930 . S
H1351 C1348 0.930 . S
C1352 C1354 1.348 . S
C1352 C1355 1.356 . S
C1352 O1382 1.325 . S
N1353 C1356 1.314 . S
N1353 C1357 1.279 . S
C1354 C1352 1.348 . S
C1354 C1356 1.353 . S
C1354 H1396 0.929 . S
C1355 C1352 1.356 . S
C1355 C1357 1.358 . S
C1355 H1397 0.930 . S
C1356 N1353 1.314 . S
C1356 C1354 1.353 . S
C1356 H1398 0.930 . S
C1357 N1353 1.279 . S
C1357 C1355 1.358 . S
C1357 H1399 0.930 . S
C1358 C1359 1.348 . S
C1358 C1360 1.356 . S
C1358 O1383 1.325 . S
C1359 C1358 1.348 . S
C1359 C1361 1.353 . S
C1359 H1400 0.929 . S
C1360 C1358 1.356 . S
C1360 C1362 1.358 . S
C1360 H1401 0.930 . S
C1361 C1359 1.353 . S
C1361 N1363 1.314 . S
C1361 H1402 0.930 . S
C1362 C1360 1.358 . S
C1362 N1363 1.279 . S
C1362 H1403 0.930 . S
N1363 C1361 1.314 . S
N1363 C1362 1.279 . S
C1364 C1366 1.353 . S
C1364 N1367 1.314 . S
C1364 H1370 0.930 . S
C1365 N1367 1.279 . S
C1365 C1368 1.358 . S
C1365 H1371 0.930 . S
C1366 C1364 1.353 . S
C1366 C1369 1.348 . S
C1366 H1404 0.929 . S
N1367 Li1322 1.990 . S
N1367 C1364 1.314 . S
N1367 C1365 1.279 . S
C1368 C1365 1.358 . S
C1368 C1369 1.356 . S
C1368 H1405 0.930 . S
C1369 C1366 1.348 . S
C1369 C1368 1.356 . S
H1370 C1364 0.930 . S
H1371 C1365 0.930 . S
C1372 N1373 1.314 . S
C1372 C1374 1.353 . S
C1372 H1378 0.930 . S
N1373 Li1323 1.990 . S
N1373 C1372 1.314 . S
N1373 C1376 1.279 . S
C1374 C1372 1.353 . S
C1374 C1377 1.348 . S
C1374 H1406 0.929 . S
C1375 C1376 1.358 . S
C1375 C1377 1.356 . S
C1375 H1407 0.930 . S
C1376 N1373 1.279 . S
C1376 C1375 1.358 . S
C1376 H1379 0.930 . S
C1377 C1374 1.348 . S
C1377 C1375 1.356 . S
H1378 C1372 0.930 . S
H1379 C1376 0.930 . S
O1380 Li1320 1.956 . S
O1380 Li1321 1.970 . S
O1380 Li1322 1.961 . S
O1380 C1324 1.325 . S
O1381 Li1320 1.970 . S
O1381 Li1321 1.956 . S
O1381 Li1323 1.961 . S
O1381 C1330 1.325 . S
O1382 Li1320 1.961 . S
O1382 Li1322 1.956 . S
O1382 Li1323 1.970 . S
O1382 C1352 1.325 . S
O1383 Li1321 1.961 . S
O1383 Li1322 1.970 . S
O1383 Li1323 1.956 . S
O1383 C1358 1.325 . S
H1384 C1326 0.929 . S
H1385 C1327 0.930 . S
H1386 C1328 0.930 . S
H1387 C1329 0.930 . S
H1388 C1331 0.930 . S
H1389 C1333 0.929 . S
H1390 C1334 0.930 . S
H1391 C1335 0.930 . S
H1392 C1338 0.930 . S
H1393 C1341 0.929 . S
H1394 C1346 0.929 . S
H1395 C1347 0.930 . S
H1396 C1354 0.929 . S
H1397 C1355 0.930 . S
H1398 C1356 0.930 . S
H1399 C1357 0.930 . S
H1400 C1359 0.929 . S
H1401 C1360 0.930 . S
H1402 C1361 0.930 . S
H1403 C1362 0.930 . S
H1404 C1366 0.929 . S
H1405 C1368 0.930 . S
H1406 C1374 0.929 . S
H1407 C1375 0.930 . S
C1408 C1409 1.387 1_655 S
C1408 H1412 0.950 . S
C1408 C1417 1.390 1_554 S
C1409 C1408 1.387 1_455 S
C1409 C1411 1.387 . S
H1410 C1417 0.950 . S
C1411 C1409 1.387 . S
C1411 C1413 1.390 1_554 S
C1411 H1415 0.950 . S
H1412 C1408 0.950 . S
C1413 C1411 1.390 1_556 S
C1413 C1414 1.387 . S
C1413 H1416 0.950 . S
C1414 C1413 1.387 . S
C1414 C1417 1.387 1_455 S
H1415 C1411 0.950 . S
H1416 C1413 0.950 . S
C1417 C1408 1.390 1_556 S
C1417 H1410 0.950 . S
C1417 C1414 1.387 1_655 S
C1418 C1419 1.387 1_565 S
C1418 H1422 0.950 . S
C1418 C1427 1.390 . S
C1419 C1418 1.387 1_545 S
C1419 C1421 1.387 . S
H1420 C1427 0.950 . S
C1421 C1419 1.387 . S
C1421 C1423 1.390 . S
C1421 H1425 0.950 . S
H1422 C1418 0.950 . S
C1423 C1421 1.390 . S
C1423 C1424 1.387 . S
C1423 H1426 0.950 . S
C1424 C1423 1.387 . S
C1424 C1427 1.387 1_545 S
H1425 C1421 0.950 . S
H1426 C1423 0.950 . S
C1427 C1418 1.390 . S
C1427 H1420 0.950 . S
C1427 C1424 1.387 1_565 S
C1428 C1429 1.387 . S
C1428 H1432 0.950 . S
C1428 C1437 1.390 1_554 S
C1429 C1428 1.387 . S
C1429 C1431 1.387 . S
H1430 C1437 0.950 . S
C1431 C1429 1.387 . S
C1431 C1433 1.390 1_554 S
C1431 H1435 0.950 . S
H1432 C1428 0.950 . S
C1433 C1431 1.390 1_556 S
C1433 C1434 1.387 . S
C1433 H1436 0.950 . S
C1434 C1433 1.387 . S
C1434 C1437 1.387 . S
H1435 C1431 0.950 . S
H1436 C1433 0.950 . S
C1437 C1428 1.390 1_556 S
C1437 H1430 0.950 . S
C1437 C1434 1.387 . S
C1438 C1439 1.387 . S
C1438 H1442 0.950 . S
C1438 C1447 1.390 . S
C1439 C1438 1.387 . S
C1439 C1441 1.387 . S
H1440 C1447 0.950 . S
C1441 C1439 1.387 . S
C1441 C1443 1.390 . S
C1441 H1445 0.950 . S
H1442 C1438 0.950 . S
C1443 C1441 1.390 . S
C1443 C1444 1.387 . S
C1443 H1446 0.950 . S
C1444 C1443 1.387 . S
C1444 C1447 1.387 . S
H1445 C1441 0.950 . S
H1446 C1443 0.950 . S
C1447 C1438 1.390 . S
C1447 H1440 0.950 . S
C1447 C1444 1.387 . S
C1448 C1449 1.387 1_455 S
C1448 H1452 0.950 . S
C1448 C1457 1.390 1_556 S
C1449 C1448 1.387 1_655 S
C1449 C1451 1.387 . S
H1450 C1457 0.950 . S
C1451 C1449 1.387 . S
C1451 C1453 1.390 1_556 S
C1451 H1455 0.950 . S
H1452 C1448 0.950 . S
C1453 C1451 1.390 1_554 S
C1453 C1454 1.387 . S
C1453 H1456 0.950 . S
C1454 C1453 1.387 . S
C1454 C1457 1.387 1_655 S
H1455 C1451 0.950 . S
H1456 C1453 0.950 . S
C1457 C1448 1.390 1_554 S
C1457 H1450 0.950 . S
C1457 C1454 1.387 1_455 S
C1458 C1459 1.387 . S
C1458 H1462 0.950 . S
C1458 C1467 1.390 . S
C1459 C1458 1.387 . S
C1459 C1461 1.387 1_565 S
H1460 C1467 0.950 . S
C1461 C1459 1.387 1_545 S
C1461 C1463 1.390 . S
C1461 H1465 0.950 . S
H1462 C1458 0.950 . S
C1463 C1461 1.390 . S
C1463 C1464 1.387 1_545 S
C1463 H1466 0.950 . S
C1464 C1463 1.387 1_565 S
C1464 C1467 1.387 . S
H1465 C1461 0.950 . S
H1466 C1463 0.950 . S
C1467 C1458 1.390 . S
C1467 H1460 0.950 . S
C1467 C1464 1.387 . S
C1468 C1469 1.387 . S
C1468 H1472 0.950 . S
C1468 C1477 1.390 1_556 S
C1469 C1468 1.387 . S
C1469 C1471 1.387 . S
H1470 C1477 0.950 . S
C1471 C1469 1.387 . S
C1471 C1473 1.390 1_556 S
C1471 H1475 0.950 . S
H1472 C1468 0.950 . S
C1473 C1471 1.390 1_554 S
C1473 C1474 1.387 . S
C1473 H1476 0.950 . S
C1474 C1473 1.387 . S
C1474 C1477 1.387 . S
H1475 C1471 0.950 . S
H1476 C1473 0.950 . S
C1477 C1468 1.390 1_554 S
C1477 H1470 0.950 . S
C1477 C1474 1.387 . S
C1478 C1479 1.387 . S
C1478 H1482 0.950 . S
C1478 C1487 1.390 . S
C1479 C1478 1.387 . S
C1479 C1481 1.387 . S
H1480 C1487 0.950 . S
C1481 C1479 1.387 . S
C1481 C1483 1.390 . S
C1481 H1485 0.950 . S
H1482 C1478 0.950 . S
C1483 C1481 1.390 . S
C1483 C1484 1.387 . S
C1483 H1486 0.950 . S
C1484 C1483 1.387 . S
C1484 C1487 1.387 . S
H1485 C1481 0.950 . S
H1486 C1483 0.950 . S
C1487 C1478 1.390 . S
C1487 H1480 0.950 . S
C1487 C1484 1.387 . S
C1488 C1489 1.387 . S
C1488 H1492 0.950 . S
C1488 C1497 1.390 . S
C1489 C1488 1.387 . S
C1489 C1491 1.387 . S
H1490 C1497 0.950 . S
C1491 C1489 1.387 . S
C1491 C1493 1.390 . S
C1491 H1495 0.950 . S
H1492 C1488 0.950 . S
C1493 C1491 1.390 . S
C1493 C1494 1.387 . S
C1493 H1496 0.950 . S
C1494 C1493 1.387 . S
C1494 C1497 1.387 . S
H1495 C1491 0.950 . S
H1496 C1493 0.950 . S
C1497 C1488 1.390 . S
C1497 H1490 0.950 . S
C1497 C1494 1.387 . S
C1498 C1499 1.387 . S
C1498 H1502 0.950 . S
C1498 C1507 1.390 . S
C1499 C1498 1.387 . S
C1499 C1501 1.387 . S
H1500 C1507 0.950 . S
C1501 C1499 1.387 . S
C1501 C1503 1.390 . S
C1501 H1505 0.950 . S
H1502 C1498 0.950 . S
C1503 C1501 1.390 . S
C1503 C1504 1.387 . S
C1503 H1506 0.950 . S
C1504 C1503 1.387 . S
C1504 C1507 1.387 . S
H1505 C1501 0.950 . S
H1506 C1503 0.950 . S
C1507 C1498 1.390 . S
C1507 H1500 0.950 . S
C1507 C1504 1.387 . S
C1508 C1509 1.387 . S
C1508 H1512 0.950 . S
C1508 C1517 1.390 . S
C1509 C1508 1.387 . S
C1509 C1511 1.387 . S
H1510 C1517 0.950 . S
C1511 C1509 1.387 . S
C1511 C1513 1.390 . S
C1511 H1515 0.950 . S
H1512 C1508 0.950 . S
C1513 C1511 1.390 . S
C1513 C1514 1.387 . S
C1513 H1516 0.950 . S
C1514 C1513 1.387 . S
C1514 C1517 1.387 . S
H1515 C1511 0.950 . S
H1516 C1513 0.950 . S
C1517 C1508 1.390 . S
C1517 H1510 0.950 . S
C1517 C1514 1.387 . S
C1518 C1519 1.387 . S
C1518 H1522 0.950 . S
C1518 C1527 1.390 . S
C1519 C1518 1.387 . S
C1519 C1521 1.387 . S
H1520 C1527 0.950 . S
C1521 C1519 1.387 . S
C1521 C1523 1.390 . S
C1521 H1525 0.950 . S
H1522 C1518 0.950 . S
C1523 C1521 1.390 . S
C1523 C1524 1.387 . S
C1523 H1526 0.950 . S
C1524 C1523 1.387 . S
C1524 C1527 1.387 . S
H1525 C1521 0.950 . S
H1526 C1523 0.950 . S
C1527 C1518 1.390 . S
C1527 H1520 0.950 . S
C1527 C1524 1.387 . S
C1528 C1529 1.387 . S
C1528 H1532 0.950 . S
C1528 C1537 1.390 . S
C1529 C1528 1.387 . S
C1529 C1531 1.387 . S
H1530 C1537 0.950 . S
C1531 C1529 1.387 . S
C1531 C1533 1.390 . S
C1531 H1535 0.950 . S
H1532 C1528 0.950 . S
C1533 C1531 1.390 . S
C1533 C1534 1.387 . S
C1533 H1536 0.950 . S
C1534 C1533 1.387 . S
C1534 C1537 1.387 . S
H1535 C1531 0.950 . S
H1536 C1533 0.950 . S
C1537 C1528 1.390 . S
C1537 H1530 0.950 . S
C1537 C1534 1.387 . S
C1538 C1539 1.387 . S
C1538 H1542 0.950 . S
C1538 C1547 1.390 . S
C1539 C1538 1.387 . S
C1539 C1541 1.387 . S
H1540 C1547 0.950 . S
C1541 C1539 1.387 . S
C1541 C1543 1.390 . S
C1541 H1545 0.950 . S
H1542 C1538 0.950 . S
C1543 C1541 1.390 . S
C1543 C1544 1.387 . S
C1543 H1546 0.950 . S
C1544 C1543 1.387 . S
C1544 C1547 1.387 . S
H1545 C1541 0.950 . S
H1546 C1543 0.950 . S
C1547 C1538 1.390 . S
C1547 H1540 0.950 . S
C1547 C1544 1.387 . S
C1548 C1549 1.387 . S
C1548 H1552 0.950 . S
C1548 C1557 1.390 . S
C1549 C1548 1.387 . S
C1549 C1551 1.387 . S
H1550 C1557 0.950 . S
C1551 C1549 1.387 . S
C1551 C1553 1.390 . S
C1551 H1555 0.950 . S
H1552 C1548 0.950 . S
C1553 C1551 1.390 . S
C1553 C1554 1.387 . S
C1553 H1556 0.950 . S
C1554 C1553 1.387 . S
C1554 C1557 1.387 . S
H1555 C1551 0.950 . S
H1556 C1553 0.950 . S
C1557 C1548 1.390 . S
C1557 H1550 0.950 . S
C1557 C1554 1.387 . S
C1558 C1559 1.387 . S
C1558 H1562 0.950 . S
C1558 C1567 1.390 . S
C1559 C1558 1.387 . S
C1559 C1561 1.387 . S
H1560 C1567 0.950 . S
C1561 C1559 1.387 . S
C1561 C1563 1.390 . S
C1561 H1565 0.950 . S
H1562 C1558 0.950 . S
C1563 C1561 1.390 . S
C1563 C1564 1.387 . S
C1563 H1566 0.950 . S
C1564 C1563 1.387 . S
C1564 C1567 1.387 . S
H1565 C1561 0.950 . S
H1566 C1563 0.950 . S
C1567 C1558 1.390 . S
C1567 H1560 0.950 . S
C1567 C1564 1.387 . S
C1568 C1569 1.387 . S
C1568 H1572 0.950 . S
C1568 C1577 1.390 . S
C1569 C1568 1.387 . S
C1569 C1571 1.387 . S
H1570 C1577 0.950 . S
C1571 C1569 1.387 . S
C1571 C1573 1.390 . S
C1571 H1575 0.950 . S
H1572 C1568 0.950 . S
C1573 C1571 1.390 . S
C1573 C1574 1.387 . S
C1573 H1576 0.950 . S
C1574 C1573 1.387 . S
C1574 C1577 1.387 . S
H1575 C1571 0.950 . S
H1576 C1573 0.950 . S
C1577 C1568 1.390 . S
C1577 H1570 0.950 . S
C1577 C1574 1.387 . S
C1578 C1579 1.387 . S
C1578 H1582 0.950 . S
C1578 C1587 1.390 . S
C1579 C1578 1.387 . S
C1579 C1581 1.387 . S
H1580 C1587 0.950 . S
C1581 C1579 1.387 . S
C1581 C1583 1.390 . S
C1581 H1585 0.950 . S
H1582 C1578 0.950 . S
C1583 C1581 1.390 . S
C1583 C1584 1.387 . S
C1583 H1586 0.950 . S
C1584 C1583 1.387 . S
C1584 C1587 1.387 . S
H1585 C1581 0.950 . S
H1586 C1583 0.950 . S
C1587 C1578 1.390 . S
C1587 H1580 0.950 . S
C1587 C1584 1.387 . S
C1588 C1589 1.387 . S
C1588 H1592 0.950 . S
C1588 C1597 1.390 . S
C1589 C1588 1.387 . S
C1589 C1591 1.387 . S
H1590 C1597 0.950 . S
C1591 C1589 1.387 . S
C1591 C1593 1.390 . S
C1591 H1595 0.950 . S
H1592 C1588 0.950 . S
C1593 C1591 1.390 . S
C1593 C1594 1.387 . S
C1593 H1596 0.950 . S
C1594 C1593 1.387 . S
C1594 C1597 1.387 . S
H1595 C1591 0.950 . S
H1596 C1593 0.950 . S
C1597 C1588 1.390 . S
C1597 H1590 0.950 . S
C1597 C1594 1.387 . S
C1598 C1599 1.387 . S
C1598 H1602 0.950 . S
C1598 C1607 1.390 . S
C1599 C1598 1.387 . S
C1599 C1601 1.387 . S
H1600 C1607 0.950 . S
C1601 C1599 1.387 . S
C1601 C1603 1.390 . S
C1601 H1605 0.950 . S
H1602 C1598 0.950 . S
C1603 C1601 1.390 . S
C1603 C1604 1.387 . S
C1603 H1606 0.950 . S
C1604 C1603 1.387 . S
C1604 C1607 1.387 . S
H1605 C1601 0.950 . S
H1606 C1603 0.950 . S
C1607 C1598 1.390 . S
C1607 H1600 0.950 . S
C1607 C1604 1.387 . S
C1608 C1609 1.387 . S
C1608 H1612 0.950 . S
C1608 C1617 1.390 . S
C1609 C1608 1.387 . S
C1609 C1611 1.387 . S
H1610 C1617 0.950 . S
C1611 C1609 1.387 . S
C1611 C1613 1.390 . S
C1611 H1615 0.950 . S
H1612 C1608 0.950 . S
C1613 C1611 1.390 . S
C1613 C1614 1.387 . S
C1613 H1616 0.950 . S
C1614 C1613 1.387 . S
C1614 C1617 1.387 . S
H1615 C1611 0.950 . S
H1616 C1613 0.950 . S
C1617 C1608 1.390 . S
C1617 H1610 0.950 . S
C1617 C1614 1.387 . S
C1618 C1619 1.387 . S
C1618 H1622 0.950 . S
C1618 C1627 1.390 . S
C1619 C1618 1.387 . S
C1619 C1621 1.387 . S
H1620 C1627 0.950 . S
C1621 C1619 1.387 . S
C1621 C1623 1.390 . S
C1621 H1625 0.950 . S
H1622 C1618 0.950 . S
C1623 C1621 1.390 . S
C1623 C1624 1.387 . S
C1623 H1626 0.950 . S
C1624 C1623 1.387 . S
C1624 C1627 1.387 . S
H1625 C1621 0.950 . S
H1626 C1623 0.950 . S
C1627 C1618 1.390 . S
C1627 H1620 0.950 . S
C1627 C1624 1.387 . S
C1628 C1629 1.387 . S
C1628 H1632 0.950 . S
C1628 C1637 1.390 . S
C1629 C1628 1.387 . S
C1629 C1631 1.387 . S
H1630 C1637 0.950 . S
C1631 C1629 1.387 . S
C1631 C1633 1.390 . S
C1631 H1635 0.950 . S
H1632 C1628 0.950 . S
C1633 C1631 1.390 . S
C1633 C1634 1.387 . S
C1633 H1636 0.950 . S
C1634 C1633 1.387 . S
C1634 C1637 1.387 . S
H1635 C1631 0.950 . S
H1636 C1633 0.950 . S
C1637 C1628 1.390 . S
C1637 H1630 0.950 . S
C1637 C1634 1.387 . S
C1638 C1639 1.387 . S
C1638 H1642 0.950 . S
C1638 C1647 1.390 . S
C1639 C1638 1.387 . S
C1639 C1641 1.387 . S
H1640 C1647 0.950 . S
C1641 C1639 1.387 . S
C1641 C1643 1.390 . S
C1641 H1645 0.950 . S
H1642 C1638 0.950 . S
C1643 C1641 1.390 . S
C1643 C1644 1.387 . S
C1643 H1646 0.950 . S
C1644 C1643 1.387 . S
C1644 C1647 1.387 . S
H1645 C1641 0.950 . S
H1646 C1643 0.950 . S
C1647 C1638 1.390 . S
C1647 H1640 0.950 . S
C1647 C1644 1.387 . S
C1648 C1649 1.387 . S
C1648 H1652 0.950 . S
C1648 C1657 1.390 . S
C1649 C1648 1.387 . S
C1649 C1651 1.387 . S
H1650 C1657 0.950 . S
C1651 C1649 1.387 . S
C1651 C1653 1.390 . S
C1651 H1655 0.950 . S
H1652 C1648 0.950 . S
C1653 C1651 1.390 . S
C1653 C1654 1.387 . S
C1653 H1656 0.950 . S
C1654 C1653 1.387 . S
C1654 C1657 1.387 . S
H1655 C1651 0.950 . S
H1656 C1653 0.950 . S
C1657 C1648 1.390 . S
C1657 H1650 0.950 . S
C1657 C1654 1.387 . S
C1658 C1659 1.387 . S
C1658 H1662 0.950 . S
C1658 C1667 1.390 . S
C1659 C1658 1.387 . S
C1659 C1661 1.387 . S
H1660 C1667 0.950 . S
C1661 C1659 1.387 . S
C1661 C1663 1.390 . S
C1661 H1665 0.950 . S
H1662 C1658 0.950 . S
C1663 C1661 1.390 . S
C1663 C1664 1.387 . S
C1663 H1666 0.950 . S
C1664 C1663 1.387 . S
C1664 C1667 1.387 . S
H1665 C1661 0.950 . S
H1666 C1663 0.950 . S
C1667 C1658 1.390 . S
C1667 H1660 0.950 . S
C1667 C1664 1.387 . S
C1668 C1669 1.387 . S
C1668 H1672 0.950 . S
C1668 C1677 1.390 . S
C1669 C1668 1.387 . S
C1669 C1671 1.387 . S
H1670 C1677 0.950 . S
C1671 C1669 1.387 . S
C1671 C1673 1.390 . S
C1671 H1675 0.950 . S
H1672 C1668 0.950 . S
C1673 C1671 1.390 . S
C1673 C1674 1.387 . S
C1673 H1676 0.950 . S
C1674 C1673 1.387 . S
C1674 C1677 1.387 . S
H1675 C1671 0.950 . S
H1676 C1673 0.950 . S
C1677 C1668 1.390 . S
C1677 H1670 0.950 . S
C1677 C1674 1.387 . S
C1678 C1679 1.387 . S
C1678 H1682 0.950 . S
C1678 C1687 1.390 . S
C1679 C1678 1.387 . S
C1679 C1681 1.387 . S
H1680 C1687 0.950 . S
C1681 C1679 1.387 . S
C1681 C1683 1.390 . S
C1681 H1685 0.950 . S
H1682 C1678 0.950 . S
C1683 C1681 1.390 . S
C1683 C1684 1.387 . S
C1683 H1686 0.950 . S
C1684 C1683 1.387 . S
C1684 C1687 1.387 . S
H1685 C1681 0.950 . S
H1686 C1683 0.950 . S
C1687 C1678 1.390 . S
C1687 H1680 0.950 . S
C1687 C1684 1.387 . S
C1688 C1689 1.387 . S
C1688 H1692 0.950 . S
C1688 C1697 1.390 . S
C1689 C1688 1.387 . S
C1689 C1691 1.387 . S
H1690 C1697 0.950 . S
C1691 C1689 1.387 . S
C1691 C1693 1.390 . S
C1691 H1695 0.950 . S
H1692 C1688 0.950 . S
C1693 C1691 1.390 . S
C1693 C1694 1.387 . S
C1693 H1696 0.950 . S
C1694 C1693 1.387 . S
C1694 C1697 1.387 . S
H1695 C1691 0.950 . S
H1696 C1693 0.950 . S
C1697 C1688 1.390 . S
C1697 H1690 0.950 . S
C1697 C1694 1.387 . S
C1698 C1699 1.387 . S
C1698 H1702 0.950 . S
C1698 C1707 1.390 . S
C1699 C1698 1.387 . S
C1699 C1701 1.387 . S
H1700 C1707 0.950 . S
C1701 C1699 1.387 . S
C1701 C1703 1.390 . S
C1701 H1705 0.950 . S
H1702 C1698 0.950 . S
C1703 C1701 1.390 . S
C1703 C1704 1.387 . S
C1703 H1706 0.950 . S
C1704 C1703 1.387 . S
C1704 C1707 1.387 . S
H1705 C1701 0.950 . S
H1706 C1703 0.950 . S
C1707 C1698 1.390 . S
C1707 H1700 0.950 . S
C1707 C1704 1.387 . S
C1708 C1709 1.387 . S
C1708 H1712 0.950 . S
C1708 C1717 1.390 . S
C1709 C1708 1.387 . S
C1709 C1711 1.387 . S
H1710 C1717 0.950 . S
C1711 C1709 1.387 . S
C1711 C1713 1.390 . S
C1711 H1715 0.950 . S
H1712 C1708 0.950 . S
C1713 C1711 1.390 . S
C1713 C1714 1.387 . S
C1713 H1716 0.950 . S
C1714 C1713 1.387 . S
C1714 C1717 1.387 . S
H1715 C1711 0.950 . S
H1716 C1713 0.950 . S
C1717 C1708 1.390 . S
C1717 H1710 0.950 . S
C1717 C1714 1.387 . S
C1718 C1719 1.387 . S
C1718 H1722 0.950 . S
C1718 C1727 1.390 . S
C1719 C1718 1.387 . S
C1719 C1721 1.387 . S
H1720 C1727 0.950 . S
C1721 C1719 1.387 . S
C1721 C1723 1.390 . S
C1721 H1725 0.950 . S
H1722 C1718 0.950 . S
C1723 C1721 1.390 . S
C1723 C1724 1.387 . S
C1723 H1726 0.950 . S
C1724 C1723 1.387 . S
C1724 C1727 1.387 . S
H1725 C1721 0.950 . S
H1726 C1723 0.950 . S
C1727 C1718 1.390 . S
C1727 H1720 0.950 . S
C1727 C1724 1.387 . S
C1409 C49 1.575 . S
C1414 C372 1.575 . S
C1419 C460 1.575 . S
C1424 C137 1.575 . S
C1429 C225 1.576 . S
C1434 C548 1.576 . S
C1439 C313 1.576 . S
C1444 C636 1.576 . S
C1449 C733 1.575 . S
C1454 C1105 1.575 . S
C1459 C1201 1.570 . S
C1464 C821 1.570 . S
C1469 C900 1.575 . S
C1474 C1289 1.575 . S
C1479 C988 1.575 . S
C1484 C1369 1.575 . S
C1489 C57 1.504 . S
C1494 C1340 1.424 . S
C1499 C1076 1.421 . S
C1504 C145 1.502 . S
C1509 C233 1.504 . S
C1514 C1173 1.424 . S
C1519 C1261 1.418 . S
C1524 C321 1.499 . S
C1529 C849 1.424 . S
C1534 C381 1.504 . S
C1539 C929 1.421 . S
C1544 C469 1.502 . S
C1549 C1017 1.419 . S
C1554 C557 1.500 . S
C1559 C761 1.423 . S
C1564 C645 1.503 . S
C1569 C724 1.535 . S
C1574 C673 1.404 . S
C1579 C409 1.398 . S
C1584 C812 1.531 . S
C1589 C497 1.398 . S
C1594 C909 1.531 . S
C1599 C997 1.532 . S
C1604 C585 1.399 . S
C1609 C117 1.403 . S
C1614 C1113 1.535 . S
C1619 C1193 1.531 . S
C1624 C205 1.398 . S
C1629 C1281 1.535 . S
C1634 C293 1.404 . S
C1639 C1377 1.532 . S
C1644 C29 1.399 . S
C1649 C665 1.627 . S
C1654 C20 1.628 . S
C1659 C108 1.627 . S
C1664 C401 1.626 . S
C1669 C196 1.627 . S
C1674 C489 1.628 . S
C1679 C284 1.629 . S
C1684 C577 1.630 . S
C1689 C1349 1.622 . S
C1694 C753 1.621 . S
C1699 C1085 1.622 . S
C1704 C841 1.621 . S
C1709 C1164 1.621 . S
C1714 C937 1.622 . S
C1719 C1252 1.620 . S
C1724 C1025 1.622 . S
