# Generated by pormake.
# Topology wip, (6)-cn, num edge types: 1
# Building blocks:
#     Node 0, Type 0, BuildingBlock: LEVNOQ01_clean_sbu_1, # of connection points: 6
#     Node 1, Type 0, BuildingBlock: LEVNOQ01_clean_sbu_1, # of connection points: 6
#     Node 2, Type 0, BuildingBlock: LEVNOQ01_clean_sbu_1, # of connection points: 6
#     Node 3, Type 0, BuildingBlock: LEVNOQ01_clean_sbu_1, # of connection points: 6
#     Node 4, Type 0, BuildingBlock: LEVNOQ01_clean_sbu_1, # of connection points: 6
#     Node 5, Type 0, BuildingBlock: LEVNOQ01_clean_sbu_1, # of connection points: 6
#     Node 6, Type 0, BuildingBlock: LEVNOQ01_clean_sbu_1, # of connection points: 6
#     Node 7, Type 0, BuildingBlock: LEVNOQ01_clean_sbu_1, # of connection points: 6
#     Node 8, Type 0, BuildingBlock: LEVNOQ01_clean_sbu_1, # of connection points: 6
#     Node 9, Type 0, BuildingBlock: LEVNOQ01_clean_sbu_1, # of connection points: 6
#     Node 10, Type 0, BuildingBlock: LEVNOQ01_clean_sbu_1, # of connection points: 6
#     Node 11, Type 0, BuildingBlock: LEVNOQ01_clean_sbu_1, # of connection points: 6
#     Node 12, Type 0, BuildingBlock: LEVNOQ01_clean_sbu_1, # of connection points: 6
#     Node 13, Type 0, BuildingBlock: LEVNOQ01_clean_sbu_1, # of connection points: 6
#     Node 14, Type 0, BuildingBlock: LEVNOQ01_clean_sbu_1, # of connection points: 6
#     Node 15, Type 0, BuildingBlock: LEVNOQ01_clean_sbu_1, # of connection points: 6
#     Node 16, Type 0, BuildingBlock: LEVNOQ01_clean_sbu_1, # of connection points: 6
#     Node 17, Type 0, BuildingBlock: LEVNOQ01_clean_sbu_1, # of connection points: 6
#     Node 18, Type 0, BuildingBlock: LEVNOQ01_clean_sbu_1, # of connection points: 6
#     Node 19, Type 0, BuildingBlock: LEVNOQ01_clean_sbu_1, # of connection points: 6
#     Node 20, Type 0, BuildingBlock: LEVNOQ01_clean_sbu_1, # of connection points: 6
#     Node 21, Type 0, BuildingBlock: LEVNOQ01_clean_sbu_1, # of connection points: 6
#     Node 22, Type 0, BuildingBlock: LEVNOQ01_clean_sbu_1, # of connection points: 6
#     Node 23, Type 0, BuildingBlock: LEVNOQ01_clean_sbu_1, # of connection points: 6
#     Node 24, Type 0, BuildingBlock: LEVNOQ01_clean_sbu_1, # of connection points: 6
#     Node 25, Type 0, BuildingBlock: LEVNOQ01_clean_sbu_1, # of connection points: 6
#     Node 26, Type 0, BuildingBlock: LEVNOQ01_clean_sbu_1, # of connection points: 6
#     Node 27, Type 0, BuildingBlock: LEVNOQ01_clean_sbu_1, # of connection points: 6
#     Node 28, Type 0, BuildingBlock: LEVNOQ01_clean_sbu_1, # of connection points: 6
#     Node 29, Type 0, BuildingBlock: LEVNOQ01_clean_sbu_1, # of connection points: 6
#     Node 30, Type 0, BuildingBlock: LEVNOQ01_clean_sbu_1, # of connection points: 6
#     Node 31, Type 0, BuildingBlock: LEVNOQ01_clean_sbu_1, # of connection points: 6
#     Edge 32, Type (0, 0), BuildingBlock: UVAHIK_clean_linker_0, # of connection points: 2
#     Edge 33, Type (0, 0), BuildingBlock: UVAHIK_clean_linker_0, # of connection points: 2
#     Edge 34, Type (0, 0), BuildingBlock: UVAHIK_clean_linker_0, # of connection points: 2
#     Edge 35, Type (0, 0), BuildingBlock: UVAHIK_clean_linker_0, # of connection points: 2
#     Edge 36, Type (0, 0), BuildingBlock: UVAHIK_clean_linker_0, # of connection points: 2
#     Edge 37, Type (0, 0), BuildingBlock: UVAHIK_clean_linker_0, # of connection points: 2
#     Edge 38, Type (0, 0), BuildingBlock: UVAHIK_clean_linker_0, # of connection points: 2
#     Edge 39, Type (0, 0), BuildingBlock: UVAHIK_clean_linker_0, # of connection points: 2
#     Edge 40, Type (0, 0), BuildingBlock: UVAHIK_clean_linker_0, # of connection points: 2
#     Edge 41, Type (0, 0), BuildingBlock: UVAHIK_clean_linker_0, # of connection points: 2
#     Edge 42, Type (0, 0), BuildingBlock: UVAHIK_clean_linker_0, # of connection points: 2
#     Edge 43, Type (0, 0), BuildingBlock: UVAHIK_clean_linker_0, # of connection points: 2
#     Edge 44, Type (0, 0), BuildingBlock: UVAHIK_clean_linker_0, # of connection points: 2
#     Edge 45, Type (0, 0), BuildingBlock: UVAHIK_clean_linker_0, # of connection points: 2
#     Edge 46, Type (0, 0), BuildingBlock: UVAHIK_clean_linker_0, # of connection points: 2
#     Edge 47, Type (0, 0), BuildingBlock: UVAHIK_clean_linker_0, # of connection points: 2
#     Edge 48, Type (0, 0), BuildingBlock: UVAHIK_clean_linker_0, # of connection points: 2
#     Edge 49, Type (0, 0), BuildingBlock: UVAHIK_clean_linker_0, # of connection points: 2
#     Edge 50, Type (0, 0), BuildingBlock: UVAHIK_clean_linker_0, # of connection points: 2
#     Edge 51, Type (0, 0), BuildingBlock: UVAHIK_clean_linker_0, # of connection points: 2
#     Edge 52, Type (0, 0), BuildingBlock: UVAHIK_clean_linker_0, # of connection points: 2
#     Edge 53, Type (0, 0), BuildingBlock: UVAHIK_clean_linker_0, # of connection points: 2
#     Edge 54, Type (0, 0), BuildingBlock: UVAHIK_clean_linker_0, # of connection points: 2
#     Edge 55, Type (0, 0), BuildingBlock: UVAHIK_clean_linker_0, # of connection points: 2
#     Edge 56, Type (0, 0), BuildingBlock: UVAHIK_clean_linker_0, # of connection points: 2
#     Edge 57, Type (0, 0), BuildingBlock: UVAHIK_clean_linker_0, # of connection points: 2
#     Edge 58, Type (0, 0), BuildingBlock: UVAHIK_clean_linker_0, # of connection points: 2
#     Edge 59, Type (0, 0), BuildingBlock: UVAHIK_clean_linker_0, # of connection points: 2
#     Edge 60, Type (0, 0), BuildingBlock: UVAHIK_clean_linker_0, # of connection points: 2
#     Edge 61, Type (0, 0), BuildingBlock: UVAHIK_clean_linker_0, # of connection points: 2
#     Edge 62, Type (0, 0), BuildingBlock: UVAHIK_clean_linker_0, # of connection points: 2
#     Edge 63, Type (0, 0), BuildingBlock: UVAHIK_clean_linker_0, # of connection points: 2
#     Edge 64, Type (0, 0), BuildingBlock: UVAHIK_clean_linker_0, # of connection points: 2
#     Edge 65, Type (0, 0), BuildingBlock: UVAHIK_clean_linker_0, # of connection points: 2
#     Edge 66, Type (0, 0), BuildingBlock: UVAHIK_clean_linker_0, # of connection points: 2
#     Edge 67, Type (0, 0), BuildingBlock: UVAHIK_clean_linker_0, # of connection points: 2
#     Edge 68, Type (0, 0), BuildingBlock: UVAHIK_clean_linker_0, # of connection points: 2
#     Edge 69, Type (0, 0), BuildingBlock: UVAHIK_clean_linker_0, # of connection points: 2
#     Edge 70, Type (0, 0), BuildingBlock: UVAHIK_clean_linker_0, # of connection points: 2
#     Edge 71, Type (0, 0), BuildingBlock: UVAHIK_clean_linker_0, # of connection points: 2
#     Edge 72, Type (0, 0), BuildingBlock: UVAHIK_clean_linker_0, # of connection points: 2
#     Edge 73, Type (0, 0), BuildingBlock: UVAHIK_clean_linker_0, # of connection points: 2
#     Edge 74, Type (0, 0), BuildingBlock: UVAHIK_clean_linker_0, # of connection points: 2
#     Edge 75, Type (0, 0), BuildingBlock: UVAHIK_clean_linker_0, # of connection points: 2
#     Edge 76, Type (0, 0), BuildingBlock: UVAHIK_clean_linker_0, # of connection points: 2
#     Edge 77, Type (0, 0), BuildingBlock: UVAHIK_clean_linker_0, # of connection points: 2
#     Edge 78, Type (0, 0), BuildingBlock: UVAHIK_clean_linker_0, # of connection points: 2
#     Edge 79, Type (0, 0), BuildingBlock: UVAHIK_clean_linker_0, # of connection points: 2
#     Edge 80, Type (0, 0), BuildingBlock: UVAHIK_clean_linker_0, # of connection points: 2
#     Edge 81, Type (0, 0), BuildingBlock: UVAHIK_clean_linker_0, # of connection points: 2
#     Edge 82, Type (0, 0), BuildingBlock: UVAHIK_clean_linker_0, # of connection points: 2
#     Edge 83, Type (0, 0), BuildingBlock: UVAHIK_clean_linker_0, # of connection points: 2
#     Edge 84, Type (0, 0), BuildingBlock: UVAHIK_clean_linker_0, # of connection points: 2
#     Edge 85, Type (0, 0), BuildingBlock: UVAHIK_clean_linker_0, # of connection points: 2
#     Edge 86, Type (0, 0), BuildingBlock: UVAHIK_clean_linker_0, # of connection points: 2
#     Edge 87, Type (0, 0), BuildingBlock: UVAHIK_clean_linker_0, # of connection points: 2
#     Edge 88, Type (0, 0), BuildingBlock: UVAHIK_clean_linker_0, # of connection points: 2
#     Edge 89, Type (0, 0), BuildingBlock: UVAHIK_clean_linker_0, # of connection points: 2
#     Edge 90, Type (0, 0), BuildingBlock: UVAHIK_clean_linker_0, # of connection points: 2
#     Edge 91, Type (0, 0), BuildingBlock: UVAHIK_clean_linker_0, # of connection points: 2
#     Edge 92, Type (0, 0), BuildingBlock: UVAHIK_clean_linker_0, # of connection points: 2
#     Edge 93, Type (0, 0), BuildingBlock: UVAHIK_clean_linker_0, # of connection points: 2
#     Edge 94, Type (0, 0), BuildingBlock: UVAHIK_clean_linker_0, # of connection points: 2
#     Edge 95, Type (0, 0), BuildingBlock: UVAHIK_clean_linker_0, # of connection points: 2
#     Edge 96, Type (0, 0), BuildingBlock: UVAHIK_clean_linker_0, # of connection points: 2
#     Edge 97, Type (0, 0), BuildingBlock: UVAHIK_clean_linker_0, # of connection points: 2
#     Edge 98, Type (0, 0), BuildingBlock: UVAHIK_clean_linker_0, # of connection points: 2
#     Edge 99, Type (0, 0), BuildingBlock: UVAHIK_clean_linker_0, # of connection points: 2
#     Edge 100, Type (0, 0), BuildingBlock: UVAHIK_clean_linker_0, # of connection points: 2
#     Edge 101, Type (0, 0), BuildingBlock: UVAHIK_clean_linker_0, # of connection points: 2
#     Edge 102, Type (0, 0), BuildingBlock: UVAHIK_clean_linker_0, # of connection points: 2
#     Edge 103, Type (0, 0), BuildingBlock: UVAHIK_clean_linker_0, # of connection points: 2
#     Edge 104, Type (0, 0), BuildingBlock: UVAHIK_clean_linker_0, # of connection points: 2
#     Edge 105, Type (0, 0), BuildingBlock: UVAHIK_clean_linker_0, # of connection points: 2
#     Edge 106, Type (0, 0), BuildingBlock: UVAHIK_clean_linker_0, # of connection points: 2
#     Edge 107, Type (0, 0), BuildingBlock: UVAHIK_clean_linker_0, # of connection points: 2
#     Edge 108, Type (0, 0), BuildingBlock: UVAHIK_clean_linker_0, # of connection points: 2
#     Edge 109, Type (0, 0), BuildingBlock: UVAHIK_clean_linker_0, # of connection points: 2
#     Edge 110, Type (0, 0), BuildingBlock: UVAHIK_clean_linker_0, # of connection points: 2
#     Edge 111, Type (0, 0), BuildingBlock: UVAHIK_clean_linker_0, # of connection points: 2
#     Edge 112, Type (0, 0), BuildingBlock: UVAHIK_clean_linker_0, # of connection points: 2
#     Edge 113, Type (0, 0), BuildingBlock: UVAHIK_clean_linker_0, # of connection points: 2
#     Edge 114, Type (0, 0), BuildingBlock: UVAHIK_clean_linker_0, # of connection points: 2
#     Edge 115, Type (0, 0), BuildingBlock: UVAHIK_clean_linker_0, # of connection points: 2
#     Edge 116, Type (0, 0), BuildingBlock: UVAHIK_clean_linker_0, # of connection points: 2
#     Edge 117, Type (0, 0), BuildingBlock: UVAHIK_clean_linker_0, # of connection points: 2
#     Edge 118, Type (0, 0), BuildingBlock: UVAHIK_clean_linker_0, # of connection points: 2
#     Edge 119, Type (0, 0), BuildingBlock: UVAHIK_clean_linker_0, # of connection points: 2
#     Edge 120, Type (0, 0), BuildingBlock: UVAHIK_clean_linker_0, # of connection points: 2
#     Edge 121, Type (0, 0), BuildingBlock: UVAHIK_clean_linker_0, # of connection points: 2
#     Edge 122, Type (0, 0), BuildingBlock: UVAHIK_clean_linker_0, # of connection points: 2
#     Edge 123, Type (0, 0), BuildingBlock: UVAHIK_clean_linker_0, # of connection points: 2
#     Edge 124, Type (0, 0), BuildingBlock: UVAHIK_clean_linker_0, # of connection points: 2
#     Edge 125, Type (0, 0), BuildingBlock: UVAHIK_clean_linker_0, # of connection points: 2
#     Edge 126, Type (0, 0), BuildingBlock: UVAHIK_clean_linker_0, # of connection points: 2
#     Edge 127, Type (0, 0), BuildingBlock: UVAHIK_clean_linker_0, # of connection points: 2
# Relax obj value: 0.519
# Max RMSD: 0.239
# Mean RMSD: 0.239
data_MOF--net-wip--node1-LEVNOQ01_clean_sbu_1--edge1-UVAHIK_clean_linker_0
_symmetry_space_group_name_H-M    P1
_symmetry_Int_Tables_number       1
_symmetry_cell_setting            triclinic
loop_
_symmetry_equiv_pos_as_xyz
'x, y, z'
_cell_length_a     91.135277
_cell_length_b     90.734622
_cell_length_c     31.468266
_cell_angle_alpha  89.996242
_cell_angle_beta   90.048453
_cell_angle_gamma 90.035569
loop_
_atom_site_label
_atom_site_type_symbol
_atom_site_fract_x
_atom_site_fract_y
_atom_site_fract_z
_atom_type_partial_charge
O0 O 0.05617 0.41252 0.97093 0.0
Mg1 Mg 0.07806 0.41175 0.995 0.0
O2 O 0.04606 0.42795 0.01804 0.0
Mg3 Mg 0.06332 0.43619 0.06744 0.0
O4 O 0.07513 0.41566 0.0575 0.0
O5 O 0.08088 0.3935 0.03699 0.0
O6 O 0.08084 0.44473 0.11911 0.0
O7 O 0.04966 0.42699 0.12391 0.0
Mg8 Mg 0.05393 0.46577 0.1265 0.0
O9 O 0.05113 0.4564 0.07098 0.0
O10 O 0.07683 0.4688 0.12221 0.0
O11 O 0.04697 0.44711 0.16505 0.0
O12 O 0.03919 0.4766 0.08308 0.0
C13 C 0.08663 0.44387 0.98566 0.0
C14 C 0.04518 0.41955 0.98547 0.0
C15 C 0.07598 0.40202 0.06641 0.0
C16 C 0.08466 0.45771 0.13143 0.0
C17 C 0.04553 0.43324 0.15849 0.0
C18 C 0.04184 0.46576 0.05792 0.0
O19 O 0.09066 0.43075 0.97696 0.0
O20 O 0.07694 0.4465 0.01394 0.0
O21 O 0.83375 0.81277 0.22955 0.0
Mg22 Mg 0.82221 0.83154 0.25475 0.0
O23 O 0.82246 0.79568 0.2683 0.0
Mg24 Mg 0.80686 0.80597 0.31891 0.0
O25 O 0.81895 0.82688 0.31673 0.0
O26 O 0.83116 0.84668 0.29846 0.0
O27 O 0.79032 0.81558 0.37017 0.0
O28 O 0.82251 0.79782 0.37446 0.0
Mg29 Mg 0.79128 0.77845 0.37746 0.0
O30 O 0.79578 0.78488 0.31852 0.0
O31 O 0.77796 0.7965 0.39808 0.0
O32 O 0.81229 0.77811 0.40553 0.0
O33 O 0.78504 0.76376 0.32793 0.0
C34 C 0.79 0.8253 0.23876 0.0
C35 C 0.83144 0.79929 0.23887 0.0
C36 C 0.82624 0.83823 0.3281 0.0
C37 C 0.7801 0.81032 0.39392 0.0
C38 C 0.82279 0.78723 0.40152 0.0
C39 C 0.78997 0.77351 0.30186 0.0
O40 O 0.80065 0.83406 0.23238 0.0
O41 O 0.79082 0.81449 0.26501 0.0
O42 O 0.43156 0.58612 0.48693 0.0
Mg43 Mg 0.41026 0.58013 0.51137 0.0
O44 O 0.44567 0.57105 0.52582 0.0
Mg45 Mg 0.43163 0.55827 0.57616 0.0
O46 O 0.41502 0.57496 0.57148 0.0
O47 O 0.40083 0.59372 0.55992 0.0
O48 O 0.41714 0.54462 0.62598 0.0
O49 O 0.4426 0.57118 0.63152 0.0
Mg50 Mg 0.45215 0.53478 0.63706 0.0
O51 O 0.44869 0.54184 0.57833 0.0
O52 O 0.43113 0.52629 0.65136 0.0
O53 O 0.45676 0.55536 0.66786 0.0
O54 O 0.46624 0.52608 0.58885 0.0
C55 C 0.40987 0.54682 0.49556 0.0
C56 C 0.44407 0.58077 0.49656 0.0
C57 C 0.40836 0.58604 0.58645 0.0
C58 C 0.41875 0.53263 0.64743 0.0
C59 C 0.45166 0.56825 0.66142 0.0
C60 C 0.45933 0.53458 0.56296 0.0
O61 O 0.40317 0.55901 0.49009 0.0
O62 O 0.42045 0.54538 0.52197 0.0
O63 O 0.67513 0.21458 0.90639 0.0
Mg64 Mg 0.69694 0.21184 0.88562 0.0
O65 O 0.66372 0.19601 0.8725 0.0
Mg66 Mg 0.67973 0.18774 0.81734 0.0
O67 O 0.69316 0.20679 0.82552 0.0
O68 O 0.70763 0.22518 0.83856 0.0
O69 O 0.69575 0.17988 0.76417 0.0
O70 O 0.66621 0.20105 0.76658 0.0
Mg71 Mg 0.6634 0.16507 0.74353 0.0
O72 O 0.66653 0.16827 0.80568 0.0
O73 O 0.68534 0.16277 0.72258 0.0
O74 O 0.65406 0.18553 0.72395 0.0
O75 O 0.65497 0.14851 0.78461 0.0
C76 C 0.70311 0.17816 0.89728 0.0
C77 C 0.66392 0.2065 0.90007 0.0
C78 C 0.70171 0.21657 0.81095 0.0
C79 C 0.69635 0.17041 0.73405 0.0
C80 C 0.65743 0.19856 0.73556 0.0
C81 C 0.66083 0.15593 0.81509 0.0
O82 O 0.70609 0.19145 0.90725 0.0
O83 O 0.6939 0.17479 0.86793 0.0
O84 O 0.05852 0.58704 0.65359 0.0
Mg85 Mg 0.07829 0.57594 0.63449 0.0
O86 O 0.04492 0.57365 0.60976 0.0
Mg87 Mg 0.05792 0.55971 0.56105 0.0
O88 O 0.07825 0.57327 0.57001 0.0
O89 O 0.09565 0.58588 0.60287 0.0
O90 O 0.07 0.5443 0.51128 0.0
O91 O 0.05 0.57539 0.50474 0.0
Mg92 Mg 0.03294 0.54272 0.49652 0.0
O93 O 0.03792 0.54696 0.55654 0.0
O94 O 0.05247 0.5314 0.47755 0.0
O95 O 0.03121 0.56417 0.47194 0.0
O96 O 0.01814 0.5345 0.54319 0.0
C97 C 0.07409 0.54336 0.6466 0.0
C98 C 0.04602 0.58295 0.64002 0.0
C99 C 0.09 0.58109 0.5679 0.0
C100 C 0.06594 0.5342 0.48513 0.0
C101 C 0.03957 0.57524 0.47719 0.0
C102 C 0.0269 0.53998 0.57108 0.0
O103 O 0.08107 0.55464 0.65913 0.0
O104 O 0.06535 0.54368 0.61484 0.0
O105 O 0.70295 0.79513 0.73137 0.0
Mg106 Mg 0.71889 0.80296 0.77836 0.0
O107 O 0.68131 0.79545 0.76577 0.0
Mg108 Mg 0.68646 0.80986 0.82335 0.0
O109 O 0.70743 0.79807 0.83008 0.0
O110 O 0.72815 0.78682 0.82027 0.0
O111 O 0.69295 0.82497 0.87881 0.0
O112 O 0.67601 0.79262 0.87147 0.0
Mg113 Mg 0.65733 0.82389 0.87754 0.0
O114 O 0.6652 0.82125 0.8181 0.0
O115 O 0.67405 0.83631 0.90957 0.0
O116 O 0.65577 0.80221 0.90051 0.0
O117 O 0.64417 0.83237 0.82782 0.0
C118 C 0.70929 0.83209 0.766 0.0
C119 C 0.68919 0.7922 0.73339 0.0
C120 C 0.7157 0.78718 0.83952 0.0
C121 C 0.68779 0.83406 0.90594 0.0
C122 C 0.66481 0.79166 0.89605 0.0
C123 C 0.65441 0.82834 0.80217 0.0
O124 O 0.72043 0.82621 0.7832 0.0
O125 O 0.69652 0.82683 0.77384 0.0
O126 O 0.43117 0.41034 0.15643 0.0
Mg127 Mg 0.40976 0.41633 0.13477 0.0
O128 O 0.44504 0.42573 0.1181 0.0
Mg129 Mg 0.42982 0.43808 0.06818 0.0
O130 O 0.41347 0.42057 0.07315 0.0
O131 O 0.39716 0.40399 0.09086 0.0
O132 O 0.4137 0.44952 0.0177 0.0
O133 O 0.44181 0.42596 0.01315 0.0
Mg134 Mg 0.44482 0.4636 0.00671 0.0
O135 O 0.44613 0.45638 0.06655 0.0
O136 O 0.42327 0.47089 0.99702 0.0
O137 O 0.45135 0.44402 0.97306 0.0
O138 O 0.45976 0.47494 0.04571 0.0
C139 C 0.40812 0.44923 0.15014 0.0
C140 C 0.44365 0.41578 0.14695 0.0
C141 C 0.40399 0.41108 0.06147 0.0
C142 C 0.41262 0.46193 0.99838 0.0
C143 C 0.44915 0.43039 0.98092 0.0
C144 C 0.45677 0.46526 0.07439 0.0
O145 O 0.40229 0.4368 0.15815 0.0
O146 O 0.41808 0.45077 0.12193 0.0
O147 O 0.83731 0.17973 0.39935 0.0
Mg148 Mg 0.82866 0.15959 0.37345 0.0
O149 O 0.82363 0.19616 0.36411 0.0
Mg150 Mg 0.80971 0.18434 0.3116 0.0
O151 O 0.82438 0.16586 0.31376 0.0
O152 O 0.83851 0.14689 0.32359 0.0
O153 O 0.79582 0.17181 0.25882 0.0
O154 O 0.82408 0.19541 0.2578 0.0
Mg155 Mg 0.78973 0.20726 0.25287 0.0
O156 O 0.79424 0.20293 0.314 0.0
O157 O 0.78018 0.18773 0.22918 0.0
O158 O 0.81037 0.2128 0.22684 0.0
O159 O 0.7791 0.22071 0.29692 0.0
C160 C 0.79581 0.16276 0.39055 0.0
C161 C 0.8332 0.19298 0.39262 0.0
C162 C 0.83205 0.15569 0.29757 0.0
C163 C 0.78515 0.17475 0.23358 0.0
C164 C 0.82249 0.20606 0.23141 0.0
C165 C 0.78578 0.21337 0.32611 0.0
O166 O 0.80723 0.15497 0.39685 0.0
O167 O 0.79561 0.17336 0.36374 0.0
O168 O 0.92193 0.52508 0.9971 0.0
Mg169 Mg 0.94424 0.52755 0.01125 0.0
O170 O 0.91373 0.54688 0.02042 0.0
Mg171 Mg 0.93226 0.55701 0.06711 0.0
O172 O 0.94367 0.53601 0.06964 0.0
O173 O 0.95419 0.51476 0.05918 0.0
O174 O 0.95138 0.56672 0.11156 0.0
O175 O 0.91945 0.54952 0.12598 0.0
Mg176 Mg 0.92254 0.58613 0.12763 0.0
O177 O 0.92041 0.57798 0.06841 0.0
O178 O 0.94539 0.58903 0.13576 0.0
O179 O 0.91325 0.56882 0.16607 0.0
O180 O 0.90953 0.59864 0.08506 0.0
C181 C 0.9532 0.55849 0.9784 0.0
C182 C 0.91187 0.5347 0.99993 0.0
C183 C 0.95075 0.52516 0.08517 0.0
C184 C 0.95468 0.57872 0.13119 0.0
C185 C 0.91339 0.55496 0.15903 0.0
C186 C 0.91164 0.58829 0.05778 0.0
O187 O 0.95495 0.54458 0.97582 0.0
O188 O 0.94534 0.56452 0.00725 0.0
O189 O 0.18545 0.16403 0.90881 0.0
Mg190 Mg 0.16416 0.16493 0.8814 0.0
O191 O 0.19607 0.18141 0.86877 0.0
Mg192 Mg 0.18079 0.18922 0.81381 0.0
O193 O 0.16921 0.16839 0.81967 0.0
O194 O 0.15834 0.14793 0.83811 0.0
O195 O 0.16514 0.19659 0.75722 0.0
O196 O 0.19721 0.1793 0.76296 0.0
Mg197 Mg 0.195 0.21712 0.75361 0.0
O198 O 0.19234 0.21001 0.81244 0.0
O199 O 0.17305 0.21831 0.7324 0.0
O200 O 0.20692 0.19861 0.72814 0.0
O201 O 0.20431 0.23042 0.8029 0.0
C202 C 0.15544 0.19727 0.89167 0.0
C203 C 0.1964 0.17207 0.89921 0.0
C204 C 0.16465 0.15567 0.80909 0.0
C205 C 0.16361 0.208 0.73346 0.0
C206 C 0.20598 0.18478 0.73509 0.0
C207 C 0.2001 0.22023 0.82862 0.0
O208 O 0.15201 0.18404 0.901 0.0
O209 O 0.16515 0.2001 0.86347 0.0
O210 O 0.57799 0.42957 0.66462 0.0
Mg211 Mg 0.57259 0.4091 0.63365 0.0
O212 O 0.56539 0.44514 0.62306 0.0
Mg213 Mg 0.5555 0.43286 0.56488 0.0
O214 O 0.57177 0.41569 0.57284 0.0
O215 O 0.5878 0.39901 0.59064 0.0
O216 O 0.54559 0.41957 0.50622 0.0
O217 O 0.57119 0.44599 0.51792 0.0
Mg218 Mg 0.53517 0.45338 0.499 0.0
O219 O 0.53873 0.45009 0.56092 0.0
O220 O 0.52789 0.43298 0.47602 0.0
O221 O 0.55635 0.45983 0.47746 0.0
O222 O 0.52271 0.46651 0.5403 0.0
C223 C 0.53906 0.40947 0.63629 0.0
C224 C 0.57341 0.4425 0.65567 0.0
C225 C 0.58254 0.40766 0.56205 0.0
C226 C 0.53496 0.42102 0.47976 0.0
C227 C 0.56911 0.45555 0.48838 0.0
C228 C 0.5297 0.46026 0.57098 0.0
O229 O 0.55051 0.40216 0.64607 0.0
O230 O 0.53961 0.42041 0.61062 0.0
O231 O 0.30706 0.83184 0.4043 0.0
Mg232 Mg 0.32874 0.82573 0.38728 0.0
O233 O 0.29606 0.81396 0.36747 0.0
Mg234 Mg 0.31162 0.804 0.31624 0.0
O235 O 0.32755 0.82219 0.32406 0.0
O236 O 0.34247 0.83899 0.35002 0.0
O237 O 0.3273 0.79488 0.26249 0.0
O238 O 0.29857 0.81604 0.26255 0.0
Mg239 Mg 0.29928 0.77759 0.25321 0.0
O240 O 0.29587 0.78578 0.31085 0.0
O241 O 0.32174 0.77143 0.25468 0.0
O242 O 0.29373 0.79742 0.21745 0.0
O243 O 0.28232 0.76742 0.28976 0.0
C244 C 0.33231 0.79251 0.40108 0.0
C245 C 0.2957 0.82439 0.39484 0.0
C246 C 0.33704 0.83232 0.31744 0.0
C247 C 0.33029 0.78214 0.24744 0.0
C248 C 0.29339 0.81112 0.2273 0.0
C249 C 0.28453 0.77777 0.317 0.0
O250 O 0.33589 0.8054 0.41305 0.0
O251 O 0.32405 0.79041 0.36863 0.0
O252 O 0.93068 0.46917 0.64845 0.0
Mg253 Mg 0.95202 0.46218 0.63181 0.0
O254 O 0.91668 0.45139 0.61951 0.0
Mg255 Mg 0.9321 0.43797 0.57078 0.0
O256 O 0.9483 0.45515 0.57334 0.0
O257 O 0.965 0.47191 0.58274 0.0
O258 O 0.94804 0.42597 0.52268 0.0
O259 O 0.92137 0.4498 0.51418 0.0
Mg260 Mg 0.91734 0.41302 0.50398 0.0
O261 O 0.91568 0.42052 0.56415 0.0
O262 O 0.93918 0.40506 0.4963 0.0
O263 O 0.91283 0.43284 0.46888 0.0
O264 O 0.90045 0.40363 0.54142 0.0
C265 C 0.95273 0.42897 0.65638 0.0
C266 C 0.9183 0.46294 0.64305 0.0
C267 C 0.95824 0.46317 0.55714 0.0
C268 C 0.94966 0.41417 0.50073 0.0
C269 C 0.91509 0.44625 0.47929 0.0
C270 C 0.9043 0.41269 0.5709 0.0
O271 O 0.95799 0.44188 0.66103 0.0
O272 O 0.94311 0.42579 0.62811 0.0
O273 O 0.31642 0.16049 0.21945 0.0
Mg274 Mg 0.33516 0.16926 0.25324 0.0
O275 O 0.29962 0.17251 0.25712 0.0
Mg276 Mg 0.30896 0.18559 0.31267 0.0
O277 O 0.32824 0.17095 0.31416 0.0
O278 O 0.34703 0.15692 0.29904 0.0
O279 O 0.3177 0.19889 0.36994 0.0
O280 O 0.2977 0.16916 0.36353 0.0
Mg281 Mg 0.2812 0.19468 0.36096 0.0
O282 O 0.28963 0.20063 0.30424 0.0
O283 O 0.29716 0.2005 0.40824 0.0
O284 O 0.27417 0.17274 0.3557 0.0
O285 O 0.26908 0.21029 0.32961 0.0
C286 C 0.33242 0.2025 0.24162 0.0
C287 C 0.30309 0.164 0.22653 0.0
C288 C 0.33768 0.1615 0.32669 0.0
C289 C 0.31096 0.20226 0.40422 0.0
C290 C 0.28445 0.16523 0.37139 0.0
C291 C 0.27857 0.20925 0.29933 0.0
O292 O 0.34041 0.19118 0.23594 0.0
O293 O 0.32095 0.202 0.26524 0.0
O294 O 0.57893 0.56012 0.9838 0.0
Mg295 Mg 0.57299 0.58091 0.01071 0.0
O296 O 0.56203 0.54691 0.01836 0.0
Mg297 Mg 0.55102 0.55999 0.07358 0.0
O298 O 0.56902 0.57588 0.07218 0.0
O299 O 0.58643 0.59152 0.05623 0.0
O300 O 0.54001 0.57382 0.12907 0.0
O301 O 0.56352 0.54576 0.12464 0.0
Mg302 Mg 0.52611 0.54096 0.13098 0.0
O303 O 0.53303 0.54384 0.07176 0.0
O304 O 0.51958 0.56228 0.1497 0.0
O305 O 0.54616 0.5331 0.15966 0.0
O306 O 0.51547 0.52808 0.08369 0.0
C307 C 0.53985 0.58421 0.99654 0.0
C308 C 0.5721 0.54809 0.99021 0.0
C309 C 0.57951 0.58408 0.08471 0.0
C310 C 0.52798 0.57346 0.15021 0.0
C311 C 0.5596 0.53641 0.15308 0.0
C312 C 0.52496 0.53341 0.05758 0.0
O313 O 0.55256 0.58926 0.98814 0.0
O314 O 0.53794 0.57401 0.02414 0.0
O315 O 0.18081 0.83144 0.7198 0.0
Mg316 Mg 0.15956 0.8305 0.74766 0.0
O317 O 0.19338 0.81699 0.76477 0.0
Mg318 Mg 0.17835 0.80909 0.81994 0.0
O319 O 0.16479 0.8284 0.80917 0.0
O320 O 0.15446 0.84874 0.78781 0.0
O321 O 0.16276 0.80086 0.87564 0.0
O322 O 0.19301 0.82171 0.87083 0.0
Mg323 Mg 0.1954 0.78415 0.88552 0.0
O324 O 0.1919 0.78978 0.82587 0.0
O325 O 0.17364 0.78132 0.90597 0.0
O326 O 0.20492 0.80424 0.90798 0.0
O327 O 0.20577 0.77083 0.83824 0.0
C328 C 0.15412 0.79733 0.74322 0.0
C329 C 0.19261 0.82514 0.73161 0.0
C330 C 0.16124 0.84165 0.81727 0.0
C331 C 0.1627 0.78989 0.90146 0.0
C332 C 0.20224 0.81773 0.8996 0.0
C333 C 0.20017 0.77978 0.81098 0.0
O334 O 0.14888 0.80998 0.73408 0.0
O335 O 0.16444 0.79584 0.77053 0.0
O336 O 0.54859 0.90639 0.49744 0.0
Mg337 Mg 0.57132 0.90885 0.51 0.0
O338 O 0.54194 0.92861 0.52122 0.0
Mg339 Mg 0.56019 0.9391 0.56646 0.0
O340 O 0.57138 0.918 0.56832 0.0
O341 O 0.58268 0.89711 0.559 0.0
O342 O 0.57831 0.94941 0.61374 0.0
O343 O 0.5466 0.93369 0.62653 0.0
Mg344 Mg 0.55277 0.97163 0.61334 0.0
O345 O 0.54892 0.96 0.56154 0.0
O346 O 0.5758 0.97362 0.60889 0.0
O347 O 0.54507 0.95553 0.65996 0.0
O348 O 0.53768 0.9809 0.56816 0.0
C349 C 0.58054 0.93976 0.47646 0.0
C350 C 0.53912 0.9166 0.50105 0.0
C351 C 0.57931 0.90783 0.5839 0.0
C352 C 0.58295 0.96251 0.62184 0.0
C353 C 0.5429 0.94158 0.65863 0.0
C354 C 0.53913 0.96873 0.54765 0.0
O355 O 0.58125 0.92583 0.47118 0.0
O356 O 0.57375 0.94551 0.50784 0.0
O357 O 0.33261 0.3146 0.7198 0.0
Mg358 Mg 0.32616 0.33504 0.74958 0.0
O359 O 0.32514 0.29872 0.76928 0.0
Mg360 Mg 0.31165 0.31032 0.8211 0.0
O361 O 0.32419 0.33026 0.81178 0.0
O362 O 0.34289 0.34328 0.79092 0.0
O363 O 0.29707 0.32165 0.87416 0.0
O364 O 0.32806 0.30235 0.87463 0.0
Mg365 Mg 0.29564 0.28488 0.88577 0.0
O366 O 0.29944 0.28996 0.82547 0.0
O367 O 0.28389 0.30395 0.90618 0.0
O368 O 0.31714 0.28394 0.91009 0.0
O369 O 0.28794 0.26958 0.83984 0.0
C370 C 0.29344 0.32985 0.74542 0.0
C371 C 0.33152 0.30148 0.73405 0.0
C372 C 0.3368 0.33545 0.82001 0.0
C373 C 0.28705 0.31748 0.90025 0.0
C374 C 0.32813 0.29225 0.90315 0.0
C375 C 0.29304 0.27846 0.81158 0.0
O376 O 0.30346 0.33944 0.73935 0.0
O377 O 0.2953 0.31856 0.76935 0.0
O378 O 0.93728 0.08859 0.98991 0.0
Mg379 Mg 0.91537 0.08647 0.01257 0.0
O380 O 0.94684 0.06832 0.01956 0.0
Mg381 Mg 0.93025 0.05715 0.06716 0.0
O382 O 0.91891 0.07793 0.07076 0.0
O383 O 0.90935 0.09981 0.06579 0.0
O384 O 0.9136 0.04596 0.11708 0.0
O385 O 0.94465 0.06317 0.12479 0.0
Mg386 Mg 0.94056 0.02478 0.11166 0.0
O387 O 0.94207 0.03678 0.05972 0.0
O388 O 0.91754 0.02186 0.11267 0.0
O389 O 0.94797 0.04135 0.15721 0.0
O390 O 0.95497 0.01683 0.06218 0.0
C391 C 0.90658 0.05538 0.98362 0.0
C392 C 0.9479 0.0797 0.99549 0.0
C393 C 0.9148 0.0896 0.08939 0.0
C394 C 0.91003 0.03262 0.12656 0.0
C395 C 0.94919 0.05541 0.15613 0.0
C396 C 0.95193 0.02888 0.04262 0.0
O397 O 0.90371 0.0691 0.98057 0.0
O398 O 0.91564 0.0504 0.01108 0.0
O399 O 0.19202 0.70078 0.41767 0.0
Mg400 Mg 0.21161 0.69601 0.38074 0.0
O401 O 0.17321 0.69643 0.37307 0.0
Mg402 Mg 0.18484 0.68365 0.31914 0.0
O403 O 0.20333 0.69906 0.32339 0.0
O404 O 0.22178 0.7127 0.34317 0.0
O405 O 0.19764 0.67074 0.26794 0.0
O406 O 0.17496 0.69907 0.26651 0.0
Mg407 Mg 0.16449 0.66318 0.24903 0.0
O408 O 0.16608 0.66922 0.30984 0.0
O409 O 0.18491 0.65219 0.23973 0.0
O410 O 0.16404 0.68429 0.21897 0.0
O411 O 0.14596 0.65861 0.28844 0.0
C412 C 0.2078 0.66451 0.38467 0.0
C413 C 0.17832 0.70097 0.40873 0.0
C414 C 0.2117 0.71002 0.31559 0.0
C415 C 0.1969 0.65921 0.24468 0.0
C416 C 0.16814 0.69704 0.23129 0.0
C417 C 0.15282 0.66579 0.31761 0.0
O418 O 0.21795 0.67374 0.3778 0.0
O419 O 0.19464 0.66717 0.37202 0.0
O420 O 0.55023 0.0836 0.14985 0.0
Mg421 Mg 0.57243 0.08015 0.13182 0.0
O422 O 0.54027 0.06517 0.11229 0.0
Mg423 Mg 0.55709 0.05479 0.0637 0.0
O424 O 0.57042 0.07441 0.0705 0.0
O425 O 0.58206 0.09466 0.08639 0.0
O426 O 0.57384 0.04343 0.01402 0.0
O427 O 0.54447 0.06605 0.00717 0.0
Mg428 Mg 0.53937 0.0296 1.00117 0.0
O429 O 0.54326 0.03555 0.06077 0.0
O430 O 0.56101 0.02558 0.98125 0.0
O431 O 0.53007 0.04928 0.97568 0.0
O432 O 0.52924 0.0166 0.04919 0.0
C433 C 0.57824 0.04714 0.15025 0.0
C434 C 0.53929 0.07566 0.13953 0.0
C435 C 0.57692 0.08596 0.05771 0.0
C436 C 0.57297 0.03238 0.98823 0.0
C437 C 0.53456 0.06249 0.98015 0.0
C438 C 0.53529 0.02538 0.07615 0.0
O439 O 0.58166 0.06047 0.15857 0.0
O440 O 0.56964 0.0438 0.11951 0.0
O441 O 0.18711 0.28628 0.22233 0.0
Mg442 Mg 0.20736 0.29218 0.25252 0.0
O443 O 0.17035 0.29995 0.25695 0.0
Mg444 Mg 0.18261 0.3113 0.31427 0.0
O445 O 0.19979 0.29547 0.31033 0.0
O446 O 0.21721 0.27949 0.30302 0.0
O447 O 0.19524 0.32202 0.37 0.0
O448 O 0.17089 0.29534 0.36198 0.0
Mg449 Mg 0.16007 0.32856 0.38485 0.0
O450 O 0.16543 0.32768 0.32279 0.0
O451 O 0.18038 0.33475 0.41283 0.0
O452 O 0.1535 0.30651 0.40002 0.0
O453 O 0.14905 0.34359 0.34445 0.0
C454 C 0.20685 0.32606 0.24291 0.0
C455 C 0.17398 0.29082 0.22755 0.0
C456 C 0.2081 0.28607 0.32775 0.0
C457 C 0.19312 0.33037 0.40217 0.0
C458 C 0.16041 0.29494 0.389 0.0
C459 C 0.15686 0.3383 0.31396 0.0
O460 O 0.21374 0.314 0.2376 0.0
O461 O 0.19517 0.32703 0.26572 0.0
O462 O 0.93111 0.90696 0.66219 0.0
Mg463 Mg 0.91012 0.91466 0.64 0.0
O464 O 0.9457 0.92071 0.62137 0.0
Mg465 Mg 0.93242 0.93466 0.57228 0.0
O466 O 0.91422 0.91992 0.57958 0.0
O467 O 0.8987 0.90231 0.59168 0.0
O468 O 0.9196 0.94935 0.52156 0.0
O469 O 0.94137 0.91996 0.51602 0.0
Mg470 Mg 0.9565 0.95289 0.50901 0.0
O471 O 0.95114 0.94902 0.56924 0.0
O472 O 0.93662 0.96245 0.48636 0.0
O473 O 0.96024 0.93151 0.4851 0.0
O474 O 0.97001 0.96287 0.55582 0.0
C475 C 0.9129 0.94814 0.65601 0.0
C476 C 0.94388 0.91127 0.65115 0.0
C477 C 0.90631 0.9097 0.5647 0.0
C478 C 0.92329 0.95913 0.49389 0.0
C479 C 0.95198 0.92032 0.48931 0.0
C480 C 0.96147 0.95698 0.58364 0.0
O481 O 0.90583 0.93624 0.66299 0.0
O482 O 0.92283 0.94912 0.62721 0.0
O483 O 0.32912 0.6803 0.91183 0.0
Mg484 Mg 0.32104 0.66021 0.88305 0.0
O485 O 0.32102 0.69745 0.86649 0.0
Mg486 Mg 0.30744 0.68568 0.81363 0.0
O487 O 0.32041 0.66588 0.82194 0.0
O488 O 0.33364 0.64695 0.84017 0.0
O489 O 0.29297 0.67376 0.76125 0.0
O490 O 0.32393 0.69393 0.76108 0.0
Mg491 Mg 0.29107 0.71024 0.74675 0.0
O492 O 0.29494 0.70569 0.80767 0.0
O493 O 0.27972 0.69082 0.72684 0.0
O494 O 0.31272 0.71162 0.72341 0.0
O495 O 0.28302 0.72568 0.79202 0.0
C496 C 0.28856 0.66624 0.88822 0.0
C497 C 0.32785 0.69377 0.90044 0.0
C498 C 0.32931 0.65583 0.81089 0.0
C499 C 0.28299 0.67743 0.7344 0.0
C500 C 0.32394 0.70386 0.73207 0.0
C501 C 0.28848 0.71722 0.82079 0.0
O502 O 0.29849 0.65666 0.8947 0.0
O503 O 0.29064 0.67757 0.86466 0.0
O504 O 0.4224 0.02755 0.49426 0.0
Mg505 Mg 0.44407 0.0313 0.5149 0.0
O506 O 0.41195 0.04785 0.52073 0.0
Mg507 Mg 0.42886 0.05907 0.56939 0.0
O508 O 0.44187 0.03885 0.57426 0.0
O509 O 0.45389 0.01842 0.56226 0.0
O510 O 0.44598 0.07056 0.61564 0.0
O511 O 0.4158 0.0508 0.62672 0.0
Mg512 Mg 0.41501 0.08795 0.62724 0.0
O513 O 0.41576 0.07886 0.56926 0.0
O514 O 0.43765 0.09231 0.63872 0.0
O515 O 0.40717 0.06963 0.66508 0.0
O516 O 0.40124 0.09748 0.57882 0.0
C517 C 0.45162 0.06254 0.48493 0.0
C518 C 0.41148 0.03614 0.49771 0.0
C519 C 0.44936 0.02811 0.58908 0.0
C520 C 0.44786 0.08278 0.63568 0.0
C521 C 0.4088 0.05581 0.65876 0.0
C522 C 0.40578 0.08711 0.55433 0.0
O523 O 0.45493 0.04893 0.48347 0.0
O524 O 0.44221 0.06769 0.51118 0.0
O525 O 0.68029 0.65856 0.40897 0.0
Mg526 Mg 0.65907 0.66294 0.38228 0.0
O527 O 0.69337 0.67496 0.3714 0.0
Mg528 Mg 0.67985 0.68503 0.3165 0.0
O529 O 0.66477 0.66704 0.32192 0.0
O530 O 0.65015 0.64863 0.3341 0.0
O531 O 0.66561 0.69497 0.2611 0.0
O532 O 0.69404 0.67231 0.26532 0.0
Mg533 Mg 0.69889 0.7095 0.25603 0.0
O534 O 0.6947 0.70361 0.31545 0.0
O535 O 0.67764 0.71414 0.23297 0.0
O536 O 0.70784 0.68933 0.23237 0.0
O537 O 0.70924 0.72221 0.30424 0.0
C538 C 0.65656 0.69653 0.39473 0.0
C539 C 0.69223 0.66535 0.40104 0.0
C540 C 0.6578 0.6561 0.30737 0.0
C541 C 0.66626 0.70609 0.23607 0.0
C542 C 0.70403 0.67598 0.23851 0.0
C543 C 0.70301 0.71349 0.33102 0.0
O544 O 0.65094 0.684 0.40344 0.0
O545 O 0.6665 0.69794 0.36638 0.0
O546 O 0.08014 0.93501 0.16339 0.0
Mg547 Mg 0.07248 0.91429 0.14131 0.0
O548 O 0.06477 0.94842 0.12401 0.0
Mg549 Mg 0.05463 0.93443 0.06874 0.0
O550 O 0.07106 0.91667 0.0777 0.0
O551 O 0.08562 0.89998 0.10609 0.0
O552 O 0.04465 0.92043 0.01206 0.0
O553 O 0.07027 0.94701 0.01961 0.0
Mg554 Mg 0.0345 0.95491 1.00073 0.0
O555 O 0.03769 0.95141 0.06261 0.0
O556 O 0.02837 0.9342 0.97669 0.0
O557 O 0.05574 0.96201 0.98165 0.0
O558 O 0.02143 0.96758 0.04215 0.0
C559 C 0.03897 0.91328 0.14708 0.0
C560 C 0.07434 0.94729 0.15365 0.0
C561 C 0.08054 0.9064 0.07265 0.0
C562 C 0.03478 0.922 0.98334 0.0
C563 C 0.0684 0.95714 0.99149 0.0
C564 C 0.0285 0.96141 0.07282 0.0
O565 O 0.0511 0.90816 0.16053 0.0
O566 O 0.03845 0.92264 0.11661 0.0
O567 O 0.81438 0.32965 0.91638 0.0
Mg568 Mg 0.8343 0.32438 0.88304 0.0
O569 O 0.79785 0.32058 0.8707 0.0
Mg570 Mg 0.80921 0.30958 0.81342 0.0
O571 O 0.82782 0.32432 0.82213 0.0
O572 O 0.84234 0.3418 0.84417 0.0
O573 O 0.82103 0.29765 0.75613 0.0
O574 O 0.79772 0.32656 0.76445 0.0
Mg575 Mg 0.78471 0.29234 0.74854 0.0
O576 O 0.79035 0.295 0.80919 0.0
O577 O 0.80428 0.28424 0.721 0.0
O578 O 0.77995 0.31405 0.73062 0.0
O579 O 0.77169 0.28101 0.79337 0.0
C580 C 0.83195 0.29106 0.88317 0.0
C581 C 0.80114 0.32717 0.90537 0.0
C582 C 0.83357 0.33689 0.81539 0.0
C583 C 0.81745 0.28842 0.727 0.0
C584 C 0.7868 0.32594 0.73833 0.0
C585 C 0.77991 0.28681 0.82211 0.0
O586 O 0.84057 0.30187 0.89014 0.0
O587 O 0.82029 0.29246 0.8605 0.0
O588 O 0.42696 0.96566 0.15345 0.0
Mg589 Mg 0.44825 0.96161 0.12922 0.0
O590 O 0.41307 0.949 0.11911 0.0
Mg591 Mg 0.42885 0.9368 0.06936 0.0
O592 O 0.4434 0.95529 0.07075 0.0
O593 O 0.45691 0.97472 0.07866 0.0
O594 O 0.44503 0.92482 0.02135 0.0
O595 O 0.41749 0.94834 0.01305 0.0
Mg596 Mg 0.41251 0.91192 1.00179 0.0
O597 O 0.41378 0.91848 0.06274 0.0
O598 O 0.43458 0.90487 0.99258 0.0
O599 O 0.40847 0.93187 0.9673 0.0
O600 O 0.39465 0.90597 0.0424 0.0
C601 C 0.45187 0.92872 0.1514 0.0
C602 C 0.41466 0.95946 0.14648 0.0
C603 C 0.45032 0.9658 0.05326 0.0
C604 C 0.44573 0.91316 0.99816 0.0
C605 C 0.41105 0.94515 0.97816 0.0
C606 C 0.40078 0.91421 0.07055 0.0
O607 O 0.45738 0.94162 0.15285 0.0
O608 O 0.44106 0.92539 0.12695 0.0
O609 O 0.80938 0.66716 0.72278 0.0
Mg610 Mg 0.83019 0.6697 0.75264 0.0
O611 O 0.79543 0.68056 0.7668 0.0
Mg612 Mg 0.80973 0.68928 0.82225 0.0
O613 O 0.82418 0.66988 0.81396 0.0
O614 O 0.83777 0.65188 0.78934 0.0
O615 O 0.82501 0.698 0.87857 0.0
O616 O 0.79548 0.67623 0.87168 0.0
Mg617 Mg 0.79403 0.71403 0.88788 0.0
O618 O 0.79436 0.70785 0.8275 0.0
O619 O 0.81605 0.71969 0.89962 0.0
O620 O 0.78704 0.69354 0.91649 0.0
O621 O 0.77942 0.72538 0.84629 0.0
C622 C 0.83474 0.70259 0.7491 0.0
C623 C 0.79703 0.67248 0.73381 0.0
C624 C 0.82991 0.65716 0.81979 0.0
C625 C 0.8262 0.71011 0.89941 0.0
C626 C 0.78827 0.6801 0.90489 0.0
C627 C 0.78344 0.71603 0.81783 0.0
O628 O 0.8407 0.69021 0.74134 0.0
O629 O 0.82362 0.70358 0.77389 0.0
O630 O 0.08343 0.0638 0.48205 0.0
Mg631 Mg 0.07659 0.08465 0.50755 0.0
O632 O 0.06777 0.04954 0.51848 0.0
Mg633 Mg 0.05672 0.0621 0.57412 0.0
O634 O 0.07306 0.07908 0.56841 0.0
O635 O 0.08857 0.09667 0.55506 0.0
O636 O 0.04562 0.07533 0.63004 0.0
O637 O 0.07072 0.04856 0.62472 0.0
Mg638 Mg 0.03385 0.04114 0.63496 0.0
O639 O 0.03998 0.04545 0.57583 0.0
O640 O 0.02682 0.06215 0.65549 0.0
O641 O 0.05456 0.03464 0.66084 0.0
O642 O 0.02313 0.02889 0.58609 0.0
C643 C 0.04294 0.08463 0.49627 0.0
C644 C 0.07742 0.05136 0.48932 0.0
C645 C 0.08207 0.08849 0.5826 0.0
C646 C 0.03421 0.07402 0.65355 0.0
C647 C 0.06765 0.03888 0.65331 0.0
C648 C 0.03141 0.03591 0.55987 0.0
O649 O 0.05506 0.09068 0.486 0.0
O650 O 0.04227 0.0747 0.52514 0.0
O651 O 0.68373 0.33191 0.22629 0.0
Mg652 Mg 0.66214 0.32909 0.25127 0.0
O653 O 0.69532 0.31503 0.26582 0.0
Mg654 Mg 0.68001 0.30645 0.31978 0.0
O655 O 0.6665 0.32619 0.31339 0.0
O656 O 0.65346 0.34516 0.29317 0.0
O657 O 0.66449 0.29821 0.37509 0.0
O658 O 0.69506 0.31782 0.37146 0.0
Mg659 Mg 0.69466 0.27965 0.38313 0.0
O660 O 0.69319 0.28693 0.32415 0.0
O661 O 0.67216 0.27609 0.39693 0.0
O662 O 0.70331 0.2994 0.41292 0.0
O663 O 0.70783 0.26865 0.33582 0.0
C664 C 0.65582 0.29617 0.24061 0.0
C665 C 0.69518 0.3246 0.2359 0.0
C666 C 0.66005 0.33816 0.3232 0.0
C667 C 0.66269 0.28639 0.39679 0.0
C668 C 0.70249 0.31308 0.40344 0.0
C669 C 0.70324 0.27861 0.30999 0.0
O670 O 0.65165 0.30919 0.23146 0.0
O671 O 0.66564 0.29386 0.26904 0.0
C672 C 0.10131 0.47375 0.17326 0.0
C673 C 0.09448 0.45994 0.16843 0.0
C674 C 0.10442 0.47936 0.21369 0.0
C675 C 0.08791 0.47569 0.3196 0.0
H676 H 0.11396 0.50812 0.34719 0.0
C677 C 0.07688 0.5099 0.46815 0.0
C678 C 0.07679 0.52521 0.46193 0.0
C679 C 0.08366 0.50058 0.43875 0.0
C680 C 0.10661 0.49907 0.34 0.0
H681 H 0.08759 0.44028 0.20189 0.0
H682 H 0.09364 0.44973 0.27242 0.0
H683 H 0.11869 0.49308 0.28413 0.0
H684 H 0.08428 0.54289 0.42132 0.0
H685 H 0.09599 0.52661 0.36926 0.0
H686 H 0.07552 0.4819 0.37422 0.0
C687 C 0.09607 0.45653 0.24503 0.0
C688 C 0.10932 0.49042 0.30382 0.0
C689 C 0.09289 0.45094 0.20445 0.0
C690 C 0.08445 0.53113 0.42721 0.0
C691 C 0.09111 0.52176 0.39735 0.0
C692 C 0.08525 0.48426 0.35567 0.0
C693 C 0.10088 0.47121 0.25031 0.0
C694 C 0.0998 0.47879 0.29253 0.0
C695 C 0.09023 0.50632 0.40181 0.0
C696 C 0.09436 0.49627 0.36602 0.0
H697 H 0.10265 0.48096 0.14606 0.0
H698 H 0.10816 0.49065 0.21605 0.0
H699 H 0.08006 0.46715 0.31174 0.0
H700 H 0.07093 0.50508 0.49452 0.0
H701 H 0.08305 0.48879 0.44385 0.0
C702 C 0.72584 0.84614 0.71719 0.0
C703 C 0.71195 0.83996 0.72525 0.0
C704 C 0.73061 0.84853 0.67548 0.0
C705 C 0.72497 0.83048 0.5734 0.0
H706 H 0.75438 0.85803 0.53317 0.0
C707 C 0.7554 0.81796 0.41911 0.0
C708 C 0.77064 0.82014 0.4195 0.0
C709 C 0.74648 0.82446 0.44997 0.0
C710 C 0.74622 0.8502 0.54393 0.0
H711 H 0.69146 0.83331 0.69577 0.0
H712 H 0.6997 0.83766 0.62316 0.0
H713 H 0.74124 0.86305 0.59944 0.0
H714 H 0.78848 0.83137 0.45122 0.0
H715 H 0.77303 0.84234 0.50639 0.0
H716 H 0.73035 0.81719 0.51988 0.0
C717 C 0.70706 0.84033 0.6491 0.0
C718 C 0.73863 0.85313 0.58186 0.0
C719 C 0.70225 0.83802 0.69088 0.0
C720 C 0.77672 0.82968 0.44992 0.0
C721 C 0.76782 0.83595 0.48156 0.0
C722 C 0.73259 0.82751 0.53587 0.0
C723 C 0.7216 0.84477 0.64083 0.0
C724 C 0.72808 0.84316 0.59745 0.0
C725 C 0.75262 0.83295 0.48299 0.0
C726 C 0.74352 0.83718 0.52078 0.0
H727 H 0.73355 0.84786 0.74296 0.0
H728 H 0.74184 0.85202 0.67047 0.0
H729 H 0.7172 0.82235 0.58477 0.0
H730 H 0.75044 0.81066 0.39591 0.0
H731 H 0.73481 0.82226 0.44896 0.0
C732 C 0.40538 0.51069 0.67383 0.0
C733 C 0.4066 0.52612 0.67231 0.0
C734 C 0.398 0.50375 0.70718 0.0
C735 C 0.39197 0.51108 0.81985 0.0
H736 H 0.37674 0.47116 0.81897 0.0
C737 C 0.39317 0.47886 0.97338 0.0
C738 C 0.40035 0.46526 0.96934 0.0
C739 C 0.38691 0.4857 0.93788 0.0
C740 C 0.38092 0.48233 0.81985 0.0
H741 H 0.39985 0.54646 0.70224 0.0
H742 H 0.38665 0.53437 0.76052 0.0
H743 H 0.3781 0.48515 0.75264 0.0
H744 H 0.40535 0.44744 0.92609 0.0
H745 H 0.39471 0.45941 0.86389 0.0
H746 H 0.39556 0.50815 0.88622 0.0
C747 C 0.3916 0.52759 0.73613 0.0
C748 C 0.38169 0.49038 0.78178 0.0
C749 C 0.39897 0.53456 0.70242 0.0
C750 C 0.39965 0.45782 0.93025 0.0
C751 C 0.39361 0.46478 0.89444 0.0
C752 C 0.39118 0.50309 0.85774 0.0
C753 C 0.39172 0.51209 0.74014 0.0
C754 C 0.38771 0.5047 0.78105 0.0
C755 C 0.38805 0.47924 0.89732 0.0
C756 C 0.38608 0.48843 0.85818 0.0
H757 H 0.41123 0.50392 0.65107 0.0
H758 H 0.39843 0.49185 0.70899 0.0
H759 H 0.39692 0.52193 0.82074 0.0
H760 H 0.39368 0.48488 0.00309 0.0
H761 H 0.3823 0.49662 0.94162 0.0
C762 C 0.76356 0.16165 0.20455 0.0
C763 C 0.77884 0.16346 0.20529 0.0
C764 C 0.75663 0.15536 0.16933 0.0
C765 C 0.76211 0.15518 0.05516 0.0
H766 H 0.72404 0.13609 0.05574 0.0
C767 C 0.72432 0.1616 0.91147 0.0
C768 C 0.71031 0.16664 0.92279 0.0
C769 C 0.73333 0.15475 0.94173 0.0
C770 C 0.73469 0.14138 0.05489 0.0
H771 H 0.79902 0.15931 0.1712 0.0
H772 H 0.78691 0.14828 0.10917 0.0
H773 H 0.73948 0.13521 0.11921 0.0
H774 H 0.69434 0.1678 0.97337 0.0
H775 H 0.70992 0.15593 0.0262 0.0
H776 H 0.75704 0.16217 0.99204 0.0
C777 C 0.78026 0.15165 0.13597 0.0
C778 C 0.74356 0.14084 0.09127 0.0
C779 C 0.78722 0.15777 0.17168 0.0
C780 C 0.70501 0.16373 0.96375 0.0
C781 C 0.714 0.15692 0.99402 0.0
C782 C 0.75324 0.15575 0.01888 0.0
C783 C 0.76482 0.151 0.13361 0.0
C784 C 0.75712 0.14827 0.09246 0.0
C785 C 0.72855 0.153 0.98401 0.0
C786 C 0.73914 0.14939 0.01882 0.0
H787 H 0.75686 0.16619 0.2298 0.0
H788 H 0.74475 0.15521 0.16863 0.0
H789 H 0.77239 0.16118 0.05493 0.0
H790 H 0.72871 0.16395 0.8802 0.0
H791 H 0.74436 0.15164 0.93266 0.0
C792 C 0.89836 0.54125 0.9343 0.0
C793 C 0.89947 0.53223 0.97042 0.0
C794 C 0.89347 0.53534 0.89549 0.0
C795 C 0.88006 0.50016 0.84285 0.0
H796 H 0.90788 0.51195 0.75628 0.0
C797 C 0.90187 0.46249 0.70631 0.0
C798 C 0.90617 0.46932 0.66821 0.0
C799 C 0.89586 0.47087 0.73965 0.0
C800 C 0.89979 0.50864 0.77961 0.0
H801 H 0.89432 0.5107 0.99576 0.0
H802 H 0.8857 0.50048 0.92911 0.0
H803 H 0.90596 0.52619 0.821 0.0
H804 H 0.90643 0.48996 0.63387 0.0
H805 H 0.89549 0.50441 0.69097 0.0
H806 H 0.87461 0.48201 0.80176 0.0
C807 C 0.88864 0.51204 0.92986 0.0
C808 C 0.89862 0.51692 0.81697 0.0
C809 C 0.89347 0.51796 0.96852 0.0
C810 C 0.90298 0.48434 0.66258 0.0
C811 C 0.89696 0.49268 0.69566 0.0
C812 C 0.88134 0.49176 0.80545 0.0
C813 C 0.88959 0.52031 0.8921 0.0
C814 C 0.88893 0.51271 0.84964 0.0
C815 C 0.8941 0.48624 0.73548 0.0
C816 C 0.89138 0.49579 0.77355 0.0
H817 H 0.90301 0.55224 0.93458 0.0
H818 H 0.89388 0.54226 0.86748 0.0
H819 H 0.87232 0.49661 0.86683 0.0
H820 H 0.90457 0.45103 0.71199 0.0
H821 H 0.89383 0.46552 0.76985 0.0
C822 C 0.20956 0.16716 0.67477 0.0
C823 C 0.21545 0.17514 0.70899 0.0
C824 C 0.21881 0.16123 0.64341 0.0
C825 C 0.25585 0.16824 0.59812 0.0
H826 H 0.24665 0.13467 0.5268 0.0
C827 C 0.28948 0.15848 0.44728 0.0
C828 C 0.28071 0.15698 0.41076 0.0
C829 C 0.28346 0.15617 0.48782 0.0
C830 C 0.24942 0.14407 0.54645 0.0
H831 H 0.23555 0.1825 0.73873 0.0
H832 H 0.25173 0.17153 0.68569 0.0
H833 H 0.2321 0.13936 0.59064 0.0
H834 H 0.25935 0.15007 0.38798 0.0
H835 H 0.24896 0.14592 0.45804 0.0
H836 H 0.27281 0.17327 0.55359 0.0
C837 C 0.24 0.17017 0.68195 0.0
C838 C 0.24102 0.1468 0.58307 0.0
C839 C 0.23075 0.17628 0.71279 0.0
C840 C 0.26641 0.15133 0.41547 0.0
C841 C 0.26042 0.14898 0.45587 0.0
C842 C 0.26425 0.1655 0.56174 0.0
C843 C 0.23418 0.16311 0.64578 0.0
C844 C 0.24394 0.1591 0.60908 0.0
C845 C 0.26857 0.15221 0.49269 0.0
C846 C 0.261 0.15355 0.53482 0.0
H847 H 0.19778 0.16639 0.67073 0.0
H848 H 0.21384 0.156 0.61604 0.0
H849 H 0.25835 0.17801 0.61651 0.0
H850 H 0.30051 0.16286 0.44491 0.0
H851 H 0.2902 0.15841 0.51542 0.0
C852 C 0.57087 0.51373 0.18298 0.0
C853 C 0.57064 0.52917 0.18045 0.0
C854 C 0.57863 0.50662 0.21538 0.0
C855 C 0.58683 0.5126 0.32608 0.0
H856 H 0.60542 0.47429 0.31794 0.0
C857 C 0.58653 0.47575 0.47179 0.0
C858 C 0.58131 0.46153 0.46296 0.0
C859 C 0.59251 0.48448 0.43932 0.0
C860 C 0.60024 0.48498 0.32096 0.0
H861 H 0.57886 0.54932 0.20845 0.0
H862 H 0.59218 0.53688 0.26624 0.0
H863 H 0.6021 0.48923 0.25403 0.0
H864 H 0.57944 0.44476 0.41456 0.0
H865 H 0.58955 0.45982 0.35796 0.0
H866 H 0.58379 0.50805 0.39192 0.0
C867 C 0.58653 0.53027 0.24267 0.0
C868 C 0.59842 0.49357 0.28426 0.0
C869 C 0.57901 0.53739 0.20952 0.0
C870 C 0.58364 0.45561 0.42236 0.0
C871 C 0.58941 0.46436 0.38974 0.0
C872 C 0.58845 0.50395 0.36261 0.0
C873 C 0.58605 0.5148 0.2467 0.0
C874 C 0.59118 0.50725 0.28616 0.0
C875 C 0.59303 0.47926 0.39711 0.0
C876 C 0.59463 0.48972 0.36039 0.0
H877 H 0.5644 0.50717 0.1611 0.0
H878 H 0.57789 0.49473 0.2177 0.0
H879 H 0.58109 0.52302 0.32869 0.0
H880 H 0.58468 0.48064 0.50274 0.0
H881 H 0.59563 0.49571 0.44671 0.0
C882 C 0.2731 0.82888 0.21099 0.0
C883 C 0.2856 0.82109 0.19769 0.0
C884 C 0.26365 0.83532 0.18094 0.0
C885 C 0.26004 0.84583 0.06677 0.0
H886 H 0.22049 0.83051 0.07656 0.0
C887 C 0.22536 0.82942 0.92326 0.0
C888 C 0.21003 0.82861 0.92619 0.0
C889 C 0.23372 0.83483 0.95715 0.0
C890 C 0.23132 0.83529 0.07354 0.0
H891 H 0.29854 0.81467 0.14321 0.0
H892 H 0.28247 0.82633 0.091 0.0
H893 H 0.23728 0.82844 0.13642 0.0
H894 H 0.19129 0.83368 0.96565 0.0
H895 H 0.20585 0.84339 0.02497 0.0
H896 H 0.25427 0.85222 0.00336 0.0
C897 C 0.27982 0.82744 0.12439 0.0
C898 C 0.241 0.83405 0.10802 0.0
C899 C 0.28904 0.82073 0.15425 0.0
C900 C 0.2031 0.83445 0.96229 0.0
C901 C 0.21148 0.83979 0.99652 0.0
C902 C 0.25033 0.84719 0.0324 0.0
C903 C 0.26672 0.83433 0.13715 0.0
C904 C 0.25567 0.83873 0.10442 0.0
C905 C 0.22695 0.83936 0.99521 0.0
C906 C 0.23603 0.84132 0.03458 0.0
H907 H 0.27009 0.8291 0.24429 0.0
H908 H 0.25367 0.84058 0.19181 0.0
H909 H 0.27118 0.84979 0.06323 0.0
H910 H 0.23097 0.82468 0.89616 0.0
H911 H 0.24555 0.83416 0.95479 0.0
C912 C 0.58815 0.01157 0.96398 0.0
C913 C 0.58562 0.02684 0.96346 0.0
C914 C 0.59449 0.00445 0.92913 0.0
C915 C 0.59716 0.01061 0.81264 0.0
H916 H 0.61215 0.97061 0.81419 0.0
C917 C 0.60122 0.97866 0.6575 0.0
C918 C 0.59309 0.96548 0.65778 0.0
C919 C 0.60565 0.98529 0.69555 0.0
C920 C 0.60802 0.98179 0.81323 0.0
H921 H 0.58926 0.04688 0.92791 0.0
H922 H 0.60128 0.03467 0.86794 0.0
H923 H 0.61141 0.98491 0.87998 0.0
H924 H 0.58472 0.94808 0.69815 0.0
H925 H 0.59262 0.95957 0.76477 0.0
H926 H 0.59373 0.00745 0.74603 0.0
C927 C 0.59778 0.028 0.8946 0.0
C928 C 0.60751 0.99003 0.85105 0.0
C929 C 0.59123 0.03512 0.9295 0.0
C930 C 0.59111 0.95814 0.69675 0.0
C931 C 0.59553 0.96482 0.73503 0.0
C932 C 0.59791 0.00248 0.7749 0.0
C933 C 0.59863 0.01244 0.8927 0.0
C934 C 0.60169 0.00447 0.85163 0.0
C935 C 0.60205 0.97891 0.7349 0.0
C936 C 0.60305 0.98786 0.77474 0.0
H937 H 0.58374 0.00487 0.98949 0.0
H938 H 0.5948 0.99253 0.92952 0.0
H939 H 0.59226 0.02146 0.81127 0.0
H940 H 0.60291 0.98459 0.62801 0.0
H941 H 0.61096 0.99596 0.69426 0.0
C942 C 0.28735 0.33523 0.96061 0.0
C943 C 0.27954 0.3282 0.92794 0.0
C944 C 0.27985 0.34184 0.99454 0.0
C945 C 0.2429 0.35345 0.03379 0.0
H946 H 0.25669 0.33766 0.14095 0.0
C947 C 0.20556 0.34009 0.17604 0.0
C948 C 0.21199 0.33834 0.21626 0.0
C949 C 0.21394 0.34521 0.14173 0.0
C950 C 0.2528 0.34259 0.11171 0.0
H951 H 0.25791 0.32317 0.90367 0.0
H952 H 0.24478 0.3351 0.9619 0.0
H953 H 0.27156 0.33477 0.07778 0.0
H954 H 0.2315 0.34234 0.25359 0.0
H955 H 0.24585 0.35219 0.19465 0.0
H956 H 0.22383 0.36079 0.0677 0.0
C957 C 0.25666 0.33559 0.96158 0.0
C958 C 0.26139 0.34088 0.07525 0.0
C959 C 0.26416 0.32876 0.92816 0.0
C960 C 0.22623 0.34374 0.22297 0.0
C961 C 0.23455 0.34908 0.18889 0.0
C962 C 0.23432 0.35526 0.07044 0.0
C963 C 0.26439 0.34167 0.99609 0.0
C964 C 0.25638 0.34591 0.03559 0.0
C965 C 0.22888 0.34878 0.14725 0.0
C966 C 0.23896 0.34948 0.10975 0.0
H967 H 0.29923 0.33464 0.96159 0.0
H968 H 0.28614 0.34646 0.02053 0.0
H969 H 0.23878 0.35759 0.00378 0.0
H970 H 0.19469 0.33573 0.16986 0.0
H971 H 0.20912 0.34483 0.11031 0.0
C972 C 0.90104 0.03839 0.20011 0.0
C973 C 0.90066 0.02926 0.16402 0.0
C974 C 0.89735 0.03273 0.24029 0.0
C975 C 0.88417 -0.00176 0.29689 0.0
H976 H 0.91369 0.00992 0.37887 0.0
C977 C 0.9072 0.96024 0.42996 0.0
C978 C 0.91224 0.9668 0.46767 0.0
C979 C 0.90112 0.96891 0.39742 0.0
C980 C 0.90515 0.00665 0.35686 0.0
H981 H 0.89438 0.00765 0.14115 0.0
H982 H 0.88816 -0.0022 0.21032 0.0
H983 H 0.91086 0.02392 0.31396 0.0
H984 H 0.91419 0.98734 0.50198 0.0
H985 H 0.90311 0.00241 0.44614 0.0
H986 H 0.87915 0.98038 0.33933 0.0
C987 C 0.89125 0.0093 0.20833 0.0
C988 C 0.90346 0.01478 0.31938 0.0
C989 C 0.89483 0.01497 0.16832 0.0
C990 C 0.91013 0.98199 0.47352 0.0
C991 C 0.904 0.99063 0.44122 0.0
C992 C 0.88598 0.99 0.33433 0.0
C993 C 0.89327 0.0178 0.24529 0.0
C994 C 0.89318 0.01054 0.28824 0.0
C995 C 0.90005 0.98434 0.40195 0.0
C996 C 0.89669 0.99394 0.36447 0.0
H997 H 0.90553 0.04942 0.19809 0.0
H998 H 0.89861 0.03981 0.26773 0.0
H999 H 0.87593 0.99473 0.27426 0.0
H1000 H 0.9091 0.94862 0.42419 0.0
H1001 H 0.89834 0.96367 0.36757 0.0
C1002 C 0.20171 0.652 0.45331 0.0
C1003 C 0.21103 0.65343 0.41803 0.0
C1004 C 0.20731 0.64706 0.49241 0.0
C1005 C 0.24232 0.63465 0.54701 0.0
H1006 H 0.22999 0.66336 0.63073 0.0
C1007 C 0.281 0.66078 0.67176 0.0
C1008 C 0.27502 0.66614 0.7098 0.0
C1009 C 0.27204 0.65365 0.64186 0.0
C1010 C 0.23346 0.65499 0.60836 0.0
H1011 H 0.23284 0.64885 0.3943 0.0
H1012 H 0.24257 0.6404 0.46159 0.0
H1013 H 0.21544 0.65978 0.56744 0.0
H1014 H 0.25533 0.66756 0.74782 0.0
H1015 H 0.23976 0.65464 0.69656 0.0
H1016 H 0.26091 0.63062 0.58735 0.0
C1017 C 0.231 0.64304 0.45994 0.0
C1018 C 0.225 0.65287 0.57178 0.0
C1019 C 0.22541 0.64791 0.42103 0.0
C1020 C 0.26021 0.66336 0.71886 0.0
C1021 C 0.25128 0.65612 0.68923 0.0
C1022 C 0.25086 0.63686 0.58362 0.0
C1023 C 0.22233 0.64352 0.49689 0.0
C1024 C 0.22955 0.64306 0.53974 0.0
C1025 C 0.2569 0.6518 0.64945 0.0
C1026 C 0.24677 0.64741 0.61417 0.0
H1027 H 0.19059 0.65619 0.45205 0.0
H1028 H 0.20014 0.64712 0.51982 0.0
H1029 H 0.24606 0.62676 0.52361 0.0
H1030 H 0.29233 0.66308 0.66376 0.0
H1031 H 0.27676 0.65062 0.61154 0.0
C1032 C 0.40219 0.03966 0.42529 0.0
C1033 C 0.39985 0.03371 0.46584 0.0
C1034 C 0.39693 0.03244 0.38899 0.0
C1035 C 0.38499 0.99406 0.35819 0.0
H1036 H 0.38962 0.01079 0.24597 0.0
C1037 C 0.40353 0.9584 0.21754 0.0
C1038 C 0.40283 0.96381 0.17586 0.0
C1039 C 0.39769 0.96649 0.25141 0.0
C1040 C 0.38792 0.00578 0.27675 0.0
H1041 H 0.38863 0.01659 0.50068 0.0
H1042 H 0.37787 0.00498 0.43819 0.0
H1043 H 0.38769 0.0269 0.30643 0.0
H1044 H 0.3944 0.98135 0.1364 0.0
H1045 H 0.38295 0.99487 0.19468 0.0
H1046 H 0.3842 0.97299 0.32818 0.0
C1047 C 0.3847 0.01459 0.43353 0.0
C1048 C 0.38716 0.01516 0.31214 0.0
C1049 C 0.39047 0.02153 0.4698 0.0
C1050 C 0.39483 0.97675 0.16815 0.0
C1051 C 0.38863 0.98472 0.20197 0.0
C1052 C 0.38523 0.98472 0.32271 0.0
C1053 C 0.38878 0.01923 0.39228 0.0
C1054 C 0.38641 0.00948 0.35384 0.0
C1055 C 0.39073 0.9802 0.24454 0.0
C1056 C 0.38742 0.99032 0.28143 0.0
H1057 H 0.40966 0.04885 0.42124 0.0
H1058 H 0.40052 0.03663 0.35859 0.0
H1059 H 0.38443 0.98891 0.38911 0.0
H1060 H 0.41 0.94867 0.22454 0.0
H1061 H 0.39984 0.96247 0.28315 0.0
C1062 C 0.7858 0.66664 0.97305 0.0
C1063 C 0.78083 0.669 0.93145 0.0
C1064 C 0.7768 0.65969 0.00296 0.0
C1065 C 0.73748 0.65692 0.02556 0.0
H1066 H 0.75163 0.63752 0.1274 0.0
C1067 C 0.70301 0.65836 0.17775 0.0
C1068 C 0.71104 0.66492 0.21083 0.0
C1069 C 0.71031 0.65229 0.14257 0.0
C1070 C 0.74744 0.64281 0.09902 0.0
H1071 H 0.76298 0.66524 0.88745 0.0
H1072 H 0.74718 0.65291 0.93962 0.0
H1073 H 0.76724 0.63859 0.06436 0.0
H1074 H 0.73283 0.66926 0.23497 0.0
H1075 H 0.74556 0.6583 0.17481 0.0
H1076 H 0.718 0.66177 0.06076 0.0
C1077 C 0.75802 0.65647 0.94933 0.0
C1078 C 0.75641 0.64347 0.06289 0.0
C1079 C 0.76711 0.66336 0.91929 0.0
C1080 C 0.72641 0.66406 0.21016 0.0
C1081 C 0.73369 0.65778 0.17553 0.0
C1082 C 0.7285 0.65619 0.06159 0.0
C1083 C 0.7625 0.65512 0.99206 0.0
C1084 C 0.75182 0.65115 0.02634 0.0
C1085 C 0.72576 0.65252 0.14027 0.0
C1086 C 0.73363 0.64974 0.09942 0.0
H1087 H 0.79628 0.67107 0.9832 0.0
H1088 H 0.78065 0.65901 0.03546 0.0
H1089 H 0.73355 0.66303 0.99827 0.0
H1090 H 0.69114 0.65913 0.17725 0.0
H1091 H 0.70388 0.64823 0.11609 0.0
C1092 C 0.08303 0.9786 0.96787 0.0
C1093 C 0.08073 0.9633 0.96668 0.0
C1094 C 0.08946 0.98593 0.93343 0.0
C1095 C 0.08927 0.98116 0.81815 0.0
H1096 H 0.1073 0.01986 0.81925 0.0
C1097 C 0.08408 0.01797 0.67143 0.0
C1098 C 0.07914 0.03228 0.68036 0.0
C1099 C 0.09037 0.00926 0.70346 0.0
C1100 C 0.10226 0.00906 0.81829 0.0
H1101 H 0.08464 0.94347 0.93039 0.0
H1102 H 0.09614 0.95618 0.8703 0.0
H1103 H 0.10827 0.00442 0.8829 0.0
H1104 H 0.07752 0.049 0.72901 0.0
H1105 H 0.08842 0.03393 0.78498 0.0
H1106 H 0.08256 0.98596 0.75467 0.0
C1107 C 0.09282 0.9626 0.89767 0.0
C1108 C 0.10285 0.00017 0.85483 0.0
C1109 C 0.08646 0.95525 0.9324 0.0
C1110 C 0.08159 0.03812 0.72104 0.0
C1111 C 0.0878 0.02941 0.7532 0.0
C1112 C 0.08867 0.99002 0.78178 0.0
C1113 C 0.09356 0.97813 0.89665 0.0
C1114 C 0.09592 0.98628 0.85574 0.0
C1115 C 0.0916 0.01459 0.7454 0.0
C1116 C 0.09472 0.0043 0.78165 0.0
H1117 H 0.07852 0.98509 0.99364 0.0
H1118 H 0.08979 -0.00214 0.93407 0.0
H1119 H 0.08359 0.97068 0.81756 0.0
H1120 H 0.08203 0.0131 0.64055 0.0
H1121 H 0.09344 -0.00196 0.6959 0.0
C1122 C 0.72445 0.32884 0.41861 0.0
C1123 C 0.71065 0.32347 0.43102 0.0
C1124 C 0.73375 0.33566 0.44837 0.0
C1125 C 0.7357 0.35165 0.55771 0.0
H1126 H 0.77388 0.33299 0.56165 0.0
C1127 C 0.76746 0.34255 0.71255 0.0
C1128 C 0.78231 0.33844 0.71123 0.0
C1129 C 0.76012 0.34696 0.67556 0.0
C1130 C 0.76348 0.33873 0.56077 0.0
H1131 H 0.69549 0.32147 0.48349 0.0
H1132 H 0.71147 0.33369 0.53516 0.0
H1133 H 0.75793 0.3288 0.50114 0.0
H1134 H 0.80158 0.3377 0.67135 0.0
H1135 H 0.78908 0.34627 0.60727 0.0
H1136 H 0.74112 0.3614 0.61773 0.0
C1137 C 0.71516 0.33275 0.50257 0.0
C1138 C 0.75425 0.33623 0.52585 0.0
C1139 C 0.70598 0.32575 0.47301 0.0
C1140 C 0.79018 0.341 0.6736 0.0
C1141 C 0.78286 0.34552 0.63648 0.0
C1142 C 0.74502 0.35433 0.59244 0.0
C1143 C 0.72938 0.33734 0.49106 0.0
C1144 C 0.74003 0.34222 0.52451 0.0
C1145 C 0.76749 0.34748 0.63624 0.0
C1146 C 0.75887 0.34745 0.59538 0.0
H1147 H 0.72839 0.32699 0.38658 0.0
H1148 H 0.74458 0.33914 0.43834 0.0
H1149 H 0.72491 0.35665 0.5574 0.0
H1150 H 0.76104 0.34045 0.74089 0.0
H1151 H 0.74834 0.34836 0.6773 0.0
C1152 C 0.1558 0.35958 0.26684 0.0
C1153 C 0.15553 0.34424 0.27143 0.0
C1154 C 0.14674 0.36617 0.23691 0.0
C1155 C 0.11556 0.35964 0.16508 0.0
H1156 H 0.09436 0.38044 0.254 0.0
C1157 C 0.06728 0.38161 0.11124 0.0
C1158 C 0.07215 0.39623 0.10805 0.0
C1159 C 0.07076 0.37349 0.14734 0.0
C1160 C 0.10006 0.37444 0.22926 0.0
H1161 H 0.14884 0.32356 0.24335 0.0
H1162 H 0.13257 0.33505 0.19177 0.0
H1163 H 0.11942 0.37217 0.26672 0.0
H1164 H 0.08035 0.41508 0.14287 0.0
H1165 H 0.08726 0.40075 0.20455 0.0
H1166 H 0.09646 0.36219 0.12711 0.0
C1167 C 0.1396 0.34206 0.21086 0.0
C1168 C 0.11449 0.37004 0.23598 0.0
C1169 C 0.1489 0.33546 0.24036 0.0
C1170 C 0.07708 0.40361 0.14436 0.0
C1171 C 0.08087 0.39536 0.18001 0.0
C1172 C 0.10115 0.36407 0.15828 0.0
C1173 C 0.13719 0.35733 0.21295 0.0
C1174 C 0.12244 0.36291 0.20358 0.0
C1175 C 0.08 0.3799 0.1779 0.0
C1176 C 0.09333 0.37176 0.19007 0.0
H1177 H 0.1612 0.36645 0.29031 0.0
H1178 H 0.14537 0.37804 0.23771 0.0
H1179 H 0.12141 0.35392 0.14007 0.0
H1180 H 0.06279 0.37594 0.08385 0.0
H1181 H 0.06921 0.36166 0.1465 0.0
C1182 C 0.9177 0.89264 0.51434 0.0
C1183 C 0.90816 0.90448 0.52159 0.0
C1184 C 0.91547 0.88357 0.47928 0.0
C1185 C 0.89149 0.86203 0.46372 0.0
H1186 H 0.8678 0.86908 0.36369 0.0
C1187 C 0.84218 0.83 0.38545 0.0
C1188 C 0.83166 0.84013 0.37113 0.0
C1189 C 0.85416 0.83502 0.40892 0.0
C1190 C 0.87446 0.86694 0.39157 0.0
H1191 H 0.89094 0.91809 0.49557 0.0
H1192 H 0.88682 0.90225 0.4346 0.0
H1193 H 0.88971 0.88397 0.37566 0.0
H1194 H 0.82321 0.86227 0.37747 0.0
H1195 H 0.84386 0.87096 0.41977 0.0
H1196 H 0.87559 0.84559 0.48074 0.0
C1197 C 0.89601 0.89977 0.45524 0.0
C1198 C 0.88709 0.87524 0.39791 0.0
C1199 C 0.8982 0.9088 0.49037 0.0
C1200 C 0.83135 0.85437 0.38807 0.0
C1201 C 0.84321 0.85935 0.41182 0.0
C1202 C 0.87887 0.85365 0.45719 0.0
C1203 C 0.90345 0.88619 0.45246 0.0
C1204 C 0.89512 0.87359 0.43556 0.0
C1205 C 0.85532 0.85006 0.4182 0.0
C1206 C 0.86985 0.85678 0.42249 0.0
H1207 H 0.92565 0.88942 0.53822 0.0
H1208 H 0.92158 0.87335 0.47707 0.0
H1209 H 0.89742 0.86052 0.49324 0.0
H1210 H 0.8426 0.81897 0.37238 0.0
H1211 H 0.86337 0.82769 0.41418 0.0
C1212 C 0.34648 0.66748 0.76131 0.0
C1213 C 0.33655 0.65606 0.76986 0.0
C1214 C 0.35775 0.66525 0.73216 0.0
C1215 C 0.37509 0.63837 0.6611 0.0
H1216 H 0.40393 0.63393 0.75154 0.0
C1217 C 0.40231 0.58919 0.66181 0.0
C1218 C 0.41184 0.59199 0.62803 0.0
C1219 C 0.4 0.60016 0.69205 0.0
C1220 C 0.39619 0.63544 0.72578 0.0
H1221 H 0.32894 0.63443 0.75148 0.0
H1222 H 0.34843 0.63057 0.69976 0.0
H1223 H 0.3834 0.65109 0.76034 0.0
H1224 H 0.42881 0.60633 0.6036 0.0
H1225 H 0.42417 0.62579 0.65507 0.0
H1226 H 0.38733 0.62199 0.62779 0.0
C1227 C 0.34765 0.6412 0.71526 0.0
C1228 C 0.38456 0.64531 0.73041 0.0
C1229 C 0.33656 0.64332 0.74496 0.0
C1230 C 0.42123 0.60421 0.62943 0.0
C1231 C 0.41872 0.61527 0.65917 0.0
C1232 C 0.38681 0.62875 0.65617 0.0
C1233 C 0.35902 0.65161 0.71165 0.0
C1234 C 0.37353 0.64619 0.69908 0.0
C1235 C 0.40672 0.61399 0.68662 0.0
C1236 C 0.39696 0.62671 0.68937 0.0
H1237 H 0.34672 0.67728 0.78094 0.0
H1238 H 0.36642 0.67339 0.72965 0.0
H1239 H 0.36662 0.63874 0.63694 0.0
H1240 H 0.39511 0.57968 0.66123 0.0
H1241 H 0.39085 0.59894 0.71374 0.0
C1242 C 0.65293 0.15633 0.88937 0.0
C1243 C 0.66148 0.1499 0.85762 0.0
C1244 C 0.64719 0.14741 0.92126 0.0
C1245 C 0.63277 0.11198 0.9021 0.0
H1246 H 0.61013 0.12028 0.0032 0.0
C1247 C 0.57633 0.10346 0.9988 0.0
C1248 C 0.57905 0.08911 0.01301 0.0
C1249 C 0.58508 0.10936 0.96697 0.0
C1250 C 0.6163 0.11803 0.97449 0.0
H1251 H 0.67391 0.13068 0.83875 0.0
H1252 H 0.66426 0.11517 0.89539 0.0
H1253 H 0.63366 0.13251 0.99311 0.0
H1254 H 0.59018 0.06855 1.00003 0.0
H1255 H 0.6059 0.07904 0.94539 0.0
H1256 H 0.61524 0.09753 0.8836 0.0
C1257 C 0.66148 0.12678 0.89517 0.0
C1258 C 0.62986 0.12477 0.96929 0.0
C1259 C 0.66696 0.1356 0.8628 0.0
C1260 C 0.58815 0.07974 0.98953 0.0
C1261 C 0.59711 0.08574 0.95818 0.0
C1262 C 0.61923 0.10513 0.90753 0.0
C1263 C 0.65005 0.13216 0.92066 0.0
C1264 C 0.63804 0.12214 0.9325 0.0
C1265 C 0.59678 0.10099 0.95102 0.0
C1266 C 0.61073 0.1085 0.94307 0.0
H1267 H 0.64885 0.16748 0.88588 0.0
H1268 H 0.63868 0.15198 0.94131 0.0
H1269 H 0.63867 0.10995 0.87282 0.0
H1270 H 0.56906 0.11069 0.01631 0.0
H1271 H 0.58443 0.12109 0.96067 0.0
C1272 C 0.08573 0.59312 0.49918 0.0
C1273 C 0.09562 0.58666 0.52774 0.0
C1274 C 0.0903 0.60492 0.47415 0.0
C1275 C 0.11528 0.63453 0.49508 0.0
H1276 H 0.10731 0.64794 0.38078 0.0
C1277 C 0.15132 0.66654 0.39565 0.0
C1278 C 0.14534 0.67031 0.35625 0.0
C1279 C 0.14192 0.66413 0.42982 0.0
C1280 C 0.10917 0.64466 0.41343 0.0
H1281 H 0.11842 0.58485 0.5464 0.0
H1282 H 0.12656 0.60514 0.50144 0.0
H1283 H 0.09914 0.62366 0.40234 0.0
H1284 H 0.12612 0.67857 0.32351 0.0
H1285 H 0.10979 0.67487 0.38375 0.0
H1286 H 0.12584 0.65526 0.50576 0.0
C1287 C 0.1152 0.60164 0.4998 0.0
C1288 C 0.1047 0.6306 0.4253 0.0
C1289 C 0.1106 0.58998 0.52503 0.0
C1290 C 0.13074 0.67507 0.35361 0.0
C1291 C 0.12145 0.67309 0.38818 0.0
C1292 C 0.11969 0.64863 0.48332 0.0
C1293 C 0.10479 0.61002 0.47757 0.0
C1294 C 0.10836 0.62521 0.46548 0.0
C1295 C 0.12664 0.66536 0.42376 0.0
C1296 C 0.11736 0.65355 0.44166 0.0
H1297 H 0.07413 0.59064 0.50079 0.0
H1298 H 0.08216 0.61109 0.45646 0.0
H1299 H 0.11768 0.63072 0.52697 0.0
H1300 H 0.16272 0.66328 0.39836 0.0
H1301 H 0.14639 0.65874 0.45766 0.0
C1302 C 0.59824 0.91969 0.62735 0.0
C1303 C 0.58671 0.9095 0.62449 0.0
C1304 C 0.60963 0.91724 0.65607 0.0
C1305 C 0.62466 0.89107 0.73394 0.0
H1306 H 0.64823 0.87689 0.63938 0.0
C1307 C 0.66596 0.84572 0.7535 0.0
C1308 C 0.65513 0.83497 0.76014 0.0
C1309 C 0.66282 0.85797 0.72842 0.0
C1310 C 0.64209 0.88111 0.6662 0.0
H1311 H 0.57641 0.89046 0.6529 0.0
H1312 H 0.596 0.88641 0.70414 0.0
H1313 H 0.63139 0.89757 0.6289 0.0
H1314 H 0.6339 0.82685 0.74029 0.0
H1315 H 0.6286 0.84804 0.69522 0.0
H1316 H 0.63454 0.8738 0.77023 0.0
C1317 C 0.59647 0.89617 0.68432 0.0
C1318 C 0.63258 0.89299 0.66052 0.0
C1319 C 0.58529 0.89839 0.65492 0.0
C1320 C 0.64239 0.83504 0.73527 0.0
C1321 C 0.63938 0.84715 0.7096 0.0
C1322 C 0.63435 0.8794 0.73978 0.0
C1323 C 0.60934 0.90469 0.68203 0.0
C1324 C 0.62315 0.89741 0.69365 0.0
C1325 C 0.64898 0.85926 0.70964 0.0
C1326 C 0.64245 0.87388 0.70531 0.0
H1327 H 0.5995 0.92826 0.60364 0.0
H1328 H 0.61945 0.92394 0.65398 0.0
H1329 H 0.61737 0.89417 0.75962 0.0
H1330 H 0.67569 0.84602 0.77322 0.0
H1331 H 0.67028 0.86728 0.72889 0.0
C1332 C 0.38731 0.40564 0.0031 0.0
C1333 C 0.40178 0.40716 0.01729 0.0
C1334 C 0.38389 0.39448 0.97463 0.0
C1335 C 0.39307 0.36329 0.91262 0.0
H1336 H 0.37132 0.3423 1.00011 0.0
C1337 C 0.35849 0.32347 0.85084 0.0
C1338 C 0.34509 0.33071 0.85689 0.0
C1339 C 0.36901 0.32378 0.88286 0.0
C1340 C 0.3777 0.34779 0.97577 0.0
H1341 H 0.42439 0.40082 0.00724 0.0
H1342 H 0.41834 0.38103 0.95763 0.0
H1343 H 0.38258 0.36606 0.01627 0.0
H1344 H 0.33057 0.34084 0.90255 0.0
H1345 H 0.34921 0.34245 0.95746 0.0
H1346 H 0.3873 0.34586 0.87092 0.0
C1347 C 0.4097 0.38833 0.9684 0.0
C1348 C 0.38395 0.36142 0.98476 0.0
C1349 C 0.41315 0.39968 0.99652 0.0
C1350 C 0.34114 0.3357 0.89723 0.0
C1351 C 0.35181 0.33635 0.92886 0.0
C1352 C 0.38675 0.34968 0.90347 0.0
C1353 C 0.39495 0.38483 0.96109 0.0
C1354 C 0.39089 0.36955 0.95252 0.0
C1355 C 0.36639 0.33233 0.91924 0.0
C1356 C 0.37813 0.34229 0.93419 0.0
H1357 H 0.37846 0.4115 0.0187 0.0
H1358 H 0.37244 0.39201 0.96845 0.0
H1359 H 0.39865 0.36936 0.88778 0.0
H1360 H 0.36139 0.31902 0.82001 0.0
H1361 H 0.37997 0.31989 0.87572 0.0
C1362 C 0.84452 0.16472 0.23416 0.0
C1363 C 0.83464 0.15469 0.25222 0.0
C1364 C 0.85422 0.1598 0.20307 0.0
C1365 C 0.86896 0.12448 0.16149 0.0
H1366 H 0.89871 0.13136 0.248 0.0
C1367 C 0.90701 0.08396 0.16191 0.0
C1368 C 0.91642 0.09174 0.1349 0.0
C1369 C 0.90072 0.09139 0.19614 0.0
C1370 C 0.89038 0.12928 0.22418 0.0
H1371 H 0.82413 0.13348 0.2456 0.0
H1372 H 0.84075 0.12495 0.19109 0.0
H1373 H 0.87838 0.14865 0.24006 0.0
H1374 H 0.93033 0.11094 0.12865 0.0
H1375 H 0.9193 0.12381 0.18797 0.0
H1376 H 0.88077 0.10496 0.14624 0.0
C1377 C 0.84153 0.13636 0.20092 0.0
C1378 C 0.87899 0.13935 0.21857 0.0
C1379 C 0.83199 0.14119 0.23236 0.0
C1380 C 0.92262 0.10505 0.14862 0.0
C1381 C 0.91638 0.11236 0.18298 0.0
C1382 C 0.88024 0.11439 0.16733 0.0
C1383 C 0.854 0.14486 0.19133 0.0
C1384 C 0.86799 0.13686 0.18777 0.0
C1385 C 0.90353 0.10655 0.2008 0.0
C1386 C 0.89081 0.11649 0.19951 0.0
H1387 H 0.84651 0.17531 0.24897 0.0
H1388 H 0.86346 0.16673 0.19465 0.0
H1389 H 0.86064 0.12228 0.13771 0.0
H1390 H 0.90242 0.07347 0.15222 0.0
H1391 H 0.89127 0.08647 0.21146 0.0
C1392 C 0.8889 0.57823 0.02888 0.0
C1393 C 0.90152 0.5868 0.02238 0.0
C1394 C 0.87571 0.58227 0.00954 0.0
C1395 C 0.86102 0.61794 0.98377 0.0
H1396 H 0.82672 0.59812 0.939 0.0
C1397 C 0.82498 0.6533 0.89714 0.0
C1398 C 0.826 0.64775 0.85576 0.0
C1399 C 0.82552 0.64353 0.93152 0.0
C1400 C 0.83614 0.60379 0.9522 0.0
H1401 H 0.9113 0.60431 0.98555 0.0
H1402 H 0.88854 0.61077 0.94932 0.0
H1403 H 0.84837 0.58367 0.95883 0.0
H1404 H 0.82488 0.62807 0.8169 0.0
H1405 H 0.82626 0.61124 0.87568 0.0
H1406 H 0.8497 0.63804 0.97475 0.0
C1407 C 0.88855 0.60143 0.9708 0.0
C1408 C 0.84854 0.59551 0.96318 0.0
C1409 C 0.90161 0.59764 0.9909 0.0
C1410 C 0.82484 0.63255 0.84885 0.0
C1411 C 0.82532 0.62286 0.8829 0.0
C1412 C 0.84879 0.62617 0.97259 0.0
C1413 C 0.87529 0.59475 0.98332 0.0
C1414 C 0.86138 0.6027 0.97641 0.0
C1415 C 0.82743 0.62828 0.92428 0.0
C1416 C 0.8366 0.61933 0.95356 0.0
H1417 H 0.88872 0.56982 0.05336 0.0
H1418 H 0.86569 0.57679 0.01914 0.0
H1419 H 0.87053 0.62369 0.9962 0.0
H1420 H 0.82529 0.66506 0.90296 0.0
H1421 H 0.82639 0.64803 0.96331 0.0
C1422 C 0.08522 0.10259 0.64819 0.0
C1423 C 0.08603 0.08908 0.62716 0.0
C1424 C 0.09483 0.1055 0.68139 0.0
C1425 C 0.13207 0.09842 0.67614 0.0
H1426 H 0.13371 0.12977 0.75933 0.0
C1427 C 0.17346 0.1356 0.7643 0.0
C1428 C 0.16698 0.14957 0.767 0.0
C1429 C 0.16857 0.12572 0.73363 0.0
C1430 C 0.13332 0.12102 0.73591 0.0
H1431 H 0.09508 0.06704 0.628 0.0
H1432 H 0.11243 0.07234 0.68511 0.0
H1433 H 0.11217 0.11384 0.75665 0.0
H1434 H 0.15349 0.16569 0.73488 0.0
H1435 H 0.14453 0.14821 0.68213 0.0
H1436 H 0.15313 0.10609 0.65463 0.0
C1437 C 0.10437 0.08061 0.67665 0.0
C1438 C 0.1212 0.11177 0.73507 0.0
C1439 C 0.09448 0.0776 0.64402 0.0
C1440 C 0.15836 0.1548 0.73347 0.0
C1441 C 0.15336 0.14483 0.70303 0.0
C1442 C 0.1443 0.10768 0.67718 0.0
C1443 C 0.10565 0.09507 0.69198 0.0
C1444 C 0.12015 0.10082 0.70393 0.0
C1445 C 0.15684 0.12981 0.70747 0.0
C1446 C 0.1446 0.11941 0.7058 0.0
H1447 H 0.07854 0.11146 0.63562 0.0
H1448 H 0.0954 0.1167 0.69326 0.0
H1449 H 0.13144 0.09018 0.6513 0.0
H1450 H 0.18042 0.13158 0.7897 0.0
H1451 H 0.17166 0.11423 0.73662 0.0
C1452 C 0.65055 0.3436 0.39434 0.0
C1453 C 0.6618 0.34503 0.36449 0.0
C1454 C 0.64795 0.35504 0.42287 0.0
C1455 C 0.64816 0.38738 0.47096 0.0
H1456 H 0.62137 0.40132 0.3835 0.0
C1457 C 0.60105 0.42111 0.52114 0.0
C1458 C 0.59035 0.41002 0.52248 0.0
C1459 C 0.61256 0.42008 0.49217 0.0
C1460 C 0.6292 0.39804 0.40764 0.0
H1461 H 0.68058 0.35787 0.34455 0.0
H1462 H 0.67566 0.37817 0.39346 0.0
H1463 H 0.64043 0.38345 0.36549 0.0
H1464 H 0.58163 0.39061 0.4918 0.0
H1465 H 0.60147 0.389 0.44004 0.0
H1466 H 0.63622 0.40111 0.51383 0.0
C1467 C 0.6691 0.36824 0.39564 0.0
C1468 C 0.64001 0.38781 0.39754 0.0
C1469 C 0.67185 0.35668 0.36768 0.0
C1470 C 0.58986 0.39922 0.49091 0.0
C1471 C 0.60115 0.3984 0.46126 0.0
C1472 C 0.63758 0.39792 0.48088 0.0
C1473 C 0.65641 0.36797 0.42058 0.0
C1474 C 0.64894 0.38185 0.42964 0.0
C1475 C 0.61318 0.40806 0.46428 0.0
C1476 C 0.62746 0.40258 0.44981 0.0
H1477 H 0.64268 0.33468 0.39192 0.0
H1478 H 0.63804 0.35474 0.44187 0.0
H1479 H 0.65488 0.38274 0.49602 0.0
H1480 H 0.60147 0.42951 0.54558 0.0
H1481 H 0.62175 0.42759 0.4949 0.0
C1482 C 0.33003 0.8438 0.25004 0.0
C1483 C 0.34097 0.83727 0.27509 0.0
C1484 C 0.3337 0.85558 0.22358 0.0
C1485 C 0.35806 0.88503 0.24135 0.0
H1486 H 0.35256 0.8983 0.12574 0.0
C1487 C 0.39741 0.91512 0.14806 0.0
C1488 C 0.3926 0.91915 0.10756 0.0
C1489 C 0.38708 0.91306 0.18013 0.0
C1490 C 0.35369 0.89508 0.15871 0.0
H1491 H 0.36431 0.83526 0.28614 0.0
H1492 H 0.37079 0.85546 0.23872 0.0
H1493 H 0.34329 0.87427 0.14666 0.0
H1494 H 0.37458 0.92804 0.07082 0.0
H1495 H 0.35662 0.92496 0.12738 0.0
H1496 H 0.36906 0.90544 0.25318 0.0
C1497 C 0.35942 0.85199 0.24059 0.0
C1498 C 0.34858 0.88118 0.17023 0.0
C1499 C 0.35576 0.84039 0.26727 0.0
C1500 C 0.37829 0.9244 0.10183 0.0
C1501 C 0.36806 0.92274 0.13426 0.0
C1502 C 0.36306 0.89897 0.23001 0.0
C1503 C 0.34827 0.8605 0.22215 0.0
C1504 C 0.3515 0.87581 0.21088 0.0
C1505 C 0.37204 0.91492 0.17097 0.0
C1506 C 0.36176 0.90376 0.18785 0.0
H1507 H 0.31855 0.84142 0.25576 0.0
H1508 H 0.32501 0.86193 0.20887 0.0
H1509 H 0.35994 0.88115 0.27347 0.0
H1510 H 0.40859 0.91142 0.15311 0.0
H1511 H 0.39065 0.90754 0.20884 0.0
C1512 C 0.88012 0.42057 0.59557 0.0
C1513 C 0.8943 0.41575 0.60572 0.0
C1514 C 0.86856 0.41765 0.62311 0.0
C1515 C 0.86286 0.38426 0.67377 0.0
H1516 H 0.82376 0.39755 0.70323 0.0
C1517 C 0.82905 0.34222 0.73911 0.0
C1518 C 0.82845 0.34659 0.78168 0.0
C1519 C 0.82904 0.35299 0.7074 0.0
C1520 C 0.83457 0.39373 0.69414 0.0
H1521 H 0.90833 0.40676 0.65464 0.0
H1522 H 0.88801 0.40143 0.70306 0.0
H1523 H 0.84263 0.41568 0.68307 0.0
H1524 H 0.82399 0.36459 0.82488 0.0
H1525 H 0.82425 0.38332 0.77016 0.0
H1526 H 0.85535 0.36253 0.68503 0.0
C1527 C 0.88576 0.40741 0.67396 0.0
C1528 C 0.84537 0.40407 0.68354 0.0
C1529 C 0.89736 0.41038 0.64637 0.0
C1530 C 0.82505 0.36119 0.79199 0.0
C1531 C 0.82491 0.37188 0.76045 0.0
C1532 C 0.85215 0.37402 0.68369 0.0
C1533 C 0.8712 0.4096 0.66028 0.0
C1534 C 0.85972 0.39938 0.67472 0.0
C1535 C 0.82877 0.36802 0.71878 0.0
C1536 C 0.83799 0.3786 0.69526 0.0
H1537 H 0.87771 0.42495 0.56428 0.0
H1538 H 0.85745 0.41962 0.61217 0.0
H1539 H 0.87368 0.38029 0.66525 0.0
H1540 H 0.83122 0.33084 0.73073 0.0
H1541 H 0.83154 0.34973 0.67509 0.0
C1542 C 0.34798 0.15095 0.39216 0.0
C1543 C 0.33579 0.15325 0.36596 0.0
C1544 C 0.34858 0.13847 0.41784 0.0
C1545 C 0.34181 0.10839 0.46932 0.0
H1546 H 0.36318 0.0873 0.38156 0.0
C1547 C 0.38564 0.07274 0.5235 0.0
C1548 C 0.39716 0.08278 0.51748 0.0
C1549 C 0.37365 0.07288 0.49596 0.0
C1550 C 0.35669 0.09257 0.40606 0.0
H1551 H 0.31417 0.14542 0.34847 0.0
H1552 H 0.31548 0.12324 0.39245 0.0
H1553 H 0.34696 0.10764 0.36207 0.0
H1554 H 0.40672 0.09895 0.47546 0.0
H1555 H 0.38598 0.09899 0.42653 0.0
H1556 H 0.35256 0.0943 0.51371 0.0
C1557 C 0.32427 0.13126 0.39421 0.0
C1558 C 0.34746 0.10421 0.39504 0.0
C1559 C 0.32351 0.14398 0.36938 0.0
C1560 C 0.39784 0.09118 0.48039 0.0
C1561 C 0.38601 0.09107 0.45231 0.0
C1562 C 0.35071 0.09649 0.48028 0.0
C1563 C 0.33718 0.12806 0.4164 0.0
C1564 C 0.34088 0.1128 0.42688 0.0
C1565 C 0.37327 0.083 0.46233 0.0
C1566 C 0.35915 0.08933 0.44899 0.0
H1567 H 0.35761 0.15789 0.38935 0.0
H1568 H 0.35869 0.13603 0.43456 0.0
H1569 H 0.33693 0.11502 0.4942 0.0
H1570 H 0.38506 0.06616 0.55219 0.0
H1571 H 0.36397 0.06656 0.50413 0.0
C1572 C 0.58454 0.59697 0.15076 0.0
C1573 C 0.58505 0.58377 0.12793 0.0
C1574 C 0.59665 0.6012 0.17475 0.0
C1575 C 0.6331 0.59786 0.21031 0.0
H1576 H 0.64067 0.62719 0.12283 0.0
C1577 C 0.67016 0.64005 0.2562 0.0
C1578 C 0.65978 0.65108 0.26407 0.0
C1579 C 0.66807 0.63044 0.22223 0.0
C1580 C 0.63901 0.61872 0.14664 0.0
H1581 H 0.59652 0.56313 0.1193 0.0
H1582 H 0.61793 0.57069 0.16059 0.0
H1583 H 0.61971 0.61059 0.116 0.0
H1584 H 0.64113 0.66301 0.23945 0.0
H1585 H 0.63735 0.64632 0.18024 0.0
H1586 H 0.65162 0.6067 0.24282 0.0
C1587 C 0.60835 0.57777 0.16009 0.0
C1588 C 0.62695 0.60941 0.14314 0.0
C1589 C 0.59609 0.57344 0.13667 0.0
C1590 C 0.64905 0.65432 0.23386 0.0
C1591 C 0.64704 0.6448 0.19972 0.0
C1592 C 0.64521 0.60718 0.21385 0.0
C1593 C 0.6092 0.59225 0.17517 0.0
C1594 C 0.62349 0.59959 0.17617 0.0
C1595 C 0.65541 0.63178 0.19713 0.0
C1596 C 0.64766 0.61835 0.1834 0.0
H1597 H 0.57601 0.605 0.14443 0.0
H1598 H 0.59712 0.61237 0.18687 0.0
H1599 H 0.63064 0.59015 0.23563 0.0
H1600 H 0.67869 0.63768 0.27923 0.0
H1601 H 0.67488 0.62069 0.22005 0.0
C1602 C 0.17167 0.86322 0.85356 0.0
C1603 C 0.1657 0.84902 0.85617 0.0
C1604 C 0.17039 0.87274 0.88795 0.0
C1605 C 0.14697 0.87665 0.98452 0.0
H1606 H 0.12399 0.90047 0.90619 0.0
C1607 C 0.08894 0.88761 0.02292 0.0
C1608 C 0.08645 0.90254 0.03132 0.0
C1609 C 0.10062 0.88355 0.99723 0.0
C1610 C 0.13044 0.89405 0.92844 0.0
H1611 H 0.15692 0.83231 0.89796 0.0
H1612 H 0.15365 0.84912 0.95708 0.0
H1613 H 0.1472 0.89011 0.88308 0.0
H1614 H 0.09202 0.92497 0.01427 0.0
H1615 H 0.11262 0.91781 0.96887 0.0
H1616 H 0.12945 0.87981 0.02867 0.0
C1617 C 0.15948 0.8531 0.92938 0.0
C1618 C 0.14388 0.88829 0.91569 0.0
C1619 C 0.16116 0.84344 0.89535 0.0
C1620 C 0.0939 0.91338 0.00805 0.0
C1621 C 0.10573 0.9093 0.98249 0.0
C1622 C 0.13347 0.88232 0.99707 0.0
C1623 C 0.16227 0.86826 0.92355 0.0
C1624 C 0.15187 0.8788 0.94279 0.0
C1625 C 0.10984 0.89443 0.98027 0.0
C1626 C 0.12483 0.89038 0.9683 0.0
H1627 H 0.17576 0.86745 0.82362 0.0
H1628 H 0.17331 0.88422 0.88361 0.0
H1629 H 0.15294 0.86957 0.00617 0.0
H1630 H 0.0831 0.87915 0.04037 0.0
H1631 H 0.10343 0.87198 0.99462 0.0
C1632 C 0.97128 0.53051 0.12863 0.0
C1633 C 0.95687 0.52506 0.12822 0.0
C1634 C 0.98276 0.52029 0.12881 0.0
C1635 C 0.98851 0.48052 0.10795 0.0
H1636 H 0.98948 0.49448 0.9913 0.0
C1637 C 0.02195 0.45129 0.02663 0.0
C1638 C 0.03214 0.46281 0.02209 0.0
C1639 C 0.00754 0.45343 0.01278 0.0
C1640 C 0.98929 0.49032 0.02353 0.0
H1641 H 0.9433 0.50786 0.15444 0.0
H1642 H 0.96291 0.4898 0.15456 0.0
H1643 H 0.98239 0.51108 0.0476 0.0
H1644 H 0.03674 0.48315 0.98889 0.0
H1645 H 0.01162 0.48687 0.96691 0.0
H1646 H -0.00376 0.46004 0.08487 0.0
C1647 C 0.96572 0.50127 0.14944 0.0
C1648 C 0.98541 0.49992 0.05609 0.0
C1649 C 0.95443 0.5117 0.14956 0.0
C1650 C 0.02883 0.47444 0.99454 0.0
C1651 C 0.0143 0.47649 0.98197 0.0
C1652 C 0.99287 0.471 0.07553 0.0
C1653 C 0.97929 0.5052 0.1315 0.0
C1654 C 0.98529 0.49523 0.09875 0.0
C1655 C 0.0034 0.46785 1.00178 0.0
C1656 C 0.99393 0.47593 0.03283 0.0
H1657 H 0.97354 0.54141 0.1162 0.0
H1658 H 0.99344 0.52378 0.11756 0.0
H1659 H 0.98797 0.4765 0.14033 0.0
H1660 H 0.02421 0.44201 0.04725 0.0
H1661 H -0.00069 0.44555 0.02281 0.0
C1662 C 0.78678 0.75868 0.23931 0.0
C1663 C 0.78574 0.77282 0.25701 0.0
C1664 C 0.77384 0.75051 0.23512 0.0
C1665 C 0.75041 0.75749 0.32068 0.0
H1666 H 0.74117 0.71606 0.31232 0.0
C1667 C 0.70701 0.7278 0.39409 0.0
C1668 C 0.70751 0.71375 0.37564 0.0
C1669 C 0.72027 0.73522 0.40046 0.0
C1670 C 0.74405 0.72757 0.31582 0.0
H1671 H 0.7718 0.79199 0.25971 0.0
H1672 H 0.74946 0.77833 0.2489 0.0
H1673 H 0.75054 0.72883 0.25055 0.0
H1674 H 0.72052 0.69388 0.37267 0.0
H1675 H 0.74344 0.70642 0.38672 0.0
H1676 H 0.74395 0.75624 0.38595 0.0
C1677 C 0.75979 0.77269 0.24375 0.0
C1678 C 0.74904 0.73495 0.27979 0.0
C1679 C 0.77277 0.78068 0.24912 0.0
C1680 C 0.72007 0.70523 0.3834 0.0
C1681 C 0.73333 0.71251 0.39109 0.0
C1682 C 0.74544 0.75011 0.35674 0.0
C1683 C 0.76051 0.75724 0.24671 0.0
C1684 C 0.75226 0.75001 0.28163 0.0
C1685 C 0.73338 0.728 0.38921 0.0
C1686 C 0.74206 0.73507 0.35482 0.0
H1687 H 0.7971 0.75278 0.24055 0.0
H1688 H 0.77477 0.73864 0.23305 0.0
H1689 H 0.75328 0.76902 0.32405 0.0
H1690 H 0.69702 0.73424 0.39242 0.0
H1691 H 0.71989 0.7471 0.40369 0.0
C1692 C 0.53867 0.47896 0.61735 0.0
C1693 C 0.52909 0.46693 0.61325 0.0
C1694 C 0.53272 0.49314 0.61901 0.0
C1695 C 0.50456 0.49782 0.54965 0.0
H1696 H 0.51162 0.53976 0.55087 0.0
C1697 C 0.46616 0.52644 0.49159 0.0
C1698 C 0.46563 0.53783 0.52155 0.0
C1699 C 0.47938 0.52379 0.47045 0.0
C1700 C 0.50964 0.52803 0.54917 0.0
H1701 H 0.50747 0.45915 0.62979 0.0
H1702 H 0.497 0.48369 0.63364 0.0
H1703 H 0.5203 0.52473 0.60949 0.0
H1704 H 0.47622 0.55809 0.54157 0.0
H1705 H 0.49894 0.55295 0.50363 0.0
H1706 H 0.49504 0.50032 0.48897 0.0
C1707 C 0.50882 0.48265 0.63154 0.0
C1708 C 0.51443 0.51951 0.5836 0.0
C1709 C 0.51486 0.46851 0.62953 0.0
C1710 C 0.4767 0.54861 0.5207 0.0
C1711 C 0.48977 0.54551 0.49932 0.0
C1712 C 0.50028 0.50615 0.51479 0.0
C1713 C 0.51741 0.49471 0.61832 0.0
C1714 C 0.51136 0.50442 0.58492 0.0
C1715 C 0.49207 0.53085 0.48639 0.0
C1716 C 0.50172 0.52162 0.51494 0.0
H1717 H 0.55006 0.47785 0.60793 0.0
H1718 H 0.53977 0.50238 0.61131 0.0
H1719 H 0.50261 0.48606 0.54867 0.0
H1720 H 0.45739 0.51839 0.48953 0.0
H1721 H 0.48017 0.51393 0.45127 0.0
C1722 C 0.70691 0.22977 0.7462 0.0
C1723 C 0.70725 0.21624 0.7675 0.0
C1724 C 0.72023 0.23646 0.73596 0.0
C1725 C 0.74658 0.22964 0.82034 0.0
H1726 H 0.74624 0.27217 0.81954 0.0
C1727 C 0.78366 0.26931 0.87835 0.0
C1728 C 0.77763 0.28292 0.86663 0.0
C1729 C 0.77421 0.25814 0.89194 0.0
C1730 C 0.74632 0.26025 0.82081 0.0
H1731 H 0.72005 0.19633 0.77542 0.0
H1732 H 0.74296 0.2078 0.75501 0.0
H1733 H 0.73907 0.25919 0.75677 0.0
H1734 H 0.75914 0.29744 0.87657 0.0
H1735 H 0.74306 0.27809 0.90148 0.0
H1736 H 0.75522 0.23106 0.88371 0.0
C1737 C 0.73293 0.21403 0.75079 0.0
C1738 C 0.74227 0.25275 0.78417 0.0
C1739 C 0.71968 0.20731 0.76194 0.0
C1740 C 0.76389 0.28676 0.8835 0.0
C1741 C 0.75461 0.27555 0.89788 0.0
C1742 C 0.75129 0.23723 0.85652 0.0
C1743 C 0.73328 0.22951 0.74951 0.0
C1744 C 0.74181 0.23729 0.7835 0.0
C1745 C 0.75905 0.26091 0.89096 0.0
C1746 C 0.75109 0.25264 0.85738 0.0
H1747 H 0.69707 0.23647 0.74672 0.0
H1748 H 0.71994 0.24803 0.7279 0.0
H1749 H 0.74629 0.21775 0.82228 0.0
H1750 H 0.79446 0.2662 0.86719 0.0
H1751 H 0.77829 0.24693 0.89112 0.0
C1752 C 0.97624 0.45241 0.51106 0.0
C1753 C 0.96362 0.46122 0.51385 0.0
C1754 C 0.98943 0.45904 0.49874 0.0
C1755 C -0.00471 0.49878 0.52836 0.0
H1756 H 0.01444 0.47929 0.62302 0.0
C1757 C 0.01154 0.53576 0.63284 0.0
C1758 C 0.02572 0.53527 0.6155 0.0
C1759 C 0.00464 0.52246 0.64319 0.0
C1760 C 0.00878 0.48478 0.59721 0.0
H1761 H 0.95312 0.48031 0.48641 0.0
H1762 H 0.97594 0.49148 0.46399 0.0
H1763 H 0.00691 0.46498 0.56196 0.0
H1764 H 0.04575 0.52253 0.61482 0.0
H1765 H 0.03373 0.49959 0.6309 0.0
H1766 H -0.00362 0.51834 0.56482 0.0
C1767 C 0.97639 0.48044 0.47678 0.0
C1768 C 0.00474 0.47667 0.5612 0.0
C1769 C 0.96312 0.4739 0.48858 0.0
C1770 C 0.03443 0.52298 0.62521 0.0
C1771 C 0.02743 0.50964 0.63435 0.0
C1772 C -0.00127 0.50666 0.56485 0.0
C1773 C 0.9895 0.47444 0.49345 0.0
C1774 C -0.00246 0.48346 0.52626 0.0
C1775 C 0.01203 0.50926 0.63355 0.0
C1776 C 0.00555 0.49983 0.59984 0.0
H1777 H 0.97667 0.44182 0.52691 0.0
H1778 H -0.00047 0.45304 0.50394 0.0
H1779 H 0.99036 0.50485 0.50251 0.0
H1780 H 0.00476 0.54545 0.62849 0.0
H1781 H 0.99281 0.52248 0.64663 0.0
C1782 C 0.76569 0.72301 0.76237 0.0
C1783 C 0.77277 0.71183 0.78509 0.0
C1784 C 0.75099 0.72139 0.75093 0.0
C1785 C 0.71842 0.72032 0.75386 0.0
H1786 H 0.7133 0.71569 0.87538 0.0
C1787 C 0.69667 0.76787 0.83521 0.0
C1788 C 0.70955 0.77313 0.85456 0.0
C1789 C 0.69451 0.75274 0.82971 0.0
C1790 C 0.71411 0.71671 0.84116 0.0
H1791 H 0.77108 0.68925 0.80686 0.0
H1792 H 0.74546 0.68639 0.78673 0.0
H1793 H 0.73048 0.70006 0.83811 0.0
H1794 H 0.72886 0.76688 0.89006 0.0
H1795 H 0.72506 0.74062 0.88161 0.0
H1796 H 0.70342 0.73826 0.75809 0.0
C1797 C 0.75111 0.69644 0.77786 0.0
C1798 C 0.72398 0.70767 0.81944 0.0
C1799 C 0.76587 0.69805 0.78909 0.0
C1800 C 0.71884 0.7631 0.87503 0.0
C1801 C 0.7166 0.74798 0.87009 0.0
C1802 C 0.70851 0.72933 0.77557 0.0
C1803 C 0.74312 0.70871 0.7634 0.0
C1804 C 0.72757 0.7107 0.77674 0.0
C1805 C 0.70522 0.74273 0.8437 0.0
C1806 C 0.70767 0.72874 0.82025 0.0
H1807 H 0.77083 0.73372 0.7589 0.0
H1808 H 0.74534 0.73105 0.73901 0.0
H1809 H 0.72055 0.72255 0.72061 0.0
H1810 H 0.68937 0.77531 0.81877 0.0
H1811 H 0.68553 0.74903 0.80981 0.0
C1812 C 0.47636 0.47332 0.12237 0.0
C1813 C 0.46831 0.46162 0.10501 0.0
C1814 C 0.49167 0.47264 0.12266 0.0
C1815 C 0.52364 0.47132 0.09549 0.0
H1816 H 0.51653 0.47044 0.97387 0.0
C1817 C 0.54314 0.51752 0.02385 0.0
C1818 C 0.52934 0.52435 0.02121 0.0
C1819 C 0.5446 0.5027 0.01275 0.0
C1820 C 0.51914 0.4703 0.00746 0.0
H1821 H 0.46931 0.43889 0.08501 0.0
H1822 H 0.49588 0.43759 0.08598 0.0
H1823 H 0.50171 0.45532 0.02084 0.0
H1824 H 0.50757 0.5226 0.99464 0.0
H1825 H 0.50984 0.4968 0.97693 0.0
H1826 H 0.53993 0.48746 0.08289 0.0
C1827 C 0.49062 0.44736 0.0986 0.0
C1828 C 0.51066 0.46159 0.03459 0.0
C1829 C 0.47531 0.44803 0.09872 0.0
C1830 C 0.51823 0.51742 0.99783 0.0
C1831 C 0.51961 0.50252 0.98757 0.0
C1832 C 0.53229 0.47983 0.06836 0.0
C1833 C 0.49879 0.46026 0.10529 0.0
C1834 C 0.51198 0.46305 0.07903 0.0
C1835 C 0.53199 0.49462 1.00184 0.0
C1836 C 0.52912 0.48051 0.02443 0.0
H1837 H 0.47113 0.48387 0.12801 0.0
H1838 H 0.49768 0.48271 0.1289 0.0
H1839 H 0.52491 0.47261 0.12953 0.0
H1840 H 0.55193 0.52251 0.042 0.0
H1841 H 0.55455 0.497 0.02191 0.0
C1842 C 0.79228 0.23078 0.3796 0.0
C1843 C 0.78418 0.21801 0.37045 0.0
C1844 C 0.78477 0.24417 0.38283 0.0
C1845 C 0.75694 0.24794 0.31083 0.0
H1846 H 0.76006 0.2902 0.32136 0.0
C1847 C 0.71682 0.27331 0.24399 0.0
C1848 C 0.71279 0.2834 0.2755 0.0
C1849 C 0.73134 0.27326 0.22969 0.0
C1850 C 0.75915 0.27843 0.31718 0.0
H1851 H 0.76332 0.20748 0.38181 0.0
H1852 H 0.75011 0.23052 0.38907 0.0
H1853 H 0.76961 0.27452 0.37754 0.0
H1854 H 0.71913 0.30371 0.30692 0.0
H1855 H 0.74434 0.30275 0.28283 0.0
H1856 H 0.74769 0.25104 0.25034 0.0
C1857 C 0.76199 0.23085 0.38881 0.0
C1858 C 0.76447 0.26947 0.35011 0.0
C1859 C 0.76963 0.21755 0.38493 0.0
C1860 C 0.7222 0.29528 0.28421 0.0
C1861 C 0.73678 0.29456 0.27079 0.0
C1862 C 0.75219 0.25672 0.27753 0.0
C1863 C 0.7694 0.24412 0.37976 0.0
C1864 C 0.76282 0.25415 0.34795 0.0
C1865 C 0.74183 0.28116 0.25372 0.0
C1866 C 0.75215 0.27222 0.28103 0.0
H1867 H 0.80387 0.23117 0.37221 0.0
H1868 H 0.7909 0.25429 0.37843 0.0
H1869 H 0.75604 0.23612 0.30713 0.0
H1870 H 0.70949 0.26448 0.23473 0.0
H1871 H 0.73462 0.26457 0.20819 0.0
C1872 C 0.29307 0.26175 0.75254 0.0
C1873 C 0.28963 0.27601 0.76664 0.0
C1874 C 0.2816 0.25164 0.74788 0.0
C1875 C 0.25678 0.25505 0.82799 0.0
H1876 H 0.24596 0.21436 0.81068 0.0
C1877 C 0.21039 0.23128 0.89251 0.0
C1878 C 0.20775 0.21843 0.86913 0.0
C1879 C 0.22484 0.23488 0.90282 0.0
C1880 C 0.2493 0.22559 0.81699 0.0
H1881 H 0.2731 0.29295 0.76258 0.0
H1882 H 0.25312 0.27569 0.75326 0.0
H1883 H 0.25749 0.22789 0.75331 0.0
H1884 H 0.21686 0.19711 0.85265 0.0
H1885 H 0.24126 0.20279 0.87569 0.0
H1886 H 0.24968 0.25276 0.89209 0.0
C1887 C 0.26425 0.27161 0.75043 0.0
C1888 C 0.25552 0.23342 0.78328 0.0
C1889 C 0.27582 0.2816 0.75539 0.0
C1890 C 0.21839 0.20722 0.87024 0.0
C1891 C 0.23269 0.21072 0.88246 0.0
C1892 C 0.25113 0.24712 0.86208 0.0
C1893 C 0.26719 0.25648 0.75523 0.0
C1894 C 0.2589 0.24835 0.78808 0.0
C1895 C 0.23619 0.22568 0.88776 0.0
C1896 C 0.24665 0.23244 0.8568 0.0
H1897 H 0.30407 0.25749 0.75682 0.0
H1898 H 0.28423 0.23999 0.74847 0.0
H1899 H 0.25973 0.26646 0.83328 0.0
H1900 H 0.2021 0.23982 0.8943 0.0
H1901 H 0.22697 0.2461 0.91263 0.0
C1902 C 0.19407 0.72861 0.29087 0.0
C1903 C 0.20764 0.72158 0.28529 0.0
C1904 C 0.19278 0.74371 0.28268 0.0
C1905 C 0.20616 0.7691 0.32962 0.0
H1906 H 0.23431 0.7918 0.26515 0.0
C1907 C 0.26327 0.77265 0.36309 0.0
C1908 C 0.27205 0.78301 0.34218 0.0
C1909 C 0.24819 0.77501 0.36662 0.0
C1910 C 0.22606 0.78612 0.28373 0.0
H1911 H 0.22937 0.72361 0.25862 0.0
H1912 H 0.22713 0.74965 0.24332 0.0
H1913 H 0.21759 0.77543 0.22825 0.0
H1914 H 0.27266 0.80502 0.31554 0.0
H1915 H 0.24627 0.80893 0.32051 0.0
H1916 H 0.21617 0.77809 0.38546 0.0
C1917 C 0.21747 0.74389 0.25457 0.0
C1918 C 0.21644 0.77668 0.26233 0.0
C1919 C 0.21883 0.7289 0.2634 0.0
C1920 C 0.26607 0.79683 0.33183 0.0
C1921 C 0.25092 0.79908 0.33455 0.0
C1922 C 0.2159 0.7784 0.35105 0.0
C1923 C 0.2051 0.75174 0.26907 0.0
C1924 C 0.20763 0.76687 0.28549 0.0
C1925 C 0.24174 0.78754 0.34786 0.0
C1926 C 0.227 0.78569 0.32842 0.0
H1927 H 0.18529 0.72316 0.30796 0.0
H1928 H 0.183 0.74941 0.29329 0.0
H1929 H 0.19929 0.76191 0.34857 0.0
H1930 H 0.26767 0.76194 0.37138 0.0
H1931 H 0.24147 0.76592 0.37758 0.0
C1932 C 0.26298 0.21494 0.24122 0.0
C1933 C 0.27642 0.21816 0.26099 0.0
C1934 C 0.25093 0.22385 0.25119 0.0
C1935 C 0.2477 0.24018 0.35268 0.0
H1936 H 0.20667 0.24602 0.32712 0.0
C1937 C 0.21856 0.28124 0.39773 0.0
C1938 C 0.20612 0.28113 0.37153 0.0
C1939 C 0.22227 0.26836 0.41948 0.0
C1940 C 0.21801 0.24406 0.3355 0.0
H1941 H 0.29031 0.23641 0.27849 0.0
H1942 H 0.26974 0.25256 0.29473 0.0
H1943 H 0.22352 0.24039 0.27008 0.0
H1944 H 0.18548 0.26996 0.35969 0.0
H1945 H 0.19268 0.24763 0.3963 0.0
H1946 H 0.24238 0.24396 0.41789 0.0
C1947 C 0.26761 0.24228 0.27833 0.0
C1948 C 0.22771 0.24114 0.30223 0.0
C1949 C 0.27943 0.23308 0.26842 0.0
C1950 C 0.19551 0.27012 0.37818 0.0
C1951 C 0.19969 0.25722 0.39941 0.0
C1952 C 0.23802 0.24296 0.38598 0.0
C1953 C 0.25326 0.23654 0.27593 0.0
C1954 C 0.24274 0.23993 0.31027 0.0
C1955 C 0.21473 0.25538 0.40807 0.0
C1956 C 0.22319 0.24599 0.37766 0.0
H1957 H 0.26086 0.20387 0.22983 0.0
H1958 H 0.23999 0.21947 0.24645 0.0
H1959 H 0.25917 0.23841 0.36019 0.0
H1960 H 0.22666 0.28992 0.395 0.0
H1961 H 0.23315 0.26782 0.43323 0.0
C1962 C 0.27232 0.71525 0.88027 0.0
C1963 C 0.28593 0.7204 0.86576 0.0
C1964 C 0.26128 0.72559 0.88821 0.0
C1965 C 0.2535 0.76353 0.85052 0.0
H1966 H 0.2446 0.74216 0.74667 0.0
C1967 C 0.21742 0.79059 0.76206 0.0
C1968 C 0.20607 0.78032 0.76794 0.0
C1969 C 0.23117 0.78555 0.74904 0.0
C1970 C 0.24694 0.74837 0.77527 0.0
H1971 H 0.30111 0.73858 0.87074 0.0
H1972 H 0.28208 0.75662 0.88351 0.0
H1973 H 0.25478 0.72922 0.80669 0.0
H1974 H 0.19814 0.75894 0.7485 0.0
H1975 H 0.22199 0.75009 0.72795 0.0
H1976 H 0.24486 0.78254 0.82038 0.0
C1977 C 0.27916 0.74506 0.88533 0.0
C1978 C 0.25261 0.74088 0.81016 0.0
C1979 C 0.29016 0.73465 0.87802 0.0
C1980 C 0.20711 0.76677 0.74693 0.0
C1981 C 0.22099 0.76169 0.73537 0.0
C1982 C 0.24732 0.77098 0.81604 0.0
C1983 C 0.26446 0.74058 0.88135 0.0
C1984 C 0.25588 0.74834 0.84833 0.0
C1985 C 0.23332 0.77023 0.74678 0.0
C1986 C 0.24364 0.76343 0.77802 0.0
H1987 H 0.26905 0.70397 0.8741 0.0
H1988 H 0.25 0.72182 0.88843 0.0
H1989 H 0.25634 0.76961 0.879 0.0
H1990 H 0.21679 0.80144 0.77625 0.0
H1991 H 0.24048 0.79288 0.75265 0.0
C1992 C 0.44847 0.0138 0.65296 0.0
C1993 C 0.45367 0.02674 0.63374 0.0
C1994 C 0.45838 0.00226 0.65964 0.0
C1995 C 0.48193 -0.00068 0.57604 0.0
H1996 H 0.48559 0.95787 0.60099 0.0
C1997 C 0.52039 0.97289 0.49267 0.0
C1998 C 0.5269 0.96336 0.52208 0.0
C1999 C 0.50512 0.97327 0.48967 0.0
C2000 C 0.48447 0.96935 0.59259 0.0
H2001 H 0.47274 0.04072 0.62852 0.0
H2002 H 0.48996 0.02125 0.64324 0.0
H2003 H 0.47779 0.97462 0.65637 0.0
H2004 H 0.52315 0.94408 0.5614 0.0
H2005 H 0.49681 0.9446 0.55371 0.0
H2006 H 0.48715 0.99461 0.51241 0.0
C2007 C 0.47842 0.01908 0.64866 0.0
C2008 C 0.48025 0.97898 0.62514 0.0
C2009 C 0.46842 0.03044 0.64078 0.0
C2010 C 0.51841 0.95193 0.53943 0.0
C2011 C 0.50317 0.95254 0.53592 0.0
C2012 C 0.48551 0.98974 0.54333 0.0
C2013 C 0.47319 0.00448 0.64908 0.0
C2014 C 0.47943 0.99414 0.61749 0.0
C2015 C 0.49681 0.96562 0.52056 0.0
C2016 C 0.4878 0.97463 0.55119 0.0
H2017 H 0.43687 0.01118 0.65163 0.0
H2018 H 0.45404 0.99121 0.66327 0.0
H2019 H 0.48086 0.0109 0.56834 0.0
H2020 H 0.52681 0.98135 0.47701 0.0
H2021 H 0.50031 0.98177 0.47007 0.0
C2022 C 0.01398 0.97063 0.13105 0.0
C2023 C 0.02811 0.96825 0.11489 0.0
C2024 C 0.00884 0.9851 0.13401 0.0
C2025 C 0.01654 0.02183 0.08667 0.0
H2026 H 0.99316 0.00442 0.9969 0.0
C2027 C 0.97165 0.04652 0.03004 0.0
C2028 C 0.96271 0.03526 0.0137 0.0
C2029 C 0.98645 0.04695 0.01893 0.0
C2030 C -0.0002 0.00975 0.02088 0.0
H2031 H 0.04968 0.97793 0.10976 0.0
H2032 H 0.04085 0.00302 0.11358 0.0
H2033 H 0.00187 0.98933 0.05294 0.0
H2034 H 0.96086 0.01871 0.96443 0.0
H2035 H 0.98665 0.02033 0.9441 0.0
H2036 H 0.01432 0.04242 0.05422 0.0
C2037 C 0.03328 0.9942 0.12119 0.0
C2038 C 0.00454 0.00095 0.05409 0.0
C2039 C 0.03838 0.97969 0.11922 0.0
C2040 C 0.96772 0.02711 0.97881 0.0
C2041 C 0.98253 0.0281 0.96734 0.0
C2042 C 0.01155 0.03083 0.05338 0.0
C2043 C 0.0181 0.99669 0.12094 0.0
C2044 C 0.01244 0.00694 0.08826 0.0
C2045 C 0.99225 0.03494 0.99622 0.0
C2046 C 0.00233 0.0251 0.02115 0.0
H2047 H 0.00602 0.96174 0.13085 0.0
H2048 H -0.00289 0.98684 0.13646 0.0
H2049 H 0.02328 0.02654 0.11156 0.0
H2050 H 0.96795 0.05333 0.05618 0.0
H2051 H 0.99348 0.05426 0.0369 0.0
C2052 C 0.44996 0.98162 0.99224 0.0
C2053 C 0.45214 0.96722 0.00712 0.0
C2054 C 0.46239 0.99015 0.98361 0.0
C2055 C 0.48893 0.98195 0.05954 0.0
H2056 H 0.49541 0.02399 0.05882 0.0
C2057 C 0.53116 0.01101 0.13899 0.0
C2058 C 0.53068 0.02506 0.12058 0.0
C2059 C 0.5179 0.00356 0.14475 0.0
C2060 C 0.49331 0.01227 0.06039 0.0
H2061 H 0.46602 0.94828 0.9988 0.0
H2062 H 0.48768 0.96277 0.98299 0.0
H2063 H 0.48544 0.01224 0.99626 0.0
H2064 H 0.51754 0.04479 0.11648 0.0
H2065 H 0.49476 0.03239 0.13178 0.0
H2066 H 0.49625 0.98197 0.12404 0.0
C2067 C 0.47712 0.96826 0.98314 0.0
C2068 C 0.488 0.0055 0.0237 0.0
C2069 C 0.46461 0.95985 0.99206 0.0
C2070 C 0.51809 0.03356 0.128 0.0
C2071 C 0.50487 0.02627 0.13588 0.0
C2072 C 0.49401 0.98874 0.09645 0.0
C2073 C 0.47629 0.98362 0.98905 0.0
C2074 C 0.48558 0.99027 0.02282 0.0
C2075 C 0.50482 0.0108 0.13301 0.0
C2076 C 0.49635 0.004 0.09753 0.0
H2077 H 0.43973 0.98724 0.99875 0.0
H2078 H 0.46113 0.00202 0.98352 0.0
H2079 H 0.48689 0.9702 0.06085 0.0
H2080 H 0.54119 0.00461 0.13766 0.0
H2081 H 0.51833 0.99169 0.14797 0.0
C2082 C 0.95829 0.97493 0.63754 0.0
C2083 C 0.96323 0.96061 0.62878 0.0
C2084 C 0.96873 0.98626 0.63789 0.0
C2085 C 0.00753 0.99026 0.60083 0.0
H2086 H 0.98752 4e-05 0.49552 0.0
C2087 C 0.03986 0.01875 0.50745 0.0
C2088 C 0.03179 0.03165 0.51516 0.0
C2089 C 0.03229 0.00608 0.4948 0.0
C2090 C 0.99332 0.99731 0.5245 0.0
H2091 H 0.98087 0.94563 0.64333 0.0
H2092 H -0.00071 0.96484 0.64442 0.0
H2093 H 0.97341 0.99253 0.55684 0.0
H2094 H 0.01237 0.04353 0.49597 0.0
H2095 H -0.00082 0.02162 0.47546 0.0
H2096 H 0.02741 0.99542 0.56929 0.0
C2097 C 0.98786 0.9681 0.64446 0.0
C2098 C 0.98521 0.9933 0.5602 0.0
C2099 C 0.97722 0.95698 0.64409 0.0
C2100 C 0.01838 0.03325 0.49387 0.0
C2101 C 0.01077 0.02051 0.4823 0.0
C2102 C 0.01565 0.99452 0.56535 0.0
C2103 C 0.98363 0.98249 0.63304 0.0
C2104 C 0.9922 0.98974 0.59888 0.0
C2105 C 0.01687 0.00678 0.49359 0.0
C2106 C 0.00866 -0.00164 0.52668 0.0
H2107 H 0.94695 0.97783 0.63142 0.0
H2108 H 0.96507 -0.00253 0.63261 0.0
H2109 H 0.01325 0.98733 0.62981 0.0
H2110 H 0.05079 0.01751 0.52055 0.0
H2111 H 0.03776 0.99554 0.4982 0.0
C2112 C 0.0248 0.4036 0.96041 0.0
C2113 C 0.03106 0.41768 0.96364 0.0
C2114 C 0.01252 0.40126 0.93469 0.0
C2115 C 0.98337 0.42002 0.87232 0.0
H2116 H 0.9893 0.38793 0.79262 0.0
C2117 C 0.9717 0.41356 0.69033 0.0
C2118 C 0.95703 0.41812 0.68848 0.0
C2119 C 0.9776 0.40837 0.72844 0.0
C2120 C 0.98734 0.39675 0.81511 0.0
H2121 H 0.02953 0.44037 0.94318 0.0
H2122 H 0.00805 0.43637 0.89798 0.0
H2123 H 0.00541 0.3903 0.85426 0.0
H2124 H 0.93667 0.41989 0.72336 0.0
H2125 H 0.94705 0.411 0.79051 0.0
H2126 H 0.96582 0.42693 0.83175 0.0
C2127 C 0.01234 0.42718 0.91609 0.0
C2128 C -0.00349 0.3981 0.8505 0.0
C2129 C 0.02462 0.42951 0.94194 0.0
C2130 C 0.94796 0.41615 0.72403 0.0
C2131 C 0.95393 0.41122 0.76245 0.0
C2132 C 0.9741 0.41857 0.83717 0.0
C2133 C 0.00639 0.41294 0.91133 0.0
C2134 C 0.99498 0.41007 0.87861 0.0
C2135 C 0.96898 0.40802 0.76546 0.0
C2136 C 0.97634 0.40723 0.8074 0.0
H2137 H 0.02968 0.39433 0.97691 0.0
H2138 H 0.00809 0.39022 0.93203 0.0
H2139 H 0.98183 0.42926 0.89363 0.0
H2140 H 0.97893 0.41529 0.66345 0.0
H2141 H 0.98926 0.40609 0.72989 0.0
C2142 C 0.83555 0.70609 0.97191 0.0
C2143 C 0.83772 0.71232 0.93154 0.0
C2144 C 0.84078 0.71328 0.00834 0.0
C2145 C 0.84696 0.75201 0.03665 0.0
H2146 H 0.85279 0.73669 0.1504 0.0
C2147 C 0.84749 0.79137 0.17817 0.0
C2148 C 0.83791 0.78759 0.21146 0.0
C2149 C 0.85154 0.78093 0.14769 0.0
C2150 C 0.85119 0.74111 0.11877 0.0
H2151 H 0.84866 0.72969 0.89692 0.0
H2152 H 0.85874 0.74164 0.95993 0.0
H2153 H 0.85411 0.71997 0.08923 0.0
H2154 H 0.82597 0.76947 0.24036 0.0
H2155 H 0.833 0.75128 0.18693 0.0
H2156 H 0.84361 0.77298 0.06577 0.0
C2157 C 0.85245 0.7316 0.96394 0.0
C2158 C 0.85196 0.73155 0.08371 0.0
C2159 C 0.84696 0.7246 0.92767 0.0
C2160 C 0.83333 0.77281 0.21513 0.0
C2161 C 0.83741 0.76234 0.18455 0.0
C2162 C 0.84629 0.76151 0.07143 0.0
C2163 C 0.8484 0.72673 0.00481 0.0
C2164 C 0.84967 0.73686 0.04214 0.0
C2165 C 0.84613 0.76642 0.14962 0.0
C2166 C 0.84822 0.75621 0.11298 0.0
H2167 H 0.82823 0.69677 0.97574 0.0
H2168 H 0.83747 0.7091 0.03911 0.0
H2169 H 0.84463 0.75653 0.00553 0.0
H2170 H 0.85138 0.80258 0.17449 0.0
H2171 H 0.8585 0.78437 0.12162 0.0
C2172 C 0.53413 0.58768 0.21545 0.0
C2173 C 0.52439 0.58488 0.1818 0.0
C2174 C 0.52885 0.59336 0.254 0.0
C2175 C 0.49492 0.60732 0.30852 0.0
H2176 H 0.50612 0.57947 0.39615 0.0
C2177 C 0.45969 0.59965 0.45981 0.0
C2178 C 0.45679 0.58486 0.46994 0.0
C2179 C 0.47088 0.60327 0.43101 0.0
C2180 C 0.5029 0.5874 0.37218 0.0
H2181 H 0.50202 0.58731 0.16 0.0
H2182 H 0.49289 0.59748 0.22619 0.0
H2183 H 0.52072 0.58133 0.33167 0.0
H2184 H 0.46268 0.56231 0.45638 0.0
H2185 H 0.48229 0.56845 0.40702 0.0
H2186 H 0.47647 0.61259 0.34768 0.0
C2187 C 0.50454 0.59532 0.22354 0.0
C2188 C 0.51142 0.58864 0.33537 0.0
C2189 C 0.50976 0.5895 0.1854 0.0
C2190 C 0.46526 0.57379 0.45097 0.0
C2191 C 0.47642 0.57736 0.42232 0.0
C2192 C 0.48638 0.60606 0.34533 0.0
C2193 C 0.51381 0.59645 0.25917 0.0
C2194 C 0.50717 0.59815 0.30223 0.0
C2195 C 0.47926 0.59214 0.41144 0.0
C2196 C 0.48991 0.59563 0.3768 0.0
H2197 H 0.54543 0.58404 0.21359 0.0
H2198 H 0.53633 0.5943 0.28064 0.0
H2199 H 0.49144 0.61489 0.2839 0.0
H2200 H 0.45317 0.60838 0.47369 0.0
H2201 H 0.47278 0.61476 0.42352 0.0
C2202 C 0.65483 0.20838 0.66283 0.0
C2203 C 0.65328 0.21069 0.70663 0.0
C2204 C 0.65126 0.21938 0.63388 0.0
C2205 C 0.64405 0.25945 0.62206 0.0
H2206 H 0.6321 0.24544 0.51112 0.0
C2207 C 0.65728 0.29142 0.47152 0.0
C2208 C 0.65228 0.28606 0.43233 0.0
C2209 C 0.65184 0.2856 0.50947 0.0
C2210 C 0.635 0.24988 0.54186 0.0
H2211 H 0.64714 0.22654 0.75482 0.0
H2212 H 0.64003 0.24581 0.70364 0.0
H2213 H 0.63337 0.22849 0.56928 0.0
H2214 H 0.63626 0.27214 0.40154 0.0
H2215 H 0.62542 0.26327 0.46753 0.0
H2216 H 0.64492 0.28105 0.59505 0.0
C2217 C 0.64429 0.23547 0.69177 0.0
C2218 C 0.6361 0.23991 0.57541 0.0
C2219 C 0.64827 0.22445 0.7211 0.0
C2220 C 0.64027 0.27645 0.43149 0.0
C2221 C 0.63436 0.27108 0.46956 0.0
C2222 C 0.6425 0.26959 0.58864 0.0
C2223 C 0.64559 0.23298 0.64763 0.0
C2224 C 0.6415 0.24435 0.61528 0.0
C2225 C 0.64098 0.27452 0.50901 0.0
C2226 C 0.63876 0.26483 0.54727 0.0
H2227 H 0.65912 0.19805 0.65081 0.0
H2228 H 0.65314 0.21718 0.60052 0.0
H2229 H 0.64801 0.26339 0.65245 0.0
H2230 H 0.66669 0.29872 0.47284 0.0
H2231 H 0.65734 0.28878 0.53849 0.0
C2232 C 0.95167 0.57268 0.91098 0.0
C2233 C 0.96003 0.56763 0.94546 0.0
C2234 C 0.95857 0.57903 0.87568 0.0
C2235 C 0.99483 0.59334 0.83745 0.0
H2236 H 0.98134 0.57897 0.72832 0.0
C2237 C 0.03224 0.599 0.69172 0.0
C2238 C 0.03269 0.58666 0.66483 0.0
C2239 C 0.02076 0.60072 0.72096 0.0
C2240 C 0.98536 0.58305 0.75847 0.0
H2241 H 0.98188 0.56547 0.97124 0.0
H2242 H 0.99402 0.57658 0.91013 0.0
H2243 H 0.96673 0.57438 0.79137 0.0
H2244 H 0.02106 0.56689 0.64605 0.0
H2245 H 0.00177 0.56928 0.69803 0.0
H2246 H 0.01404 0.60086 0.80564 0.0
C2247 C 0.98216 0.57593 0.91008 0.0
C2248 C 0.9768 0.58062 0.79472 0.0
C2249 C 0.97526 0.5695 0.9451 0.0
C2250 C 0.02101 0.57657 0.66613 0.0
C2251 C 0.0098 0.57803 0.69605 0.0
C2252 C 0.00352 0.59553 0.80141 0.0
C2253 C 0.97396 0.58046 0.87439 0.0
C2254 C 0.98167 0.5853 0.83495 0.0
C2255 C 0.00971 0.5899 0.72491 0.0
C2256 C -0.00082 0.58997 0.76153 0.0
H2257 H 0.93988 0.57109 0.91052 0.0
H2258 H 0.95188 0.58248 0.84901 0.0
H2259 H -0.00123 0.59745 0.86769 0.0
H2260 H 0.04101 0.60706 0.69113 0.0
H2261 H 0.02089 0.61029 0.7415 0.0
C2262 C 0.65436 0.69851 0.16928 0.0
C2263 C 0.65507 0.70847 0.20335 0.0
C2264 C 0.65002 0.70339 0.12898 0.0
C2265 C 0.63594 0.73577 0.06873 0.0
H2266 H 0.67059 0.73016 0.9989 0.0
C2267 C 0.65768 0.78161 0.96588 0.0
C2268 C 0.66275 0.77889 0.92451 0.0
C2269 C 0.65415 0.77006 0.99296 0.0
C2270 C 0.66066 0.73158 0.01734 0.0
H2271 H 0.65012 0.73065 0.22385 0.0
H2272 H 0.64192 0.73902 0.15441 0.0
H2273 H 0.66632 0.71409 0.05992 0.0
H2274 H 0.66856 0.76189 0.87937 0.0
H2275 H 0.66246 0.74131 0.92757 0.0
H2276 H 0.63072 0.75379 0.02768 0.0
C2277 C 0.64483 0.72752 0.15819 0.0
C2278 C 0.65816 0.72235 0.05225 0.0
C2279 C 0.64943 0.72273 0.19814 0.0
C2280 C 0.66478 0.76425 0.91122 0.0
C2281 C 0.66118 0.75254 0.93862 0.0
C2282 C 0.6384 0.74494 0.03385 0.0
C2283 C 0.64607 0.7182 0.12264 0.0
C2284 C 0.64616 0.72483 0.07951 0.0
C2285 C 0.65549 0.7554 0.97944 0.0
C2286 C 0.65118 0.74344 0.00916 0.0
H2287 H 0.6589 0.68752 0.17249 0.0
H2288 H 0.65095 0.69594 0.1022 0.0
H2289 H 0.62652 0.73784 0.08885 0.0
H2290 H 0.6563 0.79279 0.97735 0.0
H2291 H 0.65034 0.77266 0.02469 0.0
C2292 C 0.51769 0.40369 0.44588 0.0
C2293 C 0.53181 0.40983 0.44729 0.0
C2294 C 0.51183 0.3987 0.40741 0.0
C2295 C 0.51325 0.41062 0.29834 0.0
H2296 H 0.48407 0.38008 0.2817 0.0
C2297 C 0.47106 0.41385 0.16042 0.0
C2298 C 0.45651 0.41099 0.17283 0.0
C2299 C 0.48285 0.41019 0.18725 0.0
C2300 C 0.49218 0.3887 0.28576 0.0
H2301 H 0.55128 0.41465 0.41061 0.0
H2302 H 0.54103 0.40597 0.34309 0.0
H2303 H 0.50074 0.3787 0.34236 0.0
H2304 H 0.44311 0.40134 0.22266 0.0
H2305 H 0.46334 0.3952 0.26896 0.0
H2306 H 0.5041 0.42118 0.2436 0.0
C2307 C 0.53454 0.40487 0.37173 0.0
C2308 C 0.50179 0.38783 0.3204 0.0
C2309 C 0.54049 0.40962 0.41047 0.0
C2310 C 0.45412 0.40377 0.21181 0.0
C2311 C 0.46582 0.40011 0.23844 0.0
C2312 C 0.50355 0.41157 0.26391 0.0
C2313 C 0.51987 0.40008 0.36946 0.0
C2314 C 0.51209 0.39905 0.32794 0.0
C2315 C 0.48035 0.40346 0.22697 0.0
C2316 C 0.49249 0.40092 0.25813 0.0
H2317 H 0.51067 0.40411 0.47362 0.0
H2318 H 0.50047 0.39519 0.40677 0.0
H2319 H 0.52095 0.41955 0.30347 0.0
H2320 H 0.47335 0.4189 0.1301 0.0
H2321 H 0.4939 0.41273 0.177 0.0
C2322 C 0.8362 0.27 0.70559 0.0
C2323 C 0.8283 0.28287 0.69652 0.0
C2324 C 0.84222 0.26163 0.67249 0.0
C2325 C 0.84762 0.26038 0.55389 0.0
H2326 H 0.83747 0.21926 0.56965 0.0
C2327 C 0.83392 0.21939 0.41745 0.0
C2328 C 0.83835 0.20464 0.42238 0.0
C2329 C 0.83663 0.22976 0.44955 0.0
C2330 C 0.84063 0.23065 0.56484 0.0
H2331 H 0.8212 0.29765 0.64675 0.0
H2332 H 0.83155 0.28316 0.58908 0.0
H2333 H 0.83605 0.23604 0.62942 0.0
H2334 H 0.85019 0.18957 0.46366 0.0
H2335 H 0.85491 0.20759 0.51918 0.0
H2336 H 0.8514 0.25493 0.48838 0.0
C2337 C 0.83344 0.27952 0.62138 0.0
C2338 C 0.8399 0.24031 0.59929 0.0
C2339 C 0.82752 0.28788 0.65444 0.0
C2340 C 0.84646 0.20077 0.4588 0.0
C2341 C 0.84911 0.21109 0.49084 0.0
C2342 C 0.84822 0.2507 0.51922 0.0
C2343 C 0.84022 0.26589 0.62976 0.0
C2344 C 0.84315 0.25537 0.59425 0.0
C2345 C 0.84382 0.22557 0.48723 0.0
C2346 C 0.84454 0.23575 0.52424 0.0
H2347 H 0.83669 0.2658 0.73779 0.0
H2348 H 0.84764 0.25135 0.68024 0.0
H2349 H 0.85037 0.27186 0.54885 0.0
H2350 H 0.82787 0.2228 0.38955 0.0
H2351 H 0.8324 0.24083 0.44581 0.0
C2352 C 0.02412 0.59325 0.43988 0.0
C2353 C 0.038 0.58675 0.44465 0.0
C2354 C 0.01889 0.59703 0.39954 0.0
C2355 C 0.0094 0.60386 0.30895 0.0
H2356 H 0.01586 0.5694 0.23843 0.0
C2357 C 0.97513 0.59461 0.15768 0.0
C2358 C 0.96893 0.58048 0.15355 0.0
C2359 C 0.98663 0.59721 0.18623 0.0
C2360 C 0.01397 0.57912 0.25759 0.0
H2361 H 0.05803 0.58091 0.41201 0.0
H2362 H 0.04905 0.58777 0.34146 0.0
H2363 H 0.03075 0.57313 0.30194 0.0
H2364 H 0.97019 0.55795 0.17564 0.0
H2365 H 0.99038 0.56237 0.2252 0.0
H2366 H 0.99208 0.60943 0.26597 0.0
C2367 C 0.04208 0.58973 0.36874 0.0
C2368 C 0.02266 0.5814 0.29375 0.0
C2369 C 0.04736 0.58609 0.40929 0.0
C2370 C 0.97504 0.56883 0.17701 0.0
C2371 C 0.98654 0.57143 0.20575 0.0
C2372 C 0.00075 0.60162 0.2727 0.0
C2373 C 0.02744 0.59428 0.36316 0.0
C2374 C 0.02023 0.59359 0.32056 0.0
C2375 C 0.99216 0.58577 0.21175 0.0
C2376 C 0.00266 0.58902 0.24711 0.0
H2377 H 0.0166 0.59362 0.46652 0.0
H2378 H 0.00758 0.60052 0.39662 0.0
H2379 H 0.00725 0.61338 0.32875 0.0
H2380 H 0.97065 0.60383 0.14007 0.0
H2381 H 0.99084 0.60832 0.18937 0.0
C2382 C 0.16209 0.29327 0.15723 0.0
C2383 C 0.16317 0.28576 0.19606 0.0
C2384 C 0.15615 0.28626 0.12152 0.0
C2385 C 0.13658 0.25285 0.08233 0.0
H2386 H 0.16534 0.25448 0.99178 0.0
C2387 C 0.14352 0.20636 0.95865 0.0
C2388 C 0.14997 0.20947 0.91904 0.0
C2389 C 0.14136 0.21754 0.98866 0.0
C2390 C 0.15692 0.25409 0.016 0.0
H2391 H 0.15824 0.26546 0.22901 0.0
H2392 H 0.14751 0.25325 0.16694 0.0
H2393 H 0.16752 0.27107 0.05174 0.0
H2394 H 0.15792 0.22708 0.87855 0.0
H2395 H 0.15358 0.24665 0.93002 0.0
H2396 H 0.1261 0.23567 0.0468 0.0
C2397 C 0.15112 0.26458 0.16396 0.0
C2398 C 0.15822 0.26364 0.05063 0.0
C2399 C 0.15719 0.27157 0.19958 0.0
C2400 C 0.15307 0.22424 0.90889 0.0
C2401 C 0.15072 0.23546 0.93869 0.0
C2402 C 0.13517 0.24337 0.04733 0.0
C2403 C 0.1512 0.27159 0.12405 0.0
C2404 C 0.14828 0.26293 0.08469 0.0
C2405 C 0.14542 0.2322 0.97968 0.0
C2406 C 0.14554 0.2436 0.01412 0.0
H2407 H 0.16691 0.30412 0.15365 0.0
H2408 H 0.15625 0.29199 0.09133 0.0
H2409 H 0.12869 0.2521 0.10795 0.0
H2410 H 0.141 0.19512 0.96771 0.0
H2411 H 0.13736 0.21447 0.0198 0.0
C2412 C 0.47118 0.41754 0.95466 0.0
C2413 C 0.45599 0.41973 0.95209 0.0
C2414 C 0.47882 0.41168 0.92015 0.0
C2415 C 0.47699 0.39504 0.81321 0.0
H2416 H 0.50588 0.42509 0.78663 0.0
C2417 C 0.52366 0.39371 0.68438 0.0
C2418 C 0.52547 0.40683 0.66104 0.0
C2419 C 0.51281 0.39266 0.71574 0.0
C2420 C 0.49781 0.41665 0.79351 0.0
H2421 H 0.4366 0.41646 0.91361 0.0
H2422 H 0.45 0.40618 0.85277 0.0
H2423 H 0.49256 0.42628 0.85343 0.0
H2424 H 0.51647 0.42864 0.64984 0.0
H2425 H 0.49782 0.42686 0.70513 0.0
H2426 H 0.48259 0.38536 0.75284 0.0
C2427 C 0.45598 0.40883 0.88154 0.0
C2428 C 0.49032 0.41721 0.832 0.0
C2429 C 0.44832 0.41469 0.91624 0.0
C2430 C 0.5154 0.41838 0.66719 0.0
C2431 C 0.50475 0.4174 0.69895 0.0
C2432 C 0.48477 0.3943 0.77474 0.0
C2433 C 0.47139 0.4081 0.88235 0.0
C2434 C 0.47981 0.40647 0.8423 0.0
C2435 C 0.50376 0.40477 0.72464 0.0
C2436 C 0.49512 0.40524 0.76446 0.0
H2437 H 0.4773 0.42146 0.98197 0.0
H2438 H 0.49068 0.41104 0.92176 0.0
H2439 H 0.46887 0.38667 0.82036 0.0
H2440 H 0.53117 0.38459 0.68017 0.0
H2441 H 0.51227 0.38282 0.73518 0.0
C2442 C 0.33396 0.76524 0.41614 0.0
C2443 C 0.33696 0.77989 0.42789 0.0
C2444 C 0.33733 0.7536 0.44379 0.0
C2445 C 0.33509 0.73382 0.52226 0.0
H2446 H 0.3689 0.73541 0.5972 0.0
C2447 C 0.3435 0.71931 0.70207 0.0
C2448 C 0.33633 0.70563 0.7029 0.0
C2449 C 0.34906 0.72485 0.66391 0.0
C2450 C 0.35951 0.7347 0.57616 0.0
H2451 H 0.34612 0.7937 0.47777 0.0
H2452 H 0.3517 0.77361 0.52564 0.0
H2453 H 0.36733 0.75224 0.53668 0.0
H2454 H 0.3309 0.68622 0.66629 0.0
H2455 H 0.3406 0.69588 0.5994 0.0
H2456 H 0.32696 0.71675 0.56274 0.0
C2457 C 0.34706 0.771 0.49484 0.0
C2458 C 0.35855 0.74438 0.54168 0.0
C2459 C 0.34374 0.78257 0.46733 0.0
C2460 C 0.33658 0.69672 0.66648 0.0
C2461 C 0.34192 0.70234 0.62809 0.0
C2462 C 0.33609 0.72409 0.55656 0.0
C2463 C 0.34377 0.75639 0.48368 0.0
C2464 C 0.34608 0.7444 0.51523 0.0
C2465 C 0.3473 0.71685 0.62597 0.0
C2466 C 0.34809 0.72474 0.58468 0.0
H2467 H 0.32877 0.76278 0.38597 0.0
H2468 H 0.33474 0.74243 0.43419 0.0
H2469 H 0.32525 0.73366 0.50293 0.0
H2470 H 0.34318 0.72647 0.72962 0.0
H2471 H 0.35311 0.73607 0.66335 0.0
C2472 C 0.02649 0.41532 0.18381 0.0
C2473 C 0.03852 0.42451 0.19247 0.0
C2474 C 0.01796 0.40971 0.21725 0.0
C2475 C 0.01607 0.40411 0.33415 0.0
H2476 H 0.97594 0.41774 0.32286 0.0
C2477 C 0.9689 0.39922 0.46265 0.0
C2478 C 0.96228 0.4129 0.4714 0.0
C2479 C 0.97916 0.39789 0.42953 0.0
C2480 C 0.98707 0.41373 0.32632 0.0
H2481 H 0.05191 0.43399 0.2423 0.0
H2482 H 0.03736 0.42388 0.30055 0.0
H2483 H 0.99233 0.41867 0.2616 0.0
H2484 H 0.96081 0.43568 0.45146 0.0
H2485 H 0.97868 0.43342 0.39428 0.0
H2486 H 0.01076 0.39953 0.39945 0.0
C2487 C 0.03434 0.42112 0.26821 0.0
C2488 C -0.00358 0.41413 0.29117 0.0
C2489 C 0.04263 0.42697 0.2349 0.0
C2490 C 0.96619 0.42517 0.44673 0.0
C2491 C 0.97621 0.42381 0.41344 0.0
C2492 C 0.0066 0.40346 0.36926 0.0
C2493 C 0.02157 0.41294 0.25979 0.0
C2494 C 0.01114 0.40974 0.29496 0.0
C2495 C 0.9826 0.41013 0.40396 0.0
C2496 C 0.99215 0.40873 0.36595 0.0
H2497 H 0.02308 0.41332 0.15132 0.0
H2498 H 0.00821 0.40339 0.20988 0.0
H2499 H 0.02736 0.40063 0.33793 0.0
H2500 H 0.96585 0.38952 0.48067 0.0
H2501 H 0.9839 0.38721 0.42271 0.0
C2502 C 0.33644 0.29828 0.97452 0.0
C2503 C 0.33963 0.29146 0.9356 0.0
C2504 C 0.34027 0.29145 0.01278 0.0
C2505 C 0.34652 0.25269 0.04575 0.0
H2506 H 0.34377 0.26913 0.15923 0.0
C2507 C 0.34921 0.21636 0.19319 0.0
C2508 C 0.33608 0.21597 0.21675 0.0
C2509 C 0.35188 0.2276 0.16404 0.0
C2510 C 0.34452 0.26446 0.12764 0.0
H2511 H 0.35171 0.27384 0.90563 0.0
H2512 H 0.35998 0.26283 0.97208 0.0
H2513 H 0.34752 0.28556 0.09836 0.0
H2514 H 0.31592 0.22782 0.23004 0.0
H2515 H 0.32081 0.24776 0.17894 0.0
H2516 H 0.34386 0.23162 0.07529 0.0
C2517 C 0.35343 0.27277 0.97356 0.0
C2518 C 0.34667 0.27383 0.09265 0.0
C2519 C 0.34911 0.27932 0.93527 0.0
C2520 C 0.32614 0.22776 0.21246 0.0
C2521 C 0.32892 0.23918 0.18332 0.0
C2522 C 0.34471 0.24339 0.08062 0.0
C2523 C 0.34782 0.27791 0.01265 0.0
C2524 C 0.34755 0.26809 0.05099 0.0
C2525 C 0.34163 0.23889 0.15797 0.0
C2526 C 0.34356 0.24916 0.12179 0.0
H2527 H 0.32901 0.30761 0.97551 0.0
H2528 H 0.33582 0.29599 0.04182 0.0
H2529 H 0.34657 0.2477 0.01453 0.0
H2530 H 0.35723 0.2076 0.19585 0.0
H2531 H 0.36178 0.2272 0.14502 0.0
C2532 C 0.52981 0.5972 0.93275 0.0
C2533 C 0.52727 0.58928 0.97045 0.0
C2534 C 0.51836 0.60014 0.90455 0.0
C2535 C 0.48206 0.58504 0.87521 0.0
H2536 H 0.48419 0.61596 0.79027 0.0
C2537 C 0.44633 0.58173 0.72778 0.0
C2538 C 0.45552 0.57959 0.6926 0.0
C2539 C 0.45185 0.58823 0.76477 0.0
C2540 C 0.48332 0.60741 0.81418 0.0
H2541 H 0.51044 0.57929 0.00966 0.0
H2542 H 0.4903 0.58495 0.96126 0.0
H2543 H 0.49983 0.61726 0.8533 0.0
H2544 H 0.47707 0.58361 0.66641 0.0
H2545 H 0.48662 0.59549 0.73051 0.0
H2546 H 0.46572 0.57512 0.83568 0.0
C2547 C 0.50127 0.58842 0.95267 0.0
C2548 C 0.49237 0.60804 0.85009 0.0
C2549 C 0.5128 0.58525 0.98064 0.0
C2550 C 0.46978 0.58537 0.69311 0.0
C2551 C 0.47521 0.59214 0.72977 0.0
C2552 C 0.47283 0.58459 0.83983 0.0
C2553 C 0.50396 0.59547 0.91352 0.0
C2554 C 0.49232 0.59652 0.88019 0.0
C2555 C 0.46656 0.59285 0.76668 0.0
C2556 C 0.47376 0.59546 0.80821 0.0
H2557 H 0.54081 0.60048 0.92377 0.0
H2558 H 0.52103 0.60537 0.87463 0.0
H2559 H 0.48177 0.57583 0.89705 0.0
H2560 H 0.43534 0.57715 0.72804 0.0
H2561 H 0.44498 0.58867 0.79281 0.0
C2562 C 0.14172 0.78693 0.67879 0.0
C2563 C 0.15008 0.78459 0.71582 0.0
C2564 C 0.14084 0.77609 0.6474 0.0
C2565 C 0.14421 0.73802 0.61668 0.0
H2566 H 0.16482 0.75259 0.51733 0.0
C2567 C 0.16793 0.70155 0.48159 0.0
C2568 C 0.16845 0.7075 0.44048 0.0
C2569 C 0.16187 0.70965 0.51509 0.0
C2570 C 0.15873 0.74842 0.54432 0.0
H2571 H 0.16294 0.76839 0.75039 0.0
H2572 H 0.161 0.74927 0.6956 0.0
H2573 H 0.16126 0.7687 0.57832 0.0
H2574 H 0.1623 0.72603 0.40109 0.0
H2575 H 0.15172 0.74029 0.4596 0.0
H2576 H 0.14176 0.71765 0.58255 0.0
C2577 C 0.15531 0.75964 0.69103 0.0
C2578 C 0.15681 0.75763 0.57936 0.0
C2579 C 0.15642 0.7706 0.72231 0.0
C2580 C 0.16188 0.72119 0.43256 0.0
C2581 C 0.15599 0.72939 0.46614 0.0
C2582 C 0.14604 0.72878 0.58128 0.0
C2583 C 0.148 0.76255 0.65265 0.0
C2584 C 0.14957 0.75253 0.61583 0.0
C2585 C 0.15652 0.72398 0.5081 0.0
C2586 C 0.15336 0.73389 0.5447 0.0
H2587 H 0.13666 0.79751 0.67257 0.0
H2588 H 0.13513 0.77855 0.61803 0.0
H2589 H 0.13858 0.73389 0.64454 0.0
H2590 H 0.17298 0.69099 0.48824 0.0
H2591 H 0.16244 0.70514 0.5469 0.0
C2592 C 0.4478 0.91462 0.21793 0.0
C2593 C 0.45709 0.91834 0.184 0.0
C2594 C 0.45374 0.90977 0.2566 0.0
C2595 C 0.48772 0.89731 0.31089 0.0
H2596 H 0.47682 0.92525 0.3987 0.0
C2597 C 0.51987 0.90061 0.46796 0.0
C2598 C 0.52521 0.91483 0.47697 0.0
C2599 C 0.50861 0.89852 0.43831 0.0
C2600 C 0.47988 0.91727 0.37471 0.0
H2601 H 0.47959 0.91878 0.16228 0.0
H2602 H 0.48991 0.90966 0.22885 0.0
H2603 H 0.46257 0.92402 0.33291 0.0
H2604 H 0.52266 0.93799 0.46228 0.0
H2605 H 0.50269 0.93443 0.41163 0.0
H2606 H 0.50541 0.89099 0.35183 0.0
C2607 C 0.4781 0.91057 0.22601 0.0
C2608 C 0.47163 0.91644 0.33721 0.0
C2609 C 0.4722 0.91573 0.18779 0.0
C2610 C 0.51847 0.92697 0.45735 0.0
C2611 C 0.5071 0.9249 0.42792 0.0
C2612 C 0.49584 0.89798 0.34861 0.0
C2613 C 0.46901 0.90831 0.26151 0.0
C2614 C 0.47576 0.90679 0.30433 0.0
C2615 C 0.50239 0.91061 0.41702 0.0
C2616 C 0.4923 0.9083 0.38037 0.0
H2617 H 0.43614 0.91684 0.21597 0.0
H2618 H 0.44648 0.90804 0.28339 0.0
H2619 H 0.49116 0.88977 0.28611 0.0
H2620 H 0.52484 0.89101 0.48252 0.0
H2621 H 0.50512 0.88739 0.43092 0.0
C2622 C 0.32876 0.2203 0.43513 0.0
C2623 C 0.319 0.2085 0.44051 0.0
C2624 C 0.33405 0.22797 0.47063 0.0
C2625 C 0.32254 0.23525 0.58123 0.0
H2626 H 0.35866 0.25778 0.58612 0.0
C2627 C 0.33301 0.27438 0.71953 0.0
C2628 C 0.33596 0.28894 0.70672 0.0
C2629 C 0.3345 0.26272 0.69092 0.0
C2630 C 0.34857 0.25148 0.5852 0.0
H2631 H 0.30818 0.19448 0.48646 0.0
H2632 H 0.318 0.20723 0.54828 0.0
H2633 H 0.35486 0.24007 0.52841 0.0
H2634 H 0.3441 0.30244 0.65488 0.0
H2635 H 0.34667 0.28205 0.60496 0.0
H2636 H 0.31613 0.24674 0.63739 0.0
C2637 C 0.32109 0.21111 0.517 0.0
C2638 C 0.34635 0.24139 0.55209 0.0
C2639 C 0.31555 0.20371 0.48165 0.0
C2640 C 0.34161 0.29139 0.66572 0.0
C2641 C 0.34317 0.27969 0.63714 0.0
C2642 C 0.32483 0.24516 0.61439 0.0
C2643 C 0.32985 0.22376 0.512 0.0
C2644 C 0.33317 0.23333 0.5493 0.0
C2645 C 0.33907 0.26533 0.64896 0.0
C2646 C 0.33774 0.25358 0.61639 0.0
H2647 H 0.3315 0.22421 0.40358 0.0
H2648 H 0.3407 0.2377 0.46542 0.0
H2649 H 0.31209 0.2296 0.57978 0.0
H2650 H 0.32882 0.27204 0.75101 0.0
H2651 H 0.33147 0.25172 0.7011 0.0
C2652 C 0.96844 0.071 0.94929 0.0
C2653 C 0.96151 0.08246 0.97136 0.0
C2654 C 0.98004 0.07401 0.92151 0.0
C2655 C 0.99296 0.10372 0.85244 0.0
H2656 H 0.02499 0.07667 0.83101 0.0
C2657 C 0.04024 0.08722 0.71997 0.0
C2658 C 0.03061 0.08518 0.68563 0.0
C2659 C 0.03484 0.09203 0.75926 0.0
C2660 C 0.01634 0.08457 0.83708 0.0
H2661 H 0.96144 0.106 0.98281 0.0
H2662 H 0.98178 0.1113 0.93446 0.0
H2663 H 0.01007 0.0737 0.89475 0.0
H2664 H 0.00834 0.0881 0.66349 0.0
H2665 H -0.00098 0.09707 0.73118 0.0
H2666 H -0.00121 0.11413 0.79365 0.0
C2667 C 0.97824 0.09998 0.93843 0.0
C2668 C 0.00766 0.08273 0.87334 0.0
C2669 C 0.96665 0.09695 0.96618 0.0
C2670 C 0.01599 0.0898 0.68943 0.0
C2671 C 0.01066 0.09487 0.72834 0.0
C2672 C 0.00157 0.10549 0.81604 0.0
C2673 C 0.98484 0.08859 0.91497 0.0
C2674 C -0.00443 0.09199 0.8807 0.0
C2675 C 0.01981 0.09509 0.76434 0.0
C2676 C 0.01305 0.09563 0.80724 0.0
H2677 H 0.96432 0.05984 0.95147 0.0
H2678 H 0.98466 0.065 0.90334 0.0
H2679 H 0.98368 0.11101 0.85697 0.0
H2680 H 0.05151 0.08349 0.7179 0.0
H2681 H 0.04216 0.09222 0.78639 0.0
C2682 C 0.15246 0.79554 0.97143 0.0
C2683 C 0.15104 0.78777 0.93299 0.0
C2684 C 0.14963 0.78845 0.01017 0.0
C2685 C 0.16064 0.75439 0.04274 0.0
H2686 H 0.13815 0.75475 0.14728 0.0
C2687 C 0.16362 0.70673 0.15866 0.0
C2688 C 0.16522 0.70956 0.2023 0.0
C2689 C 0.16055 0.71809 0.13034 0.0
C2690 C 0.14464 0.75473 0.11847 0.0
H2691 H 0.14304 0.76768 0.90424 0.0
H2692 H 0.13769 0.7555 0.97149 0.0
H2693 H 0.13198 0.77218 0.0896 0.0
H2694 H 0.16453 0.72657 0.2506 0.0
H2695 H 0.15919 0.74671 0.20036 0.0
H2696 H 0.17332 0.73716 0.07066 0.0
C2697 C 0.14119 0.76692 0.97194 0.0
C2698 C 0.14104 0.76458 0.08555 0.0
C2699 C 0.14408 0.77397 0.93338 0.0
C2700 C 0.16358 0.72411 0.21705 0.0
C2701 C 0.16036 0.73557 0.18845 0.0
C2702 C 0.16426 0.74471 0.07537 0.0
C2703 C 0.14511 0.77367 0.01047 0.0
C2704 C 0.14882 0.76417 0.04708 0.0
C2705 C 0.15894 0.73264 0.14472 0.0
C2706 C 0.15609 0.74447 0.11316 0.0
H2707 H 0.158 0.80612 0.97199 0.0
H2708 H 0.1528 0.79384 0.0395 0.0
H2709 H 0.16699 0.75412 0.01365 0.0
H2710 H 0.16482 0.69568 0.14614 0.0
H2711 H 0.15935 0.71543 0.09695 0.0
C2712 C 0.52004 0.09212 0.17014 0.0
C2713 C 0.52559 0.07786 0.16351 0.0
C2714 C 0.50855 0.09446 0.19887 0.0
C2715 C 0.47956 0.0761 0.26135 0.0
H2716 H 0.49136 0.10208 0.3532 0.0
C2717 C 0.47301 0.07248 0.44586 0.0
C2718 C 0.45777 0.07201 0.4517 0.0
C2719 C 0.47889 0.07813 0.40833 0.0
C2720 C 0.48775 0.09507 0.32735 0.0
H2721 H 0.52409 0.05513 0.18329 0.0
H2722 H 0.50352 0.05896 0.23138 0.0
H2723 H 0.50537 0.10187 0.28686 0.0
H2724 H 0.43668 0.07738 0.42415 0.0
H2725 H 0.447 0.08681 0.35732 0.0
H2726 H 0.46236 0.0688 0.30273 0.0
C2727 C 0.50769 0.06827 0.21352 0.0
C2728 C 0.49572 0.09496 0.28942 0.0
C2729 C 0.5193 0.06599 0.18539 0.0
C2730 C 0.44849 0.07794 0.42048 0.0
C2731 C 0.45436 0.08323 0.38232 0.0
C2732 C 0.47143 0.07642 0.29898 0.0
C2733 C 0.50243 0.08257 0.2213 0.0
C2734 C 0.49205 0.08505 0.25677 0.0
C2735 C 0.46959 0.08298 0.37558 0.0
C2736 C 0.47582 0.08549 0.33286 0.0
H2737 H 0.52494 0.1015 0.15424 0.0
H2738 H 0.50475 0.1056 0.20459 0.0
H2739 H 0.47651 0.06837 0.23663 0.0
H2740 H 0.48031 0.06771 0.46933 0.0
H2741 H 0.49065 0.07765 0.4036 0.0
C2742 C 0.16729 0.28065 0.45251 0.0
C2743 C 0.15863 0.28178 0.41585 0.0
C2744 C 0.16443 0.26976 0.48267 0.0
C2745 C 0.14703 0.23436 0.50572 0.0
H2746 H 0.14474 0.25085 0.61915 0.0
C2747 C 0.15729 0.20186 0.65992 0.0
C2748 C 0.15292 0.20827 0.69848 0.0
C2749 C 0.15304 0.20814 0.62117 0.0
C2750 C 0.14496 0.24597 0.58778 0.0
H2751 H 0.14066 0.27213 0.38054 0.0
H2752 H 0.13577 0.25264 0.43344 0.0
H2753 H 0.14842 0.26701 0.55903 0.0
H2754 H 0.13892 0.22471 0.72705 0.0
H2755 H 0.13039 0.23486 0.65963 0.0
H2756 H 0.14387 0.21319 0.53489 0.0
C2757 C 0.14473 0.26027 0.43877 0.0
C2758 C 0.14733 0.25529 0.55326 0.0
C2759 C 0.1475 0.27137 0.40862 0.0
C2760 C 0.14236 0.21949 0.69774 0.0
C2761 C 0.13776 0.22551 0.659 0.0
C2762 C 0.14469 0.22493 0.54053 0.0
C2763 C 0.15287 0.25971 0.47677 0.0
C2764 C 0.1488 0.24959 0.51203 0.0
C2765 C 0.1441 0.22078 0.62047 0.0
C2766 C 0.14393 0.2306 0.58223 0.0
H2767 H 0.17591 0.28861 0.45868 0.0
H2768 H 0.17102 0.26948 0.51134 0.0
H2769 H 0.14806 0.22969 0.47419 0.0
H2770 H 0.16564 0.19335 0.6597 0.0
H2771 H 0.15813 0.20408 0.59239 0.0
C2772 C 0.04038 0.91025 0.9148 0.0
C2773 C 0.03183 0.91044 0.9519 0.0
C2774 C 0.03448 0.90495 0.87665 0.0
C2775 C 0.00267 0.88614 0.82654 0.0
H2776 H 0.00267 0.91964 0.75005 0.0
C2777 C 0.95468 0.89788 0.71352 0.0
C2778 C 0.95677 0.90625 0.6764 0.0
C2779 C 0.96641 0.89484 0.74077 0.0
C2780 C 0.00278 0.90995 0.77015 0.0
H2781 H 0.01103 0.90416 0.97939 0.0
H2782 H 0.00093 0.89426 0.91339 0.0
H2783 H 0.01947 0.91919 0.80994 0.0
H2784 H 0.97315 0.91712 0.63746 0.0
H2785 H 0.99372 0.91147 0.6844 0.0
H2786 H 0.9858 0.87698 0.78727 0.0
C2787 C 0.01215 0.89821 0.91351 0.0
C2788 C 0.01245 0.90972 0.80467 0.0
C2789 C 0.01796 0.90376 0.95144 0.0
C2790 C 0.97109 0.91077 0.66599 0.0
C2791 C 0.98289 0.90761 0.69313 0.0
C2792 C 0.99314 0.88625 0.7916 0.0
C2793 C 0.02001 0.89959 0.87525 0.0
C2794 C 0.01214 0.89806 0.83408 0.0
C2795 C 0.98065 0.89995 0.73156 0.0
C2796 C 0.99263 0.89844 0.76385 0.0
H2797 H 0.05097 0.9157 0.91421 0.0
H2798 H 0.0408 0.90609 0.8477 0.0
H2799 H 0.00228 0.87696 0.84853 0.0
H2800 H 0.94383 0.89418 0.72268 0.0
H2801 H 0.96409 0.88912 0.77019 0.0
C2802 C 0.35095 0.77177 0.20498 0.0
C2803 C 0.33872 0.78105 0.20773 0.0
C2804 C 0.35545 0.76627 0.16545 0.0
C2805 C 0.34315 0.76411 0.04937 0.0
H2806 H 0.35652 0.72398 0.06422 0.0
C2807 C 0.33628 0.71981 0.91606 0.0
C2808 C 0.33314 0.70541 0.92996 0.0
C2809 C 0.34062 0.73073 0.94521 0.0
C2810 C 0.35253 0.73509 0.05938 0.0
H2811 H 0.32231 0.79283 0.17164 0.0
H2812 H 0.32921 0.78258 0.10388 0.0
H2813 H 0.35814 0.74081 0.12256 0.0
H2814 H 0.33158 0.69139 0.98553 0.0
H2815 H 0.33821 0.71026 0.03589 0.0
H2816 H 0.33611 0.75764 0.98717 0.0
C2817 C 0.33595 0.77981 0.13099 0.0
C2818 C 0.35383 0.74504 0.09299 0.0
C2819 C 0.3319 0.78579 0.17019 0.0
C2820 C 0.33425 0.70225 0.9735 0.0
C2821 C 0.33821 0.71315 0.00254 0.0
C2822 C 0.34139 0.75395 0.01609 0.0
C2823 C 0.34723 0.7692 0.12823 0.0
C2824 C 0.34867 0.75963 0.0893 0.0
C2825 C 0.34161 0.72756 0.98903 0.0
C2826 C 0.34553 0.73911 0.02125 0.0
H2827 H 0.35638 0.76797 0.23358 0.0
H2828 H 0.36475 0.75888 0.16489 0.0
H2829 H 0.33958 0.77532 0.044 0.0
H2830 H 0.33544 0.72262 0.88269 0.0
H2831 H 0.3432 0.74161 0.9333 0.0
C2832 C 0.47032 0.07355 0.67359 0.0
C2833 C 0.46153 0.0854 0.66042 0.0
C2834 C 0.48158 0.07566 0.70329 0.0
C2835 C 0.48978 0.09952 0.79351 0.0
H2836 H 0.52543 0.07632 0.7991 0.0
C2837 C 0.5136 0.07496 0.9453 0.0
C2838 C 0.52882 0.07342 0.9499 0.0
C2839 C 0.50773 0.08174 0.90926 0.0
C2840 C 0.51569 0.08315 0.79774 0.0
H2841 H 0.45838 0.10903 0.66602 0.0
H2842 H 0.47801 0.11271 0.71774 0.0
H2843 H 0.5115 0.07737 0.73278 0.0
H2844 H 0.54994 0.07839 0.922 0.0
H2845 H 0.53965 0.08996 0.85797 0.0
H2846 H 0.49355 0.10462 0.85914 0.0
C2847 C 0.47609 0.10172 0.70547 0.0
C2848 C 0.50763 0.08361 0.75988 0.0
C2849 C 0.46485 0.0996 0.67572 0.0
C2850 C 0.53815 0.07966 0.91931 0.0
C2851 C 0.53227 0.08615 0.88261 0.0
C2852 C 0.49776 0.09894 0.83145 0.0
C2853 C 0.48428 0.0897 0.72063 0.0
C2854 C 0.4943 0.09139 0.75776 0.0
C2855 C 0.51698 0.08675 0.87656 0.0
C2856 C 0.51053 0.09032 0.83441 0.0
H2857 H 0.46788 0.06248 0.66313 0.0
H2858 H 0.48753 0.06611 0.71466 0.0
H2859 H 0.47953 0.10556 0.79313 0.0
H2860 H 0.50621 0.07007 0.9683 0.0
H2861 H 0.49592 0.08191 0.90543 0.0
C2862 C 0.6611 0.72263 0.4173 0.0
C2863 C 0.65366 0.70919 0.42338 0.0
C2864 C 0.66137 0.73328 0.44934 0.0
C2865 C 0.65952 0.73478 0.56541 0.0
H2866 H 0.66245 0.77701 0.54827 0.0
C2867 C 0.67052 0.77476 0.70408 0.0
C2868 C 0.68225 0.78453 0.69729 0.0
C2869 C 0.6646 0.76676 0.67023 0.0
C2870 C 0.66165 0.76523 0.55345 0.0
H2871 H 0.63953 0.69708 0.46654 0.0
H2872 H 0.63981 0.71578 0.52206 0.0
H2873 H 0.65547 0.76107 0.48881 0.0
H2874 H 0.69651 0.79416 0.64971 0.0
H2875 H 0.68601 0.78032 0.59037 0.0
H2876 H 0.66598 0.73889 0.62972 0.0
C2877 C 0.64572 0.7179 0.49284 0.0
C2878 C 0.65766 0.75611 0.51948 0.0
C2879 C 0.64545 0.70723 0.4608 0.0
C2880 C 0.68757 0.78658 0.65584 0.0
C2881 C 0.68148 0.77876 0.62187 0.0
C2882 C 0.66342 0.74389 0.59934 0.0
C2883 C 0.65416 0.73078 0.48816 0.0
C2884 C 0.65675 0.74075 0.52493 0.0
C2885 C 0.67012 0.76857 0.62886 0.0
C2886 C 0.66473 0.75918 0.59358 0.0
H2887 H 0.66751 0.72456 0.38887 0.0
H2888 H 0.66803 0.74304 0.44468 0.0
H2889 H 0.65926 0.72298 0.57057 0.0
H2890 H 0.66623 0.77297 0.73577 0.0
H2891 H 0.65579 0.75903 0.67644 0.0
C2892 C 0.02568 0.89579 0.1944 0.0
C2893 C 0.02549 0.90882 0.17018 0.0
C2894 C 0.01451 0.89274 0.22329 0.0
C2895 C 0.97755 0.90103 0.26136 0.0
H2896 H -0.0046 0.89793 0.3728 0.0
C2897 C 0.94644 0.91313 0.41627 0.0
C2898 C 0.95306 0.90943 0.45506 0.0
C2899 C 0.95262 0.90849 0.37792 0.0
C2900 C 0.99006 0.89826 0.34212 0.0
H2901 H 0.01276 0.92828 0.15483 0.0
H2902 H 0.99302 0.92285 0.20579 0.0
H2903 H 0.01079 0.89916 0.31059 0.0
H2904 H 0.96991 0.89629 0.48492 0.0
H2905 H 0.97978 0.88677 0.41833 0.0
H2906 H 0.95676 0.89993 0.29278 0.0
C2907 C 0.00192 0.91504 0.2021 0.0
C2908 C -0.00101 0.89917 0.30629 0.0
C2909 C 0.0132 0.91815 0.17299 0.0
C2910 C 0.96456 0.89921 0.45534 0.0
C2911 C 0.97045 0.89412 0.41696 0.0
C2912 C 0.96852 0.89979 0.29732 0.0
C2913 C 0.00281 0.90259 0.22865 0.0
C2914 C 0.99288 0.90078 0.26564 0.0
C2915 C 0.96539 0.89974 0.37773 0.0
C2916 C 0.97465 0.89866 0.33846 0.0
H2917 H 0.03487 0.88825 0.19255 0.0
H2918 H 0.01537 0.88298 0.24298 0.0
H2919 H 0.97258 0.90219 0.23026 0.0
H2920 H 0.93766 0.92119 0.41537 0.0
H2921 H 0.94823 0.91309 0.34888 0.0
C2922 C 0.82297 0.26956 0.92556 0.0
C2923 C 0.83469 0.27726 0.90702 0.0
C2924 C 0.82558 0.25832 0.9551 0.0
C2925 C 0.85353 0.24765 0.03372 0.0
H2926 H 0.82727 0.21468 0.05222 0.0
C2927 C 0.83838 0.22447 0.19661 0.0
C2928 C 0.83392 0.20973 0.20022 0.0
C2929 C 0.84356 0.22992 0.1579 0.0
C2930 C 0.83495 0.22362 0.04713 0.0
H2931 H 0.85837 0.27875 0.90323 0.0
H2932 H 0.86299 0.25891 0.95403 0.0
H2933 H 0.82544 0.22891 0.98675 0.0
H2934 H 0.83261 0.18876 0.16776 0.0
H2935 H 0.84171 0.19825 0.09983 0.0
H2936 H 0.8627 0.24265 0.09479 0.0
C2937 C 0.85175 0.26169 0.94633 0.0
C2938 C 0.83375 0.23192 0.00979 0.0
C2939 C 0.84911 0.27298 0.91699 0.0
C2940 C 0.83623 0.20012 0.16592 0.0
C2941 C 0.8412 0.20562 0.12687 0.0
C2942 C 0.8547 0.23938 0.0711 0.0
C2943 C 0.84002 0.25453 0.9668 0.0
C2944 C 0.84273 0.24431 0.00315 0.0
C2945 C 0.84412 0.22076 0.12186 0.0
C2946 C 0.84513 0.22753 0.07883 0.0
H2947 H 0.81178 0.27296 0.91971 0.0
H2948 H 0.81626 0.25327 0.97069 0.0
H2949 H 0.86057 0.25718 0.02997 0.0
H2950 H 0.83646 0.23212 0.22245 0.0
H2951 H 0.84565 0.24163 0.15524 0.0
C2952 C 0.53817 0.93994 0.73668 0.0
C2953 C 0.53566 0.93452 0.69548 0.0
C2954 C 0.53041 0.93428 0.77137 0.0
C2955 C 0.49482 0.91807 0.79554 0.0
H2956 H 0.51117 0.91147 0.90781 0.0
C2957 C 0.45724 0.90217 0.93336 0.0
C2958 C 0.45877 0.91063 0.97062 0.0
C2959 C 0.46813 0.90225 0.90218 0.0
C2960 C 0.50645 0.91333 0.87669 0.0
H2961 H 0.52346 0.91857 0.65838 0.0
H2962 H 0.50954 0.90891 0.71897 0.0
H2963 H 0.52754 0.91666 0.84782 0.0
H2964 H 0.47384 0.92423 0.00656 0.0
H2965 H 0.49282 0.9247 0.95145 0.0
H2966 H 0.47376 0.91527 0.82417 0.0
C2967 C 0.5176 0.91748 0.72443 0.0
C2968 C 0.51581 0.91627 0.84234 0.0
C2969 C 0.5256 0.92295 0.68981 0.0
C2970 C 0.4721 0.91804 0.97759 0.0
C2971 C 0.48305 0.91815 0.9462 0.0
C2972 C 0.48549 0.91519 0.82975 0.0
C2973 C 0.51974 0.92327 0.76551 0.0
C2974 C 0.51008 0.91881 0.80144 0.0
C2975 C 0.4809 0.91074 0.90734 0.0
C2976 C 0.49114 0.91288 0.87086 0.0
H2977 H 0.546 0.94874 0.74201 0.0
H2978 H 0.53228 0.93902 0.80249 0.0
H2979 H 0.49002 0.92028 0.76468 0.0
H2980 H 0.44722 0.89614 0.92692 0.0
H2981 H 0.46626 0.8961 0.87317 0.0
C2982 C 0.83062 0.79285 0.47421 0.0
C2983 C 0.83403 0.78644 0.43488 0.0
C2984 C 0.83602 0.78675 0.51194 0.0
C2985 C 0.84783 0.74962 0.54707 0.0
H2986 H 0.84649 0.76769 0.65867 0.0
C2987 C 0.85185 0.71423 0.6966 0.0
C2988 C 0.83965 0.71555 0.72376 0.0
C2989 C 0.85479 0.72496 0.66594 0.0
C2990 C 0.84695 0.76253 0.62766 0.0
H2991 H 0.84715 0.7699 0.40346 0.0
H2992 H 0.85776 0.76009 0.46882 0.0
H2993 H 0.84707 0.78328 0.59521 0.0
H2994 H 0.82173 0.72991 0.74218 0.0
H2995 H 0.827 0.74878 0.68862 0.0
H2996 H 0.84772 0.72892 0.57952 0.0
C2997 C 0.85025 0.7693 0.47109 0.0
C2998 C 0.84723 0.77144 0.59118 0.0
C2999 C 0.8445 0.77515 0.4334 0.0
C3000 C 0.83119 0.72851 0.72179 0.0
C3001 C 0.83422 0.73934 0.69114 0.0
C3002 C 0.84784 0.74079 0.58338 0.0
C3003 C 0.84517 0.77424 0.51099 0.0
C3004 C 0.84734 0.7651 0.55021 0.0
C3005 C 0.8457 0.73736 0.66183 0.0
C3006 C 0.84712 0.7471 0.62404 0.0
H3007 H 0.82232 0.80137 0.47616 0.0
H3008 H 0.83178 0.79099 0.54162 0.0
H3009 H 0.84747 0.74415 0.51654 0.0
H3010 H 0.85874 0.70452 0.69742 0.0
H3011 H 0.86383 0.72325 0.64416 0.0
C3012 C 0.03095 0.09554 0.43171 0.0
C3013 C 0.02972 0.08765 0.47006 0.0
C3014 C 0.01938 0.09573 0.40247 0.0
C3015 C 0.98912 0.07144 0.37183 0.0
H3016 H 0.98068 0.10172 0.28836 0.0
C3017 C 0.95069 0.05833 0.23437 0.0
C3018 C 0.95523 0.06287 0.1939 0.0
C3019 C 0.95709 0.06431 0.27075 0.0
C3020 C 0.98295 0.09314 0.31136 0.0
H3021 H 0.01476 0.0751 0.50963 0.0
H3022 H 0.99449 0.07575 0.45918 0.0
H3023 H -0.00349 0.10741 0.34913 0.0
H3024 H 0.96937 0.07782 0.15933 0.0
H3025 H 0.98126 0.0878 0.22311 0.0
H3026 H 0.97622 0.05699 0.33383 0.0
C3027 C 0.00458 0.08139 0.45107 0.0
C3028 C 0.99199 0.09641 0.34624 0.0
C3029 C 0.01618 0.0811 0.48015 0.0
C3030 C 0.96579 0.07408 0.19033 0.0
C3031 C 0.97249 0.07985 0.22688 0.0
C3032 C 0.98018 0.06818 0.33714 0.0
C3033 C 0.00628 0.08811 0.41105 0.0
C3034 C -0.00467 0.08552 0.37663 0.0
C3035 C 0.96851 0.0747 0.26755 0.0
C3036 C 0.97708 0.0789 0.30611 0.0
H3037 H 0.04118 0.1008 0.42293 0.0
H3038 H 0.02112 0.10098 0.37199 0.0
H3039 H 0.99171 0.06264 0.39384 0.0
H3040 H 0.94227 0.04998 0.23788 0.0
H3041 H 0.95336 0.06044 0.30145 0.0
C3042 C 0.65449 0.20234 0.97187 0.0
C3043 C 0.65215 0.20846 0.93146 0.0
C3044 C 0.64948 0.20958 0.00836 0.0
C3045 C 0.64162 0.24834 0.03781 0.0
H3046 H 0.63967 0.23211 0.15165 0.0
C3047 C 0.6395 0.28641 0.18283 0.0
C3048 C 0.65042 0.2838 0.21361 0.0
C3049 C 0.63619 0.27581 0.15207 0.0
C3050 C 0.64018 0.23679 0.12001 0.0
H3051 H 0.64109 0.2258 0.89702 0.0
H3052 H 0.6311 0.2377 0.96019 0.0
H3053 H 0.63816 0.21564 0.09023 0.0
H3054 H 0.66569 0.26746 0.23764 0.0
H3055 H 0.65977 0.24886 0.18387 0.0
H3056 H 0.64368 0.26943 0.06753 0.0
C3057 C 0.63753 0.22778 0.96422 0.0
C3058 C 0.63934 0.22735 0.08469 0.0
C3059 C 0.64289 0.22073 0.92776 0.0
C3060 C 0.65721 0.26987 0.21452 0.0
C3061 C 0.65382 0.25919 0.18372 0.0
C3062 C 0.64221 0.25773 0.07295 0.0
C3063 C 0.64177 0.22299 0.00511 0.0
C3064 C 0.64033 0.23296 0.04295 0.0
C3065 C 0.64361 0.26225 0.15131 0.0
C3066 C 0.64174 0.25208 0.11448 0.0
H3067 H 0.66186 0.19306 0.97561 0.0
H3068 H 0.65301 0.2054 0.0389 0.0
H3069 H 0.64289 0.25321 0.00664 0.0
H3070 H 0.63392 0.29693 0.18126 0.0
H3071 H 0.62811 0.27841 0.12793 0.0
C3072 C 0.06417 0.52633 0.70033 0.0
C3073 C 0.07546 0.53006 0.67224 0.0
C3074 C 0.06673 0.51622 0.73286 0.0
C3075 C 0.09784 0.50103 0.79489 0.0
H3076 H 0.06716 0.47691 0.84425 0.0
C3077 C 0.1004 0.45348 0.92252 0.0
C3078 C 0.09091 0.45603 0.95699 0.0
C3079 C 0.10104 0.46352 0.8889 0.0
C3080 C 0.07579 0.48365 0.83066 0.0
H3081 H 0.09794 0.52592 0.65397 0.0
H3082 H 0.10224 0.50747 0.70911 0.0
H3083 H 0.06229 0.49039 0.77879 0.0
H3084 H 0.07604 0.47195 0.98557 0.0
H3085 H 0.07697 0.48916 0.92639 0.0
H3086 H 0.11141 0.4937 0.84665 0.0
C3087 C 0.09156 0.51264 0.70721 0.0
C3088 C 0.07301 0.49141 0.79335 0.0
C3089 C 0.08906 0.52298 0.67523 0.0
C3090 C 0.08334 0.46953 0.95934 0.0
C3091 C 0.08383 0.47941 0.92553 0.0
C3092 C 0.10069 0.49299 0.83185 0.0
C3093 C 0.08061 0.50956 0.73744 0.0
C3094 C 0.08394 0.50036 0.77525 0.0
C3095 C 0.09215 0.47612 0.88941 0.0
C3096 C 0.0896 0.48445 0.85015 0.0
H3097 H 0.05373 0.53203 0.69906 0.0
H3098 H 0.05809 0.51434 0.75582 0.0
H3099 H 0.10644 0.50803 0.78242 0.0
H3100 H 0.10647 0.44326 0.91998 0.0
H3101 H 0.10754 0.46088 0.86112 0.0
C3102 C 0.71313 0.84007 0.93017 0.0
C3103 C 0.69795 0.84026 0.93778 0.0
C3104 C 0.72299 0.84207 0.96357 0.0
C3105 C 0.72642 0.85067 0.07904 0.0
H3106 H 0.7555 0.81953 0.07399 0.0
C3107 C 0.77219 0.84224 0.20451 0.0
C3108 C 0.77673 0.82774 0.21307 0.0
C3109 C 0.76153 0.84503 0.17371 0.0
C3110 C 0.74733 0.82816 0.0762 0.0
H3111 H 0.68118 0.84433 0.98522 0.0
H3112 H 0.69838 0.84743 0.04372 0.0
H3113 H 0.7399 0.82407 0.01311 0.0
H3114 H 0.77371 0.80486 0.19629 0.0
H3115 H 0.75445 0.80953 0.14426 0.0
H3116 H 0.73362 0.85434 0.143 0.0
C3117 C 0.70271 0.84584 0.01201 0.0
C3118 C 0.73858 0.83099 0.04087 0.0
C3119 C 0.69283 0.84403 0.97845 0.0
C3120 C 0.76997 0.81603 0.19171 0.0
C3121 C 0.75922 0.81879 0.16108 0.0
C3122 C 0.73518 0.84779 0.1146 0.0
C3123 C 0.71786 0.84408 0.00527 0.0
C3124 C 0.72797 0.84223 0.04186 0.0
C3125 C 0.75524 0.83335 0.15074 0.0
C3126 C 0.74564 0.8364 0.11365 0.0
H3127 H 0.7174 0.83747 0.89893 0.0
H3128 H 0.73463 0.84113 0.95713 0.0
H3129 H 0.71837 0.85943 0.08073 0.0
H3130 H 0.77737 0.85148 0.22036 0.0
H3131 H 0.75884 0.85636 0.16629 0.0
C3132 C 0.41739 0.52432 0.45601 0.0
C3133 C 0.40647 0.53463 0.4665 0.0
C3134 C 0.41526 0.51465 0.42217 0.0
C3135 C 0.39621 0.49217 0.35976 0.0
H3136 H 0.40743 0.51113 0.25396 0.0
C3137 C 0.3917 0.46128 0.20279 0.0
C3138 C 0.40449 0.46168 0.17798 0.0
C3139 C 0.3897 0.47141 0.23548 0.0
C3140 C 0.40425 0.50571 0.28321 0.0
H3141 H 0.38439 0.54215 0.45237 0.0
H3142 H 0.38071 0.52504 0.39319 0.0
H3143 H 0.40846 0.52499 0.32065 0.0
H3144 H 0.42469 0.47359 0.16563 0.0
H3145 H 0.42136 0.49109 0.22329 0.0
H3146 H 0.39243 0.47274 0.32307 0.0
C3147 C 0.39087 0.52465 0.41103 0.0
C3148 C 0.4048 0.51362 0.32109 0.0
C3149 C 0.39301 0.53438 0.44468 0.0
C3150 C 0.41471 0.47305 0.18424 0.0
C3151 C 0.41278 0.4831 0.21723 0.0
C3152 C 0.39564 0.48423 0.32189 0.0
C3153 C 0.40215 0.51509 0.39899 0.0
C3154 C 0.40091 0.50682 0.3594 0.0
C3155 C 0.40051 0.48202 0.2441 0.0
C3156 C 0.39979 0.4909 0.28332 0.0
H3157 H 0.42792 0.52437 0.47205 0.0
H3158 H 0.42408 0.50734 0.41277 0.0
H3159 H 0.39322 0.48683 0.38932 0.0
H3160 H 0.38354 0.45273 0.19818 0.0
H3161 H 0.37997 0.47057 0.25511 0.0
C3162 C 0.78211 0.14817 0.44494 0.0
C3163 C 0.78323 0.16082 0.41941 0.0
C3164 C 0.77201 0.14763 0.4782 0.0
C3165 C 0.74029 0.16747 0.52605 0.0
H3166 H 0.75616 0.15211 0.63166 0.0
C3167 C 0.7144 0.18166 0.68534 0.0
C3168 C 0.70956 0.16928 0.70793 0.0
C3169 C 0.72448 0.18004 0.65241 0.0
C3170 C 0.75163 0.15639 0.6023 0.0
H3171 H 0.77401 0.18242 0.40682 0.0
H3172 H 0.75673 0.18169 0.46524 0.0
H3173 H 0.77013 0.14937 0.56589 0.0
H3174 H 0.71173 0.14568 0.71571 0.0
H3175 H 0.72973 0.14286 0.65839 0.0
H3176 H 0.72206 0.17493 0.56297 0.0
C3177 C 0.76343 0.17204 0.4594 0.0
C3178 C 0.75951 0.1547 0.56457 0.0
C3179 C 0.77338 0.17249 0.42586 0.0
C3180 C 0.71554 0.15538 0.69895 0.0
C3181 C 0.72578 0.15378 0.6663 0.0
C3182 C 0.73256 0.16935 0.56381 0.0
C3183 C 0.76296 0.15981 0.48681 0.0
C3184 C 0.75398 0.16035 0.52606 0.0
C3185 C 0.72985 0.16602 0.64175 0.0
C3186 C 0.73824 0.16397 0.60224 0.0
H3187 H 0.78945 0.13891 0.44034 0.0
H3188 H 0.77165 0.13789 0.49804 0.0
H3189 H 0.73558 0.17169 0.49689 0.0
H3190 H 0.7095 0.19236 0.69078 0.0
H3191 H 0.72752 0.18963 0.63384 0.0
C3192 C 0.91086 0.47284 0.46211 0.0
C3193 C 0.91088 0.45801 0.44925 0.0
C3194 C 0.90778 0.484 0.43294 0.0
C3195 C 0.89319 0.49092 0.32398 0.0
H3196 H 0.91826 0.52539 0.33055 0.0
C3197 C 0.90696 0.52955 0.18371 0.0
C3198 C 0.90787 0.54476 0.19199 0.0
C3199 C 0.90403 0.51962 0.21653 0.0
C3200 C 0.91099 0.51596 0.32872 0.0
H3201 H 0.90738 0.44325 0.39592 0.0
H3202 H 0.9025 0.46271 0.34485 0.0
H3203 H 0.9197 0.50672 0.38572 0.0
H3204 H 0.90553 0.56152 0.24073 0.0
H3205 H 0.90058 0.54412 0.29807 0.0
H3206 H 0.8851 0.49996 0.26549 0.0
C3207 C 0.90449 0.46574 0.37763 0.0
C3208 C 0.91179 0.50525 0.36039 0.0
C3209 C 0.9074 0.45456 0.4069 0.0
C3210 C 0.90495 0.54988 0.23328 0.0
C3211 C 0.90218 0.53994 0.26616 0.0
C3212 C 0.89253 0.50158 0.29197 0.0
C3213 C 0.90483 0.48061 0.39016 0.0
C3214 C 0.90302 0.49251 0.35819 0.0
C3215 C 0.90208 0.52471 0.25826 0.0
C3216 C 0.90154 0.51411 0.29389 0.0
H3217 H 0.91336 0.47585 0.49463 0.0
H3218 H 0.90786 0.49532 0.44387 0.0
H3219 H 0.88611 0.48137 0.32166 0.0
H3220 H 0.9091 0.52523 0.15222 0.0
H3221 H 0.90412 0.50792 0.20966 0.0
C3222 C 0.21355 0.18239 0.95257 0.0
C3223 C 0.20956 0.1708 0.9256 0.0
C3224 C 0.22459 0.18037 0.98282 0.0
C3225 C 0.24402 0.15031 0.04062 0.0
H3226 H 0.26746 0.18298 0.08194 0.0
C3227 C 0.29476 0.15165 0.15914 0.0
C3228 C 0.29154 0.16014 0.19536 0.0
C3229 C 0.28464 0.1507 0.12572 0.0
C3230 C 0.26099 0.17377 0.07046 0.0
H3231 H 0.21411 0.14832 0.90714 0.0
H3232 H 0.23406 0.14498 0.95817 0.0
H3233 H 0.25137 0.1866 0.02096 0.0
H3234 H 0.27464 0.17324 0.22632 0.0
H3235 H 0.25731 0.1718 0.16766 0.0
H3236 H 0.25414 0.13749 0.09007 0.0
C3237 C 0.22839 0.15545 0.95738 0.0
C3238 C 0.25168 0.17584 0.0358 0.0
C3239 C 0.21712 0.15739 0.9278 0.0
C3240 C 0.27758 0.16669 0.19883 0.0
C3241 C 0.26762 0.16591 0.16531 0.0
C3242 C 0.25358 0.14819 0.07487 0.0
C3243 C 0.232 0.16678 0.98614 0.0
C3244 C 0.24285 0.16422 0.02082 0.0
C3245 C 0.27128 0.15832 0.12809 0.0
C3246 C 0.26193 0.15998 0.09031 0.0
H3247 H 0.20761 0.19273 0.95175 0.0
H3248 H 0.22681 0.18929 0.00474 0.0
H3249 H 0.23724 0.14115 0.03062 0.0
H3250 H 0.30536 0.1464 0.15561 0.0
H3251 H 0.2876 0.14479 0.09709 0.0
C3252 C 0.56533 0.46501 0.69403 0.0
C3253 C 0.57625 0.45449 0.68628 0.0
C3254 C 0.56716 0.4756 0.72567 0.0
C3255 C 0.58782 0.48263 0.82494 0.0
H3256 H 0.56933 0.52093 0.81407 0.0
C3257 C 0.58871 0.53168 0.94812 0.0
C3258 C 0.57448 0.53589 0.96022 0.0
C3259 C 0.59075 0.52134 0.91559 0.0
C3260 C 0.57458 0.51028 0.8174 0.0
H3261 H 0.5978 0.44684 0.70515 0.0
H3262 H 0.60127 0.46568 0.76 0.0
H3263 H 0.5704 0.50459 0.7527 0.0
H3264 H 0.55131 0.53292 0.94779 0.0
H3265 H 0.55486 0.51505 0.89061 0.0
H3266 H 0.59211 0.48864 0.88987 0.0
C3267 C 0.59115 0.46561 0.74198 0.0
C3268 C 0.57513 0.50087 0.7824 0.0
C3269 C 0.58922 0.45489 0.71043 0.0
C3270 C 0.56236 0.52953 0.93979 0.0
C3271 C 0.56439 0.51946 0.90685 0.0
C3272 C 0.58748 0.49219 0.85985 0.0
C3273 C 0.58005 0.476 0.75034 0.0
C3274 C 0.58135 0.48673 0.78599 0.0
C3275 C 0.57858 0.51546 0.89409 0.0
C3276 C 0.5805 0.50591 0.85654 0.0
H3277 H 0.55502 0.46455 0.67713 0.0
H3278 H 0.55817 0.48309 0.73185 0.0
H3279 H 0.59259 0.47179 0.82908 0.0
H3280 H 0.59822 0.53659 0.96325 0.0
H3281 H 0.60179 0.51841 0.90604 0.0
C3282 C 0.20991 0.81325 0.682 0.0
C3283 C 0.20516 0.82602 0.70278 0.0
C3284 C 0.21977 0.81424 0.64829 0.0
C3285 C 0.24657 0.83764 0.59423 0.0
H3286 H 0.23375 0.81637 0.49382 0.0
C3287 C 0.27976 0.84039 0.43977 0.0
C3288 C 0.28239 0.82669 0.42046 0.0
C3289 C 0.26888 0.84182 0.47068 0.0
C3290 C 0.23754 0.8223 0.52162 0.0
H3291 H 0.20694 0.84978 0.70576 0.0
H3292 H 0.22445 0.85156 0.64675 0.0
H3293 H 0.21907 0.81536 0.55843 0.0
H3294 H 0.27535 0.80392 0.41698 0.0
H3295 H 0.2565 0.8063 0.47098 0.0
H3296 H 0.26528 0.84422 0.558 0.0
C3297 C 0.22069 0.84079 0.65685 0.0
C3298 C 0.22915 0.82169 0.5586 0.0
C3299 C 0.21073 0.83979 0.69047 0.0
C3300 C 0.27337 0.81467 0.4307 0.0
C3301 C 0.26259 0.81606 0.46185 0.0
C3302 C 0.25506 0.83813 0.55732 0.0
C3303 C 0.22491 0.82805 0.63466 0.0
C3304 C 0.23371 0.82917 0.59539 0.0
C3305 C 0.26054 0.82953 0.48318 0.0
C3306 C 0.25074 0.8303 0.52075 0.0
H3307 H 0.20527 0.80262 0.68992 0.0
H3308 H 0.22294 0.80425 0.63183 0.0
H3309 H 0.2503 0.8435 0.62224 0.0
H3310 H 0.28651 0.84987 0.43216 0.0
H3311 H 0.26734 0.85243 0.48581 0.0
C3312 C 0.58556 0.9453 0.40008 0.0
C3313 C 0.58596 0.94972 0.44282 0.0
C3314 C 0.58785 0.95557 0.36761 0.0
C3315 C 0.58565 0.99596 0.35007 0.0
H3316 H 0.6003 0.9858 0.23817 0.0
C3317 C 0.59063 0.03908 0.21742 0.0
C3318 C 0.58317 0.03539 0.17972 0.0
C3319 C 0.59343 0.02839 0.24826 0.0
C3320 C 0.5962 0.98875 0.26933 0.0
H3321 H 0.5902 0.96803 0.4853 0.0
H3322 H 0.59503 0.98575 0.4289 0.0
H3323 H 0.6015 0.96765 0.2955 0.0
H3324 H 0.57355 0.01732 0.14397 0.0
H3325 H 0.57868 -0.00139 0.19781 0.0
H3326 H 0.5805 0.01709 0.32387 0.0
C3327 C 0.5923 0.97454 0.42016 0.0
C3328 C 0.59681 0.97836 0.30216 0.0
C3329 C 0.5897 0.96435 0.45257 0.0
C3330 C 0.57932 0.02057 0.17261 0.0
C3331 C 0.58228 0.00983 0.20334 0.0
C3332 C 0.58527 0.00638 0.3175 0.0
C3333 C 0.59086 0.97043 0.37721 0.0
C3334 C 0.59138 0.98177 0.34289 0.0
C3335 C 0.58902 0.01373 0.24189 0.0
C3336 C 0.59039 0.00284 0.27673 0.0
H3337 H 0.58254 0.93413 0.39162 0.0
H3338 H 0.58647 0.95197 0.33506 0.0
H3339 H 0.58099 -0.00106 0.38051 0.0
H3340 H 0.59381 0.05036 0.22399 0.0
H3341 H 0.59877 0.03164 0.27758 0.0
C3342 C 0.21752 0.32403 0.43274 0.0
C3343 C 0.20544 0.33361 0.43094 0.0
C3344 C 0.22754 0.32507 0.4661 0.0
C3345 C 0.24336 0.34716 0.54893 0.0
H3346 H 0.24015 0.31242 0.62026 0.0
C3347 C 0.27391 0.34406 0.70821 0.0
C3348 C 0.28051 0.33051 0.71777 0.0
C3349 C 0.26355 0.34502 0.6756 0.0
C3350 C 0.24136 0.32212 0.60054 0.0
H3351 H 0.19518 0.35273 0.45978 0.0
H3352 H 0.21305 0.35477 0.51753 0.0
H3353 H 0.22653 0.31363 0.55375 0.0
H3354 H 0.28161 0.30739 0.70129 0.0
H3355 H 0.26394 0.30902 0.64391 0.0
H3356 H 0.25867 0.35546 0.59439 0.0
C3357 C 0.21452 0.34633 0.49357 0.0
C3358 C 0.23354 0.32279 0.56256 0.0
C3359 C 0.20432 0.34511 0.46071 0.0
C3360 C 0.27627 0.31786 0.69541 0.0
C3361 C 0.26617 0.31885 0.66232 0.0
C3362 C 0.25147 0.34636 0.58652 0.0
C3363 C 0.22581 0.33593 0.49737 0.0
C3364 C 0.23454 0.33528 0.53652 0.0
C3365 C 0.25994 0.33251 0.65129 0.0
C3366 C 0.2506 0.3338 0.61276 0.0
H3367 H 0.21868 0.31514 0.41009 0.0
H3368 H 0.23627 0.317 0.46856 0.0
H3369 H 0.24417 0.3569 0.52916 0.0
H3370 H 0.2771 0.35397 0.72506 0.0
H3371 H 0.25871 0.35565 0.66868 0.0
C3372 C 0.89962 0.05044 0.90834 0.0
C3373 C 0.90161 0.04523 0.95 0.0
C3374 C 0.89904 0.04056 0.8743 0.0
C3375 C 0.91201 0.00303 0.84932 0.0
H3376 H 0.89054 0.00845 0.74396 0.0
C3377 C 0.90462 0.95769 0.72593 0.0
C3378 C 0.91039 0.96058 0.68534 0.0
C3379 C 0.90311 0.96895 0.75554 0.0
C3380 C 0.89669 0.00697 0.77312 0.0
H3381 H 0.90297 0.02568 0.98932 0.0
H3382 H 0.90117 0.00843 0.93032 0.0
H3383 H 0.887 0.02589 0.80263 0.0
H3384 H 0.91871 0.97765 0.64354 0.0
H3385 H 0.91565 -0.00236 0.69576 0.0
H3386 H 0.92126 0.98384 0.8203 0.0
C3387 C 0.90075 0.02013 0.92357 0.0
C3388 C 0.89467 0.01689 0.80669 0.0
C3389 C 0.90158 0.02999 0.95746 0.0
C3390 C 0.91426 0.97512 0.67461 0.0
C3391 C 0.91248 0.98652 0.70424 0.0
C3392 C 0.91385 0.99307 0.81612 0.0
C3393 C 0.90023 0.02531 0.88144 0.0
C3394 C 0.90218 0.01491 0.8454 0.0
C3395 C 0.9071 0.9834 0.74508 0.0
C3396 C 0.90612 0.99489 0.77799 0.0
H3397 H 0.89971 0.06215 0.90162 0.0
H3398 H 0.89864 0.04495 0.84233 0.0
H3399 H 0.91836 0.00142 0.87805 0.0
H3400 H 0.90164 0.94661 0.73542 0.0
H3401 H 0.89893 0.96635 0.78688 0.0
C3402 C 0.2204 0.66638 0.21024 0.0
C3403 C 0.20933 0.65581 0.21633 0.0
C3404 C 0.2298 0.6654 0.17554 0.0
C3405 C 0.22918 0.6499 0.06762 0.0
H3406 H 0.26751 0.66832 0.06153 0.0
C3407 C 0.26919 0.65142 0.92336 0.0
C3408 C 0.27542 0.66527 0.91485 0.0
C3409 C 0.25967 0.64964 0.95764 0.0
C3410 C 0.25675 0.66325 0.0629 0.0
H3411 H 0.20074 0.63486 0.19425 0.0
H3412 H 0.21764 0.63279 0.13454 0.0
H3413 H 0.25628 0.66404 0.13066 0.0
H3414 H 0.27615 0.6882 0.93371 0.0
H3415 H 0.2595 0.68507 0.99391 0.0
H3416 H 0.23002 0.6488 0.99953 0.0
C3417 C 0.21857 0.64223 0.15545 0.0
C3418 C 0.25033 0.66076 0.1024 0.0
C3419 C 0.20898 0.64333 0.1899 0.0
C3420 C 0.27118 0.67752 0.93904 0.0
C3421 C 0.26186 0.67569 0.97375 0.0
C3422 C 0.23576 0.65215 0.02811 0.0
C3423 C 0.22854 0.65366 0.1466 0.0
C3424 C 0.23632 0.65434 0.10525 0.0
C3425 C 0.25653 0.66163 0.9842 0.0
C3426 C 0.24944 0.65912 0.02552 0.0
H3427 H 0.22106 0.6761 0.23016 0.0
H3428 H 0.23728 0.67445 0.16981 0.0
H3429 H 0.21827 0.64518 0.06845 0.0
H3430 H 0.27245 0.64182 0.90521 0.0
H3431 H 0.25568 0.6387 0.96531 0.0
C3432 C 0.40333 0.95383 0.90611 0.0
C3433 C 0.40744 0.95714 0.94809 0.0
C3434 C 0.40114 0.96507 0.87654 0.0
C3435 C 0.41091 0.00406 0.85707 0.0
H3436 H 0.38242 0.00037 0.76599 0.0
C3437 C 0.40196 0.04998 0.73387 0.0
C3438 C 0.40408 0.04525 0.69178 0.0
C3439 C 0.40009 0.0397 0.76647 0.0
C3440 C 0.39038 0.00153 0.79136 0.0
H3441 H 0.41195 0.97491 0.99237 0.0
H3442 H 0.40768 0.99455 0.94115 0.0
H3443 H 0.3834 0.98164 0.82173 0.0
H3444 H 0.40495 0.0261 0.65049 0.0
H3445 H 0.40134 0.0082 0.70746 0.0
H3446 H 0.41779 0.024 0.82668 0.0
C3447 C 0.40652 0.98324 0.93073 0.0
C3448 C 0.39103 0.99078 0.82313 0.0
C3449 C 0.40886 0.97198 0.96021 0.0
C3450 C 0.40337 0.03009 0.68261 0.0
C3451 C 0.40126 0.01984 0.71514 0.0
C3452 C 0.41011 0.01489 0.82568 0.0
C3453 C 0.40285 0.97992 0.88834 0.0
C3454 C 0.40143 0.99182 0.8561 0.0
C3455 C 0.40004 0.02455 0.75747 0.0
C3456 C 0.39995 0.01364 0.79233 0.0
H3457 H 0.40223 0.94251 0.8956 0.0
H3458 H 0.39857 0.96207 0.84408 0.0
H3459 H 0.41927 0.00509 0.88136 0.0
H3460 H 0.40252 0.06156 0.742 0.0
H3461 H 0.39908 0.04357 0.7989 0.0
C3462 C 0.77559 0.68149 0.69269 0.0
C3463 C 0.78446 0.66974 0.7059 0.0
C3464 C 0.76527 0.67937 0.66053 0.0
C3465 C 0.74326 0.6531 0.6016 0.0
H3466 H 0.75012 0.67925 0.50609 0.0
C3467 C 0.70893 0.65016 0.44659 0.0
C3468 C 0.70431 0.66395 0.43148 0.0
C3469 C 0.71965 0.64932 0.4784 0.0
C3470 C 0.74801 0.67192 0.53256 0.0
H3471 H 0.78908 0.64648 0.69833 0.0
H3472 H 0.77068 0.64268 0.64251 0.0
H3473 H 0.76562 0.68105 0.56898 0.0
H3474 H 0.70624 0.6875 0.43942 0.0
H3475 H 0.72503 0.68619 0.49386 0.0
H3476 H 0.72526 0.64433 0.56579 0.0
C3477 C 0.7718 0.65349 0.65678 0.0
C3478 C 0.75685 0.67298 0.56848 0.0
C3479 C 0.78231 0.65567 0.68843 0.0
C3480 C 0.71034 0.6768 0.44876 0.0
C3481 C 0.72097 0.676 0.4803 0.0
C3482 C 0.73423 0.65216 0.56575 0.0
C3483 C 0.76358 0.66544 0.64165 0.0
C3484 C 0.75437 0.66378 0.60353 0.0
C3485 C 0.72572 0.66227 0.49566 0.0
C3486 C 0.73635 0.66178 0.53123 0.0
H3487 H 0.77728 0.69248 0.70522 0.0
H3488 H 0.75897 0.68872 0.64929 0.0
H3489 H 0.74127 0.64584 0.62832 0.0
H3490 H 0.70418 0.64011 0.43405 0.0
H3491 H 0.7231 0.63858 0.48966 0.0
C3492 C 0.06583 0.96876 0.1957 0.0
C3493 C 0.07746 0.95999 0.18129 0.0
C3494 C 0.06807 0.97892 0.22832 0.0
C3495 C 0.09331 0.00147 0.28728 0.0
H3496 H 0.06862 0.99211 0.38401 0.0
C3497 C 0.09382 0.03637 0.44206 0.0
C3498 C 0.07985 0.03935 0.45878 0.0
C3499 C 0.09551 0.02576 0.41007 0.0
C3500 C 0.07553 0.99495 0.35724 0.0
H3501 H 0.10067 0.95534 0.18792 0.0
H3502 H 0.10467 0.9735 0.24472 0.0
H3503 H 0.06769 0.97667 0.32079 0.0
H3504 H 0.05673 0.0345 0.45353 0.0
H3505 H 0.05952 0.01603 0.39859 0.0
H3506 H 0.10064 0.02021 0.32294 0.0
C3507 C 0.09386 0.97244 0.23069 0.0
C3508 C 0.07501 0.98609 0.32117 0.0
C3509 C 0.09156 0.96209 0.1984 0.0
C3510 C 0.06767 0.03174 0.44292 0.0
C3511 C 0.0693 0.02126 0.41106 0.0
C3512 C 0.09368 0.01054 0.3233 0.0
C3513 C 0.082 0.98054 0.24679 0.0
C3514 C 0.08363 0.98946 0.28563 0.0
C3515 C 0.08322 0.01814 0.39407 0.0
C3516 C 0.08451 0.00756 0.35827 0.0
H3517 H 0.0548 0.96701 0.18404 0.0
H3518 H 0.05878 0.98506 0.24043 0.0
H3519 H 0.1001 0.00418 0.26015 0.0
H3520 H 0.10335 0.04231 0.45347 0.0
H3521 H 0.10638 0.02359 0.39771 0.0
C3522 C 0.71275 0.34084 0.19733 0.0
C3523 C 0.70827 0.32661 0.20926 0.0
C3524 C 0.72373 0.34273 0.16681 0.0
C3525 C 0.73469 0.32771 0.07004 0.0
H3526 H 0.77406 0.34328 0.08312 0.0
C3527 C 0.77788 0.32012 0.9405 0.0
C3528 C 0.78938 0.33024 0.93617 0.0
C3529 C 0.76765 0.3216 0.97306 0.0
C3530 C 0.76299 0.33922 0.07861 0.0
H3531 H 0.71169 0.30327 0.19931 0.0
H3532 H 0.73075 0.30658 0.14528 0.0
H3533 H 0.75771 0.34204 0.14471 0.0
H3534 H 0.79897 0.35026 0.96123 0.0
H3535 H 0.78059 0.35341 0.01722 0.0
H3536 H 0.73951 0.32524 0.00415 0.0
C3537 C 0.726 0.31621 0.16029 0.0
C3538 C 0.75374 0.33839 0.11401 0.0
C3539 C 0.71523 0.31432 0.19135 0.0
C3540 C 0.79018 0.34228 0.96405 0.0
C3541 C 0.77972 0.34399 0.99628 0.0
C3542 C 0.74378 0.32882 0.03457 0.0
C3543 C 0.73008 0.33042 0.14724 0.0
C3544 C 0.73968 0.33229 0.11002 0.0
C3545 C 0.76849 0.33347 1.00177 0.0
C3546 C 0.75821 0.33419 0.03851 0.0
H3547 H 0.70745 0.35046 0.21068 0.0
H3548 H 0.7267 0.35377 0.15687 0.0
H3549 H 0.72375 0.3232 0.06632 0.0
H3550 H 0.77729 0.31058 0.92011 0.0
H3551 H 0.75949 0.31303 0.97666 0.0
loop_
_geom_bond_atom_site_label_1
_geom_bond_atom_site_label_2
_geom_bond_distance
_geom_bond_site_symmetry_2
_ccdc_geom_bond_type
O0 Mg1 1.990 . S
O0 C14 1.253 . S
Mg1 O0 1.990 . S
Mg1 O4 2.180 . S
Mg1 O5 2.117 . S
Mg1 O19 2.030 1_554 S
O2 Mg3 2.072 . S
O2 C14 1.260 . S
Mg3 O2 2.072 . S
Mg3 O4 2.099 . S
Mg3 O6 2.079 . S
Mg3 O7 2.072 . S
Mg3 O9 2.099 . S
Mg3 O20 2.079 . S
O4 Mg1 2.180 . S
O4 Mg3 2.099 . S
O4 C15 1.279 . S
O5 Mg1 2.117 . S
O5 C15 1.250 . S
O6 Mg3 2.079 . S
O6 C16 1.264 . S
O7 Mg3 2.072 . S
O7 C17 1.260 . S
Mg8 O9 2.180 . S
Mg8 O10 2.030 . S
Mg8 O11 1.990 . S
Mg8 O12 2.117 . S
O9 Mg3 2.099 . S
O9 Mg8 2.180 . S
O9 C18 1.279 . S
O10 Mg8 2.030 . S
O10 C16 1.248 . S
O11 Mg8 1.990 . S
O11 C17 1.253 . S
O12 Mg8 2.117 . S
O12 C18 1.250 . S
C13 O19 1.248 1_554 S
C13 O20 1.264 . S
C14 O0 1.253 . S
C14 O2 1.260 . S
C15 O4 1.279 . S
C15 O5 1.250 . S
C16 O6 1.264 . S
C16 O10 1.248 . S
C17 O7 1.260 . S
C17 O11 1.253 . S
C18 O9 1.279 . S
C18 O12 1.250 . S
O19 Mg1 2.030 1_556 S
O19 C13 1.248 1_556 S
O20 Mg3 2.079 . S
O20 C13 1.264 . S
O21 Mg22 1.990 . S
O21 C35 1.253 . S
Mg22 O21 1.990 . S
Mg22 O25 2.180 . S
Mg22 O26 2.117 . S
Mg22 O40 2.030 . S
O23 Mg24 2.072 . S
O23 C35 1.260 . S
Mg24 O23 2.072 . S
Mg24 O25 2.099 . S
Mg24 O27 2.079 . S
Mg24 O28 2.072 . S
Mg24 O30 2.099 . S
Mg24 O41 2.079 . S
O25 Mg22 2.180 . S
O25 Mg24 2.099 . S
O25 C36 1.279 . S
O26 Mg22 2.117 . S
O26 C36 1.250 . S
O27 Mg24 2.079 . S
O27 C37 1.264 . S
O28 Mg24 2.072 . S
O28 C38 1.260 . S
Mg29 O30 2.180 . S
Mg29 O31 2.030 . S
Mg29 O32 1.990 . S
Mg29 O33 2.117 . S
O30 Mg24 2.099 . S
O30 Mg29 2.180 . S
O30 C39 1.279 . S
O31 Mg29 2.030 . S
O31 C37 1.248 . S
O32 Mg29 1.990 . S
O32 C38 1.253 . S
O33 Mg29 2.117 . S
O33 C39 1.250 . S
C34 O40 1.248 . S
C34 O41 1.264 . S
C35 O21 1.253 . S
C35 O23 1.260 . S
C36 O25 1.279 . S
C36 O26 1.250 . S
C37 O27 1.264 . S
C37 O31 1.248 . S
C38 O28 1.260 . S
C38 O32 1.253 . S
C39 O30 1.279 . S
C39 O33 1.250 . S
O40 Mg22 2.030 . S
O40 C34 1.248 . S
O41 Mg24 2.079 . S
O41 C34 1.264 . S
O42 Mg43 1.990 . S
O42 C56 1.253 . S
Mg43 O42 1.990 . S
Mg43 O46 2.180 . S
Mg43 O47 2.117 . S
Mg43 O61 2.030 . S
O44 Mg45 2.072 . S
O44 C56 1.260 . S
Mg45 O44 2.072 . S
Mg45 O46 2.099 . S
Mg45 O48 2.079 . S
Mg45 O49 2.072 . S
Mg45 O51 2.099 . S
Mg45 O62 2.079 . S
O46 Mg43 2.180 . S
O46 Mg45 2.099 . S
O46 C57 1.279 . S
O47 Mg43 2.117 . S
O47 C57 1.250 . S
O48 Mg45 2.079 . S
O48 C58 1.264 . S
O49 Mg45 2.072 . S
O49 C59 1.260 . S
Mg50 O51 2.180 . S
Mg50 O52 2.030 . S
Mg50 O53 1.990 . S
Mg50 O54 2.117 . S
O51 Mg45 2.099 . S
O51 Mg50 2.180 . S
O51 C60 1.279 . S
O52 Mg50 2.030 . S
O52 C58 1.248 . S
O53 Mg50 1.990 . S
O53 C59 1.253 . S
O54 Mg50 2.117 . S
O54 C60 1.250 . S
C55 O61 1.248 . S
C55 O62 1.264 . S
C56 O42 1.253 . S
C56 O44 1.260 . S
C57 O46 1.279 . S
C57 O47 1.250 . S
C58 O48 1.264 . S
C58 O52 1.248 . S
C59 O49 1.260 . S
C59 O53 1.253 . S
C60 O51 1.279 . S
C60 O54 1.250 . S
O61 Mg43 2.030 . S
O61 C55 1.248 . S
O62 Mg45 2.079 . S
O62 C55 1.264 . S
O63 Mg64 1.990 . S
O63 C77 1.253 . S
Mg64 O63 1.990 . S
Mg64 O67 2.180 . S
Mg64 O68 2.117 . S
Mg64 O82 2.030 . S
O65 Mg66 2.072 . S
O65 C77 1.260 . S
Mg66 O65 2.072 . S
Mg66 O67 2.099 . S
Mg66 O69 2.079 . S
Mg66 O70 2.072 . S
Mg66 O72 2.099 . S
Mg66 O83 2.079 . S
O67 Mg64 2.180 . S
O67 Mg66 2.099 . S
O67 C78 1.279 . S
O68 Mg64 2.117 . S
O68 C78 1.250 . S
O69 Mg66 2.079 . S
O69 C79 1.264 . S
O70 Mg66 2.072 . S
O70 C80 1.260 . S
Mg71 O72 2.180 . S
Mg71 O73 2.030 . S
Mg71 O74 1.990 . S
Mg71 O75 2.117 . S
O72 Mg66 2.099 . S
O72 Mg71 2.180 . S
O72 C81 1.279 . S
O73 Mg71 2.030 . S
O73 C79 1.248 . S
O74 Mg71 1.990 . S
O74 C80 1.253 . S
O75 Mg71 2.117 . S
O75 C81 1.250 . S
C76 O82 1.248 . S
C76 O83 1.264 . S
C77 O63 1.253 . S
C77 O65 1.260 . S
C78 O67 1.279 . S
C78 O68 1.250 . S
C79 O69 1.264 . S
C79 O73 1.248 . S
C80 O70 1.260 . S
C80 O74 1.253 . S
C81 O72 1.279 . S
C81 O75 1.250 . S
O82 Mg64 2.030 . S
O82 C76 1.248 . S
O83 Mg66 2.079 . S
O83 C76 1.264 . S
O84 Mg85 1.990 . S
O84 C98 1.253 . S
Mg85 O84 1.990 . S
Mg85 O88 2.180 . S
Mg85 O89 2.117 . S
Mg85 O103 2.030 . S
O86 Mg87 2.072 . S
O86 C98 1.260 . S
Mg87 O86 2.072 . S
Mg87 O88 2.099 . S
Mg87 O90 2.079 . S
Mg87 O91 2.072 . S
Mg87 O93 2.099 . S
Mg87 O104 2.079 . S
O88 Mg85 2.180 . S
O88 Mg87 2.099 . S
O88 C99 1.279 . S
O89 Mg85 2.117 . S
O89 C99 1.250 . S
O90 Mg87 2.079 . S
O90 C100 1.264 . S
O91 Mg87 2.072 . S
O91 C101 1.260 . S
Mg92 O93 2.180 . S
Mg92 O94 2.030 . S
Mg92 O95 1.990 . S
Mg92 O96 2.117 . S
O93 Mg87 2.099 . S
O93 Mg92 2.180 . S
O93 C102 1.279 . S
O94 Mg92 2.030 . S
O94 C100 1.248 . S
O95 Mg92 1.990 . S
O95 C101 1.253 . S
O96 Mg92 2.117 . S
O96 C102 1.250 . S
C97 O103 1.248 . S
C97 O104 1.264 . S
C98 O84 1.253 . S
C98 O86 1.260 . S
C99 O88 1.279 . S
C99 O89 1.250 . S
C100 O90 1.264 . S
C100 O94 1.248 . S
C101 O91 1.260 . S
C101 O95 1.253 . S
C102 O93 1.279 . S
C102 O96 1.250 . S
O103 Mg85 2.030 . S
O103 C97 1.248 . S
O104 Mg87 2.079 . S
O104 C97 1.264 . S
O105 Mg106 1.990 . S
O105 C119 1.253 . S
Mg106 O105 1.990 . S
Mg106 O109 2.180 . S
Mg106 O110 2.117 . S
Mg106 O124 2.030 . S
O107 Mg108 2.072 . S
O107 C119 1.260 . S
Mg108 O107 2.072 . S
Mg108 O109 2.099 . S
Mg108 O111 2.079 . S
Mg108 O112 2.072 . S
Mg108 O114 2.099 . S
Mg108 O125 2.079 . S
O109 Mg106 2.180 . S
O109 Mg108 2.099 . S
O109 C120 1.279 . S
O110 Mg106 2.117 . S
O110 C120 1.250 . S
O111 Mg108 2.079 . S
O111 C121 1.264 . S
O112 Mg108 2.072 . S
O112 C122 1.260 . S
Mg113 O114 2.180 . S
Mg113 O115 2.030 . S
Mg113 O116 1.990 . S
Mg113 O117 2.117 . S
O114 Mg108 2.099 . S
O114 Mg113 2.180 . S
O114 C123 1.279 . S
O115 Mg113 2.030 . S
O115 C121 1.248 . S
O116 Mg113 1.990 . S
O116 C122 1.253 . S
O117 Mg113 2.117 . S
O117 C123 1.250 . S
C118 O124 1.248 . S
C118 O125 1.264 . S
C119 O105 1.253 . S
C119 O107 1.260 . S
C120 O109 1.279 . S
C120 O110 1.250 . S
C121 O111 1.264 . S
C121 O115 1.248 . S
C122 O112 1.260 . S
C122 O116 1.253 . S
C123 O114 1.279 . S
C123 O117 1.250 . S
O124 Mg106 2.030 . S
O124 C118 1.248 . S
O125 Mg108 2.079 . S
O125 C118 1.264 . S
O126 Mg127 1.990 . S
O126 C140 1.253 . S
Mg127 O126 1.990 . S
Mg127 O130 2.180 . S
Mg127 O131 2.117 . S
Mg127 O145 2.030 . S
O128 Mg129 2.072 . S
O128 C140 1.260 . S
Mg129 O128 2.072 . S
Mg129 O130 2.099 . S
Mg129 O132 2.098 . S
Mg129 O133 2.072 1_554 S
Mg129 O135 2.099 . S
Mg129 O146 2.079 . S
O130 Mg127 2.180 . S
O130 Mg129 2.099 . S
O130 C141 1.279 . S
O131 Mg127 2.117 . S
O131 C141 1.250 . S
O132 Mg129 2.098 . S
O132 C142 1.238 1_554 S
O133 Mg129 2.072 1_556 S
O133 C143 1.260 . S
Mg134 O135 2.180 1_556 S
Mg134 O136 2.030 . S
Mg134 O137 1.990 . S
Mg134 O138 2.117 1_556 S
O135 Mg129 2.099 . S
O135 Mg134 2.180 1_554 S
O135 C144 1.279 . S
O136 Mg134 2.030 . S
O136 C142 1.248 . S
O137 Mg134 1.990 . S
O137 C143 1.253 . S
O138 Mg134 2.117 1_554 S
O138 C144 1.250 . S
C139 O145 1.248 . S
C139 O146 1.264 . S
C140 O126 1.253 . S
C140 O128 1.260 . S
C141 O130 1.279 . S
C141 O131 1.250 . S
C142 O132 1.238 1_556 S
C142 O136 1.248 . S
C143 O133 1.260 . S
C143 O137 1.253 . S
C144 O135 1.279 . S
C144 O138 1.250 . S
O145 Mg127 2.030 . S
O145 C139 1.248 . S
O146 Mg129 2.079 . S
O146 C139 1.264 . S
O147 Mg148 1.990 . S
O147 C161 1.253 . S
Mg148 O147 1.990 . S
Mg148 O151 2.180 . S
Mg148 O152 2.117 . S
Mg148 O166 2.030 . S
O149 Mg150 2.072 . S
O149 C161 1.260 . S
Mg150 O149 2.072 . S
Mg150 O151 2.099 . S
Mg150 O153 2.079 . S
Mg150 O154 2.072 . S
Mg150 O156 2.099 . S
Mg150 O167 2.079 . S
O151 Mg148 2.180 . S
O151 Mg150 2.099 . S
O151 C162 1.279 . S
O152 Mg148 2.117 . S
O152 C162 1.250 . S
O153 Mg150 2.079 . S
O153 C163 1.264 . S
O154 Mg150 2.072 . S
O154 C164 1.260 . S
Mg155 O156 2.180 . S
Mg155 O157 2.030 . S
Mg155 O158 1.990 . S
Mg155 O159 2.117 . S
O156 Mg150 2.099 . S
O156 Mg155 2.180 . S
O156 C165 1.279 . S
O157 Mg155 2.030 . S
O157 C163 1.248 . S
O158 Mg155 1.990 . S
O158 C164 1.253 . S
O159 Mg155 2.117 . S
O159 C165 1.250 . S
C160 O166 1.248 . S
C160 O167 1.264 . S
C161 O147 1.253 . S
C161 O149 1.260 . S
C162 O151 1.279 . S
C162 O152 1.250 . S
C163 O153 1.264 . S
C163 O157 1.248 . S
C164 O154 1.260 . S
C164 O158 1.253 . S
C165 O156 1.279 . S
C165 O159 1.250 . S
O166 Mg148 2.030 . S
O166 C160 1.248 . S
O167 Mg150 2.079 . S
O167 C160 1.264 . S
O168 Mg169 1.990 . S
O168 C182 1.253 . S
Mg169 O168 1.990 . S
Mg169 O172 2.180 1_556 S
Mg169 O173 2.117 1_556 S
Mg169 O187 2.030 . S
O170 Mg171 2.058 1_556 S
O170 C182 1.276 . S
Mg171 O170 2.058 1_554 S
Mg171 O172 2.099 . S
Mg171 O174 2.079 . S
Mg171 O175 2.072 . S
Mg171 O177 2.099 . S
Mg171 O188 2.079 1_554 S
O172 Mg169 2.180 1_554 S
O172 Mg171 2.099 . S
O172 C183 1.279 . S
O173 Mg169 2.117 1_554 S
O173 C183 1.250 . S
O174 Mg171 2.079 . S
O174 C184 1.264 . S
O175 Mg171 2.072 . S
O175 C185 1.260 . S
Mg176 O177 2.180 . S
Mg176 O178 2.030 . S
Mg176 O179 1.990 . S
Mg176 O180 2.117 . S
O177 Mg171 2.099 . S
O177 Mg176 2.180 . S
O177 C186 1.279 . S
O178 Mg176 2.030 . S
O178 C184 1.248 . S
O179 Mg176 1.990 . S
O179 C185 1.253 . S
O180 Mg176 2.117 . S
O180 C186 1.250 . S
C181 O187 1.248 . S
C181 O188 1.264 . S
C182 O168 1.253 . S
C182 O170 1.276 . S
C183 O172 1.279 . S
C183 O173 1.250 . S
C184 O174 1.264 . S
C184 O178 1.248 . S
C185 O175 1.260 . S
C185 O179 1.253 . S
C186 O177 1.279 . S
C186 O180 1.250 . S
O187 Mg169 2.030 . S
O187 C181 1.248 . S
O188 Mg171 2.079 1_556 S
O188 C181 1.264 . S
O189 Mg190 1.990 . S
O189 C203 1.253 . S
Mg190 O189 1.990 . S
Mg190 O193 2.180 . S
Mg190 O194 2.117 . S
Mg190 O208 2.030 . S
O191 Mg192 2.072 . S
O191 C203 1.260 . S
Mg192 O191 2.072 . S
Mg192 O193 2.099 . S
Mg192 O195 2.079 . S
Mg192 O196 2.072 . S
Mg192 O198 2.099 . S
Mg192 O209 2.079 . S
O193 Mg190 2.180 . S
O193 Mg192 2.099 . S
O193 C204 1.279 . S
O194 Mg190 2.117 . S
O194 C204 1.250 . S
O195 Mg192 2.079 . S
O195 C205 1.264 . S
O196 Mg192 2.072 . S
O196 C206 1.260 . S
Mg197 O198 2.180 . S
Mg197 O199 2.030 . S
Mg197 O200 1.990 . S
Mg197 O201 2.117 . S
O198 Mg192 2.099 . S
O198 Mg197 2.180 . S
O198 C207 1.279 . S
O199 Mg197 2.030 . S
O199 C205 1.248 . S
O200 Mg197 1.990 . S
O200 C206 1.253 . S
O201 Mg197 2.117 . S
O201 C207 1.250 . S
C202 O208 1.248 . S
C202 O209 1.264 . S
C203 O189 1.253 . S
C203 O191 1.260 . S
C204 O193 1.279 . S
C204 O194 1.250 . S
C205 O195 1.264 . S
C205 O199 1.248 . S
C206 O196 1.260 . S
C206 O200 1.253 . S
C207 O198 1.279 . S
C207 O201 1.250 . S
O208 Mg190 2.030 . S
O208 C202 1.248 . S
O209 Mg192 2.079 . S
O209 C202 1.264 . S
O210 Mg211 1.990 . S
O210 C224 1.253 . S
Mg211 O210 1.990 . S
Mg211 O214 2.180 . S
Mg211 O215 2.117 . S
Mg211 O229 2.030 . S
O212 Mg213 2.072 . S
O212 C224 1.260 . S
Mg213 O212 2.072 . S
Mg213 O214 2.099 . S
Mg213 O216 2.079 . S
Mg213 O217 2.072 . S
Mg213 O219 2.099 . S
Mg213 O230 2.079 . S
O214 Mg211 2.180 . S
O214 Mg213 2.099 . S
O214 C225 1.279 . S
O215 Mg211 2.117 . S
O215 C225 1.250 . S
O216 Mg213 2.079 . S
O216 C226 1.264 . S
O217 Mg213 2.072 . S
O217 C227 1.260 . S
Mg218 O219 2.180 . S
Mg218 O220 2.030 . S
Mg218 O221 1.990 . S
Mg218 O222 2.117 . S
O219 Mg213 2.099 . S
O219 Mg218 2.180 . S
O219 C228 1.279 . S
O220 Mg218 2.030 . S
O220 C226 1.248 . S
O221 Mg218 1.990 . S
O221 C227 1.253 . S
O222 Mg218 2.117 . S
O222 C228 1.250 . S
C223 O229 1.248 . S
C223 O230 1.264 . S
C224 O210 1.253 . S
C224 O212 1.260 . S
C225 O214 1.279 . S
C225 O215 1.250 . S
C226 O216 1.264 . S
C226 O220 1.248 . S
C227 O217 1.260 . S
C227 O221 1.253 . S
C228 O219 1.279 . S
C228 O222 1.250 . S
O229 Mg211 2.030 . S
O229 C223 1.248 . S
O230 Mg213 2.079 . S
O230 C223 1.264 . S
O231 Mg232 1.990 . S
O231 C245 1.253 . S
Mg232 O231 1.990 . S
Mg232 O235 2.180 . S
Mg232 O236 2.117 . S
Mg232 O250 2.030 . S
O233 Mg234 2.072 . S
O233 C245 1.260 . S
Mg234 O233 2.072 . S
Mg234 O235 2.099 . S
Mg234 O237 2.079 . S
Mg234 O238 2.072 . S
Mg234 O240 2.099 . S
Mg234 O251 2.079 . S
O235 Mg232 2.180 . S
O235 Mg234 2.099 . S
O235 C246 1.279 . S
O236 Mg232 2.117 . S
O236 C246 1.250 . S
O237 Mg234 2.079 . S
O237 C247 1.264 . S
O238 Mg234 2.072 . S
O238 C248 1.260 . S
Mg239 O240 2.180 . S
Mg239 O241 2.030 . S
Mg239 O242 1.990 . S
Mg239 O243 2.117 . S
O240 Mg234 2.099 . S
O240 Mg239 2.180 . S
O240 C249 1.279 . S
O241 Mg239 2.030 . S
O241 C247 1.248 . S
O242 Mg239 1.990 . S
O242 C248 1.253 . S
O243 Mg239 2.117 . S
O243 C249 1.250 . S
C244 O250 1.248 . S
C244 O251 1.264 . S
C245 O231 1.253 . S
C245 O233 1.260 . S
C246 O235 1.279 . S
C246 O236 1.250 . S
C247 O237 1.264 . S
C247 O241 1.248 . S
C248 O238 1.260 . S
C248 O242 1.253 . S
C249 O240 1.279 . S
C249 O243 1.250 . S
O250 Mg232 2.030 . S
O250 C244 1.248 . S
O251 Mg234 2.079 . S
O251 C244 1.264 . S
O252 Mg253 1.990 . S
O252 C266 1.253 . S
Mg253 O252 1.990 . S
Mg253 O256 2.180 . S
Mg253 O257 2.117 . S
Mg253 O271 2.030 . S
O254 Mg255 2.072 . S
O254 C266 1.260 . S
Mg255 O254 2.072 . S
Mg255 O256 2.099 . S
Mg255 O258 2.079 . S
Mg255 O259 2.072 . S
Mg255 O261 2.099 . S
Mg255 O272 2.079 . S
O256 Mg253 2.180 . S
O256 Mg255 2.099 . S
O256 C267 1.279 . S
O257 Mg253 2.117 . S
O257 C267 1.250 . S
O258 Mg255 2.079 . S
O258 C268 1.264 . S
O259 Mg255 2.072 . S
O259 C269 1.260 . S
Mg260 O261 2.180 . S
Mg260 O262 2.030 . S
Mg260 O263 1.990 . S
Mg260 O264 2.117 . S
O261 Mg255 2.099 . S
O261 Mg260 2.180 . S
O261 C270 1.279 . S
O262 Mg260 2.030 . S
O262 C268 1.248 . S
O263 Mg260 1.990 . S
O263 C269 1.253 . S
O264 Mg260 2.117 . S
O264 C270 1.250 . S
C265 O271 1.248 . S
C265 O272 1.264 . S
C266 O252 1.253 . S
C266 O254 1.260 . S
C267 O256 1.279 . S
C267 O257 1.250 . S
C268 O258 1.264 . S
C268 O262 1.248 . S
C269 O259 1.260 . S
C269 O263 1.253 . S
C270 O261 1.279 . S
C270 O264 1.250 . S
O271 Mg253 2.030 . S
O271 C265 1.248 . S
O272 Mg255 2.079 . S
O272 C265 1.264 . S
O273 Mg274 1.990 . S
O273 C287 1.253 . S
Mg274 O273 1.990 . S
Mg274 O277 2.180 . S
Mg274 O278 2.117 . S
Mg274 O292 2.030 . S
O275 Mg276 2.072 . S
O275 C287 1.260 . S
Mg276 O275 2.072 . S
Mg276 O277 2.099 . S
Mg276 O279 2.079 . S
Mg276 O280 2.072 . S
Mg276 O282 2.099 . S
Mg276 O293 2.079 . S
O277 Mg274 2.180 . S
O277 Mg276 2.099 . S
O277 C288 1.279 . S
O278 Mg274 2.117 . S
O278 C288 1.250 . S
O279 Mg276 2.079 . S
O279 C289 1.264 . S
O280 Mg276 2.072 . S
O280 C290 1.260 . S
Mg281 O282 2.180 . S
Mg281 O283 2.030 . S
Mg281 O284 1.990 . S
Mg281 O285 2.117 . S
O282 Mg276 2.099 . S
O282 Mg281 2.180 . S
O282 C291 1.279 . S
O283 Mg281 2.030 . S
O283 C289 1.248 . S
O284 Mg281 1.990 . S
O284 C290 1.253 . S
O285 Mg281 2.117 . S
O285 C291 1.250 . S
C286 O292 1.248 . S
C286 O293 1.264 . S
C287 O273 1.253 . S
C287 O275 1.260 . S
C288 O277 1.279 . S
C288 O278 1.250 . S
C289 O279 1.264 . S
C289 O283 1.248 . S
C290 O280 1.260 . S
C290 O284 1.253 . S
C291 O282 1.279 . S
C291 O285 1.250 . S
O292 Mg274 2.030 . S
O292 C286 1.248 . S
O293 Mg276 2.079 . S
O293 C286 1.264 . S
O294 Mg295 1.990 . S
O294 C308 1.253 . S
Mg295 O294 1.990 . S
Mg295 O298 2.180 . S
Mg295 O299 2.117 . S
Mg295 O313 2.030 1_554 S
O296 Mg297 2.072 . S
O296 C308 1.260 . S
Mg297 O296 2.072 . S
Mg297 O298 2.099 . S
Mg297 O300 2.079 . S
Mg297 O301 2.072 . S
Mg297 O303 2.099 . S
Mg297 O314 2.079 . S
O298 Mg295 2.180 . S
O298 Mg297 2.099 . S
O298 C309 1.279 . S
O299 Mg295 2.117 . S
O299 C309 1.250 . S
O300 Mg297 2.079 . S
O300 C310 1.264 . S
O301 Mg297 2.072 . S
O301 C311 1.260 . S
Mg302 O303 2.180 . S
Mg302 O304 2.030 . S
Mg302 O305 1.990 . S
Mg302 O306 2.117 . S
O303 Mg297 2.099 . S
O303 Mg302 2.180 . S
O303 C312 1.279 . S
O304 Mg302 2.030 . S
O304 C310 1.248 . S
O305 Mg302 1.990 . S
O305 C311 1.253 . S
O306 Mg302 2.117 . S
O306 C312 1.250 . S
C307 O313 1.248 1_554 S
C307 O314 1.264 . S
C308 O294 1.253 . S
C308 O296 1.260 . S
C309 O298 1.279 . S
C309 O299 1.250 . S
C310 O300 1.264 . S
C310 O304 1.248 . S
C311 O301 1.260 . S
C311 O305 1.253 . S
C312 O303 1.279 . S
C312 O306 1.250 . S
O313 Mg295 2.030 1_556 S
O313 C307 1.248 1_556 S
O314 Mg297 2.079 . S
O314 C307 1.264 . S
O315 Mg316 1.990 . S
O315 C329 1.253 . S
Mg316 O315 1.990 . S
Mg316 O319 2.180 . S
Mg316 O320 2.117 . S
Mg316 O334 2.030 . S
O317 Mg318 2.072 . S
O317 C329 1.260 . S
Mg318 O317 2.072 . S
Mg318 O319 2.099 . S
Mg318 O321 2.079 . S
Mg318 O322 2.072 . S
Mg318 O324 2.099 . S
Mg318 O335 2.079 . S
O319 Mg316 2.180 . S
O319 Mg318 2.099 . S
O319 C330 1.279 . S
O320 Mg316 2.117 . S
O320 C330 1.250 . S
O321 Mg318 2.079 . S
O321 C331 1.264 . S
O322 Mg318 2.072 . S
O322 C332 1.260 . S
Mg323 O324 2.180 . S
Mg323 O325 2.030 . S
Mg323 O326 1.990 . S
Mg323 O327 2.117 . S
O324 Mg318 2.099 . S
O324 Mg323 2.180 . S
O324 C333 1.279 . S
O325 Mg323 2.030 . S
O325 C331 1.248 . S
O326 Mg323 1.990 . S
O326 C332 1.253 . S
O327 Mg323 2.117 . S
O327 C333 1.250 . S
C328 O334 1.248 . S
C328 O335 1.264 . S
C329 O315 1.253 . S
C329 O317 1.260 . S
C330 O319 1.279 . S
C330 O320 1.250 . S
C331 O321 1.264 . S
C331 O325 1.248 . S
C332 O322 1.260 . S
C332 O326 1.253 . S
C333 O324 1.279 . S
C333 O327 1.250 . S
O334 Mg316 2.030 . S
O334 C328 1.248 . S
O335 Mg318 2.079 . S
O335 C328 1.264 . S
O336 Mg337 1.990 . S
O336 C350 1.253 . S
Mg337 O336 1.990 . S
Mg337 O340 2.180 . S
Mg337 O341 2.117 . S
Mg337 O355 2.030 . S
O338 Mg339 2.072 . S
O338 C350 1.260 . S
Mg339 O338 2.072 . S
Mg339 O340 2.099 . S
Mg339 O342 2.079 . S
Mg339 O343 2.072 . S
Mg339 O345 2.099 . S
Mg339 O356 2.079 . S
O340 Mg337 2.180 . S
O340 Mg339 2.099 . S
O340 C351 1.279 . S
O341 Mg337 2.117 . S
O341 C351 1.250 . S
O342 Mg339 2.079 . S
O342 C352 1.264 . S
O343 Mg339 2.072 . S
O343 C353 1.260 . S
Mg344 O345 2.180 . S
Mg344 O346 2.030 . S
Mg344 O347 1.990 . S
Mg344 O348 2.117 . S
O345 Mg339 2.099 . S
O345 Mg344 2.180 . S
O345 C354 1.279 . S
O346 Mg344 2.030 . S
O346 C352 1.248 . S
O347 Mg344 1.990 . S
O347 C353 1.253 . S
O348 Mg344 2.117 . S
O348 C354 1.250 . S
C349 O355 1.248 . S
C349 O356 1.264 . S
C350 O336 1.253 . S
C350 O338 1.260 . S
C351 O340 1.279 . S
C351 O341 1.250 . S
C352 O342 1.264 . S
C352 O346 1.248 . S
C353 O343 1.260 . S
C353 O347 1.253 . S
C354 O345 1.279 . S
C354 O348 1.250 . S
O355 Mg337 2.030 . S
O355 C349 1.248 . S
O356 Mg339 2.079 . S
O356 C349 1.264 . S
O357 Mg358 1.990 . S
O357 C371 1.253 . S
Mg358 O357 1.990 . S
Mg358 O361 2.180 . S
Mg358 O362 2.117 . S
Mg358 O376 2.030 . S
O359 Mg360 2.072 . S
O359 C371 1.260 . S
Mg360 O359 2.072 . S
Mg360 O361 2.099 . S
Mg360 O363 2.079 . S
Mg360 O364 2.072 . S
Mg360 O366 2.099 . S
Mg360 O377 2.079 . S
O361 Mg358 2.180 . S
O361 Mg360 2.099 . S
O361 C372 1.279 . S
O362 Mg358 2.117 . S
O362 C372 1.250 . S
O363 Mg360 2.079 . S
O363 C373 1.264 . S
O364 Mg360 2.072 . S
O364 C374 1.260 . S
Mg365 O366 2.180 . S
Mg365 O367 2.030 . S
Mg365 O368 1.990 . S
Mg365 O369 2.117 . S
O366 Mg360 2.099 . S
O366 Mg365 2.180 . S
O366 C375 1.279 . S
O367 Mg365 2.030 . S
O367 C373 1.248 . S
O368 Mg365 1.990 . S
O368 C374 1.253 . S
O369 Mg365 2.117 . S
O369 C375 1.250 . S
C370 O376 1.248 . S
C370 O377 1.264 . S
C371 O357 1.253 . S
C371 O359 1.260 . S
C372 O361 1.279 . S
C372 O362 1.250 . S
C373 O363 1.264 . S
C373 O367 1.248 . S
C374 O364 1.260 . S
C374 O368 1.253 . S
C375 O366 1.279 . S
C375 O369 1.250 . S
O376 Mg358 2.030 . S
O376 C370 1.248 . S
O377 Mg360 2.079 . S
O377 C370 1.264 . S
O378 Mg379 1.990 . S
O378 C392 1.253 . S
Mg379 O378 1.990 . S
Mg379 O382 2.180 . S
Mg379 O383 2.117 . S
Mg379 O397 2.030 1_554 S
O380 Mg381 2.072 . S
O380 C392 1.260 . S
Mg381 O380 2.072 . S
Mg381 O382 2.099 . S
Mg381 O384 2.079 . S
Mg381 O385 2.072 . S
Mg381 O387 2.099 . S
Mg381 O398 2.079 . S
O382 Mg379 2.180 . S
O382 Mg381 2.099 . S
O382 C393 1.279 . S
O383 Mg379 2.117 . S
O383 C393 1.250 . S
O384 Mg381 2.079 . S
O384 C394 1.264 . S
O385 Mg381 2.072 . S
O385 C395 1.260 . S
Mg386 O387 2.180 . S
Mg386 O388 2.030 . S
Mg386 O389 1.990 . S
Mg386 O390 2.117 . S
O387 Mg381 2.099 . S
O387 Mg386 2.180 . S
O387 C396 1.279 . S
O388 Mg386 2.030 . S
O388 C394 1.248 . S
O389 Mg386 1.990 . S
O389 C395 1.253 . S
O390 Mg386 2.117 . S
O390 C396 1.250 . S
C391 O397 1.248 1_554 S
C391 O398 1.264 . S
C392 O378 1.253 . S
C392 O380 1.260 . S
C393 O382 1.279 . S
C393 O383 1.250 . S
C394 O384 1.264 . S
C394 O388 1.248 . S
C395 O385 1.260 . S
C395 O389 1.253 . S
C396 O387 1.279 . S
C396 O390 1.250 . S
O397 Mg379 2.030 1_556 S
O397 C391 1.248 1_556 S
O398 Mg381 2.079 . S
O398 C391 1.264 . S
O399 Mg400 1.990 . S
O399 C413 1.253 . S
Mg400 O399 1.990 . S
Mg400 O403 2.180 . S
Mg400 O404 2.117 . S
Mg400 O418 2.030 . S
O401 Mg402 2.072 . S
O401 C413 1.260 . S
Mg402 O401 2.072 . S
Mg402 O403 2.099 . S
Mg402 O405 2.079 . S
Mg402 O406 2.072 . S
Mg402 O408 2.099 . S
Mg402 O419 2.079 . S
O403 Mg400 2.180 . S
O403 Mg402 2.099 . S
O403 C414 1.279 . S
O404 Mg400 2.117 . S
O404 C414 1.250 . S
O405 Mg402 2.079 . S
O405 C415 1.264 . S
O406 Mg402 2.072 . S
O406 C416 1.260 . S
Mg407 O408 2.180 . S
Mg407 O409 2.030 . S
Mg407 O410 1.990 . S
Mg407 O411 2.117 . S
O408 Mg402 2.099 . S
O408 Mg407 2.180 . S
O408 C417 1.279 . S
O409 Mg407 2.030 . S
O409 C415 1.248 . S
O410 Mg407 1.990 . S
O410 C416 1.253 . S
O411 Mg407 2.117 . S
O411 C417 1.250 . S
C412 O418 1.248 . S
C412 O419 1.264 . S
C413 O399 1.253 . S
C413 O401 1.260 . S
C414 O403 1.279 . S
C414 O404 1.250 . S
C415 O405 1.264 . S
C415 O409 1.248 . S
C416 O406 1.260 . S
C416 O410 1.253 . S
C417 O408 1.279 . S
C417 O411 1.250 . S
O418 Mg400 2.030 . S
O418 C412 1.248 . S
O419 Mg402 2.079 . S
O419 C412 1.264 . S
O420 Mg421 1.990 . S
O420 C434 1.253 . S
Mg421 O420 1.990 . S
Mg421 O424 2.180 . S
Mg421 O425 2.117 . S
Mg421 O439 2.030 . S
O422 Mg423 2.072 . S
O422 C434 1.260 . S
Mg423 O422 2.072 . S
Mg423 O424 2.099 . S
Mg423 O426 2.098 . S
Mg423 O427 2.072 1_554 S
Mg423 O429 2.099 . S
Mg423 O440 2.079 . S
O424 Mg421 2.180 . S
O424 Mg423 2.099 . S
O424 C435 1.279 . S
O425 Mg421 2.117 . S
O425 C435 1.250 . S
O426 Mg423 2.098 . S
O426 C436 1.238 1_554 S
O427 Mg423 2.072 1_556 S
O427 C437 1.260 . S
Mg428 O429 2.180 1_556 S
Mg428 O430 2.030 . S
Mg428 O431 1.990 . S
Mg428 O432 2.117 1_556 S
O429 Mg423 2.099 . S
O429 Mg428 2.180 1_554 S
O429 C438 1.279 . S
O430 Mg428 2.030 . S
O430 C436 1.248 . S
O431 Mg428 1.990 . S
O431 C437 1.253 . S
O432 Mg428 2.117 1_554 S
O432 C438 1.250 . S
C433 O439 1.248 . S
C433 O440 1.264 . S
C434 O420 1.253 . S
C434 O422 1.260 . S
C435 O424 1.279 . S
C435 O425 1.250 . S
C436 O426 1.238 1_556 S
C436 O430 1.248 . S
C437 O427 1.260 . S
C437 O431 1.253 . S
C438 O429 1.279 . S
C438 O432 1.250 . S
O439 Mg421 2.030 . S
O439 C433 1.248 . S
O440 Mg423 2.079 . S
O440 C433 1.264 . S
O441 Mg442 1.990 . S
O441 C455 1.253 . S
Mg442 O441 1.990 . S
Mg442 O445 2.180 . S
Mg442 O446 2.117 . S
Mg442 O460 2.030 . S
O443 Mg444 2.072 . S
O443 C455 1.260 . S
Mg444 O443 2.072 . S
Mg444 O445 2.099 . S
Mg444 O447 2.079 . S
Mg444 O448 2.072 . S
Mg444 O450 2.099 . S
Mg444 O461 2.079 . S
O445 Mg442 2.180 . S
O445 Mg444 2.099 . S
O445 C456 1.279 . S
O446 Mg442 2.117 . S
O446 C456 1.250 . S
O447 Mg444 2.079 . S
O447 C457 1.264 . S
O448 Mg444 2.072 . S
O448 C458 1.260 . S
Mg449 O450 2.180 . S
Mg449 O451 2.030 . S
Mg449 O452 1.990 . S
Mg449 O453 2.117 . S
O450 Mg444 2.099 . S
O450 Mg449 2.180 . S
O450 C459 1.279 . S
O451 Mg449 2.030 . S
O451 C457 1.248 . S
O452 Mg449 1.990 . S
O452 C458 1.253 . S
O453 Mg449 2.117 . S
O453 C459 1.250 . S
C454 O460 1.248 . S
C454 O461 1.264 . S
C455 O441 1.253 . S
C455 O443 1.260 . S
C456 O445 1.279 . S
C456 O446 1.250 . S
C457 O447 1.264 . S
C457 O451 1.248 . S
C458 O448 1.260 . S
C458 O452 1.253 . S
C459 O450 1.279 . S
C459 O453 1.250 . S
O460 Mg442 2.030 . S
O460 C454 1.248 . S
O461 Mg444 2.079 . S
O461 C454 1.264 . S
O462 Mg463 1.990 . S
O462 C476 1.253 . S
Mg463 O462 1.990 . S
Mg463 O466 2.180 . S
Mg463 O467 2.117 . S
Mg463 O481 2.030 . S
O464 Mg465 2.072 . S
O464 C476 1.260 . S
Mg465 O464 2.072 . S
Mg465 O466 2.099 . S
Mg465 O468 2.079 . S
Mg465 O469 2.072 . S
Mg465 O471 2.099 . S
Mg465 O482 2.079 . S
O466 Mg463 2.180 . S
O466 Mg465 2.099 . S
O466 C477 1.279 . S
O467 Mg463 2.117 . S
O467 C477 1.250 . S
O468 Mg465 2.079 . S
O468 C478 1.264 . S
O469 Mg465 2.072 . S
O469 C479 1.260 . S
Mg470 O471 2.180 . S
Mg470 O472 2.030 . S
Mg470 O473 1.990 . S
Mg470 O474 2.117 . S
O471 Mg465 2.099 . S
O471 Mg470 2.180 . S
O471 C480 1.279 . S
O472 Mg470 2.030 . S
O472 C478 1.248 . S
O473 Mg470 1.990 . S
O473 C479 1.253 . S
O474 Mg470 2.117 . S
O474 C480 1.250 . S
C475 O481 1.248 . S
C475 O482 1.264 . S
C476 O462 1.253 . S
C476 O464 1.260 . S
C477 O466 1.279 . S
C477 O467 1.250 . S
C478 O468 1.264 . S
C478 O472 1.248 . S
C479 O469 1.260 . S
C479 O473 1.253 . S
C480 O471 1.279 . S
C480 O474 1.250 . S
O481 Mg463 2.030 . S
O481 C475 1.248 . S
O482 Mg465 2.079 . S
O482 C475 1.264 . S
O483 Mg484 1.990 . S
O483 C497 1.253 . S
Mg484 O483 1.990 . S
Mg484 O487 2.180 . S
Mg484 O488 2.117 . S
Mg484 O502 2.030 . S
O485 Mg486 2.072 . S
O485 C497 1.260 . S
Mg486 O485 2.072 . S
Mg486 O487 2.099 . S
Mg486 O489 2.079 . S
Mg486 O490 2.072 . S
Mg486 O492 2.099 . S
Mg486 O503 2.079 . S
O487 Mg484 2.180 . S
O487 Mg486 2.099 . S
O487 C498 1.279 . S
O488 Mg484 2.117 . S
O488 C498 1.250 . S
O489 Mg486 2.079 . S
O489 C499 1.264 . S
O490 Mg486 2.072 . S
O490 C500 1.260 . S
Mg491 O492 2.180 . S
Mg491 O493 2.030 . S
Mg491 O494 1.990 . S
Mg491 O495 2.117 . S
O492 Mg486 2.099 . S
O492 Mg491 2.180 . S
O492 C501 1.279 . S
O493 Mg491 2.030 . S
O493 C499 1.248 . S
O494 Mg491 1.990 . S
O494 C500 1.253 . S
O495 Mg491 2.117 . S
O495 C501 1.250 . S
C496 O502 1.248 . S
C496 O503 1.264 . S
C497 O483 1.253 . S
C497 O485 1.260 . S
C498 O487 1.279 . S
C498 O488 1.250 . S
C499 O489 1.264 . S
C499 O493 1.248 . S
C500 O490 1.260 . S
C500 O494 1.253 . S
C501 O492 1.279 . S
C501 O495 1.250 . S
O502 Mg484 2.030 . S
O502 C496 1.248 . S
O503 Mg486 2.079 . S
O503 C496 1.264 . S
O504 Mg505 1.990 . S
O504 C518 1.253 . S
Mg505 O504 1.990 . S
Mg505 O508 2.180 . S
Mg505 O509 2.117 . S
Mg505 O523 2.030 . S
O506 Mg507 2.072 . S
O506 C518 1.260 . S
Mg507 O506 2.072 . S
Mg507 O508 2.099 . S
Mg507 O510 2.079 . S
Mg507 O511 2.072 . S
Mg507 O513 2.099 . S
Mg507 O524 2.079 . S
O508 Mg505 2.180 . S
O508 Mg507 2.099 . S
O508 C519 1.279 . S
O509 Mg505 2.117 . S
O509 C519 1.250 . S
O510 Mg507 2.079 . S
O510 C520 1.264 . S
O511 Mg507 2.072 . S
O511 C521 1.260 . S
Mg512 O513 2.180 . S
Mg512 O514 2.030 . S
Mg512 O515 1.990 . S
Mg512 O516 2.117 . S
O513 Mg507 2.099 . S
O513 Mg512 2.180 . S
O513 C522 1.279 . S
O514 Mg512 2.030 . S
O514 C520 1.248 . S
O515 Mg512 1.990 . S
O515 C521 1.253 . S
O516 Mg512 2.117 . S
O516 C522 1.250 . S
C517 O523 1.248 . S
C517 O524 1.264 . S
C518 O504 1.253 . S
C518 O506 1.260 . S
C519 O508 1.279 . S
C519 O509 1.250 . S
C520 O510 1.264 . S
C520 O514 1.248 . S
C521 O511 1.260 . S
C521 O515 1.253 . S
C522 O513 1.279 . S
C522 O516 1.250 . S
O523 Mg505 2.030 . S
O523 C517 1.248 . S
O524 Mg507 2.079 . S
O524 C517 1.264 . S
O525 Mg526 1.990 . S
O525 C539 1.253 . S
Mg526 O525 1.990 . S
Mg526 O529 2.180 . S
Mg526 O530 2.117 . S
Mg526 O544 2.030 . S
O527 Mg528 2.072 . S
O527 C539 1.260 . S
Mg528 O527 2.072 . S
Mg528 O529 2.099 . S
Mg528 O531 2.079 . S
Mg528 O532 2.072 . S
Mg528 O534 2.099 . S
Mg528 O545 2.079 . S
O529 Mg526 2.180 . S
O529 Mg528 2.099 . S
O529 C540 1.279 . S
O530 Mg526 2.117 . S
O530 C540 1.250 . S
O531 Mg528 2.079 . S
O531 C541 1.264 . S
O532 Mg528 2.072 . S
O532 C542 1.260 . S
Mg533 O534 2.180 . S
Mg533 O535 2.030 . S
Mg533 O536 1.990 . S
Mg533 O537 2.117 . S
O534 Mg528 2.099 . S
O534 Mg533 2.180 . S
O534 C543 1.279 . S
O535 Mg533 2.030 . S
O535 C541 1.248 . S
O536 Mg533 1.990 . S
O536 C542 1.253 . S
O537 Mg533 2.117 . S
O537 C543 1.250 . S
C538 O544 1.248 . S
C538 O545 1.264 . S
C539 O525 1.253 . S
C539 O527 1.260 . S
C540 O529 1.279 . S
C540 O530 1.250 . S
C541 O531 1.264 . S
C541 O535 1.248 . S
C542 O532 1.260 . S
C542 O536 1.253 . S
C543 O534 1.279 . S
C543 O537 1.250 . S
O544 Mg526 2.030 . S
O544 C538 1.248 . S
O545 Mg528 2.079 . S
O545 C538 1.264 . S
O546 Mg547 1.990 . S
O546 C560 1.253 . S
Mg547 O546 1.990 . S
Mg547 O550 2.180 . S
Mg547 O551 2.117 . S
Mg547 O565 2.030 . S
O548 Mg549 2.072 . S
O548 C560 1.260 . S
Mg549 O548 2.072 . S
Mg549 O550 2.099 . S
Mg549 O552 2.079 1_554 S
Mg549 O553 2.058 1_554 S
Mg549 O555 2.099 . S
Mg549 O566 2.079 . S
O550 Mg547 2.180 . S
O550 Mg549 2.099 . S
O550 C561 1.279 . S
O551 Mg547 2.117 . S
O551 C561 1.250 . S
O552 Mg549 2.079 1_556 S
O552 C562 1.264 . S
O553 Mg549 2.058 1_556 S
O553 C563 1.276 . S
Mg554 O555 2.180 1_556 S
Mg554 O556 2.030 . S
Mg554 O557 1.990 . S
Mg554 O558 2.117 1_556 S
O555 Mg549 2.099 . S
O555 Mg554 2.180 1_554 S
O555 C564 1.279 . S
O556 Mg554 2.030 . S
O556 C562 1.248 . S
O557 Mg554 1.990 . S
O557 C563 1.253 . S
O558 Mg554 2.117 1_554 S
O558 C564 1.250 . S
C559 O565 1.248 . S
C559 O566 1.264 . S
C560 O546 1.253 . S
C560 O548 1.260 . S
C561 O550 1.279 . S
C561 O551 1.250 . S
C562 O552 1.264 . S
C562 O556 1.248 . S
C563 O553 1.276 . S
C563 O557 1.253 . S
C564 O555 1.279 . S
C564 O558 1.250 . S
O565 Mg547 2.030 . S
O565 C559 1.248 . S
O566 Mg549 2.079 . S
O566 C559 1.264 . S
O567 Mg568 1.990 . S
O567 C581 1.253 . S
Mg568 O567 1.990 . S
Mg568 O571 2.180 . S
Mg568 O572 2.117 . S
Mg568 O586 2.030 . S
O569 Mg570 2.072 . S
O569 C581 1.260 . S
Mg570 O569 2.072 . S
Mg570 O571 2.099 . S
Mg570 O573 2.079 . S
Mg570 O574 2.072 . S
Mg570 O576 2.099 . S
Mg570 O587 2.079 . S
O571 Mg568 2.180 . S
O571 Mg570 2.099 . S
O571 C582 1.279 . S
O572 Mg568 2.117 . S
O572 C582 1.250 . S
O573 Mg570 2.079 . S
O573 C583 1.264 . S
O574 Mg570 2.072 . S
O574 C584 1.260 . S
Mg575 O576 2.180 . S
Mg575 O577 2.030 . S
Mg575 O578 1.990 . S
Mg575 O579 2.117 . S
O576 Mg570 2.099 . S
O576 Mg575 2.180 . S
O576 C585 1.279 . S
O577 Mg575 2.030 . S
O577 C583 1.248 . S
O578 Mg575 1.990 . S
O578 C584 1.253 . S
O579 Mg575 2.117 . S
O579 C585 1.250 . S
C580 O586 1.248 . S
C580 O587 1.264 . S
C581 O567 1.253 . S
C581 O569 1.260 . S
C582 O571 1.279 . S
C582 O572 1.250 . S
C583 O573 1.264 . S
C583 O577 1.248 . S
C584 O574 1.260 . S
C584 O578 1.253 . S
C585 O576 1.279 . S
C585 O579 1.250 . S
O586 Mg568 2.030 . S
O586 C580 1.248 . S
O587 Mg570 2.079 . S
O587 C580 1.264 . S
O588 Mg589 1.990 . S
O588 C602 1.253 . S
Mg589 O588 1.990 . S
Mg589 O592 2.180 . S
Mg589 O593 2.117 . S
Mg589 O607 2.030 . S
O590 Mg591 2.072 . S
O590 C602 1.260 . S
Mg591 O590 2.072 . S
Mg591 O592 2.099 . S
Mg591 O594 2.079 . S
Mg591 O595 2.072 . S
Mg591 O597 2.099 . S
Mg591 O608 2.079 . S
O592 Mg589 2.180 . S
O592 Mg591 2.099 . S
O592 C603 1.279 . S
O593 Mg589 2.117 . S
O593 C603 1.250 . S
O594 Mg591 2.079 . S
O594 C604 1.264 . S
O595 Mg591 2.072 . S
O595 C605 1.260 . S
Mg596 O597 2.180 . S
Mg596 O598 2.030 1_554 S
Mg596 O599 1.990 . S
Mg596 O600 2.117 . S
O597 Mg591 2.099 . S
O597 Mg596 2.180 . S
O597 C606 1.279 . S
O598 Mg596 2.030 1_556 S
O598 C604 1.248 1_556 S
O599 Mg596 1.990 . S
O599 C605 1.253 . S
O600 Mg596 2.117 . S
O600 C606 1.250 . S
C601 O607 1.248 . S
C601 O608 1.264 . S
C602 O588 1.253 . S
C602 O590 1.260 . S
C603 O592 1.279 . S
C603 O593 1.250 . S
C604 O594 1.264 . S
C604 O598 1.248 1_554 S
C605 O595 1.260 . S
C605 O599 1.253 . S
C606 O597 1.279 . S
C606 O600 1.250 . S
O607 Mg589 2.030 . S
O607 C601 1.248 . S
O608 Mg591 2.079 . S
O608 C601 1.264 . S
O609 Mg610 1.990 . S
O609 C623 1.253 . S
Mg610 O609 1.990 . S
Mg610 O613 2.180 . S
Mg610 O614 2.117 . S
Mg610 O628 2.030 . S
O611 Mg612 2.072 . S
O611 C623 1.260 . S
Mg612 O611 2.072 . S
Mg612 O613 2.099 . S
Mg612 O615 2.079 . S
Mg612 O616 2.072 . S
Mg612 O618 2.099 . S
Mg612 O629 2.079 . S
O613 Mg610 2.180 . S
O613 Mg612 2.099 . S
O613 C624 1.279 . S
O614 Mg610 2.117 . S
O614 C624 1.250 . S
O615 Mg612 2.079 . S
O615 C625 1.264 . S
O616 Mg612 2.072 . S
O616 C626 1.260 . S
Mg617 O618 2.180 . S
Mg617 O619 2.030 . S
Mg617 O620 1.990 . S
Mg617 O621 2.117 . S
O618 Mg612 2.099 . S
O618 Mg617 2.180 . S
O618 C627 1.279 . S
O619 Mg617 2.030 . S
O619 C625 1.248 . S
O620 Mg617 1.990 . S
O620 C626 1.253 . S
O621 Mg617 2.117 . S
O621 C627 1.250 . S
C622 O628 1.248 . S
C622 O629 1.264 . S
C623 O609 1.253 . S
C623 O611 1.260 . S
C624 O613 1.279 . S
C624 O614 1.250 . S
C625 O615 1.264 . S
C625 O619 1.248 . S
C626 O616 1.260 . S
C626 O620 1.253 . S
C627 O618 1.279 . S
C627 O621 1.250 . S
O628 Mg610 2.030 . S
O628 C622 1.248 . S
O629 Mg612 2.079 . S
O629 C622 1.264 . S
O630 Mg631 1.990 . S
O630 C644 1.253 . S
Mg631 O630 1.990 . S
Mg631 O634 2.180 . S
Mg631 O635 2.117 . S
Mg631 O649 2.030 . S
O632 Mg633 2.072 . S
O632 C644 1.260 . S
Mg633 O632 2.072 . S
Mg633 O634 2.099 . S
Mg633 O636 2.079 . S
Mg633 O637 2.072 . S
Mg633 O639 2.099 . S
Mg633 O650 2.079 . S
O634 Mg631 2.180 . S
O634 Mg633 2.099 . S
O634 C645 1.279 . S
O635 Mg631 2.117 . S
O635 C645 1.250 . S
O636 Mg633 2.079 . S
O636 C646 1.264 . S
O637 Mg633 2.072 . S
O637 C647 1.260 . S
Mg638 O639 2.180 . S
Mg638 O640 2.030 . S
Mg638 O641 1.990 . S
Mg638 O642 2.117 . S
O639 Mg633 2.099 . S
O639 Mg638 2.180 . S
O639 C648 1.279 . S
O640 Mg638 2.030 . S
O640 C646 1.248 . S
O641 Mg638 1.990 . S
O641 C647 1.253 . S
O642 Mg638 2.117 . S
O642 C648 1.250 . S
C643 O649 1.248 . S
C643 O650 1.264 . S
C644 O630 1.253 . S
C644 O632 1.260 . S
C645 O634 1.279 . S
C645 O635 1.250 . S
C646 O636 1.264 . S
C646 O640 1.248 . S
C647 O637 1.260 . S
C647 O641 1.253 . S
C648 O639 1.279 . S
C648 O642 1.250 . S
O649 Mg631 2.030 . S
O649 C643 1.248 . S
O650 Mg633 2.079 . S
O650 C643 1.264 . S
O651 Mg652 1.990 . S
O651 C665 1.253 . S
Mg652 O651 1.990 . S
Mg652 O655 2.180 . S
Mg652 O656 2.117 . S
Mg652 O670 2.030 . S
O653 Mg654 2.072 . S
O653 C665 1.260 . S
Mg654 O653 2.072 . S
Mg654 O655 2.099 . S
Mg654 O657 2.079 . S
Mg654 O658 2.072 . S
Mg654 O660 2.099 . S
Mg654 O671 2.079 . S
O655 Mg652 2.180 . S
O655 Mg654 2.099 . S
O655 C666 1.279 . S
O656 Mg652 2.117 . S
O656 C666 1.250 . S
O657 Mg654 2.079 . S
O657 C667 1.264 . S
O658 Mg654 2.072 . S
O658 C668 1.260 . S
Mg659 O660 2.180 . S
Mg659 O661 2.030 . S
Mg659 O662 1.990 . S
Mg659 O663 2.117 . S
O660 Mg654 2.099 . S
O660 Mg659 2.180 . S
O660 C669 1.279 . S
O661 Mg659 2.030 . S
O661 C667 1.248 . S
O662 Mg659 1.990 . S
O662 C668 1.253 . S
O663 Mg659 2.117 . S
O663 C669 1.250 . S
C664 O670 1.248 . S
C664 O671 1.264 . S
C665 O651 1.253 . S
C665 O653 1.260 . S
C666 O655 1.279 . S
C666 O656 1.250 . S
C667 O657 1.264 . S
C667 O661 1.248 . S
C668 O658 1.260 . S
C668 O662 1.253 . S
C669 O660 1.279 . S
C669 O663 1.250 . S
O670 Mg652 2.030 . S
O670 C664 1.248 . S
O671 Mg654 2.079 . S
O671 C664 1.264 . S
C672 C673 1.349 . S
C672 C674 1.327 . S
C672 H697 0.950 . S
C673 C672 1.349 . S
C673 C689 1.349 . S
C674 C672 1.327 . S
C674 C693 1.429 . S
C674 H698 0.950 . S
C675 C692 1.574 . S
C675 C694 1.368 . S
C675 H699 0.949 . S
H676 C680 0.949 . S
C677 C678 1.349 . S
C677 C679 1.327 . S
C677 H700 0.950 . S
C678 C677 1.349 . S
C678 C690 1.349 . S
C679 C677 1.327 . S
C679 C695 1.429 . S
C679 H701 0.950 . S
C680 H676 0.949 . S
C680 C688 1.574 . S
C680 C696 1.368 . S
H681 C689 0.950 . S
H682 C687 0.950 . S
H683 C688 0.949 . S
H684 C690 0.950 . S
H685 C691 0.950 . S
H686 C692 0.949 . S
C687 H682 0.950 . S
C687 C689 1.327 . S
C687 C693 1.429 . S
C688 C680 1.574 . S
C688 H683 0.949 . S
C688 C694 1.368 . S
C689 C673 1.349 . S
C689 H681 0.950 . S
C689 C687 1.327 . S
C690 C678 1.349 . S
C690 H684 0.950 . S
C690 C691 1.327 . S
C691 H685 0.950 . S
C691 C690 1.327 . S
C691 C695 1.429 . S
C692 C675 1.574 . S
C692 H686 0.949 . S
C692 C696 1.368 . S
C693 C674 1.429 . S
C693 C687 1.429 . S
C693 C694 1.523 . S
C694 C675 1.368 . S
C694 C688 1.368 . S
C694 C693 1.523 . S
C695 C679 1.429 . S
C695 C691 1.429 . S
C695 C696 1.523 . S
C696 C680 1.368 . S
C696 C692 1.368 . S
C696 C695 1.523 . S
H697 C672 0.950 . S
H698 C674 0.950 . S
H699 C675 0.949 . S
H700 C677 0.950 . S
H701 C679 0.950 . S
C702 C703 1.349 . S
C702 C704 1.327 . S
C702 H727 0.950 . S
C703 C702 1.349 . S
C703 C719 1.349 . S
C704 C702 1.327 . S
C704 C723 1.429 . S
C704 H728 0.950 . S
C705 C722 1.574 . S
C705 C724 1.368 . S
C705 H729 0.949 . S
H706 C710 0.949 . S
C707 C708 1.349 . S
C707 C709 1.327 . S
C707 H730 0.950 . S
C708 C707 1.349 . S
C708 C720 1.349 . S
C709 C707 1.327 . S
C709 C725 1.429 . S
C709 H731 0.950 . S
C710 H706 0.949 . S
C710 C718 1.574 . S
C710 C726 1.368 . S
H711 C719 0.950 . S
H712 C717 0.950 . S
H713 C718 0.949 . S
H714 C720 0.950 . S
H715 C721 0.950 . S
H716 C722 0.949 . S
C717 H712 0.950 . S
C717 C719 1.327 . S
C717 C723 1.429 . S
C718 C710 1.574 . S
C718 H713 0.949 . S
C718 C724 1.368 . S
C719 C703 1.349 . S
C719 H711 0.950 . S
C719 C717 1.327 . S
C720 C708 1.349 . S
C720 H714 0.950 . S
C720 C721 1.327 . S
C721 H715 0.950 . S
C721 C720 1.327 . S
C721 C725 1.429 . S
C722 C705 1.574 . S
C722 H716 0.949 . S
C722 C726 1.368 . S
C723 C704 1.429 . S
C723 C717 1.429 . S
C723 C724 1.523 . S
C724 C705 1.368 . S
C724 C718 1.368 . S
C724 C723 1.523 . S
C725 C709 1.429 . S
C725 C721 1.429 . S
C725 C726 1.523 . S
C726 C710 1.368 . S
C726 C722 1.368 . S
C726 C725 1.523 . S
H727 C702 0.950 . S
H728 C704 0.950 . S
H729 C705 0.949 . S
H730 C707 0.950 . S
H731 C709 0.950 . S
C732 C733 1.349 . S
C732 C734 1.327 . S
C732 H757 0.950 . S
C733 C732 1.349 . S
C733 C749 1.349 . S
C734 C732 1.327 . S
C734 C753 1.429 . S
C734 H758 0.950 . S
C735 C752 1.574 . S
C735 C754 1.368 . S
C735 H759 0.949 . S
H736 C740 0.949 . S
C737 C738 1.349 . S
C737 C739 1.327 . S
C737 H760 0.950 . S
C738 C737 1.349 . S
C738 C750 1.349 . S
C739 C737 1.327 . S
C739 C755 1.429 . S
C739 H761 0.950 . S
C740 H736 0.949 . S
C740 C748 1.574 . S
C740 C756 1.368 . S
H741 C749 0.950 . S
H742 C747 0.950 . S
H743 C748 0.949 . S
H744 C750 0.950 . S
H745 C751 0.950 . S
H746 C752 0.949 . S
C747 H742 0.950 . S
C747 C749 1.327 . S
C747 C753 1.429 . S
C748 C740 1.574 . S
C748 H743 0.949 . S
C748 C754 1.368 . S
C749 C733 1.349 . S
C749 H741 0.950 . S
C749 C747 1.327 . S
C750 C738 1.349 . S
C750 H744 0.950 . S
C750 C751 1.327 . S
C751 H745 0.950 . S
C751 C750 1.327 . S
C751 C755 1.429 . S
C752 C735 1.574 . S
C752 H746 0.949 . S
C752 C756 1.368 . S
C753 C734 1.429 . S
C753 C747 1.429 . S
C753 C754 1.523 . S
C754 C735 1.368 . S
C754 C748 1.368 . S
C754 C753 1.523 . S
C755 C739 1.429 . S
C755 C751 1.429 . S
C755 C756 1.523 . S
C756 C740 1.368 . S
C756 C752 1.368 . S
C756 C755 1.523 . S
H757 C732 0.950 . S
H758 C734 0.950 . S
H759 C735 0.949 . S
H760 C737 0.950 . S
H761 C739 0.950 . S
C762 C763 1.349 . S
C762 C764 1.327 . S
C762 H787 0.950 . S
C763 C762 1.349 . S
C763 C779 1.349 . S
C764 C762 1.327 . S
C764 C783 1.429 . S
C764 H788 0.950 . S
C765 C782 1.574 . S
C765 C784 1.368 . S
C765 H789 0.949 . S
H766 C770 0.949 . S
C767 C768 1.349 . S
C767 C769 1.327 . S
C767 H790 0.950 . S
C768 C767 1.349 . S
C768 C780 1.349 . S
C769 C767 1.327 . S
C769 C785 1.429 . S
C769 H791 0.950 . S
C770 H766 0.949 . S
C770 C778 1.574 . S
C770 C786 1.368 . S
H771 C779 0.950 . S
H772 C777 0.950 . S
H773 C778 0.949 . S
H774 C780 0.950 . S
H775 C781 0.950 1_554 S
H776 C782 0.949 . S
C777 H772 0.950 . S
C777 C779 1.327 . S
C777 C783 1.429 . S
C778 C770 1.574 . S
C778 H773 0.949 . S
C778 C784 1.368 . S
C779 C763 1.349 . S
C779 H771 0.950 . S
C779 C777 1.327 . S
C780 C768 1.349 . S
C780 H774 0.950 . S
C780 C781 1.327 . S
C781 H775 0.950 1_556 S
C781 C780 1.327 . S
C781 C785 1.429 . S
C782 C765 1.574 . S
C782 H776 0.949 . S
C782 C786 1.368 . S
C783 C764 1.429 . S
C783 C777 1.429 . S
C783 C784 1.523 . S
C784 C765 1.368 . S
C784 C778 1.368 . S
C784 C783 1.523 . S
C785 C769 1.429 . S
C785 C781 1.429 . S
C785 C786 1.523 1_556 S
C786 C770 1.368 . S
C786 C782 1.368 . S
C786 C785 1.523 1_554 S
H787 C762 0.950 . S
H788 C764 0.950 . S
H789 C765 0.949 . S
H790 C767 0.950 . S
H791 C769 0.950 . S
C792 C793 1.349 . S
C792 C794 1.327 . S
C792 H817 0.950 . S
C793 C792 1.349 . S
C793 C809 1.349 . S
C794 C792 1.327 . S
C794 C813 1.429 . S
C794 H818 0.950 . S
C795 C812 1.574 . S
C795 C814 1.368 . S
C795 H819 0.949 . S
H796 C800 0.949 . S
C797 C798 1.349 . S
C797 C799 1.327 . S
C797 H820 0.950 . S
C798 C797 1.349 . S
C798 C810 1.349 . S
C799 C797 1.327 . S
C799 C815 1.429 . S
C799 H821 0.950 . S
C800 H796 0.949 . S
C800 C808 1.574 . S
C800 C816 1.368 . S
H801 C809 0.950 . S
H802 C807 0.950 . S
H803 C808 0.949 . S
H804 C810 0.950 . S
H805 C811 0.950 . S
H806 C812 0.949 . S
C807 H802 0.950 . S
C807 C809 1.327 . S
C807 C813 1.429 . S
C808 C800 1.574 . S
C808 H803 0.949 . S
C808 C814 1.368 . S
C809 C793 1.349 . S
C809 H801 0.950 . S
C809 C807 1.327 . S
C810 C798 1.349 . S
C810 H804 0.950 . S
C810 C811 1.327 . S
C811 H805 0.950 . S
C811 C810 1.327 . S
C811 C815 1.429 . S
C812 C795 1.574 . S
C812 H806 0.949 . S
C812 C816 1.368 . S
C813 C794 1.429 . S
C813 C807 1.429 . S
C813 C814 1.523 . S
C814 C795 1.368 . S
C814 C808 1.368 . S
C814 C813 1.523 . S
C815 C799 1.429 . S
C815 C811 1.429 . S
C815 C816 1.523 . S
C816 C800 1.368 . S
C816 C812 1.368 . S
C816 C815 1.523 . S
H817 C792 0.950 . S
H818 C794 0.950 . S
H819 C795 0.949 . S
H820 C797 0.950 . S
H821 C799 0.950 . S
C822 C823 1.349 . S
C822 C824 1.327 . S
C822 H847 0.950 . S
C823 C822 1.349 . S
C823 C839 1.349 . S
C824 C822 1.327 . S
C824 C843 1.429 . S
C824 H848 0.950 . S
C825 C842 1.574 . S
C825 C844 1.368 . S
C825 H849 0.949 . S
H826 C830 0.949 . S
C827 C828 1.349 . S
C827 C829 1.327 . S
C827 H850 0.950 . S
C828 C827 1.349 . S
C828 C840 1.349 . S
C829 C827 1.327 . S
C829 C845 1.429 . S
C829 H851 0.950 . S
C830 H826 0.949 . S
C830 C838 1.574 . S
C830 C846 1.368 . S
H831 C839 0.950 . S
H832 C837 0.950 . S
H833 C838 0.949 . S
H834 C840 0.950 . S
H835 C841 0.950 . S
H836 C842 0.949 . S
C837 H832 0.950 . S
C837 C839 1.327 . S
C837 C843 1.429 . S
C838 C830 1.574 . S
C838 H833 0.949 . S
C838 C844 1.368 . S
C839 C823 1.349 . S
C839 H831 0.950 . S
C839 C837 1.327 . S
C840 C828 1.349 . S
C840 H834 0.950 . S
C840 C841 1.327 . S
C841 H835 0.950 . S
C841 C840 1.327 . S
C841 C845 1.429 . S
C842 C825 1.574 . S
C842 H836 0.949 . S
C842 C846 1.368 . S
C843 C824 1.429 . S
C843 C837 1.429 . S
C843 C844 1.523 . S
C844 C825 1.368 . S
C844 C838 1.368 . S
C844 C843 1.523 . S
C845 C829 1.429 . S
C845 C841 1.429 . S
C845 C846 1.523 . S
C846 C830 1.368 . S
C846 C842 1.368 . S
C846 C845 1.523 . S
H847 C822 0.950 . S
H848 C824 0.950 . S
H849 C825 0.949 . S
H850 C827 0.950 . S
H851 C829 0.950 . S
C852 C853 1.349 . S
C852 C854 1.327 . S
C852 H877 0.950 . S
C853 C852 1.349 . S
C853 C869 1.349 . S
C854 C852 1.327 . S
C854 C873 1.429 . S
C854 H878 0.950 . S
C855 C872 1.574 . S
C855 C874 1.368 . S
C855 H879 0.949 . S
H856 C860 0.949 . S
C857 C858 1.349 . S
C857 C859 1.327 . S
C857 H880 0.950 . S
C858 C857 1.349 . S
C858 C870 1.349 . S
C859 C857 1.327 . S
C859 C875 1.429 . S
C859 H881 0.950 . S
C860 H856 0.949 . S
C860 C868 1.574 . S
C860 C876 1.368 . S
H861 C869 0.950 . S
H862 C867 0.950 . S
H863 C868 0.949 . S
H864 C870 0.950 . S
H865 C871 0.950 . S
H866 C872 0.949 . S
C867 H862 0.950 . S
C867 C869 1.327 . S
C867 C873 1.429 . S
C868 C860 1.574 . S
C868 H863 0.949 . S
C868 C874 1.368 . S
C869 C853 1.349 . S
C869 H861 0.950 . S
C869 C867 1.327 . S
C870 C858 1.349 . S
C870 H864 0.950 . S
C870 C871 1.327 . S
C871 H865 0.950 . S
C871 C870 1.327 . S
C871 C875 1.429 . S
C872 C855 1.574 . S
C872 H866 0.949 . S
C872 C876 1.368 . S
C873 C854 1.429 . S
C873 C867 1.429 . S
C873 C874 1.523 . S
C874 C855 1.368 . S
C874 C868 1.368 . S
C874 C873 1.523 . S
C875 C859 1.429 . S
C875 C871 1.429 . S
C875 C876 1.523 . S
C876 C860 1.368 . S
C876 C872 1.368 . S
C876 C875 1.523 . S
H877 C852 0.950 . S
H878 C854 0.950 . S
H879 C855 0.949 . S
H880 C857 0.950 . S
H881 C859 0.950 . S
C882 C883 1.349 . S
C882 C884 1.327 . S
C882 H907 0.950 . S
C883 C882 1.349 . S
C883 C899 1.349 . S
C884 C882 1.327 . S
C884 C903 1.429 . S
C884 H908 0.950 . S
C885 C902 1.574 . S
C885 C904 1.368 . S
C885 H909 0.949 . S
H886 C890 0.949 . S
C887 C888 1.349 . S
C887 C889 1.327 . S
C887 H910 0.950 . S
C888 C887 1.349 . S
C888 C900 1.349 . S
C889 C887 1.327 . S
C889 C905 1.429 . S
C889 H911 0.950 . S
C890 H886 0.949 . S
C890 C898 1.574 . S
C890 C906 1.368 . S
H891 C899 0.950 . S
H892 C897 0.950 . S
H893 C898 0.949 . S
H894 C900 0.950 . S
H895 C901 0.950 1_554 S
H896 C902 0.949 . S
C897 H892 0.950 . S
C897 C899 1.327 . S
C897 C903 1.429 . S
C898 C890 1.574 . S
C898 H893 0.949 . S
C898 C904 1.368 . S
C899 C883 1.349 . S
C899 H891 0.950 . S
C899 C897 1.327 . S
C900 C888 1.349 . S
C900 H894 0.950 . S
C900 C901 1.327 . S
C901 H895 0.950 1_556 S
C901 C900 1.327 . S
C901 C905 1.429 . S
C902 C885 1.574 . S
C902 H896 0.949 . S
C902 C906 1.368 . S
C903 C884 1.429 . S
C903 C897 1.429 . S
C903 C904 1.523 . S
C904 C885 1.368 . S
C904 C898 1.368 . S
C904 C903 1.523 . S
C905 C889 1.429 . S
C905 C901 1.429 . S
C905 C906 1.523 1_556 S
C906 C890 1.368 . S
C906 C902 1.368 . S
C906 C905 1.523 1_554 S
H907 C882 0.950 . S
H908 C884 0.950 . S
H909 C885 0.949 . S
H910 C887 0.950 . S
H911 C889 0.950 . S
C912 C913 1.349 . S
C912 C914 1.327 . S
C912 H937 0.950 . S
C913 C912 1.349 . S
C913 C929 1.349 . S
C914 C912 1.327 . S
C914 C933 1.429 . S
C914 H938 0.950 . S
C915 C932 1.574 . S
C915 C934 1.368 . S
C915 H939 0.949 . S
H916 C920 0.949 . S
C917 C918 1.349 . S
C917 C919 1.327 . S
C917 H940 0.950 . S
C918 C917 1.349 . S
C918 C930 1.349 . S
C919 C917 1.327 . S
C919 C935 1.429 . S
C919 H941 0.950 . S
C920 H916 0.949 . S
C920 C928 1.574 . S
C920 C936 1.368 . S
H921 C929 0.950 . S
H922 C927 0.950 . S
H923 C928 0.949 . S
H924 C930 0.950 . S
H925 C931 0.950 . S
H926 C932 0.949 . S
C927 H922 0.950 . S
C927 C929 1.327 . S
C927 C933 1.429 . S
C928 C920 1.574 . S
C928 H923 0.949 . S
C928 C934 1.368 1_565 S
C929 C913 1.349 . S
C929 H921 0.950 . S
C929 C927 1.327 . S
C930 C918 1.349 . S
C930 H924 0.950 . S
C930 C931 1.327 . S
C931 H925 0.950 . S
C931 C930 1.327 . S
C931 C935 1.429 . S
C932 C915 1.574 . S
C932 H926 0.949 . S
C932 C936 1.368 1_545 S
C933 C914 1.429 . S
C933 C927 1.429 . S
C933 C934 1.523 . S
C934 C915 1.368 . S
C934 C928 1.368 1_545 S
C934 C933 1.523 . S
C935 C919 1.429 . S
C935 C931 1.429 . S
C935 C936 1.523 . S
C936 C920 1.368 . S
C936 C932 1.368 1_565 S
C936 C935 1.523 . S
H937 C912 0.950 . S
H938 C914 0.950 . S
H939 C915 0.949 . S
H940 C917 0.950 . S
H941 C919 0.950 . S
C942 C943 1.349 . S
C942 C944 1.327 . S
C942 H967 0.950 . S
C943 C942 1.349 . S
C943 C959 1.349 . S
C944 C942 1.327 . S
C944 C963 1.429 . S
C944 H968 0.950 1_556 S
C945 C962 1.574 . S
C945 C964 1.368 . S
C945 H969 0.949 . S
H946 C950 0.949 . S
C947 C948 1.349 . S
C947 C949 1.327 . S
C947 H970 0.950 . S
C948 C947 1.349 . S
C948 C960 1.349 . S
C949 C947 1.327 . S
C949 C965 1.429 . S
C949 H971 0.950 . S
C950 H946 0.949 . S
C950 C958 1.574 . S
C950 C966 1.368 . S
H951 C959 0.950 . S
H952 C957 0.950 . S
H953 C958 0.949 . S
H954 C960 0.950 . S
H955 C961 0.950 . S
H956 C962 0.949 . S
C957 H952 0.950 . S
C957 C959 1.327 . S
C957 C963 1.429 . S
C958 C950 1.574 . S
C958 H953 0.949 . S
C958 C964 1.368 . S
C959 C943 1.349 . S
C959 H951 0.950 . S
C959 C957 1.327 . S
C960 C948 1.349 . S
C960 H954 0.950 . S
C960 C961 1.327 . S
C961 H955 0.950 . S
C961 C960 1.327 . S
C961 C965 1.429 . S
C962 C945 1.574 . S
C962 H956 0.949 . S
C962 C966 1.368 . S
C963 C944 1.429 . S
C963 C957 1.429 . S
C963 C964 1.523 1_556 S
C964 C945 1.368 . S
C964 C958 1.368 . S
C964 C963 1.523 1_554 S
C965 C949 1.429 . S
C965 C961 1.429 . S
C965 C966 1.523 . S
C966 C950 1.368 . S
C966 C962 1.368 . S
C966 C965 1.523 . S
H967 C942 0.950 . S
H968 C944 0.950 1_554 S
H969 C945 0.949 . S
H970 C947 0.950 . S
H971 C949 0.950 . S
C972 C973 1.349 . S
C972 C974 1.327 . S
C972 H997 0.950 . S
C973 C972 1.349 . S
C973 C989 1.349 . S
C974 C972 1.327 . S
C974 C993 1.429 . S
C974 H998 0.950 . S
C975 C992 1.574 . S
C975 C994 1.368 1_565 S
C975 H999 0.949 . S
H976 C980 0.949 . S
C977 C978 1.349 . S
C977 C979 1.327 . S
C977 H1000 0.950 . S
C978 C977 1.349 . S
C978 C990 1.349 . S
C979 C977 1.327 . S
C979 C995 1.429 . S
C979 H1001 0.950 . S
C980 H976 0.949 . S
C980 C988 1.574 . S
C980 C996 1.368 1_545 S
H981 C989 0.950 . S
H982 C987 0.950 . S
H983 C988 0.949 . S
H984 C990 0.950 . S
H985 C991 0.950 . S
H986 C992 0.949 . S
C987 H982 0.950 . S
C987 C989 1.327 . S
C987 C993 1.429 . S
C988 C980 1.574 . S
C988 H983 0.949 . S
C988 C994 1.368 . S
C989 C973 1.349 . S
C989 H981 0.950 . S
C989 C987 1.327 . S
C990 C978 1.349 . S
C990 H984 0.950 . S
C990 C991 1.327 . S
C991 H985 0.950 . S
C991 C990 1.327 . S
C991 C995 1.429 . S
C992 C975 1.574 . S
C992 H986 0.949 . S
C992 C996 1.368 . S
C993 C974 1.429 . S
C993 C987 1.429 . S
C993 C994 1.523 . S
C994 C975 1.368 1_545 S
C994 C988 1.368 . S
C994 C993 1.523 . S
C995 C979 1.429 . S
C995 C991 1.429 . S
C995 C996 1.523 . S
C996 C980 1.368 1_565 S
C996 C992 1.368 . S
C996 C995 1.523 . S
H997 C972 0.950 . S
H998 C974 0.950 . S
H999 C975 0.949 . S
H1000 C977 0.950 . S
H1001 C979 0.950 . S
C1002 C1003 1.349 . S
C1002 C1004 1.327 . S
C1002 H1027 0.950 . S
C1003 C1002 1.349 . S
C1003 C1019 1.349 . S
C1004 C1002 1.327 . S
C1004 C1023 1.429 . S
C1004 H1028 0.950 . S
C1005 C1022 1.574 . S
C1005 C1024 1.368 . S
C1005 H1029 0.949 . S
H1006 C1010 0.949 . S
C1007 C1008 1.349 . S
C1007 C1009 1.327 . S
C1007 H1030 0.950 . S
C1008 C1007 1.349 . S
C1008 C1020 1.349 . S
C1009 C1007 1.327 . S
C1009 C1025 1.429 . S
C1009 H1031 0.950 . S
C1010 H1006 0.949 . S
C1010 C1018 1.574 . S
C1010 C1026 1.368 . S
H1011 C1019 0.950 . S
H1012 C1017 0.950 . S
H1013 C1018 0.949 . S
H1014 C1020 0.950 . S
H1015 C1021 0.950 . S
H1016 C1022 0.949 . S
C1017 H1012 0.950 . S
C1017 C1019 1.327 . S
C1017 C1023 1.429 . S
C1018 C1010 1.574 . S
C1018 H1013 0.949 . S
C1018 C1024 1.368 . S
C1019 C1003 1.349 . S
C1019 H1011 0.950 . S
C1019 C1017 1.327 . S
C1020 C1008 1.349 . S
C1020 H1014 0.950 . S
C1020 C1021 1.327 . S
C1021 H1015 0.950 . S
C1021 C1020 1.327 . S
C1021 C1025 1.429 . S
C1022 C1005 1.574 . S
C1022 H1016 0.949 . S
C1022 C1026 1.368 . S
C1023 C1004 1.429 . S
C1023 C1017 1.429 . S
C1023 C1024 1.523 . S
C1024 C1005 1.368 . S
C1024 C1018 1.368 . S
C1024 C1023 1.523 . S
C1025 C1009 1.429 . S
C1025 C1021 1.429 . S
C1025 C1026 1.523 . S
C1026 C1010 1.368 . S
C1026 C1022 1.368 . S
C1026 C1025 1.523 . S
H1027 C1002 0.950 . S
H1028 C1004 0.950 . S
H1029 C1005 0.949 . S
H1030 C1007 0.950 . S
H1031 C1009 0.950 . S
C1032 C1033 1.349 . S
C1032 C1034 1.327 . S
C1032 H1057 0.950 . S
C1033 C1032 1.349 . S
C1033 C1049 1.349 . S
C1034 C1032 1.327 . S
C1034 C1053 1.429 . S
C1034 H1058 0.950 . S
C1035 C1052 1.574 . S
C1035 C1054 1.368 1_565 S
C1035 H1059 0.949 . S
H1036 C1040 0.949 . S
C1037 C1038 1.349 . S
C1037 C1039 1.327 . S
C1037 H1060 0.950 . S
C1038 C1037 1.349 . S
C1038 C1050 1.349 . S
C1039 C1037 1.327 . S
C1039 C1055 1.429 . S
C1039 H1061 0.950 . S
C1040 H1036 0.949 . S
C1040 C1048 1.574 . S
C1040 C1056 1.368 1_545 S
H1041 C1049 0.950 . S
H1042 C1047 0.950 . S
H1043 C1048 0.949 . S
H1044 C1050 0.950 . S
H1045 C1051 0.950 . S
H1046 C1052 0.949 . S
C1047 H1042 0.950 . S
C1047 C1049 1.327 . S
C1047 C1053 1.429 . S
C1048 C1040 1.574 . S
C1048 H1043 0.949 . S
C1048 C1054 1.368 . S
C1049 C1033 1.349 . S
C1049 H1041 0.950 . S
C1049 C1047 1.327 . S
C1050 C1038 1.349 . S
C1050 H1044 0.950 . S
C1050 C1051 1.327 . S
C1051 H1045 0.950 . S
C1051 C1050 1.327 . S
C1051 C1055 1.429 . S
C1052 C1035 1.574 . S
C1052 H1046 0.949 . S
C1052 C1056 1.368 . S
C1053 C1034 1.429 . S
C1053 C1047 1.429 . S
C1053 C1054 1.523 . S
C1054 C1035 1.368 1_545 S
C1054 C1048 1.368 . S
C1054 C1053 1.523 . S
C1055 C1039 1.429 . S
C1055 C1051 1.429 . S
C1055 C1056 1.523 . S
C1056 C1040 1.368 1_565 S
C1056 C1052 1.368 . S
C1056 C1055 1.523 . S
H1057 C1032 0.950 . S
H1058 C1034 0.950 . S
H1059 C1035 0.949 . S
H1060 C1037 0.950 . S
H1061 C1039 0.950 . S
C1062 C1063 1.349 . S
C1062 C1064 1.327 . S
C1062 H1087 0.950 . S
C1063 C1062 1.349 . S
C1063 C1079 1.349 . S
C1064 C1062 1.327 . S
C1064 C1083 1.429 . S
C1064 H1088 0.950 1_556 S
C1065 C1082 1.574 . S
C1065 C1084 1.368 . S
C1065 H1089 0.949 . S
H1066 C1070 0.949 . S
C1067 C1068 1.349 . S
C1067 C1069 1.327 . S
C1067 H1090 0.950 . S
C1068 C1067 1.349 . S
C1068 C1080 1.349 . S
C1069 C1067 1.327 . S
C1069 C1085 1.429 . S
C1069 H1091 0.950 . S
C1070 H1066 0.949 . S
C1070 C1078 1.574 . S
C1070 C1086 1.368 . S
H1071 C1079 0.950 . S
H1072 C1077 0.950 . S
H1073 C1078 0.949 . S
H1074 C1080 0.950 . S
H1075 C1081 0.950 . S
H1076 C1082 0.949 . S
C1077 H1072 0.950 . S
C1077 C1079 1.327 . S
C1077 C1083 1.429 . S
C1078 C1070 1.574 . S
C1078 H1073 0.949 . S
C1078 C1084 1.368 . S
C1079 C1063 1.349 . S
C1079 H1071 0.950 . S
C1079 C1077 1.327 . S
C1080 C1068 1.349 . S
C1080 H1074 0.950 . S
C1080 C1081 1.327 . S
C1081 H1075 0.950 . S
C1081 C1080 1.327 . S
C1081 C1085 1.429 . S
C1082 C1065 1.574 . S
C1082 H1076 0.949 . S
C1082 C1086 1.368 . S
C1083 C1064 1.429 . S
C1083 C1077 1.429 . S
C1083 C1084 1.523 1_556 S
C1084 C1065 1.368 . S
C1084 C1078 1.368 . S
C1084 C1083 1.523 1_554 S
C1085 C1069 1.429 . S
C1085 C1081 1.429 . S
C1085 C1086 1.523 . S
C1086 C1070 1.368 . S
C1086 C1082 1.368 . S
C1086 C1085 1.523 . S
H1087 C1062 0.950 . S
H1088 C1064 0.950 1_554 S
H1089 C1065 0.949 . S
H1090 C1067 0.950 . S
H1091 C1069 0.950 . S
C1092 C1093 1.349 . S
C1092 C1094 1.327 . S
C1092 H1117 0.950 . S
C1093 C1092 1.349 . S
C1093 C1109 1.349 . S
C1094 C1092 1.327 . S
C1094 C1113 1.429 . S
C1094 H1118 0.950 . S
C1095 C1112 1.574 . S
C1095 C1114 1.368 . S
C1095 H1119 0.949 . S
H1096 C1100 0.949 . S
C1097 C1098 1.349 . S
C1097 C1099 1.327 . S
C1097 H1120 0.950 . S
C1098 C1097 1.349 . S
C1098 C1110 1.349 . S
C1099 C1097 1.327 . S
C1099 C1115 1.429 . S
C1099 H1121 0.950 . S
C1100 H1096 0.949 . S
C1100 C1108 1.574 . S
C1100 C1116 1.368 . S
H1101 C1109 0.950 . S
H1102 C1107 0.950 . S
H1103 C1108 0.949 . S
H1104 C1110 0.950 . S
H1105 C1111 0.950 . S
H1106 C1112 0.949 . S
C1107 H1102 0.950 . S
C1107 C1109 1.327 . S
C1107 C1113 1.429 . S
C1108 C1100 1.574 . S
C1108 H1103 0.949 . S
C1108 C1114 1.368 1_545 S
C1109 C1093 1.349 . S
C1109 H1101 0.950 . S
C1109 C1107 1.327 . S
C1110 C1098 1.349 . S
C1110 H1104 0.950 . S
C1110 C1111 1.327 . S
C1111 H1105 0.950 . S
C1111 C1110 1.327 . S
C1111 C1115 1.429 . S
C1112 C1095 1.574 . S
C1112 H1106 0.949 . S
C1112 C1116 1.368 1_565 S
C1113 C1094 1.429 . S
C1113 C1107 1.429 . S
C1113 C1114 1.523 . S
C1114 C1095 1.368 . S
C1114 C1108 1.368 1_565 S
C1114 C1113 1.523 . S
C1115 C1099 1.429 . S
C1115 C1111 1.429 . S
C1115 C1116 1.523 . S
C1116 C1100 1.368 . S
C1116 C1112 1.368 1_545 S
C1116 C1115 1.523 . S
H1117 C1092 0.950 . S
H1118 C1094 0.950 . S
H1119 C1095 0.949 . S
H1120 C1097 0.950 . S
H1121 C1099 0.950 . S
C1122 C1123 1.349 . S
C1122 C1124 1.327 . S
C1122 H1147 0.950 . S
C1123 C1122 1.349 . S
C1123 C1139 1.349 . S
C1124 C1122 1.327 . S
C1124 C1143 1.429 . S
C1124 H1148 0.950 . S
C1125 C1142 1.574 . S
C1125 C1144 1.368 . S
C1125 H1149 0.949 . S
H1126 C1130 0.949 . S
C1127 C1128 1.349 . S
C1127 C1129 1.327 . S
C1127 H1150 0.950 . S
C1128 C1127 1.349 . S
C1128 C1140 1.349 . S
C1129 C1127 1.327 . S
C1129 C1145 1.429 . S
C1129 H1151 0.950 . S
C1130 H1126 0.949 . S
C1130 C1138 1.574 . S
C1130 C1146 1.368 . S
H1131 C1139 0.950 . S
H1132 C1137 0.950 . S
H1133 C1138 0.949 . S
H1134 C1140 0.950 . S
H1135 C1141 0.950 . S
H1136 C1142 0.949 . S
C1137 H1132 0.950 . S
C1137 C1139 1.327 . S
C1137 C1143 1.429 . S
C1138 C1130 1.574 . S
C1138 H1133 0.949 . S
C1138 C1144 1.368 . S
C1139 C1123 1.349 . S
C1139 H1131 0.950 . S
C1139 C1137 1.327 . S
C1140 C1128 1.349 . S
C1140 H1134 0.950 . S
C1140 C1141 1.327 . S
C1141 H1135 0.950 . S
C1141 C1140 1.327 . S
C1141 C1145 1.429 . S
C1142 C1125 1.574 . S
C1142 H1136 0.949 . S
C1142 C1146 1.368 . S
C1143 C1124 1.429 . S
C1143 C1137 1.429 . S
C1143 C1144 1.523 . S
C1144 C1125 1.368 . S
C1144 C1138 1.368 . S
C1144 C1143 1.523 . S
C1145 C1129 1.429 . S
C1145 C1141 1.429 . S
C1145 C1146 1.523 . S
C1146 C1130 1.368 . S
C1146 C1142 1.368 . S
C1146 C1145 1.523 . S
H1147 C1122 0.950 . S
H1148 C1124 0.950 . S
H1149 C1125 0.949 . S
H1150 C1127 0.950 . S
H1151 C1129 0.950 . S
C1152 C1153 1.349 . S
C1152 C1154 1.327 . S
C1152 H1177 0.950 . S
C1153 C1152 1.349 . S
C1153 C1169 1.349 . S
C1154 C1152 1.327 . S
C1154 C1173 1.429 . S
C1154 H1178 0.950 . S
C1155 C1172 1.574 . S
C1155 C1174 1.368 . S
C1155 H1179 0.949 . S
H1156 C1160 0.949 . S
C1157 C1158 1.349 . S
C1157 C1159 1.327 . S
C1157 H1180 0.950 . S
C1158 C1157 1.349 . S
C1158 C1170 1.349 . S
C1159 C1157 1.327 . S
C1159 C1175 1.429 . S
C1159 H1181 0.950 . S
C1160 H1156 0.949 . S
C1160 C1168 1.574 . S
C1160 C1176 1.368 . S
H1161 C1169 0.950 . S
H1162 C1167 0.950 . S
H1163 C1168 0.949 . S
H1164 C1170 0.950 . S
H1165 C1171 0.950 . S
H1166 C1172 0.949 . S
C1167 H1162 0.950 . S
C1167 C1169 1.327 . S
C1167 C1173 1.429 . S
C1168 C1160 1.574 . S
C1168 H1163 0.949 . S
C1168 C1174 1.368 . S
C1169 C1153 1.349 . S
C1169 H1161 0.950 . S
C1169 C1167 1.327 . S
C1170 C1158 1.349 . S
C1170 H1164 0.950 . S
C1170 C1171 1.327 . S
C1171 H1165 0.950 . S
C1171 C1170 1.327 . S
C1171 C1175 1.429 . S
C1172 C1155 1.574 . S
C1172 H1166 0.949 . S
C1172 C1176 1.368 . S
C1173 C1154 1.429 . S
C1173 C1167 1.429 . S
C1173 C1174 1.523 . S
C1174 C1155 1.368 . S
C1174 C1168 1.368 . S
C1174 C1173 1.523 . S
C1175 C1159 1.429 . S
C1175 C1171 1.429 . S
C1175 C1176 1.523 . S
C1176 C1160 1.368 . S
C1176 C1172 1.368 . S
C1176 C1175 1.523 . S
H1177 C1152 0.950 . S
H1178 C1154 0.950 . S
H1179 C1155 0.949 . S
H1180 C1157 0.950 . S
H1181 C1159 0.950 . S
C1182 C1183 1.349 . S
C1182 C1184 1.327 . S
C1182 H1207 0.950 . S
C1183 C1182 1.349 . S
C1183 C1199 1.349 . S
C1184 C1182 1.327 . S
C1184 C1203 1.429 . S
C1184 H1208 0.950 . S
C1185 C1202 1.574 . S
C1185 C1204 1.368 . S
C1185 H1209 0.949 . S
H1186 C1190 0.949 . S
C1187 C1188 1.349 . S
C1187 C1189 1.327 . S
C1187 H1210 0.950 . S
C1188 C1187 1.349 . S
C1188 C1200 1.349 . S
C1189 C1187 1.327 . S
C1189 C1205 1.429 . S
C1189 H1211 0.950 . S
C1190 H1186 0.949 . S
C1190 C1198 1.574 . S
C1190 C1206 1.368 . S
H1191 C1199 0.950 . S
H1192 C1197 0.950 . S
H1193 C1198 0.949 . S
H1194 C1200 0.950 . S
H1195 C1201 0.950 . S
H1196 C1202 0.949 . S
C1197 H1192 0.950 . S
C1197 C1199 1.327 . S
C1197 C1203 1.429 . S
C1198 C1190 1.574 . S
C1198 H1193 0.949 . S
C1198 C1204 1.368 . S
C1199 C1183 1.349 . S
C1199 H1191 0.950 . S
C1199 C1197 1.327 . S
C1200 C1188 1.349 . S
C1200 H1194 0.950 . S
C1200 C1201 1.327 . S
C1201 H1195 0.950 . S
C1201 C1200 1.327 . S
C1201 C1205 1.429 . S
C1202 C1185 1.574 . S
C1202 H1196 0.949 . S
C1202 C1206 1.368 . S
C1203 C1184 1.429 . S
C1203 C1197 1.429 . S
C1203 C1204 1.523 . S
C1204 C1185 1.368 . S
C1204 C1198 1.368 . S
C1204 C1203 1.523 . S
C1205 C1189 1.429 . S
C1205 C1201 1.429 . S
C1205 C1206 1.523 . S
C1206 C1190 1.368 . S
C1206 C1202 1.368 . S
C1206 C1205 1.523 . S
H1207 C1182 0.950 . S
H1208 C1184 0.950 . S
H1209 C1185 0.949 . S
H1210 C1187 0.950 . S
H1211 C1189 0.950 . S
C1212 C1213 1.349 . S
C1212 C1214 1.327 . S
C1212 H1237 0.950 . S
C1213 C1212 1.349 . S
C1213 C1229 1.349 . S
C1214 C1212 1.327 . S
C1214 C1233 1.429 . S
C1214 H1238 0.950 . S
C1215 C1232 1.574 . S
C1215 C1234 1.368 . S
C1215 H1239 0.949 . S
H1216 C1220 0.949 . S
C1217 C1218 1.349 . S
C1217 C1219 1.327 . S
C1217 H1240 0.950 . S
C1218 C1217 1.349 . S
C1218 C1230 1.349 . S
C1219 C1217 1.327 . S
C1219 C1235 1.429 . S
C1219 H1241 0.950 . S
C1220 H1216 0.949 . S
C1220 C1228 1.574 . S
C1220 C1236 1.368 . S
H1221 C1229 0.950 . S
H1222 C1227 0.950 . S
H1223 C1228 0.949 . S
H1224 C1230 0.950 . S
H1225 C1231 0.950 . S
H1226 C1232 0.949 . S
C1227 H1222 0.950 . S
C1227 C1229 1.327 . S
C1227 C1233 1.429 . S
C1228 C1220 1.574 . S
C1228 H1223 0.949 . S
C1228 C1234 1.368 . S
C1229 C1213 1.349 . S
C1229 H1221 0.950 . S
C1229 C1227 1.327 . S
C1230 C1218 1.349 . S
C1230 H1224 0.950 . S
C1230 C1231 1.327 . S
C1231 H1225 0.950 . S
C1231 C1230 1.327 . S
C1231 C1235 1.429 . S
C1232 C1215 1.574 . S
C1232 H1226 0.949 . S
C1232 C1236 1.368 . S
C1233 C1214 1.429 . S
C1233 C1227 1.429 . S
C1233 C1234 1.523 . S
C1234 C1215 1.368 . S
C1234 C1228 1.368 . S
C1234 C1233 1.523 . S
C1235 C1219 1.429 . S
C1235 C1231 1.429 . S
C1235 C1236 1.523 . S
C1236 C1220 1.368 . S
C1236 C1232 1.368 . S
C1236 C1235 1.523 . S
H1237 C1212 0.950 . S
H1238 C1214 0.950 . S
H1239 C1215 0.949 . S
H1240 C1217 0.950 . S
H1241 C1219 0.950 . S
C1242 C1243 1.349 . S
C1242 C1244 1.327 . S
C1242 H1267 0.950 . S
C1243 C1242 1.349 . S
C1243 C1259 1.349 . S
C1244 C1242 1.327 . S
C1244 C1263 1.429 . S
C1244 H1268 0.950 . S
C1245 C1262 1.574 . S
C1245 C1264 1.368 . S
C1245 H1269 0.949 . S
H1246 C1250 0.949 1_554 S
C1247 C1248 1.349 1_556 S
C1247 C1249 1.327 . S
C1247 H1270 0.950 . S
C1248 C1247 1.349 1_554 S
C1248 C1260 1.349 . S
C1249 C1247 1.327 . S
C1249 C1265 1.429 . S
C1249 H1271 0.950 . S
C1250 H1246 0.949 1_556 S
C1250 C1258 1.574 . S
C1250 C1266 1.368 . S
H1251 C1259 0.950 . S
H1252 C1257 0.950 . S
H1253 C1258 0.949 . S
H1254 C1260 0.950 . S
H1255 C1261 0.950 . S
H1256 C1262 0.949 . S
C1257 H1252 0.950 . S
C1257 C1259 1.327 . S
C1257 C1263 1.429 . S
C1258 C1250 1.574 . S
C1258 H1253 0.949 . S
C1258 C1264 1.368 . S
C1259 C1243 1.349 . S
C1259 H1251 0.950 . S
C1259 C1257 1.327 . S
C1260 C1248 1.349 . S
C1260 H1254 0.950 . S
C1260 C1261 1.327 . S
C1261 H1255 0.950 . S
C1261 C1260 1.327 . S
C1261 C1265 1.429 1_554 S
C1262 C1245 1.574 . S
C1262 H1256 0.949 . S
C1262 C1266 1.368 . S
C1263 C1244 1.429 . S
C1263 C1257 1.429 . S
C1263 C1264 1.523 . S
C1264 C1245 1.368 . S
C1264 C1258 1.368 . S
C1264 C1263 1.523 . S
C1265 C1249 1.429 . S
C1265 C1261 1.429 1_556 S
C1265 C1266 1.523 . S
C1266 C1250 1.368 . S
C1266 C1262 1.368 . S
C1266 C1265 1.523 . S
H1267 C1242 0.950 . S
H1268 C1244 0.950 . S
H1269 C1245 0.949 . S
H1270 C1247 0.950 . S
H1271 C1249 0.950 . S
C1272 C1273 1.349 . S
C1272 C1274 1.327 . S
C1272 H1297 0.950 . S
C1273 C1272 1.349 . S
C1273 C1289 1.349 . S
C1274 C1272 1.327 . S
C1274 C1293 1.429 . S
C1274 H1298 0.950 . S
C1275 C1292 1.574 . S
C1275 C1294 1.368 . S
C1275 H1299 0.949 . S
H1276 C1280 0.949 . S
C1277 C1278 1.349 . S
C1277 C1279 1.327 . S
C1277 H1300 0.950 . S
C1278 C1277 1.349 . S
C1278 C1290 1.349 . S
C1279 C1277 1.327 . S
C1279 C1295 1.429 . S
C1279 H1301 0.950 . S
C1280 H1276 0.949 . S
C1280 C1288 1.574 . S
C1280 C1296 1.368 . S
H1281 C1289 0.950 . S
H1282 C1287 0.950 . S
H1283 C1288 0.949 . S
H1284 C1290 0.950 . S
H1285 C1291 0.950 . S
H1286 C1292 0.949 . S
C1287 H1282 0.950 . S
C1287 C1289 1.327 . S
C1287 C1293 1.429 . S
C1288 C1280 1.574 . S
C1288 H1283 0.949 . S
C1288 C1294 1.368 . S
C1289 C1273 1.349 . S
C1289 H1281 0.950 . S
C1289 C1287 1.327 . S
C1290 C1278 1.349 . S
C1290 H1284 0.950 . S
C1290 C1291 1.327 . S
C1291 H1285 0.950 . S
C1291 C1290 1.327 . S
C1291 C1295 1.429 . S
C1292 C1275 1.574 . S
C1292 H1286 0.949 . S
C1292 C1296 1.368 . S
C1293 C1274 1.429 . S
C1293 C1287 1.429 . S
C1293 C1294 1.523 . S
C1294 C1275 1.368 . S
C1294 C1288 1.368 . S
C1294 C1293 1.523 . S
C1295 C1279 1.429 . S
C1295 C1291 1.429 . S
C1295 C1296 1.523 . S
C1296 C1280 1.368 . S
C1296 C1292 1.368 . S
C1296 C1295 1.523 . S
H1297 C1272 0.950 . S
H1298 C1274 0.950 . S
H1299 C1275 0.949 . S
H1300 C1277 0.950 . S
H1301 C1279 0.950 . S
C1302 C1303 1.349 . S
C1302 C1304 1.327 . S
C1302 H1327 0.950 . S
C1303 C1302 1.349 . S
C1303 C1319 1.349 . S
C1304 C1302 1.327 . S
C1304 C1323 1.429 . S
C1304 H1328 0.950 . S
C1305 C1322 1.574 . S
C1305 C1324 1.368 . S
C1305 H1329 0.949 . S
H1306 C1310 0.949 . S
C1307 C1308 1.349 . S
C1307 C1309 1.327 . S
C1307 H1330 0.950 . S
C1308 C1307 1.349 . S
C1308 C1320 1.349 . S
C1309 C1307 1.327 . S
C1309 C1325 1.429 . S
C1309 H1331 0.950 . S
C1310 H1306 0.949 . S
C1310 C1318 1.574 . S
C1310 C1326 1.368 . S
H1311 C1319 0.950 . S
H1312 C1317 0.950 . S
H1313 C1318 0.949 . S
H1314 C1320 0.950 . S
H1315 C1321 0.950 . S
H1316 C1322 0.949 . S
C1317 H1312 0.950 . S
C1317 C1319 1.327 . S
C1317 C1323 1.429 . S
C1318 C1310 1.574 . S
C1318 H1313 0.949 . S
C1318 C1324 1.368 . S
C1319 C1303 1.349 . S
C1319 H1311 0.950 . S
C1319 C1317 1.327 . S
C1320 C1308 1.349 . S
C1320 H1314 0.950 . S
C1320 C1321 1.327 . S
C1321 H1315 0.950 . S
C1321 C1320 1.327 . S
C1321 C1325 1.429 . S
C1322 C1305 1.574 . S
C1322 H1316 0.949 . S
C1322 C1326 1.368 . S
C1323 C1304 1.429 . S
C1323 C1317 1.429 . S
C1323 C1324 1.523 . S
C1324 C1305 1.368 . S
C1324 C1318 1.368 . S
C1324 C1323 1.523 . S
C1325 C1309 1.429 . S
C1325 C1321 1.429 . S
C1325 C1326 1.523 . S
C1326 C1310 1.368 . S
C1326 C1322 1.368 . S
C1326 C1325 1.523 . S
H1327 C1302 0.950 . S
H1328 C1304 0.950 . S
H1329 C1305 0.949 . S
H1330 C1307 0.950 . S
H1331 C1309 0.950 . S
C1332 C1333 1.349 . S
C1332 C1334 1.327 . S
C1332 H1357 0.950 . S
C1333 C1332 1.349 . S
C1333 C1349 1.349 1_554 S
C1334 C1332 1.327 . S
C1334 C1353 1.429 1_554 S
C1334 H1358 0.950 . S
C1335 C1352 1.574 . S
C1335 C1354 1.368 . S
C1335 H1359 0.949 . S
H1336 C1340 0.949 . S
C1337 C1338 1.349 . S
C1337 C1339 1.327 . S
C1337 H1360 0.950 . S
C1338 C1337 1.349 . S
C1338 C1350 1.349 . S
C1339 C1337 1.327 . S
C1339 C1355 1.429 . S
C1339 H1361 0.950 . S
C1340 H1336 0.949 . S
C1340 C1348 1.574 . S
C1340 C1356 1.368 . S
H1341 C1349 0.950 . S
H1342 C1347 0.950 . S
H1343 C1348 0.952 . S
H1344 C1350 0.950 . S
H1345 C1351 0.950 . S
H1346 C1352 0.949 . S
C1347 H1342 0.950 . S
C1347 C1349 1.327 . S
C1347 C1353 1.429 . S
C1348 C1340 1.574 . S
C1348 H1343 0.952 . S
C1348 C1354 1.368 . S
C1349 C1333 1.349 1_556 S
C1349 H1341 0.950 . S
C1349 C1347 1.327 . S
C1350 C1338 1.349 . S
C1350 H1344 0.950 . S
C1350 C1351 1.327 . S
C1351 H1345 0.950 . S
C1351 C1350 1.327 . S
C1351 C1355 1.429 . S
C1352 C1335 1.574 . S
C1352 H1346 0.949 . S
C1352 C1356 1.368 . S
C1353 C1334 1.429 1_556 S
C1353 C1347 1.429 . S
C1353 C1354 1.523 . S
C1354 C1335 1.368 . S
C1354 C1348 1.368 . S
C1354 C1353 1.523 . S
C1355 C1339 1.429 . S
C1355 C1351 1.429 . S
C1355 C1356 1.523 . S
C1356 C1340 1.368 . S
C1356 C1352 1.368 . S
C1356 C1355 1.523 . S
H1357 C1332 0.950 . S
H1358 C1334 0.950 . S
H1359 C1335 0.949 . S
H1360 C1337 0.950 . S
H1361 C1339 0.950 . S
C1362 C1363 1.349 . S
C1362 C1364 1.327 . S
C1362 H1387 0.950 . S
C1363 C1362 1.349 . S
C1363 C1379 1.349 . S
C1364 C1362 1.327 . S
C1364 C1383 1.429 . S
C1364 H1388 0.950 . S
C1365 C1382 1.574 . S
C1365 C1384 1.368 . S
C1365 H1389 0.949 . S
H1366 C1370 0.949 . S
C1367 C1368 1.349 . S
C1367 C1369 1.327 . S
C1367 H1390 0.950 . S
C1368 C1367 1.349 . S
C1368 C1380 1.349 . S
C1369 C1367 1.327 . S
C1369 C1385 1.429 . S
C1369 H1391 0.950 . S
C1370 H1366 0.949 . S
C1370 C1378 1.574 . S
C1370 C1386 1.368 . S
H1371 C1379 0.950 . S
H1372 C1377 0.950 . S
H1373 C1378 0.949 . S
H1374 C1380 0.950 . S
H1375 C1381 0.950 . S
H1376 C1382 0.949 . S
C1377 H1372 0.950 . S
C1377 C1379 1.327 . S
C1377 C1383 1.429 . S
C1378 C1370 1.574 . S
C1378 H1373 0.949 . S
C1378 C1384 1.368 . S
C1379 C1363 1.349 . S
C1379 H1371 0.950 . S
C1379 C1377 1.327 . S
C1380 C1368 1.349 . S
C1380 H1374 0.950 . S
C1380 C1381 1.327 . S
C1381 H1375 0.950 . S
C1381 C1380 1.327 . S
C1381 C1385 1.429 . S
C1382 C1365 1.574 . S
C1382 H1376 0.949 . S
C1382 C1386 1.368 . S
C1383 C1364 1.429 . S
C1383 C1377 1.429 . S
C1383 C1384 1.523 . S
C1384 C1365 1.368 . S
C1384 C1378 1.368 . S
C1384 C1383 1.523 . S
C1385 C1369 1.429 . S
C1385 C1381 1.429 . S
C1385 C1386 1.523 . S
C1386 C1370 1.368 . S
C1386 C1382 1.368 . S
C1386 C1385 1.523 . S
H1387 C1362 0.950 . S
H1388 C1364 0.950 . S
H1389 C1365 0.949 . S
H1390 C1367 0.950 . S
H1391 C1369 0.950 . S
C1392 C1393 1.349 . S
C1392 C1394 1.327 1_554 S
C1392 H1417 0.950 . S
C1393 C1392 1.349 . S
C1393 C1409 1.349 . S
C1394 C1392 1.327 1_556 S
C1394 C1413 1.429 . S
C1394 H1418 0.950 . S
C1395 C1412 1.574 . S
C1395 C1414 1.368 . S
C1395 H1419 0.949 . S
H1396 C1400 0.949 . S
C1397 C1398 1.349 . S
C1397 C1399 1.327 . S
C1397 H1420 0.950 . S
C1398 C1397 1.349 . S
C1398 C1410 1.349 . S
C1399 C1397 1.327 . S
C1399 C1415 1.429 . S
C1399 H1421 0.950 . S
C1400 H1396 0.949 . S
C1400 C1408 1.574 . S
C1400 C1416 1.368 . S
H1401 C1409 0.950 . S
H1402 C1407 0.950 . S
H1403 C1408 0.949 . S
H1404 C1410 0.950 . S
H1405 C1411 0.950 . S
H1406 C1412 0.949 . S
C1407 H1402 0.950 . S
C1407 C1409 1.327 1_556 S
C1407 C1413 1.429 . S
C1408 C1400 1.574 . S
C1408 H1403 0.949 . S
C1408 C1414 1.368 . S
C1409 C1393 1.349 . S
C1409 H1401 0.950 . S
C1409 C1407 1.327 1_554 S
C1410 C1398 1.349 . S
C1410 H1404 0.950 . S
C1410 C1411 1.327 . S
C1411 H1405 0.950 . S
C1411 C1410 1.327 . S
C1411 C1415 1.429 . S
C1412 C1395 1.574 . S
C1412 H1406 0.949 . S
C1412 C1416 1.368 . S
C1413 C1394 1.429 . S
C1413 C1407 1.429 . S
C1413 C1414 1.523 . S
C1414 C1395 1.368 . S
C1414 C1408 1.368 . S
C1414 C1413 1.523 . S
C1415 C1399 1.429 . S
C1415 C1411 1.429 . S
C1415 C1416 1.523 . S
C1416 C1400 1.368 . S
C1416 C1412 1.368 . S
C1416 C1415 1.523 . S
H1417 C1392 0.950 . S
H1418 C1394 0.950 . S
H1419 C1395 0.949 . S
H1420 C1397 0.950 . S
H1421 C1399 0.950 . S
C1422 C1423 1.349 . S
C1422 C1424 1.327 . S
C1422 H1447 0.950 . S
C1423 C1422 1.349 . S
C1423 C1439 1.349 . S
C1424 C1422 1.327 . S
C1424 C1443 1.429 . S
C1424 H1448 0.950 . S
C1425 C1442 1.574 . S
C1425 C1444 1.368 . S
C1425 H1449 0.949 . S
H1426 C1430 0.949 . S
C1427 C1428 1.349 . S
C1427 C1429 1.327 . S
C1427 H1450 0.950 . S
C1428 C1427 1.349 . S
C1428 C1440 1.349 . S
C1429 C1427 1.327 . S
C1429 C1445 1.429 . S
C1429 H1451 0.950 . S
C1430 H1426 0.949 . S
C1430 C1438 1.574 . S
C1430 C1446 1.368 . S
H1431 C1439 0.950 . S
H1432 C1437 0.950 . S
H1433 C1438 0.949 . S
H1434 C1440 0.950 . S
H1435 C1441 0.950 . S
H1436 C1442 0.949 . S
C1437 H1432 0.950 . S
C1437 C1439 1.327 . S
C1437 C1443 1.429 . S
C1438 C1430 1.574 . S
C1438 H1433 0.949 . S
C1438 C1444 1.368 . S
C1439 C1423 1.349 . S
C1439 H1431 0.950 . S
C1439 C1437 1.327 . S
C1440 C1428 1.349 . S
C1440 H1434 0.950 . S
C1440 C1441 1.327 . S
C1441 H1435 0.950 . S
C1441 C1440 1.327 . S
C1441 C1445 1.429 . S
C1442 C1425 1.574 . S
C1442 H1436 0.949 . S
C1442 C1446 1.368 . S
C1443 C1424 1.429 . S
C1443 C1437 1.429 . S
C1443 C1444 1.523 . S
C1444 C1425 1.368 . S
C1444 C1438 1.368 . S
C1444 C1443 1.523 . S
C1445 C1429 1.429 . S
C1445 C1441 1.429 . S
C1445 C1446 1.523 . S
C1446 C1430 1.368 . S
C1446 C1442 1.368 . S
C1446 C1445 1.523 . S
H1447 C1422 0.950 . S
H1448 C1424 0.950 . S
H1449 C1425 0.949 . S
H1450 C1427 0.950 . S
H1451 C1429 0.950 . S
C1452 C1453 1.349 . S
C1452 C1454 1.327 . S
C1452 H1477 0.950 . S
C1453 C1452 1.349 . S
C1453 C1469 1.349 . S
C1454 C1452 1.327 . S
C1454 C1473 1.429 . S
C1454 H1478 0.950 . S
C1455 C1472 1.574 . S
C1455 C1474 1.368 . S
C1455 H1479 0.949 . S
H1456 C1460 0.949 . S
C1457 C1458 1.349 . S
C1457 C1459 1.327 . S
C1457 H1480 0.950 . S
C1458 C1457 1.349 . S
C1458 C1470 1.349 . S
C1459 C1457 1.327 . S
C1459 C1475 1.429 . S
C1459 H1481 0.950 . S
C1460 H1456 0.949 . S
C1460 C1468 1.574 . S
C1460 C1476 1.368 . S
H1461 C1469 0.950 . S
H1462 C1467 0.950 . S
H1463 C1468 0.949 . S
H1464 C1470 0.950 . S
H1465 C1471 0.950 . S
H1466 C1472 0.949 . S
C1467 H1462 0.950 . S
C1467 C1469 1.327 . S
C1467 C1473 1.429 . S
C1468 C1460 1.574 . S
C1468 H1463 0.949 . S
C1468 C1474 1.368 . S
C1469 C1453 1.349 . S
C1469 H1461 0.950 . S
C1469 C1467 1.327 . S
C1470 C1458 1.349 . S
C1470 H1464 0.950 . S
C1470 C1471 1.327 . S
C1471 H1465 0.950 . S
C1471 C1470 1.327 . S
C1471 C1475 1.429 . S
C1472 C1455 1.574 . S
C1472 H1466 0.949 . S
C1472 C1476 1.368 . S
C1473 C1454 1.429 . S
C1473 C1467 1.429 . S
C1473 C1474 1.523 . S
C1474 C1455 1.368 . S
C1474 C1468 1.368 . S
C1474 C1473 1.523 . S
C1475 C1459 1.429 . S
C1475 C1471 1.429 . S
C1475 C1476 1.523 . S
C1476 C1460 1.368 . S
C1476 C1472 1.368 . S
C1476 C1475 1.523 . S
H1477 C1452 0.950 . S
H1478 C1454 0.950 . S
H1479 C1455 0.949 . S
H1480 C1457 0.950 . S
H1481 C1459 0.950 . S
C1482 C1483 1.349 . S
C1482 C1484 1.327 . S
C1482 H1507 0.950 . S
C1483 C1482 1.349 . S
C1483 C1499 1.349 . S
C1484 C1482 1.327 . S
C1484 C1503 1.429 . S
C1484 H1508 0.950 . S
C1485 C1502 1.574 . S
C1485 C1504 1.368 . S
C1485 H1509 0.949 . S
H1486 C1490 0.949 . S
C1487 C1488 1.349 . S
C1487 C1489 1.327 . S
C1487 H1510 0.950 . S
C1488 C1487 1.349 . S
C1488 C1500 1.349 . S
C1489 C1487 1.327 . S
C1489 C1505 1.429 . S
C1489 H1511 0.950 . S
C1490 H1486 0.949 . S
C1490 C1498 1.574 . S
C1490 C1506 1.368 . S
H1491 C1499 0.950 . S
H1492 C1497 0.950 . S
H1493 C1498 0.949 . S
H1494 C1500 0.950 . S
H1495 C1501 0.950 . S
H1496 C1502 0.949 . S
C1497 H1492 0.950 . S
C1497 C1499 1.327 . S
C1497 C1503 1.429 . S
C1498 C1490 1.574 . S
C1498 H1493 0.949 . S
C1498 C1504 1.368 . S
C1499 C1483 1.349 . S
C1499 H1491 0.950 . S
C1499 C1497 1.327 . S
C1500 C1488 1.349 . S
C1500 H1494 0.950 . S
C1500 C1501 1.327 . S
C1501 H1495 0.950 . S
C1501 C1500 1.327 . S
C1501 C1505 1.429 . S
C1502 C1485 1.574 . S
C1502 H1496 0.949 . S
C1502 C1506 1.368 . S
C1503 C1484 1.429 . S
C1503 C1497 1.429 . S
C1503 C1504 1.523 . S
C1504 C1485 1.368 . S
C1504 C1498 1.368 . S
C1504 C1503 1.523 . S
C1505 C1489 1.429 . S
C1505 C1501 1.429 . S
C1505 C1506 1.523 . S
C1506 C1490 1.368 . S
C1506 C1502 1.368 . S
C1506 C1505 1.523 . S
H1507 C1482 0.950 . S
H1508 C1484 0.950 . S
H1509 C1485 0.949 . S
H1510 C1487 0.950 . S
H1511 C1489 0.950 . S
C1512 C1513 1.349 . S
C1512 C1514 1.327 . S
C1512 H1537 0.950 . S
C1513 C1512 1.349 . S
C1513 C1529 1.349 . S
C1514 C1512 1.327 . S
C1514 C1533 1.429 . S
C1514 H1538 0.950 . S
C1515 C1532 1.574 . S
C1515 C1534 1.368 . S
C1515 H1539 0.949 . S
H1516 C1520 0.949 . S
C1517 C1518 1.349 . S
C1517 C1519 1.327 . S
C1517 H1540 0.950 . S
C1518 C1517 1.349 . S
C1518 C1530 1.349 . S
C1519 C1517 1.327 . S
C1519 C1535 1.429 . S
C1519 H1541 0.950 . S
C1520 H1516 0.949 . S
C1520 C1528 1.574 . S
C1520 C1536 1.368 . S
H1521 C1529 0.950 . S
H1522 C1527 0.950 . S
H1523 C1528 0.949 . S
H1524 C1530 0.950 . S
H1525 C1531 0.950 . S
H1526 C1532 0.949 . S
C1527 H1522 0.950 . S
C1527 C1529 1.327 . S
C1527 C1533 1.429 . S
C1528 C1520 1.574 . S
C1528 H1523 0.949 . S
C1528 C1534 1.368 . S
C1529 C1513 1.349 . S
C1529 H1521 0.950 . S
C1529 C1527 1.327 . S
C1530 C1518 1.349 . S
C1530 H1524 0.950 . S
C1530 C1531 1.327 . S
C1531 H1525 0.950 . S
C1531 C1530 1.327 . S
C1531 C1535 1.429 . S
C1532 C1515 1.574 . S
C1532 H1526 0.949 . S
C1532 C1536 1.368 . S
C1533 C1514 1.429 . S
C1533 C1527 1.429 . S
C1533 C1534 1.523 . S
C1534 C1515 1.368 . S
C1534 C1528 1.368 . S
C1534 C1533 1.523 . S
C1535 C1519 1.429 . S
C1535 C1531 1.429 . S
C1535 C1536 1.523 . S
C1536 C1520 1.368 . S
C1536 C1532 1.368 . S
C1536 C1535 1.523 . S
H1537 C1512 0.950 . S
H1538 C1514 0.950 . S
H1539 C1515 0.949 . S
H1540 C1517 0.950 . S
H1541 C1519 0.950 . S
C1542 C1543 1.349 . S
C1542 C1544 1.327 . S
C1542 H1567 0.950 . S
C1543 C1542 1.349 . S
C1543 C1559 1.349 . S
C1544 C1542 1.327 . S
C1544 C1563 1.429 . S
C1544 H1568 0.950 . S
C1545 C1562 1.574 . S
C1545 C1564 1.368 . S
C1545 H1569 0.949 . S
H1546 C1550 0.949 . S
C1547 C1548 1.349 . S
C1547 C1549 1.327 . S
C1547 H1570 0.950 . S
C1548 C1547 1.349 . S
C1548 C1560 1.349 . S
C1549 C1547 1.327 . S
C1549 C1565 1.429 . S
C1549 H1571 0.950 . S
C1550 H1546 0.949 . S
C1550 C1558 1.574 . S
C1550 C1566 1.368 . S
H1551 C1559 0.950 . S
H1552 C1557 0.950 . S
H1553 C1558 0.949 . S
H1554 C1560 0.950 . S
H1555 C1561 0.950 . S
H1556 C1562 0.949 . S
C1557 H1552 0.950 . S
C1557 C1559 1.327 . S
C1557 C1563 1.429 . S
C1558 C1550 1.574 . S
C1558 H1553 0.949 . S
C1558 C1564 1.368 . S
C1559 C1543 1.349 . S
C1559 H1551 0.950 . S
C1559 C1557 1.327 . S
C1560 C1548 1.349 . S
C1560 H1554 0.950 . S
C1560 C1561 1.327 . S
C1561 H1555 0.950 . S
C1561 C1560 1.327 . S
C1561 C1565 1.429 . S
C1562 C1545 1.574 . S
C1562 H1556 0.949 . S
C1562 C1566 1.368 . S
C1563 C1544 1.429 . S
C1563 C1557 1.429 . S
C1563 C1564 1.523 . S
C1564 C1545 1.368 . S
C1564 C1558 1.368 . S
C1564 C1563 1.523 . S
C1565 C1549 1.429 . S
C1565 C1561 1.429 . S
C1565 C1566 1.523 . S
C1566 C1550 1.368 . S
C1566 C1562 1.368 . S
C1566 C1565 1.523 . S
H1567 C1542 0.950 . S
H1568 C1544 0.950 . S
H1569 C1545 0.949 . S
H1570 C1547 0.950 . S
H1571 C1549 0.950 . S
C1572 C1573 1.349 . S
C1572 C1574 1.327 . S
C1572 H1597 0.950 . S
C1573 C1572 1.349 . S
C1573 C1589 1.349 . S
C1574 C1572 1.327 . S
C1574 C1593 1.429 . S
C1574 H1598 0.950 . S
C1575 C1592 1.574 . S
C1575 C1594 1.368 . S
C1575 H1599 0.949 . S
H1576 C1580 0.949 . S
C1577 C1578 1.349 . S
C1577 C1579 1.327 . S
C1577 H1600 0.950 . S
C1578 C1577 1.349 . S
C1578 C1590 1.349 . S
C1579 C1577 1.327 . S
C1579 C1595 1.429 . S
C1579 H1601 0.950 . S
C1580 H1576 0.949 . S
C1580 C1588 1.574 . S
C1580 C1596 1.368 . S
H1581 C1589 0.950 . S
H1582 C1587 0.950 . S
H1583 C1588 0.949 . S
H1584 C1590 0.950 . S
H1585 C1591 0.950 . S
H1586 C1592 0.949 . S
C1587 H1582 0.950 . S
C1587 C1589 1.327 . S
C1587 C1593 1.429 . S
C1588 C1580 1.574 . S
C1588 H1583 0.949 . S
C1588 C1594 1.368 . S
C1589 C1573 1.349 . S
C1589 H1581 0.950 . S
C1589 C1587 1.327 . S
C1590 C1578 1.349 . S
C1590 H1584 0.950 . S
C1590 C1591 1.327 . S
C1591 H1585 0.950 . S
C1591 C1590 1.327 . S
C1591 C1595 1.429 . S
C1592 C1575 1.574 . S
C1592 H1586 0.949 . S
C1592 C1596 1.368 . S
C1593 C1574 1.429 . S
C1593 C1587 1.429 . S
C1593 C1594 1.523 . S
C1594 C1575 1.368 . S
C1594 C1588 1.368 . S
C1594 C1593 1.523 . S
C1595 C1579 1.429 . S
C1595 C1591 1.429 . S
C1595 C1596 1.523 . S
C1596 C1580 1.368 . S
C1596 C1592 1.368 . S
C1596 C1595 1.523 . S
H1597 C1572 0.950 . S
H1598 C1574 0.950 . S
H1599 C1575 0.949 . S
H1600 C1577 0.950 . S
H1601 C1579 0.950 . S
C1602 C1603 1.349 . S
C1602 C1604 1.327 . S
C1602 H1627 0.950 . S
C1603 C1602 1.349 . S
C1603 C1619 1.349 . S
C1604 C1602 1.327 . S
C1604 C1623 1.429 . S
C1604 H1628 0.950 . S
C1605 C1622 1.574 . S
C1605 C1624 1.368 . S
C1605 H1629 0.949 . S
H1606 C1610 0.949 . S
C1607 C1608 1.349 . S
C1607 C1609 1.327 . S
C1607 H1630 0.950 . S
C1608 C1607 1.349 . S
C1608 C1620 1.349 1_554 S
C1609 C1607 1.327 . S
C1609 C1625 1.429 1_554 S
C1609 H1631 0.950 . S
C1610 H1606 0.949 . S
C1610 C1618 1.574 . S
C1610 C1626 1.368 . S
H1611 C1619 0.950 . S
H1612 C1617 0.950 . S
H1613 C1618 0.949 . S
H1614 C1620 0.950 . S
H1615 C1621 0.950 . S
H1616 C1622 0.949 1_554 S
C1617 H1612 0.950 . S
C1617 C1619 1.327 . S
C1617 C1623 1.429 . S
C1618 C1610 1.574 . S
C1618 H1613 0.949 . S
C1618 C1624 1.368 . S
C1619 C1603 1.349 . S
C1619 H1611 0.950 . S
C1619 C1617 1.327 . S
C1620 C1608 1.349 1_556 S
C1620 H1614 0.950 . S
C1620 C1621 1.327 . S
C1621 H1615 0.950 . S
C1621 C1620 1.327 . S
C1621 C1625 1.429 . S
C1622 C1605 1.574 . S
C1622 H1616 0.949 1_556 S
C1622 C1626 1.368 . S
C1623 C1604 1.429 . S
C1623 C1617 1.429 . S
C1623 C1624 1.523 . S
C1624 C1605 1.368 . S
C1624 C1618 1.368 . S
C1624 C1623 1.523 . S
C1625 C1609 1.429 1_556 S
C1625 C1621 1.429 . S
C1625 C1626 1.523 . S
C1626 C1610 1.368 . S
C1626 C1622 1.368 . S
C1626 C1625 1.523 . S
H1627 C1602 0.950 . S
H1628 C1604 0.950 . S
H1629 C1605 0.949 . S
H1630 C1607 0.950 . S
H1631 C1609 0.950 . S
C1632 C1633 1.349 . S
C1632 C1634 1.327 . S
C1632 H1657 0.950 . S
C1633 C1632 1.349 . S
C1633 C1649 1.349 . S
C1634 C1632 1.327 . S
C1634 C1653 1.429 . S
C1634 H1658 0.950 . S
C1635 C1652 1.574 . S
C1635 C1654 1.368 . S
C1635 H1659 0.949 . S
H1636 C1640 0.949 . S
C1637 C1638 1.349 . S
C1637 C1639 1.327 . S
C1637 H1660 0.950 . S
C1638 C1637 1.349 . S
C1638 C1650 1.349 . S
C1639 C1637 1.327 . S
C1639 C1655 1.429 . S
C1639 H1661 0.950 . S
C1640 H1636 0.949 . S
C1640 C1648 1.574 1_455 S
C1640 C1656 1.368 . S
H1641 C1649 0.950 . S
H1642 C1647 0.950 . S
H1643 C1648 0.949 . S
H1644 C1650 0.950 . S
H1645 C1651 0.950 . S
H1646 C1652 0.949 . S
C1647 H1642 0.950 . S
C1647 C1649 1.327 . S
C1647 C1653 1.429 . S
C1648 C1640 1.574 1_655 S
C1648 H1643 0.949 . S
C1648 C1654 1.368 . S
C1649 C1633 1.349 . S
C1649 H1641 0.950 . S
C1649 C1647 1.327 . S
C1650 C1638 1.349 . S
C1650 H1644 0.950 . S
C1650 C1651 1.327 . S
C1651 H1645 0.950 . S
C1651 C1650 1.327 . S
C1651 C1655 1.429 . S
C1652 C1635 1.574 . S
C1652 H1646 0.949 . S
C1652 C1656 1.368 1_655 S
C1653 C1634 1.429 . S
C1653 C1647 1.429 . S
C1653 C1654 1.523 . S
C1654 C1635 1.368 . S
C1654 C1648 1.368 . S
C1654 C1653 1.523 . S
C1655 C1639 1.429 . S
C1655 C1651 1.429 . S
C1655 C1656 1.523 . S
C1656 C1640 1.368 . S
C1656 C1652 1.368 1_455 S
C1656 C1655 1.523 . S
H1657 C1632 0.950 . S
H1658 C1634 0.950 . S
H1659 C1635 0.949 . S
H1660 C1637 0.950 . S
H1661 C1639 0.950 . S
C1662 C1663 1.349 . S
C1662 C1664 1.327 . S
C1662 H1687 0.950 . S
C1663 C1662 1.349 . S
C1663 C1679 1.349 . S
C1664 C1662 1.327 . S
C1664 C1683 1.429 . S
C1664 H1688 0.950 . S
C1665 C1682 1.574 . S
C1665 C1684 1.368 . S
C1665 H1689 0.949 . S
H1666 C1670 0.949 . S
C1667 C1668 1.349 . S
C1667 C1669 1.327 . S
C1667 H1690 0.950 . S
C1668 C1667 1.349 . S
C1668 C1680 1.349 . S
C1669 C1667 1.327 . S
C1669 C1685 1.429 . S
C1669 H1691 0.950 . S
C1670 H1666 0.949 . S
C1670 C1678 1.574 . S
C1670 C1686 1.368 . S
H1671 C1679 0.950 . S
H1672 C1677 0.950 . S
H1673 C1678 0.949 . S
H1674 C1680 0.950 . S
H1675 C1681 0.950 . S
H1676 C1682 0.949 . S
C1677 H1672 0.950 . S
C1677 C1679 1.327 . S
C1677 C1683 1.429 . S
C1678 C1670 1.574 . S
C1678 H1673 0.949 . S
C1678 C1684 1.368 . S
C1679 C1663 1.349 . S
C1679 H1671 0.950 . S
C1679 C1677 1.327 . S
C1680 C1668 1.349 . S
C1680 H1674 0.950 . S
C1680 C1681 1.327 . S
C1681 H1675 0.950 . S
C1681 C1680 1.327 . S
C1681 C1685 1.429 . S
C1682 C1665 1.574 . S
C1682 H1676 0.949 . S
C1682 C1686 1.368 . S
C1683 C1664 1.429 . S
C1683 C1677 1.429 . S
C1683 C1684 1.523 . S
C1684 C1665 1.368 . S
C1684 C1678 1.368 . S
C1684 C1683 1.523 . S
C1685 C1669 1.429 . S
C1685 C1681 1.429 . S
C1685 C1686 1.523 . S
C1686 C1670 1.368 . S
C1686 C1682 1.368 . S
C1686 C1685 1.523 . S
H1687 C1662 0.950 . S
H1688 C1664 0.950 . S
H1689 C1665 0.949 . S
H1690 C1667 0.950 . S
H1691 C1669 0.950 . S
C1692 C1693 1.349 . S
C1692 C1694 1.327 . S
C1692 H1717 0.950 . S
C1693 C1692 1.349 . S
C1693 C1709 1.349 . S
C1694 C1692 1.327 . S
C1694 C1713 1.429 . S
C1694 H1718 0.950 . S
C1695 C1712 1.574 . S
C1695 C1714 1.368 . S
C1695 H1719 0.949 . S
H1696 C1700 0.949 . S
C1697 C1698 1.349 . S
C1697 C1699 1.327 . S
C1697 H1720 0.950 . S
C1698 C1697 1.349 . S
C1698 C1710 1.349 . S
C1699 C1697 1.327 . S
C1699 C1715 1.429 . S
C1699 H1721 0.950 . S
C1700 H1696 0.949 . S
C1700 C1708 1.574 . S
C1700 C1716 1.368 . S
H1701 C1709 0.950 . S
H1702 C1707 0.950 . S
H1703 C1708 0.949 . S
H1704 C1710 0.950 . S
H1705 C1711 0.950 . S
H1706 C1712 0.949 . S
C1707 H1702 0.950 . S
C1707 C1709 1.327 . S
C1707 C1713 1.429 . S
C1708 C1700 1.574 . S
C1708 H1703 0.949 . S
C1708 C1714 1.368 . S
C1709 C1693 1.349 . S
C1709 H1701 0.950 . S
C1709 C1707 1.327 . S
C1710 C1698 1.349 . S
C1710 H1704 0.950 . S
C1710 C1711 1.327 . S
C1711 H1705 0.950 . S
C1711 C1710 1.327 . S
C1711 C1715 1.429 . S
C1712 C1695 1.574 . S
C1712 H1706 0.949 . S
C1712 C1716 1.368 . S
C1713 C1694 1.429 . S
C1713 C1707 1.429 . S
C1713 C1714 1.523 . S
C1714 C1695 1.368 . S
C1714 C1708 1.368 . S
C1714 C1713 1.523 . S
C1715 C1699 1.429 . S
C1715 C1711 1.429 . S
C1715 C1716 1.523 . S
C1716 C1700 1.368 . S
C1716 C1712 1.368 . S
C1716 C1715 1.523 . S
H1717 C1692 0.950 . S
H1718 C1694 0.950 . S
H1719 C1695 0.949 . S
H1720 C1697 0.950 . S
H1721 C1699 0.950 . S
C1722 C1723 1.349 . S
C1722 C1724 1.327 . S
C1722 H1747 0.950 . S
C1723 C1722 1.349 . S
C1723 C1739 1.349 . S
C1724 C1722 1.327 . S
C1724 C1743 1.429 . S
C1724 H1748 0.950 . S
C1725 C1742 1.574 . S
C1725 C1744 1.368 . S
C1725 H1749 0.949 . S
H1726 C1730 0.949 . S
C1727 C1728 1.349 . S
C1727 C1729 1.327 . S
C1727 H1750 0.950 . S
C1728 C1727 1.349 . S
C1728 C1740 1.349 . S
C1729 C1727 1.327 . S
C1729 C1745 1.429 . S
C1729 H1751 0.950 . S
C1730 H1726 0.949 . S
C1730 C1738 1.574 . S
C1730 C1746 1.368 . S
H1731 C1739 0.950 . S
H1732 C1737 0.950 . S
H1733 C1738 0.949 . S
H1734 C1740 0.950 . S
H1735 C1741 0.950 . S
H1736 C1742 0.949 . S
C1737 H1732 0.950 . S
C1737 C1739 1.327 . S
C1737 C1743 1.429 . S
C1738 C1730 1.574 . S
C1738 H1733 0.949 . S
C1738 C1744 1.368 . S
C1739 C1723 1.349 . S
C1739 H1731 0.950 . S
C1739 C1737 1.327 . S
C1740 C1728 1.349 . S
C1740 H1734 0.950 . S
C1740 C1741 1.327 . S
C1741 H1735 0.950 . S
C1741 C1740 1.327 . S
C1741 C1745 1.429 . S
C1742 C1725 1.574 . S
C1742 H1736 0.949 . S
C1742 C1746 1.368 . S
C1743 C1724 1.429 . S
C1743 C1737 1.429 . S
C1743 C1744 1.523 . S
C1744 C1725 1.368 . S
C1744 C1738 1.368 . S
C1744 C1743 1.523 . S
C1745 C1729 1.429 . S
C1745 C1741 1.429 . S
C1745 C1746 1.523 . S
C1746 C1730 1.368 . S
C1746 C1742 1.368 . S
C1746 C1745 1.523 . S
H1747 C1722 0.950 . S
H1748 C1724 0.950 . S
H1749 C1725 0.949 . S
H1750 C1727 0.950 . S
H1751 C1729 0.950 . S
C1752 C1753 1.349 . S
C1752 C1754 1.327 . S
C1752 H1777 0.950 . S
C1753 C1752 1.349 . S
C1753 C1769 1.349 . S
C1754 C1752 1.327 . S
C1754 C1773 1.429 . S
C1754 H1778 0.950 . S
C1755 C1772 1.574 . S
C1755 C1774 1.368 . S
C1755 H1779 0.949 . S
H1756 C1760 0.949 . S
C1757 C1758 1.349 . S
C1757 C1759 1.327 . S
C1757 H1780 0.950 . S
C1758 C1757 1.349 . S
C1758 C1770 1.349 . S
C1759 C1757 1.327 . S
C1759 C1775 1.429 . S
C1759 H1781 0.950 . S
C1760 H1756 0.949 . S
C1760 C1768 1.574 1_455 S
C1760 C1776 1.368 . S
H1761 C1769 0.950 . S
H1762 C1767 0.950 . S
H1763 C1768 0.949 . S
H1764 C1770 0.950 . S
H1765 C1771 0.950 . S
H1766 C1772 0.949 . S
C1767 H1762 0.950 . S
C1767 C1769 1.327 . S
C1767 C1773 1.429 . S
C1768 C1760 1.574 1_655 S
C1768 H1763 0.949 . S
C1768 C1774 1.368 . S
C1769 C1753 1.349 . S
C1769 H1761 0.950 . S
C1769 C1767 1.327 . S
C1770 C1758 1.349 . S
C1770 H1764 0.950 . S
C1770 C1771 1.327 . S
C1771 H1765 0.950 . S
C1771 C1770 1.327 . S
C1771 C1775 1.429 . S
C1772 C1755 1.574 . S
C1772 H1766 0.949 . S
C1772 C1776 1.368 1_655 S
C1773 C1754 1.429 . S
C1773 C1767 1.429 . S
C1773 C1774 1.523 . S
C1774 C1755 1.368 . S
C1774 C1768 1.368 . S
C1774 C1773 1.523 . S
C1775 C1759 1.429 . S
C1775 C1771 1.429 . S
C1775 C1776 1.523 . S
C1776 C1760 1.368 . S
C1776 C1772 1.368 1_455 S
C1776 C1775 1.523 . S
H1777 C1752 0.950 . S
H1778 C1754 0.950 . S
H1779 C1755 0.949 . S
H1780 C1757 0.950 . S
H1781 C1759 0.950 . S
C1782 C1783 1.349 . S
C1782 C1784 1.327 . S
C1782 H1807 0.950 . S
C1783 C1782 1.349 . S
C1783 C1799 1.349 . S
C1784 C1782 1.327 . S
C1784 C1803 1.429 . S
C1784 H1808 0.950 . S
C1785 C1802 1.574 . S
C1785 C1804 1.368 . S
C1785 H1809 0.949 . S
H1786 C1790 0.949 . S
C1787 C1788 1.349 . S
C1787 C1789 1.327 . S
C1787 H1810 0.950 . S
C1788 C1787 1.349 . S
C1788 C1800 1.349 . S
C1789 C1787 1.327 . S
C1789 C1805 1.429 . S
C1789 H1811 0.950 . S
C1790 H1786 0.949 . S
C1790 C1798 1.574 . S
C1790 C1806 1.368 . S
H1791 C1799 0.950 . S
H1792 C1797 0.950 . S
H1793 C1798 0.949 . S
H1794 C1800 0.950 . S
H1795 C1801 0.950 . S
H1796 C1802 0.949 . S
C1797 H1792 0.950 . S
C1797 C1799 1.327 . S
C1797 C1803 1.429 . S
C1798 C1790 1.574 . S
C1798 H1793 0.949 . S
C1798 C1804 1.368 . S
C1799 C1783 1.349 . S
C1799 H1791 0.950 . S
C1799 C1797 1.327 . S
C1800 C1788 1.349 . S
C1800 H1794 0.950 . S
C1800 C1801 1.327 . S
C1801 H1795 0.950 . S
C1801 C1800 1.327 . S
C1801 C1805 1.429 . S
C1802 C1785 1.574 . S
C1802 H1796 0.949 . S
C1802 C1806 1.368 . S
C1803 C1784 1.429 . S
C1803 C1797 1.429 . S
C1803 C1804 1.523 . S
C1804 C1785 1.368 . S
C1804 C1798 1.368 . S
C1804 C1803 1.523 . S
C1805 C1789 1.429 . S
C1805 C1801 1.429 . S
C1805 C1806 1.523 . S
C1806 C1790 1.368 . S
C1806 C1802 1.368 . S
C1806 C1805 1.523 . S
H1807 C1782 0.950 . S
H1808 C1784 0.950 . S
H1809 C1785 0.949 . S
H1810 C1787 0.950 . S
H1811 C1789 0.950 . S
C1812 C1813 1.349 . S
C1812 C1814 1.327 . S
C1812 H1837 0.950 . S
C1813 C1812 1.349 . S
C1813 C1829 1.349 . S
C1814 C1812 1.327 . S
C1814 C1833 1.429 . S
C1814 H1838 0.950 . S
C1815 C1832 1.574 . S
C1815 C1834 1.368 . S
C1815 H1839 0.949 . S
H1816 C1820 0.949 . S
C1817 C1818 1.349 . S
C1817 C1819 1.327 . S
C1817 H1840 0.950 . S
C1818 C1817 1.349 . S
C1818 C1830 1.349 . S
C1819 C1817 1.327 . S
C1819 C1835 1.429 . S
C1819 H1841 0.950 . S
C1820 H1816 0.949 . S
C1820 C1828 1.574 . S
C1820 C1836 1.368 . S
H1821 C1829 0.950 . S
H1822 C1827 0.950 . S
H1823 C1828 0.949 . S
H1824 C1830 0.950 . S
H1825 C1831 0.950 . S
H1826 C1832 0.949 . S
C1827 H1822 0.950 . S
C1827 C1829 1.327 . S
C1827 C1833 1.429 . S
C1828 C1820 1.574 . S
C1828 H1823 0.949 . S
C1828 C1834 1.368 . S
C1829 C1813 1.349 . S
C1829 H1821 0.950 . S
C1829 C1827 1.327 . S
C1830 C1818 1.349 . S
C1830 H1824 0.950 . S
C1830 C1831 1.327 . S
C1831 H1825 0.950 . S
C1831 C1830 1.327 . S
C1831 C1835 1.429 . S
C1832 C1815 1.574 . S
C1832 H1826 0.949 . S
C1832 C1836 1.368 . S
C1833 C1814 1.429 . S
C1833 C1827 1.429 . S
C1833 C1834 1.523 . S
C1834 C1815 1.368 . S
C1834 C1828 1.368 . S
C1834 C1833 1.523 . S
C1835 C1819 1.429 . S
C1835 C1831 1.429 . S
C1835 C1836 1.523 . S
C1836 C1820 1.368 . S
C1836 C1832 1.368 . S
C1836 C1835 1.523 . S
H1837 C1812 0.950 . S
H1838 C1814 0.950 . S
H1839 C1815 0.949 . S
H1840 C1817 0.950 . S
H1841 C1819 0.950 . S
C1842 C1843 1.349 . S
C1842 C1844 1.327 . S
C1842 H1867 0.950 . S
C1843 C1842 1.349 . S
C1843 C1859 1.349 . S
C1844 C1842 1.327 . S
C1844 C1863 1.429 . S
C1844 H1868 0.950 . S
C1845 C1862 1.574 . S
C1845 C1864 1.368 . S
C1845 H1869 0.949 . S
H1846 C1850 0.949 . S
C1847 C1848 1.349 . S
C1847 C1849 1.327 . S
C1847 H1870 0.950 . S
C1848 C1847 1.349 . S
C1848 C1860 1.349 . S
C1849 C1847 1.327 . S
C1849 C1865 1.429 . S
C1849 H1871 0.950 . S
C1850 H1846 0.949 . S
C1850 C1858 1.574 . S
C1850 C1866 1.368 . S
H1851 C1859 0.950 . S
H1852 C1857 0.950 . S
H1853 C1858 0.949 . S
H1854 C1860 0.950 . S
H1855 C1861 0.950 . S
H1856 C1862 0.949 . S
C1857 H1852 0.950 . S
C1857 C1859 1.327 . S
C1857 C1863 1.429 . S
C1858 C1850 1.574 . S
C1858 H1853 0.949 . S
C1858 C1864 1.368 . S
C1859 C1843 1.349 . S
C1859 H1851 0.950 . S
C1859 C1857 1.327 . S
C1860 C1848 1.349 . S
C1860 H1854 0.950 . S
C1860 C1861 1.327 . S
C1861 H1855 0.950 . S
C1861 C1860 1.327 . S
C1861 C1865 1.429 . S
C1862 C1845 1.574 . S
C1862 H1856 0.949 . S
C1862 C1866 1.368 . S
C1863 C1844 1.429 . S
C1863 C1857 1.429 . S
C1863 C1864 1.523 . S
C1864 C1845 1.368 . S
C1864 C1858 1.368 . S
C1864 C1863 1.523 . S
C1865 C1849 1.429 . S
C1865 C1861 1.429 . S
C1865 C1866 1.523 . S
C1866 C1850 1.368 . S
C1866 C1862 1.368 . S
C1866 C1865 1.523 . S
H1867 C1842 0.950 . S
H1868 C1844 0.950 . S
H1869 C1845 0.949 . S
H1870 C1847 0.950 . S
H1871 C1849 0.950 . S
C1872 C1873 1.349 . S
C1872 C1874 1.327 . S
C1872 H1897 0.950 . S
C1873 C1872 1.349 . S
C1873 C1889 1.349 . S
C1874 C1872 1.327 . S
C1874 C1893 1.429 . S
C1874 H1898 0.950 . S
C1875 C1892 1.574 . S
C1875 C1894 1.368 . S
C1875 H1899 0.949 . S
H1876 C1880 0.949 . S
C1877 C1878 1.349 . S
C1877 C1879 1.327 . S
C1877 H1900 0.950 . S
C1878 C1877 1.349 . S
C1878 C1890 1.349 . S
C1879 C1877 1.327 . S
C1879 C1895 1.429 . S
C1879 H1901 0.950 . S
C1880 H1876 0.949 . S
C1880 C1888 1.574 . S
C1880 C1896 1.368 . S
H1881 C1889 0.950 . S
H1882 C1887 0.950 . S
H1883 C1888 0.949 . S
H1884 C1890 0.950 . S
H1885 C1891 0.950 . S
H1886 C1892 0.949 . S
C1887 H1882 0.950 . S
C1887 C1889 1.327 . S
C1887 C1893 1.429 . S
C1888 C1880 1.574 . S
C1888 H1883 0.949 . S
C1888 C1894 1.368 . S
C1889 C1873 1.349 . S
C1889 H1881 0.950 . S
C1889 C1887 1.327 . S
C1890 C1878 1.349 . S
C1890 H1884 0.950 . S
C1890 C1891 1.327 . S
C1891 H1885 0.950 . S
C1891 C1890 1.327 . S
C1891 C1895 1.429 . S
C1892 C1875 1.574 . S
C1892 H1886 0.949 . S
C1892 C1896 1.368 . S
C1893 C1874 1.429 . S
C1893 C1887 1.429 . S
C1893 C1894 1.523 . S
C1894 C1875 1.368 . S
C1894 C1888 1.368 . S
C1894 C1893 1.523 . S
C1895 C1879 1.429 . S
C1895 C1891 1.429 . S
C1895 C1896 1.523 . S
C1896 C1880 1.368 . S
C1896 C1892 1.368 . S
C1896 C1895 1.523 . S
H1897 C1872 0.950 . S
H1898 C1874 0.950 . S
H1899 C1875 0.949 . S
H1900 C1877 0.950 . S
H1901 C1879 0.950 . S
C1902 C1903 1.349 . S
C1902 C1904 1.327 . S
C1902 H1927 0.950 . S
C1903 C1902 1.349 . S
C1903 C1919 1.349 . S
C1904 C1902 1.327 . S
C1904 C1923 1.429 . S
C1904 H1928 0.950 . S
C1905 C1922 1.574 . S
C1905 C1924 1.368 . S
C1905 H1929 0.949 . S
H1906 C1910 0.949 . S
C1907 C1908 1.349 . S
C1907 C1909 1.327 . S
C1907 H1930 0.950 . S
C1908 C1907 1.349 . S
C1908 C1920 1.349 . S
C1909 C1907 1.327 . S
C1909 C1925 1.429 . S
C1909 H1931 0.950 . S
C1910 H1906 0.949 . S
C1910 C1918 1.574 . S
C1910 C1926 1.368 . S
H1911 C1919 0.950 . S
H1912 C1917 0.950 . S
H1913 C1918 0.949 . S
H1914 C1920 0.950 . S
H1915 C1921 0.950 . S
H1916 C1922 0.949 . S
C1917 H1912 0.950 . S
C1917 C1919 1.327 . S
C1917 C1923 1.429 . S
C1918 C1910 1.574 . S
C1918 H1913 0.949 . S
C1918 C1924 1.368 . S
C1919 C1903 1.349 . S
C1919 H1911 0.950 . S
C1919 C1917 1.327 . S
C1920 C1908 1.349 . S
C1920 H1914 0.950 . S
C1920 C1921 1.327 . S
C1921 H1915 0.950 . S
C1921 C1920 1.327 . S
C1921 C1925 1.429 . S
C1922 C1905 1.574 . S
C1922 H1916 0.949 . S
C1922 C1926 1.368 . S
C1923 C1904 1.429 . S
C1923 C1917 1.429 . S
C1923 C1924 1.523 . S
C1924 C1905 1.368 . S
C1924 C1918 1.368 . S
C1924 C1923 1.523 . S
C1925 C1909 1.429 . S
C1925 C1921 1.429 . S
C1925 C1926 1.523 . S
C1926 C1910 1.368 . S
C1926 C1922 1.368 . S
C1926 C1925 1.523 . S
H1927 C1902 0.950 . S
H1928 C1904 0.950 . S
H1929 C1905 0.949 . S
H1930 C1907 0.950 . S
H1931 C1909 0.950 . S
C1932 C1933 1.349 . S
C1932 C1934 1.327 . S
C1932 H1957 0.950 . S
C1933 C1932 1.349 . S
C1933 C1949 1.349 . S
C1934 C1932 1.327 . S
C1934 C1953 1.429 . S
C1934 H1958 0.950 . S
C1935 C1952 1.574 . S
C1935 C1954 1.368 . S
C1935 H1959 0.949 . S
H1936 C1940 0.949 . S
C1937 C1938 1.349 . S
C1937 C1939 1.327 . S
C1937 H1960 0.950 . S
C1938 C1937 1.349 . S
C1938 C1950 1.349 . S
C1939 C1937 1.327 . S
C1939 C1955 1.429 . S
C1939 H1961 0.950 . S
C1940 H1936 0.949 . S
C1940 C1948 1.574 . S
C1940 C1956 1.368 . S
H1941 C1949 0.950 . S
H1942 C1947 0.950 . S
H1943 C1948 0.949 . S
H1944 C1950 0.950 . S
H1945 C1951 0.950 . S
H1946 C1952 0.949 . S
C1947 H1942 0.950 . S
C1947 C1949 1.327 . S
C1947 C1953 1.429 . S
C1948 C1940 1.574 . S
C1948 H1943 0.949 . S
C1948 C1954 1.368 . S
C1949 C1933 1.349 . S
C1949 H1941 0.950 . S
C1949 C1947 1.327 . S
C1950 C1938 1.349 . S
C1950 H1944 0.950 . S
C1950 C1951 1.327 . S
C1951 H1945 0.950 . S
C1951 C1950 1.327 . S
C1951 C1955 1.429 . S
C1952 C1935 1.574 . S
C1952 H1946 0.949 . S
C1952 C1956 1.368 . S
C1953 C1934 1.429 . S
C1953 C1947 1.429 . S
C1953 C1954 1.523 . S
C1954 C1935 1.368 . S
C1954 C1948 1.368 . S
C1954 C1953 1.523 . S
C1955 C1939 1.429 . S
C1955 C1951 1.429 . S
C1955 C1956 1.523 . S
C1956 C1940 1.368 . S
C1956 C1952 1.368 . S
C1956 C1955 1.523 . S
H1957 C1932 0.950 . S
H1958 C1934 0.950 . S
H1959 C1935 0.949 . S
H1960 C1937 0.950 . S
H1961 C1939 0.950 . S
C1962 C1963 1.349 . S
C1962 C1964 1.327 . S
C1962 H1987 0.950 . S
C1963 C1962 1.349 . S
C1963 C1979 1.349 . S
C1964 C1962 1.327 . S
C1964 C1983 1.429 . S
C1964 H1988 0.950 . S
C1965 C1982 1.574 . S
C1965 C1984 1.368 . S
C1965 H1989 0.949 . S
H1966 C1970 0.949 . S
C1967 C1968 1.349 . S
C1967 C1969 1.327 . S
C1967 H1990 0.950 . S
C1968 C1967 1.349 . S
C1968 C1980 1.349 . S
C1969 C1967 1.327 . S
C1969 C1985 1.429 . S
C1969 H1991 0.950 . S
C1970 H1966 0.949 . S
C1970 C1978 1.574 . S
C1970 C1986 1.368 . S
H1971 C1979 0.950 . S
H1972 C1977 0.950 . S
H1973 C1978 0.949 . S
H1974 C1980 0.950 . S
H1975 C1981 0.950 . S
H1976 C1982 0.949 . S
C1977 H1972 0.950 . S
C1977 C1979 1.327 . S
C1977 C1983 1.429 . S
C1978 C1970 1.574 . S
C1978 H1973 0.949 . S
C1978 C1984 1.368 . S
C1979 C1963 1.349 . S
C1979 H1971 0.950 . S
C1979 C1977 1.327 . S
C1980 C1968 1.349 . S
C1980 H1974 0.950 . S
C1980 C1981 1.327 . S
C1981 H1975 0.950 . S
C1981 C1980 1.327 . S
C1981 C1985 1.429 . S
C1982 C1965 1.574 . S
C1982 H1976 0.949 . S
C1982 C1986 1.368 . S
C1983 C1964 1.429 . S
C1983 C1977 1.429 . S
C1983 C1984 1.523 . S
C1984 C1965 1.368 . S
C1984 C1978 1.368 . S
C1984 C1983 1.523 . S
C1985 C1969 1.429 . S
C1985 C1981 1.429 . S
C1985 C1986 1.523 . S
C1986 C1970 1.368 . S
C1986 C1982 1.368 . S
C1986 C1985 1.523 . S
H1987 C1962 0.950 . S
H1988 C1964 0.950 . S
H1989 C1965 0.949 . S
H1990 C1967 0.950 . S
H1991 C1969 0.950 . S
C1992 C1993 1.349 . S
C1992 C1994 1.327 . S
C1992 H2017 0.950 . S
C1993 C1992 1.349 . S
C1993 C2009 1.349 . S
C1994 C1992 1.327 . S
C1994 C2013 1.429 . S
C1994 H2018 0.950 . S
C1995 C2012 1.574 1_545 S
C1995 C2014 1.368 . S
C1995 H2019 0.949 . S
H1996 C2000 0.949 . S
C1997 C1998 1.349 . S
C1997 C1999 1.327 . S
C1997 H2020 0.950 . S
C1998 C1997 1.349 . S
C1998 C2010 1.349 . S
C1999 C1997 1.327 . S
C1999 C2015 1.429 . S
C1999 H2021 0.950 . S
C2000 H1996 0.949 . S
C2000 C2008 1.574 . S
C2000 C2016 1.368 . S
H2001 C2009 0.950 . S
H2002 C2007 0.950 . S
H2003 C2008 0.949 . S
H2004 C2010 0.950 . S
H2005 C2011 0.950 . S
H2006 C2012 0.949 . S
C2007 H2002 0.950 . S
C2007 C2009 1.327 . S
C2007 C2013 1.429 . S
C2008 C2000 1.574 . S
C2008 H2003 0.949 . S
C2008 C2014 1.368 1_565 S
C2009 C1993 1.349 . S
C2009 H2001 0.950 . S
C2009 C2007 1.327 . S
C2010 C1998 1.349 . S
C2010 H2004 0.950 . S
C2010 C2011 1.327 . S
C2011 H2005 0.950 . S
C2011 C2010 1.327 . S
C2011 C2015 1.429 . S
C2012 C1995 1.574 1_565 S
C2012 H2006 0.949 . S
C2012 C2016 1.368 . S
C2013 C1994 1.429 . S
C2013 C2007 1.429 . S
C2013 C2014 1.523 . S
C2014 C1995 1.368 . S
C2014 C2008 1.368 1_545 S
C2014 C2013 1.523 . S
C2015 C1999 1.429 . S
C2015 C2011 1.429 . S
C2015 C2016 1.523 . S
C2016 C2000 1.368 . S
C2016 C2012 1.368 . S
C2016 C2015 1.523 . S
H2017 C1992 0.950 . S
H2018 C1994 0.950 . S
H2019 C1995 0.949 . S
H2020 C1997 0.950 . S
H2021 C1999 0.950 . S
C2022 C2023 1.349 . S
C2022 C2024 1.327 . S
C2022 H2047 0.950 . S
C2023 C2022 1.349 . S
C2023 C2039 1.349 . S
C2024 C2022 1.327 . S
C2024 C2043 1.429 . S
C2024 H2048 0.950 . S
C2025 C2042 1.574 . S
C2025 C2044 1.368 1_545 S
C2025 H2049 0.949 . S
H2026 C2030 0.949 . S
C2027 C2028 1.349 . S
C2027 C2029 1.327 . S
C2027 H2050 0.950 . S
C2028 C2027 1.349 . S
C2028 C2040 1.349 . S
C2029 C2027 1.327 . S
C2029 C2045 1.429 . S
C2029 H2051 0.950 . S
C2030 H2026 0.949 . S
C2030 C2038 1.574 1_645 S
C2030 C2046 1.368 . S
H2031 C2039 0.950 . S
H2032 C2037 0.950 . S
H2033 C2038 0.949 . S
H2034 C2040 0.950 . S
H2035 C2041 0.950 . S
H2036 C2042 0.949 1_655 S
C2037 H2032 0.950 . S
C2037 C2039 1.327 . S
C2037 C2043 1.429 . S
C2038 C2030 1.574 1_465 S
C2038 H2033 0.949 . S
C2038 C2044 1.368 . S
C2039 C2023 1.349 . S
C2039 H2031 0.950 . S
C2039 C2037 1.327 . S
C2040 C2028 1.349 . S
C2040 H2034 0.950 . S
C2040 C2041 1.327 . S
C2041 H2035 0.950 . S
C2041 C2040 1.327 . S
C2041 C2045 1.429 . S
C2042 C2025 1.574 . S
C2042 H2036 0.949 1_455 S
C2042 C2046 1.368 1_455 S
C2043 C2024 1.429 . S
C2043 C2037 1.429 . S
C2043 C2044 1.523 . S
C2044 C2025 1.368 1_565 S
C2044 C2038 1.368 . S
C2044 C2043 1.523 . S
C2045 C2029 1.429 . S
C2045 C2041 1.429 . S
C2045 C2046 1.523 . S
C2046 C2030 1.368 . S
C2046 C2042 1.368 1_655 S
C2046 C2045 1.523 . S
H2047 C2022 0.950 . S
H2048 C2024 0.950 . S
H2049 C2025 0.949 . S
H2050 C2027 0.950 . S
H2051 C2029 0.950 . S
C2052 C2053 1.349 . S
C2052 C2054 1.327 . S
C2052 H2077 0.950 . S
C2053 C2052 1.349 . S
C2053 C2069 1.349 . S
C2054 C2052 1.327 . S
C2054 C2073 1.429 . S
C2054 H2078 0.950 . S
C2055 C2072 1.574 1_565 S
C2055 C2074 1.368 . S
C2055 H2079 0.949 . S
H2056 C2060 0.949 . S
C2057 C2058 1.349 . S
C2057 C2059 1.327 . S
C2057 H2080 0.950 . S
C2058 C2057 1.349 . S
C2058 C2070 1.349 . S
C2059 C2057 1.327 . S
C2059 C2075 1.429 . S
C2059 H2081 0.950 . S
C2060 H2056 0.949 . S
C2060 C2068 1.574 . S
C2060 C2076 1.368 . S
H2061 C2069 0.950 . S
H2062 C2067 0.950 . S
H2063 C2068 0.949 . S
H2064 C2070 0.950 . S
H2065 C2071 0.950 . S
H2066 C2072 0.949 . S
C2067 H2062 0.950 . S
C2067 C2069 1.327 . S
C2067 C2073 1.429 . S
C2068 C2060 1.574 . S
C2068 H2063 0.949 . S
C2068 C2074 1.368 1_545 S
C2069 C2053 1.349 . S
C2069 H2061 0.950 . S
C2069 C2067 1.327 . S
C2070 C2058 1.349 . S
C2070 H2064 0.950 . S
C2070 C2071 1.327 . S
C2071 H2065 0.950 . S
C2071 C2070 1.327 . S
C2071 C2075 1.429 . S
C2072 C2055 1.574 1_545 S
C2072 H2066 0.949 . S
C2072 C2076 1.368 . S
C2073 C2054 1.429 . S
C2073 C2067 1.429 . S
C2073 C2074 1.523 . S
C2074 C2055 1.368 . S
C2074 C2068 1.368 1_565 S
C2074 C2073 1.523 . S
C2075 C2059 1.429 . S
C2075 C2071 1.429 . S
C2075 C2076 1.523 . S
C2076 C2060 1.368 . S
C2076 C2072 1.368 . S
C2076 C2075 1.523 . S
H2077 C2052 0.950 . S
H2078 C2054 0.950 . S
H2079 C2055 0.949 . S
H2080 C2057 0.950 . S
H2081 C2059 0.950 . S
C2082 C2083 1.349 . S
C2082 C2084 1.327 . S
C2082 H2107 0.950 . S
C2083 C2082 1.349 . S
C2083 C2099 1.349 . S
C2084 C2082 1.327 . S
C2084 C2103 1.429 . S
C2084 H2108 0.950 . S
C2085 C2102 1.574 . S
C2085 C2104 1.368 1_455 S
C2085 H2109 0.949 . S
H2086 C2090 0.949 . S
C2087 C2088 1.349 . S
C2087 C2089 1.327 . S
C2087 H2110 0.950 . S
C2088 C2087 1.349 . S
C2088 C2100 1.349 . S
C2089 C2087 1.327 . S
C2089 C2105 1.429 . S
C2089 H2111 0.950 . S
C2090 H2086 0.949 . S
C2090 C2098 1.574 1_445 S
C2090 C2106 1.368 . S
H2091 C2099 0.950 . S
H2092 C2097 0.950 . S
H2093 C2098 0.949 . S
H2094 C2100 0.950 . S
H2095 C2101 0.950 . S
H2096 C2102 0.949 . S
C2097 H2092 0.950 . S
C2097 C2099 1.327 . S
C2097 C2103 1.429 . S
C2098 C2090 1.574 1_665 S
C2098 H2093 0.949 . S
C2098 C2104 1.368 . S
C2099 C2083 1.349 . S
C2099 H2091 0.950 . S
C2099 C2097 1.327 . S
C2100 C2088 1.349 . S
C2100 H2094 0.950 . S
C2100 C2101 1.327 . S
C2101 H2095 0.950 . S
C2101 C2100 1.327 . S
C2101 C2105 1.429 . S
C2102 C2085 1.574 . S
C2102 H2096 0.949 . S
C2102 C2106 1.368 1_565 S
C2103 C2084 1.429 . S
C2103 C2097 1.429 . S
C2103 C2104 1.523 . S
C2104 C2085 1.368 1_655 S
C2104 C2098 1.368 . S
C2104 C2103 1.523 . S
C2105 C2089 1.429 . S
C2105 C2101 1.429 . S
C2105 C2106 1.523 . S
C2106 C2090 1.368 . S
C2106 C2102 1.368 1_545 S
C2106 C2105 1.523 . S
H2107 C2082 0.950 . S
H2108 C2084 0.950 . S
H2109 C2085 0.949 . S
H2110 C2087 0.950 . S
H2111 C2089 0.950 . S
C2112 C2113 1.349 . S
C2112 C2114 1.327 . S
C2112 H2137 0.950 . S
C2113 C2112 1.349 . S
C2113 C2129 1.349 . S
C2114 C2112 1.327 . S
C2114 C2133 1.429 . S
C2114 H2138 0.950 . S
C2115 C2132 1.574 . S
C2115 C2134 1.368 . S
C2115 H2139 0.949 . S
H2116 C2120 0.949 . S
C2117 C2118 1.349 . S
C2117 C2119 1.327 . S
C2117 H2140 0.950 . S
C2118 C2117 1.349 . S
C2118 C2130 1.349 . S
C2119 C2117 1.327 . S
C2119 C2135 1.429 . S
C2119 H2141 0.950 . S
C2120 H2116 0.949 . S
C2120 C2128 1.598 . S
C2120 C2136 1.368 . S
H2121 C2129 0.950 . S
H2122 C2127 0.950 . S
H2123 C2128 0.952 . S
H2124 C2130 0.950 . S
H2125 C2131 0.950 . S
H2126 C2132 0.949 . S
C2127 H2122 0.950 . S
C2127 C2129 1.327 . S
C2127 C2133 1.429 . S
C2128 C2120 1.598 . S
C2128 H2123 0.952 . S
C2128 C2134 1.342 1_655 S
C2129 C2113 1.349 . S
C2129 H2121 0.950 . S
C2129 C2127 1.327 . S
C2130 C2118 1.349 . S
C2130 H2124 0.950 . S
C2130 C2131 1.327 . S
C2131 H2125 0.950 . S
C2131 C2130 1.327 . S
C2131 C2135 1.429 . S
C2132 C2115 1.574 . S
C2132 H2126 0.949 . S
C2132 C2136 1.368 1_455 S
C2133 C2114 1.429 . S
C2133 C2127 1.429 . S
C2133 C2134 1.523 . S
C2134 C2115 1.368 . S
C2134 C2128 1.342 1_455 S
C2134 C2133 1.523 . S
C2135 C2119 1.429 . S
C2135 C2131 1.429 . S
C2135 C2136 1.523 . S
C2136 C2120 1.368 . S
C2136 C2132 1.368 1_655 S
C2136 C2135 1.523 . S
H2137 C2112 0.950 . S
H2138 C2114 0.950 . S
H2139 C2115 0.949 . S
H2140 C2117 0.950 . S
H2141 C2119 0.950 . S
C2142 C2143 1.349 . S
C2142 C2144 1.327 1_556 S
C2142 H2167 0.950 . S
C2143 C2142 1.349 . S
C2143 C2159 1.349 . S
C2144 C2142 1.327 1_554 S
C2144 C2163 1.429 . S
C2144 H2168 0.950 . S
C2145 C2162 1.574 . S
C2145 C2164 1.368 . S
C2145 H2169 0.949 . S
H2146 C2150 0.949 . S
C2147 C2148 1.349 . S
C2147 C2149 1.327 . S
C2147 H2170 0.950 . S
C2148 C2147 1.349 . S
C2148 C2160 1.349 . S
C2149 C2147 1.327 . S
C2149 C2165 1.429 . S
C2149 H2171 0.950 . S
C2150 H2146 0.949 . S
C2150 C2158 1.574 . S
C2150 C2166 1.368 . S
H2151 C2159 0.950 . S
H2152 C2157 0.950 . S
H2153 C2158 0.949 . S
H2154 C2160 0.950 . S
H2155 C2161 0.950 . S
H2156 C2162 0.949 . S
C2157 H2152 0.950 . S
C2157 C2159 1.327 . S
C2157 C2163 1.429 1_556 S
C2158 C2150 1.574 . S
C2158 H2153 0.949 . S
C2158 C2164 1.368 . S
C2159 C2143 1.349 . S
C2159 H2151 0.950 . S
C2159 C2157 1.327 . S
C2160 C2148 1.349 . S
C2160 H2154 0.950 . S
C2160 C2161 1.327 . S
C2161 H2155 0.950 . S
C2161 C2160 1.327 . S
C2161 C2165 1.429 . S
C2162 C2145 1.574 . S
C2162 H2156 0.949 . S
C2162 C2166 1.368 . S
C2163 C2144 1.429 . S
C2163 C2157 1.429 1_554 S
C2163 C2164 1.523 . S
C2164 C2145 1.368 . S
C2164 C2158 1.368 . S
C2164 C2163 1.523 . S
C2165 C2149 1.429 . S
C2165 C2161 1.429 . S
C2165 C2166 1.523 . S
C2166 C2150 1.368 . S
C2166 C2162 1.368 . S
C2166 C2165 1.523 . S
H2167 C2142 0.950 . S
H2168 C2144 0.950 . S
H2169 C2145 0.949 . S
H2170 C2147 0.950 . S
H2171 C2149 0.950 . S
C2172 C2173 1.349 . S
C2172 C2174 1.327 . S
C2172 H2197 0.950 . S
C2173 C2172 1.349 . S
C2173 C2189 1.349 . S
C2174 C2172 1.327 . S
C2174 C2193 1.429 . S
C2174 H2198 0.950 . S
C2175 C2192 1.574 . S
C2175 C2194 1.368 . S
C2175 H2199 0.949 . S
H2176 C2180 0.949 . S
C2177 C2178 1.349 . S
C2177 C2179 1.327 . S
C2177 H2200 0.950 . S
C2178 C2177 1.349 . S
C2178 C2190 1.349 . S
C2179 C2177 1.327 . S
C2179 C2195 1.429 . S
C2179 H2201 0.950 . S
C2180 H2176 0.949 . S
C2180 C2188 1.574 . S
C2180 C2196 1.368 . S
H2181 C2189 0.950 . S
H2182 C2187 0.950 . S
H2183 C2188 0.949 . S
H2184 C2190 0.950 . S
H2185 C2191 0.950 . S
H2186 C2192 0.949 . S
C2187 H2182 0.950 . S
C2187 C2189 1.327 . S
C2187 C2193 1.429 . S
C2188 C2180 1.574 . S
C2188 H2183 0.949 . S
C2188 C2194 1.368 . S
C2189 C2173 1.349 . S
C2189 H2181 0.950 . S
C2189 C2187 1.327 . S
C2190 C2178 1.349 . S
C2190 H2184 0.950 . S
C2190 C2191 1.327 . S
C2191 H2185 0.950 . S
C2191 C2190 1.327 . S
C2191 C2195 1.429 . S
C2192 C2175 1.574 . S
C2192 H2186 0.949 . S
C2192 C2196 1.368 . S
C2193 C2174 1.429 . S
C2193 C2187 1.429 . S
C2193 C2194 1.523 . S
C2194 C2175 1.368 . S
C2194 C2188 1.368 . S
C2194 C2193 1.523 . S
C2195 C2179 1.429 . S
C2195 C2191 1.429 . S
C2195 C2196 1.523 . S
C2196 C2180 1.368 . S
C2196 C2192 1.368 . S
C2196 C2195 1.523 . S
H2197 C2172 0.950 . S
H2198 C2174 0.950 . S
H2199 C2175 0.949 . S
H2200 C2177 0.950 . S
H2201 C2179 0.950 . S
C2202 C2203 1.349 . S
C2202 C2204 1.327 . S
C2202 H2227 0.950 . S
C2203 C2202 1.349 . S
C2203 C2219 1.349 . S
C2204 C2202 1.327 . S
C2204 C2223 1.429 . S
C2204 H2228 0.950 . S
C2205 C2222 1.574 . S
C2205 C2224 1.368 . S
C2205 H2229 0.949 . S
H2206 C2210 0.949 . S
C2207 C2208 1.349 . S
C2207 C2209 1.327 . S
C2207 H2230 0.950 . S
C2208 C2207 1.349 . S
C2208 C2220 1.349 . S
C2209 C2207 1.327 . S
C2209 C2225 1.429 . S
C2209 H2231 0.950 . S
C2210 H2206 0.949 . S
C2210 C2218 1.574 . S
C2210 C2226 1.368 . S
H2211 C2219 0.950 . S
H2212 C2217 0.950 . S
H2213 C2218 0.949 . S
H2214 C2220 0.950 . S
H2215 C2221 0.950 . S
H2216 C2222 0.949 . S
C2217 H2212 0.950 . S
C2217 C2219 1.327 . S
C2217 C2223 1.429 . S
C2218 C2210 1.574 . S
C2218 H2213 0.949 . S
C2218 C2224 1.368 . S
C2219 C2203 1.349 . S
C2219 H2211 0.950 . S
C2219 C2217 1.327 . S
C2220 C2208 1.349 . S
C2220 H2214 0.950 . S
C2220 C2221 1.327 . S
C2221 H2215 0.950 . S
C2221 C2220 1.327 . S
C2221 C2225 1.429 . S
C2222 C2205 1.574 . S
C2222 H2216 0.949 . S
C2222 C2226 1.368 . S
C2223 C2204 1.429 . S
C2223 C2217 1.429 . S
C2223 C2224 1.523 . S
C2224 C2205 1.368 . S
C2224 C2218 1.368 . S
C2224 C2223 1.523 . S
C2225 C2209 1.429 . S
C2225 C2221 1.429 . S
C2225 C2226 1.523 . S
C2226 C2210 1.368 . S
C2226 C2222 1.368 . S
C2226 C2225 1.523 . S
H2227 C2202 0.950 . S
H2228 C2204 0.950 . S
H2229 C2205 0.949 . S
H2230 C2207 0.950 . S
H2231 C2209 0.950 . S
C2232 C2233 1.349 . S
C2232 C2234 1.327 . S
C2232 H2257 0.950 . S
C2233 C2232 1.349 . S
C2233 C2249 1.349 . S
C2234 C2232 1.327 . S
C2234 C2253 1.429 . S
C2234 H2258 0.950 . S
C2235 C2252 1.574 . S
C2235 C2254 1.368 1_455 S
C2235 H2259 0.949 . S
H2236 C2240 0.953 . S
C2237 C2238 1.349 . S
C2237 C2239 1.327 . S
C2237 H2260 0.950 . S
C2238 C2237 1.349 . S
C2238 C2250 1.349 . S
C2239 C2237 1.327 . S
C2239 C2255 1.429 . S
C2239 H2261 0.950 . S
C2240 H2236 0.953 . S
C2240 C2248 1.602 . S
C2240 C2256 1.338 1_655 S
H2241 C2249 0.950 . S
H2242 C2247 0.950 . S
H2243 C2248 0.949 . S
H2244 C2250 0.950 . S
H2245 C2251 0.950 . S
H2246 C2252 0.949 . S
C2247 H2242 0.950 . S
C2247 C2249 1.327 . S
C2247 C2253 1.429 . S
C2248 C2240 1.602 . S
C2248 H2243 0.949 . S
C2248 C2254 1.368 . S
C2249 C2233 1.349 . S
C2249 H2241 0.950 . S
C2249 C2247 1.327 . S
C2250 C2238 1.349 . S
C2250 H2244 0.950 . S
C2250 C2251 1.327 . S
C2251 H2245 0.950 . S
C2251 C2250 1.327 . S
C2251 C2255 1.429 . S
C2252 C2235 1.574 . S
C2252 H2246 0.949 . S
C2252 C2256 1.368 . S
C2253 C2234 1.429 . S
C2253 C2247 1.429 . S
C2253 C2254 1.523 . S
C2254 C2235 1.368 1_655 S
C2254 C2248 1.368 . S
C2254 C2253 1.523 . S
C2255 C2239 1.429 . S
C2255 C2251 1.429 . S
C2255 C2256 1.523 . S
C2256 C2240 1.338 1_455 S
C2256 C2252 1.368 . S
C2256 C2255 1.523 . S
H2257 C2232 0.950 . S
H2258 C2234 0.950 . S
H2259 C2235 0.949 . S
H2260 C2237 0.950 . S
H2261 C2239 0.950 . S
C2262 C2263 1.349 . S
C2262 C2264 1.327 . S
C2262 H2287 0.950 . S
C2263 C2262 1.349 . S
C2263 C2279 1.349 . S
C2264 C2262 1.327 . S
C2264 C2283 1.429 . S
C2264 H2288 0.950 . S
C2265 C2282 1.574 . S
C2265 C2284 1.368 . S
C2265 H2289 0.949 . S
H2266 C2270 0.949 . S
C2267 C2268 1.349 . S
C2267 C2269 1.327 . S
C2267 H2290 0.950 . S
C2268 C2267 1.349 . S
C2268 C2280 1.349 . S
C2269 C2267 1.327 . S
C2269 C2285 1.429 . S
C2269 H2291 0.950 . S
C2270 H2266 0.949 . S
C2270 C2278 1.574 1_556 S
C2270 C2286 1.368 1_556 S
H2271 C2279 0.950 . S
H2272 C2277 0.950 . S
H2273 C2278 0.949 . S
H2274 C2280 0.950 . S
H2275 C2281 0.950 . S
H2276 C2282 0.949 . S
C2277 H2272 0.950 . S
C2277 C2279 1.327 . S
C2277 C2283 1.429 . S
C2278 C2270 1.574 1_554 S
C2278 H2273 0.949 . S
C2278 C2284 1.368 . S
C2279 C2263 1.349 . S
C2279 H2271 0.950 . S
C2279 C2277 1.327 . S
C2280 C2268 1.349 . S
C2280 H2274 0.950 . S
C2280 C2281 1.327 . S
C2281 H2275 0.950 . S
C2281 C2280 1.327 . S
C2281 C2285 1.429 . S
C2282 C2265 1.574 . S
C2282 H2276 0.949 . S
C2282 C2286 1.368 . S
C2283 C2264 1.429 . S
C2283 C2277 1.429 . S
C2283 C2284 1.523 . S
C2284 C2265 1.368 . S
C2284 C2278 1.368 . S
C2284 C2283 1.523 . S
C2285 C2269 1.429 . S
C2285 C2281 1.429 . S
C2285 C2286 1.523 1_556 S
C2286 C2270 1.368 1_554 S
C2286 C2282 1.368 . S
C2286 C2285 1.523 1_554 S
H2287 C2262 0.950 . S
H2288 C2264 0.950 . S
H2289 C2265 0.949 . S
H2290 C2267 0.950 . S
H2291 C2269 0.950 . S
C2292 C2293 1.349 . S
C2292 C2294 1.327 . S
C2292 H2317 0.950 . S
C2293 C2292 1.349 . S
C2293 C2309 1.349 . S
C2294 C2292 1.327 . S
C2294 C2313 1.429 . S
C2294 H2318 0.950 . S
C2295 C2312 1.574 . S
C2295 C2314 1.368 . S
C2295 H2319 0.949 . S
H2296 C2300 0.949 . S
C2297 C2298 1.349 . S
C2297 C2299 1.327 . S
C2297 H2320 0.950 . S
C2298 C2297 1.349 . S
C2298 C2310 1.349 . S
C2299 C2297 1.327 . S
C2299 C2315 1.429 . S
C2299 H2321 0.950 . S
C2300 H2296 0.949 . S
C2300 C2308 1.574 . S
C2300 C2316 1.368 . S
H2301 C2309 0.950 . S
H2302 C2307 0.950 . S
H2303 C2308 0.949 . S
H2304 C2310 0.950 . S
H2305 C2311 0.950 . S
H2306 C2312 0.949 . S
C2307 H2302 0.950 . S
C2307 C2309 1.327 . S
C2307 C2313 1.429 . S
C2308 C2300 1.574 . S
C2308 H2303 0.949 . S
C2308 C2314 1.368 . S
C2309 C2293 1.349 . S
C2309 H2301 0.950 . S
C2309 C2307 1.327 . S
C2310 C2298 1.349 . S
C2310 H2304 0.950 . S
C2310 C2311 1.327 . S
C2311 H2305 0.950 . S
C2311 C2310 1.327 . S
C2311 C2315 1.429 . S
C2312 C2295 1.574 . S
C2312 H2306 0.949 . S
C2312 C2316 1.368 . S
C2313 C2294 1.429 . S
C2313 C2307 1.429 . S
C2313 C2314 1.523 . S
C2314 C2295 1.368 . S
C2314 C2308 1.368 . S
C2314 C2313 1.523 . S
C2315 C2299 1.429 . S
C2315 C2311 1.429 . S
C2315 C2316 1.523 . S
C2316 C2300 1.368 . S
C2316 C2312 1.368 . S
C2316 C2315 1.523 . S
H2317 C2292 0.950 . S
H2318 C2294 0.950 . S
H2319 C2295 0.949 . S
H2320 C2297 0.950 . S
H2321 C2299 0.950 . S
C2322 C2323 1.349 . S
C2322 C2324 1.327 . S
C2322 H2347 0.950 . S
C2323 C2322 1.349 . S
C2323 C2339 1.349 . S
C2324 C2322 1.327 . S
C2324 C2343 1.429 . S
C2324 H2348 0.950 . S
C2325 C2342 1.574 . S
C2325 C2344 1.368 . S
C2325 H2349 0.949 . S
H2326 C2330 0.949 . S
C2327 C2328 1.349 . S
C2327 C2329 1.327 . S
C2327 H2350 0.950 . S
C2328 C2327 1.349 . S
C2328 C2340 1.349 . S
C2329 C2327 1.327 . S
C2329 C2345 1.429 . S
C2329 H2351 0.950 . S
C2330 H2326 0.949 . S
C2330 C2338 1.574 . S
C2330 C2346 1.368 . S
H2331 C2339 0.950 . S
H2332 C2337 0.950 . S
H2333 C2338 0.949 . S
H2334 C2340 0.950 . S
H2335 C2341 0.950 . S
H2336 C2342 0.949 . S
C2337 H2332 0.950 . S
C2337 C2339 1.327 . S
C2337 C2343 1.429 . S
C2338 C2330 1.574 . S
C2338 H2333 0.949 . S
C2338 C2344 1.368 . S
C2339 C2323 1.349 . S
C2339 H2331 0.950 . S
C2339 C2337 1.327 . S
C2340 C2328 1.349 . S
C2340 H2334 0.950 . S
C2340 C2341 1.327 . S
C2341 H2335 0.950 . S
C2341 C2340 1.327 . S
C2341 C2345 1.429 . S
C2342 C2325 1.574 . S
C2342 H2336 0.949 . S
C2342 C2346 1.368 . S
C2343 C2324 1.429 . S
C2343 C2337 1.429 . S
C2343 C2344 1.523 . S
C2344 C2325 1.368 . S
C2344 C2338 1.368 . S
C2344 C2343 1.523 . S
C2345 C2329 1.429 . S
C2345 C2341 1.429 . S
C2345 C2346 1.523 . S
C2346 C2330 1.368 . S
C2346 C2342 1.368 . S
C2346 C2345 1.523 . S
H2347 C2322 0.950 . S
H2348 C2324 0.950 . S
H2349 C2325 0.949 . S
H2350 C2327 0.950 . S
H2351 C2329 0.950 . S
C2352 C2353 1.349 . S
C2352 C2354 1.327 . S
C2352 H2377 0.950 . S
C2353 C2352 1.349 . S
C2353 C2369 1.349 . S
C2354 C2352 1.327 . S
C2354 C2373 1.429 . S
C2354 H2378 0.950 . S
C2355 C2372 1.574 . S
C2355 C2374 1.368 . S
C2355 H2379 0.949 . S
H2356 C2360 0.949 . S
C2357 C2358 1.349 . S
C2357 C2359 1.327 . S
C2357 H2380 0.950 . S
C2358 C2357 1.349 . S
C2358 C2370 1.349 . S
C2359 C2357 1.327 . S
C2359 C2375 1.429 . S
C2359 H2381 0.950 . S
C2360 H2356 0.949 . S
C2360 C2368 1.586 . S
C2360 C2376 1.368 . S
H2361 C2369 0.950 . S
H2362 C2367 0.950 . S
H2363 C2368 0.947 . S
H2364 C2370 0.950 . S
H2365 C2371 0.950 . S
H2366 C2372 0.949 . S
C2367 H2362 0.950 . S
C2367 C2369 1.327 . S
C2367 C2373 1.429 . S
C2368 C2360 1.586 . S
C2368 H2363 0.947 . S
C2368 C2374 1.355 1_655 S
C2369 C2353 1.349 . S
C2369 H2361 0.950 . S
C2369 C2367 1.327 . S
C2370 C2358 1.349 . S
C2370 H2364 0.950 . S
C2370 C2371 1.327 . S
C2371 H2365 0.950 . S
C2371 C2370 1.327 . S
C2371 C2375 1.429 . S
C2372 C2355 1.574 . S
C2372 H2366 0.949 . S
C2372 C2376 1.368 1_455 S
C2373 C2354 1.429 . S
C2373 C2367 1.429 . S
C2373 C2374 1.523 . S
C2374 C2355 1.368 . S
C2374 C2368 1.355 1_455 S
C2374 C2373 1.523 . S
C2375 C2359 1.429 . S
C2375 C2371 1.429 . S
C2375 C2376 1.523 . S
C2376 C2360 1.368 . S
C2376 C2372 1.368 1_655 S
C2376 C2375 1.523 . S
H2377 C2352 0.950 . S
H2378 C2354 0.950 . S
H2379 C2355 0.949 . S
H2380 C2357 0.950 . S
H2381 C2359 0.950 . S
C2382 C2383 1.349 . S
C2382 C2384 1.327 . S
C2382 H2407 0.950 . S
C2383 C2382 1.349 . S
C2383 C2399 1.349 . S
C2384 C2382 1.327 . S
C2384 C2403 1.429 . S
C2384 H2408 0.950 . S
C2385 C2402 1.574 . S
C2385 C2404 1.368 . S
C2385 H2409 0.949 . S
H2386 C2390 0.949 1_556 S
C2387 C2388 1.349 . S
C2387 C2389 1.327 . S
C2387 H2410 0.950 . S
C2388 C2387 1.349 . S
C2388 C2400 1.349 . S
C2389 C2387 1.327 . S
C2389 C2405 1.429 . S
C2389 H2411 0.950 . S
C2390 H2386 0.949 1_554 S
C2390 C2398 1.574 . S
C2390 C2406 1.368 . S
H2391 C2399 0.950 . S
H2392 C2397 0.950 . S
H2393 C2398 0.949 . S
H2394 C2400 0.950 . S
H2395 C2401 0.950 . S
H2396 C2402 0.949 . S
C2397 H2392 0.950 . S
C2397 C2399 1.327 . S
C2397 C2403 1.429 . S
C2398 C2390 1.574 . S
C2398 H2393 0.949 . S
C2398 C2404 1.368 . S
C2399 C2383 1.349 . S
C2399 H2391 0.950 . S
C2399 C2397 1.327 . S
C2400 C2388 1.349 . S
C2400 H2394 0.950 . S
C2400 C2401 1.327 . S
C2401 H2395 0.950 . S
C2401 C2400 1.327 . S
C2401 C2405 1.429 . S
C2402 C2385 1.574 . S
C2402 H2396 0.949 . S
C2402 C2406 1.368 . S
C2403 C2384 1.429 . S
C2403 C2397 1.429 . S
C2403 C2404 1.523 . S
C2404 C2385 1.368 . S
C2404 C2398 1.368 . S
C2404 C2403 1.523 . S
C2405 C2389 1.429 . S
C2405 C2401 1.429 . S
C2405 C2406 1.523 1_556 S
C2406 C2390 1.368 . S
C2406 C2402 1.368 . S
C2406 C2405 1.523 1_554 S
H2407 C2382 0.950 . S
H2408 C2384 0.950 . S
H2409 C2385 0.949 . S
H2410 C2387 0.950 . S
H2411 C2389 0.950 . S
C2412 C2413 1.349 . S
C2412 C2414 1.327 . S
C2412 H2437 0.950 . S
C2413 C2412 1.349 . S
C2413 C2429 1.349 . S
C2414 C2412 1.327 . S
C2414 C2433 1.429 . S
C2414 H2438 0.950 . S
C2415 C2432 1.574 . S
C2415 C2434 1.368 . S
C2415 H2439 0.949 . S
H2416 C2420 0.949 . S
C2417 C2418 1.349 . S
C2417 C2419 1.327 . S
C2417 H2440 0.950 . S
C2418 C2417 1.349 . S
C2418 C2430 1.349 . S
C2419 C2417 1.327 . S
C2419 C2435 1.429 . S
C2419 H2441 0.950 . S
C2420 H2416 0.949 . S
C2420 C2428 1.574 . S
C2420 C2436 1.368 . S
H2421 C2429 0.950 . S
H2422 C2427 0.950 . S
H2423 C2428 0.949 . S
H2424 C2430 0.950 . S
H2425 C2431 0.950 . S
H2426 C2432 0.949 . S
C2427 H2422 0.950 . S
C2427 C2429 1.327 . S
C2427 C2433 1.429 . S
C2428 C2420 1.574 . S
C2428 H2423 0.949 . S
C2428 C2434 1.368 . S
C2429 C2413 1.349 . S
C2429 H2421 0.950 . S
C2429 C2427 1.327 . S
C2430 C2418 1.349 . S
C2430 H2424 0.950 . S
C2430 C2431 1.327 . S
C2431 H2425 0.950 . S
C2431 C2430 1.327 . S
C2431 C2435 1.429 . S
C2432 C2415 1.574 . S
C2432 H2426 0.949 . S
C2432 C2436 1.368 . S
C2433 C2414 1.429 . S
C2433 C2427 1.429 . S
C2433 C2434 1.523 . S
C2434 C2415 1.368 . S
C2434 C2428 1.368 . S
C2434 C2433 1.523 . S
C2435 C2419 1.429 . S
C2435 C2431 1.429 . S
C2435 C2436 1.523 . S
C2436 C2420 1.368 . S
C2436 C2432 1.368 . S
C2436 C2435 1.523 . S
H2437 C2412 0.950 . S
H2438 C2414 0.950 . S
H2439 C2415 0.949 . S
H2440 C2417 0.950 . S
H2441 C2419 0.950 . S
C2442 C2443 1.349 . S
C2442 C2444 1.327 . S
C2442 H2467 0.950 . S
C2443 C2442 1.349 . S
C2443 C2459 1.349 . S
C2444 C2442 1.327 . S
C2444 C2463 1.429 . S
C2444 H2468 0.950 . S
C2445 C2462 1.574 . S
C2445 C2464 1.368 . S
C2445 H2469 0.949 . S
H2446 C2450 0.949 . S
C2447 C2448 1.349 . S
C2447 C2449 1.327 . S
C2447 H2470 0.950 . S
C2448 C2447 1.349 . S
C2448 C2460 1.349 . S
C2449 C2447 1.327 . S
C2449 C2465 1.429 . S
C2449 H2471 0.950 . S
C2450 H2446 0.949 . S
C2450 C2458 1.574 . S
C2450 C2466 1.368 . S
H2451 C2459 0.950 . S
H2452 C2457 0.950 . S
H2453 C2458 0.949 . S
H2454 C2460 0.950 . S
H2455 C2461 0.950 . S
H2456 C2462 0.949 . S
C2457 H2452 0.950 . S
C2457 C2459 1.327 . S
C2457 C2463 1.429 . S
C2458 C2450 1.574 . S
C2458 H2453 0.949 . S
C2458 C2464 1.368 . S
C2459 C2443 1.349 . S
C2459 H2451 0.950 . S
C2459 C2457 1.327 . S
C2460 C2448 1.349 . S
C2460 H2454 0.950 . S
C2460 C2461 1.327 . S
C2461 H2455 0.950 . S
C2461 C2460 1.327 . S
C2461 C2465 1.429 . S
C2462 C2445 1.574 . S
C2462 H2456 0.949 . S
C2462 C2466 1.368 . S
C2463 C2444 1.429 . S
C2463 C2457 1.429 . S
C2463 C2464 1.523 . S
C2464 C2445 1.368 . S
C2464 C2458 1.368 . S
C2464 C2463 1.523 . S
C2465 C2449 1.429 . S
C2465 C2461 1.429 . S
C2465 C2466 1.523 . S
C2466 C2450 1.368 . S
C2466 C2462 1.368 . S
C2466 C2465 1.523 . S
H2467 C2442 0.950 . S
H2468 C2444 0.950 . S
H2469 C2445 0.949 . S
H2470 C2447 0.950 . S
H2471 C2449 0.950 . S
C2472 C2473 1.349 . S
C2472 C2474 1.327 . S
C2472 H2497 0.950 . S
C2473 C2472 1.349 . S
C2473 C2489 1.349 . S
C2474 C2472 1.327 . S
C2474 C2493 1.429 . S
C2474 H2498 0.950 . S
C2475 C2492 1.574 . S
C2475 C2494 1.368 . S
C2475 H2499 0.949 . S
H2476 C2480 0.949 . S
C2477 C2478 1.349 . S
C2477 C2479 1.327 . S
C2477 H2500 0.950 . S
C2478 C2477 1.349 . S
C2478 C2490 1.349 . S
C2479 C2477 1.327 . S
C2479 C2495 1.429 . S
C2479 H2501 0.950 . S
C2480 H2476 0.949 . S
C2480 C2488 1.589 . S
C2480 C2496 1.368 . S
H2481 C2489 0.950 . S
H2482 C2487 0.950 . S
H2483 C2488 0.951 . S
H2484 C2490 0.950 . S
H2485 C2491 0.950 . S
H2486 C2492 0.949 . S
C2487 H2482 0.950 . S
C2487 C2489 1.327 . S
C2487 C2493 1.429 . S
C2488 C2480 1.589 . S
C2488 H2483 0.951 . S
C2488 C2494 1.351 1_655 S
C2489 C2473 1.349 . S
C2489 H2481 0.950 . S
C2489 C2487 1.327 . S
C2490 C2478 1.349 . S
C2490 H2484 0.950 . S
C2490 C2491 1.327 . S
C2491 H2485 0.950 . S
C2491 C2490 1.327 . S
C2491 C2495 1.429 . S
C2492 C2475 1.574 . S
C2492 H2486 0.949 . S
C2492 C2496 1.368 1_455 S
C2493 C2474 1.429 . S
C2493 C2487 1.429 . S
C2493 C2494 1.523 . S
C2494 C2475 1.368 . S
C2494 C2488 1.351 1_455 S
C2494 C2493 1.523 . S
C2495 C2479 1.429 . S
C2495 C2491 1.429 . S
C2495 C2496 1.523 . S
C2496 C2480 1.368 . S
C2496 C2492 1.368 1_655 S
C2496 C2495 1.523 . S
H2497 C2472 0.950 . S
H2498 C2474 0.950 . S
H2499 C2475 0.949 . S
H2500 C2477 0.950 . S
H2501 C2479 0.950 . S
C2502 C2503 1.349 . S
C2502 C2504 1.327 1_556 S
C2502 H2527 0.950 . S
C2503 C2502 1.349 . S
C2503 C2519 1.349 . S
C2504 C2502 1.327 1_554 S
C2504 C2523 1.429 . S
C2504 H2528 0.950 . S
C2505 C2522 1.574 . S
C2505 C2524 1.368 . S
C2505 H2529 0.949 . S
H2506 C2510 0.949 . S
C2507 C2508 1.349 . S
C2507 C2509 1.327 . S
C2507 H2530 0.950 . S
C2508 C2507 1.349 . S
C2508 C2520 1.349 . S
C2509 C2507 1.327 . S
C2509 C2525 1.429 . S
C2509 H2531 0.950 . S
C2510 H2506 0.949 . S
C2510 C2518 1.574 . S
C2510 C2526 1.368 . S
H2511 C2519 0.950 . S
H2512 C2517 0.950 . S
H2513 C2518 0.949 . S
H2514 C2520 0.950 . S
H2515 C2521 0.950 . S
H2516 C2522 0.949 . S
C2517 H2512 0.950 . S
C2517 C2519 1.327 . S
C2517 C2523 1.429 1_556 S
C2518 C2510 1.574 . S
C2518 H2513 0.949 . S
C2518 C2524 1.368 . S
C2519 C2503 1.349 . S
C2519 H2511 0.950 . S
C2519 C2517 1.327 . S
C2520 C2508 1.349 . S
C2520 H2514 0.950 . S
C2520 C2521 1.327 . S
C2521 H2515 0.950 . S
C2521 C2520 1.327 . S
C2521 C2525 1.429 . S
C2522 C2505 1.574 . S
C2522 H2516 0.949 . S
C2522 C2526 1.368 . S
C2523 C2504 1.429 . S
C2523 C2517 1.429 1_554 S
C2523 C2524 1.523 . S
C2524 C2505 1.368 . S
C2524 C2518 1.368 . S
C2524 C2523 1.523 . S
C2525 C2509 1.429 . S
C2525 C2521 1.429 . S
C2525 C2526 1.523 . S
C2526 C2510 1.368 . S
C2526 C2522 1.368 . S
C2526 C2525 1.523 . S
H2527 C2502 0.950 . S
H2528 C2504 0.950 . S
H2529 C2505 0.949 . S
H2530 C2507 0.950 . S
H2531 C2509 0.950 . S
C2532 C2533 1.349 . S
C2532 C2534 1.327 . S
C2532 H2557 0.950 . S
C2533 C2532 1.349 . S
C2533 C2549 1.349 . S
C2534 C2532 1.327 . S
C2534 C2553 1.429 . S
C2534 H2558 0.950 . S
C2535 C2552 1.574 . S
C2535 C2554 1.368 . S
C2535 H2559 0.949 . S
H2536 C2540 0.949 . S
C2537 C2538 1.349 . S
C2537 C2539 1.327 . S
C2537 H2560 0.950 . S
C2538 C2537 1.349 . S
C2538 C2550 1.349 . S
C2539 C2537 1.327 . S
C2539 C2555 1.429 . S
C2539 H2561 0.950 . S
C2540 H2536 0.949 . S
C2540 C2548 1.574 . S
C2540 C2556 1.368 . S
H2541 C2549 0.950 . S
H2542 C2547 0.950 . S
H2543 C2548 0.949 . S
H2544 C2550 0.950 . S
H2545 C2551 0.950 . S
H2546 C2552 0.949 . S
C2547 H2542 0.950 . S
C2547 C2549 1.327 . S
C2547 C2553 1.429 . S
C2548 C2540 1.574 . S
C2548 H2543 0.949 . S
C2548 C2554 1.368 . S
C2549 C2533 1.349 . S
C2549 H2541 0.950 . S
C2549 C2547 1.327 . S
C2550 C2538 1.349 . S
C2550 H2544 0.950 . S
C2550 C2551 1.327 . S
C2551 H2545 0.950 . S
C2551 C2550 1.327 . S
C2551 C2555 1.429 . S
C2552 C2535 1.574 . S
C2552 H2546 0.949 . S
C2552 C2556 1.368 . S
C2553 C2534 1.429 . S
C2553 C2547 1.429 . S
C2553 C2554 1.523 . S
C2554 C2535 1.368 . S
C2554 C2548 1.368 . S
C2554 C2553 1.523 . S
C2555 C2539 1.429 . S
C2555 C2551 1.429 . S
C2555 C2556 1.523 . S
C2556 C2540 1.368 . S
C2556 C2552 1.368 . S
C2556 C2555 1.523 . S
H2557 C2532 0.950 . S
H2558 C2534 0.950 . S
H2559 C2535 0.949 . S
H2560 C2537 0.950 . S
H2561 C2539 0.950 . S
C2562 C2563 1.349 . S
C2562 C2564 1.327 . S
C2562 H2587 0.950 . S
C2563 C2562 1.349 . S
C2563 C2579 1.349 . S
C2564 C2562 1.327 . S
C2564 C2583 1.429 . S
C2564 H2588 0.950 . S
C2565 C2582 1.574 . S
C2565 C2584 1.368 . S
C2565 H2589 0.949 . S
H2566 C2570 0.949 . S
C2567 C2568 1.349 . S
C2567 C2569 1.327 . S
C2567 H2590 0.950 . S
C2568 C2567 1.349 . S
C2568 C2580 1.349 . S
C2569 C2567 1.327 . S
C2569 C2585 1.429 . S
C2569 H2591 0.950 . S
C2570 H2566 0.949 . S
C2570 C2578 1.574 . S
C2570 C2586 1.368 . S
H2571 C2579 0.950 . S
H2572 C2577 0.950 . S
H2573 C2578 0.949 . S
H2574 C2580 0.950 . S
H2575 C2581 0.950 . S
H2576 C2582 0.949 . S
C2577 H2572 0.950 . S
C2577 C2579 1.327 . S
C2577 C2583 1.429 . S
C2578 C2570 1.574 . S
C2578 H2573 0.949 . S
C2578 C2584 1.368 . S
C2579 C2563 1.349 . S
C2579 H2571 0.950 . S
C2579 C2577 1.327 . S
C2580 C2568 1.349 . S
C2580 H2574 0.950 . S
C2580 C2581 1.327 . S
C2581 H2575 0.950 . S
C2581 C2580 1.327 . S
C2581 C2585 1.429 . S
C2582 C2565 1.574 . S
C2582 H2576 0.949 . S
C2582 C2586 1.368 . S
C2583 C2564 1.429 . S
C2583 C2577 1.429 . S
C2583 C2584 1.523 . S
C2584 C2565 1.368 . S
C2584 C2578 1.368 . S
C2584 C2583 1.523 . S
C2585 C2569 1.429 . S
C2585 C2581 1.429 . S
C2585 C2586 1.523 . S
C2586 C2570 1.368 . S
C2586 C2582 1.368 . S
C2586 C2585 1.523 . S
H2587 C2562 0.950 . S
H2588 C2564 0.950 . S
H2589 C2565 0.949 . S
H2590 C2567 0.950 . S
H2591 C2569 0.950 . S
C2592 C2593 1.349 . S
C2592 C2594 1.327 . S
C2592 H2617 0.950 . S
C2593 C2592 1.349 . S
C2593 C2609 1.349 . S
C2594 C2592 1.327 . S
C2594 C2613 1.429 . S
C2594 H2618 0.950 . S
C2595 C2612 1.574 . S
C2595 C2614 1.368 . S
C2595 H2619 0.949 . S
H2596 C2600 0.949 . S
C2597 C2598 1.349 . S
C2597 C2599 1.327 . S
C2597 H2620 0.950 . S
C2598 C2597 1.349 . S
C2598 C2610 1.349 . S
C2599 C2597 1.327 . S
C2599 C2615 1.429 . S
C2599 H2621 0.950 . S
C2600 H2596 0.949 . S
C2600 C2608 1.574 . S
C2600 C2616 1.368 . S
H2601 C2609 0.950 . S
H2602 C2607 0.950 . S
H2603 C2608 0.949 . S
H2604 C2610 0.950 . S
H2605 C2611 0.950 . S
H2606 C2612 0.949 . S
C2607 H2602 0.950 . S
C2607 C2609 1.327 . S
C2607 C2613 1.429 . S
C2608 C2600 1.574 . S
C2608 H2603 0.949 . S
C2608 C2614 1.368 . S
C2609 C2593 1.349 . S
C2609 H2601 0.950 . S
C2609 C2607 1.327 . S
C2610 C2598 1.349 . S
C2610 H2604 0.950 . S
C2610 C2611 1.327 . S
C2611 H2605 0.950 . S
C2611 C2610 1.327 . S
C2611 C2615 1.429 . S
C2612 C2595 1.574 . S
C2612 H2606 0.949 . S
C2612 C2616 1.368 . S
C2613 C2594 1.429 . S
C2613 C2607 1.429 . S
C2613 C2614 1.523 . S
C2614 C2595 1.368 . S
C2614 C2608 1.368 . S
C2614 C2613 1.523 . S
C2615 C2599 1.429 . S
C2615 C2611 1.429 . S
C2615 C2616 1.523 . S
C2616 C2600 1.368 . S
C2616 C2612 1.368 . S
C2616 C2615 1.523 . S
H2617 C2592 0.950 . S
H2618 C2594 0.950 . S
H2619 C2595 0.949 . S
H2620 C2597 0.950 . S
H2621 C2599 0.950 . S
C2622 C2623 1.349 . S
C2622 C2624 1.327 . S
C2622 H2647 0.950 . S
C2623 C2622 1.349 . S
C2623 C2639 1.349 . S
C2624 C2622 1.327 . S
C2624 C2643 1.429 . S
C2624 H2648 0.950 . S
C2625 C2642 1.574 . S
C2625 C2644 1.368 . S
C2625 H2649 0.949 . S
H2626 C2630 0.949 . S
C2627 C2628 1.349 . S
C2627 C2629 1.327 . S
C2627 H2650 0.950 . S
C2628 C2627 1.349 . S
C2628 C2640 1.349 . S
C2629 C2627 1.327 . S
C2629 C2645 1.429 . S
C2629 H2651 0.950 . S
C2630 H2626 0.949 . S
C2630 C2638 1.574 . S
C2630 C2646 1.368 . S
H2631 C2639 0.950 . S
H2632 C2637 0.950 . S
H2633 C2638 0.949 . S
H2634 C2640 0.950 . S
H2635 C2641 0.950 . S
H2636 C2642 0.949 . S
C2637 H2632 0.950 . S
C2637 C2639 1.327 . S
C2637 C2643 1.429 . S
C2638 C2630 1.574 . S
C2638 H2633 0.949 . S
C2638 C2644 1.368 . S
C2639 C2623 1.349 . S
C2639 H2631 0.950 . S
C2639 C2637 1.327 . S
C2640 C2628 1.349 . S
C2640 H2634 0.950 . S
C2640 C2641 1.327 . S
C2641 H2635 0.950 . S
C2641 C2640 1.327 . S
C2641 C2645 1.429 . S
C2642 C2625 1.574 . S
C2642 H2636 0.949 . S
C2642 C2646 1.368 . S
C2643 C2624 1.429 . S
C2643 C2637 1.429 . S
C2643 C2644 1.523 . S
C2644 C2625 1.368 . S
C2644 C2638 1.368 . S
C2644 C2643 1.523 . S
C2645 C2629 1.429 . S
C2645 C2641 1.429 . S
C2645 C2646 1.523 . S
C2646 C2630 1.368 . S
C2646 C2642 1.368 . S
C2646 C2645 1.523 . S
H2647 C2622 0.950 . S
H2648 C2624 0.950 . S
H2649 C2625 0.949 . S
H2650 C2627 0.950 . S
H2651 C2629 0.950 . S
C2652 C2653 1.349 . S
C2652 C2654 1.327 . S
C2652 H2677 0.950 . S
C2653 C2652 1.349 . S
C2653 C2669 1.349 . S
C2654 C2652 1.327 . S
C2654 C2673 1.429 . S
C2654 H2678 0.950 . S
C2655 C2672 1.601 . S
C2655 C2674 1.338 1_455 S
C2655 H2679 0.953 . S
H2656 C2660 0.949 . S
C2657 C2658 1.349 . S
C2657 C2659 1.327 . S
C2657 H2680 0.950 . S
C2658 C2657 1.349 . S
C2658 C2670 1.349 . S
C2659 C2657 1.327 . S
C2659 C2675 1.429 . S
C2659 H2681 0.950 . S
C2660 H2656 0.949 . S
C2660 C2668 1.574 . S
C2660 C2676 1.368 1_655 S
H2661 C2669 0.967 . S
H2662 C2667 0.950 . S
H2663 C2668 0.949 . S
H2664 C2670 0.950 . S
H2665 C2671 0.950 . S
H2666 C2672 0.949 . S
C2667 H2662 0.950 . S
C2667 C2669 1.327 . S
C2667 C2673 1.429 . S
C2668 C2660 1.574 . S
C2668 H2663 0.949 . S
C2668 C2674 1.368 . S
C2669 C2653 1.349 . S
C2669 H2661 0.967 . S
C2669 C2667 1.327 . S
C2670 C2658 1.349 . S
C2670 H2664 0.950 . S
C2670 C2671 1.327 . S
C2671 H2665 0.950 . S
C2671 C2670 1.327 . S
C2671 C2675 1.429 . S
C2672 C2655 1.601 . S
C2672 H2666 0.949 . S
C2672 C2676 1.368 . S
C2673 C2654 1.429 . S
C2673 C2667 1.429 . S
C2673 C2674 1.523 . S
C2674 C2655 1.338 1_655 S
C2674 C2668 1.368 . S
C2674 C2673 1.523 . S
C2675 C2659 1.429 . S
C2675 C2671 1.429 . S
C2675 C2676 1.523 . S
C2676 C2660 1.368 1_455 S
C2676 C2672 1.368 . S
C2676 C2675 1.523 . S
H2677 C2652 0.950 . S
H2678 C2654 0.950 . S
H2679 C2655 0.953 . S
H2680 C2657 0.950 . S
H2681 C2659 0.950 . S
C2682 C2683 1.349 . S
C2682 C2684 1.327 1_556 S
C2682 H2707 0.950 . S
C2683 C2682 1.349 . S
C2683 C2699 1.349 . S
C2684 C2682 1.327 1_554 S
C2684 C2703 1.429 . S
C2684 H2708 0.950 . S
C2685 C2702 1.574 . S
C2685 C2704 1.368 . S
C2685 H2709 0.949 . S
H2686 C2690 0.949 . S
C2687 C2688 1.349 . S
C2687 C2689 1.327 . S
C2687 H2710 0.950 . S
C2688 C2687 1.349 . S
C2688 C2700 1.349 . S
C2689 C2687 1.327 . S
C2689 C2705 1.429 . S
C2689 H2711 0.950 . S
C2690 H2686 0.949 . S
C2690 C2698 1.574 . S
C2690 C2706 1.368 . S
H2691 C2699 0.950 . S
H2692 C2697 0.950 . S
H2693 C2698 0.949 . S
H2694 C2700 0.950 . S
H2695 C2701 0.950 . S
H2696 C2702 0.949 . S
C2697 H2692 0.950 . S
C2697 C2699 1.327 . S
C2697 C2703 1.429 1_556 S
C2698 C2690 1.574 . S
C2698 H2693 0.949 . S
C2698 C2704 1.368 . S
C2699 C2683 1.349 . S
C2699 H2691 0.950 . S
C2699 C2697 1.327 . S
C2700 C2688 1.349 . S
C2700 H2694 0.950 . S
C2700 C2701 1.327 . S
C2701 H2695 0.950 . S
C2701 C2700 1.327 . S
C2701 C2705 1.429 . S
C2702 C2685 1.574 . S
C2702 H2696 0.949 . S
C2702 C2706 1.368 . S
C2703 C2684 1.429 . S
C2703 C2697 1.429 1_554 S
C2703 C2704 1.523 . S
C2704 C2685 1.368 . S
C2704 C2698 1.368 . S
C2704 C2703 1.523 . S
C2705 C2689 1.429 . S
C2705 C2701 1.429 . S
C2705 C2706 1.523 . S
C2706 C2690 1.368 . S
C2706 C2702 1.368 . S
C2706 C2705 1.523 . S
H2707 C2682 0.950 . S
H2708 C2684 0.950 . S
H2709 C2685 0.949 . S
H2710 C2687 0.950 . S
H2711 C2689 0.950 . S
C2712 C2713 1.349 . S
C2712 C2714 1.327 . S
C2712 H2737 0.950 . S
C2713 C2712 1.349 . S
C2713 C2729 1.349 . S
C2714 C2712 1.327 . S
C2714 C2733 1.429 . S
C2714 H2738 0.950 . S
C2715 C2732 1.574 . S
C2715 C2734 1.368 . S
C2715 H2739 0.949 . S
H2716 C2720 0.949 . S
C2717 C2718 1.349 . S
C2717 C2719 1.327 . S
C2717 H2740 0.950 . S
C2718 C2717 1.349 . S
C2718 C2730 1.349 . S
C2719 C2717 1.327 . S
C2719 C2735 1.429 . S
C2719 H2741 0.950 . S
C2720 H2716 0.949 . S
C2720 C2728 1.574 . S
C2720 C2736 1.368 . S
H2721 C2729 0.950 . S
H2722 C2727 0.950 . S
H2723 C2728 0.949 . S
H2724 C2730 0.950 . S
H2725 C2731 0.950 . S
H2726 C2732 0.949 . S
C2727 H2722 0.950 . S
C2727 C2729 1.327 . S
C2727 C2733 1.429 . S
C2728 C2720 1.574 . S
C2728 H2723 0.949 . S
C2728 C2734 1.368 . S
C2729 C2713 1.349 . S
C2729 H2721 0.950 . S
C2729 C2727 1.327 . S
C2730 C2718 1.349 . S
C2730 H2724 0.950 . S
C2730 C2731 1.327 . S
C2731 H2725 0.950 . S
C2731 C2730 1.327 . S
C2731 C2735 1.429 . S
C2732 C2715 1.574 . S
C2732 H2726 0.949 . S
C2732 C2736 1.368 . S
C2733 C2714 1.429 . S
C2733 C2727 1.429 . S
C2733 C2734 1.523 . S
C2734 C2715 1.368 . S
C2734 C2728 1.368 . S
C2734 C2733 1.523 . S
C2735 C2719 1.429 . S
C2735 C2731 1.429 . S
C2735 C2736 1.523 . S
C2736 C2720 1.368 . S
C2736 C2732 1.368 . S
C2736 C2735 1.523 . S
H2737 C2712 0.950 . S
H2738 C2714 0.950 . S
H2739 C2715 0.949 . S
H2740 C2717 0.950 . S
H2741 C2719 0.950 . S
C2742 C2743 1.349 . S
C2742 C2744 1.327 . S
C2742 H2767 0.950 . S
C2743 C2742 1.349 . S
C2743 C2759 1.349 . S
C2744 C2742 1.327 . S
C2744 C2763 1.429 . S
C2744 H2768 0.950 . S
C2745 C2762 1.574 . S
C2745 C2764 1.368 . S
C2745 H2769 0.949 . S
H2746 C2750 0.949 . S
C2747 C2748 1.349 . S
C2747 C2749 1.327 . S
C2747 H2770 0.950 . S
C2748 C2747 1.349 . S
C2748 C2760 1.349 . S
C2749 C2747 1.327 . S
C2749 C2765 1.429 . S
C2749 H2771 0.950 . S
C2750 H2746 0.949 . S
C2750 C2758 1.574 . S
C2750 C2766 1.368 . S
H2751 C2759 0.950 . S
H2752 C2757 0.950 . S
H2753 C2758 0.949 . S
H2754 C2760 0.950 . S
H2755 C2761 0.950 . S
H2756 C2762 0.949 . S
C2757 H2752 0.950 . S
C2757 C2759 1.327 . S
C2757 C2763 1.429 . S
C2758 C2750 1.574 . S
C2758 H2753 0.949 . S
C2758 C2764 1.368 . S
C2759 C2743 1.349 . S
C2759 H2751 0.950 . S
C2759 C2757 1.327 . S
C2760 C2748 1.349 . S
C2760 H2754 0.950 . S
C2760 C2761 1.327 . S
C2761 H2755 0.950 . S
C2761 C2760 1.327 . S
C2761 C2765 1.429 . S
C2762 C2745 1.574 . S
C2762 H2756 0.949 . S
C2762 C2766 1.368 . S
C2763 C2744 1.429 . S
C2763 C2757 1.429 . S
C2763 C2764 1.523 . S
C2764 C2745 1.368 . S
C2764 C2758 1.368 . S
C2764 C2763 1.523 . S
C2765 C2749 1.429 . S
C2765 C2761 1.429 . S
C2765 C2766 1.523 . S
C2766 C2750 1.368 . S
C2766 C2762 1.368 . S
C2766 C2765 1.523 . S
H2767 C2742 0.950 . S
H2768 C2744 0.950 . S
H2769 C2745 0.949 . S
H2770 C2747 0.950 . S
H2771 C2749 0.950 . S
C2772 C2773 1.349 . S
C2772 C2774 1.327 . S
C2772 H2797 0.950 . S
C2773 C2772 1.349 . S
C2773 C2789 1.349 . S
C2774 C2772 1.327 . S
C2774 C2793 1.429 . S
C2774 H2798 0.950 . S
C2775 C2792 1.574 . S
C2775 C2794 1.368 1_655 S
C2775 H2799 0.949 . S
H2776 C2780 0.953 . S
C2777 C2778 1.349 . S
C2777 C2779 1.327 . S
C2777 H2800 0.950 . S
C2778 C2777 1.349 . S
C2778 C2790 1.349 . S
C2779 C2777 1.327 . S
C2779 C2795 1.429 . S
C2779 H2801 0.950 . S
C2780 H2776 0.953 . S
C2780 C2788 1.602 . S
C2780 C2796 1.337 1_455 S
H2781 C2789 0.950 . S
H2782 C2787 0.950 . S
H2783 C2788 0.949 . S
H2784 C2790 0.950 . S
H2785 C2791 0.950 . S
H2786 C2792 0.949 . S
C2787 H2782 0.950 . S
C2787 C2789 1.327 . S
C2787 C2793 1.429 . S
C2788 C2780 1.602 . S
C2788 H2783 0.949 . S
C2788 C2794 1.368 . S
C2789 C2773 1.349 . S
C2789 H2781 0.950 . S
C2789 C2787 1.327 . S
C2790 C2778 1.349 . S
C2790 H2784 0.950 . S
C2790 C2791 1.327 . S
C2791 H2785 0.950 . S
C2791 C2790 1.327 . S
C2791 C2795 1.429 . S
C2792 C2775 1.574 . S
C2792 H2786 0.949 . S
C2792 C2796 1.368 . S
C2793 C2774 1.429 . S
C2793 C2787 1.429 . S
C2793 C2794 1.523 . S
C2794 C2775 1.368 1_455 S
C2794 C2788 1.368 . S
C2794 C2793 1.523 . S
C2795 C2779 1.429 . S
C2795 C2791 1.429 . S
C2795 C2796 1.523 . S
C2796 C2780 1.337 1_655 S
C2796 C2792 1.368 . S
C2796 C2795 1.523 . S
H2797 C2772 0.950 . S
H2798 C2774 0.950 . S
H2799 C2775 0.949 . S
H2800 C2777 0.950 . S
H2801 C2779 0.950 . S
C2802 C2803 1.349 . S
C2802 C2804 1.327 . S
C2802 H2827 0.950 . S
C2803 C2802 1.349 . S
C2803 C2819 1.349 . S
C2804 C2802 1.327 . S
C2804 C2823 1.429 . S
C2804 H2828 0.950 . S
C2805 C2822 1.574 1_554 S
C2805 C2824 1.368 . S
C2805 H2829 0.949 . S
H2806 C2810 0.949 . S
C2807 C2808 1.349 . S
C2807 C2809 1.327 . S
C2807 H2830 0.950 . S
C2808 C2807 1.349 . S
C2808 C2820 1.349 . S
C2809 C2807 1.327 . S
C2809 C2825 1.429 . S
C2809 H2831 0.950 . S
C2810 H2806 0.949 . S
C2810 C2818 1.574 . S
C2810 C2826 1.368 . S
H2811 C2819 0.950 . S
H2812 C2817 0.950 . S
H2813 C2818 0.949 . S
H2814 C2820 0.950 . S
H2815 C2821 0.950 . S
H2816 C2822 0.949 . S
C2817 H2812 0.950 . S
C2817 C2819 1.327 . S
C2817 C2823 1.429 . S
C2818 C2810 1.574 . S
C2818 H2813 0.949 . S
C2818 C2824 1.368 . S
C2819 C2803 1.349 . S
C2819 H2811 0.950 . S
C2819 C2817 1.327 . S
C2820 C2808 1.349 . S
C2820 H2814 0.950 . S
C2820 C2821 1.327 . S
C2821 H2815 0.950 . S
C2821 C2820 1.327 . S
C2821 C2825 1.429 . S
C2822 C2805 1.574 1_556 S
C2822 H2816 0.949 . S
C2822 C2826 1.368 1_556 S
C2823 C2804 1.429 . S
C2823 C2817 1.429 . S
C2823 C2824 1.523 . S
C2824 C2805 1.368 . S
C2824 C2818 1.368 . S
C2824 C2823 1.523 . S
C2825 C2809 1.429 . S
C2825 C2821 1.429 . S
C2825 C2826 1.523 1_556 S
C2826 C2810 1.368 . S
C2826 C2822 1.368 1_554 S
C2826 C2825 1.523 1_554 S
H2827 C2802 0.950 . S
H2828 C2804 0.950 . S
H2829 C2805 0.949 . S
H2830 C2807 0.950 . S
H2831 C2809 0.950 . S
C2832 C2833 1.349 . S
C2832 C2834 1.327 . S
C2832 H2857 0.950 . S
C2833 C2832 1.349 . S
C2833 C2849 1.349 . S
C2834 C2832 1.327 . S
C2834 C2853 1.429 . S
C2834 H2858 0.950 . S
C2835 C2852 1.574 . S
C2835 C2854 1.368 . S
C2835 H2859 0.949 . S
H2836 C2840 0.949 . S
C2837 C2838 1.349 . S
C2837 C2839 1.327 . S
C2837 H2860 0.950 . S
C2838 C2837 1.349 . S
C2838 C2850 1.349 . S
C2839 C2837 1.327 . S
C2839 C2855 1.429 . S
C2839 H2861 0.950 . S
C2840 H2836 0.949 . S
C2840 C2848 1.574 . S
C2840 C2856 1.368 . S
H2841 C2849 0.950 . S
H2842 C2847 0.950 . S
H2843 C2848 0.949 . S
H2844 C2850 0.950 . S
H2845 C2851 0.950 . S
H2846 C2852 0.949 . S
C2847 H2842 0.950 . S
C2847 C2849 1.327 . S
C2847 C2853 1.429 . S
C2848 C2840 1.574 . S
C2848 H2843 0.949 . S
C2848 C2854 1.368 . S
C2849 C2833 1.349 . S
C2849 H2841 0.950 . S
C2849 C2847 1.327 . S
C2850 C2838 1.349 . S
C2850 H2844 0.950 . S
C2850 C2851 1.327 . S
C2851 H2845 0.950 . S
C2851 C2850 1.327 . S
C2851 C2855 1.429 . S
C2852 C2835 1.574 . S
C2852 H2846 0.949 . S
C2852 C2856 1.368 . S
C2853 C2834 1.429 . S
C2853 C2847 1.429 . S
C2853 C2854 1.523 . S
C2854 C2835 1.368 . S
C2854 C2848 1.368 . S
C2854 C2853 1.523 . S
C2855 C2839 1.429 . S
C2855 C2851 1.429 . S
C2855 C2856 1.523 . S
C2856 C2840 1.368 . S
C2856 C2852 1.368 . S
C2856 C2855 1.523 . S
H2857 C2832 0.950 . S
H2858 C2834 0.950 . S
H2859 C2835 0.949 . S
H2860 C2837 0.950 . S
H2861 C2839 0.950 . S
C2862 C2863 1.349 . S
C2862 C2864 1.327 . S
C2862 H2887 0.950 . S
C2863 C2862 1.349 . S
C2863 C2879 1.349 . S
C2864 C2862 1.327 . S
C2864 C2883 1.429 . S
C2864 H2888 0.950 . S
C2865 C2882 1.574 . S
C2865 C2884 1.368 . S
C2865 H2889 0.949 . S
H2866 C2870 0.949 . S
C2867 C2868 1.349 . S
C2867 C2869 1.327 . S
C2867 H2890 0.950 . S
C2868 C2867 1.349 . S
C2868 C2880 1.349 . S
C2869 C2867 1.327 . S
C2869 C2885 1.429 . S
C2869 H2891 0.950 . S
C2870 H2866 0.949 . S
C2870 C2878 1.574 . S
C2870 C2886 1.368 . S
H2871 C2879 0.950 . S
H2872 C2877 0.950 . S
H2873 C2878 0.949 . S
H2874 C2880 0.950 . S
H2875 C2881 0.950 . S
H2876 C2882 0.949 . S
C2877 H2872 0.950 . S
C2877 C2879 1.327 . S
C2877 C2883 1.429 . S
C2878 C2870 1.574 . S
C2878 H2873 0.949 . S
C2878 C2884 1.368 . S
C2879 C2863 1.349 . S
C2879 H2871 0.950 . S
C2879 C2877 1.327 . S
C2880 C2868 1.349 . S
C2880 H2874 0.950 . S
C2880 C2881 1.327 . S
C2881 H2875 0.950 . S
C2881 C2880 1.327 . S
C2881 C2885 1.429 . S
C2882 C2865 1.574 . S
C2882 H2876 0.949 . S
C2882 C2886 1.368 . S
C2883 C2864 1.429 . S
C2883 C2877 1.429 . S
C2883 C2884 1.523 . S
C2884 C2865 1.368 . S
C2884 C2878 1.368 . S
C2884 C2883 1.523 . S
C2885 C2869 1.429 . S
C2885 C2881 1.429 . S
C2885 C2886 1.523 . S
C2886 C2870 1.368 . S
C2886 C2882 1.368 . S
C2886 C2885 1.523 . S
H2887 C2862 0.950 . S
H2888 C2864 0.950 . S
H2889 C2865 0.949 . S
H2890 C2867 0.950 . S
H2891 C2869 0.950 . S
C2892 C2893 1.349 . S
C2892 C2894 1.327 . S
C2892 H2917 0.950 . S
C2893 C2892 1.349 . S
C2893 C2909 1.349 . S
C2894 C2892 1.327 . S
C2894 C2913 1.429 . S
C2894 H2918 0.950 . S
C2895 C2912 1.574 . S
C2895 C2914 1.368 1_655 S
C2895 H2919 0.949 . S
H2896 C2900 0.948 . S
C2897 C2898 1.349 . S
C2897 C2899 1.327 . S
C2897 H2920 0.950 . S
C2898 C2897 1.349 . S
C2898 C2910 1.349 . S
C2899 C2897 1.327 . S
C2899 C2915 1.429 . S
C2899 H2921 0.950 . S
C2900 H2896 0.948 . S
C2900 C2908 1.575 . S
C2900 C2916 1.367 1_455 S
H2901 C2909 0.950 . S
H2902 C2907 0.950 . S
H2903 C2908 0.949 . S
H2904 C2910 0.950 . S
H2905 C2911 0.950 . S
H2906 C2912 0.949 . S
C2907 H2902 0.950 . S
C2907 C2909 1.327 . S
C2907 C2913 1.429 . S
C2908 C2900 1.575 . S
C2908 H2903 0.949 . S
C2908 C2914 1.368 . S
C2909 C2893 1.349 . S
C2909 H2901 0.950 . S
C2909 C2907 1.327 . S
C2910 C2898 1.349 . S
C2910 H2904 0.950 . S
C2910 C2911 1.327 . S
C2911 H2905 0.950 . S
C2911 C2910 1.327 . S
C2911 C2915 1.429 . S
C2912 C2895 1.574 . S
C2912 H2906 0.949 . S
C2912 C2916 1.368 . S
C2913 C2894 1.429 . S
C2913 C2907 1.429 . S
C2913 C2914 1.523 . S
C2914 C2895 1.368 1_455 S
C2914 C2908 1.368 . S
C2914 C2913 1.523 . S
C2915 C2899 1.429 . S
C2915 C2911 1.429 . S
C2915 C2916 1.523 . S
C2916 C2900 1.367 1_655 S
C2916 C2912 1.368 . S
C2916 C2915 1.523 . S
H2917 C2892 0.950 . S
H2918 C2894 0.950 . S
H2919 C2895 0.949 . S
H2920 C2897 0.950 . S
H2921 C2899 0.950 . S
C2922 C2923 1.349 . S
C2922 C2924 1.327 . S
C2922 H2947 0.950 . S
C2923 C2922 1.349 . S
C2923 C2939 1.349 . S
C2924 C2922 1.327 . S
C2924 C2943 1.429 . S
C2924 H2948 0.950 . S
C2925 C2942 1.574 . S
C2925 C2944 1.368 . S
C2925 H2949 0.949 . S
H2926 C2930 0.949 . S
C2927 C2928 1.349 . S
C2927 C2929 1.327 . S
C2927 H2950 0.950 . S
C2928 C2927 1.349 . S
C2928 C2940 1.349 . S
C2929 C2927 1.327 . S
C2929 C2945 1.429 . S
C2929 H2951 0.950 . S
C2930 H2926 0.949 . S
C2930 C2938 1.574 . S
C2930 C2946 1.368 . S
H2931 C2939 0.950 . S
H2932 C2937 0.950 . S
H2933 C2938 0.949 . S
H2934 C2940 0.950 . S
H2935 C2941 0.950 . S
H2936 C2942 0.949 . S
C2937 H2932 0.950 . S
C2937 C2939 1.327 . S
C2937 C2943 1.429 . S
C2938 C2930 1.574 . S
C2938 H2933 0.949 . S
C2938 C2944 1.368 . S
C2939 C2923 1.349 . S
C2939 H2931 0.950 . S
C2939 C2937 1.327 . S
C2940 C2928 1.349 . S
C2940 H2934 0.950 . S
C2940 C2941 1.327 . S
C2941 H2935 0.950 . S
C2941 C2940 1.327 . S
C2941 C2945 1.429 . S
C2942 C2925 1.574 . S
C2942 H2936 0.949 . S
C2942 C2946 1.368 . S
C2943 C2924 1.429 . S
C2943 C2937 1.429 . S
C2943 C2944 1.523 1_556 S
C2944 C2925 1.368 . S
C2944 C2938 1.368 . S
C2944 C2943 1.523 1_554 S
C2945 C2929 1.429 . S
C2945 C2941 1.429 . S
C2945 C2946 1.523 . S
C2946 C2930 1.368 . S
C2946 C2942 1.368 . S
C2946 C2945 1.523 . S
H2947 C2922 0.950 . S
H2948 C2924 0.950 . S
H2949 C2925 0.949 . S
H2950 C2927 0.950 . S
H2951 C2929 0.950 . S
C2952 C2953 1.349 . S
C2952 C2954 1.327 . S
C2952 H2977 0.950 . S
C2953 C2952 1.349 . S
C2953 C2969 1.349 . S
C2954 C2952 1.327 . S
C2954 C2973 1.429 . S
C2954 H2978 0.950 . S
C2955 C2972 1.574 . S
C2955 C2974 1.368 . S
C2955 H2979 0.949 . S
H2956 C2960 0.949 . S
C2957 C2958 1.349 . S
C2957 C2959 1.327 . S
C2957 H2980 0.950 . S
C2958 C2957 1.349 . S
C2958 C2970 1.349 . S
C2959 C2957 1.327 . S
C2959 C2975 1.429 . S
C2959 H2981 0.950 . S
C2960 H2956 0.949 . S
C2960 C2968 1.574 . S
C2960 C2976 1.368 . S
H2961 C2969 0.950 . S
H2962 C2967 0.950 . S
H2963 C2968 0.949 . S
H2964 C2970 0.950 1_554 S
H2965 C2971 0.950 . S
H2966 C2972 0.949 . S
C2967 H2962 0.950 . S
C2967 C2969 1.327 . S
C2967 C2973 1.429 . S
C2968 C2960 1.574 . S
C2968 H2963 0.949 . S
C2968 C2974 1.368 . S
C2969 C2953 1.349 . S
C2969 H2961 0.950 . S
C2969 C2967 1.327 . S
C2970 C2958 1.349 . S
C2970 H2964 0.950 1_556 S
C2970 C2971 1.327 . S
C2971 H2965 0.950 . S
C2971 C2970 1.327 . S
C2971 C2975 1.429 . S
C2972 C2955 1.574 . S
C2972 H2966 0.949 . S
C2972 C2976 1.368 . S
C2973 C2954 1.429 . S
C2973 C2967 1.429 . S
C2973 C2974 1.523 . S
C2974 C2955 1.368 . S
C2974 C2968 1.368 . S
C2974 C2973 1.523 . S
C2975 C2959 1.429 . S
C2975 C2971 1.429 . S
C2975 C2976 1.523 . S
C2976 C2960 1.368 . S
C2976 C2972 1.368 . S
C2976 C2975 1.523 . S
H2977 C2952 0.950 . S
H2978 C2954 0.950 . S
H2979 C2955 0.949 . S
H2980 C2957 0.950 . S
H2981 C2959 0.950 . S
C2982 C2983 1.349 . S
C2982 C2984 1.327 . S
C2982 H3007 0.950 . S
C2983 C2982 1.349 . S
C2983 C2999 1.349 . S
C2984 C2982 1.327 . S
C2984 C3003 1.429 . S
C2984 H3008 0.950 . S
C2985 C3002 1.574 . S
C2985 C3004 1.368 . S
C2985 H3009 0.949 . S
H2986 C2990 0.949 . S
C2987 C2988 1.349 . S
C2987 C2989 1.327 . S
C2987 H3010 0.950 . S
C2988 C2987 1.349 . S
C2988 C3000 1.349 . S
C2989 C2987 1.327 . S
C2989 C3005 1.429 . S
C2989 H3011 0.950 . S
C2990 H2986 0.949 . S
C2990 C2998 1.574 . S
C2990 C3006 1.368 . S
H2991 C2999 0.950 . S
H2992 C2997 0.950 . S
H2993 C2998 0.949 . S
H2994 C3000 0.950 . S
H2995 C3001 0.950 . S
H2996 C3002 0.949 . S
C2997 H2992 0.950 . S
C2997 C2999 1.327 . S
C2997 C3003 1.429 . S
C2998 C2990 1.574 . S
C2998 H2993 0.949 . S
C2998 C3004 1.368 . S
C2999 C2983 1.349 . S
C2999 H2991 0.950 . S
C2999 C2997 1.327 . S
C3000 C2988 1.349 . S
C3000 H2994 0.950 . S
C3000 C3001 1.327 . S
C3001 H2995 0.950 . S
C3001 C3000 1.327 . S
C3001 C3005 1.429 . S
C3002 C2985 1.574 . S
C3002 H2996 0.949 . S
C3002 C3006 1.368 . S
C3003 C2984 1.429 . S
C3003 C2997 1.429 . S
C3003 C3004 1.523 . S
C3004 C2985 1.368 . S
C3004 C2998 1.368 . S
C3004 C3003 1.523 . S
C3005 C2989 1.429 . S
C3005 C3001 1.429 . S
C3005 C3006 1.523 . S
C3006 C2990 1.368 . S
C3006 C3002 1.368 . S
C3006 C3005 1.523 . S
H3007 C2982 0.950 . S
H3008 C2984 0.950 . S
H3009 C2985 0.949 . S
H3010 C2987 0.950 . S
H3011 C2989 0.950 . S
C3012 C3013 1.349 . S
C3012 C3014 1.327 . S
C3012 H3037 0.950 . S
C3013 C3012 1.349 . S
C3013 C3029 1.349 . S
C3014 C3012 1.327 . S
C3014 C3033 1.429 . S
C3014 H3038 0.950 . S
C3015 C3032 1.574 . S
C3015 C3034 1.368 1_655 S
C3015 H3039 0.949 . S
H3016 C3020 0.947 . S
C3017 C3018 1.349 . S
C3017 C3019 1.327 . S
C3017 H3040 0.950 . S
C3018 C3017 1.349 . S
C3018 C3030 1.349 . S
C3019 C3017 1.327 . S
C3019 C3035 1.429 . S
C3019 H3041 0.950 . S
C3020 H3016 0.947 . S
C3020 C3028 1.585 . S
C3020 C3036 1.356 1_455 S
H3021 C3029 0.950 . S
H3022 C3027 0.950 . S
H3023 C3028 0.949 . S
H3024 C3030 0.950 . S
H3025 C3031 0.950 . S
H3026 C3032 0.949 . S
C3027 H3022 0.950 . S
C3027 C3029 1.327 . S
C3027 C3033 1.429 . S
C3028 C3020 1.585 . S
C3028 H3023 0.949 . S
C3028 C3034 1.368 . S
C3029 C3013 1.349 . S
C3029 H3021 0.950 . S
C3029 C3027 1.327 . S
C3030 C3018 1.349 . S
C3030 H3024 0.950 . S
C3030 C3031 1.327 . S
C3031 H3025 0.950 . S
C3031 C3030 1.327 . S
C3031 C3035 1.429 . S
C3032 C3015 1.574 . S
C3032 H3026 0.949 . S
C3032 C3036 1.368 . S
C3033 C3014 1.429 . S
C3033 C3027 1.429 . S
C3033 C3034 1.523 . S
C3034 C3015 1.368 1_455 S
C3034 C3028 1.368 . S
C3034 C3033 1.523 . S
C3035 C3019 1.429 . S
C3035 C3031 1.429 . S
C3035 C3036 1.523 . S
C3036 C3020 1.356 1_655 S
C3036 C3032 1.368 . S
C3036 C3035 1.523 . S
H3037 C3012 0.950 . S
H3038 C3014 0.950 . S
H3039 C3015 0.949 . S
H3040 C3017 0.950 . S
H3041 C3019 0.950 . S
C3042 C3043 1.349 . S
C3042 C3044 1.327 1_556 S
C3042 H3067 0.950 . S
C3043 C3042 1.349 . S
C3043 C3059 1.349 . S
C3044 C3042 1.327 1_554 S
C3044 C3063 1.429 . S
C3044 H3068 0.950 . S
C3045 C3062 1.574 . S
C3045 C3064 1.368 . S
C3045 H3069 0.949 . S
H3046 C3050 0.949 . S
C3047 C3048 1.349 . S
C3047 C3049 1.327 . S
C3047 H3070 0.950 . S
C3048 C3047 1.349 . S
C3048 C3060 1.349 . S
C3049 C3047 1.327 . S
C3049 C3065 1.429 . S
C3049 H3071 0.950 . S
C3050 H3046 0.949 . S
C3050 C3058 1.574 . S
C3050 C3066 1.368 . S
H3051 C3059 0.950 . S
H3052 C3057 0.950 . S
H3053 C3058 0.949 . S
H3054 C3060 0.950 . S
H3055 C3061 0.950 . S
H3056 C3062 0.949 . S
C3057 H3052 0.950 . S
C3057 C3059 1.327 . S
C3057 C3063 1.429 1_556 S
C3058 C3050 1.574 . S
C3058 H3053 0.949 . S
C3058 C3064 1.368 . S
C3059 C3043 1.349 . S
C3059 H3051 0.950 . S
C3059 C3057 1.327 . S
C3060 C3048 1.349 . S
C3060 H3054 0.950 . S
C3060 C3061 1.327 . S
C3061 H3055 0.950 . S
C3061 C3060 1.327 . S
C3061 C3065 1.429 . S
C3062 C3045 1.574 . S
C3062 H3056 0.949 . S
C3062 C3066 1.368 . S
C3063 C3044 1.429 . S
C3063 C3057 1.429 1_554 S
C3063 C3064 1.523 . S
C3064 C3045 1.368 . S
C3064 C3058 1.368 . S
C3064 C3063 1.523 . S
C3065 C3049 1.429 . S
C3065 C3061 1.429 . S
C3065 C3066 1.523 . S
C3066 C3050 1.368 . S
C3066 C3062 1.368 . S
C3066 C3065 1.523 . S
H3067 C3042 0.950 . S
H3068 C3044 0.950 . S
H3069 C3045 0.949 . S
H3070 C3047 0.950 . S
H3071 C3049 0.950 . S
C3072 C3073 1.349 . S
C3072 C3074 1.327 . S
C3072 H3097 0.950 . S
C3073 C3072 1.349 . S
C3073 C3089 1.349 . S
C3074 C3072 1.327 . S
C3074 C3093 1.429 . S
C3074 H3098 0.950 . S
C3075 C3092 1.574 . S
C3075 C3094 1.368 . S
C3075 H3099 0.949 . S
H3076 C3080 0.949 . S
C3077 C3078 1.349 . S
C3077 C3079 1.327 . S
C3077 H3100 0.950 . S
C3078 C3077 1.349 . S
C3078 C3090 1.349 . S
C3079 C3077 1.327 . S
C3079 C3095 1.429 . S
C3079 H3101 0.950 . S
C3080 H3076 0.949 . S
C3080 C3088 1.574 . S
C3080 C3096 1.368 . S
H3081 C3089 0.950 . S
H3082 C3087 0.950 . S
H3083 C3088 0.949 . S
H3084 C3090 0.950 . S
H3085 C3091 0.950 . S
H3086 C3092 0.949 . S
C3087 H3082 0.950 . S
C3087 C3089 1.327 . S
C3087 C3093 1.429 . S
C3088 C3080 1.574 . S
C3088 H3083 0.949 . S
C3088 C3094 1.368 . S
C3089 C3073 1.349 . S
C3089 H3081 0.950 . S
C3089 C3087 1.327 . S
C3090 C3078 1.349 . S
C3090 H3084 0.950 . S
C3090 C3091 1.327 . S
C3091 H3085 0.950 . S
C3091 C3090 1.327 . S
C3091 C3095 1.429 . S
C3092 C3075 1.574 . S
C3092 H3086 0.949 . S
C3092 C3096 1.368 . S
C3093 C3074 1.429 . S
C3093 C3087 1.429 . S
C3093 C3094 1.523 . S
C3094 C3075 1.368 . S
C3094 C3088 1.368 . S
C3094 C3093 1.523 . S
C3095 C3079 1.429 . S
C3095 C3091 1.429 . S
C3095 C3096 1.523 . S
C3096 C3080 1.368 . S
C3096 C3092 1.368 . S
C3096 C3095 1.523 . S
H3097 C3072 0.950 . S
H3098 C3074 0.950 . S
H3099 C3075 0.949 . S
H3100 C3077 0.950 . S
H3101 C3079 0.950 . S
C3102 C3103 1.349 . S
C3102 C3104 1.327 . S
C3102 H3127 0.950 . S
C3103 C3102 1.349 . S
C3103 C3119 1.349 . S
C3104 C3102 1.327 . S
C3104 C3123 1.429 . S
C3104 H3128 0.950 . S
C3105 C3122 1.574 . S
C3105 C3124 1.368 . S
C3105 H3129 0.949 . S
H3106 C3110 0.949 . S
C3107 C3108 1.349 . S
C3107 C3109 1.327 . S
C3107 H3130 0.950 . S
C3108 C3107 1.349 . S
C3108 C3120 1.349 . S
C3109 C3107 1.327 . S
C3109 C3125 1.429 . S
C3109 H3131 0.950 . S
C3110 H3106 0.949 . S
C3110 C3118 1.574 . S
C3110 C3126 1.368 . S
H3111 C3119 0.950 . S
H3112 C3117 0.950 1_554 S
H3113 C3118 0.949 . S
H3114 C3120 0.950 . S
H3115 C3121 0.950 . S
H3116 C3122 0.949 . S
C3117 H3112 0.950 1_556 S
C3117 C3119 1.327 . S
C3117 C3123 1.429 . S
C3118 C3110 1.574 . S
C3118 H3113 0.949 . S
C3118 C3124 1.368 . S
C3119 C3103 1.349 . S
C3119 H3111 0.950 . S
C3119 C3117 1.327 . S
C3120 C3108 1.349 . S
C3120 H3114 0.950 . S
C3120 C3121 1.327 . S
C3121 H3115 0.950 . S
C3121 C3120 1.327 . S
C3121 C3125 1.429 . S
C3122 C3105 1.574 . S
C3122 H3116 0.949 . S
C3122 C3126 1.368 . S
C3123 C3104 1.429 . S
C3123 C3117 1.429 . S
C3123 C3124 1.523 1_556 S
C3124 C3105 1.368 . S
C3124 C3118 1.368 . S
C3124 C3123 1.523 1_554 S
C3125 C3109 1.429 . S
C3125 C3121 1.429 . S
C3125 C3126 1.523 . S
C3126 C3110 1.368 . S
C3126 C3122 1.368 . S
C3126 C3125 1.523 . S
H3127 C3102 0.950 . S
H3128 C3104 0.950 . S
H3129 C3105 0.949 . S
H3130 C3107 0.950 . S
H3131 C3109 0.950 . S
C3132 C3133 1.349 . S
C3132 C3134 1.327 . S
C3132 H3157 0.950 . S
C3133 C3132 1.349 . S
C3133 C3149 1.349 . S
C3134 C3132 1.327 . S
C3134 C3153 1.429 . S
C3134 H3158 0.950 . S
C3135 C3152 1.574 . S
C3135 C3154 1.368 . S
C3135 H3159 0.949 . S
H3136 C3140 0.949 . S
C3137 C3138 1.349 . S
C3137 C3139 1.327 . S
C3137 H3160 0.950 . S
C3138 C3137 1.349 . S
C3138 C3150 1.349 . S
C3139 C3137 1.327 . S
C3139 C3155 1.429 . S
C3139 H3161 0.950 . S
C3140 H3136 0.949 . S
C3140 C3148 1.574 . S
C3140 C3156 1.368 . S
H3141 C3149 0.950 . S
H3142 C3147 0.950 . S
H3143 C3148 0.949 . S
H3144 C3150 0.950 . S
H3145 C3151 0.950 . S
H3146 C3152 0.949 . S
C3147 H3142 0.950 . S
C3147 C3149 1.327 . S
C3147 C3153 1.429 . S
C3148 C3140 1.574 . S
C3148 H3143 0.949 . S
C3148 C3154 1.368 . S
C3149 C3133 1.349 . S
C3149 H3141 0.950 . S
C3149 C3147 1.327 . S
C3150 C3138 1.349 . S
C3150 H3144 0.950 . S
C3150 C3151 1.327 . S
C3151 H3145 0.950 . S
C3151 C3150 1.327 . S
C3151 C3155 1.429 . S
C3152 C3135 1.574 . S
C3152 H3146 0.949 . S
C3152 C3156 1.368 . S
C3153 C3134 1.429 . S
C3153 C3147 1.429 . S
C3153 C3154 1.523 . S
C3154 C3135 1.368 . S
C3154 C3148 1.368 . S
C3154 C3153 1.523 . S
C3155 C3139 1.429 . S
C3155 C3151 1.429 . S
C3155 C3156 1.523 . S
C3156 C3140 1.368 . S
C3156 C3152 1.368 . S
C3156 C3155 1.523 . S
H3157 C3132 0.950 . S
H3158 C3134 0.950 . S
H3159 C3135 0.949 . S
H3160 C3137 0.950 . S
H3161 C3139 0.950 . S
C3162 C3163 1.349 . S
C3162 C3164 1.327 . S
C3162 H3187 0.950 . S
C3163 C3162 1.349 . S
C3163 C3179 1.349 . S
C3164 C3162 1.327 . S
C3164 C3183 1.429 . S
C3164 H3188 0.950 . S
C3165 C3182 1.574 . S
C3165 C3184 1.368 . S
C3165 H3189 0.949 . S
H3166 C3170 0.949 . S
C3167 C3168 1.349 . S
C3167 C3169 1.327 . S
C3167 H3190 0.950 . S
C3168 C3167 1.349 . S
C3168 C3180 1.349 . S
C3169 C3167 1.327 . S
C3169 C3185 1.429 . S
C3169 H3191 0.950 . S
C3170 H3166 0.949 . S
C3170 C3178 1.574 . S
C3170 C3186 1.368 . S
H3171 C3179 0.950 . S
H3172 C3177 0.950 . S
H3173 C3178 0.949 . S
H3174 C3180 0.950 . S
H3175 C3181 0.950 . S
H3176 C3182 0.949 . S
C3177 H3172 0.950 . S
C3177 C3179 1.327 . S
C3177 C3183 1.429 . S
C3178 C3170 1.574 . S
C3178 H3173 0.949 . S
C3178 C3184 1.368 . S
C3179 C3163 1.349 . S
C3179 H3171 0.950 . S
C3179 C3177 1.327 . S
C3180 C3168 1.349 . S
C3180 H3174 0.950 . S
C3180 C3181 1.327 . S
C3181 H3175 0.950 . S
C3181 C3180 1.327 . S
C3181 C3185 1.429 . S
C3182 C3165 1.574 . S
C3182 H3176 0.949 . S
C3182 C3186 1.368 . S
C3183 C3164 1.429 . S
C3183 C3177 1.429 . S
C3183 C3184 1.523 . S
C3184 C3165 1.368 . S
C3184 C3178 1.368 . S
C3184 C3183 1.523 . S
C3185 C3169 1.429 . S
C3185 C3181 1.429 . S
C3185 C3186 1.523 . S
C3186 C3170 1.368 . S
C3186 C3182 1.368 . S
C3186 C3185 1.523 . S
H3187 C3162 0.950 . S
H3188 C3164 0.950 . S
H3189 C3165 0.949 . S
H3190 C3167 0.950 . S
H3191 C3169 0.950 . S
C3192 C3193 1.349 . S
C3192 C3194 1.327 . S
C3192 H3217 0.950 . S
C3193 C3192 1.349 . S
C3193 C3209 1.349 . S
C3194 C3192 1.327 . S
C3194 C3213 1.429 . S
C3194 H3218 0.950 . S
C3195 C3212 1.574 . S
C3195 C3214 1.368 . S
C3195 H3219 0.949 . S
H3196 C3200 0.949 . S
C3197 C3198 1.349 . S
C3197 C3199 1.327 . S
C3197 H3220 0.950 . S
C3198 C3197 1.349 . S
C3198 C3210 1.349 . S
C3199 C3197 1.327 . S
C3199 C3215 1.429 . S
C3199 H3221 0.950 . S
C3200 H3196 0.949 . S
C3200 C3208 1.574 . S
C3200 C3216 1.368 . S
H3201 C3209 0.950 . S
H3202 C3207 0.950 . S
H3203 C3208 0.949 . S
H3204 C3210 0.950 . S
H3205 C3211 0.950 . S
H3206 C3212 0.949 . S
C3207 H3202 0.950 . S
C3207 C3209 1.327 . S
C3207 C3213 1.429 . S
C3208 C3200 1.574 . S
C3208 H3203 0.949 . S
C3208 C3214 1.368 . S
C3209 C3193 1.349 . S
C3209 H3201 0.950 . S
C3209 C3207 1.327 . S
C3210 C3198 1.349 . S
C3210 H3204 0.950 . S
C3210 C3211 1.327 . S
C3211 H3205 0.950 . S
C3211 C3210 1.327 . S
C3211 C3215 1.429 . S
C3212 C3195 1.574 . S
C3212 H3206 0.949 . S
C3212 C3216 1.368 . S
C3213 C3194 1.429 . S
C3213 C3207 1.429 . S
C3213 C3214 1.523 . S
C3214 C3195 1.368 . S
C3214 C3208 1.368 . S
C3214 C3213 1.523 . S
C3215 C3199 1.429 . S
C3215 C3211 1.429 . S
C3215 C3216 1.523 . S
C3216 C3200 1.368 . S
C3216 C3212 1.368 . S
C3216 C3215 1.523 . S
H3217 C3192 0.950 . S
H3218 C3194 0.950 . S
H3219 C3195 0.949 . S
H3220 C3197 0.950 . S
H3221 C3199 0.950 . S
C3222 C3223 1.349 . S
C3222 C3224 1.327 . S
C3222 H3247 0.950 . S
C3223 C3222 1.349 . S
C3223 C3239 1.349 . S
C3224 C3222 1.327 . S
C3224 C3243 1.429 . S
C3224 H3248 0.935 1_556 S
C3225 C3242 1.574 . S
C3225 C3244 1.368 . S
C3225 H3249 0.949 . S
H3226 C3230 0.949 . S
C3227 C3228 1.349 . S
C3227 C3229 1.327 . S
C3227 H3250 0.950 . S
C3228 C3227 1.349 . S
C3228 C3240 1.349 . S
C3229 C3227 1.327 . S
C3229 C3245 1.429 . S
C3229 H3251 0.950 . S
C3230 H3226 0.949 . S
C3230 C3238 1.574 . S
C3230 C3246 1.368 . S
H3231 C3239 0.950 . S
H3232 C3237 0.950 . S
H3233 C3238 0.949 . S
H3234 C3240 0.950 . S
H3235 C3241 0.950 . S
H3236 C3242 0.949 . S
C3237 H3232 0.950 . S
C3237 C3239 1.327 . S
C3237 C3243 1.429 . S
C3238 C3230 1.574 . S
C3238 H3233 0.949 . S
C3238 C3244 1.368 . S
C3239 C3223 1.349 . S
C3239 H3231 0.950 . S
C3239 C3237 1.327 . S
C3240 C3228 1.349 . S
C3240 H3234 0.950 . S
C3240 C3241 1.327 . S
C3241 H3235 0.950 . S
C3241 C3240 1.327 . S
C3241 C3245 1.429 . S
C3242 C3225 1.574 . S
C3242 H3236 0.949 . S
C3242 C3246 1.368 . S
C3243 C3224 1.429 . S
C3243 C3237 1.429 . S
C3243 C3244 1.523 1_556 S
C3244 C3225 1.368 . S
C3244 C3238 1.368 . S
C3244 C3243 1.523 1_554 S
C3245 C3229 1.429 . S
C3245 C3241 1.429 . S
C3245 C3246 1.523 . S
C3246 C3230 1.368 . S
C3246 C3242 1.368 . S
C3246 C3245 1.523 . S
H3247 C3222 0.950 . S
H3248 C3224 0.935 1_554 S
H3249 C3225 0.949 . S
H3250 C3227 0.950 . S
H3251 C3229 0.950 . S
C3252 C3253 1.349 . S
C3252 C3254 1.327 . S
C3252 H3277 0.950 . S
C3253 C3252 1.349 . S
C3253 C3269 1.349 . S
C3254 C3252 1.327 . S
C3254 C3273 1.429 . S
C3254 H3278 0.950 . S
C3255 C3272 1.574 . S
C3255 C3274 1.368 . S
C3255 H3279 0.949 . S
H3256 C3260 0.949 . S
C3257 C3258 1.349 . S
C3257 C3259 1.327 . S
C3257 H3280 0.950 . S
C3258 C3257 1.349 . S
C3258 C3270 1.349 . S
C3259 C3257 1.327 . S
C3259 C3275 1.429 . S
C3259 H3281 0.950 . S
C3260 H3256 0.949 . S
C3260 C3268 1.574 . S
C3260 C3276 1.368 . S
H3261 C3269 0.950 . S
H3262 C3267 0.950 . S
H3263 C3268 0.949 . S
H3264 C3270 0.950 . S
H3265 C3271 0.950 . S
H3266 C3272 0.949 . S
C3267 H3262 0.950 . S
C3267 C3269 1.327 . S
C3267 C3273 1.429 . S
C3268 C3260 1.574 . S
C3268 H3263 0.949 . S
C3268 C3274 1.368 . S
C3269 C3253 1.349 . S
C3269 H3261 0.950 . S
C3269 C3267 1.327 . S
C3270 C3258 1.349 . S
C3270 H3264 0.950 . S
C3270 C3271 1.327 . S
C3271 H3265 0.950 . S
C3271 C3270 1.327 . S
C3271 C3275 1.429 . S
C3272 C3255 1.574 . S
C3272 H3266 0.949 . S
C3272 C3276 1.368 . S
C3273 C3254 1.429 . S
C3273 C3267 1.429 . S
C3273 C3274 1.523 . S
C3274 C3255 1.368 . S
C3274 C3268 1.368 . S
C3274 C3273 1.523 . S
C3275 C3259 1.429 . S
C3275 C3271 1.429 . S
C3275 C3276 1.523 . S
C3276 C3260 1.368 . S
C3276 C3272 1.368 . S
C3276 C3275 1.523 . S
H3277 C3252 0.950 . S
H3278 C3254 0.950 . S
H3279 C3255 0.949 . S
H3280 C3257 0.950 . S
H3281 C3259 0.950 . S
C3282 C3283 1.349 . S
C3282 C3284 1.327 . S
C3282 H3307 0.950 . S
C3283 C3282 1.349 . S
C3283 C3299 1.349 . S
C3284 C3282 1.327 . S
C3284 C3303 1.429 . S
C3284 H3308 0.950 . S
C3285 C3302 1.574 . S
C3285 C3304 1.368 . S
C3285 H3309 0.949 . S
H3286 C3290 0.949 . S
C3287 C3288 1.349 . S
C3287 C3289 1.327 . S
C3287 H3310 0.950 . S
C3288 C3287 1.349 . S
C3288 C3300 1.349 . S
C3289 C3287 1.327 . S
C3289 C3305 1.429 . S
C3289 H3311 0.950 . S
C3290 H3286 0.949 . S
C3290 C3298 1.574 . S
C3290 C3306 1.368 . S
H3291 C3299 0.950 . S
H3292 C3297 0.950 . S
H3293 C3298 0.949 . S
H3294 C3300 0.950 . S
H3295 C3301 0.950 . S
H3296 C3302 0.949 . S
C3297 H3292 0.950 . S
C3297 C3299 1.327 . S
C3297 C3303 1.429 . S
C3298 C3290 1.574 . S
C3298 H3293 0.949 . S
C3298 C3304 1.368 . S
C3299 C3283 1.349 . S
C3299 H3291 0.950 . S
C3299 C3297 1.327 . S
C3300 C3288 1.349 . S
C3300 H3294 0.950 . S
C3300 C3301 1.327 . S
C3301 H3295 0.950 . S
C3301 C3300 1.327 . S
C3301 C3305 1.429 . S
C3302 C3285 1.574 . S
C3302 H3296 0.949 . S
C3302 C3306 1.368 . S
C3303 C3284 1.429 . S
C3303 C3297 1.429 . S
C3303 C3304 1.523 . S
C3304 C3285 1.368 . S
C3304 C3298 1.368 . S
C3304 C3303 1.523 . S
C3305 C3289 1.429 . S
C3305 C3301 1.429 . S
C3305 C3306 1.523 . S
C3306 C3290 1.368 . S
C3306 C3302 1.368 . S
C3306 C3305 1.523 . S
H3307 C3282 0.950 . S
H3308 C3284 0.950 . S
H3309 C3285 0.949 . S
H3310 C3287 0.950 . S
H3311 C3289 0.950 . S
C3312 C3313 1.349 . S
C3312 C3314 1.327 . S
C3312 H3337 0.950 . S
C3313 C3312 1.349 . S
C3313 C3329 1.349 . S
C3314 C3312 1.327 . S
C3314 C3333 1.429 . S
C3314 H3338 0.950 . S
C3315 C3332 1.574 . S
C3315 C3334 1.368 1_545 S
C3315 H3339 0.949 . S
H3316 C3320 0.949 . S
C3317 C3318 1.349 . S
C3317 C3319 1.327 . S
C3317 H3340 0.950 . S
C3318 C3317 1.349 . S
C3318 C3330 1.349 . S
C3319 C3317 1.327 . S
C3319 C3335 1.429 . S
C3319 H3341 0.950 . S
C3320 H3316 0.949 . S
C3320 C3328 1.574 . S
C3320 C3336 1.368 1_565 S
H3321 C3329 0.950 . S
H3322 C3327 0.950 . S
H3323 C3328 0.949 . S
H3324 C3330 0.950 . S
H3325 C3331 0.950 . S
H3326 C3332 0.949 . S
C3327 H3322 0.950 . S
C3327 C3329 1.327 . S
C3327 C3333 1.429 . S
C3328 C3320 1.574 . S
C3328 H3323 0.949 . S
C3328 C3334 1.368 . S
C3329 C3313 1.349 . S
C3329 H3321 0.950 . S
C3329 C3327 1.327 . S
C3330 C3318 1.349 . S
C3330 H3324 0.950 . S
C3330 C3331 1.327 . S
C3331 H3325 0.950 . S
C3331 C3330 1.327 . S
C3331 C3335 1.429 . S
C3332 C3315 1.574 . S
C3332 H3326 0.949 . S
C3332 C3336 1.368 . S
C3333 C3314 1.429 . S
C3333 C3327 1.429 . S
C3333 C3334 1.523 . S
C3334 C3315 1.368 1_565 S
C3334 C3328 1.368 . S
C3334 C3333 1.523 . S
C3335 C3319 1.429 . S
C3335 C3331 1.429 . S
C3335 C3336 1.523 . S
C3336 C3320 1.368 1_545 S
C3336 C3332 1.368 . S
C3336 C3335 1.523 . S
H3337 C3312 0.950 . S
H3338 C3314 0.950 . S
H3339 C3315 0.949 . S
H3340 C3317 0.950 . S
H3341 C3319 0.950 . S
C3342 C3343 1.349 . S
C3342 C3344 1.327 . S
C3342 H3367 0.950 . S
C3343 C3342 1.349 . S
C3343 C3359 1.349 . S
C3344 C3342 1.327 . S
C3344 C3363 1.429 . S
C3344 H3368 0.950 . S
C3345 C3362 1.574 . S
C3345 C3364 1.368 . S
C3345 H3369 0.949 . S
H3346 C3350 0.949 . S
C3347 C3348 1.349 . S
C3347 C3349 1.327 . S
C3347 H3370 0.950 . S
C3348 C3347 1.349 . S
C3348 C3360 1.349 . S
C3349 C3347 1.327 . S
C3349 C3365 1.429 . S
C3349 H3371 0.950 . S
C3350 H3346 0.949 . S
C3350 C3358 1.574 . S
C3350 C3366 1.368 . S
H3351 C3359 0.950 . S
H3352 C3357 0.950 . S
H3353 C3358 0.949 . S
H3354 C3360 0.950 . S
H3355 C3361 0.950 . S
H3356 C3362 0.949 . S
C3357 H3352 0.950 . S
C3357 C3359 1.327 . S
C3357 C3363 1.429 . S
C3358 C3350 1.574 . S
C3358 H3353 0.949 . S
C3358 C3364 1.368 . S
C3359 C3343 1.349 . S
C3359 H3351 0.950 . S
C3359 C3357 1.327 . S
C3360 C3348 1.349 . S
C3360 H3354 0.950 . S
C3360 C3361 1.327 . S
C3361 H3355 0.950 . S
C3361 C3360 1.327 . S
C3361 C3365 1.429 . S
C3362 C3345 1.574 . S
C3362 H3356 0.949 . S
C3362 C3366 1.368 . S
C3363 C3344 1.429 . S
C3363 C3357 1.429 . S
C3363 C3364 1.523 . S
C3364 C3345 1.368 . S
C3364 C3358 1.368 . S
C3364 C3363 1.523 . S
C3365 C3349 1.429 . S
C3365 C3361 1.429 . S
C3365 C3366 1.523 . S
C3366 C3350 1.368 . S
C3366 C3362 1.368 . S
C3366 C3365 1.523 . S
H3367 C3342 0.950 . S
H3368 C3344 0.950 . S
H3369 C3345 0.949 . S
H3370 C3347 0.950 . S
H3371 C3349 0.950 . S
C3372 C3373 1.349 . S
C3372 C3374 1.327 . S
C3372 H3397 0.950 . S
C3373 C3372 1.349 . S
C3373 C3389 1.349 . S
C3374 C3372 1.327 . S
C3374 C3393 1.429 . S
C3374 H3398 0.950 . S
C3375 C3392 1.574 . S
C3375 C3394 1.368 1_565 S
C3375 H3399 0.949 . S
H3376 C3380 0.949 . S
C3377 C3378 1.349 . S
C3377 C3379 1.327 . S
C3377 H3400 0.950 . S
C3378 C3377 1.349 . S
C3378 C3390 1.349 . S
C3379 C3377 1.327 . S
C3379 C3395 1.429 . S
C3379 H3401 0.950 . S
C3380 H3376 0.949 . S
C3380 C3388 1.574 . S
C3380 C3396 1.368 1_545 S
H3381 C3389 0.950 . S
H3382 C3387 1.017 . S
H3383 C3388 0.949 . S
H3384 C3390 0.950 . S
H3385 C3391 1.018 . S
H3386 C3392 0.949 . S
C3387 H3382 1.017 . S
C3387 C3389 1.327 . S
C3387 C3393 1.429 . S
C3388 C3380 1.574 . S
C3388 H3383 0.949 . S
C3388 C3394 1.368 . S
C3389 C3373 1.349 . S
C3389 H3381 0.950 . S
C3389 C3387 1.327 . S
C3390 C3378 1.349 . S
C3390 H3384 0.950 . S
C3390 C3391 1.327 . S
C3391 H3385 1.018 . S
C3391 C3390 1.327 . S
C3391 C3395 1.429 . S
C3392 C3375 1.574 . S
C3392 H3386 0.949 . S
C3392 C3396 1.368 . S
C3393 C3374 1.429 . S
C3393 C3387 1.429 . S
C3393 C3394 1.523 . S
C3394 C3375 1.368 1_545 S
C3394 C3388 1.368 . S
C3394 C3393 1.523 . S
C3395 C3379 1.429 . S
C3395 C3391 1.429 . S
C3395 C3396 1.523 . S
C3396 C3380 1.368 1_565 S
C3396 C3392 1.368 . S
C3396 C3395 1.523 . S
H3397 C3372 0.950 . S
H3398 C3374 0.950 . S
H3399 C3375 0.949 . S
H3400 C3377 0.950 . S
H3401 C3379 0.950 . S
C3402 C3403 1.349 . S
C3402 C3404 1.327 . S
C3402 H3427 0.950 . S
C3403 C3402 1.349 . S
C3403 C3419 1.349 . S
C3404 C3402 1.327 . S
C3404 C3423 1.429 . S
C3404 H3428 0.950 . S
C3405 C3422 1.574 . S
C3405 C3424 1.368 . S
C3405 H3429 0.949 . S
H3406 C3410 0.949 . S
C3407 C3408 1.349 . S
C3407 C3409 1.327 . S
C3407 H3430 0.950 . S
C3408 C3407 1.349 . S
C3408 C3420 1.349 . S
C3409 C3407 1.327 . S
C3409 C3425 1.429 . S
C3409 H3431 0.950 . S
C3410 H3406 0.949 . S
C3410 C3418 1.574 . S
C3410 C3426 1.368 . S
H3411 C3419 0.950 . S
H3412 C3417 0.950 . S
H3413 C3418 0.949 . S
H3414 C3420 0.950 . S
H3415 C3421 0.950 1_554 S
H3416 C3422 0.949 . S
C3417 H3412 0.950 . S
C3417 C3419 1.327 . S
C3417 C3423 1.429 . S
C3418 C3410 1.574 . S
C3418 H3413 0.949 . S
C3418 C3424 1.368 . S
C3419 C3403 1.349 . S
C3419 H3411 0.950 . S
C3419 C3417 1.327 . S
C3420 C3408 1.349 . S
C3420 H3414 0.950 . S
C3420 C3421 1.327 . S
C3421 H3415 0.950 1_556 S
C3421 C3420 1.327 . S
C3421 C3425 1.429 . S
C3422 C3405 1.574 . S
C3422 H3416 0.949 . S
C3422 C3426 1.368 . S
C3423 C3404 1.429 . S
C3423 C3417 1.429 . S
C3423 C3424 1.523 . S
C3424 C3405 1.368 . S
C3424 C3418 1.368 . S
C3424 C3423 1.523 . S
C3425 C3409 1.429 . S
C3425 C3421 1.429 . S
C3425 C3426 1.523 1_556 S
C3426 C3410 1.368 . S
C3426 C3422 1.368 . S
C3426 C3425 1.523 1_554 S
H3427 C3402 0.950 . S
H3428 C3404 0.950 . S
H3429 C3405 0.949 . S
H3430 C3407 0.950 . S
H3431 C3409 0.950 . S
C3432 C3433 1.349 . S
C3432 C3434 1.327 . S
C3432 H3457 0.950 . S
C3433 C3432 1.349 . S
C3433 C3449 1.349 . S
C3434 C3432 1.327 . S
C3434 C3453 1.429 . S
C3434 H3458 0.950 . S
C3435 C3452 1.574 . S
C3435 C3454 1.368 1_545 S
C3435 H3459 0.949 . S
H3436 C3440 0.949 . S
C3437 C3438 1.349 . S
C3437 C3439 1.327 . S
C3437 H3460 0.950 . S
C3438 C3437 1.349 . S
C3438 C3450 1.349 . S
C3439 C3437 1.327 . S
C3439 C3455 1.429 . S
C3439 H3461 0.950 . S
C3440 H3436 0.949 . S
C3440 C3448 1.574 . S
C3440 C3456 1.368 1_565 S
H3441 C3449 0.950 . S
H3442 C3447 0.950 . S
H3443 C3448 0.949 . S
H3444 C3450 0.950 . S
H3445 C3451 0.950 . S
H3446 C3452 0.949 . S
C3447 H3442 0.950 . S
C3447 C3449 1.327 . S
C3447 C3453 1.429 . S
C3448 C3440 1.574 . S
C3448 H3443 0.949 . S
C3448 C3454 1.368 . S
C3449 C3433 1.349 . S
C3449 H3441 0.950 . S
C3449 C3447 1.327 . S
C3450 C3438 1.349 . S
C3450 H3444 0.950 . S
C3450 C3451 1.327 . S
C3451 H3445 0.950 . S
C3451 C3450 1.327 . S
C3451 C3455 1.429 . S
C3452 C3435 1.574 . S
C3452 H3446 0.949 . S
C3452 C3456 1.368 . S
C3453 C3434 1.429 . S
C3453 C3447 1.429 . S
C3453 C3454 1.523 . S
C3454 C3435 1.368 1_565 S
C3454 C3448 1.368 . S
C3454 C3453 1.523 . S
C3455 C3439 1.429 . S
C3455 C3451 1.429 . S
C3455 C3456 1.523 . S
C3456 C3440 1.368 1_545 S
C3456 C3452 1.368 . S
C3456 C3455 1.523 . S
H3457 C3432 0.950 . S
H3458 C3434 0.950 . S
H3459 C3435 0.949 . S
H3460 C3437 0.950 . S
H3461 C3439 0.950 . S
C3462 C3463 1.349 . S
C3462 C3464 1.327 . S
C3462 H3487 0.950 . S
C3463 C3462 1.349 . S
C3463 C3479 1.349 . S
C3464 C3462 1.327 . S
C3464 C3483 1.429 . S
C3464 H3488 0.950 . S
C3465 C3482 1.574 . S
C3465 C3484 1.368 . S
C3465 H3489 0.949 . S
H3466 C3470 0.949 . S
C3467 C3468 1.349 . S
C3467 C3469 1.327 . S
C3467 H3490 0.950 . S
C3468 C3467 1.349 . S
C3468 C3480 1.349 . S
C3469 C3467 1.327 . S
C3469 C3485 1.429 . S
C3469 H3491 0.950 . S
C3470 H3466 0.949 . S
C3470 C3478 1.574 . S
C3470 C3486 1.368 . S
H3471 C3479 0.950 . S
H3472 C3477 0.950 . S
H3473 C3478 0.949 . S
H3474 C3480 0.950 . S
H3475 C3481 0.950 . S
H3476 C3482 0.949 . S
C3477 H3472 0.950 . S
C3477 C3479 1.327 . S
C3477 C3483 1.429 . S
C3478 C3470 1.574 . S
C3478 H3473 0.949 . S
C3478 C3484 1.368 . S
C3479 C3463 1.349 . S
C3479 H3471 0.950 . S
C3479 C3477 1.327 . S
C3480 C3468 1.349 . S
C3480 H3474 0.950 . S
C3480 C3481 1.327 . S
C3481 H3475 0.950 . S
C3481 C3480 1.327 . S
C3481 C3485 1.429 . S
C3482 C3465 1.574 . S
C3482 H3476 0.949 . S
C3482 C3486 1.368 . S
C3483 C3464 1.429 . S
C3483 C3477 1.429 . S
C3483 C3484 1.523 . S
C3484 C3465 1.368 . S
C3484 C3478 1.368 . S
C3484 C3483 1.523 . S
C3485 C3469 1.429 . S
C3485 C3481 1.429 . S
C3485 C3486 1.523 . S
C3486 C3470 1.368 . S
C3486 C3482 1.368 . S
C3486 C3485 1.523 . S
H3487 C3462 0.950 . S
H3488 C3464 0.950 . S
H3489 C3465 0.949 . S
H3490 C3467 0.950 . S
H3491 C3469 0.950 . S
C3492 C3493 1.349 . S
C3492 C3494 1.327 . S
C3492 H3517 0.950 . S
C3493 C3492 1.349 . S
C3493 C3509 1.349 . S
C3494 C3492 1.327 . S
C3494 C3513 1.429 . S
C3494 H3518 0.950 . S
C3495 C3512 1.574 . S
C3495 C3514 1.368 1_545 S
C3495 H3519 0.949 . S
H3496 C3500 0.949 . S
C3497 C3498 1.349 . S
C3497 C3499 1.327 . S
C3497 H3520 0.950 . S
C3498 C3497 1.349 . S
C3498 C3510 1.349 . S
C3499 C3497 1.327 . S
C3499 C3515 1.429 . S
C3499 H3521 0.950 . S
C3500 H3496 0.949 . S
C3500 C3508 1.574 . S
C3500 C3516 1.368 1_565 S
H3501 C3509 0.950 . S
H3502 C3507 0.950 . S
H3503 C3508 0.949 . S
H3504 C3510 0.950 . S
H3505 C3511 0.950 . S
H3506 C3512 0.949 . S
C3507 H3502 0.950 . S
C3507 C3509 1.327 . S
C3507 C3513 1.429 . S
C3508 C3500 1.574 . S
C3508 H3503 0.949 . S
C3508 C3514 1.368 . S
C3509 C3493 1.349 . S
C3509 H3501 0.950 . S
C3509 C3507 1.327 . S
C3510 C3498 1.349 . S
C3510 H3504 0.950 . S
C3510 C3511 1.327 . S
C3511 H3505 0.950 . S
C3511 C3510 1.327 . S
C3511 C3515 1.429 . S
C3512 C3495 1.574 . S
C3512 H3506 0.949 . S
C3512 C3516 1.368 . S
C3513 C3494 1.429 . S
C3513 C3507 1.429 . S
C3513 C3514 1.523 . S
C3514 C3495 1.368 1_565 S
C3514 C3508 1.368 . S
C3514 C3513 1.523 . S
C3515 C3499 1.429 . S
C3515 C3511 1.429 . S
C3515 C3516 1.523 . S
C3516 C3500 1.368 1_545 S
C3516 C3512 1.368 . S
C3516 C3515 1.523 . S
H3517 C3492 0.950 . S
H3518 C3494 0.950 . S
H3519 C3495 0.949 . S
H3520 C3497 0.950 . S
H3521 C3499 0.950 . S
C3522 C3523 1.349 . S
C3522 C3524 1.327 . S
C3522 H3547 0.950 . S
C3523 C3522 1.349 . S
C3523 C3539 1.349 . S
C3524 C3522 1.327 . S
C3524 C3543 1.429 . S
C3524 H3548 0.950 . S
C3525 C3542 1.574 . S
C3525 C3544 1.368 . S
C3525 H3549 0.949 . S
H3526 C3530 0.949 . S
C3527 C3528 1.349 . S
C3527 C3529 1.327 . S
C3527 H3550 0.950 . S
C3528 C3527 1.349 . S
C3528 C3540 1.349 . S
C3529 C3527 1.327 . S
C3529 C3545 1.429 . S
C3529 H3551 0.950 . S
C3530 H3526 0.949 . S
C3530 C3538 1.574 . S
C3530 C3546 1.368 . S
H3531 C3539 0.950 . S
H3532 C3537 0.950 . S
H3533 C3538 0.949 . S
H3534 C3540 0.950 . S
H3535 C3541 0.935 1_554 S
H3536 C3542 0.949 . S
C3537 H3532 0.950 . S
C3537 C3539 1.327 . S
C3537 C3543 1.429 . S
C3538 C3530 1.574 . S
C3538 H3533 0.949 . S
C3538 C3544 1.368 . S
C3539 C3523 1.349 . S
C3539 H3531 0.950 . S
C3539 C3537 1.327 . S
C3540 C3528 1.349 . S
C3540 H3534 0.950 . S
C3540 C3541 1.327 . S
C3541 H3535 0.935 1_556 S
C3541 C3540 1.327 . S
C3541 C3545 1.429 . S
C3542 C3525 1.574 . S
C3542 H3536 0.949 . S
C3542 C3546 1.368 . S
C3543 C3524 1.429 . S
C3543 C3537 1.429 . S
C3543 C3544 1.523 . S
C3544 C3525 1.368 . S
C3544 C3538 1.368 . S
C3544 C3543 1.523 . S
C3545 C3529 1.429 . S
C3545 C3541 1.429 . S
C3545 C3546 1.523 1_556 S
C3546 C3530 1.368 . S
C3546 C3542 1.368 . S
C3546 C3545 1.523 1_554 S
H3547 C3522 0.950 . S
H3548 C3524 0.950 . S
H3549 C3525 0.949 . S
H3550 C3527 0.950 . S
H3551 C3529 0.950 . S
C673 C16 0.724 . S
C678 C100 0.724 . S
C703 C118 0.725 . S
C708 C37 0.725 . S
C733 C58 0.725 . S
C738 C142 0.725 . S
C763 C163 0.725 . S
C768 C76 0.725 . S
C793 C182 0.800 . S
C798 C266 0.800 . S
C823 C206 0.800 . S
C828 C290 0.800 . S
C853 C311 0.800 . S
C858 C227 0.800 . S
C883 C248 0.800 . S
C888 C332 0.800 . S
C913 C436 0.725 . S
C918 C352 0.725 . S
C943 C373 0.725 . S
C948 C454 0.725 . S
C973 C394 0.724 . S
C978 C478 0.724 . S
C1003 C412 0.725 . S
C1008 C499 0.725 . S
C1033 C518 0.800 . S
C1038 C602 0.800 . S
C1063 C626 0.800 . S
C1068 C542 0.800 . S
C1093 C563 0.800 . S
C1098 C647 0.800 . S
C1123 C668 0.800 . S
C1128 C584 0.800 . S
C1153 C459 0.728 . S
C1158 C15 0.728 . S
C1183 C477 0.728 . S
C1188 C36 0.728 . S
C1213 C498 0.728 . S
C1218 C57 0.728 . S
C1243 C81 0.728 . S
C1248 C435 0.728 . S
C1273 C99 0.728 . S
C1278 C417 0.728 . S
C1303 C351 0.728 . S
C1308 C123 0.728 . S
C1333 C141 0.728 . S
C1338 C372 0.728 . S
C1363 C162 0.728 . S
C1368 C393 0.728 . S
C1393 C186 0.795 . S
C1398 C624 0.795 . S
C1423 C645 0.795 . S
C1428 C204 0.795 . S
C1453 C666 0.795 . S
C1458 C225 0.795 . S
C1483 C246 0.795 . S
C1488 C606 0.795 . S
C1513 C270 0.795 . S
C1518 C582 0.795 . S
C1543 C288 0.795 . S
C1548 C522 0.795 . S
C1573 C309 0.795 . S
C1578 C540 0.795 . S
C1603 C330 0.795 . S
C1608 C561 0.795 . S
C1633 C183 1.492 . S
C1638 C18 1.493 . S
C1663 C39 1.493 . S
C1668 C543 1.492 . S
C1693 C228 1.492 . S
C1698 C60 1.493 . S
C1723 C78 1.493 . S
C1728 C585 1.492 . S
C1753 C267 1.492 . S
C1758 C102 1.493 . S
C1783 C627 1.492 . S
C1788 C120 1.493 . S
C1813 C144 1.493 . S
C1818 C312 1.492 . S
C1843 C165 1.493 . S
C1848 C669 1.492 . S
C1873 C375 1.493 . S
C1878 C207 1.492 . S
C1903 C414 1.493 . S
C1908 C249 1.492 . S
C1933 C291 1.492 . S
C1938 C456 1.493 . S
C1963 C501 1.493 . S
C1968 C333 1.492 . S
C1993 C519 1.492 . S
C1998 C354 1.493 . S
C2023 C564 1.492 . S
C2028 C396 1.493 . S
C2053 C603 1.492 . S
C2058 C438 1.493 . S
C2083 C480 1.493 . S
C2088 C648 1.492 . S
C2113 C14 1.293 1_556 S
C2118 C265 1.167 . S
C2143 C625 1.167 . S
C2148 C35 1.293 . S
C2173 C310 1.167 . S
C2178 C56 1.293 . S
C2203 C80 1.293 . S
C2208 C667 1.167 . S
C2233 C181 1.167 . S
C2238 C98 1.293 . S
C2263 C541 1.167 . S
C2268 C122 1.293 . S
C2293 C226 1.167 . S
C2298 C140 1.293 . S
C2323 C583 1.167 . S
C2328 C161 1.293 . S
C2353 C101 1.207 . S
C2358 C184 1.331 . S
C2383 C455 1.207 . S
C2388 C202 1.331 . S
C2413 C143 1.207 . S
C2418 C223 1.331 . S
C2443 C244 1.331 . S
C2448 C500 1.207 . S
C2473 C17 1.207 . S
C2478 C268 1.331 . S
C2503 C374 1.207 . S
C2508 C286 1.331 . S
C2533 C307 1.331 1_556 S
C2538 C59 1.207 . S
C2563 C328 1.331 . S
C2568 C413 1.207 . S
C2593 C601 1.167 . S
C2598 C350 1.293 . S
C2623 C289 1.167 . S
C2628 C371 1.293 . S
C2653 C392 1.293 1_556 S
C2658 C646 1.167 . S
C2683 C331 1.167 . S
C2688 C416 1.293 . S
C2713 C434 1.293 . S
C2718 C517 1.167 . S
C2743 C458 1.293 . S
C2748 C205 1.167 . S
C2773 C562 1.167 . S
C2778 C476 1.293 . S
C2803 C247 1.167 . S
C2808 C497 1.293 . S
C2833 C520 1.331 . S
C2838 C437 1.207 . S
C2863 C538 1.331 . S
C2868 C119 1.207 . S
C2893 C559 1.331 . S
C2898 C479 1.207 . S
C2923 C580 1.331 . S
C2928 C164 1.207 . S
C2953 C353 1.207 . S
C2958 C604 1.331 1_556 S
C2983 C38 1.207 . S
C2988 C622 1.331 . S
C3013 C643 1.331 . S
C3018 C395 1.207 . S
C3043 C77 1.207 . S
C3048 C664 1.331 . S
C3073 C97 1.735 . S
C3078 C13 1.735 1_556 S
C3103 C121 1.735 . S
C3108 C34 1.735 . S
C3133 C55 1.735 . S
C3138 C139 1.735 . S
C3163 C160 1.735 . S
C3168 C79 1.735 . S
C3193 C269 1.859 . S
C3198 C185 1.859 . S
C3223 C203 1.859 . S
C3228 C287 1.859 . S
C3253 C224 1.859 . S
C3258 C308 1.859 1_556 S
C3283 C329 1.859 . S
C3288 C245 1.859 . S
C3313 C349 1.735 . S
C3318 C433 1.735 . S
C3343 C457 1.735 . S
C3348 C370 1.735 . S
C3373 C391 1.735 1_556 S
C3378 C475 1.735 . S
C3403 C415 1.735 . S
C3408 C496 1.735 . S
C3433 C605 1.859 1_556 S
C3438 C521 1.859 . S
C3463 C623 1.859 . S
C3468 C539 1.859 . S
C3493 C560 1.859 . S
C3498 C644 1.859 . S
C3523 C665 1.859 . S
C3528 C581 1.859 . S
