# Generated by pormake.
# Topology qtz-x, (6)-cn, num edge types: 1
# Building blocks:
#     Node 0, Type 0, BuildingBlock: KUMBOL_clean_sbu_0, # of connection points: 6
#     Node 1, Type 0, BuildingBlock: KUMBOL_clean_sbu_0, # of connection points: 6
#     Node 2, Type 0, BuildingBlock: KUMBOL_clean_sbu_0, # of connection points: 6
#     Edge 3, Type (0, 0), BuildingBlock: FUNLAD_clean_linker_0, # of connection points: 2
#     Edge 4, Type (0, 0), BuildingBlock: FUNLAD_clean_linker_0, # of connection points: 2
#     Edge 5, Type (0, 0), BuildingBlock: FUNLAD_clean_linker_0, # of connection points: 2
#     Edge 6, Type (0, 0), BuildingBlock: FUNLAD_clean_linker_0, # of connection points: 2
#     Edge 7, Type (0, 0), BuildingBlock: FUNLAD_clean_linker_0, # of connection points: 2
#     Edge 8, Type (0, 0), BuildingBlock: FUNLAD_clean_linker_0, # of connection points: 2
#     Edge 9, Type (0, 0), BuildingBlock: FUNLAD_clean_linker_0, # of connection points: 2
#     Edge 10, Type (0, 0), BuildingBlock: FUNLAD_clean_linker_0, # of connection points: 2
#     Edge 11, Type (0, 0), BuildingBlock: FUNLAD_clean_linker_0, # of connection points: 2
# Relax obj value: 0.167
# Max RMSD: 0.278
# Mean RMSD: 0.278
data_MOF--net-qtz-x--node1-KUMBOL_clean_sbu_0--edge1-FUNLAD_clean_linker_0
_symmetry_space_group_name_H-M    P1
_symmetry_Int_Tables_number       1
_symmetry_cell_setting            triclinic
loop_
_symmetry_equiv_pos_as_xyz
'x, y, z'
_cell_length_a     17.524004
_cell_length_b     17.453788
_cell_length_c     57.291802
_cell_angle_alpha  90.039675
_cell_angle_beta   89.854358
_cell_angle_gamma 120.09684
loop_
_atom_site_label
_atom_site_type_symbol
_atom_site_fract_x
_atom_site_fract_y
_atom_site_fract_z
_atom_type_partial_charge
Gd0 Gd 0.05146 0.40377 0.16248 0.0
Gd1 Gd 0.27121 0.49248 0.1888 0.0
C2 C 0.5186 0.62273 0.14322 0.0
C3 C 0.57343 0.52029 0.14723 0.0
C4 C 0.44005 0.49256 0.16776 0.0
C5 C 0.44726 0.56931 0.15825 0.0
C6 C 0.50443 0.46872 0.16275 0.0
C7 C 0.5803 0.59686 0.13743 0.0
C8 C 0.52728 0.70186 0.13483 0.0
C9 C 0.46769 0.72781 0.14202 0.0
N10 N 0.387 0.59359 0.16428 0.0
C11 C 0.39854 0.67345 0.15705 0.0
H12 H 0.35385 0.69558 0.162 0.0
C13 C 0.36969 0.3738 0.19459 0.0
N14 N 0.3728 0.44354 0.18278 0.0
C15 C 0.43191 0.3479 0.19015 0.0
C16 C 0.49903 0.39493 0.17396 0.0
H17 H 0.31656 0.33531 0.20662 0.0
H18 H 0.63491 0.63686 0.1258 0.0
H19 H 0.95793 0.21392 0.19292 0.0
H20 H 0.58086 0.74434 0.1232 0.0
H21 H 0.47475 0.78974 0.13594 0.0
H22 H 0.62294 0.50252 0.14305 0.0
H23 H 0.02264 0.56267 0.13844 0.0
H24 H 0.72757 0.18468 0.22706 0.0
H25 H 0.83043 0.12967 0.21891 0.0
H26 H 0.70504 0.42985 0.19784 0.0
H27 H 0.42763 0.29124 0.19907 0.0
H28 H 0.54729 0.37476 0.17058 0.0
H29 H 0.68137 0.29719 0.21913 0.0
H30 H 0.9198 0.61978 0.14142 0.0
N31 N 0.93037 0.31799 0.18712 0.0
C32 C 0.7839 0.22234 0.21573 0.0
C33 C 0.84167 0.19099 0.21114 0.0
C34 C 0.798 0.30051 0.20508 0.0
C35 C 0.87259 0.3472 0.19057 0.0
C36 C 0.91408 0.23912 0.19639 0.0
N37 N 0.95669 0.46282 0.16425 0.0
C38 C 0.88591 0.42174 0.17867 0.0
C39 C 0.90965 0.56423 0.15207 0.0
C40 C 0.83838 0.52477 0.16751 0.0
C41 C 0.96787 0.53159 0.15043 0.0
C42 C 0.82513 0.45195 0.18086 0.0
H43 H 0.79315 0.54994 0.16867 0.0
O44 O 0.02551 0.3982 0.12536 0.0
O45 O 0.1958 0.46539 0.15605 0.0
O46 O 0.23391 0.59931 0.18396 0.0
O47 O 0.07961 0.52244 0.18391 0.0
O48 O 0.13058 0.51343 0.13661 0.0
O49 O 0.96423 0.27744 0.14589 0.0
O50 O 0.26679 0.55024 0.2223 0.0
O51 O 0.12763 0.42517 0.19515 0.0
O52 O 0.08485 0.29457 0.16661 0.0
O53 O 0.23817 0.36683 0.16973 0.0
O54 O 0.19474 0.37426 0.21254 0.0
O55 O 0.38493 0.55109 0.21188 0.0
C56 C 0.20579 0.51907 0.14006 0.0
C57 C 0.75223 0.40742 0.19584 0.0
C58 C 0.73878 0.33191 0.20796 0.0
C59 C 0.96867 0.31373 0.12564 0.0
C60 C 0.88584 0.28642 0.11298 0.0
C61 C 0.80327 0.24166 0.12409 0.0
C62 C 0.89038 0.30739 0.08917 0.0
C63 C 0.81356 0.28478 0.07638 0.0
C64 C 0.72646 0.21769 0.11141 0.0
C65 C 0.73133 0.23893 0.08771 0.0
C66 C 0.15666 0.59586 0.1864 0.0
C67 C 0.11902 0.36912 0.21033 0.0
C68 C 0.34413 0.56543 0.22877 0.0
C69 C 0.34963 0.53155 0.25197 0.0
C70 C 0.32803 0.44298 0.25467 0.0
C71 C 0.37805 0.58781 0.27154 0.0
C72 C 0.384 0.55525 0.29363 0.0
C73 C 0.33252 0.4102 0.27644 0.0
C74 C 0.36031 0.46572 0.2958 0.0
C75 C 0.16086 0.29552 0.16577 0.0
H76 H 0.79803 0.22553 0.14249 0.0
H77 H 0.95421 0.34169 0.08061 0.0
H78 H 0.66294 0.1833 0.12004 0.0
H79 H 0.67101 0.22136 0.0784 0.0
H80 H 0.30874 0.39894 0.24 0.0
H81 H 0.39554 0.65648 0.26957 0.0
H82 H 0.31569 0.34174 0.27824 0.0
H83 H 0.36562 0.43899 0.31238 0.0
Gd84 Gd 0.74109 0.14694 0.49542 0.0
Gd85 Gd 0.61575 0.92982 0.52537 0.0
C86 C 0.46058 0.67054 0.48509 0.0
C87 C 0.3092 0.62496 0.49561 0.0
C88 C 0.43063 0.76003 0.51172 0.0
C89 C 0.49024 0.74625 0.49928 0.0
C90 C 0.33948 0.69869 0.51041 0.0
C91 C 0.36966 0.61089 0.48297 0.0
C92 C 0.52329 0.65613 0.47387 0.0
C93 C 0.61289 0.71497 0.47754 0.0
N94 N 0.57752 0.80499 0.50185 0.0
C95 C 0.63896 0.7888 0.49192 0.0
H96 H 0.70833 0.83386 0.4945 0.0
C97 C 0.40677 0.84281 0.54053 0.0
N98 N 0.46227 0.83168 0.52591 0.0
C99 C 0.31576 0.78412 0.53976 0.0
C100 C 0.2818 0.71232 0.52442 0.0
H101 H 0.43234 0.89833 0.55236 0.0
H102 H 0.34555 0.55277 0.47198 0.0
H103 H 0.64933 0.24765 0.52442 0.0
H104 H 0.50327 0.59896 0.46275 0.0
H105 H 0.66197 0.70369 0.46926 0.0
H106 H 0.23937 0.5776 0.49416 0.0
H107 H 0.92427 0.17174 0.46996 0.0
H108 H 0.8554 0.48291 0.55586 0.0
H109 H 0.69659 0.3803 0.5488 0.0
H110 H 0.11862 0.49652 0.52666 0.0
H111 H 0.27187 0.79442 0.55096 0.0
H112 H 0.21129 0.66694 0.52388 0.0
H113 H 0.01288 0.52545 0.54765 0.0
H114 H 0.08525 0.27399 0.47166 0.0
N115 N 0.77971 0.27313 0.51825 0.0
C116 C 0.83499 0.42463 0.54516 0.0
C117 C 0.74532 0.36701 0.54117 0.0
C118 C 0.89734 0.40775 0.53471 0.0
C119 C 0.86719 0.33076 0.52102 0.0
C120 C 0.71876 0.29182 0.52731 0.0
N121 N 0.89484 0.24191 0.49545 0.0
C122 C 0.92666 0.31486 0.50917 0.0
C123 C 0.04141 0.28611 0.48237 0.0
C124 C 0.0756 0.35919 0.49729 0.0
C125 C 0.95022 0.22843 0.48141 0.0
C126 C 0.01801 0.3751 0.51067 0.0
H127 H 0.14625 0.40376 0.49799 0.0
O128 O 0.75877 0.16858 0.45807 0.0
O129 O 0.65724 0.00173 0.49175 0.0
O130 O 0.75814 0.96964 0.51718 0.0
O131 O 0.83529 0.12399 0.51623 0.0
O132 O 0.76187 0.062 0.46909 0.0
O133 O 0.69694 0.22859 0.47807 0.0
O134 O 0.6041 0.90966 0.56288 0.0
O135 O 0.69736 0.07557 0.52912 0.0
O136 O 0.5982 0.10851 0.50244 0.0
O137 O 0.51888 0.95404 0.50634 0.0
O138 O 0.59077 0.0126 0.55124 0.0
O139 O 0.66409 0.85043 0.54199 0.0
C140 C 0.69329 0.98765 0.47454 0.0
C141 C 0.04865 0.45001 0.52505 0.0
C142 C 0.98842 0.46636 0.53703 0.0
C143 C 0.72929 0.22377 0.45789 0.0
C144 C 0.78437 0.30676 0.44498 0.0
C145 C 0.82738 0.38899 0.45637 0.0
C146 C 0.79703 0.3027 0.42086 0.0
C147 C 0.85241 0.37991 0.40804 0.0
C148 C 0.88167 0.46601 0.44376 0.0
C149 C 0.89426 0.46174 0.41979 0.0
C150 C 0.83216 0.04723 0.51848 0.0
C151 C 0.65753 0.08813 0.5457 0.0
C152 C 0.63554 0.85616 0.56261 0.0
C153 C 0.58378 0.77335 0.57576 0.0
C154 C 0.51825 0.69668 0.56476 0.0
C155 C 0.59664 0.77257 0.59993 0.0
C156 C 0.54373 0.6959 0.61321 0.0
C157 C 0.46578 0.62033 0.57779 0.0
C158 C 0.47806 0.61983 0.60186 0.0
C159 C 0.52354 0.03098 0.50254 0.0
H160 H 0.81968 0.39375 0.47499 0.0
H161 H 0.76368 0.23909 0.4121 0.0
H162 H 0.91495 0.52922 0.45264 0.0
H163 H 0.93828 0.52231 0.41057 0.0
H164 H 0.50722 0.69595 0.54618 0.0
H165 H 0.64649 0.83224 0.60847 0.0
H166 H 0.41525 0.56138 0.56922 0.0
H167 H 0.43693 0.55958 0.61157 0.0
Gd168 Gd 0.72886 0.42228 0.82903 0.0
Gd169 Gd 0.65248 0.56472 0.85653 0.0
C170 C 0.5612 0.72802 0.81524 0.0
C171 C 0.67471 0.87876 0.82441 0.0
C172 C 0.68135 0.75382 0.84089 0.0
C173 C 0.60517 0.69569 0.82919 0.0
C174 C 0.71603 0.84604 0.83906 0.0
C175 C 0.59748 0.81981 0.81249 0.0
C176 C 0.48047 0.6672 0.80519 0.0
C177 C 0.44387 0.57708 0.80996 0.0
N178 N 0.57087 0.60755 0.83272 0.0
C179 C 0.48949 0.54844 0.82418 0.0
H180 H 0.46039 0.47867 0.82771 0.0
C181 C 0.78769 0.77437 0.86925 0.0
N182 N 0.71867 0.71993 0.85516 0.0
C183 C 0.82486 0.86632 0.86794 0.0
C184 C 0.78949 0.90243 0.85258 0.0
H185 H 0.81545 0.74698 0.88115 0.0
H186 H 0.56496 0.84588 0.80172 0.0
H187 H 0.91747 0.50864 0.85951 0.0
H188 H 0.44473 0.68926 0.7943 0.0
H189 H 0.38053 0.52959 0.80271 0.0
H190 H 0.70063 0.94939 0.82265 0.0
H191 H 0.56795 0.24023 0.80361 0.0
H192 H 0.93517 0.2974 0.89178 0.0
H193 H -0.00326 0.45754 0.88465 0.0
H194 H 0.68473 0.03741 0.86122 0.0
H195 H 0.8807 0.90925 0.87877 0.0
H196 H 0.818 0.97365 0.85171 0.0
H197 H 0.81814 0.14069 0.883 0.0
H198 H 0.50464 0.07828 0.80527 0.0
N199 N 0.80978 0.3792 0.85307 0.0
C200 C 0.8997 0.31951 0.8808 0.0
C201 C 0.93477 0.4099 0.87676 0.0
C202 C 0.82072 0.25862 0.86999 0.0
C203 C 0.77701 0.29099 0.85595 0.0
C204 C 0.88947 0.43863 0.86246 0.0
N205 N 0.66464 0.26711 0.82964 0.0
C206 C 0.70215 0.23304 0.84377 0.0
C207 C 0.56001 0.121 0.81627 0.0
C208 C 0.5958 0.0847 0.83141 0.0
C209 C 0.59614 0.21289 0.81537 0.0
C210 C 0.6685 0.14087 0.84519 0.0
H211 H 0.56807 0.01354 0.83198 0.0
O212 O 0.73576 0.40192 0.79187 0.0
O213 O 0.67554 0.51254 0.82361 0.0
O214 O 0.54089 0.42348 0.85043 0.0
O215 O 0.60445 0.33338 0.84867 0.0
O216 O 0.6247 0.40151 0.80268 0.0
O217 O 0.85562 0.46558 0.81243 0.0
O218 O 0.64883 0.5897 0.89354 0.0
O219 O 0.70413 0.47328 0.86186 0.0
O220 O 0.83971 0.56311 0.83565 0.0
O221 O 0.77561 0.65247 0.83622 0.0
O222 O 0.7561 0.58334 0.88296 0.0
O223 O 0.52726 0.52412 0.87375 0.0
C224 C 0.62257 0.47269 0.80716 0.0
C225 C 0.70982 0.108 0.85979 0.0
C226 C 0.78576 0.16681 0.8722 0.0
C227 C 0.82055 0.43304 0.79214 0.0
C228 C 0.85129 0.37966 0.77975 0.0
C229 C 0.87845 0.3276 0.79184 0.0
C230 C 0.85054 0.37887 0.75524 0.0
C231 C 0.87621 0.32613 0.74266 0.0
C232 C 0.90501 0.27585 0.77952 0.0
C233 C 0.90391 0.27491 0.75511 0.0
C234 C 0.53592 0.34503 0.85151 0.0
C235 C 0.75642 0.51114 0.87853 0.0
C236 C 0.56415 0.55928 0.8937 0.0
C237 C 0.53561 0.61586 0.90536 0.0
C238 C 0.52119 0.67594 0.89258 0.0
C239 C 0.52616 0.61215 0.92977 0.0
C240 C 0.50253 0.66826 0.94149 0.0
C241 C 0.49771 0.73168 0.90405 0.0
C242 C 0.48843 0.72806 0.92831 0.0
C243 C 0.84448 0.6412 0.83384 0.0
H244 H 0.87873 0.32656 0.81074 0.0
H245 H 0.82973 0.41947 0.746 0.0
H246 H 0.92561 0.23553 0.78891 0.0
H247 H 0.92282 0.23251 0.74603 0.0
H248 H 0.52821 0.67995 0.87381 0.0
H249 H 0.53865 0.56658 0.93963 0.0
H250 H 0.48651 0.7778 0.89408 0.0
H251 H 0.4689 0.77121 0.9367 0.0
C252 C 0.22986 0.76126 0.18457 0.0
C253 C 0.15488 0.679 0.18939 0.0
C254 C 0.22376 0.8379 0.18366 0.0
C255 C 0.14255 0.83364 0.18774 0.0
C256 C 0.06946 0.75285 0.19442 0.0
C257 C 0.07542 0.67616 0.19518 0.0
C258 C 0.13186 0.91198 0.18498 0.0
C259 C 0.17729 0.9752 0.16894 0.0
C260 C 0.16784 0.05429 0.16605 0.0
C261 C 0.24017 0.13264 0.15769 0.0
C262 C 0.23631 0.21039 0.15646 0.0
C263 C 0.15973 0.21099 0.16344 0.0
H264 H 0.03081 0.9934 0.17714 0.0
C265 C 0.0852 0.1313 0.17027 0.0
C266 C 0.08915 0.05351 0.17158 0.0
H267 H 0.02495 0.12957 0.17551 0.0
H268 H 0.29265 0.76649 0.18072 0.0
H269 H 0.28248 0.90008 0.17953 0.0
H270 H 0.00668 0.74833 0.19816 0.0
H271 H 0.0169 0.61421 0.19964 0.0
H272 H 0.08309 0.91555 0.19593 0.0
H273 H 0.22568 0.97084 0.158 0.0
H274 H 0.30094 0.13453 0.15288 0.0
H275 H 0.29414 0.27058 0.15061 0.0
C276 C 0.43478 0.10523 0.50671 0.0
C277 C 0.43961 0.02986 0.50082 0.0
C278 C 0.35316 0.10021 0.50851 0.0
C279 C 0.27501 0.01976 0.50407 0.0
C280 C 0.28051 0.94556 0.49723 0.0
C281 C 0.36204 0.95057 0.49551 0.0
C282 C 0.18654 0.00856 0.50773 0.0
C283 C 0.171 0.0764 0.50872 0.0
C284 C 0.0824 0.06383 0.51299 0.0
C285 C 0.07579 0.13414 0.52259 0.0
C286 C -0.00641 0.1268 0.52566 0.0
C287 C 0.9167 0.04927 0.51888 0.0
H288 H 0.00736 0.93045 0.4987 0.0
C289 C 0.92288 0.9778 0.50997 0.0
C290 C 0.00506 0.98517 0.50685 0.0
H291 H 0.86475 0.91781 0.50429 0.0
H292 H 0.49355 0.16698 0.51107 0.0
H293 H 0.35228 0.15857 0.5144 0.0
H294 H 0.2214 0.88291 0.49367 0.0
H295 H 0.36403 0.89157 0.49067 0.0
H296 H 0.13251 0.94122 0.50998 0.0
H297 H 0.22451 0.14402 0.5067 0.0
H298 H 0.13443 0.19539 0.52742 0.0
H299 H 0.99046 0.18283 0.53267 0.0
C300 C 0.94067 0.8041 0.82789 0.0
C301 C 0.93238 0.72088 0.83189 0.0
C302 C 0.02291 0.88084 0.82927 0.0
C303 C 0.09846 0.87551 0.83449 0.0
C304 C 0.09114 0.79215 0.83675 0.0
C305 C 0.00877 0.71541 0.83559 0.0
C306 C 0.18556 0.95545 0.83788 0.0
C307 C 0.19485 0.0308 0.84692 0.0
C308 C 0.28198 0.11066 0.85044 0.0
C309 C 0.28918 0.19412 0.84865 0.0
C310 C 0.37153 0.27088 0.84999 0.0
C311 C 0.448 0.26529 0.85335 0.0
H312 H 0.35388 0.04194 0.85793 0.0
C313 C 0.43987 0.18186 0.85683 0.0
C314 C 0.35767 0.10518 0.85534 0.0
H315 H 0.49719 0.17549 0.86025 0.0
H316 H 0.88344 0.81028 0.82416 0.0
H317 H 0.02691 0.94402 0.82635 0.0
H318 H 0.14882 0.7865 0.84034 0.0
H319 H 0.00494 0.65223 0.83838 0.0
H320 H 0.24336 0.95054 0.83357 0.0
H321 H 0.13697 0.03559 0.85121 0.0
H322 H 0.23142 0.1999 0.84532 0.0
H323 H 0.37527 0.33417 0.84758 0.0
C324 C 0.4474 0.58191 0.97893 0.0
C325 C 0.49131 0.66394 0.96733 0.0
C326 C 0.43112 0.57772 1.00297 0.0
C327 C 0.45913 0.65577 0.01603 0.0
C328 C 0.50501 0.73767 1.00449 0.0
C329 C 0.52115 0.7418 0.98049 0.0
C330 C 0.43443 0.65465 0.04102 0.0
C331 C 0.40674 0.58414 0.05531 0.0
C332 C 0.36706 0.57795 0.07881 0.0
C333 C 0.35798 0.51147 0.09434 0.0
C334 C 0.30962 0.49501 0.11506 0.0
C335 C 0.26981 0.5452 0.12071 0.0
H336 H 0.33215 0.6802 0.07342 0.0
C337 C 0.28126 0.61354 0.10568 0.0
C338 C 0.32932 0.62995 0.08499 0.0
H339 H 0.25001 0.65224 0.10952 0.0
H340 H 0.42244 0.52061 0.96927 0.0
H341 H 0.39339 0.51304 0.0109 0.0
H342 H 0.52711 0.79888 0.01401 0.0
H343 H 0.55631 0.80616 0.97218 0.0
H344 H 0.43805 0.71465 0.04763 0.0
H345 H 0.41079 0.5271 0.04949 0.0
H346 H 0.3856 0.46988 0.09002 0.0
H347 H 0.30026 0.44063 0.1261 0.0
C348 C 0.8814 0.30701 0.3739 0.0
C349 C 0.86848 0.37499 0.38266 0.0
C350 C 0.9007 0.30468 0.35026 0.0
C351 C 0.90705 0.37021 0.33472 0.0
C352 C 0.89297 0.43737 0.34348 0.0
C353 C 0.87377 0.43971 0.36709 0.0
C354 C 0.93407 0.37502 0.30977 0.0
C355 C 0.93381 0.30796 0.29792 0.0
C356 C 0.97172 0.31853 0.27402 0.0
C357 C 0.00745 0.2654 0.26746 0.0
C358 C 0.05181 0.27928 0.24618 0.0
C359 C 0.05992 0.34551 0.2308 0.0
H360 H 0.94662 0.4221 0.26205 0.0
C361 C 0.02025 0.39567 0.23675 0.0
C362 C 0.97603 0.38195 0.25806 0.0
H363 H 0.02586 0.44761 0.22534 0.0
H364 H 0.8794 0.25697 0.38546 0.0
H365 H 0.91335 0.25299 0.34462 0.0
H366 H 0.89767 0.48897 0.33203 0.0
H367 H 0.86319 0.49244 0.37317 0.0
H368 H 0.95821 0.43842 0.30113 0.0
H369 H 0.91079 0.24452 0.30637 0.0
H370 H 0.00436 0.21545 0.27926 0.0
H371 H 0.08215 0.23999 0.24204 0.0
C372 C 0.64726 0.60219 0.7826 0.0
C373 C 0.59433 0.51301 0.78908 0.0
C374 C 0.62671 0.63477 0.76266 0.0
C375 C 0.55322 0.5782 0.74885 0.0
C376 C 0.49803 0.49055 0.75624 0.0
C377 C 0.51901 0.45798 0.77594 0.0
C378 C 0.53389 0.60539 0.72602 0.0
C379 C 0.59669 0.66707 0.71202 0.0
C380 C 0.58108 0.68062 0.68714 0.0
C381 C 0.65389 0.72191 0.67196 0.0
C382 C 0.64208 0.72891 0.64807 0.0
C383 C 0.55699 0.69463 0.63879 0.0
H384 H 0.43824 0.62147 0.68901 0.0
C385 C 0.48432 0.65674 0.65405 0.0
C386 C 0.49612 0.65044 0.67796 0.0
H387 H 0.41809 0.63173 0.64747 0.0
H388 H 0.70622 0.64568 0.79236 0.0
H389 H 0.66933 0.70346 0.75792 0.0
H390 H 0.44064 0.44569 0.74611 0.0
H391 H 0.4775 0.38885 0.78058 0.0
H392 H 0.46741 0.5648 0.71944 0.0
H393 H 0.66447 0.70252 0.71809 0.0
H394 H 0.72016 0.7465 0.67847 0.0
H395 H 0.6994 0.75848 0.63675 0.0
C396 C 0.84765 0.51725 0.91222 0.0
C397 C 0.77707 0.46634 0.89718 0.0
C398 C 0.85954 0.48 0.93246 0.0
C399 C 0.7994 0.39132 0.9384 0.0
C400 C 0.73224 0.33893 0.9225 0.0
C401 C 0.72069 0.37621 0.90213 0.0
C402 C 0.80168 0.35306 0.96146 0.0
C403 C 0.83538 0.40328 0.98076 0.0
C404 C 0.83101 0.3679 1.00465 0.0
C405 C 0.88985 0.42532 0.02154 0.0
C406 C 0.88476 0.39784 0.04464 0.0
C407 C 0.82002 0.31223 0.05154 0.0
H408 H 0.71836 0.23612 0.99917 0.0
C409 C 0.76105 0.25436 0.03468 0.0
C410 C 0.76646 0.28176 0.01145 0.0
H411 H 0.71061 0.18788 0.03946 0.0
H412 H 0.89239 0.58675 0.90862 0.0
H413 H 0.91479 0.52169 0.94359 0.0
H414 H 0.68577 0.27014 0.92641 0.0
H415 H 0.66524 0.33559 0.89093 0.0
H416 H 0.76964 0.28149 0.96276 0.0
H417 H 0.86637 0.47474 0.97938 0.0
H418 H 0.93956 0.49231 0.01689 0.0
H419 H 0.93034 0.44457 0.05725 0.0
C420 C 0.38052 0.58318 0.33646 0.0
C421 C 0.41862 0.61409 0.31435 0.0
C422 C 0.41944 0.6332 0.35649 0.0
C423 C 0.49712 0.71624 0.35487 0.0
C424 C 0.53348 0.74833 0.33267 0.0
C425 C 0.49461 0.69803 0.31261 0.0
C426 C 0.54468 0.76922 0.37583 0.0
C427 C 0.50847 0.7562 0.3973 0.0
C428 C 0.55705 0.81107 0.4178 0.0
C429 C 0.50954 0.82475 0.43544 0.0
C430 C 0.55331 0.88007 0.4543 0.0
C431 C 0.64537 0.9207 0.45631 0.0
H432 H 0.68762 0.83866 0.40718 0.0
C433 C 0.69278 0.90465 0.43911 0.0
C434 C 0.6491 0.84999 0.42007 0.0
H435 H 0.76389 0.93555 0.44022 0.0
H436 H 0.32148 0.51904 0.33836 0.0
H437 H 0.38963 0.60462 0.37313 0.0
H438 H 0.59335 0.81186 0.33084 0.0
H439 H 0.52619 0.7233 0.29588 0.0
H440 H 0.61175 0.82316 0.37319 0.0
H441 H 0.43926 0.70809 0.39987 0.0
H442 H 0.43855 0.79498 0.43424 0.0
H443 H 0.51497 0.89261 0.46688 0.0
C444 C 0.79883 0.31928 0.70516 0.0
C445 C 0.87092 0.32204 0.71669 0.0
C446 C 0.79093 0.31058 0.6809 0.0
C447 C 0.85534 0.30483 0.66747 0.0
C448 C 0.92797 0.30886 0.67897 0.0
C449 C 0.93593 0.31769 0.70326 0.0
C450 C 0.8445 0.28549 0.64195 0.0
C451 C 0.79003 0.299 0.62816 0.0
C452 C 0.76353 0.2594 0.60452 0.0
C453 C 0.6763 0.22837 0.59741 0.0
C454 C 0.64356 0.177 0.5773 0.0
C455 C 0.69822 0.15806 0.56349 0.0
H456 H 0.88838 0.27055 0.5945 0.0
C457 C 0.7875 0.19492 0.56948 0.0
C458 C 0.82003 0.24531 0.58988 0.0
H459 H 0.83083 0.18067 0.55922 0.0
H460 H 0.74655 0.32054 0.71496 0.0
H461 H 0.7322 0.30459 0.67302 0.0
H462 H 0.97823 0.30384 0.66916 0.0
H463 H -0.00718 0.32059 0.71152 0.0
H464 H 0.8787 0.25341 0.6347 0.0
H465 H 0.75545 0.33086 0.63523 0.0
H466 H 0.63164 0.23898 0.60824 0.0
H467 H 0.57441 0.14894 0.57301 0.0
loop_
_geom_bond_atom_site_label_1
_geom_bond_atom_site_label_2
_geom_bond_distance
_geom_bond_site_symmetry_2
_ccdc_geom_bond_type
Gd0 N31 2.661 . S
Gd0 N37 2.601 . S
Gd0 O44 2.545 . S
Gd0 O45 2.606 1_655 S
Gd0 O47 2.429 . S
Gd0 O48 2.545 . S
Gd0 O49 2.412 . S
Gd0 O51 2.362 . S
Gd0 O52 2.324 . S
Gd0 C59 2.828 . S
Gd1 N10 2.661 . S
Gd1 N14 2.601 . S
Gd1 O45 2.362 . S
Gd1 O46 2.324 . S
Gd1 O50 2.545 . S
Gd1 O51 2.606 1_455 S
Gd1 O53 2.429 . S
Gd1 O54 2.545 . S
Gd1 O55 2.412 . S
Gd1 C68 2.828 . S
C2 C5 1.417 . S
C2 C7 1.431 . S
C2 C8 1.412 . S
C3 C6 1.437 . S
C3 C7 1.317 . S
C3 H22 0.929 . S
C4 C5 1.426 . S
C4 C6 1.413 . S
C4 N14 1.359 . S
C5 C2 1.417 . S
C5 C4 1.426 . S
C5 N10 1.350 . S
C6 C3 1.437 . S
C6 C4 1.413 . S
C6 C16 1.391 . S
C7 C2 1.431 . S
C7 C3 1.317 . S
C7 H18 0.930 . S
C8 C2 1.412 . S
C8 C9 1.355 . S
C8 H20 0.930 . S
C9 C8 1.355 . S
C9 C11 1.402 . S
C9 H21 0.930 . S
N10 Gd1 2.661 . S
N10 C5 1.350 . S
N10 C11 1.307 . S
C11 C9 1.402 . S
C11 N10 1.307 . S
C11 H12 0.930 . S
H12 C11 0.930 . S
C13 N14 1.334 . S
C13 C15 1.394 . S
C13 H17 0.930 . S
N14 Gd1 2.601 . S
N14 C4 1.359 . S
N14 C13 1.334 . S
C15 C13 1.394 . S
C15 C16 1.359 . S
C15 H27 0.930 . S
C16 C6 1.391 . S
C16 C15 1.359 . S
C16 H28 0.929 . S
H17 C13 0.930 . S
H18 C7 0.930 . S
H19 C36 0.930 . S
H20 C8 0.930 . S
H21 C9 0.930 . S
H22 C3 0.929 . S
H23 C41 0.930 . S
H24 C32 0.930 . S
H25 C33 0.930 . S
H26 C57 0.929 . S
H27 C15 0.930 . S
H28 C16 0.929 . S
H29 C58 0.930 . S
H30 C39 0.930 . S
N31 Gd0 2.661 . S
N31 C35 1.350 . S
N31 C36 1.307 . S
C32 H24 0.930 . S
C32 C33 1.355 . S
C32 C34 1.412 . S
C33 H25 0.930 . S
C33 C32 1.355 . S
C33 C36 1.402 . S
C34 C32 1.412 . S
C34 C35 1.417 . S
C34 C58 1.431 . S
C35 N31 1.350 . S
C35 C34 1.417 . S
C35 C38 1.426 . S
C36 H19 0.930 . S
C36 N31 1.307 . S
C36 C33 1.402 . S
N37 Gd0 2.601 . S
N37 C38 1.359 . S
N37 C41 1.334 . S
C38 C35 1.426 . S
C38 N37 1.359 . S
C38 C42 1.413 . S
C39 H30 0.930 . S
C39 C40 1.359 . S
C39 C41 1.394 . S
C40 C39 1.359 . S
C40 C42 1.391 . S
C40 H43 0.929 . S
C41 H23 0.930 . S
C41 N37 1.334 . S
C41 C39 1.394 . S
C42 C38 1.413 . S
C42 C40 1.391 . S
C42 C57 1.437 . S
H43 C40 0.929 . S
O44 Gd0 2.545 . S
O44 C59 1.258 . S
O45 Gd0 2.606 1_455 S
O45 Gd1 2.362 . S
O45 C56 1.284 . S
O46 Gd1 2.324 . S
O46 C66 1.254 . S
O47 Gd0 2.429 . S
O47 C66 1.268 1_655 S
O48 Gd0 2.545 . S
O48 C56 1.250 1_655 S
O49 Gd0 2.412 . S
O49 C59 1.252 . S
O50 Gd1 2.545 . S
O50 C68 1.258 . S
O51 Gd0 2.362 . S
O51 Gd1 2.606 1_655 S
O51 C67 1.284 . S
O52 Gd0 2.324 . S
O52 C75 1.254 . S
O53 Gd1 2.429 . S
O53 C75 1.268 1_455 S
O54 Gd1 2.545 . S
O54 C67 1.250 1_455 S
O55 Gd1 2.412 . S
O55 C68 1.252 . S
C56 O45 1.284 . S
C56 O48 1.250 1_455 S
C57 H26 0.929 . S
C57 C42 1.437 . S
C57 C58 1.317 . S
C58 H29 0.930 . S
C58 C34 1.431 . S
C58 C57 1.317 . S
C59 Gd0 2.828 . S
C59 O44 1.258 . S
C59 O49 1.252 . S
C59 C60 1.497 . S
C60 C59 1.497 . S
C60 C61 1.395 . S
C60 C62 1.380 . S
C61 C60 1.395 . S
C61 C64 1.398 . S
C61 H76 0.930 . S
C62 C60 1.380 . S
C62 C63 1.391 . S
C62 H77 0.930 . S
C63 C62 1.391 . S
C63 C65 1.387 . S
C64 C61 1.398 . S
C64 C65 1.380 . S
C64 H78 0.930 . S
C65 C63 1.387 . S
C65 C64 1.380 . S
C65 H79 0.930 . S
C66 O46 1.254 . S
C66 O47 1.268 1_455 S
C67 O51 1.284 . S
C67 O54 1.250 1_655 S
C68 Gd1 2.828 . S
C68 O50 1.258 . S
C68 O55 1.252 . S
C68 C69 1.497 . S
C69 C68 1.497 . S
C69 C70 1.395 . S
C69 C71 1.380 . S
C70 C69 1.395 . S
C70 C73 1.398 . S
C70 H80 0.930 . S
C71 C69 1.380 . S
C71 C72 1.391 . S
C71 H81 0.930 . S
C72 C71 1.391 . S
C72 C74 1.387 . S
C73 C70 1.398 . S
C73 C74 1.380 . S
C73 H82 0.930 . S
C74 C72 1.387 . S
C74 C73 1.380 . S
C74 H83 0.930 . S
C75 O52 1.254 . S
C75 O53 1.268 1_655 S
H76 C61 0.930 . S
H77 C62 0.930 . S
H78 C64 0.930 . S
H79 C65 0.930 . S
H80 C70 0.930 . S
H81 C71 0.930 . S
H82 C73 0.930 . S
H83 C74 0.930 . S
Gd84 N115 2.661 . S
Gd84 N121 2.601 1_655 S
Gd84 O128 2.545 . S
Gd84 O129 2.606 . S
Gd84 O131 2.429 . S
Gd84 O132 2.545 . S
Gd84 O133 2.412 . S
Gd84 O135 2.362 . S
Gd84 O136 2.324 . S
Gd84 C143 2.828 . S
Gd85 N94 2.661 1_545 S
Gd85 N98 2.601 1_545 S
Gd85 O129 2.362 . S
Gd85 O130 2.324 . S
Gd85 O134 2.545 . S
Gd85 O135 2.606 . S
Gd85 O137 2.429 . S
Gd85 O138 2.545 . S
Gd85 O139 2.412 1_545 S
Gd85 C152 2.828 1_545 S
C86 C89 1.417 . S
C86 C91 1.431 . S
C86 C92 1.412 . S
C87 C90 1.437 . S
C87 C91 1.317 . S
C87 H106 0.929 . S
C88 C89 1.426 . S
C88 C90 1.413 . S
C88 N98 1.359 . S
C89 C86 1.417 . S
C89 C88 1.426 . S
C89 N94 1.350 . S
C90 C87 1.437 . S
C90 C88 1.413 . S
C90 C100 1.391 . S
C91 C86 1.431 . S
C91 C87 1.317 . S
C91 H102 0.930 . S
C92 C86 1.412 . S
C92 C93 1.355 . S
C92 H104 0.930 . S
C93 C92 1.355 . S
C93 C95 1.402 . S
C93 H105 0.930 . S
N94 Gd85 2.661 1_565 S
N94 C89 1.350 . S
N94 C95 1.307 . S
C95 C93 1.402 . S
C95 N94 1.307 . S
C95 H96 0.930 . S
H96 C95 0.930 . S
C97 N98 1.334 . S
C97 C99 1.394 . S
C97 H101 0.930 . S
N98 Gd85 2.601 1_565 S
N98 C88 1.359 . S
N98 C97 1.334 . S
C99 C97 1.394 . S
C99 C100 1.359 . S
C99 H111 0.930 . S
C100 C90 1.391 . S
C100 C99 1.359 . S
C100 H112 0.929 . S
H101 C97 0.930 . S
H102 C91 0.930 . S
H103 C120 0.930 . S
H104 C92 0.930 . S
H105 C93 0.930 . S
H106 C87 0.929 . S
H107 C125 0.930 . S
H108 C116 0.930 . S
H109 C117 0.930 . S
H110 C141 0.929 . S
H111 C99 0.930 . S
H112 C100 0.929 . S
H113 C142 0.930 . S
H114 C123 0.930 . S
N115 Gd84 2.661 . S
N115 C119 1.350 . S
N115 C120 1.307 . S
C116 H108 0.930 . S
C116 C117 1.355 . S
C116 C118 1.412 . S
C117 H109 0.930 . S
C117 C116 1.355 . S
C117 C120 1.402 . S
C118 C116 1.412 . S
C118 C119 1.417 . S
C118 C142 1.431 1_655 S
C119 N115 1.350 . S
C119 C118 1.417 . S
C119 C122 1.426 1_655 S
C120 H103 0.930 . S
C120 N115 1.307 . S
C120 C117 1.402 . S
N121 Gd84 2.601 1_455 S
N121 C122 1.359 . S
N121 C125 1.334 . S
C122 C119 1.426 1_455 S
C122 N121 1.359 . S
C122 C126 1.413 . S
C123 H114 0.930 . S
C123 C124 1.359 . S
C123 C125 1.394 . S
C124 C123 1.359 . S
C124 C126 1.391 . S
C124 H127 0.929 . S
C125 H107 0.930 . S
C125 N121 1.334 . S
C125 C123 1.394 . S
C126 C122 1.413 . S
C126 C124 1.391 . S
C126 C141 1.437 . S
H127 C124 0.929 . S
O128 Gd84 2.545 . S
O128 C143 1.258 . S
O129 Gd84 2.606 . S
O129 Gd85 2.362 . S
O129 C140 1.284 . S
O130 Gd85 2.324 . S
O130 C150 1.254 . S
O131 Gd84 2.429 . S
O131 C150 1.268 . S
O132 Gd84 2.545 . S
O132 C140 1.250 . S
O133 Gd84 2.412 . S
O133 C143 1.252 . S
O134 Gd85 2.545 . S
O134 C152 1.258 1_545 S
O135 Gd84 2.362 . S
O135 Gd85 2.606 . S
O135 C151 1.284 . S
O136 Gd84 2.324 . S
O136 C159 1.254 . S
O137 Gd85 2.429 . S
O137 C159 1.268 . S
O138 Gd85 2.545 . S
O138 C151 1.250 . S
O139 Gd85 2.412 1_565 S
O139 C152 1.252 . S
C140 O129 1.284 . S
C140 O132 1.250 . S
C141 H110 0.929 . S
C141 C126 1.437 . S
C141 C142 1.317 . S
C142 H113 0.930 . S
C142 C118 1.431 1_455 S
C142 C141 1.317 . S
C143 Gd84 2.828 . S
C143 O128 1.258 . S
C143 O133 1.252 . S
C143 C144 1.497 . S
C144 C143 1.497 . S
C144 C145 1.395 . S
C144 C146 1.380 . S
C145 C144 1.395 . S
C145 C148 1.398 . S
C145 H160 0.930 1_655 S
C146 C144 1.380 . S
C146 C147 1.391 . S
C146 H161 0.930 . S
C147 C146 1.391 . S
C147 C149 1.387 . S
C148 C145 1.398 . S
C148 C149 1.380 . S
C148 H162 0.930 1_655 S
C149 C147 1.387 . S
C149 C148 1.380 . S
C149 H163 0.930 . S
C150 O130 1.254 . S
C150 O131 1.268 . S
C151 O135 1.284 . S
C151 O138 1.250 . S
C152 Gd85 2.828 1_565 S
C152 O134 1.258 1_565 S
C152 O139 1.252 . S
C152 C153 1.497 . S
C153 C152 1.497 . S
C153 C154 1.395 . S
C153 C155 1.380 . S
C154 C153 1.395 . S
C154 C157 1.398 . S
C154 H164 0.930 . S
C155 C153 1.380 . S
C155 C156 1.391 . S
C155 H165 0.930 . S
C156 C155 1.391 . S
C156 C158 1.387 . S
C157 C154 1.398 . S
C157 C158 1.380 . S
C157 H166 0.930 . S
C158 C156 1.387 . S
C158 C157 1.380 . S
C158 H167 0.930 . S
C159 O136 1.254 . S
C159 O137 1.268 . S
H160 C145 0.930 1_455 S
H161 C146 0.930 . S
H162 C148 0.930 1_455 S
H163 C149 0.930 . S
H164 C154 0.930 . S
H165 C155 0.930 . S
H166 C157 0.930 . S
H167 C158 0.930 . S
Gd168 N199 2.661 . S
Gd168 N205 2.601 . S
Gd168 O212 2.545 . S
Gd168 O213 2.606 . S
Gd168 O215 2.429 . S
Gd168 O216 2.545 . S
Gd168 O217 2.412 . S
Gd168 O219 2.362 . S
Gd168 O220 2.324 . S
Gd168 C227 2.828 . S
Gd169 N178 2.661 . S
Gd169 N182 2.601 . S
Gd169 O213 2.362 . S
Gd169 O214 2.324 . S
Gd169 O218 2.545 . S
Gd169 O219 2.606 . S
Gd169 O221 2.429 . S
Gd169 O222 2.545 . S
Gd169 O223 2.412 . S
Gd169 C236 2.828 . S
C170 C173 1.417 . S
C170 C175 1.431 . S
C170 C176 1.412 . S
C171 C174 1.437 . S
C171 C175 1.317 . S
C171 H190 0.929 . S
C172 C173 1.426 . S
C172 C174 1.413 . S
C172 N182 1.359 . S
C173 C170 1.417 . S
C173 C172 1.426 . S
C173 N178 1.350 . S
C174 C171 1.437 . S
C174 C172 1.413 . S
C174 C184 1.391 . S
C175 C170 1.431 . S
C175 C171 1.317 . S
C175 H186 0.930 . S
C176 C170 1.412 . S
C176 C177 1.355 . S
C176 H188 0.930 . S
C177 C176 1.355 . S
C177 C179 1.402 . S
C177 H189 0.930 . S
N178 Gd169 2.661 . S
N178 C173 1.350 . S
N178 C179 1.307 . S
C179 C177 1.402 . S
C179 N178 1.307 . S
C179 H180 0.930 . S
H180 C179 0.930 . S
C181 N182 1.334 . S
C181 C183 1.394 . S
C181 H185 0.930 . S
N182 Gd169 2.601 . S
N182 C172 1.359 . S
N182 C181 1.334 . S
C183 C181 1.394 . S
C183 C184 1.359 . S
C183 H195 0.930 . S
C184 C174 1.391 . S
C184 C183 1.359 . S
C184 H196 0.929 . S
H185 C181 0.930 . S
H186 C175 0.930 . S
H187 C204 0.930 . S
H188 C176 0.930 . S
H189 C177 0.930 . S
H190 C171 0.929 . S
H191 C209 0.930 . S
H192 C200 0.930 . S
H193 C201 0.930 . S
H194 C225 0.929 . S
H195 C183 0.930 . S
H196 C184 0.929 . S
H197 C226 0.930 1_455 S
H198 C207 0.930 1_565 S
N199 Gd168 2.661 . S
N199 C203 1.350 . S
N199 C204 1.307 1_655 S
C200 H192 0.930 . S
C200 C201 1.355 . S
C200 C202 1.412 1_455 S
C201 H193 0.930 . S
C201 C200 1.355 . S
C201 C204 1.402 . S
C202 C200 1.412 1_655 S
C202 C203 1.417 . S
C202 C226 1.431 . S
C203 N199 1.350 . S
C203 C202 1.417 . S
C203 C206 1.426 . S
C204 H187 0.930 . S
C204 N199 1.307 1_455 S
C204 C201 1.402 . S
N205 Gd168 2.601 . S
N205 C206 1.359 . S
N205 C209 1.334 . S
C206 C203 1.426 . S
C206 N205 1.359 . S
C206 C210 1.413 . S
C207 H198 0.930 1_545 S
C207 C208 1.359 . S
C207 C209 1.394 . S
C208 C207 1.359 . S
C208 C210 1.391 . S
C208 H211 0.929 1_545 S
C209 H191 0.930 . S
C209 N205 1.334 . S
C209 C207 1.394 . S
C210 C206 1.413 . S
C210 C208 1.391 . S
C210 C225 1.437 . S
H211 C208 0.929 1_565 S
O212 Gd168 2.545 . S
O212 C227 1.258 . S
O213 Gd168 2.606 . S
O213 Gd169 2.362 . S
O213 C224 1.284 . S
O214 Gd169 2.324 . S
O214 C234 1.254 . S
O215 Gd168 2.429 . S
O215 C234 1.268 . S
O216 Gd168 2.545 . S
O216 C224 1.250 . S
O217 Gd168 2.412 . S
O217 C227 1.252 . S
O218 Gd169 2.545 . S
O218 C236 1.258 . S
O219 Gd168 2.362 . S
O219 Gd169 2.606 . S
O219 C235 1.284 . S
O220 Gd168 2.324 . S
O220 C243 1.254 . S
O221 Gd169 2.429 . S
O221 C243 1.268 . S
O222 Gd169 2.545 . S
O222 C235 1.250 . S
O223 Gd169 2.412 . S
O223 C236 1.252 . S
C224 O213 1.284 . S
C224 O216 1.250 . S
C225 H194 0.929 . S
C225 C210 1.437 . S
C225 C226 1.317 . S
C226 H197 0.930 1_655 S
C226 C202 1.431 . S
C226 C225 1.317 . S
C227 Gd168 2.828 . S
C227 O212 1.258 . S
C227 O217 1.252 . S
C227 C228 1.497 . S
C228 C227 1.497 . S
C228 C229 1.395 . S
C228 C230 1.380 . S
C229 C228 1.395 . S
C229 C232 1.398 . S
C229 H244 0.930 . S
C230 C228 1.380 . S
C230 C231 1.391 1_655 S
C230 H245 0.930 1_655 S
C231 C230 1.391 1_455 S
C231 C233 1.387 1_455 S
C232 C229 1.398 . S
C232 C233 1.380 . S
C232 H246 0.930 . S
C233 C231 1.387 1_655 S
C233 C232 1.380 . S
C233 H247 0.930 1_655 S
C234 O214 1.254 . S
C234 O215 1.268 . S
C235 O219 1.284 . S
C235 O222 1.250 . S
C236 Gd169 2.828 . S
C236 O218 1.258 . S
C236 O223 1.252 . S
C236 C237 1.497 . S
C237 C236 1.497 . S
C237 C238 1.395 . S
C237 C239 1.380 . S
C238 C237 1.395 . S
C238 C241 1.398 . S
C238 H248 0.930 . S
C239 C237 1.380 . S
C239 C240 1.391 . S
C239 H249 0.930 . S
C240 C239 1.391 . S
C240 C242 1.387 . S
C241 C238 1.398 . S
C241 C242 1.380 . S
C241 H250 0.930 . S
C242 C240 1.387 . S
C242 C241 1.380 . S
C242 H251 0.930 . S
C243 O220 1.254 . S
C243 O221 1.268 . S
H244 C229 0.930 . S
H245 C230 0.930 1_455 S
H246 C232 0.930 . S
H247 C233 0.930 1_455 S
H248 C238 0.930 . S
H249 C239 0.930 . S
H250 C241 0.930 . S
H251 C242 0.930 . S
C252 C253 1.386 . S
C252 C254 1.383 . S
C252 H268 0.951 . S
C253 C252 1.386 . S
C253 C257 1.383 1_455 S
C254 C252 1.383 . S
C254 C255 1.402 1_455 S
C254 H269 0.951 . S
C255 C254 1.402 1_655 S
C255 C256 1.375 . S
C255 C258 1.481 . S
C256 C255 1.375 . S
C256 C257 1.367 . S
C256 H270 0.951 . S
C257 C253 1.383 1_655 S
C257 C256 1.367 . S
C257 H271 0.950 . S
C258 C255 1.481 . S
C258 C259 1.297 1_655 S
C258 H272 0.950 . S
C259 C258 1.297 1_455 S
C259 C260 1.479 1_565 S
C259 H273 0.950 . S
C260 C259 1.479 1_545 S
C260 C261 1.375 . S
C260 C266 1.404 1_455 S
C261 C260 1.375 . S
C261 C262 1.369 . S
C261 H274 0.950 . S
C262 C261 1.369 . S
C262 C263 1.392 1_455 S
C262 H275 0.951 . S
C263 C262 1.392 1_655 S
C263 C265 1.384 . S
H264 C266 0.949 1_565 S
C265 C263 1.384 . S
C265 C266 1.385 . S
C265 H267 0.950 . S
C266 C260 1.404 1_655 S
C266 H264 0.949 1_545 S
C266 C265 1.385 . S
H267 C265 0.950 . S
H268 C252 0.951 . S
H269 C254 0.951 . S
H270 C256 0.951 . S
H271 C257 0.950 . S
H272 C258 0.950 . S
H273 C259 0.950 . S
H274 C261 0.950 . S
H275 C262 0.951 . S
C276 C277 1.386 . S
C276 C278 1.383 . S
C276 H292 0.951 . S
C277 C276 1.386 . S
C277 C281 1.383 . S
C278 C276 1.383 . S
C278 C279 1.402 . S
C278 H293 0.951 . S
C279 C278 1.402 . S
C279 C280 1.375 . S
C279 C282 1.481 . S
C280 C279 1.375 . S
C280 C281 1.367 . S
C280 H294 0.951 . S
C281 C277 1.383 . S
C281 C280 1.367 . S
C281 H295 0.950 . S
C282 C279 1.481 . S
C282 C283 1.297 . S
C282 H296 0.950 . S
C283 C282 1.297 . S
C283 C284 1.479 . S
C283 H297 0.950 . S
C284 C283 1.479 . S
C284 C285 1.375 . S
C284 C290 1.404 . S
C285 C284 1.375 . S
C285 C286 1.369 . S
C285 H298 0.950 . S
C286 C285 1.369 . S
C286 C287 1.392 . S
C286 H299 0.951 . S
C287 C286 1.392 . S
C287 C289 1.384 . S
H288 C290 0.949 . S
C289 C287 1.384 . S
C289 C290 1.385 . S
C289 H291 0.950 1_455 S
C290 C284 1.404 . S
C290 H288 0.949 . S
C290 C289 1.385 . S
H291 C289 0.950 1_655 S
H292 C276 0.951 . S
H293 C278 0.951 . S
H294 C280 0.951 . S
H295 C281 0.950 . S
H296 C282 0.950 . S
H297 C283 0.950 . S
H298 C285 0.950 . S
H299 C286 0.951 . S
C300 C301 1.386 . S
C300 C302 1.383 . S
C300 H316 0.951 . S
C301 C300 1.386 . S
C301 C305 1.383 . S
C302 C300 1.383 . S
C302 C303 1.402 . S
C302 H317 0.951 . S
C303 C302 1.402 . S
C303 C304 1.375 . S
C303 C306 1.481 . S
C304 C303 1.375 . S
C304 C305 1.367 . S
C304 H318 0.951 . S
C305 C301 1.383 . S
C305 C304 1.367 . S
C305 H319 0.950 . S
C306 C303 1.481 . S
C306 C307 1.297 . S
C306 H320 0.950 . S
C307 C306 1.297 . S
C307 C308 1.479 1_565 S
C307 H321 0.950 . S
C308 C307 1.479 1_545 S
C308 C309 1.375 . S
C308 C314 1.404 . S
C309 C308 1.375 . S
C309 C310 1.369 . S
C309 H322 0.950 . S
C310 C309 1.369 . S
C310 C311 1.392 . S
C310 H323 0.951 . S
C311 C310 1.392 . S
C311 C313 1.384 . S
H312 C314 0.949 1_565 S
C313 C311 1.384 . S
C313 C314 1.385 . S
C313 H315 0.950 . S
C314 C308 1.404 . S
C314 H312 0.949 1_545 S
C314 C313 1.385 . S
H315 C313 0.950 . S
H316 C300 0.951 . S
H317 C302 0.951 . S
H318 C304 0.951 . S
H319 C305 0.950 . S
H320 C306 0.950 . S
H321 C307 0.950 . S
H322 C309 0.950 . S
H323 C310 0.951 . S
C324 C325 1.386 . S
C324 C326 1.383 . S
C324 H340 0.951 . S
C325 C324 1.386 . S
C325 C329 1.383 . S
C326 C324 1.383 . S
C326 C327 1.402 1_556 S
C326 H341 0.951 1_556 S
C327 C326 1.402 1_554 S
C327 C328 1.375 . S
C327 C330 1.481 . S
C328 C327 1.375 . S
C328 C329 1.367 1_554 S
C328 H342 0.951 . S
C329 C325 1.383 . S
C329 C328 1.367 1_556 S
C329 H343 0.950 . S
C330 C327 1.481 . S
C330 C331 1.297 . S
C330 H344 0.950 . S
C331 C330 1.297 . S
C331 C332 1.479 . S
C331 H345 0.950 . S
C332 C331 1.479 . S
C332 C333 1.375 . S
C332 C338 1.404 . S
C333 C332 1.375 . S
C333 C334 1.369 . S
C333 H346 0.950 . S
C334 C333 1.369 . S
C334 C335 1.392 . S
C334 H347 0.951 . S
C335 C334 1.392 . S
C335 C337 1.384 . S
H336 C338 0.949 . S
C337 C335 1.384 . S
C337 C338 1.385 . S
C337 H339 0.950 . S
C338 C332 1.404 . S
C338 H336 0.949 . S
C338 C337 1.385 . S
H339 C337 0.950 . S
H340 C324 0.951 . S
H341 C326 0.951 1_554 S
H342 C328 0.951 . S
H343 C329 0.950 . S
H344 C330 0.950 . S
H345 C331 0.950 . S
H346 C333 0.950 . S
H347 C334 0.951 . S
C348 C349 1.386 . S
C348 C350 1.383 . S
C348 H364 0.951 . S
C349 C348 1.386 . S
C349 C353 1.383 . S
C350 C348 1.383 . S
C350 C351 1.402 . S
C350 H365 0.951 . S
C351 C350 1.402 . S
C351 C352 1.375 . S
C351 C354 1.481 . S
C352 C351 1.375 . S
C352 C353 1.367 . S
C352 H366 0.951 . S
C353 C349 1.383 . S
C353 C352 1.367 . S
C353 H367 0.950 . S
C354 C351 1.481 . S
C354 C355 1.297 . S
C354 H368 0.950 . S
C355 C354 1.297 . S
C355 C356 1.479 . S
C355 H369 0.950 . S
C356 C355 1.479 . S
C356 C357 1.375 . S
C356 C362 1.404 . S
C357 C356 1.375 . S
C357 C358 1.369 . S
C357 H370 0.950 . S
C358 C357 1.369 . S
C358 C359 1.392 . S
C358 H371 0.951 . S
C359 C358 1.392 . S
C359 C361 1.384 . S
H360 C362 0.949 . S
C361 C359 1.384 . S
C361 C362 1.385 . S
C361 H363 0.950 . S
C362 C356 1.404 . S
C362 H360 0.949 . S
C362 C361 1.385 . S
H363 C361 0.950 . S
H364 C348 0.951 . S
H365 C350 0.951 . S
H366 C352 0.951 . S
H367 C353 0.950 . S
H368 C354 0.950 . S
H369 C355 0.950 . S
H370 C357 0.950 . S
H371 C358 0.951 . S
C372 C373 1.386 . S
C372 C374 1.383 . S
C372 H388 0.951 . S
C373 C372 1.386 . S
C373 C377 1.383 . S
C374 C372 1.383 . S
C374 C375 1.402 . S
C374 H389 0.951 . S
C375 C374 1.402 . S
C375 C376 1.375 . S
C375 C378 1.481 . S
C376 C375 1.375 . S
C376 C377 1.367 . S
C376 H390 0.951 . S
C377 C373 1.383 . S
C377 C376 1.367 . S
C377 H391 0.950 . S
C378 C375 1.481 . S
C378 C379 1.297 . S
C378 H392 0.950 . S
C379 C378 1.297 . S
C379 C380 1.479 . S
C379 H393 0.950 . S
C380 C379 1.479 . S
C380 C381 1.375 . S
C380 C386 1.404 . S
C381 C380 1.375 . S
C381 C382 1.369 . S
C381 H394 0.950 . S
C382 C381 1.369 . S
C382 C383 1.392 . S
C382 H395 0.951 . S
C383 C382 1.392 . S
C383 C385 1.384 . S
H384 C386 0.949 . S
C385 C383 1.384 . S
C385 C386 1.385 . S
C385 H387 0.950 . S
C386 C380 1.404 . S
C386 H384 0.949 . S
C386 C385 1.385 . S
H387 C385 0.950 . S
H388 C372 0.951 . S
H389 C374 0.951 . S
H390 C376 0.951 . S
H391 C377 0.950 . S
H392 C378 0.950 . S
H393 C379 0.950 . S
H394 C381 0.950 . S
H395 C382 0.951 . S
C396 C397 1.386 . S
C396 C398 1.383 . S
C396 H412 0.951 . S
C397 C396 1.386 . S
C397 C401 1.383 . S
C398 C396 1.383 . S
C398 C399 1.402 . S
C398 H413 0.951 . S
C399 C398 1.402 . S
C399 C400 1.375 . S
C399 C402 1.481 . S
C400 C399 1.375 . S
C400 C401 1.367 . S
C400 H414 0.951 . S
C401 C397 1.383 . S
C401 C400 1.367 . S
C401 H415 0.950 . S
C402 C399 1.481 . S
C402 C403 1.297 . S
C402 H416 0.950 . S
C403 C402 1.297 . S
C403 C404 1.479 . S
C403 H417 0.950 . S
C404 C403 1.479 . S
C404 C405 1.375 1_556 S
C404 C410 1.404 . S
C405 C404 1.375 1_554 S
C405 C406 1.369 . S
C405 H418 0.950 . S
C406 C405 1.369 . S
C406 C407 1.392 . S
C406 H419 0.951 . S
C407 C406 1.392 . S
C407 C409 1.384 . S
H408 C410 0.948 . S
C409 C407 1.384 . S
C409 C410 1.385 1_554 S
C409 H411 0.950 . S
C410 C404 1.404 . S
C410 H408 0.948 . S
C410 C409 1.385 1_556 S
H411 C409 0.950 . S
H412 C396 0.951 . S
H413 C398 0.951 . S
H414 C400 0.951 . S
H415 C401 0.950 . S
H416 C402 0.950 . S
H417 C403 0.950 . S
H418 C405 0.950 . S
H419 C406 0.951 . S
C420 C421 1.386 . S
C420 C422 1.383 . S
C420 H436 0.951 . S
C421 C420 1.386 . S
C421 C425 1.383 . S
C422 C420 1.383 . S
C422 C423 1.402 . S
C422 H437 0.951 . S
C423 C422 1.402 . S
C423 C424 1.375 . S
C423 C426 1.481 . S
C424 C423 1.375 . S
C424 C425 1.367 . S
C424 H438 0.951 . S
C425 C421 1.383 . S
C425 C424 1.367 . S
C425 H439 0.950 . S
C426 C423 1.481 . S
C426 C427 1.297 . S
C426 H440 0.950 . S
C427 C426 1.297 . S
C427 C428 1.479 . S
C427 H441 0.950 . S
C428 C427 1.479 . S
C428 C429 1.375 . S
C428 C434 1.404 . S
C429 C428 1.375 . S
C429 C430 1.369 . S
C429 H442 0.950 . S
C430 C429 1.369 . S
C430 C431 1.392 1_565 S
C430 H443 0.951 1_565 S
C431 C430 1.392 1_545 S
C431 C433 1.384 1_545 S
H432 C434 0.949 . S
C433 C431 1.384 1_565 S
C433 C434 1.385 . S
C433 H435 0.950 1_565 S
C434 C428 1.404 . S
C434 H432 0.949 . S
C434 C433 1.385 . S
H435 C433 0.950 1_545 S
H436 C420 0.951 . S
H437 C422 0.951 . S
H438 C424 0.951 . S
H439 C425 0.950 . S
H440 C426 0.950 . S
H441 C427 0.950 . S
H442 C429 0.950 . S
H443 C430 0.951 1_545 S
C444 C445 1.386 1_655 S
C444 C446 1.383 . S
C444 H460 0.951 . S
C445 C444 1.386 1_455 S
C445 C449 1.383 . S
C446 C444 1.383 . S
C446 C447 1.402 1_655 S
C446 H461 0.951 . S
C447 C446 1.402 1_455 S
C447 C448 1.375 . S
C447 C450 1.481 . S
C448 C447 1.375 . S
C448 C449 1.367 . S
C448 H462 0.951 . S
C449 C445 1.383 . S
C449 C448 1.367 . S
C449 H463 0.950 . S
C450 C447 1.481 . S
C450 C451 1.297 1_455 S
C450 H464 0.950 . S
C451 C450 1.297 1_655 S
C451 C452 1.479 . S
C451 H465 0.950 . S
C452 C451 1.479 . S
C452 C453 1.375 . S
C452 C458 1.404 . S
C453 C452 1.375 . S
C453 C454 1.369 . S
C453 H466 0.950 . S
C454 C453 1.369 . S
C454 C455 1.392 . S
C454 H467 0.951 . S
C455 C454 1.392 . S
C455 C457 1.384 . S
H456 C458 0.949 1_455 S
C457 C455 1.384 . S
C457 C458 1.385 . S
C457 H459 0.950 . S
C458 C452 1.404 . S
C458 H456 0.949 1_655 S
C458 C457 1.385 . S
H459 C457 0.950 . S
H460 C444 0.951 . S
H461 C446 0.951 . S
H462 C448 0.951 . S
H463 C449 0.950 . S
H464 C450 0.950 . S
H465 C451 0.950 . S
H466 C453 0.950 . S
H467 C454 0.951 . S
C253 C66 1.342 . S
C263 C75 1.425 . S
C277 C159 1.395 . S
C287 C150 1.298 1_455 S
C301 C243 1.331 1_455 S
C311 C234 1.391 . S
C325 C240 1.881 . S
C335 C56 2.034 . S
C349 C147 1.025 . S
C359 C67 1.133 . S
C373 C224 2.045 . S
C383 C156 1.829 . S
C397 C235 1.053 . S
C407 C63 0.867 . S
C421 C72 1.845 . S
C431 C140 2.058 . S
C445 C231 1.019 . S
C455 C151 1.139 . S
