# Generated by pormake.
# Topology uod, (4)-cn, num edge types: 1
# Building blocks:
#     Node 0, Type 0, BuildingBlock: QUQFOY_clean_sbu_3, # of connection points: 4
#     Node 1, Type 0, BuildingBlock: QUQFOY_clean_sbu_3, # of connection points: 4
#     Node 2, Type 0, BuildingBlock: QUQFOY_clean_sbu_3, # of connection points: 4
#     Node 3, Type 0, BuildingBlock: QUQFOY_clean_sbu_3, # of connection points: 4
#     Node 4, Type 0, BuildingBlock: QUQFOY_clean_sbu_3, # of connection points: 4
#     Node 5, Type 0, BuildingBlock: QUQFOY_clean_sbu_3, # of connection points: 4
#     Node 6, Type 0, BuildingBlock: QUQFOY_clean_sbu_3, # of connection points: 4
#     Node 7, Type 0, BuildingBlock: QUQFOY_clean_sbu_3, # of connection points: 4
#     Node 8, Type 0, BuildingBlock: QUQFOY_clean_sbu_3, # of connection points: 4
#     Node 9, Type 0, BuildingBlock: QUQFOY_clean_sbu_3, # of connection points: 4
#     Node 10, Type 0, BuildingBlock: QUQFOY_clean_sbu_3, # of connection points: 4
#     Node 11, Type 0, BuildingBlock: QUQFOY_clean_sbu_3, # of connection points: 4
#     Node 12, Type 0, BuildingBlock: QUQFOY_clean_sbu_3, # of connection points: 4
#     Node 13, Type 0, BuildingBlock: QUQFOY_clean_sbu_3, # of connection points: 4
#     Node 14, Type 0, BuildingBlock: QUQFOY_clean_sbu_3, # of connection points: 4
#     Node 15, Type 0, BuildingBlock: QUQFOY_clean_sbu_3, # of connection points: 4
#     Node 16, Type 0, BuildingBlock: QUQFOY_clean_sbu_3, # of connection points: 4
#     Node 17, Type 0, BuildingBlock: QUQFOY_clean_sbu_3, # of connection points: 4
#     Node 18, Type 0, BuildingBlock: QUQFOY_clean_sbu_3, # of connection points: 4
#     Node 19, Type 0, BuildingBlock: QUQFOY_clean_sbu_3, # of connection points: 4
#     Node 20, Type 0, BuildingBlock: QUQFOY_clean_sbu_3, # of connection points: 4
#     Node 21, Type 0, BuildingBlock: QUQFOY_clean_sbu_3, # of connection points: 4
#     Node 22, Type 0, BuildingBlock: QUQFOY_clean_sbu_3, # of connection points: 4
#     Node 23, Type 0, BuildingBlock: QUQFOY_clean_sbu_3, # of connection points: 4
#     Node 24, Type 0, BuildingBlock: QUQFOY_clean_sbu_3, # of connection points: 4
#     Node 25, Type 0, BuildingBlock: QUQFOY_clean_sbu_3, # of connection points: 4
#     Node 26, Type 0, BuildingBlock: QUQFOY_clean_sbu_3, # of connection points: 4
#     Node 27, Type 0, BuildingBlock: QUQFOY_clean_sbu_3, # of connection points: 4
#     Node 28, Type 0, BuildingBlock: QUQFOY_clean_sbu_3, # of connection points: 4
#     Node 29, Type 0, BuildingBlock: QUQFOY_clean_sbu_3, # of connection points: 4
#     Node 30, Type 0, BuildingBlock: QUQFOY_clean_sbu_3, # of connection points: 4
#     Node 31, Type 0, BuildingBlock: QUQFOY_clean_sbu_3, # of connection points: 4
#     Edge 32, Type (0, 0), BuildingBlock: CIFDUS_clean_linker_0, # of connection points: 2
#     Edge 33, Type (0, 0), BuildingBlock: CIFDUS_clean_linker_0, # of connection points: 2
#     Edge 34, Type (0, 0), BuildingBlock: CIFDUS_clean_linker_0, # of connection points: 2
#     Edge 35, Type (0, 0), BuildingBlock: CIFDUS_clean_linker_0, # of connection points: 2
#     Edge 36, Type (0, 0), BuildingBlock: CIFDUS_clean_linker_0, # of connection points: 2
#     Edge 37, Type (0, 0), BuildingBlock: CIFDUS_clean_linker_0, # of connection points: 2
#     Edge 38, Type (0, 0), BuildingBlock: CIFDUS_clean_linker_0, # of connection points: 2
#     Edge 39, Type (0, 0), BuildingBlock: CIFDUS_clean_linker_0, # of connection points: 2
#     Edge 40, Type (0, 0), BuildingBlock: CIFDUS_clean_linker_0, # of connection points: 2
#     Edge 41, Type (0, 0), BuildingBlock: CIFDUS_clean_linker_0, # of connection points: 2
#     Edge 42, Type (0, 0), BuildingBlock: CIFDUS_clean_linker_0, # of connection points: 2
#     Edge 43, Type (0, 0), BuildingBlock: CIFDUS_clean_linker_0, # of connection points: 2
#     Edge 44, Type (0, 0), BuildingBlock: CIFDUS_clean_linker_0, # of connection points: 2
#     Edge 45, Type (0, 0), BuildingBlock: CIFDUS_clean_linker_0, # of connection points: 2
#     Edge 46, Type (0, 0), BuildingBlock: CIFDUS_clean_linker_0, # of connection points: 2
#     Edge 47, Type (0, 0), BuildingBlock: CIFDUS_clean_linker_0, # of connection points: 2
#     Edge 48, Type (0, 0), BuildingBlock: CIFDUS_clean_linker_0, # of connection points: 2
#     Edge 49, Type (0, 0), BuildingBlock: CIFDUS_clean_linker_0, # of connection points: 2
#     Edge 50, Type (0, 0), BuildingBlock: CIFDUS_clean_linker_0, # of connection points: 2
#     Edge 51, Type (0, 0), BuildingBlock: CIFDUS_clean_linker_0, # of connection points: 2
#     Edge 52, Type (0, 0), BuildingBlock: CIFDUS_clean_linker_0, # of connection points: 2
#     Edge 53, Type (0, 0), BuildingBlock: CIFDUS_clean_linker_0, # of connection points: 2
#     Edge 54, Type (0, 0), BuildingBlock: CIFDUS_clean_linker_0, # of connection points: 2
#     Edge 55, Type (0, 0), BuildingBlock: CIFDUS_clean_linker_0, # of connection points: 2
#     Edge 56, Type (0, 0), BuildingBlock: CIFDUS_clean_linker_0, # of connection points: 2
#     Edge 57, Type (0, 0), BuildingBlock: CIFDUS_clean_linker_0, # of connection points: 2
#     Edge 58, Type (0, 0), BuildingBlock: CIFDUS_clean_linker_0, # of connection points: 2
#     Edge 59, Type (0, 0), BuildingBlock: CIFDUS_clean_linker_0, # of connection points: 2
#     Edge 60, Type (0, 0), BuildingBlock: CIFDUS_clean_linker_0, # of connection points: 2
#     Edge 61, Type (0, 0), BuildingBlock: CIFDUS_clean_linker_0, # of connection points: 2
#     Edge 62, Type (0, 0), BuildingBlock: CIFDUS_clean_linker_0, # of connection points: 2
#     Edge 63, Type (0, 0), BuildingBlock: CIFDUS_clean_linker_0, # of connection points: 2
#     Edge 64, Type (0, 0), BuildingBlock: CIFDUS_clean_linker_0, # of connection points: 2
#     Edge 65, Type (0, 0), BuildingBlock: CIFDUS_clean_linker_0, # of connection points: 2
#     Edge 66, Type (0, 0), BuildingBlock: CIFDUS_clean_linker_0, # of connection points: 2
#     Edge 67, Type (0, 0), BuildingBlock: CIFDUS_clean_linker_0, # of connection points: 2
#     Edge 68, Type (0, 0), BuildingBlock: CIFDUS_clean_linker_0, # of connection points: 2
#     Edge 69, Type (0, 0), BuildingBlock: CIFDUS_clean_linker_0, # of connection points: 2
#     Edge 70, Type (0, 0), BuildingBlock: CIFDUS_clean_linker_0, # of connection points: 2
#     Edge 71, Type (0, 0), BuildingBlock: CIFDUS_clean_linker_0, # of connection points: 2
#     Edge 72, Type (0, 0), BuildingBlock: CIFDUS_clean_linker_0, # of connection points: 2
#     Edge 73, Type (0, 0), BuildingBlock: CIFDUS_clean_linker_0, # of connection points: 2
#     Edge 74, Type (0, 0), BuildingBlock: CIFDUS_clean_linker_0, # of connection points: 2
#     Edge 75, Type (0, 0), BuildingBlock: CIFDUS_clean_linker_0, # of connection points: 2
#     Edge 76, Type (0, 0), BuildingBlock: CIFDUS_clean_linker_0, # of connection points: 2
#     Edge 77, Type (0, 0), BuildingBlock: CIFDUS_clean_linker_0, # of connection points: 2
#     Edge 78, Type (0, 0), BuildingBlock: CIFDUS_clean_linker_0, # of connection points: 2
#     Edge 79, Type (0, 0), BuildingBlock: CIFDUS_clean_linker_0, # of connection points: 2
#     Edge 80, Type (0, 0), BuildingBlock: CIFDUS_clean_linker_0, # of connection points: 2
#     Edge 81, Type (0, 0), BuildingBlock: CIFDUS_clean_linker_0, # of connection points: 2
#     Edge 82, Type (0, 0), BuildingBlock: CIFDUS_clean_linker_0, # of connection points: 2
#     Edge 83, Type (0, 0), BuildingBlock: CIFDUS_clean_linker_0, # of connection points: 2
#     Edge 84, Type (0, 0), BuildingBlock: CIFDUS_clean_linker_0, # of connection points: 2
#     Edge 85, Type (0, 0), BuildingBlock: CIFDUS_clean_linker_0, # of connection points: 2
#     Edge 86, Type (0, 0), BuildingBlock: CIFDUS_clean_linker_0, # of connection points: 2
#     Edge 87, Type (0, 0), BuildingBlock: CIFDUS_clean_linker_0, # of connection points: 2
#     Edge 88, Type (0, 0), BuildingBlock: CIFDUS_clean_linker_0, # of connection points: 2
#     Edge 89, Type (0, 0), BuildingBlock: CIFDUS_clean_linker_0, # of connection points: 2
#     Edge 90, Type (0, 0), BuildingBlock: CIFDUS_clean_linker_0, # of connection points: 2
#     Edge 91, Type (0, 0), BuildingBlock: CIFDUS_clean_linker_0, # of connection points: 2
#     Edge 92, Type (0, 0), BuildingBlock: CIFDUS_clean_linker_0, # of connection points: 2
#     Edge 93, Type (0, 0), BuildingBlock: CIFDUS_clean_linker_0, # of connection points: 2
#     Edge 94, Type (0, 0), BuildingBlock: CIFDUS_clean_linker_0, # of connection points: 2
#     Edge 95, Type (0, 0), BuildingBlock: CIFDUS_clean_linker_0, # of connection points: 2
# Relax obj value: 0.159
# Max RMSD: 0.155
# Mean RMSD: 0.155
data_MOF--net-uod--node1-QUQFOY_clean_sbu_3--edge1-CIFDUS_clean_linker_0
_symmetry_space_group_name_H-M    P1
_symmetry_Int_Tables_number       1
_symmetry_cell_setting            triclinic
loop_
_symmetry_equiv_pos_as_xyz
'x, y, z'
_cell_length_a     80.386726
_cell_length_b     24.360675
_cell_length_c     56.753901
_cell_angle_alpha  89.82652
_cell_angle_beta   89.989949
_cell_angle_gamma 90.005352
loop_
_atom_site_label
_atom_site_type_symbol
_atom_site_fract_x
_atom_site_fract_y
_atom_site_fract_z
_atom_type_partial_charge
C0 C 0.02675 0.27861 0.13204 0.0
O1 O 0.02814 0.31217 0.149 0.0
Cd2 Cd 0.03542 0.40612 0.14666 0.0
O3 O 0.02793 0.29491 0.11064 0.0
Cd4 Cd 0.03135 0.38542 0.08957 0.0
C5 C 0.07082 0.39229 0.1114 0.0
O6 O 0.0174 0.44282 0.11827 0.0
O7 O 0.03247 0.48405 0.09228 0.0
O8 O 0.00659 0.3699 0.06551 0.0
C9 C 0.02215 0.48744 0.10903 0.0
O10 O 0.06342 0.40303 0.1307 0.0
C11 C 0.01241 0.39307 0.04719 0.0
O12 O 0.0625 0.38164 0.09273 0.0
O13 O 0.02785 0.40444 0.04737 0.0
C14 C 0.23282 0.97244 0.14905 0.0
O15 O 0.23414 0.95523 0.17006 0.0
Cd16 Cd 0.22787 0.86045 0.17727 0.0
O17 O 0.23018 0.93858 0.13245 0.0
Cd18 Cd 0.22768 0.83847 0.1279 0.0
C19 C 0.18971 0.84929 0.15024 0.0
O20 O 0.24605 0.79607 0.157 0.0
O21 O 0.22325 0.75371 0.14935 0.0
O22 O 0.24998 0.83952 0.09889 0.0
C23 C 0.23827 0.75086 0.15607 0.0
O24 O 0.19771 0.85121 0.16961 0.0
C25 C 0.24299 0.80863 0.08392 0.0
O26 O 0.19755 0.84717 0.13074 0.0
O27 O 0.22813 0.79408 0.08849 0.0
C28 C 0.04304 0.95941 0.14875 0.0
O29 O 0.04645 0.92472 0.13283 0.0
Cd30 Cd 0.0554 0.83314 0.13848 0.0
O31 O 0.0442 0.94656 0.17058 0.0
Cd32 Cd 0.05192 0.86143 0.1934 0.0
C33 C 0.09111 0.85707 0.1707 0.0
O34 O 0.03727 0.79895 0.16789 0.0
O35 O 0.05461 0.76203 0.19217 0.0
O36 O 0.02857 0.87269 0.2209 0.0
C37 C 0.04278 0.75601 0.17771 0.0
O38 O 0.08399 0.84034 0.15201 0.0
C39 C 0.03656 0.85531 0.23871 0.0
O40 O 0.08253 0.87121 0.18864 0.0
O41 O 0.05217 0.84934 0.23616 0.0
C42 C 0.21667 0.27583 0.1019 0.0
O43 O 0.21571 0.29254 0.08076 0.0
Cd44 Cd 0.20903 0.38576 0.07217 0.0
O45 O 0.21405 0.30886 0.11886 0.0
Cd46 Cd 0.20744 0.40797 0.12299 0.0
C47 C 0.17016 0.39648 0.09607 0.0
O48 O 0.22821 0.44133 0.09492 0.0
O49 O 0.20868 0.49751 0.10387 0.0
O50 O 0.22663 0.40338 0.15606 0.0
C51 C 0.22349 0.49063 0.09683 0.0
O52 O 0.17878 0.39602 0.07726 0.0
C53 C 0.21945 0.43856 0.16896 0.0
O54 O 0.17738 0.39742 0.11606 0.0
O55 O 0.20556 0.45657 0.16156 0.0
C56 C 0.95367 0.68158 0.87093 0.0
O57 O 0.95057 0.64866 0.85423 0.0
Cd58 Cd 0.93912 0.56026 0.85978 0.0
O59 O 0.95102 0.66764 0.89234 0.0
Cd60 Cd 0.94113 0.5842 0.91433 0.0
C61 C 0.90298 0.59369 0.89002 0.0
O62 O 0.9555 0.51935 0.88977 0.0
O63 O 0.93579 0.48652 0.91154 0.0
O64 O 0.96516 0.59872 0.93977 0.0
C65 C 0.94864 0.47798 0.89919 0.0
O66 O 0.91063 0.57668 0.87181 0.0
C67 C 0.95905 0.57491 0.9577 0.0
O68 O 0.91091 0.60353 0.90907 0.0
O69 O 0.94364 0.56328 0.9568 0.0
C70 C 0.78495 0.02755 0.84591 0.0
O71 O 0.78619 0.04578 0.82502 0.0
Cd72 Cd 0.79524 0.13869 0.81914 0.0
O73 O 0.7886 0.05812 0.86329 0.0
Cd74 Cd 0.79761 0.15322 0.87043 0.0
C75 C 0.83452 0.1383 0.84246 0.0
O76 O 0.77772 0.19695 0.84345 0.0
O77 O 0.79765 0.24712 0.85679 0.0
O78 O 0.77765 0.14144 0.90217 0.0
C79 C 0.78298 0.2444 0.84869 0.0
O80 O 0.82557 0.14135 0.824 0.0
C81 C 0.78469 0.17286 0.91685 0.0
O82 O 0.82767 0.13843 0.86274 0.0
O83 O 0.79884 0.19173 0.91095 0.0
C84 C 0.97778 -0.00358 0.86348 0.0
O85 O 0.97743 0.02748 0.88141 0.0
Cd86 Cd 0.97141 0.12294 0.88282 0.0
O87 O 0.97606 0.01603 0.8427 0.0
Cd88 Cd 0.97257 0.10893 0.8245 0.0
C89 C 0.93424 0.11919 0.85105 0.0
O90 O 0.98761 0.16325 0.85314 0.0
O91 O 0.9711 0.20606 0.82951 0.0
O92 O 0.99672 0.1078 0.79866 0.0
C93 C 0.98208 0.20848 0.84545 0.0
O94 O 0.94257 0.12635 0.86991 0.0
C95 C 0.98891 0.1222 0.7802 0.0
O96 O 0.94163 0.10964 0.83147 0.0
O97 O 0.97309 0.12253 0.78147 0.0
C98 C 0.76038 0.73125 0.89315 0.0
O99 O 0.75729 0.71545 0.91398 0.0
Cd100 Cd 0.76437 0.62179 0.92301 0.0
O101 O 0.76444 0.69625 0.87765 0.0
Cd102 Cd 0.7667 0.59619 0.87509 0.0
C103 C 0.80367 0.612 0.899 0.0
O104 O 0.74899 0.54878 0.90383 0.0
O105 O 0.77349 0.5158 0.89748 0.0
O106 O 0.74387 0.59702 0.84733 0.0
C107 C 0.75863 0.50745 0.90399 0.0
O108 O 0.79471 0.61462 0.91751 0.0
C109 C 0.75015 0.56388 0.83262 0.0
O110 O 0.79682 0.60816 0.87878 0.0
O111 O 0.765 0.54812 0.83657 0.0
C112 C 0.01043 0.73172 0.61547 0.0
O113 O 0.0113 0.76515 0.63253 0.0
Cd114 Cd 0.02451 0.85278 0.62861 0.0
O115 O 0.01426 0.747 0.59466 0.0
Cd116 Cd 0.02286 0.82904 0.57255 0.0
C117 C 0.06002 0.80687 0.59901 0.0
O118 O 0.01411 0.90587 0.59687 0.0
O119 O 0.0358 0.91523 0.57443 0.0
O120 O 0.99808 0.8315 0.54761 0.0
C121 C 0.0254 0.93669 0.58838 0.0
O122 O 0.05266 0.82648 0.61704 0.0
C123 C 0.00591 0.84159 0.52864 0.0
O124 O 0.05212 0.79935 0.57967 0.0
O125 O 0.02172 0.83946 0.52955 0.0
C126 C 0.24745 0.41366 0.6487 0.0
O127 O 0.24588 0.38181 0.66626 0.0
Cd128 Cd 0.23176 0.29572 0.66034 0.0
O129 O 0.2433 0.3977 0.62825 0.0
Cd130 Cd 0.2331 0.31632 0.60819 0.0
C131 C 0.19634 0.34523 0.63333 0.0
O132 O 0.24122 0.23324 0.63032 0.0
O133 O 0.21838 0.23439 0.60975 0.0
O134 O 0.25837 0.31242 0.5849 0.0
C135 C 0.22961 0.20684 0.62003 0.0
O136 O 0.20353 0.32407 0.65118 0.0
C137 C 0.25133 0.30321 0.5653 0.0
O138 O 0.20429 0.35196 0.61399 0.0
O139 O 0.23551 0.3058 0.56494 0.0
C140 C 0.04088 0.42934 0.61276 0.0
O141 O 0.04526 0.40495 0.59406 0.0
Cd142 Cd 0.06227 0.32638 0.59233 0.0
O143 O 0.04551 0.41157 0.63291 0.0
Cd144 Cd 0.06095 0.32901 0.64758 0.0
C145 C 0.0978 0.36393 0.62269 0.0
O146 O 0.0499 0.26508 0.61954 0.0
O147 O 0.07234 0.23946 0.63757 0.0
O148 O 0.03723 0.30755 0.67227 0.0
C149 C 0.05972 0.22688 0.62536 0.0
O150 O 0.09041 0.35113 0.60365 0.0
C151 C 0.04525 0.29554 0.69079 0.0
O152 O 0.08997 0.3632 0.64232 0.0
O153 O 0.06083 0.30499 0.69038 0.0
C154 C 0.21218 0.70401 0.64581 0.0
O155 O 0.21 0.70832 0.62376 0.0
Cd156 Cd 0.19564 0.78118 0.60497 0.0
O157 O 0.20662 0.74039 0.6598 0.0
Cd158 Cd 0.19342 0.83139 0.65285 0.0
C159 C 0.15692 0.78883 0.62997 0.0
O160 O 0.20926 0.86177 0.61866 0.0
O161 O 0.18577 0.90223 0.62462 0.0
O162 O 0.21431 0.877 0.67696 0.0
C163 C 0.20001 0.90287 0.61507 0.0
O164 O 0.16552 0.78044 0.6115 0.0
C165 C 0.2044 0.89991 0.6912 0.0
O166 O 0.16402 0.80342 0.64907 0.0
O167 O 0.18905 0.88861 0.6887 0.0
C168 C 0.96973 0.17734 0.35252 0.0
O169 O 0.96901 0.15932 0.3316 0.0
Cd170 Cd 0.96219 0.06524 0.32438 0.0
O171 O 0.9666 0.14559 0.36985 0.0
Cd172 Cd 0.959 0.0473 0.37521 0.0
C173 C 0.92255 0.05668 0.34549 0.0
O174 O 0.98033 0.00918 0.34893 0.0
O175 O 0.96058 0.95494 0.35936 0.0
O176 O 0.97755 0.05247 0.40898 0.0
C177 C 0.97552 0.9604 0.35259 0.0
O178 O 0.93182 0.05625 0.32732 0.0
C179 C 0.96948 0.02032 0.42235 0.0
O180 O 0.92906 0.05683 0.36598 0.0
O181 O 0.95539 0.00451 0.41482 0.0
C182 C 0.80108 0.51472 0.39262 0.0
O183 O 0.80236 0.54337 0.37401 0.0
Cd184 Cd 0.81223 0.63544 0.37431 0.0
O185 O 0.8046 0.5353 0.41264 0.0
Cd186 Cd 0.81328 0.62577 0.42841 0.0
C187 C 0.85035 0.6194 0.40146 0.0
O188 O 0.79624 0.68341 0.40305 0.0
O189 O 0.8162 0.72308 0.42206 0.0
O190 O 0.79142 0.61135 0.45717 0.0
C191 C 0.80271 0.72734 0.41069 0.0
O192 O 0.84177 0.63066 0.38321 0.0
C193 C 0.79847 0.63797 0.47352 0.0
O194 O 0.84325 0.61154 0.4213 0.0
O195 O 0.81353 0.65185 0.47012 0.0
C196 C 0.99194 0.47816 0.39768 0.0
O197 O 0.99502 0.49336 0.41856 0.0
Cd198 Cd 0.98945 0.58673 0.42891 0.0
O199 O 0.98815 0.51376 0.38213 0.0
Cd200 Cd 0.98596 0.6154 0.38141 0.0
C201 C 0.94972 0.60264 0.40753 0.0
O202 O 0.00573 0.65661 0.40892 0.0
O203 O 0.98143 0.69321 0.4071 0.0
O204 O 0.00667 0.62447 0.35064 0.0
C205 C 0.9968 0.69914 0.41137 0.0
O206 O 0.95904 0.59821 0.42561 0.0
C207 C 0.99881 0.65877 0.338 0.0
O208 O 0.95613 0.60654 0.38706 0.0
O209 O 0.98399 0.66971 0.34431 0.0
C210 C 0.78283 0.20217 0.36235 0.0
O211 O 0.78302 0.17435 0.38131 0.0
Cd212 Cd 0.78623 0.07765 0.38553 0.0
O213 O 0.78341 0.17853 0.34232 0.0
Cd214 Cd 0.78432 0.0824 0.32777 0.0
C215 C 0.82275 0.06617 0.35307 0.0
O216 O 0.76768 0.03802 0.35846 0.0
O217 O 0.78136 -0.01384 0.33466 0.0
O218 O 0.7611 0.10153 0.30152 0.0
C219 C 0.77095 -0.00994 0.35127 0.0
O220 O 0.81453 0.06308 0.37222 0.0
C221 C 0.76661 0.07244 0.28471 0.0
O222 O 0.81534 0.07593 0.33351 0.0
O223 O 0.78152 0.05533 0.28652 0.0
C224 C 0.52182 0.24472 0.60556 0.0
O225 O 0.52017 0.27264 0.62431 0.0
Cd226 Cd 0.52203 0.37006 0.62942 0.0
O227 O 0.52371 0.26837 0.58558 0.0
Cd228 Cd 0.52528 0.3644 0.56987 0.0
C229 C 0.56099 0.3812 0.60333 0.0
O230 O 0.50734 0.41035 0.59804 0.0
O231 O 0.5216 0.46135 0.57457 0.0
O232 O 0.50474 0.34706 0.53904 0.0
C233 C 0.51113 0.45828 0.59113 0.0
O234 O 0.55132 0.38404 0.62108 0.0
C235 C 0.51262 0.37246 0.52293 0.0
O236 O 0.55522 0.37212 0.58261 0.0
O237 O 0.5274 0.38752 0.5278 0.0
C238 C 0.73081 0.96527 0.63753 0.0
O239 O 0.72981 0.93997 0.6571 0.0
Cd240 Cd 0.72727 0.84371 0.66383 0.0
O241 O 0.73157 0.93922 0.61811 0.0
Cd242 Cd 0.7316 0.84251 0.60578 0.0
C243 C 0.6922 0.83018 0.62912 0.0
O244 O 0.74711 0.80283 0.6389 0.0
O245 O 0.73529 0.74834 0.61418 0.0
O246 O 0.75453 0.85676 0.57843 0.0
C247 C 0.74453 0.75415 0.63204 0.0
O248 O 0.69926 0.82839 0.64919 0.0
C249 C 0.74817 0.82743 0.56228 0.0
O250 O 0.70073 0.837 0.61028 0.0
O251 O 0.73316 0.81227 0.56512 0.0
C252 C 0.54347 0.93414 0.63816 0.0
O253 O 0.54652 0.90752 0.61947 0.0
Cd254 Cd 0.55652 0.81554 0.61826 0.0
O255 O 0.54557 0.91171 0.65832 0.0
Cd256 Cd 0.55465 0.8183 0.6721 0.0
C257 C 0.59336 0.82517 0.64778 0.0
O258 O 0.53932 0.76228 0.64404 0.0
O259 O 0.55899 0.72214 0.66352 0.0
O260 O 0.53189 0.809 0.70019 0.0
C261 C 0.54592 0.71802 0.65119 0.0
O262 O 0.58597 0.81628 0.62834 0.0
C263 C 0.5408 0.79373 0.71744 0.0
O264 O 0.585 0.83138 0.66672 0.0
O265 O 0.55647 0.79689 0.71463 0.0
C266 C 0.70132 0.27381 0.65272 0.0
O267 O 0.70127 0.29826 0.63292 0.0
Cd268 Cd 0.69506 0.39263 0.62785 0.0
O269 O 0.69763 0.29928 0.67161 0.0
Cd270 Cd 0.69037 0.39345 0.68392 0.0
C271 C 0.65513 0.39687 0.64973 0.0
O272 O 0.71185 0.42973 0.65845 0.0
O273 O 0.69649 0.48918 0.67644 0.0
O274 O 0.70818 0.36879 0.71714 0.0
C275 C 0.70955 0.47877 0.66481 0.0
O276 O 0.66509 0.40012 0.63235 0.0
C277 C 0.70167 0.40202 0.73162 0.0
O278 O 0.66072 0.39211 0.67073 0.0
O279 O 0.68838 0.4258 0.72496 0.0
C280 C 0.46529 0.69607 0.34628 0.0
O281 O 0.46174 0.67724 0.32608 0.0
Cd282 Cd 0.45256 0.585 0.32125 0.0
O283 O 0.46371 0.66611 0.36459 0.0
Cd284 Cd 0.4553 0.57056 0.37348 0.0
C285 C 0.41614 0.58465 0.35231 0.0
O286 O 0.47251 0.52978 0.34265 0.0
O287 O 0.45375 0.47828 0.35827 0.0
O288 O 0.47736 0.57388 0.40331 0.0
C289 C 0.46776 0.48195 0.34817 0.0
O290 O 0.4231 0.58146 0.33222 0.0
C291 C 0.47035 0.54231 0.41807 0.0
O292 O 0.42496 0.58507 0.37098 0.0
O293 O 0.45556 0.52779 0.41326 0.0
C294 C 0.30124 0.03697 0.37114 0.0
O295 O 0.30569 0.06891 0.35461 0.0
Cd296 Cd 0.31637 0.15869 0.35979 0.0
O297 O 0.30231 0.05219 0.39264 0.0
Cd298 Cd 0.31133 0.13848 0.41358 0.0
C299 C 0.35112 0.13202 0.39322 0.0
O300 O 0.29754 0.20094 0.3866 0.0
O301 O 0.3151 0.2377 0.41054 0.0
O302 O 0.28726 0.12781 0.43964 0.0
C303 C 0.30316 0.24386 0.39623 0.0
O304 O 0.34476 0.14809 0.37386 0.0
C305 C 0.29435 0.14648 0.4579 0.0
O306 O 0.34183 0.12181 0.41098 0.0
O307 O 0.30993 0.15471 0.45641 0.0
C308 C 0.49335 -0.00353 0.38209 0.0
O309 O 0.49434 0.01435 0.40298 0.0
Cd310 Cd 0.48709 0.10775 0.40976 0.0
O311 O 0.49108 0.02977 0.36508 0.0
Cd312 Cd 0.48933 0.13039 0.36063 0.0
C313 C 0.45029 0.11965 0.37883 0.0
O314 O 0.50551 0.17435 0.39203 0.0
O315 O 0.48188 0.21019 0.38267 0.0
O316 O 0.51321 0.13474 0.33393 0.0
C317 C 0.49623 0.21637 0.39148 0.0
O318 O 0.45745 0.11717 0.39886 0.0
C319 C 0.50679 0.16759 0.31912 0.0
O320 O 0.45897 0.12176 0.36002 0.0
O321 O 0.49164 0.18037 0.32249 0.0
C322 C 0.27512 0.7234 0.35978 0.0
O323 O 0.27648 0.69039 0.37704 0.0
Cd324 Cd 0.28227 0.59448 0.37574 0.0
O325 O 0.2753 0.70589 0.33855 0.0
Cd326 Cd 0.27699 0.61431 0.31851 0.0
C327 C 0.31693 0.60243 0.33955 0.0
O328 O 0.26377 0.55602 0.34814 0.0
O329 O 0.27756 0.51579 0.32065 0.0
O330 O 0.25299 0.62767 0.29209 0.0
C331 C 0.2683 0.51156 0.33856 0.0
O332 O 0.3103 0.59211 0.35949 0.0
C333 C 0.26048 0.60952 0.27397 0.0
O334 O 0.30793 0.61432 0.32165 0.0
O335 O 0.27602 0.60093 0.27598 0.0
C336 C 0.51074 0.72419 0.12606 0.0
O337 O 0.51127 0.75234 0.14485 0.0
Cd338 Cd 0.51798 0.84738 0.14865 0.0
O339 O 0.51203 0.74729 0.10591 0.0
Cd340 Cd 0.5152 0.8429 0.09092 0.0
C341 C 0.55421 0.84186 0.11559 0.0
O342 O 0.50215 0.89881 0.12148 0.0
O343 O 0.52038 0.93647 0.0985 0.0
O344 O 0.49109 0.85198 0.06487 0.0
C345 C 0.5095 0.94194 0.11443 0.0
O346 O 0.54678 0.84856 0.13522 0.0
C347 C 0.49945 0.86486 0.04668 0.0
O348 O 0.54595 0.83607 0.09646 0.0
O349 O 0.51521 0.86076 0.04831 0.0
C350 C 0.73471 0.44789 0.10532 0.0
O351 O 0.73737 0.42148 0.12431 0.0
Cd352 Cd 0.73384 0.32409 0.12982 0.0
O353 O 0.73124 0.42283 0.08627 0.0
Cd354 Cd 0.72782 0.32894 0.0712 0.0
C355 C 0.69342 0.32397 0.10759 0.0
O356 O 0.74577 0.27732 0.09768 0.0
O357 O 0.72876 0.23211 0.07565 0.0
O358 O 0.74864 0.34842 0.0413 0.0
C359 C 0.74011 0.2312 0.09109 0.0
O360 O 0.70404 0.31885 0.12414 0.0
C361 C 0.74087 0.3252 0.02458 0.0
O362 O 0.69814 0.33059 0.08615 0.0
O363 O 0.72603 0.3096 0.02884 0.0
C364 C 0.54199 0.41607 0.12284 0.0
O365 O 0.5427 0.38276 0.10573 0.0
Cd366 Cd 0.55415 0.29329 0.10944 0.0
O367 O 0.54755 0.4026 0.14313 0.0
Cd368 Cd 0.56048 0.32104 0.16283 0.0
C369 C 0.59435 0.3234 0.12655 0.0
O370 O 0.54222 0.25482 0.14436 0.0
O371 O 0.56393 0.22242 0.16203 0.0
O372 O 0.54101 0.34449 0.19428 0.0
C373 C 0.54975 0.21382 0.15305 0.0
O374 O 0.58405 0.30641 0.11119 0.0
C375 C 0.54945 0.32409 0.21101 0.0
O376 O 0.58946 0.33508 0.14741 0.0
O377 O 0.56416 0.30881 0.20596 0.0
C378 C 0.70443 0.75302 0.12795 0.0
O379 O 0.70162 0.77717 0.10852 0.0
Cd380 Cd 0.68937 0.86624 0.10723 0.0
O381 O 0.70111 0.77678 0.14735 0.0
Cd382 Cd 0.69111 0.86839 0.16011 0.0
C383 C 0.65267 0.85068 0.1376 0.0
O384 O 0.70617 0.92451 0.13151 0.0
O385 O 0.68642 0.96383 0.15113 0.0
O386 O 0.71481 0.85835 0.18616 0.0
C387 C 0.69956 0.96844 0.13896 0.0
O388 O 0.66011 0.85903 0.11812 0.0
C389 C 0.70915 0.88807 0.20258 0.0
O390 O 0.66094 0.8483 0.1568 0.0
O391 O 0.69403 0.9029 0.20083 0.0
C392 C 0.45422 0.15276 0.86905 0.0
O393 O 0.45293 0.12354 0.85069 0.0
Cd394 Cd 0.43974 0.03601 0.85163 0.0
O395 O 0.44861 0.13567 0.88877 0.0
Cd396 Cd 0.43502 0.0523 0.90467 0.0
C397 C 0.40065 0.06984 0.87117 0.0
O398 O 0.45129 -0.01476 0.88384 0.0
O399 O 0.4281 0.95716 0.89928 0.0
O400 O 0.45645 0.05034 0.93446 0.0
C401 C 0.44273 0.9462 0.89238 0.0
O402 O 0.41013 0.05325 0.85472 0.0
C403 C 0.44725 0.03558 0.95146 0.0
O404 O 0.40637 0.07687 0.89196 0.0
O405 O 0.43161 0.03682 0.94781 0.0
C406 C 0.28651 0.52958 0.89429 0.0
O407 O 0.28975 0.5569 0.87579 0.0
Cd408 Cd 0.30227 0.64552 0.87676 0.0
O409 O 0.2897 0.54947 0.91458 0.0
Cd410 Cd 0.30074 0.63711 0.93122 0.0
C411 C 0.33895 0.62016 0.90612 0.0
O412 O 0.28618 0.69812 0.90413 0.0
O413 O 0.30569 0.73447 0.92505 0.0
O414 O 0.27775 0.62818 0.95919 0.0
C415 C 0.29315 0.74109 0.91184 0.0
O416 O 0.33152 0.63302 0.88708 0.0
C417 C 0.28533 0.64896 0.97661 0.0
O418 O 0.33075 0.61525 0.92532 0.0
O419 O 0.30072 0.65903 0.97376 0.0
C420 C 0.48036 0.46207 0.88587 0.0
O421 O 0.47927 0.48634 0.9056 0.0
Cd422 Cd 0.47366 0.58088 0.91329 0.0
O423 O 0.4793 0.48881 0.86656 0.0
Cd424 Cd 0.47561 0.58612 0.85516 0.0
C425 C 0.43693 0.59036 0.8818 0.0
O426 O 0.49071 0.63168 0.88735 0.0
O427 O 0.47419 0.67912 0.86521 0.0
O428 O 0.49856 0.59623 0.82736 0.0
C429 C 0.485 0.67814 0.88139 0.0
O430 O 0.4447 0.59176 0.90137 0.0
C431 C 0.48965 0.61325 0.81035 0.0
O432 O 0.44485 0.58567 0.86232 0.0
O433 O 0.47396 0.61094 0.81319 0.0
C434 C 0.25905 0.22581 0.86223 0.0
O435 O 0.25698 0.19837 0.88108 0.0
Cd436 Cd 0.26231 0.10267 0.88704 0.0
O437 O 0.26245 0.2017 0.84288 0.0
Cd438 Cd 0.26633 0.10563 0.8291 0.0
C439 C 0.30184 0.10616 0.86228 0.0
O440 O 0.25061 0.04899 0.85685 0.0
O441 O 0.27081 0.01166 0.8374 0.0
O442 O 0.24415 0.10172 0.80006 0.0
C443 C 0.25882 0.00611 0.85167 0.0
O444 O 0.29203 0.10084 0.87978 0.0
C445 C 0.25335 0.08727 0.78297 0.0
O446 O 0.2962 0.11132 0.84126 0.0
O447 O 0.26899 0.08779 0.78657 0.0
H448 H 0.02476 0.73187 0.13911 0.0
H449 H 0.04845 0.65837 0.19973 0.0
H450 H 0.04113 0.56693 0.18546 0.0
H451 H 0.0309 0.50845 0.15353 0.0
H452 H 0.01045 0.58219 0.09085 0.0
H453 H 0.01313 0.67356 0.10836 0.0
C454 C 0.02814 0.69584 0.14933 0.0
C455 C 0.03726 0.70147 0.17024 0.0
C456 C 0.02436 0.64373 0.14069 0.0
C457 C 0.04159 0.6547 0.18338 0.0
C458 C 0.03737 0.60256 0.1753 0.0
C459 C 0.02662 0.54454 0.1441 0.0
C460 C 0.02033 0.53944 0.12123 0.0
C461 C 0.02914 0.59663 0.15369 0.0
C462 C 0.01517 0.58596 0.10866 0.0
C463 C 0.01683 0.63789 0.11856 0.0
H464 H 0.25026 0.72165 0.11448 0.0
H465 H 0.2436 0.66405 0.18559 0.0
H466 H 0.24395 0.56899 0.17172 0.0
H467 H 0.23666 0.50808 0.13903 0.0
H468 H 0.23621 0.57026 0.06801 0.0
H469 H 0.24819 0.65709 0.08165 0.0
C470 C 0.24965 0.68798 0.12696 0.0
C471 C 0.24684 0.69933 0.15089 0.0
C472 C 0.24782 0.63434 0.11856 0.0
C473 C 0.24589 0.65599 0.1671 0.0
C474 C 0.2457 0.6018 0.15909 0.0
C475 C 0.23974 0.54016 0.12654 0.0
C476 C 0.23551 0.53358 0.10271 0.0
C477 C 0.24519 0.59114 0.13479 0.0
C478 C 0.2394 0.57488 0.08644 0.0
C479 C 0.24607 0.62457 0.0943 0.0
H480 H 0.96271 0.22893 0.88209 0.0
H481 H 1.00143 0.29784 0.83874 0.0
H482 H 0.99546 0.38961 0.85423 0.0
H483 H 0.97617 0.45036 0.87481 0.0
H484 H 0.93566 0.38156 0.91526 0.0
H485 H 0.9453 0.289 0.90616 0.0
C486 C 0.97022 0.26395 0.87686 0.0
C487 C 0.98258 0.25757 0.85976 0.0
C488 C 0.96604 0.31634 0.88474 0.0
C489 C 0.99205 0.30257 0.85231 0.0
C490 C 0.98847 0.3548 0.86088 0.0
C491 C 0.96953 0.4151 0.88178 0.0
C492 C 0.95503 0.42247 0.89519 0.0
C493 C 0.97497 0.36232 0.8762 0.0
C494 C 0.94669 0.37667 0.90451 0.0
C495 C 0.95223 0.32386 0.89943 0.0
H496 H 0.74535 0.46326 0.86542 0.0
H497 H 0.76074 0.42614 0.93635 0.0
H498 H 0.76724 0.33221 0.92485 0.0
H499 H 0.77594 0.2717 0.89288 0.0
H500 H 0.76372 0.31155 0.82099 0.0
H501 H 0.74849 0.39329 0.83436 0.0
C502 C 0.74917 0.43342 0.87859 0.0
C503 C 0.75262 0.45116 0.90165 0.0
C504 C 0.75421 0.38097 0.87134 0.0
C505 C 0.75784 0.41297 0.91859 0.0
C506 C 0.76193 0.35964 0.91187 0.0
C507 C 0.7696 0.29772 0.88024 0.0
C508 C 0.77119 0.28696 0.85606 0.0
C509 C 0.76139 0.34489 0.88801 0.0
C510 C 0.76282 0.31999 0.83968 0.0
C511 C 0.75419 0.36662 0.84733 0.0
H512 H 0.05534 -0.01959 0.59572 0.0
H513 H 0.00285 0.0141 0.60188 0.0
H514 H 0.00904 0.10876 0.61381 0.0
H515 H 0.02952 0.1819 0.62065 0.0
H516 H 0.08197 0.14567 0.61661 0.0
H517 H 0.0757 0.05094 0.6054 0.0
C518 C 0.04526 0.00856 0.59972 0.0
C519 C 0.02869 -0.00867 0.59767 0.0
C520 C 0.04894 0.06193 0.60669 0.0
C521 C 0.01569 0.02716 0.60337 0.0
C522 C 0.01923 0.08102 0.61002 0.0
C523 C 0.03953 0.15315 0.61719 0.0
C524 C 0.05614 0.17024 0.61895 0.0
C525 C 0.03581 0.09891 0.61138 0.0
C526 C 0.06911 0.13292 0.61512 0.0
C527 C 0.06552 0.07906 0.60876 0.0
H528 H 0.22688 0.95118 0.63338 0.0
H529 H 0.18785 0.97192 0.58203 0.0
H530 H 0.19551 0.06846 0.57699 0.0
H531 H 0.21039 0.14785 0.59128 0.0
H532 H 0.24739 0.13123 0.64597 0.0
H533 H 0.2435 0.03122 0.64575 0.0
C534 C 0.22048 -0.02331 0.62056 0.0
C535 C 0.20702 0.95523 0.60779 0.0
C536 C 0.22432 0.03256 0.61887 0.0
C537 C 0.19837 -0.01184 0.59172 0.0
C538 C 0.20264 0.04315 0.58905 0.0
C539 C 0.2177 0.12249 0.60314 0.0
C540 C 0.2289 0.14669 0.61902 0.0
C541 C 0.21511 0.06604 0.60324 0.0
C542 C 0.23856 0.1133 0.63382 0.0
C543 C 0.23633 0.05634 0.63366 0.0
H544 H 0.98301 0.93695 0.39698 0.0
H545 H 0.9945 0.8905 0.32576 0.0
H546 H 0.00913 0.80851 0.34047 0.0
H547 H 0.0109 0.7395 0.37233 0.0
H548 H 0.9955 0.78288 0.44251 0.0
H549 H 0.99081 0.87738 0.42982 0.0
C550 C 0.98908 0.9095 0.38476 0.0
C551 C 0.98748 0.91868 0.36046 0.0
C552 C 0.99659 0.86162 0.39324 0.0
C553 C 0.99543 0.88348 0.34457 0.0
C554 C 0.00362 0.83653 0.35296 0.0
C555 C 0.0074 0.77056 0.38506 0.0
C556 C 0.00343 0.7546 0.40824 0.0
C557 C 0.00328 0.82348 0.37712 0.0
C558 C 0.99873 0.79455 0.42464 0.0
C559 C 0.99568 0.84825 0.41725 0.0
H560 H 0.77695 0.74992 0.38159 0.0
H561 H 0.81118 0.82486 0.43051 0.0
H562 H 0.8003 0.91546 0.42061 0.0
H563 H 0.78472 0.97327 0.39322 0.0
H564 H 0.75336 0.89899 0.34078 0.0
H565 H 0.75878 0.80802 0.35752 0.0
C566 C 0.78186 0.78606 0.39029 0.0
C567 C 0.79509 0.78109 0.40628 0.0
C568 C 0.77587 0.838 0.38407 0.0
C569 C 0.80123 0.82798 0.41769 0.0
C570 C 0.79496 0.8797 0.41218 0.0
C571 C 0.7785 0.93727 0.38625 0.0
C572 C 0.76854 0.94208 0.36615 0.0
C573 C 0.78272 0.88527 0.39478 0.0
C574 C 0.76086 0.8956 0.35657 0.0
C575 C 0.76419 0.84373 0.36587 0.0
H576 H 0.51945 0.69715 0.62304 0.0
H577 H 0.55579 0.61836 0.66782 0.0
H578 H 0.54467 0.52853 0.65739 0.0
H579 H 0.52752 0.47284 0.63125 0.0
H580 H 0.49347 0.55089 0.58319 0.0
H581 H 0.5002 0.64081 0.59988 0.0
C582 C 0.52483 0.66033 0.63066 0.0
C583 C 0.53862 0.66419 0.64576 0.0
C584 C 0.51857 0.60884 0.62428 0.0
C585 C 0.54536 0.6163 0.65577 0.0
C586 C 0.53895 0.56497 0.64996 0.0
C587 C 0.52103 0.50937 0.62529 0.0
C588 C 0.50981 0.50579 0.6065 0.0
C589 C 0.52588 0.56076 0.63375 0.0
C590 C 0.50187 0.55315 0.59809 0.0
C591 C 0.50596 0.60444 0.60732 0.0
H592 H 0.75487 0.65508 0.61905 0.0
H593 H 0.73762 0.74726 0.67886 0.0
H594 H 0.72654 0.66346 0.69671 0.0
H595 H 0.71548 0.57076 0.68967 0.0
H596 H 0.73141 0.48041 0.62841 0.0
H597 H 0.74922 0.55679 0.61648 0.0
C598 C 0.74942 0.65604 0.63652 0.0
C599 C 0.7466 0.70667 0.64743 0.0
C600 C 0.74222 0.60862 0.64582 0.0
C601 C 0.73977 0.70834 0.67015 0.0
C602 C 0.73313 0.66069 0.6801 0.0
C603 C 0.72303 0.56776 0.67388 0.0
C604 C 0.72176 0.52144 0.65938 0.0
C605 C 0.73316 0.61172 0.66715 0.0
C606 C 0.73197 0.51657 0.63946 0.0
C607 C 0.74219 0.55998 0.6327 0.0
H608 H 0.47599 0.44675 0.39093 0.0
H609 H 0.48743 0.42471 0.31745 0.0
H610 H 0.50454 0.34408 0.32722 0.0
H611 H 0.50987 0.26967 0.35555 0.0
H612 H 0.49484 0.28774 0.42788 0.0
H613 H 0.48675 0.38264 0.42034 0.0
C614 C 0.48258 0.42498 0.37718 0.0
C615 C 0.48019 0.4399 0.35353 0.0
C616 C 0.49203 0.37885 0.38295 0.0
C617 C 0.48892 0.41266 0.33572 0.0
C618 C 0.49871 0.36696 0.34135 0.0
C619 C 0.5058 0.29578 0.36992 0.0
C620 C 0.50266 0.27218 0.39211 0.0
C621 C 0.4996 0.34816 0.36478 0.0
C622 C 0.49734 0.30546 0.41071 0.0
C623 C 0.4923 0.35921 0.40621 0.0
H624 H 0.28469 0.49095 0.37855 0.0
H625 H 0.25375 0.41658 0.32559 0.0
H626 H 0.26085 0.32507 0.34052 0.0
H627 H 0.27882 0.26732 0.36497 0.0
H628 H 0.31185 0.34219 0.41552 0.0
H629 H 0.30111 0.43287 0.40513 0.0
C630 C 0.27906 0.45464 0.37094 0.0
C631 C 0.26849 0.45978 0.35144 0.0
C632 C 0.28397 0.40257 0.37872 0.0
C633 C 0.26166 0.41293 0.34098 0.0
C634 C 0.26589 0.36086 0.34929 0.0
C635 C 0.28359 0.30344 0.37382 0.0
C636 C 0.29627 0.2983 0.39069 0.0
C637 C 0.27755 0.35528 0.36753 0.0
C638 C 0.30224 0.3453 0.40221 0.0
C639 C 0.29606 0.39706 0.39637 0.0
H640 H 0.51922 0.18549 0.13707 0.0
H641 H 0.56384 0.11859 0.16834 0.0
H642 H 0.55272 0.02595 0.16442 0.0
H643 H 0.53248 0.96425 0.14636 0.0
H644 H 0.48914 0.03024 0.11195 0.0
H645 H 0.49718 0.12334 0.12368 0.0
C646 C 0.52643 0.15065 0.14322 0.0
C647 C 0.54247 0.15856 0.15242 0.0
C648 C 0.52007 0.09757 0.14063 0.0
C649 C 0.55158 0.11332 0.16077 0.0
C650 C 0.54521 0.06041 0.15865 0.0
C651 C 0.52448 -0.00097 0.1424 0.0
C652 C 0.51023 -0.00872 0.12868 0.0
C653 C 0.52974 0.05206 0.14792 0.0
C654 C 0.50002 0.0359 0.12295 0.0
C655 C 0.50478 0.08895 0.12928 0.0
H656 H 0.72795 -0.00963 0.11485 0.0
H657 H 0.68963 0.0665 0.15692 0.0
H658 H 0.70254 0.156 0.15114 0.0
H659 H 0.72207 0.21358 0.12933 0.0
H660 H 0.75822 0.13935 0.0835 0.0
H661 H 0.7495 0.04778 0.0965 0.0
C662 C 0.72249 0.02652 0.12285 0.0
C663 C 0.70766 0.02209 0.13581 0.0
C664 C 0.72985 0.07796 0.11919 0.0
C665 C 0.70086 0.06905 0.14642 0.0
C666 C 0.70831 0.12017 0.14332 0.0
C667 C 0.72854 0.17722 0.12317 0.0
C668 C 0.74089 0.18249 0.10592 0.0
C669 C 0.72252 0.12524 0.12922 0.0
C670 C 0.74893 0.13569 0.09726 0.0
C671 C 0.74368 0.08352 0.10429 0.0
H672 H 0.46313 0.70457 0.91414 0.0
H673 H 0.50786 0.75965 0.87991 0.0
H674 H 0.49873 0.85503 0.88323 0.0
H675 H 0.47482 0.91712 0.88546 0.0
H676 H 0.42822 0.85816 0.91379 0.0
H677 H 0.44089 0.76946 0.92244 0.0
C678 C 0.47124 0.73799 0.90872 0.0
C679 C 0.48593 0.72592 0.89654 0.0
C680 C 0.46502 0.79145 0.9082 0.0
C681 C 0.49649 0.76858 0.8894 0.0
C682 C 0.49102 0.82284 0.89067 0.0
C683 C 0.46747 0.88496 0.89365 0.0
C684 C 0.45048 0.89335 0.89823 0.0
C685 C 0.47473 0.83391 0.89817 0.0
C686 C 0.44121 0.85199 0.90945 0.0
C687 C 0.44848 0.80155 0.91466 0.0
H688 H 0.26528 0.76655 0.8872 0.0
H689 H 0.30722 0.83921 0.92303 0.0
H690 H 0.298 0.93049 0.91106 0.0
H691 H 0.27998 -0.01189 0.88663 0.0
H692 H 0.23908 0.91602 0.84882 0.0
H693 H 0.24554 0.82583 0.86595 0.0
C694 C 0.27233 0.80241 0.8925 0.0
C695 C 0.28706 0.79619 0.90558 0.0
C696 C 0.26701 0.8547 0.88546 0.0
C697 C 0.29596 0.84295 0.91266 0.0
C698 C 0.29067 0.89514 0.90593 0.0
C699 C 0.27217 0.95282 0.8829 0.0
C700 C 0.25899 0.95802 0.86694 0.0
C701 C 0.27645 0.9013 0.89191 0.0
C702 C 0.24908 0.9125 0.86154 0.0
C703 C 0.25294 0.86105 0.87102 0.0
H704 H 0.95309 0.48709 0.98625 0.0
H705 H 0.99047 0.60773 0.96894 0.0
H706 H 0.01075 0.55889 0.99328 0.0
H707 H 0.01809 0.48085 0.01879 0.0
H708 H 0.98075 0.3605 0.03653 0.0
H709 H 0.9604 0.40925 0.01215 0.0
C710 C 0.96557 0.50337 0.98822 0.0
C711 C 0.97017 0.55153 0.97603 0.0
C712 C 0.97733 0.47417 0.00175 0.0
C713 C 0.98653 0.57121 0.97835 0.0
C714 C 0.9982 0.54292 0.99206 0.0
C715 C 0.0056 0.46461 0.01694 0.0
C716 C 1.00104 0.41649 0.02916 0.0
C717 C 0.99382 0.49388 0.00352 0.0
C718 C 0.98465 0.39696 0.02705 0.0
C719 C 0.97296 0.42519 0.01332 0.0
H720 H 0.29498 0.72549 0.00853 0.0
H721 H 0.25432 0.61752 0.99102 0.0
H722 H 0.23725 0.65907 0.02187 0.0
H723 H 0.23351 0.72859 0.05298 0.0
H724 H 0.27427 0.8367 0.07004 0.0
H725 H 0.29141 0.79371 0.03986 0.0
C726 C 0.28248 0.7104 0.01172 0.0
C727 C 0.276 0.66813 0.9976 0.0
C728 C 0.27257 0.73548 0.02906 0.0
C729 C 0.25966 0.64977 0.00173 0.0
C730 C 0.24983 0.67384 0.01924 0.0
C731 C 0.24608 0.74311 0.04992 0.0
C732 C 0.25253 0.78602 0.06375 0.0
C733 C 0.25605 0.7174 0.03276 0.0
C734 C 0.26893 0.80391 0.05966 0.0
C735 C 0.27881 0.77906 0.04248 0.0
H736 H 0.0482 0.77738 0.26828 0.0
H737 H 0.00464 0.87498 0.25371 0.0
H738 H 0.98866 0.82106 0.28242 0.0
H739 H 0.98687 0.74307 0.31053 0.0
H740 H 0.0306 0.6443 0.32317 0.0
H741 H 0.04648 0.70066 0.29584 0.0
C742 C 0.0353 0.78771 0.27171 0.0
C743 C 0.0277 0.8307 0.2591 0.0
C744 C 0.02605 0.75516 0.28742 0.0
C745 C 0.01085 0.84253 0.26339 0.0
C746 C 1.00165 0.81126 0.27959 0.0
C747 C 0.9998 0.73344 0.30703 0.0
C748 C 0.00747 0.68925 0.3189 0.0
C749 C 0.00904 0.76667 0.29137 0.0
C750 C 0.02431 0.67782 0.3143 0.0
C751 C 0.03349 0.71037 0.29879 0.0
H752 H 0.20948 0.52387 0.19729 0.0
H753 H 0.24966 0.40914 0.18613 0.0
H754 H 0.26633 0.45562 0.21572 0.0
H755 H 0.26983 0.52868 0.24454 0.0
H756 H 0.2296 0.64117 0.25813 0.0
H757 H 0.21283 0.59676 0.22746 0.0
C758 C 0.22178 0.50856 0.20162 0.0
C759 C 0.22824 0.46281 0.18948 0.0
C760 C 0.23145 0.53581 0.21874 0.0
C761 C 0.24429 0.44397 0.19519 0.0
C762 C 0.25393 0.47083 0.21201 0.0
C763 C 0.2575 0.54419 0.24054 0.0
C764 C 0.25109 0.5888 0.25332 0.0
C765 C 0.24773 0.51708 0.22369 0.0
C766 C 0.2349 0.60733 0.24833 0.0
C767 C 0.22526 0.58159 0.23096 0.0
H768 H 0.79193 0.26089 0.94474 0.0
H769 H 0.75635 0.13005 0.93553 0.0
H770 H 0.73884 0.16883 0.96637 0.0
H771 H 0.73344 0.24005 0.99584 0.0
H772 H 0.76904 0.3703 0.00582 0.0
H773 H 0.78645 0.33264 0.97438 0.0
C774 C 0.78049 0.24035 0.94978 0.0
C775 C 0.77555 0.19235 0.93793 0.0
C776 C 0.77027 0.26352 0.9673 0.0
C777 C 0.76052 0.16686 0.94441 0.0
C778 C 0.75041 0.18927 0.96193 0.0
C779 C 0.74484 0.26081 0.99083 0.0
C780 C 0.74983 0.3083 0.00297 0.0
C781 C 0.75505 0.23792 0.97329 0.0
C782 C 0.76485 0.33398 0.9966 0.0
C783 C 0.77489 0.31212 0.9788 0.0
H784 H 0.02111 0.15647 0.77877 0.0
H785 H 0.97653 0.14736 0.73659 0.0
H786 H 0.98989 0.20221 0.70578 0.0
H787 H 0.01375 0.25548 0.69152 0.0
H788 H 0.0583 0.26584 0.7337 0.0
H789 H 0.04526 0.20869 0.76411 0.0
C790 C 0.0144 0.16559 0.76266 0.0
C791 C 0.99785 0.14728 0.75993 0.0
C792 C 0.02201 0.19844 0.74529 0.0
C793 C 0.98929 0.16043 0.73909 0.0
C794 C 0.99688 0.19222 0.72155 0.0
C795 C 0.0206 0.24577 0.70746 0.0
C796 C 0.03697 0.26554 0.7104 0.0
C797 C 0.01313 0.2122 0.72465 0.0
C798 C 0.04567 0.25174 0.73105 0.0
C799 C 0.03825 0.21868 0.74837 0.0
H800 H 0.69592 0.49239 0.75838 0.0
H801 H 0.72896 0.3538 0.75162 0.0
H802 H 0.74746 0.39298 0.78134 0.0
H803 H 0.75506 0.46942 0.80777 0.0
H804 H 0.72163 0.60691 0.81473 0.0
H805 H 0.70282 0.5663 0.78592 0.0
C806 C 0.70698 0.47015 0.76373 0.0
C807 C 0.71097 0.42005 0.75283 0.0
C808 C 0.71778 0.49355 0.78041 0.0
C809 C 0.72552 0.39227 0.7598 0.0
C810 C 0.73621 0.41494 0.77663 0.0
C811 C 0.7437 0.49054 0.80287 0.0
C812 C 0.73983 0.54128 0.8133 0.0
C813 C 0.73266 0.46616 0.78669 0.0
C814 C 0.72498 0.56795 0.80689 0.0
C815 C 0.71413 0.54457 0.79053 0.0
H816 H 0.95718 0.941 0.45209 0.0
H817 H 1.00046 0.04165 0.43908 0.0
H818 H 0.01592 -0.00867 0.46898 0.0
H819 H 0.01754 0.91802 0.49843 0.0
H820 H 0.97417 0.82029 0.51374 0.0
H821 H 0.95852 0.86907 0.48302 0.0
C822 C 0.96989 0.95254 0.4561 0.0
C823 C 0.97758 -0.00471 0.44332 0.0
C824 C 0.97884 0.9231 0.47339 0.0
C825 C 0.99415 0.00923 0.44865 0.0
C826 C 0.00309 -0.01989 0.46563 0.0
C827 C 0.00475 0.90672 0.49475 0.0
C828 C 0.99711 0.86487 0.50798 0.0
C829 C 0.99566 0.93652 0.47787 0.0
C830 C 0.98038 0.85184 0.50352 0.0
C831 C 0.97139 0.88011 0.48614 0.0
H832 H 0.30455 0.21383 0.49325 0.0
H833 H 0.26159 0.12649 0.46747 0.0
H834 H 0.24417 0.1708 0.49714 0.0
H835 H 0.24099 0.23581 0.53008 0.0
H836 H 0.28406 0.32192 0.55613 0.0
H837 H 0.30146 0.27781 0.52636 0.0
C838 C 0.29143 0.20375 0.49436 0.0
C839 C 0.28445 0.16645 0.47824 0.0
C840 C 0.2814 0.23025 0.51117 0.0
C841 C 0.26735 0.15465 0.47975 0.0
C842 C 0.25733 0.18038 0.49659 0.0
C843 C 0.25412 0.24565 0.52893 0.0
C844 C 0.26117 0.28275 0.54507 0.0
C845 C 0.26417 0.21886 0.51218 0.0
C846 C 0.2783 0.29398 0.54375 0.0
C847 C 0.28829 0.2684 0.52687 0.0
H848 H 0.23547 0.94307 0.6946 0.0
H849 H 0.18716 0.94619 0.72776 0.0
H850 H 0.19765 0.00996 0.75752 0.0
H851 H 0.22096 0.06005 0.77547 0.0
H852 H 0.26942 0.05496 0.7428 0.0
H853 H 0.25833 -0.00225 0.71116 0.0
C854 C 0.22721 0.95761 0.70835 0.0
C855 C 0.21059 0.93917 0.70914 0.0
C856 C 0.23332 -0.00566 0.72535 0.0
C857 C 0.20003 0.95925 0.72685 0.0
C858 C 0.20602 -0.00415 0.74383 0.0
C859 C 0.22906 0.04735 0.7612 0.0
C860 C 0.24604 0.06185 0.76156 0.0
C861 C 0.22269 0.01318 0.74341 0.0
C862 C 0.25632 0.04458 0.74297 0.0
C863 C 0.25 0.01147 0.72496 0.0
H864 H 0.80486 0.73145 0.4977 0.0
H865 H 0.76889 0.60107 0.49072 0.0
H866 H 0.74947 0.65113 0.51587 0.0
H867 H 0.74239 0.733 0.53877 0.0
H868 H 0.77831 0.86341 0.54612 0.0
H869 H 0.79789 0.81309 0.52118 0.0
C870 C 0.79293 0.7134 0.50215 0.0
C871 C 0.78841 0.66223 0.49263 0.0
C872 C 0.78163 0.74321 0.51602 0.0
C873 C 0.77273 0.64005 0.49808 0.0
C874 C 0.76155 0.66896 0.51221 0.0
C875 C 0.75438 0.75095 0.53455 0.0
C876 C 0.75879 0.8023 0.54398 0.0
C877 C 0.76574 0.72101 0.5209 0.0
C878 C 0.77454 0.8243 0.53881 0.0
C879 C 0.7858 0.79526 0.52479 0.0
H880 H 0.70577 -0.01469 0.22547 0.0
H881 H 0.7389 0.84739 0.21726 0.0
H882 H 0.76032 0.89509 0.23984 0.0
H883 H 0.76985 -0.02356 0.26131 0.0
H884 H 0.73676 0.11418 0.27017 0.0
H885 H 0.71532 0.06693 0.24727 0.0
C886 C 0.71755 0.96525 0.22908 0.0
C887 C 0.72065 0.91252 0.21999 0.0
C888 C 0.73 -0.00641 0.24155 0.0
C889 C 0.73614 0.88765 0.22431 0.0
C890 C 0.74846 0.91516 0.23699 0.0
C891 C 0.75808 -0.00333 0.25779 0.0
C892 C 0.75501 0.04918 0.2671 0.0
C893 C 0.74563 0.96846 0.24536 0.0
C894 C 0.73952 0.07413 0.26291 0.0
C895 C 0.72719 0.04684 0.25006 0.0
H896 H 0.46209 0.45327 0.44497 0.0
H897 H 0.50038 0.57539 0.43523 0.0
H898 H 0.51755 0.53033 0.46502 0.0
H899 H 0.52166 0.45687 0.49421 0.0
H900 H 0.48338 0.33499 0.50435 0.0
H901 H 0.46651 0.37828 0.47361 0.0
C902 C 0.47409 0.47047 0.44961 0.0
C903 C 0.47982 0.51812 0.43804 0.0
C904 C 0.48409 0.44367 0.4665 0.0
C905 C 0.49557 0.5391 0.44396 0.0
C906 C 0.50548 0.51309 0.46089 0.0
C907 C 0.50977 0.4391 0.4894 0.0
C908 C 0.50388 0.39242 0.50149 0.0
C909 C 0.49992 0.46517 0.47217 0.0
C910 C 0.48829 0.37062 0.49525 0.0
C911 C 0.47856 0.3957 0.47782 0.0
H912 H 0.50899 0.75763 0.72192 0.0
H913 H 0.55602 0.76252 0.75852 0.0
H914 H 0.54464 0.70382 0.78966 0.0
H915 H 0.52148 0.64984 0.8061 0.0
H916 H 0.4745 0.64498 0.76938 0.0
H917 H 0.48587 0.70386 0.73835 0.0
C918 C 0.51671 0.7466 0.73688 0.0
C919 C 0.53332 0.76501 0.73798 0.0
C920 C 0.5102 0.7118 0.75442 0.0
C921 C 0.54317 0.74944 0.75733 0.0
C922 C 0.5367 0.71546 0.77503 0.0
C923 C 0.51378 0.66095 0.79114 0.0
C924 C 0.49718 0.64245 0.78997 0.0
C925 C 0.5203 0.69584 0.77361 0.0
C926 C 0.48734 0.65814 0.77063 0.0
C927 C 0.4938 0.69221 0.75297 0.0
H928 H 0.49956 0.25741 0.29198 0.0
H929 H 0.53721 0.13409 0.30365 0.0
H930 H 0.55469 0.17583 0.27333 0.0
H931 H 0.55883 0.24478 0.24214 0.0
H932 H 0.52099 0.36692 0.22966 0.0
H933 H 0.50432 0.32929 0.26195 0.0
C934 C 0.51154 0.23947 0.28776 0.0
C935 C 0.51693 0.19215 0.29988 0.0
C936 C 0.52165 0.26405 0.27038 0.0
C937 C 0.53265 0.17015 0.29449 0.0
C938 C 0.54272 0.19418 0.27721 0.0
C939 C 0.54712 0.26401 0.24684 0.0
C940 C 0.54124 0.3089 0.23357 0.0
C941 C 0.53734 0.24101 0.26496 0.0
C942 C 0.52588 0.33258 0.23967 0.0
C943 C 0.51625 0.31073 0.258 0.0
H944 H 0.47884 -0.00091 0.95614 0.0
H945 H 0.43211 0.0078 0.99333 0.0
H946 H 0.44383 0.95242 0.02545 0.0
H947 H 0.46739 0.90079 0.04268 0.0
H948 H 0.51375 0.89111 0.00451 0.0
H949 H 0.50195 0.94647 0.97273 0.0
C950 C 0.47124 -0.01031 0.97142 0.0
C951 C 0.45466 0.00845 0.97247 0.0
C952 C 0.4779 0.95658 0.9894 0.0
C953 C 0.44495 -0.00539 0.9922 0.0
C954 C 0.45162 0.96251 0.01046 0.0
C955 C 0.47484 0.91008 0.02725 0.0
C956 C 0.49145 0.89141 0.02597 0.0
C957 C 0.46804 0.94282 0.00914 0.0
C958 C 0.50095 0.90452 0.00594 0.0
C959 C 0.49424 0.93661 0.98783 0.0
H960 H 0.14799 0.39697 0.13232 0.0
H961 H 0.15061 0.39248 0.05642 0.0
H962 H 0.12026 0.38945 0.05411 0.0
H963 H 0.09268 0.38887 0.07383 0.0
H964 H 0.09085 0.39417 0.14989 0.0
H965 H 0.12096 0.39585 0.15176 0.0
C966 C 0.14197 0.39536 0.11524 0.0
C967 C 0.15166 0.39506 0.09462 0.0
C968 C 0.12452 0.39368 0.114 0.0
C969 C 0.14353 0.39288 0.07265 0.0
C970 C 0.12612 0.39107 0.07129 0.0
C971 C 0.09888 0.39018 0.09078 0.0
C972 C 0.08936 0.39159 0.11163 0.0
C973 C 0.11644 0.39151 0.09187 0.0
C974 C 0.09771 0.39342 0.13346 0.0
C975 C 0.11501 0.39433 0.13463 0.0
H976 H 0.11212 0.8416 0.13391 0.0
H977 H 0.11177 0.87778 0.20833 0.0
H978 H 0.14224 0.87842 0.2086 0.0
H979 H 0.16898 0.86741 0.18767 0.0
H980 H 0.1688 0.8324 0.1131 0.0
H981 H 0.13848 0.8325 0.11303 0.0
C982 C 0.11864 0.84967 0.15026 0.0
C983 C 0.10959 0.85942 0.17111 0.0
C984 C 0.13609 0.85005 0.15027 0.0
C985 C 0.11837 0.87016 0.19202 0.0
C986 C 0.1358 0.87041 0.19219 0.0
C987 C 0.16232 0.85973 0.1714 0.0
C988 C 0.17123 0.84971 0.15042 0.0
C989 C 0.1448 0.86016 0.17142 0.0
C990 C 0.16234 0.84023 0.12949 0.0
C991 C 0.14497 0.84025 0.12943 0.0
H992 H 0.82676 0.60766 0.86389 0.0
H993 H 0.82208 0.61761 0.93952 0.0
H994 H 0.85229 0.61548 0.94363 0.0
H995 H 0.88025 0.60751 0.92576 0.0
H996 H 0.88443 0.59665 0.85005 0.0
H997 H 0.85441 0.60274 0.84612 0.0
C998 C 0.83232 0.60955 0.88129 0.0
C999 C 0.82209 0.61255 0.90132 0.0
C1000 C 0.84973 0.6081 0.88358 0.0
C1001 C 0.8296 0.61512 0.92372 0.0
C1002 C 0.84692 0.61391 0.92613 0.0
C1003 C 0.87459 0.60692 0.90843 0.0
C1004 C 0.88467 0.60127 0.8883 0.0
C1005 C 0.85714 0.60998 0.90619 0.0
C1006 C 0.87706 0.60048 0.86594 0.0
C1007 C 0.85983 0.60399 0.8636 0.0
H1008 H 0.91102 0.11986 0.81523 0.0
H1009 H 0.91562 0.12433 0.89104 0.0
H1010 H 0.88563 0.13027 0.89506 0.0
H1011 H 0.85786 0.13508 0.87747 0.0
H1012 H 0.85278 0.13182 0.80179 0.0
H1013 H 0.88291 0.12464 0.79749 0.0
C1014 C 0.90546 0.12197 0.83261 0.0
C1015 C 0.91573 0.12169 0.85273 0.0
C1016 C 0.88799 0.12576 0.83494 0.0
C1017 C 0.90819 0.12465 0.87513 0.0
C1018 C 0.89094 0.12803 0.87753 0.0
C1019 C 0.8633 0.13278 0.86002 0.0
C1020 C 0.85295 0.13404 0.84004 0.0
C1021 C 0.8807 0.12881 0.8576 0.0
C1022 C 0.86036 0.13105 0.81756 0.0
C1023 C 0.87765 0.12688 0.81504 0.0
H1024 H 0.13776 0.76975 0.59103 0.0
H1025 H 0.1344 0.80291 0.66562 0.0
H1026 H 0.10417 0.80813 0.6626 0.0
H1027 H 0.07895 0.80902 0.63862 0.0
H1028 H 0.08196 0.77798 0.56387 0.0
H1029 H 0.11212 0.76581 0.56723 0.0
C1030 C 0.13043 0.77754 0.60672 0.0
C1031 C 0.13845 0.78618 0.62854 0.0
C1032 C 0.113 0.7812 0.60481 0.0
C1033 C 0.12866 0.79623 0.6486 0.0
C1034 C 0.11134 0.79937 0.64688 0.0
C1035 C 0.08613 0.79931 0.62299 0.0
C1036 C 0.07813 0.79488 0.60095 0.0
C1037 C 0.10342 0.79287 0.62502 0.0
C1038 C 0.08773 0.78176 0.58104 0.0
C1039 C 0.10499 0.77493 0.58295 0.0
H1040 H 0.12021 0.36434 0.659 0.0
H1041 H 0.11649 0.38563 0.58367 0.0
H1042 H 0.14669 0.38679 0.58033 0.0
H1043 H 0.17426 0.37181 0.59818 0.0
H1044 H 0.17782 0.34887 0.67348 0.0
H1045 H 0.14786 0.35876 0.67731 0.0
C1046 C 0.12599 0.37031 0.64192 0.0
C1047 C 0.11602 0.37424 0.62164 0.0
C1048 C 0.14346 0.36999 0.63999 0.0
C1049 C 0.1238 0.38189 0.59962 0.0
C1050 C 0.14113 0.38245 0.59763 0.0
C1051 C 0.16851 0.3698 0.61545 0.0
C1052 C 0.17835 0.3588 0.63541 0.0
C1053 C 0.15111 0.37492 0.61761 0.0
C1054 C 0.17062 0.35655 0.65769 0.0
C1055 C 0.15341 0.36223 0.65996 0.0
H1056 H 0.84616 0.07419 0.31754 0.0
H1057 H 0.84106 0.04477 0.39232 0.0
H1058 H 0.871 0.03906 0.39647 0.0
H1059 H 0.89889 0.04423 0.37951 0.0
H1060 H 0.90467 0.07197 0.30484 0.0
H1061 H 0.87448 0.07632 0.30017 0.0
C1062 C 0.8516 0.06628 0.3347 0.0
C1063 C 0.8412 0.06026 0.35453 0.0
C1064 C 0.86907 0.06286 0.33711 0.0
C1065 C 0.84859 0.04988 0.37664 0.0
C1066 C 0.86581 0.04659 0.37912 0.0
C1067 C 0.89358 0.0512 0.36219 0.0
C1068 C 0.90413 0.05798 0.34262 0.0
C1069 C 0.87619 0.0534 0.35956 0.0
C1070 C 0.89691 0.06658 0.32028 0.0
C1071 C 0.8796 0.06915 0.31757 0.0
H1072 H 0.92628 0.61404 0.37331 0.0
H1073 H 0.93186 0.59326 0.44846 0.0
H1074 H 0.90169 0.59564 0.45333 0.0
H1075 H 0.8736 0.60468 0.43626 0.0
H1076 H 0.86846 0.62612 0.36101 0.0
H1077 H 0.89848 0.62231 0.35632 0.0
C1078 C 0.92093 0.60994 0.39077 0.0
C1079 C 0.93138 0.60354 0.41045 0.0
C1080 C 0.90358 0.61148 0.39349 0.0
C1081 C 0.92415 0.59831 0.43295 0.0
C1082 C 0.90688 0.59965 0.43578 0.0
C1083 C 0.87904 0.60836 0.41884 0.0
C1084 C 0.8687 0.61576 0.39907 0.0
C1085 C 0.89645 0.60635 0.41618 0.0
C1086 C 0.87604 0.62054 0.37662 0.0
C1087 C 0.89325 0.61835 0.37386 0.0
H1088 H 0.57658 0.39129 0.64562 0.0
H1089 H 0.58653 0.38243 0.57093 0.0
H1090 H 0.61643 0.38813 0.57882 0.0
H1091 H 0.63967 0.39339 0.60696 0.0
H1092 H 0.6295 0.39983 0.68163 0.0
H1093 H 0.59964 0.39733 0.67358 0.0
C1094 C 0.58522 0.39078 0.63094 0.0
C1095 C 0.57921 0.38638 0.60763 0.0
C1096 C 0.60236 0.39351 0.63563 0.0
C1097 C 0.59072 0.38571 0.58901 0.0
C1098 C 0.60784 0.38894 0.59353 0.0
C1099 C 0.63096 0.39449 0.62153 0.0
C1100 C 0.63692 0.39681 0.64494 0.0
C1101 C 0.61379 0.39252 0.61678 0.0
C1102 C 0.62535 0.39796 0.6635 0.0
C1103 C 0.60826 0.39654 0.65889 0.0
H1104 H 0.6146 0.82094 0.61028 0.0
H1105 H 0.61381 0.83382 0.68617 0.0
H1106 H 0.64417 0.83512 0.68688 0.0
H1107 H 0.67082 0.83271 0.66616 0.0
H1108 H 0.67191 0.8217 0.59025 0.0
H1109 H 0.64146 0.8193 0.58942 0.0
C1110 C 0.62104 0.82406 0.62701 0.0
C1111 C 0.61185 0.82724 0.64817 0.0
C1112 C 0.63853 0.82494 0.6273 0.0
C1113 C 0.62048 0.83143 0.66962 0.0
C1114 C 0.63787 0.83205 0.67005 0.0
C1115 C 0.66446 0.82952 0.64937 0.0
C1116 C 0.67372 0.82716 0.62827 0.0
C1117 C 0.647 0.82875 0.64902 0.0
C1118 C 0.66516 0.82351 0.60675 0.0
C1119 C 0.64773 0.82219 0.60627 0.0
H1120 H 0.39397 0.59638 0.31615 0.0
H1121 H 0.39671 0.58026 0.39186 0.0
H1122 H 0.36643 0.58437 0.39438 0.0
H1123 H 0.33925 0.59192 0.37526 0.0
H1124 H 0.33624 0.60956 0.29966 0.0
H1125 H 0.3666 0.60555 0.29699 0.0
C1126 C 0.38797 0.59372 0.33323 0.0
C1127 C 0.39769 0.58784 0.3538 0.0
C1128 C 0.37051 0.59639 0.33459 0.0
C1129 C 0.38962 0.58481 0.37575 0.0
C1130 C 0.37228 0.5871 0.37721 0.0
C1131 C 0.34517 0.59485 0.35814 0.0
C1132 C 0.33538 0.60085 0.33767 0.0
C1133 C 0.36261 0.59278 0.35676 0.0
C1134 C 0.3434 0.60494 0.31571 0.0
C1135 C 0.36078 0.60258 0.31418 0.0
H1136 H 0.4281 0.1079 0.41502 0.0
H1137 H 0.4308 0.13465 0.33984 0.0
H1138 H 0.40053 0.13984 0.33783 0.0
H1139 H 0.37339 0.13867 0.3573 0.0
H1140 H 0.37032 0.11123 0.43237 0.0
H1141 H 0.40067 0.10423 0.43445 0.0
C1142 C 0.42209 0.11478 0.39816 0.0
C1143 C 0.43181 0.12107 0.37761 0.0
C1144 C 0.40461 0.11764 0.3971 0.0
C1145 C 0.42372 0.12967 0.35595 0.0
C1146 C 0.40638 0.13272 0.35477 0.0
C1147 C 0.3793 0.13111 0.37418 0.0
C1148 C 0.36951 0.12576 0.39469 0.0
C1149 C 0.39672 0.12707 0.37523 0.0
C1150 C 0.37749 0.11555 0.4163 0.0
C1151 C 0.39486 0.11164 0.41751 0.0
H1152 H 0.6321 0.84589 0.0995 0.0
H1153 H 0.63164 0.84385 0.17559 0.0
H1154 H 0.60125 0.84004 0.1753 0.0
H1155 H 0.57489 0.83993 0.15356 0.0
H1156 H 0.57528 0.84145 0.07747 0.0
H1157 H 0.60571 0.84276 0.07772 0.0
C1158 C 0.6254 0.84445 0.11608 0.0
C1159 C 0.63423 0.84542 0.13758 0.0
C1160 C 0.60792 0.84234 0.11578 0.0
C1161 C 0.62525 0.84318 0.1588 0.0
C1162 C 0.60784 0.84112 0.15864 0.0
C1163 C 0.58158 0.8405 0.13697 0.0
C1164 C 0.57272 0.8409 0.11549 0.0
C1165 C 0.59906 0.84114 0.13724 0.0
C1166 C 0.5817 0.84119 0.09424 0.0
C1167 C 0.59912 0.842 0.09438 0.0
H1168 H 0.66572 0.3308 0.07901 0.0
H1169 H 0.68061 0.31827 0.15196 0.0
H1170 H 0.65174 0.32014 0.16434 0.0
H1171 H 0.62193 0.32361 0.15487 0.0
H1172 H 0.60676 0.33304 0.08207 0.0
H1173 H 0.63575 0.33455 0.06951 0.0
C1174 C 0.66266 0.32846 0.09759 0.0
C1175 C 0.67548 0.32434 0.11438 0.0
C1176 C 0.64584 0.32922 0.1048 0.0
C1177 C 0.67114 0.32134 0.13845 0.0
C1178 C 0.65455 0.32252 0.14568 0.0
C1179 C 0.62498 0.32654 0.13629 0.0
C1180 C 0.61213 0.32826 0.11952 0.0
C1181 C 0.64176 0.32638 0.12905 0.0
C1182 C 0.61636 0.33144 0.09545 0.0
C1183 C 0.63298 0.33227 0.08818 0.0
H1184 H 0.37529 0.09362 0.90166 0.0
H1185 H 0.38586 0.06843 0.8279 0.0
H1186 H 0.35656 0.08008 0.81833 0.0
H1187 H 0.32754 0.09365 0.83094 0.0
H1188 H 0.31704 0.11703 0.90485 0.0
H1189 H 0.34649 0.11019 0.91409 0.0
C1190 C 0.37122 0.09102 0.88349 0.0
C1191 C 0.38283 0.07988 0.86563 0.0
C1192 C 0.35424 0.09731 0.87802 0.0
C1193 C 0.37725 0.07664 0.84213 0.0
C1194 C 0.36044 0.08334 0.83656 0.0
C1195 C 0.33171 0.09772 0.84902 0.0
C1196 C 0.32001 0.10555 0.8671 0.0
C1197 C 0.34877 0.09314 0.85438 0.0
C1198 C 0.32569 0.11054 0.8905 0.0
C1199 C 0.34259 0.10668 0.89588 0.0
H1200 H 0.41651 0.58896 0.92016 0.0
H1201 H 0.41561 0.60154 0.84426 0.0
H1202 H 0.38533 0.61115 0.8452 0.0
H1203 H 0.3592 0.61748 0.86756 0.0
H1204 H 0.36012 0.60391 0.94343 0.0
H1205 H 0.39035 0.59305 0.94243 0.0
C1206 C 0.40974 0.59375 0.90376 0.0
C1207 C 0.41843 0.59467 0.88213 0.0
C1208 C 0.39232 0.5991 0.90443 0.0
C1209 C 0.40933 0.60062 0.86114 0.0
C1210 C 0.39199 0.6062 0.86167 0.0
C1211 C 0.36597 0.61208 0.88393 0.0
C1212 C 0.3573 0.61172 0.90559 0.0
C1213 C 0.38336 0.60573 0.88322 0.0
C1214 C 0.36638 0.60435 0.92653 0.0
C1215 C 0.3837 0.59822 0.92596 0.0
H1216 H 0.03155 0.04259 0.17645 0.0
H1217 H 0.04369 0.00256 0.10438 0.0
H1218 H 0.03784 0.09644 0.09228 0.0
H1219 H 0.03165 0.19192 0.1026 0.0
H1220 H 0.01974 0.23229 0.17468 0.0
H1221 H 0.02284 0.13641 0.1861 0.0
C1222 C 0.03282 0.05431 0.15808 0.0
C1223 C 0.03828 0.01566 0.14148 0.0
C1224 C 0.02946 0.10859 0.15115 0.0
C1225 C 0.03964 0.03146 0.11765 0.0
C1226 C 0.03629 0.08525 0.11065 0.0
C1227 C 0.02942 0.17961 0.12071 0.0
C1228 C 0.02568 0.2194 0.13776 0.0
C1229 C 0.0315 0.12443 0.12731 0.0
C1230 C 0.02283 0.20263 0.16118 0.0
C1231 C 0.02464 0.14777 0.1678 0.0
H1232 H 0.23014 0.02144 0.10627 0.0
H1233 H 0.23463 0.05744 0.18046 0.0
H1234 H 0.2305 0.155 0.17229 0.0
H1235 H 0.2238 0.22909 0.14437 0.0
H1236 H 0.21908 0.19208 0.07028 0.0
H1237 H 0.22506 0.09575 0.07824 0.0
C1238 C 0.23039 0.0506 0.12067 0.0
C1239 C 0.23257 0.03203 0.14396 0.0
C1240 C 0.22778 0.10639 0.11592 0.0
C1241 C 0.23295 0.07054 0.16236 0.0
C1242 C 0.2305 0.12633 0.15773 0.0
C1243 C 0.22411 0.19999 0.12995 0.0
C1244 C 0.22083 0.21776 0.1068 0.0
C1245 C 0.22758 0.14455 0.13462 0.0
C1246 C 0.22147 0.17956 0.08829 0.0
C1247 C 0.2249 0.12442 0.09281 0.0
H1248 H 0.96726 0.75637 0.90083 0.0
H1249 H 0.95432 0.73116 0.82782 0.0
H1250 H 0.96274 0.82472 0.8184 0.0
H1251 H 0.97126 0.91619 0.8315 0.0
H1252 H 0.984 0.94172 0.90458 0.0
H1253 H 0.97851 0.8454 0.91315 0.0
C1254 C 0.96636 0.77126 0.88285 0.0
C1255 C 0.95993 0.73707 0.86517 0.0
C1256 C 0.97123 0.8252 0.87749 0.0
C1257 C 0.95912 0.75671 0.84185 0.0
C1258 C 0.96393 0.81027 0.8364 0.0
C1259 C 0.97316 0.9005 0.8492 0.0
C1260 C 0.9778 0.93637 0.86739 0.0
C1261 C 0.96969 0.84522 0.85416 0.0
C1262 C 0.98026 0.91519 0.89024 0.0
C1263 C 0.97705 0.8601 0.89523 0.0
H1264 H 0.77386 -0.01501 0.88721 0.0
H1265 H 0.78261 0.94333 0.81436 0.0
H1266 H 0.77409 0.84875 0.82221 0.0
H1267 H 0.766 0.77699 0.85024 0.0
H1268 H 0.75743 0.81847 0.92318 0.0
H1269 H 0.76372 0.91456 0.91463 0.0
C1270 C 0.77388 0.95525 0.87302 0.0
C1271 C 0.77909 0.97096 0.85031 0.0
C1272 C 0.76892 0.90111 0.87763 0.0
C1273 C 0.77876 0.9322 0.83203 0.0
C1274 C 0.77388 0.87814 0.8365 0.0
C1275 C 0.7653 0.80709 0.86425 0.0
C1276 C 0.76141 0.7904 0.88737 0.0
C1277 C 0.76918 0.86202 0.8593 0.0
C1278 C 0.76042 0.83011 0.90523 0.0
C1279 C 0.76412 0.88502 0.9004 0.0
H1280 H 0.00698 0.65005 0.58371 0.0
H1281 H 0.01167 0.67968 0.65836 0.0
H1282 H 0.01977 0.58427 0.66469 0.0
H1283 H 0.03083 0.49846 0.64789 0.0
H1284 H 0.02747 0.47224 0.57276 0.0
H1285 H 0.01371 0.56021 0.56785 0.0
C1286 C 0.00934 0.63534 0.60147 0.0
C1287 C 0.00919 0.67229 0.6204 0.0
C1288 C 0.01472 0.5813 0.60485 0.0
C1289 C 0.01189 0.65228 0.64337 0.0
C1290 C 0.01674 0.59781 0.647 0.0
C1291 C 0.02689 0.51168 0.6305 0.0
C1292 C 0.03063 0.47947 0.61068 0.0
C1293 C 0.01912 0.56293 0.62768 0.0
C1294 C 0.02513 0.49674 0.58831 0.0
C1295 C 0.01717 0.54701 0.58544 0.0
H1296 H 0.23465 0.47553 0.68363 0.0
H1297 H 0.26415 0.48414 0.62027 0.0
H1298 H 0.25757 0.58144 0.61604 0.0
H1299 H 0.23828 0.65591 0.62504 0.0
H1300 H 0.20715 0.64661 0.68675 0.0
H1301 H 0.21947 0.55759 0.6971 0.0
C1302 C 0.24025 0.49943 0.66956 0.0
C1303 C 0.2497 0.47293 0.65211 0.0
C1304 C 0.23561 0.55454 0.66651 0.0
C1305 C 0.2568 0.50394 0.63382 0.0
C1306 C 0.25284 0.55929 0.63122 0.0
C1307 C 0.23442 0.63474 0.64098 0.0
C1308 C 0.22155 0.65652 0.65478 0.0
C1309 C 0.24138 0.58375 0.64655 0.0
C1310 C 0.21691 0.62991 0.67573 0.0
C1311 C 0.22393 0.5791 0.68159 0.0
H1312 H 0.98478 0.43143 0.35534 0.0
H1313 H 0.99612 0.39138 0.42777 0.0
H1314 H 0.99041 0.29477 0.42008 0.0
H1315 H 0.9806 0.22241 0.39347 0.0
H1316 H 0.96957 0.26215 0.32097 0.0
H1317 H 0.97669 0.35813 0.3281 0.0
C1318 C 0.9862 0.40154 0.3694 0.0
C1319 C 0.99077 0.41886 0.39214 0.0
C1320 C 0.98275 0.34602 0.36494 0.0
C1321 C 0.9926 0.37937 0.4101 0.0
C1322 C 0.98925 0.32406 0.40577 0.0
C1323 C 0.97975 0.25207 0.37923 0.0
C1324 C 0.97439 0.23523 0.35679 0.0
C1325 C 0.98401 0.3071 0.38338 0.0
C1326 C 0.9736 0.27404 0.33844 0.0
C1327 C 0.97768 0.32894 0.34249 0.0
H1328 H 0.78406 0.26372 0.40201 0.0
H1329 H 0.78345 0.27681 0.32609 0.0
H1330 H 0.78809 0.37569 0.3289 0.0
H1331 H 0.79438 0.45678 0.35283 0.0
H1332 H 0.7959 0.44228 0.4287 0.0
H1333 H 0.78882 0.34521 0.42589 0.0
C1334 C 0.78476 0.28814 0.38602 0.0
C1335 C 0.78354 0.26273 0.36385 0.0
C1336 C 0.78775 0.34458 0.38774 0.0
C1337 C 0.78441 0.29521 0.34338 0.0
C1338 C 0.78712 0.35173 0.34497 0.0
C1339 C 0.79307 0.43253 0.36878 0.0
C1340 C 0.79583 0.45672 0.39094 0.0
C1341 C 0.78916 0.3766 0.36705 0.0
C1342 C 0.79398 0.42468 0.41141 0.0
C1343 C 0.78992 0.36916 0.40983 0.0
H1344 H 0.53733 -0.00813 0.59801 0.0
H1345 H 0.53662 0.00636 0.67384 0.0
H1346 H 0.52844 0.10263 0.67028 0.0
H1347 H 0.52308 0.18359 0.64572 0.0
H1348 H 0.5246 0.16966 0.56989 0.0
H1349 H 0.53068 0.07176 0.57346 0.0
C1350 C 0.53533 0.01589 0.61382 0.0
C1351 C 0.53773 -0.00815 0.63619 0.0
C1352 C 0.53075 0.07126 0.61165 0.0
C1353 C 0.53496 0.02373 0.65641 0.0
C1354 C 0.53027 0.07882 0.65439 0.0
C1355 C 0.52453 0.15915 0.62991 0.0
C1356 C 0.52344 0.18421 0.60754 0.0
C1357 C 0.52833 0.10314 0.6321 0.0
C1358 C 0.5254 0.15165 0.58732 0.0
C1359 C 0.52894 0.09565 0.58935 0.0
H1360 H 0.71427 0.21262 0.61736 0.0
H1361 H 0.70094 0.20589 0.69109 0.0
H1362 H 0.71063 0.11115 0.69332 0.0
H1363 H 0.72174 0.02974 0.67406 0.0
H1364 H 0.73439 0.03533 0.6001 0.0
H1365 H 0.72641 0.13197 0.59843 0.0
C1366 C 0.71342 0.19045 0.63392 0.0
C1367 C 0.70675 0.21611 0.65397 0.0
C1368 C 0.71905 0.13617 0.63511 0.0
C1369 C 0.70593 0.18697 0.67535 0.0
C1370 C 0.71152 0.1329 0.67667 0.0
C1371 C 0.72301 0.05219 0.65762 0.0
C1372 C 0.7286 0.02532 0.63721 0.0
C1373 C 0.71801 0.1071 0.65664 0.0
C1374 C 0.73009 0.05505 0.61606 0.0
C1375 C 0.72544 0.11017 0.61505 0.0
H1376 H 0.47907 0.74334 0.38491 0.0
H1377 H 0.46578 0.77602 0.31248 0.0
H1378 H 0.47528 0.87062 0.31647 0.0
H1379 H 0.48544 0.94536 0.34122 0.0
H1380 H 0.49815 0.91345 0.41392 0.0
H1381 H 0.49113 0.81674 0.4089 0.0
C1382 C 0.47827 0.7711 0.36998 0.0
C1383 C 0.47153 0.75283 0.34853 0.0
C1384 C 0.48375 0.82542 0.37237 0.0
C1385 C 0.47081 0.78912 0.32925 0.0
C1386 C 0.47626 0.84321 0.33149 0.0
C1387 C 0.48696 0.91716 0.35588 0.0
C1388 C 0.49218 0.93675 0.37796 0.0
C1389 C 0.48253 0.86196 0.35305 0.0
C1390 C 0.49409 0.89953 0.39675 0.0
C1391 C 0.48998 0.84427 0.39395 0.0
H1392 H 0.28219 0.80611 0.32904 0.0
H1393 H 0.27004 0.77452 0.40191 0.0
H1394 H 0.27634 0.86961 0.41183 0.0
H1395 H 0.2878 0.95953 0.40051 0.0
H1396 H 0.30042 -0.01006 0.32764 0.0
H1397 H 0.29148 0.89782 0.31719 0.0
C1398 C 0.28058 0.82025 0.347 0.0
C1399 C 0.27578 0.78305 0.3647 0.0
C1400 C 0.28459 0.87472 0.35273 0.0
C1401 C 0.27383 0.80216 0.38793 0.0
C1402 C 0.27751 0.85653 0.39367 0.0
C1403 C 0.28853 0.9461 0.38233 0.0
C1404 C 0.29498 -0.01844 0.365 0.0
C1405 C 0.28337 0.89277 0.37634 0.0
C1406 C 0.29564 0.96354 0.34146 0.0
C1407 C 0.29049 0.91077 0.33539 0.0
H1408 H 0.52826 0.48305 0.15565 0.0
H1409 H 0.5389 0.4715 0.08131 0.0
H1410 H 0.52793 0.56387 0.07507 0.0
H1411 H 0.51763 0.65066 0.09132 0.0
H1412 H 0.50684 0.66176 0.16571 0.0
H1413 H 0.51512 0.5664 0.17116 0.0
C1414 C 0.52813 0.50076 0.13809 0.0
C1415 C 0.53462 0.47092 0.11905 0.0
C1416 C 0.52166 0.55365 0.13458 0.0
C1417 C 0.53407 0.49384 0.0963 0.0
C1418 C 0.52779 0.54663 0.0927 0.0
C1419 C 0.51672 0.63194 0.10864 0.0
C1420 C 0.51183 0.66368 0.1281 0.0
C1421 C 0.52181 0.57727 0.11178 0.0
C1422 C 0.51069 0.63853 0.15041 0.0
C1423 C 0.51554 0.58402 0.15361 0.0
H1424 H 0.73035 0.51169 0.14395 0.0
H1425 H 0.73448 0.51926 0.06816 0.0
H1426 H 0.72623 0.61567 0.06868 0.0
H1427 H 0.71534 0.6948 0.09023 0.0
H1428 H 0.71021 0.68624 0.16591 0.0
H1429 H 0.7213 0.59299 0.16579 0.0
C1430 C 0.72979 0.53468 0.12758 0.0
C1431 C 0.73295 0.50823 0.10604 0.0
C1432 C 0.72456 0.5896 0.12794 0.0
C1433 C 0.73204 0.53859 0.08498 0.0
C1434 C 0.72723 0.59363 0.08524 0.0
C1435 C 0.71669 0.67268 0.10673 0.0
C1436 C 0.71175 0.69729 0.12801 0.0
C1437 C 0.72299 0.61902 0.10655 0.0
C1438 C 0.71378 0.66817 0.14924 0.0
C1439 C 0.72016 0.61485 0.14922 0.0
H1440 H 0.46668 0.21327 0.90484 0.0
H1441 H 0.45891 0.21525 0.82959 0.0
H1442 H 0.46872 0.31006 0.82763 0.0
H1443 H 0.47641 0.39507 0.84797 0.0
H1444 H 0.48383 0.39269 0.92336 0.0
H1445 H 0.4776 0.29493 0.92444 0.0
C1446 C 0.46725 0.23433 0.88798 0.0
C1447 C 0.46179 0.20776 0.86748 0.0
C1448 C 0.47285 0.28871 0.88698 0.0
C1449 C 0.46293 0.23506 0.84568 0.0
C1450 C 0.46851 0.28927 0.84454 0.0
C1451 C 0.47701 0.373 0.86457 0.0
C1452 C 0.48028 0.40143 0.88559 0.0
C1453 C 0.47309 0.31692 0.86517 0.0
C1454 C 0.48113 0.37201 0.90693 0.0
C1455 C 0.4775 0.31611 0.90761 0.0
H1456 H 0.25955 0.28749 0.90198 0.0
H1457 H 0.26241 0.30018 0.82616 0.0
H1458 H 0.27021 0.3968 0.82949 0.0
H1459 H 0.27888 0.4746 0.85399 0.0
H1460 H 0.27728 0.45989 0.92984 0.0
H1461 H 0.2664 0.36679 0.92634 0.0
C1462 C 0.26157 0.31149 0.8861 0.0
C1463 C 0.26049 0.28635 0.86383 0.0
C1464 C 0.26657 0.36642 0.88816 0.0
C1465 C 0.26319 0.31832 0.84352 0.0
C1466 C 0.26776 0.37352 0.84542 0.0
C1467 C 0.27607 0.45123 0.86979 0.0
C1468 C 0.27909 0.47412 0.89216 0.0
C1469 C 0.26996 0.39747 0.86767 0.0
C1470 C 0.27524 0.44323 0.9124 0.0
C1471 C 0.26897 0.38999 0.91042 0.0
loop_
_geom_bond_atom_site_label_1
_geom_bond_atom_site_label_2
_geom_bond_distance
_geom_bond_site_symmetry_2
_ccdc_geom_bond_type
C0 O1 1.306 . S
C0 O3 1.160 . S
O1 C0 1.306 . S
O1 Cd2 2.228 . S
Cd2 O1 2.228 . S
Cd2 O6 2.273 . S
Cd2 O10 2.277 . S
O3 C0 1.160 . S
O3 Cd4 2.203 . S
Cd4 O3 2.203 . S
Cd4 O6 2.411 . S
Cd4 O7 2.333 . S
Cd4 O8 2.352 . S
Cd4 O12 2.277 . S
Cd4 O13 2.356 . S
C5 O10 1.209 . S
C5 O12 1.226 . S
O6 Cd2 2.273 . S
O6 Cd4 2.411 . S
O6 C9 1.320 . S
O7 Cd4 2.333 . S
O7 C9 1.214 . S
O8 Cd4 2.352 . S
O8 C11 1.258 . S
C9 O6 1.320 . S
C9 O7 1.214 . S
O10 Cd2 2.277 . S
O10 C5 1.209 . S
C11 O8 1.258 . S
C11 O13 1.282 . S
O12 Cd4 2.277 . S
O12 C5 1.226 . S
O13 Cd4 2.356 . S
O13 C11 1.282 . S
C14 O15 1.306 . S
C14 O17 1.160 . S
O15 C14 1.306 . S
O15 Cd16 2.228 . S
Cd16 O15 2.228 . S
Cd16 O20 2.273 . S
Cd16 O24 2.277 . S
O17 C14 1.160 . S
O17 Cd18 2.203 . S
Cd18 O17 2.203 . S
Cd18 O20 2.411 . S
Cd18 O21 2.333 . S
Cd18 O22 2.352 . S
Cd18 O26 2.277 . S
Cd18 O27 2.356 . S
C19 O24 1.209 . S
C19 O26 1.226 . S
O20 Cd16 2.273 . S
O20 Cd18 2.411 . S
O20 C23 1.320 . S
O21 Cd18 2.333 . S
O21 C23 1.214 . S
O22 Cd18 2.352 . S
O22 C25 1.258 . S
C23 O20 1.320 . S
C23 O21 1.214 . S
O24 Cd16 2.277 . S
O24 C19 1.209 . S
C25 O22 1.258 . S
C25 O27 1.282 . S
O26 Cd18 2.277 . S
O26 C19 1.226 . S
O27 Cd18 2.356 . S
O27 C25 1.282 . S
C28 O29 1.306 . S
C28 O31 1.160 . S
O29 C28 1.306 . S
O29 Cd30 2.228 . S
Cd30 O29 2.228 . S
Cd30 O34 2.273 . S
Cd30 O38 2.277 . S
O31 C28 1.160 . S
O31 Cd32 2.203 . S
Cd32 O31 2.203 . S
Cd32 O34 2.411 . S
Cd32 O35 2.333 . S
Cd32 O36 2.352 . S
Cd32 O40 2.277 . S
Cd32 O41 2.356 . S
C33 O38 1.209 . S
C33 O40 1.226 . S
O34 Cd30 2.273 . S
O34 Cd32 2.411 . S
O34 C37 1.320 . S
O35 Cd32 2.333 . S
O35 C37 1.214 . S
O36 Cd32 2.352 . S
O36 C39 1.258 . S
C37 O34 1.320 . S
C37 O35 1.214 . S
O38 Cd30 2.277 . S
O38 C33 1.209 . S
C39 O36 1.258 . S
C39 O41 1.282 . S
O40 Cd32 2.277 . S
O40 C33 1.226 . S
O41 Cd32 2.356 . S
O41 C39 1.282 . S
C42 O43 1.306 . S
C42 O45 1.160 . S
O43 C42 1.306 . S
O43 Cd44 2.228 . S
Cd44 O43 2.228 . S
Cd44 O48 2.273 . S
Cd44 O52 2.277 . S
O45 C42 1.160 . S
O45 Cd46 2.203 . S
Cd46 O45 2.203 . S
Cd46 O48 2.411 . S
Cd46 O49 2.333 . S
Cd46 O50 2.352 . S
Cd46 O54 2.277 . S
Cd46 O55 2.356 . S
C47 O52 1.209 . S
C47 O54 1.226 . S
O48 Cd44 2.273 . S
O48 Cd46 2.411 . S
O48 C51 1.320 . S
O49 Cd46 2.333 . S
O49 C51 1.214 . S
O50 Cd46 2.352 . S
O50 C53 1.258 . S
C51 O48 1.320 . S
C51 O49 1.214 . S
O52 Cd44 2.277 . S
O52 C47 1.209 . S
C53 O50 1.258 . S
C53 O55 1.282 . S
O54 Cd46 2.277 . S
O54 C47 1.226 . S
O55 Cd46 2.356 . S
O55 C53 1.282 . S
C56 O57 1.306 . S
C56 O59 1.160 . S
O57 C56 1.306 . S
O57 Cd58 2.228 . S
Cd58 O57 2.228 . S
Cd58 O62 2.273 . S
Cd58 O66 2.277 . S
O59 C56 1.160 . S
O59 Cd60 2.203 . S
Cd60 O59 2.203 . S
Cd60 O62 2.411 . S
Cd60 O63 2.333 . S
Cd60 O64 2.352 . S
Cd60 O68 2.277 . S
Cd60 O69 2.356 . S
C61 O66 1.209 . S
C61 O68 1.226 . S
O62 Cd58 2.273 . S
O62 Cd60 2.411 . S
O62 C65 1.320 . S
O63 Cd60 2.333 . S
O63 C65 1.214 . S
O64 Cd60 2.352 . S
O64 C67 1.258 . S
C65 O62 1.320 . S
C65 O63 1.214 . S
O66 Cd58 2.277 . S
O66 C61 1.209 . S
C67 O64 1.258 . S
C67 O69 1.282 . S
O68 Cd60 2.277 . S
O68 C61 1.226 . S
O69 Cd60 2.356 . S
O69 C67 1.282 . S
C70 O71 1.306 . S
C70 O73 1.160 . S
O71 C70 1.306 . S
O71 Cd72 2.228 . S
Cd72 O71 2.228 . S
Cd72 O76 2.273 . S
Cd72 O80 2.277 . S
O73 C70 1.160 . S
O73 Cd74 2.203 . S
Cd74 O73 2.203 . S
Cd74 O76 2.411 . S
Cd74 O77 2.333 . S
Cd74 O78 2.352 . S
Cd74 O82 2.277 . S
Cd74 O83 2.356 . S
C75 O80 1.209 . S
C75 O82 1.226 . S
O76 Cd72 2.273 . S
O76 Cd74 2.411 . S
O76 C79 1.320 . S
O77 Cd74 2.333 . S
O77 C79 1.214 . S
O78 Cd74 2.352 . S
O78 C81 1.258 . S
C79 O76 1.320 . S
C79 O77 1.214 . S
O80 Cd72 2.277 . S
O80 C75 1.209 . S
C81 O78 1.258 . S
C81 O83 1.282 . S
O82 Cd74 2.277 . S
O82 C75 1.226 . S
O83 Cd74 2.356 . S
O83 C81 1.282 . S
C84 O85 1.306 . S
C84 O87 1.160 . S
O85 C84 1.306 . S
O85 Cd86 2.228 . S
Cd86 O85 2.228 . S
Cd86 O90 2.273 . S
Cd86 O94 2.277 . S
O87 C84 1.160 . S
O87 Cd88 2.203 . S
Cd88 O87 2.203 . S
Cd88 O90 2.411 . S
Cd88 O91 2.333 . S
Cd88 O92 2.352 . S
Cd88 O96 2.277 . S
Cd88 O97 2.356 . S
C89 O94 1.209 . S
C89 O96 1.226 . S
O90 Cd86 2.273 . S
O90 Cd88 2.411 . S
O90 C93 1.320 . S
O91 Cd88 2.333 . S
O91 C93 1.214 . S
O92 Cd88 2.352 . S
O92 C95 1.258 . S
C93 O90 1.320 . S
C93 O91 1.214 . S
O94 Cd86 2.277 . S
O94 C89 1.209 . S
C95 O92 1.258 . S
C95 O97 1.282 . S
O96 Cd88 2.277 . S
O96 C89 1.226 . S
O97 Cd88 2.356 . S
O97 C95 1.282 . S
C98 O99 1.306 . S
C98 O101 1.160 . S
O99 C98 1.306 . S
O99 Cd100 2.228 . S
Cd100 O99 2.228 . S
Cd100 O104 2.273 . S
Cd100 O108 2.277 . S
O101 C98 1.160 . S
O101 Cd102 2.203 . S
Cd102 O101 2.203 . S
Cd102 O104 2.411 . S
Cd102 O105 2.333 . S
Cd102 O106 2.352 . S
Cd102 O110 2.277 . S
Cd102 O111 2.356 . S
C103 O108 1.209 . S
C103 O110 1.226 . S
O104 Cd100 2.273 . S
O104 Cd102 2.411 . S
O104 C107 1.320 . S
O105 Cd102 2.333 . S
O105 C107 1.214 . S
O106 Cd102 2.352 . S
O106 C109 1.258 . S
C107 O104 1.320 . S
C107 O105 1.214 . S
O108 Cd100 2.277 . S
O108 C103 1.209 . S
C109 O106 1.258 . S
C109 O111 1.282 . S
O110 Cd102 2.277 . S
O110 C103 1.226 . S
O111 Cd102 2.356 . S
O111 C109 1.282 . S
C112 O113 1.306 . S
C112 O115 1.160 . S
O113 C112 1.306 . S
O113 Cd114 2.228 . S
Cd114 O113 2.228 . S
Cd114 O118 2.273 . S
Cd114 O122 2.277 . S
O115 C112 1.160 . S
O115 Cd116 2.203 . S
Cd116 O115 2.203 . S
Cd116 O118 2.411 . S
Cd116 O119 2.333 1_565 S
Cd116 O120 2.352 . S
Cd116 O124 2.277 . S
Cd116 O125 2.356 . S
C117 O122 1.209 . S
C117 O124 1.226 . S
O118 Cd114 2.273 . S
O118 Cd116 2.411 . S
O118 C121 1.320 1_565 S
O119 Cd116 2.333 1_545 S
O119 C121 1.214 . S
O120 Cd116 2.352 . S
O120 C123 1.258 . S
C121 O118 1.320 1_545 S
C121 O119 1.214 . S
O122 Cd114 2.277 . S
O122 C117 1.209 . S
C123 O120 1.258 . S
C123 O125 1.282 . S
O124 Cd116 2.277 . S
O124 C117 1.226 . S
O125 Cd116 2.356 . S
O125 C123 1.282 . S
C126 O127 1.306 . S
C126 O129 1.160 . S
O127 C126 1.306 . S
O127 Cd128 2.228 . S
Cd128 O127 2.228 . S
Cd128 O132 2.273 . S
Cd128 O136 2.277 . S
O129 C126 1.160 . S
O129 Cd130 2.203 . S
Cd130 O129 2.203 . S
Cd130 O132 2.411 . S
Cd130 O133 2.333 . S
Cd130 O134 2.352 . S
Cd130 O138 2.277 . S
Cd130 O139 2.356 . S
C131 O136 1.209 . S
C131 O138 1.226 . S
O132 Cd128 2.273 . S
O132 Cd130 2.411 . S
O132 C135 1.320 . S
O133 Cd130 2.333 . S
O133 C135 1.214 . S
O134 Cd130 2.352 . S
O134 C137 1.258 . S
C135 O132 1.320 . S
C135 O133 1.214 . S
O136 Cd128 2.277 . S
O136 C131 1.209 . S
C137 O134 1.258 . S
C137 O139 1.282 . S
O138 Cd130 2.277 . S
O138 C131 1.226 . S
O139 Cd130 2.356 . S
O139 C137 1.282 . S
C140 O141 1.306 . S
C140 O143 1.160 . S
O141 C140 1.306 . S
O141 Cd142 2.228 . S
Cd142 O141 2.228 . S
Cd142 O146 2.273 . S
Cd142 O150 2.277 . S
O143 C140 1.160 . S
O143 Cd144 2.203 . S
Cd144 O143 2.203 . S
Cd144 O146 2.411 . S
Cd144 O147 2.333 . S
Cd144 O148 2.352 . S
Cd144 O152 2.277 . S
Cd144 O153 2.356 . S
C145 O150 1.209 . S
C145 O152 1.226 . S
O146 Cd142 2.273 . S
O146 Cd144 2.411 . S
O146 C149 1.320 . S
O147 Cd144 2.333 . S
O147 C149 1.214 . S
O148 Cd144 2.352 . S
O148 C151 1.258 . S
C149 O146 1.320 . S
C149 O147 1.214 . S
O150 Cd142 2.277 . S
O150 C145 1.209 . S
C151 O148 1.258 . S
C151 O153 1.282 . S
O152 Cd144 2.277 . S
O152 C145 1.226 . S
O153 Cd144 2.356 . S
O153 C151 1.282 . S
C154 O155 1.306 . S
C154 O157 1.160 . S
O155 C154 1.306 . S
O155 Cd156 2.228 . S
Cd156 O155 2.228 . S
Cd156 O160 2.273 . S
Cd156 O164 2.277 . S
O157 C154 1.160 . S
O157 Cd158 2.203 . S
Cd158 O157 2.203 . S
Cd158 O160 2.411 . S
Cd158 O161 2.333 1_565 S
Cd158 O162 2.352 . S
Cd158 O166 2.277 . S
Cd158 O167 2.356 . S
C159 O164 1.209 . S
C159 O166 1.226 . S
O160 Cd156 2.273 . S
O160 Cd158 2.411 . S
O160 C163 1.320 1_565 S
O161 Cd158 2.333 1_545 S
O161 C163 1.214 . S
O162 Cd158 2.352 . S
O162 C165 1.258 . S
C163 O160 1.320 1_545 S
C163 O161 1.214 . S
O164 Cd156 2.277 . S
O164 C159 1.209 . S
C165 O162 1.258 . S
C165 O167 1.282 . S
O166 Cd158 2.277 . S
O166 C159 1.226 . S
O167 Cd158 2.356 . S
O167 C165 1.282 . S
C168 O169 1.306 . S
C168 O171 1.160 . S
O169 C168 1.306 . S
O169 Cd170 2.228 . S
Cd170 O169 2.228 . S
Cd170 O174 2.273 . S
Cd170 O178 2.277 . S
O171 C168 1.160 . S
O171 Cd172 2.203 . S
Cd172 O171 2.203 . S
Cd172 O174 2.411 . S
Cd172 O175 2.333 1_545 S
Cd172 O176 2.352 . S
Cd172 O180 2.277 . S
Cd172 O181 2.356 . S
C173 O178 1.209 . S
C173 O180 1.226 . S
O174 Cd170 2.273 . S
O174 Cd172 2.411 . S
O174 C177 1.320 1_545 S
O175 Cd172 2.333 1_565 S
O175 C177 1.214 . S
O176 Cd172 2.352 . S
O176 C179 1.258 . S
C177 O174 1.320 1_565 S
C177 O175 1.214 . S
O178 Cd170 2.277 . S
O178 C173 1.209 . S
C179 O176 1.258 . S
C179 O181 1.282 . S
O180 Cd172 2.277 . S
O180 C173 1.226 . S
O181 Cd172 2.356 . S
O181 C179 1.282 . S
C182 O183 1.306 . S
C182 O185 1.160 . S
O183 C182 1.306 . S
O183 Cd184 2.228 . S
Cd184 O183 2.228 . S
Cd184 O188 2.273 . S
Cd184 O192 2.277 . S
O185 C182 1.160 . S
O185 Cd186 2.203 . S
Cd186 O185 2.203 . S
Cd186 O188 2.411 . S
Cd186 O189 2.333 . S
Cd186 O190 2.352 . S
Cd186 O194 2.277 . S
Cd186 O195 2.356 . S
C187 O192 1.209 . S
C187 O194 1.226 . S
O188 Cd184 2.273 . S
O188 Cd186 2.411 . S
O188 C191 1.320 . S
O189 Cd186 2.333 . S
O189 C191 1.214 . S
O190 Cd186 2.352 . S
O190 C193 1.258 . S
C191 O188 1.320 . S
C191 O189 1.214 . S
O192 Cd184 2.277 . S
O192 C187 1.209 . S
C193 O190 1.258 . S
C193 O195 1.282 . S
O194 Cd186 2.277 . S
O194 C187 1.226 . S
O195 Cd186 2.356 . S
O195 C193 1.282 . S
C196 O197 1.306 . S
C196 O199 1.160 . S
O197 C196 1.306 . S
O197 Cd198 2.228 . S
Cd198 O197 2.228 . S
Cd198 O202 2.273 . S
Cd198 O206 2.277 . S
O199 C196 1.160 . S
O199 Cd200 2.203 . S
Cd200 O199 2.203 . S
Cd200 O202 2.411 . S
Cd200 O203 2.333 . S
Cd200 O204 2.352 . S
Cd200 O208 2.277 . S
Cd200 O209 2.356 . S
C201 O206 1.209 . S
C201 O208 1.226 . S
O202 Cd198 2.273 . S
O202 Cd200 2.411 . S
O202 C205 1.320 . S
O203 Cd200 2.333 . S
O203 C205 1.214 . S
O204 Cd200 2.352 . S
O204 C207 1.258 . S
C205 O202 1.320 . S
C205 O203 1.214 . S
O206 Cd198 2.277 . S
O206 C201 1.209 . S
C207 O204 1.258 . S
C207 O209 1.282 . S
O208 Cd200 2.277 . S
O208 C201 1.226 . S
O209 Cd200 2.356 . S
O209 C207 1.282 . S
C210 O211 1.306 . S
C210 O213 1.160 . S
O211 C210 1.306 . S
O211 Cd212 2.228 . S
Cd212 O211 2.228 . S
Cd212 O216 2.273 . S
Cd212 O220 2.277 . S
O213 C210 1.160 . S
O213 Cd214 2.203 . S
Cd214 O213 2.203 . S
Cd214 O216 2.411 . S
Cd214 O217 2.333 1_545 S
Cd214 O218 2.352 . S
Cd214 O222 2.277 . S
Cd214 O223 2.356 . S
C215 O220 1.209 . S
C215 O222 1.226 . S
O216 Cd212 2.273 . S
O216 Cd214 2.411 . S
O216 C219 1.320 1_545 S
O217 Cd214 2.333 1_565 S
O217 C219 1.214 . S
O218 Cd214 2.352 . S
O218 C221 1.258 . S
C219 O216 1.320 1_565 S
C219 O217 1.214 . S
O220 Cd212 2.277 . S
O220 C215 1.209 . S
C221 O218 1.258 . S
C221 O223 1.282 . S
O222 Cd214 2.277 . S
O222 C215 1.226 . S
O223 Cd214 2.356 . S
O223 C221 1.282 . S
C224 O225 1.306 . S
C224 O227 1.160 . S
O225 C224 1.306 . S
O225 Cd226 2.228 . S
Cd226 O225 2.228 . S
Cd226 O230 2.273 . S
Cd226 O234 2.277 . S
O227 C224 1.160 . S
O227 Cd228 2.203 . S
Cd228 O227 2.203 . S
Cd228 O230 2.411 . S
Cd228 O231 2.333 . S
Cd228 O232 2.352 . S
Cd228 O236 2.277 . S
Cd228 O237 2.356 . S
C229 O234 1.209 . S
C229 O236 1.226 . S
O230 Cd226 2.273 . S
O230 Cd228 2.411 . S
O230 C233 1.320 . S
O231 Cd228 2.333 . S
O231 C233 1.214 . S
O232 Cd228 2.352 . S
O232 C235 1.258 . S
C233 O230 1.320 . S
C233 O231 1.214 . S
O234 Cd226 2.277 . S
O234 C229 1.209 . S
C235 O232 1.258 . S
C235 O237 1.282 . S
O236 Cd228 2.277 . S
O236 C229 1.226 . S
O237 Cd228 2.356 . S
O237 C235 1.282 . S
C238 O239 1.306 . S
C238 O241 1.160 . S
O239 C238 1.306 . S
O239 Cd240 2.228 . S
Cd240 O239 2.228 . S
Cd240 O244 2.273 . S
Cd240 O248 2.277 . S
O241 C238 1.160 . S
O241 Cd242 2.203 . S
Cd242 O241 2.203 . S
Cd242 O244 2.411 . S
Cd242 O245 2.333 . S
Cd242 O246 2.352 . S
Cd242 O250 2.277 . S
Cd242 O251 2.356 . S
C243 O248 1.209 . S
C243 O250 1.226 . S
O244 Cd240 2.273 . S
O244 Cd242 2.411 . S
O244 C247 1.320 . S
O245 Cd242 2.333 . S
O245 C247 1.214 . S
O246 Cd242 2.352 . S
O246 C249 1.258 . S
C247 O244 1.320 . S
C247 O245 1.214 . S
O248 Cd240 2.277 . S
O248 C243 1.209 . S
C249 O246 1.258 . S
C249 O251 1.282 . S
O250 Cd242 2.277 . S
O250 C243 1.226 . S
O251 Cd242 2.356 . S
O251 C249 1.282 . S
C252 O253 1.306 . S
C252 O255 1.160 . S
O253 C252 1.306 . S
O253 Cd254 2.228 . S
Cd254 O253 2.228 . S
Cd254 O258 2.273 . S
Cd254 O262 2.277 . S
O255 C252 1.160 . S
O255 Cd256 2.203 . S
Cd256 O255 2.203 . S
Cd256 O258 2.411 . S
Cd256 O259 2.333 . S
Cd256 O260 2.352 . S
Cd256 O264 2.277 . S
Cd256 O265 2.356 . S
C257 O262 1.209 . S
C257 O264 1.226 . S
O258 Cd254 2.273 . S
O258 Cd256 2.411 . S
O258 C261 1.320 . S
O259 Cd256 2.333 . S
O259 C261 1.214 . S
O260 Cd256 2.352 . S
O260 C263 1.258 . S
C261 O258 1.320 . S
C261 O259 1.214 . S
O262 Cd254 2.277 . S
O262 C257 1.209 . S
C263 O260 1.258 . S
C263 O265 1.282 . S
O264 Cd256 2.277 . S
O264 C257 1.226 . S
O265 Cd256 2.356 . S
O265 C263 1.282 . S
C266 O267 1.306 . S
C266 O269 1.160 . S
O267 C266 1.306 . S
O267 Cd268 2.228 . S
Cd268 O267 2.228 . S
Cd268 O272 2.273 . S
Cd268 O276 2.277 . S
O269 C266 1.160 . S
O269 Cd270 2.203 . S
Cd270 O269 2.203 . S
Cd270 O272 2.411 . S
Cd270 O273 2.333 . S
Cd270 O274 2.352 . S
Cd270 O278 2.277 . S
Cd270 O279 2.356 . S
C271 O276 1.209 . S
C271 O278 1.226 . S
O272 Cd268 2.273 . S
O272 Cd270 2.411 . S
O272 C275 1.320 . S
O273 Cd270 2.333 . S
O273 C275 1.214 . S
O274 Cd270 2.352 . S
O274 C277 1.258 . S
C275 O272 1.320 . S
C275 O273 1.214 . S
O276 Cd268 2.277 . S
O276 C271 1.209 . S
C277 O274 1.258 . S
C277 O279 1.282 . S
O278 Cd270 2.277 . S
O278 C271 1.226 . S
O279 Cd270 2.356 . S
O279 C277 1.282 . S
C280 O281 1.306 . S
C280 O283 1.160 . S
O281 C280 1.306 . S
O281 Cd282 2.228 . S
Cd282 O281 2.228 . S
Cd282 O286 2.273 . S
Cd282 O290 2.277 . S
O283 C280 1.160 . S
O283 Cd284 2.203 . S
Cd284 O283 2.203 . S
Cd284 O286 2.411 . S
Cd284 O287 2.333 . S
Cd284 O288 2.352 . S
Cd284 O292 2.277 . S
Cd284 O293 2.356 . S
C285 O290 1.209 . S
C285 O292 1.226 . S
O286 Cd282 2.273 . S
O286 Cd284 2.411 . S
O286 C289 1.320 . S
O287 Cd284 2.333 . S
O287 C289 1.214 . S
O288 Cd284 2.352 . S
O288 C291 1.258 . S
C289 O286 1.320 . S
C289 O287 1.214 . S
O290 Cd282 2.277 . S
O290 C285 1.209 . S
C291 O288 1.258 . S
C291 O293 1.282 . S
O292 Cd284 2.277 . S
O292 C285 1.226 . S
O293 Cd284 2.356 . S
O293 C291 1.282 . S
C294 O295 1.306 . S
C294 O297 1.160 . S
O295 C294 1.306 . S
O295 Cd296 2.228 . S
Cd296 O295 2.228 . S
Cd296 O300 2.273 . S
Cd296 O304 2.277 . S
O297 C294 1.160 . S
O297 Cd298 2.203 . S
Cd298 O297 2.203 . S
Cd298 O300 2.411 . S
Cd298 O301 2.333 . S
Cd298 O302 2.352 . S
Cd298 O306 2.277 . S
Cd298 O307 2.356 . S
C299 O304 1.209 . S
C299 O306 1.226 . S
O300 Cd296 2.273 . S
O300 Cd298 2.411 . S
O300 C303 1.320 . S
O301 Cd298 2.333 . S
O301 C303 1.214 . S
O302 Cd298 2.352 . S
O302 C305 1.258 . S
C303 O300 1.320 . S
C303 O301 1.214 . S
O304 Cd296 2.277 . S
O304 C299 1.209 . S
C305 O302 1.258 . S
C305 O307 1.282 . S
O306 Cd298 2.277 . S
O306 C299 1.226 . S
O307 Cd298 2.356 . S
O307 C305 1.282 . S
C308 O309 1.306 . S
C308 O311 1.160 . S
O309 C308 1.306 . S
O309 Cd310 2.228 . S
Cd310 O309 2.228 . S
Cd310 O314 2.273 . S
Cd310 O318 2.277 . S
O311 C308 1.160 . S
O311 Cd312 2.203 . S
Cd312 O311 2.203 . S
Cd312 O314 2.411 . S
Cd312 O315 2.333 . S
Cd312 O316 2.352 . S
Cd312 O320 2.277 . S
Cd312 O321 2.356 . S
C313 O318 1.209 . S
C313 O320 1.226 . S
O314 Cd310 2.273 . S
O314 Cd312 2.411 . S
O314 C317 1.320 . S
O315 Cd312 2.333 . S
O315 C317 1.214 . S
O316 Cd312 2.352 . S
O316 C319 1.258 . S
C317 O314 1.320 . S
C317 O315 1.214 . S
O318 Cd310 2.277 . S
O318 C313 1.209 . S
C319 O316 1.258 . S
C319 O321 1.282 . S
O320 Cd312 2.277 . S
O320 C313 1.226 . S
O321 Cd312 2.356 . S
O321 C319 1.282 . S
C322 O323 1.306 . S
C322 O325 1.160 . S
O323 C322 1.306 . S
O323 Cd324 2.228 . S
Cd324 O323 2.228 . S
Cd324 O328 2.273 . S
Cd324 O332 2.277 . S
O325 C322 1.160 . S
O325 Cd326 2.203 . S
Cd326 O325 2.203 . S
Cd326 O328 2.411 . S
Cd326 O329 2.333 . S
Cd326 O330 2.352 . S
Cd326 O334 2.277 . S
Cd326 O335 2.356 . S
C327 O332 1.209 . S
C327 O334 1.226 . S
O328 Cd324 2.273 . S
O328 Cd326 2.411 . S
O328 C331 1.320 . S
O329 Cd326 2.333 . S
O329 C331 1.214 . S
O330 Cd326 2.352 . S
O330 C333 1.258 . S
C331 O328 1.320 . S
C331 O329 1.214 . S
O332 Cd324 2.277 . S
O332 C327 1.209 . S
C333 O330 1.258 . S
C333 O335 1.282 . S
O334 Cd326 2.277 . S
O334 C327 1.226 . S
O335 Cd326 2.356 . S
O335 C333 1.282 . S
C336 O337 1.306 . S
C336 O339 1.160 . S
O337 C336 1.306 . S
O337 Cd338 2.228 . S
Cd338 O337 2.228 . S
Cd338 O342 2.273 . S
Cd338 O346 2.277 . S
O339 C336 1.160 . S
O339 Cd340 2.203 . S
Cd340 O339 2.203 . S
Cd340 O342 2.411 . S
Cd340 O343 2.333 1_565 S
Cd340 O344 2.352 . S
Cd340 O348 2.277 . S
Cd340 O349 2.356 . S
C341 O346 1.209 . S
C341 O348 1.226 . S
O342 Cd338 2.273 . S
O342 Cd340 2.411 . S
O342 C345 1.320 1_565 S
O343 Cd340 2.333 1_545 S
O343 C345 1.214 . S
O344 Cd340 2.352 . S
O344 C347 1.258 . S
C345 O342 1.320 1_545 S
C345 O343 1.214 . S
O346 Cd338 2.277 . S
O346 C341 1.209 . S
C347 O344 1.258 . S
C347 O349 1.282 . S
O348 Cd340 2.277 . S
O348 C341 1.226 . S
O349 Cd340 2.356 . S
O349 C347 1.282 . S
C350 O351 1.306 . S
C350 O353 1.160 . S
O351 C350 1.306 . S
O351 Cd352 2.228 . S
Cd352 O351 2.228 . S
Cd352 O356 2.273 . S
Cd352 O360 2.277 . S
O353 C350 1.160 . S
O353 Cd354 2.203 . S
Cd354 O353 2.203 . S
Cd354 O356 2.411 . S
Cd354 O357 2.333 . S
Cd354 O358 2.352 . S
Cd354 O362 2.277 . S
Cd354 O363 2.356 . S
C355 O360 1.209 . S
C355 O362 1.226 . S
O356 Cd352 2.273 . S
O356 Cd354 2.411 . S
O356 C359 1.320 . S
O357 Cd354 2.333 . S
O357 C359 1.214 . S
O358 Cd354 2.352 . S
O358 C361 1.258 . S
C359 O356 1.320 . S
C359 O357 1.214 . S
O360 Cd352 2.277 . S
O360 C355 1.209 . S
C361 O358 1.258 . S
C361 O363 1.282 . S
O362 Cd354 2.277 . S
O362 C355 1.226 . S
O363 Cd354 2.356 . S
O363 C361 1.282 . S
C364 O365 1.306 . S
C364 O367 1.160 . S
O365 C364 1.306 . S
O365 Cd366 2.228 . S
Cd366 O365 2.228 . S
Cd366 O370 2.273 . S
Cd366 O374 2.277 . S
O367 C364 1.160 . S
O367 Cd368 2.203 . S
Cd368 O367 2.203 . S
Cd368 O370 2.411 . S
Cd368 O371 2.333 . S
Cd368 O372 2.352 . S
Cd368 O376 2.277 . S
Cd368 O377 2.356 . S
C369 O374 1.209 . S
C369 O376 1.226 . S
O370 Cd366 2.273 . S
O370 Cd368 2.411 . S
O370 C373 1.320 . S
O371 Cd368 2.333 . S
O371 C373 1.214 . S
O372 Cd368 2.352 . S
O372 C375 1.258 . S
C373 O370 1.320 . S
C373 O371 1.214 . S
O374 Cd366 2.277 . S
O374 C369 1.209 . S
C375 O372 1.258 . S
C375 O377 1.282 . S
O376 Cd368 2.277 . S
O376 C369 1.226 . S
O377 Cd368 2.356 . S
O377 C375 1.282 . S
C378 O379 1.306 . S
C378 O381 1.160 . S
O379 C378 1.306 . S
O379 Cd380 2.228 . S
Cd380 O379 2.228 . S
Cd380 O384 2.273 . S
Cd380 O388 2.277 . S
O381 C378 1.160 . S
O381 Cd382 2.203 . S
Cd382 O381 2.203 . S
Cd382 O384 2.411 . S
Cd382 O385 2.333 1_565 S
Cd382 O386 2.352 . S
Cd382 O390 2.277 . S
Cd382 O391 2.356 . S
C383 O388 1.209 . S
C383 O390 1.226 . S
O384 Cd380 2.273 . S
O384 Cd382 2.411 . S
O384 C387 1.320 1_565 S
O385 Cd382 2.333 1_545 S
O385 C387 1.214 . S
O386 Cd382 2.352 . S
O386 C389 1.258 . S
C387 O384 1.320 1_545 S
C387 O385 1.214 . S
O388 Cd380 2.277 . S
O388 C383 1.209 . S
C389 O386 1.258 . S
C389 O391 1.282 . S
O390 Cd382 2.277 . S
O390 C383 1.226 . S
O391 Cd382 2.356 . S
O391 C389 1.282 . S
C392 O393 1.306 . S
C392 O395 1.160 . S
O393 C392 1.306 . S
O393 Cd394 2.228 . S
Cd394 O393 2.228 . S
Cd394 O398 2.273 . S
Cd394 O402 2.277 . S
O395 C392 1.160 . S
O395 Cd396 2.203 . S
Cd396 O395 2.203 . S
Cd396 O398 2.411 . S
Cd396 O399 2.333 1_545 S
Cd396 O400 2.352 . S
Cd396 O404 2.277 . S
Cd396 O405 2.356 . S
C397 O402 1.209 . S
C397 O404 1.226 . S
O398 Cd394 2.273 . S
O398 Cd396 2.411 . S
O398 C401 1.320 1_545 S
O399 Cd396 2.333 1_565 S
O399 C401 1.214 . S
O400 Cd396 2.352 . S
O400 C403 1.258 . S
C401 O398 1.320 1_565 S
C401 O399 1.214 . S
O402 Cd394 2.277 . S
O402 C397 1.209 . S
C403 O400 1.258 . S
C403 O405 1.282 . S
O404 Cd396 2.277 . S
O404 C397 1.226 . S
O405 Cd396 2.356 . S
O405 C403 1.282 . S
C406 O407 1.306 . S
C406 O409 1.160 . S
O407 C406 1.306 . S
O407 Cd408 2.228 . S
Cd408 O407 2.228 . S
Cd408 O412 2.273 . S
Cd408 O416 2.277 . S
O409 C406 1.160 . S
O409 Cd410 2.203 . S
Cd410 O409 2.203 . S
Cd410 O412 2.411 . S
Cd410 O413 2.333 . S
Cd410 O414 2.352 . S
Cd410 O418 2.277 . S
Cd410 O419 2.356 . S
C411 O416 1.209 . S
C411 O418 1.226 . S
O412 Cd408 2.273 . S
O412 Cd410 2.411 . S
O412 C415 1.320 . S
O413 Cd410 2.333 . S
O413 C415 1.214 . S
O414 Cd410 2.352 . S
O414 C417 1.258 . S
C415 O412 1.320 . S
C415 O413 1.214 . S
O416 Cd408 2.277 . S
O416 C411 1.209 . S
C417 O414 1.258 . S
C417 O419 1.282 . S
O418 Cd410 2.277 . S
O418 C411 1.226 . S
O419 Cd410 2.356 . S
O419 C417 1.282 . S
C420 O421 1.306 . S
C420 O423 1.160 . S
O421 C420 1.306 . S
O421 Cd422 2.228 . S
Cd422 O421 2.228 . S
Cd422 O426 2.273 . S
Cd422 O430 2.277 . S
O423 C420 1.160 . S
O423 Cd424 2.203 . S
Cd424 O423 2.203 . S
Cd424 O426 2.411 . S
Cd424 O427 2.333 . S
Cd424 O428 2.352 . S
Cd424 O432 2.277 . S
Cd424 O433 2.356 . S
C425 O430 1.209 . S
C425 O432 1.226 . S
O426 Cd422 2.273 . S
O426 Cd424 2.411 . S
O426 C429 1.320 . S
O427 Cd424 2.333 . S
O427 C429 1.214 . S
O428 Cd424 2.352 . S
O428 C431 1.258 . S
C429 O426 1.320 . S
C429 O427 1.214 . S
O430 Cd422 2.277 . S
O430 C425 1.209 . S
C431 O428 1.258 . S
C431 O433 1.282 . S
O432 Cd424 2.277 . S
O432 C425 1.226 . S
O433 Cd424 2.356 . S
O433 C431 1.282 . S
C434 O435 1.306 . S
C434 O437 1.160 . S
O435 C434 1.306 . S
O435 Cd436 2.228 . S
Cd436 O435 2.228 . S
Cd436 O440 2.273 . S
Cd436 O444 2.277 . S
O437 C434 1.160 . S
O437 Cd438 2.203 . S
Cd438 O437 2.203 . S
Cd438 O440 2.411 . S
Cd438 O441 2.333 1_545 S
Cd438 O442 2.352 . S
Cd438 O446 2.277 . S
Cd438 O447 2.356 . S
C439 O444 1.209 . S
C439 O446 1.226 . S
O440 Cd436 2.273 . S
O440 Cd438 2.411 . S
O440 C443 1.320 1_545 S
O441 Cd438 2.333 1_565 S
O441 C443 1.214 . S
O442 Cd438 2.352 . S
O442 C445 1.258 . S
C443 O440 1.320 1_565 S
C443 O441 1.214 . S
O444 Cd436 2.277 . S
O444 C439 1.209 . S
C445 O442 1.258 . S
C445 O447 1.282 . S
O446 Cd438 2.277 . S
O446 C439 1.226 . S
O447 Cd438 2.356 . S
O447 C445 1.282 . S
H448 C454 0.930 . S
H449 C457 0.930 . S
H450 C458 0.930 . S
H451 C459 0.930 . S
H452 C462 0.930 . S
H453 C463 0.930 . S
C454 H448 0.930 . S
C454 C455 1.355 . S
C454 C456 1.415 . S
C455 C454 1.355 . S
C455 C457 1.419 . S
C456 C454 1.415 . S
C456 C461 1.425 . S
C456 C463 1.409 . S
C457 H449 0.930 . S
C457 C455 1.419 . S
C457 C458 1.362 . S
C458 H450 0.930 . S
C458 C457 1.362 . S
C458 C461 1.409 . S
C459 H451 0.930 . S
C459 C460 1.355 . S
C459 C461 1.415 . S
C460 C459 1.355 . S
C460 C462 1.419 . S
C461 C456 1.425 . S
C461 C458 1.409 . S
C461 C459 1.415 . S
C462 H452 0.930 . S
C462 C460 1.419 . S
C462 C463 1.362 . S
C463 H453 0.930 . S
C463 C456 1.409 . S
C463 C462 1.362 . S
H464 C470 0.930 . S
H465 C473 0.930 . S
H466 C474 0.930 . S
H467 C475 0.930 . S
H468 C478 0.930 . S
H469 C479 0.930 . S
C470 H464 0.930 . S
C470 C471 1.355 . S
C470 C472 1.415 . S
C471 C470 1.355 . S
C471 C473 1.419 . S
C472 C470 1.415 . S
C472 C477 1.425 . S
C472 C479 1.409 . S
C473 H465 0.930 . S
C473 C471 1.419 . S
C473 C474 1.362 . S
C474 H466 0.930 . S
C474 C473 1.362 . S
C474 C477 1.409 . S
C475 H467 0.930 . S
C475 C476 1.355 . S
C475 C477 1.415 . S
C476 C475 1.355 . S
C476 C478 1.419 . S
C477 C472 1.425 . S
C477 C474 1.409 . S
C477 C475 1.415 . S
C478 H468 0.930 . S
C478 C476 1.419 . S
C478 C479 1.362 . S
C479 H469 0.930 . S
C479 C472 1.409 . S
C479 C478 1.362 . S
H480 C486 0.930 . S
H481 C489 0.930 . S
H482 C490 0.930 . S
H483 C491 0.930 . S
H484 C494 0.930 . S
H485 C495 0.930 . S
C486 H480 0.930 . S
C486 C487 1.355 . S
C486 C488 1.415 . S
C487 C486 1.355 . S
C487 C489 1.419 . S
C488 C486 1.415 . S
C488 C493 1.425 . S
C488 C495 1.409 . S
C489 H481 0.930 . S
C489 C487 1.419 . S
C489 C490 1.362 . S
C490 H482 0.930 . S
C490 C489 1.362 . S
C490 C493 1.409 . S
C491 H483 0.930 . S
C491 C492 1.355 . S
C491 C493 1.415 . S
C492 C491 1.355 . S
C492 C494 1.419 . S
C493 C488 1.425 . S
C493 C490 1.409 . S
C493 C491 1.415 . S
C494 H484 0.930 . S
C494 C492 1.419 . S
C494 C495 1.362 . S
C495 H485 0.930 . S
C495 C488 1.409 . S
C495 C494 1.362 . S
H496 C502 0.930 . S
H497 C505 0.930 . S
H498 C506 0.930 . S
H499 C507 0.930 . S
H500 C510 0.930 . S
H501 C511 0.930 . S
C502 H496 0.930 . S
C502 C503 1.355 . S
C502 C504 1.415 . S
C503 C502 1.355 . S
C503 C505 1.419 . S
C504 C502 1.415 . S
C504 C509 1.425 . S
C504 C511 1.409 . S
C505 H497 0.930 . S
C505 C503 1.419 . S
C505 C506 1.362 . S
C506 H498 0.930 . S
C506 C505 1.362 . S
C506 C509 1.409 . S
C507 H499 0.930 . S
C507 C508 1.355 . S
C507 C509 1.415 . S
C508 C507 1.355 . S
C508 C510 1.419 . S
C509 C504 1.425 . S
C509 C506 1.409 . S
C509 C507 1.415 . S
C510 H500 0.930 . S
C510 C508 1.419 . S
C510 C511 1.362 . S
C511 H501 0.930 . S
C511 C504 1.409 . S
C511 C510 1.362 . S
H512 C518 0.930 . S
H513 C521 0.930 . S
H514 C522 0.930 . S
H515 C523 0.930 . S
H516 C526 0.930 . S
H517 C527 0.930 . S
C518 H512 0.930 . S
C518 C519 1.355 . S
C518 C520 1.415 . S
C519 C518 1.355 . S
C519 C521 1.419 . S
C520 C518 1.415 . S
C520 C525 1.425 . S
C520 C527 1.409 . S
C521 H513 0.930 . S
C521 C519 1.419 . S
C521 C522 1.362 . S
C522 H514 0.930 . S
C522 C521 1.362 . S
C522 C525 1.409 . S
C523 H515 0.930 . S
C523 C524 1.355 . S
C523 C525 1.415 . S
C524 C523 1.355 . S
C524 C526 1.419 . S
C525 C520 1.425 . S
C525 C522 1.409 . S
C525 C523 1.415 . S
C526 H516 0.930 . S
C526 C524 1.419 . S
C526 C527 1.362 . S
C527 H517 0.930 . S
C527 C520 1.409 . S
C527 C526 1.362 . S
H528 C534 0.930 . S
H529 C537 0.930 . S
H530 C538 0.930 . S
H531 C539 0.930 . S
H532 C542 0.930 . S
H533 C543 0.930 . S
C534 H528 0.930 . S
C534 C535 1.355 . S
C534 C536 1.415 . S
C535 C534 1.355 . S
C535 C537 1.419 . S
C536 C534 1.415 . S
C536 C541 1.425 . S
C536 C543 1.409 . S
C537 H529 0.930 . S
C537 C535 1.419 . S
C537 C538 1.362 . S
C538 H530 0.930 . S
C538 C537 1.362 . S
C538 C541 1.409 . S
C539 H531 0.930 . S
C539 C540 1.355 . S
C539 C541 1.415 . S
C540 C539 1.355 . S
C540 C542 1.419 . S
C541 C536 1.425 . S
C541 C538 1.409 . S
C541 C539 1.415 . S
C542 H532 0.930 . S
C542 C540 1.419 . S
C542 C543 1.362 . S
C543 H533 0.930 . S
C543 C536 1.409 . S
C543 C542 1.362 . S
H544 C550 0.930 . S
H545 C553 0.930 . S
H546 C554 0.930 . S
H547 C555 0.930 . S
H548 C558 0.930 . S
H549 C559 0.930 . S
C550 H544 0.930 . S
C550 C551 1.355 . S
C550 C552 1.415 . S
C551 C550 1.355 . S
C551 C553 1.419 . S
C552 C550 1.415 . S
C552 C557 1.425 . S
C552 C559 1.409 . S
C553 H545 0.930 . S
C553 C551 1.419 . S
C553 C554 1.362 . S
C554 H546 0.930 . S
C554 C553 1.362 . S
C554 C557 1.409 . S
C555 H547 0.930 . S
C555 C556 1.355 . S
C555 C557 1.415 . S
C556 C555 1.355 . S
C556 C558 1.419 . S
C557 C552 1.425 . S
C557 C554 1.409 . S
C557 C555 1.415 . S
C558 H548 0.930 . S
C558 C556 1.419 . S
C558 C559 1.362 . S
C559 H549 0.930 . S
C559 C552 1.409 . S
C559 C558 1.362 . S
H560 C566 0.930 . S
H561 C569 0.930 . S
H562 C570 0.930 . S
H563 C571 0.930 . S
H564 C574 0.930 . S
H565 C575 0.930 . S
C566 H560 0.930 . S
C566 C567 1.355 . S
C566 C568 1.415 . S
C567 C566 1.355 . S
C567 C569 1.419 . S
C568 C566 1.415 . S
C568 C573 1.425 . S
C568 C575 1.409 . S
C569 H561 0.930 . S
C569 C567 1.419 . S
C569 C570 1.362 . S
C570 H562 0.930 . S
C570 C569 1.362 . S
C570 C573 1.409 . S
C571 H563 0.930 . S
C571 C572 1.355 . S
C571 C573 1.415 . S
C572 C571 1.355 . S
C572 C574 1.419 . S
C573 C568 1.425 . S
C573 C570 1.409 . S
C573 C571 1.415 . S
C574 H564 0.930 . S
C574 C572 1.419 . S
C574 C575 1.362 . S
C575 H565 0.930 . S
C575 C568 1.409 . S
C575 C574 1.362 . S
H576 C582 0.930 . S
H577 C585 0.930 . S
H578 C586 0.930 . S
H579 C587 0.930 . S
H580 C590 0.930 . S
H581 C591 0.930 . S
C582 H576 0.930 . S
C582 C583 1.355 . S
C582 C584 1.415 . S
C583 C582 1.355 . S
C583 C585 1.419 . S
C584 C582 1.415 . S
C584 C589 1.425 . S
C584 C591 1.409 . S
C585 H577 0.930 . S
C585 C583 1.419 . S
C585 C586 1.362 . S
C586 H578 0.930 . S
C586 C585 1.362 . S
C586 C589 1.409 . S
C587 H579 0.930 . S
C587 C588 1.355 . S
C587 C589 1.415 . S
C588 C587 1.355 . S
C588 C590 1.419 . S
C589 C584 1.425 . S
C589 C586 1.409 . S
C589 C587 1.415 . S
C590 H580 0.930 . S
C590 C588 1.419 . S
C590 C591 1.362 . S
C591 H581 0.930 . S
C591 C584 1.409 . S
C591 C590 1.362 . S
H592 C598 0.930 . S
H593 C601 0.930 . S
H594 C602 0.930 . S
H595 C603 0.930 . S
H596 C606 0.930 . S
H597 C607 0.930 . S
C598 H592 0.930 . S
C598 C599 1.355 . S
C598 C600 1.415 . S
C599 C598 1.355 . S
C599 C601 1.419 . S
C600 C598 1.415 . S
C600 C605 1.425 . S
C600 C607 1.409 . S
C601 H593 0.930 . S
C601 C599 1.419 . S
C601 C602 1.362 . S
C602 H594 0.930 . S
C602 C601 1.362 . S
C602 C605 1.409 . S
C603 H595 0.930 . S
C603 C604 1.355 . S
C603 C605 1.415 . S
C604 C603 1.355 . S
C604 C606 1.419 . S
C605 C600 1.425 . S
C605 C602 1.409 . S
C605 C603 1.415 . S
C606 H596 0.930 . S
C606 C604 1.419 . S
C606 C607 1.362 . S
C607 H597 0.930 . S
C607 C600 1.409 . S
C607 C606 1.362 . S
H608 C614 0.930 . S
H609 C617 0.930 . S
H610 C618 0.930 . S
H611 C619 0.930 . S
H612 C622 0.930 . S
H613 C623 0.930 . S
C614 H608 0.930 . S
C614 C615 1.355 . S
C614 C616 1.415 . S
C615 C614 1.355 . S
C615 C617 1.419 . S
C616 C614 1.415 . S
C616 C621 1.425 . S
C616 C623 1.409 . S
C617 H609 0.930 . S
C617 C615 1.419 . S
C617 C618 1.362 . S
C618 H610 0.930 . S
C618 C617 1.362 . S
C618 C621 1.409 . S
C619 H611 0.930 . S
C619 C620 1.355 . S
C619 C621 1.415 . S
C620 C619 1.355 . S
C620 C622 1.419 . S
C621 C616 1.425 . S
C621 C618 1.409 . S
C621 C619 1.415 . S
C622 H612 0.930 . S
C622 C620 1.419 . S
C622 C623 1.362 . S
C623 H613 0.930 . S
C623 C616 1.409 . S
C623 C622 1.362 . S
H624 C630 0.930 . S
H625 C633 0.930 . S
H626 C634 0.930 . S
H627 C635 0.930 . S
H628 C638 0.930 . S
H629 C639 0.930 . S
C630 H624 0.930 . S
C630 C631 1.355 . S
C630 C632 1.415 . S
C631 C630 1.355 . S
C631 C633 1.419 . S
C632 C630 1.415 . S
C632 C637 1.425 . S
C632 C639 1.409 . S
C633 H625 0.930 . S
C633 C631 1.419 . S
C633 C634 1.362 . S
C634 H626 0.930 . S
C634 C633 1.362 . S
C634 C637 1.409 . S
C635 H627 0.930 . S
C635 C636 1.355 . S
C635 C637 1.415 . S
C636 C635 1.355 . S
C636 C638 1.419 . S
C637 C632 1.425 . S
C637 C634 1.409 . S
C637 C635 1.415 . S
C638 H628 0.930 . S
C638 C636 1.419 . S
C638 C639 1.362 . S
C639 H629 0.930 . S
C639 C632 1.409 . S
C639 C638 1.362 . S
H640 C646 0.930 . S
H641 C649 0.930 . S
H642 C650 0.930 . S
H643 C651 0.930 . S
H644 C654 0.930 . S
H645 C655 0.930 . S
C646 H640 0.930 . S
C646 C647 1.355 . S
C646 C648 1.415 . S
C647 C646 1.355 . S
C647 C649 1.419 . S
C648 C646 1.415 . S
C648 C653 1.425 . S
C648 C655 1.409 . S
C649 H641 0.930 . S
C649 C647 1.419 . S
C649 C650 1.362 . S
C650 H642 0.930 . S
C650 C649 1.362 . S
C650 C653 1.409 . S
C651 H643 0.930 . S
C651 C652 1.355 . S
C651 C653 1.415 . S
C652 C651 1.355 . S
C652 C654 1.419 . S
C653 C648 1.425 . S
C653 C650 1.409 . S
C653 C651 1.415 . S
C654 H644 0.930 . S
C654 C652 1.419 . S
C654 C655 1.362 . S
C655 H645 0.930 . S
C655 C648 1.409 . S
C655 C654 1.362 . S
H656 C662 0.930 . S
H657 C665 0.930 . S
H658 C666 0.930 . S
H659 C667 0.930 . S
H660 C670 0.930 . S
H661 C671 0.930 . S
C662 H656 0.930 . S
C662 C663 1.355 . S
C662 C664 1.415 . S
C663 C662 1.355 . S
C663 C665 1.419 . S
C664 C662 1.415 . S
C664 C669 1.425 . S
C664 C671 1.409 . S
C665 H657 0.930 . S
C665 C663 1.419 . S
C665 C666 1.362 . S
C666 H658 0.930 . S
C666 C665 1.362 . S
C666 C669 1.409 . S
C667 H659 0.930 . S
C667 C668 1.355 . S
C667 C669 1.415 . S
C668 C667 1.355 . S
C668 C670 1.419 . S
C669 C664 1.425 . S
C669 C666 1.409 . S
C669 C667 1.415 . S
C670 H660 0.930 . S
C670 C668 1.419 . S
C670 C671 1.362 . S
C671 H661 0.930 . S
C671 C664 1.409 . S
C671 C670 1.362 . S
H672 C678 0.930 . S
H673 C681 0.930 . S
H674 C682 0.930 . S
H675 C683 0.930 . S
H676 C686 0.930 . S
H677 C687 0.930 . S
C678 H672 0.930 . S
C678 C679 1.355 . S
C678 C680 1.415 . S
C679 C678 1.355 . S
C679 C681 1.419 . S
C680 C678 1.415 . S
C680 C685 1.425 . S
C680 C687 1.409 . S
C681 H673 0.930 . S
C681 C679 1.419 . S
C681 C682 1.362 . S
C682 H674 0.930 . S
C682 C681 1.362 . S
C682 C685 1.409 . S
C683 H675 0.930 . S
C683 C684 1.355 . S
C683 C685 1.415 . S
C684 C683 1.355 . S
C684 C686 1.419 . S
C685 C680 1.425 . S
C685 C682 1.409 . S
C685 C683 1.415 . S
C686 H676 0.930 . S
C686 C684 1.419 . S
C686 C687 1.362 . S
C687 H677 0.930 . S
C687 C680 1.409 . S
C687 C686 1.362 . S
H688 C694 0.930 . S
H689 C697 0.930 . S
H690 C698 0.930 . S
H691 C699 0.930 . S
H692 C702 0.930 . S
H693 C703 0.930 . S
C694 H688 0.930 . S
C694 C695 1.355 . S
C694 C696 1.415 . S
C695 C694 1.355 . S
C695 C697 1.419 . S
C696 C694 1.415 . S
C696 C701 1.425 . S
C696 C703 1.409 . S
C697 H689 0.930 . S
C697 C695 1.419 . S
C697 C698 1.362 . S
C698 H690 0.930 . S
C698 C697 1.362 . S
C698 C701 1.409 . S
C699 H691 0.930 . S
C699 C700 1.355 . S
C699 C701 1.415 . S
C700 C699 1.355 . S
C700 C702 1.419 . S
C701 C696 1.425 . S
C701 C698 1.409 . S
C701 C699 1.415 . S
C702 H692 0.930 . S
C702 C700 1.419 . S
C702 C703 1.362 . S
C703 H693 0.930 . S
C703 C696 1.409 . S
C703 C702 1.362 . S
H704 C710 0.930 . S
H705 C713 0.930 . S
H706 C714 0.930 . S
H707 C715 0.930 . S
H708 C718 0.930 . S
H709 C719 0.930 . S
C710 H704 0.930 . S
C710 C711 1.355 . S
C710 C712 1.415 1_556 S
C711 C710 1.355 . S
C711 C713 1.419 1_655 S
C712 C710 1.415 1_554 S
C712 C717 1.425 1_654 S
C712 C719 1.409 . S
C713 H705 0.930 . S
C713 C711 1.419 1_455 S
C713 C714 1.362 . S
C714 H706 0.930 . S
C714 C713 1.362 . S
C714 C717 1.409 . S
C715 H707 0.930 . S
C715 C716 1.355 . S
C715 C717 1.415 1_554 S
C716 C715 1.355 . S
C716 C718 1.419 1_455 S
C717 C712 1.425 1_456 S
C717 C714 1.409 . S
C717 C715 1.415 1_556 S
C718 H708 0.930 . S
C718 C716 1.419 1_655 S
C718 C719 1.362 . S
C719 H709 0.930 . S
C719 C712 1.409 . S
C719 C718 1.362 . S
H720 C726 0.930 . S
H721 C729 0.930 . S
H722 C730 0.930 . S
H723 C731 0.930 . S
H724 C734 0.930 . S
H725 C735 0.930 . S
C726 H720 0.930 . S
C726 C727 1.355 . S
C726 C728 1.420 . S
C727 C726 1.355 . S
C727 C729 1.419 . S
C728 C726 1.420 . S
C728 C733 1.425 1_556 S
C728 C735 1.404 1_556 S
C729 H721 0.930 . S
C729 C727 1.419 . S
C729 C730 1.362 . S
C730 H722 0.930 . S
C730 C729 1.362 . S
C730 C733 1.404 1_556 S
C731 H723 0.930 . S
C731 C732 1.355 . S
C731 C733 1.420 . S
C732 C731 1.355 . S
C732 C734 1.419 . S
C733 C728 1.425 1_554 S
C733 C730 1.404 1_554 S
C733 C731 1.420 . S
C734 H724 0.930 . S
C734 C732 1.419 . S
C734 C735 1.362 . S
C735 H725 0.930 . S
C735 C728 1.404 1_554 S
C735 C734 1.362 . S
H736 C742 0.930 . S
H737 C745 0.930 . S
H738 C746 0.930 . S
H739 C747 0.930 . S
H740 C750 0.930 . S
H741 C751 0.930 . S
C742 H736 0.930 . S
C742 C743 1.355 . S
C742 C744 1.415 . S
C743 C742 1.355 . S
C743 C745 1.419 1_455 S
C744 C742 1.415 . S
C744 C749 1.425 1_455 S
C744 C751 1.409 . S
C745 H737 0.930 . S
C745 C743 1.419 1_655 S
C745 C746 1.362 . S
C746 H738 0.930 . S
C746 C745 1.362 . S
C746 C749 1.409 . S
C747 H739 0.930 . S
C747 C748 1.355 . S
C747 C749 1.415 . S
C748 C747 1.355 . S
C748 C750 1.419 1_655 S
C749 C744 1.425 1_655 S
C749 C746 1.409 . S
C749 C747 1.415 . S
C750 H740 0.930 . S
C750 C748 1.419 1_455 S
C750 C751 1.362 . S
C751 H741 0.930 . S
C751 C744 1.409 . S
C751 C750 1.362 . S
H752 C758 0.930 . S
H753 C761 0.930 . S
H754 C762 0.930 . S
H755 C763 0.930 . S
H756 C766 0.930 . S
H757 C767 0.930 . S
C758 H752 0.930 . S
C758 C759 1.355 . S
C758 C760 1.415 . S
C759 C758 1.355 . S
C759 C761 1.419 . S
C760 C758 1.415 . S
C760 C765 1.425 . S
C760 C767 1.409 . S
C761 H753 0.930 . S
C761 C759 1.419 . S
C761 C762 1.362 . S
C762 H754 0.930 . S
C762 C761 1.362 . S
C762 C765 1.409 . S
C763 H755 0.930 . S
C763 C764 1.355 . S
C763 C765 1.415 . S
C764 C763 1.355 . S
C764 C766 1.419 . S
C765 C760 1.425 . S
C765 C762 1.409 . S
C765 C763 1.415 . S
C766 H756 0.930 . S
C766 C764 1.419 . S
C766 C767 1.362 . S
C767 H757 0.930 . S
C767 C760 1.409 . S
C767 C766 1.362 . S
H768 C774 0.930 . S
H769 C777 0.930 . S
H770 C778 0.930 . S
H771 C779 0.930 . S
H772 C782 0.930 . S
H773 C783 0.930 . S
C774 H768 0.930 . S
C774 C775 1.355 . S
C774 C776 1.415 1_556 S
C775 C774 1.355 . S
C775 C777 1.419 . S
C776 C774 1.415 1_554 S
C776 C781 1.425 1_554 S
C776 C783 1.409 . S
C777 H769 0.930 . S
C777 C775 1.419 . S
C777 C778 1.362 . S
C778 H770 0.930 . S
C778 C777 1.362 . S
C778 C781 1.409 . S
C779 H771 0.930 . S
C779 C780 1.355 . S
C779 C781 1.415 1_554 S
C780 C779 1.355 . S
C780 C782 1.419 . S
C781 C776 1.425 1_556 S
C781 C778 1.409 . S
C781 C779 1.415 1_556 S
C782 H772 0.930 . S
C782 C780 1.419 . S
C782 C783 1.362 . S
C783 H773 0.930 . S
C783 C776 1.409 . S
C783 C782 1.362 . S
H784 C790 0.933 . S
H785 C793 0.930 . S
H786 C794 0.930 . S
H787 C795 0.933 . S
H788 C798 0.930 . S
H789 C799 0.930 . S
C790 H784 0.933 . S
C790 C791 1.350 1_455 S
C790 C792 1.416 . S
C791 C790 1.350 1_655 S
C791 C793 1.419 . S
C792 C790 1.416 . S
C792 C797 1.425 1_455 S
C792 C799 1.409 . S
C793 H785 0.930 . S
C793 C791 1.419 . S
C793 C794 1.362 . S
C794 H786 0.930 . S
C794 C793 1.362 . S
C794 C797 1.409 . S
C795 H787 0.933 . S
C795 C796 1.350 1_655 S
C795 C797 1.416 . S
C796 C795 1.350 1_455 S
C796 C798 1.419 . S
C797 C792 1.425 1_655 S
C797 C794 1.409 . S
C797 C795 1.416 . S
C798 H788 0.930 . S
C798 C796 1.419 . S
C798 C799 1.362 . S
C799 H789 0.930 . S
C799 C792 1.409 . S
C799 C798 1.362 . S
H800 C806 0.930 . S
H801 C809 0.930 . S
H802 C810 0.930 . S
H803 C811 0.930 . S
H804 C814 0.930 . S
H805 C815 0.930 . S
C806 H800 0.930 . S
C806 C807 1.355 . S
C806 C808 1.415 . S
C807 C806 1.355 . S
C807 C809 1.419 . S
C808 C806 1.415 . S
C808 C813 1.425 . S
C808 C815 1.409 . S
C809 H801 0.930 . S
C809 C807 1.419 . S
C809 C810 1.362 . S
C810 H802 0.930 . S
C810 C809 1.362 . S
C810 C813 1.409 . S
C811 H803 0.930 . S
C811 C812 1.355 . S
C811 C813 1.415 . S
C812 C811 1.355 . S
C812 C814 1.419 . S
C813 C808 1.425 . S
C813 C810 1.409 . S
C813 C811 1.415 . S
C814 H804 0.930 . S
C814 C812 1.419 . S
C814 C815 1.362 . S
C815 H805 0.930 . S
C815 C808 1.409 . S
C815 C814 1.362 . S
H816 C822 0.930 . S
H817 C825 0.930 . S
H818 C826 0.930 . S
H819 C827 0.930 . S
H820 C830 0.930 . S
H821 C831 0.930 . S
C822 H816 0.930 . S
C822 C823 1.355 . S
C822 C824 1.415 1_545 S
C823 C822 1.355 . S
C823 C825 1.419 1_655 S
C824 C822 1.415 1_565 S
C824 C829 1.425 1_665 S
C824 C831 1.409 . S
C825 H817 0.930 . S
C825 C823 1.419 1_455 S
C825 C826 1.362 . S
C826 H818 0.930 . S
C826 C825 1.362 . S
C826 C829 1.409 . S
C827 H819 0.930 . S
C827 C828 1.355 . S
C827 C829 1.415 1_565 S
C828 C827 1.355 . S
C828 C830 1.419 1_455 S
C829 C824 1.425 1_445 S
C829 C826 1.409 . S
C829 C827 1.415 1_545 S
C830 H820 0.930 . S
C830 C828 1.419 1_655 S
C830 C831 1.362 . S
C831 H821 0.930 . S
C831 C824 1.409 . S
C831 C830 1.362 . S
H832 C838 0.930 . S
H833 C841 0.930 . S
H834 C842 0.930 . S
H835 C843 0.930 . S
H836 C846 0.930 . S
H837 C847 0.930 . S
C838 H832 0.930 . S
C838 C839 1.355 . S
C838 C840 1.415 . S
C839 C838 1.355 . S
C839 C841 1.419 . S
C840 C838 1.415 . S
C840 C845 1.425 . S
C840 C847 1.409 . S
C841 H833 0.930 . S
C841 C839 1.419 . S
C841 C842 1.362 . S
C842 H834 0.930 . S
C842 C841 1.362 . S
C842 C845 1.409 . S
C843 H835 0.930 . S
C843 C844 1.355 . S
C843 C845 1.415 . S
C844 C843 1.355 . S
C844 C846 1.419 . S
C845 C840 1.425 . S
C845 C842 1.409 . S
C845 C843 1.415 . S
C846 H836 0.930 . S
C846 C844 1.419 . S
C846 C847 1.362 . S
C847 H837 0.930 . S
C847 C840 1.409 . S
C847 C846 1.362 . S
H848 C854 0.930 . S
H849 C857 0.930 1_545 S
H850 C858 0.930 . S
H851 C859 0.930 . S
H852 C862 0.930 1_565 S
H853 C863 0.930 . S
C854 H848 0.930 . S
C854 C855 1.355 . S
C854 C856 1.415 . S
C855 C854 1.355 . S
C855 C857 1.419 . S
C856 C854 1.415 . S
C856 C861 1.425 1_565 S
C856 C863 1.409 . S
C857 H849 0.930 1_565 S
C857 C855 1.419 . S
C857 C858 1.362 1_565 S
C858 H850 0.930 . S
C858 C857 1.362 1_545 S
C858 C861 1.409 . S
C859 H851 0.930 . S
C859 C860 1.355 . S
C859 C861 1.415 . S
C860 C859 1.355 . S
C860 C862 1.419 . S
C861 C856 1.425 1_545 S
C861 C858 1.409 . S
C861 C859 1.415 . S
C862 H852 0.930 1_545 S
C862 C860 1.419 . S
C862 C863 1.362 1_545 S
C863 H853 0.930 . S
C863 C856 1.409 . S
C863 C862 1.362 1_565 S
H864 C870 0.930 . S
H865 C873 0.930 . S
H866 C874 0.930 . S
H867 C875 0.930 . S
H868 C878 0.930 . S
H869 C879 0.930 . S
C870 H864 0.930 . S
C870 C871 1.355 . S
C870 C872 1.415 . S
C871 C870 1.355 . S
C871 C873 1.419 . S
C872 C870 1.415 . S
C872 C877 1.425 . S
C872 C879 1.409 . S
C873 H865 0.930 . S
C873 C871 1.419 . S
C873 C874 1.362 . S
C874 H866 0.930 . S
C874 C873 1.362 . S
C874 C877 1.409 . S
C875 H867 0.930 . S
C875 C876 1.355 . S
C875 C877 1.415 . S
C876 C875 1.355 . S
C876 C878 1.419 . S
C877 C872 1.425 . S
C877 C874 1.409 . S
C877 C875 1.415 . S
C878 H868 0.930 . S
C878 C876 1.419 . S
C878 C879 1.362 . S
C879 H869 0.930 . S
C879 C872 1.409 . S
C879 C878 1.362 . S
H880 C886 0.930 . S
H881 C889 0.930 . S
H882 C890 0.930 . S
H883 C891 0.930 . S
H884 C894 0.930 . S
H885 C895 0.930 . S
C886 H880 0.930 . S
C886 C887 1.355 . S
C886 C888 1.415 1_565 S
C887 C886 1.355 . S
C887 C889 1.419 . S
C888 C886 1.415 1_545 S
C888 C893 1.425 1_545 S
C888 C895 1.409 . S
C889 H881 0.930 . S
C889 C887 1.419 . S
C889 C890 1.362 . S
C890 H882 0.930 . S
C890 C889 1.362 . S
C890 C893 1.409 . S
C891 H883 0.930 . S
C891 C892 1.355 . S
C891 C893 1.415 1_545 S
C892 C891 1.355 . S
C892 C894 1.419 . S
C893 C888 1.425 1_565 S
C893 C890 1.409 . S
C893 C891 1.415 1_565 S
C894 H884 0.930 . S
C894 C892 1.419 . S
C894 C895 1.362 . S
C895 H885 0.930 . S
C895 C888 1.409 . S
C895 C894 1.362 . S
H896 C902 0.930 . S
H897 C905 0.930 . S
H898 C906 0.930 . S
H899 C907 0.930 . S
H900 C910 0.930 . S
H901 C911 0.930 . S
C902 H896 0.930 . S
C902 C903 1.355 . S
C902 C904 1.415 . S
C903 C902 1.355 . S
C903 C905 1.419 . S
C904 C902 1.415 . S
C904 C909 1.425 . S
C904 C911 1.409 . S
C905 H897 0.930 . S
C905 C903 1.419 . S
C905 C906 1.362 . S
C906 H898 0.930 . S
C906 C905 1.362 . S
C906 C909 1.409 . S
C907 H899 0.930 . S
C907 C908 1.355 . S
C907 C909 1.415 . S
C908 C907 1.355 . S
C908 C910 1.419 . S
C909 C904 1.425 . S
C909 C906 1.409 . S
C909 C907 1.415 . S
C910 H900 0.930 . S
C910 C908 1.419 . S
C910 C911 1.362 . S
C911 H901 0.930 . S
C911 C904 1.409 . S
C911 C910 1.362 . S
H912 C918 0.930 . S
H913 C921 0.930 . S
H914 C922 0.930 . S
H915 C923 0.930 . S
H916 C926 0.930 . S
H917 C927 0.930 . S
C918 H912 0.930 . S
C918 C919 1.355 . S
C918 C920 1.415 . S
C919 C918 1.355 . S
C919 C921 1.419 . S
C920 C918 1.415 . S
C920 C925 1.425 . S
C920 C927 1.409 . S
C921 H913 0.930 . S
C921 C919 1.419 . S
C921 C922 1.362 . S
C922 H914 0.930 . S
C922 C921 1.362 . S
C922 C925 1.409 . S
C923 H915 0.930 . S
C923 C924 1.355 . S
C923 C925 1.415 . S
C924 C923 1.355 . S
C924 C926 1.419 . S
C925 C920 1.425 . S
C925 C922 1.409 . S
C925 C923 1.415 . S
C926 H916 0.930 . S
C926 C924 1.419 . S
C926 C927 1.362 . S
C927 H917 0.930 . S
C927 C920 1.409 . S
C927 C926 1.362 . S
H928 C934 0.930 . S
H929 C937 0.930 . S
H930 C938 0.930 . S
H931 C939 0.930 . S
H932 C942 0.930 . S
H933 C943 0.930 . S
C934 H928 0.930 . S
C934 C935 1.355 . S
C934 C936 1.415 . S
C935 C934 1.355 . S
C935 C937 1.419 . S
C936 C934 1.415 . S
C936 C941 1.425 . S
C936 C943 1.409 . S
C937 H929 0.930 . S
C937 C935 1.419 . S
C937 C938 1.362 . S
C938 H930 0.930 . S
C938 C937 1.362 . S
C938 C941 1.409 . S
C939 H931 0.930 . S
C939 C940 1.355 . S
C939 C941 1.415 . S
C940 C939 1.355 . S
C940 C942 1.419 . S
C941 C936 1.425 . S
C941 C938 1.409 . S
C941 C939 1.415 . S
C942 H932 0.930 . S
C942 C940 1.419 . S
C942 C943 1.362 . S
C943 H933 0.930 . S
C943 C936 1.409 . S
C943 C942 1.362 . S
H944 C950 0.930 1_565 S
H945 C953 0.930 . S
H946 C954 0.930 . S
H947 C955 0.930 1_545 S
H948 C958 0.930 . S
H949 C959 0.930 . S
C950 H944 0.930 1_545 S
C950 C951 1.355 . S
C950 C952 1.415 1_545 S
C951 C950 1.355 . S
C951 C953 1.419 . S
C952 C950 1.415 1_565 S
C952 C957 1.425 1_566 S
C952 C959 1.409 . S
C953 H945 0.930 . S
C953 C951 1.419 . S
C953 C954 1.362 1_556 S
C954 H946 0.930 . S
C954 C953 1.362 1_554 S
C954 C957 1.409 . S
C955 H947 0.930 1_565 S
C955 C956 1.355 . S
C955 C957 1.415 1_565 S
C956 C955 1.355 . S
C956 C958 1.419 . S
C957 C952 1.425 1_544 S
C957 C954 1.409 . S
C957 C955 1.415 1_545 S
C958 H948 0.930 . S
C958 C956 1.419 . S
C958 C959 1.362 1_554 S
C959 H949 0.930 . S
C959 C952 1.409 . S
C959 C958 1.362 1_556 S
H960 C966 0.930 . S
H961 C969 0.930 . S
H962 C970 0.930 . S
H963 C971 0.930 . S
H964 C974 0.930 . S
H965 C975 0.930 . S
C966 H960 0.930 . S
C966 C967 1.355 . S
C966 C968 1.415 . S
C967 C966 1.355 . S
C967 C969 1.419 . S
C968 C966 1.415 . S
C968 C973 1.425 . S
C968 C975 1.409 . S
C969 H961 0.930 . S
C969 C967 1.419 . S
C969 C970 1.362 . S
C970 H962 0.930 . S
C970 C969 1.362 . S
C970 C973 1.409 . S
C971 H963 0.930 . S
C971 C972 1.355 . S
C971 C973 1.415 . S
C972 C971 1.355 . S
C972 C974 1.419 . S
C973 C968 1.425 . S
C973 C970 1.409 . S
C973 C971 1.415 . S
C974 H964 0.930 . S
C974 C972 1.419 . S
C974 C975 1.362 . S
C975 H965 0.930 . S
C975 C968 1.409 . S
C975 C974 1.362 . S
H976 C982 0.930 . S
H977 C985 0.930 . S
H978 C986 0.930 . S
H979 C987 0.930 . S
H980 C990 0.930 . S
H981 C991 0.930 . S
C982 H976 0.930 . S
C982 C983 1.355 . S
C982 C984 1.415 . S
C983 C982 1.355 . S
C983 C985 1.419 . S
C984 C982 1.415 . S
C984 C989 1.425 . S
C984 C991 1.409 . S
C985 H977 0.930 . S
C985 C983 1.419 . S
C985 C986 1.362 . S
C986 H978 0.930 . S
C986 C985 1.362 . S
C986 C989 1.409 . S
C987 H979 0.930 . S
C987 C988 1.355 . S
C987 C989 1.415 . S
C988 C987 1.355 . S
C988 C990 1.419 . S
C989 C984 1.425 . S
C989 C986 1.409 . S
C989 C987 1.415 . S
C990 H980 0.930 . S
C990 C988 1.419 . S
C990 C991 1.362 . S
C991 H981 0.930 . S
C991 C984 1.409 . S
C991 C990 1.362 . S
H992 C998 0.930 . S
H993 C1001 0.930 . S
H994 C1002 0.930 . S
H995 C1003 0.930 . S
H996 C1006 0.930 . S
H997 C1007 0.930 . S
C998 H992 0.930 . S
C998 C999 1.355 . S
C998 C1000 1.415 . S
C999 C998 1.355 . S
C999 C1001 1.419 . S
C1000 C998 1.415 . S
C1000 C1005 1.425 . S
C1000 C1007 1.409 . S
C1001 H993 0.930 . S
C1001 C999 1.419 . S
C1001 C1002 1.362 . S
C1002 H994 0.930 . S
C1002 C1001 1.362 . S
C1002 C1005 1.409 . S
C1003 H995 0.930 . S
C1003 C1004 1.355 . S
C1003 C1005 1.415 . S
C1004 C1003 1.355 . S
C1004 C1006 1.419 . S
C1005 C1000 1.425 . S
C1005 C1002 1.409 . S
C1005 C1003 1.415 . S
C1006 H996 0.930 . S
C1006 C1004 1.419 . S
C1006 C1007 1.362 . S
C1007 H997 0.930 . S
C1007 C1000 1.409 . S
C1007 C1006 1.362 . S
H1008 C1014 0.930 . S
H1009 C1017 0.930 . S
H1010 C1018 0.930 . S
H1011 C1019 0.930 . S
H1012 C1022 0.930 . S
H1013 C1023 0.930 . S
C1014 H1008 0.930 . S
C1014 C1015 1.355 . S
C1014 C1016 1.415 . S
C1015 C1014 1.355 . S
C1015 C1017 1.419 . S
C1016 C1014 1.415 . S
C1016 C1021 1.425 . S
C1016 C1023 1.409 . S
C1017 H1009 0.930 . S
C1017 C1015 1.419 . S
C1017 C1018 1.362 . S
C1018 H1010 0.930 . S
C1018 C1017 1.362 . S
C1018 C1021 1.409 . S
C1019 H1011 0.930 . S
C1019 C1020 1.355 . S
C1019 C1021 1.415 . S
C1020 C1019 1.355 . S
C1020 C1022 1.419 . S
C1021 C1016 1.425 . S
C1021 C1018 1.409 . S
C1021 C1019 1.415 . S
C1022 H1012 0.930 . S
C1022 C1020 1.419 . S
C1022 C1023 1.362 . S
C1023 H1013 0.930 . S
C1023 C1016 1.409 . S
C1023 C1022 1.362 . S
H1024 C1030 0.930 . S
H1025 C1033 0.930 . S
H1026 C1034 0.930 . S
H1027 C1035 0.930 . S
H1028 C1038 0.930 . S
H1029 C1039 0.930 . S
C1030 H1024 0.930 . S
C1030 C1031 1.355 . S
C1030 C1032 1.415 . S
C1031 C1030 1.355 . S
C1031 C1033 1.419 . S
C1032 C1030 1.415 . S
C1032 C1037 1.425 . S
C1032 C1039 1.409 . S
C1033 H1025 0.930 . S
C1033 C1031 1.419 . S
C1033 C1034 1.362 . S
C1034 H1026 0.930 . S
C1034 C1033 1.362 . S
C1034 C1037 1.409 . S
C1035 H1027 0.930 . S
C1035 C1036 1.355 . S
C1035 C1037 1.415 . S
C1036 C1035 1.355 . S
C1036 C1038 1.419 . S
C1037 C1032 1.425 . S
C1037 C1034 1.409 . S
C1037 C1035 1.415 . S
C1038 H1028 0.930 . S
C1038 C1036 1.419 . S
C1038 C1039 1.362 . S
C1039 H1029 0.930 . S
C1039 C1032 1.409 . S
C1039 C1038 1.362 . S
H1040 C1046 0.930 . S
H1041 C1049 0.930 . S
H1042 C1050 0.930 . S
H1043 C1051 0.930 . S
H1044 C1054 0.930 . S
H1045 C1055 0.930 . S
C1046 H1040 0.930 . S
C1046 C1047 1.355 . S
C1046 C1048 1.415 . S
C1047 C1046 1.355 . S
C1047 C1049 1.419 . S
C1048 C1046 1.415 . S
C1048 C1053 1.425 . S
C1048 C1055 1.409 . S
C1049 H1041 0.930 . S
C1049 C1047 1.419 . S
C1049 C1050 1.362 . S
C1050 H1042 0.930 . S
C1050 C1049 1.362 . S
C1050 C1053 1.409 . S
C1051 H1043 0.930 . S
C1051 C1052 1.355 . S
C1051 C1053 1.415 . S
C1052 C1051 1.355 . S
C1052 C1054 1.419 . S
C1053 C1048 1.425 . S
C1053 C1050 1.409 . S
C1053 C1051 1.415 . S
C1054 H1044 0.930 . S
C1054 C1052 1.419 . S
C1054 C1055 1.362 . S
C1055 H1045 0.930 . S
C1055 C1048 1.409 . S
C1055 C1054 1.362 . S
H1056 C1062 0.930 . S
H1057 C1065 0.930 . S
H1058 C1066 0.930 . S
H1059 C1067 0.930 . S
H1060 C1070 0.930 . S
H1061 C1071 0.930 . S
C1062 H1056 0.930 . S
C1062 C1063 1.355 . S
C1062 C1064 1.415 . S
C1063 C1062 1.355 . S
C1063 C1065 1.419 . S
C1064 C1062 1.415 . S
C1064 C1069 1.425 . S
C1064 C1071 1.409 . S
C1065 H1057 0.930 . S
C1065 C1063 1.419 . S
C1065 C1066 1.362 . S
C1066 H1058 0.930 . S
C1066 C1065 1.362 . S
C1066 C1069 1.409 . S
C1067 H1059 0.930 . S
C1067 C1068 1.355 . S
C1067 C1069 1.415 . S
C1068 C1067 1.355 . S
C1068 C1070 1.419 . S
C1069 C1064 1.425 . S
C1069 C1066 1.409 . S
C1069 C1067 1.415 . S
C1070 H1060 0.930 . S
C1070 C1068 1.419 . S
C1070 C1071 1.362 . S
C1071 H1061 0.930 . S
C1071 C1064 1.409 . S
C1071 C1070 1.362 . S
H1072 C1078 0.930 . S
H1073 C1081 0.930 . S
H1074 C1082 0.930 . S
H1075 C1083 0.930 . S
H1076 C1086 0.930 . S
H1077 C1087 0.930 . S
C1078 H1072 0.930 . S
C1078 C1079 1.355 . S
C1078 C1080 1.415 . S
C1079 C1078 1.355 . S
C1079 C1081 1.419 . S
C1080 C1078 1.415 . S
C1080 C1085 1.425 . S
C1080 C1087 1.409 . S
C1081 H1073 0.930 . S
C1081 C1079 1.419 . S
C1081 C1082 1.362 . S
C1082 H1074 0.930 . S
C1082 C1081 1.362 . S
C1082 C1085 1.409 . S
C1083 H1075 0.930 . S
C1083 C1084 1.355 . S
C1083 C1085 1.415 . S
C1084 C1083 1.355 . S
C1084 C1086 1.419 . S
C1085 C1080 1.425 . S
C1085 C1082 1.409 . S
C1085 C1083 1.415 . S
C1086 H1076 0.930 . S
C1086 C1084 1.419 . S
C1086 C1087 1.362 . S
C1087 H1077 0.930 . S
C1087 C1080 1.409 . S
C1087 C1086 1.362 . S
H1088 C1094 0.930 . S
H1089 C1097 0.930 . S
H1090 C1098 0.930 . S
H1091 C1099 0.930 . S
H1092 C1102 0.930 . S
H1093 C1103 0.930 . S
C1094 H1088 0.930 . S
C1094 C1095 1.355 . S
C1094 C1096 1.415 . S
C1095 C1094 1.355 . S
C1095 C1097 1.419 . S
C1096 C1094 1.415 . S
C1096 C1101 1.425 . S
C1096 C1103 1.409 . S
C1097 H1089 0.930 . S
C1097 C1095 1.419 . S
C1097 C1098 1.362 . S
C1098 H1090 0.930 . S
C1098 C1097 1.362 . S
C1098 C1101 1.409 . S
C1099 H1091 0.930 . S
C1099 C1100 1.355 . S
C1099 C1101 1.415 . S
C1100 C1099 1.355 . S
C1100 C1102 1.419 . S
C1101 C1096 1.425 . S
C1101 C1098 1.409 . S
C1101 C1099 1.415 . S
C1102 H1092 0.930 . S
C1102 C1100 1.419 . S
C1102 C1103 1.362 . S
C1103 H1093 0.930 . S
C1103 C1096 1.409 . S
C1103 C1102 1.362 . S
H1104 C1110 0.930 . S
H1105 C1113 0.930 . S
H1106 C1114 0.930 . S
H1107 C1115 0.930 . S
H1108 C1118 0.930 . S
H1109 C1119 0.930 . S
C1110 H1104 0.930 . S
C1110 C1111 1.355 . S
C1110 C1112 1.415 . S
C1111 C1110 1.355 . S
C1111 C1113 1.419 . S
C1112 C1110 1.415 . S
C1112 C1117 1.425 . S
C1112 C1119 1.409 . S
C1113 H1105 0.930 . S
C1113 C1111 1.419 . S
C1113 C1114 1.362 . S
C1114 H1106 0.930 . S
C1114 C1113 1.362 . S
C1114 C1117 1.409 . S
C1115 H1107 0.930 . S
C1115 C1116 1.355 . S
C1115 C1117 1.415 . S
C1116 C1115 1.355 . S
C1116 C1118 1.419 . S
C1117 C1112 1.425 . S
C1117 C1114 1.409 . S
C1117 C1115 1.415 . S
C1118 H1108 0.930 . S
C1118 C1116 1.419 . S
C1118 C1119 1.362 . S
C1119 H1109 0.930 . S
C1119 C1112 1.409 . S
C1119 C1118 1.362 . S
H1120 C1126 0.930 . S
H1121 C1129 0.930 . S
H1122 C1130 0.930 . S
H1123 C1131 0.930 . S
H1124 C1134 0.930 . S
H1125 C1135 0.930 . S
C1126 H1120 0.930 . S
C1126 C1127 1.355 . S
C1126 C1128 1.415 . S
C1127 C1126 1.355 . S
C1127 C1129 1.419 . S
C1128 C1126 1.415 . S
C1128 C1133 1.425 . S
C1128 C1135 1.409 . S
C1129 H1121 0.930 . S
C1129 C1127 1.419 . S
C1129 C1130 1.362 . S
C1130 H1122 0.930 . S
C1130 C1129 1.362 . S
C1130 C1133 1.409 . S
C1131 H1123 0.930 . S
C1131 C1132 1.355 . S
C1131 C1133 1.415 . S
C1132 C1131 1.355 . S
C1132 C1134 1.419 . S
C1133 C1128 1.425 . S
C1133 C1130 1.409 . S
C1133 C1131 1.415 . S
C1134 H1124 0.930 . S
C1134 C1132 1.419 . S
C1134 C1135 1.362 . S
C1135 H1125 0.930 . S
C1135 C1128 1.409 . S
C1135 C1134 1.362 . S
H1136 C1142 0.930 . S
H1137 C1145 0.930 . S
H1138 C1146 0.930 . S
H1139 C1147 0.930 . S
H1140 C1150 0.930 . S
H1141 C1151 0.930 . S
C1142 H1136 0.930 . S
C1142 C1143 1.355 . S
C1142 C1144 1.415 . S
C1143 C1142 1.355 . S
C1143 C1145 1.419 . S
C1144 C1142 1.415 . S
C1144 C1149 1.425 . S
C1144 C1151 1.409 . S
C1145 H1137 0.930 . S
C1145 C1143 1.419 . S
C1145 C1146 1.362 . S
C1146 H1138 0.930 . S
C1146 C1145 1.362 . S
C1146 C1149 1.409 . S
C1147 H1139 0.930 . S
C1147 C1148 1.355 . S
C1147 C1149 1.415 . S
C1148 C1147 1.355 . S
C1148 C1150 1.419 . S
C1149 C1144 1.425 . S
C1149 C1146 1.409 . S
C1149 C1147 1.415 . S
C1150 H1140 0.930 . S
C1150 C1148 1.419 . S
C1150 C1151 1.362 . S
C1151 H1141 0.930 . S
C1151 C1144 1.409 . S
C1151 C1150 1.362 . S
H1152 C1158 0.930 . S
H1153 C1161 0.930 . S
H1154 C1162 0.930 . S
H1155 C1163 0.930 . S
H1156 C1166 0.930 . S
H1157 C1167 0.930 . S
C1158 H1152 0.930 . S
C1158 C1159 1.355 . S
C1158 C1160 1.415 . S
C1159 C1158 1.355 . S
C1159 C1161 1.419 . S
C1160 C1158 1.415 . S
C1160 C1165 1.425 . S
C1160 C1167 1.409 . S
C1161 H1153 0.930 . S
C1161 C1159 1.419 . S
C1161 C1162 1.362 . S
C1162 H1154 0.930 . S
C1162 C1161 1.362 . S
C1162 C1165 1.409 . S
C1163 H1155 0.930 . S
C1163 C1164 1.355 . S
C1163 C1165 1.415 . S
C1164 C1163 1.355 . S
C1164 C1166 1.419 . S
C1165 C1160 1.425 . S
C1165 C1162 1.409 . S
C1165 C1163 1.415 . S
C1166 H1156 0.930 . S
C1166 C1164 1.419 . S
C1166 C1167 1.362 . S
C1167 H1157 0.930 . S
C1167 C1160 1.409 . S
C1167 C1166 1.362 . S
H1168 C1174 0.930 . S
H1169 C1177 0.930 . S
H1170 C1178 0.930 . S
H1171 C1179 0.930 . S
H1172 C1182 0.930 . S
H1173 C1183 0.930 . S
C1174 H1168 0.930 . S
C1174 C1175 1.355 . S
C1174 C1176 1.415 . S
C1175 C1174 1.355 . S
C1175 C1177 1.419 . S
C1176 C1174 1.415 . S
C1176 C1181 1.425 . S
C1176 C1183 1.409 . S
C1177 H1169 0.930 . S
C1177 C1175 1.419 . S
C1177 C1178 1.362 . S
C1178 H1170 0.930 . S
C1178 C1177 1.362 . S
C1178 C1181 1.409 . S
C1179 H1171 0.930 . S
C1179 C1180 1.355 . S
C1179 C1181 1.415 . S
C1180 C1179 1.355 . S
C1180 C1182 1.419 . S
C1181 C1176 1.425 . S
C1181 C1178 1.409 . S
C1181 C1179 1.415 . S
C1182 H1172 0.930 . S
C1182 C1180 1.419 . S
C1182 C1183 1.362 . S
C1183 H1173 0.930 . S
C1183 C1176 1.409 . S
C1183 C1182 1.362 . S
H1184 C1190 0.930 . S
H1185 C1193 0.930 . S
H1186 C1194 0.930 . S
H1187 C1195 0.930 . S
H1188 C1198 0.930 . S
H1189 C1199 0.930 . S
C1190 H1184 0.930 . S
C1190 C1191 1.355 . S
C1190 C1192 1.415 . S
C1191 C1190 1.355 . S
C1191 C1193 1.419 . S
C1192 C1190 1.415 . S
C1192 C1197 1.425 . S
C1192 C1199 1.409 . S
C1193 H1185 0.930 . S
C1193 C1191 1.419 . S
C1193 C1194 1.362 . S
C1194 H1186 0.930 . S
C1194 C1193 1.362 . S
C1194 C1197 1.409 . S
C1195 H1187 0.930 . S
C1195 C1196 1.355 . S
C1195 C1197 1.415 . S
C1196 C1195 1.355 . S
C1196 C1198 1.419 . S
C1197 C1192 1.425 . S
C1197 C1194 1.409 . S
C1197 C1195 1.415 . S
C1198 H1188 0.930 . S
C1198 C1196 1.419 . S
C1198 C1199 1.362 . S
C1199 H1189 0.930 . S
C1199 C1192 1.409 . S
C1199 C1198 1.362 . S
H1200 C1206 0.930 . S
H1201 C1209 0.930 . S
H1202 C1210 0.930 . S
H1203 C1211 0.930 . S
H1204 C1214 0.930 . S
H1205 C1215 0.930 . S
C1206 H1200 0.930 . S
C1206 C1207 1.355 . S
C1206 C1208 1.415 . S
C1207 C1206 1.355 . S
C1207 C1209 1.419 . S
C1208 C1206 1.415 . S
C1208 C1213 1.425 . S
C1208 C1215 1.409 . S
C1209 H1201 0.930 . S
C1209 C1207 1.419 . S
C1209 C1210 1.362 . S
C1210 H1202 0.930 . S
C1210 C1209 1.362 . S
C1210 C1213 1.409 . S
C1211 H1203 0.930 . S
C1211 C1212 1.355 . S
C1211 C1213 1.415 . S
C1212 C1211 1.355 . S
C1212 C1214 1.419 . S
C1213 C1208 1.425 . S
C1213 C1210 1.409 . S
C1213 C1211 1.415 . S
C1214 H1204 0.930 . S
C1214 C1212 1.419 . S
C1214 C1215 1.362 . S
C1215 H1205 0.930 . S
C1215 C1208 1.409 . S
C1215 C1214 1.362 . S
H1216 C1222 0.930 . S
H1217 C1225 0.930 . S
H1218 C1226 0.930 . S
H1219 C1227 0.930 . S
H1220 C1230 0.930 . S
H1221 C1231 0.930 . S
C1222 H1216 0.930 . S
C1222 C1223 1.355 . S
C1222 C1224 1.415 . S
C1223 C1222 1.355 . S
C1223 C1225 1.419 . S
C1224 C1222 1.415 . S
C1224 C1229 1.425 . S
C1224 C1231 1.409 . S
C1225 H1217 0.930 . S
C1225 C1223 1.419 . S
C1225 C1226 1.362 . S
C1226 H1218 0.930 . S
C1226 C1225 1.362 . S
C1226 C1229 1.409 . S
C1227 H1219 0.930 . S
C1227 C1228 1.355 . S
C1227 C1229 1.415 . S
C1228 C1227 1.355 . S
C1228 C1230 1.419 . S
C1229 C1224 1.425 . S
C1229 C1226 1.409 . S
C1229 C1227 1.415 . S
C1230 H1220 0.930 . S
C1230 C1228 1.419 . S
C1230 C1231 1.362 . S
C1231 H1221 0.930 . S
C1231 C1224 1.409 . S
C1231 C1230 1.362 . S
H1232 C1238 0.930 . S
H1233 C1241 0.930 1_565 S
H1234 C1242 0.930 . S
H1235 C1243 0.930 . S
H1236 C1246 0.930 . S
H1237 C1247 0.930 . S
C1238 H1232 0.930 . S
C1238 C1239 1.355 . S
C1238 C1240 1.415 . S
C1239 C1238 1.355 . S
C1239 C1241 1.419 . S
C1240 C1238 1.415 . S
C1240 C1245 1.425 . S
C1240 C1247 1.409 . S
C1241 H1233 0.930 1_545 S
C1241 C1239 1.419 . S
C1241 C1242 1.362 . S
C1242 H1234 0.930 . S
C1242 C1241 1.362 . S
C1242 C1245 1.409 . S
C1243 H1235 0.930 . S
C1243 C1244 1.355 . S
C1243 C1245 1.415 . S
C1244 C1243 1.355 . S
C1244 C1246 1.419 . S
C1245 C1240 1.425 . S
C1245 C1242 1.409 . S
C1245 C1243 1.415 . S
C1246 H1236 0.930 . S
C1246 C1244 1.419 . S
C1246 C1247 1.362 . S
C1247 H1237 0.930 . S
C1247 C1240 1.409 . S
C1247 C1246 1.362 . S
H1248 C1254 0.930 . S
H1249 C1257 0.930 . S
H1250 C1258 0.930 . S
H1251 C1259 0.930 . S
H1252 C1262 0.930 . S
H1253 C1263 0.930 . S
C1254 H1248 0.930 . S
C1254 C1255 1.355 . S
C1254 C1256 1.415 . S
C1255 C1254 1.355 . S
C1255 C1257 1.419 . S
C1256 C1254 1.415 . S
C1256 C1261 1.425 . S
C1256 C1263 1.409 . S
C1257 H1249 0.930 . S
C1257 C1255 1.419 . S
C1257 C1258 1.362 . S
C1258 H1250 0.930 . S
C1258 C1257 1.362 . S
C1258 C1261 1.409 . S
C1259 H1251 0.930 . S
C1259 C1260 1.355 . S
C1259 C1261 1.415 . S
C1260 C1259 1.355 . S
C1260 C1262 1.419 . S
C1261 C1256 1.425 . S
C1261 C1258 1.409 . S
C1261 C1259 1.415 . S
C1262 H1252 0.930 . S
C1262 C1260 1.419 . S
C1262 C1263 1.362 . S
C1263 H1253 0.930 . S
C1263 C1256 1.409 . S
C1263 C1262 1.362 . S
H1264 C1270 0.930 . S
H1265 C1273 0.930 . S
H1266 C1274 0.930 . S
H1267 C1275 0.930 . S
H1268 C1278 0.930 . S
H1269 C1279 0.930 . S
C1270 H1264 0.930 . S
C1270 C1271 1.355 . S
C1270 C1272 1.415 . S
C1271 C1270 1.355 . S
C1271 C1273 1.419 . S
C1272 C1270 1.415 . S
C1272 C1277 1.425 . S
C1272 C1279 1.409 . S
C1273 H1265 0.930 . S
C1273 C1271 1.419 . S
C1273 C1274 1.362 . S
C1274 H1266 0.930 . S
C1274 C1273 1.362 . S
C1274 C1277 1.409 . S
C1275 H1267 0.930 . S
C1275 C1276 1.355 . S
C1275 C1277 1.415 . S
C1276 C1275 1.355 . S
C1276 C1278 1.419 . S
C1277 C1272 1.425 . S
C1277 C1274 1.409 . S
C1277 C1275 1.415 . S
C1278 H1268 0.930 . S
C1278 C1276 1.419 . S
C1278 C1279 1.362 . S
C1279 H1269 0.930 . S
C1279 C1272 1.409 . S
C1279 C1278 1.362 . S
H1280 C1286 0.930 . S
H1281 C1289 0.930 . S
H1282 C1290 0.930 . S
H1283 C1291 0.930 . S
H1284 C1294 0.930 . S
H1285 C1295 0.930 . S
C1286 H1280 0.930 . S
C1286 C1287 1.355 . S
C1286 C1288 1.415 . S
C1287 C1286 1.355 . S
C1287 C1289 1.419 . S
C1288 C1286 1.415 . S
C1288 C1293 1.425 . S
C1288 C1295 1.409 . S
C1289 H1281 0.930 . S
C1289 C1287 1.419 . S
C1289 C1290 1.362 . S
C1290 H1282 0.930 . S
C1290 C1289 1.362 . S
C1290 C1293 1.409 . S
C1291 H1283 0.930 . S
C1291 C1292 1.355 . S
C1291 C1293 1.415 . S
C1292 C1291 1.355 . S
C1292 C1294 1.419 . S
C1293 C1288 1.425 . S
C1293 C1290 1.409 . S
C1293 C1291 1.415 . S
C1294 H1284 0.930 . S
C1294 C1292 1.419 . S
C1294 C1295 1.362 . S
C1295 H1285 0.930 . S
C1295 C1288 1.409 . S
C1295 C1294 1.362 . S
H1296 C1302 0.930 . S
H1297 C1305 0.930 . S
H1298 C1306 0.930 . S
H1299 C1307 0.930 . S
H1300 C1310 0.930 . S
H1301 C1311 0.930 . S
C1302 H1296 0.930 . S
C1302 C1303 1.355 . S
C1302 C1304 1.415 . S
C1303 C1302 1.355 . S
C1303 C1305 1.419 . S
C1304 C1302 1.415 . S
C1304 C1309 1.425 . S
C1304 C1311 1.409 . S
C1305 H1297 0.930 . S
C1305 C1303 1.419 . S
C1305 C1306 1.362 . S
C1306 H1298 0.930 . S
C1306 C1305 1.362 . S
C1306 C1309 1.409 . S
C1307 H1299 0.930 . S
C1307 C1308 1.355 . S
C1307 C1309 1.415 . S
C1308 C1307 1.355 . S
C1308 C1310 1.419 . S
C1309 C1304 1.425 . S
C1309 C1306 1.409 . S
C1309 C1307 1.415 . S
C1310 H1300 0.930 . S
C1310 C1308 1.419 . S
C1310 C1311 1.362 . S
C1311 H1301 0.930 . S
C1311 C1304 1.409 . S
C1311 C1310 1.362 . S
H1312 C1318 0.930 . S
H1313 C1321 0.930 . S
H1314 C1322 0.930 . S
H1315 C1323 0.930 . S
H1316 C1326 0.930 . S
H1317 C1327 0.930 . S
C1318 H1312 0.930 . S
C1318 C1319 1.355 . S
C1318 C1320 1.415 . S
C1319 C1318 1.355 . S
C1319 C1321 1.419 . S
C1320 C1318 1.415 . S
C1320 C1325 1.425 . S
C1320 C1327 1.409 . S
C1321 H1313 0.930 . S
C1321 C1319 1.419 . S
C1321 C1322 1.362 . S
C1322 H1314 0.930 . S
C1322 C1321 1.362 . S
C1322 C1325 1.409 . S
C1323 H1315 0.930 . S
C1323 C1324 1.355 . S
C1323 C1325 1.415 . S
C1324 C1323 1.355 . S
C1324 C1326 1.419 . S
C1325 C1320 1.425 . S
C1325 C1322 1.409 . S
C1325 C1323 1.415 . S
C1326 H1316 0.930 . S
C1326 C1324 1.419 . S
C1326 C1327 1.362 . S
C1327 H1317 0.930 . S
C1327 C1320 1.409 . S
C1327 C1326 1.362 . S
H1328 C1334 0.930 . S
H1329 C1337 0.930 . S
H1330 C1338 0.930 . S
H1331 C1339 0.930 . S
H1332 C1342 0.930 . S
H1333 C1343 0.930 . S
C1334 H1328 0.930 . S
C1334 C1335 1.355 . S
C1334 C1336 1.415 . S
C1335 C1334 1.355 . S
C1335 C1337 1.419 . S
C1336 C1334 1.415 . S
C1336 C1341 1.425 . S
C1336 C1343 1.409 . S
C1337 H1329 0.930 . S
C1337 C1335 1.419 . S
C1337 C1338 1.362 . S
C1338 H1330 0.930 . S
C1338 C1337 1.362 . S
C1338 C1341 1.409 . S
C1339 H1331 0.930 . S
C1339 C1340 1.355 . S
C1339 C1341 1.415 . S
C1340 C1339 1.355 . S
C1340 C1342 1.419 . S
C1341 C1336 1.425 . S
C1341 C1338 1.409 . S
C1341 C1339 1.415 . S
C1342 H1332 0.930 . S
C1342 C1340 1.419 . S
C1342 C1343 1.362 . S
C1343 H1333 0.930 . S
C1343 C1336 1.409 . S
C1343 C1342 1.362 . S
H1344 C1350 0.930 . S
H1345 C1353 0.930 . S
H1346 C1354 0.930 . S
H1347 C1355 0.930 . S
H1348 C1358 0.930 . S
H1349 C1359 0.930 . S
C1350 H1344 0.930 . S
C1350 C1351 1.355 . S
C1350 C1352 1.415 . S
C1351 C1350 1.355 . S
C1351 C1353 1.419 . S
C1352 C1350 1.415 . S
C1352 C1357 1.425 . S
C1352 C1359 1.409 . S
C1353 H1345 0.930 . S
C1353 C1351 1.419 . S
C1353 C1354 1.362 . S
C1354 H1346 0.930 . S
C1354 C1353 1.362 . S
C1354 C1357 1.409 . S
C1355 H1347 0.930 . S
C1355 C1356 1.355 . S
C1355 C1357 1.415 . S
C1356 C1355 1.355 . S
C1356 C1358 1.419 . S
C1357 C1352 1.425 . S
C1357 C1354 1.409 . S
C1357 C1355 1.415 . S
C1358 H1348 0.930 . S
C1358 C1356 1.419 . S
C1358 C1359 1.362 . S
C1359 H1349 0.930 . S
C1359 C1352 1.409 . S
C1359 C1358 1.362 . S
H1360 C1366 0.930 . S
H1361 C1369 0.930 . S
H1362 C1370 0.930 . S
H1363 C1371 0.930 . S
H1364 C1374 0.930 . S
H1365 C1375 0.930 . S
C1366 H1360 0.930 . S
C1366 C1367 1.355 . S
C1366 C1368 1.415 . S
C1367 C1366 1.355 . S
C1367 C1369 1.419 . S
C1368 C1366 1.415 . S
C1368 C1373 1.425 . S
C1368 C1375 1.409 . S
C1369 H1361 0.930 . S
C1369 C1367 1.419 . S
C1369 C1370 1.362 . S
C1370 H1362 0.930 . S
C1370 C1369 1.362 . S
C1370 C1373 1.409 . S
C1371 H1363 0.930 . S
C1371 C1372 1.355 . S
C1371 C1373 1.415 . S
C1372 C1371 1.355 . S
C1372 C1374 1.419 . S
C1373 C1368 1.425 . S
C1373 C1370 1.409 . S
C1373 C1371 1.415 . S
C1374 H1364 0.930 . S
C1374 C1372 1.419 . S
C1374 C1375 1.362 . S
C1375 H1365 0.930 . S
C1375 C1368 1.409 . S
C1375 C1374 1.362 . S
H1376 C1382 0.930 . S
H1377 C1385 0.930 . S
H1378 C1386 0.930 . S
H1379 C1387 0.930 . S
H1380 C1390 0.930 . S
H1381 C1391 0.930 . S
C1382 H1376 0.930 . S
C1382 C1383 1.355 . S
C1382 C1384 1.415 . S
C1383 C1382 1.355 . S
C1383 C1385 1.419 . S
C1384 C1382 1.415 . S
C1384 C1389 1.425 . S
C1384 C1391 1.409 . S
C1385 H1377 0.930 . S
C1385 C1383 1.419 . S
C1385 C1386 1.362 . S
C1386 H1378 0.930 . S
C1386 C1385 1.362 . S
C1386 C1389 1.409 . S
C1387 H1379 0.930 . S
C1387 C1388 1.355 . S
C1387 C1389 1.415 . S
C1388 C1387 1.355 . S
C1388 C1390 1.419 . S
C1389 C1384 1.425 . S
C1389 C1386 1.409 . S
C1389 C1387 1.415 . S
C1390 H1380 0.930 . S
C1390 C1388 1.419 . S
C1390 C1391 1.362 . S
C1391 H1381 0.930 . S
C1391 C1384 1.409 . S
C1391 C1390 1.362 . S
H1392 C1398 0.930 . S
H1393 C1401 0.930 . S
H1394 C1402 0.930 . S
H1395 C1403 0.930 . S
H1396 C1406 0.930 1_545 S
H1397 C1407 0.930 . S
C1398 H1392 0.930 . S
C1398 C1399 1.355 . S
C1398 C1400 1.415 . S
C1399 C1398 1.355 . S
C1399 C1401 1.419 . S
C1400 C1398 1.415 . S
C1400 C1405 1.425 . S
C1400 C1407 1.409 . S
C1401 H1393 0.930 . S
C1401 C1399 1.419 . S
C1401 C1402 1.362 . S
C1402 H1394 0.930 . S
C1402 C1401 1.362 . S
C1402 C1405 1.409 . S
C1403 H1395 0.930 . S
C1403 C1404 1.355 . S
C1403 C1405 1.415 . S
C1404 C1403 1.355 . S
C1404 C1406 1.419 . S
C1405 C1400 1.425 . S
C1405 C1402 1.409 . S
C1405 C1403 1.415 . S
C1406 H1396 0.930 1_565 S
C1406 C1404 1.419 . S
C1406 C1407 1.362 . S
C1407 H1397 0.930 . S
C1407 C1400 1.409 . S
C1407 C1406 1.362 . S
H1408 C1414 0.930 . S
H1409 C1417 0.930 . S
H1410 C1418 0.930 . S
H1411 C1419 0.930 . S
H1412 C1422 0.930 . S
H1413 C1423 0.930 . S
C1414 H1408 0.930 . S
C1414 C1415 1.355 . S
C1414 C1416 1.415 . S
C1415 C1414 1.355 . S
C1415 C1417 1.419 . S
C1416 C1414 1.415 . S
C1416 C1421 1.425 . S
C1416 C1423 1.409 . S
C1417 H1409 0.930 . S
C1417 C1415 1.419 . S
C1417 C1418 1.362 . S
C1418 H1410 0.930 . S
C1418 C1417 1.362 . S
C1418 C1421 1.409 . S
C1419 H1411 0.930 . S
C1419 C1420 1.355 . S
C1419 C1421 1.415 . S
C1420 C1419 1.355 . S
C1420 C1422 1.419 . S
C1421 C1416 1.425 . S
C1421 C1418 1.409 . S
C1421 C1419 1.415 . S
C1422 H1412 0.930 . S
C1422 C1420 1.419 . S
C1422 C1423 1.362 . S
C1423 H1413 0.930 . S
C1423 C1416 1.409 . S
C1423 C1422 1.362 . S
H1424 C1430 0.930 . S
H1425 C1433 0.930 . S
H1426 C1434 0.930 . S
H1427 C1435 0.930 . S
H1428 C1438 0.930 . S
H1429 C1439 0.930 . S
C1430 H1424 0.930 . S
C1430 C1431 1.355 . S
C1430 C1432 1.415 . S
C1431 C1430 1.355 . S
C1431 C1433 1.419 . S
C1432 C1430 1.415 . S
C1432 C1437 1.425 . S
C1432 C1439 1.409 . S
C1433 H1425 0.930 . S
C1433 C1431 1.419 . S
C1433 C1434 1.362 . S
C1434 H1426 0.930 . S
C1434 C1433 1.362 . S
C1434 C1437 1.409 . S
C1435 H1427 0.930 . S
C1435 C1436 1.355 . S
C1435 C1437 1.415 . S
C1436 C1435 1.355 . S
C1436 C1438 1.419 . S
C1437 C1432 1.425 . S
C1437 C1434 1.409 . S
C1437 C1435 1.415 . S
C1438 H1428 0.930 . S
C1438 C1436 1.419 . S
C1438 C1439 1.362 . S
C1439 H1429 0.930 . S
C1439 C1432 1.409 . S
C1439 C1438 1.362 . S
H1440 C1446 0.930 . S
H1441 C1449 0.930 . S
H1442 C1450 0.930 . S
H1443 C1451 0.930 . S
H1444 C1454 0.930 . S
H1445 C1455 0.930 . S
C1446 H1440 0.930 . S
C1446 C1447 1.355 . S
C1446 C1448 1.415 . S
C1447 C1446 1.355 . S
C1447 C1449 1.419 . S
C1448 C1446 1.415 . S
C1448 C1453 1.425 . S
C1448 C1455 1.409 . S
C1449 H1441 0.930 . S
C1449 C1447 1.419 . S
C1449 C1450 1.362 . S
C1450 H1442 0.930 . S
C1450 C1449 1.362 . S
C1450 C1453 1.409 . S
C1451 H1443 0.930 . S
C1451 C1452 1.355 . S
C1451 C1453 1.415 . S
C1452 C1451 1.355 . S
C1452 C1454 1.419 . S
C1453 C1448 1.425 . S
C1453 C1450 1.409 . S
C1453 C1451 1.415 . S
C1454 H1444 0.930 . S
C1454 C1452 1.419 . S
C1454 C1455 1.362 . S
C1455 H1445 0.930 . S
C1455 C1448 1.409 . S
C1455 C1454 1.362 . S
H1456 C1462 0.930 . S
H1457 C1465 0.930 . S
H1458 C1466 0.930 . S
H1459 C1467 0.930 . S
H1460 C1470 0.930 . S
H1461 C1471 0.930 . S
C1462 H1456 0.930 . S
C1462 C1463 1.355 . S
C1462 C1464 1.415 . S
C1463 C1462 1.355 . S
C1463 C1465 1.419 . S
C1464 C1462 1.415 . S
C1464 C1469 1.425 . S
C1464 C1471 1.409 . S
C1465 H1457 0.930 . S
C1465 C1463 1.419 . S
C1465 C1466 1.362 . S
C1466 H1458 0.930 . S
C1466 C1465 1.362 . S
C1466 C1469 1.409 . S
C1467 H1459 0.930 . S
C1467 C1468 1.355 . S
C1467 C1469 1.415 . S
C1468 C1467 1.355 . S
C1468 C1470 1.419 . S
C1469 C1464 1.425 . S
C1469 C1466 1.409 . S
C1469 C1467 1.415 . S
C1470 H1460 0.930 . S
C1470 C1468 1.419 . S
C1470 C1471 1.362 . S
C1471 H1461 0.930 . S
C1471 C1464 1.409 . S
C1471 C1470 1.362 . S
C455 C37 0.624 . S
C460 C9 0.678 . S
C471 C23 0.697 . S
C476 C51 0.715 . S
C487 C93 0.631 . S
C492 C65 0.569 . S
C503 C107 0.707 . S
C508 C79 0.714 . S
C519 C121 0.684 . S
C524 C149 0.634 . S
C535 C163 0.502 . S
C540 C135 0.546 . S
C551 C177 0.707 . S
C556 C205 0.673 . S
C567 C191 0.620 . S
C572 C219 0.675 . S
C583 C261 0.505 . S
C588 C233 0.494 . S
C599 C247 0.715 . S
C604 C275 0.697 . S
C615 C289 0.712 . S
C620 C317 0.684 . S
C631 C331 0.673 . S
C636 C303 0.618 . S
C647 C373 0.501 . S
C652 C345 0.543 . S
C663 C387 0.509 . S
C668 C359 0.493 . S
C679 C429 0.498 . S
C684 C401 0.498 . S
C695 C415 0.599 . S
C700 C443 0.658 . S
C711 C67 1.606 . S
C716 C11 1.606 . S
C727 C417 1.614 . S
C732 C25 1.614 . S
C743 C39 1.584 . S
C748 C207 1.584 . S
C759 C53 1.572 . S
C764 C333 1.572 . S
C775 C81 1.571 . S
C780 C361 1.571 . S
C791 C95 1.572 . S
C796 C151 1.572 . S
C807 C277 1.573 . S
C812 C109 1.573 . S
C823 C179 1.614 . S
C828 C123 1.614 . S
C839 C305 1.584 . S
C844 C137 1.584 . S
C855 C165 1.566 . S
C860 C445 1.566 . S
C871 C193 1.615 . S
C876 C249 1.615 . S
C887 C389 1.598 . S
C892 C221 1.598 . S
C903 C291 1.613 . S
C908 C235 1.613 . S
C919 C263 1.604 . S
C924 C431 1.604 . S
C935 C319 1.582 . S
C940 C375 1.582 . S
C951 C403 1.603 . S
C956 C347 1.603 . S
C967 C47 1.491 . S
C972 C5 1.492 . S
C983 C33 1.513 . S
C988 C19 1.515 . S
C999 C103 1.493 . S
C1004 C61 1.498 . S
C1015 C89 1.494 . S
C1020 C75 1.491 . S
C1031 C159 1.508 . S
C1036 C117 1.513 . S
C1047 C145 1.496 . S
C1052 C131 1.492 . S
C1063 C215 1.494 . S
C1068 C173 1.499 . S
C1079 C201 1.492 . S
C1084 C187 1.496 . S
C1095 C229 1.514 . S
C1100 C271 1.515 . S
C1111 C257 1.508 . S
C1116 C243 1.513 . S
C1127 C285 1.514 . S
C1132 C327 1.510 . S
C1143 C313 1.515 . S
C1148 C299 1.511 . S
C1159 C383 1.514 . S
C1164 C341 1.515 . S
C1175 C355 1.492 . S
C1180 C369 1.491 . S
C1191 C397 1.496 . S
C1196 C439 1.502 . S
C1207 C425 1.505 . S
C1212 C411 1.511 . S
C1223 C28 1.497 1_545 S
C1228 C0 1.521 . S
C1239 C14 1.524 1_545 S
C1244 C42 1.495 . S
C1255 C56 1.492 . S
C1260 C84 1.533 1_565 S
C1271 C70 1.490 1_565 S
C1276 C98 1.532 . S
C1287 C112 1.497 . S
C1292 C140 1.521 . S
C1303 C126 1.530 . S
C1308 C154 1.498 . S
C1319 C196 1.516 . S
C1324 C168 1.502 . S
C1335 C210 1.523 . S
C1340 C182 1.507 . S
C1351 C252 1.528 1_545 S
C1356 C224 1.500 . S
C1367 C266 1.490 . S
C1372 C238 1.532 1_545 S
C1383 C280 1.530 . S
C1388 C308 1.491 1_565 S
C1399 C322 1.496 . S
C1404 C294 1.522 1_565 S
C1415 C364 1.525 . S
C1420 C336 1.494 . S
C1431 C350 1.532 . S
C1436 C378 1.496 . S
C1447 C392 1.491 . S
C1452 C420 1.529 . S
C1463 C434 1.499 . S
C1468 C406 1.529 . S
