# Generated by pormake.
# Topology umy, (4)-cn, num edge types: 1
# Building blocks:
#     Node 0, Type 0, BuildingBlock: UXUYUI_clean_sbu_0, # of connection points: 4
#     Node 1, Type 0, BuildingBlock: UXUYUI_clean_sbu_0, # of connection points: 4
#     Node 2, Type 0, BuildingBlock: UXUYUI_clean_sbu_0, # of connection points: 4
#     Node 3, Type 0, BuildingBlock: UXUYUI_clean_sbu_0, # of connection points: 4
#     Node 4, Type 0, BuildingBlock: UXUYUI_clean_sbu_0, # of connection points: 4
#     Node 5, Type 0, BuildingBlock: UXUYUI_clean_sbu_0, # of connection points: 4
#     Node 6, Type 0, BuildingBlock: UXUYUI_clean_sbu_0, # of connection points: 4
#     Node 7, Type 0, BuildingBlock: UXUYUI_clean_sbu_0, # of connection points: 4
#     Node 8, Type 0, BuildingBlock: UXUYUI_clean_sbu_0, # of connection points: 4
#     Node 9, Type 0, BuildingBlock: UXUYUI_clean_sbu_0, # of connection points: 4
#     Node 10, Type 0, BuildingBlock: UXUYUI_clean_sbu_0, # of connection points: 4
#     Node 11, Type 0, BuildingBlock: UXUYUI_clean_sbu_0, # of connection points: 4
#     Edge 12, Type (0, 0), BuildingBlock: KIFKEQ_clean_linker_1, # of connection points: 2
#     Edge 13, Type (0, 0), BuildingBlock: KIFKEQ_clean_linker_1, # of connection points: 2
#     Edge 14, Type (0, 0), BuildingBlock: KIFKEQ_clean_linker_1, # of connection points: 2
#     Edge 15, Type (0, 0), BuildingBlock: KIFKEQ_clean_linker_1, # of connection points: 2
#     Edge 16, Type (0, 0), BuildingBlock: KIFKEQ_clean_linker_1, # of connection points: 2
#     Edge 17, Type (0, 0), BuildingBlock: KIFKEQ_clean_linker_1, # of connection points: 2
#     Edge 18, Type (0, 0), BuildingBlock: KIFKEQ_clean_linker_1, # of connection points: 2
#     Edge 19, Type (0, 0), BuildingBlock: KIFKEQ_clean_linker_1, # of connection points: 2
#     Edge 20, Type (0, 0), BuildingBlock: KIFKEQ_clean_linker_1, # of connection points: 2
#     Edge 21, Type (0, 0), BuildingBlock: KIFKEQ_clean_linker_1, # of connection points: 2
#     Edge 22, Type (0, 0), BuildingBlock: KIFKEQ_clean_linker_1, # of connection points: 2
#     Edge 23, Type (0, 0), BuildingBlock: KIFKEQ_clean_linker_1, # of connection points: 2
#     Edge 24, Type (0, 0), BuildingBlock: KIFKEQ_clean_linker_1, # of connection points: 2
#     Edge 25, Type (0, 0), BuildingBlock: KIFKEQ_clean_linker_1, # of connection points: 2
#     Edge 26, Type (0, 0), BuildingBlock: KIFKEQ_clean_linker_1, # of connection points: 2
#     Edge 27, Type (0, 0), BuildingBlock: KIFKEQ_clean_linker_1, # of connection points: 2
#     Edge 28, Type (0, 0), BuildingBlock: KIFKEQ_clean_linker_1, # of connection points: 2
#     Edge 29, Type (0, 0), BuildingBlock: KIFKEQ_clean_linker_1, # of connection points: 2
#     Edge 30, Type (0, 0), BuildingBlock: KIFKEQ_clean_linker_1, # of connection points: 2
#     Edge 31, Type (0, 0), BuildingBlock: KIFKEQ_clean_linker_1, # of connection points: 2
#     Edge 32, Type (0, 0), BuildingBlock: KIFKEQ_clean_linker_1, # of connection points: 2
#     Edge 33, Type (0, 0), BuildingBlock: KIFKEQ_clean_linker_1, # of connection points: 2
#     Edge 34, Type (0, 0), BuildingBlock: KIFKEQ_clean_linker_1, # of connection points: 2
#     Edge 35, Type (0, 0), BuildingBlock: KIFKEQ_clean_linker_1, # of connection points: 2
# Relax obj value: 0.205
# Max RMSD: 0.156
# Mean RMSD: 0.156
data_MOF--net-umy--node1-UXUYUI_clean_sbu_0--edge1-KIFKEQ_clean_linker_1
_symmetry_space_group_name_H-M    P1
_symmetry_Int_Tables_number       1
_symmetry_cell_setting            triclinic
loop_
_symmetry_equiv_pos_as_xyz
'x, y, z'
_cell_length_a     59.362595
_cell_length_b     59.362408
_cell_length_c     66.93845
_cell_angle_alpha  89.981417
_cell_angle_beta   90.001025
_cell_angle_gamma 120.00002
loop_
_atom_site_label
_atom_site_type_symbol
_atom_site_fract_x
_atom_site_fract_y
_atom_site_fract_z
_atom_type_partial_charge
Li0 Li 0.0885 0.34173 0.09153 0.0
Li1 Li 0.09248 0.35446 0.127 0.0
Li2 Li 0.04858 0.3264 0.11066 0.0
Li3 Li 0.07402 0.373 0.10321 0.0
C4 C 0.08419 0.3005 0.11305 0.0
N5 N 0.09886 0.26351 0.10749 0.0
C6 C 0.1054 0.30228 0.12351 0.0
C7 C 0.07019 0.27969 0.10001 0.0
C8 C 0.11258 0.28344 0.12043 0.0
C9 C 0.07799 0.26125 0.09733 0.0
C10 C 0.1332 0.39837 0.10705 0.0
C11 C 0.15965 0.43993 0.123 0.0
N12 N 0.18126 0.4414 0.11469 0.0
C13 C 0.15565 0.40041 0.09852 0.0
C14 C 0.13519 0.41837 0.11927 0.0
C15 C 0.17977 0.42227 0.10262 0.0
C16 C 0.09831 0.33048 0.05187 0.0
N17 N 0.10606 0.33378 0.07129 0.0
C18 C 0.14047 0.32548 0.06335 0.0
C19 C 0.12694 0.33182 0.07713 0.0
C20 C 0.13286 0.32178 0.04323 0.0
C21 C 0.11167 0.32461 0.03744 0.0
H22 H 0.08183 0.33249 0.04757 0.0
H23 H 0.13321 0.33536 0.09252 0.0
C24 C 0.09793 0.34994 0.16809 0.0
N25 N 0.11175 0.35961 0.15096 0.0
C26 C 0.11068 0.35191 0.18609 0.0
C27 C 0.1517 0.37402 0.16852 0.0
C28 C 0.13813 0.3713 0.15084 0.0
C29 C 0.13798 0.36406 0.1865 0.0
H30 H 0.07691 0.34031 0.16768 0.0
H31 H 0.14871 0.37815 0.137 0.0
C32 C 0.03455 0.32997 0.07308 0.0
N33 N 0.98887 0.30213 0.05182 0.0
C34 C 0.01866 0.34067 0.06943 0.0
C35 C 0.02743 0.30529 0.06567 0.0
C36 C 0.99558 0.32624 0.05871 0.0
C37 C 0.00419 0.29147 0.05503 0.0
C38 C 0.05347 0.36997 0.14202 0.0
C39 C 0.02749 0.36355 0.14407 0.0
C40 C 0.07264 0.39031 0.15332 0.0
C41 C 0.02123 0.37809 0.15699 0.0
C42 C 0.0656 0.40436 0.1661 0.0
N43 N 0.04026 0.39805 0.16763 0.0
C44 C 0.01248 0.27692 0.12532 0.0
C45 C 0.99307 0.30044 0.11262 0.0
C46 C 0.98834 0.25693 0.13181 0.0
N47 N 0.01444 0.29822 0.11609 0.0
C48 C 0.9685 0.28085 0.11878 0.0
C49 C 0.96593 0.25889 0.12885 0.0
H50 H 0.02981 0.27587 0.12835 0.0
H51 H 0.99517 0.31782 0.10569 0.0
C52 C 0.09305 0.42441 0.08887 0.0
N53 N 0.07216 0.4035 0.09718 0.0
C54 C 0.09281 0.44755 0.08577 0.0
C55 C 0.04896 0.42678 0.09873 0.0
C56 C 0.05014 0.4041 0.10169 0.0
C57 C 0.07066 0.44904 0.09096 0.0
H58 H 0.11005 0.42323 0.0848 0.0
H59 H 0.03349 0.387 0.1077 0.0
O60 O 0.07704 0.31891 0.11574 0.0
O61 O 0.10946 0.37694 0.10333 0.0
O62 O 0.05714 0.34374 0.08364 0.0
O63 O 0.05992 0.35588 0.12945 0.0
H64 H 0.11636 0.31816 0.13375 0.0
H65 H 0.05348 0.27779 0.09207 0.0
H66 H 0.12908 0.28468 0.12831 0.0
H67 H 0.06742 0.24512 0.0872 0.0
H68 H 0.16145 0.45553 0.13244 0.0
H69 H 0.15449 0.38526 0.08888 0.0
H70 H 0.11801 0.41742 0.12561 0.0
H71 H 0.1973 0.42404 0.0962 0.0
H72 H 0.15702 0.32394 0.06829 0.0
H73 H 0.10535 0.32198 0.02201 0.0
H74 H 0.09917 0.34343 0.19942 0.0
H75 H 0.17272 0.38379 0.16804 0.0
H76 H 0.02401 0.35984 0.0749 0.0
H77 H 0.03972 0.29693 0.06808 0.0
H78 H 0.983 0.33421 0.05588 0.0
H79 H 0.99838 0.27229 0.04929 0.0
H80 H 0.01235 0.34768 0.13563 0.0
H81 H 0.09271 0.39505 0.15244 0.0
H82 H 0.00124 0.37348 0.15856 0.0
H83 H 0.08028 0.42022 0.17488 0.0
H84 H 0.98748 0.24068 0.13983 0.0
H85 H 0.95178 0.28315 0.11603 0.0
H86 H 0.10974 0.46408 0.07932 0.0
H87 H 0.03148 0.42705 0.10293 0.0
Li88 Li 0.74605 0.08993 0.25848 0.0
Li89 Li 0.73599 0.09288 0.29322 0.0
Li90 Li 0.72179 0.0499 0.27872 0.0
Li91 Li 0.69999 0.07425 0.27029 0.0
C92 C 0.77505 0.071 0.27784 0.0
N93 N 0.8092 0.05361 0.26888 0.0
C94 C 0.79497 0.07541 0.29116 0.0
C95 C 0.77242 0.05766 0.26 0.0
C96 C 0.81207 0.06649 0.28634 0.0
C97 C 0.7899 0.04905 0.25574 0.0
C98 C 0.73919 0.13405 0.27816 0.0
C99 C 0.73176 0.16304 0.29874 0.0
N100 N 0.75717 0.18166 0.29656 0.0
C101 C 0.76519 0.1535 0.27603 0.0
C102 C 0.72228 0.13886 0.28951 0.0
C103 C 0.77391 0.17743 0.28548 0.0
C104 C 0.76448 0.10774 0.21891 0.0
N105 N 0.77147 0.10746 0.23822 0.0
C106 C 0.81642 0.13438 0.23004 0.0
C107 C 0.79682 0.12053 0.24398 0.0
C108 C 0.80989 0.13512 0.20997 0.0
C109 C 0.78351 0.1216 0.20445 0.0
H110 H 0.74413 0.09744 0.2148 0.0
H111 H 0.80181 0.12053 0.25951 0.0
C112 C 0.73592 0.1131 0.33196 0.0
N113 N 0.75092 0.11328 0.31655 0.0
C114 C 0.7475 0.12718 0.34934 0.0
C115 C 0.7897 0.14139 0.3346 0.0
C116 C 0.77731 0.12717 0.31748 0.0
C117 C 0.77475 0.1413 0.3509 0.0
H118 H 0.71502 0.10171 0.33093 0.0
H119 H 0.78872 0.12694 0.30497 0.0
C120 C 0.69918 0.03543 0.24026 0.0
N121 N 0.67073 0.99111 0.21761 0.0
C122 C 0.67534 0.01544 0.24725 0.0
C123 C 0.70866 0.03283 0.22181 0.0
C124 C 0.66121 0.9932 0.23557 0.0
C125 C 0.69397 0.01029 0.21056 0.0
C126 C 0.67813 0.0484 0.30495 0.0
C127 C 0.66395 0.02126 0.30622 0.0
C128 C 0.66718 0.06296 0.312 0.0
C129 C 0.63897 0.00913 0.31445 0.0
C130 C 0.64214 0.0501 0.3201 0.0
N131 N 0.62867 0.02369 0.32115 0.0
C132 C 0.72328 0.01574 0.30519 0.0
C133 C 0.7138 0.99747 0.27269 0.0
C134 C 0.72206 0.99339 0.31296 0.0
N135 N 0.7189 0.0173 0.28546 0.0
C136 C 0.712 0.97448 0.27991 0.0
C137 C 0.71617 0.97231 0.30031 0.0
H138 H 0.72759 0.03195 0.31493 0.0
H139 H 0.71126 0.9994 0.25694 0.0
C140 C 0.66914 0.09436 0.25536 0.0
N141 N 0.66771 0.07253 0.26319 0.0
C142 C 0.64649 0.09522 0.25125 0.0
C143 C 0.6212 0.05094 0.26292 0.0
C144 C 0.6443 0.05085 0.26656 0.0
C145 C 0.62201 0.07341 0.25532 0.0
H146 H 0.68794 0.11128 0.25254 0.0
H147 H 0.64335 0.03361 0.27267 0.0
O148 O 0.75799 0.07935 0.2825 0.0
O149 O 0.73049 0.11022 0.26956 0.0
O150 O 0.71341 0.05732 0.25147 0.0
O151 O 0.70267 0.06061 0.29702 0.0
H152 H 0.79716 0.08559 0.30508 0.0
H153 H 0.75705 0.05395 0.24957 0.0
H154 H 0.8276 0.06978 0.2965 0.0
H155 H 0.78811 0.03871 0.24199 0.0
H156 H 0.71894 0.16698 0.30767 0.0
H157 H 0.77854 0.15005 0.26735 0.0
H158 H 0.70212 0.12399 0.29133 0.0
H159 H 0.79402 0.19262 0.28406 0.0
H160 H 0.83645 0.14496 0.23502 0.0
H161 H 0.77768 0.12166 0.18913 0.0
H162 H 0.73527 0.12634 0.36165 0.0
H163 H 0.81075 0.15226 0.33511 0.0
H164 H 0.66819 0.01679 0.26176 0.0
H165 H 0.72722 0.04804 0.21626 0.0
H166 H 0.64277 0.97752 0.24085 0.0
H167 H 0.70106 0.00801 0.19625 0.0
H168 H 0.672 0.00962 0.30079 0.0
H169 H 0.67766 0.08393 0.31088 0.0
H170 H 0.62776 0.98815 0.31546 0.0
H171 H 0.63336 0.06113 0.32548 0.0
H172 H 0.72519 0.99242 0.32881 0.0
H173 H 0.70772 0.95872 0.26966 0.0
H174 H 0.6482 0.11282 0.24499 0.0
H175 H 0.60294 0.03374 0.26661 0.0
Li176 Li 0.65816 0.74565 0.42439 0.0
Li177 Li 0.64456 0.73685 0.45938 0.0
Li178 Li 0.67359 0.72144 0.44402 0.0
Li179 Li 0.62696 0.69999 0.43556 0.0
C180 C 0.70005 0.78166 0.44437 0.0
N181 N 0.73953 0.83111 0.43492 0.0
C182 C 0.69911 0.80341 0.45123 0.0
C183 C 0.72123 0.78504 0.43296 0.0
C184 C 0.71922 0.82826 0.44622 0.0
C185 C 0.74096 0.81021 0.42828 0.0
C186 C 0.60001 0.73074 0.44106 0.0
C187 C 0.55961 0.71103 0.45937 0.0
N188 N 0.55491 0.72991 0.45263 0.0
C189 C 0.59468 0.74982 0.43416 0.0
C190 C 0.58227 0.7111 0.45365 0.0
C191 C 0.57182 0.74912 0.44024 0.0
C192 C 0.6764 0.77162 0.38637 0.0
N193 N 0.6667 0.77189 0.40472 0.0
C194 C 0.66981 0.81282 0.39785 0.0
C195 C 0.66308 0.79177 0.41051 0.0
C196 C 0.68038 0.81349 0.37894 0.0
C197 C 0.68339 0.79236 0.37313 0.0
H198 H 0.67894 0.75548 0.38207 0.0
H199 H 0.65527 0.79141 0.42518 0.0
C200 C 0.64225 0.74319 0.50087 0.0
N201 N 0.63855 0.75114 0.48275 0.0
C202 C 0.63955 0.75446 0.51834 0.0
C203 C 0.62944 0.78202 0.49815 0.0
C204 C 0.6323 0.77018 0.48107 0.0
C205 C 0.63326 0.77432 0.51711 0.0
H206 H 0.64789 0.72849 0.50173 0.0
H207 H 0.6301 0.77658 0.46646 0.0
C208 C 0.6693 0.70223 0.4061 0.0
N209 N 0.69386 0.68106 0.38447 0.0
C210 C 0.6568 0.67542 0.40272 0.0
C211 C 0.69418 0.7183 0.39832 0.0
C212 C 0.66956 0.66509 0.39177 0.0
C213 C 0.70631 0.70722 0.38749 0.0
C214 C 0.63249 0.68143 0.47404 0.0
C215 C 0.64283 0.66481 0.47417 0.0
C216 C 0.61152 0.67612 0.48652 0.0
C217 C 0.63163 0.64284 0.48645 0.0
C218 C 0.60087 0.65395 0.49859 0.0
N219 N 0.61104 0.63789 0.49829 0.0
C220 C 0.71801 0.73338 0.46534 0.0
C221 C 0.70594 0.69732 0.44397 0.0
C222 C 0.73804 0.73052 0.47352 0.0
N223 N 0.70229 0.71678 0.45099 0.0
C224 C 0.72593 0.69384 0.45165 0.0
C225 C 0.74195 0.71029 0.4669 0.0
H226 H 0.71448 0.74845 0.4709 0.0
H227 H 0.69277 0.68378 0.43306 0.0
C228 C 0.57705 0.66837 0.41862 0.0
N229 N 0.59638 0.66776 0.42908 0.0
C230 C 0.55355 0.64547 0.41511 0.0
C231 C 0.57062 0.62157 0.43251 0.0
C232 C 0.59381 0.64489 0.43555 0.0
C233 C 0.5499 0.62164 0.4224 0.0
H234 H 0.57972 0.68674 0.41326 0.0
H235 H 0.60965 0.64468 0.44323 0.0
O236 O 0.68034 0.75718 0.4488 0.0
O237 O 0.62252 0.73137 0.43551 0.0
O238 O 0.65701 0.71269 0.41665 0.0
O239 O 0.64331 0.70311 0.46215 0.0
H240 H 0.6829 0.80111 0.46016 0.0
H241 H 0.72243 0.76841 0.42781 0.0
H242 H 0.71865 0.84527 0.45129 0.0
H243 H 0.75742 0.81312 0.41938 0.0
H244 H 0.54574 0.69594 0.46914 0.0
H245 H 0.60805 0.76505 0.42425 0.0
H246 H 0.58587 0.69596 0.45882 0.0
H247 H 0.56751 0.76383 0.43509 0.0
H248 H 0.66669 0.8284 0.40284 0.0
H249 H 0.69155 0.79213 0.35872 0.0
H250 H 0.64318 0.74827 0.53261 0.0
H251 H 0.62446 0.79717 0.49651 0.0
H252 H 0.63747 0.66273 0.40849 0.0
H253 H 0.70404 0.73909 0.40065 0.0
H254 H 0.66016 0.64437 0.38909 0.0
H255 H 0.72561 0.71941 0.38146 0.0
H256 H 0.65907 0.66861 0.46468 0.0
H257 H 0.60366 0.68906 0.48706 0.0
H258 H 0.6393 0.62971 0.48656 0.0
H259 H 0.58458 0.64958 0.50826 0.0
H260 H 0.75009 0.74376 0.48514 0.0
H261 H 0.72807 0.67778 0.44634 0.0
H262 H 0.53841 0.64647 0.40683 0.0
H263 H 0.5688 0.60379 0.43851 0.0
Li264 Li 0.95315 0.67519 0.61315 0.0
Li265 Li 0.92954 0.62963 0.60427 0.0
Li266 Li 0.91698 0.66065 0.58971 0.0
Li267 Li 0.909 0.64771 0.62618 0.0
C268 C 0.97257 0.66049 0.58033 0.0
N269 N 0.01751 0.66076 0.56915 0.0
C270 C 0.98734 0.65636 0.59458 0.0
C271 C 0.98063 0.66474 0.5604 0.0
C272 C 0.01 0.65657 0.58863 0.0
C273 C 0.00342 0.66482 0.55504 0.0
C274 C 0.94348 0.63201 0.64638 0.0
C275 C 0.92584 0.59649 0.66994 0.0
N276 N 0.95016 0.60496 0.67725 0.0
C277 C 0.96828 0.64047 0.65422 0.0
C278 C 0.92207 0.60993 0.65436 0.0
C279 C 0.97125 0.62648 0.66978 0.0
C280 C 0.98732 0.70783 0.64178 0.0
N281 N 0.98594 0.70312 0.62183 0.0
C282 C 0.02953 0.73808 0.61734 0.0
C283 C 0.00637 0.71779 0.60952 0.0
C284 C 0.03139 0.74343 0.63792 0.0
C285 C 0.00988 0.72799 0.65016 0.0
H286 H 0.97072 0.69589 0.65117 0.0
H287 H 0.00465 0.71389 0.59365 0.0
C288 C 0.91756 0.58364 0.58332 0.0
N289 N 0.93172 0.59911 0.59878 0.0
C290 C 0.91734 0.56037 0.57947 0.0
C291 C 0.94655 0.56959 0.60734 0.0
C292 C 0.94651 0.59279 0.61045 0.0
C293 C 0.93165 0.55295 0.5918 0.0
H294 H 0.90606 0.58918 0.5742 0.0
H295 H 0.95822 0.60561 0.62227 0.0
C296 C 0.93581 0.70775 0.62051 0.0
N297 N 0.96186 0.75831 0.63455 0.0
C298 C 0.93025 0.71353 0.63949 0.0
C299 C 0.95445 0.72776 0.6086 0.0
C300 C 0.94366 0.7392 0.64633 0.0
C301 C 0.96747 0.75316 0.61599 0.0
C302 C 0.87075 0.60362 0.6042 0.0
C303 C 0.84827 0.603 0.59715 0.0
C304 C 0.86878 0.58165 0.61355 0.0
C305 C 0.82416 0.58048 0.59978 0.0
C306 C 0.84433 0.55951 0.61589 0.0
N307 N 0.82271 0.55939 0.60903 0.0
C308 C 0.88264 0.64874 0.55688 0.0
C309 C 0.90816 0.69358 0.56443 0.0
C310 C 0.86796 0.65379 0.54313 0.0
N311 N 0.90175 0.66848 0.56763 0.0
C312 C 0.89429 0.69957 0.55065 0.0
C313 C 0.87322 0.67947 0.54028 0.0
H314 H 0.87797 0.62892 0.55967 0.0
H315 H 0.92337 0.70893 0.57313 0.0
C316 C 0.89988 0.64997 0.66681 0.0
N317 N 0.88747 0.64187 0.64896 0.0
C318 C 0.88581 0.64706 0.68424 0.0
C319 C 0.84632 0.62743 0.66468 0.0
C320 C 0.86122 0.63097 0.64758 0.0
C321 C 0.8586 0.6356 0.68337 0.0
H322 H 0.92085 0.65915 0.66744 0.0
H323 H 0.85181 0.62527 0.63323 0.0
O324 O 0.95022 0.66025 0.58573 0.0
O325 O 0.9403 0.64551 0.63112 0.0
O326 O 0.92327 0.68262 0.61375 0.0
O327 O 0.89453 0.62548 0.60161 0.0
H328 H 0.98148 0.65314 0.61006 0.0
H329 H 0.96938 0.66794 0.54919 0.0
H330 H 0.02162 0.65342 0.59951 0.0
H331 H 0.0099 0.66809 0.53967 0.0
H332 H 0.90943 0.57938 0.67625 0.0
H333 H 0.98508 0.65754 0.64825 0.0
H334 H 0.9027 0.6034 0.64879 0.0
H335 H 0.99034 0.63274 0.67592 0.0
H336 H 0.04565 0.74968 0.6074 0.0
H337 H 0.0106 0.73123 0.66613 0.0
H338 H 0.90558 0.54798 0.56735 0.0
H339 H 0.9582 0.56473 0.61694 0.0
H340 H 0.91573 0.6984 0.64884 0.0
H341 H 0.95938 0.7236 0.59403 0.0
H342 H 0.93959 0.74391 0.66101 0.0
H343 H 0.98217 0.76876 0.60703 0.0
H344 H 0.84935 0.61986 0.59001 0.0
H345 H 0.88593 0.58155 0.61882 0.0
H346 H 0.80661 0.57981 0.59452 0.0
H347 H 0.84256 0.54239 0.62311 0.0
H348 H 0.85184 0.63759 0.53564 0.0
H349 H 0.89957 0.71972 0.54863 0.0
H350 H 0.89626 0.65427 0.69817 0.0
H351 H 0.8254 0.61834 0.66325 0.0
Li352 Li 0.30529 0.93025 0.77187 0.0
Li353 Li 0.28289 0.9547 0.77947 0.0
Li354 Li 0.26883 0.9112 0.79609 0.0
Li355 Li 0.25936 0.9141 0.76092 0.0
C356 C 0.32457 0.9572 0.80906 0.0
N357 N 0.36937 0.98341 0.83166 0.0
C358 C 0.34082 0.98403 0.80681 0.0
C359 C 0.33091 0.94379 0.82309 0.0
C360 C 0.36344 0.99691 0.81828 0.0
C361 C 0.35369 0.95736 0.83429 0.0
C362 C 0.30044 0.96786 0.74086 0.0
C363 C 0.29257 0.99786 0.72197 0.0
N364 N 0.31829 0.01175 0.71729 0.0
C365 C 0.32676 0.98235 0.73578 0.0
C366 C 0.28316 0.97557 0.73382 0.0
C367 C 0.33542 0.0045 0.72387 0.0
C368 C 0.33814 0.91202 0.75712 0.0
N369 N 0.33799 0.9329 0.76533 0.0
C370 C 0.38451 0.95673 0.76596 0.0
C371 C 0.36058 0.95522 0.76931 0.0
C372 C 0.38527 0.93508 0.7583 0.0
C373 C 0.36162 0.91261 0.7536 0.0
H374 H 0.32 0.89469 0.75356 0.0
H375 H 0.36009 0.97195 0.77502 0.0
C376 C 0.27074 0.98746 0.80015 0.0
N377 N 0.28665 0.98795 0.78537 0.0
C378 C 0.27296 0.01054 0.80735 0.0
C379 C 0.30757 0.03437 0.78364 0.0
C380 C 0.30484 0.01079 0.77704 0.0
C381 C 0.29174 0.03452 0.79923 0.0
H382 H 0.25679 0.9691 0.80681 0.0
H383 H 0.31787 0.01092 0.76575 0.0
C384 C 0.27683 0.8733 0.77928 0.0
N385 N 0.281 0.8315 0.7927 0.0
C386 C 0.2596 0.84821 0.77239 0.0
C387 C 0.29628 0.87712 0.79288 0.0
C388 C 0.26199 0.82733 0.77938 0.0
C389 C 0.29806 0.85576 0.79951 0.0
C390 C 0.22254 0.91878 0.78037 0.0
C391 C 0.20177 0.89508 0.78685 0.0
C392 C 0.21767 0.93576 0.76918 0.0
C393 C 0.17642 0.88849 0.78162 0.0
C394 C 0.19204 0.92847 0.76427 0.0
N395 N 0.17212 0.90516 0.7705 0.0
C396 C 0.2629 0.90399 0.83782 0.0
C397 C 0.23695 0.86607 0.81866 0.0
C398 C 0.25204 0.89037 0.85551 0.0
N399 N 0.25524 0.89168 0.81991 0.0
C400 C 0.22552 0.85172 0.83596 0.0
C401 C 0.23291 0.86391 0.8547 0.0
H402 H 0.27705 0.92453 0.83833 0.0
H403 H 0.23085 0.8569 0.80419 0.0
C404 C 0.23209 0.9049 0.72343 0.0
N405 N 0.23314 0.89503 0.74153 0.0
C406 C 0.21123 0.89037 0.7105 0.0
C407 C 0.19346 0.85568 0.73488 0.0
C408 C 0.21458 0.87081 0.74727 0.0
C409 C 0.19136 0.86552 0.71631 0.0
H410 H 0.24721 0.92412 0.71913 0.0
H411 H 0.21595 0.86347 0.76173 0.0
O412 O 0.30217 0.94434 0.7981 0.0
O413 O 0.29164 0.94608 0.75244 0.0
O414 O 0.27454 0.89395 0.77285 0.0
O415 O 0.24754 0.92531 0.78492 0.0
H416 H 0.33626 0.99476 0.79608 0.0
H417 H 0.31829 0.92316 0.82547 0.0
H418 H 0.3763 0.01763 0.81654 0.0
H419 H 0.35885 0.94719 0.84515 0.0
H420 H 0.27943 0.00412 0.7165 0.0
H421 H 0.34036 0.97654 0.74093 0.0
H422 H 0.26273 0.96457 0.73754 0.0
H423 H 0.35575 0.01593 0.71986 0.0
H424 H 0.40223 0.97471 0.76928 0.0
H425 H 0.36119 0.89541 0.74772 0.0
H426 H 0.26069 0.00955 0.81968 0.0
H427 H 0.3222 0.05229 0.7768 0.0
H428 H 0.24453 0.84488 0.76175 0.0
H429 H 0.30996 0.89642 0.79811 0.0
H430 H 0.24874 0.80781 0.77422 0.0
H431 H 0.31304 0.85848 0.81005 0.0
H432 H 0.20521 0.88178 0.79561 0.0
H433 H 0.2335 0.95437 0.76437 0.0
H434 H 0.16016 0.8701 0.78636 0.0
H435 H 0.18799 0.94136 0.75552 0.0
H436 H 0.25798 0.90063 0.86962 0.0
H437 H 0.21096 0.83134 0.83466 0.0
H438 H 0.21034 0.89874 0.69636 0.0
H439 H 0.17888 0.83647 0.73984 0.0
Li440 Li 0.37444 0.30321 0.93726 0.0
Li441 Li 0.32735 0.28047 0.94406 0.0
Li442 Li 0.35629 0.26623 0.96128 0.0
Li443 Li 0.34489 0.25754 0.92577 0.0
C444 C 0.36604 0.31873 0.97709 0.0
N445 N 0.38492 0.35716 0.00596 0.0
C446 C 0.35671 0.33614 0.97829 0.0
C447 C 0.38465 0.3206 0.99081 0.0
C448 C 0.3666 0.35552 0.99291 0.0
C449 C 0.39404 0.34022 0.00523 0.0
C450 C 0.33282 0.29986 0.9067 0.0
C451 C 0.29508 0.29388 0.88864 0.0
N452 N 0.30719 0.31993 0.88515 0.0
C453 C 0.34498 0.32654 0.90283 0.0
C454 C 0.30776 0.28334 0.89945 0.0
C455 C 0.33166 0.33632 0.89193 0.0
C456 C 0.42393 0.33653 0.92032 0.0
N457 N 0.40448 0.33601 0.93139 0.0
C458 C 0.42897 0.38214 0.93571 0.0
C459 C 0.40637 0.35825 0.9387 0.0
C460 C 0.44978 0.3832 0.92492 0.0
C461 C 0.4469 0.36 0.91693 0.0
H462 H 0.42181 0.31861 0.91442 0.0
H463 H 0.39036 0.35749 0.94689 0.0
C464 C 0.27875 0.26576 0.96043 0.0
N465 N 0.29802 0.28469 0.94925 0.0
C466 C 0.25788 0.26842 0.96695 0.0
C467 C 0.27656 0.30971 0.9498 0.0
C468 C 0.29726 0.30637 0.94382 0.0
C469 C 0.25667 0.2908 0.96187 0.0
H470 H 0.28008 0.24896 0.96492 0.0
H471 H 0.31313 0.32154 0.93542 0.0
C472 C 0.40371 0.27574 0.94298 0.0
N473 N 0.45183 0.28217 0.95263 0.0
C474 C 0.41157 0.25901 0.93501 0.0
C475 C 0.42037 0.29584 0.95574 0.0
C476 C 0.43596 0.26254 0.94011 0.0
C477 C 0.44461 0.29876 0.96046 0.0
C478 C 0.30463 0.21939 0.94551 0.0
C479 C 0.30835 0.20036 0.95471 0.0
C480 C 0.28398 0.21202 0.93221 0.0
C481 C 0.29152 0.17419 0.95016 0.0
C482 C 0.2676 0.18566 0.92803 0.0
N483 N 0.2717 0.16745 0.937 0.0
C484 C 0.34579 0.25192 0.00121 0.0
C485 C 0.37723 0.2429 0.98743 0.0
C486 C 0.34672 0.24099 0.01945 0.0
N487 N 0.36088 0.25263 0.98568 0.0
C488 C 0.37905 0.23213 0.00548 0.0
C489 C 0.36349 0.23089 0.0217 0.0
H490 H 0.33278 0.25958 0.99931 0.0
H491 H 0.38849 0.24295 0.97477 0.0
C492 C 0.33004 0.2333 0.8872 0.0
N493 N 0.33832 0.23206 0.9059 0.0
C494 C 0.3242 0.21334 0.87347 0.0
C495 C 0.33559 0.19141 0.89855 0.0
C496 C 0.34165 0.21195 0.9116 0.0
C497 C 0.32659 0.19189 0.87926 0.0
H498 H 0.32775 0.24963 0.88301 0.0
H499 H 0.34865 0.2117 0.92647 0.0
O500 O 0.35635 0.29947 0.96298 0.0
O501 O 0.34557 0.28995 0.91732 0.0
O502 O 0.37982 0.27239 0.9382 0.0
O503 O 0.3212 0.24512 0.94948 0.0
H504 H 0.34219 0.3349 0.9679 0.0
H505 H 0.39164 0.30692 0.9905 0.0
H506 H 0.3597 0.36925 0.9939 0.0
H507 H 0.4085 0.34192 0.0159 0.0
H508 H 0.27562 0.28135 0.88302 0.0
H509 H 0.36444 0.33956 0.90823 0.0
H510 H 0.29816 0.26264 0.90222 0.0
H511 H 0.34078 0.35694 0.88889 0.0
H512 H 0.4301 0.3996 0.94174 0.0
H513 H 0.46247 0.35988 0.9086 0.0
H514 H 0.24345 0.25355 0.97658 0.0
H515 H 0.27644 0.32717 0.94531 0.0
H516 H 0.39894 0.24341 0.92504 0.0
H517 H 0.41477 0.30919 0.96176 0.0
H518 H 0.44227 0.24968 0.93411 0.0
H519 H 0.45771 0.31425 0.97031 0.0
H520 H 0.32422 0.20575 0.96509 0.0
H521 H 0.28072 0.22652 0.92512 0.0
H522 H 0.29427 0.15925 0.95705 0.0
H523 H 0.25164 0.17967 0.91765 0.0
H524 H 0.33448 0.24045 0.03166 0.0
H525 H 0.39191 0.22415 0.00656 0.0
H526 H 0.31732 0.21432 0.85869 0.0
H527 H 0.33801 0.17535 0.90344 0.0
Li528 Li 0.67698 0.95435 0.72176 0.0
Li529 Li 0.63001 0.93064 0.72881 0.0
Li530 Li 0.65922 0.91418 0.74032 0.0
Li531 Li 0.64754 0.91115 0.70494 0.0
C532 C 0.6725 0.96949 0.75846 0.0
N533 N 0.69953 0.01637 0.77837 0.0
C534 C 0.66081 0.98451 0.76205 0.0
C535 C 0.69782 0.97816 0.76518 0.0
C536 C 0.67482 0.00819 0.77211 0.0
C537 C 0.7112 0.00197 0.77515 0.0
C538 C 0.63717 0.95432 0.68968 0.0
C539 C 0.60771 0.94829 0.66268 0.0
N540 N 0.61638 0.97426 0.66268 0.0
C541 C 0.64602 0.98101 0.6892 0.0
C542 C 0.61807 0.93786 0.67613 0.0
C543 C 0.63517 0.99069 0.67554 0.0
C544 C 0.72644 0.98746 0.70619 0.0
N545 N 0.70666 0.98764 0.71627 0.0
C546 C 0.72763 0.03398 0.71344 0.0
C547 C 0.70706 0.01032 0.72023 0.0
C548 C 0.74783 0.03426 0.70231 0.0
C549 C 0.74733 0.01062 0.6991 0.0
H550 H 0.72556 0.96919 0.70299 0.0
H551 H 0.69089 0.01 0.72788 0.0
C552 C 0.58012 0.91374 0.74508 0.0
N553 N 0.60005 0.93353 0.73495 0.0
C554 C 0.55708 0.91406 0.74853 0.0
C555 C 0.57603 0.95588 0.73214 0.0
C556 C 0.59863 0.95464 0.72889 0.0
C557 C 0.55471 0.93519 0.74179 0.0
H558 H 0.58194 0.89745 0.75022 0.0
H559 H 0.61498 0.97052 0.72147 0.0
C560 C 0.69857 0.91492 0.7212 0.0
N561 N 0.72993 0.89453 0.73117 0.0
C562 C 0.6938 0.89129 0.71298 0.0
C563 C 0.71947 0.92835 0.73426 0.0
C564 C 0.70984 0.88127 0.71826 0.0
C565 C 0.73505 0.91767 0.73919 0.0
C566 C 0.6005 0.87369 0.72251 0.0
C567 C 0.59256 0.84873 0.72978 0.0
C568 C 0.58418 0.87753 0.70967 0.0
C569 C 0.56856 0.82797 0.72382 0.0
C570 C 0.56031 0.8563 0.70408 0.0
N571 N 0.55307 0.83215 0.71118 0.0
C572 C 0.67527 0.90552 0.7787 0.0
C573 C 0.65939 0.87062 0.75563 0.0
C574 C 0.67978 0.89088 0.79288 0.0
N575 N 0.66532 0.89519 0.76049 0.0
C576 C 0.66361 0.85537 0.76926 0.0
C577 C 0.67388 0.86539 0.78823 0.0
H578 H 0.67968 0.92507 0.78223 0.0
H579 H 0.65165 0.86299 0.74099 0.0
C580 C 0.65222 0.90652 0.66386 0.0
N581 N 0.64208 0.89234 0.68077 0.0
C582 C 0.64996 0.89412 0.64566 0.0
C583 C 0.62704 0.85269 0.66264 0.0
C584 C 0.62976 0.86592 0.68053 0.0
C585 C 0.63734 0.86683 0.64489 0.0
H586 H 0.66225 0.92754 0.66457 0.0
H587 H 0.62257 0.8551 0.69427 0.0
O588 O 0.6591 0.94629 0.74861 0.0
O589 O 0.64784 0.94457 0.70284 0.0
O590 O 0.68274 0.92477 0.71655 0.0
O591 O 0.62407 0.89419 0.72808 0.0
H592 H 0.64116 0.97799 0.7571 0.0
H593 H 0.70709 0.96671 0.76262 0.0
H594 H 0.66606 0.02007 0.77493 0.0
H595 H 0.73087 0.00899 0.78033 0.0
H596 H 0.59288 0.93573 0.65217 0.0
H597 H 0.66086 0.99409 0.69943 0.0
H598 H 0.61145 0.91729 0.67579 0.0
H599 H 0.64169 0.01127 0.67516 0.0
H600 H 0.72704 0.05169 0.71604 0.0
H601 H 0.76264 0.00995 0.69079 0.0
H602 H 0.54131 0.89796 0.7564 0.0
H603 H 0.57506 0.97256 0.72671 0.0
H604 H 0.67773 0.88068 0.70282 0.0
H605 H 0.72356 0.94677 0.74059 0.0
H606 H 0.70627 0.86291 0.71214 0.0
H607 H 0.7512 0.92777 0.74939 0.0
H608 H 0.60479 0.84538 0.7399 0.0
H609 H 0.58969 0.89676 0.70434 0.0
H610 H 0.56222 0.80855 0.72926 0.0
H611 H 0.5475 0.85905 0.69415 0.0
H612 H 0.6875 0.8993 0.80737 0.0
H613 H 0.65923 0.83605 0.76484 0.0
H614 H 0.658 0.90579 0.63233 0.0
H615 H 0.61762 0.83166 0.66281 0.0
Li616 Li 0.72139 0.67452 0.88853 0.0
Li617 Li 0.69964 0.62772 0.89598 0.0
Li618 Li 0.74625 0.65784 0.90667 0.0
Li619 Li 0.73488 0.6452 0.87165 0.0
C620 C 0.70793 0.67083 0.929 0.0
N621 N 0.6962 0.69814 0.95651 0.0
C622 C 0.68216 0.6616 0.93481 0.0
C623 C 0.72777 0.69376 0.9374 0.0
C624 C 0.67661 0.67573 0.94868 0.0
C625 C 0.72143 0.70735 0.95122 0.0
C626 C 0.67691 0.63324 0.86221 0.0
C627 C 0.64193 0.59817 0.84396 0.0
N628 N 0.62713 0.60951 0.84668 0.0
C629 C 0.66145 0.64468 0.86467 0.0
C630 C 0.66719 0.60993 0.85161 0.0
C631 C 0.6363 0.63233 0.85676 0.0
C632 C 0.73 0.71696 0.86613 0.0
N633 N 0.7174 0.7039 0.88293 0.0
C634 C 0.69854 0.73107 0.88678 0.0
C635 C 0.70198 0.71062 0.89338 0.0
C636 C 0.71095 0.74459 0.86921 0.0
C637 C 0.7271 0.73744 0.85899 0.0
H638 H 0.74179 0.71092 0.85793 0.0
H639 H 0.69167 0.6997 0.90643 0.0
C640 C 0.66734 0.57502 0.90668 0.0
N641 N 0.66729 0.59743 0.90259 0.0
C642 C 0.64399 0.55191 0.90992 0.0
C643 C 0.62093 0.57547 0.90545 0.0
C644 C 0.64475 0.59815 0.90235 0.0
C645 C 0.6203 0.55183 0.90903 0.0
H646 H 0.6855 0.575 0.90725 0.0
H647 H 0.64518 0.61624 0.89942 0.0
C648 C 0.78026 0.70251 0.88514 0.0
N649 N 0.8279 0.74714 0.89005 0.0
C650 C 0.80244 0.70473 0.87598 0.0
C651 C 0.78222 0.72317 0.89649 0.0
C652 C 0.82638 0.72739 0.87874 0.0
C653 C 0.8065 0.74553 0.89887 0.0
C654 C 0.73543 0.60396 0.88738 0.0
C655 C 0.75739 0.60308 0.89377 0.0
C656 C 0.71884 0.586 0.87324 0.0
C657 C 0.76264 0.58452 0.88562 0.0
C658 C 0.72476 0.56775 0.86543 0.0
N659 N 0.74638 0.56742 0.87171 0.0
C660 C 0.76903 0.66626 0.9458 0.0
C661 C 0.79554 0.6683 0.91861 0.0
C662 C 0.78887 0.67088 0.95933 0.0
N663 N 0.77277 0.66516 0.92585 0.0
C664 C 0.8158 0.67288 0.93154 0.0
C665 C 0.81259 0.67407 0.95223 0.0
H666 H 0.75054 0.66315 0.95123 0.0
H667 H 0.79779 0.66671 0.90274 0.0
C668 C 0.73532 0.63885 0.82998 0.0
N669 N 0.74764 0.63952 0.84727 0.0
C670 C 0.74496 0.63605 0.81169 0.0
C671 C 0.77958 0.63433 0.82939 0.0
C672 C 0.76946 0.63749 0.8473 0.0
C673 C 0.76741 0.63381 0.81127 0.0
H674 H 0.71825 0.64095 0.83037 0.0
H675 H 0.77926 0.63877 0.86122 0.0
O676 O 0.71369 0.6572 0.91546 0.0
O677 O 0.70156 0.64501 0.86991 0.0
O678 O 0.75668 0.68042 0.88264 0.0
O679 O 0.73013 0.62221 0.89499 0.0
H680 H 0.66659 0.64376 0.92863 0.0
H681 H 0.74786 0.7009 0.93342 0.0
H682 H 0.65673 0.66888 0.95323 0.0
H683 H 0.73659 0.72517 0.95778 0.0
H684 H 0.63411 0.58006 0.83581 0.0
H685 H 0.66863 0.66272 0.87278 0.0
H686 H 0.679 0.60103 0.84926 0.0
H687 H 0.62405 0.64087 0.85868 0.0
H688 H 0.68602 0.73598 0.89521 0.0
H689 H 0.73665 0.74687 0.84518 0.0
H690 H 0.64451 0.53428 0.91308 0.0
H691 H 0.60318 0.57636 0.90453 0.0
H692 H 0.80121 0.68904 0.86697 0.0
H693 H 0.76518 0.72207 0.90325 0.0
H694 H 0.84374 0.72929 0.87187 0.0
H695 H 0.80832 0.76163 0.90767 0.0
H696 H 0.77025 0.61656 0.9049 0.0
H697 H 0.70162 0.58621 0.86833 0.0
H698 H 0.77965 0.58371 0.89036 0.0
H699 H 0.71216 0.55385 0.85439 0.0
H700 H 0.78545 0.6713 0.97518 0.0
H701 H 0.8338 0.67546 0.92537 0.0
H702 H 0.73501 0.63569 0.79803 0.0
H703 H 0.79718 0.6331 0.82965 0.0
Li704 Li 0.09319 0.7358 0.04033 0.0
Li705 Li 0.08869 0.74294 0.07546 0.0
Li706 Li 0.07392 0.69813 0.06391 0.0
Li707 Li 0.04903 0.72022 0.05633 0.0
C708 C 0.12794 0.72237 0.0567 0.0
N709 N 0.16327 0.70839 0.04318 0.0
C710 C 0.15279 0.73356 0.06513 0.0
C711 C 0.12107 0.70397 0.04149 0.0
C712 C 0.17038 0.72628 0.05806 0.0
C713 C 0.13917 0.69717 0.03484 0.0
C714 C 0.08692 0.78111 0.05773 0.0
C715 C 0.08016 0.8132 0.07447 0.0
N716 N 0.1054 0.83142 0.07091 0.0
C717 C 0.11271 0.80016 0.05407 0.0
C718 C 0.07042 0.78765 0.06789 0.0
C719 C 0.12172 0.82548 0.06092 0.0
C720 C 0.09958 0.74767 0.99944 0.0
N721 N 0.11278 0.75044 0.01669 0.0
C722 C 0.15347 0.77572 -2e-05 0.0
C723 C 0.1392 0.76427 0.01732 0.0
C724 C 0.14036 0.77296 0.98186 0.0
C725 C 0.11304 0.75866 0.98173 0.0
H726 H 0.07853 0.73706 0.9995 0.0
H727 H 0.14922 0.76669 0.03133 0.0
C728 C 0.0941 0.77384 0.1103 0.0
N729 N 0.10667 0.76807 0.09597 0.0
C730 C 0.10824 0.79391 0.12393 0.0
C731 C 0.14794 0.80113 0.10816 0.0
C732 C 0.13305 0.78123 0.0947 0.0
C733 C 0.13553 0.80783 0.12291 0.0
H734 H 0.07313 0.7633 0.11091 0.0
H735 H 0.14251 0.77675 0.08283 0.0
C736 C 0.04771 0.68218 0.02426 0.0
N737 N 0.02132 0.64289 0.99666 0.0
C738 C 0.02127 0.66433 0.02683 0.0
C739 C 0.06066 0.68012 0.00751 0.0
C740 C 0.00829 0.64458 0.01277 0.0
C741 C 0.04701 0.66011 0.99377 0.0
C742 C 0.03424 0.70027 0.09381 0.0
C743 C 0.02127 0.67404 0.09932 0.0
C744 C 0.02402 0.71607 0.09934 0.0
C745 C 0.99816 0.66401 0.11024 0.0
C746 C 0.00086 0.7053 0.11024 0.0
N747 N 0.98852 0.67971 0.11541 0.0
C748 C 0.09113 0.66493 0.0799 0.0
C749 C 0.05013 0.64288 0.06387 0.0
C750 C 0.09069 0.64147 0.08312 0.0
N751 N 0.07135 0.66531 0.06993 0.0
C752 C 0.04879 0.61896 0.06688 0.0
C753 C 0.06946 0.61805 0.07632 0.0
H754 H 0.10752 0.68292 0.08506 0.0
H755 H 0.03418 0.64347 0.05675 0.0
C756 C 0.01519 0.73294 0.03711 0.0
N757 N 0.01536 0.71541 0.05009 0.0
C758 C 0.99173 0.72953 0.02963 0.0
C759 C 0.96887 0.69045 0.04945 0.0
C760 C 0.99278 0.69458 0.05651 0.0
C761 C 0.96813 0.70777 0.03549 0.0
H762 H 0.0334 0.74911 0.03199 0.0
H763 H 0.99325 0.68051 0.06645 0.0
O764 O 0.11053 0.72942 0.06339 0.0
O765 O 0.07801 0.75604 0.05178 0.0
O766 O 0.06064 0.70203 0.0377 0.0
O767 O 0.05693 0.7104 0.08322 0.0
H768 H 0.15846 0.74767 0.07704 0.0
H769 H 0.10186 0.69479 0.03508 0.0
H770 H 0.18967 0.73481 0.06443 0.0
H771 H 0.13403 0.68292 0.02309 0.0
H772 H 0.06768 0.81853 0.08247 0.0
H773 H 0.12573 0.79534 0.0463 0.0
H774 H 0.05039 0.7731 0.07079 0.0
H775 H 0.1417 0.8404 0.05835 0.0
H776 H 0.17451 0.78652 0.00073 0.0
H777 H 0.10216 0.75646 0.96818 0.0
H778 H 0.09798 0.79852 0.13511 0.0
H779 H 0.16892 0.81173 0.10663 0.0
H780 H 0.01097 0.66533 0.03976 0.0
H781 H 0.08104 0.69381 0.00505 0.0
H782 H 0.98787 0.63055 0.0147 0.0
H783 H 0.05684 0.6583 0.98079 0.0
H784 H 0.02899 0.66158 0.09526 0.0
H785 H 0.03357 0.73628 0.09493 0.0
H786 H 0.9879 0.64375 0.11459 0.0
H787 H 0.99263 0.71725 0.1145 0.0
H788 H 0.10712 0.64179 0.09043 0.0
H789 H 0.03169 0.60137 0.06189 0.0
H790 H 0.9922 0.74317 0.01866 0.0
H791 H 0.95118 0.67353 0.05454 0.0
Li792 Li 0.32973 0.049 0.22065 0.0
Li793 Li 0.37461 0.0743 0.22945 0.0
Li794 Li 0.34179 0.08676 0.24201 0.0
Li795 Li 0.35629 0.09177 0.20608 0.0
C796 C 0.32894 0.03318 0.25873 0.0
N797 N 0.29748 0.98838 0.28008 0.0
C798 C 0.33061 0.01078 0.25559 0.0
C799 C 0.31135 0.03284 0.27278 0.0
C800 C 0.31449 0.9883 0.2665 0.0
C801 C 0.29561 0.01 0.28342 0.0
C802 C 0.37554 0.05215 0.19557 0.0
C803 C 0.4158 0.0604 0.18037 0.0
N804 N 0.40815 0.03472 0.18208 0.0
C805 C 0.36801 0.02582 0.19709 0.0
C806 C 0.39955 0.06957 0.18703 0.0
C807 C 0.38478 0.0174 0.19019 0.0
C808 C 0.30184 0.0098 0.19321 0.0
N809 N 0.30147 0.01535 0.21288 0.0
C810 C 0.26109 0.97566 0.21735 0.0
C811 C 0.28138 0.99901 0.22491 0.0
C812 C 0.26115 0.96953 0.19711 0.0
C813 C 0.28184 0.98696 0.18499 0.0
H814 H 0.31752 0.02343 0.18376 0.0
H815 H 0.28061 0.00426 0.2402 0.0
C816 C 0.42841 0.09732 0.2383 0.0
N817 N 0.40602 0.07419 0.23602 0.0
C818 C 0.45207 0.09802 0.24116 0.0
C819 C 0.42916 0.05107 0.2397 0.0
C820 C 0.40592 0.05127 0.2372 0.0
C821 C 0.45266 0.07468 0.24148 0.0
H822 H 0.428 0.11529 0.23754 0.0
H823 H 0.3879 0.03313 0.23567 0.0
C824 C 0.29586 0.06371 0.21142 0.0
N825 N 0.24481 0.03418 0.19915 0.0
C826 C 0.28993 0.05982 0.19106 0.0
C827 C 0.27588 0.05279 0.22554 0.0
C828 C 0.26398 0.04476 0.18516 0.0
C829 C 0.25017 0.03788 0.21903 0.0
C830 C 0.39179 0.13465 0.22467 0.0
C831 C 0.38636 0.15317 0.23267 0.0
C832 C 0.41167 0.14226 0.21058 0.0
C833 C 0.40073 0.17897 0.22623 0.0
C834 C 0.42557 0.16823 0.2045 0.0
N835 N 0.41985 0.1859 0.21237 0.0
C836 C 0.34214 0.10735 0.28081 0.0
C837 C 0.31717 0.11305 0.25576 0.0
C838 C 0.3373 0.12259 0.29417 0.0
N839 N 0.33231 0.10322 0.26196 0.0
C840 C 0.312 0.12845 0.26853 0.0
C841 C 0.32255 0.13385 0.28788 0.0
H842 H 0.35442 0.09955 0.28522 0.0
H843 H 0.30992 0.10975 0.2406 0.0
C844 C 0.36576 0.10374 0.16508 0.0
N845 N 0.36113 0.11193 0.18276 0.0
C846 C 0.36761 0.11716 0.14746 0.0
C847 C 0.36019 0.14737 0.16663 0.0
C848 C 0.35807 0.13313 0.18382 0.0
C849 C 0.36476 0.13925 0.14814 0.0
H850 H 0.36745 0.08645 0.16458 0.0
H851 H 0.35355 0.13869 0.19798 0.0
O852 O 0.34481 0.0555 0.24845 0.0
O853 O 0.35955 0.06085 0.20249 0.0
O854 O 0.32118 0.07764 0.2175 0.0
O855 O 0.37771 0.10922 0.2306 0.0
H856 H 0.34393 0.01063 0.24466 0.0
H857 H 0.30981 0.05 0.27539 0.0
H858 H 0.31545 0.97078 0.26414 0.0
H859 H 0.28186 0.00943 0.2943 0.0
H860 H 0.43451 0.0737 0.17385 0.0
H861 H 0.34962 0.01209 0.20384 0.0
H862 H 0.40565 0.08998 0.18567 0.0
H863 H 0.37928 0.99711 0.1914 0.0
H864 H 0.2452 0.96288 0.22708 0.0
H865 H 0.2826 0.98293 0.1693 0.0
H866 H 0.46981 0.11662 0.24247 0.0
H867 H 0.42879 0.03264 0.24016 0.0
H868 H 0.30524 0.06807 0.17997 0.0
H869 H 0.28023 0.0555 0.24136 0.0
H870 H 0.25908 0.0414 0.16947 0.0
H871 H 0.23449 0.02914 0.22978 0.0
H872 H 0.37118 0.14772 0.24368 0.0
H873 H 0.41619 0.12821 0.20428 0.0
H874 H 0.39666 0.19348 0.23223 0.0
H875 H 0.44089 0.17434 0.19351 0.0
H876 H 0.34597 0.12648 0.30891 0.0
H877 H 0.30032 0.13655 0.26316 0.0
H878 H 0.37112 0.11031 0.13346 0.0
H879 H 0.35744 0.16405 0.16768 0.0
Li880 Li 0.30061 0.37555 0.39815 0.0
Li881 Li 0.28215 0.33114 0.38879 0.0
Li882 Li 0.26561 0.35734 0.37408 0.0
Li883 Li 0.25532 0.34207 0.40982 0.0
C884 C 0.32481 0.37889 0.36469 0.0
N885 N 0.37463 0.41447 0.35238 0.0
C886 C 0.34504 0.37349 0.36714 0.0
C887 C 0.32991 0.4023 0.35585 0.0
C888 C 0.37008 0.39173 0.36083 0.0
C889 C 0.35523 0.42008 0.34978 0.0
C890 C 0.29516 0.32863 0.42673 0.0
C891 C 0.28317 0.2937 0.4503 0.0
N892 N 0.30653 0.29516 0.44727 0.0
C893 C 0.31908 0.32985 0.4239 0.0
C894 C 0.27706 0.31046 0.44005 0.0
C895 C 0.32443 0.31272 0.4344 0.0
C896 C 0.33128 0.42962 0.40604 0.0
N897 N 0.3317 0.40696 0.40534 0.0
C898 C 0.37757 0.42966 0.41125 0.0
C899 C 0.35412 0.40653 0.40839 0.0
C900 C 0.37795 0.45354 0.41136 0.0
C901 C 0.35423 0.45321 0.40909 0.0
H902 H 0.31318 0.42947 0.40393 0.0
H903 H 0.354 0.3883 0.40788 0.0
C904 C 0.29858 0.30641 0.36221 0.0
N905 N 0.28893 0.30374 0.38102 0.0
C906 C 0.30366 0.28775 0.35421 0.0
C907 C 0.2879 0.26307 0.38475 0.0
C908 C 0.28311 0.28232 0.3922 0.0
C909 C 0.29853 0.26578 0.36554 0.0
H910 H 0.30193 0.32289 0.35319 0.0
H911 H 0.27434 0.27987 0.40674 0.0
C912 C 0.25657 0.39177 0.39308 0.0
N913 N 0.23237 0.41912 0.38142 0.0
C914 C 0.2325 0.3857 0.40124 0.0
C915 C 0.26843 0.41191 0.37913 0.0
C916 C 0.22056 0.39973 0.39512 0.0
C917 C 0.25585 0.42545 0.37338 0.0
C918 C 0.23431 0.29686 0.37834 0.0
C919 C 0.23435 0.29195 0.35793 0.0
C920 C 0.22407 0.27619 0.39191 0.0
C921 C 0.22427 0.26633 0.35143 0.0
C922 C 0.21413 0.25085 0.3848 0.0
N923 N 0.21447 0.24648 0.36488 0.0
C924 C 0.26385 0.36591 0.33292 0.0
C925 C 0.22695 0.36007 0.35099 0.0
C926 C 0.25289 0.36778 0.315 0.0
N927 N 0.25085 0.36223 0.35042 0.0
C928 C 0.21545 0.36228 0.33346 0.0
C929 C 0.22837 0.36594 0.31516 0.0
H930 H 0.28249 0.36681 0.33282 0.0
H931 H 0.21661 0.35618 0.365 0.0
C932 C 0.23458 0.34261 0.44817 0.0
N933 N 0.22907 0.33192 0.4296 0.0
C934 C 0.21446 0.33673 0.46177 0.0
C935 C 0.1836 0.30877 0.43689 0.0
C936 C 0.20423 0.31521 0.42382 0.0
C937 C 0.18851 0.31975 0.45611 0.0
H938 H 0.25453 0.35611 0.45225 0.0
H939 H 0.20038 0.3075 0.40879 0.0
O940 O 0.30022 0.36144 0.37107 0.0
O941 O 0.28965 0.34544 0.41682 0.0
O942 O 0.26847 0.37811 0.39877 0.0
O943 O 0.24479 0.32185 0.38505 0.0
H944 H 0.34155 0.35561 0.37417 0.0
H945 H 0.3145 0.40676 0.35376 0.0
H946 H 0.38594 0.38789 0.36276 0.0
H947 H 0.35947 0.43833 0.34302 0.0
H948 H 0.26933 0.27951 0.46062 0.0
H949 H 0.33319 0.34357 0.4135 0.0
H950 H 0.25845 0.30922 0.44241 0.0
H951 H 0.34279 0.31333 0.43227 0.0
H952 H 0.39531 0.42883 0.4127 0.0
H953 H 0.35337 0.471 0.40955 0.0
H954 H 0.31102 0.29028 0.33909 0.0
H955 H 0.28343 0.24634 0.39395 0.0
H956 H 0.22307 0.37031 0.41212 0.0
H957 H 0.28704 0.4169 0.37269 0.0
H958 H 0.20189 0.39517 0.40126 0.0
H959 H 0.26474 0.44097 0.36251 0.0
H960 H 0.24236 0.30779 0.34728 0.0
H961 H 0.22415 0.27974 0.40778 0.0
H962 H 0.22432 0.26222 0.33569 0.0
H963 H 0.20629 0.23466 0.39512 0.0
H964 H 0.26339 0.37054 0.30114 0.0
H965 H 0.1963 0.3603 0.33411 0.0
H966 H 0.21914 0.34552 0.47647 0.0
H967 H 0.16393 0.29605 0.43171 0.0
Li968 Li 0.94857 0.27833 0.5535 0.0
Li969 Li 0.92313 0.30195 0.56274 0.0
Li970 Li 0.91094 0.25869 0.57548 0.0
Li971 Li 0.90379 0.26339 0.54161 0.0
C972 C 0.95085 0.28854 0.59881 0.0
N973 N 0.96214 0.28055 0.63729 0.0
C974 C 0.93806 0.29204 0.61501 0.0
C975 C 0.96952 0.28118 0.60216 0.0
C976 C 0.94399 0.28782 0.63436 0.0
C977 C 0.97494 0.27721 0.62174 0.0
C978 C 0.93347 0.30002 0.51635 0.0
C979 C 0.91533 0.31195 0.48883 0.0
N980 N 0.92662 0.30297 0.47581 0.0
C981 C 0.94499 0.29102 0.50271 0.0
C982 C 0.91857 0.31064 0.50939 0.0
C983 C 0.94126 0.29264 0.48227 0.0
C984 C 0.98123 0.26256 0.53607 0.0
N985 N 0.98124 0.28262 0.54583 0.0
C986 C 0.02715 0.30929 0.54115 0.0
C987 C 0.00354 0.30564 0.54865 0.0
C988 C 0.02768 0.28906 0.5306 0.0
C989 C 0.00433 0.2653 0.52843 0.0
H990 H 0.96312 0.24463 0.53374 0.0
H991 H 0.00287 0.32136 0.55627 0.0
C992 C 0.91666 0.33903 0.58477 0.0
N993 N 0.92675 0.33512 0.56778 0.0
C994 C 0.91776 0.3628 0.58808 0.0
C995 C 0.93959 0.37801 0.55633 0.0
C996 C 0.9384 0.3541 0.55379 0.0
C997 C 0.92905 0.38266 0.57363 0.0
H998 H 0.90738 0.32352 0.5956 0.0
H999 H 0.94636 0.35051 0.54044 0.0
C1000 C 0.9074 0.21715 0.55687 0.0
N1001 N 0.88416 0.16514 0.56697 0.0
C1002 C 0.88045 0.2012 0.55537 0.0
C1003 C 0.92259 0.2066 0.56327 0.0
C1004 C 0.86905 0.17498 0.56062 0.0
C1005 C 0.91046 0.18027 0.56837 0.0
C1006 C 0.86457 0.26796 0.55925 0.0
C1007 C 0.8425 0.24316 0.55936 0.0
C1008 C 0.86225 0.28941 0.55361 0.0
C1009 C 0.81853 0.24018 0.55361 0.0
C1010 C 0.83792 0.28563 0.54801 0.0
N1011 N 0.81676 0.2613 0.5481 0.0
C1012 C 0.87234 0.2302 0.60438 0.0
C1013 C 0.90865 0.22392 0.60629 0.0
C1014 C 0.85911 0.21093 0.61873 0.0
N1015 N 0.89634 0.23579 0.59804 0.0
C1016 C 0.89619 0.20458 0.62074 0.0
C1017 C 0.87077 0.19736 0.62679 0.0
H1018 H 0.86307 0.24011 0.59782 0.0
H1019 H 0.92782 0.22881 0.60117 0.0
C1020 C 0.88938 0.23133 0.50818 0.0
N1021 N 0.88325 0.24756 0.51806 0.0
C1022 C 0.87747 0.22018 0.49005 0.0
C1023 C 0.85285 0.24241 0.49249 0.0
C1024 C 0.86545 0.25336 0.51051 0.0
C1025 C 0.859 0.22576 0.48195 0.0
H1026 H 0.90406 0.22751 0.51416 0.0
H1027 H 0.86164 0.26716 0.51797 0.0
O1028 O 0.9451 0.29222 0.57975 0.0
O1029 O 0.93619 0.29779 0.53642 0.0
O1030 O 0.91884 0.243 0.55218 0.0
O1031 O 0.88812 0.27131 0.56517 0.0
H1032 H 0.92349 0.29761 0.61264 0.0
H1033 H 0.97955 0.27836 0.58976 0.0
H1034 H 0.93412 0.29026 0.64704 0.0
H1035 H 0.98925 0.27139 0.62456 0.0
H1036 H 0.90369 0.31993 0.48323 0.0
H1037 H 0.95643 0.28259 0.50786 0.0
H1038 H 0.90919 0.31734 0.51976 0.0
H1039 H 0.94992 0.2856 0.47154 0.0
H1040 H 0.04457 0.32804 0.54297 0.0
H1041 H 0.0038 0.24904 0.52067 0.0
H1042 H 0.90981 0.36552 0.60183 0.0
H1043 H 0.94814 0.39242 0.5446 0.0
H1044 H 0.86848 0.20901 0.55024 0.0
H1045 H 0.94348 0.21872 0.56463 0.0
H1046 H 0.84819 0.16244 0.55963 0.0
H1047 H 0.92194 0.17188 0.57351 0.0
H1048 H 0.84379 0.22637 0.56389 0.0
H1049 H 0.87901 0.30873 0.55333 0.0
H1050 H 0.80133 0.22109 0.55357 0.0
H1051 H 0.83589 0.30203 0.54353 0.0
H1052 H 0.8395 0.20597 0.62277 0.0
H1053 H 0.90616 0.19503 0.6268 0.0
H1054 H 0.88271 0.20736 0.48242 0.0
H1055 H 0.83907 0.24758 0.48654 0.0
H1056 H 0.05192 0.57775 0.04967 0.0
H1057 H 0.08627 0.60143 0.10832 0.0
H1058 H 0.05186 0.53688 0.05328 0.0
H1059 H 0.08651 0.56065 0.11176 0.0
H1060 H 0.10922 0.49815 0.10037 0.0
H1061 H 0.1087 0.5388 0.09681 0.0
H1062 H 0.03058 0.4964 0.07326 0.0
H1063 H 0.03133 0.45578 0.07637 0.0
C1064 C 0.05921 0.57415 0.06343 0.0
C1065 C 0.06907 0.59292 0.07872 0.0
C1066 C 0.05921 0.55073 0.06546 0.0
C1067 C 0.06921 0.54554 0.08279 0.0
C1068 C 0.07902 0.56424 0.09811 0.0
C1069 C 0.0789 0.58763 0.09612 0.0
C1070 C 0.09203 0.49754 0.09426 0.0
C1071 C 0.07034 0.47376 0.08861 0.0
C1072 C 0.09162 0.52079 0.09243 0.0
C1073 C 0.06957 0.5208 0.0848 0.0
C1074 C 0.04793 0.49704 0.07904 0.0
C1075 C 0.04828 0.47376 0.08099 0.0
H1076 H 0.57446 0.03397 0.24272 0.0
H1077 H 0.61381 0.11464 0.26092 0.0
H1078 H 0.53395 0.03441 0.23984 0.0
H1079 H 0.57371 0.11565 0.2565 0.0
H1080 H 0.49195 0.1015 0.26822 0.0
H1081 H 0.53286 0.1014 0.27116 0.0
H1082 H 0.5111 0.04922 0.22062 0.0
H1083 H 0.46983 0.04859 0.21835 0.0
C1084 C 0.57456 0.05187 0.24604 0.0
C1085 C 0.59753 0.07422 0.25219 0.0
C1086 C 0.55131 0.05225 0.24407 0.0
C1087 C 0.5504 0.07507 0.24792 0.0
C1088 C 0.57348 0.09757 0.2537 0.0
C1089 C 0.59667 0.09711 0.25591 0.0
C1090 C 0.49602 0.09006 0.25776 0.0
C1091 C 0.47769 0.07493 0.24315 0.0
C1092 C 0.51953 0.09009 0.25934 0.0
C1093 C 0.52544 0.07529 0.24614 0.0
C1094 C 0.50711 0.06043 0.23134 0.0
C1095 C 0.48347 0.06012 0.22997 0.0
H1096 H 0.54128 0.57239 0.41513 0.0
H1097 H 0.50082 0.61519 0.42426 0.0
H1098 H 0.49967 0.53206 0.41285 0.0
H1099 H 0.45928 0.57487 0.42135 0.0
H1100 H 0.39222 0.49995 0.39266 0.0
H1101 H 0.43343 0.54064 0.39521 0.0
H1102 H 0.46206 0.50453 0.43614 0.0
H1103 H 0.42059 0.46399 0.43418 0.0
C1104 C 0.52358 0.57325 0.41673 0.0
C1105 C 0.52451 0.59713 0.41996 0.0
C1106 C 0.49974 0.55012 0.41537 0.0
C1107 C 0.47626 0.55033 0.41699 0.0
C1108 C 0.47709 0.57417 0.41985 0.0
C1109 C 0.50093 0.59729 0.42143 0.0
C1110 C 0.40708 0.50072 0.40249 0.0
C1111 C 0.40295 0.47858 0.41324 0.0
C1112 C 0.43075 0.52404 0.40385 0.0
C1113 C 0.45097 0.52571 0.4158 0.0
C1114 C 0.44692 0.50368 0.42658 0.0
C1115 C 0.42316 0.48044 0.42541 0.0
H1116 H 0.92243 0.51616 0.61988 0.0
H1117 H 0.93883 0.53309 0.55711 0.0
H1118 H 0.92155 0.47483 0.61533 0.0
H1119 H 0.93818 0.49176 0.55258 0.0
H1120 H 0.96676 0.43167 0.56188 0.0
H1121 H 0.96656 0.47243 0.56554 0.0
H1122 H 0.89267 0.43192 0.59591 0.0
H1123 H 0.89205 0.39086 0.5915 0.0
C1124 C 0.92591 0.51102 0.60513 0.0
C1125 C 0.93075 0.52778 0.58884 0.0
C1126 C 0.92525 0.48735 0.60251 0.0
C1127 C 0.92983 0.48017 0.58362 0.0
C1128 C 0.93474 0.49694 0.56732 0.0
C1129 C 0.93495 0.52044 0.56987 0.0
C1130 C 0.95023 0.43125 0.56907 0.0
C1131 C 0.9294 0.40779 0.57636 0.0
C1132 C 0.95021 0.45468 0.57122 0.0
C1133 C 0.92961 0.45527 0.581 0.0
C1134 C 0.90892 0.432 0.58847 0.0
C1135 C 0.90871 0.40851 0.58605 0.0
H1136 H 0.50521 0.89501 0.73606 0.0
H1137 H 0.54829 0.97588 0.75338 0.0
H1138 H 0.46451 0.89531 0.74008 0.0
H1139 H 0.50758 0.97636 0.75691 0.0
H1140 H 0.42787 0.95725 0.78285 0.0
H1141 H 0.46888 0.95766 0.7788 0.0
H1142 H 0.44073 0.91453 0.72376 0.0
H1143 H 0.3998 0.91436 0.72764 0.0
C1144 C 0.50597 0.91282 0.74081 0.0
C1145 C 0.52997 0.93541 0.74445 0.0
C1146 C 0.48268 0.91307 0.74289 0.0
C1147 C 0.48283 0.93588 0.74875 0.0
C1148 C 0.50681 0.95843 0.75252 0.0
C1149 C 0.53013 0.95822 0.75032 0.0
C1150 C 0.43053 0.94815 0.76973 0.0
C1151 C 0.41049 0.93578 0.75557 0.0
C1152 C 0.45403 0.94836 0.76744 0.0
C1153 C 0.45803 0.93608 0.75099 0.0
C1154 C 0.43809 0.92382 0.73676 0.0
C1155 C 0.41462 0.92371 0.73901 0.0
H1156 H 0.48005 0.40167 0.89136 0.0
H1157 H 0.47547 0.42132 0.95278 0.0
H1158 H 0.52094 0.4425 0.88743 0.0
H1159 H 0.51637 0.46204 0.94891 0.0
H1160 H 0.5767 0.54411 0.9291 0.0
H1161 H 0.5352 0.50382 0.93236 0.0
H1162 H 0.56576 0.46324 0.89829 0.0
H1163 H 0.60681 0.50371 0.89428 0.0
C1164 C 0.48786 0.41463 0.90405 0.0
C1165 C 0.47448 0.40825 0.92237 0.0
C1166 C 0.51131 0.43802 0.90182 0.0
C1167 C 0.52197 0.45556 0.91786 0.0
C1168 C 0.50852 0.44919 0.93615 0.0
C1169 C 0.48506 0.42584 0.93837 0.0
C1170 C 0.57448 0.52665 0.92214 0.0
C1171 C 0.59512 0.52717 0.91143 0.0
C1172 C 0.55078 0.50348 0.9242 0.0
C1173 C 0.54713 0.48027 0.9156 0.0
C1174 C 0.56778 0.4808 0.90491 0.0
C1175 C 0.59146 0.50396 0.90284 0.0
H1176 H 0.14446 0.28299 0.04553 0.0
H1177 H 0.15444 0.34651 0.00805 0.0
H1178 H 0.17196 0.27478 0.02298 0.0
H1179 H 0.18229 0.33847 0.9855 0.0
H1180 H 0.26059 0.33679 0.97415 0.0
H1181 H 0.22776 0.34312 0.99086 0.0
H1182 H 0.173 0.2609 0.98656 0.0
H1183 H 0.20541 0.25449 0.96902 0.0
C1184 C 0.15238 0.29501 0.03234 0.0
C1185 C 0.14744 0.31541 0.02851 0.0
C1186 C 0.16795 0.29023 0.01938 0.0
C1187 C 0.17924 0.30601 0.00252 0.0
C1188 C 0.17386 0.32608 0.99844 0.0
C1189 C 0.15787 0.33058 0.01124 0.0
C1190 C 0.24138 0.3201 0.97619 0.0
C1191 C 0.23582 0.29506 0.97029 0.0
C1192 C 0.22258 0.32377 0.98585 0.0
C1193 C 0.19792 0.30248 0.99008 0.0
C1194 C 0.19199 0.2776 0.98366 0.0
C1195 C 0.21065 0.27396 0.97373 0.0
H1196 H 0.81018 0.16831 0.18143 0.0
H1197 H 0.85657 0.13715 0.2053 0.0
H1198 H 0.84589 0.19649 0.15907 0.0
H1199 H 0.89236 0.16561 0.1833 0.0
H1200 H 0.94528 0.20593 0.13066 0.0
H1201 H 0.90582 0.17418 0.14791 0.0
H1202 H 0.88957 0.23511 0.16385 0.0
H1203 H 0.9291 0.26689 0.14692 0.0
C1204 C 0.82787 0.16724 0.18171 0.0
C1205 C 0.83063 0.15062 0.19519 0.0
C1206 C 0.84838 0.18353 0.16904 0.0
C1207 C 0.87199 0.18336 0.16947 0.0
C1208 C 0.87437 0.16606 0.18247 0.0
C1209 C 0.85396 0.14994 0.19521 0.0
C1210 C 0.93328 0.21257 0.13782 0.0
C1211 C 0.94051 0.23904 0.13748 0.0
C1212 C 0.91065 0.19435 0.14767 0.0
C1213 C 0.89463 0.20214 0.15732 0.0
C1214 C 0.9013 0.22841 0.15634 0.0
C1215 C 0.92399 0.24665 0.14658 0.0
H1216 H 0.70567 0.86474 0.38942 0.0
H1217 H 0.67327 0.81397 0.33839 0.0
H1218 H 0.71593 0.90208 0.36853 0.0
H1219 H 0.68466 0.85171 0.31713 0.0
H1220 H 0.67726 0.92222 0.29422 0.0
H1221 H 0.67072 0.88319 0.31161 0.0
H1222 H 0.74375 0.92897 0.34253 0.0
H1223 H 0.74982 0.96794 0.32552 0.0
C1224 C 0.70085 0.86156 0.37368 0.0
C1225 C 0.68838 0.83632 0.36563 0.0
C1226 C 0.70709 0.88306 0.36161 0.0
C1227 C 0.70119 0.87997 0.34109 0.0
C1228 C 0.68926 0.85477 0.3329 0.0
C1229 C 0.68297 0.83317 0.34504 0.0
C1230 C 0.69208 0.92378 0.30449 0.0
C1231 C 0.71388 0.94812 0.30871 0.0
C1232 C 0.68838 0.90143 0.31443 0.0
C1233 C 0.70654 0.90297 0.32869 0.0
C1234 C 0.72905 0.92716 0.33202 0.0
C1235 C 0.7326 0.94948 0.32224 0.0
H1236 H 0.77734 0.69951 0.4494 0.0
H1237 H 0.75062 0.70998 0.50676 0.0
H1238 H 0.81019 0.69271 0.46606 0.0
H1239 H 0.78278 0.70266 0.52338 0.0
H1240 H 0.85827 0.71545 0.54756 0.0
H1241 H 0.82823 0.72355 0.52874 0.0
H1242 H 0.81625 0.66302 0.48702 0.0
H1243 H 0.84782 0.65598 0.50524 0.0
C1244 C 0.77839 0.70018 0.46556 0.0
C1245 C 0.76164 0.7056 0.47677 0.0
C1246 C 0.79714 0.69621 0.47511 0.0
C1247 C 0.79936 0.69741 0.49608 0.0
C1248 C 0.78216 0.70229 0.50721 0.0
C1249 C 0.76364 0.70643 0.49769 0.0
C1250 C 0.84979 0.70422 0.53412 0.0
C1251 C 0.85565 0.68507 0.52795 0.0
C1252 C 0.83212 0.70858 0.52348 0.0
C1253 C 0.81949 0.69372 0.50648 0.0
C1254 C 0.8257 0.67493 0.49999 0.0
C1255 C 0.8436 0.67068 0.51059 0.0
H1256 H 0.03591 0.77966 0.66509 0.0
H1257 H 0.0815 0.75496 0.63105 0.0
H1258 H 0.075 0.8116 0.68249 0.0
H1259 H 0.1207 0.7867 0.64868 0.0
H1260 H 0.18973 0.8592 0.67557 0.0
H1261 H 0.15157 0.83254 0.6548 0.0
H1262 H 0.10292 0.8095 0.70744 0.0
H1263 H 0.14066 0.83681 0.72793 0.0
C1264 C 0.05435 0.78112 0.66132 0.0
C1265 C 0.05562 0.76462 0.64688 0.0
C1266 C 0.07674 0.79937 0.67131 0.0
C1267 C 0.10095 0.80148 0.66719 0.0
C1268 C 0.10241 0.78574 0.65211 0.0
C1269 C 0.07997 0.76753 0.64202 0.0
C1270 C 0.17081 0.8487 0.68263 0.0
C1271 C 0.16827 0.85001 0.70342 0.0
C1272 C 0.14899 0.83323 0.67076 0.0
C1273 C 0.12417 0.81886 0.67944 0.0
C1274 C 0.12166 0.82054 0.70019 0.0
C1275 C 0.14339 0.83594 0.71201 0.0
H1276 H 0.33776 0.08031 0.80455 0.0
H1277 H 0.25481 0.04526 0.81378 0.0
H1278 H 0.34457 0.11951 0.82157 0.0
H1279 H 0.26195 0.08419 0.8315 0.0
H1280 H 0.29436 0.14052 0.88678 0.0
H1281 H 0.28465 0.10367 0.86505 0.0
H1282 H 0.33355 0.15662 0.81908 0.0
H1283 H 0.34309 0.19363 0.84087 0.0
C1284 C 0.32091 0.08105 0.80984 0.0
C1285 C 0.29572 0.05941 0.80788 0.0
C1286 C 0.32488 0.10353 0.81967 0.0
C1287 C 0.30381 0.10478 0.82796 0.0
C1288 C 0.27857 0.08359 0.82545 0.0
C1289 C 0.27454 0.06124 0.8154 0.0
C1290 C 0.30287 0.14425 0.87198 0.0
C1291 C 0.31953 0.16984 0.86549 0.0
C1292 C 0.29718 0.12321 0.8595 0.0
C1293 C 0.30835 0.12733 0.8404 0.0
C1294 C 0.32476 0.15295 0.83378 0.0
C1295 C 0.3301 0.17406 0.84616 0.0
H1296 H 0.66479 0.7446 0.86812 0.0
H1297 H 0.74557 0.79039 0.85092 0.0
H1298 H 0.65564 0.77563 0.8515 0.0
H1299 H 0.73613 0.82067 0.83341 0.0
H1300 H 0.71536 0.88076 0.81362 0.0
H1301 H 0.724 0.8536 0.83613 0.0
H1302 H 0.65216 0.78619 0.81759 0.0
H1303 H 0.64298 0.81345 0.79592 0.0
C1304 C 0.68069 0.76145 0.86102 0.0
C1305 C 0.7059 0.76486 0.86076 0.0
C1306 C 0.67536 0.77908 0.85125 0.0
C1307 C 0.69506 0.80052 0.84089 0.0
C1308 C 0.72049 0.8045 0.84132 0.0
C1309 C 0.72585 0.78693 0.85116 0.0
C1310 C 0.70119 0.86023 0.81464 0.0
C1311 C 0.67856 0.84927 0.80284 0.0
C1312 C 0.70628 0.84459 0.82739 0.0
C1313 C 0.68885 0.81765 0.82863 0.0
C1314 C 0.6659 0.80688 0.81722 0.0
C1315 C 0.6608 0.82248 0.80455 0.0
H1316 H 0.84329 0.65197 0.95044 0.0
H1317 H 0.82972 0.70505 0.98561 0.0
H1318 H 0.87939 0.65987 0.9721 0.0
H1319 H 0.86545 0.71228 0.00784 0.0
H1320 H 0.9518 0.74226 0.02563 0.0
H1321 H 0.91297 0.73342 0.00686 0.0
H1322 H 0.88887 0.65167 0.0055 0.0
H1323 H 0.92812 0.66061 0.02343 0.0
C1324 C 0.84799 0.66531 0.96284 0.0
C1325 C 0.83375 0.67804 0.96619 0.0
C1326 C 0.8685 0.66958 0.97543 0.0
C1327 C 0.8753 0.68667 0.99175 0.0
C1328 C 0.86085 0.69917 0.9953 0.0
C1329 C 0.84023 0.69483 0.98269 0.0
C1330 C 0.93821 0.7224 0.02132 0.0
C1331 C 0.9432 0.70219 0.02595 0.0
C1332 C 0.9158 0.71729 0.01076 0.0
C1333 C 0.89789 0.69185 0.00456 0.0
C1334 C 0.90245 0.67154 0.0098 0.0
C1335 C 0.92482 0.67664 0.02033 0.0
H1336 H 0.23407 0.96431 0.16294 0.0
H1337 H 0.24022 0.92005 0.21167 0.0
H1338 H 0.20125 0.92409 0.14712 0.0
H1339 H 0.20726 0.87966 0.19582 0.0
H1340 H 0.17893 0.81772 0.14392 0.0
H1341 H 0.20693 0.8562 0.16392 0.0
H1342 H 0.1555 0.88652 0.15245 0.0
H1343 H 0.12752 0.84803 0.13236 0.0
C1344 C 0.22824 0.94595 0.17031 0.0
C1345 C 0.23977 0.94524 0.18845 0.0
C1346 C 0.20932 0.92297 0.16135 0.0
C1347 C 0.20174 0.89875 0.17023 0.0
C1348 C 0.21286 0.89806 0.1886 0.0
C1349 C 0.23156 0.92112 0.19772 0.0
C1350 C 0.17352 0.83252 0.14582 0.0
C1351 C 0.15113 0.82996 0.13654 0.0
C1352 C 0.18942 0.85443 0.15739 0.0
C1353 C 0.18341 0.87437 0.1597 0.0
C1354 C 0.16066 0.87151 0.15081 0.0
C1355 C 0.14458 0.84943 0.13946 0.0
H1356 H 0.31004 0.12948 0.32778 0.0
H1357 H 0.3287 0.18071 0.27701 0.0
H1358 H 0.30538 0.16097 0.34859 0.0
H1359 H 0.32377 0.21176 0.29757 0.0
H1360 H 0.34044 0.27366 0.34334 0.0
H1361 H 0.34697 0.24129 0.32606 0.0
H1362 H 0.2753 0.18003 0.351 0.0
H1363 H 0.26848 0.21254 0.36817 0.0
C1364 C 0.31318 0.14745 0.3211 0.0
C1365 C 0.31959 0.15258 0.30075 0.0
C1366 C 0.31036 0.16536 0.33296 0.0
C1367 C 0.31432 0.18887 0.32472 0.0
C1368 C 0.32088 0.19397 0.30441 0.0
C1369 C 0.32343 0.17604 0.29258 0.0
C1370 C 0.32603 0.2533 0.34516 0.0
C1371 C 0.30374 0.24573 0.35691 0.0
C1372 C 0.32981 0.23476 0.33528 0.0
C1373 C 0.31149 0.20815 0.33698 0.0
C1374 C 0.28981 0.20041 0.34949 0.0
C1375 C 0.28594 0.21903 0.35934 0.0
H1376 H 0.1439 0.27331 0.46241 0.0
H1377 H 0.18311 0.35404 0.4803 0.0
H1378 H 0.10585 0.26539 0.48178 0.0
H1379 H 0.14504 0.34603 0.4998 0.0
H1380 H 0.07765 0.3157 0.5453 0.0
H1381 H 0.11751 0.32255 0.52907 0.0
H1382 H 0.07263 0.2782 0.47813 0.0
H1383 H 0.03306 0.27167 0.49409 0.0
C1384 C 0.14443 0.28936 0.47052 0.0
C1385 C 0.16648 0.31437 0.46964 0.0
C1386 C 0.12262 0.28481 0.48162 0.0
C1387 C 0.12232 0.30514 0.49216 0.0
C1388 C 0.14474 0.32991 0.49197 0.0
C1389 C 0.16657 0.33449 0.48082 0.0
C1390 C 0.07632 0.30753 0.5306 0.0
C1391 C 0.05207 0.29298 0.52108 0.0
C1392 C 0.09915 0.31142 0.52132 0.0
C1393 C 0.09821 0.30075 0.50238 0.0
C1394 C 0.07399 0.28622 0.4929 0.0
C1395 C 0.05125 0.28244 0.5021 0.0
H1396 H 0.87074 0.15125 0.62735 0.0
H1397 H 0.83654 0.19187 0.65662 0.0
H1398 H 0.84378 0.11284 0.64739 0.0
H1399 H 0.80851 0.15289 0.67593 0.0
H1400 H 0.77413 0.0834 0.71839 0.0
H1401 H 0.80619 0.12356 0.70192 0.0
H1402 H 0.79882 0.08023 0.64808 0.0
H1403 H 0.7672 0.04034 0.66453 0.0
C1404 C 0.85771 0.15214 0.63823 0.0
C1405 C 0.8558 0.1747 0.64029 0.0
C1406 C 0.84195 0.12994 0.64954 0.0
C1407 C 0.82372 0.12962 0.66313 0.0
C1408 C 0.82242 0.15246 0.66571 0.0
C1409 C 0.83829 0.17474 0.65444 0.0
C1410 C 0.77945 0.08252 0.70305 0.0
C1411 C 0.76823 0.05865 0.69282 0.0
C1412 C 0.79778 0.10552 0.6936 0.0
C1413 C 0.8052 0.10516 0.67368 0.0
C1414 C 0.79405 0.08122 0.66356 0.0
C1415 C 0.77586 0.05829 0.673 0.0
H1416 H 0.22267 0.33833 0.28127 0.0
H1417 H 0.20571 0.39505 0.30656 0.0
H1418 H 0.20099 0.33833 0.25041 0.0
H1419 H 0.18491 0.39606 0.27536 0.0
H1420 H 0.12597 0.37146 0.22472 0.0
H1421 H 0.14766 0.37183 0.25561 0.0
H1422 H 0.20469 0.36267 0.2219 0.0
H1423 H 0.18184 0.36016 0.19123 0.0
C1424 C 0.2146 0.35109 0.28006 0.0
C1425 C 0.21587 0.36671 0.29624 0.0
C1426 C 0.20226 0.35122 0.26234 0.0
C1427 C 0.19122 0.36728 0.26027 0.0
C1428 C 0.19276 0.3831 0.27648 0.0
C1429 C 0.20478 0.38267 0.29433 0.0
C1430 C 0.14292 0.36915 0.22389 0.0
C1431 C 0.152 0.36566 0.20539 0.0
C1432 C 0.15565 0.36979 0.24164 0.0
C1433 C 0.17798 0.36726 0.24134 0.0
C1434 C 0.18732 0.36425 0.22281 0.0
C1435 C 0.17441 0.36326 0.20511 0.0
H1436 H 0.88287 0.22348 0.44785 0.0
H1437 H 0.8076 0.20334 0.47189 0.0
H1438 H 0.86286 0.20449 0.41584 0.0
H1439 H 0.78737 0.18377 0.43997 0.0
H1440 H 0.76263 0.17153 0.37439 0.0
H1441 H 0.78321 0.19318 0.40569 0.0
H1442 H 0.83569 0.16273 0.40137 0.0
H1443 H 0.81543 0.14158 0.37002 0.0
C1444 C 0.86199 0.21478 0.44631 0.0
C1445 C 0.84676 0.21472 0.46239 0.0
C1446 C 0.85049 0.20385 0.42798 0.0
C1447 C 0.82346 0.19242 0.42534 0.0
C1448 C 0.80828 0.19269 0.44138 0.0
C1449 C 0.81983 0.20382 0.45969 0.0
C1450 C 0.77855 0.16948 0.38018 0.0
C1451 C 0.78749 0.15495 0.36971 0.0
C1452 C 0.7903 0.18182 0.39814 0.0
C1453 C 0.81115 0.17975 0.40606 0.0
C1454 C 0.82004 0.16519 0.39553 0.0
C1455 C 0.80841 0.15302 0.37756 0.0
H1456 H 0.67507 0.88071 0.61648 0.0
H1457 H 0.59592 0.82219 0.63024 0.0
H1458 H 0.67272 0.85835 0.58541 0.0
H1459 H 0.59358 0.79975 0.59906 0.0
H1460 H 0.61158 0.75255 0.55323 0.0
H1461 H 0.61187 0.77491 0.5839 0.0
H1462 H 0.65155 0.8486 0.55294 0.0
H1463 H 0.65212 0.82637 0.52253 0.0
C1464 C 0.65705 0.86324 0.61275 0.0
C1465 C 0.63565 0.85328 0.62582 0.0
C1466 C 0.6557 0.85041 0.59493 0.0
C1467 C 0.63294 0.82731 0.58972 0.0
C1468 C 0.61151 0.81734 0.60276 0.0
C1469 C 0.61285 0.83019 0.62061 0.0
C1470 C 0.62044 0.77353 0.55301 0.0
C1471 C 0.63191 0.78768 0.53545 0.0
C1472 C 0.62036 0.78632 0.57052 0.0
C1473 C 0.63181 0.81355 0.57088 0.0
C1474 C 0.64285 0.82763 0.55323 0.0
C1475 C 0.64289 0.81485 0.53573 0.0
H1476 H 0.86676 0.62363 0.72129 0.0
H1477 H 0.81583 0.64155 0.68721 0.0
H1478 H 0.8438 0.62232 0.7517 0.0
H1479 H 0.79172 0.63842 0.71743 0.0
H1480 H 0.77593 0.66345 0.77799 0.0
H1481 H 0.79665 0.66231 0.74692 0.0
H1482 H 0.80465 0.59855 0.76988 0.0
H1483 H 0.78463 0.60039 0.80123 0.0
C1484 C 0.85058 0.62716 0.72024 0.0
C1485 C 0.84334 0.63292 0.70176 0.0
C1486 C 0.83712 0.626 0.73768 0.0
C1487 C 0.81588 0.63031 0.73709 0.0
C1488 C 0.80822 0.6354 0.71853 0.0
C1489 C 0.82184 0.63681 0.70111 0.0
C1490 C 0.7819 0.64904 0.77629 0.0
C1491 C 0.77872 0.63203 0.79201 0.0
C1492 C 0.79371 0.64829 0.75845 0.0
C1493 C 0.80237 0.63033 0.75583 0.0
C1494 C 0.79867 0.61296 0.77148 0.0
C1495 C 0.78712 0.61392 0.78941 0.0
H1496 H 0.18118 0.82991 0.8606 0.0
H1497 H 0.25543 0.86536 0.89075 0.0
H1498 H 0.15965 0.8073 0.89124 0.0
H1499 H 0.23391 0.84252 0.92145 0.0
H1500 H 0.18223 0.82187 0.97748 0.0
H1501 H 0.20517 0.84299 0.94678 0.0
H1502 H 0.15462 0.77324 0.91356 0.0
H1503 H 0.13152 0.75225 0.94427 0.0
C1504 C 0.19296 0.83258 0.87371 0.0
C1505 C 0.22002 0.84942 0.87324 0.0
C1506 C 0.18061 0.8196 0.89129 0.0
C1507 C 0.19504 0.82308 0.90883 0.0
C1508 C 0.22216 0.83971 0.9083 0.0
C1509 C 0.2345 0.85277 0.89071 0.0
C1510 C 0.17622 0.81096 0.96366 0.0
C1511 C 0.15501 0.78542 0.96329 0.0
C1512 C 0.18938 0.82305 0.94605 0.0
C1513 C 0.1817 0.80984 0.92768 0.0
C1514 C 0.16076 0.78413 0.92739 0.0
C1515 C 0.14753 0.77208 0.94498 0.0
H1516 H 0.39196 0.19158 0.14106 0.0
H1517 H 0.33889 0.11809 0.11341 0.0
H1518 H 0.39208 0.21439 0.1105 0.0
H1519 H 0.33895 0.14086 0.08294 0.0
H1520 H 0.32218 0.19447 0.04301 0.0
H1521 H 0.32303 0.17263 0.07375 0.0
H1522 H 0.40696 0.2169 0.07376 0.0
H1523 H 0.40613 0.23875 0.04292 0.0
C1524 C 0.38035 0.18036 0.12844 0.0
C1525 C 0.36545 0.1531 0.12955 0.0
C1526 C 0.38054 0.19336 0.11097 0.0
C1527 C 0.36548 0.17936 0.09442 0.0
C1528 C 0.35058 0.15211 0.09555 0.0
C1529 C 0.35071 0.1391 0.11289 0.0
C1530 C 0.34079 0.19965 0.04967 0.0
C1531 C 0.3641 0.21829 0.04063 0.0
C1532 C 0.34127 0.18703 0.06714 0.0
C1533 C 0.36506 0.19307 0.07606 0.0
C1534 C 0.38837 0.21201 0.06722 0.0
C1535 C 0.3879 0.22435 0.04956 0.0
loop_
_geom_bond_atom_site_label_1
_geom_bond_atom_site_label_2
_geom_bond_distance
_geom_bond_site_symmetry_2
_ccdc_geom_bond_type
Li0 N17 1.990 . S
Li0 O60 1.956 . S
Li0 O61 1.970 . S
Li0 O62 1.961 . S
Li1 N25 1.990 . S
Li1 O60 1.970 . S
Li1 O61 1.956 . S
Li1 O63 1.961 . S
Li2 N47 1.990 . S
Li2 O60 1.961 . S
Li2 O62 1.956 . S
Li2 O63 1.970 . S
Li3 N53 1.990 . S
Li3 O61 1.961 . S
Li3 O62 1.970 . S
Li3 O63 1.956 . S
C4 C6 1.348 . S
C4 C7 1.356 . S
C4 O60 1.325 . S
N5 C8 1.314 . S
N5 C9 1.279 . S
C6 C4 1.348 . S
C6 C8 1.353 . S
C6 H64 0.929 . S
C7 C4 1.356 . S
C7 C9 1.358 . S
C7 H65 0.930 . S
C8 N5 1.314 . S
C8 C6 1.353 . S
C8 H66 0.930 . S
C9 N5 1.279 . S
C9 C7 1.358 . S
C9 H67 0.930 . S
C10 C13 1.348 . S
C10 C14 1.356 . S
C10 O61 1.325 . S
C11 N12 1.279 . S
C11 C14 1.358 . S
C11 H68 0.930 . S
N12 C11 1.279 . S
N12 C15 1.314 . S
C13 C10 1.348 . S
C13 C15 1.353 . S
C13 H69 0.929 . S
C14 C10 1.356 . S
C14 C11 1.358 . S
C14 H70 0.930 . S
C15 N12 1.314 . S
C15 C13 1.353 . S
C15 H71 0.930 . S
C16 N17 1.314 . S
C16 C21 1.353 . S
C16 H22 0.930 . S
N17 Li0 1.990 . S
N17 C16 1.314 . S
N17 C19 1.279 . S
C18 C19 1.358 . S
C18 C20 1.356 . S
C18 H72 0.930 . S
C19 N17 1.279 . S
C19 C18 1.358 . S
C19 H23 0.930 . S
C20 C18 1.356 . S
C20 C21 1.348 . S
C21 C16 1.353 . S
C21 C20 1.348 . S
C21 H73 0.929 . S
H22 C16 0.930 . S
H23 C19 0.930 . S
C24 N25 1.314 . S
C24 C26 1.353 . S
C24 H30 0.930 . S
N25 Li1 1.990 . S
N25 C24 1.314 . S
N25 C28 1.279 . S
C26 C24 1.353 . S
C26 C29 1.348 . S
C26 H74 0.929 . S
C27 C28 1.358 . S
C27 C29 1.356 . S
C27 H75 0.930 . S
C28 N25 1.279 . S
C28 C27 1.358 . S
C28 H31 0.930 . S
C29 C26 1.348 . S
C29 C27 1.356 . S
H30 C24 0.930 . S
H31 C28 0.930 . S
C32 C34 1.348 . S
C32 C35 1.356 . S
C32 O62 1.325 . S
N33 C36 1.314 . S
N33 C37 1.279 . S
C34 C32 1.348 . S
C34 C36 1.353 . S
C34 H76 0.929 . S
C35 C32 1.356 . S
C35 C37 1.358 . S
C35 H77 0.930 . S
C36 N33 1.314 . S
C36 C34 1.353 . S
C36 H78 0.930 . S
C37 N33 1.279 . S
C37 C35 1.358 . S
C37 H79 0.930 . S
C38 C39 1.348 . S
C38 C40 1.356 . S
C38 O63 1.325 . S
C39 C38 1.348 . S
C39 C41 1.353 . S
C39 H80 0.929 . S
C40 C38 1.356 . S
C40 C42 1.358 . S
C40 H81 0.930 . S
C41 C39 1.353 . S
C41 N43 1.314 . S
C41 H82 0.930 . S
C42 C40 1.358 . S
C42 N43 1.279 . S
C42 H83 0.930 . S
N43 C41 1.314 . S
N43 C42 1.279 . S
C44 C46 1.353 1_455 S
C44 N47 1.314 . S
C44 H50 0.930 . S
C45 N47 1.279 1_655 S
C45 C48 1.358 . S
C45 H51 0.930 . S
C46 C44 1.353 1_655 S
C46 C49 1.348 . S
C46 H84 0.929 . S
N47 Li2 1.990 . S
N47 C44 1.314 . S
N47 C45 1.279 1_455 S
C48 C45 1.358 . S
C48 C49 1.356 . S
C48 H85 0.930 . S
C49 C46 1.348 . S
C49 C48 1.356 . S
H50 C44 0.930 . S
H51 C45 0.930 . S
C52 N53 1.314 . S
C52 C54 1.353 . S
C52 H58 0.930 . S
N53 Li3 1.990 . S
N53 C52 1.314 . S
N53 C56 1.279 . S
C54 C52 1.353 . S
C54 C57 1.348 . S
C54 H86 0.929 . S
C55 C56 1.358 . S
C55 C57 1.356 . S
C55 H87 0.930 . S
C56 N53 1.279 . S
C56 C55 1.358 . S
C56 H59 0.930 . S
C57 C54 1.348 . S
C57 C55 1.356 . S
H58 C52 0.930 . S
H59 C56 0.930 . S
O60 Li0 1.956 . S
O60 Li1 1.970 . S
O60 Li2 1.961 . S
O60 C4 1.325 . S
O61 Li0 1.970 . S
O61 Li1 1.956 . S
O61 Li3 1.961 . S
O61 C10 1.325 . S
O62 Li0 1.961 . S
O62 Li2 1.956 . S
O62 Li3 1.970 . S
O62 C32 1.325 . S
O63 Li1 1.961 . S
O63 Li2 1.970 . S
O63 Li3 1.956 . S
O63 C38 1.325 . S
H64 C6 0.929 . S
H65 C7 0.930 . S
H66 C8 0.930 . S
H67 C9 0.930 . S
H68 C11 0.930 . S
H69 C13 0.929 . S
H70 C14 0.930 . S
H71 C15 0.930 . S
H72 C18 0.930 . S
H73 C21 0.929 . S
H74 C26 0.929 . S
H75 C27 0.930 . S
H76 C34 0.929 . S
H77 C35 0.930 . S
H78 C36 0.930 . S
H79 C37 0.930 . S
H80 C39 0.929 . S
H81 C40 0.930 . S
H82 C41 0.930 . S
H83 C42 0.930 . S
H84 C46 0.929 . S
H85 C48 0.930 . S
H86 C54 0.929 . S
H87 C55 0.930 . S
Li88 N105 1.990 . S
Li88 O148 1.956 . S
Li88 O149 1.970 . S
Li88 O150 1.961 . S
Li89 N113 1.990 . S
Li89 O148 1.970 . S
Li89 O149 1.956 . S
Li89 O151 1.961 . S
Li90 N135 1.990 . S
Li90 O148 1.961 . S
Li90 O150 1.956 . S
Li90 O151 1.970 . S
Li91 N141 1.990 . S
Li91 O149 1.961 . S
Li91 O150 1.970 . S
Li91 O151 1.956 . S
C92 C94 1.348 . S
C92 C95 1.356 . S
C92 O148 1.325 . S
N93 C96 1.314 . S
N93 C97 1.279 . S
C94 C92 1.348 . S
C94 C96 1.353 . S
C94 H152 0.929 . S
C95 C92 1.356 . S
C95 C97 1.358 . S
C95 H153 0.930 . S
C96 N93 1.314 . S
C96 C94 1.353 . S
C96 H154 0.930 . S
C97 N93 1.279 . S
C97 C95 1.358 . S
C97 H155 0.930 . S
C98 C101 1.348 . S
C98 C102 1.356 . S
C98 O149 1.325 . S
C99 N100 1.279 . S
C99 C102 1.358 . S
C99 H156 0.930 . S
N100 C99 1.279 . S
N100 C103 1.314 . S
C101 C98 1.348 . S
C101 C103 1.353 . S
C101 H157 0.929 . S
C102 C98 1.356 . S
C102 C99 1.358 . S
C102 H158 0.930 . S
C103 N100 1.314 . S
C103 C101 1.353 . S
C103 H159 0.930 . S
C104 N105 1.314 . S
C104 C109 1.353 . S
C104 H110 0.930 . S
N105 Li88 1.990 . S
N105 C104 1.314 . S
N105 C107 1.279 . S
C106 C107 1.358 . S
C106 C108 1.356 . S
C106 H160 0.930 . S
C107 N105 1.279 . S
C107 C106 1.358 . S
C107 H111 0.930 . S
C108 C106 1.356 . S
C108 C109 1.348 . S
C109 C104 1.353 . S
C109 C108 1.348 . S
C109 H161 0.929 . S
H110 C104 0.930 . S
H111 C107 0.930 . S
C112 N113 1.314 . S
C112 C114 1.353 . S
C112 H118 0.930 . S
N113 Li89 1.990 . S
N113 C112 1.314 . S
N113 C116 1.279 . S
C114 C112 1.353 . S
C114 C117 1.348 . S
C114 H162 0.929 . S
C115 C116 1.358 . S
C115 C117 1.356 . S
C115 H163 0.930 . S
C116 N113 1.279 . S
C116 C115 1.358 . S
C116 H119 0.930 . S
C117 C114 1.348 . S
C117 C115 1.356 . S
H118 C112 0.930 . S
H119 C116 0.930 . S
C120 C122 1.348 . S
C120 C123 1.356 . S
C120 O150 1.325 . S
N121 C124 1.314 . S
N121 C125 1.279 . S
C122 C120 1.348 . S
C122 C124 1.353 . S
C122 H164 0.929 . S
C123 C120 1.356 . S
C123 C125 1.358 . S
C123 H165 0.930 . S
C124 N121 1.314 . S
C124 C122 1.353 . S
C124 H166 0.930 . S
C125 N121 1.279 . S
C125 C123 1.358 . S
C125 H167 0.930 . S
C126 C127 1.348 . S
C126 C128 1.356 . S
C126 O151 1.325 . S
C127 C126 1.348 . S
C127 C129 1.353 . S
C127 H168 0.929 . S
C128 C126 1.356 . S
C128 C130 1.358 . S
C128 H169 0.930 . S
C129 C127 1.353 . S
C129 N131 1.314 . S
C129 H170 0.930 . S
C130 C128 1.358 . S
C130 N131 1.279 . S
C130 H171 0.930 . S
N131 C129 1.314 . S
N131 C130 1.279 . S
C132 C134 1.353 1_545 S
C132 N135 1.314 . S
C132 H138 0.930 . S
C133 N135 1.279 1_565 S
C133 C136 1.358 . S
C133 H139 0.930 . S
C134 C132 1.353 1_565 S
C134 C137 1.348 . S
C134 H172 0.929 . S
N135 Li90 1.990 . S
N135 C132 1.314 . S
N135 C133 1.279 1_545 S
C136 C133 1.358 . S
C136 C137 1.356 . S
C136 H173 0.930 . S
C137 C134 1.348 . S
C137 C136 1.356 . S
H138 C132 0.930 . S
H139 C133 0.930 . S
C140 N141 1.314 . S
C140 C142 1.353 . S
C140 H146 0.930 . S
N141 Li91 1.990 . S
N141 C140 1.314 . S
N141 C144 1.279 . S
C142 C140 1.353 . S
C142 C145 1.348 . S
C142 H174 0.929 . S
C143 C144 1.358 . S
C143 C145 1.356 . S
C143 H175 0.930 . S
C144 N141 1.279 . S
C144 C143 1.358 . S
C144 H147 0.930 . S
C145 C142 1.348 . S
C145 C143 1.356 . S
H146 C140 0.930 . S
H147 C144 0.930 . S
O148 Li88 1.956 . S
O148 Li89 1.970 . S
O148 Li90 1.961 . S
O148 C92 1.325 . S
O149 Li88 1.970 . S
O149 Li89 1.956 . S
O149 Li91 1.961 . S
O149 C98 1.325 . S
O150 Li88 1.961 . S
O150 Li90 1.956 . S
O150 Li91 1.970 . S
O150 C120 1.325 . S
O151 Li89 1.961 . S
O151 Li90 1.970 . S
O151 Li91 1.956 . S
O151 C126 1.325 . S
H152 C94 0.929 . S
H153 C95 0.930 . S
H154 C96 0.930 . S
H155 C97 0.930 . S
H156 C99 0.930 . S
H157 C101 0.929 . S
H158 C102 0.930 . S
H159 C103 0.930 . S
H160 C106 0.930 . S
H161 C109 0.929 . S
H162 C114 0.929 . S
H163 C115 0.930 . S
H164 C122 0.929 . S
H165 C123 0.930 . S
H166 C124 0.930 . S
H167 C125 0.930 . S
H168 C127 0.929 . S
H169 C128 0.930 . S
H170 C129 0.930 . S
H171 C130 0.930 . S
H172 C134 0.929 . S
H173 C136 0.930 . S
H174 C142 0.929 . S
H175 C143 0.930 . S
Li176 N193 1.990 . S
Li176 O236 1.956 . S
Li176 O237 1.970 . S
Li176 O238 1.961 . S
Li177 N201 1.990 . S
Li177 O236 1.970 . S
Li177 O237 1.956 . S
Li177 O239 1.961 . S
Li178 N223 1.990 . S
Li178 O236 1.961 . S
Li178 O238 1.956 . S
Li178 O239 1.970 . S
Li179 N229 1.990 . S
Li179 O237 1.961 . S
Li179 O238 1.970 . S
Li179 O239 1.956 . S
C180 C182 1.348 . S
C180 C183 1.356 . S
C180 O236 1.325 . S
N181 C184 1.314 . S
N181 C185 1.279 . S
C182 C180 1.348 . S
C182 C184 1.353 . S
C182 H240 0.929 . S
C183 C180 1.356 . S
C183 C185 1.358 . S
C183 H241 0.930 . S
C184 N181 1.314 . S
C184 C182 1.353 . S
C184 H242 0.930 . S
C185 N181 1.279 . S
C185 C183 1.358 . S
C185 H243 0.930 . S
C186 C189 1.348 . S
C186 C190 1.356 . S
C186 O237 1.325 . S
C187 N188 1.279 . S
C187 C190 1.358 . S
C187 H244 0.930 . S
N188 C187 1.279 . S
N188 C191 1.314 . S
C189 C186 1.348 . S
C189 C191 1.353 . S
C189 H245 0.929 . S
C190 C186 1.356 . S
C190 C187 1.358 . S
C190 H246 0.930 . S
C191 N188 1.314 . S
C191 C189 1.353 . S
C191 H247 0.930 . S
C192 N193 1.314 . S
C192 C197 1.353 . S
C192 H198 0.930 . S
N193 Li176 1.990 . S
N193 C192 1.314 . S
N193 C195 1.279 . S
C194 C195 1.358 . S
C194 C196 1.356 . S
C194 H248 0.930 . S
C195 N193 1.279 . S
C195 C194 1.358 . S
C195 H199 0.930 . S
C196 C194 1.356 . S
C196 C197 1.348 . S
C197 C192 1.353 . S
C197 C196 1.348 . S
C197 H249 0.929 . S
H198 C192 0.930 . S
H199 C195 0.930 . S
C200 N201 1.314 . S
C200 C202 1.353 . S
C200 H206 0.930 . S
N201 Li177 1.990 . S
N201 C200 1.314 . S
N201 C204 1.279 . S
C202 C200 1.353 . S
C202 C205 1.348 . S
C202 H250 0.929 . S
C203 C204 1.358 . S
C203 C205 1.356 . S
C203 H251 0.930 . S
C204 N201 1.279 . S
C204 C203 1.358 . S
C204 H207 0.930 . S
C205 C202 1.348 . S
C205 C203 1.356 . S
H206 C200 0.930 . S
H207 C204 0.930 . S
C208 C210 1.348 . S
C208 C211 1.356 . S
C208 O238 1.325 . S
N209 C212 1.314 . S
N209 C213 1.279 . S
C210 C208 1.348 . S
C210 C212 1.353 . S
C210 H252 0.929 . S
C211 C208 1.356 . S
C211 C213 1.358 . S
C211 H253 0.930 . S
C212 N209 1.314 . S
C212 C210 1.353 . S
C212 H254 0.930 . S
C213 N209 1.279 . S
C213 C211 1.358 . S
C213 H255 0.930 . S
C214 C215 1.348 . S
C214 C216 1.356 . S
C214 O239 1.325 . S
C215 C214 1.348 . S
C215 C217 1.353 . S
C215 H256 0.929 . S
C216 C214 1.356 . S
C216 C218 1.358 . S
C216 H257 0.930 . S
C217 C215 1.353 . S
C217 N219 1.314 . S
C217 H258 0.930 . S
C218 C216 1.358 . S
C218 N219 1.279 . S
C218 H259 0.930 . S
N219 C217 1.314 . S
N219 C218 1.279 . S
C220 C222 1.353 . S
C220 N223 1.314 . S
C220 H226 0.930 . S
C221 N223 1.279 . S
C221 C224 1.358 . S
C221 H227 0.930 . S
C222 C220 1.353 . S
C222 C225 1.348 . S
C222 H260 0.929 . S
N223 Li178 1.990 . S
N223 C220 1.314 . S
N223 C221 1.279 . S
C224 C221 1.358 . S
C224 C225 1.356 . S
C224 H261 0.930 . S
C225 C222 1.348 . S
C225 C224 1.356 . S
H226 C220 0.930 . S
H227 C221 0.930 . S
C228 N229 1.314 . S
C228 C230 1.353 . S
C228 H234 0.930 . S
N229 Li179 1.990 . S
N229 C228 1.314 . S
N229 C232 1.279 . S
C230 C228 1.353 . S
C230 C233 1.348 . S
C230 H262 0.929 . S
C231 C232 1.358 . S
C231 C233 1.356 . S
C231 H263 0.930 . S
C232 N229 1.279 . S
C232 C231 1.358 . S
C232 H235 0.930 . S
C233 C230 1.348 . S
C233 C231 1.356 . S
H234 C228 0.930 . S
H235 C232 0.930 . S
O236 Li176 1.956 . S
O236 Li177 1.970 . S
O236 Li178 1.961 . S
O236 C180 1.325 . S
O237 Li176 1.970 . S
O237 Li177 1.956 . S
O237 Li179 1.961 . S
O237 C186 1.325 . S
O238 Li176 1.961 . S
O238 Li178 1.956 . S
O238 Li179 1.970 . S
O238 C208 1.325 . S
O239 Li177 1.961 . S
O239 Li178 1.970 . S
O239 Li179 1.956 . S
O239 C214 1.325 . S
H240 C182 0.929 . S
H241 C183 0.930 . S
H242 C184 0.930 . S
H243 C185 0.930 . S
H244 C187 0.930 . S
H245 C189 0.929 . S
H246 C190 0.930 . S
H247 C191 0.930 . S
H248 C194 0.930 . S
H249 C197 0.929 . S
H250 C202 0.929 . S
H251 C203 0.930 . S
H252 C210 0.929 . S
H253 C211 0.930 . S
H254 C212 0.930 . S
H255 C213 0.930 . S
H256 C215 0.929 . S
H257 C216 0.930 . S
H258 C217 0.930 . S
H259 C218 0.930 . S
H260 C222 0.929 . S
H261 C224 0.930 . S
H262 C230 0.929 . S
H263 C231 0.930 . S
Li264 N281 1.990 . S
Li264 O324 1.956 . S
Li264 O325 1.970 . S
Li264 O326 1.961 . S
Li265 N289 1.990 . S
Li265 O324 1.970 . S
Li265 O325 1.956 . S
Li265 O327 1.961 . S
Li266 N311 1.990 . S
Li266 O324 1.961 . S
Li266 O326 1.956 . S
Li266 O327 1.970 . S
Li267 N317 1.990 . S
Li267 O325 1.961 . S
Li267 O326 1.970 . S
Li267 O327 1.956 . S
C268 C270 1.348 . S
C268 C271 1.356 . S
C268 O324 1.325 . S
N269 C272 1.314 . S
N269 C273 1.279 . S
C270 C268 1.348 . S
C270 C272 1.353 . S
C270 H328 0.929 . S
C271 C268 1.356 . S
C271 C273 1.358 . S
C271 H329 0.930 . S
C272 N269 1.314 . S
C272 C270 1.353 . S
C272 H330 0.930 . S
C273 N269 1.279 . S
C273 C271 1.358 . S
C273 H331 0.930 . S
C274 C277 1.348 . S
C274 C278 1.356 . S
C274 O325 1.325 . S
C275 N276 1.279 . S
C275 C278 1.358 . S
C275 H332 0.930 . S
N276 C275 1.279 . S
N276 C279 1.314 . S
C277 C274 1.348 . S
C277 C279 1.353 . S
C277 H333 0.929 . S
C278 C274 1.356 . S
C278 C275 1.358 . S
C278 H334 0.930 . S
C279 N276 1.314 . S
C279 C277 1.353 . S
C279 H335 0.930 . S
C280 N281 1.314 . S
C280 C285 1.353 1_655 S
C280 H286 0.930 . S
N281 Li264 1.990 . S
N281 C280 1.314 . S
N281 C283 1.279 1_655 S
C282 C283 1.358 . S
C282 C284 1.356 . S
C282 H336 0.930 . S
C283 N281 1.279 1_455 S
C283 C282 1.358 . S
C283 H287 0.930 . S
C284 C282 1.356 . S
C284 C285 1.348 . S
C285 C280 1.353 1_455 S
C285 C284 1.348 . S
C285 H337 0.929 . S
H286 C280 0.930 . S
H287 C283 0.930 . S
C288 N289 1.314 . S
C288 C290 1.353 . S
C288 H294 0.930 . S
N289 Li265 1.990 . S
N289 C288 1.314 . S
N289 C292 1.279 . S
C290 C288 1.353 . S
C290 C293 1.348 . S
C290 H338 0.929 . S
C291 C292 1.358 . S
C291 C293 1.356 . S
C291 H339 0.930 . S
C292 N289 1.279 . S
C292 C291 1.358 . S
C292 H295 0.930 . S
C293 C290 1.348 . S
C293 C291 1.356 . S
H294 C288 0.930 . S
H295 C292 0.930 . S
C296 C298 1.348 . S
C296 C299 1.356 . S
C296 O326 1.325 . S
N297 C300 1.314 . S
N297 C301 1.279 . S
C298 C296 1.348 . S
C298 C300 1.353 . S
C298 H340 0.929 . S
C299 C296 1.356 . S
C299 C301 1.358 . S
C299 H341 0.930 . S
C300 N297 1.314 . S
C300 C298 1.353 . S
C300 H342 0.930 . S
C301 N297 1.279 . S
C301 C299 1.358 . S
C301 H343 0.930 . S
C302 C303 1.348 . S
C302 C304 1.356 . S
C302 O327 1.325 . S
C303 C302 1.348 . S
C303 C305 1.353 . S
C303 H344 0.929 . S
C304 C302 1.356 . S
C304 C306 1.358 . S
C304 H345 0.930 . S
C305 C303 1.353 . S
C305 N307 1.314 . S
C305 H346 0.930 . S
C306 C304 1.358 . S
C306 N307 1.279 . S
C306 H347 0.930 . S
N307 C305 1.314 . S
N307 C306 1.279 . S
C308 C310 1.353 . S
C308 N311 1.314 . S
C308 H314 0.930 . S
C309 N311 1.279 . S
C309 C312 1.358 . S
C309 H315 0.930 . S
C310 C308 1.353 . S
C310 C313 1.348 . S
C310 H348 0.929 . S
N311 Li266 1.990 . S
N311 C308 1.314 . S
N311 C309 1.279 . S
C312 C309 1.358 . S
C312 C313 1.356 . S
C312 H349 0.930 . S
C313 C310 1.348 . S
C313 C312 1.356 . S
H314 C308 0.930 . S
H315 C309 0.930 . S
C316 N317 1.314 . S
C316 C318 1.353 . S
C316 H322 0.930 . S
N317 Li267 1.990 . S
N317 C316 1.314 . S
N317 C320 1.279 . S
C318 C316 1.353 . S
C318 C321 1.348 . S
C318 H350 0.929 . S
C319 C320 1.358 . S
C319 C321 1.356 . S
C319 H351 0.930 . S
C320 N317 1.279 . S
C320 C319 1.358 . S
C320 H323 0.930 . S
C321 C318 1.348 . S
C321 C319 1.356 . S
H322 C316 0.930 . S
H323 C320 0.930 . S
O324 Li264 1.956 . S
O324 Li265 1.970 . S
O324 Li266 1.961 . S
O324 C268 1.325 . S
O325 Li264 1.970 . S
O325 Li265 1.956 . S
O325 Li267 1.961 . S
O325 C274 1.325 . S
O326 Li264 1.961 . S
O326 Li266 1.956 . S
O326 Li267 1.970 . S
O326 C296 1.325 . S
O327 Li265 1.961 . S
O327 Li266 1.970 . S
O327 Li267 1.956 . S
O327 C302 1.325 . S
H328 C270 0.929 . S
H329 C271 0.930 . S
H330 C272 0.930 . S
H331 C273 0.930 . S
H332 C275 0.930 . S
H333 C277 0.929 . S
H334 C278 0.930 . S
H335 C279 0.930 . S
H336 C282 0.930 . S
H337 C285 0.929 . S
H338 C290 0.929 . S
H339 C291 0.930 . S
H340 C298 0.929 . S
H341 C299 0.930 . S
H342 C300 0.930 . S
H343 C301 0.930 . S
H344 C303 0.929 . S
H345 C304 0.930 . S
H346 C305 0.930 . S
H347 C306 0.930 . S
H348 C310 0.929 . S
H349 C312 0.930 . S
H350 C318 0.929 . S
H351 C319 0.930 . S
Li352 N369 1.990 . S
Li352 O412 1.956 . S
Li352 O413 1.970 . S
Li352 O414 1.961 . S
Li353 N377 1.990 . S
Li353 O412 1.970 . S
Li353 O413 1.956 . S
Li353 O415 1.961 . S
Li354 N399 1.990 . S
Li354 O412 1.961 . S
Li354 O414 1.956 . S
Li354 O415 1.970 . S
Li355 N405 1.990 . S
Li355 O413 1.961 . S
Li355 O414 1.970 . S
Li355 O415 1.956 . S
C356 C358 1.348 . S
C356 C359 1.356 . S
C356 O412 1.325 . S
N357 C360 1.314 . S
N357 C361 1.279 . S
C358 C356 1.348 . S
C358 C360 1.353 . S
C358 H416 0.929 . S
C359 C356 1.356 . S
C359 C361 1.358 . S
C359 H417 0.930 . S
C360 N357 1.314 . S
C360 C358 1.353 . S
C360 H418 0.930 . S
C361 N357 1.279 . S
C361 C359 1.358 . S
C361 H419 0.930 . S
C362 C365 1.348 . S
C362 C366 1.356 . S
C362 O413 1.325 . S
C363 N364 1.279 . S
C363 C366 1.358 . S
C363 H420 0.930 . S
N364 C363 1.279 . S
N364 C367 1.314 . S
C365 C362 1.348 . S
C365 C367 1.353 . S
C365 H421 0.929 . S
C366 C362 1.356 . S
C366 C363 1.358 . S
C366 H422 0.930 . S
C367 N364 1.314 . S
C367 C365 1.353 . S
C367 H423 0.930 . S
C368 N369 1.314 . S
C368 C373 1.353 . S
C368 H374 0.930 . S
N369 Li352 1.990 . S
N369 C368 1.314 . S
N369 C371 1.279 . S
C370 C371 1.358 . S
C370 C372 1.356 . S
C370 H424 0.930 . S
C371 N369 1.279 . S
C371 C370 1.358 . S
C371 H375 0.930 . S
C372 C370 1.356 . S
C372 C373 1.348 . S
C373 C368 1.353 . S
C373 C372 1.348 . S
C373 H425 0.929 . S
H374 C368 0.930 . S
H375 C371 0.930 . S
C376 N377 1.314 . S
C376 C378 1.353 1_565 S
C376 H382 0.930 . S
N377 Li353 1.990 . S
N377 C376 1.314 . S
N377 C380 1.279 1_565 S
C378 C376 1.353 1_545 S
C378 C381 1.348 . S
C378 H426 0.929 . S
C379 C380 1.358 . S
C379 C381 1.356 . S
C379 H427 0.930 . S
C380 N377 1.279 1_545 S
C380 C379 1.358 . S
C380 H383 0.930 . S
C381 C378 1.348 . S
C381 C379 1.356 . S
H382 C376 0.930 . S
H383 C380 0.930 . S
C384 C386 1.348 . S
C384 C387 1.356 . S
C384 O414 1.325 . S
N385 C388 1.314 . S
N385 C389 1.279 . S
C386 C384 1.348 . S
C386 C388 1.353 . S
C386 H428 0.929 . S
C387 C384 1.356 . S
C387 C389 1.358 . S
C387 H429 0.930 . S
C388 N385 1.314 . S
C388 C386 1.353 . S
C388 H430 0.930 . S
C389 N385 1.279 . S
C389 C387 1.358 . S
C389 H431 0.930 . S
C390 C391 1.348 . S
C390 C392 1.356 . S
C390 O415 1.325 . S
C391 C390 1.348 . S
C391 C393 1.353 . S
C391 H432 0.929 . S
C392 C390 1.356 . S
C392 C394 1.358 . S
C392 H433 0.930 . S
C393 C391 1.353 . S
C393 N395 1.314 . S
C393 H434 0.930 . S
C394 C392 1.358 . S
C394 N395 1.279 . S
C394 H435 0.930 . S
N395 C393 1.314 . S
N395 C394 1.279 . S
C396 C398 1.353 . S
C396 N399 1.314 . S
C396 H402 0.930 . S
C397 N399 1.279 . S
C397 C400 1.358 . S
C397 H403 0.930 . S
C398 C396 1.353 . S
C398 C401 1.348 . S
C398 H436 0.929 . S
N399 Li354 1.990 . S
N399 C396 1.314 . S
N399 C397 1.279 . S
C400 C397 1.358 . S
C400 C401 1.356 . S
C400 H437 0.930 . S
C401 C398 1.348 . S
C401 C400 1.356 . S
H402 C396 0.930 . S
H403 C397 0.930 . S
C404 N405 1.314 . S
C404 C406 1.353 . S
C404 H410 0.930 . S
N405 Li355 1.990 . S
N405 C404 1.314 . S
N405 C408 1.279 . S
C406 C404 1.353 . S
C406 C409 1.348 . S
C406 H438 0.929 . S
C407 C408 1.358 . S
C407 C409 1.356 . S
C407 H439 0.930 . S
C408 N405 1.279 . S
C408 C407 1.358 . S
C408 H411 0.930 . S
C409 C406 1.348 . S
C409 C407 1.356 . S
H410 C404 0.930 . S
H411 C408 0.930 . S
O412 Li352 1.956 . S
O412 Li353 1.970 . S
O412 Li354 1.961 . S
O412 C356 1.325 . S
O413 Li352 1.970 . S
O413 Li353 1.956 . S
O413 Li355 1.961 . S
O413 C362 1.325 . S
O414 Li352 1.961 . S
O414 Li354 1.956 . S
O414 Li355 1.970 . S
O414 C384 1.325 . S
O415 Li353 1.961 . S
O415 Li354 1.970 . S
O415 Li355 1.956 . S
O415 C390 1.325 . S
H416 C358 0.929 . S
H417 C359 0.930 . S
H418 C360 0.930 . S
H419 C361 0.930 . S
H420 C363 0.930 . S
H421 C365 0.929 . S
H422 C366 0.930 . S
H423 C367 0.930 . S
H424 C370 0.930 . S
H425 C373 0.929 . S
H426 C378 0.929 . S
H427 C379 0.930 . S
H428 C386 0.929 . S
H429 C387 0.930 . S
H430 C388 0.930 . S
H431 C389 0.930 . S
H432 C391 0.929 . S
H433 C392 0.930 . S
H434 C393 0.930 . S
H435 C394 0.930 . S
H436 C398 0.929 . S
H437 C400 0.930 . S
H438 C406 0.929 . S
H439 C407 0.930 . S
Li440 N457 1.990 . S
Li440 O500 1.956 . S
Li440 O501 1.970 . S
Li440 O502 1.961 . S
Li441 N465 1.990 . S
Li441 O500 1.970 . S
Li441 O501 1.956 . S
Li441 O503 1.961 . S
Li442 N487 1.990 . S
Li442 O500 1.961 . S
Li442 O502 1.956 . S
Li442 O503 1.970 . S
Li443 N493 1.990 . S
Li443 O501 1.961 . S
Li443 O502 1.970 . S
Li443 O503 1.956 . S
C444 C446 1.348 . S
C444 C447 1.356 . S
C444 O500 1.325 . S
N445 C448 1.314 1_554 S
N445 C449 1.279 . S
C446 C444 1.348 . S
C446 C448 1.353 . S
C446 H504 0.929 . S
C447 C444 1.356 . S
C447 C449 1.358 1_556 S
C447 H505 0.930 . S
C448 N445 1.314 1_556 S
C448 C446 1.353 . S
C448 H506 0.930 . S
C449 N445 1.279 . S
C449 C447 1.358 1_554 S
C449 H507 0.930 . S
C450 C453 1.348 . S
C450 C454 1.356 . S
C450 O501 1.325 . S
C451 N452 1.279 . S
C451 C454 1.358 . S
C451 H508 0.930 . S
N452 C451 1.279 . S
N452 C455 1.314 . S
C453 C450 1.348 . S
C453 C455 1.353 . S
C453 H509 0.929 . S
C454 C450 1.356 . S
C454 C451 1.358 . S
C454 H510 0.930 . S
C455 N452 1.314 . S
C455 C453 1.353 . S
C455 H511 0.930 . S
C456 N457 1.314 . S
C456 C461 1.353 . S
C456 H462 0.930 . S
N457 Li440 1.990 . S
N457 C456 1.314 . S
N457 C459 1.279 . S
C458 C459 1.358 . S
C458 C460 1.356 . S
C458 H512 0.930 . S
C459 N457 1.279 . S
C459 C458 1.358 . S
C459 H463 0.930 . S
C460 C458 1.356 . S
C460 C461 1.348 . S
C461 C456 1.353 . S
C461 C460 1.348 . S
C461 H513 0.929 . S
H462 C456 0.930 . S
H463 C459 0.930 . S
C464 N465 1.314 . S
C464 C466 1.353 . S
C464 H470 0.930 . S
N465 Li441 1.990 . S
N465 C464 1.314 . S
N465 C468 1.279 . S
C466 C464 1.353 . S
C466 C469 1.348 . S
C466 H514 0.929 . S
C467 C468 1.358 . S
C467 C469 1.356 . S
C467 H515 0.930 . S
C468 N465 1.279 . S
C468 C467 1.358 . S
C468 H471 0.930 . S
C469 C466 1.348 . S
C469 C467 1.356 . S
H470 C464 0.930 . S
H471 C468 0.930 . S
C472 C474 1.348 . S
C472 C475 1.356 . S
C472 O502 1.325 . S
N473 C476 1.314 . S
N473 C477 1.279 . S
C474 C472 1.348 . S
C474 C476 1.353 . S
C474 H516 0.929 . S
C475 C472 1.356 . S
C475 C477 1.358 . S
C475 H517 0.930 . S
C476 N473 1.314 . S
C476 C474 1.353 . S
C476 H518 0.930 . S
C477 N473 1.279 . S
C477 C475 1.358 . S
C477 H519 0.930 . S
C478 C479 1.348 . S
C478 C480 1.356 . S
C478 O503 1.325 . S
C479 C478 1.348 . S
C479 C481 1.353 . S
C479 H520 0.929 . S
C480 C478 1.356 . S
C480 C482 1.358 . S
C480 H521 0.930 . S
C481 C479 1.353 . S
C481 N483 1.314 . S
C481 H522 0.930 . S
C482 C480 1.358 . S
C482 N483 1.279 . S
C482 H523 0.930 . S
N483 C481 1.314 . S
N483 C482 1.279 . S
C484 C486 1.353 . S
C484 N487 1.314 1_554 S
C484 H490 0.930 . S
C485 N487 1.279 . S
C485 C488 1.358 1_556 S
C485 H491 0.930 . S
C486 C484 1.353 . S
C486 C489 1.348 . S
C486 H524 0.929 . S
N487 Li442 1.990 . S
N487 C484 1.314 1_556 S
N487 C485 1.279 . S
C488 C485 1.358 1_554 S
C488 C489 1.356 . S
C488 H525 0.930 . S
C489 C486 1.348 . S
C489 C488 1.356 . S
H490 C484 0.930 . S
H491 C485 0.930 . S
C492 N493 1.314 . S
C492 C494 1.353 . S
C492 H498 0.930 . S
N493 Li443 1.990 . S
N493 C492 1.314 . S
N493 C496 1.279 . S
C494 C492 1.353 . S
C494 C497 1.348 . S
C494 H526 0.929 . S
C495 C496 1.358 . S
C495 C497 1.356 . S
C495 H527 0.930 . S
C496 N493 1.279 . S
C496 C495 1.358 . S
C496 H499 0.930 . S
C497 C494 1.348 . S
C497 C495 1.356 . S
H498 C492 0.930 . S
H499 C496 0.930 . S
O500 Li440 1.956 . S
O500 Li441 1.970 . S
O500 Li442 1.961 . S
O500 C444 1.325 . S
O501 Li440 1.970 . S
O501 Li441 1.956 . S
O501 Li443 1.961 . S
O501 C450 1.325 . S
O502 Li440 1.961 . S
O502 Li442 1.956 . S
O502 Li443 1.970 . S
O502 C472 1.325 . S
O503 Li441 1.961 . S
O503 Li442 1.970 . S
O503 Li443 1.956 . S
O503 C478 1.325 . S
H504 C446 0.929 . S
H505 C447 0.930 . S
H506 C448 0.930 . S
H507 C449 0.930 . S
H508 C451 0.930 . S
H509 C453 0.929 . S
H510 C454 0.930 . S
H511 C455 0.930 . S
H512 C458 0.930 . S
H513 C461 0.929 . S
H514 C466 0.929 . S
H515 C467 0.930 . S
H516 C474 0.929 . S
H517 C475 0.930 . S
H518 C476 0.930 . S
H519 C477 0.930 . S
H520 C479 0.929 . S
H521 C480 0.930 . S
H522 C481 0.930 . S
H523 C482 0.930 . S
H524 C486 0.929 . S
H525 C488 0.930 . S
H526 C494 0.929 . S
H527 C495 0.930 . S
Li528 N545 1.990 . S
Li528 O588 1.956 . S
Li528 O589 1.970 . S
Li528 O590 1.961 . S
Li529 N553 1.990 . S
Li529 O588 1.970 . S
Li529 O589 1.956 . S
Li529 O591 1.961 . S
Li530 N575 1.990 . S
Li530 O588 1.961 . S
Li530 O590 1.956 . S
Li530 O591 1.970 . S
Li531 N581 1.990 . S
Li531 O589 1.961 . S
Li531 O590 1.970 . S
Li531 O591 1.956 . S
C532 C534 1.348 . S
C532 C535 1.356 . S
C532 O588 1.325 . S
N533 C536 1.314 . S
N533 C537 1.279 . S
C534 C532 1.348 . S
C534 C536 1.353 . S
C534 H592 0.929 . S
C535 C532 1.356 . S
C535 C537 1.358 . S
C535 H593 0.930 . S
C536 N533 1.314 . S
C536 C534 1.353 . S
C536 H594 0.930 . S
C537 N533 1.279 . S
C537 C535 1.358 . S
C537 H595 0.930 . S
C538 C541 1.348 . S
C538 C542 1.356 . S
C538 O589 1.325 . S
C539 N540 1.279 . S
C539 C542 1.358 . S
C539 H596 0.930 . S
N540 C539 1.279 . S
N540 C543 1.314 . S
C541 C538 1.348 . S
C541 C543 1.353 . S
C541 H597 0.929 . S
C542 C538 1.356 . S
C542 C539 1.358 . S
C542 H598 0.930 . S
C543 N540 1.314 . S
C543 C541 1.353 . S
C543 H599 0.930 . S
C544 N545 1.314 . S
C544 C549 1.353 1_565 S
C544 H550 0.930 . S
N545 Li528 1.990 . S
N545 C544 1.314 . S
N545 C547 1.279 1_565 S
C546 C547 1.358 . S
C546 C548 1.356 . S
C546 H600 0.930 . S
C547 N545 1.279 1_545 S
C547 C546 1.358 . S
C547 H551 0.930 . S
C548 C546 1.356 . S
C548 C549 1.348 . S
C549 C544 1.353 1_545 S
C549 C548 1.348 . S
C549 H601 0.929 . S
H550 C544 0.930 . S
H551 C547 0.930 . S
C552 N553 1.314 . S
C552 C554 1.353 . S
C552 H558 0.930 . S
N553 Li529 1.990 . S
N553 C552 1.314 . S
N553 C556 1.279 . S
C554 C552 1.353 . S
C554 C557 1.348 . S
C554 H602 0.929 . S
C555 C556 1.358 . S
C555 C557 1.356 . S
C555 H603 0.930 . S
C556 N553 1.279 . S
C556 C555 1.358 . S
C556 H559 0.930 . S
C557 C554 1.348 . S
C557 C555 1.356 . S
H558 C552 0.930 . S
H559 C556 0.930 . S
C560 C562 1.348 . S
C560 C563 1.356 . S
C560 O590 1.325 . S
N561 C564 1.314 . S
N561 C565 1.279 . S
C562 C560 1.348 . S
C562 C564 1.353 . S
C562 H604 0.929 . S
C563 C560 1.356 . S
C563 C565 1.358 . S
C563 H605 0.930 . S
C564 N561 1.314 . S
C564 C562 1.353 . S
C564 H606 0.930 . S
C565 N561 1.279 . S
C565 C563 1.358 . S
C565 H607 0.930 . S
C566 C567 1.348 . S
C566 C568 1.356 . S
C566 O591 1.325 . S
C567 C566 1.348 . S
C567 C569 1.353 . S
C567 H608 0.929 . S
C568 C566 1.356 . S
C568 C570 1.358 . S
C568 H609 0.930 . S
C569 C567 1.353 . S
C569 N571 1.314 . S
C569 H610 0.930 . S
C570 C568 1.358 . S
C570 N571 1.279 . S
C570 H611 0.930 . S
N571 C569 1.314 . S
N571 C570 1.279 . S
C572 C574 1.353 . S
C572 N575 1.314 . S
C572 H578 0.930 . S
C573 N575 1.279 . S
C573 C576 1.358 . S
C573 H579 0.930 . S
C574 C572 1.353 . S
C574 C577 1.348 . S
C574 H612 0.929 . S
N575 Li530 1.990 . S
N575 C572 1.314 . S
N575 C573 1.279 . S
C576 C573 1.358 . S
C576 C577 1.356 . S
C576 H613 0.930 . S
C577 C574 1.348 . S
C577 C576 1.356 . S
H578 C572 0.930 . S
H579 C573 0.930 . S
C580 N581 1.314 . S
C580 C582 1.353 . S
C580 H586 0.930 . S
N581 Li531 1.990 . S
N581 C580 1.314 . S
N581 C584 1.279 . S
C582 C580 1.353 . S
C582 C585 1.348 . S
C582 H614 0.929 . S
C583 C584 1.358 . S
C583 C585 1.356 . S
C583 H615 0.930 . S
C584 N581 1.279 . S
C584 C583 1.358 . S
C584 H587 0.930 . S
C585 C582 1.348 . S
C585 C583 1.356 . S
H586 C580 0.930 . S
H587 C584 0.930 . S
O588 Li528 1.956 . S
O588 Li529 1.970 . S
O588 Li530 1.961 . S
O588 C532 1.325 . S
O589 Li528 1.970 . S
O589 Li529 1.956 . S
O589 Li531 1.961 . S
O589 C538 1.325 . S
O590 Li528 1.961 . S
O590 Li530 1.956 . S
O590 Li531 1.970 . S
O590 C560 1.325 . S
O591 Li529 1.961 . S
O591 Li530 1.970 . S
O591 Li531 1.956 . S
O591 C566 1.325 . S
H592 C534 0.929 . S
H593 C535 0.930 . S
H594 C536 0.930 . S
H595 C537 0.930 . S
H596 C539 0.930 . S
H597 C541 0.929 . S
H598 C542 0.930 . S
H599 C543 0.930 . S
H600 C546 0.930 . S
H601 C549 0.929 . S
H602 C554 0.929 . S
H603 C555 0.930 . S
H604 C562 0.929 . S
H605 C563 0.930 . S
H606 C564 0.930 . S
H607 C565 0.930 . S
H608 C567 0.929 . S
H609 C568 0.930 . S
H610 C569 0.930 . S
H611 C570 0.930 . S
H612 C574 0.929 . S
H613 C576 0.930 . S
H614 C582 0.929 . S
H615 C583 0.930 . S
Li616 N633 1.990 . S
Li616 O676 1.956 . S
Li616 O677 1.970 . S
Li616 O678 1.961 . S
Li617 N641 1.990 . S
Li617 O676 1.970 . S
Li617 O677 1.956 . S
Li617 O679 1.961 . S
Li618 N663 1.990 . S
Li618 O676 1.961 . S
Li618 O678 1.956 . S
Li618 O679 1.970 . S
Li619 N669 1.990 . S
Li619 O677 1.961 . S
Li619 O678 1.970 . S
Li619 O679 1.956 . S
C620 C622 1.348 . S
C620 C623 1.356 . S
C620 O676 1.325 . S
N621 C624 1.314 . S
N621 C625 1.279 . S
C622 C620 1.348 . S
C622 C624 1.353 . S
C622 H680 0.929 . S
C623 C620 1.356 . S
C623 C625 1.358 . S
C623 H681 0.930 . S
C624 N621 1.314 . S
C624 C622 1.353 . S
C624 H682 0.930 . S
C625 N621 1.279 . S
C625 C623 1.358 . S
C625 H683 0.930 . S
C626 C629 1.348 . S
C626 C630 1.356 . S
C626 O677 1.325 . S
C627 N628 1.279 . S
C627 C630 1.358 . S
C627 H684 0.930 . S
N628 C627 1.279 . S
N628 C631 1.314 . S
C629 C626 1.348 . S
C629 C631 1.353 . S
C629 H685 0.929 . S
C630 C626 1.356 . S
C630 C627 1.358 . S
C630 H686 0.930 . S
C631 N628 1.314 . S
C631 C629 1.353 . S
C631 H687 0.930 . S
C632 N633 1.314 . S
C632 C637 1.353 . S
C632 H638 0.930 . S
N633 Li616 1.990 . S
N633 C632 1.314 . S
N633 C635 1.279 . S
C634 C635 1.358 . S
C634 C636 1.356 . S
C634 H688 0.930 . S
C635 N633 1.279 . S
C635 C634 1.358 . S
C635 H639 0.930 . S
C636 C634 1.356 . S
C636 C637 1.348 . S
C637 C632 1.353 . S
C637 C636 1.348 . S
C637 H689 0.929 . S
H638 C632 0.930 . S
H639 C635 0.930 . S
C640 N641 1.314 . S
C640 C642 1.353 . S
C640 H646 0.930 . S
N641 Li617 1.990 . S
N641 C640 1.314 . S
N641 C644 1.279 . S
C642 C640 1.353 . S
C642 C645 1.348 . S
C642 H690 0.929 . S
C643 C644 1.358 . S
C643 C645 1.356 . S
C643 H691 0.930 . S
C644 N641 1.279 . S
C644 C643 1.358 . S
C644 H647 0.930 . S
C645 C642 1.348 . S
C645 C643 1.356 . S
H646 C640 0.930 . S
H647 C644 0.930 . S
C648 C650 1.348 . S
C648 C651 1.356 . S
C648 O678 1.325 . S
N649 C652 1.314 . S
N649 C653 1.279 . S
C650 C648 1.348 . S
C650 C652 1.353 . S
C650 H692 0.929 . S
C651 C648 1.356 . S
C651 C653 1.358 . S
C651 H693 0.930 . S
C652 N649 1.314 . S
C652 C650 1.353 . S
C652 H694 0.930 . S
C653 N649 1.279 . S
C653 C651 1.358 . S
C653 H695 0.930 . S
C654 C655 1.348 . S
C654 C656 1.356 . S
C654 O679 1.325 . S
C655 C654 1.348 . S
C655 C657 1.353 . S
C655 H696 0.929 . S
C656 C654 1.356 . S
C656 C658 1.358 . S
C656 H697 0.930 . S
C657 C655 1.353 . S
C657 N659 1.314 . S
C657 H698 0.930 . S
C658 C656 1.358 . S
C658 N659 1.279 . S
C658 H699 0.930 . S
N659 C657 1.314 . S
N659 C658 1.279 . S
C660 C662 1.353 . S
C660 N663 1.314 . S
C660 H666 0.930 . S
C661 N663 1.279 . S
C661 C664 1.358 . S
C661 H667 0.930 . S
C662 C660 1.353 . S
C662 C665 1.348 . S
C662 H700 0.929 . S
N663 Li618 1.990 . S
N663 C660 1.314 . S
N663 C661 1.279 . S
C664 C661 1.358 . S
C664 C665 1.356 . S
C664 H701 0.930 . S
C665 C662 1.348 . S
C665 C664 1.356 . S
H666 C660 0.930 . S
H667 C661 0.930 . S
C668 N669 1.314 . S
C668 C670 1.353 . S
C668 H674 0.930 . S
N669 Li619 1.990 . S
N669 C668 1.314 . S
N669 C672 1.279 . S
C670 C668 1.353 . S
C670 C673 1.348 . S
C670 H702 0.929 . S
C671 C672 1.358 . S
C671 C673 1.356 . S
C671 H703 0.930 . S
C672 N669 1.279 . S
C672 C671 1.358 . S
C672 H675 0.930 . S
C673 C670 1.348 . S
C673 C671 1.356 . S
H674 C668 0.930 . S
H675 C672 0.930 . S
O676 Li616 1.956 . S
O676 Li617 1.970 . S
O676 Li618 1.961 . S
O676 C620 1.325 . S
O677 Li616 1.970 . S
O677 Li617 1.956 . S
O677 Li619 1.961 . S
O677 C626 1.325 . S
O678 Li616 1.961 . S
O678 Li618 1.956 . S
O678 Li619 1.970 . S
O678 C648 1.325 . S
O679 Li617 1.961 . S
O679 Li618 1.970 . S
O679 Li619 1.956 . S
O679 C654 1.325 . S
H680 C622 0.929 . S
H681 C623 0.930 . S
H682 C624 0.930 . S
H683 C625 0.930 . S
H684 C627 0.930 . S
H685 C629 0.929 . S
H686 C630 0.930 . S
H687 C631 0.930 . S
H688 C634 0.930 . S
H689 C637 0.929 . S
H690 C642 0.929 . S
H691 C643 0.930 . S
H692 C650 0.929 . S
H693 C651 0.930 . S
H694 C652 0.930 . S
H695 C653 0.930 . S
H696 C655 0.929 . S
H697 C656 0.930 . S
H698 C657 0.930 . S
H699 C658 0.930 . S
H700 C662 0.929 . S
H701 C664 0.930 . S
H702 C670 0.929 . S
H703 C671 0.930 . S
Li704 N721 1.990 . S
Li704 O764 1.956 . S
Li704 O765 1.970 . S
Li704 O766 1.961 . S
Li705 N729 1.990 . S
Li705 O764 1.970 . S
Li705 O765 1.956 . S
Li705 O767 1.961 . S
Li706 N751 1.990 . S
Li706 O764 1.961 . S
Li706 O766 1.956 . S
Li706 O767 1.970 . S
Li707 N757 1.990 . S
Li707 O765 1.961 . S
Li707 O766 1.970 . S
Li707 O767 1.956 . S
C708 C710 1.348 . S
C708 C711 1.356 . S
C708 O764 1.325 . S
N709 C712 1.314 . S
N709 C713 1.279 . S
C710 C708 1.348 . S
C710 C712 1.353 . S
C710 H768 0.929 . S
C711 C708 1.356 . S
C711 C713 1.358 . S
C711 H769 0.930 . S
C712 N709 1.314 . S
C712 C710 1.353 . S
C712 H770 0.930 . S
C713 N709 1.279 . S
C713 C711 1.358 . S
C713 H771 0.930 . S
C714 C717 1.348 . S
C714 C718 1.356 . S
C714 O765 1.325 . S
C715 N716 1.279 . S
C715 C718 1.358 . S
C715 H772 0.930 . S
N716 C715 1.279 . S
N716 C719 1.314 . S
C717 C714 1.348 . S
C717 C719 1.353 . S
C717 H773 0.929 . S
C718 C714 1.356 . S
C718 C715 1.358 . S
C718 H774 0.930 . S
C719 N716 1.314 . S
C719 C717 1.353 . S
C719 H775 0.930 . S
C720 N721 1.314 1_556 S
C720 C725 1.353 . S
C720 H726 0.930 . S
N721 Li704 1.990 . S
N721 C720 1.314 1_554 S
N721 C723 1.279 . S
C722 C723 1.358 1_556 S
C722 C724 1.356 . S
C722 H776 0.930 . S
C723 N721 1.279 . S
C723 C722 1.358 1_554 S
C723 H727 0.930 . S
C724 C722 1.356 . S
C724 C725 1.348 . S
C725 C720 1.353 . S
C725 C724 1.348 . S
C725 H777 0.929 . S
H726 C720 0.930 . S
H727 C723 0.930 . S
C728 N729 1.314 . S
C728 C730 1.353 . S
C728 H734 0.930 . S
N729 Li705 1.990 . S
N729 C728 1.314 . S
N729 C732 1.279 . S
C730 C728 1.353 . S
C730 C733 1.348 . S
C730 H778 0.929 . S
C731 C732 1.358 . S
C731 C733 1.356 . S
C731 H779 0.930 . S
C732 N729 1.279 . S
C732 C731 1.358 . S
C732 H735 0.930 . S
C733 C730 1.348 . S
C733 C731 1.356 . S
H734 C728 0.930 . S
H735 C732 0.930 . S
C736 C738 1.348 . S
C736 C739 1.356 . S
C736 O766 1.325 . S
N737 C740 1.314 1_556 S
N737 C741 1.279 . S
C738 C736 1.348 . S
C738 C740 1.353 . S
C738 H780 0.929 . S
C739 C736 1.356 . S
C739 C741 1.358 1_554 S
C739 H781 0.930 . S
C740 N737 1.314 1_554 S
C740 C738 1.353 . S
C740 H782 0.930 . S
C741 N737 1.279 . S
C741 C739 1.358 1_556 S
C741 H783 0.930 . S
C742 C743 1.348 . S
C742 C744 1.356 . S
C742 O767 1.325 . S
C743 C742 1.348 . S
C743 C745 1.353 . S
C743 H784 0.929 . S
C744 C742 1.356 . S
C744 C746 1.358 . S
C744 H785 0.930 . S
C745 C743 1.353 . S
C745 N747 1.314 . S
C745 H786 0.930 . S
C746 C744 1.358 . S
C746 N747 1.279 . S
C746 H787 0.930 . S
N747 C745 1.314 . S
N747 C746 1.279 . S
C748 C750 1.353 . S
C748 N751 1.314 . S
C748 H754 0.930 . S
C749 N751 1.279 . S
C749 C752 1.358 . S
C749 H755 0.930 . S
C750 C748 1.353 . S
C750 C753 1.348 . S
C750 H788 0.929 . S
N751 Li706 1.990 . S
N751 C748 1.314 . S
N751 C749 1.279 . S
C752 C749 1.358 . S
C752 C753 1.356 . S
C752 H789 0.930 . S
C753 C750 1.348 . S
C753 C752 1.356 . S
H754 C748 0.930 . S
H755 C749 0.930 . S
C756 N757 1.314 . S
C756 C758 1.353 1_455 S
C756 H762 0.930 . S
N757 Li707 1.990 . S
N757 C756 1.314 . S
N757 C760 1.279 1_455 S
C758 C756 1.353 1_655 S
C758 C761 1.348 . S
C758 H790 0.929 . S
C759 C760 1.358 . S
C759 C761 1.356 . S
C759 H791 0.930 . S
C760 N757 1.279 1_655 S
C760 C759 1.358 . S
C760 H763 0.930 . S
C761 C758 1.348 . S
C761 C759 1.356 . S
H762 C756 0.930 . S
H763 C760 0.930 . S
O764 Li704 1.956 . S
O764 Li705 1.970 . S
O764 Li706 1.961 . S
O764 C708 1.325 . S
O765 Li704 1.970 . S
O765 Li705 1.956 . S
O765 Li707 1.961 . S
O765 C714 1.325 . S
O766 Li704 1.961 . S
O766 Li706 1.956 . S
O766 Li707 1.970 . S
O766 C736 1.325 . S
O767 Li705 1.961 . S
O767 Li706 1.970 . S
O767 Li707 1.956 . S
O767 C742 1.325 . S
H768 C710 0.929 . S
H769 C711 0.930 . S
H770 C712 0.930 . S
H771 C713 0.930 . S
H772 C715 0.930 . S
H773 C717 0.929 . S
H774 C718 0.930 . S
H775 C719 0.930 . S
H776 C722 0.930 . S
H777 C725 0.929 . S
H778 C730 0.929 . S
H779 C731 0.930 . S
H780 C738 0.929 . S
H781 C739 0.930 . S
H782 C740 0.930 . S
H783 C741 0.930 . S
H784 C743 0.929 . S
H785 C744 0.930 . S
H786 C745 0.930 . S
H787 C746 0.930 . S
H788 C750 0.929 . S
H789 C752 0.930 . S
H790 C758 0.929 . S
H791 C759 0.930 . S
Li792 N809 1.990 . S
Li792 O852 1.956 . S
Li792 O853 1.970 . S
Li792 O854 1.961 . S
Li793 N817 1.990 . S
Li793 O852 1.970 . S
Li793 O853 1.956 . S
Li793 O855 1.961 . S
Li794 N839 1.990 . S
Li794 O852 1.961 . S
Li794 O854 1.956 . S
Li794 O855 1.970 . S
Li795 N845 1.990 . S
Li795 O853 1.961 . S
Li795 O854 1.970 . S
Li795 O855 1.956 . S
C796 C798 1.348 . S
C796 C799 1.356 . S
C796 O852 1.325 . S
N797 C800 1.314 . S
N797 C801 1.279 . S
C798 C796 1.348 . S
C798 C800 1.353 . S
C798 H856 0.929 . S
C799 C796 1.356 . S
C799 C801 1.358 . S
C799 H857 0.930 . S
C800 N797 1.314 . S
C800 C798 1.353 . S
C800 H858 0.930 . S
C801 N797 1.279 . S
C801 C799 1.358 . S
C801 H859 0.930 . S
C802 C805 1.348 . S
C802 C806 1.356 . S
C802 O853 1.325 . S
C803 N804 1.279 . S
C803 C806 1.358 . S
C803 H860 0.930 . S
N804 C803 1.279 . S
N804 C807 1.314 . S
C805 C802 1.348 . S
C805 C807 1.353 . S
C805 H861 0.929 . S
C806 C802 1.356 . S
C806 C803 1.358 . S
C806 H862 0.930 . S
C807 N804 1.314 . S
C807 C805 1.353 . S
C807 H863 0.930 . S
C808 N809 1.314 . S
C808 C813 1.353 1_545 S
C808 H814 0.930 . S
N809 Li792 1.990 . S
N809 C808 1.314 . S
N809 C811 1.279 1_545 S
C810 C811 1.358 . S
C810 C812 1.356 . S
C810 H864 0.930 . S
C811 N809 1.279 1_565 S
C811 C810 1.358 . S
C811 H815 0.930 . S
C812 C810 1.356 . S
C812 C813 1.348 . S
C813 C808 1.353 1_565 S
C813 C812 1.348 . S
C813 H865 0.929 . S
H814 C808 0.930 . S
H815 C811 0.930 . S
C816 N817 1.314 . S
C816 C818 1.353 . S
C816 H822 0.930 . S
N817 Li793 1.990 . S
N817 C816 1.314 . S
N817 C820 1.279 . S
C818 C816 1.353 . S
C818 C821 1.348 . S
C818 H866 0.929 . S
C819 C820 1.358 . S
C819 C821 1.356 . S
C819 H867 0.930 . S
C820 N817 1.279 . S
C820 C819 1.358 . S
C820 H823 0.930 . S
C821 C818 1.348 . S
C821 C819 1.356 . S
H822 C816 0.930 . S
H823 C820 0.930 . S
C824 C826 1.348 . S
C824 C827 1.356 . S
C824 O854 1.325 . S
N825 C828 1.314 . S
N825 C829 1.279 . S
C826 C824 1.348 . S
C826 C828 1.353 . S
C826 H868 0.929 . S
C827 C824 1.356 . S
C827 C829 1.358 . S
C827 H869 0.930 . S
C828 N825 1.314 . S
C828 C826 1.353 . S
C828 H870 0.930 . S
C829 N825 1.279 . S
C829 C827 1.358 . S
C829 H871 0.930 . S
C830 C831 1.348 . S
C830 C832 1.356 . S
C830 O855 1.325 . S
C831 C830 1.348 . S
C831 C833 1.353 . S
C831 H872 0.929 . S
C832 C830 1.356 . S
C832 C834 1.358 . S
C832 H873 0.930 . S
C833 C831 1.353 . S
C833 N835 1.314 . S
C833 H874 0.930 . S
C834 C832 1.358 . S
C834 N835 1.279 . S
C834 H875 0.930 . S
N835 C833 1.314 . S
N835 C834 1.279 . S
C836 C838 1.353 . S
C836 N839 1.314 . S
C836 H842 0.930 . S
C837 N839 1.279 . S
C837 C840 1.358 . S
C837 H843 0.930 . S
C838 C836 1.353 . S
C838 C841 1.348 . S
C838 H876 0.929 . S
N839 Li794 1.990 . S
N839 C836 1.314 . S
N839 C837 1.279 . S
C840 C837 1.358 . S
C840 C841 1.356 . S
C840 H877 0.930 . S
C841 C838 1.348 . S
C841 C840 1.356 . S
H842 C836 0.930 . S
H843 C837 0.930 . S
C844 N845 1.314 . S
C844 C846 1.353 . S
C844 H850 0.930 . S
N845 Li795 1.990 . S
N845 C844 1.314 . S
N845 C848 1.279 . S
C846 C844 1.353 . S
C846 C849 1.348 . S
C846 H878 0.929 . S
C847 C848 1.358 . S
C847 C849 1.356 . S
C847 H879 0.930 . S
C848 N845 1.279 . S
C848 C847 1.358 . S
C848 H851 0.930 . S
C849 C846 1.348 . S
C849 C847 1.356 . S
H850 C844 0.930 . S
H851 C848 0.930 . S
O852 Li792 1.956 . S
O852 Li793 1.970 . S
O852 Li794 1.961 . S
O852 C796 1.325 . S
O853 Li792 1.970 . S
O853 Li793 1.956 . S
O853 Li795 1.961 . S
O853 C802 1.325 . S
O854 Li792 1.961 . S
O854 Li794 1.956 . S
O854 Li795 1.970 . S
O854 C824 1.325 . S
O855 Li793 1.961 . S
O855 Li794 1.970 . S
O855 Li795 1.956 . S
O855 C830 1.325 . S
H856 C798 0.929 . S
H857 C799 0.930 . S
H858 C800 0.930 . S
H859 C801 0.930 . S
H860 C803 0.930 . S
H861 C805 0.929 . S
H862 C806 0.930 . S
H863 C807 0.930 . S
H864 C810 0.930 . S
H865 C813 0.929 . S
H866 C818 0.929 . S
H867 C819 0.930 . S
H868 C826 0.929 . S
H869 C827 0.930 . S
H870 C828 0.930 . S
H871 C829 0.930 . S
H872 C831 0.929 . S
H873 C832 0.930 . S
H874 C833 0.930 . S
H875 C834 0.930 . S
H876 C838 0.929 . S
H877 C840 0.930 . S
H878 C846 0.929 . S
H879 C847 0.930 . S
Li880 N897 1.990 . S
Li880 O940 1.956 . S
Li880 O941 1.970 . S
Li880 O942 1.961 . S
Li881 N905 1.990 . S
Li881 O940 1.970 . S
Li881 O941 1.956 . S
Li881 O943 1.961 . S
Li882 N927 1.990 . S
Li882 O940 1.961 . S
Li882 O942 1.956 . S
Li882 O943 1.970 . S
Li883 N933 1.990 . S
Li883 O941 1.961 . S
Li883 O942 1.970 . S
Li883 O943 1.956 . S
C884 C886 1.348 . S
C884 C887 1.356 . S
C884 O940 1.325 . S
N885 C888 1.314 . S
N885 C889 1.279 . S
C886 C884 1.348 . S
C886 C888 1.353 . S
C886 H944 0.929 . S
C887 C884 1.356 . S
C887 C889 1.358 . S
C887 H945 0.930 . S
C888 N885 1.314 . S
C888 C886 1.353 . S
C888 H946 0.930 . S
C889 N885 1.279 . S
C889 C887 1.358 . S
C889 H947 0.930 . S
C890 C893 1.348 . S
C890 C894 1.356 . S
C890 O941 1.325 . S
C891 N892 1.279 . S
C891 C894 1.358 . S
C891 H948 0.930 . S
N892 C891 1.279 . S
N892 C895 1.314 . S
C893 C890 1.348 . S
C893 C895 1.353 . S
C893 H949 0.929 . S
C894 C890 1.356 . S
C894 C891 1.358 . S
C894 H950 0.930 . S
C895 N892 1.314 . S
C895 C893 1.353 . S
C895 H951 0.930 . S
C896 N897 1.314 . S
C896 C901 1.353 . S
C896 H902 0.930 . S
N897 Li880 1.990 . S
N897 C896 1.314 . S
N897 C899 1.279 . S
C898 C899 1.358 . S
C898 C900 1.356 . S
C898 H952 0.930 . S
C899 N897 1.279 . S
C899 C898 1.358 . S
C899 H903 0.930 . S
C900 C898 1.356 . S
C900 C901 1.348 . S
C901 C896 1.353 . S
C901 C900 1.348 . S
C901 H953 0.929 . S
H902 C896 0.930 . S
H903 C899 0.930 . S
C904 N905 1.314 . S
C904 C906 1.353 . S
C904 H910 0.930 . S
N905 Li881 1.990 . S
N905 C904 1.314 . S
N905 C908 1.279 . S
C906 C904 1.353 . S
C906 C909 1.348 . S
C906 H954 0.929 . S
C907 C908 1.358 . S
C907 C909 1.356 . S
C907 H955 0.930 . S
C908 N905 1.279 . S
C908 C907 1.358 . S
C908 H911 0.930 . S
C909 C906 1.348 . S
C909 C907 1.356 . S
H910 C904 0.930 . S
H911 C908 0.930 . S
C912 C914 1.348 . S
C912 C915 1.356 . S
C912 O942 1.325 . S
N913 C916 1.314 . S
N913 C917 1.279 . S
C914 C912 1.348 . S
C914 C916 1.353 . S
C914 H956 0.929 . S
C915 C912 1.356 . S
C915 C917 1.358 . S
C915 H957 0.930 . S
C916 N913 1.314 . S
C916 C914 1.353 . S
C916 H958 0.930 . S
C917 N913 1.279 . S
C917 C915 1.358 . S
C917 H959 0.930 . S
C918 C919 1.348 . S
C918 C920 1.356 . S
C918 O943 1.325 . S
C919 C918 1.348 . S
C919 C921 1.353 . S
C919 H960 0.929 . S
C920 C918 1.356 . S
C920 C922 1.358 . S
C920 H961 0.930 . S
C921 C919 1.353 . S
C921 N923 1.314 . S
C921 H962 0.930 . S
C922 C920 1.358 . S
C922 N923 1.279 . S
C922 H963 0.930 . S
N923 C921 1.314 . S
N923 C922 1.279 . S
C924 C926 1.353 . S
C924 N927 1.314 . S
C924 H930 0.930 . S
C925 N927 1.279 . S
C925 C928 1.358 . S
C925 H931 0.930 . S
C926 C924 1.353 . S
C926 C929 1.348 . S
C926 H964 0.929 . S
N927 Li882 1.990 . S
N927 C924 1.314 . S
N927 C925 1.279 . S
C928 C925 1.358 . S
C928 C929 1.356 . S
C928 H965 0.930 . S
C929 C926 1.348 . S
C929 C928 1.356 . S
H930 C924 0.930 . S
H931 C925 0.930 . S
C932 N933 1.314 . S
C932 C934 1.353 . S
C932 H938 0.930 . S
N933 Li883 1.990 . S
N933 C932 1.314 . S
N933 C936 1.279 . S
C934 C932 1.353 . S
C934 C937 1.348 . S
C934 H966 0.929 . S
C935 C936 1.358 . S
C935 C937 1.356 . S
C935 H967 0.930 . S
C936 N933 1.279 . S
C936 C935 1.358 . S
C936 H939 0.930 . S
C937 C934 1.348 . S
C937 C935 1.356 . S
H938 C932 0.930 . S
H939 C936 0.930 . S
O940 Li880 1.956 . S
O940 Li881 1.970 . S
O940 Li882 1.961 . S
O940 C884 1.325 . S
O941 Li880 1.970 . S
O941 Li881 1.956 . S
O941 Li883 1.961 . S
O941 C890 1.325 . S
O942 Li880 1.961 . S
O942 Li882 1.956 . S
O942 Li883 1.970 . S
O942 C912 1.325 . S
O943 Li881 1.961 . S
O943 Li882 1.970 . S
O943 Li883 1.956 . S
O943 C918 1.325 . S
H944 C886 0.929 . S
H945 C887 0.930 . S
H946 C888 0.930 . S
H947 C889 0.930 . S
H948 C891 0.930 . S
H949 C893 0.929 . S
H950 C894 0.930 . S
H951 C895 0.930 . S
H952 C898 0.930 . S
H953 C901 0.929 . S
H954 C906 0.929 . S
H955 C907 0.930 . S
H956 C914 0.929 . S
H957 C915 0.930 . S
H958 C916 0.930 . S
H959 C917 0.930 . S
H960 C919 0.929 . S
H961 C920 0.930 . S
H962 C921 0.930 . S
H963 C922 0.930 . S
H964 C926 0.929 . S
H965 C928 0.930 . S
H966 C934 0.929 . S
H967 C935 0.930 . S
Li968 N985 1.990 . S
Li968 O1028 1.956 . S
Li968 O1029 1.970 . S
Li968 O1030 1.961 . S
Li969 N993 1.990 . S
Li969 O1028 1.970 . S
Li969 O1029 1.956 . S
Li969 O1031 1.961 . S
Li970 N1015 1.990 . S
Li970 O1028 1.961 . S
Li970 O1030 1.956 . S
Li970 O1031 1.970 . S
Li971 N1021 1.990 . S
Li971 O1029 1.961 . S
Li971 O1030 1.970 . S
Li971 O1031 1.956 . S
C972 C974 1.348 . S
C972 C975 1.356 . S
C972 O1028 1.325 . S
N973 C976 1.314 . S
N973 C977 1.279 . S
C974 C972 1.348 . S
C974 C976 1.353 . S
C974 H1032 0.929 . S
C975 C972 1.356 . S
C975 C977 1.358 . S
C975 H1033 0.930 . S
C976 N973 1.314 . S
C976 C974 1.353 . S
C976 H1034 0.930 . S
C977 N973 1.279 . S
C977 C975 1.358 . S
C977 H1035 0.930 . S
C978 C981 1.348 . S
C978 C982 1.356 . S
C978 O1029 1.325 . S
C979 N980 1.279 . S
C979 C982 1.358 . S
C979 H1036 0.930 . S
N980 C979 1.279 . S
N980 C983 1.314 . S
C981 C978 1.348 . S
C981 C983 1.353 . S
C981 H1037 0.929 . S
C982 C978 1.356 . S
C982 C979 1.358 . S
C982 H1038 0.930 . S
C983 N980 1.314 . S
C983 C981 1.353 . S
C983 H1039 0.930 . S
C984 N985 1.314 . S
C984 C989 1.353 1_655 S
C984 H990 0.930 . S
N985 Li968 1.990 . S
N985 C984 1.314 . S
N985 C987 1.279 1_655 S
C986 C987 1.358 . S
C986 C988 1.356 . S
C986 H1040 0.930 . S
C987 N985 1.279 1_455 S
C987 C986 1.358 . S
C987 H991 0.930 . S
C988 C986 1.356 . S
C988 C989 1.348 . S
C989 C984 1.353 1_455 S
C989 C988 1.348 . S
C989 H1041 0.929 . S
H990 C984 0.930 . S
H991 C987 0.930 . S
C992 N993 1.314 . S
C992 C994 1.353 . S
C992 H998 0.930 . S
N993 Li969 1.990 . S
N993 C992 1.314 . S
N993 C996 1.279 . S
C994 C992 1.353 . S
C994 C997 1.348 . S
C994 H1042 0.929 . S
C995 C996 1.358 . S
C995 C997 1.356 . S
C995 H1043 0.930 . S
C996 N993 1.279 . S
C996 C995 1.358 . S
C996 H999 0.930 . S
C997 C994 1.348 . S
C997 C995 1.356 . S
H998 C992 0.930 . S
H999 C996 0.930 . S
C1000 C1002 1.348 . S
C1000 C1003 1.356 . S
C1000 O1030 1.325 . S
N1001 C1004 1.314 . S
N1001 C1005 1.279 . S
C1002 C1000 1.348 . S
C1002 C1004 1.353 . S
C1002 H1044 0.929 . S
C1003 C1000 1.356 . S
C1003 C1005 1.358 . S
C1003 H1045 0.930 . S
C1004 N1001 1.314 . S
C1004 C1002 1.353 . S
C1004 H1046 0.930 . S
C1005 N1001 1.279 . S
C1005 C1003 1.358 . S
C1005 H1047 0.930 . S
C1006 C1007 1.348 . S
C1006 C1008 1.356 . S
C1006 O1031 1.325 . S
C1007 C1006 1.348 . S
C1007 C1009 1.353 . S
C1007 H1048 0.929 . S
C1008 C1006 1.356 . S
C1008 C1010 1.358 . S
C1008 H1049 0.930 . S
C1009 C1007 1.353 . S
C1009 N1011 1.314 . S
C1009 H1050 0.930 . S
C1010 C1008 1.358 . S
C1010 N1011 1.279 . S
C1010 H1051 0.930 . S
N1011 C1009 1.314 . S
N1011 C1010 1.279 . S
C1012 C1014 1.353 . S
C1012 N1015 1.314 . S
C1012 H1018 0.930 . S
C1013 N1015 1.279 . S
C1013 C1016 1.358 . S
C1013 H1019 0.930 . S
C1014 C1012 1.353 . S
C1014 C1017 1.348 . S
C1014 H1052 0.929 . S
N1015 Li970 1.990 . S
N1015 C1012 1.314 . S
N1015 C1013 1.279 . S
C1016 C1013 1.358 . S
C1016 C1017 1.356 . S
C1016 H1053 0.930 . S
C1017 C1014 1.348 . S
C1017 C1016 1.356 . S
H1018 C1012 0.930 . S
H1019 C1013 0.930 . S
C1020 N1021 1.314 . S
C1020 C1022 1.353 . S
C1020 H1026 0.930 . S
N1021 Li971 1.990 . S
N1021 C1020 1.314 . S
N1021 C1024 1.279 . S
C1022 C1020 1.353 . S
C1022 C1025 1.348 . S
C1022 H1054 0.929 . S
C1023 C1024 1.358 . S
C1023 C1025 1.356 . S
C1023 H1055 0.930 . S
C1024 N1021 1.279 . S
C1024 C1023 1.358 . S
C1024 H1027 0.930 . S
C1025 C1022 1.348 . S
C1025 C1023 1.356 . S
H1026 C1020 0.930 . S
H1027 C1024 0.930 . S
O1028 Li968 1.956 . S
O1028 Li969 1.970 . S
O1028 Li970 1.961 . S
O1028 C972 1.325 . S
O1029 Li968 1.970 . S
O1029 Li969 1.956 . S
O1029 Li971 1.961 . S
O1029 C978 1.325 . S
O1030 Li968 1.961 . S
O1030 Li970 1.956 . S
O1030 Li971 1.970 . S
O1030 C1000 1.325 . S
O1031 Li969 1.961 . S
O1031 Li970 1.970 . S
O1031 Li971 1.956 . S
O1031 C1006 1.325 . S
H1032 C974 0.929 . S
H1033 C975 0.930 . S
H1034 C976 0.930 . S
H1035 C977 0.930 . S
H1036 C979 0.930 . S
H1037 C981 0.929 . S
H1038 C982 0.930 . S
H1039 C983 0.930 . S
H1040 C986 0.930 . S
H1041 C989 0.929 . S
H1042 C994 0.929 . S
H1043 C995 0.930 . S
H1044 C1002 0.929 . S
H1045 C1003 0.930 . S
H1046 C1004 0.930 . S
H1047 C1005 0.930 . S
H1048 C1007 0.929 . S
H1049 C1008 0.930 . S
H1050 C1009 0.930 . S
H1051 C1010 0.930 . S
H1052 C1014 0.929 . S
H1053 C1016 0.930 . S
H1054 C1022 0.929 . S
H1055 C1023 0.930 . S
H1056 C1064 0.950 . S
H1057 C1069 0.950 . S
H1058 C1066 0.950 . S
H1059 C1068 0.950 . S
H1060 C1070 0.950 . S
H1061 C1072 0.950 . S
H1062 C1074 0.950 . S
H1063 C1075 0.950 . S
C1064 H1056 0.950 . S
C1064 C1065 1.386 . S
C1064 C1066 1.391 . S
C1065 C1064 1.386 . S
C1065 C1069 1.393 . S
C1066 H1058 0.950 . S
C1066 C1064 1.391 . S
C1066 C1067 1.400 . S
C1067 C1066 1.400 . S
C1067 C1068 1.398 . S
C1067 C1073 1.491 . S
C1068 H1059 0.950 . S
C1068 C1067 1.398 . S
C1068 C1069 1.391 . S
C1069 H1057 0.950 . S
C1069 C1065 1.393 . S
C1069 C1068 1.391 . S
C1070 H1060 0.950 . S
C1070 C1071 1.386 . S
C1070 C1072 1.391 . S
C1071 C1070 1.386 . S
C1071 C1075 1.393 . S
C1072 H1061 0.950 . S
C1072 C1070 1.391 . S
C1072 C1073 1.400 . S
C1073 C1067 1.491 . S
C1073 C1072 1.400 . S
C1073 C1074 1.398 . S
C1074 H1062 0.950 . S
C1074 C1073 1.398 . S
C1074 C1075 1.391 . S
C1075 H1063 0.950 . S
C1075 C1071 1.393 . S
C1075 C1074 1.391 . S
H1076 C1084 0.950 . S
H1077 C1089 0.950 . S
H1078 C1086 0.950 . S
H1079 C1088 0.950 . S
H1080 C1090 0.950 . S
H1081 C1092 0.950 . S
H1082 C1094 0.950 . S
H1083 C1095 0.950 . S
C1084 H1076 0.950 . S
C1084 C1085 1.386 . S
C1084 C1086 1.391 . S
C1085 C1084 1.386 . S
C1085 C1089 1.393 . S
C1086 H1078 0.950 . S
C1086 C1084 1.391 . S
C1086 C1087 1.400 . S
C1087 C1086 1.400 . S
C1087 C1088 1.398 . S
C1087 C1093 1.491 . S
C1088 H1079 0.950 . S
C1088 C1087 1.398 . S
C1088 C1089 1.391 . S
C1089 H1077 0.950 . S
C1089 C1085 1.393 . S
C1089 C1088 1.391 . S
C1090 H1080 0.950 . S
C1090 C1091 1.386 . S
C1090 C1092 1.391 . S
C1091 C1090 1.386 . S
C1091 C1095 1.393 . S
C1092 H1081 0.950 . S
C1092 C1090 1.391 . S
C1092 C1093 1.400 . S
C1093 C1087 1.491 . S
C1093 C1092 1.400 . S
C1093 C1094 1.398 . S
C1094 H1082 0.950 . S
C1094 C1093 1.398 . S
C1094 C1095 1.391 . S
C1095 H1083 0.950 . S
C1095 C1091 1.393 . S
C1095 C1094 1.391 . S
H1096 C1104 0.950 . S
H1097 C1109 0.950 . S
H1098 C1106 0.950 . S
H1099 C1108 0.950 . S
H1100 C1110 0.950 . S
H1101 C1112 0.950 . S
H1102 C1114 0.950 . S
H1103 C1115 0.950 . S
C1104 H1096 0.950 . S
C1104 C1105 1.386 . S
C1104 C1106 1.391 . S
C1105 C1104 1.386 . S
C1105 C1109 1.393 . S
C1106 H1098 0.950 . S
C1106 C1104 1.391 . S
C1106 C1107 1.400 . S
C1107 C1106 1.400 . S
C1107 C1108 1.398 . S
C1107 C1113 1.491 . S
C1108 H1099 0.950 . S
C1108 C1107 1.398 . S
C1108 C1109 1.391 . S
C1109 H1097 0.950 . S
C1109 C1105 1.393 . S
C1109 C1108 1.391 . S
C1110 H1100 0.950 . S
C1110 C1111 1.386 . S
C1110 C1112 1.391 . S
C1111 C1110 1.386 . S
C1111 C1115 1.393 . S
C1112 H1101 0.950 . S
C1112 C1110 1.391 . S
C1112 C1113 1.400 . S
C1113 C1107 1.491 . S
C1113 C1112 1.400 . S
C1113 C1114 1.398 . S
C1114 H1102 0.950 . S
C1114 C1113 1.398 . S
C1114 C1115 1.391 . S
C1115 H1103 0.950 . S
C1115 C1111 1.393 . S
C1115 C1114 1.391 . S
H1116 C1124 0.950 . S
H1117 C1129 0.950 . S
H1118 C1126 0.950 . S
H1119 C1128 0.950 . S
H1120 C1130 0.950 . S
H1121 C1132 0.950 . S
H1122 C1134 0.950 . S
H1123 C1135 0.950 . S
C1124 H1116 0.950 . S
C1124 C1125 1.386 . S
C1124 C1126 1.391 . S
C1125 C1124 1.386 . S
C1125 C1129 1.393 . S
C1126 H1118 0.950 . S
C1126 C1124 1.391 . S
C1126 C1127 1.400 . S
C1127 C1126 1.400 . S
C1127 C1128 1.398 . S
C1127 C1133 1.491 . S
C1128 H1119 0.950 . S
C1128 C1127 1.398 . S
C1128 C1129 1.391 . S
C1129 H1117 0.950 . S
C1129 C1125 1.393 . S
C1129 C1128 1.391 . S
C1130 H1120 0.950 . S
C1130 C1131 1.386 . S
C1130 C1132 1.391 . S
C1131 C1130 1.386 . S
C1131 C1135 1.393 . S
C1132 H1121 0.950 . S
C1132 C1130 1.391 . S
C1132 C1133 1.400 . S
C1133 C1127 1.491 . S
C1133 C1132 1.400 . S
C1133 C1134 1.398 . S
C1134 H1122 0.950 . S
C1134 C1133 1.398 . S
C1134 C1135 1.391 . S
C1135 H1123 0.950 . S
C1135 C1131 1.393 . S
C1135 C1134 1.391 . S
H1136 C1144 0.950 . S
H1137 C1149 0.950 . S
H1138 C1146 0.950 . S
H1139 C1148 0.950 . S
H1140 C1150 0.950 . S
H1141 C1152 0.950 . S
H1142 C1154 0.950 . S
H1143 C1155 0.950 . S
C1144 H1136 0.950 . S
C1144 C1145 1.386 . S
C1144 C1146 1.391 . S
C1145 C1144 1.386 . S
C1145 C1149 1.393 . S
C1146 H1138 0.950 . S
C1146 C1144 1.391 . S
C1146 C1147 1.400 . S
C1147 C1146 1.400 . S
C1147 C1148 1.398 . S
C1147 C1153 1.491 . S
C1148 H1139 0.950 . S
C1148 C1147 1.398 . S
C1148 C1149 1.391 . S
C1149 H1137 0.950 . S
C1149 C1145 1.393 . S
C1149 C1148 1.391 . S
C1150 H1140 0.950 . S
C1150 C1151 1.386 . S
C1150 C1152 1.391 . S
C1151 C1150 1.386 . S
C1151 C1155 1.393 . S
C1152 H1141 0.950 . S
C1152 C1150 1.391 . S
C1152 C1153 1.400 . S
C1153 C1147 1.491 . S
C1153 C1152 1.400 . S
C1153 C1154 1.398 . S
C1154 H1142 0.950 . S
C1154 C1153 1.398 . S
C1154 C1155 1.391 . S
C1155 H1143 0.950 . S
C1155 C1151 1.393 . S
C1155 C1154 1.391 . S
H1156 C1164 0.950 . S
H1157 C1169 0.950 . S
H1158 C1166 0.950 . S
H1159 C1168 0.950 . S
H1160 C1170 0.950 . S
H1161 C1172 0.950 . S
H1162 C1174 0.950 . S
H1163 C1175 0.950 . S
C1164 H1156 0.950 . S
C1164 C1165 1.386 . S
C1164 C1166 1.391 . S
C1165 C1164 1.386 . S
C1165 C1169 1.393 . S
C1166 H1158 0.950 . S
C1166 C1164 1.391 . S
C1166 C1167 1.400 . S
C1167 C1166 1.400 . S
C1167 C1168 1.398 . S
C1167 C1173 1.491 . S
C1168 H1159 0.950 . S
C1168 C1167 1.398 . S
C1168 C1169 1.391 . S
C1169 H1157 0.950 . S
C1169 C1165 1.393 . S
C1169 C1168 1.391 . S
C1170 H1160 0.950 . S
C1170 C1171 1.386 . S
C1170 C1172 1.391 . S
C1171 C1170 1.386 . S
C1171 C1175 1.393 . S
C1172 H1161 0.950 . S
C1172 C1170 1.391 . S
C1172 C1173 1.400 . S
C1173 C1167 1.491 . S
C1173 C1172 1.400 . S
C1173 C1174 1.398 . S
C1174 H1162 0.950 . S
C1174 C1173 1.398 . S
C1174 C1175 1.391 . S
C1175 H1163 0.950 . S
C1175 C1171 1.393 . S
C1175 C1174 1.391 . S
H1176 C1184 0.950 . S
H1177 C1189 0.950 . S
H1178 C1186 0.950 . S
H1179 C1188 0.950 1_556 S
H1180 C1190 0.950 . S
H1181 C1192 0.950 . S
H1182 C1194 0.950 . S
H1183 C1195 0.950 . S
C1184 H1176 0.950 . S
C1184 C1185 1.386 . S
C1184 C1186 1.391 . S
C1185 C1184 1.386 . S
C1185 C1189 1.393 . S
C1186 H1178 0.950 . S
C1186 C1184 1.391 . S
C1186 C1187 1.421 . S
C1187 C1186 1.421 . S
C1187 C1188 1.405 . S
C1187 C1193 1.466 1_554 S
C1188 H1179 0.950 1_554 S
C1188 C1187 1.405 . S
C1188 C1189 1.391 . S
C1189 H1177 0.950 . S
C1189 C1185 1.393 . S
C1189 C1188 1.391 . S
C1190 H1180 0.950 . S
C1190 C1191 1.386 . S
C1190 C1192 1.391 . S
C1191 C1190 1.386 . S
C1191 C1195 1.393 . S
C1192 H1181 0.950 . S
C1192 C1190 1.391 . S
C1192 C1193 1.400 . S
C1193 C1187 1.466 1_556 S
C1193 C1192 1.400 . S
C1193 C1194 1.398 . S
C1194 H1182 0.950 . S
C1194 C1193 1.398 . S
C1194 C1195 1.391 . S
C1195 H1183 0.950 . S
C1195 C1191 1.393 . S
C1195 C1194 1.391 . S
H1196 C1204 0.950 . S
H1197 C1209 0.950 . S
H1198 C1206 0.950 . S
H1199 C1208 0.950 . S
H1200 C1210 0.950 . S
H1201 C1212 0.950 . S
H1202 C1214 0.950 . S
H1203 C1215 0.950 . S
C1204 H1196 0.950 . S
C1204 C1205 1.386 . S
C1204 C1206 1.391 . S
C1205 C1204 1.386 . S
C1205 C1209 1.393 . S
C1206 H1198 0.950 . S
C1206 C1204 1.391 . S
C1206 C1207 1.400 . S
C1207 C1206 1.400 . S
C1207 C1208 1.398 . S
C1207 C1213 1.491 . S
C1208 H1199 0.950 . S
C1208 C1207 1.398 . S
C1208 C1209 1.391 . S
C1209 H1197 0.950 . S
C1209 C1205 1.393 . S
C1209 C1208 1.391 . S
C1210 H1200 0.950 . S
C1210 C1211 1.386 . S
C1210 C1212 1.391 . S
C1211 C1210 1.386 . S
C1211 C1215 1.393 . S
C1212 H1201 0.950 . S
C1212 C1210 1.391 . S
C1212 C1213 1.400 . S
C1213 C1207 1.491 . S
C1213 C1212 1.400 . S
C1213 C1214 1.398 . S
C1214 H1202 0.950 . S
C1214 C1213 1.398 . S
C1214 C1215 1.391 . S
C1215 H1203 0.950 . S
C1215 C1211 1.393 . S
C1215 C1214 1.391 . S
H1216 C1224 0.950 . S
H1217 C1229 0.950 . S
H1218 C1226 0.950 . S
H1219 C1228 0.950 . S
H1220 C1230 0.950 . S
H1221 C1232 0.950 . S
H1222 C1234 0.950 . S
H1223 C1235 0.950 . S
C1224 H1216 0.950 . S
C1224 C1225 1.386 . S
C1224 C1226 1.391 . S
C1225 C1224 1.386 . S
C1225 C1229 1.393 . S
C1226 H1218 0.950 . S
C1226 C1224 1.391 . S
C1226 C1227 1.400 . S
C1227 C1226 1.400 . S
C1227 C1228 1.398 . S
C1227 C1233 1.491 . S
C1228 H1219 0.950 . S
C1228 C1227 1.398 . S
C1228 C1229 1.391 . S
C1229 H1217 0.950 . S
C1229 C1225 1.393 . S
C1229 C1228 1.391 . S
C1230 H1220 0.950 . S
C1230 C1231 1.386 . S
C1230 C1232 1.391 . S
C1231 C1230 1.386 . S
C1231 C1235 1.393 . S
C1232 H1221 0.950 . S
C1232 C1230 1.391 . S
C1232 C1233 1.400 . S
C1233 C1227 1.491 . S
C1233 C1232 1.400 . S
C1233 C1234 1.398 . S
C1234 H1222 0.950 . S
C1234 C1233 1.398 . S
C1234 C1235 1.391 . S
C1235 H1223 0.950 . S
C1235 C1231 1.393 . S
C1235 C1234 1.391 . S
H1236 C1244 0.950 . S
H1237 C1249 0.950 . S
H1238 C1246 0.950 . S
H1239 C1248 0.950 . S
H1240 C1250 0.950 . S
H1241 C1252 0.950 . S
H1242 C1254 0.950 . S
H1243 C1255 0.950 . S
C1244 H1236 0.950 . S
C1244 C1245 1.386 . S
C1244 C1246 1.391 . S
C1245 C1244 1.386 . S
C1245 C1249 1.393 . S
C1246 H1238 0.950 . S
C1246 C1244 1.391 . S
C1246 C1247 1.400 . S
C1247 C1246 1.400 . S
C1247 C1248 1.398 . S
C1247 C1253 1.491 . S
C1248 H1239 0.950 . S
C1248 C1247 1.398 . S
C1248 C1249 1.391 . S
C1249 H1237 0.950 . S
C1249 C1245 1.393 . S
C1249 C1248 1.391 . S
C1250 H1240 0.950 . S
C1250 C1251 1.386 . S
C1250 C1252 1.391 . S
C1251 C1250 1.386 . S
C1251 C1255 1.393 . S
C1252 H1241 0.950 . S
C1252 C1250 1.391 . S
C1252 C1253 1.400 . S
C1253 C1247 1.491 . S
C1253 C1252 1.400 . S
C1253 C1254 1.398 . S
C1254 H1242 0.950 . S
C1254 C1253 1.398 . S
C1254 C1255 1.391 . S
C1255 H1243 0.950 . S
C1255 C1251 1.393 . S
C1255 C1254 1.391 . S
H1256 C1264 0.950 . S
H1257 C1269 0.950 . S
H1258 C1266 0.950 . S
H1259 C1268 0.950 . S
H1260 C1270 0.950 . S
H1261 C1272 0.950 . S
H1262 C1274 0.950 . S
H1263 C1275 0.950 . S
C1264 H1256 0.950 . S
C1264 C1265 1.386 . S
C1264 C1266 1.391 . S
C1265 C1264 1.386 . S
C1265 C1269 1.393 . S
C1266 H1258 0.950 . S
C1266 C1264 1.391 . S
C1266 C1267 1.400 . S
C1267 C1266 1.400 . S
C1267 C1268 1.398 . S
C1267 C1273 1.491 . S
C1268 H1259 0.950 . S
C1268 C1267 1.398 . S
C1268 C1269 1.391 . S
C1269 H1257 0.950 . S
C1269 C1265 1.393 . S
C1269 C1268 1.391 . S
C1270 H1260 0.950 . S
C1270 C1271 1.386 . S
C1270 C1272 1.391 . S
C1271 C1270 1.386 . S
C1271 C1275 1.393 . S
C1272 H1261 0.950 . S
C1272 C1270 1.391 . S
C1272 C1273 1.400 . S
C1273 C1267 1.491 . S
C1273 C1272 1.400 . S
C1273 C1274 1.398 . S
C1274 H1262 0.950 . S
C1274 C1273 1.398 . S
C1274 C1275 1.391 . S
C1275 H1263 0.950 . S
C1275 C1271 1.393 . S
C1275 C1274 1.391 . S
H1276 C1284 0.950 . S
H1277 C1289 0.950 . S
H1278 C1286 0.950 . S
H1279 C1288 0.950 . S
H1280 C1290 0.950 . S
H1281 C1292 0.950 . S
H1282 C1294 0.950 . S
H1283 C1295 0.950 . S
C1284 H1276 0.950 . S
C1284 C1285 1.386 . S
C1284 C1286 1.391 . S
C1285 C1284 1.386 . S
C1285 C1289 1.393 . S
C1286 H1278 0.950 . S
C1286 C1284 1.391 . S
C1286 C1287 1.400 . S
C1287 C1286 1.400 . S
C1287 C1288 1.398 . S
C1287 C1293 1.491 . S
C1288 H1279 0.950 . S
C1288 C1287 1.398 . S
C1288 C1289 1.391 . S
C1289 H1277 0.950 . S
C1289 C1285 1.393 . S
C1289 C1288 1.391 . S
C1290 H1280 0.950 . S
C1290 C1291 1.386 . S
C1290 C1292 1.391 . S
C1291 C1290 1.386 . S
C1291 C1295 1.393 . S
C1292 H1281 0.950 . S
C1292 C1290 1.391 . S
C1292 C1293 1.400 . S
C1293 C1287 1.491 . S
C1293 C1292 1.400 . S
C1293 C1294 1.398 . S
C1294 H1282 0.950 . S
C1294 C1293 1.398 . S
C1294 C1295 1.391 . S
C1295 H1283 0.950 . S
C1295 C1291 1.393 . S
C1295 C1294 1.391 . S
H1296 C1304 0.950 . S
H1297 C1309 0.950 . S
H1298 C1306 0.950 . S
H1299 C1308 0.950 . S
H1300 C1310 0.950 . S
H1301 C1312 0.950 . S
H1302 C1314 0.950 . S
H1303 C1315 0.950 . S
C1304 H1296 0.950 . S
C1304 C1305 1.386 . S
C1304 C1306 1.391 . S
C1305 C1304 1.386 . S
C1305 C1309 1.393 . S
C1306 H1298 0.950 . S
C1306 C1304 1.391 . S
C1306 C1307 1.400 . S
C1307 C1306 1.400 . S
C1307 C1308 1.398 . S
C1307 C1313 1.491 . S
C1308 H1299 0.950 . S
C1308 C1307 1.398 . S
C1308 C1309 1.391 . S
C1309 H1297 0.950 . S
C1309 C1305 1.393 . S
C1309 C1308 1.391 . S
C1310 H1300 0.950 . S
C1310 C1311 1.386 . S
C1310 C1312 1.391 . S
C1311 C1310 1.386 . S
C1311 C1315 1.393 . S
C1312 H1301 0.950 . S
C1312 C1310 1.391 . S
C1312 C1313 1.400 . S
C1313 C1307 1.491 . S
C1313 C1312 1.400 . S
C1313 C1314 1.398 . S
C1314 H1302 0.950 . S
C1314 C1313 1.398 . S
C1314 C1315 1.391 . S
C1315 H1303 0.950 . S
C1315 C1311 1.393 . S
C1315 C1314 1.391 . S
H1316 C1324 0.950 . S
H1317 C1329 0.950 . S
H1318 C1326 0.950 . S
H1319 C1328 0.950 . S
H1320 C1330 0.950 . S
H1321 C1332 0.950 . S
H1322 C1334 0.950 1_556 S
H1323 C1335 0.950 . S
C1324 H1316 0.950 . S
C1324 C1325 1.386 . S
C1324 C1326 1.391 . S
C1325 C1324 1.386 . S
C1325 C1329 1.393 . S
C1326 H1318 0.950 . S
C1326 C1324 1.391 . S
C1326 C1327 1.400 . S
C1327 C1326 1.400 . S
C1327 C1328 1.398 1_556 S
C1327 C1333 1.491 1_556 S
C1328 H1319 0.950 . S
C1328 C1327 1.398 1_554 S
C1328 C1329 1.391 1_554 S
C1329 H1317 0.950 . S
C1329 C1325 1.393 . S
C1329 C1328 1.391 1_556 S
C1330 H1320 0.950 . S
C1330 C1331 1.386 . S
C1330 C1332 1.391 . S
C1331 C1330 1.386 . S
C1331 C1335 1.393 . S
C1332 H1321 0.950 . S
C1332 C1330 1.391 . S
C1332 C1333 1.400 . S
C1333 C1327 1.491 1_554 S
C1333 C1332 1.400 . S
C1333 C1334 1.398 . S
C1334 H1322 0.950 1_554 S
C1334 C1333 1.398 . S
C1334 C1335 1.391 . S
C1335 H1323 0.950 . S
C1335 C1331 1.393 . S
C1335 C1334 1.391 . S
H1336 C1344 0.950 . S
H1337 C1349 0.950 . S
H1338 C1346 0.950 . S
H1339 C1348 0.950 . S
H1340 C1350 0.950 . S
H1341 C1352 0.950 . S
H1342 C1354 0.950 . S
H1343 C1355 0.950 . S
C1344 H1336 0.950 . S
C1344 C1345 1.386 . S
C1344 C1346 1.391 . S
C1345 C1344 1.386 . S
C1345 C1349 1.393 . S
C1346 H1338 0.950 . S
C1346 C1344 1.391 . S
C1346 C1347 1.400 . S
C1347 C1346 1.400 . S
C1347 C1348 1.398 . S
C1347 C1353 1.491 . S
C1348 H1339 0.950 . S
C1348 C1347 1.398 . S
C1348 C1349 1.391 . S
C1349 H1337 0.950 . S
C1349 C1345 1.393 . S
C1349 C1348 1.391 . S
C1350 H1340 0.950 . S
C1350 C1351 1.386 . S
C1350 C1352 1.391 . S
C1351 C1350 1.386 . S
C1351 C1355 1.393 . S
C1352 H1341 0.950 . S
C1352 C1350 1.391 . S
C1352 C1353 1.400 . S
C1353 C1347 1.491 . S
C1353 C1352 1.400 . S
C1353 C1354 1.398 . S
C1354 H1342 0.950 . S
C1354 C1353 1.398 . S
C1354 C1355 1.391 . S
C1355 H1343 0.950 . S
C1355 C1351 1.393 . S
C1355 C1354 1.391 . S
H1356 C1364 0.950 . S
H1357 C1369 0.950 . S
H1358 C1366 0.950 . S
H1359 C1368 0.950 . S
H1360 C1370 0.950 . S
H1361 C1372 0.950 . S
H1362 C1374 0.950 . S
H1363 C1375 0.950 . S
C1364 H1356 0.950 . S
C1364 C1365 1.386 . S
C1364 C1366 1.391 . S
C1365 C1364 1.386 . S
C1365 C1369 1.393 . S
C1366 H1358 0.950 . S
C1366 C1364 1.391 . S
C1366 C1367 1.400 . S
C1367 C1366 1.400 . S
C1367 C1368 1.398 . S
C1367 C1373 1.491 . S
C1368 H1359 0.950 . S
C1368 C1367 1.398 . S
C1368 C1369 1.391 . S
C1369 H1357 0.950 . S
C1369 C1365 1.393 . S
C1369 C1368 1.391 . S
C1370 H1360 0.950 . S
C1370 C1371 1.386 . S
C1370 C1372 1.391 . S
C1371 C1370 1.386 . S
C1371 C1375 1.393 . S
C1372 H1361 0.950 . S
C1372 C1370 1.391 . S
C1372 C1373 1.400 . S
C1373 C1367 1.491 . S
C1373 C1372 1.400 . S
C1373 C1374 1.398 . S
C1374 H1362 0.950 . S
C1374 C1373 1.398 . S
C1374 C1375 1.391 . S
C1375 H1363 0.950 . S
C1375 C1371 1.393 . S
C1375 C1374 1.391 . S
H1376 C1384 0.950 . S
H1377 C1389 0.950 . S
H1378 C1386 0.950 . S
H1379 C1388 0.950 . S
H1380 C1390 0.950 . S
H1381 C1392 0.950 . S
H1382 C1394 0.950 . S
H1383 C1395 0.950 . S
C1384 H1376 0.950 . S
C1384 C1385 1.386 . S
C1384 C1386 1.391 . S
C1385 C1384 1.386 . S
C1385 C1389 1.393 . S
C1386 H1378 0.950 . S
C1386 C1384 1.391 . S
C1386 C1387 1.400 . S
C1387 C1386 1.400 . S
C1387 C1388 1.398 . S
C1387 C1393 1.491 . S
C1388 H1379 0.950 . S
C1388 C1387 1.398 . S
C1388 C1389 1.391 . S
C1389 H1377 0.950 . S
C1389 C1385 1.393 . S
C1389 C1388 1.391 . S
C1390 H1380 0.950 . S
C1390 C1391 1.386 . S
C1390 C1392 1.391 . S
C1391 C1390 1.386 . S
C1391 C1395 1.393 . S
C1392 H1381 0.950 . S
C1392 C1390 1.391 . S
C1392 C1393 1.400 . S
C1393 C1387 1.491 . S
C1393 C1392 1.400 . S
C1393 C1394 1.398 . S
C1394 H1382 0.950 . S
C1394 C1393 1.398 . S
C1394 C1395 1.391 . S
C1395 H1383 0.950 . S
C1395 C1391 1.393 . S
C1395 C1394 1.391 . S
H1396 C1404 0.950 . S
H1397 C1409 0.950 . S
H1398 C1406 0.950 . S
H1399 C1408 0.950 . S
H1400 C1410 0.950 . S
H1401 C1412 0.950 . S
H1402 C1414 0.950 . S
H1403 C1415 0.950 . S
C1404 H1396 0.950 . S
C1404 C1405 1.386 . S
C1404 C1406 1.391 . S
C1405 C1404 1.386 . S
C1405 C1409 1.393 . S
C1406 H1398 0.950 . S
C1406 C1404 1.391 . S
C1406 C1407 1.400 . S
C1407 C1406 1.400 . S
C1407 C1408 1.398 . S
C1407 C1413 1.491 . S
C1408 H1399 0.950 . S
C1408 C1407 1.398 . S
C1408 C1409 1.391 . S
C1409 H1397 0.950 . S
C1409 C1405 1.393 . S
C1409 C1408 1.391 . S
C1410 H1400 0.950 . S
C1410 C1411 1.386 . S
C1410 C1412 1.391 . S
C1411 C1410 1.386 . S
C1411 C1415 1.393 . S
C1412 H1401 0.950 . S
C1412 C1410 1.391 . S
C1412 C1413 1.400 . S
C1413 C1407 1.491 . S
C1413 C1412 1.400 . S
C1413 C1414 1.398 . S
C1414 H1402 0.950 . S
C1414 C1413 1.398 . S
C1414 C1415 1.391 . S
C1415 H1403 0.950 . S
C1415 C1411 1.393 . S
C1415 C1414 1.391 . S
H1416 C1424 0.950 . S
H1417 C1429 0.950 . S
H1418 C1426 0.950 . S
H1419 C1428 0.950 . S
H1420 C1430 0.950 . S
H1421 C1432 0.950 . S
H1422 C1434 0.950 . S
H1423 C1435 0.950 . S
C1424 H1416 0.950 . S
C1424 C1425 1.386 . S
C1424 C1426 1.391 . S
C1425 C1424 1.386 . S
C1425 C1429 1.393 . S
C1426 H1418 0.950 . S
C1426 C1424 1.391 . S
C1426 C1427 1.400 . S
C1427 C1426 1.400 . S
C1427 C1428 1.398 . S
C1427 C1433 1.491 . S
C1428 H1419 0.950 . S
C1428 C1427 1.398 . S
C1428 C1429 1.391 . S
C1429 H1417 0.950 . S
C1429 C1425 1.393 . S
C1429 C1428 1.391 . S
C1430 H1420 0.950 . S
C1430 C1431 1.386 . S
C1430 C1432 1.391 . S
C1431 C1430 1.386 . S
C1431 C1435 1.393 . S
C1432 H1421 0.950 . S
C1432 C1430 1.391 . S
C1432 C1433 1.400 . S
C1433 C1427 1.491 . S
C1433 C1432 1.400 . S
C1433 C1434 1.398 . S
C1434 H1422 0.950 . S
C1434 C1433 1.398 . S
C1434 C1435 1.391 . S
C1435 H1423 0.950 . S
C1435 C1431 1.393 . S
C1435 C1434 1.391 . S
H1436 C1444 0.950 . S
H1437 C1449 0.950 . S
H1438 C1446 0.950 . S
H1439 C1448 0.950 . S
H1440 C1450 0.950 . S
H1441 C1452 0.950 . S
H1442 C1454 0.950 . S
H1443 C1455 0.950 . S
C1444 H1436 0.950 . S
C1444 C1445 1.386 . S
C1444 C1446 1.391 . S
C1445 C1444 1.386 . S
C1445 C1449 1.393 . S
C1446 H1438 0.950 . S
C1446 C1444 1.391 . S
C1446 C1447 1.400 . S
C1447 C1446 1.400 . S
C1447 C1448 1.398 . S
C1447 C1453 1.491 . S
C1448 H1439 0.950 . S
C1448 C1447 1.398 . S
C1448 C1449 1.391 . S
C1449 H1437 0.950 . S
C1449 C1445 1.393 . S
C1449 C1448 1.391 . S
C1450 H1440 0.950 . S
C1450 C1451 1.386 . S
C1450 C1452 1.391 . S
C1451 C1450 1.386 . S
C1451 C1455 1.393 . S
C1452 H1441 0.950 . S
C1452 C1450 1.391 . S
C1452 C1453 1.400 . S
C1453 C1447 1.491 . S
C1453 C1452 1.400 . S
C1453 C1454 1.398 . S
C1454 H1442 0.950 . S
C1454 C1453 1.398 . S
C1454 C1455 1.391 . S
C1455 H1443 0.950 . S
C1455 C1451 1.393 . S
C1455 C1454 1.391 . S
H1456 C1464 0.950 . S
H1457 C1469 0.950 . S
H1458 C1466 0.950 . S
H1459 C1468 0.950 . S
H1460 C1470 0.950 . S
H1461 C1472 0.950 . S
H1462 C1474 0.950 . S
H1463 C1475 0.950 . S
C1464 H1456 0.950 . S
C1464 C1465 1.386 . S
C1464 C1466 1.391 . S
C1465 C1464 1.386 . S
C1465 C1469 1.393 . S
C1466 H1458 0.950 . S
C1466 C1464 1.391 . S
C1466 C1467 1.400 . S
C1467 C1466 1.400 . S
C1467 C1468 1.398 . S
C1467 C1473 1.491 . S
C1468 H1459 0.950 . S
C1468 C1467 1.398 . S
C1468 C1469 1.391 . S
C1469 H1457 0.950 . S
C1469 C1465 1.393 . S
C1469 C1468 1.391 . S
C1470 H1460 0.950 . S
C1470 C1471 1.386 . S
C1470 C1472 1.391 . S
C1471 C1470 1.386 . S
C1471 C1475 1.393 . S
C1472 H1461 0.950 . S
C1472 C1470 1.391 . S
C1472 C1473 1.400 . S
C1473 C1467 1.491 . S
C1473 C1472 1.400 . S
C1473 C1474 1.398 . S
C1474 H1462 0.950 . S
C1474 C1473 1.398 . S
C1474 C1475 1.391 . S
C1475 H1463 0.950 . S
C1475 C1471 1.393 . S
C1475 C1474 1.391 . S
H1476 C1484 0.950 . S
H1477 C1489 0.950 . S
H1478 C1486 0.950 . S
H1479 C1488 0.950 . S
H1480 C1490 0.950 . S
H1481 C1492 0.950 . S
H1482 C1494 0.950 . S
H1483 C1495 0.950 . S
C1484 H1476 0.950 . S
C1484 C1485 1.386 . S
C1484 C1486 1.391 . S
C1485 C1484 1.386 . S
C1485 C1489 1.393 . S
C1486 H1478 0.950 . S
C1486 C1484 1.391 . S
C1486 C1487 1.400 . S
C1487 C1486 1.400 . S
C1487 C1488 1.398 . S
C1487 C1493 1.491 . S
C1488 H1479 0.950 . S
C1488 C1487 1.398 . S
C1488 C1489 1.391 . S
C1489 H1477 0.950 . S
C1489 C1485 1.393 . S
C1489 C1488 1.391 . S
C1490 H1480 0.950 . S
C1490 C1491 1.386 . S
C1490 C1492 1.391 . S
C1491 C1490 1.386 . S
C1491 C1495 1.393 . S
C1492 H1481 0.950 . S
C1492 C1490 1.391 . S
C1492 C1493 1.400 . S
C1493 C1487 1.491 . S
C1493 C1492 1.400 . S
C1493 C1494 1.398 . S
C1494 H1482 0.950 . S
C1494 C1493 1.398 . S
C1494 C1495 1.391 . S
C1495 H1483 0.950 . S
C1495 C1491 1.393 . S
C1495 C1494 1.391 . S
H1496 C1504 0.950 . S
H1497 C1509 0.950 . S
H1498 C1506 0.950 . S
H1499 C1508 0.950 . S
H1500 C1510 0.950 . S
H1501 C1512 0.950 . S
H1502 C1514 0.950 . S
H1503 C1515 0.950 . S
C1504 H1496 0.950 . S
C1504 C1505 1.386 . S
C1504 C1506 1.391 . S
C1505 C1504 1.386 . S
C1505 C1509 1.393 . S
C1506 H1498 0.950 . S
C1506 C1504 1.391 . S
C1506 C1507 1.400 . S
C1507 C1506 1.400 . S
C1507 C1508 1.398 . S
C1507 C1513 1.491 . S
C1508 H1499 0.950 . S
C1508 C1507 1.398 . S
C1508 C1509 1.391 . S
C1509 H1497 0.950 . S
C1509 C1505 1.393 . S
C1509 C1508 1.391 . S
C1510 H1500 0.950 . S
C1510 C1511 1.386 . S
C1510 C1512 1.391 . S
C1511 C1510 1.386 . S
C1511 C1515 1.393 . S
C1512 H1501 0.950 . S
C1512 C1510 1.391 . S
C1512 C1513 1.400 . S
C1513 C1507 1.491 . S
C1513 C1512 1.400 . S
C1513 C1514 1.398 . S
C1514 H1502 0.950 . S
C1514 C1513 1.398 . S
C1514 C1515 1.391 . S
C1515 H1503 0.950 . S
C1515 C1511 1.393 . S
C1515 C1514 1.391 . S
H1516 C1524 0.950 . S
H1517 C1529 0.950 . S
H1518 C1526 0.950 . S
H1519 C1528 0.950 . S
H1520 C1530 0.950 . S
H1521 C1532 0.950 . S
H1522 C1534 0.950 . S
H1523 C1535 0.950 . S
C1524 H1516 0.950 . S
C1524 C1525 1.386 . S
C1524 C1526 1.391 . S
C1525 C1524 1.386 . S
C1525 C1529 1.393 . S
C1526 H1518 0.950 . S
C1526 C1524 1.391 . S
C1526 C1527 1.400 . S
C1527 C1526 1.400 . S
C1527 C1528 1.398 . S
C1527 C1533 1.491 . S
C1528 H1519 0.950 . S
C1528 C1527 1.398 . S
C1528 C1529 1.391 . S
C1529 H1517 0.950 . S
C1529 C1525 1.393 . S
C1529 C1528 1.391 . S
C1530 H1520 0.950 . S
C1530 C1531 1.386 . S
C1530 C1532 1.391 . S
C1531 C1530 1.386 . S
C1531 C1535 1.393 . S
C1532 H1521 0.950 . S
C1532 C1530 1.391 . S
C1532 C1533 1.400 . S
C1533 C1527 1.491 . S
C1533 C1532 1.400 . S
C1533 C1534 1.398 . S
C1534 H1522 0.950 . S
C1534 C1533 1.398 . S
C1534 C1535 1.391 . S
C1535 H1523 0.950 . S
C1535 C1531 1.393 . S
C1535 C1534 1.391 . S
C1065 C753 1.368 . S
C1071 C57 1.368 . S
C1085 C145 1.366 . S
C1091 C821 1.366 . S
C1105 C233 1.363 . S
C1111 C900 1.363 . S
C1125 C293 1.378 . S
C1131 C997 1.379 . S
C1145 C557 1.377 . S
C1151 C372 1.377 . S
C1165 C460 1.373 . S
C1171 C645 1.373 . S
C1185 C20 1.471 . S
C1191 C469 1.445 . S
C1205 C108 1.457 . S
C1211 C49 1.462 . S
C1225 C196 1.472 . S
C1231 C137 1.445 . S
C1245 C225 1.452 . S
C1251 C313 1.459 . S
C1265 C284 1.450 . S
C1271 C409 1.472 . S
C1285 C381 1.464 . S
C1291 C497 1.459 . S
C1305 C636 1.464 . S
C1311 C577 1.460 . S
C1325 C665 1.464 . S
C1331 C761 1.462 . S
C1345 C812 1.445 . S
C1351 C733 1.466 . S
C1365 C841 1.458 . S
C1371 C909 1.454 . S
C1385 C937 1.472 . S
C1391 C988 1.450 . S
C1405 C1017 1.471 . S
C1411 C548 1.454 . S
C1425 C929 1.135 . S
C1431 C29 1.140 . S
C1445 C1025 1.133 . S
C1451 C117 1.141 . S
C1465 C585 1.134 . S
C1471 C205 1.140 . S
C1485 C321 1.132 . S
C1491 C673 1.140 . S
C1505 C401 1.141 . S
C1511 C724 1.133 . S
C1525 C849 1.135 . S
C1531 C489 1.136 . S
