# Generated by pormake.
# Topology fnj, (5)-cn, num edge types: 1
# Building blocks:
#     Node 0, Type 0, BuildingBlock: XOMCOT_clean_sbu_0, # of connection points: 5
#     Node 1, Type 0, BuildingBlock: XOMCOT_clean_sbu_0, # of connection points: 5
#     Node 2, Type 0, BuildingBlock: XOMCOT_clean_sbu_0, # of connection points: 5
#     Node 3, Type 0, BuildingBlock: XOMCOT_clean_sbu_0, # of connection points: 5
#     Node 4, Type 0, BuildingBlock: XOMCOT_clean_sbu_0, # of connection points: 5
#     Node 5, Type 0, BuildingBlock: XOMCOT_clean_sbu_0, # of connection points: 5
#     Node 6, Type 0, BuildingBlock: XOMCOT_clean_sbu_0, # of connection points: 5
#     Node 7, Type 0, BuildingBlock: XOMCOT_clean_sbu_0, # of connection points: 5
#     Node 8, Type 0, BuildingBlock: XOMCOT_clean_sbu_0, # of connection points: 5
#     Node 9, Type 0, BuildingBlock: XOMCOT_clean_sbu_0, # of connection points: 5
#     Node 10, Type 0, BuildingBlock: XOMCOT_clean_sbu_0, # of connection points: 5
#     Node 11, Type 0, BuildingBlock: XOMCOT_clean_sbu_0, # of connection points: 5
#     Node 12, Type 0, BuildingBlock: XOMCOT_clean_sbu_0, # of connection points: 5
#     Node 13, Type 0, BuildingBlock: XOMCOT_clean_sbu_0, # of connection points: 5
#     Node 14, Type 0, BuildingBlock: XOMCOT_clean_sbu_0, # of connection points: 5
#     Node 15, Type 0, BuildingBlock: XOMCOT_clean_sbu_0, # of connection points: 5
#     Edge 16, Type (0, 0), BuildingBlock: ZUJKAS_clean_linker_0, # of connection points: 2
#     Edge 17, Type (0, 0), BuildingBlock: ZUJKAS_clean_linker_0, # of connection points: 2
#     Edge 18, Type (0, 0), BuildingBlock: ZUJKAS_clean_linker_0, # of connection points: 2
#     Edge 19, Type (0, 0), BuildingBlock: ZUJKAS_clean_linker_0, # of connection points: 2
#     Edge 20, Type (0, 0), BuildingBlock: ZUJKAS_clean_linker_0, # of connection points: 2
#     Edge 21, Type (0, 0), BuildingBlock: ZUJKAS_clean_linker_0, # of connection points: 2
#     Edge 22, Type (0, 0), BuildingBlock: ZUJKAS_clean_linker_0, # of connection points: 2
#     Edge 23, Type (0, 0), BuildingBlock: ZUJKAS_clean_linker_0, # of connection points: 2
#     Edge 24, Type (0, 0), BuildingBlock: ZUJKAS_clean_linker_0, # of connection points: 2
#     Edge 25, Type (0, 0), BuildingBlock: ZUJKAS_clean_linker_0, # of connection points: 2
#     Edge 26, Type (0, 0), BuildingBlock: ZUJKAS_clean_linker_0, # of connection points: 2
#     Edge 27, Type (0, 0), BuildingBlock: ZUJKAS_clean_linker_0, # of connection points: 2
#     Edge 28, Type (0, 0), BuildingBlock: ZUJKAS_clean_linker_0, # of connection points: 2
#     Edge 29, Type (0, 0), BuildingBlock: ZUJKAS_clean_linker_0, # of connection points: 2
#     Edge 30, Type (0, 0), BuildingBlock: ZUJKAS_clean_linker_0, # of connection points: 2
#     Edge 31, Type (0, 0), BuildingBlock: ZUJKAS_clean_linker_0, # of connection points: 2
#     Edge 32, Type (0, 0), BuildingBlock: ZUJKAS_clean_linker_0, # of connection points: 2
#     Edge 33, Type (0, 0), BuildingBlock: ZUJKAS_clean_linker_0, # of connection points: 2
#     Edge 34, Type (0, 0), BuildingBlock: ZUJKAS_clean_linker_0, # of connection points: 2
#     Edge 35, Type (0, 0), BuildingBlock: ZUJKAS_clean_linker_0, # of connection points: 2
#     Edge 36, Type (0, 0), BuildingBlock: ZUJKAS_clean_linker_0, # of connection points: 2
#     Edge 37, Type (0, 0), BuildingBlock: ZUJKAS_clean_linker_0, # of connection points: 2
#     Edge 38, Type (0, 0), BuildingBlock: ZUJKAS_clean_linker_0, # of connection points: 2
#     Edge 39, Type (0, 0), BuildingBlock: ZUJKAS_clean_linker_0, # of connection points: 2
#     Edge 40, Type (0, 0), BuildingBlock: ZUJKAS_clean_linker_0, # of connection points: 2
#     Edge 41, Type (0, 0), BuildingBlock: ZUJKAS_clean_linker_0, # of connection points: 2
#     Edge 42, Type (0, 0), BuildingBlock: ZUJKAS_clean_linker_0, # of connection points: 2
#     Edge 43, Type (0, 0), BuildingBlock: ZUJKAS_clean_linker_0, # of connection points: 2
#     Edge 44, Type (0, 0), BuildingBlock: ZUJKAS_clean_linker_0, # of connection points: 2
#     Edge 45, Type (0, 0), BuildingBlock: ZUJKAS_clean_linker_0, # of connection points: 2
#     Edge 46, Type (0, 0), BuildingBlock: ZUJKAS_clean_linker_0, # of connection points: 2
#     Edge 47, Type (0, 0), BuildingBlock: ZUJKAS_clean_linker_0, # of connection points: 2
#     Edge 48, Type (0, 0), BuildingBlock: ZUJKAS_clean_linker_0, # of connection points: 2
#     Edge 49, Type (0, 0), BuildingBlock: ZUJKAS_clean_linker_0, # of connection points: 2
#     Edge 50, Type (0, 0), BuildingBlock: ZUJKAS_clean_linker_0, # of connection points: 2
#     Edge 51, Type (0, 0), BuildingBlock: ZUJKAS_clean_linker_0, # of connection points: 2
#     Edge 52, Type (0, 0), BuildingBlock: ZUJKAS_clean_linker_0, # of connection points: 2
#     Edge 53, Type (0, 0), BuildingBlock: ZUJKAS_clean_linker_0, # of connection points: 2
#     Edge 54, Type (0, 0), BuildingBlock: ZUJKAS_clean_linker_0, # of connection points: 2
#     Edge 55, Type (0, 0), BuildingBlock: ZUJKAS_clean_linker_0, # of connection points: 2
# Relax obj value: 0.073
# Max RMSD: 0.155
# Mean RMSD: 0.154
data_MOF--net-fnj--node1-XOMCOT_clean_sbu_0--edge1-ZUJKAS_clean_linker_0
_symmetry_space_group_name_H-M    P1
_symmetry_Int_Tables_number       1
_symmetry_cell_setting            triclinic
loop_
_symmetry_equiv_pos_as_xyz
'x, y, z'
_cell_length_a     97.954967
_cell_length_b     97.976795
_cell_length_c     22.127618
_cell_angle_alpha  91.087507
_cell_angle_beta   91.029807
_cell_angle_gamma 89.991972
loop_
_atom_site_label
_atom_site_type_symbol
_atom_site_fract_x
_atom_site_fract_y
_atom_site_fract_z
_atom_type_partial_charge
Co0 Co 0.38004 0.00464 0.02118 0.0
C1 C 0.37915 0.00707 0.88744 0.0
C2 C 0.36535 0.02092 0.93136 0.0
C3 C 0.36371 0.02215 0.86985 0.0
N4 N 0.37506 0.01153 0.94242 0.0
N5 N 0.37233 0.0134 0.84208 0.0
H6 H 0.38654 0.99899 0.88091 0.0
H7 H 0.35951 0.0262 0.96557 0.0
C8 C 0.38077 0.03024 0.1026 0.0
O9 O 0.39125 0.02593 0.13484 0.0
N10 N 0.38483 0.99749 0.10045 0.0
C11 C 0.39448 0.98808 0.11259 0.0
C12 C 0.39494 0.98586 0.17367 0.0
C13 C 0.37909 1.00035 0.1545 0.0
N14 N 0.3854 0.99373 0.20041 0.0
C15 C 0.40704 0.99764 0.98565 0.0
C16 C 0.41916 0.02282 1.00437 0.0
C17 C 0.42739 0.01155 0.98963 0.0
C18 C 0.42105 0.99895 0.97848 0.0
C19 C 0.40503 0.02107 0.01038 0.0
N20 N 0.39926 0.00838 1.00499 0.0
H21 H 0.40262 0.98771 0.97743 0.0
H22 H 0.39891 0.02998 0.01912 0.0
H23 H 0.40074 0.98294 0.0797 0.0
H24 H 0.37078 0.0075 0.1603 0.0
O25 O 0.37894 0.98621 0.98895 0.0
O26 O 0.3617 0.9976 0.0289 0.0
O27 O 0.37631 0.02337 0.05673 0.0
C28 C 0.36613 0.98649 1.00275 0.0
H29 H 0.35659 0.0289 0.84744 0.0
H30 H 0.40178 0.97889 0.19645 0.0
H31 H 0.4236 0.03287 0.01117 0.0
H32 H 0.42692 0.98996 0.96658 0.0
Co33 Co 0.25306 0.13315 0.27704 0.0
C34 C 0.24972 0.1323 0.14135 0.0
C35 C 0.24072 0.11517 0.18429 0.0
C36 C 0.23908 0.11346 0.12276 0.0
N37 N 0.24718 0.1271 0.19629 0.0
N38 N 0.24477 0.12423 0.09576 0.0
H39 H 0.25522 0.1416 0.13407 0.0
H40 H 0.23765 0.10803 0.21816 0.0
C41 C 0.2227 0.12985 0.28317 0.0
O42 O 0.22155 0.13658 0.23251 0.0
N43 N 0.25901 0.13873 0.35742 0.0
C44 C 0.26801 0.1487 0.37154 0.0
C45 C 0.2694 0.14967 0.43346 0.0
C46 C 0.25506 0.13369 0.4107 0.0
N47 N 0.26126 0.14022 0.45819 0.0
C48 C 0.25675 0.1595 0.22602 0.0
C49 C 0.2374 0.17317 0.29319 0.0
C50 C 0.2459 0.18073 0.25585 0.0
C51 C 0.25555 0.17363 0.22152 0.0
C52 C 0.23887 0.15896 0.29601 0.0
N53 N 0.24831 0.1522 0.26181 0.0
H54 H 0.26511 0.15459 0.20333 0.0
H55 H 0.23294 0.15357 0.32856 0.0
H56 H 0.27312 0.15493 0.33906 0.0
H57 H 0.24792 0.12534 0.41443 0.0
O58 O 0.27183 0.13333 0.25086 0.0
O59 O 0.26139 0.11545 0.28859 0.0
O60 O 0.23442 0.12852 0.30887 0.0
C61 C 0.27241 0.12061 0.2663 0.0
H62 H 0.2345 0.10472 0.09968 0.0
H63 H 0.27573 0.15697 0.4582 0.0
H64 H 0.22993 0.17823 0.32134 0.0
H65 H 0.26273 0.17902 0.19396 0.0
Co66 Co 0.12013 0.00422 0.51336 0.0
C67 C 0.12119 0.00587 0.64843 0.0
C68 C 0.13665 0.01793 0.60752 0.0
C69 C 0.13827 0.01902 0.66925 0.0
N70 N 0.12586 0.00983 0.59435 0.0
N71 N 0.12854 0.01144 0.69509 0.0
H72 H 0.11276 0.99893 0.65373 0.0
H73 H 0.14323 0.02234 0.57447 0.0
C74 C 0.12234 0.0303 0.43881 0.0
O75 O 0.11312 0.02617 0.39865 0.0
N76 N 0.11467 0.99837 0.4322 0.0
C77 C 0.10314 0.99161 0.41615 0.0
C78 C 0.10315 0.98903 0.35488 0.0
C79 C 0.12176 0.99939 0.38059 0.0
N80 N 0.11479 0.99402 0.3324 0.0
C81 C 0.09382 0.9986 0.56031 0.0
C82 C 0.08015 0.02122 0.5182 0.0
C83 C 0.07255 0.01052 0.54232 0.0
C84 C 0.07971 0.99941 0.5659 0.0
C85 C 0.09441 0.02008 0.51416 0.0
N86 N 0.10105 0.00852 0.53221 0.0
H87 H 0.09876 0.98954 0.5765 0.0
H88 H 0.09984 0.02843 0.49528 0.0
H89 H 0.09518 0.98873 0.4465 0.0
H90 H 0.13166 0.00424 0.37822 0.0
O91 O 0.12035 0.98531 0.53678 0.0
O92 O 0.1381 0.99631 0.50139 0.0
O93 O 0.12481 0.02335 0.4862 0.0
C94 C 0.13312 0.98507 0.52232 0.0
H95 H 0.14632 0.02456 0.69313 0.0
H96 H 0.09499 0.98422 0.32861 0.0
H97 H 0.07513 0.03017 0.50039 0.0
H98 H 0.07442 0.99113 0.58722 0.0
Co99 Co 0.25162 0.87585 0.73848 0.0
C100 C 0.24747 0.87558 0.87276 0.0
C101 C 0.23659 0.89171 0.82919 0.0
C102 C 0.23484 0.89307 0.89054 0.0
N103 N 0.24427 0.88057 0.81758 0.0
N104 N 0.24172 0.88294 0.91803 0.0
H105 H 0.25423 0.86711 0.8804 0.0
H106 H 0.23296 0.89874 0.79538 0.0
C107 C 0.22134 0.87807 0.71688 0.0
O108 O 0.21918 0.87111 0.76598 0.0
N109 N 0.25903 0.87154 0.65993 0.0
C110 C 0.269 0.86248 0.6481 0.0
C111 C 0.2707 0.86165 0.5865 0.0
C112 C 0.25483 0.87616 0.60554 0.0
N113 N 0.26177 0.87024 0.55959 0.0
C114 C 0.25586 0.84916 0.78507 0.0
C115 C 0.23775 0.83552 0.70833 0.0
C116 C 0.2461 0.8279 0.74736 0.0
C117 C 0.25514 0.83497 0.78641 0.0
C118 C 0.23881 0.84977 0.70837 0.0
N119 N 0.24761 0.85649 0.74732 0.0
H120 H 0.26374 0.85412 0.81192 0.0
H121 H 0.23309 0.85524 0.67453 0.0
H122 H 0.27441 0.85663 0.68183 0.0
H123 H 0.24683 0.88365 0.5998 0.0
O124 O 0.26984 0.8763 0.77349 0.0
O125 O 0.25898 0.89406 0.73493 0.0
O126 O 0.23347 0.87992 0.69866 0.0
C127 C 0.26981 0.88927 0.76196 0.0
H128 H 0.22948 0.90129 0.91329 0.0
H129 H 0.2777 0.85489 0.56339 0.0
H130 H 0.23073 0.83052 0.67672 0.0
H131 H 0.26222 0.82957 0.81555 0.0
Co132 Co 0.62082 0.00465 1.00752 0.0
C133 C 0.62019 0.00167 0.14088 0.0
C134 C 0.63448 0.98801 0.09903 0.0
C135 C 0.63529 0.98638 0.16057 0.0
N136 N 0.62494 0.99748 0.08662 0.0
N137 N 0.62632 0.99498 0.18701 0.0
H138 H 0.61259 0.00959 0.14641 0.0
H139 H 0.64083 0.98302 0.06588 0.0
C140 C 0.61972 0.9792 0.92543 0.0
O141 O 0.60929 0.98374 0.89354 0.0
N142 N 0.61694 0.01204 0.92785 0.0
C143 C 0.60787 0.0219 0.91394 0.0
C144 C 0.60824 0.02422 0.85294 0.0
C145 C 0.62311 0.00892 0.87507 0.0
N146 N 0.61774 0.01598 0.82829 0.0
C147 C 0.59371 0.01251 0.03767 0.0
C148 C 0.58119 0.98747 0.02092 0.0
C149 C 0.57312 0.99897 0.03361 0.0
C150 C 0.57965 0.01152 0.04362 0.0
C151 C 0.59539 0.9889 0.01611 0.0
N152 N 0.60138 0.0015 0.02062 0.0
H153 H 0.59832 0.02238 0.04543 0.0
H154 H 0.6014 0.97984 1.00915 0.0
H155 H 0.60141 0.02722 0.94543 0.0
H156 H 0.63129 0.00156 0.87087 0.0
O157 O 0.62231 0.02298 0.04073 0.0
O158 O 0.63942 0.01103 1.00266 0.0
O159 O 0.62423 0.98591 0.97167 0.0
C160 C 0.63522 0.02224 0.02862 0.0
H161 H 0.64238 0.97979 0.18411 0.0
H162 H 0.60173 0.03121 0.82845 0.0
H163 H 0.57659 0.97747 0.01504 0.0
H164 H 0.57388 0.02068 0.05401 0.0
Co165 Co 0.74625 0.87682 0.74489 0.0
C166 C 0.74957 0.87766 0.88061 0.0
C167 C 0.75923 0.89438 0.83743 0.0
C168 C 0.7609 0.8961 0.89893 0.0
N169 N 0.75234 0.88269 0.82559 0.0
N170 N 0.75479 0.8856 0.92609 0.0
H171 H 0.74367 0.86862 0.88805 0.0
H172 H 0.76254 0.9014 0.80348 0.0
C173 C 0.77666 0.87983 0.73606 0.0
O174 O 0.77813 0.87266 0.78536 0.0
N175 N 0.74016 0.87144 0.66448 0.0
C176 C 0.73104 0.86157 0.65022 0.0
C177 C 0.72972 0.86061 0.58829 0.0
C178 C 0.74423 0.87641 0.61129 0.0
N179 N 0.73801 0.86994 0.5637 0.0
C180 C 0.74259 0.85052 0.79547 0.0
C181 C 0.76139 0.83661 0.72619 0.0
C182 C 0.75277 0.82914 0.76338 0.0
C183 C 0.74351 0.83637 0.79918 0.0
C184 C 0.76019 0.85088 0.72403 0.0
N185 N 0.75097 0.85773 0.75914 0.0
H186 H 0.73443 0.8555 0.81915 0.0
H187 H 0.76605 0.85622 0.69113 0.0
H188 H 0.72585 0.85539 0.68262 0.0
H189 H 0.75152 0.88463 0.60766 0.0
O190 O 0.72754 0.87647 0.7713 0.0
O191 O 0.73785 0.89457 0.73483 0.0
O192 O 0.76479 0.88155 0.71248 0.0
C193 C 0.72685 0.88922 0.75658 0.0
H194 H 0.76576 0.90471 0.92188 0.0
H195 H 0.72334 0.85336 0.56342 0.0
H196 H 0.76846 0.83143 0.69645 0.0
H197 H 0.73659 0.83111 0.82845 0.0
Co198 Co 0.87751 0.00857 0.5383 0.0
C199 C 0.87671 0.00537 0.40266 0.0
C200 C 0.86075 0.99451 0.44584 0.0
C201 C 0.85899 0.99296 0.38437 0.0
N202 N 0.87203 0.00205 0.4577 0.0
N203 N 0.86901 0.99983 0.35704 0.0
H204 H 0.88503 0.01228 0.39549 0.0
H205 H 0.85399 0.99068 0.47974 0.0
C206 C 0.87484 0.97818 0.55041 0.0
O207 O 0.88242 0.9765 0.50243 0.0
N208 N 0.88253 0.01511 0.61856 0.0
C209 C 0.89194 0.02475 0.63221 0.0
C210 C 0.89317 0.02602 0.69409 0.0
C211 C 0.87808 0.01069 0.67215 0.0
N212 N 0.88449 0.01715 0.71924 0.0
C213 C 0.90404 0.01202 0.48946 0.0
C214 C 0.91772 0.99412 0.56406 0.0
C215 C 0.92532 0.00262 0.52701 0.0
C216 C 0.91825 0.01142 0.48847 0.0
C217 C 0.90342 0.99507 0.56377 0.0
N218 N 0.89668 0.00387 0.52626 0.0
H219 H 0.89912 0.0199 0.46382 0.0
H220 H 0.89792 0.98942 0.5969 0.0
H221 H 0.89766 0.03033 0.59938 0.0
H222 H 0.87058 0.00268 0.67656 0.0
O223 O 0.8779 0.02712 0.51003 0.0
O224 O 0.85967 0.01693 0.54598 0.0
O225 O 0.87273 0.99017 0.57206 0.0
C226 C 0.86507 0.02782 0.52355 0.0
H227 H 0.85082 0.98732 0.36179 0.0
H228 H 0.89992 0.03299 0.71859 0.0
H229 H 0.92279 0.98743 0.59573 0.0
H230 H 0.92368 0.01826 0.45945 0.0
Co231 Co 0.75059 0.13521 0.26644 0.0
C232 C 0.75308 0.13502 0.1324 0.0
C233 C 0.76678 0.12093 0.17507 0.0
C234 C 0.76816 0.11967 0.1135 0.0
N235 N 0.75744 0.13064 0.18703 0.0
N236 N 0.75955 0.12852 0.0865 0.0
H237 H 0.74516 0.14258 0.12634 0.0
H238 H 0.77181 0.11474 0.20863 0.0
C239 C 0.77585 0.13562 0.34992 0.0
O240 O 0.77093 0.14525 0.38548 0.0
N241 N 0.74348 0.13955 0.346 0.0
C242 C 0.73511 0.14997 0.36061 0.0
C243 C 0.73259 0.14966 0.42149 0.0
C244 C 0.74552 0.13274 0.39803 0.0
N245 N 0.73926 0.13892 0.44523 0.0
C246 C 0.74267 0.16141 0.22434 0.0
C247 C 0.76502 0.1761 0.26638 0.0
C248 C 0.75349 0.18318 0.24518 0.0
C249 C 0.74253 0.17557 0.22115 0.0
C250 C 0.76482 0.16179 0.26795 0.0
N251 N 0.75332 0.15465 0.25103 0.0
H252 H 0.73376 0.15602 0.20767 0.0
H253 H 0.77386 0.15669 0.28361 0.0
H254 H 0.73112 0.15742 0.32966 0.0
H255 H 0.7518 0.12369 0.40151 0.0
O256 O 0.7321 0.13331 0.23571 0.0
O257 O 0.74445 0.11655 0.27394 0.0
O258 O 0.76959 0.13212 0.30079 0.0
C259 C 0.73305 0.1205 0.24892 0.0
H260 H 0.7746 0.11234 0.09046 0.0
H261 H 0.72673 0.15713 0.44671 0.0
H262 H 0.77393 0.18153 0.28375 0.0
H263 H 0.73366 0.18052 0.20156 0.0
Co264 Co 0.88098 0.50323 0.53657 0.0
C265 C 0.88281 0.50657 0.40342 0.0
C266 C 0.87279 0.52357 0.44596 0.0
C267 C 0.87259 0.52544 0.38459 0.0
N268 N 0.87922 0.51175 0.45802 0.0
N269 N 0.87876 0.51469 0.35752 0.0
H270 H 0.88779 0.4968 0.39733 0.0
H271 H 0.86819 0.5303 0.47895 0.0
C272 C 0.88172 0.53035 0.61059 0.0
O273 O 0.89415 0.52879 0.63273 0.0
N274 N 0.88238 0.4945 0.61576 0.0
C275 C 0.88462 0.48108 0.62554 0.0
C276 C 0.88497 0.47881 0.68662 0.0
C277 C 0.88092 0.50002 0.67194 0.0
N278 N 0.88269 0.49073 0.71586 0.0
C279 C 0.90896 0.49579 0.54698 0.0
C280 C 0.92015 0.52072 0.51906 0.0
C281 C 0.92889 0.50977 0.53224 0.0
C282 C 0.92308 0.49717 0.54581 0.0
C283 C 0.90595 0.51891 0.5214 0.0
N284 N 0.90055 0.50663 0.53704 0.0
H285 H 0.90482 0.4858 0.55423 0.0
H286 H 0.89931 0.52735 0.51037 0.0
H287 H 0.886 0.47332 0.59084 0.0
H288 H 0.87854 0.51054 0.68138 0.0
O289 O 0.88085 0.48555 0.49613 0.0
O290 O 0.86253 0.49673 0.52824 0.0
O291 O 0.87627 0.52124 0.57599 0.0
C292 C 0.86763 0.48603 0.50127 0.0
H293 H 0.86804 0.53405 0.36189 0.0
H294 H 0.88662 0.46906 0.70778 0.0
H295 H 0.92423 0.53058 0.50733 0.0
H296 H 0.92941 0.48829 0.55375 0.0
Co297 Co 0.75512 0.63412 0.78604 0.0
C298 C 0.75181 0.63326 0.65023 0.0
C299 C 0.74213 0.61656 0.69348 0.0
C300 C 0.74045 0.61484 0.63198 0.0
N301 N 0.74903 0.62825 0.70529 0.0
N302 N 0.74657 0.62533 0.60478 0.0
H303 H 0.75772 0.64229 0.64271 0.0
H304 H 0.73881 0.60955 0.72744 0.0
C305 C 0.72472 0.6311 0.79474 0.0
O306 O 0.72331 0.63838 0.74574 0.0
N307 N 0.7612 0.6395 0.86649 0.0
C308 C 0.7703 0.64938 0.88079 0.0
C309 C 0.77173 0.65025 0.94271 0.0
C310 C 0.75725 0.63442 0.91967 0.0
N311 N 0.76353 0.64084 0.96726 0.0
C312 C 0.75866 0.66043 0.7354 0.0
C313 C 0.73992 0.6743 0.80517 0.0
C314 C 0.74849 0.68178 0.76782 0.0
C315 C 0.75772 0.67457 0.73177 0.0
C316 C 0.74115 0.66003 0.80725 0.0
N317 N 0.75033 0.6532 0.77189 0.0
H318 H 0.76682 0.65547 0.71157 0.0
H319 H 0.73534 0.65467 0.84026 0.0
H320 H 0.77543 0.65563 0.84841 0.0
H321 H 0.75002 0.62614 0.9233 0.0
O322 O 0.7738 0.63455 0.75943 0.0
O323 O 0.76361 0.61641 0.79605 0.0
O324 O 0.73658 0.62932 0.81841 0.0
C325 C 0.77456 0.62179 0.77408 0.0
H326 H 0.73555 0.60624 0.60907 0.0
H327 H 0.77813 0.65747 0.96761 0.0
H328 H 0.73289 0.67947 0.8351 0.0
H329 H 0.7646 0.67986 0.7024 0.0
Co330 Co 0.6225 0.50252 0.97909 0.0
C331 C 0.62359 0.50553 0.11476 0.0
C332 C 0.63978 0.516 0.07137 0.0
C333 C 0.64166 0.51743 0.13287 0.0
N334 N 0.6283 0.50876 0.05968 0.0
N335 N 0.6315 0.5108 0.16031 0.0
H336 H 0.61504 0.49891 0.122 0.0
H337 H 0.64655 0.51974 0.03732 0.0
C338 C 0.62515 0.53297 0.96979 0.0
O339 O 0.61791 0.53441 0.01893 0.0
N340 N 0.61714 0.49625 0.89882 0.0
C341 C 0.60757 0.48677 0.88515 0.0
C342 C 0.60622 0.48564 0.82324 0.0
C343 C 0.62158 0.5007 0.84524 0.0
N344 N 0.615 0.49441 0.79813 0.0
C345 C 0.59618 0.49849 0.0295 0.0
C346 C 0.58212 0.51703 0.95956 0.0
C347 C 0.57471 0.50821 0.99595 0.0
C348 C 0.58199 0.49906 0.03207 0.0
C349 C 0.59641 0.51609 0.95816 0.0
N350 N 0.60334 0.50698 0.99346 0.0
H351 H 0.60126 0.49043 0.05346 0.0
H352 H 0.60172 0.52204 0.92549 0.0
H353 H 0.60185 0.48119 0.91796 0.0
H354 H 0.62922 0.50857 0.84087 0.0
O355 O 0.62254 0.48386 1.00631 0.0
O356 O 0.64035 0.49442 0.96861 0.0
O357 O 0.62696 0.5211 0.9463 0.0
C358 C 0.6353 0.48339 0.99128 0.0
H359 H 0.65 0.52282 0.15538 0.0
H360 H 0.59933 0.47881 0.79868 0.0
H361 H 0.57688 0.52401 0.92965 0.0
H362 H 0.57671 0.49198 0.06054 0.0
Co363 Co 0.75091 0.37655 0.24351 0.0
C364 C 0.74811 0.37673 0.37691 0.0
C365 C 0.73453 0.39095 0.33412 0.0
C366 C 0.73299 0.39206 0.39568 0.0
N367 N 0.74393 0.38129 0.32236 0.0
N368 N 0.74153 0.38314 0.42272 0.0
H369 H 0.75591 0.36903 0.38281 0.0
H370 H 0.72947 0.3971 0.30043 0.0
C371 C 0.72546 0.37564 0.16212 0.0
O372 O 0.72992 0.36509 0.13068 0.0
N373 N 0.75807 0.3721 0.16389 0.0
C374 C 0.76743 0.36252 0.14958 0.0
C375 C 0.76967 0.36277 0.08847 0.0
C376 C 0.75522 0.37842 0.11125 0.0
N377 N 0.76191 0.37269 0.06415 0.0
C378 C 0.75787 0.3493 0.27478 0.0
C379 C 0.73213 0.33793 0.26518 0.0
C380 C 0.74334 0.32942 0.27731 0.0
C381 C 0.75628 0.33538 0.28334 0.0
C382 C 0.73419 0.35196 0.25724 0.0
N383 N 0.74708 0.35735 0.25852 0.0
H384 H 0.76798 0.3535 0.28024 0.0
H385 H 0.72537 0.35835 0.25082 0.0
H386 H 0.77246 0.35579 0.18074 0.0
H387 H 0.74827 0.38696 0.10743 0.0
O388 O 0.76927 0.37752 0.2765 0.0
O389 O 0.75798 0.39487 0.23671 0.0
O390 O 0.73224 0.38033 0.20777 0.0
C391 C 0.76902 0.39036 0.263 0.0
H392 H 0.72644 0.39929 0.41876 0.0
H393 H 0.77627 0.35588 0.0637 0.0
H394 H 0.72187 0.33382 0.26234 0.0
H395 H 0.76526 0.32929 0.29301 0.0
Co396 Co 0.12294 0.50756 0.49066 0.0
C397 C 0.11884 0.50447 0.62258 0.0
C398 C 0.12899 0.48707 0.58384 0.0
C399 C 0.12802 0.48526 0.64508 0.0
N400 N 0.12316 0.49909 0.5695 0.0
N401 N 0.12173 0.49622 0.66947 0.0
H402 H 0.11394 0.51432 0.62709 0.0
H403 H 0.13407 0.48023 0.5527 0.0
C404 C 0.12268 0.4801 0.41939 0.0
O405 O 0.11026 0.48146 0.39699 0.0
N406 N 0.12312 0.51625 0.41124 0.0
C407 C 0.12261 0.5298 0.40077 0.0
C408 C 0.12268 0.5319 0.33957 0.0
C409 C 0.1238 0.5104 0.35536 0.0
N410 N 0.12339 0.51969 0.31086 0.0
C411 C 0.09542 0.5154 0.46762 0.0
C412 C 0.08308 0.49138 0.50072 0.0
C413 C 0.07484 0.50238 0.48292 0.0
C414 C 0.08123 0.51449 0.46629 0.0
C415 C 0.09734 0.4927 0.501 0.0
N416 N 0.10334 0.50454 0.48333 0.0
H417 H 0.09999 0.5251 0.45811 0.0
H418 H 0.10354 0.48424 0.51588 0.0
H419 H 0.12189 0.53777 0.43495 0.0
H420 H 0.12487 0.49965 0.34663 0.0
O421 O 0.1226 0.52528 0.53059 0.0
O422 O 0.14132 0.51382 0.506 0.0
O423 O 0.12807 0.48945 0.45296 0.0
C424 C 0.13589 0.52462 0.53086 0.0
H425 H 0.13225 0.47682 0.67016 0.0
H426 H 0.12191 0.54171 0.31807 0.0
H427 H 0.07857 0.48187 0.5145 0.0
H428 H 0.07532 0.52342 0.45449 0.0
Co429 Co 0.24865 0.3752 0.24672 0.0
C430 C 0.25187 0.37616 0.38243 0.0
C431 C 0.26059 0.39342 0.33943 0.0
C432 C 0.26212 0.39521 0.40094 0.0
N433 N 0.25437 0.38136 0.32749 0.0
N434 N 0.2566 0.38437 0.42798 0.0
H435 H 0.24652 0.36676 0.38974 0.0
H436 H 0.26354 0.4006 0.30551 0.0
C437 C 0.27894 0.37905 0.24116 0.0
O438 O 0.28015 0.37225 0.29161 0.0
N439 N 0.24287 0.36952 0.16631 0.0
C440 C 0.23406 0.35937 0.15212 0.0
C441 C 0.23276 0.35835 0.09021 0.0
C442 C 0.24677 0.37461 0.11309 0.0
N443 N 0.24074 0.36794 0.06555 0.0
C444 C 0.24546 0.34881 0.29776 0.0
C445 C 0.26497 0.33545 0.23029 0.0
C446 C 0.25659 0.32775 0.26762 0.0
C447 C 0.24686 0.33469 0.30212 0.0
C448 C 0.2633 0.34965 0.22764 0.0
N449 N 0.25376 0.35625 0.26194 0.0
H450 H 0.23702 0.35357 0.32049 0.0
H451 H 0.26914 0.35514 0.19512 0.0
H452 H 0.22904 0.35306 0.18457 0.0
H453 H 0.25377 0.38308 0.10944 0.0
O454 O 0.22988 0.37459 0.27245 0.0
O455 O 0.23997 0.39274 0.23535 0.0
O456 O 0.26723 0.38021 0.21524 0.0
C457 C 0.22904 0.38732 0.25732 0.0
H458 H 0.26649 0.40407 0.42397 0.0
H459 H 0.2266 0.3509 0.06542 0.0
H460 H 0.27249 0.33051 0.20201 0.0
H461 H 0.23977 0.32918 0.32967 0.0
Co462 Co 0.37985 0.5074 0.02408 0.0
C463 C 0.37845 0.50593 0.88895 0.0
C464 C 0.36279 0.49423 0.93039 0.0
C465 C 0.36105 0.49317 0.8687 0.0
N466 N 0.37377 0.50209 0.9432 0.0
N467 N 0.3709 0.50052 0.84254 0.0
H468 H 0.38705 0.51263 0.88332 0.0
H469 H 0.35621 0.48991 0.96372 0.0
C470 C 0.37786 0.48099 0.09663 0.0
O471 O 0.38697 0.48504 0.13736 0.0
N472 N 0.38564 0.51292 0.10524 0.0
C473 C 0.39731 0.51946 0.12119 0.0
C474 C 0.39743 0.5219 0.18257 0.0
C475 C 0.37862 0.51189 0.15703 0.0
N476 N 0.38574 0.51705 0.2052 0.0
C477 C 0.40595 0.51328 0.9754 0.0
C478 C 0.41988 0.49067 0.0159 0.0
C479 C 0.42735 0.50146 0.99179 0.0
C480 C 0.42006 0.51258 0.96904 0.0
C481 C 0.40563 0.49171 0.02076 0.0
N482 N 0.39887 0.50325 1.00338 0.0
H483 H 0.4009 0.52237 0.96002 0.0
H484 H 0.40032 0.48332 0.03998 0.0
H485 H 0.40525 0.52229 0.09071 0.0
H486 H 0.36864 0.50721 0.15949 0.0
O487 O 0.37941 0.52641 1.00207 0.0
O488 O 0.36193 0.51518 0.03851 0.0
O489 O 0.37537 0.48812 0.04981 0.0
C490 C 0.36673 0.52653 0.01794 0.0
H491 H 0.35286 0.48777 0.84509 0.0
H492 H 0.4057 0.52654 0.20875 0.0
H493 H 0.42501 0.48173 0.03324 0.0
H494 H 0.42524 0.52095 0.94788 0.0
Co495 Co 0.24993 0.63558 0.78415 0.0
C496 C 0.25167 0.63384 0.65017 0.0
C497 C 0.2646 0.61921 0.69405 0.0
C498 C 0.26556 0.61731 0.63251 0.0
N499 N 0.25595 0.62959 0.70513 0.0
N500 N 0.2574 0.62648 0.60479 0.0
H501 H 0.24417 0.64181 0.64363 0.0
H502 H 0.26962 0.61319 0.72834 0.0
C503 C 0.27581 0.63535 0.86336 0.0
O504 O 0.27188 0.64582 0.89668 0.0
N505 N 0.24365 0.6414 0.86359 0.0
C506 C 0.23567 0.65225 0.87618 0.0
C507 C 0.23357 0.65295 0.93736 0.0
C508 C 0.24579 0.63531 0.9174 0.0
N509 N 0.2401 0.64242 0.96366 0.0
C510 C 0.24394 0.66222 0.74081 0.0
C511 C 0.26935 0.67387 0.7597 0.0
C512 C 0.2585 0.68208 0.7399 0.0
C513 C 0.24578 0.67599 0.72895 0.0
C514 C 0.26712 0.65996 0.76994 0.0
N515 N 0.25432 0.65444 0.7638 0.0
H516 H 0.2339 0.65801 0.73309 0.0
H517 H 0.27577 0.65383 0.78237 0.0
H518 H 0.23147 0.65919 0.84353 0.0
H519 H 0.25186 0.62617 0.9227 0.0
O520 O 0.2312 0.63493 0.75533 0.0
O521 O 0.24229 0.61766 0.79644 0.0
O522 O 0.26878 0.63134 0.81717 0.0
C523 C 0.23113 0.62225 0.77145 0.0
H524 H 0.27178 0.60971 0.61001 0.0
H525 H 0.22761 0.66066 0.96048 0.0
H526 H 0.27945 0.67814 0.76693 0.0
H527 H 0.23712 0.68193 0.71342 0.0
H528 H 0.39418 0.00347 0.78086 0.0
H529 H 0.3959 0.99997 0.67116 0.0
H530 H 0.35452 0.01413 0.64727 0.0
H531 H 0.35269 0.01754 0.75617 0.0
H532 H 0.38005 0.98357 0.59115 0.0
H533 H 0.37555 0.0382 0.53215 0.0
H534 H 0.37911 0.03273 0.60826 0.0
H535 H 0.36197 0.0321 0.5779 0.0
C536 C 0.38543 0.00578 0.75231 0.0
C537 C 0.37336 0.01096 0.77758 0.0
C538 C 0.38644 0.00383 0.68956 0.0
C539 C 0.37543 0.00706 0.65081 0.0
C540 C 0.36328 0.01192 0.676 0.0
H541 H 0.36261 0.00293 0.25764 0.0
H542 H 0.35965 0.0059 0.367 0.0
C543 C 0.36227 0.01388 0.73851 0.0
C544 C 0.37651 0.00516 0.58414 0.0
H545 H 0.37466 0.02214 0.45058 0.0
C546 C 0.37893 0.99201 0.56044 0.0
C547 C 0.37496 0.01617 0.54398 0.0
C548 C 0.37287 0.03062 0.56673 0.0
C549 C 0.37968 0.98954 0.49776 0.0
C550 C 0.37822 0.00056 0.45762 0.0
C551 C 0.37571 0.01369 0.48129 0.0
C552 C 0.37988 0.99874 0.39119 0.0
C553 C 0.3818 0.97509 0.47505 0.0
C554 C 0.3923 0.994 0.36833 0.0
C555 C 0.39403 0.99234 0.3061 0.0
C556 C 0.3834 0.99544 0.26483 0.0
C557 C 0.37102 0.00044 0.28782 0.0
C558 C 0.36929 0.0021 0.35039 0.0
H559 H 0.37876 0.96751 0.50906 0.0
H560 H 0.37589 0.97306 0.43253 0.0
H561 H 0.39279 0.97351 0.46574 0.0
H562 H 0.40076 0.99173 0.39869 0.0
H563 H 0.40386 0.98886 0.29049 0.0
H564 H 0.26483 0.13768 0.03804 0.0
H565 H 0.26702 0.14035 0.92881 0.0
H566 H 0.22978 0.11761 0.89818 0.0
H567 H 0.22739 0.11512 1.00728 0.0
H568 H 0.26856 0.11857 0.8399 0.0
H569 H 0.22413 0.15264 0.79861 0.0
H570 H 0.23159 0.15036 0.87297 0.0
H571 H 0.22058 0.13748 0.84001 0.0
C572 C 0.257 0.13343 1.00818 0.0
C573 C 0.24591 0.12621 0.03151 0.0
C574 C 0.25831 0.13488 0.94573 0.0
C575 C 0.24849 0.1293 0.90542 0.0
C576 C 0.23738 0.12216 0.92849 0.0
H577 H 0.23951 0.12847 0.512 0.0
H578 H 0.23655 0.12498 0.6202 0.0
C579 C 0.2361 0.12063 0.99086 0.0
C580 C 0.25013 0.13052 0.83916 0.0
H581 H 0.23554 0.14411 0.71245 0.0
C582 C 0.26137 0.12419 0.812 0.0
C583 C 0.24067 0.13775 0.80285 0.0
C584 C 0.2286 0.14505 0.82994 0.0
C585 C 0.26335 0.12477 0.74936 0.0
C586 C 0.254 0.13218 0.71306 0.0
C587 C 0.24269 0.13843 0.74023 0.0
C588 C 0.25598 0.1339 0.64715 0.0
C589 C 0.2753 0.11722 0.72256 0.0
C590 C 0.26784 0.14014 0.62624 0.0
C591 C 0.26963 0.14202 0.56444 0.0
C592 C 0.25952 0.13786 0.52194 0.0
C593 C 0.2476 0.13164 0.5431 0.0
C594 C 0.24584 0.12973 0.60507 0.0
H595 H 0.27888 0.10887 0.75222 0.0
H596 H 0.27263 0.11279 0.67732 0.0
H597 H 0.28392 0.12443 0.71746 0.0
H598 H 0.27569 0.1437 0.65783 0.0
H599 H 0.27899 0.14672 0.55012 0.0
H600 H 0.10775 0.97587 0.24368 0.0
H601 H 0.11109 0.97823 0.13513 0.0
H602 H 0.13221 0.01632 0.16871 0.0
H603 H 0.12897 0.01394 0.27753 0.0
H604 H 0.10114 0.9986 0.06474 0.0
H605 H 0.15762 0.99708 0.05216 0.0
H606 H 0.1486 0.99188 0.11832 0.0
H607 H 0.15137 0.00969 0.10461 0.0
C608 C 0.11322 0.98468 0.22798 0.0
C609 C 0.11811 0.99471 0.26924 0.0
C610 C 0.11514 0.98601 0.16593 0.0
C611 C 0.12201 0.99738 0.14366 0.0
C612 C 0.12715 0.00729 0.18481 0.0
H613 H 0.13623 0.02868 0.7868 0.0
H614 H 0.13435 0.02495 0.89508 0.0
C615 C 0.1253 0.00593 0.24705 0.0
C616 C 0.12299 0.99922 0.07729 0.0
H617 H 0.14553 0.00372 0.96326 0.0
C618 C 0.11086 0.99963 0.04249 0.0
C619 C 0.13566 0.0006 0.04826 0.0
C620 C 0.14907 0.99967 0.0826 0.0
C621 C 0.11103 0.00162 0.97979 0.0
C622 C 0.12369 0.00305 0.95083 0.0
C623 C 0.13583 0.00262 0.98553 0.0
C624 C 0.12457 0.00524 0.88473 0.0
C625 C 0.09764 0.00252 0.94531 0.0
C626 C 0.11973 0.99537 0.84273 0.0
C627 C 0.12083 0.99745 0.78053 0.0
C628 C 0.1269 0.00941 0.7591 0.0
C629 C 0.13168 0.01927 0.80149 0.0
C630 C 0.13057 0.01719 0.86353 0.0
H631 H 0.08896 0.00456 0.97584 0.0
H632 H 0.09796 0.0107 0.91128 0.0
H633 H 0.09565 0.99269 0.92108 0.0
H634 H 0.1153 0.98595 0.85807 0.0
H635 H 0.11723 0.98955 0.74937 0.0
H636 H 0.23894 0.87964 0.50147 0.0
H637 H 0.23534 0.88179 0.39235 0.0
H638 H 0.27611 0.86698 0.36176 0.0
H639 H 0.27991 0.865 0.4705 0.0
H640 H 0.25069 0.8971 0.30722 0.0
H641 H 0.25174 0.84146 0.25492 0.0
H642 H 0.2494 0.84823 0.33049 0.0
H643 H 0.26613 0.84777 0.29852 0.0
C644 C 0.24721 0.87695 0.47177 0.0
C645 C 0.25971 0.87203 0.49523 0.0
C646 C 0.2451 0.87813 0.40925 0.0
C647 C 0.25537 0.87431 0.36883 0.0
C648 C 0.26792 0.86968 0.392 0.0
H649 H 0.26338 0.8717 0.97772 0.0
H650 H 0.2665 0.86971 0.08721 0.0
C651 C 0.27007 0.86855 0.45439 0.0
C652 C 0.25304 0.87528 0.30242 0.0
H653 H 0.25156 0.85624 0.17137 0.0
C654 C 0.2508 0.88817 0.27749 0.0
C655 C 0.25325 0.86362 0.26369 0.0
C656 C 0.25514 0.84946 0.28811 0.0
C657 C 0.24905 0.88976 0.21477 0.0
C658 C 0.24923 0.87809 0.17595 0.0
C659 C 0.25143 0.86519 0.201 0.0
C660 C 0.24715 0.87904 0.10928 0.0
C661 C 0.24741 0.90397 0.19057 0.0
C662 C 0.23511 0.88466 0.08499 0.0
C663 C 0.2333 0.88579 0.02241 0.0
C664 C 0.24342 0.8812 0.98251 0.0
C665 C 0.25532 0.87523 1.0069 0.0
C666 C 0.25715 0.87416 0.0696 0.0
H667 H 0.25133 0.91184 0.22328 0.0
H668 H 0.25285 0.90506 0.14731 0.0
H669 H 0.23641 0.90604 0.18216 0.0
H670 H 0.22706 0.88814 0.11448 0.0
H671 H 0.2239 0.89019 1.0052 0.0
H672 H 0.62638 0.993 0.76973 0.0
H673 H 0.62867 0.98964 0.6603 0.0
H674 H 0.61668 0.03143 0.63256 0.0
H675 H 0.61476 0.03496 0.74157 0.0
H676 H 0.60795 0.99235 0.57368 0.0
H677 H 0.65027 0.02806 0.52794 0.0
H678 H 0.64647 0.02252 0.60316 0.0
H679 H 0.63651 0.03579 0.56869 0.0
C680 C 0.62455 0.00156 0.74045 0.0
C681 C 0.6204 0.01426 0.76455 0.0
C682 C 0.62575 0.99959 0.67785 0.0
C683 C 0.62298 0.01032 0.63814 0.0
C684 C 0.61911 0.02307 0.6622 0.0
H685 H 0.61825 0.0182 0.2458 0.0
H686 H 0.61668 0.02183 0.35546 0.0
C687 C 0.61788 0.02503 0.72462 0.0
C688 C 0.62334 0.00801 0.5715 0.0
H689 H 0.63784 0.01931 0.44225 0.0
C690 C 0.61456 0.99817 0.54499 0.0
C691 C 0.63188 0.01569 0.53397 0.0
C692 C 0.64191 0.02602 0.55984 0.0
C693 C 0.61393 0.99596 0.48202 0.0
C694 C 0.62247 0.00364 0.4445 0.0
C695 C 0.63124 0.01348 0.47097 0.0
C696 C 0.62279 0.00129 0.37789 0.0
C697 C 0.6039 0.98563 0.45614 0.0
C698 C 0.62675 0.98856 0.35401 0.0
C699 C 0.62759 0.98645 0.29154 0.0
C700 C 0.62458 0.99704 0.25131 0.0
C701 C 0.62048 0.00977 0.27531 0.0
C702 C 0.61967 0.01189 0.33802 0.0
H703 H 0.5956 0.9835 0.4882 0.0
H704 H 0.59926 0.98919 0.41307 0.0
H705 H 0.60932 0.9759 0.44676 0.0
H706 H 0.62942 0.98029 0.38379 0.0
H707 H 0.63065 0.97649 0.27475 0.0
H708 H 0.72041 0.86362 0.47112 0.0
H709 H 0.72409 0.86636 0.3634 0.0
H710 H 0.76335 0.88465 0.40276 0.0
H711 H 0.76002 0.88143 0.51077 0.0
H712 H 0.72812 0.88941 0.29888 0.0
H713 H 0.77307 0.85518 0.27946 0.0
H714 H 0.76246 0.85563 0.34532 0.0
H715 H 0.77511 0.86865 0.33504 0.0
C716 C 0.72992 0.86806 0.4571 0.0
C717 C 0.73997 0.87215 0.5 0.0
C718 C 0.73196 0.86971 0.39533 0.0
C719 C 0.7441 0.87548 0.37483 0.0
C720 C 0.75403 0.87989 0.4174 0.0
H721 H 0.77231 0.89431 0.01484 0.0
H722 H 0.76966 0.89204 0.12398 0.0
C723 C 0.75202 0.87819 0.47932 0.0
C724 C 0.74616 0.87704 0.30891 0.0
H725 H 0.76692 0.86774 0.19257 0.0
C726 C 0.73658 0.88464 0.27563 0.0
C727 C 0.75721 0.87081 0.27856 0.0
C728 C 0.76749 0.862 0.31122 0.0
C729 C 0.73782 0.88629 0.21304 0.0
C730 C 0.74883 0.88003 0.18273 0.0
C731 C 0.75848 0.87252 0.21597 0.0
C732 C 0.75049 0.88114 0.11646 0.0
C733 C 0.72744 0.8949 0.17997 0.0
C734 C 0.7407 0.87557 0.07597 0.0
C735 C 0.74217 0.87687 0.01354 0.0
C736 C 0.75348 0.88377 0.99036 0.0
C737 C 0.76338 0.88912 0.03115 0.0
C738 C 0.76193 0.88777 0.09353 0.0
H739 H 0.72162 0.90157 0.21146 0.0
H740 H 0.73245 0.90139 0.14627 0.0
H741 H 0.72006 0.88811 0.15546 0.0
H742 H 0.73189 0.87024 0.0927 0.0
H743 H 0.7343 0.87271 0.98359 0.0
H744 H 0.84958 0.99675 0.26826 0.0
H745 H 0.8525 0.99894 0.15983 0.0
H746 H 0.89482 0.00951 0.18995 0.0
H747 H 0.89218 0.00673 0.2986 0.0
H748 H 0.85974 0.02099 0.09555 0.0
H749 H 0.89768 0.97962 0.06213 0.0
H750 H 0.88821 0.98164 0.13092 0.0
H751 H 0.90286 0.99218 0.118 0.0
C752 C 0.85959 0.99932 0.25212 0.0
C753 C 0.87067 0.00143 0.29268 0.0
C754 C 0.8612 0.00068 0.18988 0.0
C755 C 0.87393 0.00417 0.16652 0.0
C756 C 0.88497 0.00651 0.20673 0.0
H757 H 0.90325 0.02144 0.80925 0.0
H758 H 0.90024 0.01825 0.91736 0.0
C759 C 0.88339 0.00509 0.26908 0.0
C760 C 0.87548 0.00568 0.10022 0.0
H761 H 0.89346 0.99406 0.97867 0.0
C762 C 0.86706 0.01504 0.06995 0.0
C763 C 0.88502 0.99789 0.06676 0.0
C764 C 0.89387 0.98717 0.09593 0.0
C765 C 0.8681 0.01704 1.00748 0.0
C766 C 0.87771 0.00934 0.97419 0.0
C767 C 0.88611 0.99995 1.00433 0.0
C768 C 0.87941 0.0111 0.90825 0.0
C769 C 0.85914 0.0276 0.97783 0.0
C770 C 0.86875 0.00796 0.86703 0.0
C771 C 0.87042 0.00984 0.80499 0.0
C772 C 0.88279 0.01489 0.78301 0.0
C773 C 0.8935 0.01779 0.82453 0.0
C774 C 0.89184 0.01587 0.8864 0.0
H775 H 0.85458 0.03473 0.01152 0.0
H776 H 0.86502 0.03362 0.94516 0.0
H777 H 0.85068 0.02238 0.95261 0.0
H778 H 0.85914 0.00405 0.88285 0.0
H779 H 0.86194 0.00754 0.77443 0.0
H780 H 0.72093 0.14422 0.5328 0.0
H781 H 0.7244 0.14188 0.64182 0.0
H782 H 0.7642 0.12451 0.61161 0.0
H783 H 0.76094 0.12716 0.5024 0.0
H784 H 0.73002 0.11912 0.71331 0.0
H785 H 0.77231 0.15687 0.72739 0.0
H786 H 0.76126 0.15504 0.66159 0.0
H787 H 0.77482 0.14302 0.67439 0.0
C788 C 0.73042 0.1399 0.5493 0.0
C789 C 0.7407 0.136 0.5088 0.0
C790 C 0.73236 0.13851 0.61165 0.0
C791 C 0.74465 0.13326 0.635 0.0
C792 C 0.75473 0.12883 0.59468 0.0
H793 H 0.77742 0.1226 0.9975 0.0
H794 H 0.77332 0.12359 0.88865 0.0
C795 C 0.75278 0.13019 0.53217 0.0
C796 C 0.74696 0.13273 0.70156 0.0
H797 H 0.76724 0.14528 0.81701 0.0
C798 C 0.73814 0.12485 0.73605 0.0
C799 C 0.75753 0.14026 0.73121 0.0
C800 C 0.76697 0.14938 0.69696 0.0
C801 C 0.73976 0.12407 0.7992 0.0
C802 C 0.75033 0.13162 0.82887 0.0
C803 C 0.75914 0.13951 0.79432 0.0
C804 C 0.75267 0.1312 0.8955 0.0
C805 C 0.73036 0.11491 0.83335 0.0
C806 C 0.74251 0.13539 0.93592 0.0
C807 C 0.74479 0.13472 0.99856 0.0
C808 C 0.75731 0.12992 0.02207 0.0
C809 C 0.76756 0.12609 0.98127 0.0
C810 C 0.76527 0.12674 0.91885 0.0
H811 H 0.72527 0.10723 0.80297 0.0
H812 H 0.73601 0.10946 0.86956 0.0
H813 H 0.72229 0.1212 0.85475 0.0
H814 H 0.73281 0.13916 0.91905 0.0
H815 H 0.73664 0.13772 0.02837 0.0
H816 H 0.89616 0.49723 0.29977 0.0
H817 H 0.89755 0.49289 0.19061 0.0
H818 H 0.86523 0.52187 0.1593 0.0
H819 H 0.86349 0.52604 0.26749 0.0
H820 H 0.8754 0.48398 0.10764 0.0
H821 H 0.89679 0.53445 0.0493 0.0
H822 H 0.89758 0.52791 0.12507 0.0
H823 H 0.88196 0.53505 0.09595 0.0
C824 C 0.88929 0.50264 0.26986 0.0
C825 C 0.8798 0.5121 0.29306 0.0
C826 C 0.89015 0.50019 0.20738 0.0
C827 C 0.88164 0.50722 0.16684 0.0
C828 C 0.8721 0.51654 0.18969 0.0
H829 H 0.86864 0.51024 0.77799 0.0
H830 H 0.86848 0.51392 0.88778 0.0
C831 C 0.87117 0.51894 0.25191 0.0
C832 C 0.88243 0.50467 0.10061 0.0
H833 H 0.88921 0.52022 0.96753 0.0
C834 C 0.87853 0.49185 0.07695 0.0
C835 C 0.88639 0.51501 0.06072 0.0
C836 C 0.89103 0.52886 0.08386 0.0
C837 C 0.87816 0.48917 0.01427 0.0
C838 C 0.88214 0.49951 0.97424 0.0
C839 C 0.88614 0.51231 0.99809 0.0
C840 C 0.88226 0.49725 0.90752 0.0
C841 C 0.87309 0.47543 0.99151 0.0
C842 C 0.89023 0.48682 0.88188 0.0
C843 C 0.89031 0.48468 0.81923 0.0
C844 C 0.88256 0.49303 0.78058 0.0
C845 C 0.87479 0.50366 0.80628 0.0
C846 C 0.87465 0.50575 0.86909 0.0
H847 H 0.86681 0.47029 0.02567 0.0
H848 H 0.8669 0.47641 0.94929 0.0
H849 H 0.88197 0.46876 0.98173 0.0
H850 H 0.89651 0.48038 0.91033 0.0
H851 H 0.89665 0.4766 0.801 0.0
H852 H 0.76714 0.63796 0.54685 0.0
H853 H 0.76942 0.64049 0.4376 0.0
H854 H 0.7314 0.61908 0.40725 0.0
H855 H 0.7289 0.61675 0.51638 0.0
H856 H 0.77025 0.61878 0.34871 0.0
H857 H 0.72687 0.65417 0.30767 0.0
H858 H 0.73421 0.6516 0.38205 0.0
H859 H 0.72281 0.6391 0.34878 0.0
C860 C 0.75915 0.63397 0.51705 0.0
C861 C 0.74781 0.62718 0.54048 0.0
C862 C 0.76052 0.63534 0.45458 0.0
C863 C 0.75051 0.6301 0.41434 0.0
C864 C 0.73915 0.62337 0.43751 0.0
H865 H 0.74155 0.6295 0.0209 0.0
H866 H 0.7385 0.62602 0.12907 0.0
C867 C 0.73781 0.62193 0.4999 0.0
C868 C 0.75217 0.63126 0.34806 0.0
H869 H 0.73798 0.64526 0.22142 0.0
C870 C 0.76323 0.6246 0.32085 0.0
C871 C 0.74292 0.63876 0.3118 0.0
C872 C 0.73108 0.64642 0.33892 0.0
C873 C 0.76523 0.62514 0.25822 0.0
C874 C 0.75609 0.63281 0.22197 0.0
C875 C 0.74496 0.63938 0.24918 0.0
C876 C 0.75813 0.63449 0.15608 0.0
C877 C 0.77696 0.61727 0.23134 0.0
C878 C 0.77013 0.64047 0.13523 0.0
C879 C 0.77196 0.64235 0.07345 0.0
C880 C 0.76175 0.63844 0.03095 0.0
C881 C 0.74971 0.63247 0.05204 0.0
C882 C 0.7479 0.63056 0.11398 0.0
H883 H 0.78033 0.60884 0.26101 0.0
H884 H 0.77415 0.6129 0.18615 0.0
H885 H 0.78576 0.62425 0.2261 0.0
H886 H 0.77805 0.64384 0.16685 0.0
H887 H 0.78141 0.64686 0.05913 0.0
H888 H 0.6378 0.50321 0.74246 0.0
H889 H 0.6406 0.50667 0.63391 0.0
H890 H 0.59895 0.49405 0.60052 0.0
H891 H 0.59599 0.49084 0.70864 0.0
H892 H 0.63688 0.48658 0.53884 0.0
H893 H 0.60173 0.5306 0.51151 0.0
H894 H 0.6084 0.52552 0.58431 0.0
H895 H 0.59455 0.51621 0.54879 0.0
C896 C 0.62919 0.50133 0.71212 0.0
C897 C 0.61667 0.49673 0.73439 0.0
C898 C 0.63083 0.50325 0.65007 0.0
C899 C 0.61993 0.50077 0.60922 0.0
C900 C 0.60743 0.49622 0.63128 0.0
H901 H 0.60815 0.50478 0.21932 0.0
H902 H 0.60557 0.50188 0.32805 0.0
C903 C 0.60581 0.49424 0.69314 0.0
C904 C 0.62173 0.50246 0.54328 0.0
H905 H 0.60999 0.52024 0.42157 0.0
C906 C 0.63107 0.494 0.51319 0.0
C907 C 0.61407 0.51207 0.5099 0.0
C908 C 0.6042 0.52171 0.5402 0.0
C909 C 0.63277 0.49469 0.45037 0.0
C910 C 0.62514 0.50434 0.41692 0.0
C911 C 0.61582 0.51283 0.44713 0.0
C912 C 0.62679 0.5059 0.35069 0.0
C913 C 0.64245 0.48481 0.42026 0.0
C914 C 0.63953 0.50927 0.32716 0.0
C915 C 0.64108 0.51079 0.26495 0.0
C916 C 0.62987 0.50914 0.22467 0.0
C917 C 0.61706 0.50592 0.24857 0.0
C918 C 0.61554 0.50436 0.31089 0.0
H919 H 0.64434 0.47569 0.44832 0.0
H920 H 0.63842 0.48136 0.37529 0.0
H921 H 0.6524 0.48995 0.41379 0.0
H922 H 0.6483 0.5108 0.357 0.0
H923 H 0.65113 0.51315 0.24861 0.0
H924 H 0.72334 0.38852 0.51103 0.0
H925 H 0.72723 0.38737 0.62007 0.0
H926 H 0.7681 0.37263 0.59077 0.0
H927 H 0.76444 0.37418 0.48134 0.0
H928 H 0.73387 0.36551 0.69166 0.0
H929 H 0.77456 0.40491 0.70719 0.0
H930 H 0.76387 0.40248 0.64058 0.0
H931 H 0.77794 0.39114 0.65487 0.0
C932 C 0.73322 0.38515 0.5276 0.0
C933 C 0.74362 0.3816 0.48713 0.0
C934 C 0.73539 0.38442 0.59008 0.0
C935 C 0.74804 0.38016 0.61375 0.0
C936 C 0.75835 0.37623 0.57363 0.0
H937 H 0.78037 0.36828 0.97601 0.0
H938 H 0.77667 0.37045 0.86716 0.0
C939 C 0.75618 0.37696 0.51096 0.0
C940 C 0.75031 0.37975 0.68041 0.0
H941 H 0.77011 0.3928 0.7965 0.0
C942 C 0.74176 0.37152 0.71462 0.0
C943 C 0.76059 0.38762 0.7104 0.0
C944 C 0.7697 0.39714 0.67657 0.0
C945 C 0.74337 0.37072 0.77774 0.0
C946 C 0.75366 0.37857 0.80771 0.0
C947 C 0.76221 0.38682 0.77353 0.0
C948 C 0.756 0.37801 0.87426 0.0
C949 C 0.73426 0.36119 0.81157 0.0
C950 C 0.74575 0.38189 0.91476 0.0
C951 C 0.74782 0.3806 0.97724 0.0
C952 C 0.76021 0.37542 1.00046 0.0
C953 C 0.77063 0.37207 0.95976 0.0
C954 C 0.76856 0.37338 0.89744 0.0
H955 H 0.72925 0.35353 0.78087 0.0
H956 H 0.74014 0.35573 0.84702 0.0
H957 H 0.72613 0.36721 0.83399 0.0
H958 H 0.73607 0.38576 0.89801 0.0
H959 H 0.73957 0.38324 1.00709 0.0
H960 H 0.11673 0.47787 0.75587 0.0
H961 H 0.11589 0.48217 0.86501 0.0
H962 H 0.12265 0.52508 0.83689 0.0
H963 H 0.12323 0.52082 0.72754 0.0
H964 H 0.13583 0.49175 0.93782 0.0
H965 H 0.09153 0.52676 0.95259 0.0
H966 H 0.09526 0.51707 0.88473 0.0
H967 H 0.10437 0.53263 0.90247 0.0
C968 C 0.11789 0.48824 0.77298 0.0
C969 C 0.12 0.49901 0.73312 0.0
C970 C 0.1174 0.49069 0.83535 0.0
C971 C 0.11904 0.50397 0.85935 0.0
C972 C 0.12099 0.51479 0.81955 0.0
H973 H 0.13028 0.53737 0.22301 0.0
H974 H 0.12918 0.53333 0.11383 0.0
C975 C 0.12134 0.51235 0.757 0.0
C976 C 0.11954 0.5063 0.92606 0.0
H977 H 0.10537 0.52474 0.0417 0.0
C978 C 0.12909 0.49889 0.96051 0.0
C979 C 0.11077 0.51564 0.95582 0.0
C980 C 0.09981 0.52338 0.9221 0.0
C981 C 0.13025 0.50072 0.02352 0.0
C982 C 0.12157 0.51013 0.05306 0.0
C983 C 0.11203 0.51755 0.01883 0.0
C984 C 0.12227 0.51245 0.11953 0.0
C985 C 0.14092 0.49276 0.05797 0.0
C986 C 0.11868 0.50207 0.15904 0.0
C987 C 0.11916 0.50437 0.22168 0.0
C988 C 0.12326 0.51713 0.24618 0.0
C989 C 0.1269 0.52748 0.20616 0.0
C990 C 0.12634 0.52518 0.14357 0.0
H991 H 0.14862 0.48813 0.02752 0.0
H992 H 0.14626 0.49941 0.092 0.0
H993 H 0.13589 0.4844 0.08236 0.0
H994 H 0.1153 0.49222 0.14137 0.0
H995 H 0.11605 0.49621 0.25067 0.0
H996 H 0.22333 0.36094 0.97314 0.0
H997 H 0.22682 0.36382 0.86542 0.0
H998 H 0.26534 0.38369 0.90431 0.0
H999 H 0.26223 0.38032 0.01236 0.0
H1000 H 0.22982 0.38691 0.80063 0.0
H1001 H 0.27621 0.35468 0.7812 0.0
H1002 H 0.26566 0.35472 0.84722 0.0
H1003 H 0.27773 0.36825 0.83654 0.0
C1004 C 0.23265 0.36575 0.95905 0.0
C1005 C 0.24257 0.37024 1.00182 0.0
C1006 C 0.23458 0.36749 0.89726 0.0
C1007 C 0.24645 0.37375 0.87661 0.0
C1008 C 0.25623 0.37855 0.91906 0.0
H1009 H 0.27362 0.39394 0.51684 0.0
H1010 H 0.27107 0.39153 0.62595 0.0
C1011 C 0.25435 0.37677 0.98101 0.0
C1012 C 0.24841 0.37537 0.81067 0.0
H1013 H 0.26951 0.36698 0.69429 0.0
C1014 C 0.23848 0.38252 0.77737 0.0
C1015 C 0.25971 0.36963 0.7803 0.0
C1016 C 0.27038 0.36128 0.81295 0.0
C1017 C 0.23961 0.3842 0.71476 0.0
C1018 C 0.25089 0.37844 0.68447 0.0
C1019 C 0.26087 0.37138 0.7177 0.0
C1020 C 0.25249 0.37966 0.61823 0.0
C1021 C 0.22883 0.39231 0.68162 0.0
C1022 C 0.24301 0.37359 0.57768 0.0
C1023 C 0.24443 0.37497 0.51526 0.0
C1024 C 0.25538 0.38245 0.49221 0.0
C1025 C 0.26498 0.3883 0.53308 0.0
C1026 C 0.26358 0.38686 0.59542 0.0
H1027 H 0.22267 0.39867 0.71308 0.0
H1028 H 0.23354 0.39907 0.64806 0.0
H1029 H 0.22182 0.38518 0.65692 0.0
H1030 H 0.23448 0.36782 0.59434 0.0
H1031 H 0.2368 0.37042 0.48522 0.0
H1032 H 0.36268 0.4834 0.75121 0.0
H1033 H 0.36476 0.48689 0.64283 0.0
H1034 H 0.38499 0.52533 0.67896 0.0
H1035 H 0.38285 0.52199 0.78771 0.0
H1036 H 0.35436 0.50837 0.57363 0.0
H1037 H 0.4109 0.50562 0.5626 0.0
H1038 H 0.40159 0.49989 0.62707 0.0
H1039 H 0.40453 0.5178 0.61688 0.0
C1040 C 0.36752 0.49264 0.7363 0.0
C1041 C 0.37258 0.50242 0.77846 0.0
C1042 C 0.36875 0.49459 0.67422 0.0
C1043 C 0.37514 0.5063 0.65275 0.0
C1044 C 0.38024 0.51609 0.69452 0.0
H1045 H 0.39328 0.53495 0.29422 0.0
H1046 H 0.38979 0.53265 0.40268 0.0
C1047 C 0.37902 0.51415 0.75676 0.0
C1048 C 0.37619 0.50834 0.58662 0.0
H1049 H 0.39905 0.51193 0.47328 0.0
C1050 C 0.36412 0.50912 0.55159 0.0
C1051 C 0.38894 0.50931 0.55799 0.0
C1052 C 0.40225 0.508 0.59284 0.0
C1053 C 0.36445 0.51107 0.48884 0.0
C1054 C 0.37721 0.51201 0.46017 0.0
C1055 C 0.38927 0.51124 0.49527 0.0
C1056 C 0.37835 0.51381 0.39385 0.0
C1057 C 0.35114 0.51241 0.4541 0.0
C1058 C 0.37299 0.50404 0.35259 0.0
C1059 C 0.37493 0.50536 0.29039 0.0
C1060 C 0.38244 0.51639 0.26838 0.0
C1061 C 0.38757 0.52627 0.30977 0.0
C1062 C 0.38556 0.52499 0.37177 0.0
H1063 H 0.34261 0.51525 0.48427 0.0
H1064 H 0.35191 0.52018 0.41845 0.0
H1065 H 0.34858 0.50246 0.43194 0.0
H1066 H 0.36765 0.49516 0.36856 0.0
H1067 H 0.37106 0.49746 0.25982 0.0
H1068 H 0.24646 0.61858 0.01965 0.0
H1069 H 0.24893 0.61505 0.12878 0.0
H1070 H 0.23964 0.65746 0.16286 0.0
H1071 H 0.23732 0.66113 0.05487 0.0
H1072 H 0.26683 0.6282 0.21348 0.0
H1073 H 0.21279 0.63784 0.27135 0.0
H1074 H 0.21813 0.63443 0.19486 0.0
H1075 H 0.22034 0.65116 0.22843 0.0
C1076 C 0.24494 0.62716 0.05028 0.0
C1077 C 0.24148 0.6401 0.02797 0.0
C1078 C 0.24632 0.62511 0.11272 0.0
C1079 C 0.24419 0.63593 0.15411 0.0
C1080 C 0.24096 0.64887 0.13198 0.0
H1081 H 0.24942 0.64909 0.54391 0.0
H1082 H 0.24625 0.65115 0.43428 0.0
C1083 C 0.23961 0.65093 0.06987 0.0
C1084 C 0.2457 0.63391 0.22041 0.0
H1085 H 0.22875 0.63716 0.35368 0.0
C1086 C 0.25848 0.63003 0.24412 0.0
C1087 C 0.23481 0.6364 0.26043 0.0
C1088 C 0.22071 0.64007 0.23756 0.0
C1089 C 0.26076 0.6289 0.30679 0.0
C1090 C 0.24989 0.63147 0.34686 0.0
C1091 C 0.23709 0.63525 0.32307 0.0
C1092 C 0.25158 0.63016 0.41355 0.0
C1093 C 0.27491 0.62536 0.32961 0.0
C1094 C 0.25533 0.61763 0.43856 0.0
C1095 C 0.25711 0.61642 0.50108 0.0
C1096 C 0.2551 0.62771 0.54031 0.0
C1097 C 0.251 0.64019 0.51523 0.0
C1098 C 0.24924 0.64139 0.4525 0.0
H1099 H 0.28277 0.62737 0.29532 0.0
H1100 H 0.27755 0.63126 0.37155 0.0
H1101 H 0.2753 0.61434 0.34006 0.0
H1102 H 0.25681 0.60872 0.40968 0.0
H1103 H 0.25994 0.60657 0.51865 0.0
H1104 H 0.37818 0.04056 0.21784 0.0
H1105 H 0.3612 0.0573 0.25241 0.0
H1106 H 0.34813 0.06344 0.06781 0.0
H1107 H 0.36484 0.04666 0.03321 0.0
H1108 H 0.35482 0.08486 0.22677 0.0
H1109 H 0.3136 0.04962 0.14869 0.0
H1110 H 0.33123 0.0444 0.15448 0.0
H1111 H 0.32526 0.05385 0.09028 0.0
C1112 C 0.37189 0.04572 0.1846 0.0
C1113 C 0.37271 0.04218 0.12289 0.0
C1114 C 0.36216 0.05523 0.20441 0.0
C1115 C 0.35318 0.06134 0.16276 0.0
C1116 C 0.35472 0.05858 0.10083 0.0
H1117 H 0.29561 0.12781 0.20801 0.0
H1118 H 0.31563 0.11364 0.18799 0.0
C1119 C 0.36431 0.04903 0.08111 0.0
C1120 C 0.34161 0.0699 0.18377 0.0
H1121 H 0.30683 0.07203 0.17788 0.0
C1122 C 0.34432 0.08205 0.21644 0.0
C1123 C 0.3279 0.06606 0.1713 0.0
C1124 C 0.32428 0.05271 0.13981 0.0
C1125 C 0.33366 0.09068 0.23535 0.0
C1126 C 0.31998 0.08715 0.22023 0.0
C1127 C 0.3173 0.07481 0.18902 0.0
C1128 C 0.30822 0.0961 0.23559 0.0
C1129 C 0.33717 0.10338 0.27194 0.0
C1130 C 0.29721 0.0909 0.26792 0.0
C1131 C 0.28566 0.09892 0.27864 0.0
C1132 C 0.28487 0.11231 0.25724 0.0
C1133 C 0.29595 0.11757 0.2255 0.0
C1134 C 0.30747 0.10951 0.21443 0.0
H1135 H 0.34728 0.10245 0.29512 0.0
H1136 H 0.33767 0.1122 0.24131 0.0
H1137 H 0.32933 0.10559 0.30641 0.0
H1138 H 0.29751 0.08056 0.28438 0.0
H1139 H 0.2773 0.09457 0.30322 0.0
H1140 H 0.14176 0.04219 0.51334 0.0
H1141 H 0.15721 0.06086 0.49057 0.0
H1142 H 0.13744 0.0653 0.31649 0.0
H1143 H 0.12194 0.04649 0.33865 0.0
H1144 H 0.17505 0.06028 0.38841 0.0
H1145 H 0.14025 0.10511 0.38656 0.0
H1146 H 0.13606 0.08942 0.42373 0.0
H1147 H 0.13469 0.09039 0.34293 0.0
C1148 C 0.14055 0.04719 0.47042 0.0
C1149 C 0.1306 0.04273 0.42777 0.0
C1150 C 0.14941 0.0579 0.45752 0.0
C1151 C 0.14844 0.06454 0.40202 0.0
C1152 C 0.13825 0.06045 0.35999 0.0
H1153 H 0.19791 0.12541 0.22687 0.0
H1154 H 0.17973 0.11008 0.25784 0.0
C1155 C 0.12941 0.04966 0.37273 0.0
C1156 C 0.15875 0.075 0.38657 0.0
H1157 H 0.16292 0.10875 0.35502 0.0
C1158 C 0.17242 0.0709 0.38141 0.0
C1159 C 0.15528 0.0888 0.37693 0.0
C1160 C 0.1408 0.09379 0.38317 0.0
C1161 C 0.18268 0.08016 0.36601 0.0
C1162 C 0.17927 0.09405 0.3572 0.0
C1163 C 0.16557 0.09815 0.36216 0.0
C1164 C 0.18977 0.10435 0.34146 0.0
C1165 C 0.197 0.07486 0.35754 0.0
C1166 C 0.20127 0.10665 0.37914 0.0
C1167 C 0.21175 0.11535 0.36137 0.0
C1168 C 0.21085 0.12211 0.30587 0.0
C1169 C 0.19896 0.12039 0.26986 0.0
C1170 C 0.18854 0.11159 0.28748 0.0
H1171 H 0.19711 0.06364 0.34911 0.0
H1172 H 0.20199 0.07989 0.31919 0.0
H1173 H 0.20315 0.07702 0.39921 0.0
H1174 H 0.2023 0.10149 0.42182 0.0
H1175 H 0.22069 0.11654 0.39053 0.0
H1176 H 0.22109 0.88962 0.60561 0.0
H1177 H 0.20461 0.90612 0.56627 0.0
H1178 H 0.17999 0.9012 0.7239 0.0
H1179 H 0.19645 0.88465 0.76382 0.0
H1180 H 0.17421 0.905 0.54644 0.0
H1181 H 0.19254 0.94266 0.72121 0.0
H1182 H 0.2022 0.92761 0.70094 0.0
H1183 H 0.18748 0.92618 0.74751 0.0
C1184 C 0.21204 0.89185 0.63146 0.0
C1185 C 0.21014 0.88592 0.68814 0.0
C1186 C 0.20263 0.90126 0.60882 0.0
C1187 C 0.19121 0.90499 0.64259 0.0
C1188 C 0.18883 0.89851 0.69746 0.0
H1189 H 0.12453 0.95983 0.55468 0.0
H1190 H 0.13861 0.94002 0.57945 0.0
C1191 C 0.1982 0.889 0.72 0.0
C1192 C 0.18246 0.91643 0.62263 0.0
H1193 H 0.17474 0.94969 0.65587 0.0
C1194 C 0.17425 0.91476 0.57038 0.0
C1195 C 0.18275 0.9292 0.65353 0.0
C1196 C 0.19177 0.93165 0.7087 0.0
C1197 C 0.16616 0.92553 0.54866 0.0
C1198 C 0.16631 0.93823 0.58012 0.0
C1199 C 0.17464 0.93993 0.63195 0.0
C1200 C 0.15778 0.94989 0.56065 0.0
C1201 C 0.15766 0.92333 0.4918 0.0
C1202 C 0.1639 0.96203 0.54201 0.0
C1203 C 0.15588 0.97338 0.52763 0.0
C1204 C 0.14161 0.97281 0.53247 0.0
C1205 C 0.13551 0.96057 0.55038 0.0
C1206 C 0.14352 0.94922 0.56429 0.0
H1207 H 0.16087 0.91406 0.46607 0.0
H1208 H 0.1468 0.92208 0.50402 0.0
H1209 H 0.15837 0.9323 0.46206 0.0
H1210 H 0.17491 0.96276 0.53929 0.0
H1211 H 0.16088 0.98268 0.51425 0.0
H1212 H 0.33858 0.98475 0.01925 0.0
H1213 H 0.32315 0.96678 0.98101 0.0
H1214 H 0.3574 0.94474 0.90777 0.0
H1215 H 0.37286 0.96268 0.9453 0.0
H1216 H 0.33598 0.94874 0.82458 0.0
H1217 H 0.31733 0.9275 0.03883 0.0
H1218 H 0.3159 0.94573 0.03392 0.0
H1219 H 0.3325 0.93793 0.03554 0.0
C1220 C 0.34284 0.97598 0.99578 0.0
C1221 C 0.35692 0.97512 0.98526 0.0
C1222 C 0.33403 0.9657 0.97419 0.0
C1223 C 0.33917 0.95439 0.94208 0.0
C1224 C 0.35325 0.95338 0.93264 0.0
H1225 H 0.29242 0.88244 0.82868 0.0
H1226 H 0.31006 0.89785 0.87004 0.0
C1227 C 0.36206 0.96362 0.95421 0.0
C1228 C 0.32981 0.94406 0.91481 0.0
H1229 H 0.30552 0.92056 0.94839 0.0
C1230 C 0.32938 0.94251 0.85161 0.0
C1231 C 0.32133 0.93588 0.9503 0.0
C1232 C 0.32183 0.93671 0.01845 0.0
C1233 C 0.32043 0.9332 0.82279 0.0
C1234 C 0.3116 0.92537 0.85817 0.0
C1235 C 0.31226 0.92667 0.92143 0.0
C1236 C 0.30137 0.91597 0.83035 0.0
C1237 C 0.32054 0.93175 0.75479 0.0
C1238 C 0.29069 0.92109 0.79427 0.0
C1239 C 0.28062 0.91233 0.77056 0.0
C1240 C 0.28104 0.89831 0.78277 0.0
C1241 C 0.29186 0.89318 0.81823 0.0
C1242 C 0.30192 0.90197 0.84205 0.0
H1243 H 0.33016 0.93574 0.73588 0.0
H1244 H 0.31929 0.92091 0.7402 0.0
H1245 H 0.31191 0.93766 0.73531 0.0
H1246 H 0.28998 0.93191 0.78558 0.0
H1247 H 0.27237 0.91659 0.74372 0.0
H1248 H 0.70117 0.87943 0.77248 0.0
H1249 H 0.68026 0.8925 0.78906 0.0
H1250 H 0.70316 0.93001 0.77968 0.0
H1251 H 0.72397 0.91696 0.76029 0.0
H1252 H 0.67364 0.90818 0.87788 0.0
H1253 H 0.67164 0.9396 0.67367 0.0
H1254 H 0.68322 0.92539 0.68109 0.0
H1255 H 0.68764 0.94192 0.71295 0.0
C1256 C 0.70171 0.89048 0.77322 0.0
C1257 C 0.71419 0.89719 0.76481 0.0
C1258 C 0.68974 0.89794 0.78268 0.0
C1259 C 0.69002 0.91228 0.78452 0.0
C1260 C 0.70253 0.91899 0.77645 0.0
H1261 H 0.64046 0.96649 0.98555 0.0
H1262 H 0.65562 0.94891 0.94763 0.0
C1263 C 0.71447 0.91152 0.76592 0.0
C1264 C 0.67746 0.92016 0.79916 0.0
H1265 H 0.65865 0.94799 0.75854 0.0
C1266 C 0.67026 0.91675 0.85112 0.0
C1267 C 0.67274 0.93115 0.7637 0.0
C1268 C 0.67914 0.93462 0.70439 0.0
C1269 C 0.65898 0.92443 0.87026 0.0
C1270 C 0.65505 0.93616 0.83782 0.0
C1271 C 0.66175 0.93913 0.78403 0.0
C1272 C 0.64495 0.94612 0.86177 0.0
C1273 C 0.65148 0.9199 0.92536 0.0
C1274 C 0.63393 0.9507 0.82584 0.0
C1275 C 0.62527 0.96105 0.84726 0.0
C1276 C 0.62753 0.96704 0.90486 0.0
C1277 C 0.63834 0.96214 0.94109 0.0
C1278 C 0.647 0.95193 0.91962 0.0
H1279 H 0.65205 0.90864 0.93004 0.0
H1280 H 0.65633 0.92459 0.96641 0.0
H1281 H 0.64056 0.92295 0.92351 0.0
H1282 H 0.63221 0.94645 0.7808 0.0
H1283 H 0.61712 0.96466 0.81796 0.0
H1284 H 0.77637 0.89923 0.64875 0.0
H1285 H 0.79524 0.91351 0.61736 0.0
H1286 H 0.8227 0.89196 0.73653 0.0
H1287 H 0.8037 0.87789 0.76988 0.0
H1288 H 0.8264 0.91834 0.75039 0.0
H1289 H 0.82597 0.90678 0.50532 0.0
H1290 H 0.8095 0.91248 0.52903 0.0
H1291 H 0.81644 0.89678 0.55766 0.0
C1292 C 0.78645 0.89735 0.6677 0.0
C1293 C 0.78849 0.88736 0.71183 0.0
C1294 C 0.79729 0.9055 0.64931 0.0
C1295 C 0.81051 0.9037 0.67365 0.0
C1296 C 0.81263 0.89353 0.71679 0.0
H1297 H 0.87752 0.95097 0.5208 0.0
H1298 H 0.86347 0.93198 0.55451 0.0
C1299 C 0.80175 0.88545 0.73571 0.0
C1300 C 0.82181 0.91308 0.65723 0.0
H1301 H 0.83724 0.92765 0.53706 0.0
C1302 C 0.82889 0.92022 0.70371 0.0
C1303 C 0.82532 0.91541 0.59645 0.0
C1304 C 0.819 0.90733 0.54437 0.0
C1305 C 0.8389 0.93001 0.69109 0.0
C1306 C 0.84166 0.93307 0.6302 0.0
C1307 C 0.83502 0.9255 0.58378 0.0
C1308 C 0.85096 0.94442 0.61351 0.0
C1309 C 0.84644 0.93688 0.74336 0.0
C1310 C 0.84871 0.95776 0.63553 0.0
C1311 C 0.85684 0.96859 0.61697 0.0
C1312 C 0.86727 0.96641 0.57493 0.0
C1313 C 0.86961 0.95302 0.55333 0.0
C1314 C 0.86155 0.94215 0.57245 0.0
H1315 H 0.8468 0.93024 0.78353 0.0
H1316 H 0.85706 0.93953 0.73132 0.0
H1317 H 0.841 0.94639 0.75641 0.0
H1318 H 0.84039 0.95991 0.66579 0.0
H1319 H 0.85462 0.97877 0.63409 0.0
H1320 H 0.87483 0.0534 0.50506 0.0
H1321 H 0.86173 0.07414 0.48543 0.0
H1322 H 0.82425 0.0512 0.49525 0.0
H1323 H 0.83732 0.03056 0.51762 0.0
H1324 H 0.8461 0.08031 0.39523 0.0
H1325 H 0.81453 0.0831 0.59919 0.0
H1326 H 0.82879 0.07155 0.59276 0.0
H1327 H 0.81232 0.06697 0.56084 0.0
C1328 C 0.86378 0.05282 0.50372 0.0
C1329 C 0.85708 0.04038 0.51321 0.0
C1330 C 0.8563 0.06469 0.49249 0.0
C1331 C 0.84197 0.06435 0.48995 0.0
C1332 C 0.83527 0.05187 0.49894 0.0
H1333 H 0.78826 0.11491 0.28771 0.0
H1334 H 0.80558 0.09931 0.32442 0.0
C1335 C 0.84275 0.04004 0.51122 0.0
C1336 C 0.83409 0.07683 0.47419 0.0
H1337 H 0.80642 0.09598 0.51399 0.0
C1338 C 0.83755 0.08383 0.42178 0.0
C1339 C 0.82311 0.08172 0.50937 0.0
C1340 C 0.81958 0.07552 0.56902 0.0
C1341 C 0.82998 0.09513 0.40214 0.0
C1342 C 0.8183 0.09929 0.43455 0.0
C1343 C 0.81524 0.09272 0.48854 0.0
C1344 C 0.80857 0.10965 0.41097 0.0
C1345 C 0.83462 0.10247 0.34677 0.0
C1346 C 0.80421 0.12064 0.44761 0.0
C1347 C 0.79399 0.12953 0.42696 0.0
C1348 C 0.78794 0.12757 0.36928 0.0
C1349 C 0.79267 0.11681 0.3322 0.0
C1350 C 0.80273 0.1079 0.353 0.0
H1351 H 0.84586 0.10168 0.34189 0.0
H1352 H 0.82981 0.09764 0.30592 0.0
H1353 H 0.83177 0.11344 0.34842 0.0
H1354 H 0.80849 0.12216 0.49271 0.0
H1355 H 0.79054 0.13763 0.45692 0.0
H1356 H 0.70887 0.1261 0.19209 0.0
H1357 H 0.69141 0.10983 0.15702 0.0
H1358 H 0.715 0.07675 0.23118 0.0
H1359 H 0.73251 0.09298 0.26689 0.0
H1360 H 0.69593 0.0878 0.07539 0.0
H1361 H 0.6761 0.07043 0.29473 0.0
H1362 H 0.68593 0.08591 0.28799 0.0
H1363 H 0.69434 0.06961 0.28795 0.0
C1364 C 0.71027 0.11538 0.20165 0.0
C1365 C 0.72204 0.1108 0.23232 0.0
C1366 C 0.7003 0.10612 0.18146 0.0
C1367 C 0.70189 0.09214 0.19197 0.0
C1368 C 0.71351 0.08754 0.2235 0.0
H1369 H 0.66259 0.02359 1.0083 0.0
H1370 H 0.67862 0.04109 0.04588 0.0
C1371 C 0.72351 0.09681 0.24367 0.0
C1372 C 0.69172 0.08232 0.167 0.0
H1373 H 0.66863 0.05817 0.20661 0.0
C1374 C 0.68992 0.08135 0.10401 0.0
C1375 C 0.68384 0.07404 0.20462 0.0
C1376 C 0.68502 0.07508 0.27262 0.0
C1377 C 0.68055 0.07211 0.07747 0.0
C1378 C 0.67294 0.06357 0.11501 0.0
C1379 C 0.67457 0.0647 0.17805 0.0
C1380 C 0.6632 0.05337 0.08981 0.0
C1381 C 0.67877 0.07165 0.00959 0.0
C1382 C 0.64927 0.05449 0.10241 0.0
C1383 C 0.6401 0.04454 0.08104 0.0
C1384 C 0.64476 0.03324 0.04716 0.0
C1385 C 0.65871 0.03222 0.03405 0.0
C1386 C 0.66786 0.04221 0.05529 0.0
H1387 H 0.68297 0.08091 0.98848 0.0
H1388 H 0.68424 0.06263 0.99103 0.0
H1389 H 0.66781 0.07065 0.99646 0.0
H1390 H 0.64551 0.06302 0.12918 0.0
H1391 H 0.62942 0.04557 0.09208 0.0
H1392 H 0.79952 0.63135 0.74208 0.0
H1393 H 0.8202 0.61814 0.72242 0.0
H1394 H 0.79892 0.58107 0.7644 0.0
H1395 H 0.77825 0.59427 0.78561 0.0
H1396 H 0.82521 0.58186 0.81278 0.0
H1397 H 0.825 0.59517 0.56973 0.0
H1398 H 0.82542 0.60957 0.62112 0.0
H1399 H 0.81068 0.59864 0.61773 0.0
C1400 C 0.79925 0.62038 0.74736 0.0
C1401 C 0.78721 0.61383 0.76487 0.0
C1402 C 0.81107 0.61285 0.73589 0.0
C1403 C 0.81105 0.59859 0.74088 0.0
C1404 C 0.79916 0.59206 0.76008 0.0
H1405 H 0.85571 0.53567 0.57308 0.0
H1406 H 0.84046 0.55345 0.60835 0.0
C1407 C 0.78735 0.59961 0.77203 0.0
C1408 C 0.82321 0.59039 0.72413 0.0
H1409 H 0.84317 0.58155 0.60463 0.0
C1410 C 0.82923 0.58186 0.76743 0.0
C1411 C 0.82838 0.59037 0.66479 0.0
C1412 C 0.82199 0.59882 0.61544 0.0
C1413 C 0.84005 0.57306 0.75259 0.0
C1414 C 0.84512 0.57295 0.69312 0.0
C1415 C 0.83936 0.58177 0.65038 0.0
C1416 C 0.85501 0.56252 0.6718 0.0
C1417 C 0.84554 0.56347 0.79971 0.0
C1418 C 0.86842 0.56177 0.69527 0.0
C1419 C 0.87733 0.55149 0.67496 0.0
C1420 C 0.87293 0.54185 0.63083 0.0
C1421 C 0.85955 0.54288 0.60696 0.0
C1422 C 0.85075 0.55308 0.6271 0.0
H1423 H 0.83908 0.56333 0.84047 0.0
H1424 H 0.84623 0.55291 0.78079 0.0
H1425 H 0.85598 0.56673 0.81391 0.0
H1426 H 0.87198 0.5691 0.72926 0.0
H1427 H 0.88755 0.55099 0.69423 0.0
H1428 H 0.69767 0.63362 0.76239 0.0
H1429 H 0.67856 0.61953 0.79432 0.0
H1430 H 0.70597 0.59669 0.9088 0.0
H1431 H 0.72495 0.61099 0.87891 0.0
H1432 H 0.67438 0.59339 0.77656 0.0
H1433 H 0.67564 0.60285 0.02324 0.0
H1434 H 0.68522 0.61313 0.97216 0.0
H1435 H 0.69193 0.59706 0.99772 0.0
C1436 C 0.69958 0.62576 0.79525 0.0
C1437 C 0.71286 0.62351 0.81829 0.0
C1438 C 0.68864 0.61767 0.81336 0.0
C1439 C 0.69072 0.60713 0.85477 0.0
C1440 C 0.70395 0.60497 0.87823 0.0
H1441 H 0.64499 0.53262 0.88432 0.0
H1442 H 0.65956 0.55141 0.85476 0.0
C1443 C 0.71486 0.61315 0.86072 0.0
C1444 C 0.6793 0.59778 0.87024 0.0
H1445 H 0.66385 0.58251 0.98863 0.0
C1446 C 0.67197 0.59116 0.823 0.0
C1447 C 0.6759 0.59499 0.93074 0.0
C1448 C 0.68249 0.60251 0.98377 0.0
C1449 C 0.66178 0.58148 0.83449 0.0
C1450 C 0.65908 0.57797 0.89494 0.0
C1451 C 0.66601 0.585 0.94221 0.0
C1452 C 0.64954 0.56671 0.91024 0.0
C1453 C 0.65396 0.57522 0.78154 0.0
C1454 C 0.63913 0.56887 0.9523 0.0
C1455 C 0.63088 0.55803 0.97017 0.0
C1456 C 0.63283 0.54478 0.94629 0.0
C1457 C 0.64306 0.54271 0.90319 0.0
C1458 C 0.65139 0.5535 0.88587 0.0
H1459 H 0.65365 0.5822 0.74254 0.0
H1460 H 0.65914 0.5657 0.76663 0.0
H1461 H 0.64331 0.5727 0.79367 0.0
H1462 H 0.63752 0.57894 0.97203 0.0
H1463 H 0.62314 0.56 1.0036 0.0
H1464 H 0.66139 0.4786 0.95459 0.0
H1465 H 0.67548 0.45845 0.97392 0.0
H1466 H 0.64247 0.44042 0.07119 0.0
H1467 H 0.62822 0.46034 0.05063 0.0
H1468 H 0.68411 0.4493 0.08014 0.0
H1469 H 0.65361 0.40863 0.96509 0.0
H1470 H 0.65042 0.42654 0.95336 0.0
H1471 H 0.64385 0.41828 0.01876 0.0
C1472 C 0.65708 0.47027 0.97949 0.0
C1473 C 0.64369 0.47104 1.00093 0.0
C1474 C 0.66514 0.45875 0.99047 0.0
C1475 C 0.65997 0.44779 0.02313 0.0
C1476 C 0.64657 0.44854 0.04444 0.0
H1477 H 0.70904 0.39198 0.22969 0.0
H1478 H 0.69238 0.40857 0.19319 0.0
C1479 C 0.63847 0.46001 0.03309 0.0
C1480 C 0.66893 0.43607 0.03871 0.0
H1481 H 0.67108 0.40122 0.03444 0.0
C1482 C 0.68129 0.4388 0.06963 0.0
C1483 C 0.66536 0.42235 0.0244 0.0
C1484 C 0.65265 0.41877 0.98802 0.0
C1485 C 0.68999 0.42824 0.08801 0.0
C1486 C 0.68609 0.41451 0.07655 0.0
C1487 C 0.67394 0.41174 0.04402 0.0
C1488 C 0.69453 0.403 0.09876 0.0
C1489 C 0.70337 0.43192 0.11921 0.0
C1490 C 0.70061 0.39374 0.05809 0.0
C1491 C 0.71003 0.38406 0.07901 0.0
C1492 C 0.71354 0.38359 0.14085 0.0
C1493 C 0.7067 0.39224 0.18169 0.0
C1494 C 0.69722 0.40177 0.16089 0.0
H1495 H 0.70654 0.44252 0.10926 0.0
H1496 H 0.70219 0.43122 0.16884 0.0
H1497 H 0.71163 0.42483 0.10529 0.0
H1498 H 0.69858 0.39445 0.00997 0.0
H1499 H 0.71515 0.37754 0.04649 0.0
H1500 H 0.78761 0.38675 0.35357 0.0
H1501 H 0.8052 0.40275 0.38948 0.0
H1502 H 0.79409 0.43025 0.2466 0.0
H1503 H 0.7759 0.41457 0.21273 0.0
H1504 H 0.82715 0.41285 0.34485 0.0
H1505 H 0.79128 0.45552 0.38784 0.0
H1506 H 0.78547 0.43855 0.36797 0.0
H1507 H 0.79094 0.44996 0.31022 0.0
C1508 C 0.78895 0.3962 0.32975 0.0
C1509 C 0.78035 0.39952 0.28079 0.0
C1510 C 0.79901 0.40533 0.35026 0.0
C1511 C 0.80078 0.41786 0.32164 0.0
C1512 C 0.79262 0.42087 0.27071 0.0
H1513 H 0.87213 0.46951 0.4033 0.0
H1514 H 0.85634 0.45275 0.35744 0.0
C1515 C 0.78232 0.41187 0.25108 0.0
C1516 C 0.81101 0.42779 0.34608 0.0
H1517 H 0.81484 0.46065 0.39725 0.0
C1518 C 0.82445 0.42329 0.35653 0.0
C1519 C 0.80744 0.44136 0.36228 0.0
C1520 C 0.79297 0.4466 0.35712 0.0
C1521 C 0.83439 0.43194 0.38307 0.0
C1522 C 0.83094 0.44565 0.39715 0.0
C1523 C 0.81753 0.45017 0.38613 0.0
C1524 C 0.84084 0.45544 0.42535 0.0
C1525 C 0.8483 0.42609 0.39766 0.0
C1526 C 0.83726 0.46284 0.47774 0.0
C1527 C 0.84606 0.4727 0.50269 0.0
C1528 C 0.85873 0.47516 0.47644 0.0
C1529 C 0.86248 0.46762 0.42482 0.0
C1530 C 0.8535 0.45798 0.39887 0.0
H1531 H 0.84789 0.41482 0.40209 0.0
H1532 H 0.85533 0.42835 0.36039 0.0
H1533 H 0.85262 0.43057 0.44031 0.0
H1534 H 0.82756 0.46108 0.49906 0.0
H1535 H 0.84297 0.47839 0.54261 0.0
H1536 H 0.14858 0.47474 0.45877 0.0
H1537 H 0.16386 0.45681 0.42478 0.0
H1538 H 0.13245 0.44096 0.30376 0.0
H1539 H 0.11693 0.45923 0.3371 0.0
H1540 H 0.16152 0.42896 0.42955 0.0
H1541 H 0.16498 0.44614 0.19202 0.0
H1542 H 0.15767 0.45666 0.25095 0.0
H1543 H 0.14811 0.44263 0.21846 0.0
C1544 C 0.1448 0.46747 0.425 0.0
C1545 C 0.13149 0.46851 0.40044 0.0
C1546 C 0.1536 0.45718 0.40567 0.0
C1547 C 0.14938 0.44764 0.36122 0.0
C1548 C 0.136 0.44837 0.3374 0.0
H1549 H 0.2042 0.37802 0.29286 0.0
H1550 H 0.18368 0.39146 0.31353 0.0
C1551 C 0.12712 0.45875 0.35679 0.0
C1552 C 0.15926 0.43713 0.34034 0.0
H1553 H 0.17849 0.42733 0.21971 0.0
C1554 C 0.16513 0.42847 0.38348 0.0
C1555 C 0.16405 0.43665 0.2804 0.0
C1556 C 0.15849 0.44606 0.23269 0.0
C1557 C 0.17593 0.41966 0.36892 0.0
C1558 C 0.1808 0.41924 0.30906 0.0
C1559 C 0.17469 0.42762 0.26545 0.0
C1560 C 0.19282 0.41085 0.29197 0.0
C1561 C 0.18246 0.41139 0.41855 0.0
C1562 C 0.20461 0.41719 0.27072 0.0
C1563 C 0.2163 0.40951 0.25821 0.0
C1564 C 0.21642 0.39534 0.26679 0.0
C1565 C 0.20447 0.38894 0.28635 0.0
C1566 C 0.19275 0.39662 0.29845 0.0
H1567 H 0.1797 0.4153 0.46418 0.0
H1568 H 0.1789 0.40066 0.41424 0.0
H1569 H 0.19375 0.41144 0.4152 0.0
H1570 H 0.20488 0.42815 0.26523 0.0
H1571 H 0.22533 0.41473 0.24309 0.0
H1572 H 0.3036 0.38375 0.29821 0.0
H1573 H 0.32153 0.39953 0.26865 0.0
H1574 H 0.29897 0.40825 0.10479 0.0
H1575 H 0.28082 0.39276 0.1347 0.0
H1576 H 0.33841 0.40149 0.1721 0.0
H1577 H 0.3034 0.44595 0.17984 0.0
H1578 H 0.29877 0.42952 0.20858 0.0
H1579 H 0.29769 0.43263 0.12874 0.0
C1580 C 0.3025 0.38891 0.25553 0.0
C1581 C 0.29067 0.38708 0.21917 0.0
C1582 C 0.31277 0.39795 0.23872 0.0
C1583 C 0.31147 0.40535 0.1852 0.0
C1584 C 0.30004 0.40296 0.14713 0.0
H1585 H 0.35869 0.46921 0.02043 0.0
H1586 H 0.3435 0.45017 0.04084 0.0
C1587 C 0.28971 0.39401 0.16411 0.0
C1588 C 0.3218 0.4159 0.1704 0.0
H1589 H 0.32548 0.44987 0.14185 0.0
C1590 C 0.33559 0.41207 0.16563 0.0
C1591 C 0.31816 0.42976 0.16244 0.0
C1592 C 0.30373 0.43477 0.17073 0.0
C1593 C 0.34574 0.42166 0.15195 0.0
C1594 C 0.34204 0.43544 0.14324 0.0
C1595 C 0.32829 0.43927 0.14814 0.0
C1596 C 0.3522 0.44616 0.12919 0.0
C1597 C 0.36031 0.41695 0.14587 0.0
C1598 C 0.36227 0.45018 0.17189 0.0
C1599 C 0.37097 0.46118 0.16052 0.0
C1600 C 0.36975 0.46838 0.1062 0.0
C1601 C 0.35992 0.464 0.06285 0.0
C1602 C 0.3512 0.45308 0.07439 0.0
H1603 H 0.36105 0.40566 0.14127 0.0
H1604 H 0.36508 0.42162 0.10606 0.0
H1605 H 0.36627 0.42022 0.18675 0.0
H1606 H 0.3631 0.44512 0.21489 0.0
H1607 H 0.37836 0.46428 0.1951 0.0
H1608 H 0.28656 0.63233 0.9774 0.0
H1609 H 0.30328 0.61522 0.00976 0.0
H1610 H 0.30831 0.60221 0.82414 0.0
H1611 H 0.29141 0.619 0.79187 0.0
H1612 H 0.30281 0.58113 0.89419 0.0
H1613 H 0.34433 0.61197 1.00209 0.0
H1614 H 0.32778 0.61548 0.03223 0.0
H1615 H 0.33119 0.61939 0.95486 0.0
C1616 C 0.29151 0.62606 0.94342 0.0
C1617 C 0.28766 0.62698 0.88212 0.0
C1618 C 0.30108 0.61628 0.96196 0.0
C1619 C 0.30713 0.60745 0.91937 0.0
C1620 C 0.30376 0.60886 0.85786 0.0
H1621 H 0.37354 0.55021 0.96324 0.0
H1622 H 0.35888 0.56986 0.94331 0.0
C1623 C 0.29412 0.61849 0.83945 0.0
C1624 C 0.31598 0.59594 0.93869 0.0
H1625 H 0.34536 0.58795 0.01575 0.0
C1626 C 0.31213 0.58264 0.92069 0.0
C1627 C 0.32818 0.5979 0.97295 0.0
C1628 C 0.33321 0.61196 0.99123 0.0
C1629 C 0.32014 0.57127 0.9356 0.0
C1630 C 0.33218 0.57318 0.97109 0.0
C1631 C 0.33605 0.58648 0.98919 0.0
C1632 C 0.34122 0.56157 0.98711 0.0
C1633 C 0.31583 0.55738 0.9115 0.0
C1634 C 0.33628 0.55047 0.01956 0.0
C1635 C 0.34461 0.53913 0.03053 0.0
C1636 C 0.3581 0.53879 0.00999 0.0
C1637 C 0.36318 0.55014 0.97958 0.0
C1638 C 0.35482 0.56141 0.96824 0.0
H1639 H 0.30855 0.55815 0.8726 0.0
H1640 H 0.32479 0.5513 0.89687 0.0
H1641 H 0.31066 0.55177 0.94768 0.0
H1642 H 0.32591 0.55049 0.03579 0.0
H1643 H 0.34044 0.5306 0.05455 0.0
H1644 H 0.12754 0.54695 0.59632 0.0
H1645 H 0.14194 0.56496 0.64227 0.0
H1646 H 0.17783 0.54488 0.57393 0.0
H1647 H 0.16358 0.52689 0.52792 0.0
H1648 H 0.16461 0.56164 0.72879 0.0
H1649 H 0.18004 0.58494 0.5136 0.0
H1650 H 0.16534 0.57391 0.51875 0.0
H1651 H 0.18221 0.56675 0.51625 0.0
C1652 C 0.1385 0.54641 0.5909 0.0
C1653 C 0.14444 0.53556 0.55826 0.0
C1654 C 0.14669 0.55667 0.61728 0.0
C1655 C 0.1609 0.55629 0.61083 0.0
C1656 C 0.16685 0.54543 0.57864 0.0
H1657 H 0.2286 0.5951 0.79474 0.0
H1658 H 0.21015 0.5798 0.76085 0.0
C1659 C 0.1587 0.53514 0.55258 0.0
C1660 C 0.16961 0.56714 0.63809 0.0
H1661 H 0.19246 0.59184 0.60233 0.0
C1662 C 0.17061 0.56834 0.7013 0.0
C1663 C 0.17728 0.57595 0.60195 0.0
C1664 C 0.17612 0.57545 0.53385 0.0
C1665 C 0.17951 0.57785 0.7294 0.0
C1666 C 0.18765 0.58622 0.69318 0.0
C1667 C 0.18626 0.58533 0.62999 0.0
C1668 C 0.19803 0.59568 0.71945 0.0
C1669 C 0.18015 0.57884 0.7975 0.0
C1670 C 0.19732 0.60966 0.70732 0.0
C1671 C 0.20787 0.61841 0.72637 0.0
C1672 C 0.21935 0.61329 0.75747 0.0
C1673 C 0.21985 0.59934 0.77109 0.0
C1674 C 0.20929 0.5906 0.75206 0.0
H1675 H 0.17082 0.57458 0.81789 0.0
H1676 H 0.18905 0.57291 0.81426 0.0
H1677 H 0.18142 0.5896 0.81326 0.0
H1678 H 0.18874 0.61375 0.68192 0.0
H1679 H 0.20719 0.6291 0.71513 0.0
H1680 H 0.44468 1.00021 0.90694 0.0
H1681 H 0.46952 0.99828 0.91558 0.0
H1682 H 0.46927 0.02309 0.07862 0.0
H1683 H 0.44433 0.02474 0.07124 0.0
H1684 H 0.49064 0.01747 0.92233 0.0
H1685 H 0.48782 0.98768 0.13292 0.0
H1686 H 0.47305 0.99087 0.08534 0.0
H1687 H 0.47949 0.004 0.13607 0.0
C1688 C 0.44992 0.00533 0.94447 0.0
C1689 C 0.44252 0.01248 0.98888 0.0
C1690 C 0.46411 0.00425 0.94922 0.0
C1691 C 0.47119 0.01026 0.9985 0.0
C1692 C 0.46395 0.01811 0.04094 0.0
H1693 H 0.5559 0.01091 0.11487 0.0
H1694 H 0.53107 0.01299 0.10598 0.0
C1695 C 0.44973 0.0192 0.03623 0.0
C1696 C 0.48607 0.00788 1.00628 0.0
H1697 H 0.5099 0.99351 0.10012 0.0
C1698 C 0.49486 0.01221 0.9611 0.0
C1699 C 0.49152 0.00094 0.05679 0.0
C1700 C 0.4825 0.99548 0.10536 0.0
C1701 C 0.50901 0.01002 0.96563 0.0
C1702 C 0.51446 0.00309 0.01617 0.0
C1703 C 0.50567 0.99876 0.06135 0.0
C1704 C 0.52933 0.00071 0.02395 0.0
C1705 C 0.51805 0.01543 0.91699 0.0
C1706 C 0.53652 0.99267 0.98204 0.0
C1707 C 0.55074 0.99147 0.98696 0.0
C1708 C 0.55798 0.99829 0.03392 0.0
C1709 C 0.55063 0.0057 0.07768 0.0
C1710 C 0.53644 0.00687 0.07278 0.0
H1711 H 0.5127 0.02314 0.88899 0.0
H1712 H 0.52745 0.02012 0.93702 0.0
H1713 H 0.52114 0.00686 0.88671 0.0
H1714 H 0.53118 0.9876 0.94468 0.0
H1715 H 0.55611 0.98573 0.95246 0.0
H1716 H 0.25947 0.31023 0.17028 0.0
H1717 H 0.25771 0.28529 0.16869 0.0
H1718 H 0.25267 0.28582 0.36185 0.0
H1719 H 0.25449 0.31072 0.36395 0.0
H1720 H 0.27286 0.26502 0.22823 0.0
H1721 H 0.21883 0.26495 0.29963 0.0
H1722 H 0.22723 0.28012 0.27402 0.0
H1723 H 0.2302 0.2743 0.34969 0.0
C1724 C 0.25821 0.30504 0.2126 0.0
C1725 C 0.25703 0.31252 0.26722 0.0
C1726 C 0.25711 0.29078 0.21154 0.0
C1727 C 0.25475 0.2837 0.26495 0.0
C1728 C 0.25413 0.29108 0.31984 0.0
H1729 H 0.24312 0.19835 0.35288 0.0
H1730 H 0.24499 0.22327 0.35409 0.0
C1731 C 0.25522 0.30532 0.32097 0.0
C1732 C 0.2528 0.26863 0.26321 0.0
H1733 H 0.22993 0.24346 0.29436 0.0
C1734 C 0.26346 0.2603 0.24241 0.0
C1735 C 0.24052 0.26248 0.28177 0.0
C1736 C 0.22848 0.2709 0.30204 0.0
C1737 C 0.26227 0.24599 0.24081 0.0
C1738 C 0.24999 0.23984 0.25941 0.0
C1739 C 0.23934 0.24818 0.28016 0.0
C1740 C 0.24805 0.22477 0.25786 0.0
C1741 C 0.27432 0.23757 0.22058 0.0
C1742 C 0.24871 0.21735 0.20311 0.0
C1743 C 0.24756 0.20311 0.2022 0.0
C1744 C 0.24564 0.19597 0.25602 0.0
C1745 C 0.24445 0.20349 0.3105 0.0
C1746 C 0.24562 0.21775 0.31135 0.0
H1747 H 0.28397 0.24353 0.22301 0.0
H1748 H 0.27556 0.22836 0.24861 0.0
H1749 H 0.27261 0.23418 0.17293 0.0
H1750 H 0.25022 0.22256 0.16104 0.0
H1751 H 0.24829 0.19767 0.15932 0.0
H1752 H 0.05565 0.98877 0.51911 0.0
H1753 H 0.03078 0.98814 0.51945 0.0
H1754 H 0.02972 0.03133 0.55984 0.0
H1755 H 0.05479 0.03204 0.56118 0.0
H1756 H 0.01321 0.99667 0.61905 0.0
H1757 H 0.00399 0.02534 0.40749 0.0
H1758 H 0.0202 0.01742 0.42506 0.0
H1759 H 0.01543 0.03301 0.46289 0.0
C1760 C 0.0502 0.99815 0.52886 0.0
C1761 C 0.0573 0.01044 0.54082 0.0
C1762 C 0.03595 0.99776 0.5286 0.0
C1763 C 0.02841 0.00967 0.53944 0.0
C1764 C 0.03537 0.02203 0.55074 0.0
H1765 H 0.9412 0.02545 0.53476 0.0
H1766 H 0.96607 0.02693 0.54039 0.0
C1767 C 0.04969 0.02242 0.55135 0.0
C1768 C 0.01326 0.00899 0.53961 0.0
H1769 H 0.98464 0.01852 0.46088 0.0
C1770 C 0.00693 0.00146 0.58458 0.0
C1771 C 0.00514 0.01525 0.49459 0.0
C1772 C 0.01147 0.02315 0.44439 0.0
C1773 C 0.99264 1.00014 0.5862 0.0
C1774 C 0.98449 0.00622 0.54058 0.0
C1775 C 0.99086 0.01382 0.49576 0.0
C1776 C 0.96932 0.00508 0.5389 0.0
C1777 C 0.98644 0.99252 0.63759 0.0
C1778 C 0.96278 0.99229 0.53605 0.0
C1779 C 0.94849 0.99141 0.53315 0.0
C1780 C 0.94049 0.00332 0.53187 0.0
C1781 C 0.94707 0.01608 0.53472 0.0
C1782 C 0.9613 0.01695 0.53815 0.0
H1783 H 0.99357 0.99201 0.67714 0.0
H1784 H 0.9768 0.99739 0.65237 0.0
H1785 H 0.98413 0.9819 0.62237 0.0
H1786 H 0.96873 0.98298 0.53509 0.0
H1787 H 0.94372 0.98144 0.5305 0.0
H1788 H 0.25003 0.69759 0.64518 0.0
H1789 H 0.24925 0.72253 0.64128 0.0
H1790 H 0.26871 0.72525 0.81758 0.0
H1791 H 0.26979 0.70031 0.82096 0.0
H1792 H 0.23521 0.73871 0.7157 0.0
H1793 H 0.28971 0.75368 0.72972 0.0
H1794 H 0.28435 0.73636 0.71337 0.0
H1795 H 0.28494 0.7428 0.79011 0.0
C1796 C 0.25439 0.70354 0.68254 0.0
C1797 C 0.26 0.69704 0.73334 0.0
C1798 C 0.25392 0.71777 0.68032 0.0
C1799 C 0.25901 0.72579 0.7289 0.0
C1800 C 0.26502 0.71931 0.7789 0.0
H1801 H 0.24904 0.81014 0.84111 0.0
H1802 H 0.25191 0.78535 0.83487 0.0
C1803 C 0.26562 0.70506 0.78086 0.0
C1804 C 0.25696 0.74082 0.72938 0.0
H1805 H 0.2734 0.77142 0.74812 0.0
C1806 C 0.24359 0.74585 0.72215 0.0
C1807 C 0.26789 0.75016 0.7379 0.0
C1808 C 0.28254 0.74549 0.74261 0.0
C1809 C 0.24084 0.75991 0.72438 0.0
C1810 C 0.25172 0.76916 0.73416 0.0
C1811 C 0.26509 0.76422 0.74097 0.0
C1812 C 0.24939 0.78406 0.73771 0.0
C1813 C 0.22632 0.76483 0.7174 0.0
C1814 C 0.2469 0.79147 0.68508 0.0
C1815 C 0.2454 0.80567 0.6883 0.0
C1816 C 0.24633 0.81269 0.74434 0.0
C1817 C 0.24846 0.80511 0.79713 0.0
C1818 C 0.25006 0.79094 0.79376 0.0
H1819 H 0.21886 0.75629 0.7163 0.0
H1820 H 0.22379 0.77196 0.7552 0.0
H1821 H 0.22521 0.77053 0.67472 0.0
H1822 H 0.24644 0.7863 0.64137 0.0
H1823 H 0.24401 0.81116 0.64663 0.0
H1824 H 0.72668 0.69953 0.77127 0.0
H1825 H 0.72736 0.7246 0.76989 0.0
H1826 H 0.77133 0.72342 0.76726 0.0
H1827 H 0.77077 0.69856 0.769 0.0
H1828 H 0.74017 0.74339 0.85091 0.0
H1829 H 0.76179 0.74699 0.62173 0.0
H1830 H 0.75446 0.73144 0.64925 0.0
H1831 H 0.7715 0.73638 0.6719 0.0
C1832 C 0.73648 0.70463 0.77063 0.0
C1833 C 0.74865 0.69701 0.76917 0.0
C1834 C 0.73686 0.71894 0.76962 0.0
C1835 C 0.74939 0.72587 0.76702 0.0
C1836 C 0.76154 0.7183 0.76745 0.0
H1837 H 0.77457 0.81138 0.76025 0.0
H1838 H 0.77389 0.78632 0.76166 0.0
C1839 C 0.76118 0.70406 0.7684 0.0
C1840 C 0.74988 0.74103 0.76488 0.0
H1841 H 0.76106 0.76754 0.68043 0.0
C1842 C 0.74465 0.74868 0.81347 0.0
C1843 C 0.75581 0.74792 0.71614 0.0
C1844 C 0.76111 0.74029 0.6615 0.0
C1845 C 0.74542 0.76301 0.81519 0.0
C1846 C 0.75135 0.7699 0.76646 0.0
C1847 C 0.75658 0.76225 0.71786 0.0
C1848 C 0.75185 0.78505 0.76433 0.0
C1849 C 0.74012 0.77064 0.86981 0.0
C1850 C 0.73971 0.79263 0.76379 0.0
C1851 C 0.74007 0.80687 0.7628 0.0
C1852 C 0.7526 0.81392 0.76213 0.0
C1853 C 0.76477 0.80629 0.76081 0.0
C1854 C 0.76439 0.79198 0.76184 0.0
H1855 H 0.73941 0.76393 0.90957 0.0
H1856 H 0.74678 0.77948 0.8821 0.0
H1857 H 0.72973 0.77456 0.85936 0.0
H1858 H 0.72991 0.78751 0.76391 0.0
H1859 H 0.73048 0.81237 0.76209 0.0
H1860 H 0.7311 0.19805 0.27655 0.0
H1861 H 0.72866 0.22275 0.28249 0.0
H1862 H 0.77097 0.22748 0.23654 0.0
H1863 H 0.77336 0.2026 0.22759 0.0
H1864 H 0.74118 0.24122 0.3554 0.0
H1865 H 0.75208 0.25216 0.11589 0.0
H1866 H 0.74895 0.23511 0.14182 0.0
H1867 H 0.76542 0.2429 0.15383 0.0
C1868 C 0.73986 0.20431 0.26655 0.0
C1869 C 0.75238 0.19831 0.25045 0.0
C1870 C 0.73846 0.21845 0.2706 0.0
C1871 C 0.74955 0.22698 0.25896 0.0
C1872 C 0.76219 0.22109 0.24438 0.0
H1873 H 0.75597 0.31254 0.35802 0.0
H1874 H 0.75656 0.28766 0.35491 0.0
C1875 C 0.76359 0.20687 0.23998 0.0
C1876 C 0.74778 0.24202 0.26318 0.0
H1877 H 0.75004 0.27128 0.1826 0.0
C1878 C 0.74309 0.24779 0.31756 0.0
C1879 C 0.75002 0.25055 0.21345 0.0
C1880 C 0.75427 0.24488 0.15274 0.0
C1881 C 0.74077 0.26188 0.32387 0.0
C1882 C 0.7435 0.27048 0.27489 0.0
C1883 C 0.748 0.26468 0.22022 0.0
C1884 C 0.7422 0.28555 0.27979 0.0
C1885 C 0.73518 0.26737 0.38262 0.0
C1886 C 0.73398 0.29269 0.23844 0.0
C1887 C 0.73378 0.30698 0.23952 0.0
C1888 C 0.74189 0.31437 0.28172 0.0
C1889 C 0.74972 0.30716 0.32449 0.0
C1890 C 0.74995 0.29291 0.32322 0.0
H1891 H 0.72964 0.25934 0.40721 0.0
H1892 H 0.74377 0.27098 0.41213 0.0
H1893 H 0.72813 0.27607 0.37493 0.0
H1894 H 0.72795 0.2872 0.20439 0.0
H1895 H 0.72776 0.31222 0.20558 0.0
H1896 H 0.94767 0.50035 0.61358 0.0
H1897 H 0.97248 0.49971 0.60409 0.0
H1898 H 0.96909 0.52093 0.43546 0.0
H1899 H 0.94418 0.52165 0.44491 0.0
H1900 H 0.98628 0.48682 0.51165 0.0
H1901 H 0.99957 0.54191 0.52452 0.0
H1902 H 0.98321 0.5355 0.5474 0.0
H1903 H 0.9867 0.53755 0.46862 0.0
C1904 C 0.95223 0.50501 0.57478 0.0
C1905 C 0.94398 0.51102 0.52988 0.0
C1906 C 0.9664 0.50465 0.56945 0.0
C1907 C 0.97266 0.51033 0.51927 0.0
C1908 C 0.9645 0.51669 0.47514 0.0
H1909 H 0.05656 0.51204 0.39932 0.0
H1910 H 0.03171 0.51325 0.40675 0.0
C1911 C 0.95028 0.51711 0.48058 0.0
C1912 C 0.98761 0.50877 0.51164 0.0
H1913 H 0.01732 0.52658 0.49804 0.0
C1914 C 0.99308 0.49552 0.50888 0.0
C1915 C 0.99645 0.52012 0.50782 0.0
C1916 C 0.99124 0.53458 0.51276 0.0
C1917 C 0.00713 0.4933 0.50182 0.0
C1918 C 0.01598 0.50464 0.49831 0.0
C1919 C 0.01051 0.51789 0.5007 0.0
C1920 C 0.03096 0.50303 0.4924 0.0
C1921 C 0.01234 0.47883 0.49702 0.0
C1922 C 0.03879 0.49676 0.53786 0.0
C1923 C 0.05302 0.49605 0.53376 0.0
C1924 C 0.05968 0.50172 0.48436 0.0
C1925 C 0.05176 0.50771 0.43828 0.0
C1926 C 0.03756 0.50839 0.44238 0.0
H1927 H 0.00403 0.47152 0.48465 0.0
H1928 H 0.02048 0.47792 0.46288 0.0
H1929 H 0.01673 0.47583 0.54139 0.0
H1930 H 0.03394 0.49277 0.57742 0.0
H1931 H 0.05884 0.49156 0.57043 0.0
H1932 H 0.44524 0.48011 0.97147 0.0
H1933 H 0.47029 0.48089 0.97368 0.0
H1934 H 0.46898 0.52407 0.01433 0.0
H1935 H 0.44416 0.52329 0.01501 0.0
H1936 H 0.4878 0.49537 0.9038 0.0
H1937 H 0.49508 0.51115 0.14382 0.0
H1938 H 0.47891 0.50504 0.11373 0.0
H1939 H 0.48401 0.52248 0.10326 0.0
C1940 C 0.45029 0.48973 0.98172 0.0
C1941 C 0.44261 0.50164 0.99284 0.0
C1942 C 0.46461 0.49018 0.98258 0.0
C1943 C 0.47155 0.50251 0.99509 0.0
C1944 C 0.46391 0.51439 1.00582 0.0
H1945 H 0.55648 0.52957 0.9973 0.0
H1946 H 0.5314 0.52827 0.99477 0.0
C1947 C 0.44966 0.51394 1.00522 0.0
C1948 C 0.48674 0.50313 0.9953 0.0
H1949 H 0.51454 0.51305 0.08108 0.0
C1950 C 0.49364 0.49913 0.94274 0.0
C1951 C 0.4944 0.50806 0.04609 0.0
C1952 C 0.48774 0.5118 0.1051 0.0
C1953 C 0.50793 0.50021 0.93919 0.0
C1954 C 0.51553 0.50533 0.98963 0.0
C1955 C 0.50866 0.50926 0.04226 0.0
C1956 C 0.53066 0.50621 0.98944 0.0
C1957 C 0.51479 0.49608 0.88117 0.0
C1958 C 0.53853 0.49426 0.98759 0.0
C1959 C 0.55278 0.49497 0.98934 0.0
C1960 C 0.55951 0.50767 0.99299 0.0
C1961 C 0.55161 0.51966 0.99422 0.0
C1962 C 0.5373 0.51892 0.993 0.0
H1963 H 0.50738 0.49516 0.8427 0.0
H1964 H 0.52279 0.50359 0.86971 0.0
H1965 H 0.51981 0.48602 0.88698 0.0
H1966 H 0.53362 0.48434 0.98545 0.0
H1967 H 0.55855 0.48555 0.98749 0.0
loop_
_geom_bond_atom_site_label_1
_geom_bond_atom_site_label_2
_geom_bond_distance
_geom_bond_site_symmetry_2
_ccdc_geom_bond_type
Co0 N4 2.148 1_554 S
Co0 N10 2.128 1_545 S
Co0 N20 2.194 1_554 S
Co0 O25 2.351 1_544 S
Co0 O26 2.155 1_544 S
Co0 O27 2.096 . S
C1 N4 1.301 . S
C1 N5 1.328 . S
C1 H6 0.930 1_545 S
C2 C3 1.333 . S
C2 N4 1.317 . S
C2 H7 0.930 . S
C3 C2 1.333 . S
C3 N5 1.350 . S
C3 H29 0.931 . S
N4 Co0 2.148 1_556 S
N4 C1 1.301 . S
N4 C2 1.317 . S
N5 C1 1.328 . S
N5 C3 1.350 . S
H6 C1 0.930 1_565 S
H7 C2 0.930 . S
C8 O9 1.224 . S
C8 O27 1.247 . S
O9 C8 1.224 . S
N10 Co0 2.128 1_565 S
N10 C11 1.355 . S
N10 C13 1.311 1_565 S
C11 N10 1.355 . S
C11 C12 1.363 . S
C11 H23 0.929 . S
C12 C11 1.363 . S
C12 N14 1.422 . S
C12 H30 0.931 . S
C13 N10 1.311 1_545 S
C13 N14 1.323 1_545 S
C13 H24 0.929 . S
N14 C12 1.422 . S
N14 C13 1.323 1_565 S
C15 C18 1.365 . S
C15 N20 1.328 1_565 S
C15 H21 0.929 . S
C16 C17 1.362 . S
C16 C19 1.378 . S
C16 H31 0.929 . S
C17 C16 1.362 . S
C17 C18 1.366 1_544 S
C18 C15 1.365 . S
C18 C17 1.366 1_566 S
C18 H32 0.930 . S
C19 C16 1.378 . S
C19 N20 1.315 1_554 S
C19 H22 0.930 . S
N20 Co0 2.194 1_556 S
N20 C15 1.328 1_545 S
N20 C19 1.315 1_556 S
H21 C15 0.929 . S
H22 C19 0.930 . S
H23 C11 0.929 . S
H24 C13 0.929 . S
O25 Co0 2.351 1_566 S
O25 C28 1.244 . S
O26 Co0 2.155 1_566 S
O26 C28 1.240 . S
O27 Co0 2.096 . S
O27 C8 1.247 . S
C28 O25 1.244 . S
C28 O26 1.240 . S
H29 C3 0.931 . S
H30 C12 0.931 . S
H31 C16 0.929 . S
H32 C18 0.930 . S
Co33 N37 2.148 . S
Co33 N43 2.128 . S
Co33 N53 2.194 . S
Co33 O58 2.351 . S
Co33 O59 2.155 . S
Co33 O60 2.096 . S
C34 N37 1.301 . S
C34 N38 1.328 . S
C34 H39 0.930 . S
C35 C36 1.333 . S
C35 N37 1.317 . S
C35 H40 0.930 . S
C36 C35 1.333 . S
C36 N38 1.350 . S
C36 H62 0.931 . S
N37 Co33 2.148 . S
N37 C34 1.301 . S
N37 C35 1.317 . S
N38 C34 1.328 . S
N38 C36 1.350 . S
H39 C34 0.930 . S
H40 C35 0.930 . S
C41 O42 1.224 . S
C41 O60 1.247 . S
O42 C41 1.224 . S
N43 Co33 2.128 . S
N43 C44 1.355 . S
N43 C46 1.311 . S
C44 N43 1.355 . S
C44 C45 1.363 . S
C44 H56 0.929 . S
C45 C44 1.363 . S
C45 N47 1.375 . S
C45 H63 0.931 . S
C46 N43 1.311 . S
C46 N47 1.347 . S
C46 H57 0.929 . S
N47 C45 1.375 . S
N47 C46 1.347 . S
C48 C51 1.365 . S
C48 N53 1.328 . S
C48 H54 0.929 . S
C49 C50 1.362 . S
C49 C52 1.378 . S
C49 H64 0.929 . S
C50 C49 1.362 . S
C50 C51 1.366 . S
C51 C48 1.365 . S
C51 C50 1.366 . S
C51 H65 0.930 . S
C52 C49 1.378 . S
C52 N53 1.315 . S
C52 H55 0.930 . S
N53 Co33 2.194 . S
N53 C48 1.328 . S
N53 C52 1.315 . S
H54 C48 0.929 . S
H55 C52 0.930 . S
H56 C44 0.929 . S
H57 C46 0.929 . S
O58 Co33 2.351 . S
O58 C61 1.244 . S
O59 Co33 2.155 . S
O59 C61 1.240 . S
O60 Co33 2.096 . S
O60 C41 1.247 . S
C61 O58 1.244 . S
C61 O59 1.240 . S
H62 C36 0.931 . S
H63 C45 0.931 . S
H64 C49 0.929 . S
H65 C51 0.930 . S
Co66 N70 2.148 . S
Co66 N76 2.128 1_545 S
Co66 N86 2.194 . S
Co66 O91 2.351 1_545 S
Co66 O92 2.155 1_545 S
Co66 O93 2.096 . S
C67 N70 1.301 . S
C67 N71 1.328 . S
C67 H72 0.930 1_545 S
C68 C69 1.333 . S
C68 N70 1.317 . S
C68 H73 0.930 . S
C69 C68 1.333 . S
C69 N71 1.350 . S
C69 H95 0.931 . S
N70 Co66 2.148 . S
N70 C67 1.301 . S
N70 C68 1.317 . S
N71 C67 1.328 . S
N71 C69 1.350 . S
H72 C67 0.930 1_565 S
H73 C68 0.930 . S
C74 O75 1.224 . S
C74 O93 1.247 . S
O75 C74 1.224 . S
N76 Co66 2.128 1_565 S
N76 C77 1.355 . S
N76 C79 1.311 1_565 S
C77 N76 1.355 . S
C77 C78 1.363 . S
C77 H89 0.929 . S
C78 C77 1.363 . S
C78 N80 1.375 . S
C78 H96 0.931 . S
C79 N76 1.311 1_545 S
C79 N80 1.347 1_545 S
C79 H90 0.929 . S
N80 C78 1.375 . S
N80 C79 1.347 1_565 S
C81 C84 1.365 . S
C81 N86 1.328 1_565 S
C81 H87 0.929 . S
C82 C83 1.362 . S
C82 C85 1.378 . S
C82 H97 0.929 . S
C83 C82 1.362 . S
C83 C84 1.366 1_545 S
C84 C81 1.365 . S
C84 C83 1.366 1_565 S
C84 H98 0.930 . S
C85 C82 1.378 . S
C85 N86 1.315 . S
C85 H88 0.930 . S
N86 Co66 2.194 . S
N86 C81 1.328 1_545 S
N86 C85 1.315 . S
H87 C81 0.929 . S
H88 C85 0.930 . S
H89 C77 0.929 . S
H90 C79 0.929 . S
O91 Co66 2.351 1_565 S
O91 C94 1.244 . S
O92 Co66 2.155 1_565 S
O92 C94 1.240 . S
O93 Co66 2.096 . S
O93 C74 1.247 . S
C94 O91 1.244 . S
C94 O92 1.240 . S
H95 C69 0.931 . S
H96 C78 0.931 . S
H97 C82 0.929 . S
H98 C84 0.930 . S
Co99 N103 2.148 . S
Co99 N109 2.128 . S
Co99 N119 2.194 . S
Co99 O124 2.351 . S
Co99 O125 2.155 . S
Co99 O126 2.096 . S
C100 N103 1.301 . S
C100 N104 1.328 . S
C100 H105 0.930 . S
C101 C102 1.333 . S
C101 N103 1.317 . S
C101 H106 0.930 . S
C102 C101 1.333 . S
C102 N104 1.350 . S
C102 H128 0.931 . S
N103 Co99 2.148 . S
N103 C100 1.301 . S
N103 C101 1.317 . S
N104 C100 1.328 . S
N104 C102 1.350 . S
H105 C100 0.930 . S
H106 C101 0.930 . S
C107 O108 1.224 . S
C107 O126 1.247 . S
O108 C107 1.224 . S
N109 Co99 2.128 . S
N109 C110 1.355 . S
N109 C112 1.311 . S
C110 N109 1.355 . S
C110 C111 1.363 . S
C110 H122 0.929 . S
C111 C110 1.363 . S
C111 N113 1.375 . S
C111 H129 0.931 . S
C112 N109 1.311 . S
C112 N113 1.347 . S
C112 H123 0.929 . S
N113 C111 1.375 . S
N113 C112 1.347 . S
C114 C117 1.365 . S
C114 N119 1.328 . S
C114 H120 0.929 . S
C115 C116 1.362 . S
C115 C118 1.378 . S
C115 H130 0.929 . S
C116 C115 1.362 . S
C116 C117 1.366 . S
C117 C114 1.365 . S
C117 C116 1.366 . S
C117 H131 0.930 . S
C118 C115 1.378 . S
C118 N119 1.315 . S
C118 H121 0.930 . S
N119 Co99 2.194 . S
N119 C114 1.328 . S
N119 C118 1.315 . S
H120 C114 0.929 . S
H121 C118 0.930 . S
H122 C110 0.929 . S
H123 C112 0.929 . S
O124 Co99 2.351 . S
O124 C127 1.244 . S
O125 Co99 2.155 . S
O125 C127 1.240 . S
O126 Co99 2.096 . S
O126 C107 1.247 . S
C127 O124 1.244 . S
C127 O125 1.240 . S
H128 C102 0.931 . S
H129 C111 0.931 . S
H130 C115 0.929 . S
H131 C117 0.930 . S
Co132 N136 2.155 . S
Co132 N142 2.128 1_554 S
Co132 N152 2.194 . S
Co132 O157 2.351 . S
Co132 O158 2.155 . S
Co132 O159 2.096 1_544 S
C133 N136 1.312 . S
C133 N137 1.333 . S
C133 H138 0.930 . S
C134 C135 1.333 . S
C134 N136 1.297 1_565 S
C134 H139 0.930 . S
C135 C134 1.333 . S
C135 N137 1.343 1_565 S
C135 H161 0.931 . S
N136 Co132 2.155 . S
N136 C133 1.312 . S
N136 C134 1.297 1_545 S
N137 C133 1.333 . S
N137 C135 1.343 1_545 S
H138 C133 0.930 . S
H139 C134 0.930 . S
C140 O141 1.224 . S
C140 O159 1.247 . S
O141 C140 1.224 . S
N142 Co132 2.128 1_556 S
N142 C143 1.355 . S
N142 C145 1.311 . S
C143 N142 1.355 . S
C143 C144 1.363 . S
C143 H155 0.929 . S
C144 C143 1.363 . S
C144 N146 1.375 . S
C144 H162 0.931 . S
C145 N142 1.311 . S
C145 N146 1.347 . S
C145 H156 0.888 1_545 S
N146 C144 1.375 . S
N146 C145 1.347 . S
C147 C150 1.365 . S
C147 N152 1.328 . S
C147 H153 0.929 . S
C148 C149 1.362 1_566 S
C148 C151 1.378 . S
C148 H163 0.929 . S
C149 C148 1.362 1_544 S
C149 C150 1.366 . S
C150 C147 1.365 . S
C150 C149 1.366 . S
C150 H164 0.930 . S
C151 C148 1.378 . S
C151 N152 1.315 1_566 S
C151 H154 0.930 . S
N152 Co132 2.194 . S
N152 C147 1.328 . S
N152 C151 1.315 1_544 S
H153 C147 0.929 . S
H154 C151 0.930 . S
H155 C143 0.929 . S
H156 C145 0.888 1_565 S
O157 Co132 2.351 . S
O157 C160 1.244 . S
O158 Co132 2.155 . S
O158 C160 1.240 . S
O159 Co132 2.096 1_566 S
O159 C140 1.247 . S
C160 O157 1.244 . S
C160 O158 1.240 . S
H161 C135 0.931 . S
H162 C144 0.931 . S
H163 C148 0.929 . S
H164 C150 0.930 . S
Co165 N169 2.148 . S
Co165 N175 2.128 . S
Co165 N185 2.194 . S
Co165 O190 2.351 . S
Co165 O191 2.155 . S
Co165 O192 2.096 . S
C166 N169 1.301 . S
C166 N170 1.328 . S
C166 H171 0.930 . S
C167 C168 1.333 . S
C167 N169 1.317 . S
C167 H172 0.930 . S
C168 C167 1.333 . S
C168 N170 1.350 . S
C168 H194 0.931 . S
N169 Co165 2.148 . S
N169 C166 1.301 . S
N169 C167 1.317 . S
N170 C166 1.328 . S
N170 C168 1.350 . S
H171 C166 0.930 . S
H172 C167 0.930 . S
C173 O174 1.224 . S
C173 O192 1.247 . S
O174 C173 1.224 . S
N175 Co165 2.128 . S
N175 C176 1.355 . S
N175 C178 1.311 . S
C176 N175 1.355 . S
C176 C177 1.363 . S
C176 H188 0.929 . S
C177 C176 1.363 . S
C177 N179 1.375 . S
C177 H195 0.931 . S
C178 N175 1.311 . S
C178 N179 1.347 . S
C178 H189 0.929 . S
N179 C177 1.375 . S
N179 C178 1.347 . S
C180 C183 1.365 . S
C180 N185 1.328 . S
C180 H186 0.929 . S
C181 C182 1.362 . S
C181 C184 1.378 . S
C181 H196 0.929 . S
C182 C181 1.362 . S
C182 C183 1.366 . S
C183 C180 1.365 . S
C183 C182 1.366 . S
C183 H197 0.930 . S
C184 C181 1.378 . S
C184 N185 1.315 . S
C184 H187 0.930 . S
N185 Co165 2.194 . S
N185 C180 1.328 . S
N185 C184 1.315 . S
H186 C180 0.929 . S
H187 C184 0.930 . S
H188 C176 0.929 . S
H189 C178 0.929 . S
O190 Co165 2.351 . S
O190 C193 1.244 . S
O191 Co165 2.155 . S
O191 C193 1.240 . S
O192 Co165 2.096 . S
O192 C173 1.247 . S
C193 O190 1.244 . S
C193 O191 1.240 . S
H194 C168 0.931 . S
H195 C177 0.931 . S
H196 C181 0.929 . S
H197 C183 0.930 . S
Co198 N202 2.148 . S
Co198 N208 2.128 . S
Co198 N218 2.194 . S
Co198 O223 2.351 . S
Co198 O224 2.155 . S
Co198 O225 2.096 1_545 S
C199 N202 1.303 . S
C199 N203 1.322 1_545 S
C199 H204 0.930 . S
C200 C201 1.333 . S
C200 N202 1.315 1_565 S
C200 H205 0.930 . S
C201 C200 1.333 . S
C201 N203 1.362 . S
C201 H227 0.931 . S
N202 Co198 2.148 . S
N202 C199 1.303 . S
N202 C200 1.315 1_545 S
N203 C199 1.322 1_565 S
N203 C201 1.362 . S
H204 C199 0.930 . S
H205 C200 0.930 . S
C206 O207 1.224 . S
C206 O225 1.247 . S
O207 C206 1.224 . S
N208 Co198 2.128 . S
N208 C209 1.355 . S
N208 C211 1.311 . S
C209 N208 1.355 . S
C209 C210 1.363 . S
C209 H221 0.929 . S
C210 C209 1.363 . S
C210 N212 1.375 . S
C210 H228 0.931 . S
C211 N208 1.311 . S
C211 N212 1.347 . S
C211 H222 0.909 1_545 S
N212 C210 1.375 . S
N212 C211 1.347 . S
C213 C216 1.365 . S
C213 N218 1.328 . S
C213 H219 0.929 . S
C214 C215 1.362 1_565 S
C214 C217 1.378 . S
C214 H229 0.929 . S
C215 C214 1.362 1_545 S
C215 C216 1.366 . S
C216 C213 1.365 . S
C216 C215 1.366 . S
C216 H230 0.930 . S
C217 C214 1.378 . S
C217 N218 1.315 1_565 S
C217 H220 0.930 . S
N218 Co198 2.194 . S
N218 C213 1.328 . S
N218 C217 1.315 1_545 S
H219 C213 0.929 . S
H220 C217 0.930 . S
H221 C209 0.929 . S
H222 C211 0.909 1_565 S
O223 Co198 2.351 . S
O223 C226 1.244 . S
O224 Co198 2.155 . S
O224 C226 1.240 . S
O225 Co198 2.096 1_565 S
O225 C206 1.247 . S
C226 O223 1.244 . S
C226 O224 1.240 . S
H227 C201 0.931 . S
H228 C210 0.931 . S
H229 C214 0.929 . S
H230 C216 0.930 . S
Co231 N235 2.148 . S
Co231 N241 2.128 . S
Co231 N251 2.194 . S
Co231 O256 2.351 . S
Co231 O257 2.155 . S
Co231 O258 2.096 . S
C232 N235 1.301 . S
C232 N236 1.328 . S
C232 H237 0.930 . S
C233 C234 1.333 . S
C233 N235 1.317 . S
C233 H238 0.930 . S
C234 C233 1.333 . S
C234 N236 1.350 . S
C234 H260 0.931 . S
N235 Co231 2.148 . S
N235 C232 1.301 . S
N235 C233 1.317 . S
N236 C232 1.328 . S
N236 C234 1.350 . S
H237 C232 0.930 . S
H238 C233 0.930 . S
C239 O240 1.224 . S
C239 O258 1.247 . S
O240 C239 1.224 . S
N241 Co231 2.128 . S
N241 C242 1.355 . S
N241 C244 1.311 . S
C242 N241 1.355 . S
C242 C243 1.363 . S
C242 H254 0.929 . S
C243 C242 1.363 . S
C243 N245 1.375 . S
C243 H261 0.931 . S
C244 N241 1.311 . S
C244 N245 1.347 . S
C244 H255 0.929 . S
N245 C243 1.375 . S
N245 C244 1.347 . S
C246 C249 1.365 . S
C246 N251 1.328 . S
C246 H252 0.929 . S
C247 C248 1.362 . S
C247 C250 1.378 . S
C247 H262 0.929 . S
C248 C247 1.362 . S
C248 C249 1.366 . S
C249 C246 1.365 . S
C249 C248 1.366 . S
C249 H263 0.930 . S
C250 C247 1.378 . S
C250 N251 1.315 . S
C250 H253 0.930 . S
N251 Co231 2.194 . S
N251 C246 1.328 . S
N251 C250 1.315 . S
H252 C246 0.929 . S
H253 C250 0.930 . S
H254 C242 0.929 . S
H255 C244 0.929 . S
O256 Co231 2.351 . S
O256 C259 1.244 . S
O257 Co231 2.155 . S
O257 C259 1.240 . S
O258 Co231 2.096 . S
O258 C239 1.247 . S
C259 O256 1.244 . S
C259 O257 1.240 . S
H260 C234 0.931 . S
H261 C243 0.931 . S
H262 C247 0.929 . S
H263 C249 0.930 . S
Co264 N268 2.148 . S
Co264 N274 2.128 . S
Co264 N284 2.194 . S
Co264 O289 2.351 . S
Co264 O290 2.155 . S
Co264 O291 2.096 . S
C265 N268 1.301 . S
C265 N269 1.328 . S
C265 H270 0.930 . S
C266 C267 1.333 . S
C266 N268 1.317 . S
C266 H271 0.930 . S
C267 C266 1.333 . S
C267 N269 1.350 . S
C267 H293 0.931 . S
N268 Co264 2.148 . S
N268 C265 1.301 . S
N268 C266 1.317 . S
N269 C265 1.328 . S
N269 C267 1.350 . S
H270 C265 0.930 . S
H271 C266 0.930 . S
C272 O273 1.224 . S
C272 O291 1.247 . S
O273 C272 1.224 . S
N274 Co264 2.128 . S
N274 C275 1.355 . S
N274 C277 1.311 . S
C275 N274 1.355 . S
C275 C276 1.363 . S
C275 H287 0.929 . S
C276 C275 1.363 . S
C276 N278 1.375 . S
C276 H294 0.931 . S
C277 N274 1.311 . S
C277 N278 1.347 . S
C277 H288 0.929 . S
N278 C276 1.375 . S
N278 C277 1.347 . S
C279 C282 1.365 . S
C279 N284 1.328 . S
C279 H285 0.929 . S
C280 C281 1.362 . S
C280 C283 1.378 . S
C280 H295 0.929 . S
C281 C280 1.362 . S
C281 C282 1.366 . S
C282 C279 1.365 . S
C282 C281 1.366 . S
C282 H296 0.930 . S
C283 C280 1.378 . S
C283 N284 1.315 . S
C283 H286 0.930 . S
N284 Co264 2.194 . S
N284 C279 1.328 . S
N284 C283 1.315 . S
H285 C279 0.929 . S
H286 C283 0.930 . S
H287 C275 0.929 . S
H288 C277 0.929 . S
O289 Co264 2.351 . S
O289 C292 1.244 . S
O290 Co264 2.155 . S
O290 C292 1.240 . S
O291 Co264 2.096 . S
O291 C272 1.247 . S
C292 O289 1.244 . S
C292 O290 1.240 . S
H293 C267 0.931 . S
H294 C276 0.931 . S
H295 C280 0.929 . S
H296 C282 0.930 . S
Co297 N301 2.148 . S
Co297 N307 2.128 . S
Co297 N317 2.194 . S
Co297 O322 2.351 . S
Co297 O323 2.155 . S
Co297 O324 2.096 . S
C298 N301 1.301 . S
C298 N302 1.328 . S
C298 H303 0.930 . S
C299 C300 1.333 . S
C299 N301 1.317 . S
C299 H304 0.930 . S
C300 C299 1.333 . S
C300 N302 1.350 . S
C300 H326 0.931 . S
N301 Co297 2.148 . S
N301 C298 1.301 . S
N301 C299 1.317 . S
N302 C298 1.328 . S
N302 C300 1.350 . S
H303 C298 0.930 . S
H304 C299 0.930 . S
C305 O306 1.224 . S
C305 O324 1.247 . S
O306 C305 1.224 . S
N307 Co297 2.128 . S
N307 C308 1.355 . S
N307 C310 1.311 . S
C308 N307 1.355 . S
C308 C309 1.363 . S
C308 H320 0.929 . S
C309 C308 1.363 . S
C309 N311 1.375 . S
C309 H327 0.931 . S
C310 N307 1.311 . S
C310 N311 1.347 . S
C310 H321 0.929 . S
N311 C309 1.375 . S
N311 C310 1.347 . S
C312 C315 1.365 . S
C312 N317 1.328 . S
C312 H318 0.929 . S
C313 C314 1.362 . S
C313 C316 1.378 . S
C313 H328 0.929 . S
C314 C313 1.362 . S
C314 C315 1.366 . S
C315 C312 1.365 . S
C315 C314 1.366 . S
C315 H329 0.930 . S
C316 C313 1.378 . S
C316 N317 1.315 . S
C316 H319 0.930 . S
N317 Co297 2.194 . S
N317 C312 1.328 . S
N317 C316 1.315 . S
H318 C312 0.929 . S
H319 C316 0.930 . S
H320 C308 0.929 . S
H321 C310 0.929 . S
O322 Co297 2.351 . S
O322 C325 1.244 . S
O323 Co297 2.155 . S
O323 C325 1.240 . S
O324 Co297 2.096 . S
O324 C305 1.247 . S
C325 O322 1.244 . S
C325 O323 1.240 . S
H326 C300 0.931 . S
H327 C309 0.931 . S
H328 C313 0.929 . S
H329 C315 0.930 . S
Co330 N334 2.148 . S
Co330 N340 2.128 1_554 S
Co330 N350 2.194 . S
Co330 O355 2.351 . S
Co330 O356 2.155 . S
Co330 O357 2.096 1_554 S
C331 N334 1.301 . S
C331 N335 1.328 . S
C331 H336 0.930 . S
C332 C333 1.333 . S
C332 N334 1.317 . S
C332 H337 0.930 . S
C333 C332 1.333 . S
C333 N335 1.350 . S
C333 H359 0.931 . S
N334 Co330 2.148 . S
N334 C331 1.301 . S
N334 C332 1.317 . S
N335 C331 1.328 . S
N335 C333 1.350 . S
H336 C331 0.930 . S
H337 C332 0.930 . S
C338 O339 1.224 . S
C338 O357 1.247 . S
O339 C338 1.224 . S
N340 Co330 2.128 1_556 S
N340 C341 1.355 . S
N340 C343 1.311 . S
C341 N340 1.355 . S
C341 C342 1.363 . S
C341 H353 0.929 . S
C342 C341 1.363 . S
C342 N344 1.375 . S
C342 H360 0.931 . S
C343 N340 1.311 . S
C343 N344 1.347 . S
C343 H354 0.929 . S
N344 C342 1.375 . S
N344 C343 1.347 . S
C345 C348 1.365 . S
C345 N350 1.328 . S
C345 H351 0.929 . S
C346 C347 1.362 1_556 S
C346 C349 1.378 . S
C346 H361 0.929 . S
C347 C346 1.362 1_554 S
C347 C348 1.366 . S
C348 C345 1.365 . S
C348 C347 1.366 . S
C348 H362 0.930 . S
C349 C346 1.378 . S
C349 N350 1.315 1_556 S
C349 H352 0.930 . S
N350 Co330 2.194 . S
N350 C345 1.328 . S
N350 C349 1.315 1_554 S
H351 C345 0.929 . S
H352 C349 0.930 . S
H353 C341 0.929 . S
H354 C343 0.929 . S
O355 Co330 2.351 . S
O355 C358 1.244 . S
O356 Co330 2.155 . S
O356 C358 1.240 . S
O357 Co330 2.096 1_556 S
O357 C338 1.247 . S
C358 O355 1.244 . S
C358 O356 1.240 . S
H359 C333 0.931 . S
H360 C342 0.931 . S
H361 C346 0.929 . S
H362 C348 0.930 . S
Co363 N367 2.148 . S
Co363 N373 2.128 . S
Co363 N383 2.194 . S
Co363 O388 2.351 . S
Co363 O389 2.155 . S
Co363 O390 2.096 . S
C364 N367 1.301 . S
C364 N368 1.328 . S
C364 H369 0.930 . S
C365 C366 1.333 . S
C365 N367 1.317 . S
C365 H370 0.930 . S
C366 C365 1.333 . S
C366 N368 1.350 . S
C366 H392 0.931 . S
N367 Co363 2.148 . S
N367 C364 1.301 . S
N367 C365 1.317 . S
N368 C364 1.328 . S
N368 C366 1.350 . S
H369 C364 0.930 . S
H370 C365 0.930 . S
C371 O372 1.224 . S
C371 O390 1.247 . S
O372 C371 1.224 . S
N373 Co363 2.128 . S
N373 C374 1.355 . S
N373 C376 1.311 . S
C374 N373 1.355 . S
C374 C375 1.363 . S
C374 H386 0.929 . S
C375 C374 1.363 . S
C375 N377 1.375 . S
C375 H393 0.931 . S
C376 N373 1.311 . S
C376 N377 1.347 . S
C376 H387 0.929 . S
N377 C375 1.375 . S
N377 C376 1.347 . S
C378 C381 1.365 . S
C378 N383 1.328 . S
C378 H384 0.929 . S
C379 C380 1.362 . S
C379 C382 1.378 . S
C379 H394 0.929 . S
C380 C379 1.362 . S
C380 C381 1.366 . S
C381 C378 1.365 . S
C381 C380 1.366 . S
C381 H395 0.930 . S
C382 C379 1.378 . S
C382 N383 1.315 . S
C382 H385 0.930 . S
N383 Co363 2.194 . S
N383 C378 1.328 . S
N383 C382 1.315 . S
H384 C378 0.929 . S
H385 C382 0.930 . S
H386 C374 0.929 . S
H387 C376 0.929 . S
O388 Co363 2.351 . S
O388 C391 1.244 . S
O389 Co363 2.155 . S
O389 C391 1.240 . S
O390 Co363 2.096 . S
O390 C371 1.247 . S
C391 O388 1.244 . S
C391 O389 1.240 . S
H392 C366 0.931 . S
H393 C375 0.931 . S
H394 C379 0.929 . S
H395 C381 0.930 . S
Co396 N400 2.148 . S
Co396 N406 2.128 . S
Co396 N416 2.194 . S
Co396 O421 2.351 . S
Co396 O422 2.155 . S
Co396 O423 2.096 . S
C397 N400 1.301 . S
C397 N401 1.328 . S
C397 H402 0.930 . S
C398 C399 1.333 . S
C398 N400 1.317 . S
C398 H403 0.930 . S
C399 C398 1.333 . S
C399 N401 1.350 . S
C399 H425 0.931 . S
N400 Co396 2.148 . S
N400 C397 1.301 . S
N400 C398 1.317 . S
N401 C397 1.328 . S
N401 C399 1.350 . S
H402 C397 0.930 . S
H403 C398 0.930 . S
C404 O405 1.224 . S
C404 O423 1.247 . S
O405 C404 1.224 . S
N406 Co396 2.128 . S
N406 C407 1.355 . S
N406 C409 1.311 . S
C407 N406 1.355 . S
C407 C408 1.363 . S
C407 H419 0.929 . S
C408 C407 1.363 . S
C408 N410 1.375 . S
C408 H426 0.931 . S
C409 N406 1.311 . S
C409 N410 1.347 . S
C409 H420 0.929 . S
N410 C408 1.375 . S
N410 C409 1.347 . S
C411 C414 1.365 . S
C411 N416 1.328 . S
C411 H417 0.929 . S
C412 C413 1.362 . S
C412 C415 1.378 . S
C412 H427 0.929 . S
C413 C412 1.362 . S
C413 C414 1.366 . S
C414 C411 1.365 . S
C414 C413 1.366 . S
C414 H428 0.930 . S
C415 C412 1.378 . S
C415 N416 1.315 . S
C415 H418 0.930 . S
N416 Co396 2.194 . S
N416 C411 1.328 . S
N416 C415 1.315 . S
H417 C411 0.929 . S
H418 C415 0.930 . S
H419 C407 0.929 . S
H420 C409 0.929 . S
O421 Co396 2.351 . S
O421 C424 1.244 . S
O422 Co396 2.155 . S
O422 C424 1.240 . S
O423 Co396 2.096 . S
O423 C404 1.247 . S
C424 O421 1.244 . S
C424 O422 1.240 . S
H425 C399 0.931 . S
H426 C408 0.931 . S
H427 C412 0.929 . S
H428 C414 0.930 . S
Co429 N433 2.148 . S
Co429 N439 2.128 . S
Co429 N449 2.194 . S
Co429 O454 2.351 . S
Co429 O455 2.155 . S
Co429 O456 2.096 . S
C430 N433 1.301 . S
C430 N434 1.328 . S
C430 H435 0.930 . S
C431 C432 1.333 . S
C431 N433 1.317 . S
C431 H436 0.930 . S
C432 C431 1.333 . S
C432 N434 1.350 . S
C432 H458 0.931 . S
N433 Co429 2.148 . S
N433 C430 1.301 . S
N433 C431 1.317 . S
N434 C430 1.328 . S
N434 C432 1.350 . S
H435 C430 0.930 . S
H436 C431 0.930 . S
C437 O438 1.224 . S
C437 O456 1.247 . S
O438 C437 1.224 . S
N439 Co429 2.128 . S
N439 C440 1.355 . S
N439 C442 1.311 . S
C440 N439 1.355 . S
C440 C441 1.363 . S
C440 H452 0.929 . S
C441 C440 1.363 . S
C441 N443 1.375 . S
C441 H459 0.931 . S
C442 N439 1.311 . S
C442 N443 1.347 . S
C442 H453 0.929 . S
N443 C441 1.375 . S
N443 C442 1.347 . S
C444 C447 1.365 . S
C444 N449 1.328 . S
C444 H450 0.929 . S
C445 C446 1.362 . S
C445 C448 1.378 . S
C445 H460 0.929 . S
C446 C445 1.362 . S
C446 C447 1.366 . S
C447 C444 1.365 . S
C447 C446 1.366 . S
C447 H461 0.930 . S
C448 C445 1.378 . S
C448 N449 1.315 . S
C448 H451 0.930 . S
N449 Co429 2.194 . S
N449 C444 1.328 . S
N449 C448 1.315 . S
H450 C444 0.929 . S
H451 C448 0.930 . S
H452 C440 0.929 . S
H453 C442 0.929 . S
O454 Co429 2.351 . S
O454 C457 1.244 . S
O455 Co429 2.155 . S
O455 C457 1.240 . S
O456 Co429 2.096 . S
O456 C437 1.247 . S
C457 O454 1.244 . S
C457 O455 1.240 . S
H458 C432 0.931 . S
H459 C441 0.931 . S
H460 C445 0.929 . S
H461 C447 0.930 . S
Co462 N466 2.148 1_554 S
Co462 N472 2.128 . S
Co462 N482 2.194 1_554 S
Co462 O487 2.351 1_554 S
Co462 O488 2.155 1_554 S
Co462 O489 2.096 . S
C463 N466 1.301 . S
C463 N467 1.328 . S
C463 H468 0.930 . S
C464 C465 1.333 . S
C464 N466 1.317 . S
C464 H469 0.930 . S
C465 C464 1.333 . S
C465 N467 1.350 . S
C465 H491 0.931 . S
N466 Co462 2.148 1_556 S
N466 C463 1.301 . S
N466 C464 1.317 . S
N467 C463 1.328 . S
N467 C465 1.350 . S
H468 C463 0.930 . S
H469 C464 0.930 . S
C470 O471 1.224 . S
C470 O489 1.247 . S
O471 C470 1.224 . S
N472 Co462 2.128 . S
N472 C473 1.355 . S
N472 C475 1.311 . S
C473 N472 1.355 . S
C473 C474 1.363 . S
C473 H485 0.929 . S
C474 C473 1.363 . S
C474 N476 1.375 . S
C474 H492 0.931 . S
C475 N472 1.311 . S
C475 N476 1.347 . S
C475 H486 0.929 . S
N476 C474 1.375 . S
N476 C475 1.347 . S
C477 C480 1.365 . S
C477 N482 1.328 . S
C477 H483 0.929 . S
C478 C479 1.362 . S
C478 C481 1.378 . S
C478 H493 0.929 . S
C479 C478 1.362 . S
C479 C480 1.366 1_554 S
C480 C477 1.365 . S
C480 C479 1.366 1_556 S
C480 H494 0.930 . S
C481 C478 1.378 . S
C481 N482 1.315 1_554 S
C481 H484 0.930 . S
N482 Co462 2.194 1_556 S
N482 C477 1.328 . S
N482 C481 1.315 1_556 S
H483 C477 0.929 . S
H484 C481 0.930 . S
H485 C473 0.929 . S
H486 C475 0.929 . S
O487 Co462 2.351 1_556 S
O487 C490 1.244 . S
O488 Co462 2.155 1_556 S
O488 C490 1.240 . S
O489 Co462 2.096 . S
O489 C470 1.247 . S
C490 O487 1.244 . S
C490 O488 1.240 . S
H491 C465 0.931 . S
H492 C474 0.931 . S
H493 C478 0.929 . S
H494 C480 0.930 . S
Co495 N499 2.148 . S
Co495 N505 2.128 . S
Co495 N515 2.194 . S
Co495 O520 2.351 . S
Co495 O521 2.155 . S
Co495 O522 2.096 . S
C496 N499 1.301 . S
C496 N500 1.328 . S
C496 H501 0.930 . S
C497 C498 1.333 . S
C497 N499 1.317 . S
C497 H502 0.930 . S
C498 C497 1.333 . S
C498 N500 1.350 . S
C498 H524 0.931 . S
N499 Co495 2.148 . S
N499 C496 1.301 . S
N499 C497 1.317 . S
N500 C496 1.328 . S
N500 C498 1.350 . S
H501 C496 0.930 . S
H502 C497 0.930 . S
C503 O504 1.224 . S
C503 O522 1.247 . S
O504 C503 1.224 . S
N505 Co495 2.128 . S
N505 C506 1.355 . S
N505 C508 1.311 . S
C506 N505 1.355 . S
C506 C507 1.363 . S
C506 H518 0.929 . S
C507 C506 1.363 . S
C507 N509 1.375 . S
C507 H525 0.931 . S
C508 N505 1.311 . S
C508 N509 1.347 . S
C508 H519 0.929 . S
N509 C507 1.375 . S
N509 C508 1.347 . S
C510 C513 1.365 . S
C510 N515 1.328 . S
C510 H516 0.929 . S
C511 C512 1.362 . S
C511 C514 1.378 . S
C511 H526 0.929 . S
C512 C511 1.362 . S
C512 C513 1.366 . S
C513 C510 1.365 . S
C513 C512 1.366 . S
C513 H527 0.930 . S
C514 C511 1.378 . S
C514 N515 1.315 . S
C514 H517 0.930 . S
N515 Co495 2.194 . S
N515 C510 1.328 . S
N515 C514 1.315 . S
H516 C510 0.929 . S
H517 C514 0.930 . S
H518 C506 0.929 . S
H519 C508 0.929 . S
O520 Co495 2.351 . S
O520 C523 1.244 . S
O521 Co495 2.155 . S
O521 C523 1.240 . S
O522 Co495 2.096 . S
O522 C503 1.247 . S
C523 O520 1.244 . S
C523 O521 1.240 . S
H524 C498 0.931 . S
H525 C507 0.931 . S
H526 C511 0.929 . S
H527 C513 0.930 . S
H528 C536 0.929 . S
H529 C538 0.930 . S
H530 C540 0.930 . S
H531 C543 0.929 . S
H532 C546 0.930 . S
H533 C548 0.960 . S
H534 C548 0.960 . S
H535 C548 0.960 . S
C536 H528 0.929 . S
C536 C537 1.377 . S
C536 C538 1.384 . S
C537 C536 1.377 . S
C537 C543 1.390 . S
C538 H529 0.930 . S
C538 C536 1.384 . S
C538 C539 1.372 . S
C539 C538 1.372 . S
C539 C540 1.400 . S
C539 C544 1.490 . S
C540 H530 0.930 . S
C540 C539 1.400 . S
C540 C543 1.386 . S
H541 C557 0.935 . S
H542 C558 0.931 . S
C543 H531 0.929 . S
C543 C537 1.390 . S
C543 C540 1.386 . S
C544 C539 1.490 . S
C544 C546 1.395 1_545 S
C544 C547 1.403 . S
H545 C551 0.930 . S
C546 H532 0.930 . S
C546 C544 1.395 1_565 S
C546 C549 1.403 . S
C547 C544 1.403 . S
C547 C548 1.524 . S
C547 C551 1.400 . S
C548 H533 0.960 . S
C548 H534 0.960 . S
C548 H535 0.960 . S
C548 C547 1.524 . S
C549 C546 1.403 . S
C549 C550 1.392 1_565 S
C549 C553 1.495 . S
C550 C549 1.392 1_545 S
C550 C551 1.385 . S
C550 C552 1.480 . S
C551 H545 0.930 . S
C551 C547 1.400 . S
C551 C550 1.385 . S
C552 C550 1.480 . S
C552 C554 1.381 . S
C552 C558 1.382 . S
C553 C549 1.495 . S
C553 H559 0.959 . S
C553 H560 0.961 . S
C553 H561 0.960 . S
C554 C552 1.381 . S
C554 C555 1.394 . S
C554 H562 0.929 . S
C555 C554 1.394 . S
C555 C556 1.383 . S
C555 H563 0.929 . S
C556 C555 1.383 . S
C556 C557 1.377 . S
C557 H541 0.935 . S
C557 C556 1.377 . S
C557 C558 1.379 . S
C558 H542 0.931 . S
C558 C552 1.382 . S
C558 C557 1.379 . S
H559 C553 0.959 . S
H560 C553 0.961 . S
H561 C553 0.960 . S
H562 C554 0.929 . S
H563 C555 0.929 . S
H564 C572 0.929 1_554 S
H565 C574 0.930 . S
H566 C576 0.930 . S
H567 C579 0.929 . S
H568 C582 0.930 . S
H569 C584 0.960 . S
H570 C584 0.960 . S
H571 C584 0.960 . S
C572 H564 0.929 1_556 S
C572 C573 1.377 1_556 S
C572 C574 1.384 . S
C573 C572 1.377 1_554 S
C573 C579 1.390 1_554 S
C574 H565 0.930 . S
C574 C572 1.384 . S
C574 C575 1.372 . S
C575 C574 1.372 . S
C575 C576 1.400 . S
C575 C580 1.490 . S
C576 H566 0.930 . S
C576 C575 1.400 . S
C576 C579 1.386 . S
H577 C593 0.930 . S
H578 C594 0.931 . S
C579 H567 0.929 . S
C579 C573 1.390 1_556 S
C579 C576 1.386 . S
C580 C575 1.490 . S
C580 C582 1.395 . S
C580 C583 1.403 . S
H581 C587 0.930 . S
C582 H568 0.930 . S
C582 C580 1.395 . S
C582 C585 1.403 . S
C583 C580 1.403 . S
C583 C584 1.524 . S
C583 C587 1.400 . S
C584 H569 0.960 . S
C584 H570 0.960 . S
C584 H571 0.960 . S
C584 C583 1.524 . S
C585 C582 1.403 . S
C585 C586 1.392 . S
C585 C589 1.495 . S
C586 C585 1.392 . S
C586 C587 1.385 . S
C586 C588 1.478 . S
C587 H581 0.930 . S
C587 C583 1.400 . S
C587 C586 1.385 . S
C588 C586 1.478 . S
C588 C590 1.381 . S
C588 C594 1.383 . S
C589 C585 1.495 . S
C589 H595 0.959 . S
C589 H596 0.961 . S
C589 H597 0.960 . S
C590 C588 1.381 . S
C590 C591 1.394 . S
C590 H598 0.930 . S
C591 C590 1.394 . S
C591 C592 1.383 . S
C591 H599 0.929 . S
C592 C591 1.383 . S
C592 C593 1.377 . S
C593 H577 0.930 . S
C593 C592 1.377 . S
C593 C594 1.379 . S
C594 H578 0.931 . S
C594 C588 1.383 . S
C594 C593 1.379 . S
H595 C589 0.959 . S
H596 C589 0.961 . S
H597 C589 0.960 . S
H598 C590 0.930 . S
H599 C591 0.929 . S
H600 C608 0.929 . S
H601 C610 0.930 . S
H602 C612 0.930 . S
H603 C615 0.929 . S
H604 C618 0.930 . S
H605 C620 0.960 . S
H606 C620 0.960 . S
H607 C620 0.960 . S
C608 H600 0.929 . S
C608 C609 1.377 1_565 S
C608 C610 1.384 . S
C609 C608 1.377 1_545 S
C609 C615 1.390 . S
C610 H601 0.930 . S
C610 C608 1.384 . S
C610 C611 1.372 1_565 S
C611 C610 1.372 1_545 S
C611 C612 1.400 . S
C611 C616 1.490 . S
C612 H602 0.930 . S
C612 C611 1.400 . S
C612 C615 1.386 . S
H613 C629 0.930 . S
H614 C630 0.931 . S
C615 H603 0.929 . S
C615 C609 1.390 . S
C615 C612 1.386 . S
C616 C611 1.490 . S
C616 C618 1.395 1_545 S
C616 C619 1.403 . S
H617 C623 0.930 . S
C618 H604 0.930 . S
C618 C616 1.395 1_565 S
C618 C621 1.403 1_554 S
C619 C616 1.403 . S
C619 C620 1.524 . S
C619 C623 1.400 1_554 S
C620 H605 0.960 . S
C620 H606 0.960 . S
C620 H607 0.960 . S
C620 C619 1.524 . S
C621 C618 1.403 1_556 S
C621 C622 1.392 1_565 S
C621 C625 1.495 . S
C622 C621 1.392 1_545 S
C622 C623 1.385 . S
C622 C624 1.478 . S
C623 H617 0.930 . S
C623 C619 1.400 1_556 S
C623 C622 1.385 . S
C624 C622 1.478 . S
C624 C626 1.381 1_545 S
C624 C630 1.383 . S
C625 C621 1.495 . S
C625 H631 0.959 . S
C625 H632 0.961 . S
C625 H633 0.960 . S
C626 C624 1.381 1_565 S
C626 C627 1.394 . S
C626 H634 0.930 . S
C627 C626 1.394 . S
C627 C628 1.383 1_565 S
C627 H635 0.929 . S
C628 C627 1.383 1_545 S
C628 C629 1.377 . S
C629 H613 0.930 . S
C629 C628 1.377 . S
C629 C630 1.379 . S
C630 H614 0.931 . S
C630 C624 1.383 . S
C630 C629 1.379 . S
H631 C625 0.959 . S
H632 C625 0.961 . S
H633 C625 0.960 . S
H634 C626 0.930 . S
H635 C627 0.929 . S
H636 C644 0.929 . S
H637 C646 0.930 . S
H638 C648 0.930 . S
H639 C651 0.929 . S
H640 C654 0.930 . S
H641 C656 0.960 . S
H642 C656 0.960 . S
H643 C656 0.960 . S
C644 H636 0.929 . S
C644 C645 1.377 . S
C644 C646 1.384 . S
C645 C644 1.377 . S
C645 C651 1.390 . S
C646 H637 0.930 . S
C646 C644 1.384 . S
C646 C647 1.372 . S
C647 C646 1.372 . S
C647 C648 1.400 . S
C647 C652 1.490 . S
C648 H638 0.930 . S
C648 C647 1.400 . S
C648 C651 1.386 . S
H649 C665 0.930 . S
H650 C666 0.931 . S
C651 H639 0.929 . S
C651 C645 1.390 . S
C651 C648 1.386 . S
C652 C647 1.490 . S
C652 C654 1.395 . S
C652 C655 1.403 . S
H653 C659 0.930 . S
C654 H640 0.930 . S
C654 C652 1.395 . S
C654 C657 1.403 . S
C655 C652 1.403 . S
C655 C656 1.524 . S
C655 C659 1.400 . S
C656 H641 0.960 . S
C656 H642 0.960 . S
C656 H643 0.960 . S
C656 C655 1.524 . S
C657 C654 1.403 . S
C657 C658 1.392 . S
C657 C661 1.495 . S
C658 C657 1.392 . S
C658 C659 1.385 . S
C658 C660 1.478 . S
C659 H653 0.930 . S
C659 C655 1.400 . S
C659 C658 1.385 . S
C660 C658 1.478 . S
C660 C662 1.381 . S
C660 C666 1.383 . S
C661 C657 1.495 . S
C661 H667 0.959 . S
C661 H668 0.961 . S
C661 H669 0.960 . S
C662 C660 1.381 . S
C662 C663 1.394 . S
C662 H670 0.930 . S
C663 C662 1.394 . S
C663 C664 1.388 . S
C663 H671 0.929 . S
C664 C663 1.388 . S
C664 C665 1.382 . S
C665 H649 0.930 . S
C665 C664 1.382 . S
C665 C666 1.379 . S
C666 H650 0.931 . S
C666 C660 1.383 . S
C666 C665 1.379 . S
H667 C661 0.959 . S
H668 C661 0.961 . S
H669 C661 0.960 . S
H670 C662 0.930 . S
H671 C663 0.929 . S
H672 C680 0.929 . S
H673 C682 0.930 . S
H674 C684 0.930 . S
H675 C687 0.929 . S
H676 C690 0.930 . S
H677 C692 0.960 . S
H678 C692 0.960 . S
H679 C692 0.960 . S
C680 H672 0.929 . S
C680 C681 1.377 1_565 S
C680 C682 1.384 . S
C681 C680 1.377 1_545 S
C681 C687 1.390 . S
C682 H673 0.930 . S
C682 C680 1.384 . S
C682 C683 1.372 1_565 S
C683 C682 1.372 1_545 S
C683 C684 1.400 . S
C683 C688 1.490 . S
C684 H674 0.930 . S
C684 C683 1.400 . S
C684 C687 1.386 . S
H685 C701 0.930 . S
H686 C702 0.931 . S
C687 H675 0.929 . S
C687 C681 1.390 . S
C687 C684 1.386 . S
C688 C683 1.490 . S
C688 C690 1.395 1_545 S
C688 C691 1.403 . S
H689 C695 0.930 . S
C690 H676 0.930 . S
C690 C688 1.395 1_565 S
C690 C693 1.403 . S
C691 C688 1.403 . S
C691 C692 1.524 . S
C691 C695 1.400 . S
C692 H677 0.960 . S
C692 H678 0.960 . S
C692 H679 0.960 . S
C692 C691 1.524 . S
C693 C690 1.403 . S
C693 C694 1.392 1_565 S
C693 C697 1.495 . S
C694 C693 1.392 1_545 S
C694 C695 1.385 . S
C694 C696 1.478 . S
C695 H689 0.930 . S
C695 C691 1.400 . S
C695 C694 1.385 . S
C696 C694 1.478 . S
C696 C698 1.381 1_545 S
C696 C702 1.383 . S
C697 C693 1.495 . S
C697 H703 0.959 . S
C697 H704 0.961 . S
C697 H705 0.960 . S
C698 C696 1.381 1_565 S
C698 C699 1.394 . S
C698 H706 0.930 . S
C699 C698 1.394 . S
C699 C700 1.383 1_565 S
C699 H707 0.929 . S
C700 C699 1.383 1_545 S
C700 C701 1.377 . S
C701 H685 0.930 . S
C701 C700 1.377 . S
C701 C702 1.379 . S
C702 H686 0.931 . S
C702 C696 1.383 . S
C702 C701 1.379 . S
H703 C697 0.959 . S
H704 C697 0.961 . S
H705 C697 0.960 . S
H706 C698 0.930 . S
H707 C699 0.929 . S
H708 C716 0.929 . S
H709 C718 0.930 . S
H710 C720 0.930 . S
H711 C723 0.929 . S
H712 C726 0.930 . S
H713 C728 0.960 . S
H714 C728 0.960 . S
H715 C728 0.960 . S
C716 H708 0.929 . S
C716 C717 1.377 . S
C716 C718 1.384 . S
C717 C716 1.377 . S
C717 C723 1.390 . S
C718 H709 0.930 . S
C718 C716 1.384 . S
C718 C719 1.372 . S
C719 C718 1.372 . S
C719 C720 1.400 . S
C719 C724 1.490 . S
C720 H710 0.930 . S
C720 C719 1.400 . S
C720 C723 1.386 . S
H721 C737 0.930 . S
H722 C738 0.931 . S
C723 H711 0.929 . S
C723 C717 1.390 . S
C723 C720 1.386 . S
C724 C719 1.490 . S
C724 C726 1.395 . S
C724 C727 1.403 . S
H725 C731 0.930 . S
C726 H712 0.930 . S
C726 C724 1.395 . S
C726 C729 1.403 . S
C727 C724 1.403 . S
C727 C728 1.524 . S
C727 C731 1.400 . S
C728 H713 0.960 . S
C728 H714 0.960 . S
C728 H715 0.960 . S
C728 C727 1.524 . S
C729 C726 1.403 . S
C729 C730 1.392 . S
C729 C733 1.495 . S
C730 C729 1.392 . S
C730 C731 1.385 . S
C730 C732 1.478 . S
C731 H725 0.930 . S
C731 C727 1.400 . S
C731 C730 1.385 . S
C732 C730 1.478 . S
C732 C734 1.381 . S
C732 C738 1.383 . S
C733 C729 1.495 . S
C733 H739 0.959 . S
C733 H740 0.961 . S
C733 H741 0.960 . S
C734 C732 1.381 . S
C734 C735 1.394 . S
C734 H742 0.930 . S
C735 C734 1.394 . S
C735 C736 1.383 . S
C735 H743 0.929 . S
C736 C735 1.383 . S
C736 C737 1.377 . S
C737 H721 0.930 . S
C737 C736 1.377 . S
C737 C738 1.379 . S
C738 H722 0.931 . S
C738 C732 1.383 . S
C738 C737 1.379 . S
H739 C733 0.959 . S
H740 C733 0.961 . S
H741 C733 0.960 . S
H742 C734 0.930 . S
H743 C735 0.929 . S
H744 C752 0.929 . S
H745 C754 0.930 . S
H746 C756 0.930 . S
H747 C759 0.929 . S
H748 C762 0.930 . S
H749 C764 0.960 . S
H750 C764 0.960 . S
H751 C764 0.980 . S
C752 H744 0.929 . S
C752 C753 1.377 1_565 S
C752 C754 1.384 . S
C753 C752 1.377 1_545 S
C753 C759 1.390 . S
C754 H745 0.930 . S
C754 C752 1.384 . S
C754 C755 1.372 1_565 S
C755 C754 1.372 1_545 S
C755 C756 1.400 . S
C755 C760 1.490 . S
C756 H746 0.930 . S
C756 C755 1.400 . S
C756 C759 1.386 . S
H757 C773 0.930 . S
H758 C774 0.931 . S
C759 H747 0.929 . S
C759 C753 1.390 . S
C759 C756 1.386 . S
C760 C755 1.490 . S
C760 C762 1.395 . S
C760 C763 1.405 1_545 S
H761 C767 0.911 1_565 S
C762 H748 0.930 . S
C762 C760 1.395 . S
C762 C765 1.403 1_554 S
C763 C760 1.405 1_565 S
C763 C764 1.520 . S
C763 C767 1.401 1_564 S
C764 H749 0.960 . S
C764 H750 0.960 . S
C764 H751 0.980 . S
C764 C763 1.520 . S
C765 C762 1.403 1_556 S
C765 C766 1.392 . S
C765 C769 1.495 . S
C766 C765 1.392 . S
C766 C767 1.385 . S
C766 C768 1.478 . S
C767 H761 0.911 1_545 S
C767 C763 1.401 1_546 S
C767 C766 1.385 . S
C768 C766 1.478 . S
C768 C770 1.383 . S
C768 C774 1.383 . S
C769 C765 1.495 . S
C769 H775 0.959 . S
C769 H776 0.961 . S
C769 H777 0.960 . S
C770 C768 1.383 . S
C770 C771 1.393 . S
C770 H778 0.928 1_545 S
C771 C770 1.393 . S
C771 C772 1.409 . S
C771 H779 0.906 1_545 S
C772 C771 1.409 . S
C772 C773 1.377 . S
C773 H757 0.930 . S
C773 C772 1.377 . S
C773 C774 1.379 . S
C774 H758 0.931 . S
C774 C768 1.383 . S
C774 C773 1.379 . S
H775 C769 0.959 . S
H776 C769 0.961 . S
H777 C769 0.960 . S
H778 C770 0.928 1_565 S
H779 C771 0.906 1_565 S
H780 C788 0.929 . S
H781 C790 0.930 . S
H782 C792 0.930 . S
H783 C795 0.929 . S
H784 C798 0.930 . S
H785 C800 0.960 . S
H786 C800 0.960 . S
H787 C800 0.960 . S
C788 H780 0.929 . S
C788 C789 1.377 . S
C788 C790 1.384 . S
C789 C788 1.377 . S
C789 C795 1.390 . S
C790 H781 0.930 . S
C790 C788 1.384 . S
C790 C791 1.372 . S
C791 C790 1.372 . S
C791 C792 1.400 . S
C791 C796 1.490 . S
C792 H782 0.930 . S
C792 C791 1.400 . S
C792 C795 1.386 . S
H793 C809 0.930 . S
H794 C810 0.931 . S
C795 H783 0.929 . S
C795 C789 1.390 . S
C795 C792 1.386 . S
C796 C791 1.490 . S
C796 C798 1.395 . S
C796 C799 1.403 . S
H797 C803 0.930 . S
C798 H784 0.930 . S
C798 C796 1.395 . S
C798 C801 1.403 . S
C799 C796 1.403 . S
C799 C800 1.524 . S
C799 C803 1.400 . S
C800 H785 0.960 . S
C800 H786 0.960 . S
C800 H787 0.960 . S
C800 C799 1.524 . S
C801 C798 1.403 . S
C801 C802 1.392 . S
C801 C805 1.495 . S
C802 C801 1.392 . S
C802 C803 1.385 . S
C802 C804 1.478 . S
C803 H797 0.930 . S
C803 C799 1.400 . S
C803 C802 1.385 . S
C804 C802 1.478 . S
C804 C806 1.381 . S
C804 C810 1.383 . S
C805 C801 1.495 . S
C805 H811 0.959 . S
C805 H812 0.961 . S
C805 H813 0.960 . S
C806 C804 1.381 . S
C806 C807 1.394 . S
C806 H814 0.930 . S
C807 C806 1.394 . S
C807 C808 1.383 1_556 S
C807 H815 0.921 1_556 S
C808 C807 1.383 1_554 S
C808 C809 1.377 1_554 S
C809 H793 0.930 . S
C809 C808 1.377 1_556 S
C809 C810 1.379 . S
C810 H794 0.931 . S
C810 C804 1.383 . S
C810 C809 1.379 . S
H811 C805 0.959 . S
H812 C805 0.961 . S
H813 C805 0.960 . S
H814 C806 0.930 . S
H815 C807 0.921 1_554 S
H816 C824 0.929 . S
H817 C826 0.930 . S
H818 C828 0.930 . S
H819 C831 0.929 . S
H820 C834 0.930 . S
H821 C836 0.960 . S
H822 C836 0.960 . S
H823 C836 0.960 . S
C824 H816 0.929 . S
C824 C825 1.377 . S
C824 C826 1.384 . S
C825 C824 1.377 . S
C825 C831 1.390 . S
C826 H817 0.930 . S
C826 C824 1.384 . S
C826 C827 1.372 . S
C827 C826 1.372 . S
C827 C828 1.400 . S
C827 C832 1.490 . S
C828 H818 0.930 . S
C828 C827 1.400 . S
C828 C831 1.386 . S
H829 C845 0.930 . S
H830 C846 0.931 . S
C831 H819 0.929 . S
C831 C825 1.390 . S
C831 C828 1.386 . S
C832 C827 1.490 . S
C832 C834 1.395 . S
C832 C835 1.403 . S
H833 C839 0.930 . S
C834 H820 0.930 . S
C834 C832 1.395 . S
C834 C837 1.403 1_554 S
C835 C832 1.403 . S
C835 C836 1.524 . S
C835 C839 1.400 1_554 S
C836 H821 0.960 . S
C836 H822 0.960 . S
C836 H823 0.960 . S
C836 C835 1.524 . S
C837 C834 1.403 1_556 S
C837 C838 1.392 . S
C837 C841 1.495 . S
C838 C837 1.392 . S
C838 C839 1.385 . S
C838 C840 1.478 . S
C839 H833 0.930 . S
C839 C835 1.400 1_556 S
C839 C838 1.385 . S
C840 C838 1.478 . S
C840 C842 1.381 . S
C840 C846 1.383 . S
C841 C837 1.495 . S
C841 H847 0.959 . S
C841 H848 0.961 . S
C841 H849 0.960 . S
C842 C840 1.381 . S
C842 C843 1.394 . S
C842 H850 0.930 . S
C843 C842 1.394 . S
C843 C844 1.383 . S
C843 H851 0.929 . S
C844 C843 1.383 . S
C844 C845 1.377 . S
C845 H829 0.930 . S
C845 C844 1.377 . S
C845 C846 1.379 . S
C846 H830 0.931 . S
C846 C840 1.383 . S
C846 C845 1.379 . S
H847 C841 0.959 . S
H848 C841 0.961 . S
H849 C841 0.960 . S
H850 C842 0.930 . S
H851 C843 0.929 . S
H852 C860 0.929 . S
H853 C862 0.930 . S
H854 C864 0.930 . S
H855 C867 0.929 . S
H856 C870 0.930 . S
H857 C872 0.960 . S
H858 C872 0.960 . S
H859 C872 0.960 . S
C860 H852 0.929 . S
C860 C861 1.377 . S
C860 C862 1.384 . S
C861 C860 1.377 . S
C861 C867 1.390 . S
C862 H853 0.930 . S
C862 C860 1.384 . S
C862 C863 1.372 . S
C863 C862 1.372 . S
C863 C864 1.400 . S
C863 C868 1.490 . S
C864 H854 0.930 . S
C864 C863 1.400 . S
C864 C867 1.386 . S
H865 C881 0.930 . S
H866 C882 0.931 . S
C867 H855 0.929 . S
C867 C861 1.390 . S
C867 C864 1.386 . S
C868 C863 1.490 . S
C868 C870 1.395 . S
C868 C871 1.403 . S
H869 C875 0.930 . S
C870 H856 0.930 . S
C870 C868 1.395 . S
C870 C873 1.403 . S
C871 C868 1.403 . S
C871 C872 1.524 . S
C871 C875 1.400 . S
C872 H857 0.960 . S
C872 H858 0.960 . S
C872 H859 0.960 . S
C872 C871 1.524 . S
C873 C870 1.403 . S
C873 C874 1.392 . S
C873 C877 1.495 . S
C874 C873 1.392 . S
C874 C875 1.385 . S
C874 C876 1.478 . S
C875 H869 0.930 . S
C875 C871 1.400 . S
C875 C874 1.385 . S
C876 C874 1.478 . S
C876 C878 1.381 . S
C876 C882 1.383 . S
C877 C873 1.495 . S
C877 H883 0.959 . S
C877 H884 0.961 . S
C877 H885 0.960 . S
C878 C876 1.381 . S
C878 C879 1.394 . S
C878 H886 0.930 . S
C879 C878 1.394 . S
C879 C880 1.383 . S
C879 H887 0.929 . S
C880 C879 1.383 . S
C880 C881 1.377 . S
C881 H865 0.930 . S
C881 C880 1.377 . S
C881 C882 1.379 . S
C882 H866 0.931 . S
C882 C876 1.383 . S
C882 C881 1.379 . S
H883 C877 0.959 . S
H884 C877 0.961 . S
H885 C877 0.960 . S
H886 C878 0.930 . S
H887 C879 0.929 . S
H888 C896 0.929 . S
H889 C898 0.930 . S
H890 C900 0.930 . S
H891 C903 0.929 . S
H892 C906 0.930 . S
H893 C908 0.960 . S
H894 C908 0.960 . S
H895 C908 0.960 . S
C896 H888 0.929 . S
C896 C897 1.377 . S
C896 C898 1.384 . S
C897 C896 1.377 . S
C897 C903 1.390 . S
C898 H889 0.930 . S
C898 C896 1.384 . S
C898 C899 1.372 . S
C899 C898 1.372 . S
C899 C900 1.400 . S
C899 C904 1.490 . S
C900 H890 0.930 . S
C900 C899 1.400 . S
C900 C903 1.386 . S
H901 C917 0.930 . S
H902 C918 0.931 . S
C903 H891 0.929 . S
C903 C897 1.390 . S
C903 C900 1.386 . S
C904 C899 1.490 . S
C904 C906 1.395 . S
C904 C907 1.403 . S
H905 C911 0.930 . S
C906 H892 0.930 . S
C906 C904 1.395 . S
C906 C909 1.403 . S
C907 C904 1.403 . S
C907 C908 1.524 . S
C907 C911 1.400 . S
C908 H893 0.960 . S
C908 H894 0.960 . S
C908 H895 0.960 . S
C908 C907 1.524 . S
C909 C906 1.403 . S
C909 C910 1.392 . S
C909 C913 1.495 . S
C910 C909 1.392 . S
C910 C911 1.385 . S
C910 C912 1.478 . S
C911 H905 0.930 . S
C911 C907 1.400 . S
C911 C910 1.385 . S
C912 C910 1.478 . S
C912 C914 1.381 . S
C912 C918 1.383 . S
C913 C909 1.495 . S
C913 H919 0.959 . S
C913 H920 0.961 . S
C913 H921 0.960 . S
C914 C912 1.381 . S
C914 C915 1.394 . S
C914 H922 0.930 . S
C915 C914 1.394 . S
C915 C916 1.383 . S
C915 H923 0.929 . S
C916 C915 1.383 . S
C916 C917 1.377 . S
C917 H901 0.930 . S
C917 C916 1.377 . S
C917 C918 1.379 . S
C918 H902 0.931 . S
C918 C912 1.383 . S
C918 C917 1.379 . S
H919 C913 0.959 . S
H920 C913 0.961 . S
H921 C913 0.960 . S
H922 C914 0.930 . S
H923 C915 0.929 . S
H924 C932 0.929 . S
H925 C934 0.930 . S
H926 C936 0.930 . S
H927 C939 0.929 . S
H928 C942 0.930 . S
H929 C944 0.960 . S
H930 C944 0.960 . S
H931 C944 0.960 . S
C932 H924 0.929 . S
C932 C933 1.377 . S
C932 C934 1.384 . S
C933 C932 1.377 . S
C933 C939 1.390 . S
C934 H925 0.930 . S
C934 C932 1.384 . S
C934 C935 1.372 . S
C935 C934 1.372 . S
C935 C936 1.400 . S
C935 C940 1.490 . S
C936 H926 0.930 . S
C936 C935 1.400 . S
C936 C939 1.386 . S
H937 C953 0.930 . S
H938 C954 0.931 . S
C939 H927 0.929 . S
C939 C933 1.390 . S
C939 C936 1.386 . S
C940 C935 1.490 . S
C940 C942 1.395 . S
C940 C943 1.403 . S
H941 C947 0.930 . S
C942 H928 0.930 . S
C942 C940 1.395 . S
C942 C945 1.403 . S
C943 C940 1.403 . S
C943 C944 1.524 . S
C943 C947 1.400 . S
C944 H929 0.960 . S
C944 H930 0.960 . S
C944 H931 0.960 . S
C944 C943 1.524 . S
C945 C942 1.403 . S
C945 C946 1.392 . S
C945 C949 1.495 . S
C946 C945 1.392 . S
C946 C947 1.385 . S
C946 C948 1.478 . S
C947 H941 0.930 . S
C947 C943 1.400 . S
C947 C946 1.385 . S
C948 C946 1.478 . S
C948 C950 1.381 . S
C948 C954 1.383 . S
C949 C945 1.495 . S
C949 H955 0.959 . S
C949 H956 0.961 . S
C949 H957 0.960 . S
C950 C948 1.381 . S
C950 C951 1.394 . S
C950 H958 0.930 . S
C951 C950 1.394 . S
C951 C952 1.383 1_556 S
C951 H959 0.938 . S
C952 C951 1.383 1_554 S
C952 C953 1.377 1_554 S
C953 H937 0.930 . S
C953 C952 1.377 1_556 S
C953 C954 1.379 . S
C954 H938 0.931 . S
C954 C948 1.383 . S
C954 C953 1.379 . S
H955 C949 0.959 . S
H956 C949 0.961 . S
H957 C949 0.960 . S
H958 C950 0.930 . S
H959 C951 0.938 . S
H960 C968 0.929 . S
H961 C970 0.930 . S
H962 C972 0.930 . S
H963 C975 0.929 . S
H964 C978 0.930 . S
H965 C980 0.960 . S
H966 C980 0.960 . S
H967 C980 0.960 . S
C968 H960 0.929 . S
C968 C969 1.377 . S
C968 C970 1.384 . S
C969 C968 1.377 . S
C969 C975 1.390 . S
C970 H961 0.930 . S
C970 C968 1.384 . S
C970 C971 1.372 . S
C971 C970 1.372 . S
C971 C972 1.400 . S
C971 C976 1.490 . S
C972 H962 0.930 . S
C972 C971 1.400 . S
C972 C975 1.386 . S
H973 C989 0.930 . S
H974 C990 0.931 . S
C975 H963 0.929 . S
C975 C969 1.390 . S
C975 C972 1.386 . S
C976 C971 1.490 . S
C976 C978 1.395 . S
C976 C979 1.403 . S
H977 C983 0.930 . S
C978 H964 0.930 . S
C978 C976 1.395 . S
C978 C981 1.403 1_556 S
C979 C976 1.403 . S
C979 C980 1.524 . S
C979 C983 1.400 1_556 S
C980 H965 0.960 . S
C980 H966 0.960 . S
C980 H967 0.960 . S
C980 C979 1.524 . S
C981 C978 1.403 1_554 S
C981 C982 1.392 . S
C981 C985 1.495 . S
C982 C981 1.392 . S
C982 C983 1.385 . S
C982 C984 1.478 . S
C983 H977 0.930 . S
C983 C979 1.400 1_554 S
C983 C982 1.385 . S
C984 C982 1.478 . S
C984 C986 1.381 . S
C984 C990 1.383 . S
C985 C981 1.495 . S
C985 H991 0.959 . S
C985 H992 0.961 . S
C985 H993 0.960 . S
C986 C984 1.381 . S
C986 C987 1.394 . S
C986 H994 0.930 . S
C987 C986 1.394 . S
C987 C988 1.383 . S
C987 H995 0.929 . S
C988 C987 1.383 . S
C988 C989 1.377 . S
C989 H973 0.930 . S
C989 C988 1.377 . S
C989 C990 1.379 . S
C990 H974 0.931 . S
C990 C984 1.383 . S
C990 C989 1.379 . S
H991 C985 0.959 . S
H992 C985 0.961 . S
H993 C985 0.960 . S
H994 C986 0.930 . S
H995 C987 0.929 . S
H996 C1004 0.929 . S
H997 C1006 0.930 . S
H998 C1008 0.930 . S
H999 C1011 0.929 . S
H1000 C1014 0.930 . S
H1001 C1016 0.960 . S
H1002 C1016 0.960 . S
H1003 C1016 0.960 . S
C1004 H996 0.929 . S
C1004 C1005 1.377 1_556 S
C1004 C1006 1.384 . S
C1005 C1004 1.377 1_554 S
C1005 C1011 1.390 1_554 S
C1006 H997 0.930 . S
C1006 C1004 1.384 . S
C1006 C1007 1.372 . S
C1007 C1006 1.372 . S
C1007 C1008 1.400 . S
C1007 C1012 1.490 . S
C1008 H998 0.930 . S
C1008 C1007 1.400 . S
C1008 C1011 1.386 . S
H1009 C1025 0.930 . S
H1010 C1026 0.931 . S
C1011 H999 0.929 . S
C1011 C1005 1.390 1_556 S
C1011 C1008 1.386 . S
C1012 C1007 1.490 . S
C1012 C1014 1.395 . S
C1012 C1015 1.403 . S
H1013 C1019 0.930 . S
C1014 H1000 0.930 . S
C1014 C1012 1.395 . S
C1014 C1017 1.403 . S
C1015 C1012 1.403 . S
C1015 C1016 1.524 . S
C1015 C1019 1.400 . S
C1016 H1001 0.960 . S
C1016 H1002 0.960 . S
C1016 H1003 0.960 . S
C1016 C1015 1.524 . S
C1017 C1014 1.403 . S
C1017 C1018 1.392 . S
C1017 C1021 1.495 . S
C1018 C1017 1.392 . S
C1018 C1019 1.385 . S
C1018 C1020 1.478 . S
C1019 H1013 0.930 . S
C1019 C1015 1.400 . S
C1019 C1018 1.385 . S
C1020 C1018 1.478 . S
C1020 C1022 1.381 . S
C1020 C1026 1.383 . S
C1021 C1017 1.495 . S
C1021 H1027 0.959 . S
C1021 H1028 0.961 . S
C1021 H1029 0.960 . S
C1022 C1020 1.381 . S
C1022 C1023 1.394 . S
C1022 H1030 0.930 . S
C1023 C1022 1.394 . S
C1023 C1024 1.383 . S
C1023 H1031 0.929 . S
C1024 C1023 1.383 . S
C1024 C1025 1.377 . S
C1025 H1009 0.930 . S
C1025 C1024 1.377 . S
C1025 C1026 1.379 . S
C1026 H1010 0.931 . S
C1026 C1020 1.383 . S
C1026 C1025 1.379 . S
H1027 C1021 0.959 . S
H1028 C1021 0.961 . S
H1029 C1021 0.960 . S
H1030 C1022 0.930 . S
H1031 C1023 0.929 . S
H1032 C1040 0.929 . S
H1033 C1042 0.930 . S
H1034 C1044 0.930 . S
H1035 C1047 0.929 . S
H1036 C1050 0.930 . S
H1037 C1052 0.960 . S
H1038 C1052 0.960 . S
H1039 C1052 0.960 . S
C1040 H1032 0.929 . S
C1040 C1041 1.377 . S
C1040 C1042 1.384 . S
C1041 C1040 1.377 . S
C1041 C1047 1.390 . S
C1042 H1033 0.930 . S
C1042 C1040 1.384 . S
C1042 C1043 1.372 . S
C1043 C1042 1.372 . S
C1043 C1044 1.400 . S
C1043 C1048 1.490 . S
C1044 H1034 0.930 . S
C1044 C1043 1.400 . S
C1044 C1047 1.386 . S
H1045 C1061 0.930 . S
H1046 C1062 0.931 . S
C1047 H1035 0.929 . S
C1047 C1041 1.390 . S
C1047 C1044 1.386 . S
C1048 C1043 1.490 . S
C1048 C1050 1.395 . S
C1048 C1051 1.403 . S
H1049 C1055 0.930 . S
C1050 H1036 0.930 . S
C1050 C1048 1.395 . S
C1050 C1053 1.403 . S
C1051 C1048 1.403 . S
C1051 C1052 1.524 . S
C1051 C1055 1.400 . S
C1052 H1037 0.960 . S
C1052 H1038 0.960 . S
C1052 H1039 0.960 . S
C1052 C1051 1.524 . S
C1053 C1050 1.403 . S
C1053 C1054 1.392 . S
C1053 C1057 1.495 . S
C1054 C1053 1.392 . S
C1054 C1055 1.385 . S
C1054 C1056 1.478 . S
C1055 H1049 0.930 . S
C1055 C1051 1.400 . S
C1055 C1054 1.385 . S
C1056 C1054 1.478 . S
C1056 C1058 1.381 . S
C1056 C1062 1.383 . S
C1057 C1053 1.495 . S
C1057 H1063 0.959 . S
C1057 H1064 0.961 . S
C1057 H1065 0.960 . S
C1058 C1056 1.381 . S
C1058 C1059 1.394 . S
C1058 H1066 0.930 . S
C1059 C1058 1.394 . S
C1059 C1060 1.383 . S
C1059 H1067 0.929 . S
C1060 C1059 1.383 . S
C1060 C1061 1.377 . S
C1061 H1045 0.930 . S
C1061 C1060 1.377 . S
C1061 C1062 1.379 . S
C1062 H1046 0.931 . S
C1062 C1056 1.383 . S
C1062 C1061 1.379 . S
H1063 C1057 0.959 . S
H1064 C1057 0.961 . S
H1065 C1057 0.960 . S
H1066 C1058 0.930 . S
H1067 C1059 0.929 . S
H1068 C1076 0.929 . S
H1069 C1078 0.930 . S
H1070 C1080 0.930 . S
H1071 C1083 0.929 . S
H1072 C1086 0.930 . S
H1073 C1088 0.960 . S
H1074 C1088 0.960 . S
H1075 C1088 0.960 . S
C1076 H1068 0.929 . S
C1076 C1077 1.377 . S
C1076 C1078 1.384 . S
C1077 C1076 1.377 . S
C1077 C1083 1.390 . S
C1078 H1069 0.930 . S
C1078 C1076 1.384 . S
C1078 C1079 1.372 . S
C1079 C1078 1.372 . S
C1079 C1080 1.400 . S
C1079 C1084 1.490 . S
C1080 H1070 0.930 . S
C1080 C1079 1.400 . S
C1080 C1083 1.386 . S
H1081 C1097 0.930 . S
H1082 C1098 0.931 . S
C1083 H1071 0.929 . S
C1083 C1077 1.390 . S
C1083 C1080 1.386 . S
C1084 C1079 1.490 . S
C1084 C1086 1.395 . S
C1084 C1087 1.403 . S
H1085 C1091 0.930 . S
C1086 H1072 0.930 . S
C1086 C1084 1.395 . S
C1086 C1089 1.403 . S
C1087 C1084 1.403 . S
C1087 C1088 1.524 . S
C1087 C1091 1.400 . S
C1088 H1073 0.960 . S
C1088 H1074 0.960 . S
C1088 H1075 0.960 . S
C1088 C1087 1.524 . S
C1089 C1086 1.403 . S
C1089 C1090 1.392 . S
C1089 C1093 1.495 . S
C1090 C1089 1.392 . S
C1090 C1091 1.385 . S
C1090 C1092 1.478 . S
C1091 H1085 0.930 . S
C1091 C1087 1.400 . S
C1091 C1090 1.385 . S
C1092 C1090 1.478 . S
C1092 C1094 1.381 . S
C1092 C1098 1.383 . S
C1093 C1089 1.495 . S
C1093 H1099 0.959 . S
C1093 H1100 0.961 . S
C1093 H1101 0.960 . S
C1094 C1092 1.381 . S
C1094 C1095 1.394 . S
C1094 H1102 0.930 . S
C1095 C1094 1.394 . S
C1095 C1096 1.383 . S
C1095 H1103 0.929 . S
C1096 C1095 1.383 . S
C1096 C1097 1.377 . S
C1097 H1081 0.930 . S
C1097 C1096 1.377 . S
C1097 C1098 1.379 . S
C1098 H1082 0.931 . S
C1098 C1092 1.383 . S
C1098 C1097 1.379 . S
H1099 C1093 0.959 . S
H1100 C1093 0.961 . S
H1101 C1093 0.960 . S
H1102 C1094 0.930 . S
H1103 C1095 0.929 . S
H1104 C1112 0.929 . S
H1105 C1114 0.930 . S
H1106 C1116 0.930 . S
H1107 C1119 0.929 1_556 S
H1108 C1122 0.930 . S
H1109 C1124 0.960 . S
H1110 C1124 0.960 . S
H1111 C1124 0.960 . S
C1112 H1104 0.929 . S
C1112 C1113 1.377 . S
C1112 C1114 1.384 . S
C1113 C1112 1.377 . S
C1113 C1119 1.390 . S
C1114 H1105 0.930 . S
C1114 C1112 1.384 . S
C1114 C1115 1.372 . S
C1115 C1114 1.372 . S
C1115 C1116 1.400 . S
C1115 C1120 1.490 . S
C1116 H1106 0.930 . S
C1116 C1115 1.400 . S
C1116 C1119 1.386 . S
H1117 C1133 0.930 . S
H1118 C1134 0.931 . S
C1119 H1107 0.929 1_554 S
C1119 C1113 1.390 . S
C1119 C1116 1.386 . S
C1120 C1115 1.490 . S
C1120 C1122 1.395 . S
C1120 C1123 1.403 . S
H1121 C1127 0.930 . S
C1122 H1108 0.930 . S
C1122 C1120 1.395 . S
C1122 C1125 1.403 . S
C1123 C1120 1.403 . S
C1123 C1124 1.524 . S
C1123 C1127 1.400 . S
C1124 H1109 0.960 . S
C1124 H1110 0.960 . S
C1124 H1111 0.960 . S
C1124 C1123 1.524 . S
C1125 C1122 1.403 . S
C1125 C1126 1.392 . S
C1125 C1129 1.495 . S
C1126 C1125 1.392 . S
C1126 C1127 1.385 . S
C1126 C1128 1.478 . S
C1127 H1121 0.930 . S
C1127 C1123 1.400 . S
C1127 C1126 1.385 . S
C1128 C1126 1.478 . S
C1128 C1130 1.381 . S
C1128 C1134 1.383 . S
C1129 C1125 1.495 . S
C1129 H1135 0.959 . S
C1129 H1136 0.961 . S
C1129 H1137 0.960 . S
C1130 C1128 1.381 . S
C1130 C1131 1.394 . S
C1130 H1138 0.930 . S
C1131 C1130 1.394 . S
C1131 C1132 1.383 . S
C1131 H1139 0.929 . S
C1132 C1131 1.383 . S
C1132 C1133 1.377 . S
C1133 H1117 0.930 . S
C1133 C1132 1.377 . S
C1133 C1134 1.379 . S
C1134 H1118 0.931 . S
C1134 C1128 1.383 . S
C1134 C1133 1.379 . S
H1135 C1129 0.959 . S
H1136 C1129 0.961 . S
H1137 C1129 0.960 . S
H1138 C1130 0.930 . S
H1139 C1131 0.929 . S
H1140 C1148 0.929 . S
H1141 C1150 0.930 . S
H1142 C1152 0.930 . S
H1143 C1155 0.929 . S
H1144 C1158 0.930 . S
H1145 C1160 0.960 . S
H1146 C1160 0.960 . S
H1147 C1160 0.960 . S
C1148 H1140 0.929 . S
C1148 C1149 1.377 . S
C1148 C1150 1.384 . S
C1149 C1148 1.377 . S
C1149 C1155 1.390 . S
C1150 H1141 0.930 . S
C1150 C1148 1.384 . S
C1150 C1151 1.372 . S
C1151 C1150 1.372 . S
C1151 C1152 1.400 . S
C1151 C1156 1.490 . S
C1152 H1142 0.930 . S
C1152 C1151 1.400 . S
C1152 C1155 1.386 . S
H1153 C1169 0.930 . S
H1154 C1170 0.931 . S
C1155 H1143 0.929 . S
C1155 C1149 1.390 . S
C1155 C1152 1.386 . S
C1156 C1151 1.490 . S
C1156 C1158 1.395 . S
C1156 C1159 1.403 . S
H1157 C1163 0.930 . S
C1158 H1144 0.930 . S
C1158 C1156 1.395 . S
C1158 C1161 1.403 . S
C1159 C1156 1.403 . S
C1159 C1160 1.524 . S
C1159 C1163 1.400 . S
C1160 H1145 0.960 . S
C1160 H1146 0.960 . S
C1160 H1147 0.960 . S
C1160 C1159 1.524 . S
C1161 C1158 1.403 . S
C1161 C1162 1.392 . S
C1161 C1165 1.495 . S
C1162 C1161 1.392 . S
C1162 C1163 1.385 . S
C1162 C1164 1.478 . S
C1163 H1157 0.930 . S
C1163 C1159 1.400 . S
C1163 C1162 1.385 . S
C1164 C1162 1.478 . S
C1164 C1166 1.381 . S
C1164 C1170 1.383 . S
C1165 C1161 1.495 . S
C1165 H1171 0.959 . S
C1165 H1172 0.961 . S
C1165 H1173 0.960 . S
C1166 C1164 1.381 . S
C1166 C1167 1.394 . S
C1166 H1174 0.930 . S
C1167 C1166 1.394 . S
C1167 C1168 1.383 . S
C1167 H1175 0.929 . S
C1168 C1167 1.383 . S
C1168 C1169 1.377 . S
C1169 H1153 0.930 . S
C1169 C1168 1.377 . S
C1169 C1170 1.379 . S
C1170 H1154 0.931 . S
C1170 C1164 1.383 . S
C1170 C1169 1.379 . S
H1171 C1165 0.959 . S
H1172 C1165 0.961 . S
H1173 C1165 0.960 . S
H1174 C1166 0.930 . S
H1175 C1167 0.929 . S
H1176 C1184 0.929 . S
H1177 C1186 0.930 . S
H1178 C1188 0.930 . S
H1179 C1191 0.929 . S
H1180 C1194 0.930 . S
H1181 C1196 0.960 . S
H1182 C1196 0.960 . S
H1183 C1196 0.960 . S
C1184 H1176 0.929 . S
C1184 C1185 1.377 . S
C1184 C1186 1.384 . S
C1185 C1184 1.377 . S
C1185 C1191 1.390 . S
C1186 H1177 0.930 . S
C1186 C1184 1.384 . S
C1186 C1187 1.372 . S
C1187 C1186 1.372 . S
C1187 C1188 1.400 . S
C1187 C1192 1.490 . S
C1188 H1178 0.930 . S
C1188 C1187 1.400 . S
C1188 C1191 1.386 . S
H1189 C1205 0.930 . S
H1190 C1206 0.931 . S
C1191 H1179 0.929 . S
C1191 C1185 1.390 . S
C1191 C1188 1.386 . S
C1192 C1187 1.490 . S
C1192 C1194 1.395 . S
C1192 C1195 1.403 . S
H1193 C1199 0.930 . S
C1194 H1180 0.930 . S
C1194 C1192 1.395 . S
C1194 C1197 1.403 . S
C1195 C1192 1.403 . S
C1195 C1196 1.524 . S
C1195 C1199 1.400 . S
C1196 H1181 0.960 . S
C1196 H1182 0.960 . S
C1196 H1183 0.960 . S
C1196 C1195 1.524 . S
C1197 C1194 1.403 . S
C1197 C1198 1.392 . S
C1197 C1201 1.495 . S
C1198 C1197 1.392 . S
C1198 C1199 1.385 . S
C1198 C1200 1.478 . S
C1199 H1193 0.930 . S
C1199 C1195 1.400 . S
C1199 C1198 1.385 . S
C1200 C1198 1.478 . S
C1200 C1202 1.381 . S
C1200 C1206 1.383 . S
C1201 C1197 1.495 . S
C1201 H1207 0.959 . S
C1201 H1208 0.961 . S
C1201 H1209 0.960 . S
C1202 C1200 1.381 . S
C1202 C1203 1.394 . S
C1202 H1210 0.930 . S
C1203 C1202 1.394 . S
C1203 C1204 1.383 . S
C1203 H1211 0.929 . S
C1204 C1203 1.383 . S
C1204 C1205 1.377 . S
C1205 H1189 0.930 . S
C1205 C1204 1.377 . S
C1205 C1206 1.379 . S
C1206 H1190 0.931 . S
C1206 C1200 1.383 . S
C1206 C1205 1.379 . S
H1207 C1201 0.959 . S
H1208 C1201 0.961 . S
H1209 C1201 0.960 . S
H1210 C1202 0.930 . S
H1211 C1203 0.929 . S
H1212 C1220 0.929 1_554 S
H1213 C1222 0.930 . S
H1214 C1224 0.930 . S
H1215 C1227 0.929 . S
H1216 C1230 0.930 . S
H1217 C1232 0.960 . S
H1218 C1232 0.960 . S
H1219 C1232 0.960 . S
C1220 H1212 0.929 1_556 S
C1220 C1221 1.377 . S
C1220 C1222 1.384 . S
C1221 C1220 1.377 . S
C1221 C1227 1.390 . S
C1222 H1213 0.930 . S
C1222 C1220 1.384 . S
C1222 C1223 1.372 . S
C1223 C1222 1.372 . S
C1223 C1224 1.400 . S
C1223 C1228 1.490 . S
C1224 H1214 0.930 . S
C1224 C1223 1.400 . S
C1224 C1227 1.386 . S
H1225 C1241 0.930 . S
H1226 C1242 0.931 . S
C1227 H1215 0.929 . S
C1227 C1221 1.390 . S
C1227 C1224 1.386 . S
C1228 C1223 1.490 . S
C1228 C1230 1.395 . S
C1228 C1231 1.403 . S
H1229 C1235 0.930 . S
C1230 H1216 0.930 . S
C1230 C1228 1.395 . S
C1230 C1233 1.403 . S
C1231 C1228 1.403 . S
C1231 C1232 1.524 . S
C1231 C1235 1.400 . S
C1232 H1217 0.960 . S
C1232 H1218 0.960 . S
C1232 H1219 0.960 . S
C1232 C1231 1.524 . S
C1233 C1230 1.403 . S
C1233 C1234 1.392 . S
C1233 C1237 1.495 . S
C1234 C1233 1.392 . S
C1234 C1235 1.385 . S
C1234 C1236 1.478 . S
C1235 H1229 0.930 . S
C1235 C1231 1.400 . S
C1235 C1234 1.385 . S
C1236 C1234 1.478 . S
C1236 C1238 1.381 . S
C1236 C1242 1.383 . S
C1237 C1233 1.495 . S
C1237 H1243 0.959 . S
C1237 H1244 0.961 . S
C1237 H1245 0.960 . S
C1238 C1236 1.381 . S
C1238 C1239 1.394 . S
C1238 H1246 0.930 . S
C1239 C1238 1.394 . S
C1239 C1240 1.383 . S
C1239 H1247 0.929 . S
C1240 C1239 1.383 . S
C1240 C1241 1.377 . S
C1241 H1225 0.930 . S
C1241 C1240 1.377 . S
C1241 C1242 1.379 . S
C1242 H1226 0.931 . S
C1242 C1236 1.383 . S
C1242 C1241 1.379 . S
H1243 C1237 0.959 . S
H1244 C1237 0.961 . S
H1245 C1237 0.960 . S
H1246 C1238 0.930 . S
H1247 C1239 0.929 . S
H1248 C1256 0.929 . S
H1249 C1258 0.930 . S
H1250 C1260 0.930 . S
H1251 C1263 0.929 . S
H1252 C1266 0.930 . S
H1253 C1268 0.960 . S
H1254 C1268 0.960 . S
H1255 C1268 0.960 . S
C1256 H1248 0.929 . S
C1256 C1257 1.377 . S
C1256 C1258 1.384 . S
C1257 C1256 1.377 . S
C1257 C1263 1.390 . S
C1258 H1249 0.930 . S
C1258 C1256 1.384 . S
C1258 C1259 1.372 . S
C1259 C1258 1.372 . S
C1259 C1260 1.400 . S
C1259 C1264 1.490 . S
C1260 H1250 0.930 . S
C1260 C1259 1.400 . S
C1260 C1263 1.386 . S
H1261 C1277 0.930 . S
H1262 C1278 0.931 . S
C1263 H1251 0.929 . S
C1263 C1257 1.390 . S
C1263 C1260 1.386 . S
C1264 C1259 1.490 . S
C1264 C1266 1.395 . S
C1264 C1267 1.403 . S
H1265 C1271 0.930 . S
C1266 H1252 0.930 . S
C1266 C1264 1.395 . S
C1266 C1269 1.403 . S
C1267 C1264 1.403 . S
C1267 C1268 1.524 . S
C1267 C1271 1.400 . S
C1268 H1253 0.960 . S
C1268 H1254 0.960 . S
C1268 H1255 0.960 . S
C1268 C1267 1.524 . S
C1269 C1266 1.403 . S
C1269 C1270 1.392 . S
C1269 C1273 1.495 1_556 S
C1270 C1269 1.392 . S
C1270 C1271 1.385 . S
C1270 C1272 1.478 . S
C1271 H1265 0.930 . S
C1271 C1267 1.400 . S
C1271 C1270 1.385 . S
C1272 C1270 1.478 . S
C1272 C1274 1.381 . S
C1272 C1278 1.383 . S
C1273 C1269 1.495 1_554 S
C1273 H1279 0.959 . S
C1273 H1280 0.961 . S
C1273 H1281 0.960 . S
C1274 C1272 1.381 . S
C1274 C1275 1.394 . S
C1274 H1282 0.930 . S
C1275 C1274 1.394 . S
C1275 C1276 1.383 . S
C1275 H1283 0.929 . S
C1276 C1275 1.383 . S
C1276 C1277 1.377 . S
C1277 H1261 0.930 . S
C1277 C1276 1.377 . S
C1277 C1278 1.379 . S
C1278 H1262 0.931 . S
C1278 C1272 1.383 . S
C1278 C1277 1.379 . S
H1279 C1273 0.959 . S
H1280 C1273 0.961 . S
H1281 C1273 0.960 . S
H1282 C1274 0.930 . S
H1283 C1275 0.929 . S
H1284 C1292 0.929 . S
H1285 C1294 0.930 . S
H1286 C1296 0.930 . S
H1287 C1299 0.929 . S
H1288 C1302 0.930 . S
H1289 C1304 0.960 . S
H1290 C1304 0.960 . S
H1291 C1304 0.960 . S
C1292 H1284 0.929 . S
C1292 C1293 1.377 . S
C1292 C1294 1.384 . S
C1293 C1292 1.377 . S
C1293 C1299 1.390 . S
C1294 H1285 0.930 . S
C1294 C1292 1.384 . S
C1294 C1295 1.372 . S
C1295 C1294 1.372 . S
C1295 C1296 1.400 . S
C1295 C1300 1.490 . S
C1296 H1286 0.930 . S
C1296 C1295 1.400 . S
C1296 C1299 1.386 . S
H1297 C1313 0.930 . S
H1298 C1314 0.931 . S
C1299 H1287 0.929 . S
C1299 C1293 1.390 . S
C1299 C1296 1.386 . S
C1300 C1295 1.490 . S
C1300 C1302 1.395 . S
C1300 C1303 1.403 . S
H1301 C1307 0.930 . S
C1302 H1288 0.930 . S
C1302 C1300 1.395 . S
C1302 C1305 1.403 . S
C1303 C1300 1.403 . S
C1303 C1304 1.524 . S
C1303 C1307 1.400 . S
C1304 H1289 0.960 . S
C1304 H1290 0.960 . S
C1304 H1291 0.960 . S
C1304 C1303 1.524 . S
C1305 C1302 1.403 . S
C1305 C1306 1.392 . S
C1305 C1309 1.495 . S
C1306 C1305 1.392 . S
C1306 C1307 1.385 . S
C1306 C1308 1.478 . S
C1307 H1301 0.930 . S
C1307 C1303 1.400 . S
C1307 C1306 1.385 . S
C1308 C1306 1.478 . S
C1308 C1310 1.381 . S
C1308 C1314 1.383 . S
C1309 C1305 1.495 . S
C1309 H1315 0.959 . S
C1309 H1316 0.961 . S
C1309 H1317 0.960 . S
C1310 C1308 1.381 . S
C1310 C1311 1.394 . S
C1310 H1318 0.930 . S
C1311 C1310 1.394 . S
C1311 C1312 1.383 . S
C1311 H1319 0.929 . S
C1312 C1311 1.383 . S
C1312 C1313 1.377 . S
C1313 H1297 0.930 . S
C1313 C1312 1.377 . S
C1313 C1314 1.379 . S
C1314 H1298 0.931 . S
C1314 C1308 1.383 . S
C1314 C1313 1.379 . S
H1315 C1309 0.959 . S
H1316 C1309 0.961 . S
H1317 C1309 0.960 . S
H1318 C1310 0.930 . S
H1319 C1311 0.929 . S
H1320 C1328 0.929 . S
H1321 C1330 0.930 . S
H1322 C1332 0.930 . S
H1323 C1335 0.929 . S
H1324 C1338 0.930 . S
H1325 C1340 0.960 . S
H1326 C1340 0.960 . S
H1327 C1340 0.960 . S
C1328 H1320 0.929 . S
C1328 C1329 1.377 . S
C1328 C1330 1.384 . S
C1329 C1328 1.377 . S
C1329 C1335 1.390 . S
C1330 H1321 0.930 . S
C1330 C1328 1.384 . S
C1330 C1331 1.372 . S
C1331 C1330 1.372 . S
C1331 C1332 1.400 . S
C1331 C1336 1.490 . S
C1332 H1322 0.930 . S
C1332 C1331 1.400 . S
C1332 C1335 1.386 . S
H1333 C1349 0.930 . S
H1334 C1350 0.931 . S
C1335 H1323 0.929 . S
C1335 C1329 1.390 . S
C1335 C1332 1.386 . S
C1336 C1331 1.490 . S
C1336 C1338 1.395 . S
C1336 C1339 1.403 . S
H1337 C1343 0.930 . S
C1338 H1324 0.930 . S
C1338 C1336 1.395 . S
C1338 C1341 1.403 . S
C1339 C1336 1.403 . S
C1339 C1340 1.524 . S
C1339 C1343 1.400 . S
C1340 H1325 0.960 . S
C1340 H1326 0.960 . S
C1340 H1327 0.960 . S
C1340 C1339 1.524 . S
C1341 C1338 1.403 . S
C1341 C1342 1.392 . S
C1341 C1345 1.495 . S
C1342 C1341 1.392 . S
C1342 C1343 1.385 . S
C1342 C1344 1.478 . S
C1343 H1337 0.930 . S
C1343 C1339 1.400 . S
C1343 C1342 1.385 . S
C1344 C1342 1.478 . S
C1344 C1346 1.381 . S
C1344 C1350 1.383 . S
C1345 C1341 1.495 . S
C1345 H1351 0.959 . S
C1345 H1352 0.961 . S
C1345 H1353 0.960 . S
C1346 C1344 1.381 . S
C1346 C1347 1.394 . S
C1346 H1354 0.930 . S
C1347 C1346 1.394 . S
C1347 C1348 1.383 . S
C1347 H1355 0.929 . S
C1348 C1347 1.383 . S
C1348 C1349 1.377 . S
C1349 H1333 0.930 . S
C1349 C1348 1.377 . S
C1349 C1350 1.379 . S
C1350 H1334 0.931 . S
C1350 C1344 1.383 . S
C1350 C1349 1.379 . S
H1351 C1345 0.959 . S
H1352 C1345 0.961 . S
H1353 C1345 0.960 . S
H1354 C1346 0.930 . S
H1355 C1347 0.929 . S
H1356 C1364 0.929 . S
H1357 C1366 0.930 . S
H1358 C1368 0.930 . S
H1359 C1371 0.929 . S
H1360 C1374 0.930 . S
H1361 C1376 0.960 . S
H1362 C1376 0.960 . S
H1363 C1376 0.960 . S
C1364 H1356 0.929 . S
C1364 C1365 1.377 . S
C1364 C1366 1.384 . S
C1365 C1364 1.377 . S
C1365 C1371 1.390 . S
C1366 H1357 0.930 . S
C1366 C1364 1.384 . S
C1366 C1367 1.372 . S
C1367 C1366 1.372 . S
C1367 C1368 1.400 . S
C1367 C1372 1.490 . S
C1368 H1358 0.930 . S
C1368 C1367 1.400 . S
C1368 C1371 1.386 . S
H1369 C1385 0.930 1_556 S
H1370 C1386 0.931 . S
C1371 H1359 0.929 . S
C1371 C1365 1.390 . S
C1371 C1368 1.386 . S
C1372 C1367 1.490 . S
C1372 C1374 1.395 . S
C1372 C1375 1.403 . S
H1373 C1379 0.930 . S
C1374 H1360 0.930 . S
C1374 C1372 1.395 . S
C1374 C1377 1.403 . S
C1375 C1372 1.403 . S
C1375 C1376 1.524 . S
C1375 C1379 1.400 . S
C1376 H1361 0.960 . S
C1376 H1362 0.960 . S
C1376 H1363 0.960 . S
C1376 C1375 1.524 . S
C1377 C1374 1.403 . S
C1377 C1378 1.392 . S
C1377 C1381 1.495 . S
C1378 C1377 1.392 . S
C1378 C1379 1.385 . S
C1378 C1380 1.478 . S
C1379 H1373 0.930 . S
C1379 C1375 1.400 . S
C1379 C1378 1.385 . S
C1380 C1378 1.478 . S
C1380 C1382 1.381 . S
C1380 C1386 1.383 . S
C1381 C1377 1.495 . S
C1381 H1387 0.959 . S
C1381 H1388 0.961 . S
C1381 H1389 0.960 . S
C1382 C1380 1.381 . S
C1382 C1383 1.394 . S
C1382 H1390 0.930 . S
C1383 C1382 1.394 . S
C1383 C1384 1.383 . S
C1383 H1391 0.929 . S
C1384 C1383 1.383 . S
C1384 C1385 1.377 . S
C1385 H1369 0.930 1_554 S
C1385 C1384 1.377 . S
C1385 C1386 1.379 . S
C1386 H1370 0.931 . S
C1386 C1380 1.383 . S
C1386 C1385 1.379 . S
H1387 C1381 0.959 . S
H1388 C1381 0.961 . S
H1389 C1381 0.960 . S
H1390 C1382 0.930 . S
H1391 C1383 0.929 . S
H1392 C1400 0.929 . S
H1393 C1402 0.930 . S
H1394 C1404 0.930 . S
H1395 C1407 0.929 . S
H1396 C1410 0.930 . S
H1397 C1412 0.960 . S
H1398 C1412 0.960 . S
H1399 C1412 0.960 . S
C1400 H1392 0.929 . S
C1400 C1401 1.377 . S
C1400 C1402 1.384 . S
C1401 C1400 1.377 . S
C1401 C1407 1.390 . S
C1402 H1393 0.930 . S
C1402 C1400 1.384 . S
C1402 C1403 1.372 . S
C1403 C1402 1.372 . S
C1403 C1404 1.400 . S
C1403 C1408 1.490 . S
C1404 H1394 0.930 . S
C1404 C1403 1.400 . S
C1404 C1407 1.386 . S
H1405 C1421 0.930 . S
H1406 C1422 0.931 . S
C1407 H1395 0.929 . S
C1407 C1401 1.390 . S
C1407 C1404 1.386 . S
C1408 C1403 1.490 . S
C1408 C1410 1.395 . S
C1408 C1411 1.403 . S
H1409 C1415 0.930 . S
C1410 H1396 0.930 . S
C1410 C1408 1.395 . S
C1410 C1413 1.403 . S
C1411 C1408 1.403 . S
C1411 C1412 1.524 . S
C1411 C1415 1.400 . S
C1412 H1397 0.960 . S
C1412 H1398 0.960 . S
C1412 H1399 0.960 . S
C1412 C1411 1.524 . S
C1413 C1410 1.403 . S
C1413 C1414 1.392 . S
C1413 C1417 1.495 . S
C1414 C1413 1.392 . S
C1414 C1415 1.385 . S
C1414 C1416 1.478 . S
C1415 H1409 0.930 . S
C1415 C1411 1.400 . S
C1415 C1414 1.385 . S
C1416 C1414 1.478 . S
C1416 C1418 1.381 . S
C1416 C1422 1.383 . S
C1417 C1413 1.495 . S
C1417 H1423 0.959 . S
C1417 H1424 0.961 . S
C1417 H1425 0.960 . S
C1418 C1416 1.381 . S
C1418 C1419 1.394 . S
C1418 H1426 0.930 . S
C1419 C1418 1.394 . S
C1419 C1420 1.383 . S
C1419 H1427 0.929 . S
C1420 C1419 1.383 . S
C1420 C1421 1.377 . S
C1421 H1405 0.930 . S
C1421 C1420 1.377 . S
C1421 C1422 1.379 . S
C1422 H1406 0.931 . S
C1422 C1416 1.383 . S
C1422 C1421 1.379 . S
H1423 C1417 0.959 . S
H1424 C1417 0.961 . S
H1425 C1417 0.960 . S
H1426 C1418 0.930 . S
H1427 C1419 0.929 . S
H1428 C1436 0.929 . S
H1429 C1438 0.930 . S
H1430 C1440 0.930 . S
H1431 C1443 0.929 . S
H1432 C1446 0.930 . S
H1433 C1448 0.960 . S
H1434 C1448 0.960 . S
H1435 C1448 0.960 . S
C1436 H1428 0.929 . S
C1436 C1437 1.377 . S
C1436 C1438 1.384 . S
C1437 C1436 1.377 . S
C1437 C1443 1.390 . S
C1438 H1429 0.930 . S
C1438 C1436 1.384 . S
C1438 C1439 1.372 . S
C1439 C1438 1.372 . S
C1439 C1440 1.400 . S
C1439 C1444 1.490 . S
C1440 H1430 0.930 . S
C1440 C1439 1.400 . S
C1440 C1443 1.386 . S
H1441 C1457 0.930 . S
H1442 C1458 0.931 . S
C1443 H1431 0.929 . S
C1443 C1437 1.390 . S
C1443 C1440 1.386 . S
C1444 C1439 1.490 . S
C1444 C1446 1.395 . S
C1444 C1447 1.403 . S
H1445 C1451 0.930 . S
C1446 H1432 0.930 . S
C1446 C1444 1.395 . S
C1446 C1449 1.403 . S
C1447 C1444 1.403 . S
C1447 C1448 1.524 . S
C1447 C1451 1.400 . S
C1448 H1433 0.960 . S
C1448 H1434 0.960 . S
C1448 H1435 0.960 . S
C1448 C1447 1.524 . S
C1449 C1446 1.403 . S
C1449 C1450 1.392 . S
C1449 C1453 1.495 . S
C1450 C1449 1.392 . S
C1450 C1451 1.385 . S
C1450 C1452 1.478 . S
C1451 H1445 0.930 . S
C1451 C1447 1.400 . S
C1451 C1450 1.385 . S
C1452 C1450 1.478 . S
C1452 C1454 1.381 . S
C1452 C1458 1.383 . S
C1453 C1449 1.495 . S
C1453 H1459 0.959 . S
C1453 H1460 0.961 . S
C1453 H1461 0.960 . S
C1454 C1452 1.381 . S
C1454 C1455 1.394 . S
C1454 H1462 0.930 . S
C1455 C1454 1.394 . S
C1455 C1456 1.383 . S
C1455 H1463 0.929 1_556 S
C1456 C1455 1.383 . S
C1456 C1457 1.377 . S
C1457 H1441 0.930 . S
C1457 C1456 1.377 . S
C1457 C1458 1.379 . S
C1458 H1442 0.931 . S
C1458 C1452 1.383 . S
C1458 C1457 1.379 . S
H1459 C1453 0.959 . S
H1460 C1453 0.961 . S
H1461 C1453 0.960 . S
H1462 C1454 0.930 . S
H1463 C1455 0.929 1_554 S
H1464 C1472 0.929 1_556 S
H1465 C1474 0.930 1_556 S
H1466 C1476 0.930 . S
H1467 C1479 0.929 . S
H1468 C1482 0.930 . S
H1469 C1484 0.960 . S
H1470 C1484 0.960 . S
H1471 C1484 0.960 . S
C1472 H1464 0.929 1_554 S
C1472 C1473 1.377 . S
C1472 C1474 1.384 . S
C1473 C1472 1.377 . S
C1473 C1479 1.390 . S
C1474 H1465 0.930 1_554 S
C1474 C1472 1.384 . S
C1474 C1475 1.372 . S
C1475 C1474 1.372 . S
C1475 C1476 1.400 . S
C1475 C1480 1.490 . S
C1476 H1466 0.930 . S
C1476 C1475 1.400 . S
C1476 C1479 1.386 . S
H1477 C1493 0.930 . S
H1478 C1494 0.931 . S
C1479 H1467 0.929 . S
C1479 C1473 1.390 . S
C1479 C1476 1.386 . S
C1480 C1475 1.490 . S
C1480 C1482 1.395 . S
C1480 C1483 1.403 . S
H1481 C1487 0.930 . S
C1482 H1468 0.930 . S
C1482 C1480 1.395 . S
C1482 C1485 1.403 . S
C1483 C1480 1.403 . S
C1483 C1484 1.524 . S
C1483 C1487 1.400 . S
C1484 H1469 0.960 . S
C1484 H1470 0.960 . S
C1484 H1471 0.960 . S
C1484 C1483 1.524 . S
C1485 C1482 1.403 . S
C1485 C1486 1.392 . S
C1485 C1489 1.495 . S
C1486 C1485 1.392 . S
C1486 C1487 1.385 . S
C1486 C1488 1.478 . S
C1487 H1481 0.930 . S
C1487 C1483 1.400 . S
C1487 C1486 1.385 . S
C1488 C1486 1.478 . S
C1488 C1490 1.381 . S
C1488 C1494 1.383 . S
C1489 C1485 1.495 . S
C1489 H1495 0.959 . S
C1489 H1496 0.961 . S
C1489 H1497 0.960 . S
C1490 C1488 1.381 . S
C1490 C1491 1.394 . S
C1490 H1498 0.930 . S
C1491 C1490 1.394 . S
C1491 C1492 1.383 . S
C1491 H1499 0.929 . S
C1492 C1491 1.383 . S
C1492 C1493 1.377 . S
C1493 H1477 0.930 . S
C1493 C1492 1.377 . S
C1493 C1494 1.379 . S
C1494 H1478 0.931 . S
C1494 C1488 1.383 . S
C1494 C1493 1.379 . S
H1495 C1489 0.959 . S
H1496 C1489 0.961 . S
H1497 C1489 0.960 . S
H1498 C1490 0.930 . S
H1499 C1491 0.929 . S
H1500 C1508 0.929 . S
H1501 C1510 0.930 . S
H1502 C1512 0.930 . S
H1503 C1515 0.929 . S
H1504 C1518 0.930 . S
H1505 C1520 0.960 . S
H1506 C1520 0.960 . S
H1507 C1520 0.960 . S
C1508 H1500 0.929 . S
C1508 C1509 1.377 . S
C1508 C1510 1.384 . S
C1509 C1508 1.377 . S
C1509 C1515 1.390 . S
C1510 H1501 0.930 . S
C1510 C1508 1.384 . S
C1510 C1511 1.372 . S
C1511 C1510 1.372 . S
C1511 C1512 1.400 . S
C1511 C1516 1.490 . S
C1512 H1502 0.930 . S
C1512 C1511 1.400 . S
C1512 C1515 1.386 . S
H1513 C1529 0.930 . S
H1514 C1530 0.931 . S
C1515 H1503 0.929 . S
C1515 C1509 1.390 . S
C1515 C1512 1.386 . S
C1516 C1511 1.490 . S
C1516 C1518 1.395 . S
C1516 C1519 1.403 . S
H1517 C1523 0.930 . S
C1518 H1504 0.930 . S
C1518 C1516 1.395 . S
C1518 C1521 1.403 . S
C1519 C1516 1.403 . S
C1519 C1520 1.524 . S
C1519 C1523 1.400 . S
C1520 H1505 0.960 . S
C1520 H1506 0.960 . S
C1520 H1507 0.960 . S
C1520 C1519 1.524 . S
C1521 C1518 1.403 . S
C1521 C1522 1.392 . S
C1521 C1525 1.495 . S
C1522 C1521 1.392 . S
C1522 C1523 1.385 . S
C1522 C1524 1.478 . S
C1523 H1517 0.930 . S
C1523 C1519 1.400 . S
C1523 C1522 1.385 . S
C1524 C1522 1.478 . S
C1524 C1526 1.381 . S
C1524 C1530 1.383 . S
C1525 C1521 1.495 . S
C1525 H1531 0.959 . S
C1525 H1532 0.961 . S
C1525 H1533 0.960 . S
C1526 C1524 1.381 . S
C1526 C1527 1.394 . S
C1526 H1534 0.930 . S
C1527 C1526 1.394 . S
C1527 C1528 1.383 . S
C1527 H1535 0.929 . S
C1528 C1527 1.383 . S
C1528 C1529 1.377 . S
C1529 H1513 0.930 . S
C1529 C1528 1.377 . S
C1529 C1530 1.379 . S
C1530 H1514 0.931 . S
C1530 C1524 1.383 . S
C1530 C1529 1.379 . S
H1531 C1525 0.959 . S
H1532 C1525 0.961 . S
H1533 C1525 0.960 . S
H1534 C1526 0.930 . S
H1535 C1527 0.929 . S
H1536 C1544 0.929 . S
H1537 C1546 0.930 . S
H1538 C1548 0.930 . S
H1539 C1551 0.929 . S
H1540 C1554 0.930 . S
H1541 C1556 0.960 . S
H1542 C1556 0.960 . S
H1543 C1556 0.960 . S
C1544 H1536 0.929 . S
C1544 C1545 1.377 . S
C1544 C1546 1.384 . S
C1545 C1544 1.377 . S
C1545 C1551 1.390 . S
C1546 H1537 0.930 . S
C1546 C1544 1.384 . S
C1546 C1547 1.372 . S
C1547 C1546 1.372 . S
C1547 C1548 1.400 . S
C1547 C1552 1.490 . S
C1548 H1538 0.930 . S
C1548 C1547 1.400 . S
C1548 C1551 1.386 . S
H1549 C1565 0.930 . S
H1550 C1566 0.931 . S
C1551 H1539 0.929 . S
C1551 C1545 1.390 . S
C1551 C1548 1.386 . S
C1552 C1547 1.490 . S
C1552 C1554 1.395 . S
C1552 C1555 1.403 . S
H1553 C1559 0.930 . S
C1554 H1540 0.930 . S
C1554 C1552 1.395 . S
C1554 C1557 1.403 . S
C1555 C1552 1.403 . S
C1555 C1556 1.524 . S
C1555 C1559 1.400 . S
C1556 H1541 0.960 . S
C1556 H1542 0.960 . S
C1556 H1543 0.960 . S
C1556 C1555 1.524 . S
C1557 C1554 1.403 . S
C1557 C1558 1.392 . S
C1557 C1561 1.495 . S
C1558 C1557 1.392 . S
C1558 C1559 1.385 . S
C1558 C1560 1.478 . S
C1559 H1553 0.930 . S
C1559 C1555 1.400 . S
C1559 C1558 1.385 . S
C1560 C1558 1.478 . S
C1560 C1562 1.381 . S
C1560 C1566 1.383 . S
C1561 C1557 1.495 . S
C1561 H1567 0.959 . S
C1561 H1568 0.961 . S
C1561 H1569 0.960 . S
C1562 C1560 1.381 . S
C1562 C1563 1.394 . S
C1562 H1570 0.930 . S
C1563 C1562 1.394 . S
C1563 C1564 1.383 . S
C1563 H1571 0.929 . S
C1564 C1563 1.383 . S
C1564 C1565 1.377 . S
C1565 H1549 0.930 . S
C1565 C1564 1.377 . S
C1565 C1566 1.379 . S
C1566 H1550 0.931 . S
C1566 C1560 1.383 . S
C1566 C1565 1.379 . S
H1567 C1561 0.959 . S
H1568 C1561 0.961 . S
H1569 C1561 0.960 . S
H1570 C1562 0.930 . S
H1571 C1563 0.929 . S
H1572 C1580 0.929 . S
H1573 C1582 0.930 . S
H1574 C1584 0.930 . S
H1575 C1587 0.929 . S
H1576 C1590 0.930 . S
H1577 C1592 0.960 . S
H1578 C1592 0.960 . S
H1579 C1592 0.960 . S
C1580 H1572 0.929 . S
C1580 C1581 1.377 . S
C1580 C1582 1.384 . S
C1581 C1580 1.377 . S
C1581 C1587 1.390 . S
C1582 H1573 0.930 . S
C1582 C1580 1.384 . S
C1582 C1583 1.372 . S
C1583 C1582 1.372 . S
C1583 C1584 1.400 . S
C1583 C1588 1.490 . S
C1584 H1574 0.930 . S
C1584 C1583 1.400 . S
C1584 C1587 1.386 . S
H1585 C1601 0.930 1_556 S
H1586 C1602 0.931 . S
C1587 H1575 0.929 . S
C1587 C1581 1.390 . S
C1587 C1584 1.386 . S
C1588 C1583 1.490 . S
C1588 C1590 1.395 . S
C1588 C1591 1.403 . S
H1589 C1595 0.930 . S
C1590 H1576 0.930 . S
C1590 C1588 1.395 . S
C1590 C1593 1.403 . S
C1591 C1588 1.403 . S
C1591 C1592 1.524 . S
C1591 C1595 1.400 . S
C1592 H1577 0.960 . S
C1592 H1578 0.960 . S
C1592 H1579 0.960 . S
C1592 C1591 1.524 . S
C1593 C1590 1.403 . S
C1593 C1594 1.392 . S
C1593 C1597 1.495 . S
C1594 C1593 1.392 . S
C1594 C1595 1.385 . S
C1594 C1596 1.478 . S
C1595 H1589 0.930 . S
C1595 C1591 1.400 . S
C1595 C1594 1.385 . S
C1596 C1594 1.478 . S
C1596 C1598 1.381 . S
C1596 C1602 1.383 . S
C1597 C1593 1.495 . S
C1597 H1603 0.959 . S
C1597 H1604 0.961 . S
C1597 H1605 0.960 . S
C1598 C1596 1.381 . S
C1598 C1599 1.394 . S
C1598 H1606 0.930 . S
C1599 C1598 1.394 . S
C1599 C1600 1.383 . S
C1599 H1607 0.929 . S
C1600 C1599 1.383 . S
C1600 C1601 1.377 . S
C1601 H1585 0.930 1_554 S
C1601 C1600 1.377 . S
C1601 C1602 1.379 . S
C1602 H1586 0.931 . S
C1602 C1596 1.383 . S
C1602 C1601 1.379 . S
H1603 C1597 0.959 . S
H1604 C1597 0.961 . S
H1605 C1597 0.960 . S
H1606 C1598 0.930 . S
H1607 C1599 0.929 . S
H1608 C1616 0.929 . S
H1609 C1618 0.930 . S
H1610 C1620 0.930 . S
H1611 C1623 0.929 . S
H1612 C1626 0.930 . S
H1613 C1628 0.960 . S
H1614 C1628 0.960 . S
H1615 C1628 0.960 . S
C1616 H1608 0.929 . S
C1616 C1617 1.377 . S
C1616 C1618 1.384 . S
C1617 C1616 1.377 . S
C1617 C1623 1.390 . S
C1618 H1609 0.930 . S
C1618 C1616 1.384 . S
C1618 C1619 1.372 . S
C1619 C1618 1.372 . S
C1619 C1620 1.400 . S
C1619 C1624 1.490 . S
C1620 H1610 0.930 . S
C1620 C1619 1.400 . S
C1620 C1623 1.386 . S
H1621 C1637 0.930 . S
H1622 C1638 0.931 . S
C1623 H1611 0.929 . S
C1623 C1617 1.390 . S
C1623 C1620 1.386 . S
C1624 C1619 1.490 . S
C1624 C1626 1.395 . S
C1624 C1627 1.403 . S
H1625 C1631 0.930 . S
C1626 H1612 0.930 . S
C1626 C1624 1.395 . S
C1626 C1629 1.403 . S
C1627 C1624 1.403 . S
C1627 C1628 1.524 . S
C1627 C1631 1.400 . S
C1628 H1613 0.960 . S
C1628 H1614 0.960 . S
C1628 H1615 0.960 . S
C1628 C1627 1.524 . S
C1629 C1626 1.403 . S
C1629 C1630 1.392 . S
C1629 C1633 1.495 . S
C1630 C1629 1.392 . S
C1630 C1631 1.385 . S
C1630 C1632 1.478 . S
C1631 H1625 0.930 . S
C1631 C1627 1.400 . S
C1631 C1630 1.385 . S
C1632 C1630 1.478 . S
C1632 C1634 1.381 . S
C1632 C1638 1.383 . S
C1633 C1629 1.495 . S
C1633 H1639 0.959 . S
C1633 H1640 0.961 . S
C1633 H1641 0.960 1_556 S
C1634 C1632 1.381 . S
C1634 C1635 1.394 1_556 S
C1634 H1642 0.930 1_556 S
C1635 C1634 1.394 1_554 S
C1635 C1636 1.383 1_554 S
C1635 H1643 0.929 . S
C1636 C1635 1.383 1_556 S
C1636 C1637 1.377 . S
C1637 H1621 0.930 . S
C1637 C1636 1.377 . S
C1637 C1638 1.379 . S
C1638 H1622 0.931 . S
C1638 C1632 1.383 . S
C1638 C1637 1.379 . S
H1639 C1633 0.959 . S
H1640 C1633 0.961 . S
H1641 C1633 0.960 1_554 S
H1642 C1634 0.930 1_554 S
H1643 C1635 0.929 . S
H1644 C1652 0.929 . S
H1645 C1654 0.930 . S
H1646 C1656 0.930 . S
H1647 C1659 0.929 . S
H1648 C1662 0.930 . S
H1649 C1664 0.960 . S
H1650 C1664 0.960 . S
H1651 C1664 0.960 . S
C1652 H1644 0.929 . S
C1652 C1653 1.377 . S
C1652 C1654 1.384 . S
C1653 C1652 1.377 . S
C1653 C1659 1.390 . S
C1654 H1645 0.930 . S
C1654 C1652 1.384 . S
C1654 C1655 1.372 . S
C1655 C1654 1.372 . S
C1655 C1656 1.400 . S
C1655 C1660 1.490 . S
C1656 H1646 0.930 . S
C1656 C1655 1.400 . S
C1656 C1659 1.386 . S
H1657 C1673 0.930 . S
H1658 C1674 0.931 . S
C1659 H1647 0.929 . S
C1659 C1653 1.390 . S
C1659 C1656 1.386 . S
C1660 C1655 1.490 . S
C1660 C1662 1.395 . S
C1660 C1663 1.403 . S
H1661 C1667 0.930 . S
C1662 H1648 0.930 . S
C1662 C1660 1.395 . S
C1662 C1665 1.403 . S
C1663 C1660 1.403 . S
C1663 C1664 1.524 . S
C1663 C1667 1.400 . S
C1664 H1649 0.960 . S
C1664 H1650 0.960 . S
C1664 H1651 0.960 . S
C1664 C1663 1.524 . S
C1665 C1662 1.403 . S
C1665 C1666 1.392 . S
C1665 C1669 1.495 . S
C1666 C1665 1.392 . S
C1666 C1667 1.385 . S
C1666 C1668 1.478 . S
C1667 H1661 0.930 . S
C1667 C1663 1.400 . S
C1667 C1666 1.385 . S
C1668 C1666 1.478 . S
C1668 C1670 1.381 . S
C1668 C1674 1.383 . S
C1669 C1665 1.495 . S
C1669 H1675 0.959 . S
C1669 H1676 0.961 . S
C1669 H1677 0.960 . S
C1670 C1668 1.381 . S
C1670 C1671 1.394 . S
C1670 H1678 0.930 . S
C1671 C1670 1.394 . S
C1671 C1672 1.383 . S
C1671 H1679 0.929 . S
C1672 C1671 1.383 . S
C1672 C1673 1.377 . S
C1673 H1657 0.930 . S
C1673 C1672 1.377 . S
C1673 C1674 1.379 . S
C1674 H1658 0.931 . S
C1674 C1668 1.383 . S
C1674 C1673 1.379 . S
H1675 C1669 0.959 . S
H1676 C1669 0.961 . S
H1677 C1669 0.960 . S
H1678 C1670 0.930 . S
H1679 C1671 0.929 . S
H1680 C1688 0.929 . S
H1681 C1690 0.930 . S
H1682 C1692 0.930 . S
H1683 C1695 0.929 . S
H1684 C1698 0.930 . S
H1685 C1700 0.960 . S
H1686 C1700 0.960 . S
H1687 C1700 0.960 . S
C1688 H1680 0.929 . S
C1688 C1689 1.377 1_556 S
C1688 C1690 1.384 . S
C1689 C1688 1.377 1_554 S
C1689 C1695 1.390 . S
C1690 H1681 0.930 . S
C1690 C1688 1.384 . S
C1690 C1691 1.372 1_556 S
C1691 C1690 1.372 1_554 S
C1691 C1692 1.400 . S
C1691 C1696 1.490 1_554 S
C1692 H1682 0.930 . S
C1692 C1691 1.400 . S
C1692 C1695 1.386 . S
H1693 C1709 0.930 . S
H1694 C1710 0.931 . S
C1695 H1683 0.929 . S
C1695 C1689 1.390 . S
C1695 C1692 1.386 . S
C1696 C1691 1.490 1_556 S
C1696 C1698 1.396 . S
C1696 C1699 1.401 1_546 S
H1697 C1703 0.930 . S
C1698 H1684 0.930 . S
C1698 C1696 1.396 . S
C1698 C1701 1.403 . S
C1699 C1696 1.401 1_564 S
C1699 C1700 1.524 . S
C1699 C1703 1.400 . S
C1700 H1685 0.960 . S
C1700 H1686 0.960 . S
C1700 H1687 0.960 . S
C1700 C1699 1.524 . S
C1701 C1698 1.403 . S
C1701 C1702 1.392 . S
C1701 C1705 1.495 . S
C1702 C1701 1.392 . S
C1702 C1703 1.385 1_546 S
C1702 C1704 1.478 . S
C1703 H1697 0.930 . S
C1703 C1699 1.400 . S
C1703 C1702 1.385 1_564 S
C1704 C1702 1.478 . S
C1704 C1706 1.381 . S
C1704 C1710 1.383 1_556 S
C1705 C1701 1.495 . S
C1705 H1711 0.959 . S
C1705 H1712 0.961 . S
C1705 H1713 0.960 . S
C1706 C1704 1.381 . S
C1706 C1707 1.394 . S
C1706 H1714 0.930 . S
C1707 C1706 1.394 . S
C1707 C1708 1.401 . S
C1707 H1715 0.929 . S
C1708 C1707 1.401 . S
C1708 C1709 1.360 1_556 S
C1709 H1693 0.930 . S
C1709 C1708 1.360 1_554 S
C1709 C1710 1.379 . S
C1710 H1694 0.931 . S
C1710 C1704 1.383 1_554 S
C1710 C1709 1.379 . S
H1711 C1705 0.959 . S
H1712 C1705 0.961 . S
H1713 C1705 0.960 . S
H1714 C1706 0.930 . S
H1715 C1707 0.929 . S
H1716 C1724 0.929 . S
H1717 C1726 0.930 . S
H1718 C1728 0.930 . S
H1719 C1731 0.929 . S
H1720 C1734 0.930 . S
H1721 C1736 0.960 . S
H1722 C1736 0.960 . S
H1723 C1736 0.960 . S
C1724 H1716 0.929 . S
C1724 C1725 1.377 . S
C1724 C1726 1.384 . S
C1725 C1724 1.377 . S
C1725 C1731 1.390 . S
C1726 H1717 0.930 . S
C1726 C1724 1.384 . S
C1726 C1727 1.372 . S
C1727 C1726 1.372 . S
C1727 C1728 1.400 . S
C1727 C1732 1.490 . S
C1728 H1718 0.930 . S
C1728 C1727 1.400 . S
C1728 C1731 1.386 . S
H1729 C1745 0.930 . S
H1730 C1746 0.931 . S
C1731 H1719 0.929 . S
C1731 C1725 1.390 . S
C1731 C1728 1.386 . S
C1732 C1727 1.490 . S
C1732 C1734 1.395 . S
C1732 C1735 1.403 . S
H1733 C1739 0.930 . S
C1734 H1720 0.930 . S
C1734 C1732 1.395 . S
C1734 C1737 1.403 . S
C1735 C1732 1.403 . S
C1735 C1736 1.524 . S
C1735 C1739 1.400 . S
C1736 H1721 0.960 . S
C1736 H1722 0.960 . S
C1736 H1723 0.960 . S
C1736 C1735 1.524 . S
C1737 C1734 1.403 . S
C1737 C1738 1.392 . S
C1737 C1741 1.495 . S
C1738 C1737 1.392 . S
C1738 C1739 1.385 . S
C1738 C1740 1.478 . S
C1739 H1733 0.930 . S
C1739 C1735 1.400 . S
C1739 C1738 1.385 . S
C1740 C1738 1.478 . S
C1740 C1742 1.381 . S
C1740 C1746 1.383 . S
C1741 C1737 1.495 . S
C1741 H1747 0.959 . S
C1741 H1748 0.961 . S
C1741 H1749 0.960 . S
C1742 C1740 1.381 . S
C1742 C1743 1.394 . S
C1742 H1750 0.930 . S
C1743 C1742 1.394 . S
C1743 C1744 1.383 . S
C1743 H1751 0.929 . S
C1744 C1743 1.383 . S
C1744 C1745 1.377 . S
C1745 H1729 0.930 . S
C1745 C1744 1.377 . S
C1745 C1746 1.379 . S
C1746 H1730 0.931 . S
C1746 C1740 1.383 . S
C1746 C1745 1.379 . S
H1747 C1741 0.959 . S
H1748 C1741 0.961 . S
H1749 C1741 0.960 . S
H1750 C1742 0.930 . S
H1751 C1743 0.929 . S
H1752 C1760 0.929 . S
H1753 C1762 0.930 . S
H1754 C1764 0.930 . S
H1755 C1767 0.929 . S
H1756 C1770 0.930 1_565 S
H1757 C1772 0.960 . S
H1758 C1772 0.960 . S
H1759 C1772 0.960 . S
C1760 H1752 0.929 . S
C1760 C1761 1.377 1_565 S
C1760 C1762 1.384 . S
C1761 C1760 1.377 1_545 S
C1761 C1767 1.390 . S
C1762 H1753 0.930 . S
C1762 C1760 1.384 . S
C1762 C1763 1.372 1_565 S
C1763 C1762 1.372 1_545 S
C1763 C1764 1.400 . S
C1763 C1768 1.490 . S
C1764 H1754 0.930 . S
C1764 C1763 1.400 . S
C1764 C1767 1.386 . S
H1765 C1781 0.930 . S
H1766 C1782 0.931 . S
C1767 H1755 0.929 . S
C1767 C1761 1.390 . S
C1767 C1764 1.386 . S
C1768 C1763 1.490 . S
C1768 C1770 1.395 . S
C1768 C1771 1.403 . S
H1769 C1775 0.930 . S
C1770 H1756 0.930 1_545 S
C1770 C1768 1.395 . S
C1770 C1773 1.406 1_455 S
C1771 C1768 1.403 . S
C1771 C1772 1.524 . S
C1771 C1775 1.400 1_455 S
C1772 H1757 0.960 . S
C1772 H1758 0.960 . S
C1772 H1759 0.960 . S
C1772 C1771 1.524 . S
C1773 C1770 1.406 1_655 S
C1773 C1774 1.412 . S
C1773 C1777 1.480 1_545 S
C1774 C1773 1.412 . S
C1774 C1775 1.385 . S
C1774 C1776 1.478 . S
C1775 H1769 0.930 . S
C1775 C1771 1.400 1_655 S
C1775 C1774 1.385 . S
C1776 C1774 1.478 . S
C1776 C1778 1.381 1_545 S
C1776 C1782 1.383 . S
C1777 C1773 1.480 1_565 S
C1777 H1783 0.959 . S
C1777 H1784 0.961 1_565 S
C1777 H1785 0.960 . S
C1778 C1776 1.381 1_565 S
C1778 C1779 1.394 . S
C1778 H1786 0.930 . S
C1779 C1778 1.394 . S
C1779 C1780 1.383 1_565 S
C1779 H1787 0.929 . S
C1780 C1779 1.383 1_545 S
C1780 C1781 1.377 . S
C1781 H1765 0.930 . S
C1781 C1780 1.377 . S
C1781 C1782 1.379 . S
C1782 H1766 0.931 . S
C1782 C1776 1.383 . S
C1782 C1781 1.379 . S
H1783 C1777 0.959 . S
H1784 C1777 0.961 1_545 S
H1785 C1777 0.960 . S
H1786 C1778 0.930 . S
H1787 C1779 0.929 . S
H1788 C1796 0.929 . S
H1789 C1798 0.930 . S
H1790 C1800 0.930 . S
H1791 C1803 0.929 . S
H1792 C1806 0.930 . S
H1793 C1808 0.960 . S
H1794 C1808 0.960 . S
H1795 C1808 0.960 . S
C1796 H1788 0.929 . S
C1796 C1797 1.377 . S
C1796 C1798 1.384 . S
C1797 C1796 1.377 . S
C1797 C1803 1.390 . S
C1798 H1789 0.930 . S
C1798 C1796 1.384 . S
C1798 C1799 1.372 . S
C1799 C1798 1.372 . S
C1799 C1800 1.400 . S
C1799 C1804 1.490 . S
C1800 H1790 0.930 . S
C1800 C1799 1.400 . S
C1800 C1803 1.386 . S
H1801 C1817 0.930 . S
H1802 C1818 0.931 . S
C1803 H1791 0.929 . S
C1803 C1797 1.390 . S
C1803 C1800 1.386 . S
C1804 C1799 1.490 . S
C1804 C1806 1.395 . S
C1804 C1807 1.403 . S
H1805 C1811 0.930 . S
C1806 H1792 0.930 . S
C1806 C1804 1.395 . S
C1806 C1809 1.403 . S
C1807 C1804 1.403 . S
C1807 C1808 1.524 . S
C1807 C1811 1.400 . S
C1808 H1793 0.960 . S
C1808 H1794 0.960 . S
C1808 H1795 0.960 . S
C1808 C1807 1.524 . S
C1809 C1806 1.403 . S
C1809 C1810 1.392 . S
C1809 C1813 1.495 . S
C1810 C1809 1.392 . S
C1810 C1811 1.385 . S
C1810 C1812 1.478 . S
C1811 H1805 0.930 . S
C1811 C1807 1.400 . S
C1811 C1810 1.385 . S
C1812 C1810 1.478 . S
C1812 C1814 1.381 . S
C1812 C1818 1.383 . S
C1813 C1809 1.495 . S
C1813 H1819 0.959 . S
C1813 H1820 0.961 . S
C1813 H1821 0.960 . S
C1814 C1812 1.381 . S
C1814 C1815 1.394 . S
C1814 H1822 0.930 . S
C1815 C1814 1.394 . S
C1815 C1816 1.383 . S
C1815 H1823 0.929 . S
C1816 C1815 1.383 . S
C1816 C1817 1.377 . S
C1817 H1801 0.930 . S
C1817 C1816 1.377 . S
C1817 C1818 1.379 . S
C1818 H1802 0.931 . S
C1818 C1812 1.383 . S
C1818 C1817 1.379 . S
H1819 C1813 0.959 . S
H1820 C1813 0.961 . S
H1821 C1813 0.960 . S
H1822 C1814 0.930 . S
H1823 C1815 0.929 . S
H1824 C1832 0.929 . S
H1825 C1834 0.930 . S
H1826 C1836 0.930 . S
H1827 C1839 0.929 . S
H1828 C1842 0.930 . S
H1829 C1844 0.960 . S
H1830 C1844 0.960 . S
H1831 C1844 0.960 . S
C1832 H1824 0.929 . S
C1832 C1833 1.377 . S
C1832 C1834 1.384 . S
C1833 C1832 1.377 . S
C1833 C1839 1.390 . S
C1834 H1825 0.930 . S
C1834 C1832 1.384 . S
C1834 C1835 1.372 . S
C1835 C1834 1.372 . S
C1835 C1836 1.400 . S
C1835 C1840 1.490 . S
C1836 H1826 0.930 . S
C1836 C1835 1.400 . S
C1836 C1839 1.386 . S
H1837 C1853 0.930 . S
H1838 C1854 0.931 . S
C1839 H1827 0.929 . S
C1839 C1833 1.390 . S
C1839 C1836 1.386 . S
C1840 C1835 1.490 . S
C1840 C1842 1.395 . S
C1840 C1843 1.403 . S
H1841 C1847 0.930 . S
C1842 H1828 0.930 . S
C1842 C1840 1.395 . S
C1842 C1845 1.403 . S
C1843 C1840 1.403 . S
C1843 C1844 1.524 . S
C1843 C1847 1.400 . S
C1844 H1829 0.960 . S
C1844 H1830 0.960 . S
C1844 H1831 0.960 . S
C1844 C1843 1.524 . S
C1845 C1842 1.403 . S
C1845 C1846 1.392 . S
C1845 C1849 1.495 . S
C1846 C1845 1.392 . S
C1846 C1847 1.385 . S
C1846 C1848 1.478 . S
C1847 H1841 0.930 . S
C1847 C1843 1.400 . S
C1847 C1846 1.385 . S
C1848 C1846 1.478 . S
C1848 C1850 1.381 . S
C1848 C1854 1.383 . S
C1849 C1845 1.495 . S
C1849 H1855 0.959 . S
C1849 H1856 0.961 . S
C1849 H1857 0.960 . S
C1850 C1848 1.381 . S
C1850 C1851 1.394 . S
C1850 H1858 0.930 . S
C1851 C1850 1.394 . S
C1851 C1852 1.383 . S
C1851 H1859 0.929 . S
C1852 C1851 1.383 . S
C1852 C1853 1.377 . S
C1853 H1837 0.930 . S
C1853 C1852 1.377 . S
C1853 C1854 1.379 . S
C1854 H1838 0.931 . S
C1854 C1848 1.383 . S
C1854 C1853 1.379 . S
H1855 C1849 0.959 . S
H1856 C1849 0.961 . S
H1857 C1849 0.960 . S
H1858 C1850 0.930 . S
H1859 C1851 0.929 . S
H1860 C1868 0.929 . S
H1861 C1870 0.930 . S
H1862 C1872 0.930 . S
H1863 C1875 0.929 . S
H1864 C1878 0.930 . S
H1865 C1880 0.960 . S
H1866 C1880 0.960 . S
H1867 C1880 0.960 . S
C1868 H1860 0.929 . S
C1868 C1869 1.377 . S
C1868 C1870 1.384 . S
C1869 C1868 1.377 . S
C1869 C1875 1.390 . S
C1870 H1861 0.930 . S
C1870 C1868 1.384 . S
C1870 C1871 1.372 . S
C1871 C1870 1.372 . S
C1871 C1872 1.400 . S
C1871 C1876 1.490 . S
C1872 H1862 0.930 . S
C1872 C1871 1.400 . S
C1872 C1875 1.386 . S
H1873 C1889 0.930 . S
H1874 C1890 0.931 . S
C1875 H1863 0.929 . S
C1875 C1869 1.390 . S
C1875 C1872 1.386 . S
C1876 C1871 1.490 . S
C1876 C1878 1.395 . S
C1876 C1879 1.403 . S
H1877 C1883 0.930 . S
C1878 H1864 0.930 . S
C1878 C1876 1.395 . S
C1878 C1881 1.403 . S
C1879 C1876 1.403 . S
C1879 C1880 1.524 . S
C1879 C1883 1.400 . S
C1880 H1865 0.960 . S
C1880 H1866 0.960 . S
C1880 H1867 0.960 . S
C1880 C1879 1.524 . S
C1881 C1878 1.403 . S
C1881 C1882 1.392 . S
C1881 C1885 1.495 . S
C1882 C1881 1.392 . S
C1882 C1883 1.385 . S
C1882 C1884 1.478 . S
C1883 H1877 0.930 . S
C1883 C1879 1.400 . S
C1883 C1882 1.385 . S
C1884 C1882 1.478 . S
C1884 C1886 1.381 . S
C1884 C1890 1.383 . S
C1885 C1881 1.495 . S
C1885 H1891 0.959 . S
C1885 H1892 0.961 . S
C1885 H1893 0.960 . S
C1886 C1884 1.381 . S
C1886 C1887 1.394 . S
C1886 H1894 0.930 . S
C1887 C1886 1.394 . S
C1887 C1888 1.383 . S
C1887 H1895 0.929 . S
C1888 C1887 1.383 . S
C1888 C1889 1.377 . S
C1889 H1873 0.930 . S
C1889 C1888 1.377 . S
C1889 C1890 1.379 . S
C1890 H1874 0.931 . S
C1890 C1884 1.383 . S
C1890 C1889 1.379 . S
H1891 C1885 0.959 . S
H1892 C1885 0.961 . S
H1893 C1885 0.960 . S
H1894 C1886 0.930 . S
H1895 C1887 0.929 . S
H1896 C1904 0.929 . S
H1897 C1906 0.930 . S
H1898 C1908 0.930 . S
H1899 C1911 0.929 . S
H1900 C1914 0.930 . S
H1901 C1916 0.960 . S
H1902 C1916 0.960 . S
H1903 C1916 0.960 . S
C1904 H1896 0.929 . S
C1904 C1905 1.377 . S
C1904 C1906 1.384 . S
C1905 C1904 1.377 . S
C1905 C1911 1.390 . S
C1906 H1897 0.930 . S
C1906 C1904 1.384 . S
C1906 C1907 1.372 . S
C1907 C1906 1.372 . S
C1907 C1908 1.400 . S
C1907 C1912 1.490 . S
C1908 H1898 0.930 . S
C1908 C1907 1.400 . S
C1908 C1911 1.386 . S
H1909 C1925 0.930 . S
H1910 C1926 0.931 . S
C1911 H1899 0.929 . S
C1911 C1905 1.390 . S
C1911 C1908 1.386 . S
C1912 C1907 1.490 . S
C1912 C1914 1.395 . S
C1912 C1915 1.403 . S
H1913 C1919 0.930 . S
C1914 H1900 0.930 . S
C1914 C1912 1.395 . S
C1914 C1917 1.403 1_655 S
C1915 C1912 1.403 . S
C1915 C1916 1.524 . S
C1915 C1919 1.400 1_655 S
C1916 H1901 0.960 . S
C1916 H1902 0.960 . S
C1916 H1903 0.960 . S
C1916 C1915 1.524 . S
C1917 C1914 1.403 1_455 S
C1917 C1918 1.392 . S
C1917 C1921 1.495 . S
C1918 C1917 1.392 . S
C1918 C1919 1.385 . S
C1918 C1920 1.478 . S
C1919 H1913 0.930 . S
C1919 C1915 1.400 1_455 S
C1919 C1918 1.385 . S
C1920 C1918 1.478 . S
C1920 C1922 1.381 . S
C1920 C1926 1.383 . S
C1921 C1917 1.495 . S
C1921 H1927 0.959 . S
C1921 H1928 0.961 . S
C1921 H1929 0.960 . S
C1922 C1920 1.381 . S
C1922 C1923 1.394 . S
C1922 H1930 0.930 . S
C1923 C1922 1.394 . S
C1923 C1924 1.383 . S
C1923 H1931 0.929 . S
C1924 C1923 1.383 . S
C1924 C1925 1.377 . S
C1925 H1909 0.930 . S
C1925 C1924 1.377 . S
C1925 C1926 1.379 . S
C1926 H1910 0.931 . S
C1926 C1920 1.383 . S
C1926 C1925 1.379 . S
H1927 C1921 0.959 . S
H1928 C1921 0.961 . S
H1929 C1921 0.960 . S
H1930 C1922 0.930 . S
H1931 C1923 0.929 . S
H1932 C1940 0.929 . S
H1933 C1942 0.930 . S
H1934 C1944 0.930 . S
H1935 C1947 0.929 . S
H1936 C1950 0.930 . S
H1937 C1952 0.960 . S
H1938 C1952 0.960 . S
H1939 C1952 0.960 . S
C1940 H1932 0.929 . S
C1940 C1941 1.377 1_556 S
C1940 C1942 1.384 . S
C1941 C1940 1.377 1_554 S
C1941 C1947 1.390 . S
C1942 H1933 0.930 . S
C1942 C1940 1.384 . S
C1942 C1943 1.372 1_556 S
C1943 C1942 1.372 1_554 S
C1943 C1944 1.400 . S
C1943 C1948 1.491 . S
C1944 H1934 0.930 . S
C1944 C1943 1.400 . S
C1944 C1947 1.386 . S
H1945 C1961 0.930 . S
H1946 C1962 0.931 . S
C1947 H1935 0.929 . S
C1947 C1941 1.390 . S
C1947 C1944 1.386 . S
C1948 C1943 1.491 . S
C1948 C1950 1.381 1_554 S
C1948 C1951 1.415 . S
H1949 C1955 0.930 . S
C1950 H1936 0.930 . S
C1950 C1948 1.381 1_556 S
C1950 C1953 1.403 . S
C1951 C1948 1.415 . S
C1951 C1952 1.524 . S
C1951 C1955 1.400 . S
C1952 H1937 0.960 . S
C1952 H1938 0.960 . S
C1952 H1939 0.960 . S
C1952 C1951 1.524 . S
C1953 C1950 1.403 . S
C1953 C1954 1.392 . S
C1953 C1957 1.495 . S
C1954 C1953 1.392 . S
C1954 C1955 1.385 1_556 S
C1954 C1956 1.478 . S
C1955 H1949 0.930 . S
C1955 C1951 1.400 . S
C1955 C1954 1.385 1_554 S
C1956 C1954 1.478 . S
C1956 C1958 1.381 . S
C1956 C1962 1.383 1_556 S
C1957 C1953 1.495 . S
C1957 H1963 0.959 . S
C1957 H1964 0.961 . S
C1957 H1965 0.960 . S
C1958 C1956 1.381 . S
C1958 C1959 1.394 . S
C1958 H1966 0.930 . S
C1959 C1958 1.394 . S
C1959 C1960 1.383 . S
C1959 H1967 0.929 . S
C1960 C1959 1.383 . S
C1960 C1961 1.377 1_556 S
C1961 H1945 0.930 . S
C1961 C1960 1.377 1_554 S
C1961 C1962 1.379 . S
C1962 H1946 0.931 . S
C1962 C1956 1.383 1_554 S
C1962 C1961 1.379 . S
H1963 C1957 0.959 . S
H1964 C1957 0.961 . S
H1965 C1957 0.960 . S
H1966 C1958 0.930 . S
H1967 C1959 0.929 . S
C537 N5 1.388 . S
C556 N14 1.358 1_545 S
C573 N38 1.399 . S
C592 N47 1.395 . S
C609 N80 1.393 1_545 S
C628 N71 1.408 . S
C645 N113 1.385 . S
C664 N104 1.368 1_554 S
C681 N146 1.387 . S
C700 N137 1.382 . S
C717 N179 1.388 . S
C736 N170 1.381 1_554 S
C753 N203 1.391 1_545 S
C772 N212 1.393 . S
C789 N245 1.380 . S
C808 N236 1.380 . S
C825 N269 1.389 . S
C844 N278 1.368 . S
C861 N302 1.399 . S
C880 N311 1.390 1_554 S
C897 N344 1.394 . S
C916 N335 1.393 . S
C933 N368 1.386 . S
C952 N377 1.379 . S
C969 N401 1.389 . S
C988 N410 1.397 . S
C1005 N443 1.387 . S
C1024 N434 1.391 . S
C1041 N467 1.394 . S
C1060 N476 1.396 . S
C1077 N509 1.385 1_554 S
C1096 N500 1.374 . S
C1113 C8 1.300 . S
C1132 C61 1.310 . S
C1149 C74 1.399 . S
C1168 C41 1.387 . S
C1185 C107 1.299 . S
C1204 C94 1.307 . S
C1221 C28 1.199 . S
C1240 C127 1.178 . S
C1257 C193 1.299 . S
C1276 C140 1.303 . S
C1293 C173 1.396 . S
C1312 C206 1.383 . S
C1329 C226 1.299 . S
C1348 C239 1.305 . S
C1365 C259 1.198 . S
C1384 C160 1.213 . S
C1401 C325 1.298 . S
C1420 C272 1.299 . S
C1437 C305 1.396 . S
C1456 C338 1.402 . S
C1473 C358 1.299 . S
C1492 C371 1.287 . S
C1509 C391 1.196 . S
C1528 C292 1.213 . S
C1545 C404 1.300 . S
C1564 C457 1.283 . S
C1581 C437 1.398 . S
C1600 C470 1.406 . S
C1617 C503 1.303 . S
C1636 C490 1.279 . S
C1653 C424 1.202 . S
C1672 C523 1.192 . S
C1689 C17 1.102 . S
C1708 C149 1.102 1_556 S
C1725 C446 1.191 . S
C1744 C50 1.184 . S
C1761 C83 1.191 . S
C1780 C215 1.196 . S
C1797 C512 1.103 . S
C1816 C116 1.106 . S
C1833 C314 1.189 . S
C1852 C182 1.181 . S
C1869 C248 1.102 . S
C1888 C380 1.096 . S
C1905 C281 1.105 . S
C1924 C413 1.104 . S
C1941 C479 1.191 . S
C1960 C347 1.196 1_556 S
