# Generated by pormake.
# Topology crb, (4)-cn, num edge types: 1
# Building blocks:
#     Node 0, Type 0, BuildingBlock: ICAMEG_clean_sbu_1, # of connection points: 4
#     Node 1, Type 0, BuildingBlock: ICAMEG_clean_sbu_1, # of connection points: 4
#     Node 2, Type 0, BuildingBlock: ICAMEG_clean_sbu_1, # of connection points: 4
#     Node 3, Type 0, BuildingBlock: ICAMEG_clean_sbu_1, # of connection points: 4
#     Node 4, Type 0, BuildingBlock: ICAMEG_clean_sbu_1, # of connection points: 4
#     Node 5, Type 0, BuildingBlock: ICAMEG_clean_sbu_1, # of connection points: 4
#     Node 6, Type 0, BuildingBlock: ICAMEG_clean_sbu_1, # of connection points: 4
#     Node 7, Type 0, BuildingBlock: ICAMEG_clean_sbu_1, # of connection points: 4
#     Edge 8, Type (0, 0), BuildingBlock: KIFKEQ_clean_linker_1, # of connection points: 2
#     Edge 9, Type (0, 0), BuildingBlock: KIFKEQ_clean_linker_1, # of connection points: 2
#     Edge 10, Type (0, 0), BuildingBlock: KIFKEQ_clean_linker_1, # of connection points: 2
#     Edge 11, Type (0, 0), BuildingBlock: KIFKEQ_clean_linker_1, # of connection points: 2
#     Edge 12, Type (0, 0), BuildingBlock: KIFKEQ_clean_linker_1, # of connection points: 2
#     Edge 13, Type (0, 0), BuildingBlock: KIFKEQ_clean_linker_1, # of connection points: 2
#     Edge 14, Type (0, 0), BuildingBlock: KIFKEQ_clean_linker_1, # of connection points: 2
#     Edge 15, Type (0, 0), BuildingBlock: KIFKEQ_clean_linker_1, # of connection points: 2
#     Edge 16, Type (0, 0), BuildingBlock: KIFKEQ_clean_linker_1, # of connection points: 2
#     Edge 17, Type (0, 0), BuildingBlock: KIFKEQ_clean_linker_1, # of connection points: 2
#     Edge 18, Type (0, 0), BuildingBlock: KIFKEQ_clean_linker_1, # of connection points: 2
#     Edge 19, Type (0, 0), BuildingBlock: KIFKEQ_clean_linker_1, # of connection points: 2
#     Edge 20, Type (0, 0), BuildingBlock: KIFKEQ_clean_linker_1, # of connection points: 2
#     Edge 21, Type (0, 0), BuildingBlock: KIFKEQ_clean_linker_1, # of connection points: 2
#     Edge 22, Type (0, 0), BuildingBlock: KIFKEQ_clean_linker_1, # of connection points: 2
#     Edge 23, Type (0, 0), BuildingBlock: KIFKEQ_clean_linker_1, # of connection points: 2
# Relax obj value: 0.184
# Max RMSD: 0.234
# Mean RMSD: 0.234
data_MOF--net-crb--node1-ICAMEG_clean_sbu_1--edge1-KIFKEQ_clean_linker_1
_symmetry_space_group_name_H-M    P1
_symmetry_Int_Tables_number       1
_symmetry_cell_setting            triclinic
loop_
_symmetry_equiv_pos_as_xyz
'x, y, z'
_cell_length_a     45.572342
_cell_length_b     45.558205
_cell_length_c     25.557251
_cell_angle_alpha  90.06199
_cell_angle_beta   90.208054
_cell_angle_gamma 89.958749
loop_
_atom_site_label
_atom_site_type_symbol
_atom_site_fract_x
_atom_site_fract_y
_atom_site_fract_z
_atom_type_partial_charge
Co0 Co 0.34436 0.34533 0.95942 0.0
Co1 Co 0.34357 0.3496 0.09244 0.0
O2 O 0.32793 0.33245 0.02696 0.0
C3 C 0.27998 0.33212 0.9348 0.0
O4 O 0.27349 0.3275 0.98409 0.0
C5 C 0.33144 0.28601 0.12124 0.0
O6 O 0.33347 0.27723 0.07248 0.0
O7 O 0.38324 0.33446 0.07435 0.0
O8 O 0.38426 0.35092 0.992 0.0
H9 H 0.41746 0.40589 0.19903 0.0
H10 H 0.31435 0.28735 0.96758 0.0
O11 O 0.3058 0.33988 0.92176 0.0
H12 H 0.41276 0.26539 0.89862 0.0
H13 H 0.35921 0.34318 0.76404 0.0
H14 H 0.38387 0.39399 0.92887 0.0
H15 H 0.39827 0.31632 0.9179 0.0
H16 H 0.33923 0.32574 0.84792 0.0
O17 O 0.33503 0.31291 0.13306 0.0
H18 H 0.39647 0.38472 0.1184 0.0
H19 H 0.32499 0.34984 0.20457 0.0
H20 H 0.40457 0.41197 0.84589 0.0
H21 H 0.32773 0.23621 0.94797 0.0
H22 H 0.39225 0.38652 0.76268 0.0
H23 H 0.37732 0.22487 0.91335 0.0
O24 O 0.33314 0.38664 0.97659 0.0
H25 H 0.23417 0.34173 0.11159 0.0
H26 H 0.31963 0.40747 0.1279 0.0
H27 H 0.2702 0.42654 0.147 0.0
H28 H 0.22702 0.39356 0.13904 0.0
H29 H 0.28399 0.32366 0.09228 0.0
H30 H 0.34536 0.37044 0.28617 0.0
H31 H 0.39186 0.39881 0.28372 0.0
O32 O 0.35264 0.38767 0.05681 0.0
C33 C 0.39717 0.34092 0.03269 0.0
C34 C 0.39715 0.39362 0.2006 0.0
C35 C 0.35671 0.37369 0.24951 0.0
N36 N 0.35946 0.36615 0.15663 0.0
C37 C 0.38512 0.3816 0.15503 0.0
C38 C 0.34533 0.362 0.20316 0.0
C39 C 0.38279 0.38962 0.2481 0.0
C40 C 0.33576 0.28279 0.95177 0.0
N41 N 0.35528 0.30501 0.94333 0.0
C42 C 0.34331 0.25369 0.94106 0.0
C43 C 0.37115 0.24733 0.92176 0.0
C44 C 0.39104 0.27004 0.91352 0.0
C45 C 0.38271 0.29887 0.92467 0.0
C46 C 0.36475 0.35446 0.80004 0.0
C47 C 0.37848 0.38272 0.89288 0.0
C48 C 0.35342 0.34475 0.84767 0.0
N49 N 0.36044 0.35878 0.89337 0.0
C50 C 0.39023 0.39304 0.84598 0.0
C51 C 0.3833 0.37876 0.79931 0.0
C52 C 0.34225 0.40063 1.0167 0.0
C53 C 0.25281 0.35631 0.11529 0.0
C54 C 0.30096 0.39299 0.12403 0.0
C55 C 0.27302 0.40391 0.13508 0.0
C56 C 0.24881 0.38539 0.13064 0.0
N57 N 0.30472 0.36442 0.109 0.0
C58 C 0.28109 0.34616 0.10454 0.0
Co59 Co 0.67213 0.34312 0.09539 0.0
Co60 Co 0.67299 0.34786 0.96248 0.0
O61 O 0.68857 0.33037 0.02771 0.0
C62 C 0.73648 0.32963 0.12035 0.0
O63 O 0.74312 0.32495 0.07111 0.0
C64 C 0.68435 0.28426 0.93219 0.0
O65 O 0.68134 0.27504 0.9805 0.0
O66 O 0.63326 0.33278 0.9802 0.0
O67 O 0.63229 0.34898 0.06278 0.0
H68 H 0.59921 0.40473 0.85667 0.0
H69 H 0.70194 0.28506 0.08627 0.0
O70 O 0.71062 0.33743 0.13314 0.0
H71 H 0.6035 0.26329 0.15508 0.0
H72 H 0.65706 0.3405 0.2907 0.0
H73 H 0.63275 0.39188 0.12644 0.0
H74 H 0.61813 0.31422 0.13651 0.0
H75 H 0.67705 0.32318 0.20666 0.0
O76 O 0.68157 0.31136 0.92122 0.0
H77 H 0.62012 0.38319 0.93698 0.0
H78 H 0.69173 0.34868 0.85045 0.0
H79 H 0.61205 0.40974 0.20959 0.0
H80 H 0.68842 0.23391 0.10515 0.0
H81 H 0.62419 0.384 0.29252 0.0
H82 H 0.63882 0.22267 0.13971 0.0
O83 O 0.68351 0.38443 0.07882 0.0
H84 H 0.78238 0.33972 0.94367 0.0
H85 H 0.69708 0.40582 0.92817 0.0
H86 H 0.74658 0.42481 0.90968 0.0
H87 H 0.78968 0.39165 0.91723 0.0
H88 H 0.73249 0.32172 0.96238 0.0
H89 H 0.67144 0.36965 0.76915 0.0
H90 H 0.62491 0.39802 0.77195 0.0
O91 O 0.66391 0.38579 0.99872 0.0
C92 C 0.61934 0.33922 0.02192 0.0
C93 C 0.61952 0.39245 0.85495 0.0
C94 C 0.66004 0.37274 0.80583 0.0
N95 N 0.65718 0.36475 0.89855 0.0
C96 C 0.63151 0.38022 0.90034 0.0
C97 C 0.67138 0.36083 0.85201 0.0
C98 C 0.63394 0.38866 0.80743 0.0
C99 C 0.68053 0.28054 0.10206 0.0
N100 N 0.66108 0.30281 0.1109 0.0
C101 C 0.67289 0.25143 0.11235 0.0
C102 C 0.64505 0.24512 0.13162 0.0
C103 C 0.62523 0.26789 0.14022 0.0
C104 C 0.63364 0.29673 0.12948 0.0
C105 C 0.6516 0.3519 0.25483 0.0
C106 C 0.63807 0.38049 0.16231 0.0
C107 C 0.66294 0.34226 0.20711 0.0
N108 N 0.65602 0.35645 0.16157 0.0
C109 C 0.62631 0.39073 0.2093 0.0
C110 C 0.63315 0.3763 0.25582 0.0
C111 C 0.67442 0.39858 0.03892 0.0
C112 C 0.76378 0.35437 0.94015 0.0
C113 C 0.71571 0.39127 0.93186 0.0
C114 C 0.7437 0.40214 0.92116 0.0
C115 C 0.76786 0.38352 0.92538 0.0
N116 N 0.71188 0.36264 0.94634 0.0
C117 C 0.73546 0.34428 0.95056 0.0
Co118 Co 0.67302 0.66866 0.0903 0.0
Co119 Co 0.66977 0.67518 0.95784 0.0
O120 O 0.6875 0.68717 0.02525 0.0
C121 C 0.68504 0.73176 0.12442 0.0
O122 O 0.68187 0.74214 0.07686 0.0
C123 C 0.73366 0.68845 0.92913 0.0
O124 O 0.74204 0.69113 0.9781 0.0
O125 O 0.682 0.63379 0.97195 0.0
O126 O 0.66345 0.63128 0.0525 0.0
H127 H 0.60833 0.60926 0.84398 0.0
H128 H 0.73242 0.69483 0.08893 0.0
O129 O 0.68217 0.70444 0.13333 0.0
H130 H 0.74769 0.59105 0.13634 0.0
H131 H 0.67479 0.64347 0.28233 0.0
H132 H 0.6206 0.63294 0.11603 0.0
H133 H 0.69783 0.61022 0.12091 0.0
H134 H 0.69371 0.66579 0.20141 0.0
O135 O 0.70721 0.68187 0.91797 0.0
H136 H 0.63068 0.62615 0.92666 0.0
H137 H 0.67141 0.69714 0.8475 0.0
H138 H 0.60105 0.61005 0.19596 0.0
H139 H 0.78267 0.67665 0.10464 0.0
H140 H 0.62818 0.61525 0.27991 0.0
H141 H 0.79056 0.62437 0.12841 0.0
O142 O 0.63292 0.68404 0.07495 0.0
H143 H 0.68511 0.78447 0.95219 0.0
H144 H 0.61448 0.70432 0.92174 0.0
H145 H 0.5991 0.75547 0.90683 0.0
H146 H 0.63458 0.79601 0.9218 0.0
H147 H 0.69942 0.73305 0.96739 0.0
H148 H 0.64973 0.68083 0.76391 0.0
H149 H 0.61782 0.63666 0.76181 0.0
O150 O 0.63078 0.66833 0.99223 0.0
C151 C 0.67363 0.61908 1.01159 0.0
C152 C 0.62218 0.62855 0.8444 0.0
C153 C 0.64543 0.6687 0.79945 0.0
N154 N 0.65232 0.66263 0.89203 0.0
C155 C 0.63488 0.63824 0.89113 0.0
C156 C 0.65775 0.67776 0.8469 0.0
C157 C 0.62752 0.64393 0.7983 0.0
C158 C 0.73566 0.67212 0.09963 0.0
N159 N 0.7122 0.65368 0.1041 0.0
C160 C 0.76417 0.66192 0.10833 0.0
C161 C 0.76858 0.63259 0.12161 0.0
C162 C 0.74455 0.61387 0.12604 0.0
C163 C 0.71636 0.62485 0.11708 0.0
C164 C 0.66275 0.64105 0.24599 0.0
C165 C 0.6326 0.63527 0.15234 0.0
C166 C 0.67331 0.65374 0.20004 0.0
N167 N 0.6583 0.65069 0.15392 0.0
C168 C 0.62139 0.62227 0.19751 0.0
C169 C 0.63662 0.62521 0.2446 0.0
C170 C 0.6184 0.67796 0.03354 0.0
C171 C 0.6695 0.767 0.94524 0.0
C172 C 0.63005 0.72178 0.92857 0.0
C173 C 0.62122 0.75073 0.91992 0.0
C174 C 0.64113 0.77346 0.9283 0.0
N175 N 0.65799 0.71557 0.94494 0.0
C176 C 0.67755 0.73777 0.95349 0.0
Co177 Co 0.34487 0.66799 0.95366 0.0
Co178 Co 0.34149 0.67982 0.08485 0.0
O179 O 0.32654 0.68756 1.01396 0.0
C180 C 0.33625 0.72981 0.91418 0.0
O181 O 0.34431 0.74071 0.95958 0.0
C182 C 0.28803 0.67028 0.14811 0.0
O183 O 0.29862 0.64414 0.15885 0.0
O184 O 0.333 0.6371 0.07427 0.0
O185 O 0.35457 0.6324 0.99629 0.0
H186 H 0.39972 0.62334 0.21833 0.0
H187 H 0.28426 0.69087 0.94485 0.0
O188 O 0.33543 0.70217 0.90717 0.0
H189 H 0.27672 0.58525 0.90449 0.0
H190 H 0.3533 0.6382 0.76435 0.0
H191 H 0.39986 0.63413 0.93866 0.0
H192 H 0.32467 0.60758 0.92494 0.0
H193 H 0.32965 0.66153 0.84038 0.0
O194 O 0.30092 0.68636 0.11427 0.0
H195 H 0.38063 0.63456 0.1302 0.0
H196 H 0.33393 0.70789 0.19025 0.0
H197 H 0.42414 0.61031 0.86377 0.0
H198 H 0.23587 0.66949 0.92395 0.0
H199 H 0.40085 0.61225 0.77582 0.0
H200 H 0.23189 0.6163 0.9037 0.0
O201 O 0.38331 0.68572 0.97321 0.0
H202 H 0.31691 0.78716 0.07433 0.0
H203 H 0.39307 0.71498 0.12209 0.0
H204 H 0.40357 0.7678 0.13106 0.0
H205 H 0.36529 0.80432 0.10733 0.0
H206 H 0.30749 0.73409 0.06519 0.0
H207 H 0.35246 0.6974 0.27902 0.0
H208 H 0.38562 0.65486 0.29352 0.0
O209 O 0.38263 0.67412 0.05827 0.0
C210 C 0.34345 0.62137 0.03745 0.0
C211 C 0.38527 0.64192 0.21252 0.0
C212 C 0.35876 0.68349 0.24658 0.0
N213 N 0.35613 0.67181 0.155 0.0
C214 C 0.37437 0.64838 0.1627 0.0
C215 C 0.34833 0.68931 0.1962 0.0
C216 C 0.37736 0.65962 0.25469 0.0
C217 C 0.28271 0.66775 0.9357 0.0
N218 N 0.30727 0.65055 0.93589 0.0
C219 C 0.25525 0.65575 0.92404 0.0
C220 C 0.25303 0.6259 0.91273 0.0
C221 C 0.27817 0.60847 0.91317 0.0
C222 C 0.30526 0.62123 0.92492 0.0
C223 C 0.36368 0.6372 0.80247 0.0
C224 C 0.38952 0.63503 0.90058 0.0
C225 C 0.35044 0.65047 0.84566 0.0
N226 N 0.36332 0.64918 0.89401 0.0
C227 C 0.40341 0.62152 0.85828 0.0
C228 C 0.39034 0.62263 0.80894 0.0
C229 C 0.39633 0.68191 1.01702 0.0
C230 C 0.33374 0.77146 0.08494 0.0
C231 C 0.37636 0.7307 0.11125 0.0
C232 C 0.3824 0.7606 0.11665 0.0
C233 C 0.3609 0.78107 0.10338 0.0
N234 N 0.34963 0.72142 0.09327 0.0
C235 C 0.32849 0.74138 0.08006 0.0
Co236 Co 0.84856 0.8444 0.45935 0.0
Co237 Co 0.84306 0.85194 0.59119 0.0
O238 O 0.83011 0.83236 0.52591 0.0
C239 C 0.78515 0.83165 0.42702 0.0
O240 O 0.77528 0.83336 0.47512 0.0
C241 C 0.83225 0.78881 0.62667 0.0
O242 O 0.83596 0.77801 0.57953 0.0
O243 O 0.88384 0.83762 0.5784 0.0
O244 O 0.8865 0.85362 0.49597 0.0
H245 H 0.9117 0.91407 0.69863 0.0
H246 H 0.82073 0.78584 0.4668 0.0
O247 O 0.81226 0.83549 0.41743 0.0
H248 H 0.92354 0.76635 0.41834 0.0
H249 H 0.87243 0.83708 0.26729 0.0
H250 H 0.88594 0.8948 0.4289 0.0
H251 H 0.90596 0.81709 0.42995 0.0
H252 H 0.84995 0.82093 0.34996 0.0
O253 O 0.83453 0.81628 0.63485 0.0
H254 H 0.89386 0.88975 0.61843 0.0
H255 H 0.82092 0.85527 0.70112 0.0
H256 H 0.90901 0.91156 0.34716 0.0
H257 H 0.83729 0.73473 0.45488 0.0
H258 H 0.90231 0.88264 0.26555 0.0
H259 H 0.88907 0.72472 0.43062 0.0
O260 O 0.83431 0.88528 0.47126 0.0
H261 H 0.73358 0.84051 0.60012 0.0
H262 H 0.81601 0.90983 0.61885 0.0
H263 H 0.76539 0.9275 0.63123 0.0
H264 H 0.72373 0.89271 0.62207 0.0
H265 H 0.78456 0.82384 0.58737 0.0
H266 H 0.83814 0.879 0.7823 0.0
H267 H 0.88379 0.90875 0.78137 0.0
O268 O 0.85178 0.88936 0.55269 0.0
C269 C 0.89859 0.84443 0.5379 0.0
C270 C 0.89177 0.90116 0.69954 0.0
C271 C 0.85052 0.88145 0.74651 0.0
N272 N 0.85638 0.87104 0.65499 0.0
C273 C 0.88154 0.88734 0.65421 0.0
C274 C 0.84094 0.86796 0.70043 0.0
C275 C 0.87611 0.89816 0.74595 0.0
C276 C 0.8432 0.78168 0.45571 0.0
N277 N 0.86225 0.80445 0.44878 0.0
C278 C 0.85249 0.75268 0.44924 0.0
C279 C 0.88156 0.74708 0.4357 0.0
C280 C 0.90091 0.77042 0.42883 0.0
C281 C 0.89082 0.79912 0.43561 0.0
C282 C 0.8755 0.84988 0.30258 0.0
C283 C 0.88295 0.88203 0.39363 0.0
C284 C 0.86274 0.84091 0.34951 0.0
N285 N 0.86662 0.85689 0.39433 0.0
C286 C 0.89606 0.89166 0.34742 0.0
C287 C 0.89228 0.87543 0.30164 0.0
C288 C 0.84162 0.9007 0.51083 0.0
C289 C 0.75155 0.85586 0.60436 0.0
C290 C 0.79802 0.89456 0.61449 0.0
C291 C 0.76939 0.90469 0.62173 0.0
C292 C 0.74603 0.88516 0.61661 0.0
N293 N 0.80326 0.86576 0.60251 0.0
C294 C 0.78047 0.84652 0.59737 0.0
Co295 Co 0.17441 0.84765 0.45838 0.0
Co296 Co 0.17009 0.84698 0.5913 0.0
O297 O 0.18737 0.83132 0.52613 0.0
C298 C 0.1879 0.78327 0.43423 0.0
O299 O 0.19248 0.77677 0.48361 0.0
C300 C 0.23361 0.83445 0.62084 0.0
O301 O 0.2423 0.83581 0.57202 0.0
O302 O 0.18507 0.8867 0.57306 0.0
O303 O 0.16843 0.88751 0.4907 0.0
H304 H 0.1133 0.9208 0.69656 0.0
H305 H 0.23257 0.81796 0.46685 0.0
O306 O 0.18018 0.80912 0.42098 0.0
H307 H 0.25378 0.9167 0.39836 0.0
H308 H 0.17661 0.86254 0.26297 0.0
H309 H 0.1254 0.88677 0.42709 0.0
H310 H 0.20297 0.90186 0.41724 0.0
H311 H 0.19413 0.84267 0.34714 0.0
O312 O 0.20679 0.83859 0.63244 0.0
H313 H 0.13465 0.89977 0.61637 0.0
H314 H 0.16985 0.82856 0.7036 0.0
H315 H 0.10733 0.90734 0.34381 0.0
H316 H 0.28359 0.8317 0.44768 0.0
H317 H 0.13298 0.89524 0.26095 0.0
H318 H 0.29455 0.88145 0.41329 0.0
O319 O 0.13324 0.83609 0.47522 0.0
H320 H 0.1783 0.73755 0.6111 0.0
H321 H 0.11234 0.82294 0.62647 0.0
H322 H 0.09342 0.77347 0.64567 0.0
H323 H 0.12651 0.73033 0.63819 0.0
H324 H 0.19621 0.7874 0.59167 0.0
H325 H 0.14908 0.84898 0.78478 0.0
H326 H 0.12046 0.89537 0.78158 0.0
O327 O 0.13198 0.85586 0.55513 0.0
C328 C 0.17845 0.90054 0.53126 0.0
C329 C 0.12569 0.90055 0.69846 0.0
C330 C 0.14579 0.86026 0.74798 0.0
N331 N 0.15341 0.8629 0.65516 0.0
C332 C 0.1378 0.8885 0.65314 0.0
C333 C 0.15759 0.84886 0.70186 0.0
C334 C 0.12973 0.88628 0.74615 0.0
C335 C 0.23697 0.83945 0.45117 0.0
N336 N 0.21461 0.85887 0.44263 0.0
C337 C 0.266 0.8472 0.4407 0.0
C338 C 0.27215 0.87513 0.42152 0.0
C339 C 0.24929 0.89492 0.41317 0.0
C340 C 0.22054 0.88638 0.42408 0.0
C341 C 0.16525 0.86798 0.29881 0.0
C342 C 0.13676 0.88147 0.39126 0.0
C343 C 0.175 0.85671 0.34661 0.0
N344 N 0.16086 0.86362 0.39211 0.0
C345 C 0.12639 0.89315 0.34419 0.0
C346 C 0.14078 0.88634 0.29771 0.0
C347 C 0.11915 0.84516 0.51509 0.0
C348 C 0.16368 0.75618 0.61461 0.0
C349 C 0.12687 0.80429 0.62283 0.0
C350 C 0.11603 0.77632 0.63392 0.0
C351 C 0.13461 0.75213 0.62975 0.0
N352 N 0.15542 0.80809 0.60801 0.0
C353 C 0.17373 0.78447 0.60381 0.0
Co354 Co 0.17753 0.17734 0.58355 0.0
Co355 Co 0.16572 0.17446 0.45223 0.0
O356 O 0.18526 0.19254 0.513 0.0
C357 C 0.16787 0.23063 0.64778 0.0
O358 O 0.14178 0.21995 0.6583 0.0
C359 C 0.22751 0.18298 0.41313 0.0
O360 O 0.23842 0.1747 0.45838 0.0
O361 O 0.18345 0.1359 0.47105 0.0
O362 O 0.17192 0.13628 0.5561 0.0
H363 H 0.10807 0.09559 0.36044 0.0
H364 H 0.23172 0.21144 0.56482 0.0
O365 O 0.18398 0.21782 0.61381 0.0
H366 H 0.26559 0.11512 0.62896 0.0
H367 H 0.19511 0.16569 0.77759 0.0
H368 H 0.13239 0.13796 0.62791 0.0
H369 H 0.21277 0.12563 0.61994 0.0
H370 H 0.20555 0.18457 0.68924 0.0
O371 O 0.19988 0.18401 0.4061 0.0
H372 H 0.13192 0.11953 0.43592 0.0
H373 H 0.15923 0.19014 0.33925 0.0
H374 H 0.12122 0.11853 0.71561 0.0
H375 H 0.28479 0.202 0.57402 0.0
H376 H 0.15269 0.1324 0.79122 0.0
H377 H 0.30203 0.15351 0.60615 0.0
O378 O 0.13479 0.18582 0.57297 0.0
H379 H 0.16721 0.2836 0.4248 0.0
H380 H 0.10532 0.19486 0.42367 0.0
H381 H 0.083 0.24293 0.40413 0.0
H382 H 0.11404 0.28773 0.40442 0.0
H383 H 0.18859 0.23508 0.44475 0.0
H384 H 0.13588 0.16682 0.26264 0.0
H385 H 0.10996 0.11924 0.273 0.0
O386 O 0.13016 0.16464 0.49446 0.0
C387 C 0.17968 0.12272 0.51458 0.0
C388 C 0.11927 0.11633 0.35543 0.0
C389 C 0.13491 0.15629 0.30053 0.0
N390 N 0.14692 0.15625 0.39211 0.0
C391 C 0.13279 0.13003 0.39807 0.0
C392 C 0.14819 0.16934 0.34405 0.0
C393 C 0.12036 0.12961 0.30638 0.0
C394 C 0.23904 0.19039 0.57931 0.0
N395 N 0.21913 0.16919 0.59201 0.0
C396 C 0.26912 0.18512 0.58423 0.0
C397 C 0.27878 0.1579 0.60217 0.0
C398 C 0.25835 0.13634 0.61493 0.0
C399 C 0.22845 0.14239 0.60951 0.0
C400 C 0.18123 0.15949 0.74496 0.0
C401 C 0.14618 0.14413 0.6606 0.0
C402 C 0.18702 0.17011 0.69482 0.0
N403 N 0.16954 0.16243 0.65338 0.0
C404 C 0.13976 0.13303 0.71018 0.0
C405 C 0.15743 0.14082 0.75258 0.0
C406 C 0.11909 0.17551 0.53584 0.0
C407 C 0.15348 0.26423 0.42443 0.0
C408 C 0.11897 0.21425 0.42411 0.0
C409 C 0.10621 0.24141 0.41288 0.0
C410 C 0.12363 0.26653 0.41304 0.0
N411 N 0.14828 0.21216 0.43515 0.0
C412 C 0.16548 0.2367 0.43555 0.0
Co413 Co 0.84981 0.17208 0.60287 0.0
Co414 Co 0.84092 0.17654 0.47114 0.0
O415 O 0.831 0.19056 0.54174 0.0
C416 C 0.78715 0.18088 0.63885 0.0
O417 O 0.77682 0.17566 0.59174 0.0
C418 C 0.84946 0.23079 0.40932 0.0
O419 O 0.87617 0.2213 0.40004 0.0
O420 O 0.88301 0.18657 0.4851 0.0
O421 O 0.88648 0.1639 0.56236 0.0
H422 H 0.90261 0.12178 0.34083 0.0
H423 H 0.82521 0.23201 0.61168 0.0
O424 O 0.81463 0.18002 0.64768 0.0
H425 H 0.92963 0.24183 0.65985 0.0
H426 H 0.87657 0.16234 0.79359 0.0
H427 H 0.88482 0.11781 0.61832 0.0
H428 H 0.90904 0.19354 0.63643 0.0
H429 H 0.85387 0.18618 0.71695 0.0
O430 O 0.83334 0.21706 0.44202 0.0
H431 H 0.88878 0.13973 0.42836 0.0
H432 H 0.81478 0.18367 0.36393 0.0
H433 H 0.90808 0.09339 0.69384 0.0
H434 H 0.84483 0.28071 0.63547 0.0
H435 H 0.90404 0.11566 0.78228 0.0
H436 H 0.89742 0.28585 0.65966 0.0
O437 O 0.83339 0.13337 0.58085 0.0
H438 H 0.73252 0.19662 0.47306 0.0
H439 H 0.80886 0.12364 0.43103 0.0
H440 H 0.75681 0.111 0.41776 0.0
H441 H 0.7182 0.14767 0.43858 0.0
H442 H 0.78487 0.20821 0.48659 0.0
H443 H 0.82787 0.16624 0.27571 0.0
H444 H 0.87206 0.13504 0.26371 0.0
O445 O 0.84787 0.1355 0.49733 0.0
C446 C 0.89818 0.17585 0.52254 0.0
C447 C 0.88331 0.13538 0.34554 0.0
C448 C 0.84136 0.16031 0.309 0.0
N449 N 0.85105 0.16279 0.40137 0.0
C450 C 0.87538 0.14563 0.39504 0.0
C451 C 0.83407 0.17012 0.35908 0.0
C452 C 0.86616 0.14282 0.30229 0.0
C453 C 0.84806 0.23405 0.62256 0.0
N454 N 0.86588 0.20993 0.62294 0.0
C455 C 0.85907 0.26169 0.63583 0.0
C456 C 0.88858 0.26456 0.64936 0.0
C457 C 0.90666 0.23988 0.64946 0.0
C458 C 0.89488 0.21259 0.63604 0.0
C459 C 0.87848 0.15241 0.75526 0.0
C460 C 0.88298 0.12769 0.65662 0.0
C461 C 0.86555 0.16574 0.71172 0.0
N462 N 0.86799 0.15342 0.66311 0.0
C463 C 0.89619 0.11374 0.69927 0.0
C464 C 0.8939 0.12623 0.74888 0.0
C465 C 0.83916 0.12106 0.53717 0.0
C466 C 0.74914 0.18049 0.46369 0.0
C467 C 0.79222 0.13967 0.44061 0.0
C468 C 0.76277 0.13241 0.43279 0.0
C469 C 0.74112 0.15301 0.44443 0.0
N470 N 0.79994 0.16672 0.45943 0.0
C471 C 0.77883 0.18697 0.47104 0.0
H472 H 0.30283 0.43897 0.97203 0.0
H473 H 0.38226 0.43551 0.06447 0.0
H474 H 0.30211 0.49281 0.98142 0.0
H475 H 0.38179 0.48881 0.07278 0.0
H476 H 0.38722 0.58502 1.00791 0.0
H477 H 0.38615 0.53153 1.0022 0.0
H478 H 0.29858 0.53105 0.06579 0.0
H479 H 0.29991 0.58501 0.07277 0.0
C480 C 0.32027 0.44972 0.99366 0.0
C481 C 0.34267 0.43311 1.01726 0.0
C482 C 0.31967 0.48037 0.99955 0.0
C483 C 0.34182 0.49483 0.0281 0.0
C484 C 0.36446 0.47821 0.05064 0.0
C485 C 0.36473 0.44771 0.04574 0.0
C486 C 0.36793 0.57347 0.02156 0.0
C487 C 0.34378 0.58905 0.04141 0.0
C488 C 0.36729 0.54292 1.01805 0.0
C489 C 0.34222 0.52726 0.03317 0.0
C490 C 0.31808 0.54272 0.05354 0.0
C491 C 0.31898 0.57343 0.0582 0.0
H492 H 0.43368 0.35524 0.95204 0.0
H493 H 0.43468 0.32178 0.11029 0.0
H494 H 0.48679 0.35275 0.94931 0.0
H495 H 0.48821 0.31885 0.10708 0.0
H496 H 0.5816 0.32119 0.94371 0.0
H497 H 0.52802 0.31914 0.94675 0.0
H498 H 0.52987 0.35179 0.10547 0.0
H499 H 0.58299 0.35341 0.10291 0.0
C500 C 0.44516 0.34709 0.98624 0.0
C501 C 0.42972 0.33871 0.03149 0.0
C502 C 0.47574 0.34547 0.98443 0.0
C503 C 0.49186 0.33551 0.02784 0.0
C504 C 0.47649 0.32691 0.07306 0.0
C505 C 0.44578 0.32848 0.07487 0.0
C506 C 0.57058 0.32779 0.97931 0.0
C507 C 0.58676 0.33742 0.023 0.0
C508 C 0.53984 0.32673 0.98102 0.0
C509 C 0.52458 0.33524 0.02645 0.0
C510 C 0.54082 0.34459 0.07016 0.0
C511 C 0.57142 0.3457 0.06846 0.0
H512 H 0.63307 0.43361 0.99568 0.0
H513 H 0.71542 0.43659 0.07957 0.0
H514 H 0.63375 0.4869 0.98677 0.0
H515 H 0.71636 0.4904 0.06949 0.0
H516 H 0.71581 0.58177 0.97345 0.0
H517 H 0.71716 0.52791 0.98281 0.0
H518 H 0.63254 0.53016 0.05787 0.0
H519 H 0.63149 0.58352 0.04974 0.0
C520 C 0.65126 0.44574 1.01249 0.0
C521 C 0.67408 0.43102 0.03874 0.0
C522 C 0.65166 0.4762 1.00721 0.0
C523 C 0.67519 0.49265 0.02707 0.0
C524 C 0.69809 0.47808 0.05347 0.0
C525 C 0.69738 0.44746 0.05981 0.0
C526 C 0.69741 0.57059 0.99124 0.0
C527 C 0.67344 0.58668 1.01044 0.0
C528 C 0.69834 0.53995 0.9972 0.0
C529 C 0.67501 0.52503 0.02133 0.0
C530 C 0.65078 0.54114 0.03916 0.0
C531 C 0.65016 0.57162 0.03431 0.0
H532 H 0.43143 0.67254 0.10249 0.0
H533 H 0.43513 0.69644 0.93898 0.0
H534 H 0.48462 0.67346 0.1074 0.0
H535 H 0.48857 0.69814 0.9444 0.0
H536 H 0.58154 0.69987 0.10976 0.0
H537 H 0.52797 0.70377 0.10602 0.0
H538 H 0.52828 0.66414 0.95237 0.0
H539 H 0.5812 0.66088 0.95546 0.0
C540 C 0.44353 0.67832 0.0676 0.0
C541 C 0.42885 0.68425 1.02015 0.0
C542 C 0.47416 0.67906 0.07062 0.0
C543 C 0.49102 0.68578 0.02633 0.0
C544 C 0.47633 0.69241 0.97915 0.0
C545 C 0.44564 0.6916 0.97607 0.0
C546 C 0.57013 0.69207 0.07521 0.0
C547 C 0.58583 0.68015 0.03295 0.0
C548 C 0.53941 0.69421 0.07307 0.0
C549 C 0.52373 0.68446 0.02868 0.0
C550 C 0.53952 0.67248 0.9867 0.0
C551 C 0.57004 0.67039 0.98876 0.0
H552 H 0.79679 0.93617 0.47756 0.0
H553 H 0.88477 0.93776 0.54049 0.0
H554 H 0.79447 0.99015 0.48449 0.0
H555 H 0.88278 0.99139 0.5457 0.0
H556 H 0.87222 0.08718 0.4728 0.0
H557 H 0.87163 0.03388 0.46341 0.0
H558 H 0.80371 0.02795 0.57989 0.0
H559 H 0.80472 0.0817 0.59067 0.0
C560 C 0.81576 0.94813 0.49177 0.0
C561 C 0.84105 0.933 0.50801 0.0
C562 C 0.81432 0.97881 0.49628 0.0
C563 C 0.83841 0.99468 0.51588 0.0
C564 C 0.86394 0.97955 0.5306 0.0
C565 C 0.8651 0.94899 0.52738 0.0
C566 C 0.85707 0.07462 0.49645 0.0
C567 C 0.83852 0.08864 0.53262 0.0
C568 C 0.85678 0.04414 0.49095 0.0
C569 C 0.83747 0.02703 0.52057 0.0
C570 C 0.81859 0.04087 0.55632 0.0
C571 C 0.81934 0.07147 0.56275 0.0
H572 H 0.0837 0.88584 0.55922 0.0
H573 H 0.08153 0.80419 0.47335 0.0
H574 H 0.03035 0.8848 0.56702 0.0
H575 H 0.02772 0.80285 0.48245 0.0
H576 H 0.93591 0.80282 0.57822 0.0
H577 H 0.98985 0.80181 0.57039 0.0
H578 H 0.98751 0.88574 0.49247 0.0
H579 H 0.93406 0.88641 0.49896 0.0
C580 C 0.07176 0.8677 0.54184 0.0
C581 C 0.08671 0.84519 0.51528 0.0
C582 C 0.04128 0.8671 0.54648 0.0
C583 C 0.02506 0.84365 0.52573 0.0
C584 C 0.03987 0.82104 0.49914 0.0
C585 C 0.07049 0.82198 0.49341 0.0
C586 C 0.94708 0.82112 0.56005 0.0
C587 C 0.93097 0.84478 0.53955 0.0
C588 C 0.97776 0.8204 0.55502 0.0
C589 C 0.99267 0.84364 0.53056 0.0
C590 C 0.97652 0.86757 0.51142 0.0
C591 C 0.946 0.86796 0.51531 0.0
H592 H 0.17027 0.08736 0.59928 0.0
H593 H 0.19452 0.08415 0.43599 0.0
H594 H 0.1718 0.0342 0.60351 0.0
H595 H 0.19684 0.03067 0.44073 0.0
H596 H 0.16157 0.93691 0.45175 0.0
H597 H 0.16401 0.98996 0.44807 0.0
H598 H 0.20298 0.99173 0.60241 0.0
H599 H 0.19987 0.93822 0.60674 0.0
C600 C 0.17625 0.07537 0.56428 0.0
C601 C 0.18216 0.09019 0.51713 0.0
C602 C 0.17733 0.04475 0.56691 0.0
C603 C 0.18442 0.02801 0.52252 0.0
C604 C 0.19088 0.04282 0.47556 0.0
C605 C 0.18972 0.07353 0.47287 0.0
C606 C 0.17077 0.94846 0.48503 0.0
C607 C 0.18051 0.93312 0.52966 0.0
C608 C 0.17238 0.97903 0.48265 0.0
C609 C 0.18383 0.99526 0.52477 0.0
C610 C 0.19374 0.97998 0.5694 0.0
C611 C 0.19207 0.94927 0.57185 0.0
H612 H 0.93522 0.21778 0.48258 0.0
H613 H 0.9342 0.1335 0.55966 0.0
H614 H 0.98918 0.21865 0.48947 0.0
H615 H 0.98756 0.13419 0.56564 0.0
H616 H 0.08283 0.13289 0.50067 0.0
H617 H 0.02941 0.13382 0.49561 0.0
H618 H 0.02852 0.21865 0.57085 0.0
H619 H 0.08251 0.2175 0.57687 0.0
C620 C 0.94653 0.19932 0.50014 0.0
C621 C 0.93059 0.17551 0.52027 0.0
C622 C 0.97726 0.19997 0.50469 0.0
C623 C 0.99243 0.17655 0.52839 0.0
C624 C 0.97643 0.15251 0.54721 0.0
C625 C 0.9459 0.15211 0.54363 0.0
C626 C 0.07125 0.15157 0.51686 0.0
C627 C 0.08676 0.175 0.53968 0.0
C628 C 0.0407 0.15213 0.51377 0.0
C629 C 0.02491 0.17639 0.53247 0.0
C630 C 0.04028 0.19981 0.55576 0.0
C631 C 0.07102 0.19898 0.55986 0.0
H632 H 0.28588 0.19874 0.41686 0.0
H633 H 0.21265 0.18911 0.31046 0.0
H634 H 0.31545 0.2189 0.34545 0.0
H635 H 0.2418 0.2094 0.23998 0.0
H636 H 0.30493 0.23196 0.11168 0.0
H637 H 0.28376 0.20226 0.1819 0.0
H638 H 0.31482 0.26504 0.29606 0.0
H639 H 0.33619 0.29427 0.22651 0.0
C640 C 0.2762 0.20058 0.37823 0.0
C641 C 0.2468 0.19258 0.3696 0.0
C642 C 0.29307 0.21226 0.33736 0.0
C643 C 0.28099 0.21585 0.2869 0.0
C644 C 0.25199 0.20666 0.27801 0.0
C645 C 0.23514 0.19528 0.31876 0.0
C646 C 0.30769 0.23909 0.15184 0.0
C647 C 0.32197 0.26566 0.16334 0.0
C648 C 0.29541 0.22219 0.19208 0.0
C649 C 0.29739 0.23136 0.24469 0.0
C650 C 0.31305 0.25712 0.25619 0.0
C651 C 0.3251 0.27406 0.2161 0.0
H652 H 0.73221 0.34282 0.2243 0.0
H653 H 0.78728 0.29709 0.11374 0.0
H654 H 0.76161 0.32379 0.29624 0.0
H655 H 0.8165 0.27752 0.18609 0.0
H656 H 0.87482 0.25899 0.32615 0.0
H657 H 0.85031 0.28707 0.25746 0.0
H658 H 0.76781 0.2772 0.33819 0.0
H659 H 0.79232 0.2497 0.40716 0.0
C660 C 0.75077 0.32887 0.21522 0.0
C661 C 0.75718 0.32131 0.16306 0.0
C662 C 0.76756 0.3178 0.25666 0.0
C663 C 0.79125 0.29875 0.24727 0.0
C664 C 0.79857 0.29229 0.19494 0.0
C665 C 0.78176 0.30348 0.15333 0.0
C666 C 0.85155 0.26329 0.32982 0.0
C667 C 0.8356 0.25199 0.37237 0.0
C668 C 0.83742 0.27917 0.29006 0.0
C669 C 0.80699 0.28427 0.29183 0.0
C670 C 0.79131 0.27406 0.33559 0.0
C671 C 0.80541 0.25818 0.37529 0.0
H672 H 0.72938 0.80815 0.43069 0.0
H673 H 0.79714 0.8344 0.32271 0.0
H674 H 0.70068 0.78844 0.35749 0.0
H675 H 0.76913 0.81415 0.25044 0.0
H676 H 0.70697 0.7882 0.12139 0.0
H677 H 0.72665 0.81684 0.19472 0.0
H678 H 0.7043 0.7466 0.30075 0.0
H679 H 0.68411 0.71865 0.22842 0.0
C680 C 0.73803 0.81001 0.39142 0.0
C681 C 0.76576 0.82255 0.38285 0.0
C682 C 0.72168 0.79853 0.34941 0.0
C683 C 0.73263 0.79945 0.29785 0.0
C684 C 0.75975 0.81324 0.28927 0.0
C685 C 0.77603 0.82462 0.33106 0.0
C686 C 0.70586 0.77913 0.16049 0.0
C687 C 0.69426 0.75095 0.16874 0.0
C688 C 0.71732 0.79545 0.20255 0.0
C689 C 0.7173 0.78401 0.25385 0.0
C690 C 0.70449 0.75637 0.26214 0.0
C691 C 0.69315 0.74013 0.2203 0.0
H692 H 0.17445 0.78692 0.33025 0.0
H693 H 0.22086 0.7328 0.44186 0.0
H694 H 0.19359 0.75731 0.25887 0.0
H695 H 0.24062 0.70343 0.37011 0.0
H696 H 0.26031 0.64485 0.2317 0.0
H697 H 0.23175 0.66922 0.29963 0.0
H698 H 0.23992 0.75141 0.21682 0.0
H699 H 0.26784 0.727 0.14856 0.0
C700 C 0.18857 0.76852 0.33967 0.0
C701 C 0.19628 0.76243 0.39194 0.0
C702 C 0.19972 0.75161 0.29856 0.0
C703 C 0.21903 0.72815 0.30842 0.0
C704 C 0.22564 0.72116 0.36089 0.0
C705 C 0.21434 0.73805 0.40216 0.0
C706 C 0.25552 0.66801 0.22741 0.0
C707 C 0.26649 0.68391 0.18451 0.0
C708 C 0.23936 0.68206 0.26674 0.0
C709 C 0.23367 0.71239 0.26419 0.0
C710 C 0.24351 0.72798 0.22003 0.0
C711 C 0.25964 0.71394 0.18074 0.0
H712 H 0.22535 0.83932 0.72606 0.0
H713 H 0.28744 0.80745 0.612 0.0
H714 H 0.25439 0.81769 0.796 0.0
H715 H 0.31695 0.78605 0.68259 0.0
H716 H 0.32997 0.71497 0.81151 0.0
H717 H 0.3097 0.7442 0.74078 0.0
H718 H 0.30041 0.81789 0.84589 0.0
H719 H 0.32054 0.78823 0.91755 0.0
C720 C 0.24548 0.82805 0.71591 0.0
C721 C 0.25386 0.82483 0.66323 0.0
C722 C 0.2623 0.81584 0.75622 0.0
C723 C 0.28795 0.79994 0.74505 0.0
C724 C 0.29711 0.79787 0.69254 0.0
C725 C 0.28032 0.81029 0.65207 0.0
C726 C 0.32386 0.73748 0.81968 0.0
C727 C 0.32662 0.74913 0.8705 0.0
C728 C 0.31247 0.75438 0.77879 0.0
C729 C 0.30335 0.78343 0.78749 0.0
C730 C 0.30699 0.79548 0.83793 0.0
C731 C 0.31865 0.77856 0.87895 0.0
H732 H 0.28367 0.34526 0.83079 0.0
H733 H 0.22965 0.29905 0.94205 0.0
H734 H 0.25429 0.32571 0.7592 0.0
H735 H 0.20052 0.27889 0.87012 0.0
H736 H 0.14224 0.25843 0.73124 0.0
H737 H 0.16638 0.28731 0.79932 0.0
H738 H 0.24868 0.2792 0.71721 0.0
H739 H 0.2245 0.25096 0.6488 0.0
C740 C 0.26534 0.3311 0.84009 0.0
C741 C 0.25921 0.32356 0.89233 0.0
C742 C 0.24857 0.31971 0.79886 0.0
C743 C 0.22521 0.30034 0.80856 0.0
C744 C 0.21817 0.29391 0.861 0.0
C745 C 0.23493 0.30544 0.90238 0.0
C746 C 0.16538 0.26329 0.72714 0.0
C747 C 0.18138 0.25226 0.68438 0.0
C748 C 0.1793 0.27964 0.76656 0.0
C749 C 0.20959 0.28546 0.76425 0.0
C750 C 0.22528 0.27552 0.72024 0.0
C751 C 0.21137 0.2592 0.68086 0.0
H752 H 0.70827 0.22885 0.94031 0.0
H753 H 0.68168 0.29411 0.82719 0.0
H754 H 0.72877 0.19894 0.86956 0.0
H755 H 0.7025 0.26479 0.75725 0.0
H756 H 0.7298 0.2 0.6337 0.0
H757 H 0.70032 0.22024 0.70518 0.0
H758 H 0.77136 0.20341 0.81341 0.0
H759 H 0.80031 0.18285 0.74286 0.0
C760 C 0.70644 0.23664 0.9004 0.0
C761 C 0.69363 0.26404 0.8896 0.0
C762 C 0.71834 0.21961 0.85985 0.0
C763 C 0.7175 0.22951 0.80759 0.0
C764 C 0.70335 0.25624 0.79676 0.0
C765 C 0.69164 0.27325 0.83713 0.0
C766 C 0.73887 0.2002 0.67292 0.0
C767 C 0.76756 0.19009 0.68231 0.0
C768 C 0.72207 0.21195 0.71388 0.0
C769 C 0.73349 0.21365 0.76516 0.0
C770 C 0.76165 0.20223 0.77473 0.0
C771 C 0.77842 0.19067 0.73395 0.0
H772 H 0.72408 0.68138 0.82427 0.0
H773 H 0.78763 0.7157 0.93413 0.0
H774 H 0.75161 0.70209 0.75222 0.0
H775 H 0.81599 0.73568 0.86137 0.0
H776 H 0.83038 0.80355 0.73005 0.0
H777 H 0.81069 0.77561 0.80231 0.0
H778 H 0.79433 0.7025 0.69842 0.0
H779 H 0.81337 0.73118 0.62499 0.0
C780 C 0.74423 0.69297 0.83313 0.0
C781 C 0.75332 0.69723 0.88534 0.0
C782 C 0.76026 0.70466 0.79148 0.0
C783 C 0.78599 0.72089 0.80064 0.0
C784 C 0.79598 0.72379 0.85273 0.0
C785 C 0.77985 0.71212 0.89455 0.0
C786 C 0.82273 0.78148 0.72234 0.0
C787 C 0.82314 0.76984 0.67127 0.0
C788 C 0.81169 0.76522 0.76423 0.0
C789 C 0.80075 0.7367 0.75657 0.0
C790 C 0.80217 0.72455 0.70581 0.0
C791 C 0.81328 0.74091 0.66367 0.0
loop_
_geom_bond_atom_site_label_1
_geom_bond_atom_site_label_2
_geom_bond_distance
_geom_bond_site_symmetry_2
_ccdc_geom_bond_type
Co0 O2 2.143 1_556 S
Co0 O8 2.074 . S
Co0 O11 2.093 . S
Co0 O24 2.097 . S
Co0 N41 2.151 . S
Co0 N49 2.214 . S
Co1 O2 2.160 . S
Co1 O7 2.058 . S
Co1 O17 2.057 . S
Co1 O32 2.037 . S
Co1 N36 2.145 . S
Co1 N57 2.257 . S
O2 Co0 2.143 1_554 S
O2 Co1 2.160 . S
C3 O4 1.278 . S
C3 O11 1.224 . S
O4 C3 1.278 . S
C5 O6 1.245 . S
C5 O17 1.232 . S
O6 C5 1.245 . S
O7 Co1 2.058 . S
O7 C33 1.269 . S
O8 Co0 2.074 . S
O8 C33 1.257 1_556 S
H9 C34 0.930 . S
H10 C40 0.930 . S
O11 Co0 2.093 . S
O11 C3 1.224 . S
H12 C44 0.929 . S
H13 C46 0.930 . S
H14 C47 0.930 . S
H15 C45 0.929 . S
H16 C48 0.928 . S
O17 Co1 2.057 . S
O17 C5 1.232 . S
H18 C37 0.929 . S
H19 C38 0.929 . S
H20 C50 0.931 . S
H21 C42 0.929 . S
H22 C51 0.930 . S
H23 C43 0.931 . S
O24 Co0 2.097 . S
O24 C52 1.214 . S
H25 C53 0.929 . S
H26 C54 0.929 . S
H27 C55 0.930 . S
H28 C56 0.929 . S
H29 C58 0.930 . S
H30 C35 0.930 . S
H31 C39 0.930 . S
O32 Co1 2.037 . S
O32 C52 1.234 1_554 S
C33 O7 1.269 . S
C33 O8 1.257 1_554 S
C34 H9 0.930 . S
C34 C37 1.388 . S
C34 C39 1.418 . S
C35 H30 0.930 . S
C35 C38 1.404 . S
C35 C39 1.353 . S
N36 Co1 2.145 . S
N36 C37 1.397 . S
N36 C38 1.334 . S
C37 H18 0.929 . S
C37 C34 1.388 . S
C37 N36 1.397 . S
C38 H19 0.929 . S
C38 C35 1.404 . S
C38 N36 1.334 . S
C39 H31 0.930 . S
C39 C34 1.418 . S
C39 C35 1.353 . S
C40 H10 0.930 . S
C40 N41 1.330 . S
C40 C42 1.446 . S
N41 Co0 2.151 . S
N41 C40 1.330 . S
N41 C45 1.418 . S
C42 H21 0.929 . S
C42 C40 1.446 . S
C42 C43 1.332 . S
C43 H23 0.931 . S
C43 C42 1.332 . S
C43 C44 1.267 . S
C44 H12 0.929 . S
C44 C43 1.267 . S
C44 C45 1.251 . S
C45 H15 0.929 . S
C45 N41 1.418 . S
C45 C44 1.251 . S
C46 H13 0.930 . S
C46 C48 1.406 . S
C46 C51 1.261 . S
C47 H14 0.930 . S
C47 N49 1.325 . S
C47 C50 1.357 . S
C48 H16 0.928 . S
C48 C46 1.406 . S
C48 N49 1.261 . S
N49 Co0 2.214 . S
N49 C47 1.325 . S
N49 C48 1.261 . S
C50 H20 0.931 . S
C50 C47 1.357 . S
C50 C51 1.312 . S
C51 H22 0.930 . S
C51 C46 1.261 . S
C51 C50 1.312 . S
C52 O24 1.214 . S
C52 O32 1.234 1_556 S
C53 H25 0.929 . S
C53 C56 1.391 . S
C53 C58 1.391 . S
C54 H26 0.929 . S
C54 C55 1.390 . S
C54 N57 1.391 . S
C55 H27 0.930 . S
C55 C54 1.390 . S
C55 C56 1.392 . S
C56 H28 0.929 . S
C56 C53 1.391 . S
C56 C55 1.392 . S
N57 Co1 2.257 . S
N57 C54 1.391 . S
N57 C58 1.388 . S
C58 H29 0.930 . S
C58 C53 1.391 . S
C58 N57 1.388 . S
Co59 O61 2.143 . S
Co59 O67 2.074 . S
Co59 O70 2.093 . S
Co59 O83 2.097 . S
Co59 N100 2.151 . S
Co59 N108 2.214 . S
Co60 O61 2.160 1_556 S
Co60 O66 2.058 . S
Co60 O76 2.057 . S
Co60 O91 2.037 . S
Co60 N95 2.145 . S
Co60 N116 2.257 . S
O61 Co59 2.143 . S
O61 Co60 2.160 1_554 S
C62 O63 1.278 . S
C62 O70 1.224 . S
O63 C62 1.278 . S
C64 O65 1.245 . S
C64 O76 1.232 . S
O65 C64 1.245 . S
O66 Co60 2.058 . S
O66 C92 1.269 . S
O67 Co59 2.074 . S
O67 C92 1.257 1_554 S
H68 C93 0.930 . S
H69 C99 0.930 . S
O70 Co59 2.093 . S
O70 C62 1.224 . S
H71 C103 0.929 . S
H72 C105 0.930 . S
H73 C106 0.930 . S
H74 C104 0.929 . S
H75 C107 0.928 . S
O76 Co60 2.057 . S
O76 C64 1.232 . S
H77 C96 0.929 . S
H78 C97 0.929 . S
H79 C109 0.931 . S
H80 C101 0.929 . S
H81 C110 0.930 . S
H82 C102 0.931 . S
O83 Co59 2.097 . S
O83 C111 1.214 . S
H84 C112 0.929 . S
H85 C113 0.929 . S
H86 C114 0.930 . S
H87 C115 0.929 . S
H88 C117 0.930 . S
H89 C94 0.930 . S
H90 C98 0.930 . S
O91 Co60 2.037 . S
O91 C111 1.234 1_556 S
C92 O66 1.269 . S
C92 O67 1.257 1_556 S
C93 H68 0.930 . S
C93 C96 1.388 . S
C93 C98 1.418 . S
C94 H89 0.930 . S
C94 C97 1.404 . S
C94 C98 1.353 . S
N95 Co60 2.145 . S
N95 C96 1.397 . S
N95 C97 1.334 . S
C96 H77 0.929 . S
C96 C93 1.388 . S
C96 N95 1.397 . S
C97 H78 0.929 . S
C97 C94 1.404 . S
C97 N95 1.334 . S
C98 H90 0.930 . S
C98 C93 1.418 . S
C98 C94 1.353 . S
C99 H69 0.930 . S
C99 N100 1.330 . S
C99 C101 1.446 . S
N100 Co59 2.151 . S
N100 C99 1.330 . S
N100 C104 1.418 . S
C101 H80 0.929 . S
C101 C99 1.446 . S
C101 C102 1.332 . S
C102 H82 0.931 . S
C102 C101 1.332 . S
C102 C103 1.267 . S
C103 H71 0.929 . S
C103 C102 1.267 . S
C103 C104 1.251 . S
C104 H74 0.929 . S
C104 N100 1.418 . S
C104 C103 1.251 . S
C105 H72 0.930 . S
C105 C107 1.406 . S
C105 C110 1.261 . S
C106 H73 0.930 . S
C106 N108 1.325 . S
C106 C109 1.357 . S
C107 H75 0.928 . S
C107 C105 1.406 . S
C107 N108 1.261 . S
N108 Co59 2.214 . S
N108 C106 1.325 . S
N108 C107 1.261 . S
C109 H79 0.931 . S
C109 C106 1.357 . S
C109 C110 1.312 . S
C110 H81 0.930 . S
C110 C105 1.261 . S
C110 C109 1.312 . S
C111 O83 1.214 . S
C111 O91 1.234 1_554 S
C112 H84 0.929 . S
C112 C115 1.391 . S
C112 C117 1.391 . S
C113 H85 0.929 . S
C113 C114 1.390 . S
C113 N116 1.391 . S
C114 H86 0.930 . S
C114 C113 1.390 . S
C114 C115 1.392 . S
C115 H87 0.929 . S
C115 C112 1.391 . S
C115 C114 1.392 . S
N116 Co60 2.257 . S
N116 C113 1.391 . S
N116 C117 1.388 . S
C117 H88 0.930 . S
C117 C112 1.391 . S
C117 N116 1.388 . S
Co118 O120 2.143 . S
Co118 O126 2.074 . S
Co118 O129 2.093 . S
Co118 O142 2.097 . S
Co118 N159 2.151 . S
Co118 N167 2.214 . S
Co119 O120 2.160 1_556 S
Co119 O125 2.058 . S
Co119 O135 2.057 . S
Co119 O150 2.037 . S
Co119 N154 2.145 . S
Co119 N175 2.257 . S
O120 Co118 2.143 . S
O120 Co119 2.160 1_554 S
C121 O122 1.278 . S
C121 O129 1.224 . S
O122 C121 1.278 . S
C123 O124 1.245 . S
C123 O135 1.232 . S
O124 C123 1.245 . S
O125 Co119 2.058 . S
O125 C151 1.269 . S
O126 Co118 2.074 . S
O126 C151 1.257 1_554 S
H127 C152 0.930 . S
H128 C158 0.930 . S
O129 Co118 2.093 . S
O129 C121 1.224 . S
H130 C162 0.929 . S
H131 C164 0.930 . S
H132 C165 0.930 . S
H133 C163 0.929 . S
H134 C166 0.928 . S
O135 Co119 2.057 . S
O135 C123 1.232 . S
H136 C155 0.929 . S
H137 C156 0.929 . S
H138 C168 0.931 . S
H139 C160 0.929 . S
H140 C169 0.930 . S
H141 C161 0.931 . S
O142 Co118 2.097 . S
O142 C170 1.214 . S
H143 C171 0.929 . S
H144 C172 0.929 . S
H145 C173 0.930 . S
H146 C174 0.929 . S
H147 C176 0.930 . S
H148 C153 0.930 . S
H149 C157 0.930 . S
O150 Co119 2.037 . S
O150 C170 1.234 1_556 S
C151 O125 1.269 . S
C151 O126 1.257 1_556 S
C152 H127 0.930 . S
C152 C155 1.388 . S
C152 C157 1.418 . S
C153 H148 0.930 . S
C153 C156 1.404 . S
C153 C157 1.353 . S
N154 Co119 2.145 . S
N154 C155 1.397 . S
N154 C156 1.334 . S
C155 H136 0.929 . S
C155 C152 1.388 . S
C155 N154 1.397 . S
C156 H137 0.929 . S
C156 C153 1.404 . S
C156 N154 1.334 . S
C157 H149 0.930 . S
C157 C152 1.418 . S
C157 C153 1.353 . S
C158 H128 0.930 . S
C158 N159 1.330 . S
C158 C160 1.446 . S
N159 Co118 2.151 . S
N159 C158 1.330 . S
N159 C163 1.418 . S
C160 H139 0.929 . S
C160 C158 1.446 . S
C160 C161 1.332 . S
C161 H141 0.931 . S
C161 C160 1.332 . S
C161 C162 1.267 . S
C162 H130 0.929 . S
C162 C161 1.267 . S
C162 C163 1.251 . S
C163 H133 0.929 . S
C163 N159 1.418 . S
C163 C162 1.251 . S
C164 H131 0.930 . S
C164 C166 1.406 . S
C164 C169 1.261 . S
C165 H132 0.930 . S
C165 N167 1.325 . S
C165 C168 1.357 . S
C166 H134 0.928 . S
C166 C164 1.406 . S
C166 N167 1.261 . S
N167 Co118 2.214 . S
N167 C165 1.325 . S
N167 C166 1.261 . S
C168 H138 0.931 . S
C168 C165 1.357 . S
C168 C169 1.312 . S
C169 H140 0.930 . S
C169 C164 1.261 . S
C169 C168 1.312 . S
C170 O142 1.214 . S
C170 O150 1.234 1_554 S
C171 H143 0.929 . S
C171 C174 1.391 . S
C171 C176 1.391 . S
C172 H144 0.929 . S
C172 C173 1.390 . S
C172 N175 1.391 . S
C173 H145 0.930 . S
C173 C172 1.390 . S
C173 C174 1.392 . S
C174 H146 0.929 . S
C174 C171 1.391 . S
C174 C173 1.392 . S
N175 Co119 2.257 . S
N175 C172 1.391 . S
N175 C176 1.388 . S
C176 H147 0.930 . S
C176 C171 1.391 . S
C176 N175 1.388 . S
Co177 O179 2.143 1_556 S
Co177 O185 2.074 . S
Co177 O188 2.093 . S
Co177 O201 2.097 . S
Co177 N218 2.151 . S
Co177 N226 2.214 . S
Co178 O179 2.160 . S
Co178 O184 2.058 . S
Co178 O194 2.057 . S
Co178 O209 2.037 . S
Co178 N213 2.145 . S
Co178 N234 2.257 . S
O179 Co177 2.143 1_554 S
O179 Co178 2.160 . S
C180 O181 1.278 . S
C180 O188 1.224 . S
O181 C180 1.278 . S
C182 O183 1.245 . S
C182 O194 1.232 . S
O183 C182 1.245 . S
O184 Co178 2.058 . S
O184 C210 1.269 . S
O185 Co177 2.074 . S
O185 C210 1.257 1_556 S
H186 C211 0.930 . S
H187 C217 0.930 . S
O188 Co177 2.093 . S
O188 C180 1.224 . S
H189 C221 0.929 . S
H190 C223 0.930 . S
H191 C224 0.930 . S
H192 C222 0.929 . S
H193 C225 0.928 . S
O194 Co178 2.057 . S
O194 C182 1.232 . S
H195 C214 0.929 . S
H196 C215 0.929 . S
H197 C227 0.931 . S
H198 C219 0.929 . S
H199 C228 0.930 . S
H200 C220 0.931 . S
O201 Co177 2.097 . S
O201 C229 1.214 . S
H202 C230 0.929 . S
H203 C231 0.929 . S
H204 C232 0.930 . S
H205 C233 0.929 . S
H206 C235 0.930 . S
H207 C212 0.930 . S
H208 C216 0.930 . S
O209 Co178 2.037 . S
O209 C229 1.234 1_554 S
C210 O184 1.269 . S
C210 O185 1.257 1_554 S
C211 H186 0.930 . S
C211 C214 1.388 . S
C211 C216 1.418 . S
C212 H207 0.930 . S
C212 C215 1.404 . S
C212 C216 1.353 . S
N213 Co178 2.145 . S
N213 C214 1.397 . S
N213 C215 1.334 . S
C214 H195 0.929 . S
C214 C211 1.388 . S
C214 N213 1.397 . S
C215 H196 0.929 . S
C215 C212 1.404 . S
C215 N213 1.334 . S
C216 H208 0.930 . S
C216 C211 1.418 . S
C216 C212 1.353 . S
C217 H187 0.930 . S
C217 N218 1.330 . S
C217 C219 1.446 . S
N218 Co177 2.151 . S
N218 C217 1.330 . S
N218 C222 1.418 . S
C219 H198 0.929 . S
C219 C217 1.446 . S
C219 C220 1.332 . S
C220 H200 0.931 . S
C220 C219 1.332 . S
C220 C221 1.267 . S
C221 H189 0.929 . S
C221 C220 1.267 . S
C221 C222 1.251 . S
C222 H192 0.929 . S
C222 N218 1.418 . S
C222 C221 1.251 . S
C223 H190 0.930 . S
C223 C225 1.406 . S
C223 C228 1.261 . S
C224 H191 0.930 . S
C224 N226 1.325 . S
C224 C227 1.357 . S
C225 H193 0.928 . S
C225 C223 1.406 . S
C225 N226 1.261 . S
N226 Co177 2.214 . S
N226 C224 1.325 . S
N226 C225 1.261 . S
C227 H197 0.931 . S
C227 C224 1.357 . S
C227 C228 1.312 . S
C228 H199 0.930 . S
C228 C223 1.261 . S
C228 C227 1.312 . S
C229 O201 1.214 . S
C229 O209 1.234 1_556 S
C230 H202 0.929 . S
C230 C233 1.391 . S
C230 C235 1.391 . S
C231 H203 0.929 . S
C231 C232 1.390 . S
C231 N234 1.391 . S
C232 H204 0.930 . S
C232 C231 1.390 . S
C232 C233 1.392 . S
C233 H205 0.929 . S
C233 C230 1.391 . S
C233 C232 1.392 . S
N234 Co178 2.257 . S
N234 C231 1.391 . S
N234 C235 1.388 . S
C235 H206 0.930 . S
C235 C230 1.391 . S
C235 N234 1.388 . S
Co236 O238 2.143 . S
Co236 O244 2.074 . S
Co236 O247 2.093 . S
Co236 O260 2.097 . S
Co236 N277 2.151 . S
Co236 N285 2.214 . S
Co237 O238 2.160 . S
Co237 O243 2.058 . S
Co237 O253 2.057 . S
Co237 O268 2.037 . S
Co237 N272 2.145 . S
Co237 N293 2.257 . S
O238 Co236 2.143 . S
O238 Co237 2.160 . S
C239 O240 1.278 . S
C239 O247 1.224 . S
O240 C239 1.278 . S
C241 O242 1.245 . S
C241 O253 1.232 . S
O242 C241 1.245 . S
O243 Co237 2.058 . S
O243 C269 1.269 . S
O244 Co236 2.074 . S
O244 C269 1.257 . S
H245 C270 0.930 . S
H246 C276 0.930 . S
O247 Co236 2.093 . S
O247 C239 1.224 . S
H248 C280 0.929 . S
H249 C282 0.930 . S
H250 C283 0.930 . S
H251 C281 0.929 . S
H252 C284 0.928 . S
O253 Co237 2.057 . S
O253 C241 1.232 . S
H254 C273 0.929 . S
H255 C274 0.929 . S
H256 C286 0.931 . S
H257 C278 0.929 . S
H258 C287 0.930 . S
H259 C279 0.931 . S
O260 Co236 2.097 . S
O260 C288 1.214 . S
H261 C289 0.929 . S
H262 C290 0.929 . S
H263 C291 0.930 . S
H264 C292 0.929 . S
H265 C294 0.930 . S
H266 C271 0.930 . S
H267 C275 0.930 . S
O268 Co237 2.037 . S
O268 C288 1.234 . S
C269 O243 1.269 . S
C269 O244 1.257 . S
C270 H245 0.930 . S
C270 C273 1.388 . S
C270 C275 1.418 . S
C271 H266 0.930 . S
C271 C274 1.404 . S
C271 C275 1.353 . S
N272 Co237 2.145 . S
N272 C273 1.397 . S
N272 C274 1.334 . S
C273 H254 0.929 . S
C273 C270 1.388 . S
C273 N272 1.397 . S
C274 H255 0.929 . S
C274 C271 1.404 . S
C274 N272 1.334 . S
C275 H267 0.930 . S
C275 C270 1.418 . S
C275 C271 1.353 . S
C276 H246 0.930 . S
C276 N277 1.330 . S
C276 C278 1.446 . S
N277 Co236 2.151 . S
N277 C276 1.330 . S
N277 C281 1.418 . S
C278 H257 0.929 . S
C278 C276 1.446 . S
C278 C279 1.332 . S
C279 H259 0.931 . S
C279 C278 1.332 . S
C279 C280 1.267 . S
C280 H248 0.929 . S
C280 C279 1.267 . S
C280 C281 1.251 . S
C281 H251 0.929 . S
C281 N277 1.418 . S
C281 C280 1.251 . S
C282 H249 0.930 . S
C282 C284 1.406 . S
C282 C287 1.261 . S
C283 H250 0.930 . S
C283 N285 1.325 . S
C283 C286 1.357 . S
C284 H252 0.928 . S
C284 C282 1.406 . S
C284 N285 1.261 . S
N285 Co236 2.214 . S
N285 C283 1.325 . S
N285 C284 1.261 . S
C286 H256 0.931 . S
C286 C283 1.357 . S
C286 C287 1.312 . S
C287 H258 0.930 . S
C287 C282 1.261 . S
C287 C286 1.312 . S
C288 O260 1.214 . S
C288 O268 1.234 . S
C289 H261 0.929 . S
C289 C292 1.391 . S
C289 C294 1.391 . S
C290 H262 0.929 . S
C290 C291 1.390 . S
C290 N293 1.391 . S
C291 H263 0.930 . S
C291 C290 1.390 . S
C291 C292 1.392 . S
C292 H264 0.929 . S
C292 C289 1.391 . S
C292 C291 1.392 . S
N293 Co237 2.257 . S
N293 C290 1.391 . S
N293 C294 1.388 . S
C294 H265 0.930 . S
C294 C289 1.391 . S
C294 N293 1.388 . S
Co295 O297 2.143 . S
Co295 O303 2.074 . S
Co295 O306 2.093 . S
Co295 O319 2.097 . S
Co295 N336 2.151 . S
Co295 N344 2.214 . S
Co296 O297 2.160 . S
Co296 O302 2.058 . S
Co296 O312 2.057 . S
Co296 O327 2.037 . S
Co296 N331 2.145 . S
Co296 N352 2.257 . S
O297 Co295 2.143 . S
O297 Co296 2.160 . S
C298 O299 1.278 . S
C298 O306 1.224 . S
O299 C298 1.278 . S
C300 O301 1.245 . S
C300 O312 1.232 . S
O301 C300 1.245 . S
O302 Co296 2.058 . S
O302 C328 1.269 . S
O303 Co295 2.074 . S
O303 C328 1.257 . S
H304 C329 0.930 . S
H305 C335 0.930 . S
O306 Co295 2.093 . S
O306 C298 1.224 . S
H307 C339 0.929 . S
H308 C341 0.930 . S
H309 C342 0.930 . S
H310 C340 0.929 . S
H311 C343 0.928 . S
O312 Co296 2.057 . S
O312 C300 1.232 . S
H313 C332 0.929 . S
H314 C333 0.929 . S
H315 C345 0.931 . S
H316 C337 0.929 . S
H317 C346 0.930 . S
H318 C338 0.931 . S
O319 Co295 2.097 . S
O319 C347 1.214 . S
H320 C348 0.929 . S
H321 C349 0.929 . S
H322 C350 0.930 . S
H323 C351 0.929 . S
H324 C353 0.930 . S
H325 C330 0.930 . S
H326 C334 0.930 . S
O327 Co296 2.037 . S
O327 C347 1.234 . S
C328 O302 1.269 . S
C328 O303 1.257 . S
C329 H304 0.930 . S
C329 C332 1.388 . S
C329 C334 1.418 . S
C330 H325 0.930 . S
C330 C333 1.404 . S
C330 C334 1.353 . S
N331 Co296 2.145 . S
N331 C332 1.397 . S
N331 C333 1.334 . S
C332 H313 0.929 . S
C332 C329 1.388 . S
C332 N331 1.397 . S
C333 H314 0.929 . S
C333 C330 1.404 . S
C333 N331 1.334 . S
C334 H326 0.930 . S
C334 C329 1.418 . S
C334 C330 1.353 . S
C335 H305 0.930 . S
C335 N336 1.330 . S
C335 C337 1.446 . S
N336 Co295 2.151 . S
N336 C335 1.330 . S
N336 C340 1.418 . S
C337 H316 0.929 . S
C337 C335 1.446 . S
C337 C338 1.332 . S
C338 H318 0.931 . S
C338 C337 1.332 . S
C338 C339 1.267 . S
C339 H307 0.929 . S
C339 C338 1.267 . S
C339 C340 1.251 . S
C340 H310 0.929 . S
C340 N336 1.418 . S
C340 C339 1.251 . S
C341 H308 0.930 . S
C341 C343 1.406 . S
C341 C346 1.261 . S
C342 H309 0.930 . S
C342 N344 1.325 . S
C342 C345 1.357 . S
C343 H311 0.928 . S
C343 C341 1.406 . S
C343 N344 1.261 . S
N344 Co295 2.214 . S
N344 C342 1.325 . S
N344 C343 1.261 . S
C345 H315 0.931 . S
C345 C342 1.357 . S
C345 C346 1.312 . S
C346 H317 0.930 . S
C346 C341 1.261 . S
C346 C345 1.312 . S
C347 O319 1.214 . S
C347 O327 1.234 . S
C348 H320 0.929 . S
C348 C351 1.391 . S
C348 C353 1.391 . S
C349 H321 0.929 . S
C349 C350 1.390 . S
C349 N352 1.391 . S
C350 H322 0.930 . S
C350 C349 1.390 . S
C350 C351 1.392 . S
C351 H323 0.929 . S
C351 C348 1.391 . S
C351 C350 1.392 . S
N352 Co296 2.257 . S
N352 C349 1.391 . S
N352 C353 1.388 . S
C353 H324 0.930 . S
C353 C348 1.391 . S
C353 N352 1.388 . S
Co354 O356 2.143 . S
Co354 O362 2.074 . S
Co354 O365 2.093 . S
Co354 O378 2.097 . S
Co354 N395 2.151 . S
Co354 N403 2.214 . S
Co355 O356 2.160 . S
Co355 O361 2.058 . S
Co355 O371 2.057 . S
Co355 O386 2.037 . S
Co355 N390 2.145 . S
Co355 N411 2.257 . S
O356 Co354 2.143 . S
O356 Co355 2.160 . S
C357 O358 1.278 . S
C357 O365 1.224 . S
O358 C357 1.278 . S
C359 O360 1.245 . S
C359 O371 1.232 . S
O360 C359 1.245 . S
O361 Co355 2.058 . S
O361 C387 1.269 . S
O362 Co354 2.074 . S
O362 C387 1.257 . S
H363 C388 0.930 . S
H364 C394 0.930 . S
O365 Co354 2.093 . S
O365 C357 1.224 . S
H366 C398 0.929 . S
H367 C400 0.930 . S
H368 C401 0.930 . S
H369 C399 0.929 . S
H370 C402 0.928 . S
O371 Co355 2.057 . S
O371 C359 1.232 . S
H372 C391 0.929 . S
H373 C392 0.929 . S
H374 C404 0.931 . S
H375 C396 0.929 . S
H376 C405 0.930 . S
H377 C397 0.931 . S
O378 Co354 2.097 . S
O378 C406 1.214 . S
H379 C407 0.929 . S
H380 C408 0.929 . S
H381 C409 0.930 . S
H382 C410 0.929 . S
H383 C412 0.930 . S
H384 C389 0.930 . S
H385 C393 0.930 . S
O386 Co355 2.037 . S
O386 C406 1.234 . S
C387 O361 1.269 . S
C387 O362 1.257 . S
C388 H363 0.930 . S
C388 C391 1.388 . S
C388 C393 1.418 . S
C389 H384 0.930 . S
C389 C392 1.404 . S
C389 C393 1.353 . S
N390 Co355 2.145 . S
N390 C391 1.397 . S
N390 C392 1.334 . S
C391 H372 0.929 . S
C391 C388 1.388 . S
C391 N390 1.397 . S
C392 H373 0.929 . S
C392 C389 1.404 . S
C392 N390 1.334 . S
C393 H385 0.930 . S
C393 C388 1.418 . S
C393 C389 1.353 . S
C394 H364 0.930 . S
C394 N395 1.330 . S
C394 C396 1.446 . S
N395 Co354 2.151 . S
N395 C394 1.330 . S
N395 C399 1.418 . S
C396 H375 0.929 . S
C396 C394 1.446 . S
C396 C397 1.332 . S
C397 H377 0.931 . S
C397 C396 1.332 . S
C397 C398 1.267 . S
C398 H366 0.929 . S
C398 C397 1.267 . S
C398 C399 1.251 . S
C399 H369 0.929 . S
C399 N395 1.418 . S
C399 C398 1.251 . S
C400 H367 0.930 . S
C400 C402 1.406 . S
C400 C405 1.261 . S
C401 H368 0.930 . S
C401 N403 1.325 . S
C401 C404 1.357 . S
C402 H370 0.928 . S
C402 C400 1.406 . S
C402 N403 1.261 . S
N403 Co354 2.214 . S
N403 C401 1.325 . S
N403 C402 1.261 . S
C404 H374 0.931 . S
C404 C401 1.357 . S
C404 C405 1.312 . S
C405 H376 0.930 . S
C405 C400 1.261 . S
C405 C404 1.312 . S
C406 O378 1.214 . S
C406 O386 1.234 . S
C407 H379 0.929 . S
C407 C410 1.391 . S
C407 C412 1.391 . S
C408 H380 0.929 . S
C408 C409 1.390 . S
C408 N411 1.391 . S
C409 H381 0.930 . S
C409 C408 1.390 . S
C409 C410 1.392 . S
C410 H382 0.929 . S
C410 C407 1.391 . S
C410 C409 1.392 . S
N411 Co355 2.257 . S
N411 C408 1.391 . S
N411 C412 1.388 . S
C412 H383 0.930 . S
C412 C407 1.391 . S
C412 N411 1.388 . S
Co413 O415 2.143 . S
Co413 O421 2.074 . S
Co413 O424 2.093 . S
Co413 O437 2.097 . S
Co413 N454 2.151 . S
Co413 N462 2.214 . S
Co414 O415 2.160 . S
Co414 O420 2.058 . S
Co414 O430 2.057 . S
Co414 O445 2.037 . S
Co414 N449 2.145 . S
Co414 N470 2.257 . S
O415 Co413 2.143 . S
O415 Co414 2.160 . S
C416 O417 1.278 . S
C416 O424 1.224 . S
O417 C416 1.278 . S
C418 O419 1.245 . S
C418 O430 1.232 . S
O419 C418 1.245 . S
O420 Co414 2.058 . S
O420 C446 1.269 . S
O421 Co413 2.074 . S
O421 C446 1.257 . S
H422 C447 0.930 . S
H423 C453 0.930 . S
O424 Co413 2.093 . S
O424 C416 1.224 . S
H425 C457 0.929 . S
H426 C459 0.930 . S
H427 C460 0.930 . S
H428 C458 0.929 . S
H429 C461 0.928 . S
O430 Co414 2.057 . S
O430 C418 1.232 . S
H431 C450 0.929 . S
H432 C451 0.929 . S
H433 C463 0.931 . S
H434 C455 0.929 . S
H435 C464 0.930 . S
H436 C456 0.931 . S
O437 Co413 2.097 . S
O437 C465 1.214 . S
H438 C466 0.929 . S
H439 C467 0.929 . S
H440 C468 0.930 . S
H441 C469 0.929 . S
H442 C471 0.930 . S
H443 C448 0.930 . S
H444 C452 0.930 . S
O445 Co414 2.037 . S
O445 C465 1.234 . S
C446 O420 1.269 . S
C446 O421 1.257 . S
C447 H422 0.930 . S
C447 C450 1.388 . S
C447 C452 1.418 . S
C448 H443 0.930 . S
C448 C451 1.404 . S
C448 C452 1.353 . S
N449 Co414 2.145 . S
N449 C450 1.397 . S
N449 C451 1.334 . S
C450 H431 0.929 . S
C450 C447 1.388 . S
C450 N449 1.397 . S
C451 H432 0.929 . S
C451 C448 1.404 . S
C451 N449 1.334 . S
C452 H444 0.930 . S
C452 C447 1.418 . S
C452 C448 1.353 . S
C453 H423 0.930 . S
C453 N454 1.330 . S
C453 C455 1.446 . S
N454 Co413 2.151 . S
N454 C453 1.330 . S
N454 C458 1.418 . S
C455 H434 0.929 . S
C455 C453 1.446 . S
C455 C456 1.332 . S
C456 H436 0.931 . S
C456 C455 1.332 . S
C456 C457 1.267 . S
C457 H425 0.929 . S
C457 C456 1.267 . S
C457 C458 1.251 . S
C458 H428 0.929 . S
C458 N454 1.418 . S
C458 C457 1.251 . S
C459 H426 0.930 . S
C459 C461 1.406 . S
C459 C464 1.261 . S
C460 H427 0.930 . S
C460 N462 1.325 . S
C460 C463 1.357 . S
C461 H429 0.928 . S
C461 C459 1.406 . S
C461 N462 1.261 . S
N462 Co413 2.214 . S
N462 C460 1.325 . S
N462 C461 1.261 . S
C463 H433 0.931 . S
C463 C460 1.357 . S
C463 C464 1.312 . S
C464 H435 0.930 . S
C464 C459 1.261 . S
C464 C463 1.312 . S
C465 O437 1.214 . S
C465 O445 1.234 . S
C466 H438 0.929 . S
C466 C469 1.391 . S
C466 C471 1.391 . S
C467 H439 0.929 . S
C467 C468 1.390 . S
C467 N470 1.391 . S
C468 H440 0.930 . S
C468 C467 1.390 . S
C468 C469 1.392 . S
C469 H441 0.929 . S
C469 C466 1.391 . S
C469 C468 1.392 . S
N470 Co414 2.257 . S
N470 C467 1.391 . S
N470 C471 1.388 . S
C471 H442 0.930 . S
C471 C466 1.391 . S
C471 N470 1.388 . S
H472 C480 0.950 . S
H473 C485 0.950 . S
H474 C482 0.950 . S
H475 C484 0.950 . S
H476 C486 0.950 . S
H477 C488 0.950 . S
H478 C490 0.950 . S
H479 C491 0.950 . S
C480 H472 0.950 . S
C480 C481 1.386 1_554 S
C480 C482 1.391 . S
C481 C480 1.386 1_556 S
C481 C485 1.393 . S
C482 H474 0.950 . S
C482 C480 1.391 . S
C482 C483 1.406 . S
C483 C482 1.406 . S
C483 C484 1.391 1_554 S
C483 C489 1.493 . S
C484 H475 0.950 . S
C484 C483 1.391 1_556 S
C484 C485 1.391 . S
C485 H473 0.950 . S
C485 C481 1.393 . S
C485 C484 1.391 . S
C486 H476 0.950 . S
C486 C487 1.386 1_556 S
C486 C488 1.391 . S
C487 C486 1.386 1_554 S
C487 C491 1.393 . S
C488 H477 0.950 . S
C488 C486 1.391 . S
C488 C489 1.400 1_556 S
C489 C483 1.493 . S
C489 C488 1.400 1_554 S
C489 C490 1.398 . S
C490 H478 0.950 . S
C490 C489 1.398 . S
C490 C491 1.391 . S
C491 H479 0.950 . S
C491 C487 1.393 . S
C491 C490 1.391 . S
H492 C500 0.950 . S
H493 C505 0.950 . S
H494 C502 0.950 . S
H495 C504 0.950 . S
H496 C506 0.950 . S
H497 C508 0.950 . S
H498 C510 0.950 . S
H499 C511 0.950 . S
C500 H492 0.950 . S
C500 C501 1.386 . S
C500 C502 1.391 . S
C501 C500 1.386 . S
C501 C505 1.393 1_554 S
C502 H494 0.950 . S
C502 C500 1.391 . S
C502 C503 1.400 . S
C503 C502 1.400 . S
C503 C504 1.398 1_554 S
C503 C509 1.487 1_554 S
C504 H495 0.950 . S
C504 C503 1.398 1_556 S
C504 C505 1.391 . S
C505 H493 0.950 . S
C505 C501 1.393 1_556 S
C505 C504 1.391 . S
C506 H496 0.950 . S
C506 C507 1.386 . S
C506 C508 1.391 . S
C507 C506 1.386 . S
C507 C511 1.393 1_556 S
C508 H497 0.950 . S
C508 C506 1.391 . S
C508 C509 1.417 . S
C509 C503 1.487 1_556 S
C509 C508 1.417 . S
C509 C510 1.386 1_556 S
C510 H498 0.950 . S
C510 C509 1.386 1_554 S
C510 C511 1.391 . S
C511 H499 0.950 . S
C511 C507 1.393 1_554 S
C511 C510 1.391 . S
H512 C520 0.950 . S
H513 C525 0.950 . S
H514 C522 0.950 . S
H515 C524 0.950 . S
H516 C526 0.950 . S
H517 C528 0.950 . S
H518 C530 0.950 . S
H519 C531 0.950 . S
C520 H512 0.950 . S
C520 C521 1.386 1_556 S
C520 C522 1.391 . S
C521 C520 1.386 1_554 S
C521 C525 1.393 . S
C522 H514 0.950 . S
C522 C520 1.391 . S
C522 C523 1.400 1_556 S
C523 C522 1.400 1_554 S
C523 C524 1.398 . S
C523 C529 1.486 1_554 S
C524 H515 0.950 . S
C524 C523 1.398 . S
C524 C525 1.391 . S
C525 H513 0.950 . S
C525 C521 1.393 . S
C525 C524 1.391 . S
C526 H516 0.950 . S
C526 C527 1.386 1_554 S
C526 C528 1.391 . S
C527 C526 1.386 1_556 S
C527 C531 1.393 . S
C528 H517 0.950 . S
C528 C526 1.391 . S
C528 C529 1.391 1_554 S
C529 C523 1.486 1_556 S
C529 C528 1.391 1_556 S
C529 C530 1.413 . S
C530 H518 0.950 . S
C530 C529 1.413 . S
C530 C531 1.391 . S
C531 H519 0.950 . S
C531 C527 1.393 . S
C531 C530 1.391 . S
H532 C540 0.950 . S
H533 C545 0.951 . S
H534 C542 0.950 . S
H535 C544 0.950 . S
H536 C546 0.950 . S
H537 C548 0.950 . S
H538 C550 0.950 1_556 S
H539 C551 0.950 . S
C540 H532 0.950 . S
C540 C541 1.386 . S
C540 C542 1.391 . S
C541 C540 1.386 . S
C541 C545 1.393 . S
C542 H534 0.950 . S
C542 C540 1.391 . S
C542 C543 1.405 . S
C543 C542 1.405 . S
C543 C544 1.397 1_556 S
C543 C549 1.487 1_556 S
C544 H535 0.950 . S
C544 C543 1.397 1_554 S
C544 C545 1.391 1_554 S
C545 H533 0.951 . S
C545 C541 1.393 . S
C545 C544 1.391 1_556 S
C546 H536 0.950 . S
C546 C547 1.386 . S
C546 C548 1.391 . S
C547 C546 1.386 . S
C547 C551 1.393 . S
C548 H537 0.950 . S
C548 C546 1.391 . S
C548 C549 1.400 . S
C549 C543 1.487 1_554 S
C549 C548 1.400 . S
C549 C550 1.398 . S
C550 H538 0.950 1_554 S
C550 C549 1.398 . S
C550 C551 1.391 . S
C551 H539 0.950 . S
C551 C547 1.393 . S
C551 C550 1.391 . S
H552 C560 0.950 . S
H553 C565 0.950 . S
H554 C562 0.950 . S
H555 C564 0.950 . S
H556 C566 0.950 . S
H557 C568 0.950 . S
H558 C570 0.950 . S
H559 C571 0.950 . S
C560 H552 0.950 . S
C560 C561 1.386 . S
C560 C562 1.391 . S
C561 C560 1.386 . S
C561 C565 1.393 . S
C562 H554 0.950 . S
C562 C560 1.391 . S
C562 C563 1.400 . S
C563 C562 1.400 . S
C563 C564 1.398 . S
C563 C569 1.491 1_565 S
C564 H555 0.950 . S
C564 C563 1.398 . S
C564 C565 1.391 . S
C565 H553 0.950 . S
C565 C561 1.393 . S
C565 C564 1.391 . S
C566 H556 0.950 . S
C566 C567 1.386 . S
C566 C568 1.391 . S
C567 C566 1.386 . S
C567 C571 1.393 . S
C568 H557 0.950 . S
C568 C566 1.391 . S
C568 C569 1.400 . S
C569 C563 1.491 1_545 S
C569 C568 1.400 . S
C569 C570 1.398 . S
C570 H558 0.950 . S
C570 C569 1.398 . S
C570 C571 1.391 . S
C571 H559 0.950 . S
C571 C567 1.393 . S
C571 C570 1.391 . S
H572 C580 0.950 . S
H573 C585 0.950 . S
H574 C582 0.950 . S
H575 C584 0.950 . S
H576 C586 0.950 . S
H577 C588 0.950 . S
H578 C590 0.950 . S
H579 C591 0.950 . S
C580 H572 0.950 . S
C580 C581 1.386 . S
C580 C582 1.391 . S
C581 C580 1.386 . S
C581 C585 1.393 . S
C582 H574 0.950 . S
C582 C580 1.391 . S
C582 C583 1.400 . S
C583 C582 1.400 . S
C583 C584 1.398 . S
C583 C589 1.491 1_455 S
C584 H575 0.950 . S
C584 C583 1.398 . S
C584 C585 1.391 . S
C585 H573 0.950 . S
C585 C581 1.393 . S
C585 C584 1.391 . S
C586 H576 0.950 . S
C586 C587 1.386 . S
C586 C588 1.391 . S
C587 C586 1.386 . S
C587 C591 1.393 . S
C588 H577 0.950 . S
C588 C586 1.391 . S
C588 C589 1.400 . S
C589 C583 1.491 1_655 S
C589 C588 1.400 . S
C589 C590 1.398 . S
C590 H578 0.950 . S
C590 C589 1.398 . S
C590 C591 1.391 . S
C591 H579 0.950 . S
C591 C587 1.393 . S
C591 C590 1.391 . S
H592 C600 0.950 . S
H593 C605 0.950 . S
H594 C602 0.950 . S
H595 C604 0.950 . S
H596 C606 0.950 . S
H597 C608 0.950 . S
H598 C610 0.950 . S
H599 C611 0.950 . S
C600 H592 0.950 . S
C600 C601 1.386 . S
C600 C602 1.391 . S
C601 C600 1.386 . S
C601 C605 1.393 . S
C602 H594 0.950 . S
C602 C600 1.391 . S
C602 C603 1.400 . S
C603 C602 1.400 . S
C603 C604 1.398 . S
C603 C609 1.491 1_545 S
C604 H595 0.950 . S
C604 C603 1.398 . S
C604 C605 1.391 . S
C605 H593 0.950 . S
C605 C601 1.393 . S
C605 C604 1.391 . S
C606 H596 0.950 . S
C606 C607 1.386 . S
C606 C608 1.391 . S
C607 C606 1.386 . S
C607 C611 1.393 . S
C608 H597 0.950 . S
C608 C606 1.391 . S
C608 C609 1.400 . S
C609 C603 1.491 1_565 S
C609 C608 1.400 . S
C609 C610 1.398 . S
C610 H598 0.950 . S
C610 C609 1.398 . S
C610 C611 1.391 . S
C611 H599 0.950 . S
C611 C607 1.393 . S
C611 C610 1.391 . S
H612 C620 0.950 . S
H613 C625 0.950 . S
H614 C622 0.950 . S
H615 C624 0.950 . S
H616 C626 0.950 . S
H617 C628 0.950 . S
H618 C630 0.950 . S
H619 C631 0.950 . S
C620 H612 0.950 . S
C620 C621 1.386 . S
C620 C622 1.391 . S
C621 C620 1.386 . S
C621 C625 1.393 . S
C622 H614 0.950 . S
C622 C620 1.391 . S
C622 C623 1.400 . S
C623 C622 1.400 . S
C623 C624 1.398 . S
C623 C629 1.491 1_655 S
C624 H615 0.950 . S
C624 C623 1.398 . S
C624 C625 1.391 . S
C625 H613 0.950 . S
C625 C621 1.393 . S
C625 C624 1.391 . S
C626 H616 0.950 . S
C626 C627 1.386 . S
C626 C628 1.391 . S
C627 C626 1.386 . S
C627 C631 1.393 . S
C628 H617 0.950 . S
C628 C626 1.391 . S
C628 C629 1.400 . S
C629 C623 1.491 1_455 S
C629 C628 1.400 . S
C629 C630 1.398 . S
C630 H618 0.950 . S
C630 C629 1.398 . S
C630 C631 1.391 . S
C631 H619 0.950 . S
C631 C627 1.393 . S
C631 C630 1.391 . S
H632 C640 0.950 . S
H633 C645 0.950 . S
H634 C642 0.950 . S
H635 C644 0.950 . S
H636 C646 0.950 . S
H637 C648 0.950 . S
H638 C650 0.950 . S
H639 C651 0.950 . S
C640 H632 0.950 . S
C640 C641 1.386 . S
C640 C642 1.391 . S
C641 C640 1.386 . S
C641 C645 1.393 . S
C642 H634 0.950 . S
C642 C640 1.391 . S
C642 C643 1.400 . S
C643 C642 1.400 . S
C643 C644 1.398 . S
C643 C649 1.491 . S
C644 H635 0.950 . S
C644 C643 1.398 . S
C644 C645 1.391 . S
C645 H633 0.950 . S
C645 C641 1.393 . S
C645 C644 1.391 . S
C646 H636 0.950 . S
C646 C647 1.386 . S
C646 C648 1.391 . S
C647 C646 1.386 . S
C647 C651 1.393 . S
C648 H637 0.950 . S
C648 C646 1.391 . S
C648 C649 1.400 . S
C649 C643 1.491 . S
C649 C648 1.400 . S
C649 C650 1.398 . S
C650 H638 0.950 . S
C650 C649 1.398 . S
C650 C651 1.391 . S
C651 H639 0.950 . S
C651 C647 1.393 . S
C651 C650 1.391 . S
H652 C660 0.950 . S
H653 C665 0.950 . S
H654 C662 0.950 . S
H655 C664 0.950 . S
H656 C666 0.950 . S
H657 C668 0.950 . S
H658 C670 0.950 . S
H659 C671 0.950 . S
C660 H652 0.950 . S
C660 C661 1.386 . S
C660 C662 1.391 . S
C661 C660 1.386 . S
C661 C665 1.393 . S
C662 H654 0.950 . S
C662 C660 1.391 . S
C662 C663 1.400 . S
C663 C662 1.400 . S
C663 C664 1.398 . S
C663 C669 1.491 . S
C664 H655 0.950 . S
C664 C663 1.398 . S
C664 C665 1.391 . S
C665 H653 0.950 . S
C665 C661 1.393 . S
C665 C664 1.391 . S
C666 H656 0.950 . S
C666 C667 1.386 . S
C666 C668 1.391 . S
C667 C666 1.386 . S
C667 C671 1.393 . S
C668 H657 0.950 . S
C668 C666 1.391 . S
C668 C669 1.400 . S
C669 C663 1.491 . S
C669 C668 1.400 . S
C669 C670 1.398 . S
C670 H658 0.950 . S
C670 C669 1.398 . S
C670 C671 1.391 . S
C671 H659 0.950 . S
C671 C667 1.393 . S
C671 C670 1.391 . S
H672 C680 0.950 . S
H673 C685 0.950 . S
H674 C682 0.950 . S
H675 C684 0.950 . S
H676 C686 0.950 . S
H677 C688 0.950 . S
H678 C690 0.950 . S
H679 C691 0.950 . S
C680 H672 0.950 . S
C680 C681 1.386 . S
C680 C682 1.391 . S
C681 C680 1.386 . S
C681 C685 1.393 . S
C682 H674 0.950 . S
C682 C680 1.391 . S
C682 C683 1.400 . S
C683 C682 1.400 . S
C683 C684 1.398 . S
C683 C689 1.491 . S
C684 H675 0.950 . S
C684 C683 1.398 . S
C684 C685 1.391 . S
C685 H673 0.950 . S
C685 C681 1.393 . S
C685 C684 1.391 . S
C686 H676 0.950 . S
C686 C687 1.386 . S
C686 C688 1.391 . S
C687 C686 1.386 . S
C687 C691 1.393 . S
C688 H677 0.950 . S
C688 C686 1.391 . S
C688 C689 1.400 . S
C689 C683 1.491 . S
C689 C688 1.400 . S
C689 C690 1.398 . S
C690 H678 0.950 . S
C690 C689 1.398 . S
C690 C691 1.391 . S
C691 H679 0.950 . S
C691 C687 1.393 . S
C691 C690 1.391 . S
H692 C700 0.950 . S
H693 C705 0.950 . S
H694 C702 0.950 . S
H695 C704 0.950 . S
H696 C706 0.950 . S
H697 C708 0.950 . S
H698 C710 0.950 . S
H699 C711 0.950 . S
C700 H692 0.950 . S
C700 C701 1.386 . S
C700 C702 1.391 . S
C701 C700 1.386 . S
C701 C705 1.393 . S
C702 H694 0.950 . S
C702 C700 1.391 . S
C702 C703 1.400 . S
C703 C702 1.400 . S
C703 C704 1.398 . S
C703 C709 1.491 . S
C704 H695 0.950 . S
C704 C703 1.398 . S
C704 C705 1.391 . S
C705 H693 0.950 . S
C705 C701 1.393 . S
C705 C704 1.391 . S
C706 H696 0.950 . S
C706 C707 1.386 . S
C706 C708 1.391 . S
C707 C706 1.386 . S
C707 C711 1.393 . S
C708 H697 0.950 . S
C708 C706 1.391 . S
C708 C709 1.400 . S
C709 C703 1.491 . S
C709 C708 1.400 . S
C709 C710 1.398 . S
C710 H698 0.950 . S
C710 C709 1.398 . S
C710 C711 1.391 . S
C711 H699 0.950 . S
C711 C707 1.393 . S
C711 C710 1.391 . S
H712 C720 0.950 . S
H713 C725 0.950 . S
H714 C722 0.950 . S
H715 C724 0.950 . S
H716 C726 0.950 . S
H717 C728 0.950 . S
H718 C730 0.950 . S
H719 C731 0.950 . S
C720 H712 0.950 . S
C720 C721 1.386 . S
C720 C722 1.391 . S
C721 C720 1.386 . S
C721 C725 1.393 . S
C722 H714 0.950 . S
C722 C720 1.391 . S
C722 C723 1.400 . S
C723 C722 1.400 . S
C723 C724 1.398 . S
C723 C729 1.491 . S
C724 H715 0.950 . S
C724 C723 1.398 . S
C724 C725 1.391 . S
C725 H713 0.950 . S
C725 C721 1.393 . S
C725 C724 1.391 . S
C726 H716 0.950 . S
C726 C727 1.386 . S
C726 C728 1.391 . S
C727 C726 1.386 . S
C727 C731 1.393 . S
C728 H717 0.950 . S
C728 C726 1.391 . S
C728 C729 1.400 . S
C729 C723 1.491 . S
C729 C728 1.400 . S
C729 C730 1.398 . S
C730 H718 0.950 . S
C730 C729 1.398 . S
C730 C731 1.391 . S
C731 H719 0.950 . S
C731 C727 1.393 . S
C731 C730 1.391 . S
H732 C740 0.950 . S
H733 C745 0.950 . S
H734 C742 0.950 . S
H735 C744 0.950 . S
H736 C746 0.950 . S
H737 C748 0.950 . S
H738 C750 0.950 . S
H739 C751 0.950 . S
C740 H732 0.950 . S
C740 C741 1.386 . S
C740 C742 1.391 . S
C741 C740 1.386 . S
C741 C745 1.393 . S
C742 H734 0.950 . S
C742 C740 1.391 . S
C742 C743 1.400 . S
C743 C742 1.400 . S
C743 C744 1.398 . S
C743 C749 1.491 . S
C744 H735 0.950 . S
C744 C743 1.398 . S
C744 C745 1.391 . S
C745 H733 0.950 . S
C745 C741 1.393 . S
C745 C744 1.391 . S
C746 H736 0.950 . S
C746 C747 1.386 . S
C746 C748 1.391 . S
C747 C746 1.386 . S
C747 C751 1.393 . S
C748 H737 0.950 . S
C748 C746 1.391 . S
C748 C749 1.400 . S
C749 C743 1.491 . S
C749 C748 1.400 . S
C749 C750 1.398 . S
C750 H738 0.950 . S
C750 C749 1.398 . S
C750 C751 1.391 . S
C751 H739 0.950 . S
C751 C747 1.393 . S
C751 C750 1.391 . S
H752 C760 0.950 . S
H753 C765 0.950 . S
H754 C762 0.950 . S
H755 C764 0.950 . S
H756 C766 0.950 . S
H757 C768 0.950 . S
H758 C770 0.950 . S
H759 C771 0.950 . S
C760 H752 0.950 . S
C760 C761 1.386 . S
C760 C762 1.391 . S
C761 C760 1.386 . S
C761 C765 1.393 . S
C762 H754 0.950 . S
C762 C760 1.391 . S
C762 C763 1.400 . S
C763 C762 1.400 . S
C763 C764 1.398 . S
C763 C769 1.491 . S
C764 H755 0.950 . S
C764 C763 1.398 . S
C764 C765 1.391 . S
C765 H753 0.950 . S
C765 C761 1.393 . S
C765 C764 1.391 . S
C766 H756 0.950 . S
C766 C767 1.386 . S
C766 C768 1.391 . S
C767 C766 1.386 . S
C767 C771 1.393 . S
C768 H757 0.950 . S
C768 C766 1.391 . S
C768 C769 1.400 . S
C769 C763 1.491 . S
C769 C768 1.400 . S
C769 C770 1.398 . S
C770 H758 0.950 . S
C770 C769 1.398 . S
C770 C771 1.391 . S
C771 H759 0.950 . S
C771 C767 1.393 . S
C771 C770 1.391 . S
H772 C780 0.950 . S
H773 C785 0.950 . S
H774 C782 0.950 . S
H775 C784 0.950 . S
H776 C786 0.950 . S
H777 C788 0.950 . S
H778 C790 0.950 . S
H779 C791 0.950 . S
C780 H772 0.950 . S
C780 C781 1.386 . S
C780 C782 1.391 . S
C781 C780 1.386 . S
C781 C785 1.393 . S
C782 H774 0.950 . S
C782 C780 1.391 . S
C782 C783 1.400 . S
C783 C782 1.400 . S
C783 C784 1.398 . S
C783 C789 1.491 . S
C784 H775 0.950 . S
C784 C783 1.398 . S
C784 C785 1.391 . S
C785 H773 0.950 . S
C785 C781 1.393 . S
C785 C784 1.391 . S
C786 H776 0.950 . S
C786 C787 1.386 . S
C786 C788 1.391 . S
C787 C786 1.386 . S
C787 C791 1.393 . S
C788 H777 0.950 . S
C788 C786 1.391 . S
C788 C789 1.400 . S
C789 C783 1.491 . S
C789 C788 1.400 . S
C789 C790 1.398 . S
C790 H778 0.950 . S
C790 C789 1.398 . S
C790 C791 1.391 . S
C791 H779 0.950 . S
C791 C787 1.393 . S
C791 C790 1.391 . S
C481 C52 1.667 . S
C487 C210 1.668 . S
C501 C33 1.677 . S
C507 C92 1.677 . S
C521 C111 1.680 . S
C527 C151 1.681 . S
C541 C229 1.678 . S
C547 C170 1.680 . S
C561 C288 1.666 . S
C567 C465 1.663 . S
C581 C347 1.680 . S
C587 C269 1.680 . S
C601 C387 1.676 . S
C607 C328 1.676 . S
C621 C446 1.665 . S
C627 C406 1.663 . S
C641 C359 1.620 . S
C647 C5 1.614 . S
C661 C62 1.617 . S
C667 C418 1.619 . S
C681 C239 1.608 . S
C687 C121 1.606 . S
C701 C298 1.616 . S
C707 C182 1.619 . S
C721 C300 1.618 . S
C727 C180 1.617 . S
C741 C3 1.617 . S
C747 C357 1.617 . S
C761 C64 1.621 . S
C767 C416 1.611 . S
C781 C123 1.613 . S
C787 C241 1.618 . S
