# Generated by pormake.
# Topology snl, (6)-cn, num edge types: 1
# Building blocks:
#     Node 0, Type 0, BuildingBlock: BETGAK_clean_sbu_0, # of connection points: 6
#     Node 1, Type 0, BuildingBlock: BETGAK_clean_sbu_0, # of connection points: 6
#     Node 2, Type 0, BuildingBlock: BETGAK_clean_sbu_0, # of connection points: 6
#     Node 3, Type 0, BuildingBlock: BETGAK_clean_sbu_0, # of connection points: 6
#     Node 4, Type 0, BuildingBlock: BETGAK_clean_sbu_0, # of connection points: 6
#     Node 5, Type 0, BuildingBlock: BETGAK_clean_sbu_0, # of connection points: 6
#     Node 6, Type 0, BuildingBlock: BETGAK_clean_sbu_0, # of connection points: 6
#     Node 7, Type 0, BuildingBlock: BETGAK_clean_sbu_0, # of connection points: 6
#     Node 8, Type 0, BuildingBlock: BETGAK_clean_sbu_0, # of connection points: 6
#     Node 9, Type 0, BuildingBlock: BETGAK_clean_sbu_0, # of connection points: 6
#     Node 10, Type 0, BuildingBlock: BETGAK_clean_sbu_0, # of connection points: 6
#     Node 11, Type 0, BuildingBlock: BETGAK_clean_sbu_0, # of connection points: 6
#     Node 12, Type 0, BuildingBlock: BETGAK_clean_sbu_0, # of connection points: 6
#     Node 13, Type 0, BuildingBlock: BETGAK_clean_sbu_0, # of connection points: 6
#     Node 14, Type 0, BuildingBlock: BETGAK_clean_sbu_0, # of connection points: 6
#     Node 15, Type 0, BuildingBlock: BETGAK_clean_sbu_0, # of connection points: 6
#     Edge 16, Type (0, 0), BuildingBlock: KIFKEQ_clean_linker_1, # of connection points: 2
#     Edge 17, Type (0, 0), BuildingBlock: KIFKEQ_clean_linker_1, # of connection points: 2
#     Edge 18, Type (0, 0), BuildingBlock: KIFKEQ_clean_linker_1, # of connection points: 2
#     Edge 19, Type (0, 0), BuildingBlock: KIFKEQ_clean_linker_1, # of connection points: 2
#     Edge 20, Type (0, 0), BuildingBlock: KIFKEQ_clean_linker_1, # of connection points: 2
#     Edge 21, Type (0, 0), BuildingBlock: KIFKEQ_clean_linker_1, # of connection points: 2
#     Edge 22, Type (0, 0), BuildingBlock: KIFKEQ_clean_linker_1, # of connection points: 2
#     Edge 23, Type (0, 0), BuildingBlock: KIFKEQ_clean_linker_1, # of connection points: 2
#     Edge 24, Type (0, 0), BuildingBlock: KIFKEQ_clean_linker_1, # of connection points: 2
#     Edge 25, Type (0, 0), BuildingBlock: KIFKEQ_clean_linker_1, # of connection points: 2
#     Edge 26, Type (0, 0), BuildingBlock: KIFKEQ_clean_linker_1, # of connection points: 2
#     Edge 27, Type (0, 0), BuildingBlock: KIFKEQ_clean_linker_1, # of connection points: 2
#     Edge 28, Type (0, 0), BuildingBlock: KIFKEQ_clean_linker_1, # of connection points: 2
#     Edge 29, Type (0, 0), BuildingBlock: KIFKEQ_clean_linker_1, # of connection points: 2
#     Edge 30, Type (0, 0), BuildingBlock: KIFKEQ_clean_linker_1, # of connection points: 2
#     Edge 31, Type (0, 0), BuildingBlock: KIFKEQ_clean_linker_1, # of connection points: 2
#     Edge 32, Type (0, 0), BuildingBlock: KIFKEQ_clean_linker_1, # of connection points: 2
#     Edge 33, Type (0, 0), BuildingBlock: KIFKEQ_clean_linker_1, # of connection points: 2
#     Edge 34, Type (0, 0), BuildingBlock: KIFKEQ_clean_linker_1, # of connection points: 2
#     Edge 35, Type (0, 0), BuildingBlock: KIFKEQ_clean_linker_1, # of connection points: 2
#     Edge 36, Type (0, 0), BuildingBlock: KIFKEQ_clean_linker_1, # of connection points: 2
#     Edge 37, Type (0, 0), BuildingBlock: KIFKEQ_clean_linker_1, # of connection points: 2
#     Edge 38, Type (0, 0), BuildingBlock: KIFKEQ_clean_linker_1, # of connection points: 2
#     Edge 39, Type (0, 0), BuildingBlock: KIFKEQ_clean_linker_1, # of connection points: 2
#     Edge 40, Type (0, 0), BuildingBlock: KIFKEQ_clean_linker_1, # of connection points: 2
#     Edge 41, Type (0, 0), BuildingBlock: KIFKEQ_clean_linker_1, # of connection points: 2
#     Edge 42, Type (0, 0), BuildingBlock: KIFKEQ_clean_linker_1, # of connection points: 2
#     Edge 43, Type (0, 0), BuildingBlock: KIFKEQ_clean_linker_1, # of connection points: 2
#     Edge 44, Type (0, 0), BuildingBlock: KIFKEQ_clean_linker_1, # of connection points: 2
#     Edge 45, Type (0, 0), BuildingBlock: KIFKEQ_clean_linker_1, # of connection points: 2
#     Edge 46, Type (0, 0), BuildingBlock: KIFKEQ_clean_linker_1, # of connection points: 2
#     Edge 47, Type (0, 0), BuildingBlock: KIFKEQ_clean_linker_1, # of connection points: 2
#     Edge 48, Type (0, 0), BuildingBlock: KIFKEQ_clean_linker_1, # of connection points: 2
#     Edge 49, Type (0, 0), BuildingBlock: KIFKEQ_clean_linker_1, # of connection points: 2
#     Edge 50, Type (0, 0), BuildingBlock: KIFKEQ_clean_linker_1, # of connection points: 2
#     Edge 51, Type (0, 0), BuildingBlock: KIFKEQ_clean_linker_1, # of connection points: 2
#     Edge 52, Type (0, 0), BuildingBlock: KIFKEQ_clean_linker_1, # of connection points: 2
#     Edge 53, Type (0, 0), BuildingBlock: KIFKEQ_clean_linker_1, # of connection points: 2
#     Edge 54, Type (0, 0), BuildingBlock: KIFKEQ_clean_linker_1, # of connection points: 2
#     Edge 55, Type (0, 0), BuildingBlock: KIFKEQ_clean_linker_1, # of connection points: 2
#     Edge 56, Type (0, 0), BuildingBlock: KIFKEQ_clean_linker_1, # of connection points: 2
#     Edge 57, Type (0, 0), BuildingBlock: KIFKEQ_clean_linker_1, # of connection points: 2
#     Edge 58, Type (0, 0), BuildingBlock: KIFKEQ_clean_linker_1, # of connection points: 2
#     Edge 59, Type (0, 0), BuildingBlock: KIFKEQ_clean_linker_1, # of connection points: 2
#     Edge 60, Type (0, 0), BuildingBlock: KIFKEQ_clean_linker_1, # of connection points: 2
#     Edge 61, Type (0, 0), BuildingBlock: KIFKEQ_clean_linker_1, # of connection points: 2
#     Edge 62, Type (0, 0), BuildingBlock: KIFKEQ_clean_linker_1, # of connection points: 2
#     Edge 63, Type (0, 0), BuildingBlock: KIFKEQ_clean_linker_1, # of connection points: 2
# Relax obj value: 0.192
# Max RMSD: 0.263
# Mean RMSD: 0.225
data_MOF--net-snl--node1-BETGAK_clean_sbu_0--edge1-KIFKEQ_clean_linker_1
_symmetry_space_group_name_H-M    P1
_symmetry_Int_Tables_number       1
_symmetry_cell_setting            triclinic
loop_
_symmetry_equiv_pos_as_xyz
'x, y, z'
_cell_length_a     57.60518
_cell_length_b     58.136609
_cell_length_c     26.036384
_cell_angle_alpha  97.087385
_cell_angle_beta   94.285904
_cell_angle_gamma 89.75784
loop_
_atom_site_label
_atom_site_type_symbol
_atom_site_fract_x
_atom_site_fract_y
_atom_site_fract_z
_atom_type_partial_charge
La0 La 0.15703 0.63795 0.08006 0.0
La1 La 0.13843 0.64091 0.18697 0.0
C2 C 0.1682 0.62093 0.99134 0.0
C3 C 0.16436 0.62484 0.93594 0.0
C4 C 0.1768 0.64202 0.9157 0.0
C5 C 0.17432 0.64431 0.86261 0.0
C6 C 0.15942 0.62944 0.82827 0.0
C7 C 0.14683 0.61243 0.84873 0.0
C8 C 0.14934 0.61011 0.90178 0.0
C9 C 0.14946 0.68272 0.11081 0.0
C10 C 0.10274 0.64551 0.09508 0.0
C11 C 0.1285 0.65133 0.27997 0.0
C12 C 0.13577 0.64798 0.3344 0.0
C13 C 0.13687 0.6259 0.35126 0.0
C14 C 0.14103 0.6236 0.40419 0.0
C15 C 0.14406 0.64332 0.44141 0.0
C16 C 0.14371 0.66531 0.42403 0.0
C17 C 0.13956 0.66759 0.37127 0.0
C18 C 0.13894 0.59873 0.13196 0.0
C19 C 0.19325 0.6379 0.18058 0.0
O20 O 0.18092 0.63613 1.02264 0.0
O21 O 0.15029 0.61383 1.01354 0.0
O22 O 0.15698 0.6743 0.06682 0.0
O23 O 0.14613 0.66569 0.13582 0.0
O24 O 0.11837 0.63541 0.06452 0.0
O25 O 0.10866 0.65362 0.14375 0.0
O26 O 0.11957 0.6336 0.24904 0.0
O27 O 0.14206 0.66392 0.25626 0.0
O28 O 0.12293 0.60608 0.16239 0.0
O29 O 0.15417 0.61446 0.13541 0.0
O30 O 0.17542 0.63863 0.20982 0.0
O31 O 0.19034 0.63716 0.12908 0.0
H32 H 0.18879 0.65347 0.94064 0.0
H33 H 0.18457 0.65739 0.8483 0.0
H34 H 0.13495 0.60086 0.82375 0.0
H35 H 0.1397 0.59654 0.91598 0.0
H36 H 0.13391 0.61043 0.32382 0.0
H37 H 0.14102 0.6064 0.4161 0.0
H38 H 0.14639 0.68086 0.45133 0.0
H39 H 0.13872 0.68481 0.35938 0.0
La40 La 0.65479 0.89556 0.46589 0.0
La41 La 0.63138 0.89795 0.36394 0.0
C42 C 0.66832 0.90132 0.56207 0.0
C43 C 0.66067 0.90005 0.61534 0.0
C44 C 0.66487 0.87996 0.6397 0.0
C45 C 0.66057 0.87952 0.69193 0.0
C46 C 0.65207 0.8992 0.72176 0.0
C47 C 0.64748 0.9192 0.69709 0.0
C48 C 0.65179 0.91964 0.64474 0.0
C49 C 0.65178 0.85431 0.40823 0.0
C50 C 0.59865 0.89199 0.4489 0.0
C51 C 0.61741 0.89314 0.26817 0.0
C52 C 0.62492 0.89359 0.21465 0.0
C53 C 0.63374 0.91377 0.19807 0.0
C54 C 0.63784 0.9144 0.14563 0.0
C55 C 0.63311 0.89494 0.10831 0.0
C56 C 0.62497 0.8746 0.12552 0.0
C57 C 0.62089 0.87398 0.17779 0.0
C58 C 0.63428 0.93845 0.42596 0.0
C59 C 0.68678 0.90004 0.37469 0.0
O60 O 0.67011 0.88193 0.53156 0.0
O61 O 0.66019 0.91791 0.53623 0.0
O62 O 0.66966 0.86233 0.43795 0.0
O63 O 0.6359 0.86962 0.41114 0.0
O64 O 0.61713 0.89737 0.48192 0.0
O65 O 0.6008 0.88774 0.39872 0.0
O66 O 0.61688 0.91266 0.2989 0.0
O67 O 0.62464 0.87604 0.29343 0.0
O68 O 0.61646 0.93135 0.39482 0.0
O69 O 0.65009 0.92335 0.42026 0.0
O70 O 0.66759 0.89554 0.34427 0.0
O71 O 0.68591 0.90349 0.42596 0.0
H72 H 0.67218 0.86469 0.6188 0.0
H73 H 0.66472 0.86389 0.70939 0.0
H74 H 0.64067 0.93464 0.71831 0.0
H75 H 0.64864 0.93555 0.62768 0.0
H76 H 0.6369 0.92929 0.22527 0.0
H77 H 0.64395 0.93045 0.13409 0.0
H78 H 0.62152 0.85909 0.09846 0.0
H79 H 0.61398 0.85822 0.18919 0.0
La80 La 0.38469 0.40768 0.70844 0.0
La81 La 0.37297 0.3877 0.59469 0.0
C82 C 0.37759 0.42051 0.80226 0.0
C83 C 0.3838 0.41547 0.8562 0.0
C84 C 0.39589 0.4321 0.892 0.0
C85 C 0.39889 0.42915 0.94475 0.0
C86 C 0.38969 0.40956 0.96316 0.0
C87 C 0.3782 0.3926 0.92691 0.0
C88 C 0.37529 0.3955 0.87423 0.0
C89 C 0.42451 0.39908 0.66378 0.0
C90 C 0.38721 0.3525 0.67237 0.0
C91 C 0.36761 0.37623 0.49769 0.0
C92 C 0.37135 0.38361 0.44645 0.0
C93 C 0.35282 0.38129 0.408 0.0
C94 C 0.3561 0.38548 0.3573 0.0
C95 C 0.37806 0.39206 0.34361 0.0
C96 C 0.39647 0.39524 0.38266 0.0
C97 C 0.39318 0.39098 0.43361 0.0
C98 C 0.33822 0.3898 0.65837 0.0
C99 C 0.38044 0.44212 0.62107 0.0
O100 O 0.3934 0.42998 0.77759 0.0
O101 O 0.36501 0.40497 0.77167 0.0
O102 O 0.42292 0.40658 0.71242 0.0
O103 O 0.40392 0.396 0.64321 0.0
O104 O 0.38424 0.36932 0.71116 0.0
O105 O 0.38651 0.35665 0.62354 0.0
O106 O 0.35198 0.38746 0.52491 0.0
O107 O 0.38584 0.37066 0.52678 0.0
O108 O 0.34134 0.37311 0.62176 0.0
O109 O 0.354 0.40472 0.65713 0.0
O110 O 0.38025 0.42363 0.58599 0.0
O111 O 0.38021 0.44023 0.67167 0.0
H112 H 0.40244 0.44777 0.87945 0.0
H113 H 0.40813 0.44243 0.97123 0.0
H114 H 0.37056 0.37745 0.93944 0.0
H115 H 0.36562 0.38242 0.84801 0.0
H116 H 0.33584 0.37562 0.41688 0.0
H117 H 0.34141 0.3833 0.3286 0.0
H118 H 0.41362 0.40022 0.37347 0.0
H119 H 0.40781 0.39288 0.46248 0.0
La120 La 0.88378 0.12409 0.8877 0.0
La121 La 0.88046 0.14572 1.00205 0.0
C122 C 0.87065 0.1109 0.794 0.0
C123 C 0.87503 0.11431 0.74012 0.0
C124 C 0.89759 0.11623 0.72383 0.0
C125 C 0.90085 0.11851 0.67173 0.0
C126 C 0.88163 0.11886 0.63492 0.0
C127 C 0.85912 0.1173 0.65189 0.0
C128 C 0.8559 0.11504 0.70375 0.0
C129 C 0.92644 0.13257 0.93224 0.0
C130 C 0.88831 0.17995 0.92135 0.0
C131 C 0.88272 0.15767 0.09901 0.0
C132 C 0.8873 0.14913 0.15029 0.0
C133 C 0.8736 0.1316 0.16579 0.0
C134 C 0.87571 0.12651 0.21722 0.0
C135 C 0.89155 0.13882 0.25446 0.0
C136 C 0.90596 0.1556 0.2381 0.0
C137 C 0.90378 0.16073 0.18677 0.0
C138 C 0.8416 0.14325 0.93883 0.0
C139 C 0.88345 0.0905 0.9769 0.0
O140 O 0.88652 0.10018 0.82094 0.0
O141 O 0.86147 0.1284 0.82203 0.0
O142 O 0.92189 0.12325 0.88473 0.0
O143 O 0.9072 0.13643 0.95185 0.0
O144 O 0.88295 0.16254 0.8836 0.0
O145 O 0.89134 0.17642 0.97067 0.0
O146 O 0.86368 0.15045 0.07113 0.0
O147 O 0.90031 0.15939 0.07043 0.0
O148 O 0.84698 0.1603 0.97467 0.0
O149 O 0.85741 0.12827 0.94067 0.0
O150 O 0.88641 0.1092 1.01147 0.0
O151 O 0.87958 0.09222 0.9262 0.0
H152 H 0.91266 0.11575 0.75115 0.0
H153 H 0.91843 0.11953 0.66009 0.0
H154 H 0.84389 0.11797 0.62511 0.0
H155 H 0.83834 0.11369 0.71546 0.0
H156 H 0.86063 0.12237 0.13875 0.0
H157 H 0.86417 0.11361 0.22823 0.0
H158 H 0.91868 0.16513 0.26522 0.0
H159 H 0.9145 0.17438 0.17601 0.0
La160 La 0.15753 0.3997 0.95473 0.0
La161 La 0.13502 0.39991 0.84384 0.0
C162 C 0.17064 0.41443 0.04788 0.0
C163 C 0.16693 0.41039 0.10194 0.0
C164 C 0.16509 0.38803 0.11663 0.0
C165 C 0.16251 0.385 0.1687 0.0
C166 C 0.16172 0.40425 0.20727 0.0
C167 C 0.16323 0.42658 0.19195 0.0
C168 C 0.16581 0.42957 0.14008 0.0
C169 C 0.1491 0.35581 0.91386 0.0
C170 C 0.10168 0.39389 0.92934 0.0
C171 C 0.12242 0.39568 0.74768 0.0
C172 C 0.13101 0.39277 0.69473 0.0
C173 C 0.14769 0.40785 0.6801 0.0
C174 C 0.15269 0.40713 0.62792 0.0
C175 C 0.14113 0.39134 0.58894 0.0
C176 C 0.1252 0.37563 0.60424 0.0
C177 C 0.12018 0.3764 0.65633 0.0
C178 C 0.13693 0.44028 0.90608 0.0
C179 C 0.1906 0.39867 0.86051 0.0
O180 O 0.18171 0.39852 1.01902 0.0
O181 O 0.15313 0.42312 1.02166 0.0
O182 O 0.15886 0.36223 0.95974 0.0
O183 O 0.14473 0.3741 0.89294 0.0
O184 O 0.11918 0.40098 0.96422 0.0
O185 O 0.10485 0.38888 0.87947 0.0
O186 O 0.12669 0.41548 0.77648 0.0
O187 O 0.12405 0.37817 0.775 0.0
O188 O 0.11959 0.43331 0.87335 0.0
O189 O 0.15255 0.42493 0.9023 0.0
O190 O 0.17161 0.39532 0.82858 0.0
O191 O 0.1893 0.40303 0.91185 0.0
H192 H 0.16587 0.3729 0.08804 0.0
H193 H 0.16159 0.36754 0.17885 0.0
H194 H 0.16225 0.44186 0.22003 0.0
H195 H 0.16709 0.44699 0.12976 0.0
H196 H 0.15631 0.42077 0.70865 0.0
H197 H 0.16493 0.41964 0.61794 0.0
H198 H 0.11627 0.36289 0.5758 0.0
H199 H 0.10719 0.36463 0.66637 0.0
La200 La 0.87059 0.89461 0.09231 0.0
La201 La 0.89309 0.90357 0.20442 0.0
C202 C 0.85675 0.90325 1.00223 0.0
C203 C 0.86177 0.89804 0.9467 0.0
C204 C 0.84528 0.88612 0.91062 0.0
C205 C 0.84823 0.884 0.8572 0.0
C206 C 0.86764 0.89403 0.83851 0.0
C207 C 0.8845 0.90529 0.87478 0.0
C208 C 0.88163 0.90727 0.92809 0.0
C209 C 0.88011 0.85379 0.12668 0.0
C210 C 0.92639 0.89222 0.1163 0.0
C211 C 0.90592 0.90517 0.2999 0.0
C212 C 0.89736 0.9029 0.35154 0.0
C213 C 0.89904 0.92213 0.38999 0.0
C214 C 0.89335 0.92022 0.44061 0.0
C215 C 0.88587 0.89895 0.45443 0.0
C216 C 0.88381 0.87972 0.41562 0.0
C217 C 0.88949 0.88166 0.36476 0.0
C218 C 0.8905 0.93971 0.14932 0.0
C219 C 0.8378 0.89962 0.18734 0.0
O220 O 0.84766 0.88688 0.02506 0.0
O221 O 0.87226 0.9156 0.03309 0.0
O222 O 0.87159 0.85641 0.08025 0.0
O223 O 0.8835 0.874 0.15054 0.0
O224 O 0.90865 0.89598 0.08239 0.0
O225 O 0.92349 0.89115 0.16581 0.0
O226 O 0.89887 0.92321 0.2776 0.0
O227 O 0.90713 0.8865 0.26635 0.0
O228 O 0.90765 0.93566 0.18215 0.0
O229 O 0.87529 0.92406 0.14974 0.0
O230 O 0.85678 0.89958 0.21911 0.0
O231 O 0.8388 0.89925 0.13613 0.0
H232 H 0.82965 0.87909 0.92361 0.0
H233 H 0.8348 0.87536 0.83042 0.0
H234 H 0.89983 0.91291 0.8619 0.0
H235 H 0.89471 0.91667 0.95453 0.0
H236 H 0.90537 0.93863 0.38122 0.0
H237 H 0.89558 0.93532 0.46937 0.0
H238 H 0.87788 0.86313 0.42457 0.0
H239 H 0.8881 0.86645 0.33614 0.0
La240 La 0.38511 0.62886 0.3743 0.0
La241 La 0.37961 0.65236 0.48646 0.0
C242 C 0.37393 0.61494 0.27988 0.0
C243 C 0.37878 0.61981 0.22685 0.0
C244 C 0.39103 0.60365 0.19453 0.0
C245 C 0.39368 0.60687 0.14275 0.0
C246 C 0.38399 0.62628 0.12172 0.0
C247 C 0.37206 0.64263 0.15445 0.0
C248 C 0.36947 0.63944 0.2062 0.0
C249 C 0.4271 0.63852 0.42185 0.0
C250 C 0.38858 0.68476 0.40344 0.0
C251 C 0.38087 0.66585 0.58284 0.0
C252 C 0.38149 0.65753 0.63476 0.0
C253 C 0.3616 0.66005 0.6631 0.0
C254 C 0.36236 0.65514 0.71448 0.0
C255 C 0.38309 0.64769 0.73928 0.0
C256 C 0.40286 0.64447 0.71044 0.0
C257 C 0.4021 0.64943 0.65886 0.0
C258 C 0.34192 0.64833 0.41988 0.0
C259 C 0.38185 0.59685 0.46562 0.0
O260 O 0.39048 0.60547 0.30759 0.0
O261 O 0.36251 0.63074 0.30815 0.0
O262 O 0.42331 0.62835 0.37483 0.0
O263 O 0.40744 0.64271 0.43938 0.0
O264 O 0.38368 0.66678 0.36705 0.0
O265 O 0.39138 0.68225 0.45333 0.0
O266 O 0.36163 0.66222 0.55283 0.0
O267 O 0.39944 0.6633 0.55646 0.0
O268 O 0.34664 0.66622 0.454 0.0
O269 O 0.35778 0.63359 0.42487 0.0
O270 O 0.3825 0.61593 0.49931 0.0
O271 O 0.38109 0.59765 0.41442 0.0
H272 H 0.39821 0.58824 0.20903 0.0
H273 H 0.40324 0.59404 0.11912 0.0
H274 H 0.36402 0.6576 0.1397 0.0
H275 H 0.35964 0.65214 0.22958 0.0
H276 H 0.34551 0.66646 0.64595 0.0
H277 H 0.34669 0.65745 0.73502 0.0
H278 H 0.41918 0.63894 0.7283 0.0
H279 H 0.41783 0.64753 0.63845 0.0
La280 La 0.65559 0.13968 0.60723 0.0
La281 La 0.63514 0.14001 0.70487 0.0
C282 C 0.66696 0.13058 0.51446 0.0
C283 C 0.65979 0.13344 0.45945 0.0
C284 C 0.66485 0.15396 0.43882 0.0
C285 C 0.66108 0.15536 0.38546 0.0
C286 C 0.65226 0.13623 0.35114 0.0
C287 C 0.64664 0.11592 0.37206 0.0
C288 C 0.65043 0.11453 0.42542 0.0
C289 C 0.6535 0.18253 0.65745 0.0
C290 C 0.59988 0.14442 0.61299 0.0
C291 C 0.62272 0.1465 0.79706 0.0
C292 C 0.63033 0.14584 0.85263 0.0
C293 C 0.63859 0.12546 0.87167 0.0
C294 C 0.64252 0.12465 0.92532 0.0
C295 C 0.63815 0.14413 0.96113 0.0
C296 C 0.63071 0.16469 0.94169 0.0
C297 C 0.62682 0.16549 0.88822 0.0
C298 C 0.63707 0.09808 0.64864 0.0
C299 C 0.6901 0.13814 0.70582 0.0
O300 O 0.67381 0.14896 0.54579 0.0
O301 O 0.65472 0.11667 0.53774 0.0
O302 O 0.67033 0.17406 0.63099 0.0
O303 O 0.63788 0.16693 0.65459 0.0
O304 O 0.61726 0.13781 0.58362 0.0
O305 O 0.60392 0.15025 0.66316 0.0
O306 O 0.62028 0.1269 0.76671 0.0
O307 O 0.63138 0.16273 0.77348 0.0
O308 O 0.61973 0.10585 0.67439 0.0
O309 O 0.65285 0.11342 0.65607 0.0
O310 O 0.67183 0.14442 0.73169 0.0
O311 O 0.68742 0.13174 0.65497 0.0
H312 H 0.67245 0.16877 0.46361 0.0
H313 H 0.66592 0.17119 0.37092 0.0
H314 H 0.6395 0.10095 0.34712 0.0
H315 H 0.64663 0.09836 0.43985 0.0
H316 H 0.64135 0.10995 0.84528 0.0
H317 H 0.64812 0.10847 0.93876 0.0
H318 H 0.62757 0.18017 0.96788 0.0
H319 H 0.62036 0.18139 0.87468 0.0
La320 La 0.88681 0.39698 0.84661 0.0
La321 La 0.87198 0.40047 0.95474 0.0
C322 C 0.89487 0.38618 0.75257 0.0
C323 C 0.88775 0.38991 0.69857 0.0
C324 C 0.8817 0.41185 0.68458 0.0
C325 C 0.87734 0.41494 0.63211 0.0
C326 C 0.87896 0.39616 0.59274 0.0
C327 C 0.88448 0.37416 0.60735 0.0
C328 C 0.8888 0.37111 0.65958 0.0
C329 C 0.88783 0.43956 0.90058 0.0
C330 C 0.83272 0.40082 0.85923 0.0
C331 C 0.86306 0.4186 0.04427 0.0
C332 C 0.86674 0.41483 0.09953 0.0
C333 C 0.85928 0.39442 0.11735 0.0
C334 C 0.861 0.39226 0.17051 0.0
C335 C 0.87031 0.41039 0.20698 0.0
C336 C 0.8783 0.43053 0.18885 0.0
C337 C 0.87644 0.43274 0.13576 0.0
C338 C 0.87784 0.35537 0.92654 0.0
C339 C 0.92552 0.39201 0.93156 0.0
O340 O 0.9051 0.40336 0.78302 0.0
O341 O 0.88052 0.3747 0.7768 0.0
O342 O 0.90313 0.43177 0.86878 0.0
O343 O 0.87264 0.42398 0.89932 0.0
O344 O 0.84958 0.3999 0.82745 0.0
O345 O 0.83726 0.40138 0.91039 0.0
O346 O 0.84904 0.40426 1.01399 0.0
O347 O 0.88137 0.42401 1.02116 0.0
O348 O 0.87157 0.36482 0.97088 0.0
O349 O 0.88088 0.37153 0.89851 0.0
O350 O 0.91109 0.40251 0.96472 0.0
O351 O 0.91739 0.3835 0.88463 0.0
H352 H 0.88075 0.42664 0.71403 0.0
H353 H 0.87285 0.43207 0.62237 0.0
H354 H 0.88626 0.35935 0.57833 0.0
H355 H 0.89362 0.35407 0.66949 0.0
H356 H 0.85175 0.38026 0.0904 0.0
H357 H 0.85498 0.37639 0.18308 0.0
H358 H 0.88534 0.44492 0.21583 0.0
H359 H 0.88214 0.44872 0.12306 0.0
La360 La 0.39383 0.13519 0.70417 0.0
La361 La 0.37187 0.13373 0.59238 0.0
C362 C 0.40556 0.1437 0.80046 0.0
C363 C 0.3987 0.13948 0.85264 0.0
C364 C 0.41177 0.12412 0.88085 0.0
C365 C 0.4076 0.12199 0.93241 0.0
C366 C 0.39034 0.13531 0.9576 0.0
C367 C 0.37681 0.15024 0.92888 0.0
C368 C 0.38098 0.15235 0.87716 0.0
C369 C 0.39166 0.09391 0.64576 0.0
C370 C 0.33852 0.13232 0.68595 0.0
C371 C 0.3593 0.11743 0.49998 0.0
C372 C 0.36337 0.12073 0.44568 0.0
C373 C 0.3628 0.14269 0.42819 0.0
C374 C 0.36593 0.14493 0.37599 0.0
C375 C 0.36982 0.12529 0.34017 0.0
C376 C 0.37052 0.1034 0.35815 0.0
C377 C 0.36731 0.10118 0.41012 0.0
C378 C 0.38011 0.17799 0.62952 0.0
C379 C 0.42691 0.14174 0.61898 0.0
O380 O 0.41326 0.12607 0.77032 0.0
O381 O 0.39257 0.15741 0.77415 0.0
O382 O 0.40852 0.10065 0.68004 0.0
O383 O 0.37654 0.10967 0.64718 0.0
O384 O 0.35728 0.13332 0.71865 0.0
O385 O 0.33989 0.13158 0.63474 0.0
O386 O 0.34785 0.13356 0.5274 0.0
O387 O 0.37679 0.10936 0.52745 0.0
O388 O 0.37119 0.17058 0.58335 0.0
O389 O 0.38422 0.16031 0.6529 0.0
O390 O 0.41018 0.13268 0.58426 0.0
O391 O 0.42266 0.14825 0.66776 0.0
H392 H 0.4257 0.11411 0.86343 0.0
H393 H 0.41812 0.10999 0.95269 0.0
H394 H 0.36352 0.16097 0.94688 0.0
H395 H 0.37072 0.16457 0.85696 0.0
H396 H 0.35988 0.15811 0.45474 0.0
H397 H 0.36554 0.16208 0.36382 0.0
H398 H 0.37313 0.08784 0.33179 0.0
H399 H 0.36771 0.08405 0.42251 0.0
La400 La 0.63353 0.63089 0.35149 0.0
La401 La 0.65569 0.64014 0.46208 0.0
C402 C 0.6206 0.62748 0.2557 0.0
C403 C 0.62821 0.62948 0.20318 0.0
C404 C 0.62099 0.6123 0.16251 0.0
C405 C 0.62623 0.61407 0.11154 0.0
C406 C 0.63892 0.63311 0.09959 0.0
C407 C 0.64642 0.65026 0.14062 0.0
C408 C 0.64114 0.64846 0.1919 0.0
C409 C 0.63586 0.5951 0.40769 0.0
C410 C 0.68871 0.63511 0.3677 0.0
C411 C 0.66911 0.63115 0.55226 0.0
C412 C 0.66442 0.63657 0.60792 0.0
C413 C 0.68282 0.64377 0.64485 0.0
C414 C 0.67969 0.6458 0.69818 0.0
C415 C 0.65809 0.64046 0.71598 0.0
C416 C 0.63946 0.63402 0.67885 0.0
C417 C 0.64256 0.63212 0.62556 0.0
C418 C 0.64822 0.68129 0.4288 0.0
C419 C 0.5997 0.64281 0.4377 0.0
O420 O 0.62906 0.61026 0.2791 0.0
O421 O 0.61864 0.64644 0.28801 0.0
O422 O 0.61834 0.59951 0.37635 0.0
O423 O 0.65128 0.61036 0.40597 0.0
O424 O 0.6697 0.63545 0.33619 0.0
O425 O 0.68762 0.63504 0.41874 0.0
O426 O 0.67871 0.64719 0.52941 0.0
O427 O 0.65316 0.61933 0.52155 0.0
O428 O 0.65727 0.67787 0.47428 0.0
O429 O 0.64329 0.66148 0.40355 0.0
O430 O 0.61748 0.64047 0.4726 0.0
O431 O 0.60265 0.64274 0.38798 0.0
H432 H 0.61081 0.59761 0.17005 0.0
H433 H 0.61975 0.60071 0.08123 0.0
H434 H 0.65643 0.66506 0.13315 0.0
H435 H 0.64695 0.66198 0.22251 0.0
H436 H 0.69991 0.64706 0.63249 0.0
H437 H 0.69449 0.6506 0.72547 0.0
H438 H 0.62249 0.63013 0.691 0.0
H439 H 0.62797 0.62652 0.59828 0.0
La440 La 0.14388 0.89174 0.04968 0.0
La441 La 0.13903 0.91338 0.15537 0.0
C442 C 0.1421 0.87812 0.95302 0.0
C443 C 0.14442 0.8855 0.90091 0.0
C444 C 0.16209 0.87577 0.87084 0.0
C445 C 0.16293 0.87973 0.81903 0.0
C446 C 0.146 0.89342 0.79557 0.0
C447 C 0.12872 0.90381 0.82625 0.0
C448 C 0.1279 0.89986 0.87824 0.0
C449 C 0.18307 0.89589 0.11183 0.0
C450 C 0.14222 0.9471 0.06996 0.0
C451 C 0.14382 0.92627 0.25241 0.0
C452 C 0.14398 0.91814 0.30451 0.0
C453 C 0.12311 0.91395 0.32673 0.0
C454 C 0.1233 0.90972 0.37865 0.0
C455 C 0.14434 0.90967 0.40989 0.0
C456 C 0.16526 0.91316 0.3871 0.0
C457 C 0.16506 0.91742 0.33521 0.0
C458 C 0.09885 0.90933 0.09783 0.0
C459 C 0.13665 0.85726 0.12795 0.0
O460 O 0.16095 0.87774 0.98413 0.0
O461 O 0.12403 0.88516 0.97818 0.0
O462 O 0.17728 0.87779 0.07936 0.0
O463 O 0.16738 0.91087 0.10805 0.0
O464 O 0.13922 0.92814 0.03643 0.0
O465 O 0.14563 0.9455 0.12051 0.0
O466 O 0.12403 0.92607 0.22436 0.0
O467 O 0.16115 0.92035 0.2239 0.0
O468 O 0.10526 0.92701 0.13102 0.0
O469 O 0.11489 0.89433 0.09817 0.0
O470 O 0.14168 0.87523 0.16428 0.0
O471 O 0.13289 0.86067 0.07896 0.0
H472 H 0.17495 0.86449 0.88701 0.0
H473 H 0.17676 0.87178 0.79715 0.0
H474 H 0.11527 0.91431 0.80959 0.0
H475 H 0.11391 0.90748 0.90009 0.0
H476 H 0.1065 0.91456 0.30453 0.0
H477 H 0.10687 0.90675 0.39449 0.0
H478 H 0.18178 0.91352 0.40993 0.0
H479 H 0.18141 0.92097 0.31963 0.0
La480 La 0.89574 0.63749 0.19388 0.0
La481 La 0.87316 0.64124 0.09209 0.0
C482 C 0.90955 0.64103 0.28958 0.0
C483 C 0.90184 0.64093 0.34299 0.0
C484 C 0.89444 0.6205 0.36097 0.0
C485 C 0.89037 0.62024 0.41348 0.0
C486 C 0.89374 0.64036 0.4495 0.0
C487 C 0.90043 0.66091 0.43093 0.0
C488 C 0.90448 0.66116 0.37856 0.0
C489 C 0.89309 0.59766 0.12963 0.0
C490 C 0.84045 0.6364 0.1822 0.0
C491 C 0.85989 0.63609 0.99588 0.0
C492 C 0.86759 0.63748 0.94283 0.0
C493 C 0.86169 0.65688 0.91724 0.0
C494 C 0.86601 0.65727 0.86505 0.0
C495 C 0.87622 0.63818 0.83657 0.0
C496 C 0.88254 0.61892 0.8625 0.0
C497 C 0.87823 0.61854 0.91482 0.0
C498 C 0.87655 0.68209 0.15165 0.0
C499 C 0.92946 0.64482 0.11132 0.0
O500 O 0.90891 0.62159 0.25837 0.0
O501 O 0.90357 0.65866 0.26484 0.0
O502 O 0.91083 0.60445 0.1613 0.0
O503 O 0.87728 0.61274 0.1357 0.0
O504 O 0.85953 0.64044 0.21313 0.0
O505 O 0.8416 0.63344 0.13096 0.0
O506 O 0.85823 0.65541 0.02672 0.0
O507 O 0.86783 0.6193 1.02131 0.0
O508 O 0.85865 0.67462 0.12128 0.0
O509 O 0.89202 0.6664 0.14816 0.0
O510 O 0.91119 0.64 0.07711 0.0
O511 O 0.92663 0.64801 0.16133 0.0
H512 H 0.89244 0.6045 0.33487 0.0
H513 H 0.88542 0.60403 0.42617 0.0
H514 H 0.90281 0.67687 0.45703 0.0
H515 H 0.91035 0.67713 0.36614 0.0
H516 H 0.85303 0.67158 0.93715 0.0
H517 H 0.86053 0.67228 0.84653 0.0
H518 H 0.8907 0.60399 0.84225 0.0
H519 H 0.88275 0.60316 0.9329 0.0
La520 La 0.13043 0.13585 0.85037 0.0
La521 La 0.1536 0.14283 0.96145 0.0
C522 C 0.11712 0.13502 0.75526 0.0
C523 C 0.12517 0.13631 0.70277 0.0
C524 C 0.12073 0.11738 0.66432 0.0
C525 C 0.12549 0.1187 0.61288 0.0
C526 C 0.13475 0.13907 0.59825 0.0
C527 C 0.13995 0.15783 0.63709 0.0
C528 C 0.13511 0.15651 0.68881 0.0
C529 C 0.13273 0.09885 0.90269 0.0
C530 C 0.18581 0.13739 0.86598 0.0
C531 C 0.1669 0.13288 0.05083 0.0
C532 C 0.1621 0.13826 0.10642 0.0
C533 C 0.17982 0.14755 0.1431 0.0
C534 C 0.17666 0.14976 0.19644 0.0
C535 C 0.15579 0.14244 0.21438 0.0
C536 C 0.13781 0.13386 0.17752 0.0
C537 C 0.14089 0.13181 0.1243 0.0
C538 C 0.14681 0.18456 0.9298 0.0
C539 C 0.09789 0.14768 0.93931 0.0
O540 O 0.12292 0.11658 0.77732 0.0
O541 O 0.11766 0.15384 0.78876 0.0
O542 O 0.11525 0.10381 0.8717 0.0
O543 O 0.1482 0.11421 0.90255 0.0
O544 O 0.1668 0.1389 0.83489 0.0
O545 O 0.1849 0.13672 0.91686 0.0
O546 O 0.17697 0.1488 0.02841 0.0
O547 O 0.15068 0.12161 1.01985 0.0
O548 O 0.1561 0.18074 0.97484 0.0
O549 O 0.1414 0.16489 0.90497 0.0
O550 O 0.11557 0.14294 0.97237 0.0
O551 O 0.10066 0.14916 0.88997 0.0
H552 H 0.11298 0.10164 0.67383 0.0
H553 H 0.12165 0.10376 0.58435 0.0
H554 H 0.14698 0.17382 0.62721 0.0
H555 H 0.13862 0.17148 0.71744 0.0
H556 H 0.19643 0.15242 0.13059 0.0
H557 H 0.19094 0.1563 0.22367 0.0
H558 H 0.12137 0.1284 0.18986 0.0
H559 H 0.12683 0.12454 0.09732 0.0
La560 La 0.64141 0.39215 0.56807 0.0
La561 La 0.6333 0.41256 0.67226 0.0
C562 C 0.6403 0.37934 0.47119 0.0
C563 C 0.64236 0.38728 0.4195 0.0
C564 C 0.66091 0.37926 0.39009 0.0
C565 C 0.66156 0.38356 0.33843 0.0
C566 C 0.64356 0.39588 0.31456 0.0
C567 C 0.62534 0.40453 0.34455 0.0
C568 C 0.62472 0.40027 0.39633 0.0
C569 C 0.67927 0.39556 0.63461 0.0
C570 C 0.63949 0.44752 0.58946 0.0
C571 C 0.63454 0.4251 0.76939 0.0
C572 C 0.63703 0.41693 0.82155 0.0
C573 C 0.61729 0.41059 0.84542 0.0
C574 C 0.61899 0.40649 0.8975 0.0
C575 C 0.64045 0.40876 0.92739 0.0
C576 C 0.66032 0.4144 0.90299 0.0
C577 C 0.65862 0.4185 0.85086 0.0
C578 C 0.59432 0.40825 0.61026 0.0
C579 C 0.63505 0.35643 0.64358 0.0
O580 O 0.65911 0.3793 0.50255 0.0
O581 O 0.62195 0.38557 0.4962 0.0
O582 O 0.67454 0.37823 0.59913 0.0
O583 O 0.66355 0.41059 0.63048 0.0
O584 O 0.63979 0.42878 0.55523 0.0
O585 O 0.63847 0.44564 0.63968 0.0
O586 O 0.61551 0.41961 0.74 0.0
O587 O 0.65279 0.42456 0.74222 0.0
O588 O 0.60036 0.42619 0.643 0.0
O589 O 0.61064 0.39348 0.61202 0.0
O590 O 0.63761 0.37448 0.68075 0.0
O591 O 0.63229 0.35998 0.59461 0.0
H592 H 0.67455 0.36888 0.40649 0.0
H593 H 0.67573 0.37637 0.31657 0.0
H594 H 0.61135 0.41437 0.32779 0.0
H595 H 0.61007 0.40661 0.41765 0.0
H596 H 0.60029 0.40962 0.82447 0.0
H597 H 0.60323 0.4025 0.9149 0.0
H598 H 0.67721 0.416 0.92441 0.0
H599 H 0.67414 0.42363 0.834 0.0
La600 La 0.38955 0.90049 0.34065 0.0
La601 La 0.36972 0.89742 0.4389 0.0
C602 C 0.40186 0.89491 0.24867 0.0
C603 C 0.39473 0.89644 0.19335 0.0
C604 C 0.38947 0.91769 0.17462 0.0
C605 C 0.38623 0.91887 0.12104 0.0
C606 C 0.38837 0.89888 0.08522 0.0
C607 C 0.39274 0.87756 0.10431 0.0
C608 C 0.39592 0.87638 0.15765 0.0
C609 C 0.38862 0.94052 0.40302 0.0
C610 C 0.33437 0.90261 0.34243 0.0
C611 C 0.35818 0.90341 0.5317 0.0
C612 C 0.36644 0.90204 0.58662 0.0
C613 C 0.35955 0.8832 0.61106 0.0
C614 C 0.36425 0.88301 0.66447 0.0
C615 C 0.37587 0.90173 0.69505 0.0
C616 C 0.38327 0.92036 0.6704 0.0
C617 C 0.37856 0.92055 0.61682 0.0
C618 C 0.3716 0.85647 0.38079 0.0
C619 C 0.42533 0.89297 0.43078 0.0
O620 O 0.40508 0.91411 0.2803 0.0
O621 O 0.39229 0.87865 0.27069 0.0
O622 O 0.40542 0.93389 0.37435 0.0
O623 O 0.3727 0.92534 0.39458 0.0
O624 O 0.35253 0.8996 0.31429 0.0
O625 O 0.33704 0.90463 0.39388 0.0
O626 O 0.35546 0.88396 0.50093 0.0
O627 O 0.36647 0.91982 0.50802 0.0
O628 O 0.35454 0.86377 0.40796 0.0
O629 O 0.38705 0.87224 0.38697 0.0
O630 O 0.40823 0.89859 0.46177 0.0
O631 O 0.42079 0.88909 0.38026 0.0
H632 H 0.3886 0.9335 0.20115 0.0
H633 H 0.38299 0.93558 0.10766 0.0
H634 H 0.39408 0.86176 0.07793 0.0
H635 H 0.4001 0.85981 0.17098 0.0
H636 H 0.34975 0.8689 0.58918 0.0
H637 H 0.35793 0.86854 0.68207 0.0
H638 H 0.39249 0.93495 0.6926 0.0
H639 H 0.38387 0.93548 0.59941 0.0
H640 H 0.15847 0.669 0.78018 0.0
H641 H 0.15574 0.59436 0.74694 0.0
H642 H 0.15571 0.67217 0.68752 0.0
H643 H 0.15192 0.59758 0.65426 0.0
H644 H 0.16929 0.61117 0.49126 0.0
H645 H 0.17326 0.60778 0.58407 0.0
H646 H 0.12841 0.66698 0.61284 0.0
H647 H 0.12453 0.67039 0.52042 0.0
C648 C 0.1573 0.65324 0.75319 0.0
C649 C 0.15732 0.63142 0.77134 0.0
C650 C 0.15544 0.65507 0.69989 0.0
C651 C 0.15352 0.63514 0.66312 0.0
C652 C 0.15361 0.61331 0.68126 0.0
C653 C 0.15548 0.61148 0.73458 0.0
C654 C 0.16017 0.62338 0.51736 0.0
C655 C 0.1467 0.64114 0.49818 0.0
C656 C 0.16243 0.62143 0.57067 0.0
C657 C 0.15122 0.63715 0.60623 0.0
C658 C 0.13768 0.65482 0.58692 0.0
C659 C 0.13545 0.65679 0.53374 0.0
H660 H 0.60507 0.87535 1.02422 0.0
H661 H 0.66726 0.91698 0.06301 0.0
H662 H 0.60931 0.87671 0.9324 0.0
H663 H 0.67155 0.9183 0.97083 0.0
H664 H 0.66053 0.93433 0.80246 0.0
H665 H 0.65562 0.93374 0.89451 0.0
H666 H 0.63213 0.86263 0.86276 0.0
H667 H 0.63607 0.86354 0.77058 0.0
C668 C 0.61984 0.8846 1.01329 0.0
C669 C 0.63588 0.89593 0.05158 0.0
C670 C 0.62228 0.88539 0.9603 0.0
C671 C 0.64085 0.89755 0.9436 0.0
C672 C 0.65683 0.90902 0.98187 0.0
C673 C 0.65437 0.90824 0.03498 0.0
C674 C 0.654 0.91864 0.81488 0.0
C675 C 0.64868 0.899 0.7785 0.0
C676 C 0.65149 0.9182 0.86804 0.0
C677 C 0.64351 0.89812 0.88666 0.0
C678 C 0.63807 0.87853 0.85023 0.0
C679 C 0.6406 0.87896 0.79712 0.0
H680 H 0.36148 0.36416 0.25644 0.0
H681 H 0.403 0.42572 0.30546 0.0
H682 H 0.36608 0.3687 0.16609 0.0
H683 H 0.40813 0.42995 0.21454 0.0
H684 H 0.38558 0.44382 0.04486 0.0
H685 H 0.3848 0.43968 0.13675 0.0
H686 H 0.39535 0.36599 0.1026 0.0
H687 H 0.39647 0.3701 1.01079 0.0
C688 C 0.37159 0.37871 0.24796 0.0
C689 C 0.38171 0.39468 0.28838 0.0
C690 C 0.37448 0.38115 0.19603 0.0
C691 C 0.38752 0.39966 0.18287 0.0
C692 C 0.39782 0.41558 0.22324 0.0
C693 C 0.39505 0.41305 0.27538 0.0
C694 C 0.38819 0.42677 0.0569 0.0
C695 C 0.39097 0.40728 1.01999 0.0
C696 C 0.3877 0.42441 0.10976 0.0
C697 C 0.38983 0.40248 0.12717 0.0
C698 C 0.39322 0.38309 0.09051 0.0
C699 C 0.39383 0.38546 0.03774 0.0
H700 H 0.91304 0.1458 0.594 0.0
H701 H 0.85748 0.09611 0.54881 0.0
H702 H 0.91724 0.14958 0.50274 0.0
H703 H 0.8611 0.10051 0.45797 0.0
H704 H 0.88697 0.09784 0.29609 0.0
H705 H 0.88603 0.09229 0.3873 0.0
H706 H 0.89642 0.1658 0.43132 0.0
H707 H 0.89721 0.17138 0.34039 0.0
C708 C 0.90179 0.13558 0.56468 0.0
C709 C 0.88483 0.12074 0.57904 0.0
C710 C 0.90404 0.13794 0.51228 0.0
C711 C 0.88946 0.12542 0.47275 0.0
C712 C 0.8728 0.11027 0.48712 0.0
C713 C 0.87052 0.10797 0.53943 0.0
C714 C 0.88898 0.11285 0.32515 0.0
C715 C 0.89218 0.13507 0.31049 0.0
C716 C 0.88844 0.10966 0.37758 0.0
C717 C 0.89111 0.12859 0.41692 0.0
C718 C 0.89468 0.15074 0.40232 0.0
C719 C 0.89516 0.15394 0.34995 0.0
H720 H 0.13535 0.37226 0.24756 0.0
H721 H 0.18304 0.4294 0.29441 0.0
H722 H 0.13133 0.36793 0.33854 0.0
H723 H 0.17832 0.42567 0.38517 0.0
H724 H 0.18183 0.39951 0.5442 0.0
H725 H 0.18731 0.40171 0.45291 0.0
H726 H 0.11428 0.38689 0.41408 0.0
H727 H 0.10877 0.3848 0.50513 0.0
C728 C 0.14507 0.38387 0.27714 0.0
C729 C 0.15947 0.40124 0.26319 0.0
C730 C 0.14255 0.38155 0.32952 0.0
C731 C 0.15442 0.39649 0.36964 0.0
C732 C 0.16904 0.41367 0.35564 0.0
C733 C 0.17152 0.41601 0.30334 0.0
C734 C 0.16688 0.39683 0.51632 0.0
C735 C 0.14484 0.39193 0.53255 0.0
C736 C 0.17003 0.39809 0.46376 0.0
C737 C 0.15126 0.39449 0.42569 0.0
C738 C 0.12928 0.38938 0.44187 0.0
C739 C 0.12612 0.38815 0.49438 0.0
H740 H 0.88103 0.92968 0.78769 0.0
H741 H 0.85882 0.8581 0.76003 0.0
H742 H 0.88439 0.92987 0.69506 0.0
H743 H 0.86174 0.85843 0.66675 0.0
H744 H 0.89635 0.86277 0.51119 0.0
H745 H 0.89108 0.86081 0.60279 0.0
H746 H 0.85961 0.92859 0.61448 0.0
H747 H 0.8646 0.93048 0.52302 0.0
C748 C 0.87697 0.91391 0.76187 0.0
C749 C 0.86976 0.89383 0.78153 0.0
C750 C 0.87863 0.91411 0.70855 0.0
C751 C 0.87324 0.8942 0.67321 0.0
C752 C 0.86617 0.87404 0.69281 0.0
C753 C 0.86432 0.8739 0.74626 0.0
C754 C 0.88795 0.87711 0.533 0.0
C755 C 0.88109 0.89688 0.50949 0.0
C756 C 0.88497 0.87599 0.58567 0.0
C757 C 0.87513 0.89464 0.61631 0.0
C758 C 0.8677 0.9141 0.59244 0.0
C759 C 0.87058 0.91519 0.53985 0.0
H760 H 0.36348 0.67451 0.81854 0.0
H761 H 0.40534 0.61326 0.78781 0.0
H762 H 0.36457 0.66898 0.90981 0.0
H763 H 0.40704 0.60811 0.87986 0.0
H764 H 0.38126 0.59264 0.03715 0.0
H765 H 0.38217 0.59758 0.94567 0.0
H766 H 0.39104 0.6714 0.98714 0.0
H767 H 0.39036 0.66649 0.0786 0.0
C768 C 0.37288 0.65979 0.83117 0.0
C769 C 0.38419 0.64426 0.79548 0.0
C770 C 0.37376 0.65678 0.88381 0.0
C771 C 0.38595 0.63813 0.90249 0.0
C772 C 0.39731 0.62257 0.86688 0.0
C773 C 0.39652 0.62565 0.81412 0.0
C774 C 0.38377 0.60991 0.02696 0.0
C775 C 0.38564 0.62916 0.06565 0.0
C776 C 0.38426 0.61274 0.97431 0.0
C777 C 0.38654 0.63491 0.95876 0.0
C778 C 0.38882 0.65411 0.99747 0.0
C779 C 0.38841 0.65128 0.05008 0.0
H780 H 0.60933 0.16292 0.03428 0.0
H781 H 0.67187 0.12229 1.01807 0.0
H782 H 0.61257 0.16088 0.12731 0.0
H783 H 0.67521 0.12034 0.11149 0.0
H784 H 0.66136 0.10199 0.27261 0.0
H785 H 0.6577 0.10365 0.17931 0.0
H786 H 0.63506 0.17476 0.20587 0.0
H787 H 0.63771 0.17277 0.29904 0.0
C788 C 0.62397 0.15377 0.0506 0.0
C789 C 0.64041 0.14288 1.01841 0.0
C790 C 0.62582 0.1526 0.10416 0.0
C791 C 0.64419 0.1405 0.12732 0.0
C792 C 0.66062 0.12954 0.09513 0.0
C793 C 0.65873 0.13068 0.04143 0.0
C794 C 0.65527 0.1179 0.25863 0.0
C795 C 0.64975 0.13722 0.29372 0.0
C796 C 0.65349 0.11895 0.20496 0.0
C797 C 0.64613 0.13936 0.18469 0.0
C798 C 0.64054 0.15865 0.21978 0.0
C799 C 0.64232 0.15759 0.27344 0.0
H800 H 0.83659 0.39358 0.26135 0.0
H801 H 0.90569 0.42336 0.28126 0.0
H802 H 0.83747 0.39125 0.35429 0.0
H803 H 0.90677 0.42072 0.37417 0.0
H804 H 0.89388 0.43253 0.54534 0.0
H805 H 0.89083 0.43669 0.45305 0.0
H806 H 0.85522 0.37066 0.42026 0.0
H807 H 0.85723 0.36708 0.51258 0.0
C808 C 0.85209 0.39939 0.2855 0.0
C809 C 0.8711 0.4086 0.26375 0.0
C810 C 0.85261 0.39806 0.3389 0.0
C811 C 0.87219 0.40579 0.37202 0.0
C812 C 0.89121 0.41498 0.35017 0.0
C813 C 0.89065 0.41642 0.29679 0.0
C814 C 0.88501 0.41909 0.51857 0.0
C815 C 0.87586 0.39943 0.53661 0.0
C816 C 0.88356 0.42132 0.46545 0.0
C817 C 0.87293 0.40393 0.42889 0.0
C818 C 0.86336 0.38452 0.4471 0.0
C819 C 0.86475 0.38233 0.50016 0.0
H820 H 0.34648 0.15361 0.27644 0.0
H821 H 0.40037 0.10177 0.27677 0.0
H822 H 0.3514 0.15654 0.18506 0.0
H823 H 0.40473 0.10413 0.18525 0.0
H824 H 0.42394 0.1314 0.03668 0.0
H825 H 0.41901 0.12946 0.12803 0.0
H826 H 0.34456 0.13515 0.09882 0.0
H827 H 0.34948 0.13696 1.00703 0.0
C828 C 0.35944 0.14289 0.25717 0.0
C829 C 0.37301 0.12744 0.2843 0.0
C830 C 0.36207 0.14437 0.20447 0.0
C831 C 0.37845 0.13055 0.17741 0.0
C832 C 0.3921 0.11524 0.20469 0.0
C833 C 0.38941 0.11369 0.25724 0.0
C834 C 0.40645 0.13195 0.0494 0.0
C835 C 0.38711 0.13418 1.01394 0.0
C836 C 0.40362 0.13088 0.10206 0.0
C837 C 0.38137 0.13205 0.12113 0.0
C838 C 0.36201 0.13448 0.08584 0.0
C839 C 0.36483 0.13551 0.03304 0.0
H840 H 0.63848 0.67224 0.04927 0.0
H841 H 0.65014 0.5984 1.0241 0.0
H842 H 0.64355 0.6747 0.95771 0.0
H843 H 0.65491 0.60086 0.93285 0.0
H844 H 0.63482 0.60878 0.76304 0.0
H845 H 0.63099 0.60786 0.8553 0.0
H846 H 0.67193 0.67061 0.89077 0.0
H847 H 0.67531 0.67183 0.798 0.0
C848 C 0.64241 0.65656 1.02452 0.0
C849 C 0.64366 0.63508 0.04437 0.0
C850 C 0.64527 0.65798 0.97185 0.0
C851 C 0.64938 0.63794 0.93753 0.0
C852 C 0.65124 0.61659 0.95771 0.0
C853 C 0.64849 0.61519 1.01025 0.0
C854 C 0.64279 0.62257 0.79035 0.0
C855 C 0.65533 0.64042 0.77278 0.0
C856 C 0.64084 0.62188 0.84347 0.0
C857 C 0.65127 0.63908 0.88077 0.0
C858 C 0.66356 0.65713 0.86326 0.0
C859 C 0.66566 0.65773 0.81001 0.0
H860 H 0.11375 0.92793 0.48001 0.0
H861 H 0.17522 0.88539 0.46838 0.0
H862 H 0.11403 0.92392 0.57213 0.0
H863 H 0.176 0.88208 0.56098 0.0
H864 H 0.15577 0.86044 0.71528 0.0
H865 H 0.15541 0.86429 0.62322 0.0
H866 H 0.13534 0.93601 0.65457 0.0
H867 H 0.13576 0.93217 0.74697 0.0
C868 C 0.12728 0.91761 0.49696 0.0
C869 C 0.14441 0.90691 0.46638 0.0
C870 C 0.12762 0.91557 0.55012 0.0
C871 C 0.14506 0.90272 0.57435 0.0
C872 C 0.16214 0.89194 0.54374 0.0
C873 C 0.16184 0.89403 0.49059 0.0
C874 C 0.15156 0.87715 0.7028 0.0
C875 C 0.14591 0.89602 0.73898 0.0
C876 C 0.15133 0.87935 0.64977 0.0
C877 C 0.14539 0.90048 0.63114 0.0
C878 C 0.13968 0.91936 0.66724 0.0
C879 C 0.13994 0.91717 0.72037 0.0
H880 H 0.87031 0.60196 0.75773 0.0
H881 H 0.88943 0.6744 0.78606 0.0
H882 H 0.87489 0.60216 0.66543 0.0
H883 H 0.89304 0.67485 0.69359 0.0
H884 H 0.92066 0.66243 0.53252 0.0
H885 H 0.91682 0.66162 0.6247 0.0
H886 H 0.85726 0.61608 0.58851 0.0
H887 H 0.86115 0.61687 0.496 0.0
C888 C 0.8756 0.61793 0.74446 0.0
C889 C 0.87952 0.63816 0.77984 0.0
C890 C 0.87792 0.61813 0.69119 0.0
C891 C 0.88428 0.63854 0.67155 0.0
C892 C 0.88836 0.65871 0.70701 0.0
C893 C 0.88601 0.65852 0.76022 0.0
C894 C 0.90655 0.65243 0.54403 0.0
C895 C 0.89115 0.63982 0.50634 0.0
C896 C 0.90435 0.65195 0.59718 0.0
C897 C 0.88668 0.63884 0.61454 0.0
C898 C 0.87131 0.62613 0.57688 0.0
C899 C 0.87352 0.6266 0.52363 0.0
H900 H 0.10525 0.12393 0.51381 0.0
H901 H 0.17139 0.1584 0.55585 0.0
H902 H 0.11046 0.12556 0.42261 0.0
H903 H 0.17687 0.15977 0.46399 0.0
H904 H 0.1688 0.17651 0.29453 0.0
H905 H 0.16393 0.1766 0.38709 0.0
H906 H 0.13251 0.1085 0.35509 0.0
H907 H 0.137 0.10866 0.26304 0.0
C908 C 0.12107 0.13166 0.50357 0.0
C909 C 0.13801 0.1408 0.54237 0.0
C910 C 0.1241 0.13257 0.45104 0.0
C911 C 0.14423 0.14256 0.43545 0.0
C912 C 0.16103 0.15212 0.47431 0.0
C913 C 0.15792 0.1513 0.52709 0.0
C914 C 0.16092 0.16155 0.30737 0.0
C915 C 0.15308 0.14268 0.27114 0.0
C916 C 0.15817 0.16155 0.36054 0.0
C917 C 0.14764 0.14263 0.37892 0.0
C918 C 0.14016 0.12365 0.34258 0.0
C919 C 0.14277 0.12372 0.28959 0.0
H920 H 0.6062 0.39261 0.24204 0.0
H921 H 0.68036 0.40521 0.25857 0.0
H922 H 0.60585 0.39585 0.14955 0.0
H923 H 0.68014 0.40766 0.16564 0.0
H924 H 0.66642 0.43457 1.00686 0.0
H925 H 0.66737 0.43181 0.09963 0.0
H926 H 0.61825 0.37497 0.07009 0.0
H927 H 0.61736 0.37766 0.97724 0.0
C928 C 0.62243 0.39623 0.2261 0.0
C929 C 0.6433 0.39869 0.25809 0.0
C930 C 0.62228 0.39777 0.17276 0.0
C931 C 0.64299 0.40189 0.14978 0.0
C932 C 0.66382 0.40464 0.18187 0.0
C933 C 0.66398 0.40302 0.23521 0.0
C934 C 0.65606 0.42124 1.01995 0.0
C935 C 0.6418 0.40634 0.98419 0.0
C936 C 0.65657 0.4197 0.07335 0.0
C937 C 0.64282 0.40323 0.09266 0.0
C938 C 0.62876 0.38816 0.05688 0.0
C939 C 0.62827 0.38968 1.00348 0.0
H940 H 0.41638 0.87729 1.01405 0.0
H941 H 0.35787 0.92376 0.02736 0.0
H942 H 0.4144 0.87878 0.92088 0.0
H943 H 0.35571 0.92511 0.93367 0.0
H944 H 0.37148 0.93863 0.77043 0.0
H945 H 0.37539 0.93879 0.86442 0.0
H946 H 0.39054 0.86553 0.84396 0.0
H947 H 0.38769 0.86561 0.75028 0.0
C948 C 0.40291 0.88766 0.997 0.0
C949 C 0.38714 0.90023 0.02823 0.0
C950 C 0.40178 0.88852 0.94345 0.0
C951 C 0.3848 0.90195 0.91947 0.0
C952 C 0.3692 0.9148 0.95079 0.0
C953 C 0.37039 0.91399 1.00453 0.0
C954 C 0.37604 0.92264 0.78598 0.0
C955 C 0.37928 0.9021 0.75259 0.0
C956 C 0.37796 0.92266 0.83996 0.0
C957 C 0.3832 0.90216 0.86199 0.0
C958 C 0.38673 0.88171 0.82856 0.0
C959 C 0.38484 0.8817 0.77468 0.0
H960 H 0.14139 0.71282 0.04162 0.0
H961 H 0.14668 0.71059 0.20701 0.0
H962 H 0.13671 0.75437 0.05483 0.0
H963 H 0.14186 0.7533 0.22069 0.0
H964 H 0.1621 0.83428 0.20179 0.0
H965 H 0.16306 0.79202 0.20584 0.0
H966 H 0.10781 0.7826 0.08378 0.0
H967 H 0.10718 0.82405 0.07924 0.0
C968 C 0.1413 0.7212 0.08116 0.0
C969 C 0.14426 0.70809 0.12314 0.0
C970 C 0.13851 0.74525 0.08876 0.0
C971 C 0.13869 0.75752 0.13885 0.0
C972 C 0.14164 0.74454 0.18147 0.0
C973 C 0.14417 0.72003 0.17369 0.0
C974 C 0.1498 0.82318 0.1768 0.0
C975 C 0.13471 0.83269 0.13981 0.0
C976 C 0.15036 0.7989 0.17905 0.0
C977 C 0.13581 0.78361 0.14443 0.0
C978 C 0.11969 0.79353 0.11029 0.0
C979 C 0.11925 0.81748 0.10783 0.0
H980 H 0.57171 0.85367 0.44555 0.0
H981 H 0.57142 0.92759 0.4884 0.0
H982 H 0.53003 0.85201 0.45571 0.0
H983 H 0.52925 0.92639 0.49584 0.0
H984 H 0.45134 0.91762 0.51402 0.0
H985 H 0.49393 0.9163 0.53198 0.0
H986 H 0.49749 0.86114 0.40534 0.0
H987 H 0.45575 0.86206 0.38918 0.0
C988 C 0.56272 0.86954 0.45828 0.0
C989 C 0.57485 0.89069 0.4668 0.0
C990 C 0.53868 0.86871 0.46339 0.0
C991 C 0.52582 0.88915 0.47548 0.0
C992 C 0.53833 0.91022 0.48686 0.0
C993 C 0.56257 0.91096 0.48266 0.0
C994 C 0.46128 0.90478 0.49129 0.0
C995 C 0.45008 0.88992 0.45024 0.0
C996 C 0.48577 0.9042 0.50102 0.0
C997 C 0.49952 0.88861 0.47017 0.0
C998 C 0.48789 0.87313 0.43085 0.0
C999 C 0.46372 0.87377 0.4212 0.0
H1000 H 0.36651 0.32662 0.73991 0.0
H1001 H 0.41639 0.32207 0.62368 0.0
H1002 H 0.36766 0.28407 0.73824 0.0
H1003 H 0.41804 0.28027 0.62294 0.0
H1004 H 0.38494 0.21032 0.56638 0.0
H1005 H 0.38914 0.25178 0.58627 0.0
H1006 H 0.39038 0.24575 0.75002 0.0
H1007 H 0.38595 0.20311 0.72943 0.0
C1008 C 0.37824 0.31667 0.71526 0.0
C1009 C 0.39119 0.32779 0.68153 0.0
C1010 C 0.3789 0.29225 0.71424 0.0
C1011 C 0.3926 0.27849 0.67963 0.0
C1012 C 0.40683 0.29003 0.64917 0.0
C1013 C 0.40599 0.31414 0.6498 0.0
C1014 C 0.38636 0.21759 0.60687 0.0
C1015 C 0.38524 0.20317 0.64621 0.0
C1016 C 0.3889 0.24159 0.61836 0.0
C1017 C 0.39035 0.25241 0.66985 0.0
C1018 C 0.38933 0.23809 0.70985 0.0
C1019 C 0.38701 0.21364 0.69816 0.0
H1020 H 0.95934 0.10031 0.9462 0.0
H1021 H 0.94817 0.17405 0.96661 0.0
H1022 H 1.00135 0.10653 0.96161 0.0
H1023 H 0.99048 0.18049 0.98106 0.0
H1024 H 0.07736 0.12429 1.01005 0.0
H1025 H 0.03561 0.12239 1.02324 0.0
H1026 H 0.02168 0.17307 0.91712 0.0
H1027 H 0.06305 0.17464 0.90339 0.0
C1028 C 0.96588 0.11787 0.95599 0.0
C1029 C 0.95046 0.13667 0.95633 0.0
C1030 C 0.99 0.12146 0.96466 0.0
C1031 C 0.99942 0.14402 0.97243 0.0
C1032 C 0.98386 0.16288 0.97513 0.0
C1033 C 0.95961 0.15924 0.96752 0.0
C1034 C 0.06543 0.13544 0.9906 0.0
C1035 C 0.07358 0.1496 0.95563 0.0
C1036 C 0.04148 0.13423 0.99784 0.0
C1037 C 0.02519 0.14757 0.9712 0.0
C1038 C 0.03363 0.16274 0.93872 0.0
C1039 C 0.0574 0.16356 0.93066 0.0
H1040 H 0.10934 0.32875 0.89517 0.0
H1041 H 0.18378 0.32606 0.8896 0.0
H1042 H 0.10783 0.28609 0.88805 0.0
H1043 H 0.18243 0.28383 0.88171 0.0
H1044 H 0.17591 0.21971 0.96593 0.0
H1045 H 0.17507 0.25968 0.9489 0.0
H1046 H 0.11545 0.24486 0.83943 0.0
H1047 H 0.1165 0.20384 0.85663 0.0
C1048 C 0.12524 0.31903 0.88987 0.0
C1049 C 0.14665 0.33087 0.89176 0.0
C1050 C 0.12443 0.29451 0.88619 0.0
C1051 C 0.14505 0.28127 0.885 0.0
C1052 C 0.16618 0.29324 0.88329 0.0
C1053 C 0.16696 0.31755 0.88705 0.0
C1054 C 0.16272 0.2247 0.93757 0.0
C1055 C 0.14639 0.20831 0.91249 0.0
C1056 C 0.16231 0.24782 0.92756 0.0
C1057 C 0.14532 0.25581 0.89239 0.0
C1058 C 0.12884 0.23945 0.86676 0.0
C1059 C 0.12953 0.21587 0.87624 0.0
H1060 H 0.07624 0.86703 0.08532 0.0
H1061 H 0.06425 0.94018 0.08333 0.0
H1062 H 0.03401 0.86026 0.07989 0.0
H1063 H 0.02223 0.93348 0.07731 0.0
H1064 H 0.94584 0.91288 0.03962 0.0
H1065 H 0.98733 0.91492 1.02432 0.0
H1066 H 1.00368 0.87054 0.14309 0.0
H1067 H 0.96256 0.86872 0.15859 0.0
C1068 C 0.0646 0.88157 0.08237 0.0
C1069 C 0.07361 0.90416 0.08477 0.0
C1070 C 0.04038 0.87774 0.07968 0.0
C1071 C 0.0246 0.89634 0.07838 0.0
C1072 C 0.03373 0.91871 0.07776 0.0
C1073 C 0.05786 0.92257 0.08135 0.0
C1074 C 0.95826 0.90318 0.06165 0.0
C1075 C 0.95081 0.89068 0.10042 0.0
C1076 C 0.98208 0.90449 0.05319 0.0
C1077 C 0.99898 0.89294 0.08255 0.0
C1078 C 0.99128 0.87949 0.11936 0.0
C1079 C 0.96762 0.87854 0.12845 0.0
H1080 H 0.36555 0.70315 0.32098 0.0
H1081 H 0.413 0.72171 0.45572 0.0
H1082 H 0.36304 0.74414 0.30678 0.0
H1083 H 0.41071 0.76237 0.44135 0.0
H1084 H 0.41371 0.83353 0.38478 0.0
H1085 H 0.41989 0.79159 0.38264 0.0
H1086 H 0.3459 0.7799 0.35349 0.0
H1087 H 0.33979 0.82167 0.35631 0.0
C1088 C 0.37583 0.71586 0.34692 0.0
C1089 C 0.38947 0.70902 0.38952 0.0
C1090 C 0.37425 0.73943 0.33906 0.0
C1091 C 0.38664 0.75675 0.37296 0.0
C1092 C 0.40108 0.74966 0.41409 0.0
C1093 C 0.4023 0.72626 0.42248 0.0
C1094 C 0.39883 0.82196 0.37682 0.0
C1095 C 0.37624 0.83102 0.3706 0.0
C1096 C 0.40233 0.79789 0.37603 0.0
C1097 C 0.38339 0.78218 0.36809 0.0
C1098 C 0.36095 0.79128 0.35925 0.0
C1099 C 0.35743 0.8153 0.36095 0.0
H1100 H 0.57239 0.18222 0.61772 0.0
H1101 H 0.57157 0.109 0.56542 0.0
H1102 H 0.53002 0.18304 0.60734 0.0
H1103 H 0.52881 0.10939 0.55694 0.0
H1104 H 0.44894 0.1195 0.53526 0.0
H1105 H 0.49058 0.12114 0.52035 0.0
H1106 H 0.50192 0.17026 0.65854 0.0
H1107 H 0.461 0.16899 0.67243 0.0
C1108 C 0.56308 0.16639 0.60245 0.0
C1109 C 0.57532 0.14564 0.59169 0.0
C1110 C 0.53871 0.16673 0.59726 0.0
C1111 C 0.52572 0.14616 0.5825 0.0
C1112 C 0.53806 0.12561 0.56819 0.0
C1113 C 0.56262 0.12537 0.57274 0.0
C1114 C 0.46033 0.13095 0.56178 0.0
C1115 C 0.45147 0.1441 0.60507 0.0
C1116 C 0.48427 0.13175 0.55352 0.0
C1117 C 0.49986 0.14594 0.58801 0.0
C1118 C 0.49067 0.15946 0.63034 0.0
C1119 C 0.46701 0.15856 0.63865 0.0
H1120 H 0.91418 0.21453 0.97777 0.0
H1121 H 0.86679 0.20218 0.84096 0.0
H1122 H 0.91376 0.25577 0.97103 0.0
H1123 H 0.86602 0.24425 0.8346 0.0
H1124 H 0.88367 0.32577 0.83312 0.0
H1125 H 0.88786 0.28294 0.82367 0.0
H1126 H 0.88403 0.28429 0.98883 0.0
H1127 H 0.88011 0.32579 0.99805 0.0
C1128 C 0.90374 0.22056 0.94578 0.0
C1129 C 0.89031 0.20476 0.91033 0.0
C1130 C 0.90343 0.24444 0.94199 0.0
C1131 C 0.88947 0.25376 0.90287 0.0
C1132 C 0.87701 0.23789 0.86531 0.0
C1133 C 0.87744 0.2137 0.86896 0.0
C1134 C 0.88394 0.31683 0.86726 0.0
C1135 C 0.88168 0.32953 0.91643 0.0
C1136 C 0.88617 0.29223 0.86187 0.0
C1137 C 0.88658 0.27987 0.90561 0.0
C1138 C 0.88431 0.29285 0.95421 0.0
C1139 C 0.88191 0.31695 0.95943 0.0
H1140 H 0.68527 0.82268 0.38697 0.0
H1141 H 0.61135 0.82717 0.40198 0.0
H1142 H 0.68319 0.78067 0.38111 0.0
H1143 H 0.60923 0.78451 0.39714 0.0
H1144 H 0.61582 0.70194 0.36184 0.0
H1145 H 0.61456 0.74337 0.34765 0.0
H1146 H 0.67799 0.75569 0.44623 0.0
H1147 H 0.67915 0.71532 0.45989 0.0
C1148 C 0.66841 0.81465 0.38826 0.0
C1149 C 0.64854 0.82851 0.3952 0.0
C1150 C 0.66723 0.7904 0.38526 0.0
C1151 C 0.64612 0.77886 0.38964 0.0
C1152 C 0.62583 0.79259 0.39348 0.0
C1153 C 0.62702 0.81712 0.39624 0.0
C1154 C 0.62968 0.7135 0.37943 0.0
C1155 C 0.64775 0.70509 0.41159 0.0
C1156 C 0.62884 0.73734 0.37187 0.0
C1157 C 0.64627 0.75318 0.39548 0.0
C1158 C 0.66441 0.74432 0.42648 0.0
C1159 C 0.66505 0.72095 0.43449 0.0
H1160 H 0.84576 0.7159 0.18145 0.0
H1161 H 0.91704 0.70662 0.14385 0.0
H1162 H 0.85018 0.75798 0.18536 0.0
H1163 H 0.92136 0.74884 0.14642 0.0
H1164 H 0.90159 0.81822 0.07262 0.0
H1165 H 0.90383 0.77766 0.08819 0.0
H1166 H 0.87106 0.79486 0.23147 0.0
H1167 H 0.86949 0.83594 0.2163 0.0
C1168 C 0.86257 0.72289 0.17511 0.0
C1169 C 0.88107 0.70775 0.16279 0.0
C1170 C 0.86512 0.74711 0.17738 0.0
C1171 C 0.88611 0.75707 0.16611 0.0
C1172 C 0.90489 0.74193 0.15522 0.0
C1173 C 0.90249 0.71767 0.15415 0.0
C1174 C 0.89554 0.81352 0.10836 0.0
C1175 C 0.88572 0.83051 0.14357 0.0
C1176 C 0.89678 0.79015 0.11728 0.0
C1177 C 0.88759 0.7827 0.16107 0.0
C1178 C 0.8783 0.79983 0.19723 0.0
C1179 C 0.87762 0.82346 0.18891 0.0
H1180 H 0.68535 0.21596 0.65039 0.0
H1181 H 0.61393 0.20814 0.68485 0.0
H1182 H 0.68021 0.25765 0.65387 0.0
H1183 H 0.6089 0.25063 0.68934 0.0
H1184 H 0.62473 0.33531 0.73097 0.0
H1185 H 0.62771 0.29355 0.74152 0.0
H1186 H 0.65359 0.27974 0.58976 0.0
H1187 H 0.65029 0.32046 0.57884 0.0
C1188 C 0.66854 0.22313 0.65944 0.0
C1189 C 0.65002 0.2084 0.66681 0.0
C1190 C 0.66562 0.24719 0.66147 0.0
C1191 C 0.64413 0.25769 0.67167 0.0
C1192 C 0.62576 0.24322 0.68169 0.0
C1193 C 0.62862 0.21883 0.679 0.0
C1194 C 0.63106 0.32331 0.69999 0.0
C1195 C 0.6372 0.3315 0.65397 0.0
C1196 C 0.63259 0.29934 0.70584 0.0
C1197 C 0.64089 0.28314 0.6664 0.0
C1198 C 0.64719 0.29154 0.62103 0.0
C1199 C 0.64522 0.31508 0.61479 0.0
H1200 H 0.95472 0.41507 1.01295 0.0
H1201 H 0.9559 0.36607 0.87447 0.0
H1202 H 0.99762 0.41452 1.02222 0.0
H1203 H 0.9976 0.36644 0.8817 0.0
H1204 H 0.07266 0.35676 0.90844 0.0
H1205 H 0.03128 0.35478 0.91984 0.0
H1206 H 0.033 0.42605 0.99099 0.0
H1207 H 0.07518 0.42719 0.9826 0.0
C1208 C 0.96398 0.40401 0.98486 0.0
C1209 C 0.95151 0.39057 0.94308 0.0
C1210 C 0.9887 0.40387 0.98974 0.0
C1211 C 1.00164 0.39029 0.95297 0.0
C1212 C 0.98887 0.3767 0.91197 0.0
C1213 C 0.96453 0.3767 0.90743 0.0
C1214 C 0.06431 0.37184 0.92766 0.0
C1215 C 0.07731 0.39205 0.9448 0.0
C1216 C 0.04031 0.3709 0.93356 0.0
C1217 C 0.0281 0.39049 0.95503 0.0
C1218 C 0.04143 0.4105 0.97441 0.0
C1219 C 0.06572 0.4112 0.96965 0.0
H1220 H 0.4548 0.60358 0.44649 0.0
H1221 H 0.45344 0.6779 0.45238 0.0
H1222 H 0.49704 0.6047 0.4632 0.0
H1223 H 0.49614 0.67918 0.46838 0.0
H1224 H 0.57652 0.67076 0.51218 0.0
H1225 H 0.53418 0.67084 0.52288 0.0
H1226 H 0.52537 0.61292 0.40219 0.0
H1227 H 0.56687 0.61309 0.39156 0.0
C1228 C 0.46351 0.62028 0.45344 0.0
C1229 C 0.45073 0.64066 0.44909 0.0
C1230 C 0.48781 0.62094 0.46235 0.0
C1231 C 0.5002 0.642 0.46634 0.0
C1232 C 0.48725 0.66265 0.46587 0.0
C1233 C 0.46275 0.66197 0.45705 0.0
C1234 C 0.56547 0.65784 0.48883 0.0
C1235 C 0.57505 0.64181 0.45125 0.0
C1236 C 0.54122 0.65799 0.49456 0.0
C1237 C 0.52623 0.64177 0.46365 0.0
C1238 C 0.5362 0.62543 0.42737 0.0
C1239 C 0.56009 0.62557 0.42108 0.0
H1240 H 0.4398 0.41053 0.57158 0.0
H1241 H 0.4615 0.37793 0.70697 0.0
H1242 H 0.48041 0.4099 0.54721 0.0
H1243 H 0.50156 0.37673 0.68244 0.0
H1244 H 0.57172 0.36681 0.61523 0.0
H1245 H 0.52964 0.36078 0.61767 0.0
H1246 H 0.51724 0.43126 0.58749 0.0
H1247 H 0.55919 0.43731 0.586 0.0
C1248 C 0.45305 0.4025 0.59511 0.0
C1249 C 0.44733 0.39404 0.64094 0.0
C1250 C 0.4764 0.40235 0.58153 0.0
C1251 C 0.49447 0.39325 0.61282 0.0
C1252 C 0.4883 0.38363 0.65694 0.0
C1253 C 0.46522 0.38431 0.67105 0.0
C1254 C 0.55997 0.38079 0.60763 0.0
C1255 C 0.56891 0.40252 0.60006 0.0
C1256 C 0.5358 0.37743 0.60951 0.0
C1257 C 0.51984 0.39555 0.60297 0.0
C1258 C 0.52879 0.4168 0.5922 0.0
C1259 C 0.55292 0.42029 0.59135 0.0
H1260 H 0.07528 0.68326 0.10822 0.0
H1261 H 0.07316 0.6111 0.04574 0.0
H1262 H 0.03295 0.6847 0.10024 0.0
H1263 H 0.03033 0.61209 0.03968 0.0
H1264 H 0.95005 0.62448 1.02314 0.0
H1265 H 0.99168 0.62556 1.00676 0.0
H1266 H 1.00522 0.67074 0.15042 0.0
H1267 H 0.96447 0.67003 0.16571 0.0
C1268 C 0.06569 0.66777 0.09167 0.0
C1269 C 0.07761 0.64712 0.07746 0.0
C1270 C 0.04131 0.66847 0.08767 0.0
C1271 C 0.02792 0.64836 0.07059 0.0
C1272 C 0.03989 0.62798 0.05292 0.0
C1273 C 0.06449 0.62739 0.0562 0.0
C1274 C 0.96195 0.635 0.05048 0.0
C1275 C 0.95378 0.64719 0.09573 0.0
C1276 C 0.98587 0.63544 0.04142 0.0
C1277 C 1.00208 0.64836 0.07704 0.0
C1278 C 0.99353 0.66095 0.12132 0.0
C1279 C 0.96995 0.66038 0.13041 0.0
H1280 H 0.1046 0.56558 0.11531 0.0
H1281 H 0.17401 0.57879 0.07468 0.0
H1282 H 0.10468 0.52763 0.06318 0.0
H1283 H 0.17414 0.54078 1.02182 0.0
H1284 H 0.17416 0.46104 0.9685 0.0
H1285 H 0.17518 0.49877 1.02293 0.0
H1286 H 0.10285 0.50912 0.97569 0.0
H1287 H 0.10192 0.47158 0.92212 0.0
C1288 C 0.11992 0.56041 0.09514 0.0
C1289 C 0.13927 0.57543 0.09936 0.0
C1290 C 0.11994 0.53857 0.06479 0.0
C1291 C 0.1394 0.53078 0.03764 0.0
C1292 C 0.15887 0.5458 0.04228 0.0
C1293 C 0.15876 0.56778 0.07244 0.0
C1294 C 0.15847 0.47136 0.96992 0.0
C1295 C 0.13794 0.46309 0.94076 0.0
C1296 C 0.15907 0.49317 1.00097 0.0
C1297 C 0.13908 0.50735 1.00428 0.0
C1298 C 0.11858 0.49885 0.97519 0.0
C1299 C 0.11805 0.47722 0.94399 0.0
H1300 H 0.73244 0.89638 0.41555 0.0
H1301 H 0.692 0.90616 0.27379 0.0
H1302 H 0.76802 0.8958 0.36971 0.0
H1303 H 0.72726 0.90672 0.22863 0.0
H1304 H 0.79309 0.88707 0.14472 0.0
H1305 H 0.7573 0.88689 0.18998 0.0
H1306 H 0.79531 0.91559 0.33276 0.0
H1307 H 0.83074 0.91469 0.28835 0.0
C1308 C 0.73112 0.89875 0.37484 0.0
C1309 C 0.70917 0.90128 0.34874 0.0
C1310 C 0.75164 0.89852 0.34821 0.0
C1311 C 0.75097 0.90116 0.29468 0.0
C1312 C 0.72891 0.90408 0.26915 0.0
C1313 C 0.70848 0.90399 0.2955 0.0
C1314 C 0.79373 0.8934 0.18571 0.0
C1315 C 0.81502 0.90075 0.21253 0.0
C1316 C 0.77309 0.89341 0.21198 0.0
C1317 C 0.77299 0.90109 0.26585 0.0
C1318 C 0.79432 0.90891 0.29199 0.0
C1319 C 0.81485 0.9086 0.26604 0.0
H1320 H 0.39126 0.4862 0.67291 0.0
H1321 H 0.36941 0.45096 0.52153 0.0
H1322 H 0.39245 0.5229 0.63579 0.0
H1323 H 0.36954 0.48722 0.48512 0.0
H1324 H 0.3894 0.55229 0.41763 0.0
H1325 H 0.39002 0.51597 0.45594 0.0
H1326 H 0.37316 0.55323 0.6024 0.0
H1327 H 0.37363 0.58934 0.56474 0.0
C1328 C 0.38648 0.48624 0.6319 0.0
C1329 C 0.38037 0.46534 0.60058 0.0
C1330 C 0.38704 0.50743 0.61031 0.0
C1331 C 0.38124 0.5085 0.55673 0.0
C1332 C 0.37478 0.48752 0.52598 0.0
C1333 C 0.3745 0.46648 0.5473 0.0
C1334 C 0.3858 0.55273 0.45797 0.0
C1335 C 0.38147 0.57401 0.48767 0.0
C1336 C 0.38602 0.53173 0.48023 0.0
C1337 C 0.38159 0.53115 0.53291 0.0
C1338 C 0.37713 0.55254 0.56227 0.0
C1339 C 0.37719 0.57347 0.54024 0.0
H1340 H 0.82564 0.10693 0.86616 0.0
H1341 H 0.80959 0.17716 0.92629 0.0
H1342 H 0.79041 0.10554 0.80641 0.0
H1343 H 0.77457 0.17584 0.86719 0.0
H1344 H 0.70031 0.15634 0.80644 0.0
H1345 H 0.7369 0.15704 0.85867 0.0
H1346 H 0.77019 0.1214 0.72878 0.0
H1347 H 0.7329 0.12056 0.67552 0.0
C1348 C 0.8147 0.12214 0.86639 0.0
C1349 C 0.82051 0.14218 0.90117 0.0
C1350 C 0.79451 0.12137 0.83193 0.0
C1351 C 0.77938 0.14052 0.83186 0.0
C1352 C 0.78547 0.16059 0.86637 0.0
C1353 C 0.80567 0.1614 0.90034 0.0
C1354 C 0.71531 0.14861 0.78845 0.0
C1355 C 0.71339 0.13841 0.73626 0.0
C1356 C 0.73652 0.14918 0.81867 0.0
C1357 C 0.75678 0.13946 0.79823 0.0
C1358 C 0.75499 0.129 0.7461 0.0
C1359 C 0.73361 0.12862 0.71538 0.0
H1360 H 0.92795 0.56651 0.10961 0.0
H1361 H 0.85496 0.57673 0.07048 0.0
H1362 H 0.9264 0.52919 0.055 0.0
H1363 H 0.8533 0.5392 1.01522 0.0
H1364 H 0.85418 0.45936 0.9619 0.0
H1365 H 0.85486 0.49719 1.01543 0.0
H1366 H 0.92295 0.51079 0.96693 0.0
H1367 H 0.92221 0.47296 0.91384 0.0
C1368 C 0.9115 0.56083 0.0892 0.0
C1369 C 0.89159 0.57484 0.09479 0.0
C1370 C 0.91063 0.53934 0.05737 0.0
C1371 C 0.88973 0.53079 0.03002 0.0
C1372 C 0.86973 0.54483 0.03575 0.0
C1373 C 0.87068 0.56652 0.06733 0.0
C1374 C 0.8693 0.47044 0.9626 0.0
C1375 C 0.88816 0.46291 0.93334 0.0
C1376 C 0.86965 0.49232 0.99322 0.0
C1377 C 0.88898 0.50744 0.99611 0.0
C1378 C 0.90782 0.49979 0.96668 0.0
C1379 C 0.90737 0.47802 0.93578 0.0
H1380 H 0.19221 0.12711 0.76278 0.0
H1381 H 0.23099 0.1442 0.91082 0.0
H1382 H 0.22796 0.12514 0.71924 0.0
H1383 H 0.26713 0.14323 0.86677 0.0
H1384 H 0.33063 0.1202 0.78114 0.0
H1385 H 0.2947 0.12093 0.82391 0.0
H1386 H 0.25807 0.14476 0.68954 0.0
H1387 H 0.29429 0.14304 0.64567 0.0
C1388 C 0.20841 0.13065 0.78629 0.0
C1389 C 0.2085 0.13583 0.84073 0.0
C1390 C 0.22911 0.1297 0.76093 0.0
C1391 C 0.25084 0.13415 0.78881 0.0
C1392 C 0.25096 0.1393 0.84347 0.0
C1393 C 0.23015 0.13998 0.86903 0.0
C1394 C 0.31492 0.1255 0.76031 0.0
C1395 C 0.31555 0.13155 0.70957 0.0
C1396 C 0.29415 0.12615 0.78536 0.0
C1397 C 0.2731 0.13314 0.76102 0.0
C1398 C 0.27366 0.13896 0.70984 0.0
C1399 C 0.29453 0.13803 0.68441 0.0
H1400 H 0.67485 0.57348 0.44797 0.0
H1401 H 0.59993 0.57082 0.43974 0.0
H1402 H 0.67658 0.53916 0.49492 0.0
H1403 H 0.60165 0.53715 0.48839 0.0
H1404 H 0.61792 0.48917 0.62264 0.0
H1405 H 0.61724 0.52543 0.58224 0.0
H1406 H 0.66319 0.49496 0.46976 0.0
H1407 H 0.66313 0.45869 0.50854 0.0
C1408 C 0.65874 0.56578 0.45666 0.0
C1409 C 0.63725 0.57501 0.43963 0.0
C1410 C 0.65971 0.54601 0.48356 0.0
C1411 C 0.63925 0.5352 0.49584 0.0
C1412 C 0.6178 0.54494 0.48017 0.0
C1413 C 0.61682 0.56426 0.45197 0.0
C1414 C 0.62807 0.49027 0.58964 0.0
C1415 C 0.64066 0.47081 0.56924 0.0
C1416 C 0.62756 0.51106 0.56616 0.0
C1417 C 0.64021 0.51334 0.52252 0.0
C1418 C 0.65335 0.4941 0.50334 0.0
C1419 C 0.65327 0.47318 0.5257 0.0
H1420 H 0.32335 0.92165 0.25315 0.0
H1421 H 0.29217 0.88591 0.36654 0.0
H1422 H 0.28589 0.92122 0.20189 0.0
H1423 H 0.25471 0.88466 0.31375 0.0
H1424 H 0.20824 0.86084 0.14985 0.0
H1425 H 0.2432 0.86378 0.2105 0.0
H1426 H 0.24097 0.93825 0.21894 0.0
H1427 H 0.2054 0.93536 0.15988 0.0
C1428 C 0.30844 0.91382 0.26738 0.0
C1429 C 0.31081 0.90394 0.31427 0.0
C1430 C 0.28695 0.91361 0.23793 0.0
C1431 C 0.26728 0.90288 0.25358 0.0
C1432 C 0.26953 0.89306 0.30059 0.0
C1433 C 0.29094 0.8939 0.33099 0.0
C1434 C 0.2151 0.87786 0.16495 0.0
C1435 C 0.20405 0.89786 0.14977 0.0
C1436 C 0.23506 0.87953 0.19994 0.0
C1437 C 0.24491 0.90124 0.21966 0.0
C1438 C 0.23384 0.92127 0.20451 0.0
C1439 C 0.21347 0.91961 0.17068 0.0
H1440 H 0.60002 0.97067 0.44028 0.0
H1441 H 0.67205 0.95928 0.48705 0.0
H1442 H 0.60151 1.00848 0.4924 0.0
H1443 H 0.67359 0.99728 0.54055 0.0
H1444 H 0.67322 0.07733 0.59501 0.0
H1445 H 0.67344 0.0392 0.54231 0.0
H1446 H 0.60279 0.0274 0.57787 0.0
H1447 H 0.60258 0.06536 0.62926 0.0
C1448 C 0.61625 0.97619 0.46192 0.0
C1449 C 0.63588 0.96168 0.4592 0.0
C1450 C 0.61709 0.99799 0.4924 0.0
C1451 C 0.63764 1.00634 0.5216 0.0
C1452 C 0.65743 0.99184 0.51859 0.0
C1453 C 0.65654 0.96986 0.48806 0.0
C1454 C 0.65775 0.06656 0.5915 0.0
C1455 C 0.63786 0.07464 0.61654 0.0
C1456 C 0.65789 0.04452 0.56139 0.0
C1457 C 0.63808 0.02983 0.55501 0.0
C1458 C 0.61832 0.03803 0.58054 0.0
C1459 C 0.61823 0.05993 0.61059 0.0
H1460 H 0.23529 0.41371 0.90141 0.0
H1461 H 0.19845 0.3809 0.76125 0.0
H1462 H 0.27155 0.41212 0.85619 0.0
H1463 H 0.23401 0.37937 0.717 0.0
H1464 H 0.30449 0.35735 0.66227 0.0
H1465 H 0.27076 0.35942 0.71389 0.0
H1466 H 0.29166 0.42799 0.78418 0.0
H1467 H 0.32562 0.42591 0.73167 0.0
C1468 C 0.23483 0.40606 0.86127 0.0
C1469 C 0.21362 0.3974 0.83552 0.0
C1470 C 0.25566 0.40528 0.83507 0.0
C1471 C 0.25604 0.39546 0.78258 0.0
C1472 C 0.23483 0.38675 0.75737 0.0
C1473 C 0.21417 0.38778 0.78307 0.0
C1474 C 0.30202 0.37292 0.68873 0.0
C1475 C 0.31799 0.39143 0.69245 0.0
C1476 C 0.28249 0.37416 0.71845 0.0
C1477 C 0.27807 0.39395 0.75349 0.0
C1478 C 0.29436 0.41236 0.75816 0.0
C1479 C 0.31389 0.41119 0.72784 0.0
H1480 H 0.85397 0.95435 0.08444 0.0
H1481 H 0.92353 0.9731 0.14772 0.0
H1482 H 0.85231 0.98919 0.03918 0.0
H1483 H 0.9218 1.00778 0.10364 0.0
H1484 H 0.90113 0.08123 0.07265 0.0
H1485 H 0.90218 0.04504 0.11026 0.0
H1486 H 0.86884 1.00987 0.9686 0.0
H1487 H 0.86787 0.04663 0.93017 0.0
C1488 C 0.869 0.96574 0.08845 0.0
C1489 C 0.88894 0.96064 0.11988 0.0
C1490 C 0.86806 0.9858 0.06233 0.0
C1491 C 0.88687 1.00169 0.06756 0.0
C1492 C 0.90678 0.99637 0.0988 0.0
C1493 C 0.90782 0.97628 0.12417 0.0
C1494 C 0.89404 0.06588 0.04894 0.0
C1495 C 0.88447 0.06722 0.99783 0.0
C1496 C 0.89477 0.04488 0.07075 0.0
C1497 C 0.88571 0.02414 0.04284 0.0
C1498 C 0.87592 0.02535 0.99172 0.0
C1499 C 0.87551 0.04649 0.96941 0.0
H1500 H 0.20637 0.61424 0.2617 0.0
H1501 H 0.23364 0.66062 0.16369 0.0
H1502 H 0.24336 0.61599 0.31457 0.0
H1503 H 0.27071 0.66302 0.21812 0.0
H1504 H 0.31597 0.68305 0.38199 0.0
H1505 H 0.28203 0.67945 0.31844 0.0
H1506 H 0.28764 0.60501 0.30482 0.0
H1507 H 0.32202 0.60864 0.36711 0.0
C1508 C 0.22039 0.62464 0.25105 0.0
C1509 C 0.21701 0.63715 0.20806 0.0
C1510 C 0.24164 0.62563 0.28145 0.0
C1511 C 0.26008 0.63968 0.27085 0.0
C1512 C 0.25687 0.65205 0.2275 0.0
C1513 C 0.23571 0.65054 0.19603 0.0
C1514 C 0.31007 0.66591 0.36513 0.0
C1515 C 0.32169 0.64613 0.37989 0.0
C1516 C 0.29069 0.66386 0.32841 0.0
C1517 C 0.28203 0.64194 0.30638 0.0
C1518 C 0.29376 0.62216 0.32101 0.0
C1519 C 0.31349 0.62423 0.35672 0.0
H1520 H 0.3527 0.95992 0.45857 0.0
H1521 H 0.4239 0.97204 0.42851 0.0
H1522 H 0.35297 0.99644 0.51708 0.0
H1523 H 0.42417 1.00853 0.48593 0.0
H1524 H 0.42593 0.06145 0.63171 0.0
H1525 H 0.42467 0.02473 0.57472 0.0
H1526 H 0.35369 0.03839 0.52201 0.0
H1527 H 0.35495 0.07504 0.58001 0.0
C1528 C 0.36842 0.97037 0.46438 0.0
C1529 C 0.3883 0.96289 0.43877 0.0
C1530 C 0.36855 0.99148 0.49776 0.0
C1531 C 0.38863 1.00573 0.50686 0.0
C1532 C 0.40845 0.99811 0.48098 0.0
C1533 C 0.40826 0.97713 0.44754 0.0
C1534 C 0.41002 0.05663 0.60801 0.0
C1535 C 0.39059 0.07137 0.61046 0.0
C1536 C 0.40932 0.03553 0.57487 0.0
C1537 C 0.3891 0.0283 0.54305 0.0
C1538 C 0.36954 0.04302 0.54599 0.0
C1539 C 0.3703 0.06421 0.57908 0.0
H1540 H 0.79483 0.64075 0.14105 0.0
H1541 H 0.83476 0.62921 0.28226 0.0
H1542 H 0.75907 0.64095 0.18629 0.0
H1543 H 0.79937 0.62827 0.32672 0.0
H1544 H 0.73353 0.64676 0.41114 0.0
H1545 H 0.76938 0.64744 0.36631 0.0
H1546 H 0.7313 0.62125 0.22173 0.0
H1547 H 0.69579 0.62169 0.26586 0.0
C1548 C 0.796 0.63792 0.1815 0.0
C1549 C 0.81789 0.63502 0.20762 0.0
C1550 C 0.77537 0.63793 0.20779 0.0
C1551 C 0.77584 0.63469 0.261 0.0
C1552 C 0.79784 0.63139 0.2865 0.0
C1553 C 0.81836 0.63171 0.26052 0.0
C1554 C 0.73288 0.64109 0.36985 0.0
C1555 C 0.71153 0.63427 0.34252 0.0
C1556 C 0.75357 0.64136 0.34378 0.0
C1557 C 0.75371 0.63451 0.28956 0.0
C1558 C 0.7323 0.62727 0.26285 0.0
C1559 C 0.71172 0.62731 0.28863 0.0
H1560 H 0.16954 0.08395 0.96549 0.0
H1561 H 0.10002 0.06483 0.90248 0.0
H1562 H 0.17187 0.04869 1.00901 0.0
H1563 H 0.10248 0.02955 0.94475 0.0
H1564 H 0.12528 0.95599 0.97342 0.0
H1565 H 0.1234 0.99241 0.93642 0.0
H1566 H 0.15519 0.02788 0.07943 0.0
H1567 H 0.15688 0.99101 0.11722 0.0
C1568 C 0.15467 0.07236 0.96116 0.0
C1569 C 0.13452 0.0775 0.93048 0.0
C1570 C 0.156 0.05207 0.98626 0.0
C1571 C 0.13741 0.03596 0.9806 0.0
C1572 C 0.1173 0.04122 0.94989 0.0
C1573 C 0.11585 0.06161 0.9256 0.0
C1574 C 0.13189 0.97146 0.99742 0.0
C1575 C 0.14123 0.97024 0.04873 0.0
C1576 C 0.13067 0.99255 0.97603 0.0
C1577 C 0.13903 1.01341 1.00462 0.0
C1578 C 0.14865 1.01228 0.05586 0.0
C1579 C 0.14952 0.99108 0.07775 0.0
H1580 H 0.69911 0.43449 0.69282 0.0
H1581 H 0.70716 0.36041 0.6634 0.0
H1582 H 0.73465 0.43692 0.75189 0.0
H1583 H 0.7422 0.36273 0.72348 0.0
H1584 H 0.79357 0.37546 0.87333 0.0
H1585 H 0.75554 0.37452 0.82279 0.0
H1586 H 0.77886 0.42857 0.73916 0.0
H1587 H 0.81688 0.42887 0.78803 0.0
C1588 C 0.70831 0.41869 0.69928 0.0
C1589 C 0.70026 0.39727 0.67293 0.0
C1590 C 0.72874 0.42008 0.73314 0.0
C1591 C 0.74141 0.40001 0.74279 0.0
C1592 C 0.73291 0.37854 0.71753 0.0
C1593 C 0.71284 0.37723 0.68275 0.0
C1594 C 0.79041 0.38741 0.84481 0.0
C1595 C 0.8083 0.40238 0.83518 0.0
C1596 C 0.76867 0.38675 0.81546 0.0
C1597 C 0.76399 0.4015 0.77669 0.0
C1598 C 0.78163 0.41708 0.76875 0.0
C1599 C 0.80349 0.41725 0.79689 0.0
loop_
_geom_bond_atom_site_label_1
_geom_bond_atom_site_label_2
_geom_bond_distance
_geom_bond_site_symmetry_2
_ccdc_geom_bond_type
La0 C2 2.928 1_554 S
La0 O20 2.521 1_554 S
La0 O21 2.628 1_554 S
La0 O22 2.554 . S
La0 O23 2.757 . S
La0 O24 2.470 . S
La0 O29 2.482 . S
La0 O31 2.503 . S
La1 C11 2.928 . S
La1 O23 2.482 . S
La1 O25 2.503 . S
La1 O26 2.521 . S
La1 O27 2.628 . S
La1 O28 2.554 . S
La1 O29 2.757 . S
La1 O30 2.470 . S
C2 La0 2.928 1_556 S
C2 C3 1.503 . S
C2 O20 1.261 . S
C2 O21 1.243 . S
C3 C2 1.503 . S
C3 C4 1.394 . S
C3 C8 1.373 . S
C4 C3 1.394 . S
C4 C5 1.380 . S
C4 H32 0.930 . S
C5 C4 1.380 . S
C5 C6 1.376 . S
C5 H33 0.930 . S
C6 C5 1.376 . S
C6 C7 1.370 . S
C7 C6 1.370 . S
C7 C8 1.396 . S
C7 H34 0.929 . S
C8 C3 1.373 . S
C8 C7 1.396 . S
C8 H35 0.929 . S
C9 O22 1.240 . S
C9 O23 1.289 . S
C10 O24 1.258 . S
C10 O25 1.256 . S
C11 La1 2.928 . S
C11 C12 1.503 . S
C11 O26 1.261 . S
C11 O27 1.243 . S
C12 C11 1.503 . S
C12 C13 1.394 . S
C12 C17 1.373 . S
C13 C12 1.394 . S
C13 C14 1.380 . S
C13 H36 0.930 . S
C14 C13 1.380 . S
C14 C15 1.376 . S
C14 H37 0.930 . S
C15 C14 1.376 . S
C15 C16 1.370 . S
C16 C15 1.370 . S
C16 C17 1.396 . S
C16 H38 0.929 . S
C17 C12 1.373 . S
C17 C16 1.396 . S
C17 H39 0.929 . S
C18 O28 1.240 . S
C18 O29 1.289 . S
C19 O30 1.258 . S
C19 O31 1.256 . S
O20 La0 2.521 1_556 S
O20 C2 1.261 . S
O21 La0 2.628 1_556 S
O21 C2 1.243 . S
O22 La0 2.554 . S
O22 C9 1.240 . S
O23 La0 2.757 . S
O23 La1 2.482 . S
O23 C9 1.289 . S
O24 La0 2.470 . S
O24 C10 1.258 . S
O25 La1 2.503 . S
O25 C10 1.256 . S
O26 La1 2.521 . S
O26 C11 1.261 . S
O27 La1 2.628 . S
O27 C11 1.243 . S
O28 La1 2.554 . S
O28 C18 1.240 . S
O29 La0 2.482 . S
O29 La1 2.757 . S
O29 C18 1.289 . S
O30 La1 2.470 . S
O30 C19 1.258 . S
O31 La0 2.503 . S
O31 C19 1.256 . S
H32 C4 0.930 . S
H33 C5 0.930 . S
H34 C7 0.929 . S
H35 C8 0.929 . S
H36 C13 0.930 . S
H37 C14 0.930 . S
H38 C16 0.929 . S
H39 C17 0.929 . S
La40 C42 2.928 . S
La40 O60 2.521 . S
La40 O61 2.628 . S
La40 O62 2.554 . S
La40 O63 2.757 . S
La40 O64 2.470 . S
La40 O69 2.482 . S
La40 O71 2.503 . S
La41 C51 2.928 . S
La41 O63 2.482 . S
La41 O65 2.503 . S
La41 O66 2.521 . S
La41 O67 2.628 . S
La41 O68 2.554 . S
La41 O69 2.757 . S
La41 O70 2.470 . S
C42 La40 2.928 . S
C42 C43 1.503 . S
C42 O60 1.261 . S
C42 O61 1.243 . S
C43 C42 1.503 . S
C43 C44 1.394 . S
C43 C48 1.373 . S
C44 C43 1.394 . S
C44 C45 1.380 . S
C44 H72 0.930 . S
C45 C44 1.380 . S
C45 C46 1.376 . S
C45 H73 0.930 . S
C46 C45 1.376 . S
C46 C47 1.370 . S
C47 C46 1.370 . S
C47 C48 1.396 . S
C47 H74 0.929 . S
C48 C43 1.373 . S
C48 C47 1.396 . S
C48 H75 0.929 . S
C49 O62 1.240 . S
C49 O63 1.289 . S
C50 O64 1.258 . S
C50 O65 1.256 . S
C51 La41 2.928 . S
C51 C52 1.503 . S
C51 O66 1.261 . S
C51 O67 1.243 . S
C52 C51 1.503 . S
C52 C53 1.394 . S
C52 C57 1.373 . S
C53 C52 1.394 . S
C53 C54 1.380 . S
C53 H76 0.930 . S
C54 C53 1.380 . S
C54 C55 1.376 . S
C54 H77 0.930 . S
C55 C54 1.376 . S
C55 C56 1.370 . S
C56 C55 1.370 . S
C56 C57 1.396 . S
C56 H78 0.929 . S
C57 C52 1.373 . S
C57 C56 1.396 . S
C57 H79 0.929 . S
C58 O68 1.240 . S
C58 O69 1.289 . S
C59 O70 1.258 . S
C59 O71 1.256 . S
O60 La40 2.521 . S
O60 C42 1.261 . S
O61 La40 2.628 . S
O61 C42 1.243 . S
O62 La40 2.554 . S
O62 C49 1.240 . S
O63 La40 2.757 . S
O63 La41 2.482 . S
O63 C49 1.289 . S
O64 La40 2.470 . S
O64 C50 1.258 . S
O65 La41 2.503 . S
O65 C50 1.256 . S
O66 La41 2.521 . S
O66 C51 1.261 . S
O67 La41 2.628 . S
O67 C51 1.243 . S
O68 La41 2.554 . S
O68 C58 1.240 . S
O69 La40 2.482 . S
O69 La41 2.757 . S
O69 C58 1.289 . S
O70 La41 2.470 . S
O70 C59 1.258 . S
O71 La40 2.503 . S
O71 C59 1.256 . S
H72 C44 0.930 . S
H73 C45 0.930 . S
H74 C47 0.929 . S
H75 C48 0.929 . S
H76 C53 0.930 . S
H77 C54 0.930 . S
H78 C56 0.929 . S
H79 C57 0.929 . S
La80 C82 2.928 . S
La80 O100 2.521 . S
La80 O101 2.628 . S
La80 O102 2.554 . S
La80 O103 2.757 . S
La80 O104 2.470 . S
La80 O109 2.482 . S
La80 O111 2.503 . S
La81 C91 2.928 . S
La81 O103 2.482 . S
La81 O105 2.503 . S
La81 O106 2.521 . S
La81 O107 2.628 . S
La81 O108 2.554 . S
La81 O109 2.757 . S
La81 O110 2.470 . S
C82 La80 2.928 . S
C82 C83 1.503 . S
C82 O100 1.261 . S
C82 O101 1.243 . S
C83 C82 1.503 . S
C83 C84 1.394 . S
C83 C88 1.373 . S
C84 C83 1.394 . S
C84 C85 1.380 . S
C84 H112 0.930 . S
C85 C84 1.380 . S
C85 C86 1.376 . S
C85 H113 0.930 . S
C86 C85 1.376 . S
C86 C87 1.370 . S
C87 C86 1.370 . S
C87 C88 1.396 . S
C87 H114 0.929 . S
C88 C83 1.373 . S
C88 C87 1.396 . S
C88 H115 0.929 . S
C89 O102 1.240 . S
C89 O103 1.289 . S
C90 O104 1.258 . S
C90 O105 1.256 . S
C91 La81 2.928 . S
C91 C92 1.503 . S
C91 O106 1.261 . S
C91 O107 1.243 . S
C92 C91 1.503 . S
C92 C93 1.394 . S
C92 C97 1.373 . S
C93 C92 1.394 . S
C93 C94 1.380 . S
C93 H116 0.930 . S
C94 C93 1.380 . S
C94 C95 1.376 . S
C94 H117 0.930 . S
C95 C94 1.376 . S
C95 C96 1.370 . S
C96 C95 1.370 . S
C96 C97 1.396 . S
C96 H118 0.929 . S
C97 C92 1.373 . S
C97 C96 1.396 . S
C97 H119 0.929 . S
C98 O108 1.240 . S
C98 O109 1.289 . S
C99 O110 1.258 . S
C99 O111 1.256 . S
O100 La80 2.521 . S
O100 C82 1.261 . S
O101 La80 2.628 . S
O101 C82 1.243 . S
O102 La80 2.554 . S
O102 C89 1.240 . S
O103 La80 2.757 . S
O103 La81 2.482 . S
O103 C89 1.289 . S
O104 La80 2.470 . S
O104 C90 1.258 . S
O105 La81 2.503 . S
O105 C90 1.256 . S
O106 La81 2.521 . S
O106 C91 1.261 . S
O107 La81 2.628 . S
O107 C91 1.243 . S
O108 La81 2.554 . S
O108 C98 1.240 . S
O109 La80 2.482 . S
O109 La81 2.757 . S
O109 C98 1.289 . S
O110 La81 2.470 . S
O110 C99 1.258 . S
O111 La80 2.503 . S
O111 C99 1.256 . S
H112 C84 0.930 . S
H113 C85 0.930 . S
H114 C87 0.929 . S
H115 C88 0.929 . S
H116 C93 0.930 . S
H117 C94 0.930 . S
H118 C96 0.929 . S
H119 C97 0.929 . S
La120 C122 2.928 . S
La120 O140 2.521 . S
La120 O141 2.628 . S
La120 O142 2.554 . S
La120 O143 2.757 . S
La120 O144 2.470 . S
La120 O149 2.482 . S
La120 O151 2.503 . S
La121 C131 2.928 . S
La121 O143 2.482 1_554 S
La121 O145 2.503 1_554 S
La121 O146 2.521 . S
La121 O147 2.628 . S
La121 O148 2.554 1_554 S
La121 O149 2.757 1_554 S
La121 O150 2.470 . S
C122 La120 2.928 . S
C122 C123 1.503 . S
C122 O140 1.261 . S
C122 O141 1.243 . S
C123 C122 1.503 . S
C123 C124 1.394 . S
C123 C128 1.373 . S
C124 C123 1.394 . S
C124 C125 1.380 . S
C124 H152 0.930 . S
C125 C124 1.380 . S
C125 C126 1.376 . S
C125 H153 0.930 . S
C126 C125 1.376 . S
C126 C127 1.370 . S
C127 C126 1.370 . S
C127 C128 1.396 . S
C127 H154 0.929 . S
C128 C123 1.373 . S
C128 C127 1.396 . S
C128 H155 0.929 . S
C129 O142 1.240 . S
C129 O143 1.289 . S
C130 O144 1.258 . S
C130 O145 1.256 . S
C131 La121 2.928 . S
C131 C132 1.503 . S
C131 O146 1.261 . S
C131 O147 1.243 . S
C132 C131 1.503 . S
C132 C133 1.394 . S
C132 C137 1.373 . S
C133 C132 1.394 . S
C133 C134 1.380 . S
C133 H156 0.930 . S
C134 C133 1.380 . S
C134 C135 1.376 . S
C134 H157 0.930 . S
C135 C134 1.376 . S
C135 C136 1.370 . S
C136 C135 1.370 . S
C136 C137 1.396 . S
C136 H158 0.929 . S
C137 C132 1.373 . S
C137 C136 1.396 . S
C137 H159 0.929 . S
C138 O148 1.240 . S
C138 O149 1.289 . S
C139 O150 1.258 1_556 S
C139 O151 1.256 . S
O140 La120 2.521 . S
O140 C122 1.261 . S
O141 La120 2.628 . S
O141 C122 1.243 . S
O142 La120 2.554 . S
O142 C129 1.240 . S
O143 La120 2.757 . S
O143 La121 2.482 1_556 S
O143 C129 1.289 . S
O144 La120 2.470 . S
O144 C130 1.258 . S
O145 La121 2.503 1_556 S
O145 C130 1.256 . S
O146 La121 2.521 . S
O146 C131 1.261 . S
O147 La121 2.628 . S
O147 C131 1.243 . S
O148 La121 2.554 1_556 S
O148 C138 1.240 . S
O149 La120 2.482 . S
O149 La121 2.757 1_556 S
O149 C138 1.289 . S
O150 La121 2.470 . S
O150 C139 1.258 1_554 S
O151 La120 2.503 . S
O151 C139 1.256 . S
H152 C124 0.930 . S
H153 C125 0.930 . S
H154 C127 0.929 . S
H155 C128 0.929 . S
H156 C133 0.930 . S
H157 C134 0.930 . S
H158 C136 0.929 . S
H159 C137 0.929 . S
La160 C162 2.928 1_556 S
La160 O180 2.521 1_556 S
La160 O181 2.628 1_556 S
La160 O182 2.554 . S
La160 O183 2.757 . S
La160 O184 2.470 . S
La160 O189 2.482 . S
La160 O191 2.503 . S
La161 C171 2.928 . S
La161 O183 2.482 . S
La161 O185 2.503 . S
La161 O186 2.521 . S
La161 O187 2.628 . S
La161 O188 2.554 . S
La161 O189 2.757 . S
La161 O190 2.470 . S
C162 La160 2.928 1_554 S
C162 C163 1.503 . S
C162 O180 1.261 . S
C162 O181 1.243 . S
C163 C162 1.503 . S
C163 C164 1.394 . S
C163 C168 1.373 . S
C164 C163 1.394 . S
C164 C165 1.380 . S
C164 H192 0.930 . S
C165 C164 1.380 . S
C165 C166 1.376 . S
C165 H193 0.930 . S
C166 C165 1.376 . S
C166 C167 1.370 . S
C167 C166 1.370 . S
C167 C168 1.396 . S
C167 H194 0.929 . S
C168 C163 1.373 . S
C168 C167 1.396 . S
C168 H195 0.929 . S
C169 O182 1.240 . S
C169 O183 1.289 . S
C170 O184 1.258 . S
C170 O185 1.256 . S
C171 La161 2.928 . S
C171 C172 1.503 . S
C171 O186 1.261 . S
C171 O187 1.243 . S
C172 C171 1.503 . S
C172 C173 1.394 . S
C172 C177 1.373 . S
C173 C172 1.394 . S
C173 C174 1.380 . S
C173 H196 0.930 . S
C174 C173 1.380 . S
C174 C175 1.376 . S
C174 H197 0.930 . S
C175 C174 1.376 . S
C175 C176 1.370 . S
C176 C175 1.370 . S
C176 C177 1.396 . S
C176 H198 0.929 . S
C177 C172 1.373 . S
C177 C176 1.396 . S
C177 H199 0.929 . S
C178 O188 1.240 . S
C178 O189 1.289 . S
C179 O190 1.258 . S
C179 O191 1.256 . S
O180 La160 2.521 1_554 S
O180 C162 1.261 . S
O181 La160 2.628 1_554 S
O181 C162 1.243 . S
O182 La160 2.554 . S
O182 C169 1.240 . S
O183 La160 2.757 . S
O183 La161 2.482 . S
O183 C169 1.289 . S
O184 La160 2.470 . S
O184 C170 1.258 . S
O185 La161 2.503 . S
O185 C170 1.256 . S
O186 La161 2.521 . S
O186 C171 1.261 . S
O187 La161 2.628 . S
O187 C171 1.243 . S
O188 La161 2.554 . S
O188 C178 1.240 . S
O189 La160 2.482 . S
O189 La161 2.757 . S
O189 C178 1.289 . S
O190 La161 2.470 . S
O190 C179 1.258 . S
O191 La160 2.503 . S
O191 C179 1.256 . S
H192 C164 0.930 . S
H193 C165 0.930 . S
H194 C167 0.929 . S
H195 C168 0.929 . S
H196 C173 0.930 . S
H197 C174 0.930 . S
H198 C176 0.929 . S
H199 C177 0.929 . S
La200 C202 2.928 1_554 S
La200 O220 2.521 1_554 S
La200 O221 2.628 1_554 S
La200 O222 2.554 . S
La200 O223 2.757 . S
La200 O224 2.470 . S
La200 O229 2.482 . S
La200 O231 2.503 . S
La201 C211 2.928 . S
La201 O223 2.482 . S
La201 O225 2.503 . S
La201 O226 2.521 . S
La201 O227 2.628 . S
La201 O228 2.554 . S
La201 O229 2.757 . S
La201 O230 2.470 . S
C202 La200 2.928 1_556 S
C202 C203 1.503 . S
C202 O220 1.261 . S
C202 O221 1.243 . S
C203 C202 1.503 . S
C203 C204 1.394 . S
C203 C208 1.373 . S
C204 C203 1.394 . S
C204 C205 1.380 . S
C204 H232 0.930 . S
C205 C204 1.380 . S
C205 C206 1.376 . S
C205 H233 0.930 . S
C206 C205 1.376 . S
C206 C207 1.370 . S
C207 C206 1.370 . S
C207 C208 1.396 . S
C207 H234 0.929 . S
C208 C203 1.373 . S
C208 C207 1.396 . S
C208 H235 0.929 . S
C209 O222 1.240 . S
C209 O223 1.289 . S
C210 O224 1.258 . S
C210 O225 1.256 . S
C211 La201 2.928 . S
C211 C212 1.503 . S
C211 O226 1.261 . S
C211 O227 1.243 . S
C212 C211 1.503 . S
C212 C213 1.394 . S
C212 C217 1.373 . S
C213 C212 1.394 . S
C213 C214 1.380 . S
C213 H236 0.930 . S
C214 C213 1.380 . S
C214 C215 1.376 . S
C214 H237 0.930 . S
C215 C214 1.376 . S
C215 C216 1.370 . S
C216 C215 1.370 . S
C216 C217 1.396 . S
C216 H238 0.929 . S
C217 C212 1.373 . S
C217 C216 1.396 . S
C217 H239 0.929 . S
C218 O228 1.240 . S
C218 O229 1.289 . S
C219 O230 1.258 . S
C219 O231 1.256 . S
O220 La200 2.521 1_556 S
O220 C202 1.261 . S
O221 La200 2.628 1_556 S
O221 C202 1.243 . S
O222 La200 2.554 . S
O222 C209 1.240 . S
O223 La200 2.757 . S
O223 La201 2.482 . S
O223 C209 1.289 . S
O224 La200 2.470 . S
O224 C210 1.258 . S
O225 La201 2.503 . S
O225 C210 1.256 . S
O226 La201 2.521 . S
O226 C211 1.261 . S
O227 La201 2.628 . S
O227 C211 1.243 . S
O228 La201 2.554 . S
O228 C218 1.240 . S
O229 La200 2.482 . S
O229 La201 2.757 . S
O229 C218 1.289 . S
O230 La201 2.470 . S
O230 C219 1.258 . S
O231 La200 2.503 . S
O231 C219 1.256 . S
H232 C204 0.930 . S
H233 C205 0.930 . S
H234 C207 0.929 . S
H235 C208 0.929 . S
H236 C213 0.930 . S
H237 C214 0.930 . S
H238 C216 0.929 . S
H239 C217 0.929 . S
La240 C242 2.928 . S
La240 O260 2.521 . S
La240 O261 2.628 . S
La240 O262 2.554 . S
La240 O263 2.757 . S
La240 O264 2.470 . S
La240 O269 2.482 . S
La240 O271 2.503 . S
La241 C251 2.928 . S
La241 O263 2.482 . S
La241 O265 2.503 . S
La241 O266 2.521 . S
La241 O267 2.628 . S
La241 O268 2.554 . S
La241 O269 2.757 . S
La241 O270 2.470 . S
C242 La240 2.928 . S
C242 C243 1.503 . S
C242 O260 1.261 . S
C242 O261 1.243 . S
C243 C242 1.503 . S
C243 C244 1.394 . S
C243 C248 1.373 . S
C244 C243 1.394 . S
C244 C245 1.380 . S
C244 H272 0.930 . S
C245 C244 1.380 . S
C245 C246 1.376 . S
C245 H273 0.930 . S
C246 C245 1.376 . S
C246 C247 1.370 . S
C247 C246 1.370 . S
C247 C248 1.396 . S
C247 H274 0.929 . S
C248 C243 1.373 . S
C248 C247 1.396 . S
C248 H275 0.929 . S
C249 O262 1.240 . S
C249 O263 1.289 . S
C250 O264 1.258 . S
C250 O265 1.256 . S
C251 La241 2.928 . S
C251 C252 1.503 . S
C251 O266 1.261 . S
C251 O267 1.243 . S
C252 C251 1.503 . S
C252 C253 1.394 . S
C252 C257 1.373 . S
C253 C252 1.394 . S
C253 C254 1.380 . S
C253 H276 0.930 . S
C254 C253 1.380 . S
C254 C255 1.376 . S
C254 H277 0.930 . S
C255 C254 1.376 . S
C255 C256 1.370 . S
C256 C255 1.370 . S
C256 C257 1.396 . S
C256 H278 0.929 . S
C257 C252 1.373 . S
C257 C256 1.396 . S
C257 H279 0.929 . S
C258 O268 1.240 . S
C258 O269 1.289 . S
C259 O270 1.258 . S
C259 O271 1.256 . S
O260 La240 2.521 . S
O260 C242 1.261 . S
O261 La240 2.628 . S
O261 C242 1.243 . S
O262 La240 2.554 . S
O262 C249 1.240 . S
O263 La240 2.757 . S
O263 La241 2.482 . S
O263 C249 1.289 . S
O264 La240 2.470 . S
O264 C250 1.258 . S
O265 La241 2.503 . S
O265 C250 1.256 . S
O266 La241 2.521 . S
O266 C251 1.261 . S
O267 La241 2.628 . S
O267 C251 1.243 . S
O268 La241 2.554 . S
O268 C258 1.240 . S
O269 La240 2.482 . S
O269 La241 2.757 . S
O269 C258 1.289 . S
O270 La241 2.470 . S
O270 C259 1.258 . S
O271 La240 2.503 . S
O271 C259 1.256 . S
H272 C244 0.930 . S
H273 C245 0.930 . S
H274 C247 0.929 . S
H275 C248 0.929 . S
H276 C253 0.930 . S
H277 C254 0.930 . S
H278 C256 0.929 . S
H279 C257 0.929 . S
La280 C282 2.928 . S
La280 O300 2.521 . S
La280 O301 2.628 . S
La280 O302 2.554 . S
La280 O303 2.757 . S
La280 O304 2.470 . S
La280 O309 2.482 . S
La280 O311 2.503 . S
La281 C291 2.928 . S
La281 O303 2.482 . S
La281 O305 2.503 . S
La281 O306 2.521 . S
La281 O307 2.628 . S
La281 O308 2.554 . S
La281 O309 2.757 . S
La281 O310 2.470 . S
C282 La280 2.928 . S
C282 C283 1.503 . S
C282 O300 1.261 . S
C282 O301 1.243 . S
C283 C282 1.503 . S
C283 C284 1.394 . S
C283 C288 1.373 . S
C284 C283 1.394 . S
C284 C285 1.380 . S
C284 H312 0.930 . S
C285 C284 1.380 . S
C285 C286 1.376 . S
C285 H313 0.930 . S
C286 C285 1.376 . S
C286 C287 1.370 . S
C287 C286 1.370 . S
C287 C288 1.396 . S
C287 H314 0.929 . S
C288 C283 1.373 . S
C288 C287 1.396 . S
C288 H315 0.929 . S
C289 O302 1.240 . S
C289 O303 1.289 . S
C290 O304 1.258 . S
C290 O305 1.256 . S
C291 La281 2.928 . S
C291 C292 1.503 . S
C291 O306 1.261 . S
C291 O307 1.243 . S
C292 C291 1.503 . S
C292 C293 1.394 . S
C292 C297 1.373 . S
C293 C292 1.394 . S
C293 C294 1.380 . S
C293 H316 0.930 . S
C294 C293 1.380 . S
C294 C295 1.376 . S
C294 H317 0.930 . S
C295 C294 1.376 . S
C295 C296 1.370 . S
C296 C295 1.370 . S
C296 C297 1.396 . S
C296 H318 0.929 . S
C297 C292 1.373 . S
C297 C296 1.396 . S
C297 H319 0.929 . S
C298 O308 1.240 . S
C298 O309 1.289 . S
C299 O310 1.258 . S
C299 O311 1.256 . S
O300 La280 2.521 . S
O300 C282 1.261 . S
O301 La280 2.628 . S
O301 C282 1.243 . S
O302 La280 2.554 . S
O302 C289 1.240 . S
O303 La280 2.757 . S
O303 La281 2.482 . S
O303 C289 1.289 . S
O304 La280 2.470 . S
O304 C290 1.258 . S
O305 La281 2.503 . S
O305 C290 1.256 . S
O306 La281 2.521 . S
O306 C291 1.261 . S
O307 La281 2.628 . S
O307 C291 1.243 . S
O308 La281 2.554 . S
O308 C298 1.240 . S
O309 La280 2.482 . S
O309 La281 2.757 . S
O309 C298 1.289 . S
O310 La281 2.470 . S
O310 C299 1.258 . S
O311 La280 2.503 . S
O311 C299 1.256 . S
H312 C284 0.930 . S
H313 C285 0.930 . S
H314 C287 0.929 . S
H315 C288 0.929 . S
H316 C293 0.930 . S
H317 C294 0.930 . S
H318 C296 0.929 . S
H319 C297 0.929 . S
La320 C322 2.928 . S
La320 O340 2.521 . S
La320 O341 2.628 . S
La320 O342 2.554 . S
La320 O343 2.757 . S
La320 O344 2.470 . S
La320 O349 2.482 . S
La320 O351 2.503 . S
La321 C331 2.928 1_556 S
La321 O343 2.482 . S
La321 O345 2.503 . S
La321 O346 2.521 1_556 S
La321 O347 2.628 1_556 S
La321 O348 2.554 . S
La321 O349 2.757 . S
La321 O350 2.470 . S
C322 La320 2.928 . S
C322 C323 1.503 . S
C322 O340 1.261 . S
C322 O341 1.243 . S
C323 C322 1.503 . S
C323 C324 1.394 . S
C323 C328 1.373 . S
C324 C323 1.394 . S
C324 C325 1.380 . S
C324 H352 0.930 . S
C325 C324 1.380 . S
C325 C326 1.376 . S
C325 H353 0.930 . S
C326 C325 1.376 . S
C326 C327 1.370 . S
C327 C326 1.370 . S
C327 C328 1.396 . S
C327 H354 0.929 . S
C328 C323 1.373 . S
C328 C327 1.396 . S
C328 H355 0.929 . S
C329 O342 1.240 . S
C329 O343 1.289 . S
C330 O344 1.258 . S
C330 O345 1.256 . S
C331 La321 2.928 1_554 S
C331 C332 1.503 . S
C331 O346 1.261 . S
C331 O347 1.243 . S
C332 C331 1.503 . S
C332 C333 1.394 . S
C332 C337 1.373 . S
C333 C332 1.394 . S
C333 C334 1.380 . S
C333 H356 0.930 . S
C334 C333 1.380 . S
C334 C335 1.376 . S
C334 H357 0.930 . S
C335 C334 1.376 . S
C335 C336 1.370 . S
C336 C335 1.370 . S
C336 C337 1.396 . S
C336 H358 0.929 . S
C337 C332 1.373 . S
C337 C336 1.396 . S
C337 H359 0.929 . S
C338 O348 1.240 . S
C338 O349 1.289 . S
C339 O350 1.258 . S
C339 O351 1.256 . S
O340 La320 2.521 . S
O340 C322 1.261 . S
O341 La320 2.628 . S
O341 C322 1.243 . S
O342 La320 2.554 . S
O342 C329 1.240 . S
O343 La320 2.757 . S
O343 La321 2.482 . S
O343 C329 1.289 . S
O344 La320 2.470 . S
O344 C330 1.258 . S
O345 La321 2.503 . S
O345 C330 1.256 . S
O346 La321 2.521 1_554 S
O346 C331 1.261 . S
O347 La321 2.628 1_554 S
O347 C331 1.243 . S
O348 La321 2.554 . S
O348 C338 1.240 . S
O349 La320 2.482 . S
O349 La321 2.757 . S
O349 C338 1.289 . S
O350 La321 2.470 . S
O350 C339 1.258 . S
O351 La320 2.503 . S
O351 C339 1.256 . S
H352 C324 0.930 . S
H353 C325 0.930 . S
H354 C327 0.929 . S
H355 C328 0.929 . S
H356 C333 0.930 . S
H357 C334 0.930 . S
H358 C336 0.929 . S
H359 C337 0.929 . S
La360 C362 2.928 . S
La360 O380 2.521 . S
La360 O381 2.628 . S
La360 O382 2.554 . S
La360 O383 2.757 . S
La360 O384 2.470 . S
La360 O389 2.482 . S
La360 O391 2.503 . S
La361 C371 2.928 . S
La361 O383 2.482 . S
La361 O385 2.503 . S
La361 O386 2.521 . S
La361 O387 2.628 . S
La361 O388 2.554 . S
La361 O389 2.757 . S
La361 O390 2.470 . S
C362 La360 2.928 . S
C362 C363 1.503 . S
C362 O380 1.261 . S
C362 O381 1.243 . S
C363 C362 1.503 . S
C363 C364 1.394 . S
C363 C368 1.373 . S
C364 C363 1.394 . S
C364 C365 1.380 . S
C364 H392 0.930 . S
C365 C364 1.380 . S
C365 C366 1.376 . S
C365 H393 0.930 . S
C366 C365 1.376 . S
C366 C367 1.370 . S
C367 C366 1.370 . S
C367 C368 1.396 . S
C367 H394 0.929 . S
C368 C363 1.373 . S
C368 C367 1.396 . S
C368 H395 0.929 . S
C369 O382 1.240 . S
C369 O383 1.289 . S
C370 O384 1.258 . S
C370 O385 1.256 . S
C371 La361 2.928 . S
C371 C372 1.503 . S
C371 O386 1.261 . S
C371 O387 1.243 . S
C372 C371 1.503 . S
C372 C373 1.394 . S
C372 C377 1.373 . S
C373 C372 1.394 . S
C373 C374 1.380 . S
C373 H396 0.930 . S
C374 C373 1.380 . S
C374 C375 1.376 . S
C374 H397 0.930 . S
C375 C374 1.376 . S
C375 C376 1.370 . S
C376 C375 1.370 . S
C376 C377 1.396 . S
C376 H398 0.929 . S
C377 C372 1.373 . S
C377 C376 1.396 . S
C377 H399 0.929 . S
C378 O388 1.240 . S
C378 O389 1.289 . S
C379 O390 1.258 . S
C379 O391 1.256 . S
O380 La360 2.521 . S
O380 C362 1.261 . S
O381 La360 2.628 . S
O381 C362 1.243 . S
O382 La360 2.554 . S
O382 C369 1.240 . S
O383 La360 2.757 . S
O383 La361 2.482 . S
O383 C369 1.289 . S
O384 La360 2.470 . S
O384 C370 1.258 . S
O385 La361 2.503 . S
O385 C370 1.256 . S
O386 La361 2.521 . S
O386 C371 1.261 . S
O387 La361 2.628 . S
O387 C371 1.243 . S
O388 La361 2.554 . S
O388 C378 1.240 . S
O389 La360 2.482 . S
O389 La361 2.757 . S
O389 C378 1.289 . S
O390 La361 2.470 . S
O390 C379 1.258 . S
O391 La360 2.503 . S
O391 C379 1.256 . S
H392 C364 0.930 . S
H393 C365 0.930 . S
H394 C367 0.929 . S
H395 C368 0.929 . S
H396 C373 0.930 . S
H397 C374 0.930 . S
H398 C376 0.929 . S
H399 C377 0.929 . S
La400 C402 2.928 . S
La400 O420 2.521 . S
La400 O421 2.628 . S
La400 O422 2.554 . S
La400 O423 2.757 . S
La400 O424 2.470 . S
La400 O429 2.482 . S
La400 O431 2.503 . S
La401 C411 2.928 . S
La401 O423 2.482 . S
La401 O425 2.503 . S
La401 O426 2.521 . S
La401 O427 2.628 . S
La401 O428 2.554 . S
La401 O429 2.757 . S
La401 O430 2.470 . S
C402 La400 2.928 . S
C402 C403 1.503 . S
C402 O420 1.261 . S
C402 O421 1.243 . S
C403 C402 1.503 . S
C403 C404 1.394 . S
C403 C408 1.373 . S
C404 C403 1.394 . S
C404 C405 1.380 . S
C404 H432 0.930 . S
C405 C404 1.380 . S
C405 C406 1.376 . S
C405 H433 0.930 . S
C406 C405 1.376 . S
C406 C407 1.370 . S
C407 C406 1.370 . S
C407 C408 1.396 . S
C407 H434 0.929 . S
C408 C403 1.373 . S
C408 C407 1.396 . S
C408 H435 0.929 . S
C409 O422 1.240 . S
C409 O423 1.289 . S
C410 O424 1.258 . S
C410 O425 1.256 . S
C411 La401 2.928 . S
C411 C412 1.503 . S
C411 O426 1.261 . S
C411 O427 1.243 . S
C412 C411 1.503 . S
C412 C413 1.394 . S
C412 C417 1.373 . S
C413 C412 1.394 . S
C413 C414 1.380 . S
C413 H436 0.930 . S
C414 C413 1.380 . S
C414 C415 1.376 . S
C414 H437 0.930 . S
C415 C414 1.376 . S
C415 C416 1.370 . S
C416 C415 1.370 . S
C416 C417 1.396 . S
C416 H438 0.929 . S
C417 C412 1.373 . S
C417 C416 1.396 . S
C417 H439 0.929 . S
C418 O428 1.240 . S
C418 O429 1.289 . S
C419 O430 1.258 . S
C419 O431 1.256 . S
O420 La400 2.521 . S
O420 C402 1.261 . S
O421 La400 2.628 . S
O421 C402 1.243 . S
O422 La400 2.554 . S
O422 C409 1.240 . S
O423 La400 2.757 . S
O423 La401 2.482 . S
O423 C409 1.289 . S
O424 La400 2.470 . S
O424 C410 1.258 . S
O425 La401 2.503 . S
O425 C410 1.256 . S
O426 La401 2.521 . S
O426 C411 1.261 . S
O427 La401 2.628 . S
O427 C411 1.243 . S
O428 La401 2.554 . S
O428 C418 1.240 . S
O429 La400 2.482 . S
O429 La401 2.757 . S
O429 C418 1.289 . S
O430 La401 2.470 . S
O430 C419 1.258 . S
O431 La400 2.503 . S
O431 C419 1.256 . S
H432 C404 0.930 . S
H433 C405 0.930 . S
H434 C407 0.929 . S
H435 C408 0.929 . S
H436 C413 0.930 . S
H437 C414 0.930 . S
H438 C416 0.929 . S
H439 C417 0.929 . S
La440 C442 2.928 . S
La440 O460 2.521 . S
La440 O461 2.628 . S
La440 O462 2.554 1_556 S
La440 O463 2.757 1_556 S
La440 O464 2.470 1_556 S
La440 O469 2.482 1_556 S
La440 O471 2.503 1_556 S
La441 C451 2.928 . S
La441 O463 2.482 . S
La441 O465 2.503 . S
La441 O466 2.521 . S
La441 O467 2.628 . S
La441 O468 2.554 . S
La441 O469 2.757 . S
La441 O470 2.470 . S
C442 La440 2.928 . S
C442 C443 1.503 . S
C442 O460 1.261 . S
C442 O461 1.243 . S
C443 C442 1.503 . S
C443 C444 1.394 . S
C443 C448 1.373 . S
C444 C443 1.394 . S
C444 C445 1.380 . S
C444 H472 0.930 . S
C445 C444 1.380 . S
C445 C446 1.376 . S
C445 H473 0.930 . S
C446 C445 1.376 . S
C446 C447 1.370 . S
C447 C446 1.370 . S
C447 C448 1.396 . S
C447 H474 0.929 . S
C448 C443 1.373 . S
C448 C447 1.396 . S
C448 H475 0.929 . S
C449 O462 1.240 . S
C449 O463 1.289 . S
C450 O464 1.258 . S
C450 O465 1.256 . S
C451 La441 2.928 . S
C451 C452 1.503 . S
C451 O466 1.261 . S
C451 O467 1.243 . S
C452 C451 1.503 . S
C452 C453 1.394 . S
C452 C457 1.373 . S
C453 C452 1.394 . S
C453 C454 1.380 . S
C453 H476 0.930 . S
C454 C453 1.380 . S
C454 C455 1.376 . S
C454 H477 0.930 . S
C455 C454 1.376 . S
C455 C456 1.370 . S
C456 C455 1.370 . S
C456 C457 1.396 . S
C456 H478 0.929 . S
C457 C452 1.373 . S
C457 C456 1.396 . S
C457 H479 0.929 . S
C458 O468 1.240 . S
C458 O469 1.289 . S
C459 O470 1.258 . S
C459 O471 1.256 . S
O460 La440 2.521 . S
O460 C442 1.261 . S
O461 La440 2.628 . S
O461 C442 1.243 . S
O462 La440 2.554 1_554 S
O462 C449 1.240 . S
O463 La440 2.757 1_554 S
O463 La441 2.482 . S
O463 C449 1.289 . S
O464 La440 2.470 1_554 S
O464 C450 1.258 . S
O465 La441 2.503 . S
O465 C450 1.256 . S
O466 La441 2.521 . S
O466 C451 1.261 . S
O467 La441 2.628 . S
O467 C451 1.243 . S
O468 La441 2.554 . S
O468 C458 1.240 . S
O469 La440 2.482 1_554 S
O469 La441 2.757 . S
O469 C458 1.289 . S
O470 La441 2.470 . S
O470 C459 1.258 . S
O471 La440 2.503 1_554 S
O471 C459 1.256 . S
H472 C444 0.930 . S
H473 C445 0.930 . S
H474 C447 0.929 . S
H475 C448 0.929 . S
H476 C453 0.930 . S
H477 C454 0.930 . S
H478 C456 0.929 . S
H479 C457 0.929 . S
La480 C482 2.928 . S
La480 O500 2.521 . S
La480 O501 2.628 . S
La480 O502 2.554 . S
La480 O503 2.757 . S
La480 O504 2.470 . S
La480 O509 2.482 . S
La480 O511 2.503 . S
La481 C491 2.928 . S
La481 O503 2.482 1_556 S
La481 O505 2.503 1_556 S
La481 O506 2.521 . S
La481 O507 2.628 . S
La481 O508 2.554 1_556 S
La481 O509 2.757 1_556 S
La481 O510 2.470 . S
C482 La480 2.928 . S
C482 C483 1.503 . S
C482 O500 1.261 . S
C482 O501 1.243 . S
C483 C482 1.503 . S
C483 C484 1.394 . S
C483 C488 1.373 . S
C484 C483 1.394 . S
C484 C485 1.380 . S
C484 H512 0.930 . S
C485 C484 1.380 . S
C485 C486 1.376 . S
C485 H513 0.930 . S
C486 C485 1.376 . S
C486 C487 1.370 . S
C487 C486 1.370 . S
C487 C488 1.396 . S
C487 H514 0.929 . S
C488 C483 1.373 . S
C488 C487 1.396 . S
C488 H515 0.929 . S
C489 O502 1.240 . S
C489 O503 1.289 . S
C490 O504 1.258 . S
C490 O505 1.256 . S
C491 La481 2.928 . S
C491 C492 1.503 . S
C491 O506 1.261 . S
C491 O507 1.243 . S
C492 C491 1.503 . S
C492 C493 1.394 . S
C492 C497 1.373 . S
C493 C492 1.394 . S
C493 C494 1.380 . S
C493 H516 0.930 . S
C494 C493 1.380 . S
C494 C495 1.376 . S
C494 H517 0.930 . S
C495 C494 1.376 . S
C495 C496 1.370 . S
C496 C495 1.370 . S
C496 C497 1.396 . S
C496 H518 0.929 . S
C497 C492 1.373 . S
C497 C496 1.396 . S
C497 H519 0.929 . S
C498 O508 1.240 . S
C498 O509 1.289 . S
C499 O510 1.258 1_554 S
C499 O511 1.256 . S
O500 La480 2.521 . S
O500 C482 1.261 . S
O501 La480 2.628 . S
O501 C482 1.243 . S
O502 La480 2.554 . S
O502 C489 1.240 . S
O503 La480 2.757 . S
O503 La481 2.482 1_554 S
O503 C489 1.289 . S
O504 La480 2.470 . S
O504 C490 1.258 . S
O505 La481 2.503 1_554 S
O505 C490 1.256 . S
O506 La481 2.521 . S
O506 C491 1.261 . S
O507 La481 2.628 . S
O507 C491 1.243 . S
O508 La481 2.554 1_554 S
O508 C498 1.240 . S
O509 La480 2.482 . S
O509 La481 2.757 1_554 S
O509 C498 1.289 . S
O510 La481 2.470 . S
O510 C499 1.258 1_556 S
O511 La480 2.503 . S
O511 C499 1.256 . S
H512 C484 0.930 . S
H513 C485 0.930 . S
H514 C487 0.929 . S
H515 C488 0.929 . S
H516 C493 0.930 . S
H517 C494 0.930 . S
H518 C496 0.929 . S
H519 C497 0.929 . S
La520 C522 2.928 . S
La520 O540 2.521 . S
La520 O541 2.628 . S
La520 O542 2.554 . S
La520 O543 2.757 . S
La520 O544 2.470 . S
La520 O549 2.482 . S
La520 O551 2.503 . S
La521 C531 2.928 1_556 S
La521 O543 2.482 . S
La521 O545 2.503 . S
La521 O546 2.521 1_556 S
La521 O547 2.628 1_556 S
La521 O548 2.554 . S
La521 O549 2.757 . S
La521 O550 2.470 . S
C522 La520 2.928 . S
C522 C523 1.503 . S
C522 O540 1.261 . S
C522 O541 1.243 . S
C523 C522 1.503 . S
C523 C524 1.394 . S
C523 C528 1.373 . S
C524 C523 1.394 . S
C524 C525 1.380 . S
C524 H552 0.930 . S
C525 C524 1.380 . S
C525 C526 1.376 . S
C525 H553 0.930 . S
C526 C525 1.376 . S
C526 C527 1.370 . S
C527 C526 1.370 . S
C527 C528 1.396 . S
C527 H554 0.929 . S
C528 C523 1.373 . S
C528 C527 1.396 . S
C528 H555 0.929 . S
C529 O542 1.240 . S
C529 O543 1.289 . S
C530 O544 1.258 . S
C530 O545 1.256 . S
C531 La521 2.928 1_554 S
C531 C532 1.503 . S
C531 O546 1.261 . S
C531 O547 1.243 . S
C532 C531 1.503 . S
C532 C533 1.394 . S
C532 C537 1.373 . S
C533 C532 1.394 . S
C533 C534 1.380 . S
C533 H556 0.930 . S
C534 C533 1.380 . S
C534 C535 1.376 . S
C534 H557 0.930 . S
C535 C534 1.376 . S
C535 C536 1.370 . S
C536 C535 1.370 . S
C536 C537 1.396 . S
C536 H558 0.929 . S
C537 C532 1.373 . S
C537 C536 1.396 . S
C537 H559 0.929 . S
C538 O548 1.240 . S
C538 O549 1.289 . S
C539 O550 1.258 . S
C539 O551 1.256 . S
O540 La520 2.521 . S
O540 C522 1.261 . S
O541 La520 2.628 . S
O541 C522 1.243 . S
O542 La520 2.554 . S
O542 C529 1.240 . S
O543 La520 2.757 . S
O543 La521 2.482 . S
O543 C529 1.289 . S
O544 La520 2.470 . S
O544 C530 1.258 . S
O545 La521 2.503 . S
O545 C530 1.256 . S
O546 La521 2.521 1_554 S
O546 C531 1.261 . S
O547 La521 2.628 1_554 S
O547 C531 1.243 . S
O548 La521 2.554 . S
O548 C538 1.240 . S
O549 La520 2.482 . S
O549 La521 2.757 . S
O549 C538 1.289 . S
O550 La521 2.470 . S
O550 C539 1.258 . S
O551 La520 2.503 . S
O551 C539 1.256 . S
H552 C524 0.930 . S
H553 C525 0.930 . S
H554 C527 0.929 . S
H555 C528 0.929 . S
H556 C533 0.930 . S
H557 C534 0.930 . S
H558 C536 0.929 . S
H559 C537 0.929 . S
La560 C562 2.928 . S
La560 O580 2.521 . S
La560 O581 2.628 . S
La560 O582 2.554 . S
La560 O583 2.757 . S
La560 O584 2.470 . S
La560 O589 2.482 . S
La560 O591 2.503 . S
La561 C571 2.928 . S
La561 O583 2.482 . S
La561 O585 2.503 . S
La561 O586 2.521 . S
La561 O587 2.628 . S
La561 O588 2.554 . S
La561 O589 2.757 . S
La561 O590 2.470 . S
C562 La560 2.928 . S
C562 C563 1.503 . S
C562 O580 1.261 . S
C562 O581 1.243 . S
C563 C562 1.503 . S
C563 C564 1.394 . S
C563 C568 1.373 . S
C564 C563 1.394 . S
C564 C565 1.380 . S
C564 H592 0.930 . S
C565 C564 1.380 . S
C565 C566 1.376 . S
C565 H593 0.930 . S
C566 C565 1.376 . S
C566 C567 1.370 . S
C567 C566 1.370 . S
C567 C568 1.396 . S
C567 H594 0.929 . S
C568 C563 1.373 . S
C568 C567 1.396 . S
C568 H595 0.929 . S
C569 O582 1.240 . S
C569 O583 1.289 . S
C570 O584 1.258 . S
C570 O585 1.256 . S
C571 La561 2.928 . S
C571 C572 1.503 . S
C571 O586 1.261 . S
C571 O587 1.243 . S
C572 C571 1.503 . S
C572 C573 1.394 . S
C572 C577 1.373 . S
C573 C572 1.394 . S
C573 C574 1.380 . S
C573 H596 0.930 . S
C574 C573 1.380 . S
C574 C575 1.376 . S
C574 H597 0.930 . S
C575 C574 1.376 . S
C575 C576 1.370 . S
C576 C575 1.370 . S
C576 C577 1.396 . S
C576 H598 0.929 . S
C577 C572 1.373 . S
C577 C576 1.396 . S
C577 H599 0.929 . S
C578 O588 1.240 . S
C578 O589 1.289 . S
C579 O590 1.258 . S
C579 O591 1.256 . S
O580 La560 2.521 . S
O580 C562 1.261 . S
O581 La560 2.628 . S
O581 C562 1.243 . S
O582 La560 2.554 . S
O582 C569 1.240 . S
O583 La560 2.757 . S
O583 La561 2.482 . S
O583 C569 1.289 . S
O584 La560 2.470 . S
O584 C570 1.258 . S
O585 La561 2.503 . S
O585 C570 1.256 . S
O586 La561 2.521 . S
O586 C571 1.261 . S
O587 La561 2.628 . S
O587 C571 1.243 . S
O588 La561 2.554 . S
O588 C578 1.240 . S
O589 La560 2.482 . S
O589 La561 2.757 . S
O589 C578 1.289 . S
O590 La561 2.470 . S
O590 C579 1.258 . S
O591 La560 2.503 . S
O591 C579 1.256 . S
H592 C564 0.930 . S
H593 C565 0.930 . S
H594 C567 0.929 . S
H595 C568 0.929 . S
H596 C573 0.930 . S
H597 C574 0.930 . S
H598 C576 0.929 . S
H599 C577 0.929 . S
La600 C602 2.928 . S
La600 O620 2.521 . S
La600 O621 2.628 . S
La600 O622 2.554 . S
La600 O623 2.757 . S
La600 O624 2.470 . S
La600 O629 2.482 . S
La600 O631 2.503 . S
La601 C611 2.928 . S
La601 O623 2.482 . S
La601 O625 2.503 . S
La601 O626 2.521 . S
La601 O627 2.628 . S
La601 O628 2.554 . S
La601 O629 2.757 . S
La601 O630 2.470 . S
C602 La600 2.928 . S
C602 C603 1.503 . S
C602 O620 1.261 . S
C602 O621 1.243 . S
C603 C602 1.503 . S
C603 C604 1.394 . S
C603 C608 1.373 . S
C604 C603 1.394 . S
C604 C605 1.380 . S
C604 H632 0.930 . S
C605 C604 1.380 . S
C605 C606 1.376 . S
C605 H633 0.930 . S
C606 C605 1.376 . S
C606 C607 1.370 . S
C607 C606 1.370 . S
C607 C608 1.396 . S
C607 H634 0.929 . S
C608 C603 1.373 . S
C608 C607 1.396 . S
C608 H635 0.929 . S
C609 O622 1.240 . S
C609 O623 1.289 . S
C610 O624 1.258 . S
C610 O625 1.256 . S
C611 La601 2.928 . S
C611 C612 1.503 . S
C611 O626 1.261 . S
C611 O627 1.243 . S
C612 C611 1.503 . S
C612 C613 1.394 . S
C612 C617 1.373 . S
C613 C612 1.394 . S
C613 C614 1.380 . S
C613 H636 0.930 . S
C614 C613 1.380 . S
C614 C615 1.376 . S
C614 H637 0.930 . S
C615 C614 1.376 . S
C615 C616 1.370 . S
C616 C615 1.370 . S
C616 C617 1.396 . S
C616 H638 0.929 . S
C617 C612 1.373 . S
C617 C616 1.396 . S
C617 H639 0.929 . S
C618 O628 1.240 . S
C618 O629 1.289 . S
C619 O630 1.258 . S
C619 O631 1.256 . S
O620 La600 2.521 . S
O620 C602 1.261 . S
O621 La600 2.628 . S
O621 C602 1.243 . S
O622 La600 2.554 . S
O622 C609 1.240 . S
O623 La600 2.757 . S
O623 La601 2.482 . S
O623 C609 1.289 . S
O624 La600 2.470 . S
O624 C610 1.258 . S
O625 La601 2.503 . S
O625 C610 1.256 . S
O626 La601 2.521 . S
O626 C611 1.261 . S
O627 La601 2.628 . S
O627 C611 1.243 . S
O628 La601 2.554 . S
O628 C618 1.240 . S
O629 La600 2.482 . S
O629 La601 2.757 . S
O629 C618 1.289 . S
O630 La601 2.470 . S
O630 C619 1.258 . S
O631 La600 2.503 . S
O631 C619 1.256 . S
H632 C604 0.930 . S
H633 C605 0.930 . S
H634 C607 0.929 . S
H635 C608 0.929 . S
H636 C613 0.930 . S
H637 C614 0.930 . S
H638 C616 0.929 . S
H639 C617 0.929 . S
H640 C648 0.950 . S
H641 C653 0.950 . S
H642 C650 0.950 . S
H643 C652 0.950 . S
H644 C654 0.950 . S
H645 C656 0.950 . S
H646 C658 0.950 . S
H647 C659 0.950 . S
C648 H640 0.950 . S
C648 C649 1.386 . S
C648 C650 1.391 . S
C649 C648 1.386 . S
C649 C653 1.393 . S
C650 H642 0.950 . S
C650 C648 1.391 . S
C650 C651 1.400 . S
C651 C650 1.400 . S
C651 C652 1.398 . S
C651 C657 1.491 . S
C652 H643 0.950 . S
C652 C651 1.398 . S
C652 C653 1.391 . S
C653 H641 0.950 . S
C653 C649 1.393 . S
C653 C652 1.391 . S
C654 H644 0.950 . S
C654 C655 1.386 . S
C654 C656 1.391 . S
C655 C654 1.386 . S
C655 C659 1.393 . S
C656 H645 0.950 . S
C656 C654 1.391 . S
C656 C657 1.400 . S
C657 C651 1.491 . S
C657 C656 1.400 . S
C657 C658 1.398 . S
C658 H646 0.950 . S
C658 C657 1.398 . S
C658 C659 1.391 . S
C659 H647 0.950 . S
C659 C655 1.393 . S
C659 C658 1.391 . S
H660 C668 0.950 . S
H661 C673 0.950 . S
H662 C670 0.950 1_556 S
H663 C672 0.950 . S
H664 C674 0.950 . S
H665 C676 0.950 . S
H666 C678 0.950 . S
H667 C679 0.950 . S
C668 H660 0.950 . S
C668 C669 1.386 . S
C668 C670 1.391 . S
C669 C668 1.386 . S
C669 C673 1.393 . S
C670 H662 0.950 1_554 S
C670 C668 1.391 . S
C670 C671 1.400 1_554 S
C671 C670 1.400 1_556 S
C671 C672 1.398 . S
C671 C677 1.491 . S
C672 H663 0.950 . S
C672 C671 1.398 . S
C672 C673 1.391 1_556 S
C673 H661 0.950 . S
C673 C669 1.393 . S
C673 C672 1.391 1_554 S
C674 H664 0.950 . S
C674 C675 1.386 . S
C674 C676 1.391 . S
C675 C674 1.386 . S
C675 C679 1.393 . S
C676 H665 0.950 . S
C676 C674 1.391 . S
C676 C677 1.400 . S
C677 C671 1.491 . S
C677 C676 1.400 . S
C677 C678 1.398 . S
C678 H666 0.950 . S
C678 C677 1.398 . S
C678 C679 1.391 . S
C679 H667 0.950 . S
C679 C675 1.393 . S
C679 C678 1.391 . S
H680 C688 0.950 . S
H681 C693 0.950 . S
H682 C690 0.950 . S
H683 C692 0.950 . S
H684 C694 0.950 . S
H685 C696 0.950 . S
H686 C698 0.950 . S
H687 C699 0.950 1_556 S
C688 H680 0.950 . S
C688 C689 1.386 . S
C688 C690 1.391 . S
C689 C688 1.386 . S
C689 C693 1.393 . S
C690 H682 0.950 . S
C690 C688 1.391 . S
C690 C691 1.400 . S
C691 C690 1.400 . S
C691 C692 1.398 . S
C691 C697 1.491 . S
C692 H683 0.950 . S
C692 C691 1.398 . S
C692 C693 1.391 . S
C693 H681 0.950 . S
C693 C689 1.393 . S
C693 C692 1.391 . S
C694 H684 0.950 . S
C694 C695 1.386 . S
C694 C696 1.391 . S
C695 C694 1.386 . S
C695 C699 1.393 . S
C696 H685 0.950 . S
C696 C694 1.391 . S
C696 C697 1.400 . S
C697 C691 1.491 . S
C697 C696 1.400 . S
C697 C698 1.398 . S
C698 H686 0.950 . S
C698 C697 1.398 . S
C698 C699 1.391 . S
C699 H687 0.950 1_554 S
C699 C695 1.393 . S
C699 C698 1.391 . S
H700 C708 0.950 . S
H701 C713 0.950 . S
H702 C710 0.950 . S
H703 C712 0.950 . S
H704 C714 0.950 . S
H705 C716 0.950 . S
H706 C718 0.950 . S
H707 C719 0.950 . S
C708 H700 0.950 . S
C708 C709 1.386 . S
C708 C710 1.391 . S
C709 C708 1.386 . S
C709 C713 1.393 . S
C710 H702 0.950 . S
C710 C708 1.391 . S
C710 C711 1.400 . S
C711 C710 1.400 . S
C711 C712 1.398 . S
C711 C717 1.491 . S
C712 H703 0.950 . S
C712 C711 1.398 . S
C712 C713 1.391 . S
C713 H701 0.950 . S
C713 C709 1.393 . S
C713 C712 1.391 . S
C714 H704 0.950 . S
C714 C715 1.386 . S
C714 C716 1.391 . S
C715 C714 1.386 . S
C715 C719 1.393 . S
C716 H705 0.950 . S
C716 C714 1.391 . S
C716 C717 1.400 . S
C717 C711 1.491 . S
C717 C716 1.400 . S
C717 C718 1.398 . S
C718 H706 0.950 . S
C718 C717 1.398 . S
C718 C719 1.391 . S
C719 H707 0.950 . S
C719 C715 1.393 . S
C719 C718 1.391 . S
H720 C728 0.950 . S
H721 C733 0.950 . S
H722 C730 0.950 . S
H723 C732 0.950 . S
H724 C734 0.950 . S
H725 C736 0.950 . S
H726 C738 0.950 . S
H727 C739 0.950 . S
C728 H720 0.950 . S
C728 C729 1.386 . S
C728 C730 1.391 . S
C729 C728 1.386 . S
C729 C733 1.393 . S
C730 H722 0.950 . S
C730 C728 1.391 . S
C730 C731 1.400 . S
C731 C730 1.400 . S
C731 C732 1.398 . S
C731 C737 1.491 . S
C732 H723 0.950 . S
C732 C731 1.398 . S
C732 C733 1.391 . S
C733 H721 0.950 . S
C733 C729 1.393 . S
C733 C732 1.391 . S
C734 H724 0.950 . S
C734 C735 1.386 . S
C734 C736 1.391 . S
C735 C734 1.386 . S
C735 C739 1.393 . S
C736 H725 0.950 . S
C736 C734 1.391 . S
C736 C737 1.400 . S
C737 C731 1.491 . S
C737 C736 1.400 . S
C737 C738 1.398 . S
C738 H726 0.950 . S
C738 C737 1.398 . S
C738 C739 1.391 . S
C739 H727 0.950 . S
C739 C735 1.393 . S
C739 C738 1.391 . S
H740 C748 0.950 . S
H741 C753 0.950 . S
H742 C750 0.950 . S
H743 C752 0.950 . S
H744 C754 0.950 . S
H745 C756 0.950 . S
H746 C758 0.950 . S
H747 C759 0.950 . S
C748 H740 0.950 . S
C748 C749 1.386 . S
C748 C750 1.391 . S
C749 C748 1.386 . S
C749 C753 1.393 . S
C750 H742 0.950 . S
C750 C748 1.391 . S
C750 C751 1.400 . S
C751 C750 1.400 . S
C751 C752 1.398 . S
C751 C757 1.491 . S
C752 H743 0.950 . S
C752 C751 1.398 . S
C752 C753 1.391 . S
C753 H741 0.950 . S
C753 C749 1.393 . S
C753 C752 1.391 . S
C754 H744 0.950 . S
C754 C755 1.386 . S
C754 C756 1.391 . S
C755 C754 1.386 . S
C755 C759 1.393 . S
C756 H745 0.950 . S
C756 C754 1.391 . S
C756 C757 1.400 . S
C757 C751 1.491 . S
C757 C756 1.400 . S
C757 C758 1.398 . S
C758 H746 0.950 . S
C758 C757 1.398 . S
C758 C759 1.391 . S
C759 H747 0.950 . S
C759 C755 1.393 . S
C759 C758 1.391 . S
H760 C768 0.950 . S
H761 C773 0.950 . S
H762 C770 0.950 . S
H763 C772 0.950 . S
H764 C774 0.950 . S
H765 C776 0.950 . S
H766 C778 0.950 . S
H767 C779 0.946 1_554 S
C768 H760 0.950 . S
C768 C769 1.386 . S
C768 C770 1.391 . S
C769 C768 1.386 . S
C769 C773 1.393 . S
C770 H762 0.950 . S
C770 C768 1.391 . S
C770 C771 1.400 . S
C771 C770 1.400 . S
C771 C772 1.398 . S
C771 C777 1.491 . S
C772 H763 0.950 . S
C772 C771 1.398 . S
C772 C773 1.391 . S
C773 H761 0.950 . S
C773 C769 1.393 . S
C773 C772 1.391 . S
C774 H764 0.950 . S
C774 C775 1.386 . S
C774 C776 1.391 1_554 S
C775 C774 1.386 . S
C775 C779 1.381 1_554 S
C776 H765 0.950 . S
C776 C774 1.391 1_556 S
C776 C777 1.400 . S
C777 C771 1.491 . S
C777 C776 1.400 . S
C777 C778 1.398 . S
C778 H766 0.950 . S
C778 C777 1.398 . S
C778 C779 1.406 . S
C779 H767 0.946 1_556 S
C779 C775 1.381 1_556 S
C779 C778 1.406 . S
H780 C788 0.950 . S
H781 C793 0.950 . S
H782 C790 0.950 . S
H783 C792 0.950 . S
H784 C794 0.950 . S
H785 C796 0.950 . S
H786 C798 0.950 . S
H787 C799 0.950 . S
C788 H780 0.950 . S
C788 C789 1.386 . S
C788 C790 1.391 . S
C789 C788 1.386 . S
C789 C793 1.393 . S
C790 H782 0.950 . S
C790 C788 1.391 . S
C790 C791 1.400 . S
C791 C790 1.400 . S
C791 C792 1.398 . S
C791 C797 1.491 . S
C792 H783 0.950 . S
C792 C791 1.398 . S
C792 C793 1.391 . S
C793 H781 0.950 . S
C793 C789 1.393 . S
C793 C792 1.391 . S
C794 H784 0.950 . S
C794 C795 1.386 . S
C794 C796 1.391 . S
C795 C794 1.386 . S
C795 C799 1.393 . S
C796 H785 0.950 . S
C796 C794 1.391 . S
C796 C797 1.400 . S
C797 C791 1.491 . S
C797 C796 1.400 . S
C797 C798 1.398 . S
C798 H786 0.950 . S
C798 C797 1.398 . S
C798 C799 1.391 . S
C799 H787 0.950 . S
C799 C795 1.393 . S
C799 C798 1.391 . S
H800 C808 0.950 . S
H801 C813 0.950 . S
H802 C810 0.950 . S
H803 C812 0.950 . S
H804 C814 0.950 . S
H805 C816 0.950 . S
H806 C818 0.950 . S
H807 C819 0.950 . S
C808 H800 0.950 . S
C808 C809 1.386 . S
C808 C810 1.391 . S
C809 C808 1.386 . S
C809 C813 1.393 . S
C810 H802 0.950 . S
C810 C808 1.391 . S
C810 C811 1.400 . S
C811 C810 1.400 . S
C811 C812 1.398 . S
C811 C817 1.491 . S
C812 H803 0.950 . S
C812 C811 1.398 . S
C812 C813 1.391 . S
C813 H801 0.950 . S
C813 C809 1.393 . S
C813 C812 1.391 . S
C814 H804 0.950 . S
C814 C815 1.386 . S
C814 C816 1.391 . S
C815 C814 1.386 . S
C815 C819 1.393 . S
C816 H805 0.950 . S
C816 C814 1.391 . S
C816 C817 1.400 . S
C817 C811 1.491 . S
C817 C816 1.400 . S
C817 C818 1.398 . S
C818 H806 0.950 . S
C818 C817 1.398 . S
C818 C819 1.391 . S
C819 H807 0.950 . S
C819 C815 1.393 . S
C819 C818 1.391 . S
H820 C828 0.950 . S
H821 C833 0.950 . S
H822 C830 0.950 . S
H823 C832 0.950 . S
H824 C834 0.950 . S
H825 C836 0.950 . S
H826 C838 0.950 . S
H827 C839 0.950 1_556 S
C828 H820 0.950 . S
C828 C829 1.386 . S
C828 C830 1.391 . S
C829 C828 1.386 . S
C829 C833 1.393 . S
C830 H822 0.950 . S
C830 C828 1.391 . S
C830 C831 1.400 . S
C831 C830 1.400 . S
C831 C832 1.398 . S
C831 C837 1.491 . S
C832 H823 0.950 . S
C832 C831 1.398 . S
C832 C833 1.391 . S
C833 H821 0.950 . S
C833 C829 1.393 . S
C833 C832 1.391 . S
C834 H824 0.950 . S
C834 C835 1.386 . S
C834 C836 1.391 1_556 S
C835 C834 1.386 . S
C835 C839 1.393 1_556 S
C836 H825 0.950 . S
C836 C834 1.391 1_554 S
C836 C837 1.400 . S
C837 C831 1.491 . S
C837 C836 1.400 . S
C837 C838 1.398 . S
C838 H826 0.950 . S
C838 C837 1.398 . S
C838 C839 1.391 . S
C839 H827 0.950 1_554 S
C839 C835 1.393 1_554 S
C839 C838 1.391 . S
H840 C848 0.950 1_554 S
H841 C853 0.950 . S
H842 C850 0.950 . S
H843 C852 0.950 . S
H844 C854 0.950 . S
H845 C856 0.950 . S
H846 C858 0.950 . S
H847 C859 0.950 . S
C848 H840 0.950 1_556 S
C848 C849 1.386 . S
C848 C850 1.391 . S
C849 C848 1.386 . S
C849 C853 1.393 . S
C850 H842 0.950 . S
C850 C848 1.391 . S
C850 C851 1.400 . S
C851 C850 1.400 . S
C851 C852 1.398 . S
C851 C857 1.491 . S
C852 H843 0.950 . S
C852 C851 1.398 . S
C852 C853 1.391 . S
C853 H841 0.950 . S
C853 C849 1.393 . S
C853 C852 1.391 . S
C854 H844 0.950 . S
C854 C855 1.386 . S
C854 C856 1.391 . S
C855 C854 1.386 . S
C855 C859 1.393 . S
C856 H845 0.950 . S
C856 C854 1.391 . S
C856 C857 1.400 . S
C857 C851 1.491 . S
C857 C856 1.400 . S
C857 C858 1.398 . S
C858 H846 0.950 . S
C858 C857 1.398 . S
C858 C859 1.391 . S
C859 H847 0.950 . S
C859 C855 1.393 . S
C859 C858 1.391 . S
H860 C868 0.950 . S
H861 C873 0.950 . S
H862 C870 0.950 . S
H863 C872 0.950 . S
H864 C874 0.950 . S
H865 C876 0.950 . S
H866 C878 0.950 . S
H867 C879 0.950 . S
C868 H860 0.950 . S
C868 C869 1.386 . S
C868 C870 1.391 . S
C869 C868 1.386 . S
C869 C873 1.393 . S
C870 H862 0.950 . S
C870 C868 1.391 . S
C870 C871 1.400 . S
C871 C870 1.400 . S
C871 C872 1.398 . S
C871 C877 1.491 . S
C872 H863 0.950 . S
C872 C871 1.398 . S
C872 C873 1.391 . S
C873 H861 0.950 . S
C873 C869 1.393 . S
C873 C872 1.391 . S
C874 H864 0.950 . S
C874 C875 1.386 . S
C874 C876 1.391 . S
C875 C874 1.386 . S
C875 C879 1.393 . S
C876 H865 0.950 . S
C876 C874 1.391 . S
C876 C877 1.400 . S
C877 C871 1.491 . S
C877 C876 1.400 . S
C877 C878 1.398 . S
C878 H866 0.950 . S
C878 C877 1.398 . S
C878 C879 1.391 . S
C879 H867 0.950 . S
C879 C875 1.393 . S
C879 C878 1.391 . S
H880 C888 0.950 . S
H881 C893 0.950 . S
H882 C890 0.950 . S
H883 C892 0.950 . S
H884 C894 0.950 . S
H885 C896 0.950 . S
H886 C898 0.950 . S
H887 C899 0.950 . S
C888 H880 0.950 . S
C888 C889 1.386 . S
C888 C890 1.391 . S
C889 C888 1.386 . S
C889 C893 1.393 . S
C890 H882 0.950 . S
C890 C888 1.391 . S
C890 C891 1.400 . S
C891 C890 1.400 . S
C891 C892 1.398 . S
C891 C897 1.491 . S
C892 H883 0.950 . S
C892 C891 1.398 . S
C892 C893 1.391 . S
C893 H881 0.950 . S
C893 C889 1.393 . S
C893 C892 1.391 . S
C894 H884 0.950 . S
C894 C895 1.386 . S
C894 C896 1.391 . S
C895 C894 1.386 . S
C895 C899 1.393 . S
C896 H885 0.950 . S
C896 C894 1.391 . S
C896 C897 1.400 . S
C897 C891 1.491 . S
C897 C896 1.400 . S
C897 C898 1.398 . S
C898 H886 0.950 . S
C898 C897 1.398 . S
C898 C899 1.391 . S
C899 H887 0.950 . S
C899 C895 1.393 . S
C899 C898 1.391 . S
H900 C908 0.950 . S
H901 C913 0.950 . S
H902 C910 0.950 . S
H903 C912 0.950 . S
H904 C914 0.950 . S
H905 C916 0.950 . S
H906 C918 0.950 . S
H907 C919 0.950 . S
C908 H900 0.950 . S
C908 C909 1.386 . S
C908 C910 1.391 . S
C909 C908 1.386 . S
C909 C913 1.393 . S
C910 H902 0.950 . S
C910 C908 1.391 . S
C910 C911 1.400 . S
C911 C910 1.400 . S
C911 C912 1.398 . S
C911 C917 1.491 . S
C912 H903 0.950 . S
C912 C911 1.398 . S
C912 C913 1.391 . S
C913 H901 0.950 . S
C913 C909 1.393 . S
C913 C912 1.391 . S
C914 H904 0.950 . S
C914 C915 1.386 . S
C914 C916 1.391 . S
C915 C914 1.386 . S
C915 C919 1.393 . S
C916 H905 0.950 . S
C916 C914 1.391 . S
C916 C917 1.400 . S
C917 C911 1.491 . S
C917 C916 1.400 . S
C917 C918 1.398 . S
C918 H906 0.950 . S
C918 C917 1.398 . S
C918 C919 1.391 . S
C919 H907 0.950 . S
C919 C915 1.393 . S
C919 C918 1.391 . S
H920 C928 0.950 . S
H921 C933 0.950 . S
H922 C930 0.950 . S
H923 C932 0.950 . S
H924 C934 0.950 . S
H925 C936 0.950 . S
H926 C938 0.950 . S
H927 C939 0.950 . S
C928 H920 0.950 . S
C928 C929 1.386 . S
C928 C930 1.391 . S
C929 C928 1.386 . S
C929 C933 1.393 . S
C930 H922 0.950 . S
C930 C928 1.391 . S
C930 C931 1.400 . S
C931 C930 1.400 . S
C931 C932 1.398 . S
C931 C937 1.491 . S
C932 H923 0.950 . S
C932 C931 1.398 . S
C932 C933 1.391 . S
C933 H921 0.950 . S
C933 C929 1.393 . S
C933 C932 1.391 . S
C934 H924 0.950 . S
C934 C935 1.386 . S
C934 C936 1.391 1_556 S
C935 C934 1.386 . S
C935 C939 1.393 . S
C936 H925 0.950 . S
C936 C934 1.391 1_554 S
C936 C937 1.400 . S
C937 C931 1.491 . S
C937 C936 1.400 . S
C937 C938 1.398 . S
C938 H926 0.950 . S
C938 C937 1.398 . S
C938 C939 1.391 1_554 S
C939 H927 0.950 . S
C939 C935 1.393 . S
C939 C938 1.391 1_556 S
H940 C948 0.944 1_554 S
H941 C953 0.950 . S
H942 C950 0.950 . S
H943 C952 0.950 . S
H944 C954 0.950 . S
H945 C956 0.950 . S
H946 C958 0.950 . S
H947 C959 0.950 . S
C948 H940 0.944 1_556 S
C948 C949 1.386 . S
C948 C950 1.391 . S
C949 C948 1.386 . S
C949 C953 1.393 . S
C950 H942 0.950 . S
C950 C948 1.391 . S
C950 C951 1.400 . S
C951 C950 1.400 . S
C951 C952 1.398 . S
C951 C957 1.491 . S
C952 H943 0.950 . S
C952 C951 1.398 . S
C952 C953 1.391 . S
C953 H941 0.950 . S
C953 C949 1.393 . S
C953 C952 1.391 . S
C954 H944 0.950 . S
C954 C955 1.386 . S
C954 C956 1.391 . S
C955 C954 1.386 . S
C955 C959 1.393 . S
C956 H945 0.950 . S
C956 C954 1.391 . S
C956 C957 1.400 . S
C957 C951 1.491 . S
C957 C956 1.400 . S
C957 C958 1.398 . S
C958 H946 0.950 . S
C958 C957 1.398 . S
C958 C959 1.391 . S
C959 H947 0.950 . S
C959 C955 1.393 . S
C959 C958 1.391 . S
H960 C968 0.950 . S
H961 C973 0.950 . S
H962 C970 0.950 . S
H963 C972 0.950 . S
H964 C974 0.950 . S
H965 C976 0.950 . S
H966 C978 0.950 . S
H967 C979 0.950 . S
C968 H960 0.950 . S
C968 C969 1.386 . S
C968 C970 1.391 . S
C969 C968 1.386 . S
C969 C973 1.393 . S
C970 H962 0.950 . S
C970 C968 1.391 . S
C970 C971 1.400 . S
C971 C970 1.400 . S
C971 C972 1.398 . S
C971 C977 1.491 . S
C972 H963 0.950 . S
C972 C971 1.398 . S
C972 C973 1.391 . S
C973 H961 0.950 . S
C973 C969 1.393 . S
C973 C972 1.391 . S
C974 H964 0.950 . S
C974 C975 1.386 . S
C974 C976 1.391 . S
C975 C974 1.386 . S
C975 C979 1.393 . S
C976 H965 0.950 . S
C976 C974 1.391 . S
C976 C977 1.400 . S
C977 C971 1.491 . S
C977 C976 1.400 . S
C977 C978 1.398 . S
C978 H966 0.950 . S
C978 C977 1.398 . S
C978 C979 1.391 . S
C979 H967 0.950 . S
C979 C975 1.393 . S
C979 C978 1.391 . S
H980 C988 0.950 . S
H981 C993 0.950 . S
H982 C990 0.950 . S
H983 C992 0.950 . S
H984 C994 0.950 . S
H985 C996 0.950 . S
H986 C998 0.950 . S
H987 C999 0.950 . S
C988 H980 0.950 . S
C988 C989 1.386 . S
C988 C990 1.391 . S
C989 C988 1.386 . S
C989 C993 1.393 . S
C990 H982 0.950 . S
C990 C988 1.391 . S
C990 C991 1.400 . S
C991 C990 1.400 . S
C991 C992 1.398 . S
C991 C997 1.491 . S
C992 H983 0.950 . S
C992 C991 1.398 . S
C992 C993 1.391 . S
C993 H981 0.950 . S
C993 C989 1.393 . S
C993 C992 1.391 . S
C994 H984 0.950 . S
C994 C995 1.386 . S
C994 C996 1.391 . S
C995 C994 1.386 . S
C995 C999 1.393 . S
C996 H985 0.950 . S
C996 C994 1.391 . S
C996 C997 1.400 . S
C997 C991 1.491 . S
C997 C996 1.400 . S
C997 C998 1.398 . S
C998 H986 0.950 . S
C998 C997 1.398 . S
C998 C999 1.391 . S
C999 H987 0.950 . S
C999 C995 1.393 . S
C999 C998 1.391 . S
H1000 C1008 0.950 . S
H1001 C1013 0.950 . S
H1002 C1010 0.950 . S
H1003 C1012 0.950 . S
H1004 C1014 0.950 . S
H1005 C1016 0.950 . S
H1006 C1018 0.950 . S
H1007 C1019 0.950 . S
C1008 H1000 0.950 . S
C1008 C1009 1.386 . S
C1008 C1010 1.391 . S
C1009 C1008 1.386 . S
C1009 C1013 1.393 . S
C1010 H1002 0.950 . S
C1010 C1008 1.391 . S
C1010 C1011 1.400 . S
C1011 C1010 1.400 . S
C1011 C1012 1.398 . S
C1011 C1017 1.491 . S
C1012 H1003 0.950 . S
C1012 C1011 1.398 . S
C1012 C1013 1.391 . S
C1013 H1001 0.950 . S
C1013 C1009 1.393 . S
C1013 C1012 1.391 . S
C1014 H1004 0.950 . S
C1014 C1015 1.386 . S
C1014 C1016 1.391 . S
C1015 C1014 1.386 . S
C1015 C1019 1.393 . S
C1016 H1005 0.950 . S
C1016 C1014 1.391 . S
C1016 C1017 1.400 . S
C1017 C1011 1.491 . S
C1017 C1016 1.400 . S
C1017 C1018 1.398 . S
C1018 H1006 0.950 . S
C1018 C1017 1.398 . S
C1018 C1019 1.391 . S
C1019 H1007 0.950 . S
C1019 C1015 1.393 . S
C1019 C1018 1.391 . S
H1020 C1028 0.950 . S
H1021 C1033 0.950 1_554 S
H1022 C1030 0.950 . S
H1023 C1032 0.950 1_554 S
H1024 C1034 0.950 . S
H1025 C1036 0.950 . S
H1026 C1038 0.950 . S
H1027 C1039 0.950 . S
C1028 H1020 0.950 . S
C1028 C1029 1.386 . S
C1028 C1030 1.391 . S
C1029 C1028 1.386 . S
C1029 C1033 1.393 . S
C1030 H1022 0.950 . S
C1030 C1028 1.391 . S
C1030 C1031 1.400 . S
C1031 C1030 1.400 . S
C1031 C1032 1.398 . S
C1031 C1037 1.491 1_655 S
C1032 H1023 0.950 1_556 S
C1032 C1031 1.398 . S
C1032 C1033 1.391 . S
C1033 H1021 0.950 1_556 S
C1033 C1029 1.393 . S
C1033 C1032 1.391 . S
C1034 H1024 0.950 . S
C1034 C1035 1.386 . S
C1034 C1036 1.391 . S
C1035 C1034 1.386 . S
C1035 C1039 1.393 . S
C1036 H1025 0.950 . S
C1036 C1034 1.391 . S
C1036 C1037 1.400 . S
C1037 C1031 1.491 1_455 S
C1037 C1036 1.400 . S
C1037 C1038 1.398 . S
C1038 H1026 0.950 . S
C1038 C1037 1.398 . S
C1038 C1039 1.391 . S
C1039 H1027 0.950 . S
C1039 C1035 1.393 . S
C1039 C1038 1.391 . S
H1040 C1048 0.950 . S
H1041 C1053 0.950 . S
H1042 C1050 0.950 . S
H1043 C1052 0.950 . S
H1044 C1054 0.950 . S
H1045 C1056 0.950 . S
H1046 C1058 0.950 . S
H1047 C1059 0.950 . S
C1048 H1040 0.950 . S
C1048 C1049 1.386 . S
C1048 C1050 1.391 . S
C1049 C1048 1.386 . S
C1049 C1053 1.393 . S
C1050 H1042 0.950 . S
C1050 C1048 1.391 . S
C1050 C1051 1.400 . S
C1051 C1050 1.400 . S
C1051 C1052 1.398 . S
C1051 C1057 1.491 . S
C1052 H1043 0.950 . S
C1052 C1051 1.398 . S
C1052 C1053 1.391 . S
C1053 H1041 0.950 . S
C1053 C1049 1.393 . S
C1053 C1052 1.391 . S
C1054 H1044 0.950 . S
C1054 C1055 1.386 . S
C1054 C1056 1.391 . S
C1055 C1054 1.386 . S
C1055 C1059 1.393 . S
C1056 H1045 0.950 . S
C1056 C1054 1.391 . S
C1056 C1057 1.400 . S
C1057 C1051 1.491 . S
C1057 C1056 1.400 . S
C1057 C1058 1.398 . S
C1058 H1046 0.950 . S
C1058 C1057 1.398 . S
C1058 C1059 1.391 . S
C1059 H1047 0.950 . S
C1059 C1055 1.393 . S
C1059 C1058 1.391 . S
H1060 C1068 0.950 . S
H1061 C1073 0.950 . S
H1062 C1070 0.950 . S
H1063 C1072 0.936 1_556 S
H1064 C1074 0.950 1_556 S
H1065 C1076 0.950 1_556 S
H1066 C1078 0.950 . S
H1067 C1079 0.950 . S
C1068 H1060 0.950 . S
C1068 C1069 1.386 . S
C1068 C1070 1.391 . S
C1069 C1068 1.386 . S
C1069 C1073 1.393 1_554 S
C1070 H1062 0.950 . S
C1070 C1068 1.391 . S
C1070 C1071 1.400 . S
C1071 C1070 1.400 . S
C1071 C1072 1.415 . S
C1071 C1077 1.491 1_455 S
C1072 H1063 0.936 1_554 S
C1072 C1071 1.415 . S
C1072 C1073 1.387 1_554 S
C1073 H1061 0.950 . S
C1073 C1069 1.393 1_556 S
C1073 C1072 1.387 1_556 S
C1074 H1064 0.950 1_554 S
C1074 C1075 1.386 . S
C1074 C1076 1.391 . S
C1075 C1074 1.386 . S
C1075 C1079 1.393 . S
C1076 H1065 0.950 1_554 S
C1076 C1074 1.391 . S
C1076 C1077 1.400 . S
C1077 C1071 1.491 1_655 S
C1077 C1076 1.400 . S
C1077 C1078 1.398 . S
C1078 H1066 0.950 . S
C1078 C1077 1.398 . S
C1078 C1079 1.391 . S
C1079 H1067 0.950 . S
C1079 C1075 1.393 . S
C1079 C1078 1.391 . S
H1080 C1088 0.950 . S
H1081 C1093 0.950 . S
H1082 C1090 0.950 . S
H1083 C1092 0.950 . S
H1084 C1094 0.950 . S
H1085 C1096 0.950 . S
H1086 C1098 0.950 . S
H1087 C1099 0.950 . S
C1088 H1080 0.950 . S
C1088 C1089 1.386 . S
C1088 C1090 1.391 . S
C1089 C1088 1.386 . S
C1089 C1093 1.393 . S
C1090 H1082 0.950 . S
C1090 C1088 1.391 . S
C1090 C1091 1.400 . S
C1091 C1090 1.400 . S
C1091 C1092 1.398 . S
C1091 C1097 1.491 . S
C1092 H1083 0.950 . S
C1092 C1091 1.398 . S
C1092 C1093 1.391 . S
C1093 H1081 0.950 . S
C1093 C1089 1.393 . S
C1093 C1092 1.391 . S
C1094 H1084 0.950 . S
C1094 C1095 1.386 . S
C1094 C1096 1.391 . S
C1095 C1094 1.386 . S
C1095 C1099 1.393 . S
C1096 H1085 0.950 . S
C1096 C1094 1.391 . S
C1096 C1097 1.400 . S
C1097 C1091 1.491 . S
C1097 C1096 1.400 . S
C1097 C1098 1.398 . S
C1098 H1086 0.950 . S
C1098 C1097 1.398 . S
C1098 C1099 1.391 . S
C1099 H1087 0.950 . S
C1099 C1095 1.393 . S
C1099 C1098 1.391 . S
H1100 C1108 0.950 . S
H1101 C1113 0.950 . S
H1102 C1110 0.950 . S
H1103 C1112 0.950 . S
H1104 C1114 0.950 . S
H1105 C1116 0.950 . S
H1106 C1118 0.950 . S
H1107 C1119 0.950 . S
C1108 H1100 0.950 . S
C1108 C1109 1.386 . S
C1108 C1110 1.391 . S
C1109 C1108 1.386 . S
C1109 C1113 1.393 . S
C1110 H1102 0.950 . S
C1110 C1108 1.391 . S
C1110 C1111 1.400 . S
C1111 C1110 1.400 . S
C1111 C1112 1.398 . S
C1111 C1117 1.491 . S
C1112 H1103 0.950 . S
C1112 C1111 1.398 . S
C1112 C1113 1.391 . S
C1113 H1101 0.950 . S
C1113 C1109 1.393 . S
C1113 C1112 1.391 . S
C1114 H1104 0.950 . S
C1114 C1115 1.386 . S
C1114 C1116 1.391 . S
C1115 C1114 1.386 . S
C1115 C1119 1.393 . S
C1116 H1105 0.950 . S
C1116 C1114 1.391 . S
C1116 C1117 1.400 . S
C1117 C1111 1.491 . S
C1117 C1116 1.400 . S
C1117 C1118 1.398 . S
C1118 H1106 0.950 . S
C1118 C1117 1.398 . S
C1118 C1119 1.391 . S
C1119 H1107 0.950 . S
C1119 C1115 1.393 . S
C1119 C1118 1.391 . S
H1120 C1128 0.950 . S
H1121 C1133 0.950 . S
H1122 C1130 0.950 . S
H1123 C1132 0.950 . S
H1124 C1134 0.950 . S
H1125 C1136 0.950 . S
H1126 C1138 0.950 . S
H1127 C1139 0.950 . S
C1128 H1120 0.950 . S
C1128 C1129 1.386 . S
C1128 C1130 1.391 . S
C1129 C1128 1.386 . S
C1129 C1133 1.393 . S
C1130 H1122 0.950 . S
C1130 C1128 1.391 . S
C1130 C1131 1.400 . S
C1131 C1130 1.400 . S
C1131 C1132 1.398 . S
C1131 C1137 1.491 . S
C1132 H1123 0.950 . S
C1132 C1131 1.398 . S
C1132 C1133 1.391 . S
C1133 H1121 0.950 . S
C1133 C1129 1.393 . S
C1133 C1132 1.391 . S
C1134 H1124 0.950 . S
C1134 C1135 1.386 . S
C1134 C1136 1.391 . S
C1135 C1134 1.386 . S
C1135 C1139 1.393 . S
C1136 H1125 0.950 . S
C1136 C1134 1.391 . S
C1136 C1137 1.400 . S
C1137 C1131 1.491 . S
C1137 C1136 1.400 . S
C1137 C1138 1.398 . S
C1138 H1126 0.950 . S
C1138 C1137 1.398 . S
C1138 C1139 1.391 . S
C1139 H1127 0.950 . S
C1139 C1135 1.393 . S
C1139 C1138 1.391 . S
H1140 C1148 0.950 . S
H1141 C1153 0.950 . S
H1142 C1150 0.950 . S
H1143 C1152 0.950 . S
H1144 C1154 0.950 . S
H1145 C1156 0.950 . S
H1146 C1158 0.950 . S
H1147 C1159 0.950 . S
C1148 H1140 0.950 . S
C1148 C1149 1.386 . S
C1148 C1150 1.391 . S
C1149 C1148 1.386 . S
C1149 C1153 1.393 . S
C1150 H1142 0.950 . S
C1150 C1148 1.391 . S
C1150 C1151 1.400 . S
C1151 C1150 1.400 . S
C1151 C1152 1.398 . S
C1151 C1157 1.491 . S
C1152 H1143 0.950 . S
C1152 C1151 1.398 . S
C1152 C1153 1.391 . S
C1153 H1141 0.950 . S
C1153 C1149 1.393 . S
C1153 C1152 1.391 . S
C1154 H1144 0.950 . S
C1154 C1155 1.386 . S
C1154 C1156 1.391 . S
C1155 C1154 1.386 . S
C1155 C1159 1.393 . S
C1156 H1145 0.950 . S
C1156 C1154 1.391 . S
C1156 C1157 1.400 . S
C1157 C1151 1.491 . S
C1157 C1156 1.400 . S
C1157 C1158 1.398 . S
C1158 H1146 0.950 . S
C1158 C1157 1.398 . S
C1158 C1159 1.391 . S
C1159 H1147 0.950 . S
C1159 C1155 1.393 . S
C1159 C1158 1.391 . S
H1160 C1168 0.950 . S
H1161 C1173 0.950 . S
H1162 C1170 0.950 . S
H1163 C1172 0.950 . S
H1164 C1174 0.950 . S
H1165 C1176 0.950 . S
H1166 C1178 0.950 . S
H1167 C1179 0.950 . S
C1168 H1160 0.950 . S
C1168 C1169 1.386 . S
C1168 C1170 1.391 . S
C1169 C1168 1.386 . S
C1169 C1173 1.393 . S
C1170 H1162 0.950 . S
C1170 C1168 1.391 . S
C1170 C1171 1.400 . S
C1171 C1170 1.400 . S
C1171 C1172 1.398 . S
C1171 C1177 1.491 . S
C1172 H1163 0.950 . S
C1172 C1171 1.398 . S
C1172 C1173 1.391 . S
C1173 H1161 0.950 . S
C1173 C1169 1.393 . S
C1173 C1172 1.391 . S
C1174 H1164 0.950 . S
C1174 C1175 1.386 . S
C1174 C1176 1.391 . S
C1175 C1174 1.386 . S
C1175 C1179 1.393 . S
C1176 H1165 0.950 . S
C1176 C1174 1.391 . S
C1176 C1177 1.400 . S
C1177 C1171 1.491 . S
C1177 C1176 1.400 . S
C1177 C1178 1.398 . S
C1178 H1166 0.950 . S
C1178 C1177 1.398 . S
C1178 C1179 1.391 . S
C1179 H1167 0.950 . S
C1179 C1175 1.393 . S
C1179 C1178 1.391 . S
H1180 C1188 0.950 . S
H1181 C1193 0.950 . S
H1182 C1190 0.950 . S
H1183 C1192 0.950 . S
H1184 C1194 0.950 . S
H1185 C1196 0.950 . S
H1186 C1198 0.950 . S
H1187 C1199 0.950 . S
C1188 H1180 0.950 . S
C1188 C1189 1.386 . S
C1188 C1190 1.391 . S
C1189 C1188 1.386 . S
C1189 C1193 1.393 . S
C1190 H1182 0.950 . S
C1190 C1188 1.391 . S
C1190 C1191 1.400 . S
C1191 C1190 1.400 . S
C1191 C1192 1.398 . S
C1191 C1197 1.491 . S
C1192 H1183 0.950 . S
C1192 C1191 1.398 . S
C1192 C1193 1.391 . S
C1193 H1181 0.950 . S
C1193 C1189 1.393 . S
C1193 C1192 1.391 . S
C1194 H1184 0.950 . S
C1194 C1195 1.386 . S
C1194 C1196 1.391 . S
C1195 C1194 1.386 . S
C1195 C1199 1.393 . S
C1196 H1185 0.950 . S
C1196 C1194 1.391 . S
C1196 C1197 1.400 . S
C1197 C1191 1.491 . S
C1197 C1196 1.400 . S
C1197 C1198 1.398 . S
C1198 H1186 0.950 . S
C1198 C1197 1.398 . S
C1198 C1199 1.391 . S
C1199 H1187 0.950 . S
C1199 C1195 1.393 . S
C1199 C1198 1.391 . S
H1200 C1208 0.950 . S
H1201 C1213 0.950 . S
H1202 C1210 0.950 . S
H1203 C1212 0.950 . S
H1204 C1214 0.950 . S
H1205 C1216 0.950 . S
H1206 C1218 0.950 . S
H1207 C1219 0.950 . S
C1208 H1200 0.950 . S
C1208 C1209 1.386 . S
C1208 C1210 1.391 . S
C1209 C1208 1.386 . S
C1209 C1213 1.393 . S
C1210 H1202 0.950 . S
C1210 C1208 1.391 . S
C1210 C1211 1.400 . S
C1211 C1210 1.400 . S
C1211 C1212 1.398 . S
C1211 C1217 1.491 1_655 S
C1212 H1203 0.950 . S
C1212 C1211 1.398 . S
C1212 C1213 1.391 . S
C1213 H1201 0.950 . S
C1213 C1209 1.393 . S
C1213 C1212 1.391 . S
C1214 H1204 0.950 . S
C1214 C1215 1.386 . S
C1214 C1216 1.391 . S
C1215 C1214 1.386 . S
C1215 C1219 1.393 . S
C1216 H1205 0.950 . S
C1216 C1214 1.391 . S
C1216 C1217 1.400 . S
C1217 C1211 1.491 1_455 S
C1217 C1216 1.400 . S
C1217 C1218 1.398 . S
C1218 H1206 0.950 . S
C1218 C1217 1.398 . S
C1218 C1219 1.391 . S
C1219 H1207 0.950 . S
C1219 C1215 1.393 . S
C1219 C1218 1.391 . S
H1220 C1228 0.950 . S
H1221 C1233 0.950 . S
H1222 C1230 0.950 . S
H1223 C1232 0.950 . S
H1224 C1234 0.950 . S
H1225 C1236 0.950 . S
H1226 C1238 0.950 . S
H1227 C1239 0.950 . S
C1228 H1220 0.950 . S
C1228 C1229 1.386 . S
C1228 C1230 1.391 . S
C1229 C1228 1.386 . S
C1229 C1233 1.393 . S
C1230 H1222 0.950 . S
C1230 C1228 1.391 . S
C1230 C1231 1.400 . S
C1231 C1230 1.400 . S
C1231 C1232 1.398 . S
C1231 C1237 1.491 . S
C1232 H1223 0.950 . S
C1232 C1231 1.398 . S
C1232 C1233 1.391 . S
C1233 H1221 0.950 . S
C1233 C1229 1.393 . S
C1233 C1232 1.391 . S
C1234 H1224 0.950 . S
C1234 C1235 1.386 . S
C1234 C1236 1.391 . S
C1235 C1234 1.386 . S
C1235 C1239 1.393 . S
C1236 H1225 0.950 . S
C1236 C1234 1.391 . S
C1236 C1237 1.400 . S
C1237 C1231 1.491 . S
C1237 C1236 1.400 . S
C1237 C1238 1.398 . S
C1238 H1226 0.950 . S
C1238 C1237 1.398 . S
C1238 C1239 1.391 . S
C1239 H1227 0.950 . S
C1239 C1235 1.393 . S
C1239 C1238 1.391 . S
H1240 C1248 0.950 . S
H1241 C1253 0.950 . S
H1242 C1250 0.950 . S
H1243 C1252 0.950 . S
H1244 C1254 0.950 . S
H1245 C1256 0.950 . S
H1246 C1258 0.950 . S
H1247 C1259 0.950 . S
C1248 H1240 0.950 . S
C1248 C1249 1.386 . S
C1248 C1250 1.391 . S
C1249 C1248 1.386 . S
C1249 C1253 1.393 . S
C1250 H1242 0.950 . S
C1250 C1248 1.391 . S
C1250 C1251 1.400 . S
C1251 C1250 1.400 . S
C1251 C1252 1.398 . S
C1251 C1257 1.491 . S
C1252 H1243 0.950 . S
C1252 C1251 1.398 . S
C1252 C1253 1.391 . S
C1253 H1241 0.950 . S
C1253 C1249 1.393 . S
C1253 C1252 1.391 . S
C1254 H1244 0.950 . S
C1254 C1255 1.386 . S
C1254 C1256 1.391 . S
C1255 C1254 1.386 . S
C1255 C1259 1.393 . S
C1256 H1245 0.950 . S
C1256 C1254 1.391 . S
C1256 C1257 1.400 . S
C1257 C1251 1.491 . S
C1257 C1256 1.400 . S
C1257 C1258 1.398 . S
C1258 H1246 0.950 . S
C1258 C1257 1.398 . S
C1258 C1259 1.391 . S
C1259 H1247 0.950 . S
C1259 C1255 1.393 . S
C1259 C1258 1.391 . S
H1260 C1268 0.950 . S
H1261 C1273 0.950 . S
H1262 C1270 0.950 . S
H1263 C1272 0.950 . S
H1264 C1274 0.950 . S
H1265 C1276 0.950 . S
H1266 C1278 0.950 . S
H1267 C1279 0.950 . S
C1268 H1260 0.950 . S
C1268 C1269 1.386 . S
C1268 C1270 1.391 . S
C1269 C1268 1.386 . S
C1269 C1273 1.393 1_554 S
C1270 H1262 0.950 . S
C1270 C1268 1.391 . S
C1270 C1271 1.400 . S
C1271 C1270 1.400 . S
C1271 C1272 1.398 1_554 S
C1271 C1277 1.491 1_455 S
C1272 H1263 0.950 . S
C1272 C1271 1.398 1_556 S
C1272 C1273 1.391 . S
C1273 H1261 0.950 . S
C1273 C1269 1.393 1_556 S
C1273 C1272 1.391 . S
C1274 H1264 0.950 . S
C1274 C1275 1.386 1_556 S
C1274 C1276 1.391 . S
C1275 C1274 1.386 1_554 S
C1275 C1279 1.393 . S
C1276 H1265 0.950 . S
C1276 C1274 1.391 . S
C1276 C1277 1.400 1_556 S
C1277 C1271 1.491 1_655 S
C1277 C1276 1.400 1_554 S
C1277 C1278 1.398 . S
C1278 H1266 0.950 . S
C1278 C1277 1.398 . S
C1278 C1279 1.391 . S
C1279 H1267 0.950 . S
C1279 C1275 1.393 . S
C1279 C1278 1.391 . S
H1280 C1288 0.950 . S
H1281 C1293 0.950 . S
H1282 C1290 0.950 . S
H1283 C1292 0.950 . S
H1284 C1294 0.950 . S
H1285 C1296 0.950 . S
H1286 C1298 0.950 . S
H1287 C1299 0.950 1_554 S
C1288 H1280 0.950 . S
C1288 C1289 1.386 . S
C1288 C1290 1.391 . S
C1289 C1288 1.386 . S
C1289 C1293 1.393 . S
C1290 H1282 0.950 . S
C1290 C1288 1.391 . S
C1290 C1291 1.400 . S
C1291 C1290 1.400 . S
C1291 C1292 1.398 1_554 S
C1291 C1297 1.491 1_554 S
C1292 H1283 0.950 . S
C1292 C1291 1.398 1_556 S
C1292 C1293 1.391 1_556 S
C1293 H1281 0.950 . S
C1293 C1289 1.393 . S
C1293 C1292 1.391 1_554 S
C1294 H1284 0.950 . S
C1294 C1295 1.386 . S
C1294 C1296 1.391 . S
C1295 C1294 1.386 . S
C1295 C1299 1.393 . S
C1296 H1285 0.950 . S
C1296 C1294 1.391 . S
C1296 C1297 1.400 . S
C1297 C1291 1.491 1_556 S
C1297 C1296 1.400 . S
C1297 C1298 1.398 1_556 S
C1298 H1286 0.950 . S
C1298 C1297 1.398 1_554 S
C1298 C1299 1.391 1_554 S
C1299 H1287 0.950 1_556 S
C1299 C1295 1.393 . S
C1299 C1298 1.391 1_556 S
H1300 C1308 0.950 . S
H1301 C1313 0.950 . S
H1302 C1310 0.950 . S
H1303 C1312 0.950 . S
H1304 C1314 0.950 . S
H1305 C1316 0.950 . S
H1306 C1318 0.950 . S
H1307 C1319 0.950 . S
C1308 H1300 0.950 . S
C1308 C1309 1.386 . S
C1308 C1310 1.391 . S
C1309 C1308 1.386 . S
C1309 C1313 1.393 . S
C1310 H1302 0.950 . S
C1310 C1308 1.391 . S
C1310 C1311 1.400 . S
C1311 C1310 1.400 . S
C1311 C1312 1.398 . S
C1311 C1317 1.491 . S
C1312 H1303 0.950 . S
C1312 C1311 1.398 . S
C1312 C1313 1.391 . S
C1313 H1301 0.950 . S
C1313 C1309 1.393 . S
C1313 C1312 1.391 . S
C1314 H1304 0.950 . S
C1314 C1315 1.386 . S
C1314 C1316 1.391 . S
C1315 C1314 1.386 . S
C1315 C1319 1.393 . S
C1316 H1305 0.950 . S
C1316 C1314 1.391 . S
C1316 C1317 1.400 . S
C1317 C1311 1.491 . S
C1317 C1316 1.400 . S
C1317 C1318 1.398 . S
C1318 H1306 0.950 . S
C1318 C1317 1.398 . S
C1318 C1319 1.391 . S
C1319 H1307 0.950 . S
C1319 C1315 1.393 . S
C1319 C1318 1.391 . S
H1320 C1328 0.950 . S
H1321 C1333 0.950 . S
H1322 C1330 0.950 . S
H1323 C1332 0.950 . S
H1324 C1334 0.950 . S
H1325 C1336 0.950 . S
H1326 C1338 0.950 . S
H1327 C1339 0.950 . S
C1328 H1320 0.950 . S
C1328 C1329 1.386 . S
C1328 C1330 1.391 . S
C1329 C1328 1.386 . S
C1329 C1333 1.393 . S
C1330 H1322 0.950 . S
C1330 C1328 1.391 . S
C1330 C1331 1.400 . S
C1331 C1330 1.400 . S
C1331 C1332 1.398 . S
C1331 C1337 1.491 . S
C1332 H1323 0.950 . S
C1332 C1331 1.398 . S
C1332 C1333 1.391 . S
C1333 H1321 0.950 . S
C1333 C1329 1.393 . S
C1333 C1332 1.391 . S
C1334 H1324 0.950 . S
C1334 C1335 1.386 . S
C1334 C1336 1.391 . S
C1335 C1334 1.386 . S
C1335 C1339 1.393 . S
C1336 H1325 0.950 . S
C1336 C1334 1.391 . S
C1336 C1337 1.400 . S
C1337 C1331 1.491 . S
C1337 C1336 1.400 . S
C1337 C1338 1.398 . S
C1338 H1326 0.950 . S
C1338 C1337 1.398 . S
C1338 C1339 1.391 . S
C1339 H1327 0.950 . S
C1339 C1335 1.393 . S
C1339 C1338 1.391 . S
H1340 C1348 0.950 . S
H1341 C1353 0.950 . S
H1342 C1350 0.950 . S
H1343 C1352 0.950 . S
H1344 C1354 0.950 . S
H1345 C1356 0.950 . S
H1346 C1358 0.950 . S
H1347 C1359 0.950 . S
C1348 H1340 0.950 . S
C1348 C1349 1.386 . S
C1348 C1350 1.391 . S
C1349 C1348 1.386 . S
C1349 C1353 1.393 . S
C1350 H1342 0.950 . S
C1350 C1348 1.391 . S
C1350 C1351 1.400 . S
C1351 C1350 1.400 . S
C1351 C1352 1.398 . S
C1351 C1357 1.491 . S
C1352 H1343 0.950 . S
C1352 C1351 1.398 . S
C1352 C1353 1.391 . S
C1353 H1341 0.950 . S
C1353 C1349 1.393 . S
C1353 C1352 1.391 . S
C1354 H1344 0.950 . S
C1354 C1355 1.386 . S
C1354 C1356 1.391 . S
C1355 C1354 1.386 . S
C1355 C1359 1.393 . S
C1356 H1345 0.950 . S
C1356 C1354 1.391 . S
C1356 C1357 1.400 . S
C1357 C1351 1.491 . S
C1357 C1356 1.400 . S
C1357 C1358 1.398 . S
C1358 H1346 0.950 . S
C1358 C1357 1.398 . S
C1358 C1359 1.391 . S
C1359 H1347 0.950 . S
C1359 C1355 1.393 . S
C1359 C1358 1.391 . S
H1360 C1368 0.950 . S
H1361 C1373 0.950 . S
H1362 C1370 0.950 . S
H1363 C1372 0.950 . S
H1364 C1374 0.950 . S
H1365 C1376 0.950 . S
H1366 C1378 0.950 . S
H1367 C1379 0.950 . S
C1368 H1360 0.950 . S
C1368 C1369 1.386 . S
C1368 C1370 1.391 . S
C1369 C1368 1.386 . S
C1369 C1373 1.393 1_554 S
C1370 H1362 0.950 . S
C1370 C1368 1.391 . S
C1370 C1371 1.400 1_554 S
C1371 C1370 1.400 1_556 S
C1371 C1372 1.398 . S
C1371 C1377 1.491 . S
C1372 H1363 0.950 . S
C1372 C1371 1.398 . S
C1372 C1373 1.391 . S
C1373 H1361 0.950 . S
C1373 C1369 1.393 1_556 S
C1373 C1372 1.391 . S
C1374 H1364 0.950 . S
C1374 C1375 1.386 . S
C1374 C1376 1.391 . S
C1375 C1374 1.386 . S
C1375 C1379 1.393 . S
C1376 H1365 0.950 . S
C1376 C1374 1.391 . S
C1376 C1377 1.400 . S
C1377 C1371 1.491 . S
C1377 C1376 1.400 . S
C1377 C1378 1.398 . S
C1378 H1366 0.950 . S
C1378 C1377 1.398 . S
C1378 C1379 1.391 . S
C1379 H1367 0.950 . S
C1379 C1375 1.393 . S
C1379 C1378 1.391 . S
H1380 C1388 0.950 . S
H1381 C1393 0.950 . S
H1382 C1390 0.950 . S
H1383 C1392 0.950 . S
H1384 C1394 0.950 . S
H1385 C1396 0.950 . S
H1386 C1398 0.950 . S
H1387 C1399 0.950 . S
C1388 H1380 0.950 . S
C1388 C1389 1.386 . S
C1388 C1390 1.391 . S
C1389 C1388 1.386 . S
C1389 C1393 1.393 . S
C1390 H1382 0.950 . S
C1390 C1388 1.391 . S
C1390 C1391 1.400 . S
C1391 C1390 1.400 . S
C1391 C1392 1.398 . S
C1391 C1397 1.491 . S
C1392 H1383 0.950 . S
C1392 C1391 1.398 . S
C1392 C1393 1.391 . S
C1393 H1381 0.950 . S
C1393 C1389 1.393 . S
C1393 C1392 1.391 . S
C1394 H1384 0.950 . S
C1394 C1395 1.386 . S
C1394 C1396 1.391 . S
C1395 C1394 1.386 . S
C1395 C1399 1.393 . S
C1396 H1385 0.950 . S
C1396 C1394 1.391 . S
C1396 C1397 1.400 . S
C1397 C1391 1.491 . S
C1397 C1396 1.400 . S
C1397 C1398 1.398 . S
C1398 H1386 0.950 . S
C1398 C1397 1.398 . S
C1398 C1399 1.391 . S
C1399 H1387 0.950 . S
C1399 C1395 1.393 . S
C1399 C1398 1.391 . S
H1400 C1408 0.950 . S
H1401 C1413 0.950 . S
H1402 C1410 0.950 . S
H1403 C1412 0.950 . S
H1404 C1414 0.950 . S
H1405 C1416 0.950 . S
H1406 C1418 0.950 . S
H1407 C1419 0.950 . S
C1408 H1400 0.950 . S
C1408 C1409 1.386 . S
C1408 C1410 1.391 . S
C1409 C1408 1.386 . S
C1409 C1413 1.393 . S
C1410 H1402 0.950 . S
C1410 C1408 1.391 . S
C1410 C1411 1.400 . S
C1411 C1410 1.400 . S
C1411 C1412 1.398 . S
C1411 C1417 1.491 . S
C1412 H1403 0.950 . S
C1412 C1411 1.398 . S
C1412 C1413 1.391 . S
C1413 H1401 0.950 . S
C1413 C1409 1.393 . S
C1413 C1412 1.391 . S
C1414 H1404 0.950 . S
C1414 C1415 1.386 . S
C1414 C1416 1.391 . S
C1415 C1414 1.386 . S
C1415 C1419 1.393 . S
C1416 H1405 0.950 . S
C1416 C1414 1.391 . S
C1416 C1417 1.400 . S
C1417 C1411 1.491 . S
C1417 C1416 1.400 . S
C1417 C1418 1.398 . S
C1418 H1406 0.950 . S
C1418 C1417 1.398 . S
C1418 C1419 1.391 . S
C1419 H1407 0.950 . S
C1419 C1415 1.393 . S
C1419 C1418 1.391 . S
H1420 C1428 0.950 . S
H1421 C1433 0.950 . S
H1422 C1430 0.950 . S
H1423 C1432 0.950 . S
H1424 C1434 0.950 . S
H1425 C1436 0.950 . S
H1426 C1438 0.950 . S
H1427 C1439 0.950 . S
C1428 H1420 0.950 . S
C1428 C1429 1.386 . S
C1428 C1430 1.391 . S
C1429 C1428 1.386 . S
C1429 C1433 1.393 . S
C1430 H1422 0.950 . S
C1430 C1428 1.391 . S
C1430 C1431 1.400 . S
C1431 C1430 1.400 . S
C1431 C1432 1.398 . S
C1431 C1437 1.491 . S
C1432 H1423 0.950 . S
C1432 C1431 1.398 . S
C1432 C1433 1.391 . S
C1433 H1421 0.950 . S
C1433 C1429 1.393 . S
C1433 C1432 1.391 . S
C1434 H1424 0.950 . S
C1434 C1435 1.386 . S
C1434 C1436 1.391 . S
C1435 C1434 1.386 . S
C1435 C1439 1.393 . S
C1436 H1425 0.950 . S
C1436 C1434 1.391 . S
C1436 C1437 1.400 . S
C1437 C1431 1.491 . S
C1437 C1436 1.400 . S
C1437 C1438 1.398 . S
C1438 H1426 0.950 . S
C1438 C1437 1.398 . S
C1438 C1439 1.391 . S
C1439 H1427 0.950 . S
C1439 C1435 1.393 . S
C1439 C1438 1.391 . S
H1440 C1448 0.950 . S
H1441 C1453 0.950 . S
H1442 C1450 0.950 . S
H1443 C1452 0.950 . S
H1444 C1454 0.950 . S
H1445 C1456 0.950 . S
H1446 C1458 0.950 . S
H1447 C1459 0.950 . S
C1448 H1440 0.950 . S
C1448 C1449 1.386 . S
C1448 C1450 1.391 . S
C1449 C1448 1.386 . S
C1449 C1453 1.393 . S
C1450 H1442 0.950 . S
C1450 C1448 1.391 . S
C1450 C1451 1.400 . S
C1451 C1450 1.400 . S
C1451 C1452 1.398 . S
C1451 C1457 1.491 1_565 S
C1452 H1443 0.950 . S
C1452 C1451 1.398 . S
C1452 C1453 1.391 . S
C1453 H1441 0.950 . S
C1453 C1449 1.393 . S
C1453 C1452 1.391 . S
C1454 H1444 0.950 . S
C1454 C1455 1.386 . S
C1454 C1456 1.391 . S
C1455 C1454 1.386 . S
C1455 C1459 1.393 . S
C1456 H1445 0.950 . S
C1456 C1454 1.391 . S
C1456 C1457 1.400 . S
C1457 C1451 1.491 1_545 S
C1457 C1456 1.400 . S
C1457 C1458 1.398 . S
C1458 H1446 0.950 . S
C1458 C1457 1.398 . S
C1458 C1459 1.391 . S
C1459 H1447 0.950 . S
C1459 C1455 1.393 . S
C1459 C1458 1.391 . S
H1460 C1468 0.950 . S
H1461 C1473 0.950 . S
H1462 C1470 0.950 . S
H1463 C1472 0.950 . S
H1464 C1474 0.950 . S
H1465 C1476 0.950 . S
H1466 C1478 0.950 . S
H1467 C1479 0.950 . S
C1468 H1460 0.950 . S
C1468 C1469 1.386 . S
C1468 C1470 1.391 . S
C1469 C1468 1.386 . S
C1469 C1473 1.393 . S
C1470 H1462 0.950 . S
C1470 C1468 1.391 . S
C1470 C1471 1.400 . S
C1471 C1470 1.400 . S
C1471 C1472 1.398 . S
C1471 C1477 1.491 . S
C1472 H1463 0.950 . S
C1472 C1471 1.398 . S
C1472 C1473 1.391 . S
C1473 H1461 0.950 . S
C1473 C1469 1.393 . S
C1473 C1472 1.391 . S
C1474 H1464 0.950 . S
C1474 C1475 1.386 . S
C1474 C1476 1.391 . S
C1475 C1474 1.386 . S
C1475 C1479 1.393 . S
C1476 H1465 0.950 . S
C1476 C1474 1.391 . S
C1476 C1477 1.400 . S
C1477 C1471 1.491 . S
C1477 C1476 1.400 . S
C1477 C1478 1.398 . S
C1478 H1466 0.950 . S
C1478 C1477 1.398 . S
C1478 C1479 1.391 . S
C1479 H1467 0.950 . S
C1479 C1475 1.393 . S
C1479 C1478 1.391 . S
H1480 C1488 0.950 . S
H1481 C1493 0.950 . S
H1482 C1490 0.950 . S
H1483 C1492 0.950 1_545 S
H1484 C1494 0.950 . S
H1485 C1496 0.950 . S
H1486 C1498 0.950 . S
H1487 C1499 0.950 . S
C1488 H1480 0.950 . S
C1488 C1489 1.386 . S
C1488 C1490 1.391 . S
C1489 C1488 1.386 . S
C1489 C1493 1.393 . S
C1490 H1482 0.950 . S
C1490 C1488 1.391 . S
C1490 C1491 1.400 . S
C1491 C1490 1.400 . S
C1491 C1492 1.398 . S
C1491 C1497 1.491 1_565 S
C1492 H1483 0.950 1_565 S
C1492 C1491 1.398 . S
C1492 C1493 1.391 . S
C1493 H1481 0.950 . S
C1493 C1489 1.393 . S
C1493 C1492 1.391 . S
C1494 H1484 0.950 . S
C1494 C1495 1.386 . S
C1494 C1496 1.391 . S
C1495 C1494 1.386 . S
C1495 C1499 1.393 1_554 S
C1496 H1485 0.950 . S
C1496 C1494 1.391 . S
C1496 C1497 1.400 . S
C1497 C1491 1.491 1_545 S
C1497 C1496 1.400 . S
C1497 C1498 1.398 1_554 S
C1498 H1486 0.950 . S
C1498 C1497 1.398 1_556 S
C1498 C1499 1.391 . S
C1499 H1487 0.950 . S
C1499 C1495 1.393 1_556 S
C1499 C1498 1.391 . S
H1500 C1508 0.950 . S
H1501 C1513 0.950 . S
H1502 C1510 0.950 . S
H1503 C1512 0.950 . S
H1504 C1514 0.950 . S
H1505 C1516 0.950 . S
H1506 C1518 0.950 . S
H1507 C1519 0.950 . S
C1508 H1500 0.950 . S
C1508 C1509 1.386 . S
C1508 C1510 1.391 . S
C1509 C1508 1.386 . S
C1509 C1513 1.393 . S
C1510 H1502 0.950 . S
C1510 C1508 1.391 . S
C1510 C1511 1.400 . S
C1511 C1510 1.400 . S
C1511 C1512 1.398 . S
C1511 C1517 1.491 . S
C1512 H1503 0.950 . S
C1512 C1511 1.398 . S
C1512 C1513 1.391 . S
C1513 H1501 0.950 . S
C1513 C1509 1.393 . S
C1513 C1512 1.391 . S
C1514 H1504 0.950 . S
C1514 C1515 1.386 . S
C1514 C1516 1.391 . S
C1515 C1514 1.386 . S
C1515 C1519 1.393 . S
C1516 H1505 0.950 . S
C1516 C1514 1.391 . S
C1516 C1517 1.400 . S
C1517 C1511 1.491 . S
C1517 C1516 1.400 . S
C1517 C1518 1.398 . S
C1518 H1506 0.950 . S
C1518 C1517 1.398 . S
C1518 C1519 1.391 . S
C1519 H1507 0.950 . S
C1519 C1515 1.393 . S
C1519 C1518 1.391 . S
H1520 C1528 0.950 . S
H1521 C1533 0.950 . S
H1522 C1530 0.950 . S
H1523 C1532 0.950 . S
H1524 C1534 0.950 . S
H1525 C1536 0.950 . S
H1526 C1538 0.950 . S
H1527 C1539 0.950 . S
C1528 H1520 0.950 . S
C1528 C1529 1.386 . S
C1528 C1530 1.391 . S
C1529 C1528 1.386 . S
C1529 C1533 1.393 . S
C1530 H1522 0.950 . S
C1530 C1528 1.391 . S
C1530 C1531 1.400 . S
C1531 C1530 1.400 . S
C1531 C1532 1.398 . S
C1531 C1537 1.491 1_565 S
C1532 H1523 0.950 . S
C1532 C1531 1.398 . S
C1532 C1533 1.391 . S
C1533 H1521 0.950 . S
C1533 C1529 1.393 . S
C1533 C1532 1.391 . S
C1534 H1524 0.950 . S
C1534 C1535 1.386 . S
C1534 C1536 1.391 . S
C1535 C1534 1.386 . S
C1535 C1539 1.393 . S
C1536 H1525 0.950 . S
C1536 C1534 1.391 . S
C1536 C1537 1.400 . S
C1537 C1531 1.491 1_545 S
C1537 C1536 1.400 . S
C1537 C1538 1.398 . S
C1538 H1526 0.950 . S
C1538 C1537 1.398 . S
C1538 C1539 1.391 . S
C1539 H1527 0.950 . S
C1539 C1535 1.393 . S
C1539 C1538 1.391 . S
H1540 C1548 0.950 . S
H1541 C1553 0.950 . S
H1542 C1550 0.950 . S
H1543 C1552 0.950 . S
H1544 C1554 0.950 . S
H1545 C1556 0.950 . S
H1546 C1558 0.950 . S
H1547 C1559 0.950 . S
C1548 H1540 0.950 . S
C1548 C1549 1.386 . S
C1548 C1550 1.391 . S
C1549 C1548 1.386 . S
C1549 C1553 1.393 . S
C1550 H1542 0.950 . S
C1550 C1548 1.391 . S
C1550 C1551 1.400 . S
C1551 C1550 1.400 . S
C1551 C1552 1.398 . S
C1551 C1557 1.491 . S
C1552 H1543 0.950 . S
C1552 C1551 1.398 . S
C1552 C1553 1.391 . S
C1553 H1541 0.950 . S
C1553 C1549 1.393 . S
C1553 C1552 1.391 . S
C1554 H1544 0.950 . S
C1554 C1555 1.386 . S
C1554 C1556 1.391 . S
C1555 C1554 1.386 . S
C1555 C1559 1.393 . S
C1556 H1545 0.950 . S
C1556 C1554 1.391 . S
C1556 C1557 1.400 . S
C1557 C1551 1.491 . S
C1557 C1556 1.400 . S
C1557 C1558 1.398 . S
C1558 H1546 0.950 . S
C1558 C1557 1.398 . S
C1558 C1559 1.391 . S
C1559 H1547 0.950 . S
C1559 C1555 1.393 . S
C1559 C1558 1.391 . S
H1560 C1568 0.950 . S
H1561 C1573 0.950 . S
H1562 C1570 0.950 . S
H1563 C1572 0.950 . S
H1564 C1574 0.950 . S
H1565 C1576 0.950 . S
H1566 C1578 0.950 . S
H1567 C1579 0.950 . S
C1568 H1560 0.950 . S
C1568 C1569 1.386 . S
C1568 C1570 1.391 . S
C1569 C1568 1.386 . S
C1569 C1573 1.393 . S
C1570 H1562 0.950 . S
C1570 C1568 1.391 . S
C1570 C1571 1.400 . S
C1571 C1570 1.400 . S
C1571 C1572 1.398 . S
C1571 C1577 1.491 1_545 S
C1572 H1563 0.950 . S
C1572 C1571 1.398 . S
C1572 C1573 1.391 . S
C1573 H1561 0.950 . S
C1573 C1569 1.393 . S
C1573 C1572 1.391 . S
C1574 H1564 0.950 . S
C1574 C1575 1.386 . S
C1574 C1576 1.391 . S
C1575 C1574 1.386 . S
C1575 C1579 1.393 1_556 S
C1576 H1565 0.950 . S
C1576 C1574 1.391 . S
C1576 C1577 1.400 . S
C1577 C1571 1.491 1_565 S
C1577 C1576 1.400 . S
C1577 C1578 1.398 . S
C1578 H1566 0.950 . S
C1578 C1577 1.398 . S
C1578 C1579 1.391 1_556 S
C1579 H1567 0.950 . S
C1579 C1575 1.393 1_554 S
C1579 C1578 1.391 1_554 S
H1580 C1588 0.950 . S
H1581 C1593 0.950 . S
H1582 C1590 0.950 . S
H1583 C1592 0.950 . S
H1584 C1594 0.950 . S
H1585 C1596 0.950 . S
H1586 C1598 0.950 . S
H1587 C1599 0.950 . S
C1588 H1580 0.950 . S
C1588 C1589 1.386 . S
C1588 C1590 1.391 . S
C1589 C1588 1.386 . S
C1589 C1593 1.393 . S
C1590 H1582 0.950 . S
C1590 C1588 1.391 . S
C1590 C1591 1.400 . S
C1591 C1590 1.400 . S
C1591 C1592 1.398 . S
C1591 C1597 1.491 . S
C1592 H1583 0.950 . S
C1592 C1591 1.398 . S
C1592 C1593 1.391 . S
C1593 H1581 0.950 . S
C1593 C1589 1.393 . S
C1593 C1592 1.391 . S
C1594 H1584 0.950 . S
C1594 C1595 1.386 . S
C1594 C1596 1.391 . S
C1595 C1594 1.386 . S
C1595 C1599 1.393 . S
C1596 H1585 0.950 . S
C1596 C1594 1.391 . S
C1596 C1597 1.400 . S
C1597 C1591 1.491 . S
C1597 C1596 1.400 . S
C1597 C1598 1.398 . S
C1598 H1586 0.950 . S
C1598 C1597 1.398 . S
C1598 C1599 1.391 . S
C1599 H1587 0.950 . S
C1599 C1595 1.393 . S
C1599 C1598 1.391 . S
C649 C6 1.816 . S
C655 C15 1.816 . S
C669 C55 1.643 . S
C675 C46 1.643 . S
C689 C95 1.871 . S
C695 C86 1.871 1_554 S
C709 C126 1.562 . S
C715 C135 1.562 . S
C729 C166 1.637 . S
C735 C175 1.637 . S
C749 C206 1.536 . S
C755 C215 1.536 . S
C769 C255 1.588 . S
C775 C246 1.588 . S
C789 C295 1.816 1_554 S
C795 C286 1.816 . S
C809 C335 1.934 . S
C815 C326 1.934 . S
C829 C375 1.681 . S
C835 C366 1.681 . S
C849 C406 1.618 1_556 S
C855 C415 1.618 . S
C869 C455 1.610 . S
C875 C446 1.610 . S
C889 C495 1.607 . S
C895 C486 1.607 . S
C909 C526 1.603 . S
C915 C535 1.603 . S
C929 C566 1.557 . S
C935 C575 1.557 . S
C949 C606 1.750 1_556 S
C955 C615 1.750 . S
C969 C9 1.495 . S
C975 C459 1.593 . S
C989 C50 1.894 . S
C995 C619 1.914 . S
C1009 C90 1.696 . S
C1015 C378 1.692 . S
C1029 C129 1.777 . S
C1035 C539 1.880 . S
C1049 C169 1.601 . S
C1055 C538 1.613 . S
C1069 C458 1.832 . S
C1075 C210 1.910 . S
C1089 C250 1.594 . S
C1095 C618 1.547 . S
C1109 C290 1.786 . S
C1115 C379 1.755 . S
C1129 C130 1.580 . S
C1135 C338 1.498 . S
C1149 C49 1.618 . S
C1155 C418 1.614 . S
C1169 C498 1.622 . S
C1175 C209 1.573 . S
C1189 C289 1.536 . S
C1195 C579 1.639 . S
C1209 C339 1.765 . S
C1215 C170 1.758 . S
C1229 C249 1.806 . S
C1235 C419 1.851 . S
C1249 C89 1.770 . S
C1255 C578 1.701 . S
C1269 C10 1.858 . S
C1275 C499 1.839 . S
C1289 C18 1.401 . S
C1295 C178 1.398 . S
C1309 C59 2.037 . S
C1315 C219 2.048 . S
C1329 C99 1.855 . S
C1335 C259 1.845 . S
C1349 C138 1.711 . S
C1355 C299 1.704 . S
C1369 C489 1.321 . S
C1375 C329 1.332 . S
C1389 C530 1.804 . S
C1395 C370 1.790 . S
C1409 C409 2.057 . S
C1415 C570 2.056 . S
C1429 C610 1.838 . S
C1435 C449 1.845 . S
C1449 C58 1.433 . S
C1455 C298 1.440 . S
C1469 C179 1.997 . S
C1475 C98 2.006 . S
C1489 C218 1.880 . S
C1495 C139 1.879 1_554 S
C1509 C19 1.678 . S
C1515 C258 1.685 . S
C1529 C609 1.473 . S
C1535 C369 1.466 . S
C1549 C490 2.026 . S
C1555 C410 2.054 . S
C1569 C529 1.839 . S
C1575 C450 1.839 1_556 S
C1589 C569 1.583 . S
C1595 C330 1.574 . S
