# Generated by pormake.
# Topology uot, (4)-cn, num edge types: 1
# Building blocks:
#     Node 0, Type 0, BuildingBlock: NAHDIM_clean_sbu_0, # of connection points: 4
#     Node 1, Type 0, BuildingBlock: NAHDIM_clean_sbu_0, # of connection points: 4
#     Node 2, Type 0, BuildingBlock: NAHDIM_clean_sbu_0, # of connection points: 4
#     Node 3, Type 0, BuildingBlock: NAHDIM_clean_sbu_0, # of connection points: 4
#     Node 4, Type 0, BuildingBlock: NAHDIM_clean_sbu_0, # of connection points: 4
#     Node 5, Type 0, BuildingBlock: NAHDIM_clean_sbu_0, # of connection points: 4
#     Node 6, Type 0, BuildingBlock: NAHDIM_clean_sbu_0, # of connection points: 4
#     Node 7, Type 0, BuildingBlock: NAHDIM_clean_sbu_0, # of connection points: 4
#     Node 8, Type 0, BuildingBlock: NAHDIM_clean_sbu_0, # of connection points: 4
#     Node 9, Type 0, BuildingBlock: NAHDIM_clean_sbu_0, # of connection points: 4
#     Node 10, Type 0, BuildingBlock: NAHDIM_clean_sbu_0, # of connection points: 4
#     Node 11, Type 0, BuildingBlock: NAHDIM_clean_sbu_0, # of connection points: 4
#     Node 12, Type 0, BuildingBlock: NAHDIM_clean_sbu_0, # of connection points: 4
#     Node 13, Type 0, BuildingBlock: NAHDIM_clean_sbu_0, # of connection points: 4
#     Node 14, Type 0, BuildingBlock: NAHDIM_clean_sbu_0, # of connection points: 4
#     Node 15, Type 0, BuildingBlock: NAHDIM_clean_sbu_0, # of connection points: 4
#     Edge 16, Type (0, 0), BuildingBlock: MIFKUJ_clean_linker_0, # of connection points: 2
#     Edge 17, Type (0, 0), BuildingBlock: MIFKUJ_clean_linker_0, # of connection points: 2
#     Edge 18, Type (0, 0), BuildingBlock: MIFKUJ_clean_linker_0, # of connection points: 2
#     Edge 19, Type (0, 0), BuildingBlock: MIFKUJ_clean_linker_0, # of connection points: 2
#     Edge 20, Type (0, 0), BuildingBlock: MIFKUJ_clean_linker_0, # of connection points: 2
#     Edge 21, Type (0, 0), BuildingBlock: MIFKUJ_clean_linker_0, # of connection points: 2
#     Edge 22, Type (0, 0), BuildingBlock: MIFKUJ_clean_linker_0, # of connection points: 2
#     Edge 23, Type (0, 0), BuildingBlock: MIFKUJ_clean_linker_0, # of connection points: 2
#     Edge 24, Type (0, 0), BuildingBlock: MIFKUJ_clean_linker_0, # of connection points: 2
#     Edge 25, Type (0, 0), BuildingBlock: MIFKUJ_clean_linker_0, # of connection points: 2
#     Edge 26, Type (0, 0), BuildingBlock: MIFKUJ_clean_linker_0, # of connection points: 2
#     Edge 27, Type (0, 0), BuildingBlock: MIFKUJ_clean_linker_0, # of connection points: 2
#     Edge 28, Type (0, 0), BuildingBlock: MIFKUJ_clean_linker_0, # of connection points: 2
#     Edge 29, Type (0, 0), BuildingBlock: MIFKUJ_clean_linker_0, # of connection points: 2
#     Edge 30, Type (0, 0), BuildingBlock: MIFKUJ_clean_linker_0, # of connection points: 2
#     Edge 31, Type (0, 0), BuildingBlock: MIFKUJ_clean_linker_0, # of connection points: 2
#     Edge 32, Type (0, 0), BuildingBlock: MIFKUJ_clean_linker_0, # of connection points: 2
#     Edge 33, Type (0, 0), BuildingBlock: MIFKUJ_clean_linker_0, # of connection points: 2
#     Edge 34, Type (0, 0), BuildingBlock: MIFKUJ_clean_linker_0, # of connection points: 2
#     Edge 35, Type (0, 0), BuildingBlock: MIFKUJ_clean_linker_0, # of connection points: 2
#     Edge 36, Type (0, 0), BuildingBlock: MIFKUJ_clean_linker_0, # of connection points: 2
#     Edge 37, Type (0, 0), BuildingBlock: MIFKUJ_clean_linker_0, # of connection points: 2
#     Edge 38, Type (0, 0), BuildingBlock: MIFKUJ_clean_linker_0, # of connection points: 2
#     Edge 39, Type (0, 0), BuildingBlock: MIFKUJ_clean_linker_0, # of connection points: 2
#     Edge 40, Type (0, 0), BuildingBlock: MIFKUJ_clean_linker_0, # of connection points: 2
#     Edge 41, Type (0, 0), BuildingBlock: MIFKUJ_clean_linker_0, # of connection points: 2
#     Edge 42, Type (0, 0), BuildingBlock: MIFKUJ_clean_linker_0, # of connection points: 2
#     Edge 43, Type (0, 0), BuildingBlock: MIFKUJ_clean_linker_0, # of connection points: 2
#     Edge 44, Type (0, 0), BuildingBlock: MIFKUJ_clean_linker_0, # of connection points: 2
#     Edge 45, Type (0, 0), BuildingBlock: MIFKUJ_clean_linker_0, # of connection points: 2
#     Edge 46, Type (0, 0), BuildingBlock: MIFKUJ_clean_linker_0, # of connection points: 2
#     Edge 47, Type (0, 0), BuildingBlock: MIFKUJ_clean_linker_0, # of connection points: 2
# Relax obj value: 0.173
# Max RMSD: 0.206
# Mean RMSD: 0.206
data_MOF--net-uot--node1-NAHDIM_clean_sbu_0--edge1-MIFKUJ_clean_linker_0
_symmetry_space_group_name_H-M    P1
_symmetry_Int_Tables_number       1
_symmetry_cell_setting            triclinic
loop_
_symmetry_equiv_pos_as_xyz
'x, y, z'
_cell_length_a     56.749512
_cell_length_b     56.756277
_cell_length_c     50.908217
_cell_angle_alpha  90.014283
_cell_angle_beta   89.996069
_cell_angle_gamma 90.013645
loop_
_atom_site_label
_atom_site_type_symbol
_atom_site_fract_x
_atom_site_fract_y
_atom_site_fract_z
_atom_type_partial_charge
C0 C 0.25811 0.43409 0.28366 0.0
O1 O 0.23968 0.433 0.26808 0.0
O2 O 0.20098 0.43052 0.31259 0.0
Zn3 Zn 0.22449 0.45698 0.31648 0.0
O4 O 0.22553 0.46795 0.35408 0.0
C5 C 0.19905 0.48139 0.27555 0.0
O6 O 0.19099 0.46015 0.27059 0.0
O7 O 0.25616 0.44454 0.30563 0.0
C8 C 0.21004 0.48234 0.36237 0.0
O9 O 0.19378 0.48992 0.34606 0.0
C10 C 0.18527 0.42492 0.32925 0.0
O11 O 0.18398 0.43638 0.3516 0.0
O12 O 0.21429 0.48414 0.2936 0.0
C13 C 0.45177 0.71202 0.69247 0.0
O14 O 0.46849 0.7121 0.67462 0.0
O15 O 0.43871 0.78846 0.69761 0.0
Zn16 Zn 0.46103 0.76159 0.69162 0.0
O17 O 0.46728 0.7599 0.65282 0.0
C18 C 0.48937 0.77717 0.73435 0.0
O19 O 0.46854 0.77827 0.74556 0.0
O20 O 0.44614 0.73128 0.70354 0.0
C21 C 0.48349 0.77193 0.64204 0.0
O22 O 0.49687 0.78552 0.65668 0.0
C23 C 0.41643 0.78688 0.69587 0.0
O24 O 0.4068 0.76648 0.69005 0.0
O25 O 0.49091 0.76907 0.71115 0.0
C26 C 0.74514 0.56616 0.3161 0.0
O27 O 0.76103 0.57138 0.33397 0.0
O28 O 0.80523 0.55774 0.30059 0.0
Zn29 Zn 0.78025 0.5336 0.30853 0.0
O30 O 0.78187 0.5257 0.34693 0.0
C31 C 0.79643 0.50656 0.26467 0.0
O32 O 0.80006 0.52774 0.25505 0.0
O33 O 0.74889 0.54867 0.30108 0.0
C34 C 0.76994 0.5092 0.35728 0.0
O35 O 0.75615 0.49628 0.34236 0.0
C36 C 0.82412 0.55934 0.31387 0.0
O37 O 0.82768 0.54473 0.33347 0.0
O38 O 0.78674 0.50455 0.28707 0.0
C39 C 0.56564 0.26664 0.72334 0.0
O40 O 0.57181 0.24678 0.73467 0.0
O41 O 0.55844 0.20889 0.69912 0.0
Zn42 Zn 0.53627 0.23586 0.69208 0.0
O43 O 0.5305 0.23856 0.65324 0.0
C44 C 0.50558 0.22271 0.73433 0.0
O45 O 0.52536 0.22365 0.74769 0.0
O46 O 0.55031 0.26625 0.70515 0.0
C47 C 0.51711 0.22396 0.64162 0.0
O48 O 0.50702 0.20714 0.65534 0.0
C49 C 0.57283 0.20065 0.68234 0.0
O50 O 0.57398 0.21021 0.65888 0.0
O51 O 0.50574 0.22833 0.71017 0.0
C52 C 0.26593 0.54571 0.68863 0.0
O53 O 0.26371 0.52992 0.66992 0.0
O54 O 0.19184 0.56654 0.69805 0.0
Zn55 Zn 0.21548 0.5409 0.69069 0.0
O56 O 0.2154 0.53308 0.65214 0.0
C57 C 0.19507 0.51364 0.73251 0.0
O58 O 0.19118 0.53464 0.74245 0.0
O59 O 0.24769 0.55248 0.70099 0.0
C60 C 0.19646 0.53095 0.63904 0.0
O61 O 0.17611 0.53389 0.65089 0.0
C62 C 0.18704 0.58313 0.68217 0.0
O63 O 0.19805 0.58424 0.6595 0.0
O64 O 0.20609 0.51191 0.71085 0.0
C65 C 0.57117 0.74555 0.31844 0.0
O66 O 0.57697 0.76153 0.33597 0.0
O67 O 0.55957 0.80575 0.30495 0.0
Zn68 Zn 0.53686 0.77957 0.31295 0.0
O69 O 0.52969 0.78051 0.35154 0.0
C70 C 0.50854 0.79434 0.26959 0.0
O71 O 0.52941 0.7986 0.25946 0.0
O72 O 0.55285 0.74889 0.30459 0.0
C73 C 0.51222 0.76977 0.36153 0.0
O74 O 0.49799 0.75781 0.34615 0.0
C75 C 0.556 0.82639 0.31372 0.0
O76 O 0.5373 0.83042 0.32826 0.0
O77 O 0.50723 0.78494 0.29219 0.0
C78 C 0.743 0.43782 0.72369 0.0
O79 O 0.76243 0.43175 0.73599 0.0
O80 O 0.79658 0.42868 0.69277 0.0
Zn81 Zn 0.77638 0.45756 0.68791 0.0
O82 O 0.77273 0.46401 0.64921 0.0
C83 C 0.81352 0.4848 0.71148 0.0
O84 O 0.82572 0.46595 0.70529 0.0
O85 O 0.7445 0.45021 0.70297 0.0
C86 C 0.78399 0.4802 0.6374 0.0
O87 O 0.79836 0.49377 0.65082 0.0
C88 C 0.81031 0.42043 0.67531 0.0
O89 O 0.81146 0.43074 0.65225 0.0
O90 O 0.79159 0.48536 0.70629 0.0
C91 C 0.43313 0.25743 0.28096 0.0
O92 O 0.43169 0.23937 0.2649 0.0
O93 O 0.43308 0.19833 0.30479 0.0
Zn94 Zn 0.45683 0.22347 0.31349 0.0
O95 O 0.46223 0.22342 0.35247 0.0
C96 C 0.48732 0.20548 0.27308 0.0
O97 O 0.46708 0.20081 0.26169 0.0
O98 O 0.44386 0.25498 0.3027 0.0
C99 C 0.47747 0.23686 0.36293 0.0
O100 O 0.48973 0.25116 0.34792 0.0
C101 C 0.43373 0.17855 0.31644 0.0
O102 O 0.44991 0.17488 0.33445 0.0
O103 O 0.48736 0.21589 0.29519 0.0
C104 C 0.7514 0.93837 0.81838 0.0
O105 O 0.73815 0.93176 0.83823 0.0
O106 O 0.68763 0.93952 0.80388 0.0
Zn107 Zn 0.71098 0.96513 0.81238 0.0
O108 O 0.71043 0.97145 0.85126 0.0
C109 C 0.70372 -0.00068 0.76969 0.0
O110 O 0.71437 0.98397 0.75446 0.0
O111 O 0.74348 0.95383 0.80262 0.0
C112 C 0.72385 0.98696 0.86124 0.0
O113 O 0.73788 0.99909 0.84579 0.0
C114 C 0.6693 0.93667 0.81787 0.0
O115 O 0.66564 0.95079 0.83791 0.0
O116 O 0.70128 0.99485 0.79399 0.0
C117 C 0.95663 0.21761 0.20027 0.0
O118 O 0.97253 0.21681 0.18153 0.0
O119 O 0.93895 0.29315 0.20034 0.0
Zn120 Zn 0.96312 0.26776 0.19477 0.0
O121 O 0.96832 0.26413 0.1558 0.0
C122 C 0.99226 0.2861 0.23593 0.0
O123 O 0.9719 0.28729 0.24817 0.0
O124 O 0.9505 0.23748 0.20951 0.0
C125 C 0.98793 0.2684 0.14473 0.0
O126 O 0.00593 0.27518 0.15909 0.0
C127 C 0.94072 0.31248 0.18791 0.0
O128 O 0.95836 0.3154 0.1715 0.0
O129 O 0.99299 0.27754 0.21289 0.0
C130 C 0.24863 0.07114 0.80079 0.0
O131 O 0.26459 0.07838 0.81767 0.0
O132 O 0.30775 0.05979 0.79509 0.0
Zn133 Zn 0.28183 0.03583 0.80068 0.0
O134 O 0.27891 0.02849 0.83924 0.0
C135 C 0.3102 0.00149 0.77503 0.0
O136 O 0.32663 0.01604 0.78324 0.0
O137 O 0.2516 0.05137 0.78953 0.0
C138 C 0.28729 0.01024 0.85028 0.0
O139 O 0.29857 0.99456 0.83608 0.0
C140 C 0.32228 0.06584 0.81287 0.0
O141 O 0.32105 0.05589 0.83612 0.0
O142 O 0.28875 0.00624 0.77992 0.0
C143 C 0.04983 0.7737 0.18342 0.0
O144 O 0.03545 0.77229 0.16327 0.0
O145 O 0.06535 0.69848 0.195 0.0
Zn146 Zn 0.04155 0.72347 0.18627 0.0
O147 O 0.03562 0.72213 0.14728 0.0
C148 C 0.0125 0.70798 0.22901 0.0
O149 O 0.033 0.70638 0.24088 0.0
O150 O 0.05447 0.75521 0.19653 0.0
C151 C 0.01532 0.72568 0.13751 0.0
O152 O 0.99765 0.73076 0.1532 0.0
C153 C 0.06051 0.67727 0.18908 0.0
O154 O 0.0404 0.67266 0.17734 0.0
O155 O 0.0117 0.71587 0.20568 0.0
C156 C 0.77736 0.04836 0.19566 0.0
O157 O 0.77716 0.03334 0.17602 0.0
O158 O 0.70372 0.07178 0.19559 0.0
Zn159 Zn 0.72671 0.04518 0.1906 0.0
O160 O 0.73004 0.03844 0.15187 0.0
C161 C 0.70101 0.01918 0.22957 0.0
O162 O 0.69692 0.04047 0.23862 0.0
O163 O 0.75792 0.05522 0.20541 0.0
C164 C 0.71924 0.02144 0.14094 0.0
O165 O 0.70568 0.00776 0.15524 0.0
C166 C 0.68454 0.07264 0.18275 0.0
O167 O 0.68008 0.05627 0.1652 0.0
O168 O 0.71415 0.01669 0.20953 0.0
C169 C 0.06913 0.24073 0.81182 0.0
O170 O 0.07686 0.25724 0.82775 0.0
O171 O 0.05406 0.29947 0.80501 0.0
Zn172 Zn 0.03247 0.27252 0.81378 0.0
O173 O 0.02776 0.27153 0.85291 0.0
C174 C 0.00115 0.28279 0.77114 0.0
O175 O 0.02098 0.2829 0.75781 0.0
O176 O 0.04854 0.24272 0.8023 0.0
C177 C 0.00869 0.26444 0.86332 0.0
O178 O 0.9913 0.25752 0.84813 0.0
C179 C 0.05257 0.31929 0.81649 0.0
O180 O 0.03628 0.32244 0.83449 0.0
O181 O 0.00164 0.27784 0.79546 0.0
C182 C 0.22301 0.95161 0.17833 0.0
O183 O 0.22411 0.96426 0.15677 0.0
O184 O 0.29717 0.93444 0.18838 0.0
Zn185 Zn 0.27361 0.95979 0.18025 0.0
O186 O 0.27447 0.96533 0.14124 0.0
C187 C 0.29215 0.98727 0.22243 0.0
O188 O 0.29324 0.96636 0.23344 0.0
O189 O 0.24164 0.94826 0.19167 0.0
C190 C 0.26973 0.98506 0.13072 0.0
O191 O 0.26345 0.00284 0.1457 0.0
C192 C 0.3176 0.93531 0.17821 0.0
O193 O 0.32282 0.95277 0.1623 0.0
O194 O 0.2834 0.98914 0.19955 0.0
C195 C 0.93002 0.77017 0.81554 0.0
O196 O 0.92524 0.75658 0.83574 0.0
O197 O 0.94006 0.70591 0.79691 0.0
Zn198 Zn 0.96126 0.73262 0.80776 0.0
O199 O 0.96641 0.73064 0.84688 0.0
C200 C 0.99443 0.72689 0.76479 0.0
O201 O 0.97575 0.72967 0.74986 0.0
O202 O 0.9457 0.7636 0.79929 0.0
C203 C 0.98435 0.72095 0.85718 0.0
O204 O 0.00054 0.71165 0.84193 0.0
C205 C 0.94861 0.68529 0.79487 0.0
O206 O 0.97109 0.682 0.79988 0.0
O207 O 0.99233 0.72876 0.78954 0.0
H208 H 0.29874 0.43118 0.31243 0.0
H209 H 0.33225 0.40513 0.30466 0.0
H210 H 0.30014 0.38075 0.23281 0.0
H211 H 0.26641 0.40659 0.24055 0.0
H212 H 0.31215 0.34485 0.26393 0.0
H213 H 0.35036 0.41356 0.23114 0.0
H214 H 0.3639 0.45483 0.23136 0.0
H215 H 0.40554 0.44133 0.30015 0.0
H216 H 0.39198 0.40004 0.30059 0.0
H217 H 0.40605 0.26736 0.23794 0.0
H218 H 0.3802 0.30132 0.23159 0.0
H219 H 0.4041 0.33081 0.305 0.0
H220 H 0.43023 0.29708 0.31138 0.0
H221 H 0.39717 0.36505 0.26757 0.0
H222 H 0.35493 0.29866 0.30366 0.0
H223 H 0.34105 0.25749 0.30468 0.0
H224 H 0.30648 0.26724 0.23044 0.0
H225 H 0.32046 0.30841 0.22882 0.0
C226 C 0.29896 0.42058 0.29474 0.0
C227 C 0.2798 0.42082 0.27722 0.0
C228 C 0.31822 0.40579 0.29024 0.0
C229 C 0.31874 0.39106 0.26809 0.0
C230 C 0.30009 0.39198 0.25002 0.0
C231 C 0.28084 0.40679 0.25448 0.0
C232 C 0.33752 0.37308 0.26524 0.0
C233 C 0.33074 0.34933 0.26409 0.0
C234 C 0.36177 0.3789 0.26618 0.0
C235 C 0.36999 0.40373 0.26601 0.0
C236 C 0.36225 0.41943 0.24645 0.0
C237 C 0.36996 0.44282 0.24643 0.0
C238 C 0.38553 0.45071 0.26579 0.0
C239 C 0.39346 0.4352 0.28518 0.0
C240 C 0.38579 0.41179 0.2853 0.0
C241 C 0.40611 0.28124 0.25254 0.0
C242 C 0.41995 0.27935 0.27535 0.0
C243 C 0.3913 0.30062 0.24889 0.0
C244 C 0.38998 0.31838 0.26803 0.0
C245 C 0.40483 0.31726 0.29002 0.0
C246 C 0.41967 0.2979 0.29368 0.0
C247 C 0.3717 0.33695 0.26638 0.0
C248 C 0.37856 0.36071 0.26689 0.0
C249 C 0.34747 0.33121 0.26497 0.0
C250 C 0.33897 0.30651 0.26597 0.0
C251 C 0.34453 0.29196 0.28745 0.0
C252 C 0.33662 0.26864 0.28816 0.0
C253 C 0.32296 0.25973 0.26759 0.0
C254 C 0.31711 0.27415 0.24632 0.0
C255 C 0.32502 0.29748 0.2455 0.0
H256 H 0.31685 0.24167 0.26817 0.0
H257 H 0.39149 0.46883 0.26573 0.0
H258 H 0.45395 0.67034 0.66572 0.0
H259 H 0.42655 0.63724 0.66873 0.0
H260 H 0.38966 0.67207 0.73179 0.0
H261 H 0.41696 0.70534 0.72893 0.0
H262 H 0.39377 0.62271 0.73891 0.0
H263 H 0.36907 0.67868 0.67329 0.0
H264 H 0.37417 0.70363 0.63406 0.0
H265 H 0.38827 0.64225 0.5873 0.0
H266 H 0.38362 0.61695 0.6264 0.0
H267 H 0.27708 0.57758 0.72699 0.0
H268 H 0.31333 0.60053 0.73101 0.0
H269 H 0.34269 0.56391 0.66436 0.0
H270 H 0.30646 0.5409 0.66012 0.0
H271 H 0.34509 0.61134 0.6589 0.0
H272 H 0.36532 0.55481 0.72433 0.0
H273 H 0.3596 0.53034 0.76381 0.0
H274 H 0.3531 0.59261 0.81118 0.0
H275 H 0.35843 0.61749 0.7719 0.0
C276 C 0.44028 0.67081 0.68056 0.0
C277 C 0.43745 0.6906 0.69689 0.0
C278 C 0.42463 0.65188 0.68222 0.0
C279 C 0.40596 0.65237 0.70027 0.0
C280 C 0.40397 0.67139 0.71772 0.0
C281 C 0.41952 0.69042 0.71597 0.0
C282 C 0.38727 0.63421 0.69928 0.0
C283 C 0.38299 0.62026 0.72152 0.0
C284 C 0.37356 0.63081 0.67638 0.0
C285 C 0.37629 0.64596 0.65283 0.0
C286 C 0.37348 0.67052 0.6547 0.0
C287 C 0.37625 0.68472 0.63248 0.0
C288 C 0.38162 0.67454 0.60822 0.0
C289 C 0.38417 0.65012 0.60612 0.0
C290 C 0.38146 0.63584 0.6283 0.0
C291 C 0.29138 0.57414 0.71342 0.0
C292 C 0.28883 0.55752 0.69312 0.0
C293 C 0.31214 0.58719 0.71584 0.0
C294 C 0.33072 0.58386 0.69803 0.0
C295 C 0.32854 0.56673 0.67831 0.0
C296 C 0.30784 0.55357 0.67596 0.0
C297 C 0.35146 0.59972 0.69857 0.0
C298 C 0.35605 0.61343 0.67622 0.0
C299 C 0.36533 0.6029 0.72141 0.0
C300 C 0.36207 0.58802 0.74511 0.0
C301 C 0.36246 0.5633 0.74312 0.0
C302 C 0.35933 0.54935 0.76548 0.0
C303 C 0.35593 0.55991 0.78998 0.0
C304 C 0.35571 0.58445 0.79218 0.0
C305 C 0.35881 0.59849 0.76988 0.0
H306 H 0.35353 0.54908 0.80727 0.0
H307 H 0.38375 0.68556 0.59103 0.0
H308 H 0.56527 0.70891 0.28362 0.0
H309 H 0.59189 0.67535 0.27666 0.0
H310 H 0.63781 0.70173 0.33746 0.0
H311 H 0.61164 0.73507 0.34442 0.0
H312 H 0.66178 0.69033 0.29293 0.0
H313 H 0.6012 0.6559 0.34872 0.0
H314 H 0.56046 0.64419 0.35944 0.0
H315 H 0.55773 0.60121 0.29007 0.0
H316 H 0.59838 0.61293 0.27878 0.0
H317 H 0.73381 0.60472 0.345 0.0
H318 H 0.70126 0.63189 0.33828 0.0
H319 H 0.67638 0.58993 0.27333 0.0
H320 H 0.70925 0.5623 0.27992 0.0
H321 H 0.63989 0.60685 0.30866 0.0
H322 H 0.70328 0.63668 0.25714 0.0
H323 H 0.74442 0.64787 0.24785 0.0
H324 H 0.74198 0.69957 0.30938 0.0
H325 H 0.70093 0.68844 0.31933 0.0
C326 C 0.581 0.70747 0.29554 0.0
C327 C 0.58639 0.72469 0.31451 0.0
C328 C 0.59614 0.68829 0.29158 0.0
C329 C 0.61681 0.68611 0.30654 0.0
C330 C 0.62201 0.70317 0.3256 0.0
C331 C 0.60696 0.7222 0.3296 0.0
C332 C 0.63354 0.66644 0.3024 0.0
C333 C 0.65699 0.67208 0.29635 0.0
C334 C 0.62708 0.64256 0.30592 0.0
C335 C 0.60269 0.63554 0.31273 0.0
C336 C 0.59183 0.64413 0.33563 0.0
C337 C 0.56878 0.63745 0.34184 0.0
C338 C 0.55648 0.62203 0.3254 0.0
C339 C 0.56725 0.6132 0.30275 0.0
C340 C 0.59029 0.61984 0.29645 0.0
C341 C 0.72141 0.60108 0.32934 0.0
C342 C 0.72426 0.58145 0.31282 0.0
C343 C 0.70281 0.61668 0.32552 0.0
C344 C 0.68666 0.61306 0.3051 0.0
C345 C 0.68879 0.59302 0.28913 0.0
C346 C 0.70757 0.57733 0.29289 0.0
C347 C 0.66822 0.63096 0.30031 0.0
C348 C 0.64453 0.62503 0.30458 0.0
C349 C 0.6744 0.65465 0.29516 0.0
C350 C 0.69903 0.66164 0.28906 0.0
C351 C 0.71156 0.65034 0.26881 0.0
C352 C 0.73486 0.65668 0.26341 0.0
C353 C 0.74582 0.6744 0.27804 0.0
C354 C 0.73347 0.68585 0.29806 0.0
C355 C 0.71016 0.67956 0.30356 0.0
H356 H 0.76387 0.67928 0.27384 0.0
H357 H 0.53864 0.61687 0.33024 0.0
H358 H 0.60244 0.2727 0.75733 0.0
H359 H 0.62641 0.30798 0.76324 0.0
H360 H 0.58145 0.34598 0.70963 0.0
H361 H 0.55758 0.3106 0.70324 0.0
H362 H 0.62611 0.34969 0.6957 0.0
H363 H 0.58346 0.3601 0.77553 0.0
H364 H 0.56636 0.34853 0.81814 0.0
H365 H 0.63554 0.33418 0.84829 0.0
H366 H 0.65305 0.34533 0.80574 0.0
H367 H 0.69912 0.44866 0.70498 0.0
H368 H 0.6629 0.42602 0.71125 0.0
H369 H 0.69937 0.37928 0.76427 0.0
H370 H 0.73542 0.4022 0.75874 0.0
H371 H 0.65435 0.38463 0.77932 0.0
H372 H 0.69575 0.36714 0.6984 0.0
H373 H 0.7138 0.37709 0.65574 0.0
H374 H 0.64728 0.40302 0.62782 0.0
H375 H 0.62891 0.39349 0.67048 0.0
C376 C 0.59739 0.28866 0.74712 0.0
C377 C 0.57823 0.28877 0.72962 0.0
C378 C 0.61104 0.30889 0.75067 0.0
C379 C 0.60565 0.32969 0.737 0.0
C380 C 0.58592 0.33013 0.72038 0.0
C381 C 0.5723 0.30988 0.71676 0.0
C382 C 0.62208 0.35001 0.73779 0.0
C383 C 0.63181 0.35773 0.71397 0.0
C384 C 0.63001 0.36007 0.76166 0.0
C385 C 0.61956 0.35342 0.78735 0.0
C386 C 0.59502 0.35431 0.79117 0.0
C387 C 0.58526 0.34786 0.81534 0.0
C388 C 0.59985 0.34059 0.8359 0.0
C389 C 0.62425 0.33981 0.83235 0.0
C390 C 0.63411 0.34623 0.80822 0.0
C391 C 0.6993 0.43386 0.71842 0.0
C392 C 0.72024 0.42697 0.73101 0.0
C393 C 0.6786 0.42092 0.72194 0.0
C394 C 0.6786 0.40064 0.73773 0.0
C395 C 0.69899 0.39481 0.75189 0.0
C396 C 0.71963 0.40789 0.74862 0.0
C397 C 0.65841 0.38404 0.73727 0.0
C398 C 0.64815 0.37693 0.76108 0.0
C399 C 0.65006 0.37431 0.7134 0.0
C400 C 0.66104 0.37987 0.6877 0.0
C401 C 0.68502 0.37511 0.68321 0.0
C402 C 0.6953 0.38065 0.65903 0.0
C403 C 0.68171 0.39075 0.63911 0.0
C404 C 0.65779 0.39524 0.64329 0.0
C405 C 0.64744 0.38977 0.66746 0.0
H406 H 0.6897 0.39503 0.6204 0.0
H407 H 0.59226 0.33559 0.85459 0.0
H408 H 0.78038 0.94086 0.77512 0.0
H409 H 0.81774 0.91978 0.76841 0.0
H410 H 0.81198 0.88989 0.84606 0.0
H411 H 0.77507 0.91076 0.85291 0.0
H412 H 0.85693 0.90404 0.83525 0.0
H413 H 0.79359 0.85965 0.79224 0.0
H414 H 0.76178 0.85494 0.75962 0.0
H415 H 0.81056 0.8697 0.69726 0.0
H416 H 0.8426 0.87477 0.72958 0.0
H417 H 0.90092 0.79144 0.85062 0.0
H418 H 0.8781 0.82732 0.84475 0.0
H419 H 0.90656 0.83564 0.76673 0.0
H420 H 0.92966 0.79938 0.77246 0.0
H421 H 0.85814 0.84047 0.76833 0.0
H422 H 0.92346 0.87394 0.81218 0.0
H423 H 0.95488 0.87716 0.84542 0.0
H424 H 0.90296 0.88271 0.90644 0.0
H425 H 0.8712 0.87917 0.87365 0.0
C426 C 0.78726 0.92997 0.79082 0.0
C427 C 0.7747 0.92729 0.81446 0.0
C428 C 0.80855 0.91795 0.78694 0.0
C429 C 0.81754 0.9032 0.8067 0.0
C430 C 0.80541 0.90124 0.83059 0.0
C431 C 0.7842 0.91308 0.8344 0.0
C432 C 0.83874 0.88845 0.80247 0.0
C433 C 0.85732 0.89021 0.82054 0.0
C434 C 0.83961 0.87098 0.78266 0.0
C435 C 0.82038 0.8679 0.7633 0.0
C436 C 0.79747 0.86207 0.77158 0.0
C437 C 0.77942 0.85931 0.75315 0.0
C438 C 0.78412 0.86211 0.72639 0.0
C439 C 0.80692 0.86761 0.718 0.0
C440 C 0.82503 0.87042 0.73635 0.0
C441 C 0.90251 0.80092 0.83224 0.0
C442 C 0.91708 0.79254 0.81198 0.0
C443 C 0.88957 0.82155 0.82899 0.0
C444 C 0.89089 0.83432 0.80544 0.0
C445 C 0.90546 0.82611 0.78512 0.0
C446 C 0.91863 0.80545 0.78844 0.0
C447 C 0.87574 0.85534 0.80198 0.0
C448 C 0.85829 0.85478 0.78247 0.0
C449 C 0.87589 0.87392 0.82051 0.0
C450 C 0.89492 0.87623 0.8404 0.0
C451 C 0.91873 0.87571 0.8327 0.0
C452 C 0.93661 0.87761 0.85147 0.0
C453 C 0.93092 0.88013 0.87802 0.0
C454 C 0.90734 0.88079 0.88586 0.0
C455 C 0.88938 0.87888 0.86718 0.0
H456 H 0.94479 0.88159 0.89253 0.0
H457 H 0.77013 0.85996 0.71215 0.0
H458 H 0.78447 0.07689 0.23813 0.0
H459 H 0.8192 0.10088 0.24748 0.0
H460 H 0.85496 0.07035 0.1809 0.0
H461 H 0.82045 0.04589 0.17171 0.0
H462 H 0.88567 0.0797 0.22152 0.0
H463 H 0.82466 0.12036 0.17323 0.0
H464 H 0.78419 0.1347 0.1657 0.0
H465 H 0.78704 0.17422 0.23758 0.0
H466 H 0.82744 0.15983 0.24571 0.0
H467 H 0.95828 0.17412 0.17719 0.0
H468 H 0.93189 0.14093 0.18523 0.0
H469 H 0.89908 0.1792 0.24869 0.0
H470 H 0.92507 0.21267 0.2404 0.0
H471 H 0.86744 0.16498 0.21479 0.0
H472 H 0.93145 0.12825 0.25962 0.0
H473 H 0.97211 0.11405 0.26586 0.0
H474 H 0.96451 0.06768 0.19975 0.0
H475 H 0.9239 0.08185 0.19286 0.0
C476 C 0.79988 0.07493 0.22576 0.0
C477 C 0.79957 0.05981 0.20388 0.0
C478 C 0.81972 0.08864 0.23115 0.0
C479 C 0.83945 0.08772 0.21456 0.0
C480 C 0.83987 0.07137 0.19389 0.0
C481 C 0.82009 0.05748 0.18861 0.0
C482 C 0.85832 0.10564 0.21681 0.0
C483 C 0.88179 0.09836 0.21997 0.0
C484 C 0.85314 0.12998 0.21519 0.0
C485 C 0.82894 0.13881 0.21022 0.0
C486 C 0.81658 0.13198 0.18752 0.0
C487 C 0.79368 0.14013 0.18313 0.0
C488 C 0.78303 0.15531 0.20119 0.0
C489 C 0.7953 0.16242 0.22363 0.0
C490 C 0.8182 0.15428 0.22814 0.0
C491 C 0.94579 0.1753 0.19322 0.0
C492 C 0.94356 0.19614 0.20794 0.0
C493 C 0.93079 0.15622 0.1979 0.0
C494 C 0.91352 0.15754 0.21761 0.0
C495 C 0.91223 0.17782 0.23334 0.0
C496 C 0.9271 0.19694 0.22856 0.0
C497 C 0.89499 0.13919 0.21959 0.0
C498 C 0.87146 0.14639 0.21693 0.0
C499 C 0.90024 0.11486 0.22152 0.0
C500 C 0.92466 0.10626 0.22561 0.0
C501 C 0.9385 0.11516 0.24628 0.0
C502 C 0.96154 0.10709 0.24996 0.0
C503 C 0.97091 0.09001 0.23318 0.0
C504 C 0.95724 0.08092 0.21272 0.0
C505 C 0.93419 0.08895 0.20894 0.0
H506 H 0.98874 0.08378 0.23606 0.0
H507 H 0.76529 0.1616 0.19776 0.0
H508 H 0.11513 0.23506 0.82496 0.0
H509 H 0.14135 0.20294 0.81301 0.0
H510 H 0.08498 0.16898 0.77061 0.0
H511 H 0.0583 0.2014 0.78258 0.0
H512 H 0.11106 0.13823 0.80347 0.0
H513 H 0.12591 0.19279 0.73507 0.0
H514 H 0.13332 0.23167 0.71515 0.0
H515 H 0.19818 0.2375 0.7581 0.0
H516 H 0.191 0.19881 0.7786 0.0
H517 H 0.2086 0.05975 0.77302 0.0
H518 H 0.17416 0.08509 0.76515 0.0
H519 H 0.20785 0.14138 0.80799 0.0
H520 H 0.24196 0.11647 0.81586 0.0
H521 H 0.18792 0.15653 0.76167 0.0
H522 H 0.16731 0.10707 0.83711 0.0
H523 H 0.15963 0.06887 0.85857 0.0
H524 H 0.10548 0.05378 0.8021 0.0
H525 H 0.11306 0.09182 0.78012 0.0
C526 C 0.1082 0.22083 0.81308 0.0
C527 C 0.08464 0.22083 0.80464 0.0
C528 C 0.12328 0.20252 0.80615 0.0
C529 C 0.11518 0.18379 0.79061 0.0
C530 C 0.09156 0.1834 0.78247 0.0
C531 C 0.0764 0.20191 0.78929 0.0
C532 C 0.13171 0.16464 0.78362 0.0
C533 C 0.12761 0.14199 0.79365 0.0
C534 C 0.15329 0.16964 0.77089 0.0
C535 C 0.15786 0.19288 0.75844 0.0
C536 C 0.14169 0.20241 0.7404 0.0
C537 C 0.14586 0.22442 0.72898 0.0
C538 C 0.1662 0.23705 0.73537 0.0
C539 C 0.18244 0.22768 0.75315 0.0
C540 C 0.17834 0.20568 0.76464 0.0
C541 C 0.20864 0.07757 0.78062 0.0
C542 C 0.22794 0.08609 0.79515 0.0
C543 C 0.18898 0.09197 0.77615 0.0
C544 C 0.1885 0.11507 0.78601 0.0
C545 C 0.20792 0.12364 0.80009 0.0
C546 C 0.22737 0.1093 0.80471 0.0
C547 C 0.16773 0.13053 0.78268 0.0
C548 C 0.17105 0.15251 0.77065 0.0
C549 C 0.14549 0.12489 0.79356 0.0
C550 C 0.14097 0.10209 0.80678 0.0
C551 C 0.15391 0.09551 0.82915 0.0
C552 C 0.14955 0.07391 0.84143 0.0
C553 C 0.13214 0.05887 0.83165 0.0
C554 C 0.119 0.06542 0.80961 0.0
C555 C 0.12332 0.08699 0.79724 0.0
H556 H 0.12878 0.04216 0.84119 0.0
H557 H 0.16939 0.25409 0.72652 0.0
H558 H 0.18248 0.94836 0.14951 0.0
H559 H 0.14895 0.92247 0.15764 0.0
H560 H 0.18038 0.89993 0.23061 0.0
H561 H 0.21426 0.92543 0.22234 0.0
H562 H 0.1692 0.86344 0.20144 0.0
H563 H 0.12891 0.93298 0.22915 0.0
H564 H 0.11476 0.97395 0.22595 0.0
H565 H 0.07551 0.95644 0.15653 0.0
H566 H 0.08969 0.91543 0.15909 0.0
H567 H 0.07687 0.78425 0.2263 0.0
H568 H 0.10191 0.81884 0.23256 0.0
H569 H 0.0775 0.84738 0.15888 0.0
H570 H 0.05191 0.8132 0.15285 0.0
H571 H 0.08404 0.882 0.19395 0.0
H572 H 0.12851 0.81501 0.16255 0.0
H573 H 0.14316 0.77412 0.16406 0.0
H574 H 0.1752 0.78745 0.23902 0.0
H575 H 0.16046 0.82836 0.23809 0.0
C576 C 0.18208 0.93824 0.16753 0.0
C577 C 0.20115 0.93878 0.18515 0.0
C578 C 0.16279 0.92352 0.17224 0.0
C579 C 0.16208 0.90932 0.19481 0.0
C580 C 0.18057 0.91072 0.21305 0.0
C581 C 0.19992 0.92531 0.20829 0.0
C582 C 0.14345 0.89117 0.19786 0.0
C583 C 0.15056 0.86761 0.20044 0.0
C584 C 0.11915 0.8965 0.19578 0.0
C585 C 0.11051 0.92115 0.19423 0.0
C586 C 0.1174 0.9379 0.21309 0.0
C587 C 0.10935 0.96112 0.21141 0.0
C588 C 0.09428 0.9678 0.19102 0.0
C589 C 0.08719 0.95124 0.17231 0.0
C590 C 0.0952 0.92799 0.17389 0.0
C591 C 0.07657 0.79805 0.21162 0.0
C592 C 0.06267 0.79584 0.18889 0.0
C593 C 0.09091 0.81779 0.21521 0.0
C594 C 0.09194 0.83545 0.19592 0.0
C595 C 0.07704 0.83393 0.17398 0.0
C596 C 0.06249 0.81432 0.17051 0.0
C597 C 0.10989 0.8544 0.19739 0.0
C598 C 0.10268 0.878 0.19548 0.0
C599 C 0.13417 0.84917 0.19989 0.0
C600 C 0.14316 0.82464 0.20039 0.0
C601 C 0.13854 0.80916 0.17943 0.0
C602 C 0.14688 0.786 0.18017 0.0
C603 C 0.16005 0.77817 0.20166 0.0
C604 C 0.16496 0.79352 0.22241 0.0
C605 C 0.15663 0.8167 0.22179 0.0
H606 H 0.16649 0.76023 0.2022 0.0
H607 H 0.08807 0.98579 0.18975 0.0
H608 H 0.21183 0.52766 0.28063 0.0
H609 H 0.19148 0.56207 0.26282 0.0
H610 H 0.14156 0.51655 0.22393 0.0
H611 H 0.16206 0.48204 0.2412 0.0
H612 H 0.15295 0.55341 0.19323 0.0
H613 H 0.12869 0.54153 0.28288 0.0
H614 H 0.13508 0.53626 0.33044 0.0
H615 H 0.16812 0.60423 0.33473 0.0
H616 H 0.16224 0.60975 0.28709 0.0
H617 H 0.05543 0.63032 0.17872 0.0
H618 H 0.0821 0.59835 0.19076 0.0
H619 H 0.12943 0.64839 0.22661 0.0
H620 H 0.10271 0.68053 0.21486 0.0
H621 H 0.12168 0.61076 0.25805 0.0
H622 H 0.14315 0.62347 0.16816 0.0
H623 H 0.13611 0.62818 0.12066 0.0
H624 H 0.1073 0.5583 0.11686 0.0
H625 H 0.11386 0.55329 0.16444 0.0
C626 C 0.1967 0.52495 0.26802 0.0
C627 C 0.18843 0.50212 0.26253 0.0
C628 C 0.18505 0.54464 0.25793 0.0
C629 C 0.16477 0.54187 0.24244 0.0
C630 C 0.15714 0.51909 0.23591 0.0
C631 C 0.16886 0.49938 0.24586 0.0
C632 C 0.15074 0.56263 0.2342 0.0
C633 C 0.14594 0.56586 0.2074 0.0
C634 C 0.14198 0.57909 0.25267 0.0
C635 C 0.14525 0.57594 0.28138 0.0
C636 C 0.13746 0.55528 0.29394 0.0
C637 C 0.14098 0.55226 0.32091 0.0
C638 C 0.15206 0.56987 0.33558 0.0
C639 C 0.15957 0.59058 0.32333 0.0
C640 C 0.15615 0.59367 0.29635 0.0
C641 C 0.07156 0.63458 0.18906 0.0
C642 C 0.07696 0.65799 0.1958 0.0
C643 C 0.08684 0.61627 0.19582 0.0
C644 C 0.10787 0.62103 0.20932 0.0
C645 C 0.11332 0.64436 0.21612 0.0
C646 C 0.09805 0.6627 0.20934 0.0
C647 C 0.12378 0.60152 0.21708 0.0
C648 C 0.12887 0.59847 0.24383 0.0
C649 C 0.13268 0.58517 0.19857 0.0
C650 C 0.12882 0.58808 0.16992 0.0
C651 C 0.13515 0.60917 0.15724 0.0
C652 C 0.13128 0.61189 0.13029 0.0
C653 C 0.12122 0.59358 0.11576 0.0
C654 C 0.11507 0.57248 0.12815 0.0
C655 C 0.11889 0.56968 0.1551 0.0
H656 H 0.11823 0.59571 0.0949 0.0
H657 H 0.15478 0.56749 0.35646 0.0
H658 H 0.53415 0.78127 0.71483 0.0
H659 H 0.56632 0.80499 0.73268 0.0
H660 H 0.52342 0.82286 0.79974 0.0
H661 H 0.49108 0.79936 0.78194 0.0
H662 H 0.54138 0.86144 0.77657 0.0
H663 H 0.57115 0.78718 0.80641 0.0
H664 H 0.58358 0.74573 0.8023 0.0
H665 H 0.637 0.76573 0.74689 0.0
H666 H 0.62468 0.80729 0.75038 0.0
H667 H 0.62901 0.92538 0.84442 0.0
H668 H 0.60002 0.89525 0.83311 0.0
H669 H 0.64137 0.87558 0.76547 0.0
H670 H 0.6707 0.90547 0.77686 0.0
H671 H 0.62439 0.83708 0.79061 0.0
H672 H 0.59352 0.91032 0.75844 0.0
H673 H 0.58115 0.95189 0.76134 0.0
H674 H 0.52966 0.93369 0.81974 0.0
H675 H 0.54196 0.89204 0.81743 0.0
C676 C 0.53169 0.7899 0.73361 0.0
C677 C 0.50998 0.78855 0.74688 0.0
C678 C 0.55014 0.8034 0.74383 0.0
C679 C 0.54727 0.81567 0.76757 0.0
C680 C 0.52597 0.81356 0.78137 0.0
C681 C 0.50753 0.80006 0.77118 0.0
C682 C 0.56567 0.83227 0.77682 0.0
C683 C 0.55944 0.85601 0.78013 0.0
C684 C 0.58938 0.82532 0.78063 0.0
C685 C 0.59684 0.80033 0.77848 0.0
C686 C 0.58542 0.78272 0.79318 0.0
C687 C 0.59247 0.75921 0.79099 0.0
C688 C 0.61103 0.75309 0.7743 0.0
C689 C 0.62261 0.77049 0.7598 0.0
C690 C 0.61561 0.79403 0.76189 0.0
C691 C 0.63201 0.91461 0.82718 0.0
C692 C 0.65208 0.91796 0.81143 0.0
C693 C 0.61539 0.89742 0.82072 0.0
C694 C 0.6184 0.88337 0.79827 0.0
C695 C 0.6387 0.88625 0.78287 0.0
C696 C 0.65538 0.90341 0.78935 0.0
C697 C 0.60002 0.86617 0.79044 0.0
C698 C 0.60627 0.84241 0.78727 0.0
C699 C 0.57631 0.87308 0.78658 0.0
C700 C 0.56884 0.89811 0.78796 0.0
C701 C 0.57969 0.91522 0.77205 0.0
C702 C 0.57267 0.93878 0.77356 0.0
C703 C 0.55468 0.94544 0.79077 0.0
C704 C 0.54363 0.92852 0.80645 0.0
C705 C 0.5506 0.90492 0.80504 0.0
H706 H 0.54926 0.96369 0.79191 0.0
H707 H 0.61647 0.73487 0.77264 0.0
H708 H 0.93917 0.35558 0.16405 0.0
H709 H 0.91181 0.38786 0.17286 0.0
H710 H 0.87633 0.34534 0.2309 0.0
H711 H 0.90341 0.31281 0.22196 0.0
H712 H 0.84507 0.36975 0.20124 0.0
H713 H 0.9158 0.38637 0.24958 0.0
H714 H 0.95851 0.39237 0.25553 0.0
H715 H 0.95683 0.45037 0.20142 0.0
H716 H 0.91414 0.44449 0.19486 0.0
H717 H 0.79237 0.46029 0.27917 0.0
H718 H 0.81383 0.42668 0.26104 0.0
H719 H 0.84546 0.47189 0.20279 0.0
H720 H 0.82414 0.50562 0.2208 0.0
H721 H 0.87805 0.44652 0.22993 0.0
H722 H 0.80595 0.43121 0.18436 0.0
H723 H 0.76315 0.42504 0.17979 0.0
H724 H 0.76709 0.36459 0.23031 0.0
H725 H 0.8099 0.3706 0.23549 0.0
C726 C 0.92548 0.35303 0.1786 0.0
C727 C 0.92358 0.33169 0.19245 0.0
C728 C 0.90989 0.37152 0.18364 0.0
C729 C 0.89222 0.36909 0.20275 0.0
C730 C 0.88985 0.34759 0.21607 0.0
C731 C 0.90541 0.32906 0.21102 0.0
C732 C 0.87677 0.38925 0.20955 0.0
C733 C 0.85224 0.38648 0.20774 0.0
C734 C 0.88618 0.4112 0.21755 0.0
C735 C 0.91183 0.41482 0.22151 0.0
C736 C 0.92458 0.40028 0.23878 0.0
C737 C 0.94877 0.40368 0.2423 0.0
C738 C 0.96039 0.4217 0.2288 0.0
C739 C 0.94782 0.43639 0.21182 0.0
C740 C 0.92362 0.43304 0.20821 0.0
C741 C 0.80357 0.46303 0.26222 0.0
C742 C 0.80666 0.48567 0.25153 0.0
C743 C 0.81576 0.44377 0.25182 0.0
C744 C 0.83121 0.4468 0.23055 0.0
C745 C 0.83363 0.4692 0.21923 0.0
C746 C 0.82137 0.48844 0.22951 0.0
C747 C 0.84631 0.42707 0.22162 0.0
C748 C 0.87084 0.42989 0.22316 0.0
C749 C 0.83686 0.40516 0.21357 0.0
C750 C 0.81112 0.40149 0.2105 0.0
C751 C 0.79767 0.41672 0.19469 0.0
C752 C 0.77341 0.41323 0.19194 0.0
C753 C 0.7624 0.39447 0.2048 0.0
C754 C 0.77564 0.37913 0.22038 0.0
C755 C 0.79991 0.38256 0.2232 0.0
H756 H 0.74361 0.39179 0.20265 0.0
H757 H 0.97912 0.42431 0.23155 0.0
H758 H 0.49941 0.20801 0.78503 0.0
H759 H 0.46641 0.18528 0.80263 0.0
H760 H 0.431 0.18976 0.72782 0.0
H761 H 0.46367 0.21285 0.71019 0.0
H762 H 0.39997 0.19306 0.76824 0.0
H763 H 0.4646 0.14263 0.7429 0.0
H764 H 0.50608 0.12977 0.74383 0.0
H765 H 0.50068 0.11591 0.82653 0.0
H766 H 0.45928 0.12921 0.8262 0.0
H767 H 0.328 0.09141 0.76784 0.0
H768 H 0.35775 0.12138 0.75876 0.0
H769 H 0.38693 0.11171 0.83624 0.0
H770 H 0.35729 0.08149 0.84548 0.0
H771 H 0.4209 0.11266 0.79868 0.0
H772 H 0.35476 0.15998 0.82298 0.0
H773 H 0.31346 0.1734 0.82166 0.0
H774 H 0.32139 0.19265 0.74058 0.0
H775 H 0.36266 0.17903 0.7413 0.0
C776 C 0.48443 0.2045 0.77244 0.0
C777 C 0.48431 0.21197 0.7461 0.0
C778 C 0.46561 0.19146 0.78252 0.0
C779 C 0.44647 0.18546 0.76637 0.0
C780 C 0.44564 0.19412 0.74058 0.0
C781 C 0.46439 0.20726 0.73052 0.0
C782 C 0.42826 0.16865 0.77555 0.0
C783 C 0.4045 0.17543 0.77475 0.0
C784 C 0.43425 0.1458 0.78451 0.0
C785 C 0.45893 0.13717 0.78458 0.0
C786 C 0.4723 0.13696 0.76131 0.0
C787 C 0.4958 0.12959 0.76173 0.0
C788 C 0.50603 0.12208 0.78524 0.0
C789 C 0.49274 0.12179 0.80835 0.0
C790 C 0.46926 0.12926 0.80806 0.0
C791 C 0.3407 0.09565 0.783 0.0
C792 C 0.34027 0.08406 0.80741 0.0
C793 C 0.35762 0.1129 0.77782 0.0
C794 C 0.37436 0.11897 0.79694 0.0
C795 C 0.3741 0.10733 0.82126 0.0
C796 C 0.35713 0.0901 0.8265 0.0
C797 C 0.39255 0.13698 0.79117 0.0
C798 C 0.41633 0.13038 0.7925 0.0
C799 C 0.38655 0.15994 0.78262 0.0
C800 C 0.36177 0.1683 0.78214 0.0
C801 C 0.34765 0.16691 0.80481 0.0
C802 C 0.32425 0.17458 0.80418 0.0
C803 C 0.31479 0.18382 0.78104 0.0
C804 C 0.32874 0.18547 0.75849 0.0
C805 C 0.35215 0.1778 0.75901 0.0
H806 H 0.29667 0.18975 0.78059 0.0
H807 H 0.52425 0.1165 0.78557 0.0
H808 H 0.20056 0.46759 0.71782 0.0
H809 H 0.17928 0.43337 0.73469 0.0
H810 H 0.14352 0.47764 0.79087 0.0
H811 H 0.16508 0.5119 0.7745 0.0
H812 H 0.1547 0.4357 0.81231 0.0
H813 H 0.11731 0.46295 0.73306 0.0
H814 H 0.11587 0.47449 0.68639 0.0
H815 H 0.1387 0.40527 0.66376 0.0
H816 H 0.1406 0.39342 0.71036 0.0
H817 H 0.05403 0.364 0.8366 0.0
H818 H 0.08097 0.39583 0.82451 0.0
H819 H 0.11546 0.34988 0.76901 0.0
H820 H 0.08843 0.31808 0.7807 0.0
H821 H 0.10615 0.39186 0.7476 0.0
H822 H 0.14159 0.36407 0.82729 0.0
H823 H 0.14261 0.35284 0.87406 0.0
H824 H 0.1228 0.42313 0.89607 0.0
H825 H 0.12134 0.43471 0.84938 0.0
C826 C 0.18839 0.47002 0.73399 0.0
C827 C 0.18431 0.49252 0.74462 0.0
C828 C 0.17619 0.45045 0.74355 0.0
C829 C 0.15948 0.45305 0.76369 0.0
C830 C 0.15626 0.47526 0.77524 0.0
C831 C 0.16856 0.49483 0.7658 0.0
C832 C 0.14443 0.43293 0.7717 0.0
C833 C 0.14391 0.42623 0.79823 0.0
C834 C 0.13066 0.42035 0.75323 0.0
C835 C 0.12933 0.42738 0.7252 0.0
C836 C 0.12218 0.45024 0.71814 0.0
C837 C 0.12126 0.45683 0.6917 0.0
C838 C 0.12725 0.44064 0.67213 0.0
C839 C 0.1341 0.4178 0.67895 0.0
C840 C 0.13509 0.41113 0.70537 0.0
C841 C 0.06739 0.36064 0.82188 0.0
C842 C 0.06907 0.33851 0.8096 0.0
C843 C 0.08286 0.37882 0.81509 0.0
C844 C 0.10039 0.37515 0.79605 0.0
C845 C 0.10209 0.35308 0.78378 0.0
C846 C 0.08663 0.33492 0.79052 0.0
C847 C 0.11642 0.39455 0.78822 0.0
C848 C 0.11705 0.40119 0.76169 0.0
C849 C 0.1302 0.40709 0.80672 0.0
C850 C 0.13115 0.4002 0.83482 0.0
C851 C 0.13727 0.37709 0.84209 0.0
C852 C 0.13796 0.37067 0.86859 0.0
C853 C 0.13272 0.38725 0.88802 0.0
C854 C 0.12683 0.4103 0.88099 0.0
C855 C 0.12609 0.41681 0.85452 0.0
H856 H 0.13326 0.38224 0.90852 0.0
H857 H 0.12653 0.44578 0.65167 0.0
H858 H 0.31311 0.89828 0.21221 0.0
H859 H 0.34344 0.86998 0.22508 0.0
H860 H 0.39294 0.9036 0.17284 0.0
H861 H 0.36266 0.93186 0.15963 0.0
H862 H 0.39597 0.85526 0.17077 0.0
H863 H 0.39402 0.91613 0.23688 0.0
H864 H 0.37501 0.94148 0.27003 0.0
H865 H 0.35458 0.88034 0.31419 0.0
H866 H 0.37319 0.8546 0.28107 0.0
H867 H 0.50582 0.82134 0.2253 0.0
H868 H 0.47094 0.8405 0.20725 0.0
H869 H 0.42773 0.80698 0.26614 0.0
H870 H 0.46269 0.78813 0.28473 0.0
H871 H 0.41919 0.85245 0.26467 0.0
H872 H 0.42423 0.79148 0.2003 0.0
H873 H 0.44334 0.7663 0.16708 0.0
H874 H 0.45809 0.82709 0.11966 0.0
H875 H 0.43936 0.8527 0.15277 0.0
C876 C 0.3304 0.89958 0.20332 0.0
C877 C 0.33554 0.91744 0.18504 0.0
C878 C 0.34771 0.88341 0.21073 0.0
C879 C 0.37048 0.88487 0.20011 0.0
C880 C 0.37546 0.90219 0.18126 0.0
C881 C 0.35816 0.91839 0.17384 0.0
C882 C 0.38942 0.86902 0.20949 0.0
C883 C 0.40122 0.85473 0.19125 0.0
C884 C 0.39581 0.86797 0.23632 0.0
C885 C 0.38477 0.88344 0.25635 0.0
C886 C 0.38532 0.90808 0.25355 0.0
C887 C 0.37464 0.92252 0.27235 0.0
C888 C 0.36354 0.91252 0.29416 0.0
C889 C 0.36315 0.88806 0.29726 0.0
C890 C 0.37377 0.87354 0.27849 0.0
C891 C 0.48885 0.81771 0.23417 0.0
C892 C 0.48705 0.8033 0.25654 0.0
C893 C 0.46888 0.82861 0.22373 0.0
C894 C 0.44667 0.82506 0.23523 0.0
C895 C 0.4447 0.80998 0.25697 0.0
C896 C 0.46469 0.79918 0.26753 0.0
C897 C 0.42594 0.83864 0.22594 0.0
C898 C 0.41382 0.85265 0.24422 0.0
C899 C 0.4193 0.83939 0.19914 0.0
C900 C 0.43054 0.82404 0.17914 0.0
C901 C 0.43171 0.79951 0.18288 0.0
C902 C 0.44244 0.78515 0.16405 0.0
C903 C 0.45196 0.79509 0.1413 0.0
C904 C 0.45072 0.81942 0.1373 0.0
C905 C 0.44001 0.83386 0.15608 0.0
H906 H 0.46027 0.78395 0.12674 0.0
H907 H 0.35528 0.92373 0.3087 0.0
H908 H 0.79476 0.52807 0.72331 0.0
H909 H 0.81572 0.56277 0.73982 0.0
H910 H 0.88057 0.52315 0.74133 0.0
H911 H 0.85979 0.4884 0.72531 0.0
H912 H 0.87629 0.54976 0.78455 0.0
H913 H 0.86802 0.56087 0.69108 0.0
H914 H 0.84599 0.564 0.64947 0.0
H915 H 0.80707 0.62278 0.68009 0.0
H916 H 0.82865 0.61977 0.72205 0.0
H917 H 0.96205 0.6398 0.78599 0.0
H918 H 0.9371 0.60652 0.77378 0.0
H919 H 0.87606 0.6518 0.7744 0.0
H920 H 0.90099 0.68534 0.78623 0.0
H921 H 0.87594 0.62345 0.73211 0.0
H922 H 0.88617 0.61375 0.82485 0.0
H923 H 0.90862 0.6106 0.86617 0.0
H924 H 0.94415 0.5492 0.83686 0.0
H925 H 0.92215 0.55218 0.7952 0.0
C926 C 0.81345 0.52671 0.72734 0.0
C927 C 0.82563 0.50552 0.72282 0.0
C928 C 0.82541 0.54658 0.73667 0.0
C929 C 0.84977 0.54562 0.74148 0.0
C930 C 0.8618 0.5243 0.73771 0.0
C931 C 0.84987 0.50447 0.72844 0.0
C932 C 0.86298 0.56689 0.74985 0.0
C933 C 0.87638 0.56582 0.77298 0.0
C934 C 0.86264 0.58801 0.73506 0.0
C935 C 0.84977 0.58993 0.70979 0.0
C936 C 0.85464 0.57434 0.68901 0.0
C937 C 0.84226 0.57611 0.66535 0.0
C938 C 0.8251 0.59353 0.66216 0.0
C939 C 0.82034 0.60926 0.68261 0.0
C940 C 0.83265 0.60755 0.70632 0.0
C941 C 0.94332 0.64271 0.78356 0.0
C942 C 0.93349 0.6652 0.78722 0.0
C943 C 0.92906 0.62363 0.77668 0.0
C944 C 0.90466 0.6266 0.77356 0.0
C945 C 0.89483 0.6491 0.7768 0.0
C946 C 0.9091 0.66823 0.78361 0.0
C947 C 0.88948 0.60624 0.76667 0.0
C948 C 0.87571 0.60748 0.74382 0.0
C949 C 0.8895 0.58525 0.7817 0.0
C950 C 0.90264 0.58331 0.80681 0.0
C951 C 0.89889 0.59967 0.82714 0.0
C952 C 0.91152 0.59791 0.85063 0.0
C953 C 0.92784 0.57974 0.85411 0.0
C954 C 0.93152 0.56327 0.83413 0.0
C955 C 0.91895 0.56498 0.81058 0.0
H956 H 0.9376 0.57841 0.87232 0.0
H957 H 0.81553 0.59487 0.64384 0.0
H958 H 0.68652 0.10629 0.22114 0.0
H959 H 0.6553 0.13344 0.2344 0.0
H960 H 0.61068 0.10675 0.17259 0.0
H961 H 0.64187 0.0796 0.15904 0.0
H962 H 0.60737 0.15529 0.17819 0.0
H963 H 0.60425 0.08592 0.23255 0.0
H964 H 0.62082 0.05602 0.26245 0.0
H965 H 0.63678 0.10985 0.31902 0.0
H966 H 0.62066 0.14013 0.28923 0.0
H967 H 0.49315 0.18203 0.22666 0.0
H968 H 0.52923 0.16432 0.20962 0.0
H969 H 0.56793 0.19115 0.27615 0.0
H970 H 0.53182 0.20875 0.29353 0.0
H971 H 0.57629 0.1451 0.26861 0.0
H972 H 0.57631 0.21433 0.2153 0.0
H973 H 0.55985 0.24395 0.18502 0.0
H974 H 0.54935 0.19055 0.12643 0.0
H975 H 0.56544 0.16052 0.15649 0.0
C976 C 0.67017 0.10636 0.21015 0.0
C977 C 0.66658 0.09061 0.18919 0.0
C978 C 0.65235 0.12187 0.21779 0.0
C979 C 0.63061 0.12187 0.20467 0.0
C980 C 0.62734 0.10697 0.18298 0.0
C981 C 0.64515 0.09141 0.17535 0.0
C982 C 0.61076 0.13628 0.21458 0.0
C983 C 0.60041 0.15299 0.19787 0.0
C984 C 0.60208 0.13354 0.24045 0.0
C985 C 0.61149 0.11532 0.25854 0.0
C986 C 0.61146 0.0914 0.25128 0.0
C987 C 0.62075 0.07438 0.26821 0.0
C988 C 0.6299 0.08104 0.29259 0.0
C989 C 0.62972 0.10472 0.30011 0.0
C990 C 0.6205 0.12182 0.28321 0.0
C991 C 0.50937 0.18443 0.23754 0.0
C992 C 0.50958 0.19674 0.26151 0.0
C993 C 0.53002 0.17437 0.22769 0.0
C994 C 0.55131 0.17654 0.24153 0.0
C995 C 0.55169 0.18928 0.26516 0.0
C996 C 0.53105 0.19938 0.27502 0.0
C997 C 0.57274 0.16416 0.23221 0.0
C998 C 0.58336 0.14769 0.24901 0.0
C999 C 0.58159 0.16711 0.20641 0.0
C1000 C 0.57191 0.18513 0.18825 0.0
C1001 C 0.57031 0.20885 0.19604 0.0
C1002 C 0.56108 0.22573 0.1789 0.0
C1003 C 0.55351 0.21913 0.15384 0.0
C1004 C 0.5552 0.19564 0.14585 0.0
C1005 C 0.56441 0.17868 0.16293 0.0
H1006 H 0.54637 0.23222 0.1406 0.0
H1007 H 0.63709 0.06784 0.30567 0.0
H1008 H 0.70573 0.0156 0.7189 0.0
H1009 H 0.68514 0.04987 0.70054 0.0
H1010 H 0.6563 0.06554 0.77695 0.0
H1011 H 0.6767 0.03162 0.79541 0.0
H1012 H 0.62261 0.06427 0.73756 0.0
H1013 H 0.69962 0.09842 0.75318 0.0
H1014 H 0.74276 0.10102 0.74815 0.0
H1015 H 0.73489 0.10819 0.66464 0.0
H1016 H 0.69169 0.10531 0.66916 0.0
H1017 H 0.57558 0.178 0.72953 0.0
H1018 H 0.59903 0.14341 0.74053 0.0
H1019 H 0.6267 0.14162 0.66162 0.0
H1020 H 0.60349 0.17661 0.6505 0.0
H1021 H 0.66094 0.13373 0.69666 0.0
H1022 H 0.58426 0.10357 0.68066 0.0
H1023 H 0.54113 0.09969 0.68435 0.0
H1024 H 0.54785 0.0829 0.76623 0.0
H1025 H 0.59097 0.08736 0.76326 0.0
C1026 C 0.69516 0.02647 0.73181 0.0
C1027 C 0.6928 0.02082 0.75859 0.0
C1028 C 0.68346 0.04604 0.72131 0.0
C1029 C 0.6692 0.06018 0.73742 0.0
C1030 C 0.66716 0.05479 0.76418 0.0
C1031 C 0.67891 0.03541 0.7747 0.0
C1032 C 0.65557 0.08015 0.72649 0.0
C1033 C 0.63096 0.07959 0.72884 0.0
C1034 C 0.6665 0.09963 0.71418 0.0
C1035 C 0.69245 0.10136 0.71148 0.0
C1036 C 0.7071 0.10033 0.73372 0.0
C1037 C 0.73156 0.1019 0.73097 0.0
C1038 C 0.74157 0.10469 0.70609 0.0
C1039 C 0.72712 0.10598 0.6839 0.0
C1040 C 0.70265 0.10439 0.68655 0.0
C1041 C 0.58666 0.17031 0.71448 0.0
C1042 C 0.58756 0.18001 0.68908 0.0
C1043 C 0.59999 0.15045 0.72078 0.0
C1044 C 0.61433 0.1397 0.70177 0.0
C1045 C 0.61567 0.14959 0.67654 0.0
C1046 C 0.60236 0.16955 0.67022 0.0
C1047 C 0.62793 0.1182 0.70847 0.0
C1048 C 0.6525 0.11838 0.70519 0.0
C1049 C 0.61694 0.09821 0.71976 0.0
C1050 C 0.5909 0.09602 0.72177 0.0
C1051 C 0.57654 0.09936 0.69955 0.0
C1052 C 0.55208 0.09705 0.70151 0.0
C1053 C 0.54175 0.09114 0.72553 0.0
C1054 C 0.55586 0.08759 0.74766 0.0
C1055 C 0.58032 0.09003 0.74585 0.0
H1056 H 0.52282 0.08922 0.72698 0.0
H1057 H 0.76051 0.10591 0.704 0.0
H1058 H 0.18477 0.39594 0.28645 0.0
H1059 H 0.15354 0.36895 0.27301 0.0
H1060 H 0.11386 0.38663 0.34255 0.0
H1061 H 0.1453 0.41337 0.35648 0.0
H1062 H 0.11049 0.34002 0.33133 0.0
H1063 H 0.10153 0.41303 0.28499 0.0
H1064 H 0.11485 0.4462 0.25745 0.0
H1065 H 0.12924 0.39851 0.19396 0.0
H1066 H 0.11638 0.36498 0.22129 0.0
H1067 H 0.99652 0.30714 0.28405 0.0
H1068 H 0.03103 0.32734 0.3019 0.0
H1069 H 0.07078 0.30903 0.23262 0.0
H1070 H 0.03632 0.28899 0.21449 0.0
H1071 H 0.07448 0.35529 0.24414 0.0
H1072 H 0.08178 0.28217 0.29095 0.0
H1073 H 0.06827 0.24958 0.31921 0.0
H1074 H 0.05585 0.29821 0.38232 0.0
H1075 H 0.06899 0.33116 0.35432 0.0
C1076 C 0.16952 0.39393 0.29905 0.0
C1077 C 0.16739 0.40699 0.3224 0.0
C1078 C 0.15166 0.37853 0.2913 0.0
C1079 C 0.1312 0.37612 0.30655 0.0
C1080 C 0.12948 0.3883 0.33046 0.0
C1081 C 0.14743 0.40362 0.33834 0.0
C1082 C 0.11111 0.36192 0.29679 0.0
C1083 C 0.10243 0.34348 0.31239 0.0
C1084 C 0.10084 0.36628 0.27192 0.0
C1085 C 0.1082 0.38646 0.25528 0.0
C1086 C 0.10768 0.40959 0.26521 0.0
C1087 C 0.11514 0.42846 0.24964 0.0
C1088 C 0.12294 0.42446 0.224 0.0
C1089 C 0.12322 0.40158 0.21384 0.0
C1090 C 0.11584 0.38264 0.22936 0.0
C1091 C 0.01267 0.30718 0.27272 0.0
C1092 C 0.01365 0.29651 0.24781 0.0
C1093 C 0.03241 0.31866 0.28301 0.0
C1094 C 0.0535 0.31958 0.26864 0.0
C1095 C 0.05467 0.30852 0.24402 0.0
C1096 C 0.03497 0.29703 0.23373 0.0
C1097 C 0.07393 0.3332 0.27856 0.0
C1098 C 0.0826 0.35169 0.26302 0.0
C1099 C 0.08402 0.32896 0.30354 0.0
C1100 C 0.07616 0.30917 0.32044 0.0
C1101 C 0.07599 0.28595 0.31078 0.0
C1102 C 0.06843 0.2674 0.32677 0.0
C1103 C 0.06115 0.27183 0.35252 0.0
C1104 C 0.06147 0.29481 0.36236 0.0
C1105 C 0.06899 0.31343 0.34645 0.0
H1106 H 0.05531 0.25745 0.36487 0.0
H1107 H 0.12873 0.43909 0.21198 0.0
H1108 H 0.28168 0.96458 0.76055 0.0
H1109 H 0.29394 0.92694 0.74121 0.0
H1110 H 0.36616 0.9507 0.74067 0.0
H1111 H 0.35412 0.98821 0.75958 0.0
H1112 H 0.35524 0.92778 0.69576 0.0
H1113 H 0.34506 0.91578 0.7897 0.0
H1114 H 0.3222 0.91567 0.83092 0.0
H1115 H 0.2729 0.86683 0.79726 0.0
H1116 H 0.29532 0.86692 0.7557 0.0
H1117 H 0.43139 0.83182 0.70461 0.0
H1118 H 0.40743 0.86674 0.71218 0.0
H1119 H 0.34418 0.82513 0.70469 0.0
H1120 H 0.36816 0.78978 0.69717 0.0
H1121 H 0.34308 0.85473 0.74758 0.0
H1122 H 0.35819 0.86153 0.65611 0.0
H1123 H 0.38217 0.86128 0.61573 0.0
H1124 H 0.42274 0.91963 0.64468 0.0
H1125 H 0.39925 0.92001 0.68543 0.0
C1126 C 0.30013 0.96184 0.75606 0.0
C1127 C 0.31695 0.97932 0.76177 0.0
C1128 C 0.3071 0.94032 0.74508 0.0
C1129 C 0.33099 0.93597 0.73971 0.0
C1130 C 0.34763 0.9537 0.74461 0.0
C1131 C 0.34072 0.97511 0.75557 0.0
C1132 C 0.33914 0.91269 0.73017 0.0
C1133 C 0.3526 0.9118 0.70707 0.0
C1134 C 0.33506 0.89172 0.74452 0.0
C1135 C 0.32167 0.89159 0.76951 0.0
C1136 C 0.32923 0.90517 0.79103 0.0
C1137 C 0.31638 0.90509 0.81446 0.0
C1138 C 0.29607 0.89131 0.81668 0.0
C1139 C 0.28861 0.87754 0.79549 0.0
C1140 C 0.30137 0.87759 0.772 0.0
C1141 C 0.41239 0.83001 0.70447 0.0
C1142 C 0.40168 0.808 0.70023 0.0
C1143 C 0.39871 0.85005 0.70866 0.0
C1144 C 0.37403 0.84857 0.70862 0.0
C1145 C 0.36321 0.82663 0.70463 0.0
C1146 C 0.37693 0.8065 0.70031 0.0
C1147 C 0.35985 0.87001 0.71365 0.0
C1148 C 0.34526 0.87057 0.73588 0.0
C1149 C 0.36293 0.8907 0.69853 0.0
C1150 C 0.377 0.89072 0.67392 0.0
C1151 C 0.37232 0.87422 0.65395 0.0
C1152 C 0.38582 0.87407 0.63098 0.0
C1153 C 0.40398 0.89041 0.62766 0.0
C1154 C 0.40866 0.90698 0.64728 0.0
C1155 C 0.39522 0.9072 0.67031 0.0
H1156 H 0.41442 0.89026 0.60986 0.0
H1157 H 0.28614 0.89126 0.83484 0.0
H1158 H 0.86602 0.56816 0.33858 0.0
H1159 H 0.89602 0.59702 0.32624 0.0
H1160 H 0.85273 0.61996 0.26147 0.0
H1161 H 0.82275 0.59102 0.27347 0.0
H1162 H 0.89753 0.61218 0.24638 0.0
H1163 H 0.85863 0.65403 0.31573 0.0
H1164 H 0.84252 0.65966 0.36026 0.0
H1165 H 0.91149 0.65018 0.39326 0.0
H1166 H 0.92799 0.64417 0.34892 0.0
H1167 H 0.96751 0.7086 0.20986 0.0
H1168 H 0.93347 0.68713 0.22686 0.0
H1169 H 0.97513 0.66219 0.29203 0.0
H1170 H 0.00921 0.68394 0.27543 0.0
H1171 H 0.93008 0.67241 0.30707 0.0
H1172 H 0.9685 0.62829 0.23868 0.0
H1173 H 0.98514 0.6223 0.19443 0.0
H1174 H 0.91725 0.63526 0.16008 0.0
H1175 H 0.90029 0.64169 0.20415 0.0
C1176 C 0.86282 0.57941 0.32178 0.0
C1177 C 0.84201 0.57726 0.30698 0.0
C1178 C 0.87993 0.59599 0.31485 0.0
C1179 C 0.8765 0.61078 0.29308 0.0
C1180 C 0.8557 0.60874 0.27836 0.0
C1181 C 0.83858 0.5922 0.28528 0.0
C1182 C 0.89504 0.62764 0.28494 0.0
C1183 C 0.90435 0.62561 0.25951 0.0
C1184 C 0.90436 0.64475 0.30232 0.0
C1185 C 0.89451 0.64843 0.329 0.0
C1186 C 0.87034 0.65296 0.33249 0.0
C1187 C 0.86114 0.65625 0.3577 0.0
C1188 C 0.87596 0.65522 0.37958 0.0
C1189 C 0.90003 0.65095 0.37629 0.0
C1190 C 0.90932 0.64762 0.35112 0.0
C1191 C 0.96937 0.69885 0.22803 0.0
C1192 C 0.99116 0.69772 0.24112 0.0
C1193 C 0.9499 0.68655 0.23768 0.0
C1194 C 0.95193 0.67272 0.26042 0.0
C1195 C 0.97324 0.67269 0.27439 0.0
C1196 C 0.99271 0.68508 0.26481 0.0
C1197 C 0.93243 0.65696 0.26853 0.0
C1198 C 0.92307 0.6591 0.29392 0.0
C1199 C 0.92309 0.63984 0.25118 0.0
C1200 C 0.93319 0.63571 0.22469 0.0
C1201 C 0.95716 0.63002 0.22168 0.0
C1202 C 0.96664 0.62653 0.19663 0.0
C1203 C 0.95227 0.62846 0.17445 0.0
C1204 C 0.92837 0.63381 0.17728 0.0
C1205 C 0.91881 0.63737 0.20229 0.0
H1206 H 0.95965 0.62575 0.15508 0.0
H1207 H 0.86881 0.65778 0.39908 0.0
H1208 H 0.66729 0.01918 0.26787 0.0
H1209 H 0.64479 0.98559 0.28419 0.0
H1210 H 0.68443 0.93909 0.23374 0.0
H1211 H 0.70671 0.9727 0.21688 0.0
H1212 H 0.63876 0.93062 0.22952 0.0
H1213 H 0.69294 0.93995 0.30094 0.0
H1214 H 0.71415 0.96142 0.33579 0.0
H1215 H 0.64852 0.9776 0.37368 0.0
H1216 H 0.62687 0.95649 0.33885 0.0
H1217 H 0.59537 0.82408 0.28291 0.0
H1218 H 0.62175 0.85628 0.27074 0.0
H1219 H 0.58022 0.90462 0.31691 0.0
H1220 H 0.55382 0.87244 0.32943 0.0
H1221 H 0.62766 0.91148 0.32381 0.0
H1222 H 0.57362 0.90314 0.2517 0.0
H1223 H 0.5524 0.88155 0.21695 0.0
H1224 H 0.61815 0.86352 0.18037 0.0
H1225 H 0.63979 0.88472 0.21515 0.0
C1226 C 0.67143 0.00178 0.26045 0.0
C1227 C 0.6888 0.99861 0.24107 0.0
C1228 C 0.65859 0.98256 0.26988 0.0
C1229 C 0.66306 0.95978 0.26036 0.0
C1230 C 0.68069 0.95652 0.24136 0.0
C1231 C 0.69345 0.97574 0.2318 0.0
C1232 C 0.64853 0.93955 0.2692 0.0
C1233 C 0.63667 0.9262 0.25013 0.0
C1234 C 0.6453 0.93417 0.29612 0.0
C1235 C 0.65827 0.94681 0.31715 0.0
C1236 C 0.68301 0.94824 0.31659 0.0
C1237 C 0.69512 0.96032 0.33636 0.0
C1238 C 0.68269 0.97091 0.3569 0.0
C1239 C 0.65812 0.9694 0.35774 0.0
C1240 C 0.64593 0.95736 0.33801 0.0
C1241 C 0.59186 0.84153 0.29057 0.0
C1242 C 0.5724 0.84573 0.30702 0.0
C1243 C 0.60694 0.85992 0.28354 0.0
C1244 C 0.60277 0.88286 0.29269 0.0
C1245 C 0.58371 0.88703 0.30961 0.0
C1246 C 0.5686 0.86864 0.31665 0.0
C1247 C 0.61802 0.90261 0.28412 0.0
C1248 C 0.62991 0.91587 0.30322 0.0
C1249 C 0.62132 0.90793 0.25722 0.0
C1250 C 0.60833 0.89532 0.23618 0.0
C1251 C 0.58356 0.89442 0.23636 0.0
C1252 C 0.57145 0.88227 0.21664 0.0
C1253 C 0.58392 0.87112 0.1965 0.0
C1254 C 0.60852 0.87214 0.196 0.0
C1255 C 0.62071 0.88423 0.21571 0.0
H1256 H 0.57452 0.86172 0.18125 0.0
H1257 H 0.69209 0.98025 0.37219 0.0
H1258 H 0.81085 0.39408 0.72013 0.0
H1259 H 0.84075 0.36573 0.73377 0.0
H1260 H 0.87709 0.37508 0.66009 0.0
H1261 H 0.84699 0.40329 0.64604 0.0
H1262 H 0.8783 0.32886 0.6769 0.0
H1263 H 0.89459 0.40563 0.7117 0.0
H1264 H 0.88515 0.44244 0.73519 0.0
H1265 H 0.87228 0.40329 0.80591 0.0
H1266 H 0.88123 0.36617 0.7827 0.0
H1267 H 0.99424 0.29686 0.72029 0.0
H1268 H 0.95899 0.31526 0.70181 0.0
H1269 H 0.92295 0.30633 0.77575 0.0
H1270 H 0.95811 0.28808 0.79445 0.0
H1271 H 0.92097 0.35134 0.75823 0.0
H1272 H 0.90702 0.2742 0.72276 0.0
H1273 H 0.91692 0.23805 0.69827 0.0
H1274 H 0.92695 0.27861 0.62796 0.0
H1275 H 0.91742 0.31507 0.65212 0.0
C1276 C 0.82502 0.3899 0.70665 0.0
C1277 C 0.82675 0.40119 0.68214 0.0
C1278 C 0.84209 0.37369 0.71449 0.0
C1279 C 0.86133 0.36865 0.69812 0.0
C1280 C 0.8624 0.37881 0.67303 0.0
C1281 C 0.84524 0.39498 0.66509 0.0
C1282 C 0.88121 0.35433 0.70809 0.0
C1283 C 0.88781 0.33384 0.69454 0.0
C1284 C 0.89339 0.36077 0.73126 0.0
C1285 C 0.88835 0.3831 0.74539 0.0
C1286 C 0.88959 0.40485 0.73221 0.0
C1287 C 0.88434 0.42578 0.74548 0.0
C1288 C 0.87807 0.4252 0.77201 0.0
C1289 C 0.8771 0.4037 0.78535 0.0
C1290 C 0.88227 0.38272 0.77215 0.0
C1291 C 0.9787 0.29848 0.73251 0.0
C1292 C 0.97904 0.29116 0.7589 0.0
C1293 C 0.95854 0.30891 0.72187 0.0
C1294 C 0.93836 0.31212 0.73741 0.0
C1295 C 0.93837 0.30405 0.76345 0.0
C1296 C 0.95847 0.29358 0.77408 0.0
C1297 C 0.91796 0.32562 0.72726 0.0
C1298 C 0.91138 0.34617 0.74071 0.0
C1299 C 0.90601 0.31931 0.7039 0.0
C1300 C 0.91172 0.2974 0.68932 0.0
C1301 C 0.91153 0.27545 0.70213 0.0
C1302 C 0.91704 0.25489 0.6883 0.0
C1303 C 0.92262 0.25604 0.6616 0.0
C1304 C 0.92265 0.27774 0.64865 0.0
C1305 C 0.91717 0.29836 0.6624 0.0
H1306 H 0.92687 0.2401 0.65092 0.0
H1307 H 0.874 0.44141 0.78224 0.0
H1308 H 0.42888 0.13521 0.33919 0.0
H1309 H 0.40238 0.10342 0.32602 0.0
H1310 H 0.37465 0.14699 0.26386 0.0
H1311 H 0.40079 0.17907 0.27722 0.0
H1312 H 0.33991 0.12324 0.28787 0.0
H1313 H 0.41556 0.10462 0.2511 0.0
H1314 H 0.45842 0.09747 0.25185 0.0
H1315 H 0.44839 0.03969 0.30514 0.0
H1316 H 0.40548 0.04671 0.30499 0.0
H1317 H 0.29266 0.03303 0.20546 0.0
H1318 H 0.31408 0.06615 0.22479 0.0
H1319 H 0.3382 0.02127 0.28765 0.0
H1320 H 0.31696 0.98802 0.26841 0.0
H1321 H 0.37406 0.04543 0.26498 0.0
H1322 H 0.29756 0.06322 0.29951 0.0
H1323 H 0.25477 0.07054 0.29757 0.0
H1324 H 0.26639 0.12994 0.24697 0.0
H1325 H 0.30925 0.12277 0.2483 0.0
C1326 C 0.41708 0.13809 0.32278 0.0
C1327 C 0.41706 0.15961 0.30914 0.0
C1328 C 0.40199 0.11986 0.31524 0.0
C1329 C 0.38677 0.12272 0.29372 0.0
C1330 C 0.38627 0.1444 0.28049 0.0
C1331 C 0.40128 0.16268 0.28811 0.0
C1332 C 0.37183 0.10291 0.28458 0.0
C1333 C 0.34739 0.10629 0.2826 0.0
C1334 C 0.38155 0.08066 0.27819 0.0
C1335 C 0.40734 0.07635 0.27825 0.0
C1336 C 0.42252 0.09051 0.26314 0.0
C1337 C 0.44681 0.08646 0.26343 0.0
C1338 C 0.45613 0.06818 0.27859 0.0
C1339 C 0.44116 0.05387 0.29344 0.0
C1340 C 0.41684 0.05786 0.29325 0.0
C1341 C 0.30228 0.03026 0.22357 0.0
C1342 C 0.30316 0.00787 0.23536 0.0
C1343 C 0.31444 0.04924 0.23465 0.0
C1344 C 0.32764 0.04618 0.25772 0.0
C1345 C 0.32811 0.02399 0.26983 0.0
C1346 C 0.31589 0.00503 0.25884 0.0
C1347 C 0.34213 0.06574 0.26828 0.0
C1348 C 0.36654 0.06232 0.27043 0.0
C1349 C 0.33238 0.08796 0.27464 0.0
C1350 C 0.30661 0.09232 0.27381 0.0
C1351 C 0.29098 0.07772 0.28778 0.0
C1352 C 0.26671 0.08187 0.28683 0.0
C1353 C 0.25786 0.10066 0.27211 0.0
C1354 C 0.27327 0.11537 0.25835 0.0
C1355 C 0.29755 0.11129 0.25921 0.0
H1356 H 0.23907 0.10384 0.2714 0.0
H1357 H 0.47494 0.06506 0.27879 0.0
H1358 H 0.16468 0.6141 0.64935 0.0
H1359 H 0.13276 0.64131 0.66045 0.0
H1360 H 0.13623 0.61888 0.74138 0.0
H1361 H 0.16748 0.59112 0.73023 0.0
H1362 H 0.09277 0.6204 0.72705 0.0
H1363 H 0.15842 0.67339 0.71902 0.0
H1364 H 0.19235 0.69215 0.69714 0.0
H1365 H 0.14713 0.71692 0.63543 0.0
H1366 H 0.11296 0.69803 0.65678 0.0
H1367 H 0.03283 0.711 0.79162 0.0
H1368 H 0.06664 0.68985 0.77386 0.0
H1369 H 0.04046 0.70028 0.69524 0.0
H1370 H 0.00612 0.7213 0.71286 0.0
H1371 H 0.09364 0.70556 0.70491 0.0
H1372 H 0.02747 0.65267 0.71599 0.0
H1373 H 0.99442 0.6357 0.74115 0.0
H1374 H 0.04256 0.61188 0.80053 0.0
H1375 H 0.07585 0.62915 0.77598 0.0
C1376 C 0.15871 0.61509 0.66953 0.0
C1377 C 0.16858 0.60047 0.68892 0.0
C1378 C 0.14053 0.63072 0.67588 0.0
C1379 C 0.13221 0.63233 0.70182 0.0
C1380 C 0.14228 0.61791 0.72121 0.0
C1381 C 0.16019 0.60209 0.71483 0.0
C1382 C 0.11254 0.64843 0.70879 0.0
C1383 C 0.09315 0.63904 0.72236 0.0
C1384 C 0.11268 0.67271 0.70221 0.0
C1385 C 0.13319 0.68407 0.68934 0.0
C1386 C 0.15575 0.68267 0.70067 0.0
C1387 C 0.17502 0.69336 0.68839 0.0
C1388 C 0.17192 0.70565 0.66487 0.0
C1389 C 0.14952 0.70735 0.65362 0.0
C1390 C 0.13019 0.69667 0.66581 0.0
C1391 C 0.03438 0.70923 0.7705 0.0
C1392 C 0.01663 0.71762 0.75364 0.0
C1393 C 0.05375 0.69714 0.76042 0.0
C1394 C 0.05585 0.69341 0.73332 0.0
C1395 C 0.03905 0.70305 0.71623 0.0
C1396 C 0.01945 0.71496 0.72634 0.0
C1397 C 0.07436 0.67746 0.72338 0.0
C1398 C 0.09337 0.68686 0.70929 0.0
C1399 C 0.07408 0.65323 0.72974 0.0
C1400 C 0.05413 0.6424 0.74426 0.0
C1401 C 0.03099 0.64399 0.73452 0.0
C1402 C 0.01221 0.6343 0.74866 0.0
C1403 C 0.01639 0.62276 0.77244 0.0
C1404 C 0.03936 0.62085 0.78211 0.0
C1405 C 0.05818 0.63057 0.76809 0.0
H1406 H 0.00184 0.61525 0.78335 0.0
H1407 H 0.18686 0.71392 0.65539 0.0
H1408 H 0.23403 0.51477 0.6109 0.0
H1409 H 0.23601 0.50724 0.56376 0.0
H1410 H 0.16356 0.52915 0.55548 0.0
H1411 H 0.16121 0.53586 0.60288 0.0
H1412 H 0.17076 0.49211 0.52669 0.0
H1413 H 0.21112 0.5654 0.53786 0.0
H1414 H 0.24024 0.59278 0.55689 0.0
H1415 H 0.29665 0.54879 0.52941 0.0
H1416 H 0.26785 0.52098 0.51051 0.0
H1417 H 0.17525 0.50643 0.38793 0.0
H1418 H 0.17298 0.51563 0.43479 0.0
H1419 H 0.24058 0.48275 0.44711 0.0
H1420 H 0.243 0.47335 0.40026 0.0
H1421 H 0.23532 0.52636 0.47315 0.0
H1422 H 0.19343 0.45296 0.46238 0.0
H1423 H 0.16347 0.42696 0.44261 0.0
H1424 H 0.10864 0.47358 0.46863 0.0
H1425 H 0.13833 0.50006 0.48823 0.0
C1426 C 0.2185 0.51796 0.59905 0.0
C1427 C 0.19749 0.52602 0.61057 0.0
C1428 C 0.2197 0.51378 0.57206 0.0
C1429 C 0.20007 0.51808 0.55595 0.0
C1430 C 0.17895 0.52578 0.56749 0.0
C1431 C 0.17764 0.52964 0.59457 0.0
C1432 C 0.20156 0.51436 0.52712 0.0
C1433 C 0.18468 0.49992 0.51496 0.0
C1434 C 0.21993 0.52422 0.51179 0.0
C1435 C 0.23731 0.541 0.52297 0.0
C1436 C 0.22973 0.56149 0.53603 0.0
C1437 C 0.24618 0.57709 0.54677 0.0
C1438 C 0.27027 0.5725 0.54441 0.0
C1439 C 0.27797 0.55232 0.53124 0.0
C1440 C 0.2616 0.53664 0.52048 0.0
C1441 C 0.18971 0.50125 0.40056 0.0
C1442 C 0.20925 0.48904 0.39042 0.0
C1443 C 0.18834 0.50647 0.42733 0.0
C1444 C 0.20652 0.49967 0.44438 0.0
C1445 C 0.22636 0.4881 0.43423 0.0
C1446 C 0.22767 0.48269 0.40749 0.0
C1447 C 0.2046 0.50414 0.47294 0.0
C1448 C 0.22138 0.51869 0.48497 0.0
C1449 C 0.186 0.49463 0.48809 0.0
C1450 C 0.16812 0.47861 0.47653 0.0
C1451 C 0.175 0.45776 0.4637 0.0
C1452 C 0.15807 0.44292 0.45256 0.0
C1453 C 0.13417 0.44865 0.4543 0.0
C1454 C 0.12716 0.46919 0.46727 0.0
C1455 C 0.14403 0.48411 0.47841 0.0
H1456 H 0.12108 0.43714 0.44566 0.0
H1457 H 0.28298 0.5846 0.55275 0.0
H1458 H 0.53964 0.79122 0.39856 0.0
H1459 H 0.53419 0.79117 0.4461 0.0
H1460 H 0.47119 0.74937 0.43734 0.0
H1461 H 0.47638 0.74948 0.38959 0.0
H1462 H 0.46534 0.78529 0.47266 0.0
H1463 H 0.52116 0.72358 0.45676 0.0
H1464 H 0.55739 0.70593 0.43866 0.0
H1465 H 0.59943 0.75479 0.48285 0.0
H1466 H 0.56342 0.77298 0.50092 0.0
H1467 H 0.45587 0.74949 0.60586 0.0
H1468 H 0.46058 0.74916 0.55816 0.0
H1469 H 0.52289 0.79224 0.56521 0.0
H1470 H 0.51836 0.79265 0.61301 0.0
H1471 H 0.52877 0.75515 0.53076 0.0
H1472 H 0.47297 0.81707 0.54632 0.0
H1473 H 0.43677 0.83475 0.56444 0.0
H1474 H 0.3947 0.78539 0.52097 0.0
H1475 H 0.43069 0.76718 0.50288 0.0
C1476 C 0.52458 0.78205 0.40669 0.0
C1477 C 0.5085 0.77024 0.39029 0.0
C1478 C 0.52155 0.78197 0.43389 0.0
C1479 C 0.50245 0.77002 0.44525 0.0
C1480 C 0.48608 0.75864 0.42894 0.0
C1481 C 0.48911 0.75867 0.40168 0.0
C1482 C 0.49974 0.76932 0.47417 0.0
C1483 C 0.47905 0.77839 0.48537 0.0
C1484 C 0.51787 0.76077 0.49071 0.0
C1485 C 0.53958 0.74979 0.48 0.0
C1486 C 0.53812 0.73069 0.46246 0.0
C1487 C 0.55862 0.72057 0.45223 0.0
C1488 C 0.58069 0.72928 0.45955 0.0
C1489 C 0.58232 0.74809 0.47717 0.0
C1490 C 0.56187 0.7583 0.48743 0.0
C1491 C 0.47062 0.75886 0.5973 0.0
C1492 C 0.4867 0.77118 0.61323 0.0
C1493 C 0.47322 0.75872 0.57003 0.0
C1494 C 0.49194 0.77087 0.55818 0.0
C1495 C 0.50829 0.78279 0.57401 0.0
C1496 C 0.50563 0.78306 0.6013 0.0
C1497 C 0.49441 0.77117 0.52923 0.0
C1498 C 0.51505 0.76201 0.51805 0.0
C1499 C 0.47623 0.77962 0.51271 0.0
C1500 C 0.45454 0.7906 0.52346 0.0
C1501 C 0.45601 0.80985 0.5408 0.0
C1502 C 0.43552 0.82 0.55103 0.0
C1503 C 0.41345 0.81116 0.54392 0.0
C1504 C 0.41181 0.7922 0.5265 0.0
C1505 C 0.43225 0.78197 0.51623 0.0
H1506 H 0.39761 0.81904 0.55186 0.0
H1507 H 0.59654 0.72141 0.45161 0.0
H1508 H 0.79423 0.53494 0.39357 0.0
H1509 H 0.79606 0.5287 0.44089 0.0
H1510 H 0.75088 0.46792 0.43336 0.0
H1511 H 0.74856 0.47433 0.38586 0.0
H1512 H 0.7375 0.49502 0.4738 0.0
H1513 H 0.81007 0.46156 0.44374 0.0
H1514 H 0.84778 0.46067 0.41968 0.0
H1515 H 0.87312 0.51897 0.46543 0.0
H1516 H 0.83543 0.52042 0.48953 0.0
H1517 H 0.75877 0.45277 0.60332 0.0
H1518 H 0.75592 0.45685 0.55567 0.0
H1519 H 0.80076 0.51819 0.55871 0.0
H1520 H 0.80406 0.51399 0.60636 0.0
H1521 H 0.81411 0.48901 0.52028 0.0
H1522 H 0.74096 0.52303 0.54947 0.0
H1523 H 0.70319 0.52381 0.57341 0.0
H1524 H 0.67897 0.46404 0.52927 0.0
H1525 H 0.71673 0.46272 0.50529 0.0
C1526 C 0.78472 0.52019 0.40191 0.0
C1527 C 0.7713 0.50507 0.38592 0.0
C1528 C 0.78586 0.51659 0.42899 0.0
C1529 C 0.77387 0.49765 0.44062 0.0
C1530 C 0.76032 0.48261 0.42476 0.0
C1531 C 0.75907 0.48626 0.39763 0.0
C1532 C 0.77523 0.49385 0.46939 0.0
C1533 C 0.75423 0.49333 0.48394 0.0
C1534 C 0.79709 0.49214 0.48265 0.0
C1535 C 0.81984 0.49122 0.46829 0.0
C1536 C 0.82362 0.4743 0.44854 0.0
C1537 C 0.845 0.47367 0.43492 0.0
C1538 C 0.86281 0.48978 0.44098 0.0
C1539 C 0.8593 0.50651 0.46074 0.0
C1540 C 0.83794 0.50723 0.47441 0.0
C1541 C 0.76795 0.4672 0.59389 0.0
C1542 C 0.78162 0.48309 0.60864 0.0
C1543 C 0.76623 0.46955 0.56665 0.0
C1544 C 0.77794 0.48796 0.55367 0.0
C1545 C 0.79158 0.50385 0.56834 0.0
C1546 C 0.79339 0.50146 0.59558 0.0
C1547 C 0.77639 0.4904 0.52472 0.0
C1548 C 0.79737 0.49063 0.51014 0.0
C1549 C 0.75451 0.4918 0.51145 0.0
C1550 C 0.73176 0.49264 0.52577 0.0
C1551 C 0.72765 0.50994 0.54501 0.0
C1552 C 0.70623 0.5105 0.55856 0.0
C1553 C 0.68871 0.49395 0.55292 0.0
C1554 C 0.69256 0.47684 0.53365 0.0
C1555 C 0.71396 0.47619 0.52006 0.0
H1556 H 0.67214 0.49441 0.56344 0.0
H1557 H 0.87935 0.48927 0.43041 0.0
H1558 H 0.50818 0.26355 0.39181 0.0
H1559 H 0.51493 0.26199 0.43921 0.0
H1560 H 0.46295 0.20687 0.44632 0.0
H1561 H 0.45584 0.20854 0.39904 0.0
H1562 H 0.4575 0.23921 0.48414 0.0
H1563 H 0.52163 0.19436 0.44834 0.0
H1564 H 0.55598 0.18701 0.41983 0.0
H1565 H 0.59286 0.24467 0.4558 0.0
H1566 H 0.55858 0.25258 0.4843 0.0
H1567 H 0.48722 0.19763 0.61139 0.0
H1568 H 0.48053 0.2008 0.5641 0.0
H1569 H 0.5309 0.2576 0.55976 0.0
H1570 H 0.53783 0.25447 0.60704 0.0
H1571 H 0.53735 0.22529 0.52069 0.0
H1572 H 0.47318 0.26951 0.55714 0.0
H1573 H 0.43881 0.27638 0.58577 0.0
H1574 H 0.40199 0.21929 0.54863 0.0
H1575 H 0.43628 0.21185 0.52001 0.0
C1576 C 0.49817 0.2511 0.40345 0.0
C1577 C 0.48152 0.23613 0.39164 0.0
C1578 C 0.50212 0.25017 0.43053 0.0
C1579 C 0.48962 0.23413 0.44625 0.0
C1580 C 0.4728 0.21937 0.43455 0.0
C1581 C 0.46881 0.22031 0.40751 0.0
C1582 C 0.49399 0.23277 0.47493 0.0
C1583 C 0.47491 0.23588 0.49213 0.0
C1584 C 0.5168 0.22894 0.48535 0.0
C1585 C 0.53744 0.22421 0.46826 0.0
C1586 C 0.53699 0.2056 0.45002 0.0
C1587 C 0.55646 0.20131 0.43389 0.0
C1588 C 0.57656 0.21541 0.43595 0.0
C1589 C 0.57726 0.23379 0.4542 0.0
C1590 C 0.55782 0.23817 0.47036 0.0
C1591 C 0.49687 0.21081 0.60041 0.0
C1592 C 0.51301 0.22585 0.613 0.0
C1593 C 0.49296 0.21266 0.57339 0.0
C1594 C 0.50506 0.22959 0.55849 0.0
C1595 C 0.52136 0.24444 0.57093 0.0
C1596 C 0.52523 0.24267 0.59796 0.0
C1597 C 0.50085 0.23165 0.52985 0.0
C1598 C 0.51996 0.22867 0.51268 0.0
C1599 C 0.47806 0.23553 0.51946 0.0
C1600 C 0.45739 0.23998 0.53661 0.0
C1601 C 0.45783 0.25829 0.55523 0.0
C1602 C 0.43835 0.26231 0.57143 0.0
C1603 C 0.41825 0.24824 0.56907 0.0
C1604 C 0.41758 0.23015 0.55046 0.0
C1605 C 0.43702 0.22604 0.53423 0.0
H1606 H 0.40319 0.25139 0.58163 0.0
H1607 H 0.59162 0.21205 0.42345 0.0
H1608 H 0.69696 0.98809 0.11124 0.0
H1609 H 0.69947 0.98246 0.06378 0.0
H1610 H 0.74864 0.04023 0.05826 0.0
H1611 H 0.74596 0.04624 0.10574 0.0
H1612 H 0.71546 0.04333 0.02104 0.0
H1613 H 0.76745 0.98346 0.05278 0.0
H1614 H 0.77946 0.94945 0.07975 0.0
H1615 H 0.72501 0.90734 0.04472 0.0
H1616 H 0.71245 0.94121 0.01778 0.0
H1617 H 0.74953 0.01936 0.88891 0.0
H1618 H 0.75 0.02541 0.93647 0.0
H1619 H 0.69907 0.96964 0.94607 0.0
H1620 H 0.69863 0.96332 0.8986 0.0
H1621 H 0.73494 0.96598 0.98115 0.0
H1622 H 0.68232 0.02652 0.95047 0.0
H1623 H 0.67057 0.06062 0.92349 0.0
H1624 H 0.72688 0.10157 0.95655 0.0
H1625 H 0.73917 0.06758 0.98348 0.0
C1626 C 0.70839 -0.00045 0.09998 0.0
C1627 C 0.72128 0.0176 0.11228 0.0
C1628 C 0.70988 0.99624 0.07285 0.0
C1629 C 0.72444 0.01076 0.05752 0.0
C1630 C 0.73732 0.02881 0.06973 0.0
C1631 C 0.73581 0.03217 0.09687 0.0
C1632 C 0.72576 0.00744 0.02866 0.0
C1633 C 0.72009 0.02652 0.0123 0.0
C1634 C 0.73134 0.98538 0.0173 0.0
C1635 C 0.73887 0.96495 0.03344 0.0
C1636 C 0.75791 0.967 0.05098 0.0
C1637 C 0.76484 0.94774 0.06623 0.0
C1638 C 0.75297 0.92626 0.064 0.0
C1639 C 0.73417 0.92399 0.04645 0.0
C1640 C 0.72715 0.94321 0.03117 0.0
C1641 C 0.7384 0.00841 0.90112 0.0
C1642 C 0.724 0.9909 0.88996 0.0
C1643 C 0.73864 0.01194 0.92829 0.0
C1644 C 0.72443 0.9981 0.94476 0.0
C1645 C 0.71017 0.98051 0.9337 0.0
C1646 C 0.70989 0.97699 0.90655 0.0
C1647 C 0.72448 0.00181 0.97357 0.0
C1648 C 0.73041 0.98281 0.98991 0.0
C1649 C 0.71921 0.02396 0.98491 0.0
C1650 C 0.71181 0.04442 0.96878 0.0
C1651 C 0.69232 0.04273 0.95182 0.0
C1652 C 0.68554 0.06205 0.93657 0.0
C1653 C 0.69801 0.08323 0.93825 0.0
C1654 C 0.71726 0.08514 0.95524 0.0
C1655 C 0.72412 0.06586 0.97052 0.0
H1656 H 0.69273 0.09817 0.92642 0.0
H1657 H 0.75837 0.91137 0.07583 0.0
H1658 H 0.04208 0.27536 0.90003 0.0
H1659 H 0.03803 0.27459 0.94777 0.0
H1660 H 0.96589 0.25168 0.93996 0.0
H1661 H 0.96971 0.25256 0.89208 0.0
H1662 H 0.9706 0.28694 0.97601 0.0
H1663 H 0.00757 0.21288 0.9575 0.0
H1664 H 0.03749 0.18651 0.93828 0.0
H1665 H 0.09167 0.22138 0.98251 0.0
H1666 H 0.06211 0.2482 0.00172 0.0
H1667 H 0.954 0.25548 0.10941 0.0
H1668 H 0.9574 0.25362 0.06163 0.0
H1669 H 0.03008 0.2754 0.0668 0.0
H1670 H 0.02694 0.27704 0.11467 0.0
H1671 H 0.02446 0.23979 0.03197 0.0
H1672 H 0.98791 0.31441 0.0496 0.0
H1673 H 0.95822 0.34106 0.06879 0.0
H1674 H 0.90351 0.30548 0.0261 0.0
H1675 H 0.93285 0.27838 0.00694 0.0
C1676 C 0.02534 0.27013 0.90843 0.0
C1677 C 0.00622 0.26395 0.89224 0.0
C1678 C 0.02309 0.26961 0.93573 0.0
C1679 C 0.00174 0.26283 0.94739 0.0
C1680 C 0.98254 0.2569 0.93133 0.0
C1681 C 0.98478 0.25735 0.90398 0.0
C1682 C -0.0006 0.26225 0.97637 0.0
C1683 C 0.98212 0.27635 0.98824 0.0
C1684 C 0.01483 0.24885 0.99231 0.0
C1685 C 0.03265 0.23269 0.98086 0.0
C1686 C 0.02589 0.21505 0.96297 0.0
C1687 C 0.04278 0.2 0.9521 0.0
C1688 C 0.06647 0.20231 0.95912 0.0
C1689 C 0.07331 0.21964 0.97707 0.0
C1690 C 0.05649 0.23475 0.98797 0.0
C1691 C 0.97074 0.25982 0.10042 0.0
C1692 C 0.99018 0.26653 0.11585 0.0
C1693 C 0.97262 0.25882 0.07309 0.0
C1694 C 0.99391 0.26466 0.06066 0.0
C1695 C 0.01348 0.27087 0.07602 0.0
C1696 C 0.01163 0.27186 0.10337 0.0
C1697 C 0.99569 0.26453 0.03161 0.0
C1698 C 0.01288 0.25031 0.01973 0.0
C1699 C 0.98021 0.27786 0.01566 0.0
C1700 C 0.96255 0.29421 0.02705 0.0
C1701 C 0.96952 0.31215 0.04447 0.0
C1702 C 0.95276 0.32736 0.05531 0.0
C1703 C 0.92899 0.32492 0.04872 0.0
C1704 C 0.92193 0.30732 0.03122 0.0
C1705 C 0.93862 0.29204 0.02035 0.0
H1706 H 0.91604 0.33672 0.05714 0.0
H1707 H 0.07952 0.19064 0.95068 0.0
H1708 H 0.26612 0.0401 0.88513 0.0
H1709 H 0.26279 0.03553 0.93265 0.0
H1710 H 0.29966 0.9692 0.92817 0.0
H1711 H 0.30287 0.97348 0.88045 0.0
H1712 H 0.26125 0.96684 0.9604 0.0
H1713 H 0.32801 0.01798 0.94867 0.0
H1714 H 0.34893 0.05285 0.93161 0.0
H1715 H 0.30051 0.0983 0.97202 0.0
H1716 H 0.27908 0.06368 0.98902 0.0
H1717 H 0.28764 0.95378 0.09522 0.0
H1718 H 0.29013 0.95819 0.04764 0.0
H1719 H 0.25729 0.02658 0.05319 0.0
H1720 H 0.25528 0.02255 0.101 0.0
H1721 H 0.29329 0.02801 0.02022 0.0
H1722 H 0.22646 0.97752 0.0321 0.0
H1723 H 0.20483 0.94299 0.04891 0.0
H1724 H 0.25228 0.89679 0.00812 0.0
H1725 H 0.27441 0.93106 0.99135 0.0
C1726 C 0.2735 0.0245 0.8942 0.0
C1727 C 0.28486 0.00718 0.87901 0.0
C1728 C 0.27165 0.02197 0.92139 0.0
C1729 C 0.28123 0.00217 0.93395 0.0
C1730 C 0.2922 0.98464 0.91883 0.0
C1731 C 0.29407 0.98715 0.89159 0.0
C1732 C 0.27986 -0.00017 0.9629 0.0
C1733 C 0.26853 0.98004 0.97352 0.0
C1734 C 0.28882 0.01739 0.97993 0.0
C1735 C 0.30181 0.03823 0.96992 0.0
C1736 C 0.32172 0.03541 0.95376 0.0
C1737 C 0.33369 0.05513 0.94413 0.0
C1738 C 0.32602 0.07778 0.95067 0.0
C1739 C 0.30641 0.08074 0.96694 0.0
C1740 C 0.29436 0.06108 0.9766 0.0
C1741 C 0.28089 0.96976 0.08634 0.0
C1742 C 0.27115 0.98778 0.10188 0.0
C1743 C 0.28225 0.9722 0.05911 0.0
C1744 C 0.27356 0.99255 0.0468 0.0
C1745 C 0.26405 0.01069 0.06227 0.0
C1746 C 0.26286 0.00834 0.08958 0.0
C1747 C 0.27468 0.99499 0.0178 0.0
C1748 C 0.28598 0.0148 0.00715 0.0
C1749 C 0.26558 0.9775 0.00073 0.0
C1750 C 0.25222 0.95686 0.01066 0.0
C1751 C 0.23239 0.96 0.02686 0.0
C1752 C 0.22002 0.94047 0.03636 0.0
C1753 C 0.22721 0.91771 0.02964 0.0
C1754 C 0.24675 0.91443 0.01334 0.0
C1755 C 0.25919 0.9339 0.00381 0.0
H1756 H 0.21762 0.90262 0.03702 0.0
H1757 H 0.3353 0.09302 0.94319 0.0
H1758 H 0.02222 0.70545 0.88558 0.0
H1759 H 0.02684 0.70543 0.9333 0.0
H1760 H 0.95718 0.73489 0.94189 0.0
H1761 H 0.95262 0.73548 0.89419 0.0
H1762 H 0.98711 0.75706 0.97284 0.0
H1763 H 0.96859 0.67632 0.95496 0.0
H1764 H 0.97279 0.63767 0.93333 0.0
H1765 H 0.0431 0.63124 0.96367 0.0
H1766 H 0.03943 0.67002 0.98518 0.0
H1767 H 0.97536 0.73615 0.10986 0.0
H1768 H 0.96975 0.73453 0.06227 0.0
H1769 H 0.04142 0.71083 0.05253 0.0
H1770 H 0.04719 0.71228 0.1001 0.0
H1771 H 0.01 0.68541 0.02248 0.0
H1772 H 0.02805 0.76676 0.04001 0.0
H1773 H 0.02306 0.80518 0.06195 0.0
H1774 H 0.95233 0.80996 0.03246 0.0
H1775 H 0.95679 0.77138 0.01064 0.0
C1776 C 0.00785 0.71186 0.89762 0.0
C1777 C 0.98704 0.72044 0.88608 0.0
C1778 C 0.01047 0.71174 0.92491 0.0
C1779 C 0.99224 0.7199 0.94119 0.0
C1780 C 0.97147 0.7285 0.92971 0.0
C1781 C 0.96888 0.72876 0.90243 0.0
C1782 C 0.995 0.71999 0.97018 0.0
C1783 C 0.99177 0.7413 0.98372 0.0
C1784 C 0.00157 0.69955 0.98434 0.0
C1785 C 0.00381 0.67619 0.97147 0.0
C1786 C 0.98501 0.66675 0.95684 0.0
C1787 C 0.98729 0.6448 0.94464 0.0
C1788 C 0.00822 0.63203 0.94707 0.0
C1789 C 0.0269 0.64116 0.96177 0.0
C1790 C 0.02473 0.66312 0.974 0.0
C1791 C 0.98993 0.73056 0.09762 0.0
C1792 C 0.01176 0.72445 0.10876 0.0
C1793 C 0.9867 0.72971 0.07043 0.0
C1794 C 0.00524 0.72276 0.0539 0.0
C1795 C 0.02691 0.71626 0.06497 0.0
C1796 C 0.03019 0.7172 0.09214 0.0
C1797 C 0.00209 0.72244 0.02502 0.0
C1798 C 0.00528 0.70112 0.01154 0.0
C1799 C 0.99536 0.74283 0.01092 0.0
C1800 C 0.99268 0.76608 0.02391 0.0
C1801 C 0.01137 0.77592 0.03838 0.0
C1802 C 0.00865 0.79773 0.05076 0.0
C1803 C 0.98737 0.80997 0.04866 0.0
C1804 C 0.96879 0.80044 0.0341 0.0
C1805 C 0.97141 0.77861 0.02171 0.0
H1806 H 0.98529 0.82686 0.05826 0.0
H1807 H 0.00995 0.61504 0.9376 0.0
loop_
_geom_bond_atom_site_label_1
_geom_bond_atom_site_label_2
_geom_bond_distance
_geom_bond_site_symmetry_2
_ccdc_geom_bond_type
C0 O1 1.160 . S
C0 O7 1.185 . S
O1 C0 1.160 . S
O2 Zn3 1.899 . S
O2 C10 1.284 . S
Zn3 O2 1.899 . S
Zn3 O4 2.032 . S
Zn3 O7 2.086 . S
Zn3 O12 1.977 . S
O4 Zn3 2.032 . S
O4 C8 1.278 . S
C5 O6 1.203 . S
C5 O12 1.267 . S
O6 C5 1.203 . S
O7 C0 1.185 . S
O7 Zn3 2.086 . S
C8 O4 1.278 . S
C8 O9 1.211 . S
O9 C8 1.211 . S
C10 O2 1.284 . S
C10 O11 1.273 . S
O11 C10 1.273 . S
O12 Zn3 1.977 . S
O12 C5 1.267 . S
C13 O14 1.160 . S
C13 O20 1.185 . S
O14 C13 1.160 . S
O15 Zn16 1.899 . S
O15 C23 1.284 . S
Zn16 O15 1.899 . S
Zn16 O17 2.032 . S
Zn16 O20 2.086 . S
Zn16 O25 1.977 . S
O17 Zn16 2.032 . S
O17 C21 1.278 . S
C18 O19 1.203 . S
C18 O25 1.267 . S
O19 C18 1.203 . S
O20 C13 1.185 . S
O20 Zn16 2.086 . S
C21 O17 1.278 . S
C21 O22 1.211 . S
O22 C21 1.211 . S
C23 O15 1.284 . S
C23 O24 1.273 . S
O24 C23 1.273 . S
O25 Zn16 1.977 . S
O25 C18 1.267 . S
C26 O27 1.160 . S
C26 O33 1.185 . S
O27 C26 1.160 . S
O28 Zn29 1.899 . S
O28 C36 1.284 . S
Zn29 O28 1.899 . S
Zn29 O30 2.032 . S
Zn29 O33 2.086 . S
Zn29 O38 1.977 . S
O30 Zn29 2.032 . S
O30 C34 1.278 . S
C31 O32 1.203 . S
C31 O38 1.267 . S
O32 C31 1.203 . S
O33 C26 1.185 . S
O33 Zn29 2.086 . S
C34 O30 1.278 . S
C34 O35 1.211 . S
O35 C34 1.211 . S
C36 O28 1.284 . S
C36 O37 1.273 . S
O37 C36 1.273 . S
O38 Zn29 1.977 . S
O38 C31 1.267 . S
C39 O40 1.160 . S
C39 O46 1.185 . S
O40 C39 1.160 . S
O41 Zn42 1.899 . S
O41 C49 1.284 . S
Zn42 O41 1.899 . S
Zn42 O43 2.032 . S
Zn42 O46 2.086 . S
Zn42 O51 1.977 . S
O43 Zn42 2.032 . S
O43 C47 1.278 . S
C44 O45 1.203 . S
C44 O51 1.267 . S
O45 C44 1.203 . S
O46 C39 1.185 . S
O46 Zn42 2.086 . S
C47 O43 1.278 . S
C47 O48 1.211 . S
O48 C47 1.211 . S
C49 O41 1.284 . S
C49 O50 1.273 . S
O50 C49 1.273 . S
O51 Zn42 1.977 . S
O51 C44 1.267 . S
C52 O53 1.160 . S
C52 O59 1.185 . S
O53 C52 1.160 . S
O54 Zn55 1.899 . S
O54 C62 1.284 . S
Zn55 O54 1.899 . S
Zn55 O56 2.032 . S
Zn55 O59 2.086 . S
Zn55 O64 1.977 . S
O56 Zn55 2.032 . S
O56 C60 1.278 . S
C57 O58 1.203 . S
C57 O64 1.267 . S
O58 C57 1.203 . S
O59 C52 1.185 . S
O59 Zn55 2.086 . S
C60 O56 1.278 . S
C60 O61 1.211 . S
O61 C60 1.211 . S
C62 O54 1.284 . S
C62 O63 1.273 . S
O63 C62 1.273 . S
O64 Zn55 1.977 . S
O64 C57 1.267 . S
C65 O66 1.160 . S
C65 O72 1.185 . S
O66 C65 1.160 . S
O67 Zn68 1.899 . S
O67 C75 1.284 . S
Zn68 O67 1.899 . S
Zn68 O69 2.032 . S
Zn68 O72 2.086 . S
Zn68 O77 1.977 . S
O69 Zn68 2.032 . S
O69 C73 1.278 . S
C70 O71 1.203 . S
C70 O77 1.267 . S
O71 C70 1.203 . S
O72 C65 1.185 . S
O72 Zn68 2.086 . S
C73 O69 1.278 . S
C73 O74 1.211 . S
O74 C73 1.211 . S
C75 O67 1.284 . S
C75 O76 1.273 . S
O76 C75 1.273 . S
O77 Zn68 1.977 . S
O77 C70 1.267 . S
C78 O79 1.160 . S
C78 O85 1.185 . S
O79 C78 1.160 . S
O80 Zn81 1.899 . S
O80 C88 1.284 . S
Zn81 O80 1.899 . S
Zn81 O82 2.032 . S
Zn81 O85 2.086 . S
Zn81 O90 1.977 . S
O82 Zn81 2.032 . S
O82 C86 1.278 . S
C83 O84 1.203 . S
C83 O90 1.267 . S
O84 C83 1.203 . S
O85 C78 1.185 . S
O85 Zn81 2.086 . S
C86 O82 1.278 . S
C86 O87 1.211 . S
O87 C86 1.211 . S
C88 O80 1.284 . S
C88 O89 1.273 . S
O89 C88 1.273 . S
O90 Zn81 1.977 . S
O90 C83 1.267 . S
C91 O92 1.160 . S
C91 O98 1.185 . S
O92 C91 1.160 . S
O93 Zn94 1.899 . S
O93 C101 1.284 . S
Zn94 O93 1.899 . S
Zn94 O95 2.032 . S
Zn94 O98 2.086 . S
Zn94 O103 1.977 . S
O95 Zn94 2.032 . S
O95 C99 1.278 . S
C96 O97 1.203 . S
C96 O103 1.267 . S
O97 C96 1.203 . S
O98 C91 1.185 . S
O98 Zn94 2.086 . S
C99 O95 1.278 . S
C99 O100 1.211 . S
O100 C99 1.211 . S
C101 O93 1.284 . S
C101 O102 1.273 . S
O102 C101 1.273 . S
O103 Zn94 1.977 . S
O103 C96 1.267 . S
C104 O105 1.160 . S
C104 O111 1.185 . S
O105 C104 1.160 . S
O106 Zn107 1.899 . S
O106 C114 1.284 . S
Zn107 O106 1.899 . S
Zn107 O108 2.032 . S
Zn107 O111 2.086 . S
Zn107 O116 1.977 . S
O108 Zn107 2.032 . S
O108 C112 1.278 . S
C109 O110 1.203 . S
C109 O116 1.267 . S
O110 C109 1.203 . S
O111 C104 1.185 . S
O111 Zn107 2.086 . S
C112 O108 1.278 . S
C112 O113 1.211 . S
O113 C112 1.211 . S
C114 O106 1.284 . S
C114 O115 1.273 . S
O115 C114 1.273 . S
O116 Zn107 1.977 . S
O116 C109 1.267 . S
C117 O118 1.160 . S
C117 O124 1.185 . S
O118 C117 1.160 . S
O119 Zn120 1.899 . S
O119 C127 1.284 . S
Zn120 O119 1.899 . S
Zn120 O121 2.032 . S
Zn120 O124 2.086 . S
Zn120 O129 1.977 . S
O121 Zn120 2.032 . S
O121 C125 1.278 . S
C122 O123 1.203 . S
C122 O129 1.267 . S
O123 C122 1.203 . S
O124 C117 1.185 . S
O124 Zn120 2.086 . S
C125 O121 1.278 . S
C125 O126 1.211 . S
O126 C125 1.211 . S
C127 O119 1.284 . S
C127 O128 1.273 . S
O128 C127 1.273 . S
O129 Zn120 1.977 . S
O129 C122 1.267 . S
C130 O131 1.160 . S
C130 O137 1.185 . S
O131 C130 1.160 . S
O132 Zn133 1.899 . S
O132 C140 1.284 . S
Zn133 O132 1.899 . S
Zn133 O134 2.032 . S
Zn133 O137 2.086 . S
Zn133 O142 1.977 . S
O134 Zn133 2.032 . S
O134 C138 1.278 . S
C135 O136 1.203 . S
C135 O142 1.267 . S
O136 C135 1.203 . S
O137 C130 1.185 . S
O137 Zn133 2.086 . S
C138 O134 1.278 . S
C138 O139 1.211 . S
O139 C138 1.211 . S
C140 O132 1.284 . S
C140 O141 1.273 . S
O141 C140 1.273 . S
O142 Zn133 1.977 . S
O142 C135 1.267 . S
C143 O144 1.160 . S
C143 O150 1.185 . S
O144 C143 1.160 . S
O145 Zn146 1.899 . S
O145 C153 1.284 . S
Zn146 O145 1.899 . S
Zn146 O147 2.032 . S
Zn146 O150 2.086 . S
Zn146 O155 1.977 . S
O147 Zn146 2.032 . S
O147 C151 1.278 . S
C148 O149 1.203 . S
C148 O155 1.267 . S
O149 C148 1.203 . S
O150 C143 1.185 . S
O150 Zn146 2.086 . S
C151 O147 1.278 . S
C151 O152 1.211 . S
O152 C151 1.211 . S
C153 O145 1.284 . S
C153 O154 1.273 . S
O154 C153 1.273 . S
O155 Zn146 1.977 . S
O155 C148 1.267 . S
C156 O157 1.160 . S
C156 O163 1.185 . S
O157 C156 1.160 . S
O158 Zn159 1.899 . S
O158 C166 1.284 . S
Zn159 O158 1.899 . S
Zn159 O160 2.032 . S
Zn159 O163 2.086 . S
Zn159 O168 1.977 . S
O160 Zn159 2.032 . S
O160 C164 1.278 . S
C161 O162 1.203 . S
C161 O168 1.267 . S
O162 C161 1.203 . S
O163 C156 1.185 . S
O163 Zn159 2.086 . S
C164 O160 1.278 . S
C164 O165 1.211 . S
O165 C164 1.211 . S
C166 O158 1.284 . S
C166 O167 1.273 . S
O167 C166 1.273 . S
O168 Zn159 1.977 . S
O168 C161 1.267 . S
C169 O170 1.160 . S
C169 O176 1.185 . S
O170 C169 1.160 . S
O171 Zn172 1.899 . S
O171 C179 1.284 . S
Zn172 O171 1.899 . S
Zn172 O173 2.032 . S
Zn172 O176 2.086 . S
Zn172 O181 1.977 . S
O173 Zn172 2.032 . S
O173 C177 1.278 . S
C174 O175 1.203 . S
C174 O181 1.267 . S
O175 C174 1.203 . S
O176 C169 1.185 . S
O176 Zn172 2.086 . S
C177 O173 1.278 . S
C177 O178 1.211 . S
O178 C177 1.211 . S
C179 O171 1.284 . S
C179 O180 1.273 . S
O180 C179 1.273 . S
O181 Zn172 1.977 . S
O181 C174 1.267 . S
C182 O183 1.160 . S
C182 O189 1.185 . S
O183 C182 1.160 . S
O184 Zn185 1.899 . S
O184 C192 1.284 . S
Zn185 O184 1.899 . S
Zn185 O186 2.032 . S
Zn185 O189 2.086 . S
Zn185 O194 1.977 . S
O186 Zn185 2.032 . S
O186 C190 1.278 . S
C187 O188 1.203 . S
C187 O194 1.267 . S
O188 C187 1.203 . S
O189 C182 1.185 . S
O189 Zn185 2.086 . S
C190 O186 1.278 . S
C190 O191 1.211 . S
O191 C190 1.211 . S
C192 O184 1.284 . S
C192 O193 1.273 . S
O193 C192 1.273 . S
O194 Zn185 1.977 . S
O194 C187 1.267 . S
C195 O196 1.160 . S
C195 O202 1.185 . S
O196 C195 1.160 . S
O197 Zn198 1.899 . S
O197 C205 1.284 . S
Zn198 O197 1.899 . S
Zn198 O199 2.032 . S
Zn198 O202 2.086 . S
Zn198 O207 1.977 . S
O199 Zn198 2.032 . S
O199 C203 1.278 . S
C200 O201 1.203 . S
C200 O207 1.267 . S
O201 C200 1.203 . S
O202 C195 1.185 . S
O202 Zn198 2.086 . S
C203 O199 1.278 . S
C203 O204 1.211 . S
O204 C203 1.211 . S
C205 O197 1.284 . S
C205 O206 1.273 . S
O206 C205 1.273 . S
O207 Zn198 1.977 . S
O207 C200 1.267 . S
H208 C226 0.951 . S
H209 C228 0.951 . S
H210 C230 0.950 . S
H211 C231 0.950 . S
H212 C233 0.950 . S
H213 C236 0.950 . S
H214 C237 0.950 . S
H215 C239 0.950 . S
H216 C240 0.950 . S
H217 C241 0.951 . S
H218 C243 0.951 . S
H219 C245 0.950 . S
H220 C246 0.950 . S
H221 C248 0.950 . S
H222 C251 0.950 . S
H223 C252 0.950 . S
H224 C254 0.950 . S
H225 C255 0.950 . S
C226 H208 0.951 . S
C226 C227 1.366 . S
C226 C228 1.388 . S
C227 C226 1.366 . S
C227 C231 1.385 . S
C228 H209 0.951 . S
C228 C226 1.388 . S
C228 C229 1.366 . S
C229 C228 1.366 . S
C229 C230 1.414 . S
C229 C232 1.499 . S
C230 H210 0.950 . S
C230 C229 1.414 . S
C230 C231 1.374 . S
C231 H211 0.950 . S
C231 C227 1.385 . S
C231 C230 1.374 . S
C232 C229 1.499 . S
C232 C233 1.373 . S
C232 C234 1.389 . S
C233 H212 0.950 . S
C233 C232 1.373 . S
C233 C249 1.377 . S
C234 C232 1.389 . S
C234 C235 1.524 . S
C234 C248 1.377 . S
C235 C234 1.524 . S
C235 C236 1.397 . S
C235 C240 1.363 . S
C236 H213 0.950 . S
C236 C235 1.397 . S
C236 C237 1.334 . S
C237 H214 0.950 . S
C237 C236 1.334 . S
C237 C238 1.287 . S
C238 C237 1.287 . S
C238 C239 1.524 . S
C238 H257 0.913 . S
C239 H215 0.950 . S
C239 C238 1.524 . S
C239 C240 1.415 . S
C240 H216 0.950 . S
C240 C235 1.363 . S
C240 C239 1.415 . S
C241 H217 0.951 . S
C241 C242 1.366 . S
C241 C243 1.388 . S
C242 C241 1.366 . S
C242 C246 1.385 . S
C243 H218 0.951 . S
C243 C241 1.388 . S
C243 C244 1.366 . S
C244 C243 1.366 . S
C244 C245 1.414 . S
C244 C247 1.499 . S
C245 H219 0.950 . S
C245 C244 1.414 . S
C245 C246 1.374 . S
C246 H220 0.950 . S
C246 C242 1.385 . S
C246 C245 1.374 . S
C247 C244 1.499 . S
C247 C248 1.373 . S
C247 C249 1.389 . S
C248 H221 0.950 . S
C248 C234 1.377 . S
C248 C247 1.373 . S
C249 C233 1.377 . S
C249 C247 1.389 . S
C249 C250 1.524 . S
C250 C249 1.524 . S
C250 C251 1.397 . S
C250 C255 1.363 . S
C251 H222 0.950 . S
C251 C250 1.397 . S
C251 C252 1.334 . S
C252 H223 0.950 . S
C252 C251 1.334 . S
C252 C253 1.287 . S
C253 C252 1.287 . S
C253 C254 1.524 . S
C253 H256 0.999 . S
C254 H224 0.950 . S
C254 C253 1.524 . S
C254 C255 1.415 . S
C255 H225 0.950 . S
C255 C250 1.363 . S
C255 C254 1.415 . S
H256 C253 0.999 . S
H257 C238 0.913 . S
H258 C276 0.951 . S
H259 C278 0.951 . S
H260 C280 0.950 . S
H261 C281 0.950 . S
H262 C283 0.950 . S
H263 C286 0.950 . S
H264 C287 0.950 . S
H265 C289 0.950 . S
H266 C290 0.950 . S
H267 C291 0.951 . S
H268 C293 0.951 . S
H269 C295 0.950 . S
H270 C296 0.950 . S
H271 C298 0.950 . S
H272 C301 0.950 . S
H273 C302 0.950 . S
H274 C304 0.950 . S
H275 C305 0.950 . S
C276 H258 0.951 . S
C276 C277 1.366 . S
C276 C278 1.388 . S
C277 C276 1.366 . S
C277 C281 1.385 . S
C278 H259 0.951 . S
C278 C276 1.388 . S
C278 C279 1.366 . S
C279 C278 1.366 . S
C279 C280 1.414 . S
C279 C282 1.499 . S
C280 H260 0.950 . S
C280 C279 1.414 . S
C280 C281 1.374 . S
C281 H261 0.950 . S
C281 C277 1.385 . S
C281 C280 1.374 . S
C282 C279 1.499 . S
C282 C283 1.373 . S
C282 C284 1.389 . S
C283 H262 0.950 . S
C283 C282 1.373 . S
C283 C299 1.377 . S
C284 C282 1.389 . S
C284 C285 1.524 . S
C284 C298 1.377 . S
C285 C284 1.524 . S
C285 C286 1.397 . S
C285 C290 1.363 . S
C286 H263 0.950 . S
C286 C285 1.397 . S
C286 C287 1.334 . S
C287 H264 0.950 . S
C287 C286 1.334 . S
C287 C288 1.287 . S
C288 C287 1.287 . S
C288 C289 1.524 . S
C288 H307 0.913 . S
C289 H265 0.950 . S
C289 C288 1.524 . S
C289 C290 1.415 . S
C290 H266 0.950 . S
C290 C285 1.363 . S
C290 C289 1.415 . S
C291 H267 0.951 . S
C291 C292 1.366 . S
C291 C293 1.388 . S
C292 C291 1.366 . S
C292 C296 1.385 . S
C293 H268 0.951 . S
C293 C291 1.388 . S
C293 C294 1.366 . S
C294 C293 1.366 . S
C294 C295 1.414 . S
C294 C297 1.499 . S
C295 H269 0.950 . S
C295 C294 1.414 . S
C295 C296 1.374 . S
C296 H270 0.950 . S
C296 C292 1.385 . S
C296 C295 1.374 . S
C297 C294 1.499 . S
C297 C298 1.373 . S
C297 C299 1.389 . S
C298 H271 0.950 . S
C298 C284 1.377 . S
C298 C297 1.373 . S
C299 C283 1.377 . S
C299 C297 1.389 . S
C299 C300 1.524 . S
C300 C299 1.524 . S
C300 C301 1.397 . S
C300 C305 1.363 . S
C301 H272 0.950 . S
C301 C300 1.397 . S
C301 C302 1.334 . S
C302 H273 0.950 . S
C302 C301 1.334 . S
C302 C303 1.287 . S
C303 C302 1.287 . S
C303 C304 1.524 . S
C303 H306 0.999 . S
C304 H274 0.950 . S
C304 C303 1.524 . S
C304 C305 1.415 . S
C305 H275 0.950 . S
C305 C300 1.363 . S
C305 C304 1.415 . S
H306 C303 0.999 . S
H307 C288 0.913 . S
H308 C326 0.951 . S
H309 C328 0.951 . S
H310 C330 0.950 . S
H311 C331 0.950 . S
H312 C333 0.950 . S
H313 C336 0.950 . S
H314 C337 0.950 . S
H315 C339 0.950 . S
H316 C340 0.950 . S
H317 C341 0.951 . S
H318 C343 0.951 . S
H319 C345 0.950 . S
H320 C346 0.950 . S
H321 C348 0.950 . S
H322 C351 0.950 . S
H323 C352 0.950 . S
H324 C354 0.950 . S
H325 C355 0.950 . S
C326 H308 0.951 . S
C326 C327 1.366 . S
C326 C328 1.388 . S
C327 C326 1.366 . S
C327 C331 1.385 . S
C328 H309 0.951 . S
C328 C326 1.388 . S
C328 C329 1.366 . S
C329 C328 1.366 . S
C329 C330 1.414 . S
C329 C332 1.499 . S
C330 H310 0.950 . S
C330 C329 1.414 . S
C330 C331 1.374 . S
C331 H311 0.950 . S
C331 C327 1.385 . S
C331 C330 1.374 . S
C332 C329 1.499 . S
C332 C333 1.373 . S
C332 C334 1.389 . S
C333 H312 0.950 . S
C333 C332 1.373 . S
C333 C349 1.377 . S
C334 C332 1.389 . S
C334 C335 1.524 . S
C334 C348 1.377 . S
C335 C334 1.524 . S
C335 C336 1.397 . S
C335 C340 1.363 . S
C336 H313 0.950 . S
C336 C335 1.397 . S
C336 C337 1.334 . S
C337 H314 0.950 . S
C337 C336 1.334 . S
C337 C338 1.287 . S
C338 C337 1.287 . S
C338 C339 1.524 . S
C338 H357 0.913 . S
C339 H315 0.950 . S
C339 C338 1.524 . S
C339 C340 1.415 . S
C340 H316 0.950 . S
C340 C335 1.363 . S
C340 C339 1.415 . S
C341 H317 0.951 . S
C341 C342 1.366 . S
C341 C343 1.388 . S
C342 C341 1.366 . S
C342 C346 1.385 . S
C343 H318 0.951 . S
C343 C341 1.388 . S
C343 C344 1.366 . S
C344 C343 1.366 . S
C344 C345 1.414 . S
C344 C347 1.499 . S
C345 H319 0.950 . S
C345 C344 1.414 . S
C345 C346 1.374 . S
C346 H320 0.950 . S
C346 C342 1.385 . S
C346 C345 1.374 . S
C347 C344 1.499 . S
C347 C348 1.373 . S
C347 C349 1.389 . S
C348 H321 0.950 . S
C348 C334 1.377 . S
C348 C347 1.373 . S
C349 C333 1.377 . S
C349 C347 1.389 . S
C349 C350 1.524 . S
C350 C349 1.524 . S
C350 C351 1.397 . S
C350 C355 1.363 . S
C351 H322 0.950 . S
C351 C350 1.397 . S
C351 C352 1.334 . S
C352 H323 0.950 . S
C352 C351 1.334 . S
C352 C353 1.287 . S
C353 C352 1.287 . S
C353 C354 1.524 . S
C353 H356 0.999 . S
C354 H324 0.950 . S
C354 C353 1.524 . S
C354 C355 1.415 . S
C355 H325 0.950 . S
C355 C350 1.363 . S
C355 C354 1.415 . S
H356 C353 0.999 . S
H357 C338 0.913 . S
H358 C376 0.951 . S
H359 C378 0.951 . S
H360 C380 0.950 . S
H361 C381 0.950 . S
H362 C383 0.950 . S
H363 C386 0.950 . S
H364 C387 0.950 . S
H365 C389 0.950 . S
H366 C390 0.950 . S
H367 C391 0.951 . S
H368 C393 0.951 . S
H369 C395 0.950 . S
H370 C396 0.950 . S
H371 C398 0.950 . S
H372 C401 0.950 . S
H373 C402 0.950 . S
H374 C404 0.950 . S
H375 C405 0.950 . S
C376 H358 0.951 . S
C376 C377 1.366 . S
C376 C378 1.388 . S
C377 C376 1.366 . S
C377 C381 1.385 . S
C378 H359 0.951 . S
C378 C376 1.388 . S
C378 C379 1.366 . S
C379 C378 1.366 . S
C379 C380 1.414 . S
C379 C382 1.499 . S
C380 H360 0.950 . S
C380 C379 1.414 . S
C380 C381 1.374 . S
C381 H361 0.950 . S
C381 C377 1.385 . S
C381 C380 1.374 . S
C382 C379 1.499 . S
C382 C383 1.373 . S
C382 C384 1.389 . S
C383 H362 0.950 . S
C383 C382 1.373 . S
C383 C399 1.377 . S
C384 C382 1.389 . S
C384 C385 1.524 . S
C384 C398 1.377 . S
C385 C384 1.524 . S
C385 C386 1.397 . S
C385 C390 1.363 . S
C386 H363 0.950 . S
C386 C385 1.397 . S
C386 C387 1.334 . S
C387 H364 0.950 . S
C387 C386 1.334 . S
C387 C388 1.287 . S
C388 C387 1.287 . S
C388 C389 1.524 . S
C388 H407 0.913 . S
C389 H365 0.950 . S
C389 C388 1.524 . S
C389 C390 1.415 . S
C390 H366 0.950 . S
C390 C385 1.363 . S
C390 C389 1.415 . S
C391 H367 0.951 . S
C391 C392 1.366 . S
C391 C393 1.388 . S
C392 C391 1.366 . S
C392 C396 1.385 . S
C393 H368 0.951 . S
C393 C391 1.388 . S
C393 C394 1.366 . S
C394 C393 1.366 . S
C394 C395 1.414 . S
C394 C397 1.499 . S
C395 H369 0.950 . S
C395 C394 1.414 . S
C395 C396 1.374 . S
C396 H370 0.950 . S
C396 C392 1.385 . S
C396 C395 1.374 . S
C397 C394 1.499 . S
C397 C398 1.373 . S
C397 C399 1.389 . S
C398 H371 0.950 . S
C398 C384 1.377 . S
C398 C397 1.373 . S
C399 C383 1.377 . S
C399 C397 1.389 . S
C399 C400 1.524 . S
C400 C399 1.524 . S
C400 C401 1.397 . S
C400 C405 1.363 . S
C401 H372 0.950 . S
C401 C400 1.397 . S
C401 C402 1.334 . S
C402 H373 0.950 . S
C402 C401 1.334 . S
C402 C403 1.287 . S
C403 C402 1.287 . S
C403 C404 1.524 . S
C403 H406 0.999 . S
C404 H374 0.950 . S
C404 C403 1.524 . S
C404 C405 1.415 . S
C405 H375 0.950 . S
C405 C400 1.363 . S
C405 C404 1.415 . S
H406 C403 0.999 . S
H407 C388 0.913 . S
H408 C426 0.951 . S
H409 C428 0.951 . S
H410 C430 0.950 . S
H411 C431 0.950 . S
H412 C433 0.950 . S
H413 C436 0.950 . S
H414 C437 0.950 . S
H415 C439 0.950 . S
H416 C440 0.950 . S
H417 C441 0.951 . S
H418 C443 0.951 . S
H419 C445 0.950 . S
H420 C446 0.950 . S
H421 C448 0.950 . S
H422 C451 0.950 . S
H423 C452 0.950 . S
H424 C454 0.950 . S
H425 C455 0.950 . S
C426 H408 0.951 . S
C426 C427 1.366 . S
C426 C428 1.388 . S
C427 C426 1.366 . S
C427 C431 1.385 . S
C428 H409 0.951 . S
C428 C426 1.388 . S
C428 C429 1.366 . S
C429 C428 1.366 . S
C429 C430 1.414 . S
C429 C432 1.499 . S
C430 H410 0.950 . S
C430 C429 1.414 . S
C430 C431 1.374 . S
C431 H411 0.950 . S
C431 C427 1.385 . S
C431 C430 1.374 . S
C432 C429 1.499 . S
C432 C433 1.373 . S
C432 C434 1.389 . S
C433 H412 0.950 . S
C433 C432 1.373 . S
C433 C449 1.377 . S
C434 C432 1.389 . S
C434 C435 1.524 . S
C434 C448 1.377 . S
C435 C434 1.524 . S
C435 C436 1.397 . S
C435 C440 1.363 . S
C436 H413 0.950 . S
C436 C435 1.397 . S
C436 C437 1.334 . S
C437 H414 0.950 . S
C437 C436 1.334 . S
C437 C438 1.287 . S
C438 C437 1.287 . S
C438 C439 1.524 . S
C438 H457 0.913 . S
C439 H415 0.950 . S
C439 C438 1.524 . S
C439 C440 1.415 . S
C440 H416 0.950 . S
C440 C435 1.363 . S
C440 C439 1.415 . S
C441 H417 0.951 . S
C441 C442 1.366 . S
C441 C443 1.388 . S
C442 C441 1.366 . S
C442 C446 1.385 . S
C443 H418 0.951 . S
C443 C441 1.388 . S
C443 C444 1.366 . S
C444 C443 1.366 . S
C444 C445 1.414 . S
C444 C447 1.499 . S
C445 H419 0.950 . S
C445 C444 1.414 . S
C445 C446 1.374 . S
C446 H420 0.950 . S
C446 C442 1.385 . S
C446 C445 1.374 . S
C447 C444 1.499 . S
C447 C448 1.373 . S
C447 C449 1.389 . S
C448 H421 0.950 . S
C448 C434 1.377 . S
C448 C447 1.373 . S
C449 C433 1.377 . S
C449 C447 1.389 . S
C449 C450 1.524 . S
C450 C449 1.524 . S
C450 C451 1.397 . S
C450 C455 1.363 . S
C451 H422 0.950 . S
C451 C450 1.397 . S
C451 C452 1.334 . S
C452 H423 0.950 . S
C452 C451 1.334 . S
C452 C453 1.287 . S
C453 C452 1.287 . S
C453 C454 1.524 . S
C453 H456 0.999 . S
C454 H424 0.950 . S
C454 C453 1.524 . S
C454 C455 1.415 . S
C455 H425 0.950 . S
C455 C450 1.363 . S
C455 C454 1.415 . S
H456 C453 0.999 . S
H457 C438 0.913 . S
H458 C476 0.951 . S
H459 C478 0.951 . S
H460 C480 0.950 . S
H461 C481 0.950 . S
H462 C483 0.950 . S
H463 C486 0.950 . S
H464 C487 0.950 . S
H465 C489 0.950 . S
H466 C490 0.950 . S
H467 C491 0.951 . S
H468 C493 0.951 . S
H469 C495 0.950 . S
H470 C496 0.950 . S
H471 C498 0.950 . S
H472 C501 0.950 . S
H473 C502 0.950 . S
H474 C504 0.950 . S
H475 C505 0.950 . S
C476 H458 0.951 . S
C476 C477 1.366 . S
C476 C478 1.388 . S
C477 C476 1.366 . S
C477 C481 1.385 . S
C478 H459 0.951 . S
C478 C476 1.388 . S
C478 C479 1.366 . S
C479 C478 1.366 . S
C479 C480 1.414 . S
C479 C482 1.499 . S
C480 H460 0.950 . S
C480 C479 1.414 . S
C480 C481 1.374 . S
C481 H461 0.950 . S
C481 C477 1.385 . S
C481 C480 1.374 . S
C482 C479 1.499 . S
C482 C483 1.373 . S
C482 C484 1.389 . S
C483 H462 0.950 . S
C483 C482 1.373 . S
C483 C499 1.377 . S
C484 C482 1.389 . S
C484 C485 1.524 . S
C484 C498 1.377 . S
C485 C484 1.524 . S
C485 C486 1.397 . S
C485 C490 1.363 . S
C486 H463 0.950 . S
C486 C485 1.397 . S
C486 C487 1.334 . S
C487 H464 0.950 . S
C487 C486 1.334 . S
C487 C488 1.287 . S
C488 C487 1.287 . S
C488 C489 1.524 . S
C488 H507 0.913 . S
C489 H465 0.950 . S
C489 C488 1.524 . S
C489 C490 1.415 . S
C490 H466 0.950 . S
C490 C485 1.363 . S
C490 C489 1.415 . S
C491 H467 0.951 . S
C491 C492 1.366 . S
C491 C493 1.388 . S
C492 C491 1.366 . S
C492 C496 1.385 . S
C493 H468 0.951 . S
C493 C491 1.388 . S
C493 C494 1.366 . S
C494 C493 1.366 . S
C494 C495 1.414 . S
C494 C497 1.499 . S
C495 H469 0.950 . S
C495 C494 1.414 . S
C495 C496 1.374 . S
C496 H470 0.950 . S
C496 C492 1.385 . S
C496 C495 1.374 . S
C497 C494 1.499 . S
C497 C498 1.373 . S
C497 C499 1.389 . S
C498 H471 0.950 . S
C498 C484 1.377 . S
C498 C497 1.373 . S
C499 C483 1.377 . S
C499 C497 1.389 . S
C499 C500 1.524 . S
C500 C499 1.524 . S
C500 C501 1.397 . S
C500 C505 1.363 . S
C501 H472 0.950 . S
C501 C500 1.397 . S
C501 C502 1.334 . S
C502 H473 0.950 . S
C502 C501 1.334 . S
C502 C503 1.287 . S
C503 C502 1.287 . S
C503 C504 1.524 . S
C503 H506 0.999 . S
C504 H474 0.950 . S
C504 C503 1.524 . S
C504 C505 1.415 . S
C505 H475 0.950 . S
C505 C500 1.363 . S
C505 C504 1.415 . S
H506 C503 0.999 . S
H507 C488 0.913 . S
H508 C526 0.951 . S
H509 C528 0.951 . S
H510 C530 0.950 . S
H511 C531 0.950 . S
H512 C533 0.950 . S
H513 C536 0.950 . S
H514 C537 0.950 . S
H515 C539 0.950 . S
H516 C540 0.950 . S
H517 C541 0.951 . S
H518 C543 0.951 . S
H519 C545 0.950 . S
H520 C546 0.950 . S
H521 C548 0.950 . S
H522 C551 0.950 . S
H523 C552 0.950 . S
H524 C554 0.950 . S
H525 C555 0.950 . S
C526 H508 0.951 . S
C526 C527 1.366 . S
C526 C528 1.388 . S
C527 C526 1.366 . S
C527 C531 1.385 . S
C528 H509 0.951 . S
C528 C526 1.388 . S
C528 C529 1.366 . S
C529 C528 1.366 . S
C529 C530 1.414 . S
C529 C532 1.499 . S
C530 H510 0.950 . S
C530 C529 1.414 . S
C530 C531 1.374 . S
C531 H511 0.950 . S
C531 C527 1.385 . S
C531 C530 1.374 . S
C532 C529 1.499 . S
C532 C533 1.373 . S
C532 C534 1.389 . S
C533 H512 0.950 . S
C533 C532 1.373 . S
C533 C549 1.377 . S
C534 C532 1.389 . S
C534 C535 1.524 . S
C534 C548 1.377 . S
C535 C534 1.524 . S
C535 C536 1.397 . S
C535 C540 1.363 . S
C536 H513 0.950 . S
C536 C535 1.397 . S
C536 C537 1.334 . S
C537 H514 0.950 . S
C537 C536 1.334 . S
C537 C538 1.287 . S
C538 C537 1.287 . S
C538 C539 1.524 . S
C538 H557 0.913 . S
C539 H515 0.950 . S
C539 C538 1.524 . S
C539 C540 1.415 . S
C540 H516 0.950 . S
C540 C535 1.363 . S
C540 C539 1.415 . S
C541 H517 0.951 . S
C541 C542 1.366 . S
C541 C543 1.388 . S
C542 C541 1.366 . S
C542 C546 1.385 . S
C543 H518 0.951 . S
C543 C541 1.388 . S
C543 C544 1.366 . S
C544 C543 1.366 . S
C544 C545 1.414 . S
C544 C547 1.499 . S
C545 H519 0.950 . S
C545 C544 1.414 . S
C545 C546 1.374 . S
C546 H520 0.950 . S
C546 C542 1.385 . S
C546 C545 1.374 . S
C547 C544 1.499 . S
C547 C548 1.373 . S
C547 C549 1.389 . S
C548 H521 0.950 . S
C548 C534 1.377 . S
C548 C547 1.373 . S
C549 C533 1.377 . S
C549 C547 1.389 . S
C549 C550 1.524 . S
C550 C549 1.524 . S
C550 C551 1.397 . S
C550 C555 1.363 . S
C551 H522 0.950 . S
C551 C550 1.397 . S
C551 C552 1.334 . S
C552 H523 0.950 . S
C552 C551 1.334 . S
C552 C553 1.287 . S
C553 C552 1.287 . S
C553 C554 1.524 . S
C553 H556 0.999 . S
C554 H524 0.950 . S
C554 C553 1.524 . S
C554 C555 1.415 . S
C555 H525 0.950 . S
C555 C550 1.363 . S
C555 C554 1.415 . S
H556 C553 0.999 . S
H557 C538 0.913 . S
H558 C576 0.951 . S
H559 C578 0.951 . S
H560 C580 0.950 . S
H561 C581 0.950 . S
H562 C583 0.950 . S
H563 C586 0.950 . S
H564 C587 0.950 . S
H565 C589 0.950 . S
H566 C590 0.950 . S
H567 C591 0.951 . S
H568 C593 0.951 . S
H569 C595 0.950 . S
H570 C596 0.950 . S
H571 C598 0.950 . S
H572 C601 0.950 . S
H573 C602 0.950 . S
H574 C604 0.950 . S
H575 C605 0.950 . S
C576 H558 0.951 . S
C576 C577 1.366 . S
C576 C578 1.388 . S
C577 C576 1.366 . S
C577 C581 1.385 . S
C578 H559 0.951 . S
C578 C576 1.388 . S
C578 C579 1.366 . S
C579 C578 1.366 . S
C579 C580 1.414 . S
C579 C582 1.499 . S
C580 H560 0.950 . S
C580 C579 1.414 . S
C580 C581 1.374 . S
C581 H561 0.950 . S
C581 C577 1.385 . S
C581 C580 1.374 . S
C582 C579 1.499 . S
C582 C583 1.373 . S
C582 C584 1.389 . S
C583 H562 0.950 . S
C583 C582 1.373 . S
C583 C599 1.377 . S
C584 C582 1.389 . S
C584 C585 1.524 . S
C584 C598 1.377 . S
C585 C584 1.524 . S
C585 C586 1.397 . S
C585 C590 1.363 . S
C586 H563 0.950 . S
C586 C585 1.397 . S
C586 C587 1.334 . S
C587 H564 0.950 . S
C587 C586 1.334 . S
C587 C588 1.287 . S
C588 C587 1.287 . S
C588 C589 1.524 . S
C588 H607 0.913 . S
C589 H565 0.950 . S
C589 C588 1.524 . S
C589 C590 1.415 . S
C590 H566 0.950 . S
C590 C585 1.363 . S
C590 C589 1.415 . S
C591 H567 0.951 . S
C591 C592 1.366 . S
C591 C593 1.388 . S
C592 C591 1.366 . S
C592 C596 1.385 . S
C593 H568 0.951 . S
C593 C591 1.388 . S
C593 C594 1.366 . S
C594 C593 1.366 . S
C594 C595 1.414 . S
C594 C597 1.499 . S
C595 H569 0.950 . S
C595 C594 1.414 . S
C595 C596 1.374 . S
C596 H570 0.950 . S
C596 C592 1.385 . S
C596 C595 1.374 . S
C597 C594 1.499 . S
C597 C598 1.373 . S
C597 C599 1.389 . S
C598 H571 0.950 . S
C598 C584 1.377 . S
C598 C597 1.373 . S
C599 C583 1.377 . S
C599 C597 1.389 . S
C599 C600 1.524 . S
C600 C599 1.524 . S
C600 C601 1.397 . S
C600 C605 1.363 . S
C601 H572 0.950 . S
C601 C600 1.397 . S
C601 C602 1.334 . S
C602 H573 0.950 . S
C602 C601 1.334 . S
C602 C603 1.287 . S
C603 C602 1.287 . S
C603 C604 1.524 . S
C603 H606 0.999 . S
C604 H574 0.950 . S
C604 C603 1.524 . S
C604 C605 1.415 . S
C605 H575 0.950 . S
C605 C600 1.363 . S
C605 C604 1.415 . S
H606 C603 0.999 . S
H607 C588 0.913 . S
H608 C626 0.951 . S
H609 C628 0.951 . S
H610 C630 0.950 . S
H611 C631 0.950 . S
H612 C633 0.950 . S
H613 C636 0.950 . S
H614 C637 0.950 . S
H615 C639 0.950 . S
H616 C640 0.950 . S
H617 C641 0.951 . S
H618 C643 0.951 . S
H619 C645 0.950 . S
H620 C646 0.950 . S
H621 C648 0.950 . S
H622 C651 0.950 . S
H623 C652 0.950 . S
H624 C654 0.950 . S
H625 C655 0.950 . S
C626 H608 0.951 . S
C626 C627 1.366 . S
C626 C628 1.388 . S
C627 C626 1.366 . S
C627 C631 1.385 . S
C628 H609 0.951 . S
C628 C626 1.388 . S
C628 C629 1.366 . S
C629 C628 1.366 . S
C629 C630 1.414 . S
C629 C632 1.499 . S
C630 H610 0.950 . S
C630 C629 1.414 . S
C630 C631 1.374 . S
C631 H611 0.950 . S
C631 C627 1.385 . S
C631 C630 1.374 . S
C632 C629 1.499 . S
C632 C633 1.373 . S
C632 C634 1.389 . S
C633 H612 0.950 . S
C633 C632 1.373 . S
C633 C649 1.377 . S
C634 C632 1.389 . S
C634 C635 1.524 . S
C634 C648 1.377 . S
C635 C634 1.524 . S
C635 C636 1.397 . S
C635 C640 1.363 . S
C636 H613 0.950 . S
C636 C635 1.397 . S
C636 C637 1.334 . S
C637 H614 0.950 . S
C637 C636 1.334 . S
C637 C638 1.287 . S
C638 C637 1.287 . S
C638 C639 1.524 . S
C638 H657 0.913 . S
C639 H615 0.950 . S
C639 C638 1.524 . S
C639 C640 1.415 . S
C640 H616 0.950 . S
C640 C635 1.363 . S
C640 C639 1.415 . S
C641 H617 0.951 . S
C641 C642 1.366 . S
C641 C643 1.388 . S
C642 C641 1.366 . S
C642 C646 1.385 . S
C643 H618 0.951 . S
C643 C641 1.388 . S
C643 C644 1.366 . S
C644 C643 1.366 . S
C644 C645 1.414 . S
C644 C647 1.499 . S
C645 H619 0.950 . S
C645 C644 1.414 . S
C645 C646 1.374 . S
C646 H620 0.950 . S
C646 C642 1.385 . S
C646 C645 1.374 . S
C647 C644 1.499 . S
C647 C648 1.373 . S
C647 C649 1.389 . S
C648 H621 0.950 . S
C648 C634 1.377 . S
C648 C647 1.373 . S
C649 C633 1.377 . S
C649 C647 1.389 . S
C649 C650 1.524 . S
C650 C649 1.524 . S
C650 C651 1.397 . S
C650 C655 1.363 . S
C651 H622 0.950 . S
C651 C650 1.397 . S
C651 C652 1.334 . S
C652 H623 0.950 . S
C652 C651 1.334 . S
C652 C653 1.287 . S
C653 C652 1.287 . S
C653 C654 1.524 . S
C653 H656 0.999 . S
C654 H624 0.950 . S
C654 C653 1.524 . S
C654 C655 1.415 . S
C655 H625 0.950 . S
C655 C650 1.363 . S
C655 C654 1.415 . S
H656 C653 0.999 . S
H657 C638 0.913 . S
H658 C676 0.951 . S
H659 C678 0.951 . S
H660 C680 0.950 . S
H661 C681 0.950 . S
H662 C683 0.950 . S
H663 C686 0.950 . S
H664 C687 0.950 . S
H665 C689 0.950 . S
H666 C690 0.950 . S
H667 C691 0.951 . S
H668 C693 0.951 . S
H669 C695 0.950 . S
H670 C696 0.950 . S
H671 C698 0.950 . S
H672 C701 0.950 . S
H673 C702 0.950 . S
H674 C704 0.950 . S
H675 C705 0.950 . S
C676 H658 0.951 . S
C676 C677 1.366 . S
C676 C678 1.388 . S
C677 C676 1.366 . S
C677 C681 1.385 . S
C678 H659 0.951 . S
C678 C676 1.388 . S
C678 C679 1.366 . S
C679 C678 1.366 . S
C679 C680 1.414 . S
C679 C682 1.499 . S
C680 H660 0.950 . S
C680 C679 1.414 . S
C680 C681 1.374 . S
C681 H661 0.950 . S
C681 C677 1.385 . S
C681 C680 1.374 . S
C682 C679 1.499 . S
C682 C683 1.373 . S
C682 C684 1.389 . S
C683 H662 0.950 . S
C683 C682 1.373 . S
C683 C699 1.377 . S
C684 C682 1.389 . S
C684 C685 1.524 . S
C684 C698 1.377 . S
C685 C684 1.524 . S
C685 C686 1.397 . S
C685 C690 1.363 . S
C686 H663 0.950 . S
C686 C685 1.397 . S
C686 C687 1.334 . S
C687 H664 0.950 . S
C687 C686 1.334 . S
C687 C688 1.287 . S
C688 C687 1.287 . S
C688 C689 1.524 . S
C688 H707 0.913 . S
C689 H665 0.950 . S
C689 C688 1.524 . S
C689 C690 1.415 . S
C690 H666 0.950 . S
C690 C685 1.363 . S
C690 C689 1.415 . S
C691 H667 0.951 . S
C691 C692 1.366 . S
C691 C693 1.388 . S
C692 C691 1.366 . S
C692 C696 1.385 . S
C693 H668 0.951 . S
C693 C691 1.388 . S
C693 C694 1.366 . S
C694 C693 1.366 . S
C694 C695 1.414 . S
C694 C697 1.499 . S
C695 H669 0.950 . S
C695 C694 1.414 . S
C695 C696 1.374 . S
C696 H670 0.950 . S
C696 C692 1.385 . S
C696 C695 1.374 . S
C697 C694 1.499 . S
C697 C698 1.373 . S
C697 C699 1.389 . S
C698 H671 0.950 . S
C698 C684 1.377 . S
C698 C697 1.373 . S
C699 C683 1.377 . S
C699 C697 1.389 . S
C699 C700 1.524 . S
C700 C699 1.524 . S
C700 C701 1.397 . S
C700 C705 1.363 . S
C701 H672 0.950 . S
C701 C700 1.397 . S
C701 C702 1.334 . S
C702 H673 0.950 . S
C702 C701 1.334 . S
C702 C703 1.287 . S
C703 C702 1.287 . S
C703 C704 1.524 . S
C703 H706 0.999 . S
C704 H674 0.950 . S
C704 C703 1.524 . S
C704 C705 1.415 . S
C705 H675 0.950 . S
C705 C700 1.363 . S
C705 C704 1.415 . S
H706 C703 0.999 . S
H707 C688 0.913 . S
H708 C726 0.951 . S
H709 C728 0.951 . S
H710 C730 0.950 . S
H711 C731 0.950 . S
H712 C733 0.950 . S
H713 C736 0.950 . S
H714 C737 0.950 . S
H715 C739 0.950 . S
H716 C740 0.950 . S
H717 C741 0.951 . S
H718 C743 0.951 . S
H719 C745 0.950 . S
H720 C746 0.950 . S
H721 C748 0.950 . S
H722 C751 0.950 . S
H723 C752 0.950 . S
H724 C754 0.950 . S
H725 C755 0.950 . S
C726 H708 0.951 . S
C726 C727 1.366 . S
C726 C728 1.388 . S
C727 C726 1.366 . S
C727 C731 1.385 . S
C728 H709 0.951 . S
C728 C726 1.388 . S
C728 C729 1.366 . S
C729 C728 1.366 . S
C729 C730 1.414 . S
C729 C732 1.499 . S
C730 H710 0.950 . S
C730 C729 1.414 . S
C730 C731 1.374 . S
C731 H711 0.950 . S
C731 C727 1.385 . S
C731 C730 1.374 . S
C732 C729 1.499 . S
C732 C733 1.373 . S
C732 C734 1.389 . S
C733 H712 0.950 . S
C733 C732 1.373 . S
C733 C749 1.377 . S
C734 C732 1.389 . S
C734 C735 1.524 . S
C734 C748 1.377 . S
C735 C734 1.524 . S
C735 C736 1.397 . S
C735 C740 1.363 . S
C736 H713 0.950 . S
C736 C735 1.397 . S
C736 C737 1.334 . S
C737 H714 0.950 . S
C737 C736 1.334 . S
C737 C738 1.287 . S
C738 C737 1.287 . S
C738 C739 1.524 . S
C738 H757 0.913 . S
C739 H715 0.950 . S
C739 C738 1.524 . S
C739 C740 1.415 . S
C740 H716 0.950 . S
C740 C735 1.363 . S
C740 C739 1.415 . S
C741 H717 0.951 . S
C741 C742 1.366 . S
C741 C743 1.388 . S
C742 C741 1.366 . S
C742 C746 1.385 . S
C743 H718 0.951 . S
C743 C741 1.388 . S
C743 C744 1.366 . S
C744 C743 1.366 . S
C744 C745 1.414 . S
C744 C747 1.499 . S
C745 H719 0.950 . S
C745 C744 1.414 . S
C745 C746 1.374 . S
C746 H720 0.950 . S
C746 C742 1.385 . S
C746 C745 1.374 . S
C747 C744 1.499 . S
C747 C748 1.373 . S
C747 C749 1.389 . S
C748 H721 0.950 . S
C748 C734 1.377 . S
C748 C747 1.373 . S
C749 C733 1.377 . S
C749 C747 1.389 . S
C749 C750 1.524 . S
C750 C749 1.524 . S
C750 C751 1.397 . S
C750 C755 1.363 . S
C751 H722 0.950 . S
C751 C750 1.397 . S
C751 C752 1.334 . S
C752 H723 0.950 . S
C752 C751 1.334 . S
C752 C753 1.287 . S
C753 C752 1.287 . S
C753 C754 1.524 . S
C753 H756 0.999 . S
C754 H724 0.950 . S
C754 C753 1.524 . S
C754 C755 1.415 . S
C755 H725 0.950 . S
C755 C750 1.363 . S
C755 C754 1.415 . S
H756 C753 0.999 . S
H757 C738 0.913 . S
H758 C776 0.951 . S
H759 C778 0.951 . S
H760 C780 0.950 . S
H761 C781 0.950 . S
H762 C783 0.950 . S
H763 C786 0.950 . S
H764 C787 0.950 . S
H765 C789 0.950 . S
H766 C790 0.950 . S
H767 C791 0.951 . S
H768 C793 0.951 . S
H769 C795 0.950 . S
H770 C796 0.950 . S
H771 C798 0.950 . S
H772 C801 0.950 . S
H773 C802 0.950 . S
H774 C804 0.950 . S
H775 C805 0.950 . S
C776 H758 0.951 . S
C776 C777 1.366 . S
C776 C778 1.388 . S
C777 C776 1.366 . S
C777 C781 1.385 . S
C778 H759 0.951 . S
C778 C776 1.388 . S
C778 C779 1.366 . S
C779 C778 1.366 . S
C779 C780 1.414 . S
C779 C782 1.499 . S
C780 H760 0.950 . S
C780 C779 1.414 . S
C780 C781 1.374 . S
C781 H761 0.950 . S
C781 C777 1.385 . S
C781 C780 1.374 . S
C782 C779 1.499 . S
C782 C783 1.373 . S
C782 C784 1.389 . S
C783 H762 0.950 . S
C783 C782 1.373 . S
C783 C799 1.377 . S
C784 C782 1.389 . S
C784 C785 1.524 . S
C784 C798 1.377 . S
C785 C784 1.524 . S
C785 C786 1.397 . S
C785 C790 1.363 . S
C786 H763 0.950 . S
C786 C785 1.397 . S
C786 C787 1.334 . S
C787 H764 0.950 . S
C787 C786 1.334 . S
C787 C788 1.287 . S
C788 C787 1.287 . S
C788 C789 1.524 . S
C788 H807 0.913 . S
C789 H765 0.950 . S
C789 C788 1.524 . S
C789 C790 1.415 . S
C790 H766 0.950 . S
C790 C785 1.363 . S
C790 C789 1.415 . S
C791 H767 0.951 . S
C791 C792 1.366 . S
C791 C793 1.388 . S
C792 C791 1.366 . S
C792 C796 1.385 . S
C793 H768 0.951 . S
C793 C791 1.388 . S
C793 C794 1.366 . S
C794 C793 1.366 . S
C794 C795 1.414 . S
C794 C797 1.499 . S
C795 H769 0.950 . S
C795 C794 1.414 . S
C795 C796 1.374 . S
C796 H770 0.950 . S
C796 C792 1.385 . S
C796 C795 1.374 . S
C797 C794 1.499 . S
C797 C798 1.373 . S
C797 C799 1.389 . S
C798 H771 0.950 . S
C798 C784 1.377 . S
C798 C797 1.373 . S
C799 C783 1.377 . S
C799 C797 1.389 . S
C799 C800 1.524 . S
C800 C799 1.524 . S
C800 C801 1.397 . S
C800 C805 1.363 . S
C801 H772 0.950 . S
C801 C800 1.397 . S
C801 C802 1.334 . S
C802 H773 0.950 . S
C802 C801 1.334 . S
C802 C803 1.287 . S
C803 C802 1.287 . S
C803 C804 1.524 . S
C803 H806 0.999 . S
C804 H774 0.950 . S
C804 C803 1.524 . S
C804 C805 1.415 . S
C805 H775 0.950 . S
C805 C800 1.363 . S
C805 C804 1.415 . S
H806 C803 0.999 . S
H807 C788 0.913 . S
H808 C826 0.951 . S
H809 C828 0.951 . S
H810 C830 0.950 . S
H811 C831 0.950 . S
H812 C833 0.950 . S
H813 C836 0.950 . S
H814 C837 0.950 . S
H815 C839 0.950 . S
H816 C840 0.950 . S
H817 C841 0.951 . S
H818 C843 0.951 . S
H819 C845 0.950 . S
H820 C846 0.950 . S
H821 C848 0.950 . S
H822 C851 0.950 . S
H823 C852 0.950 . S
H824 C854 0.950 . S
H825 C855 0.950 . S
C826 H808 0.951 . S
C826 C827 1.366 . S
C826 C828 1.388 . S
C827 C826 1.366 . S
C827 C831 1.385 . S
C828 H809 0.951 . S
C828 C826 1.388 . S
C828 C829 1.366 . S
C829 C828 1.366 . S
C829 C830 1.414 . S
C829 C832 1.499 . S
C830 H810 0.950 . S
C830 C829 1.414 . S
C830 C831 1.374 . S
C831 H811 0.950 . S
C831 C827 1.385 . S
C831 C830 1.374 . S
C832 C829 1.499 . S
C832 C833 1.373 . S
C832 C834 1.389 . S
C833 H812 0.950 . S
C833 C832 1.373 . S
C833 C849 1.377 . S
C834 C832 1.389 . S
C834 C835 1.524 . S
C834 C848 1.377 . S
C835 C834 1.524 . S
C835 C836 1.397 . S
C835 C840 1.363 . S
C836 H813 0.950 . S
C836 C835 1.397 . S
C836 C837 1.334 . S
C837 H814 0.950 . S
C837 C836 1.334 . S
C837 C838 1.287 . S
C838 C837 1.287 . S
C838 C839 1.524 . S
C838 H857 0.913 . S
C839 H815 0.950 . S
C839 C838 1.524 . S
C839 C840 1.415 . S
C840 H816 0.950 . S
C840 C835 1.363 . S
C840 C839 1.415 . S
C841 H817 0.951 . S
C841 C842 1.366 . S
C841 C843 1.388 . S
C842 C841 1.366 . S
C842 C846 1.385 . S
C843 H818 0.951 . S
C843 C841 1.388 . S
C843 C844 1.366 . S
C844 C843 1.366 . S
C844 C845 1.414 . S
C844 C847 1.499 . S
C845 H819 0.950 . S
C845 C844 1.414 . S
C845 C846 1.374 . S
C846 H820 0.950 . S
C846 C842 1.385 . S
C846 C845 1.374 . S
C847 C844 1.499 . S
C847 C848 1.373 . S
C847 C849 1.389 . S
C848 H821 0.950 . S
C848 C834 1.377 . S
C848 C847 1.373 . S
C849 C833 1.377 . S
C849 C847 1.389 . S
C849 C850 1.524 . S
C850 C849 1.524 . S
C850 C851 1.397 . S
C850 C855 1.363 . S
C851 H822 0.950 . S
C851 C850 1.397 . S
C851 C852 1.334 . S
C852 H823 0.950 . S
C852 C851 1.334 . S
C852 C853 1.287 . S
C853 C852 1.287 . S
C853 C854 1.524 . S
C853 H856 0.999 . S
C854 H824 0.950 . S
C854 C853 1.524 . S
C854 C855 1.415 . S
C855 H825 0.950 . S
C855 C850 1.363 . S
C855 C854 1.415 . S
H856 C853 0.999 . S
H857 C838 0.913 . S
H858 C876 0.951 . S
H859 C878 0.951 . S
H860 C880 0.950 . S
H861 C881 0.950 . S
H862 C883 0.950 . S
H863 C886 0.950 . S
H864 C887 0.950 . S
H865 C889 0.950 . S
H866 C890 0.950 . S
H867 C891 0.951 . S
H868 C893 0.951 . S
H869 C895 0.950 . S
H870 C896 0.950 . S
H871 C898 0.950 . S
H872 C901 0.950 . S
H873 C902 0.950 . S
H874 C904 0.950 . S
H875 C905 0.950 . S
C876 H858 0.951 . S
C876 C877 1.366 . S
C876 C878 1.388 . S
C877 C876 1.366 . S
C877 C881 1.385 . S
C878 H859 0.951 . S
C878 C876 1.388 . S
C878 C879 1.366 . S
C879 C878 1.366 . S
C879 C880 1.414 . S
C879 C882 1.499 . S
C880 H860 0.950 . S
C880 C879 1.414 . S
C880 C881 1.374 . S
C881 H861 0.950 . S
C881 C877 1.385 . S
C881 C880 1.374 . S
C882 C879 1.499 . S
C882 C883 1.373 . S
C882 C884 1.389 . S
C883 H862 0.950 . S
C883 C882 1.373 . S
C883 C899 1.377 . S
C884 C882 1.389 . S
C884 C885 1.524 . S
C884 C898 1.377 . S
C885 C884 1.524 . S
C885 C886 1.397 . S
C885 C890 1.363 . S
C886 H863 0.950 . S
C886 C885 1.397 . S
C886 C887 1.334 . S
C887 H864 0.950 . S
C887 C886 1.334 . S
C887 C888 1.287 . S
C888 C887 1.287 . S
C888 C889 1.524 . S
C888 H907 0.913 . S
C889 H865 0.950 . S
C889 C888 1.524 . S
C889 C890 1.415 . S
C890 H866 0.950 . S
C890 C885 1.363 . S
C890 C889 1.415 . S
C891 H867 0.951 . S
C891 C892 1.366 . S
C891 C893 1.388 . S
C892 C891 1.366 . S
C892 C896 1.385 . S
C893 H868 0.951 . S
C893 C891 1.388 . S
C893 C894 1.366 . S
C894 C893 1.366 . S
C894 C895 1.414 . S
C894 C897 1.499 . S
C895 H869 0.950 . S
C895 C894 1.414 . S
C895 C896 1.374 . S
C896 H870 0.950 . S
C896 C892 1.385 . S
C896 C895 1.374 . S
C897 C894 1.499 . S
C897 C898 1.373 . S
C897 C899 1.389 . S
C898 H871 0.950 . S
C898 C884 1.377 . S
C898 C897 1.373 . S
C899 C883 1.377 . S
C899 C897 1.389 . S
C899 C900 1.524 . S
C900 C899 1.524 . S
C900 C901 1.397 . S
C900 C905 1.363 . S
C901 H872 0.950 . S
C901 C900 1.397 . S
C901 C902 1.334 . S
C902 H873 0.950 . S
C902 C901 1.334 . S
C902 C903 1.287 . S
C903 C902 1.287 . S
C903 C904 1.524 . S
C903 H906 0.999 . S
C904 H874 0.950 . S
C904 C903 1.524 . S
C904 C905 1.415 . S
C905 H875 0.950 . S
C905 C900 1.363 . S
C905 C904 1.415 . S
H906 C903 0.999 . S
H907 C888 0.913 . S
H908 C926 0.951 . S
H909 C928 0.951 . S
H910 C930 0.950 . S
H911 C931 0.950 . S
H912 C933 0.950 . S
H913 C936 0.950 . S
H914 C937 0.950 . S
H915 C939 0.950 . S
H916 C940 0.950 . S
H917 C941 0.951 . S
H918 C943 0.951 . S
H919 C945 0.950 . S
H920 C946 0.950 . S
H921 C948 0.950 . S
H922 C951 0.950 . S
H923 C952 0.950 . S
H924 C954 0.950 . S
H925 C955 0.950 . S
C926 H908 0.951 . S
C926 C927 1.366 . S
C926 C928 1.388 . S
C927 C926 1.366 . S
C927 C931 1.385 . S
C928 H909 0.951 . S
C928 C926 1.388 . S
C928 C929 1.366 . S
C929 C928 1.366 . S
C929 C930 1.414 . S
C929 C932 1.499 . S
C930 H910 0.950 . S
C930 C929 1.414 . S
C930 C931 1.374 . S
C931 H911 0.950 . S
C931 C927 1.385 . S
C931 C930 1.374 . S
C932 C929 1.499 . S
C932 C933 1.373 . S
C932 C934 1.389 . S
C933 H912 0.950 . S
C933 C932 1.373 . S
C933 C949 1.377 . S
C934 C932 1.389 . S
C934 C935 1.524 . S
C934 C948 1.377 . S
C935 C934 1.524 . S
C935 C936 1.397 . S
C935 C940 1.363 . S
C936 H913 0.950 . S
C936 C935 1.397 . S
C936 C937 1.334 . S
C937 H914 0.950 . S
C937 C936 1.334 . S
C937 C938 1.287 . S
C938 C937 1.287 . S
C938 C939 1.524 . S
C938 H957 0.913 . S
C939 H915 0.950 . S
C939 C938 1.524 . S
C939 C940 1.415 . S
C940 H916 0.950 . S
C940 C935 1.363 . S
C940 C939 1.415 . S
C941 H917 0.951 . S
C941 C942 1.366 . S
C941 C943 1.388 . S
C942 C941 1.366 . S
C942 C946 1.385 . S
C943 H918 0.951 . S
C943 C941 1.388 . S
C943 C944 1.366 . S
C944 C943 1.366 . S
C944 C945 1.414 . S
C944 C947 1.499 . S
C945 H919 0.950 . S
C945 C944 1.414 . S
C945 C946 1.374 . S
C946 H920 0.950 . S
C946 C942 1.385 . S
C946 C945 1.374 . S
C947 C944 1.499 . S
C947 C948 1.373 . S
C947 C949 1.389 . S
C948 H921 0.950 . S
C948 C934 1.377 . S
C948 C947 1.373 . S
C949 C933 1.377 . S
C949 C947 1.389 . S
C949 C950 1.524 . S
C950 C949 1.524 . S
C950 C951 1.397 . S
C950 C955 1.363 . S
C951 H922 0.950 . S
C951 C950 1.397 . S
C951 C952 1.334 . S
C952 H923 0.950 . S
C952 C951 1.334 . S
C952 C953 1.287 . S
C953 C952 1.287 . S
C953 C954 1.524 . S
C953 H956 0.999 . S
C954 H924 0.950 . S
C954 C953 1.524 . S
C954 C955 1.415 . S
C955 H925 0.950 . S
C955 C950 1.363 . S
C955 C954 1.415 . S
H956 C953 0.999 . S
H957 C938 0.913 . S
H958 C976 0.951 . S
H959 C978 0.951 . S
H960 C980 0.950 . S
H961 C981 0.950 . S
H962 C983 0.950 . S
H963 C986 0.950 . S
H964 C987 0.950 . S
H965 C989 0.950 . S
H966 C990 0.950 . S
H967 C991 0.951 . S
H968 C993 0.951 . S
H969 C995 0.950 . S
H970 C996 0.950 . S
H971 C998 0.950 . S
H972 C1001 0.950 . S
H973 C1002 0.950 . S
H974 C1004 0.950 . S
H975 C1005 0.950 . S
C976 H958 0.951 . S
C976 C977 1.366 . S
C976 C978 1.388 . S
C977 C976 1.366 . S
C977 C981 1.385 . S
C978 H959 0.951 . S
C978 C976 1.388 . S
C978 C979 1.366 . S
C979 C978 1.366 . S
C979 C980 1.414 . S
C979 C982 1.499 . S
C980 H960 0.950 . S
C980 C979 1.414 . S
C980 C981 1.374 . S
C981 H961 0.950 . S
C981 C977 1.385 . S
C981 C980 1.374 . S
C982 C979 1.499 . S
C982 C983 1.373 . S
C982 C984 1.389 . S
C983 H962 0.950 . S
C983 C982 1.373 . S
C983 C999 1.377 . S
C984 C982 1.389 . S
C984 C985 1.524 . S
C984 C998 1.377 . S
C985 C984 1.524 . S
C985 C986 1.397 . S
C985 C990 1.363 . S
C986 H963 0.950 . S
C986 C985 1.397 . S
C986 C987 1.334 . S
C987 H964 0.950 . S
C987 C986 1.334 . S
C987 C988 1.287 . S
C988 C987 1.287 . S
C988 C989 1.524 . S
C988 H1007 0.913 . S
C989 H965 0.950 . S
C989 C988 1.524 . S
C989 C990 1.415 . S
C990 H966 0.950 . S
C990 C985 1.363 . S
C990 C989 1.415 . S
C991 H967 0.951 . S
C991 C992 1.366 . S
C991 C993 1.388 . S
C992 C991 1.366 . S
C992 C996 1.385 . S
C993 H968 0.951 . S
C993 C991 1.388 . S
C993 C994 1.366 . S
C994 C993 1.366 . S
C994 C995 1.414 . S
C994 C997 1.499 . S
C995 H969 0.950 . S
C995 C994 1.414 . S
C995 C996 1.374 . S
C996 H970 0.950 . S
C996 C992 1.385 . S
C996 C995 1.374 . S
C997 C994 1.499 . S
C997 C998 1.373 . S
C997 C999 1.389 . S
C998 H971 0.950 . S
C998 C984 1.377 . S
C998 C997 1.373 . S
C999 C983 1.377 . S
C999 C997 1.389 . S
C999 C1000 1.524 . S
C1000 C999 1.524 . S
C1000 C1001 1.397 . S
C1000 C1005 1.363 . S
C1001 H972 0.950 . S
C1001 C1000 1.397 . S
C1001 C1002 1.334 . S
C1002 H973 0.950 . S
C1002 C1001 1.334 . S
C1002 C1003 1.287 . S
C1003 C1002 1.287 . S
C1003 C1004 1.524 . S
C1003 H1006 0.999 . S
C1004 H974 0.950 . S
C1004 C1003 1.524 . S
C1004 C1005 1.415 . S
C1005 H975 0.950 . S
C1005 C1000 1.363 . S
C1005 C1004 1.415 . S
H1006 C1003 0.999 . S
H1007 C988 0.913 . S
H1008 C1026 0.951 . S
H1009 C1028 0.951 . S
H1010 C1030 0.950 . S
H1011 C1031 0.950 . S
H1012 C1033 0.950 . S
H1013 C1036 0.950 . S
H1014 C1037 0.950 . S
H1015 C1039 0.950 . S
H1016 C1040 0.950 . S
H1017 C1041 0.951 . S
H1018 C1043 0.951 . S
H1019 C1045 0.950 . S
H1020 C1046 0.950 . S
H1021 C1048 0.950 . S
H1022 C1051 0.950 . S
H1023 C1052 0.950 . S
H1024 C1054 0.950 . S
H1025 C1055 0.950 . S
C1026 H1008 0.951 . S
C1026 C1027 1.366 . S
C1026 C1028 1.388 . S
C1027 C1026 1.366 . S
C1027 C1031 1.385 . S
C1028 H1009 0.951 . S
C1028 C1026 1.388 . S
C1028 C1029 1.366 . S
C1029 C1028 1.366 . S
C1029 C1030 1.414 . S
C1029 C1032 1.499 . S
C1030 H1010 0.950 . S
C1030 C1029 1.414 . S
C1030 C1031 1.374 . S
C1031 H1011 0.950 . S
C1031 C1027 1.385 . S
C1031 C1030 1.374 . S
C1032 C1029 1.499 . S
C1032 C1033 1.373 . S
C1032 C1034 1.389 . S
C1033 H1012 0.950 . S
C1033 C1032 1.373 . S
C1033 C1049 1.377 . S
C1034 C1032 1.389 . S
C1034 C1035 1.524 . S
C1034 C1048 1.377 . S
C1035 C1034 1.524 . S
C1035 C1036 1.397 . S
C1035 C1040 1.363 . S
C1036 H1013 0.950 . S
C1036 C1035 1.397 . S
C1036 C1037 1.334 . S
C1037 H1014 0.950 . S
C1037 C1036 1.334 . S
C1037 C1038 1.287 . S
C1038 C1037 1.287 . S
C1038 C1039 1.524 . S
C1038 H1057 0.913 . S
C1039 H1015 0.950 . S
C1039 C1038 1.524 . S
C1039 C1040 1.415 . S
C1040 H1016 0.950 . S
C1040 C1035 1.363 . S
C1040 C1039 1.415 . S
C1041 H1017 0.951 . S
C1041 C1042 1.366 . S
C1041 C1043 1.388 . S
C1042 C1041 1.366 . S
C1042 C1046 1.385 . S
C1043 H1018 0.951 . S
C1043 C1041 1.388 . S
C1043 C1044 1.366 . S
C1044 C1043 1.366 . S
C1044 C1045 1.414 . S
C1044 C1047 1.499 . S
C1045 H1019 0.950 . S
C1045 C1044 1.414 . S
C1045 C1046 1.374 . S
C1046 H1020 0.950 . S
C1046 C1042 1.385 . S
C1046 C1045 1.374 . S
C1047 C1044 1.499 . S
C1047 C1048 1.373 . S
C1047 C1049 1.389 . S
C1048 H1021 0.950 . S
C1048 C1034 1.377 . S
C1048 C1047 1.373 . S
C1049 C1033 1.377 . S
C1049 C1047 1.389 . S
C1049 C1050 1.524 . S
C1050 C1049 1.524 . S
C1050 C1051 1.397 . S
C1050 C1055 1.363 . S
C1051 H1022 0.950 . S
C1051 C1050 1.397 . S
C1051 C1052 1.334 . S
C1052 H1023 0.950 . S
C1052 C1051 1.334 . S
C1052 C1053 1.287 . S
C1053 C1052 1.287 . S
C1053 C1054 1.524 . S
C1053 H1056 0.999 . S
C1054 H1024 0.950 . S
C1054 C1053 1.524 . S
C1054 C1055 1.415 . S
C1055 H1025 0.950 . S
C1055 C1050 1.363 . S
C1055 C1054 1.415 . S
H1056 C1053 0.999 . S
H1057 C1038 0.913 . S
H1058 C1076 0.951 . S
H1059 C1078 0.951 . S
H1060 C1080 0.950 . S
H1061 C1081 0.950 . S
H1062 C1083 0.950 . S
H1063 C1086 0.950 . S
H1064 C1087 0.950 . S
H1065 C1089 0.950 . S
H1066 C1090 0.950 . S
H1067 C1091 0.951 1_655 S
H1068 C1093 0.951 . S
H1069 C1095 0.950 . S
H1070 C1096 0.950 . S
H1071 C1098 0.950 . S
H1072 C1101 0.950 . S
H1073 C1102 0.950 . S
H1074 C1104 0.950 . S
H1075 C1105 0.950 . S
C1076 H1058 0.951 . S
C1076 C1077 1.366 . S
C1076 C1078 1.388 . S
C1077 C1076 1.366 . S
C1077 C1081 1.385 . S
C1078 H1059 0.951 . S
C1078 C1076 1.388 . S
C1078 C1079 1.366 . S
C1079 C1078 1.366 . S
C1079 C1080 1.414 . S
C1079 C1082 1.499 . S
C1080 H1060 0.950 . S
C1080 C1079 1.414 . S
C1080 C1081 1.374 . S
C1081 H1061 0.950 . S
C1081 C1077 1.385 . S
C1081 C1080 1.374 . S
C1082 C1079 1.499 . S
C1082 C1083 1.373 . S
C1082 C1084 1.389 . S
C1083 H1062 0.950 . S
C1083 C1082 1.373 . S
C1083 C1099 1.377 . S
C1084 C1082 1.389 . S
C1084 C1085 1.524 . S
C1084 C1098 1.377 . S
C1085 C1084 1.524 . S
C1085 C1086 1.397 . S
C1085 C1090 1.363 . S
C1086 H1063 0.950 . S
C1086 C1085 1.397 . S
C1086 C1087 1.334 . S
C1087 H1064 0.950 . S
C1087 C1086 1.334 . S
C1087 C1088 1.287 . S
C1088 C1087 1.287 . S
C1088 C1089 1.524 . S
C1088 H1107 0.913 . S
C1089 H1065 0.950 . S
C1089 C1088 1.524 . S
C1089 C1090 1.415 . S
C1090 H1066 0.950 . S
C1090 C1085 1.363 . S
C1090 C1089 1.415 . S
C1091 H1067 0.951 1_455 S
C1091 C1092 1.366 . S
C1091 C1093 1.388 . S
C1092 C1091 1.366 . S
C1092 C1096 1.385 . S
C1093 H1068 0.951 . S
C1093 C1091 1.388 . S
C1093 C1094 1.366 . S
C1094 C1093 1.366 . S
C1094 C1095 1.414 . S
C1094 C1097 1.499 . S
C1095 H1069 0.950 . S
C1095 C1094 1.414 . S
C1095 C1096 1.374 . S
C1096 H1070 0.950 . S
C1096 C1092 1.385 . S
C1096 C1095 1.374 . S
C1097 C1094 1.499 . S
C1097 C1098 1.373 . S
C1097 C1099 1.389 . S
C1098 H1071 0.950 . S
C1098 C1084 1.377 . S
C1098 C1097 1.373 . S
C1099 C1083 1.377 . S
C1099 C1097 1.389 . S
C1099 C1100 1.524 . S
C1100 C1099 1.524 . S
C1100 C1101 1.397 . S
C1100 C1105 1.363 . S
C1101 H1072 0.950 . S
C1101 C1100 1.397 . S
C1101 C1102 1.334 . S
C1102 H1073 0.950 . S
C1102 C1101 1.334 . S
C1102 C1103 1.287 . S
C1103 C1102 1.287 . S
C1103 C1104 1.524 . S
C1103 H1106 0.999 . S
C1104 H1074 0.950 . S
C1104 C1103 1.524 . S
C1104 C1105 1.415 . S
C1105 H1075 0.950 . S
C1105 C1100 1.363 . S
C1105 C1104 1.415 . S
H1106 C1103 0.999 . S
H1107 C1088 0.913 . S
H1108 C1126 0.951 . S
H1109 C1128 0.951 . S
H1110 C1130 0.950 . S
H1111 C1131 0.950 1_545 S
H1112 C1133 0.950 . S
H1113 C1136 0.950 . S
H1114 C1137 0.950 . S
H1115 C1139 0.950 . S
H1116 C1140 0.950 . S
H1117 C1141 0.951 . S
H1118 C1143 0.951 . S
H1119 C1145 0.950 . S
H1120 C1146 0.950 . S
H1121 C1148 0.950 . S
H1122 C1151 0.950 . S
H1123 C1152 0.950 . S
H1124 C1154 0.950 . S
H1125 C1155 0.950 . S
C1126 H1108 0.951 . S
C1126 C1127 1.366 . S
C1126 C1128 1.388 . S
C1127 C1126 1.366 . S
C1127 C1131 1.385 . S
C1128 H1109 0.951 . S
C1128 C1126 1.388 . S
C1128 C1129 1.366 . S
C1129 C1128 1.366 . S
C1129 C1130 1.414 . S
C1129 C1132 1.499 . S
C1130 H1110 0.950 . S
C1130 C1129 1.414 . S
C1130 C1131 1.374 . S
C1131 H1111 0.950 1_565 S
C1131 C1127 1.385 . S
C1131 C1130 1.374 . S
C1132 C1129 1.499 . S
C1132 C1133 1.373 . S
C1132 C1134 1.389 . S
C1133 H1112 0.950 . S
C1133 C1132 1.373 . S
C1133 C1149 1.377 . S
C1134 C1132 1.389 . S
C1134 C1135 1.524 . S
C1134 C1148 1.377 . S
C1135 C1134 1.524 . S
C1135 C1136 1.397 . S
C1135 C1140 1.363 . S
C1136 H1113 0.950 . S
C1136 C1135 1.397 . S
C1136 C1137 1.334 . S
C1137 H1114 0.950 . S
C1137 C1136 1.334 . S
C1137 C1138 1.287 . S
C1138 C1137 1.287 . S
C1138 C1139 1.524 . S
C1138 H1157 0.913 . S
C1139 H1115 0.950 . S
C1139 C1138 1.524 . S
C1139 C1140 1.415 . S
C1140 H1116 0.950 . S
C1140 C1135 1.363 . S
C1140 C1139 1.415 . S
C1141 H1117 0.951 . S
C1141 C1142 1.366 . S
C1141 C1143 1.388 . S
C1142 C1141 1.366 . S
C1142 C1146 1.385 . S
C1143 H1118 0.951 . S
C1143 C1141 1.388 . S
C1143 C1144 1.366 . S
C1144 C1143 1.366 . S
C1144 C1145 1.414 . S
C1144 C1147 1.499 . S
C1145 H1119 0.950 . S
C1145 C1144 1.414 . S
C1145 C1146 1.374 . S
C1146 H1120 0.950 . S
C1146 C1142 1.385 . S
C1146 C1145 1.374 . S
C1147 C1144 1.499 . S
C1147 C1148 1.373 . S
C1147 C1149 1.389 . S
C1148 H1121 0.950 . S
C1148 C1134 1.377 . S
C1148 C1147 1.373 . S
C1149 C1133 1.377 . S
C1149 C1147 1.389 . S
C1149 C1150 1.524 . S
C1150 C1149 1.524 . S
C1150 C1151 1.397 . S
C1150 C1155 1.363 . S
C1151 H1122 0.950 . S
C1151 C1150 1.397 . S
C1151 C1152 1.334 . S
C1152 H1123 0.950 . S
C1152 C1151 1.334 . S
C1152 C1153 1.287 . S
C1153 C1152 1.287 . S
C1153 C1154 1.524 . S
C1153 H1156 0.999 . S
C1154 H1124 0.950 . S
C1154 C1153 1.524 . S
C1154 C1155 1.415 . S
C1155 H1125 0.950 . S
C1155 C1150 1.363 . S
C1155 C1154 1.415 . S
H1156 C1153 0.999 . S
H1157 C1138 0.913 . S
H1158 C1176 0.951 . S
H1159 C1178 0.951 . S
H1160 C1180 0.950 . S
H1161 C1181 0.950 . S
H1162 C1183 0.950 . S
H1163 C1186 0.950 . S
H1164 C1187 0.950 . S
H1165 C1189 0.950 . S
H1166 C1190 0.950 . S
H1167 C1191 0.951 . S
H1168 C1193 0.951 . S
H1169 C1195 0.950 . S
H1170 C1196 0.950 1_455 S
H1171 C1198 0.950 . S
H1172 C1201 0.950 . S
H1173 C1202 0.950 . S
H1174 C1204 0.950 . S
H1175 C1205 0.950 . S
C1176 H1158 0.951 . S
C1176 C1177 1.366 . S
C1176 C1178 1.388 . S
C1177 C1176 1.366 . S
C1177 C1181 1.385 . S
C1178 H1159 0.951 . S
C1178 C1176 1.388 . S
C1178 C1179 1.366 . S
C1179 C1178 1.366 . S
C1179 C1180 1.414 . S
C1179 C1182 1.499 . S
C1180 H1160 0.950 . S
C1180 C1179 1.414 . S
C1180 C1181 1.374 . S
C1181 H1161 0.950 . S
C1181 C1177 1.385 . S
C1181 C1180 1.374 . S
C1182 C1179 1.499 . S
C1182 C1183 1.373 . S
C1182 C1184 1.389 . S
C1183 H1162 0.950 . S
C1183 C1182 1.373 . S
C1183 C1199 1.377 . S
C1184 C1182 1.389 . S
C1184 C1185 1.524 . S
C1184 C1198 1.377 . S
C1185 C1184 1.524 . S
C1185 C1186 1.397 . S
C1185 C1190 1.363 . S
C1186 H1163 0.950 . S
C1186 C1185 1.397 . S
C1186 C1187 1.334 . S
C1187 H1164 0.950 . S
C1187 C1186 1.334 . S
C1187 C1188 1.287 . S
C1188 C1187 1.287 . S
C1188 C1189 1.524 . S
C1188 H1207 0.913 . S
C1189 H1165 0.950 . S
C1189 C1188 1.524 . S
C1189 C1190 1.415 . S
C1190 H1166 0.950 . S
C1190 C1185 1.363 . S
C1190 C1189 1.415 . S
C1191 H1167 0.951 . S
C1191 C1192 1.366 . S
C1191 C1193 1.388 . S
C1192 C1191 1.366 . S
C1192 C1196 1.385 . S
C1193 H1168 0.951 . S
C1193 C1191 1.388 . S
C1193 C1194 1.366 . S
C1194 C1193 1.366 . S
C1194 C1195 1.414 . S
C1194 C1197 1.499 . S
C1195 H1169 0.950 . S
C1195 C1194 1.414 . S
C1195 C1196 1.374 . S
C1196 H1170 0.950 1_655 S
C1196 C1192 1.385 . S
C1196 C1195 1.374 . S
C1197 C1194 1.499 . S
C1197 C1198 1.373 . S
C1197 C1199 1.389 . S
C1198 H1171 0.950 . S
C1198 C1184 1.377 . S
C1198 C1197 1.373 . S
C1199 C1183 1.377 . S
C1199 C1197 1.389 . S
C1199 C1200 1.524 . S
C1200 C1199 1.524 . S
C1200 C1201 1.397 . S
C1200 C1205 1.363 . S
C1201 H1172 0.950 . S
C1201 C1200 1.397 . S
C1201 C1202 1.334 . S
C1202 H1173 0.950 . S
C1202 C1201 1.334 . S
C1202 C1203 1.287 . S
C1203 C1202 1.287 . S
C1203 C1204 1.524 . S
C1203 H1206 0.999 . S
C1204 H1174 0.950 . S
C1204 C1203 1.524 . S
C1204 C1205 1.415 . S
C1205 H1175 0.950 . S
C1205 C1200 1.363 . S
C1205 C1204 1.415 . S
H1206 C1203 0.999 . S
H1207 C1188 0.913 . S
H1208 C1226 0.951 1_545 S
H1209 C1228 0.951 . S
H1210 C1230 0.950 . S
H1211 C1231 0.950 . S
H1212 C1233 0.950 . S
H1213 C1236 0.950 . S
H1214 C1237 0.950 . S
H1215 C1239 0.950 . S
H1216 C1240 0.950 . S
H1217 C1241 0.951 . S
H1218 C1243 0.951 . S
H1219 C1245 0.950 . S
H1220 C1246 0.950 . S
H1221 C1248 0.950 . S
H1222 C1251 0.950 . S
H1223 C1252 0.950 . S
H1224 C1254 0.950 . S
H1225 C1255 0.950 . S
C1226 H1208 0.951 1_565 S
C1226 C1227 1.366 . S
C1226 C1228 1.388 . S
C1227 C1226 1.366 . S
C1227 C1231 1.385 . S
C1228 H1209 0.951 . S
C1228 C1226 1.388 . S
C1228 C1229 1.366 . S
C1229 C1228 1.366 . S
C1229 C1230 1.414 . S
C1229 C1232 1.499 . S
C1230 H1210 0.950 . S
C1230 C1229 1.414 . S
C1230 C1231 1.374 . S
C1231 H1211 0.950 . S
C1231 C1227 1.385 . S
C1231 C1230 1.374 . S
C1232 C1229 1.499 . S
C1232 C1233 1.373 . S
C1232 C1234 1.389 . S
C1233 H1212 0.950 . S
C1233 C1232 1.373 . S
C1233 C1249 1.377 . S
C1234 C1232 1.389 . S
C1234 C1235 1.524 . S
C1234 C1248 1.377 . S
C1235 C1234 1.524 . S
C1235 C1236 1.397 . S
C1235 C1240 1.363 . S
C1236 H1213 0.950 . S
C1236 C1235 1.397 . S
C1236 C1237 1.334 . S
C1237 H1214 0.950 . S
C1237 C1236 1.334 . S
C1237 C1238 1.287 . S
C1238 C1237 1.287 . S
C1238 C1239 1.524 . S
C1238 H1257 0.913 1_565 S
C1239 H1215 0.950 . S
C1239 C1238 1.524 . S
C1239 C1240 1.415 . S
C1240 H1216 0.950 . S
C1240 C1235 1.363 . S
C1240 C1239 1.415 . S
C1241 H1217 0.951 . S
C1241 C1242 1.366 . S
C1241 C1243 1.388 . S
C1242 C1241 1.366 . S
C1242 C1246 1.385 . S
C1243 H1218 0.951 . S
C1243 C1241 1.388 . S
C1243 C1244 1.366 . S
C1244 C1243 1.366 . S
C1244 C1245 1.414 . S
C1244 C1247 1.499 . S
C1245 H1219 0.950 . S
C1245 C1244 1.414 . S
C1245 C1246 1.374 . S
C1246 H1220 0.950 . S
C1246 C1242 1.385 . S
C1246 C1245 1.374 . S
C1247 C1244 1.499 . S
C1247 C1248 1.373 . S
C1247 C1249 1.389 . S
C1248 H1221 0.950 . S
C1248 C1234 1.377 . S
C1248 C1247 1.373 . S
C1249 C1233 1.377 . S
C1249 C1247 1.389 . S
C1249 C1250 1.524 . S
C1250 C1249 1.524 . S
C1250 C1251 1.397 . S
C1250 C1255 1.363 . S
C1251 H1222 0.950 . S
C1251 C1250 1.397 . S
C1251 C1252 1.334 . S
C1252 H1223 0.950 . S
C1252 C1251 1.334 . S
C1252 C1253 1.287 . S
C1253 C1252 1.287 . S
C1253 C1254 1.524 . S
C1253 H1256 0.999 . S
C1254 H1224 0.950 . S
C1254 C1253 1.524 . S
C1254 C1255 1.415 . S
C1255 H1225 0.950 . S
C1255 C1250 1.363 . S
C1255 C1254 1.415 . S
H1256 C1253 0.999 . S
H1257 C1238 0.913 1_545 S
H1258 C1276 0.951 . S
H1259 C1278 0.951 . S
H1260 C1280 0.950 . S
H1261 C1281 0.950 . S
H1262 C1283 0.950 . S
H1263 C1286 0.950 . S
H1264 C1287 0.950 . S
H1265 C1289 0.950 . S
H1266 C1290 0.950 . S
H1267 C1291 0.951 1_455 S
H1268 C1293 0.951 . S
H1269 C1295 0.950 . S
H1270 C1296 0.950 . S
H1271 C1298 0.950 . S
H1272 C1301 0.950 . S
H1273 C1302 0.950 . S
H1274 C1304 0.950 . S
H1275 C1305 0.950 . S
C1276 H1258 0.951 . S
C1276 C1277 1.366 . S
C1276 C1278 1.388 . S
C1277 C1276 1.366 . S
C1277 C1281 1.385 . S
C1278 H1259 0.951 . S
C1278 C1276 1.388 . S
C1278 C1279 1.366 . S
C1279 C1278 1.366 . S
C1279 C1280 1.414 . S
C1279 C1282 1.499 . S
C1280 H1260 0.950 . S
C1280 C1279 1.414 . S
C1280 C1281 1.374 . S
C1281 H1261 0.950 . S
C1281 C1277 1.385 . S
C1281 C1280 1.374 . S
C1282 C1279 1.499 . S
C1282 C1283 1.373 . S
C1282 C1284 1.389 . S
C1283 H1262 0.950 . S
C1283 C1282 1.373 . S
C1283 C1299 1.377 . S
C1284 C1282 1.389 . S
C1284 C1285 1.524 . S
C1284 C1298 1.377 . S
C1285 C1284 1.524 . S
C1285 C1286 1.397 . S
C1285 C1290 1.363 . S
C1286 H1263 0.950 . S
C1286 C1285 1.397 . S
C1286 C1287 1.334 . S
C1287 H1264 0.950 . S
C1287 C1286 1.334 . S
C1287 C1288 1.287 . S
C1288 C1287 1.287 . S
C1288 C1289 1.524 . S
C1288 H1307 0.913 . S
C1289 H1265 0.950 . S
C1289 C1288 1.524 . S
C1289 C1290 1.415 . S
C1290 H1266 0.950 . S
C1290 C1285 1.363 . S
C1290 C1289 1.415 . S
C1291 H1267 0.951 1_655 S
C1291 C1292 1.366 . S
C1291 C1293 1.388 . S
C1292 C1291 1.366 . S
C1292 C1296 1.385 . S
C1293 H1268 0.951 . S
C1293 C1291 1.388 . S
C1293 C1294 1.366 . S
C1294 C1293 1.366 . S
C1294 C1295 1.414 . S
C1294 C1297 1.499 . S
C1295 H1269 0.950 . S
C1295 C1294 1.414 . S
C1295 C1296 1.374 . S
C1296 H1270 0.950 . S
C1296 C1292 1.385 . S
C1296 C1295 1.374 . S
C1297 C1294 1.499 . S
C1297 C1298 1.373 . S
C1297 C1299 1.389 . S
C1298 H1271 0.950 . S
C1298 C1284 1.377 . S
C1298 C1297 1.373 . S
C1299 C1283 1.377 . S
C1299 C1297 1.389 . S
C1299 C1300 1.524 . S
C1300 C1299 1.524 . S
C1300 C1301 1.397 . S
C1300 C1305 1.363 . S
C1301 H1272 0.950 . S
C1301 C1300 1.397 . S
C1301 C1302 1.334 . S
C1302 H1273 0.950 . S
C1302 C1301 1.334 . S
C1302 C1303 1.287 . S
C1303 C1302 1.287 . S
C1303 C1304 1.524 . S
C1303 H1306 0.999 . S
C1304 H1274 0.950 . S
C1304 C1303 1.524 . S
C1304 C1305 1.415 . S
C1305 H1275 0.950 . S
C1305 C1300 1.363 . S
C1305 C1304 1.415 . S
H1306 C1303 0.999 . S
H1307 C1288 0.913 . S
H1308 C1326 0.951 . S
H1309 C1328 0.951 . S
H1310 C1330 0.950 . S
H1311 C1331 0.950 . S
H1312 C1333 0.950 . S
H1313 C1336 0.950 . S
H1314 C1337 0.950 . S
H1315 C1339 0.950 . S
H1316 C1340 0.950 . S
H1317 C1341 0.951 . S
H1318 C1343 0.951 . S
H1319 C1345 0.950 . S
H1320 C1346 0.950 1_565 S
H1321 C1348 0.950 . S
H1322 C1351 0.950 . S
H1323 C1352 0.950 . S
H1324 C1354 0.950 . S
H1325 C1355 0.950 . S
C1326 H1308 0.951 . S
C1326 C1327 1.366 . S
C1326 C1328 1.388 . S
C1327 C1326 1.366 . S
C1327 C1331 1.385 . S
C1328 H1309 0.951 . S
C1328 C1326 1.388 . S
C1328 C1329 1.366 . S
C1329 C1328 1.366 . S
C1329 C1330 1.414 . S
C1329 C1332 1.499 . S
C1330 H1310 0.950 . S
C1330 C1329 1.414 . S
C1330 C1331 1.374 . S
C1331 H1311 0.950 . S
C1331 C1327 1.385 . S
C1331 C1330 1.374 . S
C1332 C1329 1.499 . S
C1332 C1333 1.373 . S
C1332 C1334 1.389 . S
C1333 H1312 0.950 . S
C1333 C1332 1.373 . S
C1333 C1349 1.377 . S
C1334 C1332 1.389 . S
C1334 C1335 1.524 . S
C1334 C1348 1.377 . S
C1335 C1334 1.524 . S
C1335 C1336 1.397 . S
C1335 C1340 1.363 . S
C1336 H1313 0.950 . S
C1336 C1335 1.397 . S
C1336 C1337 1.334 . S
C1337 H1314 0.950 . S
C1337 C1336 1.334 . S
C1337 C1338 1.287 . S
C1338 C1337 1.287 . S
C1338 C1339 1.524 . S
C1338 H1357 0.913 . S
C1339 H1315 0.950 . S
C1339 C1338 1.524 . S
C1339 C1340 1.415 . S
C1340 H1316 0.950 . S
C1340 C1335 1.363 . S
C1340 C1339 1.415 . S
C1341 H1317 0.951 . S
C1341 C1342 1.366 . S
C1341 C1343 1.388 . S
C1342 C1341 1.366 . S
C1342 C1346 1.385 . S
C1343 H1318 0.951 . S
C1343 C1341 1.388 . S
C1343 C1344 1.366 . S
C1344 C1343 1.366 . S
C1344 C1345 1.414 . S
C1344 C1347 1.499 . S
C1345 H1319 0.950 . S
C1345 C1344 1.414 . S
C1345 C1346 1.374 . S
C1346 H1320 0.950 1_545 S
C1346 C1342 1.385 . S
C1346 C1345 1.374 . S
C1347 C1344 1.499 . S
C1347 C1348 1.373 . S
C1347 C1349 1.389 . S
C1348 H1321 0.950 . S
C1348 C1334 1.377 . S
C1348 C1347 1.373 . S
C1349 C1333 1.377 . S
C1349 C1347 1.389 . S
C1349 C1350 1.524 . S
C1350 C1349 1.524 . S
C1350 C1351 1.397 . S
C1350 C1355 1.363 . S
C1351 H1322 0.950 . S
C1351 C1350 1.397 . S
C1351 C1352 1.334 . S
C1352 H1323 0.950 . S
C1352 C1351 1.334 . S
C1352 C1353 1.287 . S
C1353 C1352 1.287 . S
C1353 C1354 1.524 . S
C1353 H1356 0.999 . S
C1354 H1324 0.950 . S
C1354 C1353 1.524 . S
C1354 C1355 1.415 . S
C1355 H1325 0.950 . S
C1355 C1350 1.363 . S
C1355 C1354 1.415 . S
H1356 C1353 0.999 . S
H1357 C1338 0.913 . S
H1358 C1376 0.951 . S
H1359 C1378 0.951 . S
H1360 C1380 0.950 . S
H1361 C1381 0.950 . S
H1362 C1383 0.950 . S
H1363 C1386 0.950 . S
H1364 C1387 0.950 . S
H1365 C1389 0.950 . S
H1366 C1390 0.950 . S
H1367 C1391 0.951 . S
H1368 C1393 0.951 . S
H1369 C1395 0.950 . S
H1370 C1396 0.950 . S
H1371 C1398 0.950 . S
H1372 C1401 0.950 . S
H1373 C1402 0.950 . S
H1374 C1404 0.950 . S
H1375 C1405 0.950 . S
C1376 H1358 0.951 . S
C1376 C1377 1.366 . S
C1376 C1378 1.388 . S
C1377 C1376 1.366 . S
C1377 C1381 1.385 . S
C1378 H1359 0.951 . S
C1378 C1376 1.388 . S
C1378 C1379 1.366 . S
C1379 C1378 1.366 . S
C1379 C1380 1.414 . S
C1379 C1382 1.499 . S
C1380 H1360 0.950 . S
C1380 C1379 1.414 . S
C1380 C1381 1.374 . S
C1381 H1361 0.950 . S
C1381 C1377 1.385 . S
C1381 C1380 1.374 . S
C1382 C1379 1.499 . S
C1382 C1383 1.373 . S
C1382 C1384 1.389 . S
C1383 H1362 0.950 . S
C1383 C1382 1.373 . S
C1383 C1399 1.377 . S
C1384 C1382 1.389 . S
C1384 C1385 1.524 . S
C1384 C1398 1.377 . S
C1385 C1384 1.524 . S
C1385 C1386 1.397 . S
C1385 C1390 1.363 . S
C1386 H1363 0.950 . S
C1386 C1385 1.397 . S
C1386 C1387 1.334 . S
C1387 H1364 0.950 . S
C1387 C1386 1.334 . S
C1387 C1388 1.287 . S
C1388 C1387 1.287 . S
C1388 C1389 1.524 . S
C1388 H1407 0.913 . S
C1389 H1365 0.950 . S
C1389 C1388 1.524 . S
C1389 C1390 1.415 . S
C1390 H1366 0.950 . S
C1390 C1385 1.363 . S
C1390 C1389 1.415 . S
C1391 H1367 0.951 . S
C1391 C1392 1.366 . S
C1391 C1393 1.388 . S
C1392 C1391 1.366 . S
C1392 C1396 1.385 . S
C1393 H1368 0.951 . S
C1393 C1391 1.388 . S
C1393 C1394 1.366 . S
C1394 C1393 1.366 . S
C1394 C1395 1.414 . S
C1394 C1397 1.499 . S
C1395 H1369 0.950 . S
C1395 C1394 1.414 . S
C1395 C1396 1.374 . S
C1396 H1370 0.950 . S
C1396 C1392 1.385 . S
C1396 C1395 1.374 . S
C1397 C1394 1.499 . S
C1397 C1398 1.373 . S
C1397 C1399 1.389 . S
C1398 H1371 0.950 . S
C1398 C1384 1.377 . S
C1398 C1397 1.373 . S
C1399 C1383 1.377 . S
C1399 C1397 1.389 . S
C1399 C1400 1.524 . S
C1400 C1399 1.524 . S
C1400 C1401 1.397 . S
C1400 C1405 1.363 . S
C1401 H1372 0.950 . S
C1401 C1400 1.397 . S
C1401 C1402 1.334 1_455 S
C1402 H1373 0.950 . S
C1402 C1401 1.334 1_655 S
C1402 C1403 1.288 . S
C1403 C1402 1.288 . S
C1403 C1404 1.487 1_655 S
C1403 H1406 1.041 . S
C1404 H1374 0.950 . S
C1404 C1403 1.487 1_455 S
C1404 C1405 1.415 . S
C1405 H1375 0.950 . S
C1405 C1400 1.363 . S
C1405 C1404 1.415 . S
H1406 C1403 1.041 . S
H1407 C1388 0.913 . S
H1408 C1426 0.951 . S
H1409 C1428 0.951 . S
H1410 C1430 0.950 . S
H1411 C1431 0.950 . S
H1412 C1433 0.950 . S
H1413 C1436 0.950 . S
H1414 C1437 0.950 . S
H1415 C1439 0.950 . S
H1416 C1440 0.950 . S
H1417 C1441 0.951 . S
H1418 C1443 0.951 . S
H1419 C1445 0.950 . S
H1420 C1446 0.950 . S
H1421 C1448 0.950 . S
H1422 C1451 0.950 . S
H1423 C1452 0.950 . S
H1424 C1454 0.950 . S
H1425 C1455 0.950 . S
C1426 H1408 0.951 . S
C1426 C1427 1.366 . S
C1426 C1428 1.388 . S
C1427 C1426 1.366 . S
C1427 C1431 1.385 . S
C1428 H1409 0.951 . S
C1428 C1426 1.388 . S
C1428 C1429 1.366 . S
C1429 C1428 1.366 . S
C1429 C1430 1.414 . S
C1429 C1432 1.499 . S
C1430 H1410 0.950 . S
C1430 C1429 1.414 . S
C1430 C1431 1.374 . S
C1431 H1411 0.950 . S
C1431 C1427 1.385 . S
C1431 C1430 1.374 . S
C1432 C1429 1.499 . S
C1432 C1433 1.373 . S
C1432 C1434 1.389 . S
C1433 H1412 0.950 . S
C1433 C1432 1.373 . S
C1433 C1449 1.377 . S
C1434 C1432 1.389 . S
C1434 C1435 1.524 . S
C1434 C1448 1.377 . S
C1435 C1434 1.524 . S
C1435 C1436 1.397 . S
C1435 C1440 1.363 . S
C1436 H1413 0.950 . S
C1436 C1435 1.397 . S
C1436 C1437 1.334 . S
C1437 H1414 0.950 . S
C1437 C1436 1.334 . S
C1437 C1438 1.287 . S
C1438 C1437 1.287 . S
C1438 C1439 1.524 . S
C1438 H1457 0.913 . S
C1439 H1415 0.950 . S
C1439 C1438 1.524 . S
C1439 C1440 1.415 . S
C1440 H1416 0.950 . S
C1440 C1435 1.363 . S
C1440 C1439 1.415 . S
C1441 H1417 0.951 . S
C1441 C1442 1.366 . S
C1441 C1443 1.388 . S
C1442 C1441 1.366 . S
C1442 C1446 1.385 . S
C1443 H1418 0.951 . S
C1443 C1441 1.388 . S
C1443 C1444 1.366 . S
C1444 C1443 1.366 . S
C1444 C1445 1.414 . S
C1444 C1447 1.499 . S
C1445 H1419 0.950 . S
C1445 C1444 1.414 . S
C1445 C1446 1.374 . S
C1446 H1420 0.950 . S
C1446 C1442 1.385 . S
C1446 C1445 1.374 . S
C1447 C1444 1.499 . S
C1447 C1448 1.373 . S
C1447 C1449 1.389 . S
C1448 H1421 0.950 . S
C1448 C1434 1.377 . S
C1448 C1447 1.373 . S
C1449 C1433 1.377 . S
C1449 C1447 1.389 . S
C1449 C1450 1.524 . S
C1450 C1449 1.524 . S
C1450 C1451 1.397 . S
C1450 C1455 1.363 . S
C1451 H1422 0.950 . S
C1451 C1450 1.397 . S
C1451 C1452 1.334 . S
C1452 H1423 0.950 . S
C1452 C1451 1.334 . S
C1452 C1453 1.287 . S
C1453 C1452 1.287 . S
C1453 C1454 1.524 . S
C1453 H1456 0.999 . S
C1454 H1424 0.950 . S
C1454 C1453 1.524 . S
C1454 C1455 1.415 . S
C1455 H1425 0.950 . S
C1455 C1450 1.363 . S
C1455 C1454 1.415 . S
H1456 C1453 0.999 . S
H1457 C1438 0.913 . S
H1458 C1476 0.951 . S
H1459 C1478 0.951 . S
H1460 C1480 0.950 . S
H1461 C1481 0.950 . S
H1462 C1483 0.950 . S
H1463 C1486 0.950 . S
H1464 C1487 0.950 . S
H1465 C1489 0.950 . S
H1466 C1490 0.950 . S
H1467 C1491 0.951 . S
H1468 C1493 0.951 . S
H1469 C1495 0.950 . S
H1470 C1496 0.950 . S
H1471 C1498 0.950 . S
H1472 C1501 0.950 . S
H1473 C1502 0.950 . S
H1474 C1504 0.950 . S
H1475 C1505 0.950 . S
C1476 H1458 0.951 . S
C1476 C1477 1.366 . S
C1476 C1478 1.388 . S
C1477 C1476 1.366 . S
C1477 C1481 1.385 . S
C1478 H1459 0.951 . S
C1478 C1476 1.388 . S
C1478 C1479 1.366 . S
C1479 C1478 1.366 . S
C1479 C1480 1.414 . S
C1479 C1482 1.499 . S
C1480 H1460 0.950 . S
C1480 C1479 1.414 . S
C1480 C1481 1.374 . S
C1481 H1461 0.950 . S
C1481 C1477 1.385 . S
C1481 C1480 1.374 . S
C1482 C1479 1.499 . S
C1482 C1483 1.373 . S
C1482 C1484 1.389 . S
C1483 H1462 0.950 . S
C1483 C1482 1.373 . S
C1483 C1499 1.377 . S
C1484 C1482 1.389 . S
C1484 C1485 1.524 . S
C1484 C1498 1.377 . S
C1485 C1484 1.524 . S
C1485 C1486 1.397 . S
C1485 C1490 1.363 . S
C1486 H1463 0.950 . S
C1486 C1485 1.397 . S
C1486 C1487 1.334 . S
C1487 H1464 0.950 . S
C1487 C1486 1.334 . S
C1487 C1488 1.287 . S
C1488 C1487 1.287 . S
C1488 C1489 1.524 . S
C1488 H1507 0.913 . S
C1489 H1465 0.950 . S
C1489 C1488 1.524 . S
C1489 C1490 1.415 . S
C1490 H1466 0.950 . S
C1490 C1485 1.363 . S
C1490 C1489 1.415 . S
C1491 H1467 0.951 . S
C1491 C1492 1.366 . S
C1491 C1493 1.388 . S
C1492 C1491 1.366 . S
C1492 C1496 1.385 . S
C1493 H1468 0.951 . S
C1493 C1491 1.388 . S
C1493 C1494 1.366 . S
C1494 C1493 1.366 . S
C1494 C1495 1.414 . S
C1494 C1497 1.499 . S
C1495 H1469 0.950 . S
C1495 C1494 1.414 . S
C1495 C1496 1.374 . S
C1496 H1470 0.950 . S
C1496 C1492 1.385 . S
C1496 C1495 1.374 . S
C1497 C1494 1.499 . S
C1497 C1498 1.373 . S
C1497 C1499 1.389 . S
C1498 H1471 0.950 . S
C1498 C1484 1.377 . S
C1498 C1497 1.373 . S
C1499 C1483 1.377 . S
C1499 C1497 1.389 . S
C1499 C1500 1.524 . S
C1500 C1499 1.524 . S
C1500 C1501 1.397 . S
C1500 C1505 1.363 . S
C1501 H1472 0.950 . S
C1501 C1500 1.397 . S
C1501 C1502 1.334 . S
C1502 H1473 0.950 . S
C1502 C1501 1.334 . S
C1502 C1503 1.287 . S
C1503 C1502 1.287 . S
C1503 C1504 1.524 . S
C1503 H1506 0.999 . S
C1504 H1474 0.950 . S
C1504 C1503 1.524 . S
C1504 C1505 1.415 . S
C1505 H1475 0.950 . S
C1505 C1500 1.363 . S
C1505 C1504 1.415 . S
H1506 C1503 0.999 . S
H1507 C1488 0.913 . S
H1508 C1526 0.951 . S
H1509 C1528 0.951 . S
H1510 C1530 0.950 . S
H1511 C1531 0.950 . S
H1512 C1533 0.950 . S
H1513 C1536 0.950 . S
H1514 C1537 0.950 . S
H1515 C1539 0.950 . S
H1516 C1540 0.950 . S
H1517 C1541 0.951 . S
H1518 C1543 0.951 . S
H1519 C1545 0.950 . S
H1520 C1546 0.950 . S
H1521 C1548 0.950 . S
H1522 C1551 0.950 . S
H1523 C1552 0.950 . S
H1524 C1554 0.950 . S
H1525 C1555 0.950 . S
C1526 H1508 0.951 . S
C1526 C1527 1.366 . S
C1526 C1528 1.388 . S
C1527 C1526 1.366 . S
C1527 C1531 1.385 . S
C1528 H1509 0.951 . S
C1528 C1526 1.388 . S
C1528 C1529 1.366 . S
C1529 C1528 1.366 . S
C1529 C1530 1.414 . S
C1529 C1532 1.499 . S
C1530 H1510 0.950 . S
C1530 C1529 1.414 . S
C1530 C1531 1.374 . S
C1531 H1511 0.950 . S
C1531 C1527 1.385 . S
C1531 C1530 1.374 . S
C1532 C1529 1.499 . S
C1532 C1533 1.373 . S
C1532 C1534 1.389 . S
C1533 H1512 0.950 . S
C1533 C1532 1.373 . S
C1533 C1549 1.377 . S
C1534 C1532 1.389 . S
C1534 C1535 1.524 . S
C1534 C1548 1.377 . S
C1535 C1534 1.524 . S
C1535 C1536 1.397 . S
C1535 C1540 1.363 . S
C1536 H1513 0.950 . S
C1536 C1535 1.397 . S
C1536 C1537 1.334 . S
C1537 H1514 0.950 . S
C1537 C1536 1.334 . S
C1537 C1538 1.287 . S
C1538 C1537 1.287 . S
C1538 C1539 1.524 . S
C1538 H1557 0.913 . S
C1539 H1515 0.950 . S
C1539 C1538 1.524 . S
C1539 C1540 1.415 . S
C1540 H1516 0.950 . S
C1540 C1535 1.363 . S
C1540 C1539 1.415 . S
C1541 H1517 0.951 . S
C1541 C1542 1.366 . S
C1541 C1543 1.388 . S
C1542 C1541 1.366 . S
C1542 C1546 1.385 . S
C1543 H1518 0.951 . S
C1543 C1541 1.388 . S
C1543 C1544 1.366 . S
C1544 C1543 1.366 . S
C1544 C1545 1.414 . S
C1544 C1547 1.499 . S
C1545 H1519 0.950 . S
C1545 C1544 1.414 . S
C1545 C1546 1.374 . S
C1546 H1520 0.950 . S
C1546 C1542 1.385 . S
C1546 C1545 1.374 . S
C1547 C1544 1.499 . S
C1547 C1548 1.373 . S
C1547 C1549 1.389 . S
C1548 H1521 0.950 . S
C1548 C1534 1.377 . S
C1548 C1547 1.373 . S
C1549 C1533 1.377 . S
C1549 C1547 1.389 . S
C1549 C1550 1.524 . S
C1550 C1549 1.524 . S
C1550 C1551 1.397 . S
C1550 C1555 1.363 . S
C1551 H1522 0.950 . S
C1551 C1550 1.397 . S
C1551 C1552 1.334 . S
C1552 H1523 0.950 . S
C1552 C1551 1.334 . S
C1552 C1553 1.287 . S
C1553 C1552 1.287 . S
C1553 C1554 1.524 . S
C1553 H1556 0.999 . S
C1554 H1524 0.950 . S
C1554 C1553 1.524 . S
C1554 C1555 1.415 . S
C1555 H1525 0.950 . S
C1555 C1550 1.363 . S
C1555 C1554 1.415 . S
H1556 C1553 0.999 . S
H1557 C1538 0.913 . S
H1558 C1576 0.951 . S
H1559 C1578 0.951 . S
H1560 C1580 0.950 . S
H1561 C1581 0.950 . S
H1562 C1583 0.950 . S
H1563 C1586 0.950 . S
H1564 C1587 0.950 . S
H1565 C1589 0.950 . S
H1566 C1590 0.950 . S
H1567 C1591 0.951 . S
H1568 C1593 0.951 . S
H1569 C1595 0.950 . S
H1570 C1596 0.950 . S
H1571 C1598 0.950 . S
H1572 C1601 0.950 . S
H1573 C1602 0.950 . S
H1574 C1604 0.950 . S
H1575 C1605 0.950 . S
C1576 H1558 0.951 . S
C1576 C1577 1.366 . S
C1576 C1578 1.388 . S
C1577 C1576 1.366 . S
C1577 C1581 1.385 . S
C1578 H1559 0.951 . S
C1578 C1576 1.388 . S
C1578 C1579 1.366 . S
C1579 C1578 1.366 . S
C1579 C1580 1.414 . S
C1579 C1582 1.499 . S
C1580 H1560 0.950 . S
C1580 C1579 1.414 . S
C1580 C1581 1.374 . S
C1581 H1561 0.950 . S
C1581 C1577 1.385 . S
C1581 C1580 1.374 . S
C1582 C1579 1.499 . S
C1582 C1583 1.373 . S
C1582 C1584 1.389 . S
C1583 H1562 0.950 . S
C1583 C1582 1.373 . S
C1583 C1599 1.377 . S
C1584 C1582 1.389 . S
C1584 C1585 1.524 . S
C1584 C1598 1.377 . S
C1585 C1584 1.524 . S
C1585 C1586 1.397 . S
C1585 C1590 1.363 . S
C1586 H1563 0.950 . S
C1586 C1585 1.397 . S
C1586 C1587 1.334 . S
C1587 H1564 0.950 . S
C1587 C1586 1.334 . S
C1587 C1588 1.287 . S
C1588 C1587 1.287 . S
C1588 C1589 1.524 . S
C1588 H1607 0.913 . S
C1589 H1565 0.950 . S
C1589 C1588 1.524 . S
C1589 C1590 1.415 . S
C1590 H1566 0.950 . S
C1590 C1585 1.363 . S
C1590 C1589 1.415 . S
C1591 H1567 0.951 . S
C1591 C1592 1.366 . S
C1591 C1593 1.388 . S
C1592 C1591 1.366 . S
C1592 C1596 1.385 . S
C1593 H1568 0.951 . S
C1593 C1591 1.388 . S
C1593 C1594 1.366 . S
C1594 C1593 1.366 . S
C1594 C1595 1.414 . S
C1594 C1597 1.499 . S
C1595 H1569 0.950 . S
C1595 C1594 1.414 . S
C1595 C1596 1.374 . S
C1596 H1570 0.950 . S
C1596 C1592 1.385 . S
C1596 C1595 1.374 . S
C1597 C1594 1.499 . S
C1597 C1598 1.373 . S
C1597 C1599 1.389 . S
C1598 H1571 0.950 . S
C1598 C1584 1.377 . S
C1598 C1597 1.373 . S
C1599 C1583 1.377 . S
C1599 C1597 1.389 . S
C1599 C1600 1.524 . S
C1600 C1599 1.524 . S
C1600 C1601 1.397 . S
C1600 C1605 1.363 . S
C1601 H1572 0.950 . S
C1601 C1600 1.397 . S
C1601 C1602 1.334 . S
C1602 H1573 0.950 . S
C1602 C1601 1.334 . S
C1602 C1603 1.287 . S
C1603 C1602 1.287 . S
C1603 C1604 1.524 . S
C1603 H1606 0.999 . S
C1604 H1574 0.950 . S
C1604 C1603 1.524 . S
C1604 C1605 1.415 . S
C1605 H1575 0.950 . S
C1605 C1600 1.363 . S
C1605 C1604 1.415 . S
H1606 C1603 0.999 . S
H1607 C1588 0.913 . S
H1608 C1626 0.951 . S
H1609 C1628 0.951 1_565 S
H1610 C1630 0.950 . S
H1611 C1631 0.950 . S
H1612 C1633 0.950 . S
H1613 C1636 0.950 . S
H1614 C1637 0.950 . S
H1615 C1639 0.950 . S
H1616 C1640 0.950 . S
H1617 C1641 0.951 . S
H1618 C1643 0.951 1_545 S
H1619 C1645 0.950 . S
H1620 C1646 0.950 . S
H1621 C1648 0.950 . S
H1622 C1651 0.950 . S
H1623 C1652 0.950 . S
H1624 C1654 0.950 . S
H1625 C1655 0.950 . S
C1626 H1608 0.951 . S
C1626 C1627 1.366 . S
C1626 C1628 1.388 . S
C1627 C1626 1.366 . S
C1627 C1631 1.385 . S
C1628 H1609 0.951 1_545 S
C1628 C1626 1.388 . S
C1628 C1629 1.366 . S
C1629 C1628 1.366 . S
C1629 C1630 1.414 . S
C1629 C1632 1.499 . S
C1630 H1610 0.950 . S
C1630 C1629 1.414 . S
C1630 C1631 1.374 . S
C1631 H1611 0.950 . S
C1631 C1627 1.385 . S
C1631 C1630 1.374 . S
C1632 C1629 1.499 . S
C1632 C1633 1.373 . S
C1632 C1634 1.389 1_545 S
C1633 H1612 0.950 . S
C1633 C1632 1.373 . S
C1633 C1649 1.377 1_554 S
C1634 C1632 1.389 1_565 S
C1634 C1635 1.524 . S
C1634 C1648 1.377 1_554 S
C1635 C1634 1.524 . S
C1635 C1636 1.397 . S
C1635 C1640 1.363 . S
C1636 H1613 0.950 . S
C1636 C1635 1.397 . S
C1636 C1637 1.334 . S
C1637 H1614 0.950 . S
C1637 C1636 1.334 . S
C1637 C1638 1.287 . S
C1638 C1637 1.287 . S
C1638 C1639 1.524 . S
C1638 H1657 0.913 . S
C1639 H1615 0.950 . S
C1639 C1638 1.524 . S
C1639 C1640 1.415 . S
C1640 H1616 0.950 . S
C1640 C1635 1.363 . S
C1640 C1639 1.415 . S
C1641 H1617 0.951 . S
C1641 C1642 1.366 . S
C1641 C1643 1.388 . S
C1642 C1641 1.366 . S
C1642 C1646 1.385 . S
C1643 H1618 0.951 1_565 S
C1643 C1641 1.388 . S
C1643 C1644 1.366 . S
C1644 C1643 1.366 . S
C1644 C1645 1.414 . S
C1644 C1647 1.499 . S
C1645 H1619 0.950 . S
C1645 C1644 1.414 . S
C1645 C1646 1.374 . S
C1646 H1620 0.950 . S
C1646 C1642 1.385 . S
C1646 C1645 1.374 . S
C1647 C1644 1.499 . S
C1647 C1648 1.373 . S
C1647 C1649 1.389 1_565 S
C1648 H1621 0.950 . S
C1648 C1634 1.377 1_556 S
C1648 C1647 1.373 . S
C1649 C1633 1.377 1_556 S
C1649 C1647 1.389 1_545 S
C1649 C1650 1.524 . S
C1650 C1649 1.524 . S
C1650 C1651 1.397 . S
C1650 C1655 1.363 . S
C1651 H1622 0.950 . S
C1651 C1650 1.397 . S
C1651 C1652 1.334 . S
C1652 H1623 0.950 . S
C1652 C1651 1.334 . S
C1652 C1653 1.287 . S
C1653 C1652 1.287 . S
C1653 C1654 1.524 . S
C1653 H1656 0.999 . S
C1654 H1624 0.950 . S
C1654 C1653 1.524 . S
C1654 C1655 1.415 . S
C1655 H1625 0.950 . S
C1655 C1650 1.363 . S
C1655 C1654 1.415 . S
H1656 C1653 0.999 . S
H1657 C1638 0.913 . S
H1658 C1676 0.951 . S
H1659 C1678 0.951 . S
H1660 C1680 0.950 1_655 S
H1661 C1681 0.937 1_655 S
H1662 C1683 0.950 . S
H1663 C1686 0.950 . S
H1664 C1687 0.950 . S
H1665 C1689 0.950 1_554 S
H1666 C1690 0.950 . S
H1667 C1691 0.951 . S
H1668 C1693 0.951 . S
H1669 C1695 0.950 1_455 S
H1670 C1696 0.937 1_455 S
H1671 C1698 0.950 . S
H1672 C1701 0.950 . S
H1673 C1702 0.950 . S
H1674 C1704 0.950 1_556 S
H1675 C1705 0.950 . S
C1676 H1658 0.951 . S
C1676 C1677 1.366 . S
C1676 C1678 1.388 . S
C1677 C1676 1.366 . S
C1677 C1681 1.385 . S
C1678 H1659 0.951 . S
C1678 C1676 1.388 . S
C1678 C1679 1.366 . S
C1679 C1678 1.366 . S
C1679 C1680 1.414 . S
C1679 C1682 1.499 . S
C1680 H1660 0.950 1_455 S
C1680 C1679 1.414 . S
C1680 C1681 1.374 . S
C1681 H1661 0.937 1_455 S
C1681 C1677 1.385 . S
C1681 C1680 1.374 . S
C1682 C1679 1.499 . S
C1682 C1683 1.373 1_455 S
C1682 C1684 1.389 . S
C1683 H1662 0.950 . S
C1683 C1682 1.373 1_655 S
C1683 C1699 1.377 1_556 S
C1684 C1682 1.389 . S
C1684 C1685 1.524 . S
C1684 C1698 1.377 1_556 S
C1685 C1684 1.524 . S
C1685 C1686 1.397 . S
C1685 C1690 1.363 1_556 S
C1686 H1663 0.950 . S
C1686 C1685 1.397 . S
C1686 C1687 1.334 . S
C1687 H1664 0.950 . S
C1687 C1686 1.334 . S
C1687 C1688 1.287 . S
C1688 C1687 1.287 . S
C1688 C1689 1.524 . S
C1688 H1707 0.913 . S
C1689 H1665 0.950 1_556 S
C1689 C1688 1.524 . S
C1689 C1690 1.415 1_556 S
C1690 H1666 0.950 . S
C1690 C1685 1.363 1_554 S
C1690 C1689 1.415 1_554 S
C1691 H1667 0.951 . S
C1691 C1692 1.366 . S
C1691 C1693 1.388 . S
C1692 C1691 1.366 . S
C1692 C1696 1.385 . S
C1693 H1668 0.951 . S
C1693 C1691 1.388 . S
C1693 C1694 1.366 . S
C1694 C1693 1.366 . S
C1694 C1695 1.414 . S
C1694 C1697 1.499 . S
C1695 H1669 0.950 1_655 S
C1695 C1694 1.414 . S
C1695 C1696 1.374 . S
C1696 H1670 0.937 1_655 S
C1696 C1692 1.385 . S
C1696 C1695 1.374 . S
C1697 C1694 1.499 . S
C1697 C1698 1.373 1_655 S
C1697 C1699 1.389 . S
C1698 H1671 0.950 . S
C1698 C1684 1.377 1_554 S
C1698 C1697 1.373 1_455 S
C1699 C1683 1.377 1_554 S
C1699 C1697 1.389 . S
C1699 C1700 1.524 . S
C1700 C1699 1.524 . S
C1700 C1701 1.397 . S
C1700 C1705 1.363 1_554 S
C1701 H1672 0.950 . S
C1701 C1700 1.397 . S
C1701 C1702 1.334 . S
C1702 H1673 0.950 . S
C1702 C1701 1.334 . S
C1702 C1703 1.287 . S
C1703 C1702 1.287 . S
C1703 C1704 1.524 . S
C1703 H1706 0.999 . S
C1704 H1674 0.950 1_554 S
C1704 C1703 1.524 . S
C1704 C1705 1.415 1_554 S
C1705 H1675 0.950 . S
C1705 C1700 1.363 1_556 S
C1705 C1704 1.415 1_556 S
H1706 C1703 0.999 . S
H1707 C1688 0.913 . S
H1708 C1726 0.951 . S
H1709 C1728 0.951 . S
H1710 C1730 0.950 1_565 S
H1711 C1731 0.950 . S
H1712 C1733 0.950 . S
H1713 C1736 0.950 . S
H1714 C1737 0.950 . S
H1715 C1739 0.950 . S
H1716 C1740 0.950 . S
H1717 C1741 0.951 . S
H1718 C1743 0.951 . S
H1719 C1745 0.950 1_545 S
H1720 C1746 0.950 . S
H1721 C1748 0.950 . S
H1722 C1751 0.950 . S
H1723 C1752 0.950 . S
H1724 C1754 0.950 . S
H1725 C1755 0.950 . S
C1726 H1708 0.951 . S
C1726 C1727 1.366 . S
C1726 C1728 1.388 . S
C1727 C1726 1.366 . S
C1727 C1731 1.385 . S
C1728 H1709 0.951 . S
C1728 C1726 1.388 . S
C1728 C1729 1.366 . S
C1729 C1728 1.366 . S
C1729 C1730 1.414 . S
C1729 C1732 1.499 . S
C1730 H1710 0.950 1_545 S
C1730 C1729 1.414 . S
C1730 C1731 1.374 . S
C1731 H1711 0.950 . S
C1731 C1727 1.385 . S
C1731 C1730 1.374 . S
C1732 C1729 1.499 . S
C1732 C1733 1.373 1_545 S
C1732 C1734 1.389 . S
C1733 H1712 0.950 . S
C1733 C1732 1.373 1_565 S
C1733 C1749 1.377 1_556 S
C1734 C1732 1.389 . S
C1734 C1735 1.524 . S
C1734 C1748 1.377 1_556 S
C1735 C1734 1.524 . S
C1735 C1736 1.397 . S
C1735 C1740 1.363 1_556 S
C1736 H1713 0.950 . S
C1736 C1735 1.397 . S
C1736 C1737 1.334 . S
C1737 H1714 0.950 . S
C1737 C1736 1.334 . S
C1737 C1738 1.287 . S
C1738 C1737 1.287 . S
C1738 C1739 1.524 1_556 S
C1738 H1757 0.913 . S
C1739 H1715 0.950 . S
C1739 C1738 1.524 1_554 S
C1739 C1740 1.415 . S
C1740 H1716 0.950 . S
C1740 C1735 1.363 1_554 S
C1740 C1739 1.415 . S
C1741 H1717 0.951 . S
C1741 C1742 1.366 . S
C1741 C1743 1.388 . S
C1742 C1741 1.366 . S
C1742 C1746 1.385 . S
C1743 H1718 0.951 . S
C1743 C1741 1.388 . S
C1743 C1744 1.366 . S
C1744 C1743 1.366 . S
C1744 C1745 1.414 . S
C1744 C1747 1.499 . S
C1745 H1719 0.950 1_565 S
C1745 C1744 1.414 . S
C1745 C1746 1.374 . S
C1746 H1720 0.950 . S
C1746 C1742 1.385 . S
C1746 C1745 1.374 . S
C1747 C1744 1.499 . S
C1747 C1748 1.373 1_565 S
C1747 C1749 1.389 . S
C1748 H1721 0.950 . S
C1748 C1734 1.377 1_554 S
C1748 C1747 1.373 1_545 S
C1749 C1733 1.377 1_554 S
C1749 C1747 1.389 . S
C1749 C1750 1.524 . S
C1750 C1749 1.524 . S
C1750 C1751 1.397 . S
C1750 C1755 1.363 1_554 S
C1751 H1722 0.950 . S
C1751 C1750 1.397 . S
C1751 C1752 1.334 . S
C1752 H1723 0.950 . S
C1752 C1751 1.334 . S
C1752 C1753 1.287 . S
C1753 C1752 1.287 . S
C1753 C1754 1.524 1_554 S
C1753 H1756 0.999 . S
C1754 H1724 0.950 . S
C1754 C1753 1.524 1_556 S
C1754 C1755 1.415 . S
C1755 H1725 0.950 . S
C1755 C1750 1.363 1_556 S
C1755 C1754 1.415 . S
H1756 C1753 0.999 . S
H1757 C1738 0.913 . S
H1758 C1776 0.952 1_455 S
H1759 C1778 0.951 1_455 S
H1760 C1780 0.950 . S
H1761 C1781 0.950 . S
H1762 C1783 0.950 . S
H1763 C1786 0.950 . S
H1764 C1787 0.951 1_655 S
H1765 C1789 0.950 . S
H1766 C1790 0.950 . S
H1767 C1791 0.952 1_655 S
H1768 C1793 0.951 1_655 S
H1769 C1795 0.950 . S
H1770 C1796 0.950 . S
H1771 C1798 0.950 . S
H1772 C1801 0.950 . S
H1773 C1802 0.951 1_455 S
H1774 C1804 0.950 . S
H1775 C1805 0.950 . S
C1776 H1758 0.952 1_655 S
C1776 C1777 1.366 . S
C1776 C1778 1.388 . S
C1777 C1776 1.366 . S
C1777 C1781 1.385 . S
C1778 H1759 0.951 1_655 S
C1778 C1776 1.388 . S
C1778 C1779 1.366 . S
C1779 C1778 1.366 . S
C1779 C1780 1.414 . S
C1779 C1782 1.499 . S
C1780 H1760 0.950 . S
C1780 C1779 1.414 . S
C1780 C1781 1.374 . S
C1781 H1761 0.950 . S
C1781 C1777 1.385 . S
C1781 C1780 1.374 . S
C1782 C1779 1.499 . S
C1782 C1783 1.373 . S
C1782 C1784 1.389 1_655 S
C1783 H1762 0.950 . S
C1783 C1782 1.373 . S
C1783 C1799 1.377 1_556 S
C1784 C1782 1.389 1_455 S
C1784 C1785 1.524 . S
C1784 C1798 1.377 1_556 S
C1785 C1784 1.524 . S
C1785 C1786 1.397 1_455 S
C1785 C1790 1.363 . S
C1786 H1763 0.950 . S
C1786 C1785 1.397 1_655 S
C1786 C1787 1.334 1_655 S
C1787 H1764 0.951 1_455 S
C1787 C1786 1.334 1_455 S
C1787 C1788 1.286 . S
C1788 C1787 1.286 . S
C1788 C1789 1.524 . S
C1788 H1807 0.913 . S
C1789 H1765 0.950 . S
C1789 C1788 1.524 . S
C1789 C1790 1.415 . S
C1790 H1766 0.950 . S
C1790 C1785 1.363 . S
C1790 C1789 1.415 . S
C1791 H1767 0.952 1_455 S
C1791 C1792 1.366 . S
C1791 C1793 1.388 . S
C1792 C1791 1.366 . S
C1792 C1796 1.385 . S
C1793 H1768 0.951 1_455 S
C1793 C1791 1.388 . S
C1793 C1794 1.366 . S
C1794 C1793 1.366 . S
C1794 C1795 1.414 . S
C1794 C1797 1.499 . S
C1795 H1769 0.950 . S
C1795 C1794 1.414 . S
C1795 C1796 1.374 . S
C1796 H1770 0.950 . S
C1796 C1792 1.385 . S
C1796 C1795 1.374 . S
C1797 C1794 1.499 . S
C1797 C1798 1.373 . S
C1797 C1799 1.389 1_455 S
C1798 H1771 0.950 . S
C1798 C1784 1.377 1_554 S
C1798 C1797 1.373 . S
C1799 C1783 1.377 1_554 S
C1799 C1797 1.389 1_655 S
C1799 C1800 1.524 . S
C1800 C1799 1.524 . S
C1800 C1801 1.397 1_655 S
C1800 C1805 1.363 . S
C1801 H1772 0.950 . S
C1801 C1800 1.397 1_455 S
C1801 C1802 1.334 1_455 S
C1802 H1773 0.951 1_655 S
C1802 C1801 1.334 1_655 S
C1802 C1803 1.286 . S
C1803 C1802 1.286 . S
C1803 C1804 1.524 . S
C1803 H1806 0.999 . S
C1804 H1774 0.950 . S
C1804 C1803 1.524 . S
C1804 C1805 1.415 . S
C1805 H1775 0.950 . S
C1805 C1800 1.363 . S
C1805 C1804 1.415 . S
H1806 C1803 0.999 . S
H1807 C1788 0.913 . S
C227 C0 1.021 . S
C242 C91 1.022 . S
C277 C13 1.022 . S
C292 C52 1.021 . S
C327 C65 1.021 . S
C342 C26 1.022 . S
C377 C39 1.022 . S
C392 C78 1.021 . S
C427 C104 1.022 . S
C442 C195 1.021 . S
C477 C156 1.022 . S
C492 C117 1.021 . S
C527 C169 1.022 . S
C542 C130 1.021 . S
C577 C182 1.021 . S
C592 C143 1.022 . S
C627 C5 1.005 . S
C642 C153 1.077 . S
C677 C18 1.004 . S
C692 C114 1.076 . S
C727 C127 1.076 . S
C742 C31 1.004 . S
C777 C44 1.006 . S
C792 C140 1.076 . S
C827 C57 1.006 . S
C842 C179 1.077 . S
C877 C192 1.076 . S
C892 C70 1.005 . S
C927 C83 1.005 . S
C942 C205 1.077 . S
C977 C166 1.076 . S
C992 C96 1.004 . S
C1027 C109 1.004 1_545 S
C1042 C49 1.076 . S
C1077 C10 1.076 . S
C1092 C122 1.004 1_455 S
C1127 C135 1.005 1_565 S
C1142 C23 1.077 . S
C1177 C36 1.076 . S
C1192 C148 1.006 1_655 S
C1227 C161 1.005 1_565 S
C1242 C75 1.076 . S
C1277 C88 1.076 . S
C1292 C174 1.004 1_655 S
C1327 C101 1.076 . S
C1342 C187 1.004 1_545 S
C1377 C62 1.076 . S
C1392 C200 1.006 1_455 S
C1427 C60 1.548 . S
C1442 C8 1.548 . S
C1477 C73 1.548 . S
C1492 C21 1.548 . S
C1527 C34 1.548 . S
C1542 C86 1.548 . S
C1577 C99 1.549 . S
C1592 C47 1.548 . S
C1627 C164 1.548 . S
C1642 C112 1.549 . S
C1677 C177 1.548 . S
C1692 C125 1.548 . S
C1727 C138 1.548 . S
C1742 C190 1.548 . S
C1777 C203 1.548 . S
C1792 C151 1.548 . S
