# Generated by pormake.
# Topology pem, (4)-cn, num edge types: 1
# Building blocks:
#     Node 0, Type 0, BuildingBlock: KUFVIS_clean_sbu_0, # of connection points: 4
#     Node 1, Type 0, BuildingBlock: KUFVIS_clean_sbu_0, # of connection points: 4
#     Node 2, Type 0, BuildingBlock: KUFVIS_clean_sbu_0, # of connection points: 4
#     Node 3, Type 0, BuildingBlock: KUFVIS_clean_sbu_0, # of connection points: 4
#     Node 4, Type 0, BuildingBlock: KUFVIS_clean_sbu_0, # of connection points: 4
#     Node 5, Type 0, BuildingBlock: KUFVIS_clean_sbu_0, # of connection points: 4
#     Node 6, Type 0, BuildingBlock: KUFVIS_clean_sbu_0, # of connection points: 4
#     Node 7, Type 0, BuildingBlock: KUFVIS_clean_sbu_0, # of connection points: 4
#     Node 8, Type 0, BuildingBlock: KUFVIS_clean_sbu_0, # of connection points: 4
#     Node 9, Type 0, BuildingBlock: KUFVIS_clean_sbu_0, # of connection points: 4
#     Node 10, Type 0, BuildingBlock: KUFVIS_clean_sbu_0, # of connection points: 4
#     Node 11, Type 0, BuildingBlock: KUFVIS_clean_sbu_0, # of connection points: 4
#     Node 12, Type 0, BuildingBlock: KUFVIS_clean_sbu_0, # of connection points: 4
#     Node 13, Type 0, BuildingBlock: KUFVIS_clean_sbu_0, # of connection points: 4
#     Node 14, Type 0, BuildingBlock: KUFVIS_clean_sbu_0, # of connection points: 4
#     Node 15, Type 0, BuildingBlock: KUFVIS_clean_sbu_0, # of connection points: 4
#     Node 16, Type 0, BuildingBlock: KUFVIS_clean_sbu_0, # of connection points: 4
#     Node 17, Type 0, BuildingBlock: KUFVIS_clean_sbu_0, # of connection points: 4
#     Node 18, Type 0, BuildingBlock: KUFVIS_clean_sbu_0, # of connection points: 4
#     Node 19, Type 0, BuildingBlock: KUFVIS_clean_sbu_0, # of connection points: 4
#     Node 20, Type 0, BuildingBlock: KUFVIS_clean_sbu_0, # of connection points: 4
#     Node 21, Type 0, BuildingBlock: KUFVIS_clean_sbu_0, # of connection points: 4
#     Node 22, Type 0, BuildingBlock: KUFVIS_clean_sbu_0, # of connection points: 4
#     Node 23, Type 0, BuildingBlock: KUFVIS_clean_sbu_0, # of connection points: 4
#     Node 24, Type 0, BuildingBlock: KUFVIS_clean_sbu_0, # of connection points: 4
#     Node 25, Type 0, BuildingBlock: KUFVIS_clean_sbu_0, # of connection points: 4
#     Node 26, Type 0, BuildingBlock: KUFVIS_clean_sbu_0, # of connection points: 4
#     Node 27, Type 0, BuildingBlock: KUFVIS_clean_sbu_0, # of connection points: 4
#     Node 28, Type 0, BuildingBlock: KUFVIS_clean_sbu_0, # of connection points: 4
#     Node 29, Type 0, BuildingBlock: KUFVIS_clean_sbu_0, # of connection points: 4
#     Node 30, Type 0, BuildingBlock: KUFVIS_clean_sbu_0, # of connection points: 4
#     Node 31, Type 0, BuildingBlock: KUFVIS_clean_sbu_0, # of connection points: 4
#     Edge 32, Type (0, 0), BuildingBlock: CIFDUS_clean_linker_0, # of connection points: 2
#     Edge 33, Type (0, 0), BuildingBlock: CIFDUS_clean_linker_0, # of connection points: 2
#     Edge 34, Type (0, 0), BuildingBlock: CIFDUS_clean_linker_0, # of connection points: 2
#     Edge 35, Type (0, 0), BuildingBlock: CIFDUS_clean_linker_0, # of connection points: 2
#     Edge 36, Type (0, 0), BuildingBlock: CIFDUS_clean_linker_0, # of connection points: 2
#     Edge 37, Type (0, 0), BuildingBlock: CIFDUS_clean_linker_0, # of connection points: 2
#     Edge 38, Type (0, 0), BuildingBlock: CIFDUS_clean_linker_0, # of connection points: 2
#     Edge 39, Type (0, 0), BuildingBlock: CIFDUS_clean_linker_0, # of connection points: 2
#     Edge 40, Type (0, 0), BuildingBlock: CIFDUS_clean_linker_0, # of connection points: 2
#     Edge 41, Type (0, 0), BuildingBlock: CIFDUS_clean_linker_0, # of connection points: 2
#     Edge 42, Type (0, 0), BuildingBlock: CIFDUS_clean_linker_0, # of connection points: 2
#     Edge 43, Type (0, 0), BuildingBlock: CIFDUS_clean_linker_0, # of connection points: 2
#     Edge 44, Type (0, 0), BuildingBlock: CIFDUS_clean_linker_0, # of connection points: 2
#     Edge 45, Type (0, 0), BuildingBlock: CIFDUS_clean_linker_0, # of connection points: 2
#     Edge 46, Type (0, 0), BuildingBlock: CIFDUS_clean_linker_0, # of connection points: 2
#     Edge 47, Type (0, 0), BuildingBlock: CIFDUS_clean_linker_0, # of connection points: 2
#     Edge 48, Type (0, 0), BuildingBlock: CIFDUS_clean_linker_0, # of connection points: 2
#     Edge 49, Type (0, 0), BuildingBlock: CIFDUS_clean_linker_0, # of connection points: 2
#     Edge 50, Type (0, 0), BuildingBlock: CIFDUS_clean_linker_0, # of connection points: 2
#     Edge 51, Type (0, 0), BuildingBlock: CIFDUS_clean_linker_0, # of connection points: 2
#     Edge 52, Type (0, 0), BuildingBlock: CIFDUS_clean_linker_0, # of connection points: 2
#     Edge 53, Type (0, 0), BuildingBlock: CIFDUS_clean_linker_0, # of connection points: 2
#     Edge 54, Type (0, 0), BuildingBlock: CIFDUS_clean_linker_0, # of connection points: 2
#     Edge 55, Type (0, 0), BuildingBlock: CIFDUS_clean_linker_0, # of connection points: 2
#     Edge 56, Type (0, 0), BuildingBlock: CIFDUS_clean_linker_0, # of connection points: 2
#     Edge 57, Type (0, 0), BuildingBlock: CIFDUS_clean_linker_0, # of connection points: 2
#     Edge 58, Type (0, 0), BuildingBlock: CIFDUS_clean_linker_0, # of connection points: 2
#     Edge 59, Type (0, 0), BuildingBlock: CIFDUS_clean_linker_0, # of connection points: 2
#     Edge 60, Type (0, 0), BuildingBlock: CIFDUS_clean_linker_0, # of connection points: 2
#     Edge 61, Type (0, 0), BuildingBlock: CIFDUS_clean_linker_0, # of connection points: 2
#     Edge 62, Type (0, 0), BuildingBlock: CIFDUS_clean_linker_0, # of connection points: 2
#     Edge 63, Type (0, 0), BuildingBlock: CIFDUS_clean_linker_0, # of connection points: 2
#     Edge 64, Type (0, 0), BuildingBlock: CIFDUS_clean_linker_0, # of connection points: 2
#     Edge 65, Type (0, 0), BuildingBlock: CIFDUS_clean_linker_0, # of connection points: 2
#     Edge 66, Type (0, 0), BuildingBlock: CIFDUS_clean_linker_0, # of connection points: 2
#     Edge 67, Type (0, 0), BuildingBlock: CIFDUS_clean_linker_0, # of connection points: 2
#     Edge 68, Type (0, 0), BuildingBlock: CIFDUS_clean_linker_0, # of connection points: 2
#     Edge 69, Type (0, 0), BuildingBlock: CIFDUS_clean_linker_0, # of connection points: 2
#     Edge 70, Type (0, 0), BuildingBlock: CIFDUS_clean_linker_0, # of connection points: 2
#     Edge 71, Type (0, 0), BuildingBlock: CIFDUS_clean_linker_0, # of connection points: 2
#     Edge 72, Type (0, 0), BuildingBlock: CIFDUS_clean_linker_0, # of connection points: 2
#     Edge 73, Type (0, 0), BuildingBlock: CIFDUS_clean_linker_0, # of connection points: 2
#     Edge 74, Type (0, 0), BuildingBlock: CIFDUS_clean_linker_0, # of connection points: 2
#     Edge 75, Type (0, 0), BuildingBlock: CIFDUS_clean_linker_0, # of connection points: 2
#     Edge 76, Type (0, 0), BuildingBlock: CIFDUS_clean_linker_0, # of connection points: 2
#     Edge 77, Type (0, 0), BuildingBlock: CIFDUS_clean_linker_0, # of connection points: 2
#     Edge 78, Type (0, 0), BuildingBlock: CIFDUS_clean_linker_0, # of connection points: 2
#     Edge 79, Type (0, 0), BuildingBlock: CIFDUS_clean_linker_0, # of connection points: 2
#     Edge 80, Type (0, 0), BuildingBlock: CIFDUS_clean_linker_0, # of connection points: 2
#     Edge 81, Type (0, 0), BuildingBlock: CIFDUS_clean_linker_0, # of connection points: 2
#     Edge 82, Type (0, 0), BuildingBlock: CIFDUS_clean_linker_0, # of connection points: 2
#     Edge 83, Type (0, 0), BuildingBlock: CIFDUS_clean_linker_0, # of connection points: 2
#     Edge 84, Type (0, 0), BuildingBlock: CIFDUS_clean_linker_0, # of connection points: 2
#     Edge 85, Type (0, 0), BuildingBlock: CIFDUS_clean_linker_0, # of connection points: 2
#     Edge 86, Type (0, 0), BuildingBlock: CIFDUS_clean_linker_0, # of connection points: 2
#     Edge 87, Type (0, 0), BuildingBlock: CIFDUS_clean_linker_0, # of connection points: 2
#     Edge 88, Type (0, 0), BuildingBlock: CIFDUS_clean_linker_0, # of connection points: 2
#     Edge 89, Type (0, 0), BuildingBlock: CIFDUS_clean_linker_0, # of connection points: 2
#     Edge 90, Type (0, 0), BuildingBlock: CIFDUS_clean_linker_0, # of connection points: 2
#     Edge 91, Type (0, 0), BuildingBlock: CIFDUS_clean_linker_0, # of connection points: 2
#     Edge 92, Type (0, 0), BuildingBlock: CIFDUS_clean_linker_0, # of connection points: 2
#     Edge 93, Type (0, 0), BuildingBlock: CIFDUS_clean_linker_0, # of connection points: 2
#     Edge 94, Type (0, 0), BuildingBlock: CIFDUS_clean_linker_0, # of connection points: 2
#     Edge 95, Type (0, 0), BuildingBlock: CIFDUS_clean_linker_0, # of connection points: 2
# Relax obj value: 0.169
# Max RMSD: 0.153
# Mean RMSD: 0.132
data_MOF--net-pem--node1-KUFVIS_clean_sbu_0--edge1-CIFDUS_clean_linker_0
_symmetry_space_group_name_H-M    P1
_symmetry_Int_Tables_number       1
_symmetry_cell_setting            triclinic
loop_
_symmetry_equiv_pos_as_xyz
'x, y, z'
_cell_length_a     39.29513
_cell_length_b     36.05226
_cell_length_c     35.462734
_cell_angle_alpha  91.4516
_cell_angle_beta   91.626687
_cell_angle_gamma 92.991664
loop_
_atom_site_label
_atom_site_type_symbol
_atom_site_fract_x
_atom_site_fract_y
_atom_site_fract_z
_atom_type_partial_charge
Mn0 Mn 0.0737 0.10991 0.09236 0.0
Mn1 Mn 0.12557 0.05222 0.04637 0.0
C2 C 0.07042 0.10091 0.0282 0.0
C3 C 0.02282 0.1281 0.12072 0.0
C4 C 0.14498 0.13222 0.06579 0.0
O5 O 0.08909 0.07504 0.13389 0.0
O6 O 0.12923 0.04636 0.10138 0.0
C7 C 0.08978 0.9806 0.06603 0.0
N8 N 0.10249 1.00404 0.03967 0.0
C9 C 0.08962 0.95797 0.99013 0.0
C10 C 0.07701 0.93332 0.01693 0.0
C11 C 0.07678 0.94484 0.05498 0.0
C12 C 0.10197 0.99347 1.00277 0.0
H13 H 0.08949 0.98881 0.09532 0.0
C14 C 0.1117 0.05069 0.13083 0.0
O15 O 0.05221 0.14419 0.12819 0.0
O16 O 0.02309 0.09791 0.1 0.0
N17 N 0.12453 0.05319 0.99225 0.0
C18 C 0.13764 0.07994 0.96953 0.0
C19 C 0.13753 0.07355 0.93033 0.0
C20 C 0.12504 0.03914 0.91485 0.0
C21 C 0.11307 0.01135 0.93879 0.0
C22 C 0.11339 0.01955 0.97766 0.0
H23 H 0.14848 0.10578 0.9812 0.0
O24 O 0.05976 0.1314 0.04297 0.0
O25 O 0.08291 0.07747 0.05113 0.0
O26 O 0.12071 0.13756 0.08814 0.0
O27 O 0.14997 0.10096 0.04988 0.0
C28 C 0.10096 0.97579 0.92555 0.0
C29 C 0.0894 0.94905 0.95122 0.0
H30 H 0.0669 0.90572 0.0085 0.0
H31 H 0.06672 0.92614 0.07583 0.0
H32 H 0.14747 0.09495 0.91214 0.0
H33 H 0.12514 0.03421 0.88459 0.0
H34 H 0.10033 0.96873 0.89566 0.0
H35 H 0.07981 0.92192 0.94067 0.0
Mn36 Mn 0.18293 0.87715 0.36599 0.0
Mn37 Mn 0.20854 0.79231 0.39301 0.0
C38 C 0.22853 0.84911 0.33836 0.0
C39 C 0.15757 0.92351 0.32651 0.0
C40 C 0.22647 0.864 0.43893 0.0
O41 O 0.13763 0.84984 0.38679 0.0
O42 O 0.16076 0.7973 0.40679 0.0
C43 C 0.16268 0.74301 0.34321 0.0
N44 N 0.19428 0.75322 0.35772 0.0
C45 C 0.21722 0.69764 0.33235 0.0
C46 C 0.18465 0.68593 0.31817 0.0
C47 C 0.15735 0.70908 0.32304 0.0
C48 C 0.22095 0.73213 0.35149 0.0
H49 H 0.14191 0.76069 0.34693 0.0
C50 C 0.13497 0.81656 0.40053 0.0
O51 O 0.16652 0.92965 0.36159 0.0
O52 O 0.16021 0.88919 0.31517 0.0
N53 N 0.25367 0.78086 0.38077 0.0
C54 C 0.28385 0.79839 0.39229 0.0
C55 C 0.31427 0.78119 0.38536 0.0
C56 C 0.31295 0.74583 0.3678 0.0
C57 C 0.28176 0.72788 0.35715 0.0
C58 C 0.25246 0.74686 0.36364 0.0
H59 H 0.28469 0.82555 0.40585 0.0
O60 O 0.22787 0.88507 0.34031 0.0
O61 O 0.20421 0.83064 0.35441 0.0
O62 O 0.20793 0.88459 0.41894 0.0
O63 O 0.22715 0.82917 0.43201 0.0
C64 C 0.27868 0.69226 0.33967 0.0
C65 C 0.24632 0.67702 0.32742 0.0
H66 H 0.18048 0.65966 0.3028 0.0
H67 H 0.13223 0.70066 0.31159 0.0
H68 H 0.33857 0.79507 0.39342 0.0
H69 H 0.33585 0.7329 0.3615 0.0
H70 H 0.30108 0.67678 0.33463 0.0
H71 H 0.24429 0.6501 0.31304 0.0
Mn72 Mn 0.44037 0.91023 0.63743 0.0
Mn73 Mn 0.40748 0.99477 0.62619 0.0
C74 C 0.44479 0.93921 0.58062 0.0
C75 C 0.4836 0.87119 0.65523 0.0
C76 C 0.36719 0.92248 0.60729 0.0
O77 O 0.4321 0.92587 0.6932 0.0
O78 O 0.41255 0.98105 0.68018 0.0
C79 C 0.46767 0.03675 0.66129 0.0
N80 N 0.44252 0.03313 0.63413 0.0
C81 C 0.45996 0.09179 0.608 0.0
C82 C 0.48498 0.09706 0.63692 0.0
C83 C 0.48924 0.0691 0.66329 0.0
C84 C 0.43942 0.05887 0.6074 0.0
H85 H 0.47153 0.01479 0.68069 0.0
C86 C 0.42202 0.95733 0.70423 0.0
O87 O 0.4518 0.85969 0.6535 0.0
O88 O 0.49013 0.90621 0.64937 0.0
N89 N 0.40133 0.01538 0.57727 0.0
C90 C 0.38019 1.00326 0.54784 0.0
C91 C 0.37549 0.0262 0.51691 0.0
C92 C 0.39187 0.06175 0.51686 0.0
C93 C 0.41324 0.07387 0.54753 0.0
C94 C 0.41709 0.04972 0.5775 0.0
H95 H 0.36722 0.97622 0.54769 0.0
O96 O 0.44937 0.90405 0.58314 0.0
O97 O 0.441 0.95801 0.61203 0.0
O98 O 0.38933 0.90108 0.62099 0.0
O99 O 0.369 0.9576 0.61388 0.0
C100 C 0.43191 0.10838 0.54887 0.0
C101 C 0.45545 0.11723 0.57897 0.0
H102 H 0.50174 0.12192 0.63844 0.0
H103 H 0.50919 0.07239 0.68497 0.0
H104 H 0.35909 0.01657 0.49325 0.0
H105 H 0.3883 0.07928 0.49285 0.0
H106 H 0.42937 0.12766 0.52615 0.0
H107 H 0.47069 0.14314 0.5789 0.0
Mn108 Mn 0.32053 0.17157 0.8808 0.0
Mn109 Mn 0.3402 0.15763 0.78938 0.0
C110 C 0.30811 0.21397 0.83572 0.0
C111 C 0.28396 0.17193 0.93123 0.0
C112 C 0.39174 0.1903 0.85031 0.0
O113 O 0.32269 0.11393 0.87747 0.0
O114 O 0.33666 0.10936 0.81662 0.0
C115 C 0.27999 0.10964 0.76192 0.0
N116 N 0.30066 0.14101 0.75908 0.0
C117 C 0.26844 0.15933 0.70438 0.0
C118 C 0.24702 0.12726 0.7069 0.0
C119 C 0.25282 0.10235 0.73581 0.0
C120 C 0.29538 0.16506 0.73104 0.0
H121 H 0.2839 0.09015 0.7839 0.0
C122 C 0.32548 0.09447 0.84689 0.0
O123 O 0.31679 0.17375 0.93643 0.0
O124 O 0.27226 0.1663 0.89683 0.0
N125 N 0.34067 0.20112 0.75898 0.0
C126 C 0.36271 0.23165 0.76071 0.0
C127 C 0.35893 0.26011 0.73489 0.0
C128 C 0.33304 0.25662 0.70682 0.0
C129 C 0.3114 0.22448 0.70459 0.0
C130 C 0.31634 0.19698 0.7312 0.0
H131 H 0.3834 0.23421 0.78117 0.0
O132 O 0.31277 0.22493 0.8707 0.0
O133 O 0.31235 0.17934 0.82804 0.0
O134 O 0.37248 0.18417 0.87811 0.0
O135 O 0.38325 0.17845 0.81673 0.0
C136 C 0.28482 0.21894 0.67723 0.0
C137 C 0.2634 0.18637 0.67708 0.0
H138 H 0.2258 0.1217 0.68703 0.0
H139 H 0.23631 0.07757 0.73805 0.0
H140 H 0.37615 0.28456 0.73645 0.0
H141 H 0.33014 0.27868 0.68699 0.0
H142 H 0.2804 0.23977 0.65641 0.0
H143 H 0.24274 0.18268 0.65623 0.0
Mn144 Mn 0.06205 0.89318 0.42732 0.0
Mn145 Mn 0.03353 0.88213 0.51527 0.0
C146 C 0.01402 0.91956 0.44494 0.0
C147 C 0.0886 0.92427 0.38033 0.0
C148 C 0.01807 0.82653 0.45133 0.0
O149 O 0.10531 0.87832 0.45611 0.0
O150 O 0.08074 0.86814 0.51159 0.0
C151 C 0.07936 0.94343 0.5485 0.0
N152 N 0.04838 0.92471 0.54562 0.0
C153 C 0.02777 0.95917 0.59822 0.0
C154 C 0.05988 0.97787 0.60292 0.0
C155 C 0.08557 0.97059 0.57735 0.0
C156 C 0.02271 0.93396 0.56771 0.0
H157 H 0.09915 0.93749 0.5291 0.0
C158 C 0.10669 0.8701 0.49104 0.0
O159 O 0.08124 0.88888 0.37706 0.0
O160 O 0.08454 0.9408 0.41272 0.0
N161 N 0.9885 0.89449 0.52775 0.0
C162 C 0.95882 0.87457 0.51878 0.0
C163 C 0.93063 0.87788 0.5418 0.0
C164 C 0.93353 0.9007 0.57452 0.0
C165 C 0.96414 0.92098 0.5833 0.0
C166 C 0.99121 0.91695 0.55906 0.0
H167 H 0.95689 0.85554 0.49476 0.0
O168 O 0.01825 0.91193 0.40961 0.0
O169 O 0.03748 0.91132 0.46935 0.0
O170 O 0.03887 0.84165 0.42884 0.0
O171 O 0.0152 0.83804 0.48535 0.0
C172 C 0.96911 0.94432 0.61575 0.0
C173 C 1.00068 0.96415 0.62271 0.0
H174 H 0.06497 0.99807 0.62578 0.0
H175 H 0.11025 0.98532 0.58031 0.0
H176 H 0.90719 0.8618 0.53499 0.0
H177 H 0.91241 0.90222 0.59312 0.0
H178 H 0.94857 0.94788 0.63504 0.0
H179 H 0.00389 0.98294 0.64701 0.0
Mn180 Mn 0.32055 0.83533 0.65115 0.0
Mn181 Mn 0.37512 0.81575 0.7183 0.0
C182 C 0.31616 0.77687 0.67814 0.0
C183 C 0.26902 0.85335 0.62637 0.0
C184 C 0.39148 0.80336 0.63855 0.0
O185 O 0.33257 0.88959 0.67314 0.0
O186 O 0.37819 0.86664 0.69658 0.0
C187 C 0.33377 0.85742 0.77361 0.0
N188 N 0.35497 0.83012 0.76463 0.0
C189 C 0.36378 0.81581 0.82963 0.0
C190 C 0.34901 0.84912 0.8396 0.0
C191 C 0.33164 0.86844 0.81169 0.0
C192 C 0.36517 0.80681 0.79128 0.0
H193 H 0.32088 0.87235 0.75198 0.0
C194 C 0.35832 0.89345 0.69546 0.0
O195 O 0.29604 0.85281 0.60658 0.0
O196 O 0.27202 0.8452 0.66158 0.0
N197 N 0.37851 0.76846 0.74109 0.0
C198 C 0.3923 0.73752 0.72628 0.0
C199 C 0.40228 0.70942 0.75032 0.0
C200 C 0.40032 0.7145 0.78957 0.0
C201 C 0.38814 0.74754 0.80433 0.0
C202 C 0.37695 0.77364 0.77883 0.0
H203 H 0.39564 0.73423 0.69633 0.0
O204 O 0.30762 0.78155 0.64313 0.0
O205 O 0.32947 0.80623 0.69593 0.0
O206 O 0.36754 0.82349 0.62647 0.0
O207 O 0.39617 0.79738 0.67327 0.0
C208 C 0.38813 0.75642 0.84327 0.0
C209 C 0.37666 0.79094 0.85589 0.0
H210 H 0.34887 0.8588 0.86873 0.0
H211 H 0.31743 0.89223 0.81942 0.0
H212 H 0.41254 0.68446 0.73868 0.0
H213 H 0.40907 0.69332 0.80811 0.0
H214 H 0.39724 0.73714 0.8637 0.0
H215 H 0.37701 0.79755 0.88586 0.0
Mn216 Mn 0.42701 0.1133 0.95804 0.0
Mn217 Mn 0.3934 0.02695 0.96384 0.0
C218 C 0.43737 0.08373 0.01477 0.0
C219 C 0.46641 0.15835 0.94261 0.0
C220 C 0.35342 0.09512 0.97725 0.0
O221 O 0.42072 0.09835 0.90105 0.0
O222 O 0.40785 0.03872 0.9106 0.0
C223 C 0.44353 0.97414 0.93743 0.0
N224 N 0.42015 0.9843 0.96247 0.0
C225 C 0.41716 0.92298 0.98822 0.0
C226 C 0.44024 0.91153 0.96139 0.0
C227 C 0.45388 0.93742 0.9362 0.0
C228 C 0.40724 0.95972 0.98727 0.0
H229 H 0.45622 0.99508 0.92132 0.0
C230 C 0.41964 0.06466 0.88922 0.0
O231 O 0.43446 0.16445 0.94508 0.0
O232 O 0.47621 0.12494 0.94772 0.0
N233 N 0.38161 0.01055 0.01304 0.0
C234 C 0.36783 0.02892 0.04242 0.0
C235 C 0.3573 1.00915 0.07403 0.0
C236 C 0.36166 0.97076 0.0754 0.0
C237 C 0.37772 0.95284 0.04576 0.0
C238 C 0.38759 0.97409 0.01505 0.0
H239 H 0.36563 0.05844 0.04214 0.0
O240 O 0.43574 0.11931 0.01261 0.0
O241 O 0.43077 0.0645 0.9829 0.0
O242 O 0.37728 0.11881 0.97119 0.0
O243 O 0.35547 0.06159 0.96635 0.0
C244 C 0.38582 0.91521 0.04627 0.0
C245 C 0.40537 0.90021 0.01737 0.0
H246 H 0.44892 0.8835 0.9611 0.0
H247 H 0.47306 0.92944 0.91671 0.0
H248 H 0.34604 0.02351 0.09736 0.0
H249 H 0.35374 0.95564 0.09994 0.0
H250 H 0.37822 0.89794 0.06946 0.0
H251 H 0.41257 0.87167 0.01884 0.0
Mn252 Mn 0.17314 0.14988 0.17573 0.0
Mn253 Mn 0.14695 0.19439 0.25482 0.0
C254 C 0.18882 0.21273 0.18333 0.0
C255 C 0.21195 0.11591 0.13828 0.0
C256 C 0.1045 0.18739 0.18271 0.0
O257 O 0.16277 0.10638 0.212 0.0
O258 O 0.14361 0.13941 0.26032 0.0
C259 C 0.19906 0.17143 0.31087 0.0
N260 N 0.17899 0.19751 0.29633 0.0
C261 C 0.19266 0.23962 0.34898 0.0
C262 C 0.21293 0.21287 0.36498 0.0
C263 C 0.21649 0.17883 0.3456 0.0
C264 C 0.17597 0.23069 0.3143 0.0
H265 H 0.20191 0.14539 0.29588 0.0
C266 C 0.15247 0.1087 0.24593 0.0
O267 O 0.17937 0.11437 0.13174 0.0
O268 O 0.22193 0.13429 0.16887 0.0
N269 N 0.14795 0.24734 0.25898 0.0
C270 C 0.13277 0.27211 0.2365 0.0
C271 C 0.12982 0.30878 0.24985 0.0
C272 C 0.1418 0.31938 0.28648 0.0
C273 C 0.15711 0.29332 0.30926 0.0
C274 C 0.15936 0.25721 0.2944 0.0
H275 H 0.12311 0.26398 0.20858 0.0
O276 O 0.18518 0.19601 0.15064 0.0
O277 O 0.18208 0.19208 0.21304 0.0
O278 O 0.12268 0.16429 0.16523 0.0
O279 O 0.10992 0.19587 0.21724 0.0
C280 C 0.17179 0.3022 0.34533 0.0
C281 C 0.18978 0.27546 0.36504 0.0
H282 H 0.22664 0.21858 0.3916 0.0
H283 H 0.2326 0.15836 0.35742 0.0
H284 H 0.11807 0.32876 0.23206 0.0
H285 H 0.13966 0.34775 0.29656 0.0
H286 H 0.17055 0.32993 0.35755 0.0
H287 H 0.20219 0.28311 0.39197 0.0
Mn288 Mn 0.59142 0.42538 0.92745 0.0
Mn289 Mn 0.56332 0.39683 0.01225 0.0
C290 C 0.54673 0.45146 0.95427 0.0
C291 C 0.62135 0.46576 0.88739 0.0
C292 C 0.54654 0.35443 0.93949 0.0
O293 O 0.63347 0.40221 0.9506 0.0
O294 O 0.61041 0.38146 1.00463 0.0
C295 C 0.61084 0.44159 0.06405 0.0
N296 N 0.57844 0.43085 0.05229 0.0
C297 C 0.55493 0.46566 0.10329 0.0
C298 C 0.58807 0.47696 0.11597 0.0
C299 C 0.61613 0.46495 0.09619 0.0
C300 C 0.55123 0.44209 0.07126 0.0
H301 H 0.6325 0.43238 0.04913 0.0
C302 C 0.63539 0.38619 0.98246 0.0
O303 O 0.61081 0.43234 0.87717 0.0
O304 O 0.61698 0.47511 0.92239 0.0
N305 N 0.51836 0.41104 0.02351 0.0
C306 C 0.48823 0.40155 1.00488 0.0
C307 C 0.45773 0.41373 0.0194 0.0
C308 C 0.45849 0.43515 0.05309 0.0
C309 C 0.48979 0.44455 0.07176 0.0
C310 C 0.51938 0.43167 0.05594 0.0
H311 H 0.48751 0.38505 0.979 0.0
O312 O 0.54888 0.45078 0.91781 0.0
O313 O 0.56953 0.43492 0.97386 0.0
O314 O 0.56515 0.37453 0.9183 0.0
O315 O 0.54511 0.35986 0.97485 0.0
C316 C 0.49289 0.46732 0.10469 0.0
C317 C 0.52543 0.4778 0.12049 0.0
H318 H 0.59227 0.49523 0.14057 0.0
H319 H 0.64178 0.47368 0.10571 0.0
H320 H 0.43368 0.40664 1.00467 0.0
H321 H 0.43497 0.44466 0.06413 0.0
H322 H 0.47045 0.47768 0.11757 0.0
H323 H 0.52751 0.49599 0.14532 0.0
Mn324 Mn 0.82281 0.3148 0.16987 0.0
Mn325 Mn 0.86391 0.30026 0.25119 0.0
C326 C 0.79886 0.27037 0.20794 0.0
C327 C 0.78275 0.33912 0.12778 0.0
C328 C 0.89277 0.28415 0.178 0.0
O329 O 0.84273 0.36719 0.18777 0.0
O330 O 0.86067 0.35513 0.24739 0.0
C331 C 0.84703 0.32958 0.32539 0.0
N332 N 0.84567 0.29978 0.30071 0.0
C333 C 0.84179 0.25832 0.35314 0.0
C334 C 0.83776 0.28868 0.37767 0.0
C335 C 0.84131 0.32463 0.36385 0.0
C336 C 0.84705 0.26527 0.31483 0.0
H337 H 0.85459 0.35678 0.31636 0.0
C338 C 0.85033 0.37803 0.22233 0.0
O339 O 0.81182 0.32865 0.11672 0.0
O340 O 0.77751 0.33759 0.1635 0.0
N341 N 0.86291 0.24664 0.25491 0.0
C342 C 0.86302 0.21951 0.22729 0.0
C343 C 0.86183 0.18195 0.23679 0.0
C344 C 0.85816 0.17218 0.27446 0.0
C345 C 0.85383 0.20004 0.3018 0.0
C346 C 0.8552 0.23711 0.29042 0.0
H347 H 0.86202 0.22584 0.19796 0.0
O348 O 0.79854 0.2653 0.17146 0.0
O349 O 0.81967 0.29717 0.22135 0.0
O350 O 0.86629 0.28633 0.15738 0.0
O351 O 0.89467 0.30205 0.20875 0.0
C352 C 0.8472 0.19232 0.33968 0.0
C353 C 0.84176 0.22155 0.36548 0.0
H354 H 0.83377 0.28477 0.40745 0.0
H355 H 0.84113 0.34847 0.38301 0.0
H356 H 0.86281 0.16055 0.21495 0.0
H357 H 0.85703 0.14315 0.28175 0.0
H358 H 0.84636 0.16401 0.3493 0.0
H359 H 0.83766 0.2155 0.39477 0.0
Mn360 Mn 0.93721 0.62048 0.45402 0.0
Mn361 Mn 0.89935 0.53732 0.47581 0.0
C362 C 0.96014 0.58377 0.50039 0.0
C363 C 0.98187 0.66012 0.42785 0.0
C364 C 0.86642 0.60945 0.49157 0.0
O365 O 0.9149 0.60083 0.4019 0.0
O366 O 0.89255 0.54521 0.42118 0.0
C367 C 0.92608 0.4766 0.43239 0.0
N368 N 0.92489 0.49483 0.46638 0.0
C369 C 0.93237 0.43802 0.49929 0.0
C370 C 0.92993 0.41852 0.46465 0.0
C371 C 0.92741 0.43796 0.43102 0.0
C372 C 0.92793 0.47627 0.499 0.0
H373 H 0.92341 0.49102 0.40638 0.0
C374 C 0.90112 0.56768 0.39512 0.0
O375 O 0.95337 0.67202 0.43915 0.0
O376 O 0.98407 0.62447 0.42937 0.0
N377 N 0.90758 0.52853 0.5282 0.0
C378 C 0.90011 0.54961 0.55901 0.0
C379 C 0.90499 0.53554 0.59523 0.0
C380 C 0.91639 0.49952 0.59925 0.0
C381 C 0.92369 0.47838 0.56702 0.0
C382 C 0.92062 0.49496 0.53188 0.0
H383 H 0.89035 0.57683 0.556 0.0
O384 O 0.96288 0.61975 0.50415 0.0
O385 O 0.93881 0.57174 0.47429 0.0
O386 O 0.89066 0.63167 0.48072 0.0
O387 O 0.8677 0.57472 0.48807 0.0
C388 C 0.93219 0.44095 0.56816 0.0
C389 C 0.93541 0.42041 0.53419 0.0
H390 H 0.92923 0.38848 0.46352 0.0
H391 H 0.92554 0.42314 0.40406 0.0
H392 H 0.8991 0.55201 0.6199 0.0
H393 H 0.9188 0.48813 0.62712 0.0
H394 H 0.93438 0.42716 0.59485 0.0
H395 H 0.93945 0.39095 0.53518 0.0
Mn396 Mn 0.8279 0.64488 0.34409 0.0
Mn397 Mn 0.86597 0.65165 0.25954 0.0
C398 C 0.82483 0.6977 0.3101 0.0
C399 C 0.78195 0.63131 0.38137 0.0
C400 C 0.90144 0.67285 0.33436 0.0
O401 O 0.83784 0.59041 0.3331 0.0
O402 O 0.86324 0.60033 0.27818 0.0
C403 C 0.81256 0.60711 0.21512 0.0
N404 N 0.83377 0.63807 0.21947 0.0
C405 C 0.81607 0.65995 0.1588 0.0
C406 C 0.79453 0.62791 0.15338 0.0
C407 C 0.79255 0.60153 0.18183 0.0
C408 C 0.8353 0.66403 0.19264 0.0
H409 H 0.81086 0.58699 0.23695 0.0
C410 C 0.85286 0.57875 0.30404 0.0
O411 O 0.81273 0.6344 0.39579 0.0
O412 O 0.77824 0.63267 0.34495 0.0
N413 N 0.87046 0.69877 0.23575 0.0
C414 C 0.88941 0.73005 0.24708 0.0
C415 C 0.89225 0.76021 0.22289 0.0
C416 C 0.87622 0.75771 0.18696 0.0
C417 C 0.85719 0.72514 0.17567 0.0
C418 C 0.85517 0.696 0.20103 0.0
H419 H 0.90174 0.73227 0.2746 0.0
O420 O 0.81909 0.69812 0.34582 0.0
O421 O 0.82988 0.6657 0.29375 0.0
O422 O 0.87813 0.65975 0.35536 0.0
O423 O 0.90058 0.66856 0.29847 0.0
C424 C 0.83927 0.72093 0.1407 0.0
C425 C 0.81863 0.6884 0.13232 0.0
H426 H 0.779 0.62355 0.12777 0.0
H427 H 0.77568 0.57693 0.17808 0.0
H428 H 0.90681 0.78534 0.23192 0.0
H429 H 0.8783 0.78113 0.16848 0.0
H430 H 0.84039 0.74298 0.12051 0.0
H431 H 0.80422 0.68592 0.1058 0.0
Mn432 Mn 0.65437 0.36873 0.81537 0.0
Mn433 Mn 0.68408 0.28268 0.82683 0.0
C434 C 0.70514 0.35325 0.79085 0.0
C435 C 0.62652 0.41411 0.77871 0.0
C436 C 0.69347 0.34331 0.88783 0.0
O437 O 0.61006 0.33691 0.8288 0.0
O438 O 0.63522 0.28269 0.83516 0.0
C439 C 0.64676 0.24752 0.75996 0.0
N440 N 0.67578 0.25339 0.7816 0.0
C441 C 0.7036 0.20573 0.74761 0.0
C442 C 0.67355 0.19796 0.72592 0.0
C443 C 0.64525 0.21955 0.73154 0.0
C444 C 0.7039 0.23491 0.77439 0.0
H445 H 0.625 0.26397 0.76452 0.0
C446 C 0.60872 0.30148 0.83379 0.0
O447 O 0.63265 0.41812 0.81447 0.0
O448 O 0.63398 0.38236 0.76422 0.0
N449 N 0.73118 0.27578 0.81879 0.0
C450 C 0.75871 0.28851 0.84046 0.0
C451 C 0.78963 0.27108 0.83733 0.0
C452 C 0.79168 0.24023 0.8126 0.0
C453 C 0.76323 0.22786 0.79031 0.0
C454 C 0.73322 0.24651 0.79441 0.0
H455 H 0.7568 0.31101 0.86083 0.0
O456 O 0.69949 0.3878 0.79755 0.0
O457 O 0.68141 0.32873 0.79879 0.0
O458 O 0.67648 0.36767 0.87031 0.0
O459 O 0.69554 0.3102 0.8749 0.0
C460 C 0.76316 0.197 0.76506 0.0
C461 C 0.73341 0.18611 0.74346 0.0
H462 H 0.67215 0.176 0.70442 0.0
H463 H 0.62219 0.2143 0.7144 0.0
H464 H 0.81138 0.28054 0.85503 0.0
H465 H 0.81482 0.22546 0.81151 0.0
H466 H 0.78601 0.18188 0.76152 0.0
H467 H 0.73393 0.16305 0.72334 0.0
Mn468 Mn 0.93405 0.92077 0.87578 0.0
Mn469 Mn 0.90925 0.99935 0.91936 0.0
C470 C 0.97146 0.97148 0.88613 0.0
C471 C 0.96591 0.86484 0.88364 0.0
C472 C 0.89897 0.98578 0.83555 0.0
O473 O 0.88932 0.90251 0.90352 0.0
O474 O 0.87594 0.95837 0.92639 0.0
C475 C 0.91762 0.97129 0.99674 0.0
N476 N 0.92404 0.99796 0.97093 0.0
C477 C 0.95115 0.03903 0.01821 0.0
C478 C 0.94467 0.01224 0.04544 0.0
C479 C 0.9282 0.978 0.03454 0.0
C480 C 0.94119 0.03025 0.98079 0.0
H481 H 0.9044 0.94521 0.98865 0.0
C482 C 0.86995 0.92349 0.92265 0.0
O483 O 0.9475 0.86975 0.85328 0.0
O484 O 0.96206 0.88931 0.90988 0.0
N485 N 0.9388 0.04298 0.91676 0.0
C486 C 0.94399 0.06555 0.88696 0.0
C487 C 0.9602 0.10091 0.89309 0.0
C488 C 0.96999 0.11317 0.9299 0.0
C489 C 0.96412 0.08962 0.96016 0.0
C490 C 0.94838 0.05446 0.95225 0.0
H491 H 0.93549 0.05688 0.85879 0.0
O492 O 0.97744 0.94681 0.8605 0.0
O493 O 0.94375 0.96568 0.90437 0.0
O494 O 0.90964 0.95221 0.83357 0.0
O495 O 0.89481 1.0032 0.86669 0.0
C496 C 0.9731 0.09971 0.99791 0.0
C497 C 0.9669 0.07419 0.02679 0.0
H498 H 0.95227 0.01765 0.07475 0.0
H499 H 0.92319 0.95708 0.05531 0.0
H500 H 0.96459 0.11892 0.86957 0.0
H501 H 0.9822 0.1406 0.93458 0.0
H502 H 0.9854 0.12668 1.00489 0.0
H503 H 0.97434 0.08156 0.05557 0.0
Mn504 Mn 0.8543 0.20489 0.63839 0.0
Mn505 Mn 0.9005 0.24832 0.70755 0.0
C506 C 0.82722 0.22707 0.68993 0.0
C507 C 0.81161 0.19108 0.5864 0.0
C508 C 0.89092 0.16656 0.70556 0.0
O509 O 0.89668 0.22763 0.60862 0.0
O510 O 0.92435 0.22943 0.66318 0.0
C511 C 0.90008 0.31542 0.65893 0.0
N512 N 0.90282 0.2999 0.69356 0.0
C513 C 0.90275 0.36054 0.72397 0.0
C514 C 0.90508 0.37691 0.68868 0.0
C515 C 0.90266 0.35421 0.65593 0.0
C516 C 0.9008 0.32162 0.72503 0.0
H517 H 0.89538 0.29867 0.63366 0.0
C518 C 0.92358 0.2378 0.62874 0.0
O519 O 0.83584 0.17062 0.59731 0.0
O520 O 0.8155 0.22392 0.60232 0.0
N521 N 0.88481 0.26682 0.7546 0.0
C522 C 0.87763 0.24692 0.78582 0.0
C523 C 0.87561 0.26538 0.82097 0.0
C524 C 0.88055 0.30416 0.82374 0.0
C525 C 0.88876 0.32403 0.79154 0.0
C526 C 0.89218 0.30392 0.75765 0.0
H527 H 0.87424 0.21702 0.78421 0.0
O528 O 0.81738 0.19555 0.67364 0.0
O529 O 0.85597 0.24237 0.67961 0.0
O530 O 0.88242 0.16652 0.67007 0.0
O531 O 0.89621 0.19683 0.72459 0.0
C532 C 0.89348 0.36302 0.79172 0.0
C533 C 0.90004 0.38131 0.75783 0.0
H534 H 0.90646 0.40685 0.68631 0.0
H535 H 0.90189 0.36658 0.62844 0.0
H536 H 0.87008 0.2497 0.8459 0.0
H537 H 0.87814 0.31835 0.85075 0.0
H538 H 0.89103 0.37927 0.81753 0.0
H539 H 0.90196 0.4114 0.75792 0.0
Mn540 Mn 0.56022 0.09534 0.40344 0.0
Mn541 Mn 0.58445 0.0223 0.45469 0.0
C542 C 0.52101 0.04802 0.41922 0.0
C543 C 0.53622 0.1542 0.39986 0.0
C544 C 0.60017 0.03038 0.37166 0.0
O545 O 0.60548 0.11549 0.42981 0.0
O546 O 0.61489 0.06612 0.46565 0.0
C547 C 0.57334 0.05153 0.53207 0.0
N548 N 0.5676 0.02458 0.50466 0.0
C549 C 0.54373 0.98194 0.54909 0.0
C550 C 0.54932 1.0092 0.57783 0.0
C551 C 0.56369 0.04435 0.56914 0.0
C552 C 0.55245 0.99128 0.51242 0.0
H553 H 0.58556 0.0781 0.52579 0.0
C554 C 0.6211 0.09989 0.45697 0.0
O555 O 0.55392 0.14116 0.37268 0.0
O556 O 0.53479 0.13448 0.42983 0.0
N557 N 0.55577 0.97795 0.44815 0.0
C558 C 0.54954 0.95591 0.41672 0.0
C559 C 0.53261 0.92089 0.41993 0.0
C560 C 0.52334 0.9084 0.45562 0.0
C561 C 0.53035 0.93143 0.48764 0.0
C562 C 0.54604 0.96661 0.48244 0.0
H563 H 0.55779 0.96479 0.38954 0.0
O564 O 0.51486 0.06847 0.39051 0.0
O565 O 0.55029 0.05488 0.43591 0.0
O566 O 0.58444 0.06021 0.36679 0.0
O567 O 0.60328 0.01537 0.40372 0.0
C568 C 0.52262 0.92082 0.52454 0.0
C569 C 0.52955 0.94597 0.55529 0.0
H570 H 0.54242 1.00355 0.60656 0.0
H571 H 0.56798 0.06559 0.59113 0.0
H572 H 0.52742 0.90323 0.39509 0.0
H573 H 0.51088 0.88109 0.45809 0.0
H574 H 0.51091 0.89358 0.52954 0.0
H575 H 0.52304 0.93771 0.58345 0.0
Mn576 Mn 0.70561 0.86277 0.14223 0.0
Mn577 Mn 0.67496 0.80947 0.21272 0.0
C578 C 0.74087 0.84235 0.18944 0.0
C579 C 0.7373 0.86771 0.08533 0.0
C580 C 0.66781 0.89239 0.21207 0.0
O581 O 0.65885 0.84006 0.1187 0.0
O582 O 0.64335 0.80668 0.1689 0.0
C583 C 0.67899 0.73587 0.17414 0.0
N584 N 0.68679 0.75921 0.20431 0.0
C585 C 0.71111 0.71008 0.2391 0.0
C586 C 0.70318 0.68547 0.20849 0.0
C587 C 0.68739 0.69853 0.17572 0.0
C588 C 0.70303 0.74721 0.23544 0.0
H589 H 0.6664 0.74564 0.14913 0.0
C590 C 0.63838 0.81655 0.13492 0.0
O591 O 0.71967 0.89479 0.09776 0.0
O592 O 0.73266 0.83694 0.10276 0.0
N593 N 0.704 0.80878 0.25692 0.0
C594 C 0.71247 0.83672 0.28262 0.0
C595 C 0.72993 0.82869 0.3163 0.0
C596 C 0.73772 0.79192 0.32363 0.0
C597 C 0.7286 0.76361 0.29685 0.0
C598 C 0.71196 0.77343 0.26342 0.0
H599 H 0.70573 0.86485 0.27761 0.0
O600 O 0.7499 0.87189 0.17149 0.0
O601 O 0.71116 0.82737 0.18063 0.0
O602 O 0.68249 0.8984 0.18053 0.0
O603 O 0.6623 0.86015 0.22513 0.0
C604 C 0.7354 0.72604 0.30198 0.0
C605 C 0.72688 0.69933 0.273 0.0
H606 H 0.7093 0.65656 0.20975 0.0
H607 H 0.68134 0.67975 0.1519 0.0
H608 H 0.73692 0.8507 0.33681 0.0
H609 H 0.75091 0.78577 0.3498 0.0
H610 H 0.7479 0.71754 0.32772 0.0
H611 H 0.73312 0.67072 0.27685 0.0
Mn612 Mn 0.89134 0.06615 0.61748 0.0
Mn613 Mn 0.83554 1.00712 0.56671 0.0
C614 C 0.9104 0.01208 0.59267 0.0
C615 C 0.93525 0.11648 0.619 0.0
C616 C 0.83485 0.01454 0.65297 0.0
O617 O 0.85486 0.09981 0.59924 0.0
O618 O 0.82294 0.05841 0.56312 0.0
C619 C 0.84695 0.0335 0.48924 0.0
N620 N 0.84351 1.00529 0.51388 0.0
C621 C 0.83922 0.95944 0.46323 0.0
C622 C 0.84263 0.98799 0.43723 0.0
C623 C 0.84681 0.02515 0.45033 0.0
C624 C 0.83988 0.96945 0.50162 0.0
H625 H 0.84935 0.06211 0.49922 0.0
C626 C 0.83224 0.09142 0.57345 0.0
O627 O 0.91699 0.10764 0.64744 0.0
O628 O 0.92724 0.09704 0.58862 0.0
N629 N 0.84372 0.95537 0.56517 0.0
C630 C 0.84759 0.93144 0.59378 0.0
C631 C 0.84473 0.89298 0.58593 0.0
C632 C 0.83954 0.87967 0.54849 0.0
C633 C 0.83774 0.90497 0.51919 0.0
C634 C 0.83919 0.94285 0.52895 0.0
H635 H 0.85307 0.94171 0.62221 0.0
O636 O 0.9242 0.02722 0.62348 0.0
O637 O 0.88273 0.0262 0.58013 0.0
O638 O 0.85993 0.03898 0.65774 0.0
O639 O 0.8234 1.00446 0.62011 0.0
C640 C 0.83545 0.89418 0.48067 0.0
C641 C 0.8362 0.9214 0.45269 0.0
H642 H 0.84249 0.98169 0.4072 0.0
H643 H 0.84952 0.04732 0.43044 0.0
H644 H 0.84727 0.87366 0.60857 0.0
H645 H 0.83819 0.85002 0.54247 0.0
H646 H 0.83407 0.86504 0.47223 0.0
H647 H 0.83539 0.91276 0.42319 0.0
Mn648 Mn 0.64465 0.19303 0.36503 0.0
Mn649 Mn 0.67775 0.27969 0.38799 0.0
C650 C 0.63934 0.2399 0.32103 0.0
C651 C 0.64273 0.13387 0.33186 0.0
C652 C 0.6107 0.24867 0.41807 0.0
O653 O 0.68304 0.18328 0.40574 0.0
O654 O 0.70363 0.24231 0.41576 0.0
C655 C 0.74052 0.26743 0.34809 0.0
N656 N 0.71614 0.29057 0.35854 0.0
C657 C 0.74014 0.34012 0.32232 0.0
C658 C 0.76678 0.31771 0.31317 0.0
C659 C 0.76547 0.28034 0.32372 0.0
C660 C 0.71398 0.32428 0.34334 0.0
H661 H 0.73968 0.23887 0.35665 0.0
C662 C 0.70576 0.20741 0.4199 0.0
O663 O 0.62398 0.14059 0.36039 0.0
O664 O 0.66619 0.15947 0.32594 0.0
N665 N 0.65849 0.32163 0.36427 0.0
C666 C 0.62958 0.33884 0.37318 0.0
C667 C 0.62304 0.3735 0.35819 0.0
C668 C 0.64765 0.39193 0.33662 0.0
C669 C 0.67887 0.37589 0.33127 0.0
C670 C 0.68346 0.3408 0.34631 0.0
H671 H 0.6129 0.32792 0.39393 0.0
O672 O 0.61627 0.21315 0.32355 0.0
O673 O 0.66215 0.24154 0.34856 0.0
O674 O 0.61142 0.21657 0.40208 0.0
O675 O 0.63636 0.27197 0.41864 0.0
C676 C 0.70593 0.3937 0.31232 0.0
C677 C 0.73661 0.37574 0.30772 0.0
H678 H 0.78594 0.32782 0.29425 0.0
H679 H 0.78235 0.26097 0.31188 0.0
H680 H 0.59975 0.38675 0.36475 0.0
H681 H 0.64287 0.41901 0.32568 0.0
H682 H 0.70317 0.42084 0.30052 0.0
H683 H 0.75659 0.38874 0.2914 0.0
Mn684 Mn 0.60297 0.93477 0.11378 0.0
Mn685 Mn 0.56366 0.91112 0.03028 0.0
C686 C 0.59466 0.97934 0.06831 0.0
C687 C 0.60864 0.9678 0.17298 0.0
C688 C 0.63433 0.88852 0.04959 0.0
O689 O 0.57105 0.88692 0.12727 0.0
O690 O 0.54561 0.87798 0.06947 0.0
C691 C 0.49701 0.93529 0.05226 0.0
N692 N 0.52308 0.93693 0.02786 0.0
C693 C 0.50141 0.98976 0.99756 0.0
C694 C 0.47394 0.98766 0.02166 0.0
C695 C 0.47176 0.96078 0.04938 0.0
C696 C 0.52591 0.96382 1.00201 0.0
H697 H 0.49616 0.91575 0.0747 0.0
C698 C 0.54806 0.87024 0.10452 0.0
O699 O 0.62956 0.94313 0.16265 0.0
O700 O 0.58102 0.96839 0.15227 0.0
N701 N 0.57892 0.94202 0.99032 0.0
C702 C 0.60625 0.93834 0.96799 0.0
C703 C 0.61229 0.96342 0.939 0.0
C704 C 0.58922 0.99102 0.93211 0.0
C705 C 0.55978 0.99216 0.95337 0.0
C706 C 0.55517 0.96614 0.98171 0.0
H707 H 0.62244 0.9155 0.97114 0.0
O708 O 0.62094 0.98265 0.09114 0.0
O709 O 0.57787 0.94775 0.06973 0.0
O710 O 0.63702 0.9053 0.08189 0.0
O711 O 0.60669 0.88583 0.02998 0.0
C712 C 0.53469 0.01787 0.94743 0.0
C713 C 0.50583 0.01706 0.96998 0.0
H714 H 0.45416 1.00676 0.01932 0.0
H715 H 0.45098 0.96019 0.06875 0.0
H716 H 0.6343 0.96101 0.9216 0.0
H717 H 0.59383 0.01042 0.90976 0.0
H718 H 0.53747 0.03857 0.92597 0.0
H719 H 0.48701 0.03736 0.96543 0.0
Mn720 Mn 0.83288 0.8284 0.86593 0.0
Mn721 Mn 0.82371 0.73958 0.89749 0.0
C722 C 0.84786 0.77965 0.82725 0.0
C723 C 0.81533 0.88094 0.83078 0.0
C724 C 0.8826 0.79305 0.92145 0.0
O725 O 0.79738 0.83309 0.90669 0.0
O726 O 0.79504 0.77413 0.92698 0.0
C727 C 0.75545 0.70696 0.89976 0.0
N728 N 0.78409 0.71079 0.87914 0.0
C729 C 0.77014 0.65113 0.84807 0.0
C730 C 0.73958 0.64847 0.86713 0.0
C731 C 0.73395 0.67483 0.89548 0.0
C732 C 0.793 0.68164 0.85712 0.0
H733 H 0.75054 0.72659 0.92205 0.0
C734 C 0.78506 0.8076 0.92774 0.0
O735 O 0.83792 0.88375 0.85793 0.0
O736 O 0.80074 0.84808 0.82561 0.0
N737 N 0.84875 0.70391 0.86994 0.0
C738 C 0.8829 0.6993 0.87128 0.0
C739 C 0.89648 0.66974 0.85126 0.0
C740 C 0.87459 0.64366 0.8316 0.0
C741 C 0.83932 0.64703 0.83297 0.0
C742 C 0.82728 0.67823 0.85207 0.0
H743 H 0.89941 0.71697 0.88885 0.0
O744 O 0.8632 0.81236 0.82645 0.0
O745 O 0.82562 0.77467 0.85402 0.0
O746 O 0.87308 0.82156 0.9042 0.0
O747 O 0.8654 0.76241 0.92037 0.0
C748 C 0.81574 0.61954 0.81793 0.0
C749 C 0.78108 0.62126 0.82604 0.0
H750 H 0.72218 0.62425 0.86329 0.0
H751 H 0.71311 0.67035 0.91439 0.0
H752 H 0.92368 0.66631 0.85207 0.0
H753 H 0.88505 0.62022 0.8171 0.0
H754 H 0.82431 0.5955 0.80269 0.0
H755 H 0.76361 0.598 0.81789 0.0
Mn756 Mn 0.41913 0.6499 0.07551 0.0
Mn757 Mn 0.35652 0.60047 0.02564 0.0
C758 C 0.43147 0.59828 0.04146 0.0
C759 C 0.46595 0.69297 0.08443 0.0
C760 C 0.37008 0.5905 0.10988 0.0
O761 O 0.38179 0.6884 0.07224 0.0
O762 O 0.34484 0.65283 0.03581 0.0
C763 C 0.35607 0.64178 0.9543 0.0
N764 N 0.35739 0.60916 0.97266 0.0
C765 C 0.35547 0.5742 0.91383 0.0
C766 C 0.35339 0.60742 0.89437 0.0
C767 C 0.35384 0.64138 0.91471 0.0
C768 C 0.35699 0.5763 0.95334 0.0
H769 H 0.35689 0.66788 0.96969 0.0
C770 C 0.354 0.68377 0.05253 0.0
O771 O 0.44858 0.67931 0.11163 0.0
O772 O 0.45391 0.68483 0.05058 0.0
N773 N 0.36523 0.55013 0.01203 0.0
C774 C 0.37163 0.52115 0.03473 0.0
C775 C 0.37456 0.48555 0.01858 0.0
C776 C 0.37077 0.47999 0.97934 0.0
C777 C 0.36418 0.51015 0.95654 0.0
C778 C 0.3612 0.54498 0.97422 0.0
H779 H 0.37466 0.52509 0.06491 0.0
O780 O 0.45048 0.611 0.06975 0.0
O781 O 0.40505 0.61675 0.03229 0.0
O782 O 0.39423 0.61559 0.11377 0.0
O783 O 0.35224 0.58614 0.0793 0.0
C784 C 0.36155 0.50723 0.91686 0.0
C785 C 0.35716 0.53922 0.89553 0.0
H786 H 0.35207 0.60724 0.86381 0.0
H787 H 0.35264 0.6672 0.89991 0.0
H788 H 0.37964 0.46241 0.03636 0.0
H789 H 0.37339 0.45253 0.96699 0.0
H790 H 0.36363 0.48064 0.90243 0.0
H791 H 0.3559 0.53672 0.86501 0.0
Mn792 Mn 0.16096 0.65627 0.8494 0.0
Mn793 Mn 0.18918 0.74102 0.88335 0.0
C794 C 0.17196 0.70569 0.80982 0.0
C795 C 0.16553 0.59782 0.81543 0.0
C796 C 0.11534 0.71551 0.88537 0.0
O797 O 0.18556 0.64412 0.9028 0.0
O798 O 0.20294 0.70285 0.91947 0.0
C799 C 0.26361 0.73392 0.87721 0.0
N800 N 0.23513 0.7529 0.87172 0.0
C801 C 0.26694 0.81104 0.86945 0.0
C802 C 0.29578 0.79313 0.8822 0.0
C803 C 0.29492 0.75408 0.88283 0.0
C804 C 0.23703 0.78916 0.8635 0.0
H805 H 0.26196 0.70399 0.87784 0.0
C806 C 0.20301 0.6678 0.92556 0.0
O807 O 0.13925 0.60522 0.83494 0.0
O808 O 0.1912 0.62179 0.82016 0.0
N809 N 0.17903 0.78134 0.85139 0.0
C810 C 0.14862 0.7928 0.83802 0.0
C811 C 0.14659 0.82921 0.8252 0.0
C812 C 0.17552 0.85392 0.82797 0.0
C813 C 0.2065 0.84135 0.84189 0.0
C814 C 0.20733 0.80408 0.8515 0.0
H815 H 0.12618 0.77451 0.8375 0.0
O816 O 0.14998 0.67908 0.79968 0.0
O817 O 0.18543 0.7033 0.84306 0.0
O818 O 0.11858 0.68331 0.86989 0.0
O819 O 0.14099 0.73576 0.89715 0.0
C820 C 0.23619 0.86453 0.8486 0.0
C821 C 0.26596 0.84958 0.86392 0.0
H822 H 0.31857 0.80888 0.89147 0.0
H823 H 0.31784 0.73985 0.88937 0.0
H824 H 0.12251 0.83861 0.81458 0.0
H825 H 0.17355 0.88248 0.81973 0.0
H826 H 0.23609 0.89396 0.84322 0.0
H827 H 0.28777 0.86802 0.87138 0.0
Mn828 Mn 0.1321 0.4284 0.5704 0.0
Mn829 Mn 0.10163 0.40489 0.48192 0.0
C830 C 0.12453 0.47455 0.52723 0.0
C831 C 0.12917 0.45526 0.63394 0.0
C832 C 0.17368 0.39447 0.50555 0.0
O833 O 0.10277 0.37969 0.57875 0.0
O834 O 0.0911 0.36381 0.51753 0.0
C835 C 0.02846 0.38913 0.48637 0.0
N836 N 0.0543 0.41131 0.4731 0.0
C837 C 0.02113 0.42254 0.41666 0.0
C838 C 0.99606 0.39672 0.42822 0.0
C839 C 0.99949 0.38039 0.46351 0.0
C840 C 0.05086 0.42764 0.43924 0.0
H841 H 0.0309 0.37585 0.51301 0.0
C842 C 0.08802 0.35814 0.55293 0.0
O843 O 0.15369 0.43488 0.62382 0.0
O844 O 0.10481 0.45676 0.60875 0.0
N845 N 0.10912 0.44129 0.44458 0.0
C846 C 0.13898 0.45774 0.43321 0.0
C847 C 0.13907 0.47858 0.40029 0.0
C848 C 0.10878 0.48095 0.37863 0.0
C849 C 0.07854 0.46315 0.39063 0.0
C850 C 0.07966 0.44472 0.42488 0.0
H851 H 0.16248 0.45479 0.44908 0.0
O852 O 0.14967 0.47668 0.55183 0.0
O853 O 0.10715 0.44255 0.52446 0.0
O854 O 0.17066 0.40216 0.54079 0.0
O855 O 0.14925 0.39544 0.48218 0.0
C856 C 0.04767 0.4617 0.36934 0.0
C857 C 0.01924 0.44041 0.38182 0.0
H858 H 0.97449 0.38842 0.40975 0.0
H859 H 0.98038 0.36017 0.47269 0.0
H860 H 0.16259 0.49192 0.39106 0.0
H861 H 0.10915 0.49596 0.35256 0.0
H862 H 0.04602 0.47531 0.34252 0.0
H863 H 0.99628 0.43736 0.36411 0.0
Mn864 Mn 0.14509 0.32989 0.66938 0.0
Mn865 Mn 0.12166 0.29694 0.75364 0.0
C866 C 0.18253 0.33092 0.72037 0.0
C867 C 0.17742 0.32918 0.6133 0.0
C868 C 0.10918 0.37529 0.73048 0.0
O869 O 0.1019 0.29437 0.65363 0.0
O870 O 0.08695 0.28338 0.71339 0.0
C871 C 0.12396 0.21641 0.73384 0.0
N872 N 0.13425 0.2463 0.75644 0.0
C873 C 0.16538 0.20746 0.79798 0.0
C874 C 0.15494 0.17639 0.77521 0.0
C875 C 0.13436 0.18095 0.74285 0.0
C876 C 0.15468 0.24226 0.78725 0.0
H877 H 0.10782 0.21936 0.70917 0.0
C878 C 0.08157 0.27916 0.67766 0.0
O879 O 0.15353 0.35203 0.61906 0.0
O880 O 0.17807 0.30214 0.63662 0.0
N881 N 0.15353 0.30646 0.79526 0.0
C882 C 0.162 0.33915 0.81421 0.0
C883 C 0.18421 0.33954 0.84594 0.0
C884 C 0.19669 0.30616 0.85867 0.0
C885 C 0.18675 0.27267 0.83959 0.0
C886 C 0.16504 0.27409 0.80765 0.0
H887 H 0.15172 0.3647 0.80544 0.0
O888 O 0.18659 0.35511 0.69441 0.0
O889 O 0.15613 0.30785 0.71651 0.0
O890 O 0.11669 0.3704 0.69568 0.0
O891 O 0.10955 0.34931 0.75422 0.0
C892 C 0.19742 0.23792 0.85116 0.0
C893 C 0.18653 0.20531 0.83053 0.0
H894 H 0.16283 0.14896 0.78211 0.0
H895 H 0.1263 0.15712 0.725 0.0
H896 H 0.19136 0.36548 0.86082 0.0
H897 H 0.21363 0.30653 0.88333 0.0
H898 H 0.21415 0.23598 0.87577 0.0
H899 H 0.19519 0.17879 0.83949 0.0
Mn900 Mn 0.34493 0.66736 0.18198 0.0
Mn901 Mn 0.39733 0.7 0.25472 0.0
C902 C 0.3218 0.68811 0.23869 0.0
C903 C 0.30304 0.66441 0.1286 0.0
C904 C 0.38255 0.61927 0.24094 0.0
O905 O 0.3871 0.69448 0.15473 0.0
O906 O 0.41766 0.68868 0.20619 0.0
C907 C 0.39788 0.77609 0.22131 0.0
N908 N 0.40238 0.75329 0.25097 0.0
C909 C 0.4128 0.80613 0.29345 0.0
C910 C 0.4134 0.82953 0.2625 0.0
C911 C 0.40463 0.81457 0.22638 0.0
C912 C 0.40559 0.76812 0.28636 0.0
H913 H 0.38796 0.76544 0.19436 0.0
C914 C 0.41378 0.70476 0.17535 0.0
O915 O 0.32263 0.63798 0.13613 0.0
O916 O 0.30973 0.69409 0.1497 0.0
N917 N 0.38512 0.71002 0.30563 0.0
C918 C 0.38051 0.68405 0.3327 0.0
C919 C 0.38799 0.69366 0.37083 0.0
C920 C 0.39928 0.73024 0.38112 0.0
C921 C 0.40331 0.7567 0.35307 0.0
C922 C 0.39763 0.74479 0.31537 0.0
H923 H 0.37262 0.65562 0.32522 0.0
O924 O 0.30795 0.66005 0.21898 0.0
O925 O 0.35154 0.70002 0.22817 0.0
O926 O 0.37058 0.62346 0.20721 0.0
O927 O 0.3922 0.64661 0.26249 0.0
C928 C 0.41349 0.79423 0.36093 0.0
C929 C 0.41733 0.81918 0.33114 0.0
H930 H 0.41842 0.85923 0.26644 0.0
H931 H 0.40235 0.83269 0.20267 0.0
H932 H 0.3848 0.67299 0.39224 0.0
H933 H 0.40427 0.7378 0.41059 0.0
H934 H 0.41765 0.80436 0.3898 0.0
H935 H 0.42354 0.84833 0.33753 0.0
Mn936 Mn 0.58117 0.63059 0.57679 0.0
Mn937 Mn 0.60085 0.54485 0.54756 0.0
C938 C 0.56448 0.60684 0.51784 0.0
C939 C 0.54091 0.67329 0.59573 0.0
C940 C 0.64711 0.61358 0.53921 0.0
O941 O 0.59304 0.60587 0.62812 0.0
O942 O 0.61362 0.55436 0.60147 0.0
C943 C 0.55032 0.50464 0.59472 0.0
N944 N 0.56307 0.51188 0.56018 0.0
C945 C 0.52233 0.46744 0.53025 0.0
C946 C 0.50901 0.45954 0.56555 0.0
C947 C 0.5229 0.47847 0.59789 0.0
C948 C 0.54898 0.49475 0.5287 0.0
H949 H 0.56087 0.51862 0.61974 0.0
C950 C 0.60778 0.57475 0.63034 0.0
O951 O 0.57343 0.68214 0.5963 0.0
O952 O 0.53253 0.63839 0.59028 0.0
N953 N 0.5893 0.52991 0.49618 0.0
C954 C 0.60844 0.53542 0.4652 0.0
C955 C 0.59785 0.51873 0.43035 0.0
C956 C 0.56903 0.49409 0.42818 0.0
C957 C 0.55179 0.48557 0.46113 0.0
C958 C 0.56288 0.50422 0.49485 0.0
H959 H 0.63268 0.55043 0.46754 0.0
O960 O 0.56842 0.64228 0.52376 0.0
O961 O 0.57159 0.5864 0.54634 0.0
O962 O 0.63155 0.6346 0.56184 0.0
O963 O 0.63821 0.57931 0.53207 0.0
C964 C 0.52512 0.458 0.46208 0.0
C965 C 0.51039 0.44895 0.49663 0.0
H966 H 0.48815 0.43898 0.56812 0.0
H967 H 0.51274 0.47265 0.62529 0.0
H968 H 0.6127 0.52367 0.40555 0.0
H969 H 0.5614 0.48048 0.40145 0.0
H970 H 0.51606 0.44319 0.43647 0.0
H971 H 0.49 0.42757 0.49706 0.0
Mn972 Mn 0.91733 0.36024 0.08394 0.0
Mn973 Mn 0.88854 0.44549 0.06465 0.0
C974 C 0.93253 0.39081 0.02979 0.0
C975 C 0.95998 0.32366 0.11115 0.0
C976 C 0.84542 0.37375 0.04819 0.0
O977 O 0.90279 0.37934 0.13691 0.0
O978 O 0.88719 0.43528 0.1186 0.0
C979 C 0.93862 0.49546 0.10805 0.0
N980 N 0.92213 0.48503 0.07483 0.0
C981 C 0.93956 0.54287 0.04678 0.0
C982 C 0.95661 0.55423 0.08073 0.0
C983 C 0.95647 0.53023 0.11133 0.0
C984 C 0.9227 0.50765 0.04498 0.0
H985 H 0.9377 0.47771 0.1321 0.0
C986 C 0.8944 0.41264 0.14435 0.0
O987 O 0.92933 0.31004 0.10306 0.0
O988 O 0.96561 0.35854 0.10466 0.0
N989 N 0.89035 0.46014 0.01322 0.0
C990 C 0.87505 0.4437 0.98167 0.0
C991 C 0.87575 0.46252 0.94748 0.0
C992 C 0.89164 0.49828 0.94625 0.0
C993 C 0.90725 0.51461 0.9791 0.0
C994 C 0.90637 0.49417 0.01212 0.0
H995 H 0.86287 0.41626 0.98247 0.0
O996 O 0.93485 0.35513 0.03128 0.0
O997 O 0.92183 0.40732 0.05961 0.0
O998 O 0.86686 0.35092 0.06124 0.0
O999 O 0.85083 0.40886 0.05153 0.0
C1000 C 0.92379 0.55028 0.98033 0.0
C1001 C 0.93959 0.56458 0.01426 0.0
H1002 H 0.97032 0.58107 0.08341 0.0
H1003 H 0.96966 0.53875 0.13758 0.0
H1004 H 0.86388 0.4496 0.9222 0.0
H1005 H 0.89192 0.51283 0.9199 0.0
H1006 H 0.92476 0.56683 0.95528 0.0
H1007 H 0.95256 0.59185 0.01474 0.0
Mn1008 Mn 0.67584 0.66963 0.67676 0.0
Mn1009 Mn 0.64609 0.71372 0.75422 0.0
C1010 C 0.6989 0.72645 0.69819 0.0
C1011 C 0.71951 0.63905 0.64334 0.0
C1012 C 0.60863 0.70962 0.6798 0.0
O1013 O 0.65551 0.62585 0.70698 0.0
O1014 O 0.63305 0.65923 0.75494 0.0
C1015 C 0.66434 0.68614 0.82667 0.0
N1016 N 0.672 0.71192 0.80029 0.0
C1017 C 0.6908 0.75669 0.84948 0.0
C1018 C 0.6818 0.73083 0.87659 0.0
C1019 C 0.66742 0.69587 0.86505 0.0
C1020 C 0.68299 0.74703 0.81151 0.0
H1021 H 0.65245 0.65935 0.81874 0.0
C1022 C 0.6395 0.6283 0.73822 0.0
O1023 O 0.68882 0.64082 0.6291 0.0
O1024 O 0.72299 0.6498 0.67829 0.0
N1025 N 0.65985 0.76554 0.75461 0.0
C1026 C 0.65266 0.79143 0.72858 0.0
C1027 C 0.66415 0.82861 0.73509 0.0
C1028 C 0.68207 0.83903 0.7688 0.0
C1029 C 0.68847 0.81205 0.79549 0.0
C1030 C 0.67832 0.77494 0.78632 0.0
H1031 H 0.63857 0.78372 0.70286 0.0
O1032 O 0.69744 0.71785 0.66245 0.0
O1033 O 0.68331 0.7034 0.72027 0.0
O1034 O 0.62785 0.68859 0.66126 0.0
O1035 O 0.61476 0.71999 0.71337 0.0
C1036 C 0.70228 0.82093 0.83183 0.0
C1037 C 0.70227 0.79343 0.85928 0.0
H1038 H 0.68467 0.73796 0.90643 0.0
H1039 H 0.65888 0.67621 0.88579 0.0
H1040 H 0.65871 0.84927 0.71446 0.0
H1041 H 0.68983 0.86796 0.7744 0.0
H1042 H 0.71024 0.84933 0.83984 0.0
H1043 H 0.70924 0.80124 0.88825 0.0
Mn1044 Mn 0.40048 0.40673 0.4411 0.0
Mn1045 Mn 0.35505 0.47808 0.47454 0.0
C1046 C 0.42575 0.46392 0.454 0.0
C1047 C 0.43837 0.35773 0.44939 0.0
C1048 C 0.35951 0.45975 0.39122 0.0
O1049 O 0.35685 0.37891 0.46211 0.0
O1050 O 0.33084 0.42952 0.48275 0.0
C1051 C 0.36023 0.4603 0.55576 0.0
N1052 N 0.36339 0.48533 0.52775 0.0
C1053 C 0.38086 0.5344 0.57261 0.0
C1054 C 0.37667 0.50938 0.60194 0.0
C1055 C 0.36657 0.47211 0.59344 0.0
C1056 C 0.37372 0.52116 0.53559 0.0
H1057 H 0.35334 0.43145 0.54944 0.0
C1058 C 0.33319 0.39421 0.48061 0.0
O1059 O 0.42093 0.3614 0.41815 0.0
O1060 O 0.4308 0.37956 0.47712 0.0
N1061 N 0.37568 0.52724 0.47044 0.0
C1062 C 0.38256 0.54683 0.43888 0.0
C1063 C 0.39544 0.58384 0.44249 0.0
C1064 C 0.40074 0.60061 0.47845 0.0
C1065 C 0.3931 0.5802 0.51053 0.0
C1066 C 0.38002 0.54344 0.50521 0.0
H1067 H 0.37853 0.53439 0.41109 0.0
O1068 O 0.43989 0.44101 0.43135 0.0
O1069 O 0.39783 0.4527 0.46963 0.0
O1070 O 0.37714 0.4308 0.39427 0.0
O1071 O 0.34597 0.47527 0.41941 0.0
C1072 C 0.39912 0.5945 0.54759 0.0
C1073 C 0.39307 0.57159 0.5786 0.0
H1074 H 0.38194 0.51827 0.63103 0.0
H1075 H 0.36397 0.45244 0.61586 0.0
H1076 H 0.4013 0.59939 0.41757 0.0
H1077 H 0.41105 0.62905 0.48112 0.0
H1078 H 0.40926 0.62278 0.55255 0.0
H1079 H 0.39868 0.58261 0.60693 0.0
Mn1080 Mn 0.0634 0.60786 0.92091 0.0
Mn1081 Mn 0.10159 0.53566 0.96199 0.0
C1082 C 0.03214 0.55606 0.93949 0.0
C1083 C 0.03462 0.66355 0.92142 0.0
C1084 C 0.09835 0.54534 0.87733 0.0
O1085 O 0.1106 0.63263 0.93895 0.0
O1086 O 0.12929 0.58194 0.96669 0.0
C1087 C 0.10265 0.56388 0.04137 0.0
N1088 N 0.09501 0.53617 0.01518 0.0
C1089 C 0.0788 0.49343 0.06336 0.0
C1090 C 0.08658 0.52147 0.09084 0.0
C1091 C 0.09836 0.5569 0.07977 0.0
C1092 C 0.08325 0.50212 0.0255 0.0
H1093 H 0.11203 0.59105 0.03306 0.0
C1094 C 0.13219 0.61641 0.95987 0.0
O1095 O 0.04996 0.65147 0.89201 0.0
O1096 O 0.03852 0.64504 0.95205 0.0
N1097 N 0.07697 0.48836 0.96107 0.0
C1098 C 0.06837 0.4651 0.931 0.0
C1099 C 0.05528 0.42885 0.93722 0.0
C1100 C 0.05179 0.41659 0.97425 0.0
C1101 C 0.06128 0.44077 1.00476 0.0
C1102 C 0.07413 0.47662 0.99683 0.0
H1103 H 0.07145 0.47403 0.90245 0.0
O1104 O 0.01946 0.57718 0.91423 0.0
O1105 O 0.062 0.5658 0.95357 0.0
O1106 O 0.08259 0.57556 0.87788 0.0
O1107 O 0.10951 0.53052 0.9072 0.0
C1108 C 0.05764 0.43104 0.04273 0.0
C1109 C 0.06617 0.45743 0.07199 0.0
H1110 H 0.08336 0.5162 0.1205 0.0
H1111 H 0.10431 0.57872 0.1008 0.0
H1112 H 0.048 0.41036 0.91352 0.0
H1113 H 0.04145 0.3887 0.97893 0.0
H1114 H 0.04757 0.40361 0.04971 0.0
H1115 H 0.06252 0.44987 0.10103 0.0
Mn1116 Mn 0.36984 0.36613 0.29261 0.0
Mn1117 Mn 0.33846 0.28393 0.32466 0.0
C1118 C 0.35619 0.31563 0.25072 0.0
C1119 C 0.36822 0.4259 0.26355 0.0
C1120 C 0.41032 0.3105 0.33952 0.0
O1121 O 0.34485 0.37995 0.34314 0.0
O1122 O 0.32135 0.32337 0.35652 0.0
C1123 C 0.26835 0.29461 0.30259 0.0
N1124 N 0.29503 0.27234 0.30393 0.0
C1125 C 0.26442 0.22292 0.26981 0.0
C1126 C 0.23653 0.24522 0.26854 0.0
C1127 C 0.23867 0.28155 0.2837 0.0
C1128 C 0.29413 0.23862 0.28654 0.0
H1129 H 0.27038 0.32261 0.31428 0.0
C1130 C 0.32424 0.35846 0.36206 0.0
O1131 O 0.39339 0.41632 0.28486 0.0
O1132 O 0.34193 0.40243 0.26226 0.0
N1133 N 0.35266 0.24224 0.29539 0.0
C1134 C 0.38427 0.22926 0.29083 0.0
C1135 C 0.38773 0.19499 0.27197 0.0
C1136 C 0.3586 0.17415 0.25826 0.0
C1137 C 0.32636 0.18804 0.26324 0.0
C1138 C 0.32461 0.22231 0.28241 0.0
H1139 H 0.40669 0.2446 0.30157 0.0
O1140 O 0.37898 0.34112 0.24206 0.0
O1141 O 0.3446 0.31955 0.28407 0.0
O1142 O 0.40992 0.33866 0.31824 0.0
O1143 O 0.38345 0.29228 0.34814 0.0
C1144 C 0.29588 0.16984 0.24907 0.0
C1145 C 0.26481 0.18736 0.25232 0.0
H1146 H 0.21364 0.23549 0.25423 0.0
H1147 H 0.21806 0.29979 0.27983 0.0
H1148 H 0.41278 0.18459 0.2682 0.0
H1149 H 0.36132 0.14782 0.24355 0.0
H1150 H 0.29623 0.14318 0.23435 0.0
H1151 H 0.2418 0.17404 0.23974 0.0
H1152 H 0.03738 0.03778 0.02561 0.0
H1153 H 0.06853 0.12832 0.95505 0.0
H1154 H 0.04514 0.09207 0.89878 0.0
H1155 H 0.0112 0.03468 0.87319 0.0
H1156 H 0.99431 0.94317 0.94805 0.0
H1157 H 0.01865 0.97977 1.00036 0.0
C1158 C 0.04011 0.04953 0.99782 0.0
C1159 C 0.05495 0.08492 0.99379 0.0
C1160 C 0.02996 0.02811 0.96694 0.0
C1161 C 0.05691 0.10072 0.95819 0.0
C1162 C 0.04433 0.07983 0.92634 0.0
C1163 C 0.01488 0.02249 0.90054 0.0
C1164 C 0.99997 0.98739 0.90792 0.0
C1165 C 0.03062 0.04331 0.93061 0.0
C1166 C 0.00508 0.97073 0.94262 0.0
C1167 C 0.01852 0.99165 0.97256 0.0
H1168 H 0.34039 0.7548 0.27154 0.0
H1169 H 0.25192 0.68642 0.23533 0.0
H1170 H 0.21538 0.73577 0.25457 0.0
H1171 H 0.20873 0.79401 0.28998 0.0
H1172 H 0.29728 0.86121 0.32896 0.0
H1173 H 0.33439 0.81691 0.29912 0.0
C1174 C 0.31334 0.75029 0.26848 0.0
C1175 C 0.29921 0.71611 0.25385 0.0
C1176 C 0.29269 0.77874 0.27957 0.0
C1177 C 0.26367 0.71176 0.24799 0.0
C1178 C 0.24276 0.7402 0.2584 0.0
C1179 C 0.2362 0.7992 0.29135 0.0
C1180 C 0.25063 0.82964 0.31277 0.0
C1181 C 0.25701 0.77316 0.27547 0.0
C1182 C 0.28591 0.8374 0.31311 0.0
C1183 C 0.30698 0.81193 0.29645 0.0
H1184 H 0.47172 1.00609 0.56971 0.0
H1185 H 0.42816 0.90891 0.5104 0.0
H1186 H 0.44252 0.93669 0.44977 0.0
H1187 H 0.47629 0.98648 0.41649 0.0
H1188 H 0.5061 0.08799 0.47873 0.0
H1189 H 0.48694 0.06124 0.53628 0.0
C1190 C 0.46279 0.99222 0.54358 0.0
C1191 C 0.4477 0.95669 0.54424 0.0
C1192 C 0.46839 1.00925 0.50967 0.0
C1193 C 0.43934 0.93701 0.51021 0.0
C1194 C 0.44723 0.95291 0.47571 0.0
C1195 C 0.4761 1.00349 0.44213 0.0
C1196 C 0.49353 0.0384 0.44414 0.0
C1197 C 0.46267 0.98888 0.47523 0.0
C1198 C 0.4931 0.06071 0.47707 0.0
C1199 C 0.48222 0.04553 0.51009 0.0
H1200 H 0.30506 0.28934 0.82637 0.0
H1201 H 0.25737 0.18224 0.794 0.0
H1202 H 0.22231 0.20978 0.74706 0.0
H1203 H 0.20077 0.26291 0.71999 0.0
H1204 H 0.23136 0.37241 0.76382 0.0
H1205 H 0.27772 0.34612 0.80179 0.0
C1206 C 0.28695 0.27245 0.8088 0.0
C1207 C 0.28586 0.23358 0.81075 0.0
C1208 C 0.26356 0.28902 0.78471 0.0
C1209 C 0.26094 0.21185 0.79011 0.0
C1210 C 0.24034 0.22757 0.76382 0.0
C1211 C 0.21734 0.28115 0.73818 0.0
C1212 C 0.21225 0.31891 0.74079 0.0
C1213 C 0.24114 0.26591 0.76137 0.0
C1214 C 0.23474 0.34279 0.76257 0.0
C1215 C 0.26087 0.32778 0.78423 0.0
H1216 H 0.02563 0.9837 0.48128 0.0
H1217 H 0.94626 0.90882 0.43267 0.0
H1218 H 0.90522 0.93473 0.47483 0.0
H1219 H 0.89915 0.96373 0.53622 0.0
H1220 H 0.97572 0.0403 0.58486 0.0
H1221 H 0.01329 0.02628 0.53331 0.0
C1222 C 0.99884 0.97456 0.47895 0.0
C1223 C 0.98839 0.94391 0.45588 0.0
C1224 C 0.97611 0.98849 0.50401 0.0
C1225 C 0.95415 0.93229 0.45115 0.0
C1226 C 0.93094 0.94686 0.47533 0.0
C1227 C 0.92245 0.97927 0.53405 0.0
C1228 C 0.9341 1.00243 0.56383 0.0
C1229 C 0.94252 0.97264 0.50367 0.0
C1230 C 0.9665 0.02085 0.56264 0.0
C1231 C 0.98761 0.01369 0.53282 0.0
H1232 H 0.24893 0.78265 0.67885 0.0
H1233 H 0.329 0.71763 0.72298 0.0
H1234 H 0.29089 0.69193 0.76982 0.0
H1235 H 0.23603 0.69129 0.80007 0.0
H1236 H 0.1545 0.75404 0.75501 0.0
H1237 H 0.1923 0.7783 0.70606 0.0
C1238 C 0.25799 0.76274 0.69861 0.0
C1239 C 0.2923 0.75348 0.69908 0.0
C1240 C 0.23582 0.74832 0.72516 0.0
C1241 C 0.30346 0.72676 0.72373 0.0
C1242 C 0.28149 0.71181 0.75014 0.0
C1243 C 0.2267 0.71059 0.77965 0.0
C1244 C 0.1932 0.72195 0.78116 0.0
C1245 C 0.24805 0.72338 0.75175 0.0
C1246 C 0.18058 0.74574 0.75424 0.0
C1247 C 0.20202 0.75925 0.7264 0.0
H1248 H 0.50377 0.09849 1.00386 0.0
H1249 H 0.43541 0.05124 0.0846 0.0
H1250 H 0.48362 0.02285 0.11652 0.0
H1251 H 0.53879 0.99509 0.10619 0.0
H1252 H 0.60549 0.03783 0.02126 0.0
H1253 H 0.5641 0.08412 1.00519 0.0
C1254 C 0.49947 0.08236 0.02872 0.0
C1255 C 0.4659 0.074 0.04004 0.0
C1256 C 0.52687 0.06474 0.04528 0.0
C1257 C 0.46085 0.05595 0.07414 0.0
C1258 C 0.48845 0.03991 0.09233 0.0
C1259 C 0.54484 0.01539 0.08507 0.0
C1260 C 0.57445 0.01238 0.06379 0.0
C1261 C 0.52068 0.04115 0.07571 0.0
C1262 C 0.58242 0.03917 0.03714 0.0
C1263 C 0.55882 0.06563 0.02818 0.0
H1264 H 0.29611 0.34015 0.22851 0.0
H1265 H 0.36358 0.25194 0.20804 0.0
H1266 H 0.31663 0.21458 0.17625 0.0
H1267 H 0.25437 0.20199 0.16986 0.0
H1268 H 0.18656 0.28898 0.19377 0.0
H1269 H 0.23563 0.33273 0.20707 0.0
C1270 C 0.30074 0.31324 0.21582 0.0
C1271 C 0.33284 0.29819 0.2213 0.0
C1272 C 0.2734 0.29169 0.19887 0.0
C1273 C 0.33894 0.26373 0.20445 0.0
C1274 C 0.31202 0.24239 0.18652 0.0
C1275 C 0.25038 0.23066 0.17769 0.0
C1276 C 0.21706 0.24164 0.18427 0.0
C1277 C 0.27874 0.25512 0.18613 0.0
C1278 C 0.21197 0.27931 0.19151 0.0
C1279 C 0.24009 0.30437 0.19854 0.0
H1280 H 0.477 0.55305 0.06538 0.0
H1281 H 0.42189 0.58312 0.96527 0.0
H1282 H 0.44631 0.53207 0.9294 0.0
H1283 H 0.48892 0.48214 0.9281 0.0
H1284 H 0.5669 0.49112 0.01605 0.0
H1285 H 0.53162 0.52861 0.05505 0.0
C1286 C 0.47006 0.54877 0.03565 0.0
C1287 C 0.44436 0.56837 0.01875 0.0
C1288 C 0.49005 0.52743 0.01364 0.0
C1289 C 0.4377 0.56424 0.97979 0.0
C1290 C 0.45308 0.53659 0.95906 0.0
C1291 C 0.4977 0.49204 0.95601 0.0
C1292 C 0.52765 0.47953 0.97245 0.0
C1293 C 0.47967 0.518 0.97601 0.0
C1294 C 0.54143 0.49627 1.0059 0.0
C1295 C 0.52174 0.51818 0.02774 0.0
H1296 H 0.75221 0.21164 0.21459 0.0
H1297 H 0.76556 0.33079 0.22889 0.0
H1298 H 0.70752 0.33421 0.24883 0.0
H1299 H 0.66253 0.30233 0.28479 0.0
H1300 H 0.64441 0.18477 0.26698 0.0
H1301 H 0.69534 0.18167 0.22967 0.0
C1302 C 0.74271 0.23816 0.22321 0.0
C1303 C 0.76411 0.27049 0.22252 0.0
C1304 C 0.70966 0.24022 0.23723 0.0
C1305 C 0.75028 0.30506 0.23032 0.0
C1306 C 0.71713 0.30728 0.24229 0.0
C1307 C 0.6695 0.2763 0.27224 0.0
C1308 C 0.65289 0.2433 0.28275 0.0
C1309 C 0.69802 0.27491 0.2495 0.0
C1310 C 0.65932 0.21026 0.26255 0.0
C1311 C 0.68839 0.20834 0.241 0.0
H1312 H 0.09236 0.50259 0.46649 0.0
H1313 H 0.11286 0.52439 0.58449 0.0
H1314 H 0.06323 0.56238 0.58755 0.0
H1315 H 0.00818 0.58073 0.55807 0.0
H1316 H 0.98496 0.54555 0.44217 0.0
H1317 H 0.03928 0.51861 0.43762 0.0
C1318 C 0.08531 0.51411 0.493 0.0
C1319 C 0.1046 0.50798 0.52535 0.0
C1320 C 0.05528 0.53266 0.49527 0.0
C1321 C 0.09766 0.52763 0.55896 0.0
C1322 C 0.06896 0.54894 0.56097 0.0
C1323 C 0.01503 0.56672 0.53217 0.0
C1324 C 0.99213 0.56446 0.50107 0.0
C1325 C 0.04645 0.54992 0.52969 0.0
C1326 C 1.00153 0.54687 0.46718 0.0
C1327 C 0.03293 0.53183 0.46412 0.0
H1328 H 0.79642 0.69969 0.24239 0.0
H1329 H 0.8392 0.76968 0.33349 0.0
H1330 H 0.8218 0.8251 0.30048 0.0
H1331 H 0.78639 0.8509 0.24891 0.0
H1332 H 0.75188 0.77843 0.15528 0.0
H1333 H 0.77644 0.7261 0.18497 0.0
C1334 C 0.8041 0.72713 0.25378 0.0
C1335 C 0.82004 0.73104 0.2891 0.0
C1336 C 0.79593 0.75812 0.23405 0.0
C1337 C 0.82729 0.7665 0.30559 0.0
C1338 C 0.81764 0.798 0.28673 0.0
C1339 C 0.78598 0.824 0.23445 0.0
C1340 C 0.76648 0.81752 0.20119 0.0
C1341 C 0.80098 0.79395 0.25127 0.0
C1342 C 0.76621 0.78319 0.1817 0.0
C1343 C 0.7802 0.75333 0.19849 0.0
H1344 H 0.83489 0.29336 0.72593 0.0
H1345 H 0.7596 0.21983 0.66941 0.0
H1346 H 0.71542 0.26144 0.68677 0.0
H1347 H 0.69756 0.30967 0.73016 0.0
H1348 H 0.77235 0.37558 0.79752 0.0
H1349 H 0.81838 0.34545 0.7651 0.0
C1350 C 0.80902 0.28531 0.7194 0.0
C1351 C 0.80046 0.25178 0.70019 0.0
C1352 C 0.78391 0.30792 0.73159 0.0
C1353 C 0.76671 0.24431 0.68678 0.0
C1354 C 0.74152 0.26827 0.6962 0.0
C1355 C 0.72405 0.31758 0.73731 0.0
C1356 C 0.73228 0.34306 0.76688 0.0
C1357 C 0.74969 0.29869 0.72061 0.0
C1358 C 0.7661 0.35507 0.7752 0.0
C1359 C 0.79212 0.33776 0.75698 0.0
H1360 H 0.82364 0.81802 0.76897 0.0
H1361 H 0.85408 0.70942 0.79487 0.0
H1362 H 0.80608 0.68119 0.75582 0.0
H1363 H 0.74889 0.69038 0.72927 0.0
H1364 H 0.72178 0.79931 0.69565 0.0
H1365 H 0.77543 0.82601 0.72416 0.0
C1366 C 0.81986 0.78816 0.76583 0.0
C1367 C 0.83783 0.76479 0.78951 0.0
C1368 C 0.79273 0.77323 0.74324 0.0
C1369 C 0.83612 0.72678 0.78163 0.0
C1370 C 0.80954 0.71117 0.75865 0.0
C1371 C 0.75498 0.7199 0.7275 0.0
C1372 C 0.73113 0.74344 0.71234 0.0
C1373 C 0.78599 0.73442 0.74237 0.0
C1374 C 0.73941 0.78133 0.70911 0.0
C1375 C 0.77012 0.79636 0.72496 0.0
H1376 H 0.46464 0.5114 0.41378 0.0
H1377 H 0.43276 0.48513 0.52578 0.0
H1378 H 0.46423 0.53963 0.55195 0.0
H1379 H 0.50657 0.58729 0.54478 0.0
H1380 H 0.55832 0.59804 0.43995 0.0
H1381 H 0.5122 0.55912 0.40744 0.0
C1382 C 0.46433 0.5185 0.44368 0.0
C1383 C 0.44459 0.49677 0.46785 0.0
C1384 C 0.48569 0.54737 0.45907 0.0
C1385 C 0.4457 0.50377 0.50675 0.0
C1386 C 0.46396 0.53447 0.52167 0.0
C1387 C 0.50742 0.58161 0.5146 0.0
C1388 C 0.53548 0.59397 0.49458 0.0
C1389 C 0.48446 0.55578 0.49819 0.0
C1390 C 0.53663 0.58782 0.45556 0.0
C1391 C 0.51069 0.56538 0.43738 0.0
H1392 H 0.99247 0.4977 0.90862 0.0
H1393 H 0.02532 0.55473 0.01297 0.0
H1394 H 0.00405 0.50279 0.04883 0.0
H1395 H 0.97728 0.44269 0.05122 0.0
H1396 H 0.9324 0.38763 0.95132 0.0
H1397 H 0.95897 0.43636 0.91203 0.0
C1398 C 0.99389 0.49879 0.93921 0.0
C1399 C 0.01129 0.52881 0.95854 0.0
C1400 C 0.98045 0.46917 0.95997 0.0
C1401 C 0.01286 0.53098 0.99792 0.0
C1402 C 1.0009 0.50143 0.01835 0.0
C1403 C 0.97305 0.44143 0.02077 0.0
C1404 C 0.95242 0.41289 1.00392 0.0
C1405 C 0.98523 0.47045 0.99966 0.0
C1406 C 0.94823 0.41006 0.96455 0.0
C1407 C 0.96278 0.43811 0.94241 0.0
H1408 H 0.07113 0.03556 0.18958 0.0
H1409 H 0.16067 1.0006 0.13396 0.0
H1410 H 0.17529 0.95806 0.18166 0.0
H1411 H 0.17889 0.93663 0.24999 0.0
H1412 H 0.06791 0.99662 0.32386 0.0
H1413 H 0.0536 0.02225 0.25484 0.0
C1414 C 0.09286 0.01827 0.18916 0.0
C1415 C 0.11657 0.02269 0.16056 0.0
C1416 C 0.09928 0.99641 0.22028 0.0
C1417 C 0.14402 0.99876 0.15774 0.0
C1418 C 0.15264 0.97351 0.18519 0.0
C1419 C 0.15633 0.95162 0.25553 0.0
C1420 C 0.1416 0.95324 0.30078 0.0
C1421 C 0.13578 0.97195 0.21895 0.0
C1422 C 0.0858 0.9907 0.30163 0.0
C1423 C 0.07548 1.00548 0.25809 0.0
H1424 H 0.30666 0.95099 0.57872 0.0
H1425 H 0.37249 0.85993 0.5635 0.0
H1426 H 0.33516 0.83403 0.51255 0.0
H1427 H 0.28375 0.8361 0.47173 0.0
H1428 H 0.22006 0.92945 0.4808 0.0
H1429 H 0.25596 0.95488 0.53422 0.0
C1430 C 0.31266 0.92523 0.56461 0.0
C1431 C 0.34195 0.90667 0.57698 0.0
C1432 C 0.29134 0.91076 0.53371 0.0
C1433 C 0.3496 0.87412 0.55664 0.0
C1434 C 0.32835 0.8594 0.52683 0.0
C1435 C 0.27768 0.86225 0.48493 0.0
C1436 C 0.24884 0.88064 0.47154 0.0
C1437 C 0.29908 0.87728 0.51513 0.0
C1438 C 0.24191 0.9145 0.48984 0.0
C1439 C 0.26254 0.92907 0.52066 0.0
H1440 H 0.37225 0.03194 0.83216 0.0
H1441 H 0.27699 0.03256 0.82611 0.0
H1442 H 0.294 0.96997 0.80605 0.0
H1443 H 0.33896 0.93524 0.77764 0.0
H1444 H 0.46061 1.00523 0.74087 0.0
H1445 H 0.44784 0.04912 0.787 0.0
C1446 C 0.35942 0.04372 0.85111 0.0
C1447 C 0.32674 0.05273 0.84784 0.0
C1448 C 0.37475 0.01992 0.82055 0.0
C1449 C 0.30336 0.02585 0.83002 0.0
C1450 C 0.31347 0.98989 0.81733 0.0
C1451 C 0.36058 0.95543 0.78202 0.0
C1452 C 0.41259 0.96612 0.74656 0.0
C1453 C 0.34832 0.98363 0.81092 0.0
C1454 C 0.43712 1.0 0.75549 0.0
C1455 C 0.42669 0.02779 0.78524 0.0
H1456 H 0.21488 0.17824 0.92851 0.0
H1457 H 0.30222 0.1853 1.00505 0.0
H1458 H 0.26482 0.18662 0.05897 0.0
H1459 H 0.20796 0.16701 0.08253 0.0
H1460 H 0.12067 0.16839 1.00691 0.0
H1461 H 0.15737 0.18362 0.95463 0.0
C1462 C 0.22577 0.17983 0.95699 0.0
C1463 C 0.26118 0.17806 0.96303 0.0
C1464 C 0.20425 0.18147 0.98791 0.0
C1465 C 0.27493 0.18322 0.9999 0.0
C1466 C 0.25365 0.18432 0.0307 0.0
C1467 C 0.19694 0.17201 0.05502 0.0
C1468 C 0.16205 0.16416 0.0479 0.0
C1469 C 0.21829 0.18047 0.02498 0.0
C1470 C 0.14775 0.17353 0.01283 0.0
C1471 C 0.1688 0.18134 0.9826 0.0
H1472 H 0.15163 0.03797 0.22621 0.0
H1473 H 0.15718 0.10819 0.32314 0.0
H1474 H 0.15199 0.05807 0.36661 0.0
H1475 H 0.12654 0.9939 0.38556 0.0
H1476 H 0.07059 0.8996 0.30313 0.0
H1477 H 0.08756 0.93191 0.23697 0.0
C1478 C 0.14768 0.03903 0.256 0.0
C1479 C 0.15132 0.07522 0.27139 0.0
C1480 C 0.13411 1.00769 0.27748 0.0
C1481 C 0.15322 0.08041 0.3111 0.0
C1482 C 0.15012 0.05135 0.33668 0.0
C1483 C 0.12237 0.98567 0.35617 0.0
C1484 C 0.09811 0.94529 0.34744 0.0
C1485 C 0.13912 0.01555 0.3247 0.0
C1486 C 0.08584 0.92549 0.3045 0.0
C1487 C 0.09715 0.94577 0.26328 0.0
H1488 H 0.24955 0.82886 0.55743 0.0
H1489 H 0.21429 0.8875 0.65497 0.0
H1490 H 0.15994 0.89715 0.62137 0.0
H1491 H 0.12385 0.88935 0.56367 0.0
H1492 H 0.16247 0.83578 0.4653 0.0
H1493 H 0.21232 0.81854 0.50197 0.0
C1494 C 0.23002 0.844 0.57122 0.0
C1495 C 0.2359 0.85841 0.60798 0.0
C1496 C 0.19927 0.8492 0.55202 0.0
C1497 C 0.2102 0.87674 0.62631 0.0
C1498 C 0.17932 0.88223 0.60715 0.0
C1499 C 0.14374 0.87533 0.54949 0.0
C1500 C 0.13936 0.86399 0.51116 0.0
C1501 C 0.17393 0.86908 0.56969 0.0
C1502 C 0.16501 0.84471 0.49423 0.0
C1503 C 0.19376 0.83547 0.51508 0.0
H1504 H 0.44375 0.99078 0.86594 0.0
H1505 H 0.40134 0.10939 0.81581 0.0
H1506 H 0.36611 0.07795 0.74987 0.0
H1507 H 0.34341 0.986 0.6974 0.0
H1508 H 0.39962 0.87762 0.75748 0.0
H1509 H 0.42657 0.91129 0.81914 0.0
C1510 C 0.42868 1.00392 0.84558 0.0
C1511 C 0.42453 0.05342 0.84747 0.0
C1512 C 0.41005 0.97425 0.80988 0.0
C1513 C 0.40269 0.07992 0.8105 0.0
C1514 C 0.37884 0.05963 0.76867 0.0
C1515 C 0.35802 0.9762 0.7211 0.0
C1516 C 0.36653 0.92548 0.72354 0.0
C1517 C 0.37616 1.0101 0.75772 0.0
C1518 C 0.39225 0.90583 0.76038 0.0
C1519 C 0.41176 0.92764 0.80024 0.0
H1520 H 0.28835 0.06297 0.99054 0.0
H1521 H 0.36283 0.14645 0.03433 0.0
H1522 H 0.3292 0.1558 0.08988 0.0
H1523 H 0.27752 0.14262 0.12625 0.0
H1524 H 0.20035 0.06301 0.08154 0.0
H1525 H 0.23536 0.05042 0.02703 0.0
C1526 C 0.29685 0.08382 0.01178 0.0
C1527 C 0.32806 0.10459 1.00704 0.0
C1528 C 0.27684 0.08966 0.0442 0.0
C1529 C 0.33872 0.13066 0.03596 0.0
C1530 C 0.31967 0.13567 0.06839 0.0
C1531 C 0.26865 0.12181 0.1051 0.0
C1532 C 0.23617 0.10363 0.10858 0.0
C1533 C 0.28864 0.11545 0.07298 0.0
C1534 C 0.22505 0.07755 0.07996 0.0
C1535 C 0.24513 0.07042 0.04851 0.0
H1536 H 0.90171 0.238 0.11477 0.0
H1537 H 0.93984 0.26136 0.22878 0.0
H1538 H 0.97876 0.21173 0.22344 0.0
H1539 H 0.00672 0.16512 0.18505 0.0
H1540 H 0.97148 0.1427 0.07054 0.0
H1541 H 0.92782 0.18791 0.0772 0.0
C1542 C 0.91892 0.23268 0.13821 0.0
C1543 C 0.91829 0.25486 0.17163 0.0
C1544 C 0.9421 0.20382 0.13497 0.0
C1545 C 0.94004 0.246 0.20215 0.0
C1546 C 0.96229 0.21711 0.19938 0.0
C1547 C 0.98876 0.16929 0.16194 0.0
C1548 C 0.99163 0.14904 0.1278 0.0
C1549 C 0.9642 0.19637 0.16571 0.0
C1550 C 0.96881 0.15594 0.09779 0.0
C1551 C 0.94423 0.18271 0.10135 0.0
H1552 H 0.48654 0.3467 0.8873 0.0
H1553 H 0.57071 0.28623 0.96184 0.0
H1554 H 0.54604 0.21605 0.94763 0.0
H1555 H 0.45498 0.18021 0.87333 0.0
H1556 H 0.3905 0.26386 0.83866 0.0
H1557 H 0.43198 0.31483 0.85188 0.0
C1558 C 0.49475 0.31959 0.89475 0.0
C1559 C 0.5302 0.31938 0.92496 0.0
C1560 C 0.46984 0.28212 0.87717 0.0
C1561 C 0.54857 0.28206 0.94307 0.0
C1562 C 0.53273 0.23819 0.93378 0.0
C1563 C 0.45275 0.20987 0.87217 0.0
C1564 C 0.42123 0.21931 0.85631 0.0
C1565 C 0.47837 0.23754 0.8882 0.0
C1566 C 0.41526 0.25701 0.8498 0.0
C1567 C 0.43907 0.28694 0.85795 0.0
H1568 H 0.02125 0.70931 0.47284 0.0
H1569 H 0.0087 0.66994 0.35756 0.0
H1570 H 0.05032 0.71867 0.33801 0.0
H1571 H 0.08783 0.77602 0.35351 0.0
H1572 H 0.11186 0.80099 0.47062 0.0
H1573 H 0.06723 0.75747 0.48926 0.0
C1574 C 0.02781 0.71112 0.44343 0.0
C1575 C 0.01088 0.68642 0.4166 0.0
C1576 C 0.05298 0.73831 0.43254 0.0
C1577 C 0.02076 0.68871 0.37884 0.0
C1578 C 0.0446 0.71682 0.36762 0.0
C1579 C 0.08314 0.7725 0.38317 0.0
C1580 C 0.10169 0.79595 0.4104 0.0
C1581 C 0.06022 0.74271 0.39411 0.0
C1582 C 0.09596 0.78801 0.44855 0.0
C1583 C 0.07113 0.76125 0.45944 0.0
H1584 H 0.00358 0.27664 0.07703 0.0
H1585 H 0.97823 0.32284 0.18516 0.0
H1586 H 0.0195 0.28432 0.21653 0.0
H1587 H 0.05877 0.23347 0.21374 0.0
H1588 H 0.09582 0.19919 0.10575 0.0
H1589 H 0.053 0.2353 0.07388 0.0
C1590 C 0.00705 0.27805 0.10747 0.0
C1591 C 0.98676 0.3014 0.12899 0.0
C1592 C 0.032 0.25678 0.12533 0.0
C1593 C 0.99283 0.3044 0.16814 0.0
C1594 C 0.01652 0.28242 0.18606 0.0
C1595 C 0.05767 0.23358 0.18317 0.0
C1596 C 0.07892 0.21048 0.16232 0.0
C1597 C 0.03543 0.25757 0.16506 0.0
C1598 C 0.07832 0.21398 0.12276 0.0
C1599 C 0.05404 0.23522 0.10444 0.0
H1600 H 0.61094 0.77216 0.64033 0.0
H1601 H 0.54222 0.69199 0.69034 0.0
H1602 H 0.49754 0.73686 0.69107 0.0
H1603 H 0.47913 0.80032 0.68063 0.0
H1604 H 0.5495 0.88173 0.63434 0.0
H1605 H 0.59273 0.83561 0.63025 0.0
C1606 C 0.58569 0.76409 0.64986 0.0
C1607 C 0.57941 0.72816 0.66356 0.0
C1608 C 0.561 0.79095 0.65264 0.0
C1609 C 0.54715 0.71883 0.67793 0.0
C1610 C 0.52199 0.74489 0.67949 0.0
C1611 C 0.5041 0.80809 0.67014 0.0
C1612 C 0.51106 0.84452 0.65794 0.0
C1613 C 0.52889 0.78132 0.66773 0.0
C1614 C 0.54351 0.85405 0.64427 0.0
C1615 C 0.56816 0.82754 0.64151 0.0
H1616 H 0.90168 0.70479 0.40484 0.0
H1617 H 0.95562 0.708 0.30045 0.0
H1618 H 0.9918 0.76041 0.32533 0.0
H1619 H 0.01207 0.80082 0.37854 0.0
H1620 H 0.9667 0.78804 0.4873 0.0
H1621 H 0.92392 0.74322 0.4593 0.0
C1622 C 0.922 0.71611 0.38778 0.0
C1623 C 0.92658 0.7012 0.35125 0.0
C1624 C 0.94459 0.74434 0.4033 0.0
C1625 C 0.952 0.71785 0.32909 0.0
C1626 C 0.97261 0.74808 0.3432 0.0
C1627 C 0.99323 0.78788 0.39646 0.0
C1628 C 0.99334 0.79728 0.43533 0.0
C1629 C 0.96996 0.76059 0.38072 0.0
C1630 C 0.96785 0.78094 0.45753 0.0
C1631 C 0.94323 0.75539 0.44148 0.0
H1632 H 0.51834 0.15732 0.88519 0.0
H1633 H 0.45909 0.22743 0.9776 0.0
H1634 H 0.4798 0.29504 0.95538 0.0
H1635 H 0.54986 0.32133 0.86148 0.0
H1636 H 0.59624 0.2305 0.8097 0.0
H1637 H 0.55841 0.18344 0.83358 0.0
C1638 C 0.51446 0.18538 0.89511 0.0
C1639 C 0.48883 0.1896 0.93331 0.0
C1640 C 0.5328 0.22023 0.86972 0.0
C1641 C 0.4764 0.22905 0.95443 0.0
C1642 C 0.48869 0.27132 0.93919 0.0
C1643 C 0.54947 0.29137 0.85911 0.0
C1644 C 0.5763 0.27811 0.83849 0.0
C1645 C 0.5277 0.26629 0.88076 0.0
C1646 C 0.57656 0.23996 0.82768 0.0
C1647 C 0.55498 0.21213 0.84171 0.0
H1648 H 0.93186 0.10349 0.71027 0.0
H1649 H 0.84463 0.15305 0.75779 0.0
H1650 H 0.8393 0.10235 0.80179 0.0
H1651 H 0.86083 0.04597 0.82836 0.0
H1652 H 0.93616 0.98582 0.76985 0.0
H1653 H 0.94308 0.03735 0.72589 0.0
C1654 C 0.90952 0.10186 0.72719 0.0
C1655 C 0.88715 0.13167 0.72821 0.0
C1656 C 0.90452 0.07057 0.75052 0.0
C1657 C 0.86171 0.13052 0.75534 0.0
C1658 C 0.85861 0.10141 0.78061 0.0
C1659 C 0.87753 0.04276 0.8048 0.0
C1660 C 0.89683 0.01065 0.80194 0.0
C1661 C 0.87991 0.07139 0.77852 0.0
C1662 C 0.91979 1.00896 0.77224 0.0
C1663 C 0.92411 0.03888 0.74737 0.0
H1664 H 0.63882 0.15425 0.51378 0.0
H1665 H 0.67584 0.07463 0.43315 0.0
H1666 H 0.72995 0.07241 0.46451 0.0
H1667 H 0.77694 0.0957 0.50567 0.0
H1668 H 0.74225 0.22275 0.59053 0.0
H1669 H 0.67993 0.19855 0.5604 0.0
C1670 C 0.65974 0.1384 0.50427 0.0
C1671 C 0.65474 0.11419 0.47166 0.0
C1672 C 0.69209 0.14343 0.52322 0.0
C1673 C 0.68071 0.09287 0.45779 0.0
C1674 C 0.7115 0.09044 0.47624 0.0
C1675 C 0.76155 0.11699 0.51843 0.0
C1676 C 0.77791 0.17516 0.56319 0.0
C1677 C 0.72026 0.11352 0.50669 0.0
C1678 C 0.74076 0.19828 0.57216 0.0
C1679 C 0.70121 0.18201 0.55354 0.0
H1680 H 0.60627 0.91061 0.23857 0.0
H1681 H 0.71354 0.94114 0.2482 0.0
H1682 H 0.70323 0.98535 0.29997 0.0
H1683 H 0.66301 0.0157 0.34308 0.0
H1684 H 0.55513 0.99144 0.32578 0.0
H1685 H 0.56601 0.94525 0.27652 0.0
C1686 C 0.62726 0.92763 0.25144 0.0
C1687 C 0.66049 0.9236 0.2385 0.0
C1688 C 0.62092 0.95412 0.28014 0.0
C1689 C 0.68758 0.94483 0.25648 0.0
C1690 C 0.68171 0.96978 0.28646 0.0
C1691 C 0.64198 1.00063 0.32808 0.0
C1692 C 0.60824 1.00708 0.33808 0.0
C1693 C 0.64841 0.97496 0.29843 0.0
C1694 C 0.58126 0.9872 0.31849 0.0
C1695 C 0.58748 0.96054 0.29046 0.0
H1696 H 0.86002 0.86153 0.96931 0.0
H1697 H 0.81136 0.95792 0.92848 0.0
H1698 H 0.77086 0.95403 0.97869 0.0
H1699 H 0.74944 0.9251 0.0363 0.0
H1700 H 0.78707 0.81993 0.06797 0.0
H1701 H 0.8311 0.82556 0.02066 0.0
C1702 C 0.83972 0.8807 0.97028 0.0
C1703 C 0.83937 0.91016 0.94455 0.0
C1704 C 0.81471 0.87738 0.99874 0.0
C1705 C 0.81277 0.93495 0.9475 0.0
C1706 C 0.78964 0.93315 0.97674 0.0
C1707 C 0.76689 0.90309 0.03258 0.0
C1708 C 0.76406 0.87183 0.05559 0.0
C1709 C 0.7906 0.90493 1.00305 0.0
C1710 C 0.78783 0.84415 0.0505 0.0
C1711 C 0.81321 0.84729 0.02323 0.0
H1712 H 0.83513 0.02581 0.73323 0.0
H1713 H 0.79928 0.94757 0.64507 0.0
H1714 H 0.79079 0.89958 0.6903 0.0
H1715 H 0.79842 0.87693 0.75512 0.0
H1716 H 0.8205 0.95632 0.84597 0.0
H1717 H 0.82043 1.0066 0.80058 0.0
C1718 C 0.82537 0.99843 0.7239 0.0
C1719 C 0.82155 0.9901 0.68462 0.0
C1720 C 0.81691 0.97073 0.75098 0.0
C1721 C 0.80591 0.95483 0.6742 0.0
C1722 C 0.80031 0.92693 0.70035 0.0
C1723 C 0.80409 0.90514 0.76511 0.0
C1724 C 0.81087 0.91219 0.80396 0.0
C1725 C 0.80705 0.93406 0.73877 0.0
C1726 C 0.81677 0.94946 0.81617 0.0
C1727 C 0.81834 0.97833 0.79008 0.0
H1728 H 0.84211 0.14369 0.51038 0.0
H1729 H 0.77027 0.09439 0.60747 0.0
H1730 H 0.71365 0.12617 0.58508 0.0
H1731 H 0.70116 0.20258 0.49043 0.0
H1732 H 0.77414 0.19803 0.40661 0.0
H1733 H 0.82011 0.18036 0.44973 0.0
C1734 C 0.81726 0.14593 0.52236 0.0
C1735 C 0.80881 0.11843 0.56116 0.0
C1736 C 0.78872 0.17169 0.49749 0.0
C1737 C 0.77198 0.11307 0.5841 0.0
C1738 C 0.73662 0.13331 0.56942 0.0
C1739 C 0.72629 0.19347 0.48442 0.0
C1740 C 0.73395 0.19627 0.44665 0.0
C1741 C 0.74743 0.17386 0.51079 0.0
C1742 C 0.76807 0.19287 0.43567 0.0
C1743 C 0.79492 0.18304 0.46068 0.0
H1744 H 0.56934 0.01296 0.21712 0.0
H1745 H 0.67338 0.99484 0.18981 0.0
H1746 H 0.69358 0.0446 0.2342 0.0
H1747 H 0.68231 0.092 0.28424 0.0
H1748 H 0.57819 0.11003 0.3111 0.0
H1749 H 0.55796 0.06225 0.26478 0.0
C1750 C 0.59643 0.01979 0.22096 0.0
C1751 C 0.61972 0.9989 0.20078 0.0
C1752 C 0.60814 0.04854 0.24724 0.0
C1753 C 0.65471 1.00928 0.20565 0.0
C1754 C 0.6664 0.03812 0.231 0.0
C1755 C 0.65522 0.08533 0.2801 0.0
C1756 C 0.63198 0.10383 0.30274 0.0
C1757 C 0.64348 0.05755 0.25271 0.0
C1758 C 0.59691 0.09536 0.29565 0.0
C1759 C 0.58517 0.06817 0.26862 0.0
H1760 H 0.66482 0.82062 0.04407 0.0
H1761 H 0.67239 0.93367 1.00729 0.0
H1762 H 0.71315 0.91685 0.96003 0.0
H1763 H 0.75064 0.87168 0.93255 0.0
H1764 H 0.75394 0.76288 0.98003 0.0
H1765 H 0.70664 0.77653 0.02039 0.0
C1766 C 0.67607 0.84179 0.02649 0.0
C1767 C 0.66527 0.87846 0.02918 0.0
C1768 C 0.70207 0.83269 1.00145 0.0
C1769 C 0.68013 0.90527 1.00579 0.0
C1770 C 0.70329 0.8956 0.97848 0.0
C1771 C 0.74123 0.8509 0.9518 0.0
C1772 C 0.7564 0.81636 0.95311 0.0
C1773 C 0.7151 0.8596 0.97656 0.0
C1774 C 0.74316 0.78981 0.97813 0.0
C1775 C 0.71599 0.79761 1.00145 0.0
H1776 H 0.99243 0.81387 0.83125 0.0
H1777 H 1.00241 0.85196 0.94761 0.0
H1778 H 0.04752 0.80978 0.95893 0.0
H1779 H 0.0856 0.76174 0.93675 0.0
H1780 H 0.07325 0.71837 0.82275 0.0
H1781 H 0.02926 0.76259 0.80973 0.0
C1782 C 0.00442 0.81299 0.85907 0.0
C1783 C 0.99313 0.8365 0.88849 0.0
C1784 C 0.03074 0.78761 0.86596 0.0
C1785 C 0.0097 0.83449 0.92422 0.0
C1786 C 0.03587 0.81017 0.93089 0.0
C1787 C 0.07258 0.76108 0.90935 0.0
C1788 C 0.08241 0.73545 0.88126 0.0
C1789 C 0.04649 0.78625 0.90223 0.0
C1790 C 0.06567 0.73641 0.84556 0.0
C1791 C 0.04087 0.76248 0.8378 0.0
H1792 H 0.50486 0.74624 0.04485 0.0
H1793 H 0.50562 0.67885 0.14393 0.0
H1794 H 0.55878 0.70944 0.16595 0.0
H1795 H 0.60168 0.75793 0.16141 0.0
H1796 H 0.60743 0.82449 0.06265 0.0
H1797 H 0.55533 0.79206 0.03646 0.0
C1798 C 0.51693 0.73815 0.07101 0.0
C1799 C 0.50041 0.71097 0.09328 0.0
C1800 C 0.54835 0.75616 0.08403 0.0
C1801 C 0.51692 0.70033 0.12669 0.0
C1802 C 0.54759 0.71771 0.13936 0.0
C1803 C 0.592 0.76602 0.13406 0.0
C1804 C 0.60819 0.79585 0.11514 0.0
C1805 C 0.56288 0.74639 0.11898 0.0
C1806 C 0.59517 0.80349 0.07897 0.0
C1807 C 0.56535 0.78434 0.06376 0.0
H1808 H 0.05397 0.34975 0.61927 0.0
H1809 H 0.05874 0.30122 0.50743 0.0
H1810 H 0.00698 0.26259 0.51759 0.0
H1811 H 0.95788 0.24295 0.55857 0.0
H1812 H 0.96185 0.28582 0.67348 0.0
H1813 H 0.00951 0.32702 0.66074 0.0
C1814 C 0.04422 0.33028 0.59725 0.0
C1815 C 0.06095 0.32874 0.56272 0.0
C1816 C 0.01411 0.30797 0.6031 0.0
C1817 C 0.04704 0.3032 0.53463 0.0
C1818 C 0.01691 0.28121 0.54021 0.0
C1819 C 0.96891 0.26157 0.58062 0.0
C1820 C 0.95391 0.26224 0.61651 0.0
C1821 C 0.99967 0.28354 0.57429 0.0
C1822 C 0.97039 0.28574 0.64482 0.0
C1823 C 0.99862 0.30924 0.63789 0.0
H1824 H 0.00633 0.70718 0.97725 0.0
H1825 H 0.00472 0.68482 0.85701 0.0
H1826 H 0.96427 0.73232 0.84733 0.0
H1827 H 0.9283 0.77903 0.87163 0.0
H1828 H 0.91574 0.79023 0.99118 0.0
H1829 H 0.96533 0.75247 1.00262 0.0
C1830 C 0.99753 0.71326 0.94895 0.0
C1831 C 0.00994 0.69341 0.91772 0.0
C1832 C 0.97303 0.74036 0.9434 0.0
C1833 C 0.99685 0.70042 0.88147 0.0
C1834 C 0.97352 0.72762 0.87582 0.0
C1835 C 0.93737 0.77453 0.9003 0.0
C1836 C 0.91907 0.7885 0.93042 0.0
C1837 C 0.96203 0.7483 0.90636 0.0
C1838 C 0.93011 0.78096 0.96741 0.0
C1839 C 0.95781 0.75835 0.97385 0.0
H1840 H 0.42433 0.2737 0.40295 0.0
H1841 H 0.4656 0.30075 0.29524 0.0
H1842 H 0.50752 0.25303 0.30286 0.0
H1843 H 0.53107 0.20145 0.33978 0.0
H1844 H 0.49216 0.18041 0.45034 0.0
H1845 H 0.45155 0.2284 0.44235 0.0
C1846 C 0.44318 0.27 0.38158 0.0
C1847 C 0.44222 0.29158 0.34896 0.0
C1848 C 0.46745 0.24307 0.38649 0.0
C1849 C 0.46648 0.28572 0.32129 0.0
C1850 C 0.48994 0.25773 0.32526 0.0
C1851 C 0.51385 0.20755 0.3622 0.0
C1852 C 0.51472 0.18692 0.39558 0.0
C1853 C 0.49053 0.23595 0.3577 0.0
C1854 C 0.4923 0.1956 0.42437 0.0
C1855 C 0.46879 0.22299 0.41977 0.0
H1856 H 0.95633 0.16017 0.68026 0.0
H1857 H 0.98073 0.13974 0.56441 0.0
H1858 H 0.02793 0.18745 0.57041 0.0
H1859 H 0.06331 0.23619 0.61001 0.0
H1860 H 0.03023 0.2591 0.72324 0.0
H1861 H 0.98642 0.21031 0.71644 0.0
C1862 C 0.97155 0.16617 0.65602 0.0
C1863 C 0.9642 0.14617 0.62184 0.0
C1864 C 0.99794 0.19452 0.65931 0.0
C1865 C 0.98519 0.15458 0.59116 0.0
C1866 C 0.01242 0.18202 0.59463 0.0
C1867 C 0.04628 0.23092 0.63299 0.0
C1868 C 0.0513 0.25205 0.66739 0.0
C1869 C 0.01916 0.20258 0.62869 0.0
C1870 C 0.02831 0.24383 0.69651 0.0
C1871 C 0.00279 0.21549 0.69284 0.0
H1872 H 0.4176 0.75581 0.11611 0.0
H1873 H 0.47286 0.72347 0.21573 0.0
H1874 H 0.51651 0.77232 0.20682 0.0
H1875 H 0.54233 0.8238 0.16879 0.0
H1876 H 0.48844 0.85123 0.06611 0.0
H1877 H 0.44319 0.80627 0.07829 0.0
C1878 C 0.43928 0.75908 0.13571 0.0
C1879 C 0.44144 0.73462 0.16616 0.0
C1880 C 0.46555 0.78725 0.13005 0.0
C1881 C 0.46998 0.74075 0.19145 0.0
C1882 C 0.4953 0.76922 0.1866 0.0
C1883 C 0.52062 0.82035 0.14926 0.0
C1884 C 0.51991 0.84213 0.11652 0.0
C1885 C 0.49389 0.7926 0.15566 0.0
C1886 C 0.49091 0.83591 0.09179 0.0
C1887 C 0.46438 0.80965 0.09855 0.0
H1888 H 0.66881 0.45943 0.73907 0.0
H1889 H 0.56352 0.44227 0.76733 0.0
H1890 H 0.54869 0.49549 0.72915 0.0
H1891 H 0.56537 0.54463 0.68366 0.0
H1892 H 0.67092 0.56028 0.65543 0.0
H1893 H 0.68606 0.5115 0.6984 0.0
C1894 C 0.64258 0.46728 0.73669 0.0
C1895 C 0.61714 0.44624 0.75526 0.0
C1896 C 0.63438 0.49832 0.71509 0.0
C1897 C 0.58345 0.45744 0.75273 0.0
C1898 C 0.57504 0.48806 0.73102 0.0
C1899 C 0.59184 0.53832 0.68799 0.0
C1900 C 0.61708 0.55716 0.66679 0.0
C1901 C 0.60024 0.50866 0.71173 0.0
C1902 C 0.65108 0.54733 0.67204 0.0
C1903 C 0.65968 0.51874 0.69608 0.0
H1904 H 0.80472 0.41642 1.00476 0.0
H1905 H 0.81591 0.30211 0.03391 0.0
H1906 H 0.76849 0.28313 0.98954 0.0
H1907 H 0.72553 0.29887 0.93956 0.0
H1908 H 0.71753 0.41355 0.90986 0.0
H1909 H 0.76294 0.43195 0.95602 0.0
C1910 C 0.79724 0.38713 1.00162 0.0
C1911 C 0.81457 0.36084 0.02334 0.0
C1912 C 0.7707 0.37633 0.97509 0.0
C1913 C 0.80349 0.32322 0.01821 0.0
C1914 C 0.7763 0.31234 0.99254 0.0
C1915 C 0.73315 0.32805 0.94365 0.0
C1916 C 0.71711 0.3548 0.92116 0.0
C1917 C 0.75979 0.33863 0.97054 0.0
C1918 C 0.72838 0.39227 0.92676 0.0
C1919 C 0.75485 0.40281 0.953 0.0
H1920 H 0.81037 0.53125 0.26619 0.0
H1921 H 0.94086 0.51474 0.32921 0.0
H1922 H 0.94743 0.45313 0.29882 0.0
H1923 H 0.9337 0.41306 0.22537 0.0
H1924 H 0.83285 0.44611 0.14885 0.0
H1925 H 0.80117 0.48545 0.20127 0.0
C1926 C 0.8327 0.51697 0.2748 0.0
C1927 C 0.86305 0.53823 0.30009 0.0
C1928 C 0.8384 0.47739 0.25617 0.0
C1929 C 0.9174 0.50553 0.31328 0.0
C1930 C 0.92275 0.46491 0.29606 0.0
C1931 C 0.90853 0.42382 0.22584 0.0
C1932 C 0.88412 0.42581 0.18218 0.0
C1933 C 0.89434 0.44572 0.26879 0.0
C1934 C 0.84494 0.44711 0.17669 0.0
C1935 C 0.82324 0.47091 0.2103 0.0
H1936 H 0.77717 0.66225 0.45159 0.0
H1937 H 0.71926 0.60019 0.36358 0.0
H1938 H 0.66949 0.59699 0.40331 0.0
H1939 H 0.64421 0.6082 0.46419 0.0
H1940 H 0.70185 0.66446 0.55473 0.0
H1941 H 0.74861 0.6787 0.51143 0.0
C1942 C 0.75368 0.64781 0.44135 0.0
C1943 C 0.75209 0.63009 0.4054 0.0
C1944 C 0.72512 0.6462 0.46433 0.0
C1945 C 0.7212 0.61308 0.39155 0.0
C1946 C 0.69275 0.6115 0.41408 0.0
C1947 C 0.66796 0.62124 0.47502 0.0
C1948 C 0.67189 0.63067 0.51351 0.0
C1949 C 0.69492 0.62685 0.45082 0.0
C1950 C 0.69971 0.65422 0.52577 0.0
C1951 C 0.72626 0.66228 0.50103 0.0
H1952 H 0.57926 0.50989 0.8502 0.0
H1953 H 0.68452 0.48298 0.85934 0.0
H1954 H 0.69909 0.52817 0.81065 0.0
H1955 H 0.68189 0.57772 0.76721 0.0
H1956 H 0.57659 0.60522 0.7602 0.0
H1957 H 0.56185 0.55736 0.8056 0.0
C1958 C 0.60542 0.51413 0.84161 0.0
C1959 C 0.63092 0.49368 0.85878 0.0
C1960 C 0.61346 0.54005 0.81358 0.0
C1961 C 0.66459 0.49887 0.84697 0.0
C1962 C 0.67284 0.52457 0.819 0.0
C1963 C 0.65561 0.57248 0.77494 0.0
C1964 C 0.63014 0.59432 0.75945 0.0
C1965 C 0.6475 0.54553 0.80218 0.0
C1966 C 0.59645 0.58824 0.77097 0.0
C1967 C 0.5881 0.56112 0.79726 0.0
H1968 H 0.76782 0.39931 0.08624 0.0
H1969 H 0.7349 0.28629 0.10806 0.0
H1970 H 0.68862 0.2887 0.06069 0.0
H1971 H 0.65592 0.32389 0.01501 0.0
H1972 H 0.68741 0.43738 0.99382 0.0
H1973 H 0.73534 0.43433 0.03911 0.0
C1974 C 0.75027 0.37545 0.08061 0.0
C1975 C 0.75436 0.34274 0.10048 0.0
C1976 C 0.72358 0.37713 0.05339 0.0
C1977 C 0.73186 0.31178 0.09305 0.0
C1978 C 0.70558 0.31309 0.06589 0.0
C1979 C 0.67411 0.34741 0.01933 0.0
C1980 C 0.669 0.38031 1.0001 0.0
C1981 C 0.7012 0.34558 0.04584 0.0
C1982 C 0.69169 0.41127 1.0072 0.0
C1983 C 0.71864 0.40978 0.03371 0.0
H1984 H 0.86234 0.49648 0.38155 0.0
H1985 H 0.91735 0.56346 0.28907 0.0
H1986 H 0.92533 0.56209 0.23905 0.0
H1987 H 0.89521 0.48979 0.19453 0.0
H1988 H 0.82041 0.39073 0.2842 0.0
H1989 H 0.83513 0.43171 0.34058 0.0
C1990 C 0.87305 0.50665 0.35579 0.0
C1991 C 0.89695 0.5501 0.35611 0.0
C1992 C 0.86575 0.47872 0.31465 0.0
C1993 C 0.91689 0.5708 0.31598 0.0
C1994 C 0.91384 0.55058 0.26692 0.0
C1995 C 0.88297 0.48026 0.22021 0.0
C1996 C 0.85004 0.42015 0.23655 0.0
C1997 C 0.89099 0.50709 0.25726 0.0
C1998 C 0.83722 0.41466 0.27895 0.0
C1999 C 0.84544 0.44056 0.31412 0.0
H2000 H 0.86117 0.65191 0.5578 0.0
H2001 H 0.80162 0.58716 0.47351 0.0
H2002 H 0.75277 0.58508 0.51427 0.0
H2003 H 0.72569 0.60143 0.57445 0.0
H2004 H 0.7842 0.66778 0.65839 0.0
H2005 H 0.8335 0.6695 0.61796 0.0
C2006 C 0.83701 0.63902 0.54756 0.0
C2007 C 0.83514 0.62102 0.51152 0.0
C2008 C 0.80842 0.63769 0.57163 0.0
C2009 C 0.80384 0.60242 0.50027 0.0
C2010 C 0.77587 0.60057 0.52401 0.0
C2011 C 0.74916 0.6164 0.58386 0.0
C2012 C 0.75057 0.6348 0.61954 0.0
C2013 C 0.77766 0.61804 0.55984 0.0
C2014 C 0.78186 0.65318 0.63128 0.0
C2015 C 0.81022 0.6546 0.60784 0.0
H2016 H 0.47214 0.66422 0.60761 0.0
H2017 H 0.5494 0.74636 0.57731 0.0
H2018 H 0.50762 0.79438 0.57829 0.0
H2019 H 0.45107 0.81483 0.5983 0.0
H2020 H 0.37348 0.73177 0.62525 0.0
H2021 H 0.41277 0.68278 0.61409 0.0
C2022 C 0.47991 0.69265 0.60135 0.0
C2023 C 0.51453 0.70196 0.59474 0.0
C2024 C 0.4555 0.72023 0.60143 0.0
C2025 C 0.52345 0.73862 0.58454 0.0
C2026 C 0.49937 0.76612 0.58456 0.0
C2027 C 0.44242 0.78604 0.60067 0.0
C2028 C 0.4093 0.7773 0.61339 0.0
C2029 C 0.46559 0.75765 0.5947 0.0
C2030 C 0.39863 0.73949 0.61527 0.0
C2031 C 0.42139 0.71135 0.60966 0.0
H2032 H 0.32895 0.57475 0.26315 0.0
H2033 H 0.43851 0.58312 0.26346 0.0
H2034 H 0.44091 0.53057 0.30592 0.0
H2035 H 0.4118 0.48533 0.34782 0.0
H2036 H 0.30277 0.48704 0.35645 0.0
H2037 H 0.30007 0.53017 0.30517 0.0
C2038 C 0.35331 0.5641 0.27136 0.0
C2039 C 0.38352 0.58192 0.25851 0.0
C2040 C 0.35449 0.53494 0.29753 0.0
C2041 C 0.41487 0.56918 0.27161 0.0
C2042 C 0.41623 0.53934 0.29638 0.0
C2043 C 0.38733 0.49406 0.33749 0.0
C2044 C 0.35727 0.48016 0.35461 0.0
C2045 C 0.38619 0.52218 0.31004 0.0
C2046 C 0.32614 0.49436 0.34244 0.0
C2047 C 0.32463 0.52013 0.31347 0.0
H2048 H 0.27245 0.6306 0.02792 0.0
H2049 H 0.2452 0.71344 0.1262 0.0
H2050 H 0.19996 0.73383 0.07056 0.0
H2051 H 0.15242 0.69517 1.00071 0.0
H2052 H 0.18849 0.57224 0.95255 0.0
H2053 H 0.2532 0.5743 0.98116 0.0
C2054 C 0.28298 0.63322 0.05519 0.0
C2055 C 0.27587 0.66209 0.09656 0.0
C2056 C 0.25918 0.63797 0.01033 0.0
C2057 C 0.24583 0.6984 0.09946 0.0
C2058 C 0.2183 0.71377 0.06305 0.0
C2059 C 0.17396 0.67847 0.99553 0.0
C2060 C 0.16598 0.63285 0.97268 0.0
C2061 C 0.21514 0.69311 0.0173 0.0
C2062 C 0.1969 0.59805 0.96698 0.0
C2063 C 0.23954 0.59949 0.98354 0.0
H2064 H 0.14916 0.50567 0.84644 0.0
H2065 H 0.04351 0.52919 0.83036 0.0
H2066 H 0.03633 0.47985 0.78158 0.0
H2067 H 0.05919 0.42496 0.74759 0.0
H2068 H 0.16718 0.41012 0.75574 0.0
H2069 H 0.17436 0.46059 0.80282 0.0
C2070 C 0.12478 0.50062 0.83161 0.0
C2071 C 0.09703 0.52154 0.842 0.0
C2072 C 0.12111 0.4731 0.80231 0.0
C2073 C 0.06556 0.51427 0.82247 0.0
C2074 C 0.06131 0.48565 0.79477 0.0
C2075 C 0.08442 0.43372 0.75862 0.0
C2076 C 0.11261 0.41344 0.74814 0.0
C2077 C 0.08876 0.4643 0.7848 0.0
C2078 C 0.14506 0.42521 0.7631 0.0
C2079 C 0.14917 0.45386 0.7905 0.0
H2080 H 0.22425 0.2901 0.56872 0.0
H2081 H 0.20492 0.39821 0.61571 0.0
H2082 H 0.25074 0.42633 0.58064 0.0
H2083 H 0.29168 0.42262 0.53235 0.0
H2084 H 0.31961 0.31658 0.48732 0.0
H2085 H 0.27597 0.28542 0.52632 0.0
C2086 C 0.23017 0.31976 0.57124 0.0
C2087 C 0.20881 0.34247 0.59276 0.0
C2088 C 0.25835 0.33618 0.55148 0.0
C2089 C 0.21863 0.3804 0.59726 0.0
C2090 C 0.24548 0.39657 0.57763 0.0
C2091 C 0.28887 0.39256 0.53067 0.0
C2092 C 0.30856 0.37243 0.50521 0.0
C2093 C 0.26456 0.37507 0.55358 0.0
C2094 C 0.30452 0.33329 0.50556 0.0
C2095 C 0.27954 0.31541 0.52818 0.0
H2096 H 0.31918 0.4627 0.22147 0.0
H2097 H 0.42734 0.46301 0.24595 0.0
H2098 H 0.43731 0.5138 0.20306 0.0
H2099 H 0.41614 0.55904 0.15783 0.0
H2100 H 0.30865 0.55787 0.13034 0.0
H2101 H 0.29782 0.5084 0.17534 0.0
C2102 C 0.3449 0.47407 0.21771 0.0
C2103 C 0.37235 0.45882 0.23788 0.0
C2104 C 0.35071 0.504 0.19255 0.0
C2105 C 0.40548 0.47399 0.23165 0.0
C2106 C 0.41134 0.50322 0.2068 0.0
C2107 C 0.39024 0.54844 0.16208 0.0
C2108 C 0.36322 0.5632 0.14096 0.0
C2109 C 0.38424 0.51878 0.18723 0.0
C2110 C 0.33001 0.54786 0.14637 0.0
C2111 C 0.32379 0.5192 0.17208 0.0
H2112 H 0.30049 0.72527 0.08706 0.0
H2113 H 0.35835 0.73377 0.99467 0.0
H2114 H 0.30795 0.73031 0.95449 0.0
H2115 H 0.26293 0.69222 0.93567 0.0
H2116 H 0.18363 0.61396 0.03223 0.0
H2117 H 0.2187 0.63882 0.0854 0.0
C2118 C 0.2994 0.71534 0.05807 0.0
C2119 C 0.33222 0.71557 0.04369 0.0
C2120 C 0.27 0.69422 0.03835 0.0
C2121 C 0.33389 0.72757 1.00708 0.0
C2122 C 0.30491 0.72353 0.98371 0.0
C2123 C 0.254 0.68595 0.9631 0.0
C2124 C 0.22258 0.65848 0.96528 0.0
C2125 C 0.27543 0.703 0.99537 0.0
C2126 C 0.20482 0.63287 0.02402 0.0
C2127 C 0.22623 0.64989 0.0581 0.0
H2128 H 0.18439 0.47581 0.68285 0.0
H2129 H 0.07705 0.49129 0.66574 0.0
H2130 H 0.07852 0.53508 0.71956 0.0
H2131 H 0.11024 0.57104 0.77124 0.0
H2132 H 0.21788 0.5579 0.78767 0.0
H2133 H 0.2163 0.51197 0.7352 0.0
C2134 C 0.16119 0.48842 0.69107 0.0
C2135 C 0.13047 0.47949 0.66982 0.0
C2136 C 0.16232 0.51462 0.72215 0.0
C2137 C 0.10102 0.49699 0.68114 0.0
C2138 C 0.10189 0.52242 0.71203 0.0
C2139 C 0.13338 0.55791 0.76367 0.0
C2140 C 0.16411 0.56778 0.78442 0.0
C2141 C 0.13236 0.53174 0.73272 0.0
C2142 C 0.19378 0.55082 0.77302 0.0
C2143 C 0.19286 0.52447 0.74272 0.0
H2144 H 0.22024 0.43846 0.46964 0.0
H2145 H 0.19391 0.3247 0.49499 0.0
H2146 H 0.23775 0.30385 0.45279 0.0
H2147 H 0.28491 0.31793 0.41071 0.0
H2148 H 0.30098 0.42857 0.37169 0.0
H2149 H 0.26175 0.45163 0.41876 0.0
C2150 C 0.22513 0.40921 0.46707 0.0
C2151 C 0.20578 0.3833 0.48827 0.0
C2152 C 0.24925 0.39729 0.44092 0.0
C2153 C 0.21013 0.34532 0.48149 0.0
C2154 C 0.23467 0.33339 0.45659 0.0
C2155 C 0.28036 0.34731 0.41246 0.0
C2156 C 0.29939 0.37273 0.39017 0.0
C2157 C 0.25483 0.35914 0.43666 0.0
C2158 C 0.29056 0.40982 0.39174 0.0
C2159 C 0.26693 0.4224 0.41772 0.0
H2160 H 0.48264 0.34514 0.39387 0.0
H2161 H 0.4655 0.32124 0.51017 0.0
H2162 H 0.51707 0.2852 0.51248 0.0
H2163 H 0.56823 0.26005 0.48021 0.0
H2164 H 0.57673 0.27647 0.36078 0.0
H2165 H 0.52961 0.31747 0.36155 0.0
C2166 C 0.48973 0.33146 0.41959 0.0
C2167 C 0.46926 0.3348 0.45131 0.0
C2168 C 0.5188 0.30994 0.42034 0.0
C2169 C 0.48008 0.31833 0.4849 0.0
C2170 C 0.50969 0.29768 0.48622 0.0
C2171 C 0.55896 0.27156 0.45417 0.0
C2172 C 0.57662 0.26546 0.42045 0.0
C2173 C 0.52921 0.29278 0.45388 0.0
C2174 C 0.56392 0.28067 0.38711 0.0
C2175 C 0.53693 0.30435 0.38749 0.0
loop_
_geom_bond_atom_site_label_1
_geom_bond_atom_site_label_2
_geom_bond_distance
_geom_bond_site_symmetry_2
_ccdc_geom_bond_type
Mn0 O5 2.095 . S
Mn0 O15 2.162 . S
Mn0 O16 2.297 . S
Mn0 O24 2.385 . S
Mn0 O25 2.209 . S
Mn0 O26 2.094 . S
Mn1 O6 2.121 . S
Mn1 N8 2.257 1_545 S
Mn1 N17 2.282 . S
Mn1 O25 2.215 . S
Mn1 O27 2.117 . S
C2 O24 1.234 . S
C2 O25 1.283 . S
C3 O15 1.281 . S
C3 O16 1.236 . S
C4 O26 1.240 . S
C4 O27 1.264 . S
O5 Mn0 2.095 . S
O5 C14 1.250 . S
O6 Mn1 2.121 . S
O6 C14 1.258 . S
C7 N8 1.326 . S
C7 C11 1.460 . S
C7 H13 0.929 . S
N8 Mn1 2.257 1_565 S
N8 C7 1.326 . S
N8 C12 1.362 . S
C9 C10 1.258 . S
C9 C12 1.431 . S
C9 C29 1.449 1_554 S
C10 C9 1.258 . S
C10 C11 1.477 . S
C10 H30 0.931 . S
C11 C7 1.460 . S
C11 C10 1.477 . S
C11 H31 0.930 . S
C12 N8 1.362 . S
C12 C9 1.431 . S
C12 C22 1.476 . S
H13 C7 0.929 . S
C14 O5 1.250 . S
C14 O6 1.258 . S
O15 Mn0 2.162 . S
O15 C3 1.281 . S
O16 Mn0 2.297 . S
O16 C3 1.236 . S
N17 Mn1 2.282 . S
N17 C18 1.328 1_554 S
N17 C22 1.318 1_545 S
C18 N17 1.328 1_556 S
C18 C19 1.457 . S
C18 H23 0.929 . S
C19 C18 1.457 . S
C19 C20 1.291 1_545 S
C19 H32 0.931 . S
C20 C19 1.291 1_565 S
C20 C21 1.373 . S
C20 H33 0.929 . S
C21 C20 1.373 . S
C21 C22 1.396 1_556 S
C21 C28 1.403 . S
C22 C12 1.476 . S
C22 N17 1.318 1_565 S
C22 C21 1.396 1_554 S
H23 C18 0.929 . S
O24 Mn0 2.385 . S
O24 C2 1.234 . S
O25 Mn0 2.209 . S
O25 Mn1 2.215 . S
O25 C2 1.283 . S
O26 Mn0 2.094 . S
O26 C4 1.240 . S
O27 Mn1 2.117 . S
O27 C4 1.264 . S
C28 C21 1.403 . S
C28 C29 1.399 . S
C28 H34 0.929 . S
C29 C9 1.449 1_556 S
C29 C28 1.399 . S
C29 H35 0.930 . S
H30 C10 0.931 . S
H31 C11 0.930 . S
H32 C19 0.931 . S
H33 C20 0.929 . S
H34 C28 0.929 . S
H35 C29 0.930 . S
Mn36 O41 2.095 . S
Mn36 O51 2.162 . S
Mn36 O52 2.297 . S
Mn36 O60 2.385 . S
Mn36 O61 2.209 . S
Mn36 O62 2.094 . S
Mn37 O42 2.121 . S
Mn37 N44 2.257 . S
Mn37 N53 2.282 . S
Mn37 O61 2.215 . S
Mn37 O63 2.117 . S
C38 O60 1.234 . S
C38 O61 1.283 . S
C39 O51 1.281 . S
C39 O52 1.236 . S
C40 O62 1.240 . S
C40 O63 1.264 . S
O41 Mn36 2.095 . S
O41 C50 1.250 . S
O42 Mn37 2.121 . S
O42 C50 1.258 . S
C43 N44 1.326 . S
C43 C47 1.460 . S
C43 H49 0.929 . S
N44 Mn37 2.257 . S
N44 C43 1.326 . S
N44 C48 1.362 . S
C45 C46 1.258 . S
C45 C48 1.431 . S
C45 C65 1.449 . S
C46 C45 1.258 . S
C46 C47 1.477 . S
C46 H66 0.931 . S
C47 C43 1.460 . S
C47 C46 1.477 . S
C47 H67 0.930 . S
C48 N44 1.362 . S
C48 C45 1.431 . S
C48 C58 1.476 . S
H49 C43 0.929 . S
C50 O41 1.250 . S
C50 O42 1.258 . S
O51 Mn36 2.162 . S
O51 C39 1.281 . S
O52 Mn36 2.297 . S
O52 C39 1.236 . S
N53 Mn37 2.282 . S
N53 C54 1.328 . S
N53 C58 1.318 . S
C54 N53 1.328 . S
C54 C55 1.457 . S
C54 H59 0.929 . S
C55 C54 1.457 . S
C55 C56 1.291 . S
C55 H68 0.931 . S
C56 C55 1.291 . S
C56 C57 1.373 . S
C56 H69 0.929 . S
C57 C56 1.373 . S
C57 C58 1.396 . S
C57 C64 1.403 . S
C58 C48 1.476 . S
C58 N53 1.318 . S
C58 C57 1.396 . S
H59 C54 0.929 . S
O60 Mn36 2.385 . S
O60 C38 1.234 . S
O61 Mn36 2.209 . S
O61 Mn37 2.215 . S
O61 C38 1.283 . S
O62 Mn36 2.094 . S
O62 C40 1.240 . S
O63 Mn37 2.117 . S
O63 C40 1.264 . S
C64 C57 1.403 . S
C64 C65 1.399 . S
C64 H70 0.929 . S
C65 C45 1.449 . S
C65 C64 1.399 . S
C65 H71 0.930 . S
H66 C46 0.931 . S
H67 C47 0.930 . S
H68 C55 0.931 . S
H69 C56 0.929 . S
H70 C64 0.929 . S
H71 C65 0.930 . S
Mn72 O77 2.095 . S
Mn72 O87 2.162 . S
Mn72 O88 2.297 . S
Mn72 O96 2.385 . S
Mn72 O97 2.209 . S
Mn72 O98 2.094 . S
Mn73 O78 2.121 . S
Mn73 N80 2.257 1_565 S
Mn73 N89 2.282 . S
Mn73 O97 2.215 . S
Mn73 O99 2.117 . S
C74 O96 1.234 . S
C74 O97 1.283 . S
C75 O87 1.281 . S
C75 O88 1.236 . S
C76 O98 1.240 . S
C76 O99 1.264 . S
O77 Mn72 2.095 . S
O77 C86 1.250 . S
O78 Mn73 2.121 . S
O78 C86 1.258 . S
C79 N80 1.326 . S
C79 C83 1.460 . S
C79 H85 0.929 . S
N80 Mn73 2.257 1_545 S
N80 C79 1.326 . S
N80 C84 1.362 . S
C81 C82 1.258 . S
C81 C84 1.431 . S
C81 C101 1.449 . S
C82 C81 1.258 . S
C82 C83 1.477 . S
C82 H102 0.931 . S
C83 C79 1.460 . S
C83 C82 1.477 . S
C83 H103 0.930 . S
C84 N80 1.362 . S
C84 C81 1.431 . S
C84 C94 1.476 . S
H85 C79 0.929 . S
C86 O77 1.250 . S
C86 O78 1.258 . S
O87 Mn72 2.162 . S
O87 C75 1.281 . S
O88 Mn72 2.297 . S
O88 C75 1.236 . S
N89 Mn73 2.282 . S
N89 C90 1.328 . S
N89 C94 1.318 1_565 S
C90 N89 1.328 . S
C90 C91 1.457 . S
C90 H95 0.929 . S
C91 C90 1.457 . S
C91 C92 1.291 . S
C91 H104 0.931 . S
C92 C91 1.291 . S
C92 C93 1.373 1_565 S
C92 H105 0.929 1_565 S
C93 C92 1.373 1_545 S
C93 C94 1.396 . S
C93 C100 1.403 . S
C94 C84 1.476 . S
C94 N89 1.318 1_545 S
C94 C93 1.396 . S
H95 C90 0.929 . S
O96 Mn72 2.385 . S
O96 C74 1.234 . S
O97 Mn72 2.209 . S
O97 Mn73 2.215 . S
O97 C74 1.283 . S
O98 Mn72 2.094 . S
O98 C76 1.240 . S
O99 Mn73 2.117 . S
O99 C76 1.264 . S
C100 C93 1.403 . S
C100 C101 1.399 . S
C100 H106 0.929 . S
C101 C81 1.449 . S
C101 C100 1.399 . S
C101 H107 0.930 . S
H102 C82 0.931 . S
H103 C83 0.930 . S
H104 C91 0.931 . S
H105 C92 0.929 1_545 S
H106 C100 0.929 . S
H107 C101 0.930 . S
Mn108 O113 2.095 . S
Mn108 O123 2.162 . S
Mn108 O124 2.297 . S
Mn108 O132 2.385 . S
Mn108 O133 2.209 . S
Mn108 O134 2.094 . S
Mn109 O114 2.121 . S
Mn109 N116 2.257 . S
Mn109 N125 2.282 . S
Mn109 O133 2.215 . S
Mn109 O135 2.117 . S
C110 O132 1.234 . S
C110 O133 1.283 . S
C111 O123 1.281 . S
C111 O124 1.236 . S
C112 O134 1.240 . S
C112 O135 1.264 . S
O113 Mn108 2.095 . S
O113 C122 1.250 . S
O114 Mn109 2.121 . S
O114 C122 1.258 . S
C115 N116 1.326 . S
C115 C119 1.460 . S
C115 H121 0.929 . S
N116 Mn109 2.257 . S
N116 C115 1.326 . S
N116 C120 1.362 . S
C117 C118 1.258 . S
C117 C120 1.431 . S
C117 C137 1.449 . S
C118 C117 1.258 . S
C118 C119 1.477 . S
C118 H138 0.931 . S
C119 C115 1.460 . S
C119 C118 1.477 . S
C119 H139 0.930 . S
C120 N116 1.362 . S
C120 C117 1.431 . S
C120 C130 1.476 . S
H121 C115 0.929 . S
C122 O113 1.250 . S
C122 O114 1.258 . S
O123 Mn108 2.162 . S
O123 C111 1.281 . S
O124 Mn108 2.297 . S
O124 C111 1.236 . S
N125 Mn109 2.282 . S
N125 C126 1.328 . S
N125 C130 1.318 . S
C126 N125 1.328 . S
C126 C127 1.457 . S
C126 H131 0.929 . S
C127 C126 1.457 . S
C127 C128 1.291 . S
C127 H140 0.931 . S
C128 C127 1.291 . S
C128 C129 1.373 . S
C128 H141 0.929 . S
C129 C128 1.373 . S
C129 C130 1.396 . S
C129 C136 1.403 . S
C130 C120 1.476 . S
C130 N125 1.318 . S
C130 C129 1.396 . S
H131 C126 0.929 . S
O132 Mn108 2.385 . S
O132 C110 1.234 . S
O133 Mn108 2.209 . S
O133 Mn109 2.215 . S
O133 C110 1.283 . S
O134 Mn108 2.094 . S
O134 C112 1.240 . S
O135 Mn109 2.117 . S
O135 C112 1.264 . S
C136 C129 1.403 . S
C136 C137 1.399 . S
C136 H142 0.929 . S
C137 C117 1.449 . S
C137 C136 1.399 . S
C137 H143 0.930 . S
H138 C118 0.931 . S
H139 C119 0.930 . S
H140 C127 0.931 . S
H141 C128 0.929 . S
H142 C136 0.929 . S
H143 C137 0.930 . S
Mn144 O149 2.095 . S
Mn144 O159 2.162 . S
Mn144 O160 2.297 . S
Mn144 O168 2.385 . S
Mn144 O169 2.209 . S
Mn144 O170 2.094 . S
Mn145 O150 2.121 . S
Mn145 N152 2.257 . S
Mn145 N161 2.282 . S
Mn145 O169 2.215 . S
Mn145 O171 2.117 . S
C146 O168 1.234 . S
C146 O169 1.283 . S
C147 O159 1.281 . S
C147 O160 1.236 . S
C148 O170 1.240 . S
C148 O171 1.264 . S
O149 Mn144 2.095 . S
O149 C158 1.250 . S
O150 Mn145 2.121 . S
O150 C158 1.258 . S
C151 N152 1.326 . S
C151 C155 1.460 . S
C151 H157 0.929 . S
N152 Mn145 2.257 . S
N152 C151 1.326 . S
N152 C156 1.362 . S
C153 C154 1.258 . S
C153 C156 1.431 . S
C153 C173 1.449 . S
C154 C153 1.258 . S
C154 C155 1.477 . S
C154 H174 0.931 . S
C155 C151 1.460 . S
C155 C154 1.477 . S
C155 H175 0.930 . S
C156 N152 1.362 . S
C156 C153 1.431 . S
C156 C166 1.476 . S
H157 C151 0.929 . S
C158 O149 1.250 . S
C158 O150 1.258 . S
O159 Mn144 2.162 . S
O159 C147 1.281 . S
O160 Mn144 2.297 . S
O160 C147 1.236 . S
N161 Mn145 2.282 . S
N161 C162 1.328 1_455 S
N161 C166 1.318 . S
C162 N161 1.328 1_655 S
C162 C163 1.457 . S
C162 H167 0.929 . S
C163 C162 1.457 . S
C163 C164 1.291 . S
C163 H176 0.931 . S
C164 C163 1.291 . S
C164 C165 1.373 . S
C164 H177 0.929 . S
C165 C164 1.373 . S
C165 C166 1.396 1_655 S
C165 C172 1.403 . S
C166 C156 1.476 . S
C166 N161 1.318 . S
C166 C165 1.396 1_455 S
H167 C162 0.929 . S
O168 Mn144 2.385 . S
O168 C146 1.234 . S
O169 Mn144 2.209 . S
O169 Mn145 2.215 . S
O169 C146 1.283 . S
O170 Mn144 2.094 . S
O170 C148 1.240 . S
O171 Mn145 2.117 . S
O171 C148 1.264 . S
C172 C165 1.403 . S
C172 C173 1.399 1_655 S
C172 H178 0.929 . S
C173 C153 1.449 . S
C173 C172 1.399 1_455 S
C173 H179 0.930 1_455 S
H174 C154 0.931 . S
H175 C155 0.930 . S
H176 C163 0.931 . S
H177 C164 0.929 . S
H178 C172 0.929 . S
H179 C173 0.930 1_655 S
Mn180 O185 2.095 . S
Mn180 O195 2.162 . S
Mn180 O196 2.297 . S
Mn180 O204 2.385 . S
Mn180 O205 2.209 . S
Mn180 O206 2.094 . S
Mn181 O186 2.121 . S
Mn181 N188 2.257 . S
Mn181 N197 2.282 . S
Mn181 O205 2.215 . S
Mn181 O207 2.117 . S
C182 O204 1.234 . S
C182 O205 1.283 . S
C183 O195 1.281 . S
C183 O196 1.236 . S
C184 O206 1.240 . S
C184 O207 1.264 . S
O185 Mn180 2.095 . S
O185 C194 1.250 . S
O186 Mn181 2.121 . S
O186 C194 1.258 . S
C187 N188 1.326 . S
C187 C191 1.460 . S
C187 H193 0.929 . S
N188 Mn181 2.257 . S
N188 C187 1.326 . S
N188 C192 1.362 . S
C189 C190 1.258 . S
C189 C192 1.431 . S
C189 C209 1.449 . S
C190 C189 1.258 . S
C190 C191 1.477 . S
C190 H210 0.931 . S
C191 C187 1.460 . S
C191 C190 1.477 . S
C191 H211 0.930 . S
C192 N188 1.362 . S
C192 C189 1.431 . S
C192 C202 1.476 . S
H193 C187 0.929 . S
C194 O185 1.250 . S
C194 O186 1.258 . S
O195 Mn180 2.162 . S
O195 C183 1.281 . S
O196 Mn180 2.297 . S
O196 C183 1.236 . S
N197 Mn181 2.282 . S
N197 C198 1.328 . S
N197 C202 1.318 . S
C198 N197 1.328 . S
C198 C199 1.457 . S
C198 H203 0.929 . S
C199 C198 1.457 . S
C199 C200 1.291 . S
C199 H212 0.931 . S
C200 C199 1.291 . S
C200 C201 1.373 . S
C200 H213 0.929 . S
C201 C200 1.373 . S
C201 C202 1.396 . S
C201 C208 1.403 . S
C202 C192 1.476 . S
C202 N197 1.318 . S
C202 C201 1.396 . S
H203 C198 0.929 . S
O204 Mn180 2.385 . S
O204 C182 1.234 . S
O205 Mn180 2.209 . S
O205 Mn181 2.215 . S
O205 C182 1.283 . S
O206 Mn180 2.094 . S
O206 C184 1.240 . S
O207 Mn181 2.117 . S
O207 C184 1.264 . S
C208 C201 1.403 . S
C208 C209 1.399 . S
C208 H214 0.929 . S
C209 C189 1.449 . S
C209 C208 1.399 . S
C209 H215 0.930 . S
H210 C190 0.931 . S
H211 C191 0.930 . S
H212 C199 0.931 . S
H213 C200 0.929 . S
H214 C208 0.929 . S
H215 C209 0.930 . S
Mn216 O221 2.095 . S
Mn216 O231 2.162 . S
Mn216 O232 2.297 . S
Mn216 O240 2.385 . S
Mn216 O241 2.209 . S
Mn216 O242 2.094 . S
Mn217 O222 2.121 . S
Mn217 N224 2.257 1_545 S
Mn217 N233 2.282 . S
Mn217 O241 2.215 . S
Mn217 O243 2.117 . S
C218 O240 1.234 . S
C218 O241 1.283 . S
C219 O231 1.281 . S
C219 O232 1.236 . S
C220 O242 1.240 . S
C220 O243 1.264 . S
O221 Mn216 2.095 . S
O221 C230 1.250 . S
O222 Mn217 2.121 . S
O222 C230 1.258 . S
C223 N224 1.326 . S
C223 C227 1.460 . S
C223 H229 0.929 . S
N224 Mn217 2.257 1_565 S
N224 C223 1.326 . S
N224 C228 1.362 . S
C225 C226 1.258 . S
C225 C228 1.431 . S
C225 C245 1.449 . S
C226 C225 1.258 . S
C226 C227 1.477 . S
C226 H246 0.931 . S
C227 C223 1.460 . S
C227 C226 1.477 . S
C227 H247 0.930 . S
C228 N224 1.362 . S
C228 C225 1.431 . S
C228 C238 1.476 . S
H229 C223 0.929 . S
C230 O221 1.250 . S
C230 O222 1.258 . S
O231 Mn216 2.162 . S
O231 C219 1.281 . S
O232 Mn216 2.297 . S
O232 C219 1.236 . S
N233 Mn217 2.282 . S
N233 C234 1.328 1_556 S
N233 C238 1.318 1_545 S
C234 N233 1.328 1_554 S
C234 C235 1.457 . S
C234 H239 0.929 . S
C235 C234 1.457 . S
C235 C236 1.291 1_545 S
C235 H248 0.931 . S
C236 C235 1.291 1_565 S
C236 C237 1.373 . S
C236 H249 0.929 . S
C237 C236 1.373 . S
C237 C238 1.396 1_554 S
C237 C244 1.403 . S
C238 C228 1.476 . S
C238 N233 1.318 1_565 S
C238 C237 1.396 1_556 S
H239 C234 0.929 . S
O240 Mn216 2.385 . S
O240 C218 1.234 . S
O241 Mn216 2.209 . S
O241 Mn217 2.215 . S
O241 C218 1.283 . S
O242 Mn216 2.094 . S
O242 C220 1.240 . S
O243 Mn217 2.117 . S
O243 C220 1.264 . S
C244 C237 1.403 . S
C244 C245 1.399 1_554 S
C244 H250 0.929 . S
C245 C225 1.449 . S
C245 C244 1.399 1_556 S
C245 H251 0.930 . S
H246 C226 0.931 . S
H247 C227 0.930 . S
H248 C235 0.931 . S
H249 C236 0.929 . S
H250 C244 0.929 . S
H251 C245 0.930 . S
Mn252 O257 2.095 . S
Mn252 O267 2.162 . S
Mn252 O268 2.297 . S
Mn252 O276 2.385 . S
Mn252 O277 2.209 . S
Mn252 O278 2.094 . S
Mn253 O258 2.121 . S
Mn253 N260 2.257 . S
Mn253 N269 2.282 . S
Mn253 O277 2.215 . S
Mn253 O279 2.117 . S
C254 O276 1.234 . S
C254 O277 1.283 . S
C255 O267 1.281 . S
C255 O268 1.236 . S
C256 O278 1.240 . S
C256 O279 1.264 . S
O257 Mn252 2.095 . S
O257 C266 1.250 . S
O258 Mn253 2.121 . S
O258 C266 1.258 . S
C259 N260 1.326 . S
C259 C263 1.460 . S
C259 H265 0.929 . S
N260 Mn253 2.257 . S
N260 C259 1.326 . S
N260 C264 1.362 . S
C261 C262 1.258 . S
C261 C264 1.431 . S
C261 C281 1.449 . S
C262 C261 1.258 . S
C262 C263 1.477 . S
C262 H282 0.931 . S
C263 C259 1.460 . S
C263 C262 1.477 . S
C263 H283 0.930 . S
C264 N260 1.362 . S
C264 C261 1.431 . S
C264 C274 1.476 . S
H265 C259 0.929 . S
C266 O257 1.250 . S
C266 O258 1.258 . S
O267 Mn252 2.162 . S
O267 C255 1.281 . S
O268 Mn252 2.297 . S
O268 C255 1.236 . S
N269 Mn253 2.282 . S
N269 C270 1.328 . S
N269 C274 1.318 . S
C270 N269 1.328 . S
C270 C271 1.457 . S
C270 H275 0.929 . S
C271 C270 1.457 . S
C271 C272 1.291 . S
C271 H284 0.931 . S
C272 C271 1.291 . S
C272 C273 1.373 . S
C272 H285 0.929 . S
C273 C272 1.373 . S
C273 C274 1.396 . S
C273 C280 1.403 . S
C274 C264 1.476 . S
C274 N269 1.318 . S
C274 C273 1.396 . S
H275 C270 0.929 . S
O276 Mn252 2.385 . S
O276 C254 1.234 . S
O277 Mn252 2.209 . S
O277 Mn253 2.215 . S
O277 C254 1.283 . S
O278 Mn252 2.094 . S
O278 C256 1.240 . S
O279 Mn253 2.117 . S
O279 C256 1.264 . S
C280 C273 1.403 . S
C280 C281 1.399 . S
C280 H286 0.929 . S
C281 C261 1.449 . S
C281 C280 1.399 . S
C281 H287 0.930 . S
H282 C262 0.931 . S
H283 C263 0.930 . S
H284 C271 0.931 . S
H285 C272 0.929 . S
H286 C280 0.929 . S
H287 C281 0.930 . S
Mn288 O293 2.095 . S
Mn288 O303 2.162 . S
Mn288 O304 2.297 . S
Mn288 O312 2.385 . S
Mn288 O313 2.209 . S
Mn288 O314 2.094 . S
Mn289 O294 2.121 . S
Mn289 N296 2.257 1_556 S
Mn289 N305 2.282 . S
Mn289 O313 2.215 . S
Mn289 O315 2.117 . S
C290 O312 1.234 . S
C290 O313 1.283 . S
C291 O303 1.281 . S
C291 O304 1.236 . S
C292 O314 1.240 . S
C292 O315 1.264 . S
O293 Mn288 2.095 . S
O293 C302 1.250 . S
O294 Mn289 2.121 . S
O294 C302 1.258 . S
C295 N296 1.326 . S
C295 C299 1.460 . S
C295 H301 0.929 . S
N296 Mn289 2.257 1_554 S
N296 C295 1.326 . S
N296 C300 1.362 . S
C297 C298 1.258 . S
C297 C300 1.431 . S
C297 C317 1.449 . S
C298 C297 1.258 . S
C298 C299 1.477 . S
C298 H318 0.931 . S
C299 C295 1.460 . S
C299 C298 1.477 . S
C299 H319 0.930 . S
C300 N296 1.362 . S
C300 C297 1.431 . S
C300 C310 1.476 . S
H301 C295 0.929 . S
C302 O293 1.250 . S
C302 O294 1.258 . S
O303 Mn288 2.162 . S
O303 C291 1.281 . S
O304 Mn288 2.297 . S
O304 C291 1.236 . S
N305 Mn289 2.282 . S
N305 C306 1.328 . S
N305 C310 1.318 1_556 S
C306 N305 1.328 . S
C306 C307 1.457 . S
C306 H311 0.929 . S
C307 C306 1.457 . S
C307 C308 1.291 1_556 S
C307 H320 0.931 . S
C308 C307 1.291 1_554 S
C308 C309 1.373 . S
C308 H321 0.929 . S
C309 C308 1.373 . S
C309 C310 1.396 . S
C309 C316 1.403 . S
C310 C300 1.476 . S
C310 N305 1.318 1_554 S
C310 C309 1.396 . S
H311 C306 0.929 . S
O312 Mn288 2.385 . S
O312 C290 1.234 . S
O313 Mn288 2.209 . S
O313 Mn289 2.215 . S
O313 C290 1.283 . S
O314 Mn288 2.094 . S
O314 C292 1.240 . S
O315 Mn289 2.117 . S
O315 C292 1.264 . S
C316 C309 1.403 . S
C316 C317 1.399 . S
C316 H322 0.929 . S
C317 C297 1.449 . S
C317 C316 1.399 . S
C317 H323 0.930 . S
H318 C298 0.931 . S
H319 C299 0.930 . S
H320 C307 0.931 . S
H321 C308 0.929 . S
H322 C316 0.929 . S
H323 C317 0.930 . S
Mn324 O329 2.095 . S
Mn324 O339 2.162 . S
Mn324 O340 2.297 . S
Mn324 O348 2.385 . S
Mn324 O349 2.209 . S
Mn324 O350 2.094 . S
Mn325 O330 2.121 . S
Mn325 N332 2.257 . S
Mn325 N341 2.282 . S
Mn325 O349 2.215 . S
Mn325 O351 2.117 . S
C326 O348 1.234 . S
C326 O349 1.283 . S
C327 O339 1.281 . S
C327 O340 1.236 . S
C328 O350 1.240 . S
C328 O351 1.264 . S
O329 Mn324 2.095 . S
O329 C338 1.250 . S
O330 Mn325 2.121 . S
O330 C338 1.258 . S
C331 N332 1.326 . S
C331 C335 1.460 . S
C331 H337 0.929 . S
N332 Mn325 2.257 . S
N332 C331 1.326 . S
N332 C336 1.362 . S
C333 C334 1.258 . S
C333 C336 1.431 . S
C333 C353 1.449 . S
C334 C333 1.258 . S
C334 C335 1.477 . S
C334 H354 0.931 . S
C335 C331 1.460 . S
C335 C334 1.477 . S
C335 H355 0.930 . S
C336 N332 1.362 . S
C336 C333 1.431 . S
C336 C346 1.476 . S
H337 C331 0.929 . S
C338 O329 1.250 . S
C338 O330 1.258 . S
O339 Mn324 2.162 . S
O339 C327 1.281 . S
O340 Mn324 2.297 . S
O340 C327 1.236 . S
N341 Mn325 2.282 . S
N341 C342 1.328 . S
N341 C346 1.318 . S
C342 N341 1.328 . S
C342 C343 1.457 . S
C342 H347 0.929 . S
C343 C342 1.457 . S
C343 C344 1.291 . S
C343 H356 0.931 . S
C344 C343 1.291 . S
C344 C345 1.373 . S
C344 H357 0.929 . S
C345 C344 1.373 . S
C345 C346 1.396 . S
C345 C352 1.403 . S
C346 C336 1.476 . S
C346 N341 1.318 . S
C346 C345 1.396 . S
H347 C342 0.929 . S
O348 Mn324 2.385 . S
O348 C326 1.234 . S
O349 Mn324 2.209 . S
O349 Mn325 2.215 . S
O349 C326 1.283 . S
O350 Mn324 2.094 . S
O350 C328 1.240 . S
O351 Mn325 2.117 . S
O351 C328 1.264 . S
C352 C345 1.403 . S
C352 C353 1.399 . S
C352 H358 0.929 . S
C353 C333 1.449 . S
C353 C352 1.399 . S
C353 H359 0.930 . S
H354 C334 0.931 . S
H355 C335 0.930 . S
H356 C343 0.931 . S
H357 C344 0.929 . S
H358 C352 0.929 . S
H359 C353 0.930 . S
Mn360 O365 2.095 . S
Mn360 O375 2.162 . S
Mn360 O376 2.297 . S
Mn360 O384 2.385 . S
Mn360 O385 2.209 . S
Mn360 O386 2.094 . S
Mn361 O366 2.121 . S
Mn361 N368 2.257 . S
Mn361 N377 2.282 . S
Mn361 O385 2.215 . S
Mn361 O387 2.117 . S
C362 O384 1.234 . S
C362 O385 1.283 . S
C363 O375 1.281 . S
C363 O376 1.236 . S
C364 O386 1.240 . S
C364 O387 1.264 . S
O365 Mn360 2.095 . S
O365 C374 1.250 . S
O366 Mn361 2.121 . S
O366 C374 1.258 . S
C367 N368 1.326 . S
C367 C371 1.460 . S
C367 H373 0.929 . S
N368 Mn361 2.257 . S
N368 C367 1.326 . S
N368 C372 1.362 . S
C369 C370 1.258 . S
C369 C372 1.431 . S
C369 C389 1.449 . S
C370 C369 1.258 . S
C370 C371 1.477 . S
C370 H390 0.931 . S
C371 C367 1.460 . S
C371 C370 1.477 . S
C371 H391 0.930 . S
C372 N368 1.362 . S
C372 C369 1.431 . S
C372 C382 1.476 . S
H373 C367 0.929 . S
C374 O365 1.250 . S
C374 O366 1.258 . S
O375 Mn360 2.162 . S
O375 C363 1.281 . S
O376 Mn360 2.297 . S
O376 C363 1.236 . S
N377 Mn361 2.282 . S
N377 C378 1.328 . S
N377 C382 1.318 . S
C378 N377 1.328 . S
C378 C379 1.457 . S
C378 H383 0.929 . S
C379 C378 1.457 . S
C379 C380 1.291 . S
C379 H392 0.931 . S
C380 C379 1.291 . S
C380 C381 1.373 . S
C380 H393 0.929 . S
C381 C380 1.373 . S
C381 C382 1.396 . S
C381 C388 1.403 . S
C382 C372 1.476 . S
C382 N377 1.318 . S
C382 C381 1.396 . S
H383 C378 0.929 . S
O384 Mn360 2.385 . S
O384 C362 1.234 . S
O385 Mn360 2.209 . S
O385 Mn361 2.215 . S
O385 C362 1.283 . S
O386 Mn360 2.094 . S
O386 C364 1.240 . S
O387 Mn361 2.117 . S
O387 C364 1.264 . S
C388 C381 1.403 . S
C388 C389 1.399 . S
C388 H394 0.929 . S
C389 C369 1.449 . S
C389 C388 1.399 . S
C389 H395 0.930 . S
H390 C370 0.931 . S
H391 C371 0.930 . S
H392 C379 0.931 . S
H393 C380 0.929 . S
H394 C388 0.929 . S
H395 C389 0.930 . S
Mn396 O401 2.095 . S
Mn396 O411 2.162 . S
Mn396 O412 2.297 . S
Mn396 O420 2.385 . S
Mn396 O421 2.209 . S
Mn396 O422 2.094 . S
Mn397 O402 2.121 . S
Mn397 N404 2.257 . S
Mn397 N413 2.282 . S
Mn397 O421 2.215 . S
Mn397 O423 2.117 . S
C398 O420 1.234 . S
C398 O421 1.283 . S
C399 O411 1.281 . S
C399 O412 1.236 . S
C400 O422 1.240 . S
C400 O423 1.264 . S
O401 Mn396 2.095 . S
O401 C410 1.250 . S
O402 Mn397 2.121 . S
O402 C410 1.258 . S
C403 N404 1.326 . S
C403 C407 1.460 . S
C403 H409 0.929 . S
N404 Mn397 2.257 . S
N404 C403 1.326 . S
N404 C408 1.362 . S
C405 C406 1.258 . S
C405 C408 1.431 . S
C405 C425 1.449 . S
C406 C405 1.258 . S
C406 C407 1.477 . S
C406 H426 0.931 . S
C407 C403 1.460 . S
C407 C406 1.477 . S
C407 H427 0.930 . S
C408 N404 1.362 . S
C408 C405 1.431 . S
C408 C418 1.476 . S
H409 C403 0.929 . S
C410 O401 1.250 . S
C410 O402 1.258 . S
O411 Mn396 2.162 . S
O411 C399 1.281 . S
O412 Mn396 2.297 . S
O412 C399 1.236 . S
N413 Mn397 2.282 . S
N413 C414 1.328 . S
N413 C418 1.318 . S
C414 N413 1.328 . S
C414 C415 1.457 . S
C414 H419 0.929 . S
C415 C414 1.457 . S
C415 C416 1.291 . S
C415 H428 0.931 . S
C416 C415 1.291 . S
C416 C417 1.373 . S
C416 H429 0.929 . S
C417 C416 1.373 . S
C417 C418 1.396 . S
C417 C424 1.403 . S
C418 C408 1.476 . S
C418 N413 1.318 . S
C418 C417 1.396 . S
H419 C414 0.929 . S
O420 Mn396 2.385 . S
O420 C398 1.234 . S
O421 Mn396 2.209 . S
O421 Mn397 2.215 . S
O421 C398 1.283 . S
O422 Mn396 2.094 . S
O422 C400 1.240 . S
O423 Mn397 2.117 . S
O423 C400 1.264 . S
C424 C417 1.403 . S
C424 C425 1.399 . S
C424 H430 0.929 . S
C425 C405 1.449 . S
C425 C424 1.399 . S
C425 H431 0.930 . S
H426 C406 0.931 . S
H427 C407 0.930 . S
H428 C415 0.931 . S
H429 C416 0.929 . S
H430 C424 0.929 . S
H431 C425 0.930 . S
Mn432 O437 2.095 . S
Mn432 O447 2.162 . S
Mn432 O448 2.297 . S
Mn432 O456 2.385 . S
Mn432 O457 2.209 . S
Mn432 O458 2.094 . S
Mn433 O438 2.121 . S
Mn433 N440 2.257 . S
Mn433 N449 2.282 . S
Mn433 O457 2.215 . S
Mn433 O459 2.117 . S
C434 O456 1.234 . S
C434 O457 1.283 . S
C435 O447 1.281 . S
C435 O448 1.236 . S
C436 O458 1.240 . S
C436 O459 1.264 . S
O437 Mn432 2.095 . S
O437 C446 1.250 . S
O438 Mn433 2.121 . S
O438 C446 1.258 . S
C439 N440 1.326 . S
C439 C443 1.460 . S
C439 H445 0.929 . S
N440 Mn433 2.257 . S
N440 C439 1.326 . S
N440 C444 1.362 . S
C441 C442 1.258 . S
C441 C444 1.431 . S
C441 C461 1.449 . S
C442 C441 1.258 . S
C442 C443 1.477 . S
C442 H462 0.931 . S
C443 C439 1.460 . S
C443 C442 1.477 . S
C443 H463 0.930 . S
C444 N440 1.362 . S
C444 C441 1.431 . S
C444 C454 1.476 . S
H445 C439 0.929 . S
C446 O437 1.250 . S
C446 O438 1.258 . S
O447 Mn432 2.162 . S
O447 C435 1.281 . S
O448 Mn432 2.297 . S
O448 C435 1.236 . S
N449 Mn433 2.282 . S
N449 C450 1.328 . S
N449 C454 1.318 . S
C450 N449 1.328 . S
C450 C451 1.457 . S
C450 H455 0.929 . S
C451 C450 1.457 . S
C451 C452 1.291 . S
C451 H464 0.931 . S
C452 C451 1.291 . S
C452 C453 1.373 . S
C452 H465 0.929 . S
C453 C452 1.373 . S
C453 C454 1.396 . S
C453 C460 1.403 . S
C454 C444 1.476 . S
C454 N449 1.318 . S
C454 C453 1.396 . S
H455 C450 0.929 . S
O456 Mn432 2.385 . S
O456 C434 1.234 . S
O457 Mn432 2.209 . S
O457 Mn433 2.215 . S
O457 C434 1.283 . S
O458 Mn432 2.094 . S
O458 C436 1.240 . S
O459 Mn433 2.117 . S
O459 C436 1.264 . S
C460 C453 1.403 . S
C460 C461 1.399 . S
C460 H466 0.929 . S
C461 C441 1.449 . S
C461 C460 1.399 . S
C461 H467 0.930 . S
H462 C442 0.931 . S
H463 C443 0.930 . S
H464 C451 0.931 . S
H465 C452 0.929 . S
H466 C460 0.929 . S
H467 C461 0.930 . S
Mn468 O473 2.095 . S
Mn468 O483 2.162 . S
Mn468 O484 2.297 . S
Mn468 O492 2.385 . S
Mn468 O493 2.209 . S
Mn468 O494 2.094 . S
Mn469 O474 2.121 . S
Mn469 N476 2.257 1_556 S
Mn469 N485 2.282 1_565 S
Mn469 O493 2.215 . S
Mn469 O495 2.117 . S
C470 O492 1.234 . S
C470 O493 1.283 . S
C471 O483 1.281 . S
C471 O484 1.236 . S
C472 O494 1.240 . S
C472 O495 1.264 . S
O473 Mn468 2.095 . S
O473 C482 1.250 . S
O474 Mn469 2.121 . S
O474 C482 1.258 . S
C475 N476 1.326 . S
C475 C479 1.460 . S
C475 H481 0.929 . S
N476 Mn469 2.257 1_554 S
N476 C475 1.326 . S
N476 C480 1.362 1_565 S
C477 C478 1.258 . S
C477 C480 1.431 . S
C477 C497 1.449 . S
C478 C477 1.258 . S
C478 C479 1.477 1_545 S
C478 H498 0.931 . S
C479 C475 1.460 . S
C479 C478 1.477 1_565 S
C479 H499 0.930 . S
C480 N476 1.362 1_545 S
C480 C477 1.431 . S
C480 C490 1.476 1_554 S
H481 C475 0.929 . S
C482 O473 1.250 . S
C482 O474 1.258 . S
O483 Mn468 2.162 . S
O483 C471 1.281 . S
O484 Mn468 2.297 . S
O484 C471 1.236 . S
N485 Mn469 2.282 1_545 S
N485 C486 1.328 . S
N485 C490 1.318 . S
C486 N485 1.328 . S
C486 C487 1.457 . S
C486 H491 0.929 . S
C487 C486 1.457 . S
C487 C488 1.291 . S
C487 H500 0.931 . S
C488 C487 1.291 . S
C488 C489 1.373 . S
C488 H501 0.929 . S
C489 C488 1.373 . S
C489 C490 1.396 . S
C489 C496 1.403 1_556 S
C490 C480 1.476 1_556 S
C490 N485 1.318 . S
C490 C489 1.396 . S
H491 C486 0.929 . S
O492 Mn468 2.385 . S
O492 C470 1.234 . S
O493 Mn468 2.209 . S
O493 Mn469 2.215 . S
O493 C470 1.283 . S
O494 Mn468 2.094 . S
O494 C472 1.240 . S
O495 Mn469 2.117 . S
O495 C472 1.264 . S
C496 C489 1.403 1_554 S
C496 C497 1.399 . S
C496 H502 0.929 . S
C497 C477 1.449 . S
C497 C496 1.399 . S
C497 H503 0.930 . S
H498 C478 0.931 . S
H499 C479 0.930 . S
H500 C487 0.931 . S
H501 C488 0.929 . S
H502 C496 0.929 . S
H503 C497 0.930 . S
Mn504 O509 2.095 . S
Mn504 O519 2.162 . S
Mn504 O520 2.297 . S
Mn504 O528 2.385 . S
Mn504 O529 2.209 . S
Mn504 O530 2.094 . S
Mn505 O510 2.121 . S
Mn505 N512 2.257 . S
Mn505 N521 2.282 . S
Mn505 O529 2.215 . S
Mn505 O531 2.117 . S
C506 O528 1.234 . S
C506 O529 1.283 . S
C507 O519 1.281 . S
C507 O520 1.236 . S
C508 O530 1.240 . S
C508 O531 1.264 . S
O509 Mn504 2.095 . S
O509 C518 1.250 . S
O510 Mn505 2.121 . S
O510 C518 1.258 . S
C511 N512 1.326 . S
C511 C515 1.460 . S
C511 H517 0.929 . S
N512 Mn505 2.257 . S
N512 C511 1.326 . S
N512 C516 1.362 . S
C513 C514 1.258 . S
C513 C516 1.431 . S
C513 C533 1.449 . S
C514 C513 1.258 . S
C514 C515 1.477 . S
C514 H534 0.931 . S
C515 C511 1.460 . S
C515 C514 1.477 . S
C515 H535 0.930 . S
C516 N512 1.362 . S
C516 C513 1.431 . S
C516 C526 1.476 . S
H517 C511 0.929 . S
C518 O509 1.250 . S
C518 O510 1.258 . S
O519 Mn504 2.162 . S
O519 C507 1.281 . S
O520 Mn504 2.297 . S
O520 C507 1.236 . S
N521 Mn505 2.282 . S
N521 C522 1.328 . S
N521 C526 1.318 . S
C522 N521 1.328 . S
C522 C523 1.457 . S
C522 H527 0.929 . S
C523 C522 1.457 . S
C523 C524 1.291 . S
C523 H536 0.931 . S
C524 C523 1.291 . S
C524 C525 1.373 . S
C524 H537 0.929 . S
C525 C524 1.373 . S
C525 C526 1.396 . S
C525 C532 1.403 . S
C526 C516 1.476 . S
C526 N521 1.318 . S
C526 C525 1.396 . S
H527 C522 0.929 . S
O528 Mn504 2.385 . S
O528 C506 1.234 . S
O529 Mn504 2.209 . S
O529 Mn505 2.215 . S
O529 C506 1.283 . S
O530 Mn504 2.094 . S
O530 C508 1.240 . S
O531 Mn505 2.117 . S
O531 C508 1.264 . S
C532 C525 1.403 . S
C532 C533 1.399 . S
C532 H538 0.929 . S
C533 C513 1.449 . S
C533 C532 1.399 . S
C533 H539 0.930 . S
H534 C514 0.931 . S
H535 C515 0.930 . S
H536 C523 0.931 . S
H537 C524 0.929 . S
H538 C532 0.929 . S
H539 C533 0.930 . S
Mn540 O545 2.095 . S
Mn540 O555 2.162 . S
Mn540 O556 2.297 . S
Mn540 O564 2.385 . S
Mn540 O565 2.209 . S
Mn540 O566 2.094 . S
Mn541 O546 2.121 . S
Mn541 N548 2.257 . S
Mn541 N557 2.282 1_545 S
Mn541 O565 2.215 . S
Mn541 O567 2.117 . S
C542 O564 1.234 . S
C542 O565 1.283 . S
C543 O555 1.281 . S
C543 O556 1.236 . S
C544 O566 1.240 . S
C544 O567 1.264 . S
O545 Mn540 2.095 . S
O545 C554 1.250 . S
O546 Mn541 2.121 . S
O546 C554 1.258 . S
C547 N548 1.326 . S
C547 C551 1.460 . S
C547 H553 0.929 . S
N548 Mn541 2.257 . S
N548 C547 1.326 . S
N548 C552 1.362 1_545 S
C549 C550 1.258 . S
C549 C552 1.431 . S
C549 C569 1.449 . S
C550 C549 1.258 . S
C550 C551 1.477 1_565 S
C550 H570 0.931 . S
C551 C547 1.460 . S
C551 C550 1.477 1_545 S
C551 H571 0.930 . S
C552 N548 1.362 1_565 S
C552 C549 1.431 . S
C552 C562 1.476 . S
H553 C547 0.929 . S
C554 O545 1.250 . S
C554 O546 1.258 . S
O555 Mn540 2.162 . S
O555 C543 1.281 . S
O556 Mn540 2.297 . S
O556 C543 1.236 . S
N557 Mn541 2.282 1_565 S
N557 C558 1.328 . S
N557 C562 1.318 . S
C558 N557 1.328 . S
C558 C559 1.457 . S
C558 H563 0.929 . S
C559 C558 1.457 . S
C559 C560 1.291 . S
C559 H572 0.931 . S
C560 C559 1.291 . S
C560 C561 1.373 . S
C560 H573 0.929 . S
C561 C560 1.373 . S
C561 C562 1.396 . S
C561 C568 1.403 . S
C562 C552 1.476 . S
C562 N557 1.318 . S
C562 C561 1.396 . S
H563 C558 0.929 . S
O564 Mn540 2.385 . S
O564 C542 1.234 . S
O565 Mn540 2.209 . S
O565 Mn541 2.215 . S
O565 C542 1.283 . S
O566 Mn540 2.094 . S
O566 C544 1.240 . S
O567 Mn541 2.117 . S
O567 C544 1.264 . S
C568 C561 1.403 . S
C568 C569 1.399 . S
C568 H574 0.929 . S
C569 C549 1.449 . S
C569 C568 1.399 . S
C569 H575 0.930 . S
H570 C550 0.931 . S
H571 C551 0.930 . S
H572 C559 0.931 . S
H573 C560 0.929 . S
H574 C568 0.929 . S
H575 C569 0.930 . S
Mn576 O581 2.095 . S
Mn576 O591 2.162 . S
Mn576 O592 2.297 . S
Mn576 O600 2.385 . S
Mn576 O601 2.209 . S
Mn576 O602 2.094 . S
Mn577 O582 2.121 . S
Mn577 N584 2.257 . S
Mn577 N593 2.282 . S
Mn577 O601 2.215 . S
Mn577 O603 2.117 . S
C578 O600 1.234 . S
C578 O601 1.283 . S
C579 O591 1.281 . S
C579 O592 1.236 . S
C580 O602 1.240 . S
C580 O603 1.264 . S
O581 Mn576 2.095 . S
O581 C590 1.250 . S
O582 Mn577 2.121 . S
O582 C590 1.258 . S
C583 N584 1.326 . S
C583 C587 1.460 . S
C583 H589 0.929 . S
N584 Mn577 2.257 . S
N584 C583 1.326 . S
N584 C588 1.362 . S
C585 C586 1.258 . S
C585 C588 1.431 . S
C585 C605 1.449 . S
C586 C585 1.258 . S
C586 C587 1.477 . S
C586 H606 0.931 . S
C587 C583 1.460 . S
C587 C586 1.477 . S
C587 H607 0.930 . S
C588 N584 1.362 . S
C588 C585 1.431 . S
C588 C598 1.476 . S
H589 C583 0.929 . S
C590 O581 1.250 . S
C590 O582 1.258 . S
O591 Mn576 2.162 . S
O591 C579 1.281 . S
O592 Mn576 2.297 . S
O592 C579 1.236 . S
N593 Mn577 2.282 . S
N593 C594 1.328 . S
N593 C598 1.318 . S
C594 N593 1.328 . S
C594 C595 1.457 . S
C594 H599 0.929 . S
C595 C594 1.457 . S
C595 C596 1.291 . S
C595 H608 0.931 . S
C596 C595 1.291 . S
C596 C597 1.373 . S
C596 H609 0.929 . S
C597 C596 1.373 . S
C597 C598 1.396 . S
C597 C604 1.403 . S
C598 C588 1.476 . S
C598 N593 1.318 . S
C598 C597 1.396 . S
H599 C594 0.929 . S
O600 Mn576 2.385 . S
O600 C578 1.234 . S
O601 Mn576 2.209 . S
O601 Mn577 2.215 . S
O601 C578 1.283 . S
O602 Mn576 2.094 . S
O602 C580 1.240 . S
O603 Mn577 2.117 . S
O603 C580 1.264 . S
C604 C597 1.403 . S
C604 C605 1.399 . S
C604 H610 0.929 . S
C605 C585 1.449 . S
C605 C604 1.399 . S
C605 H611 0.930 . S
H606 C586 0.931 . S
H607 C587 0.930 . S
H608 C595 0.931 . S
H609 C596 0.929 . S
H610 C604 0.929 . S
H611 C605 0.930 . S
Mn612 O617 2.095 . S
Mn612 O627 2.162 . S
Mn612 O628 2.297 . S
Mn612 O636 2.385 . S
Mn612 O637 2.209 . S
Mn612 O638 2.094 . S
Mn613 O618 2.121 . S
Mn613 N620 2.257 . S
Mn613 N629 2.282 1_545 S
Mn613 O637 2.215 . S
Mn613 O639 2.117 . S
C614 O636 1.234 . S
C614 O637 1.283 . S
C615 O627 1.281 . S
C615 O628 1.236 . S
C616 O638 1.240 . S
C616 O639 1.264 . S
O617 Mn612 2.095 . S
O617 C626 1.250 . S
O618 Mn613 2.121 . S
O618 C626 1.258 . S
C619 N620 1.326 . S
C619 C623 1.460 . S
C619 H625 0.929 . S
N620 Mn613 2.257 . S
N620 C619 1.326 . S
N620 C624 1.362 . S
C621 C622 1.258 1_565 S
C621 C624 1.431 1_565 S
C621 C641 1.449 . S
C622 C621 1.258 1_545 S
C622 C623 1.477 . S
C622 H642 0.931 1_545 S
C623 C619 1.460 . S
C623 C622 1.477 . S
C623 H643 0.930 . S
C624 N620 1.362 . S
C624 C621 1.431 1_545 S
C624 C634 1.476 1_545 S
H625 C619 0.929 . S
C626 O617 1.250 . S
C626 O618 1.258 . S
O627 Mn612 2.162 . S
O627 C615 1.281 . S
O628 Mn612 2.297 . S
O628 C615 1.236 . S
N629 Mn613 2.282 1_565 S
N629 C630 1.328 . S
N629 C634 1.318 . S
C630 N629 1.328 . S
C630 C631 1.457 . S
C630 H635 0.929 . S
C631 C630 1.457 . S
C631 C632 1.291 . S
C631 H644 0.931 . S
C632 C631 1.291 . S
C632 C633 1.373 . S
C632 H645 0.929 . S
C633 C632 1.373 . S
C633 C634 1.396 . S
C633 C640 1.403 . S
C634 C624 1.476 1_565 S
C634 N629 1.318 . S
C634 C633 1.396 . S
H635 C630 0.929 . S
O636 Mn612 2.385 . S
O636 C614 1.234 . S
O637 Mn612 2.209 . S
O637 Mn613 2.215 . S
O637 C614 1.283 . S
O638 Mn612 2.094 . S
O638 C616 1.240 . S
O639 Mn613 2.117 . S
O639 C616 1.264 . S
C640 C633 1.403 . S
C640 C641 1.399 . S
C640 H646 0.929 . S
C641 C621 1.449 . S
C641 C640 1.399 . S
C641 H647 0.930 . S
H642 C622 0.931 1_565 S
H643 C623 0.930 . S
H644 C631 0.931 . S
H645 C632 0.929 . S
H646 C640 0.929 . S
H647 C641 0.930 . S
Mn648 O653 2.095 . S
Mn648 O663 2.162 . S
Mn648 O664 2.297 . S
Mn648 O672 2.385 . S
Mn648 O673 2.209 . S
Mn648 O674 2.094 . S
Mn649 O654 2.121 . S
Mn649 N656 2.257 . S
Mn649 N665 2.282 . S
Mn649 O673 2.215 . S
Mn649 O675 2.117 . S
C650 O672 1.234 . S
C650 O673 1.283 . S
C651 O663 1.281 . S
C651 O664 1.236 . S
C652 O674 1.240 . S
C652 O675 1.264 . S
O653 Mn648 2.095 . S
O653 C662 1.250 . S
O654 Mn649 2.121 . S
O654 C662 1.258 . S
C655 N656 1.326 . S
C655 C659 1.460 . S
C655 H661 0.929 . S
N656 Mn649 2.257 . S
N656 C655 1.326 . S
N656 C660 1.362 . S
C657 C658 1.258 . S
C657 C660 1.431 . S
C657 C677 1.449 . S
C658 C657 1.258 . S
C658 C659 1.477 . S
C658 H678 0.931 . S
C659 C655 1.460 . S
C659 C658 1.477 . S
C659 H679 0.930 . S
C660 N656 1.362 . S
C660 C657 1.431 . S
C660 C670 1.476 . S
H661 C655 0.929 . S
C662 O653 1.250 . S
C662 O654 1.258 . S
O663 Mn648 2.162 . S
O663 C651 1.281 . S
O664 Mn648 2.297 . S
O664 C651 1.236 . S
N665 Mn649 2.282 . S
N665 C666 1.328 . S
N665 C670 1.318 . S
C666 N665 1.328 . S
C666 C667 1.457 . S
C666 H671 0.929 . S
C667 C666 1.457 . S
C667 C668 1.291 . S
C667 H680 0.931 . S
C668 C667 1.291 . S
C668 C669 1.373 . S
C668 H681 0.929 . S
C669 C668 1.373 . S
C669 C670 1.396 . S
C669 C676 1.403 . S
C670 C660 1.476 . S
C670 N665 1.318 . S
C670 C669 1.396 . S
H671 C666 0.929 . S
O672 Mn648 2.385 . S
O672 C650 1.234 . S
O673 Mn648 2.209 . S
O673 Mn649 2.215 . S
O673 C650 1.283 . S
O674 Mn648 2.094 . S
O674 C652 1.240 . S
O675 Mn649 2.117 . S
O675 C652 1.264 . S
C676 C669 1.403 . S
C676 C677 1.399 . S
C676 H682 0.929 . S
C677 C657 1.449 . S
C677 C676 1.399 . S
C677 H683 0.930 . S
H678 C658 0.931 . S
H679 C659 0.930 . S
H680 C667 0.931 . S
H681 C668 0.929 . S
H682 C676 0.929 . S
H683 C677 0.930 . S
Mn684 O689 2.095 . S
Mn684 O699 2.162 . S
Mn684 O700 2.297 . S
Mn684 O708 2.385 . S
Mn684 O709 2.209 . S
Mn684 O710 2.094 . S
Mn685 O690 2.121 . S
Mn685 N692 2.257 . S
Mn685 N701 2.282 1_554 S
Mn685 O709 2.215 . S
Mn685 O711 2.117 . S
C686 O708 1.234 . S
C686 O709 1.283 . S
C687 O699 1.281 . S
C687 O700 1.236 . S
C688 O710 1.240 . S
C688 O711 1.264 . S
O689 Mn684 2.095 . S
O689 C698 1.250 . S
O690 Mn685 2.121 . S
O690 C698 1.258 . S
C691 N692 1.326 . S
C691 C695 1.460 . S
C691 H697 0.929 . S
N692 Mn685 2.257 . S
N692 C691 1.326 . S
N692 C696 1.362 1_554 S
C693 C694 1.258 . S
C693 C696 1.431 . S
C693 C713 1.449 . S
C694 C693 1.258 . S
C694 C695 1.477 1_556 S
C694 H714 0.931 . S
C695 C691 1.460 . S
C695 C694 1.477 1_554 S
C695 H715 0.930 . S
C696 N692 1.362 1_556 S
C696 C693 1.431 . S
C696 C706 1.476 . S
H697 C691 0.929 . S
C698 O689 1.250 . S
C698 O690 1.258 . S
O699 Mn684 2.162 . S
O699 C687 1.281 . S
O700 Mn684 2.297 . S
O700 C687 1.236 . S
N701 Mn685 2.282 1_556 S
N701 C702 1.328 . S
N701 C706 1.318 . S
C702 N701 1.328 . S
C702 C703 1.457 . S
C702 H707 0.929 . S
C703 C702 1.457 . S
C703 C704 1.291 . S
C703 H716 0.931 . S
C704 C703 1.291 . S
C704 C705 1.373 . S
C704 H717 0.929 . S
C705 C704 1.373 . S
C705 C706 1.396 . S
C705 C712 1.403 . S
C706 C696 1.476 . S
C706 N701 1.318 . S
C706 C705 1.396 . S
H707 C702 0.929 . S
O708 Mn684 2.385 . S
O708 C686 1.234 . S
O709 Mn684 2.209 . S
O709 Mn685 2.215 . S
O709 C686 1.283 . S
O710 Mn684 2.094 . S
O710 C688 1.240 . S
O711 Mn685 2.117 . S
O711 C688 1.264 . S
C712 C705 1.403 . S
C712 C713 1.399 . S
C712 H718 0.929 . S
C713 C693 1.449 . S
C713 C712 1.399 . S
C713 H719 0.930 . S
H714 C694 0.931 . S
H715 C695 0.930 . S
H716 C703 0.931 . S
H717 C704 0.929 . S
H718 C712 0.929 . S
H719 C713 0.930 . S
Mn720 O725 2.095 . S
Mn720 O735 2.162 . S
Mn720 O736 2.297 . S
Mn720 O744 2.385 . S
Mn720 O745 2.209 . S
Mn720 O746 2.094 . S
Mn721 O726 2.121 . S
Mn721 N728 2.257 . S
Mn721 N737 2.282 . S
Mn721 O745 2.215 . S
Mn721 O747 2.117 . S
C722 O744 1.234 . S
C722 O745 1.283 . S
C723 O735 1.281 . S
C723 O736 1.236 . S
C724 O746 1.240 . S
C724 O747 1.264 . S
O725 Mn720 2.095 . S
O725 C734 1.250 . S
O726 Mn721 2.121 . S
O726 C734 1.258 . S
C727 N728 1.326 . S
C727 C731 1.460 . S
C727 H733 0.929 . S
N728 Mn721 2.257 . S
N728 C727 1.326 . S
N728 C732 1.362 . S
C729 C730 1.258 . S
C729 C732 1.431 . S
C729 C749 1.449 . S
C730 C729 1.258 . S
C730 C731 1.477 . S
C730 H750 0.931 . S
C731 C727 1.460 . S
C731 C730 1.477 . S
C731 H751 0.930 . S
C732 N728 1.362 . S
C732 C729 1.431 . S
C732 C742 1.476 . S
H733 C727 0.929 . S
C734 O725 1.250 . S
C734 O726 1.258 . S
O735 Mn720 2.162 . S
O735 C723 1.281 . S
O736 Mn720 2.297 . S
O736 C723 1.236 . S
N737 Mn721 2.282 . S
N737 C738 1.328 . S
N737 C742 1.318 . S
C738 N737 1.328 . S
C738 C739 1.457 . S
C738 H743 0.929 . S
C739 C738 1.457 . S
C739 C740 1.291 . S
C739 H752 0.931 . S
C740 C739 1.291 . S
C740 C741 1.373 . S
C740 H753 0.929 . S
C741 C740 1.373 . S
C741 C742 1.396 . S
C741 C748 1.403 . S
C742 C732 1.476 . S
C742 N737 1.318 . S
C742 C741 1.396 . S
H743 C738 0.929 . S
O744 Mn720 2.385 . S
O744 C722 1.234 . S
O745 Mn720 2.209 . S
O745 Mn721 2.215 . S
O745 C722 1.283 . S
O746 Mn720 2.094 . S
O746 C724 1.240 . S
O747 Mn721 2.117 . S
O747 C724 1.264 . S
C748 C741 1.403 . S
C748 C749 1.399 . S
C748 H754 0.929 . S
C749 C729 1.449 . S
C749 C748 1.399 . S
C749 H755 0.930 . S
H750 C730 0.931 . S
H751 C731 0.930 . S
H752 C739 0.931 . S
H753 C740 0.929 . S
H754 C748 0.929 . S
H755 C749 0.930 . S
Mn756 O761 2.095 . S
Mn756 O771 2.162 . S
Mn756 O772 2.297 . S
Mn756 O780 2.385 . S
Mn756 O781 2.209 . S
Mn756 O782 2.094 . S
Mn757 O762 2.121 . S
Mn757 N764 2.257 1_554 S
Mn757 N773 2.282 . S
Mn757 O781 2.215 . S
Mn757 O783 2.117 . S
C758 O780 1.234 . S
C758 O781 1.283 . S
C759 O771 1.281 . S
C759 O772 1.236 . S
C760 O782 1.240 . S
C760 O783 1.264 . S
O761 Mn756 2.095 . S
O761 C770 1.250 . S
O762 Mn757 2.121 . S
O762 C770 1.258 . S
C763 N764 1.326 . S
C763 C767 1.460 . S
C763 H769 0.929 . S
N764 Mn757 2.257 1_556 S
N764 C763 1.326 . S
N764 C768 1.362 . S
C765 C766 1.258 . S
C765 C768 1.431 . S
C765 C785 1.449 . S
C766 C765 1.258 . S
C766 C767 1.477 . S
C766 H786 0.931 . S
C767 C763 1.460 . S
C767 C766 1.477 . S
C767 H787 0.930 . S
C768 N764 1.362 . S
C768 C765 1.431 . S
C768 C778 1.476 1_556 S
H769 C763 0.929 . S
C770 O761 1.250 . S
C770 O762 1.258 . S
O771 Mn756 2.162 . S
O771 C759 1.281 . S
O772 Mn756 2.297 . S
O772 C759 1.236 . S
N773 Mn757 2.282 . S
N773 C774 1.328 . S
N773 C778 1.318 . S
C774 N773 1.328 . S
C774 C775 1.457 . S
C774 H779 0.929 . S
C775 C774 1.457 . S
C775 C776 1.291 . S
C775 H788 0.931 . S
C776 C775 1.291 . S
C776 C777 1.354 1_554 S
C776 H789 0.929 . S
C777 C776 1.354 1_556 S
C777 C778 1.392 1_556 S
C777 C784 1.425 . S
C778 C768 1.476 1_554 S
C778 N773 1.318 . S
C778 C777 1.392 1_554 S
H779 C774 0.929 . S
O780 Mn756 2.385 . S
O780 C758 1.234 . S
O781 Mn756 2.209 . S
O781 Mn757 2.215 . S
O781 C758 1.283 . S
O782 Mn756 2.094 . S
O782 C760 1.240 . S
O783 Mn757 2.117 . S
O783 C760 1.264 . S
C784 C777 1.425 . S
C784 C785 1.399 . S
C784 H790 0.929 . S
C785 C765 1.449 . S
C785 C784 1.399 . S
C785 H791 0.930 . S
H786 C766 0.931 . S
H787 C767 0.930 . S
H788 C775 0.931 . S
H789 C776 0.929 . S
H790 C784 0.929 . S
H791 C785 0.930 . S
Mn792 O797 2.095 . S
Mn792 O807 2.162 . S
Mn792 O808 2.297 . S
Mn792 O816 2.385 . S
Mn792 O817 2.209 . S
Mn792 O818 2.094 . S
Mn793 O798 2.121 . S
Mn793 N800 2.257 . S
Mn793 N809 2.282 . S
Mn793 O817 2.215 . S
Mn793 O819 2.117 . S
C794 O816 1.234 . S
C794 O817 1.283 . S
C795 O807 1.281 . S
C795 O808 1.236 . S
C796 O818 1.240 . S
C796 O819 1.264 . S
O797 Mn792 2.095 . S
O797 C806 1.250 . S
O798 Mn793 2.121 . S
O798 C806 1.258 . S
C799 N800 1.326 . S
C799 C803 1.460 . S
C799 H805 0.929 . S
N800 Mn793 2.257 . S
N800 C799 1.326 . S
N800 C804 1.362 . S
C801 C802 1.258 . S
C801 C804 1.431 . S
C801 C821 1.449 . S
C802 C801 1.258 . S
C802 C803 1.477 . S
C802 H822 0.931 . S
C803 C799 1.460 . S
C803 C802 1.477 . S
C803 H823 0.930 . S
C804 N800 1.362 . S
C804 C801 1.431 . S
C804 C814 1.476 . S
H805 C799 0.929 . S
C806 O797 1.250 . S
C806 O798 1.258 . S
O807 Mn792 2.162 . S
O807 C795 1.281 . S
O808 Mn792 2.297 . S
O808 C795 1.236 . S
N809 Mn793 2.282 . S
N809 C810 1.328 . S
N809 C814 1.318 . S
C810 N809 1.328 . S
C810 C811 1.457 . S
C810 H815 0.929 . S
C811 C810 1.457 . S
C811 C812 1.291 . S
C811 H824 0.931 . S
C812 C811 1.291 . S
C812 C813 1.373 . S
C812 H825 0.929 . S
C813 C812 1.373 . S
C813 C814 1.396 . S
C813 C820 1.403 . S
C814 C804 1.476 . S
C814 N809 1.318 . S
C814 C813 1.396 . S
H815 C810 0.929 . S
O816 Mn792 2.385 . S
O816 C794 1.234 . S
O817 Mn792 2.209 . S
O817 Mn793 2.215 . S
O817 C794 1.283 . S
O818 Mn792 2.094 . S
O818 C796 1.240 . S
O819 Mn793 2.117 . S
O819 C796 1.264 . S
C820 C813 1.403 . S
C820 C821 1.399 . S
C820 H826 0.929 . S
C821 C801 1.449 . S
C821 C820 1.399 . S
C821 H827 0.930 . S
H822 C802 0.931 . S
H823 C803 0.930 . S
H824 C811 0.931 . S
H825 C812 0.929 . S
H826 C820 0.929 . S
H827 C821 0.930 . S
Mn828 O833 2.095 . S
Mn828 O843 2.162 . S
Mn828 O844 2.297 . S
Mn828 O852 2.385 . S
Mn828 O853 2.209 . S
Mn828 O854 2.094 . S
Mn829 O834 2.121 . S
Mn829 N836 2.257 . S
Mn829 N845 2.282 . S
Mn829 O853 2.215 . S
Mn829 O855 2.117 . S
C830 O852 1.234 . S
C830 O853 1.283 . S
C831 O843 1.281 . S
C831 O844 1.236 . S
C832 O854 1.240 . S
C832 O855 1.264 . S
O833 Mn828 2.095 . S
O833 C842 1.250 . S
O834 Mn829 2.121 . S
O834 C842 1.258 . S
C835 N836 1.326 1_655 S
C835 C839 1.460 . S
C835 H841 0.929 . S
N836 Mn829 2.257 . S
N836 C835 1.326 1_455 S
N836 C840 1.362 . S
C837 C838 1.258 . S
C837 C840 1.431 1_655 S
C837 C857 1.449 . S
C838 C837 1.258 . S
C838 C839 1.477 . S
C838 H858 0.931 . S
C839 C835 1.460 . S
C839 C838 1.477 . S
C839 H859 0.930 . S
C840 N836 1.362 . S
C840 C837 1.431 1_455 S
C840 C850 1.476 . S
H841 C835 0.929 . S
C842 O833 1.250 . S
C842 O834 1.258 . S
O843 Mn828 2.162 . S
O843 C831 1.281 . S
O844 Mn828 2.297 . S
O844 C831 1.236 . S
N845 Mn829 2.282 . S
N845 C846 1.328 . S
N845 C850 1.318 . S
C846 N845 1.328 . S
C846 C847 1.457 . S
C846 H851 0.929 . S
C847 C846 1.457 . S
C847 C848 1.291 . S
C847 H860 0.931 . S
C848 C847 1.291 . S
C848 C849 1.373 . S
C848 H861 0.929 . S
C849 C848 1.373 . S
C849 C850 1.396 . S
C849 C856 1.403 . S
C850 C840 1.476 . S
C850 N845 1.318 . S
C850 C849 1.396 . S
H851 C846 0.929 . S
O852 Mn828 2.385 . S
O852 C830 1.234 . S
O853 Mn828 2.209 . S
O853 Mn829 2.215 . S
O853 C830 1.283 . S
O854 Mn828 2.094 . S
O854 C832 1.240 . S
O855 Mn829 2.117 . S
O855 C832 1.264 . S
C856 C849 1.403 . S
C856 C857 1.399 1_455 S
C856 H862 0.929 . S
C857 C837 1.449 . S
C857 C856 1.399 1_655 S
C857 H863 0.930 . S
H858 C838 0.931 . S
H859 C839 0.930 . S
H860 C847 0.931 . S
H861 C848 0.929 . S
H862 C856 0.929 . S
H863 C857 0.930 . S
Mn864 O869 2.095 . S
Mn864 O879 2.162 . S
Mn864 O880 2.297 . S
Mn864 O888 2.385 . S
Mn864 O889 2.209 . S
Mn864 O890 2.094 . S
Mn865 O870 2.121 . S
Mn865 N872 2.257 . S
Mn865 N881 2.282 . S
Mn865 O889 2.215 . S
Mn865 O891 2.117 . S
C866 O888 1.234 . S
C866 O889 1.283 . S
C867 O879 1.281 . S
C867 O880 1.236 . S
C868 O890 1.240 . S
C868 O891 1.264 . S
O869 Mn864 2.095 . S
O869 C878 1.250 . S
O870 Mn865 2.121 . S
O870 C878 1.258 . S
C871 N872 1.326 . S
C871 C875 1.460 . S
C871 H877 0.929 . S
N872 Mn865 2.257 . S
N872 C871 1.326 . S
N872 C876 1.362 . S
C873 C874 1.258 . S
C873 C876 1.431 . S
C873 C893 1.449 . S
C874 C873 1.258 . S
C874 C875 1.477 . S
C874 H894 0.931 . S
C875 C871 1.460 . S
C875 C874 1.477 . S
C875 H895 0.930 . S
C876 N872 1.362 . S
C876 C873 1.431 . S
C876 C886 1.476 . S
H877 C871 0.929 . S
C878 O869 1.250 . S
C878 O870 1.258 . S
O879 Mn864 2.162 . S
O879 C867 1.281 . S
O880 Mn864 2.297 . S
O880 C867 1.236 . S
N881 Mn865 2.282 . S
N881 C882 1.328 . S
N881 C886 1.318 . S
C882 N881 1.328 . S
C882 C883 1.457 . S
C882 H887 0.929 . S
C883 C882 1.457 . S
C883 C884 1.291 . S
C883 H896 0.931 . S
C884 C883 1.291 . S
C884 C885 1.373 . S
C884 H897 0.929 . S
C885 C884 1.373 . S
C885 C886 1.396 . S
C885 C892 1.403 . S
C886 C876 1.476 . S
C886 N881 1.318 . S
C886 C885 1.396 . S
H887 C882 0.929 . S
O888 Mn864 2.385 . S
O888 C866 1.234 . S
O889 Mn864 2.209 . S
O889 Mn865 2.215 . S
O889 C866 1.283 . S
O890 Mn864 2.094 . S
O890 C868 1.240 . S
O891 Mn865 2.117 . S
O891 C868 1.264 . S
C892 C885 1.403 . S
C892 C893 1.399 . S
C892 H898 0.929 . S
C893 C873 1.449 . S
C893 C892 1.399 . S
C893 H899 0.930 . S
H894 C874 0.931 . S
H895 C875 0.930 . S
H896 C883 0.931 . S
H897 C884 0.929 . S
H898 C892 0.929 . S
H899 C893 0.930 . S
Mn900 O905 2.095 . S
Mn900 O915 2.162 . S
Mn900 O916 2.297 . S
Mn900 O924 2.385 . S
Mn900 O925 2.209 . S
Mn900 O926 2.094 . S
Mn901 O906 2.121 . S
Mn901 N908 2.257 . S
Mn901 N917 2.282 . S
Mn901 O925 2.215 . S
Mn901 O927 2.117 . S
C902 O924 1.234 . S
C902 O925 1.283 . S
C903 O915 1.281 . S
C903 O916 1.236 . S
C904 O926 1.240 . S
C904 O927 1.264 . S
O905 Mn900 2.095 . S
O905 C914 1.250 . S
O906 Mn901 2.121 . S
O906 C914 1.258 . S
C907 N908 1.326 . S
C907 C911 1.460 . S
C907 H913 0.929 . S
N908 Mn901 2.257 . S
N908 C907 1.326 . S
N908 C912 1.362 . S
C909 C910 1.258 . S
C909 C912 1.431 . S
C909 C929 1.449 . S
C910 C909 1.258 . S
C910 C911 1.477 . S
C910 H930 0.931 . S
C911 C907 1.460 . S
C911 C910 1.477 . S
C911 H931 0.930 . S
C912 N908 1.362 . S
C912 C909 1.431 . S
C912 C922 1.476 . S
H913 C907 0.929 . S
C914 O905 1.250 . S
C914 O906 1.258 . S
O915 Mn900 2.162 . S
O915 C903 1.281 . S
O916 Mn900 2.297 . S
O916 C903 1.236 . S
N917 Mn901 2.282 . S
N917 C918 1.328 . S
N917 C922 1.318 . S
C918 N917 1.328 . S
C918 C919 1.457 . S
C918 H923 0.929 . S
C919 C918 1.457 . S
C919 C920 1.291 . S
C919 H932 0.931 . S
C920 C919 1.291 . S
C920 C921 1.373 . S
C920 H933 0.929 . S
C921 C920 1.373 . S
C921 C922 1.396 . S
C921 C928 1.403 . S
C922 C912 1.476 . S
C922 N917 1.318 . S
C922 C921 1.396 . S
H923 C918 0.929 . S
O924 Mn900 2.385 . S
O924 C902 1.234 . S
O925 Mn900 2.209 . S
O925 Mn901 2.215 . S
O925 C902 1.283 . S
O926 Mn900 2.094 . S
O926 C904 1.240 . S
O927 Mn901 2.117 . S
O927 C904 1.264 . S
C928 C921 1.403 . S
C928 C929 1.399 . S
C928 H934 0.929 . S
C929 C909 1.449 . S
C929 C928 1.399 . S
C929 H935 0.930 . S
H930 C910 0.931 . S
H931 C911 0.930 . S
H932 C919 0.931 . S
H933 C920 0.929 . S
H934 C928 0.929 . S
H935 C929 0.930 . S
Mn936 O941 2.095 . S
Mn936 O951 2.162 . S
Mn936 O952 2.297 . S
Mn936 O960 2.385 . S
Mn936 O961 2.209 . S
Mn936 O962 2.094 . S
Mn937 O942 2.121 . S
Mn937 N944 2.257 . S
Mn937 N953 2.282 . S
Mn937 O961 2.215 . S
Mn937 O963 2.117 . S
C938 O960 1.234 . S
C938 O961 1.283 . S
C939 O951 1.281 . S
C939 O952 1.236 . S
C940 O962 1.240 . S
C940 O963 1.264 . S
O941 Mn936 2.095 . S
O941 C950 1.250 . S
O942 Mn937 2.121 . S
O942 C950 1.258 . S
C943 N944 1.326 . S
C943 C947 1.460 . S
C943 H949 0.929 . S
N944 Mn937 2.257 . S
N944 C943 1.326 . S
N944 C948 1.362 . S
C945 C946 1.258 . S
C945 C948 1.431 . S
C945 C965 1.449 . S
C946 C945 1.258 . S
C946 C947 1.477 . S
C946 H966 0.931 . S
C947 C943 1.460 . S
C947 C946 1.477 . S
C947 H967 0.930 . S
C948 N944 1.362 . S
C948 C945 1.431 . S
C948 C958 1.476 . S
H949 C943 0.929 . S
C950 O941 1.250 . S
C950 O942 1.258 . S
O951 Mn936 2.162 . S
O951 C939 1.281 . S
O952 Mn936 2.297 . S
O952 C939 1.236 . S
N953 Mn937 2.282 . S
N953 C954 1.328 . S
N953 C958 1.318 . S
C954 N953 1.328 . S
C954 C955 1.457 . S
C954 H959 0.929 . S
C955 C954 1.457 . S
C955 C956 1.291 . S
C955 H968 0.931 . S
C956 C955 1.291 . S
C956 C957 1.373 . S
C956 H969 0.929 . S
C957 C956 1.373 . S
C957 C958 1.396 . S
C957 C964 1.403 . S
C958 C948 1.476 . S
C958 N953 1.318 . S
C958 C957 1.396 . S
H959 C954 0.929 . S
O960 Mn936 2.385 . S
O960 C938 1.234 . S
O961 Mn936 2.209 . S
O961 Mn937 2.215 . S
O961 C938 1.283 . S
O962 Mn936 2.094 . S
O962 C940 1.240 . S
O963 Mn937 2.117 . S
O963 C940 1.264 . S
C964 C957 1.403 . S
C964 C965 1.399 . S
C964 H970 0.929 . S
C965 C945 1.449 . S
C965 C964 1.399 . S
C965 H971 0.930 . S
H966 C946 0.931 . S
H967 C947 0.930 . S
H968 C955 0.931 . S
H969 C956 0.929 . S
H970 C964 0.929 . S
H971 C965 0.930 . S
Mn972 O977 2.095 . S
Mn972 O987 2.162 . S
Mn972 O988 2.297 . S
Mn972 O996 2.385 . S
Mn972 O997 2.209 . S
Mn972 O998 2.094 . S
Mn973 O978 2.121 . S
Mn973 N980 2.257 . S
Mn973 N989 2.282 . S
Mn973 O997 2.215 . S
Mn973 O999 2.117 . S
C974 O996 1.234 . S
C974 O997 1.283 . S
C975 O987 1.281 . S
C975 O988 1.236 . S
C976 O998 1.240 . S
C976 O999 1.264 . S
O977 Mn972 2.095 . S
O977 C986 1.250 . S
O978 Mn973 2.121 . S
O978 C986 1.258 . S
C979 N980 1.326 . S
C979 C983 1.460 . S
C979 H985 0.929 . S
N980 Mn973 2.257 . S
N980 C979 1.326 . S
N980 C984 1.362 . S
C981 C982 1.258 . S
C981 C984 1.431 . S
C981 C1001 1.449 . S
C982 C981 1.258 . S
C982 C983 1.477 . S
C982 H1002 0.931 . S
C983 C979 1.460 . S
C983 C982 1.477 . S
C983 H1003 0.930 . S
C984 N980 1.362 . S
C984 C981 1.431 . S
C984 C994 1.476 . S
H985 C979 0.929 . S
C986 O977 1.250 . S
C986 O978 1.258 . S
O987 Mn972 2.162 . S
O987 C975 1.281 . S
O988 Mn972 2.297 . S
O988 C975 1.236 . S
N989 Mn973 2.282 . S
N989 C990 1.328 . S
N989 C994 1.318 . S
C990 N989 1.328 . S
C990 C991 1.457 1_554 S
C990 H995 0.929 . S
C991 C990 1.457 1_556 S
C991 C992 1.291 . S
C991 H1004 0.931 . S
C992 C991 1.291 . S
C992 C993 1.348 1_556 S
C992 H1005 0.929 . S
C993 C992 1.348 1_554 S
C993 C994 1.423 . S
C993 C1000 1.401 . S
C994 C984 1.476 . S
C994 N989 1.318 . S
C994 C993 1.423 . S
H995 C990 0.929 . S
O996 Mn972 2.385 . S
O996 C974 1.234 . S
O997 Mn972 2.209 . S
O997 Mn973 2.215 . S
O997 C974 1.283 . S
O998 Mn972 2.094 . S
O998 C976 1.240 . S
O999 Mn973 2.117 . S
O999 C976 1.264 . S
C1000 C993 1.401 . S
C1000 C1001 1.398 . S
C1000 H1006 0.931 1_554 S
C1001 C981 1.449 . S
C1001 C1000 1.398 . S
C1001 H1007 0.930 . S
H1002 C982 0.931 . S
H1003 C983 0.930 . S
H1004 C991 0.931 . S
H1005 C992 0.929 . S
H1006 C1000 0.931 1_556 S
H1007 C1001 0.930 . S
Mn1008 O1013 2.095 . S
Mn1008 O1023 2.162 . S
Mn1008 O1024 2.297 . S
Mn1008 O1032 2.385 . S
Mn1008 O1033 2.209 . S
Mn1008 O1034 2.094 . S
Mn1009 O1014 2.121 . S
Mn1009 N1016 2.257 . S
Mn1009 N1025 2.282 . S
Mn1009 O1033 2.215 . S
Mn1009 O1035 2.117 . S
C1010 O1032 1.234 . S
C1010 O1033 1.283 . S
C1011 O1023 1.281 . S
C1011 O1024 1.236 . S
C1012 O1034 1.240 . S
C1012 O1035 1.264 . S
O1013 Mn1008 2.095 . S
O1013 C1022 1.250 . S
O1014 Mn1009 2.121 . S
O1014 C1022 1.258 . S
C1015 N1016 1.326 . S
C1015 C1019 1.460 . S
C1015 H1021 0.929 . S
N1016 Mn1009 2.257 . S
N1016 C1015 1.326 . S
N1016 C1020 1.362 . S
C1017 C1018 1.258 . S
C1017 C1020 1.431 . S
C1017 C1037 1.449 . S
C1018 C1017 1.258 . S
C1018 C1019 1.477 . S
C1018 H1038 0.931 . S
C1019 C1015 1.460 . S
C1019 C1018 1.477 . S
C1019 H1039 0.930 . S
C1020 N1016 1.362 . S
C1020 C1017 1.431 . S
C1020 C1030 1.476 . S
H1021 C1015 0.929 . S
C1022 O1013 1.250 . S
C1022 O1014 1.258 . S
O1023 Mn1008 2.162 . S
O1023 C1011 1.281 . S
O1024 Mn1008 2.297 . S
O1024 C1011 1.236 . S
N1025 Mn1009 2.282 . S
N1025 C1026 1.328 . S
N1025 C1030 1.318 . S
C1026 N1025 1.328 . S
C1026 C1027 1.457 . S
C1026 H1031 0.929 . S
C1027 C1026 1.457 . S
C1027 C1028 1.291 . S
C1027 H1040 0.931 . S
C1028 C1027 1.291 . S
C1028 C1029 1.373 . S
C1028 H1041 0.929 . S
C1029 C1028 1.373 . S
C1029 C1030 1.396 . S
C1029 C1036 1.403 . S
C1030 C1020 1.476 . S
C1030 N1025 1.318 . S
C1030 C1029 1.396 . S
H1031 C1026 0.929 . S
O1032 Mn1008 2.385 . S
O1032 C1010 1.234 . S
O1033 Mn1008 2.209 . S
O1033 Mn1009 2.215 . S
O1033 C1010 1.283 . S
O1034 Mn1008 2.094 . S
O1034 C1012 1.240 . S
O1035 Mn1009 2.117 . S
O1035 C1012 1.264 . S
C1036 C1029 1.403 . S
C1036 C1037 1.399 . S
C1036 H1042 0.929 . S
C1037 C1017 1.449 . S
C1037 C1036 1.399 . S
C1037 H1043 0.930 . S
H1038 C1018 0.931 . S
H1039 C1019 0.930 . S
H1040 C1027 0.931 . S
H1041 C1028 0.929 . S
H1042 C1036 0.929 . S
H1043 C1037 0.930 . S
Mn1044 O1049 2.095 . S
Mn1044 O1059 2.162 . S
Mn1044 O1060 2.297 . S
Mn1044 O1068 2.385 . S
Mn1044 O1069 2.209 . S
Mn1044 O1070 2.094 . S
Mn1045 O1050 2.121 . S
Mn1045 N1052 2.257 . S
Mn1045 N1061 2.282 . S
Mn1045 O1069 2.215 . S
Mn1045 O1071 2.117 . S
C1046 O1068 1.234 . S
C1046 O1069 1.283 . S
C1047 O1059 1.281 . S
C1047 O1060 1.236 . S
C1048 O1070 1.240 . S
C1048 O1071 1.264 . S
O1049 Mn1044 2.095 . S
O1049 C1058 1.250 . S
O1050 Mn1045 2.121 . S
O1050 C1058 1.258 . S
C1051 N1052 1.326 . S
C1051 C1055 1.460 . S
C1051 H1057 0.929 . S
N1052 Mn1045 2.257 . S
N1052 C1051 1.326 . S
N1052 C1056 1.362 . S
C1053 C1054 1.258 . S
C1053 C1056 1.431 . S
C1053 C1073 1.449 . S
C1054 C1053 1.258 . S
C1054 C1055 1.477 . S
C1054 H1074 0.931 . S
C1055 C1051 1.460 . S
C1055 C1054 1.477 . S
C1055 H1075 0.930 . S
C1056 N1052 1.362 . S
C1056 C1053 1.431 . S
C1056 C1066 1.476 . S
H1057 C1051 0.929 . S
C1058 O1049 1.250 . S
C1058 O1050 1.258 . S
O1059 Mn1044 2.162 . S
O1059 C1047 1.281 . S
O1060 Mn1044 2.297 . S
O1060 C1047 1.236 . S
N1061 Mn1045 2.282 . S
N1061 C1062 1.328 . S
N1061 C1066 1.318 . S
C1062 N1061 1.328 . S
C1062 C1063 1.457 . S
C1062 H1067 0.929 . S
C1063 C1062 1.457 . S
C1063 C1064 1.291 . S
C1063 H1076 0.931 . S
C1064 C1063 1.291 . S
C1064 C1065 1.373 . S
C1064 H1077 0.929 . S
C1065 C1064 1.373 . S
C1065 C1066 1.396 . S
C1065 C1072 1.403 . S
C1066 C1056 1.476 . S
C1066 N1061 1.318 . S
C1066 C1065 1.396 . S
H1067 C1062 0.929 . S
O1068 Mn1044 2.385 . S
O1068 C1046 1.234 . S
O1069 Mn1044 2.209 . S
O1069 Mn1045 2.215 . S
O1069 C1046 1.283 . S
O1070 Mn1044 2.094 . S
O1070 C1048 1.240 . S
O1071 Mn1045 2.117 . S
O1071 C1048 1.264 . S
C1072 C1065 1.403 . S
C1072 C1073 1.399 . S
C1072 H1078 0.929 . S
C1073 C1053 1.449 . S
C1073 C1072 1.399 . S
C1073 H1079 0.930 . S
H1074 C1054 0.931 . S
H1075 C1055 0.930 . S
H1076 C1063 0.931 . S
H1077 C1064 0.929 . S
H1078 C1072 0.929 . S
H1079 C1073 0.930 . S
Mn1080 O1085 2.095 . S
Mn1080 O1095 2.162 . S
Mn1080 O1096 2.297 . S
Mn1080 O1104 2.385 . S
Mn1080 O1105 2.209 . S
Mn1080 O1106 2.094 . S
Mn1081 O1086 2.121 . S
Mn1081 N1088 2.257 1_556 S
Mn1081 N1097 2.282 . S
Mn1081 O1105 2.215 . S
Mn1081 O1107 2.117 . S
C1082 O1104 1.234 . S
C1082 O1105 1.283 . S
C1083 O1095 1.281 . S
C1083 O1096 1.236 . S
C1084 O1106 1.240 . S
C1084 O1107 1.264 . S
O1085 Mn1080 2.095 . S
O1085 C1094 1.250 . S
O1086 Mn1081 2.121 . S
O1086 C1094 1.258 . S
C1087 N1088 1.326 . S
C1087 C1091 1.460 . S
C1087 H1093 0.929 . S
N1088 Mn1081 2.257 1_554 S
N1088 C1087 1.326 . S
N1088 C1092 1.362 . S
C1089 C1090 1.258 . S
C1089 C1092 1.431 . S
C1089 C1109 1.449 . S
C1090 C1089 1.258 . S
C1090 C1091 1.477 . S
C1090 H1110 0.931 . S
C1091 C1087 1.460 . S
C1091 C1090 1.477 . S
C1091 H1111 0.930 . S
C1092 N1088 1.362 . S
C1092 C1089 1.431 . S
C1092 C1102 1.476 1_554 S
H1093 C1087 0.929 . S
C1094 O1085 1.250 . S
C1094 O1086 1.258 . S
O1095 Mn1080 2.162 . S
O1095 C1083 1.281 . S
O1096 Mn1080 2.297 . S
O1096 C1083 1.236 . S
N1097 Mn1081 2.282 . S
N1097 C1098 1.328 . S
N1097 C1102 1.318 . S
C1098 N1097 1.328 . S
C1098 C1099 1.457 . S
C1098 H1103 0.929 . S
C1099 C1098 1.457 . S
C1099 C1100 1.291 . S
C1099 H1112 0.931 . S
C1100 C1099 1.291 . S
C1100 C1101 1.373 . S
C1100 H1113 0.929 . S
C1101 C1100 1.373 . S
C1101 C1102 1.396 . S
C1101 C1108 1.403 1_556 S
C1102 C1092 1.476 1_556 S
C1102 N1097 1.318 . S
C1102 C1101 1.396 . S
H1103 C1098 0.929 . S
O1104 Mn1080 2.385 . S
O1104 C1082 1.234 . S
O1105 Mn1080 2.209 . S
O1105 Mn1081 2.215 . S
O1105 C1082 1.283 . S
O1106 Mn1080 2.094 . S
O1106 C1084 1.240 . S
O1107 Mn1081 2.117 . S
O1107 C1084 1.264 . S
C1108 C1101 1.403 1_554 S
C1108 C1109 1.399 . S
C1108 H1114 0.929 . S
C1109 C1089 1.449 . S
C1109 C1108 1.399 . S
C1109 H1115 0.930 . S
H1110 C1090 0.931 . S
H1111 C1091 0.930 . S
H1112 C1099 0.931 . S
H1113 C1100 0.929 . S
H1114 C1108 0.929 . S
H1115 C1109 0.930 . S
Mn1116 O1121 2.095 . S
Mn1116 O1131 2.162 . S
Mn1116 O1132 2.297 . S
Mn1116 O1140 2.385 . S
Mn1116 O1141 2.209 . S
Mn1116 O1142 2.094 . S
Mn1117 O1122 2.121 . S
Mn1117 N1124 2.257 . S
Mn1117 N1133 2.282 . S
Mn1117 O1141 2.215 . S
Mn1117 O1143 2.117 . S
C1118 O1140 1.234 . S
C1118 O1141 1.283 . S
C1119 O1131 1.281 . S
C1119 O1132 1.236 . S
C1120 O1142 1.240 . S
C1120 O1143 1.264 . S
O1121 Mn1116 2.095 . S
O1121 C1130 1.250 . S
O1122 Mn1117 2.121 . S
O1122 C1130 1.258 . S
C1123 N1124 1.326 . S
C1123 C1127 1.460 . S
C1123 H1129 0.929 . S
N1124 Mn1117 2.257 . S
N1124 C1123 1.326 . S
N1124 C1128 1.362 . S
C1125 C1126 1.258 . S
C1125 C1128 1.431 . S
C1125 C1145 1.449 . S
C1126 C1125 1.258 . S
C1126 C1127 1.477 . S
C1126 H1146 0.931 . S
C1127 C1123 1.460 . S
C1127 C1126 1.477 . S
C1127 H1147 0.930 . S
C1128 N1124 1.362 . S
C1128 C1125 1.431 . S
C1128 C1138 1.476 . S
H1129 C1123 0.929 . S
C1130 O1121 1.250 . S
C1130 O1122 1.258 . S
O1131 Mn1116 2.162 . S
O1131 C1119 1.281 . S
O1132 Mn1116 2.297 . S
O1132 C1119 1.236 . S
N1133 Mn1117 2.282 . S
N1133 C1134 1.328 . S
N1133 C1138 1.318 . S
C1134 N1133 1.328 . S
C1134 C1135 1.457 . S
C1134 H1139 0.929 . S
C1135 C1134 1.457 . S
C1135 C1136 1.291 . S
C1135 H1148 0.931 . S
C1136 C1135 1.291 . S
C1136 C1137 1.373 . S
C1136 H1149 0.929 . S
C1137 C1136 1.373 . S
C1137 C1138 1.396 . S
C1137 C1144 1.403 . S
C1138 C1128 1.476 . S
C1138 N1133 1.318 . S
C1138 C1137 1.396 . S
H1139 C1134 0.929 . S
O1140 Mn1116 2.385 . S
O1140 C1118 1.234 . S
O1141 Mn1116 2.209 . S
O1141 Mn1117 2.215 . S
O1141 C1118 1.283 . S
O1142 Mn1116 2.094 . S
O1142 C1120 1.240 . S
O1143 Mn1117 2.117 . S
O1143 C1120 1.264 . S
C1144 C1137 1.403 . S
C1144 C1145 1.399 . S
C1144 H1150 0.929 . S
C1145 C1125 1.449 . S
C1145 C1144 1.399 . S
C1145 H1151 0.930 . S
H1146 C1126 0.931 . S
H1147 C1127 0.930 . S
H1148 C1135 0.931 . S
H1149 C1136 0.929 . S
H1150 C1144 0.929 . S
H1151 C1145 0.930 . S
H1152 C1158 0.930 1_655 S
H1153 C1161 0.930 . S
H1154 C1162 0.930 . S
H1155 C1163 0.946 . S
H1156 C1166 0.930 . S
H1157 C1167 0.930 . S
C1158 H1152 0.930 1_455 S
C1158 C1159 1.355 . S
C1158 C1160 1.415 1_455 S
C1159 C1158 1.355 . S
C1159 C1161 1.419 . S
C1160 C1158 1.415 1_655 S
C1160 C1165 1.425 1_654 S
C1160 C1167 1.409 . S
C1161 H1153 0.930 . S
C1161 C1159 1.419 . S
C1161 C1162 1.362 1_554 S
C1162 H1154 0.930 . S
C1162 C1161 1.362 1_556 S
C1162 C1165 1.409 . S
C1163 H1155 0.946 . S
C1163 C1164 1.329 1_455 S
C1163 C1165 1.425 1_565 S
C1164 C1163 1.329 1_655 S
C1164 C1166 1.419 . S
C1165 C1160 1.425 1_456 S
C1165 C1162 1.409 . S
C1165 C1163 1.425 1_545 S
C1166 H1156 0.930 . S
C1166 C1164 1.419 . S
C1166 C1167 1.362 1_566 S
C1167 H1157 0.930 . S
C1167 C1160 1.409 . S
C1167 C1166 1.362 1_544 S
H1168 C1174 0.930 . S
H1169 C1177 0.930 . S
H1170 C1178 0.930 . S
H1171 C1179 0.930 . S
H1172 C1182 0.930 . S
H1173 C1183 0.930 . S
C1174 H1168 0.930 . S
C1174 C1175 1.355 . S
C1174 C1176 1.415 . S
C1175 C1174 1.355 . S
C1175 C1177 1.419 . S
C1176 C1174 1.415 . S
C1176 C1181 1.425 . S
C1176 C1183 1.409 . S
C1177 H1169 0.930 . S
C1177 C1175 1.419 . S
C1177 C1178 1.362 . S
C1178 H1170 0.930 . S
C1178 C1177 1.362 . S
C1178 C1181 1.409 . S
C1179 H1171 0.930 . S
C1179 C1180 1.355 . S
C1179 C1181 1.415 . S
C1180 C1179 1.355 . S
C1180 C1182 1.419 . S
C1181 C1176 1.425 . S
C1181 C1178 1.409 . S
C1181 C1179 1.415 . S
C1182 H1172 0.930 . S
C1182 C1180 1.419 . S
C1182 C1183 1.362 . S
C1183 H1173 0.930 . S
C1183 C1176 1.409 . S
C1183 C1182 1.362 . S
H1184 C1190 0.930 . S
H1185 C1193 0.930 . S
H1186 C1194 0.930 . S
H1187 C1195 0.930 . S
H1188 C1198 0.930 . S
H1189 C1199 0.930 . S
C1190 H1184 0.930 . S
C1190 C1191 1.355 . S
C1190 C1192 1.415 . S
C1191 C1190 1.355 . S
C1191 C1193 1.419 . S
C1192 C1190 1.415 . S
C1192 C1197 1.425 . S
C1192 C1199 1.409 1_565 S
C1193 H1185 0.930 . S
C1193 C1191 1.419 . S
C1193 C1194 1.362 . S
C1194 H1186 0.930 . S
C1194 C1193 1.362 . S
C1194 C1197 1.409 . S
C1195 H1187 0.930 . S
C1195 C1196 1.355 1_565 S
C1195 C1197 1.415 . S
C1196 C1195 1.355 1_545 S
C1196 C1198 1.419 . S
C1197 C1192 1.425 . S
C1197 C1194 1.409 . S
C1197 C1195 1.415 . S
C1198 H1188 0.930 . S
C1198 C1196 1.419 . S
C1198 C1199 1.362 . S
C1199 H1189 0.930 . S
C1199 C1192 1.409 1_545 S
C1199 C1198 1.362 . S
H1200 C1206 0.930 . S
H1201 C1209 0.930 . S
H1202 C1210 0.930 . S
H1203 C1211 0.930 . S
H1204 C1214 0.930 . S
H1205 C1215 0.930 . S
C1206 H1200 0.930 . S
C1206 C1207 1.355 . S
C1206 C1208 1.415 . S
C1207 C1206 1.355 . S
C1207 C1209 1.419 . S
C1208 C1206 1.415 . S
C1208 C1213 1.425 . S
C1208 C1215 1.409 . S
C1209 H1201 0.930 . S
C1209 C1207 1.419 . S
C1209 C1210 1.362 . S
C1210 H1202 0.930 . S
C1210 C1209 1.362 . S
C1210 C1213 1.409 . S
C1211 H1203 0.930 . S
C1211 C1212 1.355 . S
C1211 C1213 1.415 . S
C1212 C1211 1.355 . S
C1212 C1214 1.419 . S
C1213 C1208 1.425 . S
C1213 C1210 1.409 . S
C1213 C1211 1.415 . S
C1214 H1204 0.930 . S
C1214 C1212 1.419 . S
C1214 C1215 1.362 . S
C1215 H1205 0.930 . S
C1215 C1208 1.409 . S
C1215 C1214 1.362 . S
H1216 C1222 0.930 . S
H1217 C1225 0.930 . S
H1218 C1226 0.930 . S
H1219 C1227 0.930 . S
H1220 C1230 0.930 . S
H1221 C1231 0.930 1_465 S
C1222 H1216 0.930 . S
C1222 C1223 1.355 . S
C1222 C1224 1.415 1_465 S
C1223 C1222 1.355 . S
C1223 C1225 1.419 . S
C1224 C1222 1.415 1_645 S
C1224 C1229 1.425 . S
C1224 C1231 1.409 . S
C1225 H1217 0.930 . S
C1225 C1223 1.419 . S
C1225 C1226 1.362 1_465 S
C1226 H1218 0.930 . S
C1226 C1225 1.362 1_645 S
C1226 C1229 1.409 . S
C1227 H1219 0.930 . S
C1227 C1228 1.355 . S
C1227 C1229 1.415 . S
C1228 C1227 1.355 . S
C1228 C1230 1.419 . S
C1229 C1224 1.425 . S
C1229 C1226 1.409 . S
C1229 C1227 1.415 . S
C1230 H1220 0.930 . S
C1230 C1228 1.419 . S
C1230 C1231 1.362 . S
C1231 H1221 0.930 1_645 S
C1231 C1224 1.409 . S
C1231 C1230 1.362 . S
H1232 C1238 0.930 . S
H1233 C1241 0.930 . S
H1234 C1242 0.930 . S
H1235 C1243 0.930 . S
H1236 C1246 0.930 . S
H1237 C1247 0.930 . S
C1238 H1232 0.930 . S
C1238 C1239 1.355 . S
C1238 C1240 1.415 . S
C1239 C1238 1.355 . S
C1239 C1241 1.419 . S
C1240 C1238 1.415 . S
C1240 C1245 1.425 . S
C1240 C1247 1.409 . S
C1241 H1233 0.930 . S
C1241 C1239 1.419 . S
C1241 C1242 1.362 . S
C1242 H1234 0.930 . S
C1242 C1241 1.362 . S
C1242 C1245 1.409 . S
C1243 H1235 0.930 . S
C1243 C1244 1.355 . S
C1243 C1245 1.415 . S
C1244 C1243 1.355 . S
C1244 C1246 1.419 . S
C1245 C1240 1.425 . S
C1245 C1242 1.409 . S
C1245 C1243 1.415 . S
C1246 H1236 0.930 . S
C1246 C1244 1.419 . S
C1246 C1247 1.362 . S
C1247 H1237 0.930 . S
C1247 C1240 1.409 . S
C1247 C1246 1.362 . S
H1248 C1254 0.930 . S
H1249 C1257 0.930 . S
H1250 C1258 0.930 . S
H1251 C1259 0.930 1_545 S
H1252 C1262 0.930 . S
H1253 C1263 0.930 . S
C1254 H1248 0.930 . S
C1254 C1255 1.355 . S
C1254 C1256 1.415 . S
C1255 C1254 1.355 . S
C1255 C1257 1.419 1_556 S
C1256 C1254 1.415 . S
C1256 C1261 1.425 1_556 S
C1256 C1263 1.409 1_545 S
C1257 H1249 0.930 . S
C1257 C1255 1.419 1_554 S
C1257 C1258 1.362 . S
C1258 H1250 0.930 . S
C1258 C1257 1.362 . S
C1258 C1261 1.409 . S
C1259 H1251 0.930 1_565 S
C1259 C1260 1.355 . S
C1259 C1261 1.415 1_565 S
C1260 C1259 1.355 . S
C1260 C1262 1.419 1_554 S
C1261 C1256 1.425 1_554 S
C1261 C1258 1.409 . S
C1261 C1259 1.415 1_545 S
C1262 H1252 0.930 . S
C1262 C1260 1.419 1_556 S
C1262 C1263 1.362 . S
C1263 H1253 0.930 . S
C1263 C1256 1.409 1_565 S
C1263 C1262 1.362 . S
H1264 C1270 0.930 . S
H1265 C1273 0.930 . S
H1266 C1274 0.930 . S
H1267 C1275 0.930 . S
H1268 C1278 0.930 . S
H1269 C1279 0.930 . S
C1270 H1264 0.930 . S
C1270 C1271 1.355 . S
C1270 C1272 1.415 . S
C1271 C1270 1.355 . S
C1271 C1273 1.419 . S
C1272 C1270 1.415 . S
C1272 C1277 1.425 . S
C1272 C1279 1.409 . S
C1273 H1265 0.930 . S
C1273 C1271 1.419 . S
C1273 C1274 1.362 . S
C1274 H1266 0.930 . S
C1274 C1273 1.362 . S
C1274 C1277 1.409 . S
C1275 H1267 0.930 . S
C1275 C1276 1.355 . S
C1275 C1277 1.415 . S
C1276 C1275 1.355 . S
C1276 C1278 1.419 . S
C1277 C1272 1.425 . S
C1277 C1274 1.409 . S
C1277 C1275 1.415 . S
C1278 H1268 0.930 . S
C1278 C1276 1.419 . S
C1278 C1279 1.362 . S
C1279 H1269 0.930 . S
C1279 C1272 1.409 . S
C1279 C1278 1.362 . S
H1280 C1286 0.930 . S
H1281 C1289 0.930 . S
H1282 C1290 0.930 . S
H1283 C1291 0.930 . S
H1284 C1294 0.930 . S
H1285 C1295 0.930 . S
C1286 H1280 0.930 . S
C1286 C1287 1.355 . S
C1286 C1288 1.415 . S
C1287 C1286 1.355 . S
C1287 C1289 1.419 1_554 S
C1288 C1286 1.415 . S
C1288 C1293 1.425 1_554 S
C1288 C1295 1.409 . S
C1289 H1281 0.930 . S
C1289 C1287 1.419 1_556 S
C1289 C1290 1.362 . S
C1290 H1282 0.930 . S
C1290 C1289 1.362 . S
C1290 C1293 1.409 . S
C1291 H1283 0.930 . S
C1291 C1292 1.355 . S
C1291 C1293 1.415 . S
C1292 C1291 1.355 . S
C1292 C1294 1.419 . S
C1293 C1288 1.425 1_556 S
C1293 C1290 1.409 . S
C1293 C1291 1.415 . S
C1294 H1284 0.930 . S
C1294 C1292 1.419 . S
C1294 C1295 1.362 1_556 S
C1295 H1285 0.930 . S
C1295 C1288 1.409 . S
C1295 C1294 1.362 1_554 S
H1296 C1302 0.930 . S
H1297 C1305 0.930 . S
H1298 C1306 0.930 . S
H1299 C1307 0.930 . S
H1300 C1310 0.930 . S
H1301 C1311 0.930 . S
C1302 H1296 0.930 . S
C1302 C1303 1.355 . S
C1302 C1304 1.415 . S
C1303 C1302 1.355 . S
C1303 C1305 1.419 . S
C1304 C1302 1.415 . S
C1304 C1309 1.425 . S
C1304 C1311 1.409 . S
C1305 H1297 0.930 . S
C1305 C1303 1.419 . S
C1305 C1306 1.362 . S
C1306 H1298 0.930 . S
C1306 C1305 1.362 . S
C1306 C1309 1.409 . S
C1307 H1299 0.930 . S
C1307 C1308 1.355 . S
C1307 C1309 1.415 . S
C1308 C1307 1.355 . S
C1308 C1310 1.419 . S
C1309 C1304 1.425 . S
C1309 C1306 1.409 . S
C1309 C1307 1.415 . S
C1310 H1300 0.930 . S
C1310 C1308 1.419 . S
C1310 C1311 1.362 . S
C1311 H1301 0.930 . S
C1311 C1304 1.409 . S
C1311 C1310 1.362 . S
H1312 C1318 0.930 . S
H1313 C1321 0.930 . S
H1314 C1322 0.930 . S
H1315 C1323 0.930 . S
H1316 C1326 0.930 . S
H1317 C1327 0.930 . S
C1318 H1312 0.930 . S
C1318 C1319 1.355 . S
C1318 C1320 1.415 . S
C1319 C1318 1.355 . S
C1319 C1321 1.419 . S
C1320 C1318 1.415 . S
C1320 C1325 1.425 . S
C1320 C1327 1.409 . S
C1321 H1313 0.930 . S
C1321 C1319 1.419 . S
C1321 C1322 1.362 . S
C1322 H1314 0.930 . S
C1322 C1321 1.362 . S
C1322 C1325 1.409 . S
C1323 H1315 0.930 . S
C1323 C1324 1.355 1_455 S
C1323 C1325 1.415 . S
C1324 C1323 1.355 1_655 S
C1324 C1326 1.419 . S
C1325 C1320 1.425 . S
C1325 C1322 1.409 . S
C1325 C1323 1.415 . S
C1326 H1316 0.930 . S
C1326 C1324 1.419 . S
C1326 C1327 1.362 1_655 S
C1327 H1317 0.930 . S
C1327 C1320 1.409 . S
C1327 C1326 1.362 1_455 S
H1328 C1334 0.930 . S
H1329 C1337 0.930 . S
H1330 C1338 0.930 . S
H1331 C1339 0.930 . S
H1332 C1342 0.930 . S
H1333 C1343 0.930 . S
C1334 H1328 0.930 . S
C1334 C1335 1.355 . S
C1334 C1336 1.415 . S
C1335 C1334 1.355 . S
C1335 C1337 1.419 . S
C1336 C1334 1.415 . S
C1336 C1341 1.425 . S
C1336 C1343 1.409 . S
C1337 H1329 0.930 . S
C1337 C1335 1.419 . S
C1337 C1338 1.362 . S
C1338 H1330 0.930 . S
C1338 C1337 1.362 . S
C1338 C1341 1.409 . S
C1339 H1331 0.930 . S
C1339 C1340 1.355 . S
C1339 C1341 1.415 . S
C1340 C1339 1.355 . S
C1340 C1342 1.419 . S
C1341 C1336 1.425 . S
C1341 C1338 1.409 . S
C1341 C1339 1.415 . S
C1342 H1332 0.930 . S
C1342 C1340 1.419 . S
C1342 C1343 1.362 . S
C1343 H1333 0.930 . S
C1343 C1336 1.409 . S
C1343 C1342 1.362 . S
H1344 C1350 0.930 . S
H1345 C1353 0.930 . S
H1346 C1354 0.930 . S
H1347 C1355 0.930 . S
H1348 C1358 0.930 . S
H1349 C1359 0.930 . S
C1350 H1344 0.930 . S
C1350 C1351 1.355 . S
C1350 C1352 1.415 . S
C1351 C1350 1.355 . S
C1351 C1353 1.419 . S
C1352 C1350 1.415 . S
C1352 C1357 1.425 . S
C1352 C1359 1.409 . S
C1353 H1345 0.930 . S
C1353 C1351 1.419 . S
C1353 C1354 1.362 . S
C1354 H1346 0.930 . S
C1354 C1353 1.362 . S
C1354 C1357 1.409 . S
C1355 H1347 0.930 . S
C1355 C1356 1.355 . S
C1355 C1357 1.415 . S
C1356 C1355 1.355 . S
C1356 C1358 1.419 . S
C1357 C1352 1.425 . S
C1357 C1354 1.409 . S
C1357 C1355 1.415 . S
C1358 H1348 0.930 . S
C1358 C1356 1.419 . S
C1358 C1359 1.362 . S
C1359 H1349 0.930 . S
C1359 C1352 1.409 . S
C1359 C1358 1.362 . S
H1360 C1366 0.930 . S
H1361 C1369 0.930 . S
H1362 C1370 0.930 . S
H1363 C1371 0.930 . S
H1364 C1374 0.930 . S
H1365 C1375 0.930 . S
C1366 H1360 0.930 . S
C1366 C1367 1.355 . S
C1366 C1368 1.415 . S
C1367 C1366 1.355 . S
C1367 C1369 1.419 . S
C1368 C1366 1.415 . S
C1368 C1373 1.425 . S
C1368 C1375 1.409 . S
C1369 H1361 0.930 . S
C1369 C1367 1.419 . S
C1369 C1370 1.362 . S
C1370 H1362 0.930 . S
C1370 C1369 1.362 . S
C1370 C1373 1.409 . S
C1371 H1363 0.930 . S
C1371 C1372 1.355 . S
C1371 C1373 1.415 . S
C1372 C1371 1.355 . S
C1372 C1374 1.419 . S
C1373 C1368 1.425 . S
C1373 C1370 1.409 . S
C1373 C1371 1.415 . S
C1374 H1364 0.930 . S
C1374 C1372 1.419 . S
C1374 C1375 1.362 . S
C1375 H1365 0.930 . S
C1375 C1368 1.409 . S
C1375 C1374 1.362 . S
H1376 C1382 0.930 . S
H1377 C1385 0.930 . S
H1378 C1386 0.930 . S
H1379 C1387 0.930 . S
H1380 C1390 0.930 . S
H1381 C1391 0.930 . S
C1382 H1376 0.930 . S
C1382 C1383 1.355 . S
C1382 C1384 1.415 . S
C1383 C1382 1.355 . S
C1383 C1385 1.419 . S
C1384 C1382 1.415 . S
C1384 C1389 1.425 . S
C1384 C1391 1.409 . S
C1385 H1377 0.930 . S
C1385 C1383 1.419 . S
C1385 C1386 1.362 . S
C1386 H1378 0.930 . S
C1386 C1385 1.362 . S
C1386 C1389 1.409 . S
C1387 H1379 0.930 . S
C1387 C1388 1.355 . S
C1387 C1389 1.415 . S
C1388 C1387 1.355 . S
C1388 C1390 1.419 . S
C1389 C1384 1.425 . S
C1389 C1386 1.409 . S
C1389 C1387 1.415 . S
C1390 H1380 0.930 . S
C1390 C1388 1.419 . S
C1390 C1391 1.362 . S
C1391 H1381 0.930 . S
C1391 C1384 1.409 . S
C1391 C1390 1.362 . S
H1392 C1398 0.930 . S
H1393 C1401 0.930 . S
H1394 C1402 0.930 . S
H1395 C1403 0.930 1_455 S
H1396 C1406 0.930 . S
H1397 C1407 0.930 . S
C1398 H1392 0.930 . S
C1398 C1399 1.355 1_655 S
C1398 C1400 1.415 1_556 S
C1399 C1398 1.355 1_455 S
C1399 C1401 1.419 . S
C1400 C1398 1.415 1_554 S
C1400 C1405 1.448 . S
C1400 C1407 1.409 . S
C1401 H1393 0.930 . S
C1401 C1399 1.419 . S
C1401 C1402 1.362 1_556 S
C1402 H1394 0.930 . S
C1402 C1401 1.362 1_554 S
C1402 C1405 1.377 1_455 S
C1403 H1395 0.930 1_655 S
C1403 C1404 1.355 . S
C1403 C1405 1.425 . S
C1404 C1403 1.355 . S
C1404 C1406 1.419 . S
C1405 C1400 1.448 . S
C1405 C1402 1.377 1_655 S
C1405 C1403 1.425 . S
C1406 H1396 0.930 . S
C1406 C1404 1.419 . S
C1406 C1407 1.362 . S
C1407 H1397 0.930 . S
C1407 C1400 1.409 . S
C1407 C1406 1.362 . S
H1408 C1414 0.930 . S
H1409 C1417 0.930 . S
H1410 C1418 0.930 . S
H1411 C1419 0.930 . S
H1412 C1422 0.930 . S
H1413 C1423 0.933 1_545 S
C1414 H1408 0.930 . S
C1414 C1415 1.355 . S
C1414 C1416 1.415 . S
C1415 C1414 1.355 . S
C1415 C1417 1.419 . S
C1416 C1414 1.415 . S
C1416 C1421 1.425 1_545 S
C1416 C1423 1.410 1_545 S
C1417 H1409 0.930 . S
C1417 C1415 1.419 . S
C1417 C1418 1.362 1_545 S
C1418 H1410 0.930 . S
C1418 C1417 1.362 1_565 S
C1418 C1421 1.409 . S
C1419 H1411 0.930 . S
C1419 C1420 1.355 . S
C1419 C1421 1.415 . S
C1420 C1419 1.355 . S
C1420 C1422 1.419 . S
C1421 C1416 1.425 1_565 S
C1421 C1418 1.409 . S
C1421 C1419 1.415 . S
C1422 H1412 0.930 . S
C1422 C1420 1.419 . S
C1422 C1423 1.359 . S
C1423 H1413 0.933 1_565 S
C1423 C1416 1.410 1_565 S
C1423 C1422 1.359 . S
H1424 C1430 0.930 . S
H1425 C1433 0.930 . S
H1426 C1434 0.930 . S
H1427 C1435 0.930 . S
H1428 C1438 0.930 . S
H1429 C1439 0.930 . S
C1430 H1424 0.930 . S
C1430 C1431 1.355 . S
C1430 C1432 1.415 . S
C1431 C1430 1.355 . S
C1431 C1433 1.419 . S
C1432 C1430 1.415 . S
C1432 C1437 1.425 . S
C1432 C1439 1.409 . S
C1433 H1425 0.930 . S
C1433 C1431 1.419 . S
C1433 C1434 1.362 . S
C1434 H1426 0.930 . S
C1434 C1433 1.362 . S
C1434 C1437 1.409 . S
C1435 H1427 0.930 . S
C1435 C1436 1.355 . S
C1435 C1437 1.415 . S
C1436 C1435 1.355 . S
C1436 C1438 1.419 . S
C1437 C1432 1.425 . S
C1437 C1434 1.409 . S
C1437 C1435 1.415 . S
C1438 H1428 0.930 . S
C1438 C1436 1.419 . S
C1438 C1439 1.362 . S
C1439 H1429 0.930 . S
C1439 C1432 1.409 . S
C1439 C1438 1.362 . S
H1440 C1446 0.930 . S
H1441 C1449 0.930 . S
H1442 C1450 0.930 . S
H1443 C1451 0.930 . S
H1444 C1454 0.930 . S
H1445 C1455 0.930 1_545 S
C1446 H1440 0.930 . S
C1446 C1447 1.355 . S
C1446 C1448 1.418 . S
C1447 C1446 1.355 . S
C1447 C1449 1.419 . S
C1448 C1446 1.418 . S
C1448 C1453 1.423 1_545 S
C1448 C1455 1.408 1_545 S
C1449 H1441 0.930 . S
C1449 C1447 1.419 . S
C1449 C1450 1.362 1_545 S
C1450 H1442 0.930 . S
C1450 C1449 1.362 1_565 S
C1450 C1453 1.409 . S
C1451 H1443 0.930 . S
C1451 C1452 1.355 . S
C1451 C1453 1.415 . S
C1452 C1451 1.355 . S
C1452 C1454 1.419 . S
C1453 C1448 1.423 1_565 S
C1453 C1450 1.409 . S
C1453 C1451 1.415 . S
C1454 H1444 0.930 . S
C1454 C1452 1.419 . S
C1454 C1455 1.362 . S
C1455 H1445 0.930 1_565 S
C1455 C1448 1.408 1_565 S
C1455 C1454 1.362 . S
H1456 C1462 0.930 . S
H1457 C1465 0.930 . S
H1458 C1466 0.930 . S
H1459 C1467 0.930 . S
H1460 C1470 0.930 . S
H1461 C1471 0.930 . S
C1462 H1456 0.930 . S
C1462 C1463 1.355 . S
C1462 C1464 1.415 . S
C1463 C1462 1.355 . S
C1463 C1465 1.419 . S
C1464 C1462 1.415 . S
C1464 C1469 1.425 1_556 S
C1464 C1471 1.409 . S
C1465 H1457 0.930 . S
C1465 C1463 1.419 . S
C1465 C1466 1.362 1_556 S
C1466 H1458 0.930 . S
C1466 C1465 1.362 1_554 S
C1466 C1469 1.409 . S
C1467 H1459 0.930 . S
C1467 C1468 1.355 . S
C1467 C1469 1.415 . S
C1468 C1467 1.355 . S
C1468 C1470 1.419 1_554 S
C1469 C1464 1.425 1_554 S
C1469 C1466 1.409 . S
C1469 C1467 1.415 . S
C1470 H1460 0.930 . S
C1470 C1468 1.419 1_556 S
C1470 C1471 1.362 . S
C1471 H1461 0.930 . S
C1471 C1464 1.409 . S
C1471 C1470 1.362 . S
H1472 C1478 0.930 . S
H1473 C1481 0.930 . S
H1474 C1482 0.930 . S
H1475 C1483 0.930 . S
H1476 C1486 0.930 . S
H1477 C1487 0.930 . S
C1478 H1472 0.930 . S
C1478 C1479 1.355 . S
C1478 C1480 1.415 . S
C1479 C1478 1.355 . S
C1479 C1481 1.419 . S
C1480 C1478 1.415 . S
C1480 C1485 1.425 . S
C1480 C1487 1.409 1_545 S
C1481 H1473 0.930 . S
C1481 C1479 1.419 . S
C1481 C1482 1.362 . S
C1482 H1474 0.930 . S
C1482 C1481 1.362 . S
C1482 C1485 1.409 . S
C1483 H1475 0.930 . S
C1483 C1484 1.355 1_545 S
C1483 C1485 1.415 . S
C1484 C1483 1.355 1_565 S
C1484 C1486 1.419 . S
C1485 C1480 1.425 . S
C1485 C1482 1.409 . S
C1485 C1483 1.415 . S
C1486 H1476 0.930 . S
C1486 C1484 1.419 . S
C1486 C1487 1.362 . S
C1487 H1477 0.930 . S
C1487 C1480 1.409 1_565 S
C1487 C1486 1.362 . S
H1488 C1494 0.930 . S
H1489 C1497 0.930 . S
H1490 C1498 0.930 . S
H1491 C1499 0.930 . S
H1492 C1502 0.930 . S
H1493 C1503 0.930 . S
C1494 H1488 0.930 . S
C1494 C1495 1.355 . S
C1494 C1496 1.415 . S
C1495 C1494 1.355 . S
C1495 C1497 1.419 . S
C1496 C1494 1.415 . S
C1496 C1501 1.425 . S
C1496 C1503 1.409 . S
C1497 H1489 0.930 . S
C1497 C1495 1.419 . S
C1497 C1498 1.362 . S
C1498 H1490 0.930 . S
C1498 C1497 1.362 . S
C1498 C1501 1.409 . S
C1499 H1491 0.930 . S
C1499 C1500 1.355 . S
C1499 C1501 1.415 . S
C1500 C1499 1.355 . S
C1500 C1502 1.419 . S
C1501 C1496 1.425 . S
C1501 C1498 1.409 . S
C1501 C1499 1.415 . S
C1502 H1492 0.930 . S
C1502 C1500 1.419 . S
C1502 C1503 1.362 . S
C1503 H1493 0.930 . S
C1503 C1496 1.409 . S
C1503 C1502 1.362 . S
H1504 C1510 0.930 1_565 S
H1505 C1513 0.930 . S
H1506 C1514 0.930 . S
H1507 C1515 0.930 . S
H1508 C1518 0.930 . S
H1509 C1519 0.930 . S
C1510 H1504 0.930 1_545 S
C1510 C1511 1.355 . S
C1510 C1512 1.415 1_545 S
C1511 C1510 1.355 . S
C1511 C1513 1.419 . S
C1512 C1510 1.415 1_565 S
C1512 C1517 1.425 . S
C1512 C1519 1.409 . S
C1513 H1505 0.930 . S
C1513 C1511 1.419 . S
C1513 C1514 1.362 . S
C1514 H1506 0.930 . S
C1514 C1513 1.362 . S
C1514 C1517 1.409 1_545 S
C1515 H1507 0.930 . S
C1515 C1516 1.355 . S
C1515 C1517 1.415 . S
C1516 C1515 1.355 . S
C1516 C1518 1.419 . S
C1517 C1512 1.425 . S
C1517 C1514 1.409 1_565 S
C1517 C1515 1.415 . S
C1518 H1508 0.930 . S
C1518 C1516 1.419 . S
C1518 C1519 1.362 . S
C1519 H1509 0.930 . S
C1519 C1512 1.409 . S
C1519 C1518 1.362 . S
H1520 C1526 0.930 . S
H1521 C1529 0.930 . S
H1522 C1530 0.930 . S
H1523 C1531 0.930 . S
H1524 C1534 0.930 . S
H1525 C1535 0.930 . S
C1526 H1520 0.930 . S
C1526 C1527 1.355 . S
C1526 C1528 1.415 1_556 S
C1527 C1526 1.355 . S
C1527 C1529 1.419 1_556 S
C1528 C1526 1.415 1_554 S
C1528 C1533 1.425 . S
C1528 C1535 1.409 1_554 S
C1529 H1521 0.930 . S
C1529 C1527 1.419 1_554 S
C1529 C1530 1.362 . S
C1530 H1522 0.930 . S
C1530 C1529 1.362 . S
C1530 C1533 1.409 . S
C1531 H1523 0.930 . S
C1531 C1532 1.355 . S
C1531 C1533 1.415 . S
C1532 C1531 1.355 . S
C1532 C1534 1.419 . S
C1533 C1528 1.425 . S
C1533 C1530 1.409 . S
C1533 C1531 1.415 . S
C1534 H1524 0.930 . S
C1534 C1532 1.419 . S
C1534 C1535 1.362 1_554 S
C1535 H1525 0.930 . S
C1535 C1528 1.409 1_556 S
C1535 C1534 1.362 1_556 S
H1536 C1542 0.930 . S
H1537 C1545 0.930 . S
H1538 C1546 0.930 . S
H1539 C1547 0.930 . S
H1540 C1550 0.930 . S
H1541 C1551 0.930 . S
C1542 H1536 0.930 . S
C1542 C1543 1.355 . S
C1542 C1544 1.415 . S
C1543 C1542 1.355 . S
C1543 C1545 1.419 . S
C1544 C1542 1.415 . S
C1544 C1549 1.425 . S
C1544 C1551 1.409 1_655 S
C1545 H1537 0.930 . S
C1545 C1543 1.419 . S
C1545 C1546 1.362 . S
C1546 H1538 0.930 . S
C1546 C1545 1.362 . S
C1546 C1549 1.409 . S
C1547 H1539 0.930 . S
C1547 C1548 1.355 1_655 S
C1547 C1549 1.415 . S
C1548 C1547 1.355 1_455 S
C1548 C1550 1.419 . S
C1549 C1544 1.425 . S
C1549 C1546 1.409 . S
C1549 C1547 1.415 . S
C1550 H1540 0.930 . S
C1550 C1548 1.419 . S
C1550 C1551 1.362 . S
C1551 H1541 0.930 . S
C1551 C1544 1.409 1_455 S
C1551 C1550 1.362 . S
H1552 C1558 0.930 . S
H1553 C1561 0.930 . S
H1554 C1562 0.930 . S
H1555 C1563 0.930 . S
H1556 C1566 0.930 . S
H1557 C1567 0.930 . S
C1558 H1552 0.930 . S
C1558 C1559 1.355 . S
C1558 C1560 1.415 . S
C1559 C1558 1.355 . S
C1559 C1561 1.419 . S
C1560 C1558 1.415 . S
C1560 C1565 1.425 . S
C1560 C1567 1.409 . S
C1561 H1553 0.930 . S
C1561 C1559 1.419 . S
C1561 C1562 1.362 . S
C1562 H1554 0.930 . S
C1562 C1561 1.362 . S
C1562 C1565 1.409 . S
C1563 H1555 0.930 . S
C1563 C1564 1.355 . S
C1563 C1565 1.415 . S
C1564 C1563 1.355 . S
C1564 C1566 1.419 . S
C1565 C1560 1.425 . S
C1565 C1562 1.409 . S
C1565 C1563 1.415 . S
C1566 H1556 0.930 . S
C1566 C1564 1.419 . S
C1566 C1567 1.362 . S
C1567 H1557 0.930 . S
C1567 C1560 1.409 . S
C1567 C1566 1.362 . S
H1568 C1574 0.930 . S
H1569 C1577 0.930 . S
H1570 C1578 0.930 . S
H1571 C1579 0.930 . S
H1572 C1582 0.930 . S
H1573 C1583 0.930 . S
C1574 H1568 0.930 . S
C1574 C1575 1.345 1_455 S
C1574 C1576 1.415 . S
C1575 C1574 1.345 1_655 S
C1575 C1577 1.425 . S
C1576 C1574 1.415 . S
C1576 C1581 1.425 . S
C1576 C1583 1.409 . S
C1577 H1569 0.930 . S
C1577 C1575 1.425 . S
C1577 C1578 1.362 . S
C1578 H1570 0.930 . S
C1578 C1577 1.362 . S
C1578 C1581 1.409 1_655 S
C1579 H1571 0.930 . S
C1579 C1580 1.355 . S
C1579 C1581 1.415 . S
C1580 C1579 1.355 . S
C1580 C1582 1.419 . S
C1581 C1576 1.425 . S
C1581 C1578 1.409 1_455 S
C1581 C1579 1.415 . S
C1582 H1572 0.930 . S
C1582 C1580 1.419 . S
C1582 C1583 1.362 . S
C1583 H1573 0.930 . S
C1583 C1576 1.409 . S
C1583 C1582 1.362 . S
H1584 C1590 0.930 . S
H1585 C1593 0.930 . S
H1586 C1594 0.930 . S
H1587 C1595 0.930 . S
H1588 C1598 0.930 . S
H1589 C1599 0.930 . S
C1590 H1584 0.930 . S
C1590 C1591 1.355 . S
C1590 C1592 1.415 1_655 S
C1591 C1590 1.355 . S
C1591 C1593 1.419 . S
C1592 C1590 1.415 1_455 S
C1592 C1597 1.425 . S
C1592 C1599 1.409 . S
C1593 H1585 0.930 . S
C1593 C1591 1.419 . S
C1593 C1594 1.362 1_655 S
C1594 H1586 0.930 . S
C1594 C1593 1.362 1_455 S
C1594 C1597 1.409 . S
C1595 H1587 0.930 . S
C1595 C1596 1.355 . S
C1595 C1597 1.415 . S
C1596 C1595 1.355 . S
C1596 C1598 1.419 . S
C1597 C1592 1.425 . S
C1597 C1594 1.409 . S
C1597 C1595 1.415 . S
C1598 H1588 0.930 . S
C1598 C1596 1.419 . S
C1598 C1599 1.362 . S
C1599 H1589 0.930 . S
C1599 C1592 1.409 . S
C1599 C1598 1.362 . S
H1600 C1606 0.930 . S
H1601 C1609 0.930 . S
H1602 C1610 0.930 . S
H1603 C1611 0.930 . S
H1604 C1614 0.930 . S
H1605 C1615 0.930 . S
C1606 H1600 0.930 . S
C1606 C1607 1.355 . S
C1606 C1608 1.415 . S
C1607 C1606 1.355 . S
C1607 C1609 1.419 . S
C1608 C1606 1.415 . S
C1608 C1613 1.425 . S
C1608 C1615 1.409 . S
C1609 H1601 0.930 . S
C1609 C1607 1.419 . S
C1609 C1610 1.362 . S
C1610 H1602 0.930 . S
C1610 C1609 1.362 . S
C1610 C1613 1.409 . S
C1611 H1603 0.930 . S
C1611 C1612 1.355 . S
C1611 C1613 1.415 . S
C1612 C1611 1.355 . S
C1612 C1614 1.419 . S
C1613 C1608 1.425 . S
C1613 C1610 1.409 . S
C1613 C1611 1.415 . S
C1614 H1604 0.930 . S
C1614 C1612 1.419 . S
C1614 C1615 1.362 . S
C1615 H1605 0.930 . S
C1615 C1608 1.409 . S
C1615 C1614 1.362 . S
H1616 C1622 0.930 . S
H1617 C1625 0.930 . S
H1618 C1626 0.930 . S
H1619 C1627 0.930 . S
H1620 C1630 0.930 . S
H1621 C1631 0.930 . S
C1622 H1616 0.930 . S
C1622 C1623 1.355 . S
C1622 C1624 1.415 . S
C1623 C1622 1.355 . S
C1623 C1625 1.419 . S
C1624 C1622 1.415 . S
C1624 C1629 1.425 . S
C1624 C1631 1.409 1_655 S
C1625 H1617 0.930 . S
C1625 C1623 1.419 . S
C1625 C1626 1.362 . S
C1626 H1618 0.930 . S
C1626 C1625 1.362 . S
C1626 C1629 1.409 . S
C1627 H1619 0.930 . S
C1627 C1628 1.355 1_655 S
C1627 C1629 1.415 . S
C1628 C1627 1.355 1_455 S
C1628 C1630 1.419 . S
C1629 C1624 1.425 . S
C1629 C1626 1.409 . S
C1629 C1627 1.415 . S
C1630 H1620 0.930 . S
C1630 C1628 1.419 . S
C1630 C1631 1.362 . S
C1631 H1621 0.930 . S
C1631 C1624 1.409 1_455 S
C1631 C1630 1.362 . S
H1632 C1638 0.930 . S
H1633 C1641 0.930 . S
H1634 C1642 0.930 . S
H1635 C1643 0.930 . S
H1636 C1646 0.930 . S
H1637 C1647 0.930 . S
C1638 H1632 0.930 . S
C1638 C1639 1.355 . S
C1638 C1640 1.415 . S
C1639 C1638 1.355 . S
C1639 C1641 1.419 . S
C1640 C1638 1.415 . S
C1640 C1645 1.425 . S
C1640 C1647 1.409 . S
C1641 H1633 0.930 . S
C1641 C1639 1.419 . S
C1641 C1642 1.362 . S
C1642 H1634 0.930 . S
C1642 C1641 1.362 . S
C1642 C1645 1.409 . S
C1643 H1635 0.930 . S
C1643 C1644 1.355 . S
C1643 C1645 1.415 . S
C1644 C1643 1.355 . S
C1644 C1646 1.419 . S
C1645 C1640 1.425 . S
C1645 C1642 1.409 . S
C1645 C1643 1.415 . S
C1646 H1636 0.930 . S
C1646 C1644 1.419 . S
C1646 C1647 1.362 . S
C1647 H1637 0.930 . S
C1647 C1640 1.409 . S
C1647 C1646 1.362 . S
H1648 C1654 0.930 . S
H1649 C1657 0.930 . S
H1650 C1658 0.930 . S
H1651 C1659 0.930 . S
H1652 C1662 0.930 . S
H1653 C1663 0.930 . S
C1654 H1648 0.930 . S
C1654 C1655 1.355 . S
C1654 C1656 1.415 . S
C1655 C1654 1.355 . S
C1655 C1657 1.419 . S
C1656 C1654 1.415 . S
C1656 C1661 1.425 . S
C1656 C1663 1.409 1_545 S
C1657 H1649 0.930 . S
C1657 C1655 1.419 . S
C1657 C1658 1.362 . S
C1658 H1650 0.930 . S
C1658 C1657 1.362 . S
C1658 C1661 1.409 . S
C1659 H1651 0.930 . S
C1659 C1660 1.355 1_545 S
C1659 C1661 1.415 . S
C1660 C1659 1.355 1_565 S
C1660 C1662 1.419 . S
C1661 C1656 1.425 . S
C1661 C1658 1.409 . S
C1661 C1659 1.415 . S
C1662 H1652 0.930 . S
C1662 C1660 1.419 . S
C1662 C1663 1.362 . S
C1663 H1653 0.930 . S
C1663 C1656 1.409 1_565 S
C1663 C1662 1.362 . S
H1664 C1670 0.930 . S
H1665 C1673 0.930 . S
H1666 C1674 0.930 . S
H1667 C1675 0.930 . S
H1668 C1678 0.930 . S
H1669 C1679 0.930 . S
C1670 H1664 0.930 . S
C1670 C1671 1.355 . S
C1670 C1672 1.415 . S
C1671 C1670 1.355 . S
C1671 C1673 1.419 . S
C1672 C1670 1.415 . S
C1672 C1677 1.425 . S
C1672 C1679 1.409 . S
C1673 H1665 0.930 . S
C1673 C1671 1.419 . S
C1673 C1674 1.362 . S
C1674 H1666 0.930 . S
C1674 C1673 1.362 . S
C1674 C1677 1.409 . S
C1675 H1667 0.930 . S
C1675 C1676 1.355 . S
C1675 C1677 1.415 . S
C1676 C1675 1.355 . S
C1676 C1678 1.419 . S
C1677 C1672 1.425 . S
C1677 C1674 1.409 . S
C1677 C1675 1.415 . S
C1678 H1668 0.930 . S
C1678 C1676 1.419 . S
C1678 C1679 1.362 . S
C1679 H1669 0.930 . S
C1679 C1672 1.409 . S
C1679 C1678 1.362 . S
H1680 C1686 0.930 . S
H1681 C1689 0.930 . S
H1682 C1690 0.930 . S
H1683 C1691 0.930 . S
H1684 C1694 0.930 . S
H1685 C1695 0.930 . S
C1686 H1680 0.930 . S
C1686 C1687 1.355 . S
C1686 C1688 1.415 . S
C1687 C1686 1.355 . S
C1687 C1689 1.419 . S
C1688 C1686 1.415 . S
C1688 C1693 1.425 . S
C1688 C1695 1.409 . S
C1689 H1681 0.930 . S
C1689 C1687 1.419 . S
C1689 C1690 1.362 . S
C1690 H1682 0.930 . S
C1690 C1689 1.362 . S
C1690 C1693 1.409 . S
C1691 H1683 0.930 . S
C1691 C1692 1.355 1_565 S
C1691 C1693 1.415 . S
C1692 C1691 1.355 1_545 S
C1692 C1694 1.419 . S
C1693 C1688 1.425 . S
C1693 C1690 1.409 . S
C1693 C1691 1.415 . S
C1694 H1684 0.930 . S
C1694 C1692 1.419 . S
C1694 C1695 1.362 1_545 S
C1695 H1685 0.930 . S
C1695 C1688 1.409 . S
C1695 C1694 1.362 1_565 S
H1696 C1702 0.930 . S
H1697 C1705 0.930 . S
H1698 C1706 0.930 . S
H1699 C1707 0.930 . S
H1700 C1710 0.930 . S
H1701 C1711 0.930 . S
C1702 H1696 0.930 . S
C1702 C1703 1.355 . S
C1702 C1704 1.415 1_556 S
C1703 C1702 1.355 . S
C1703 C1705 1.419 . S
C1704 C1702 1.415 1_554 S
C1704 C1709 1.425 1_554 S
C1704 C1711 1.409 . S
C1705 H1697 0.930 . S
C1705 C1703 1.419 . S
C1705 C1706 1.362 . S
C1706 H1698 0.930 . S
C1706 C1705 1.362 . S
C1706 C1709 1.409 . S
C1707 H1699 0.930 . S
C1707 C1708 1.355 . S
C1707 C1709 1.415 1_554 S
C1708 C1707 1.355 . S
C1708 C1710 1.419 . S
C1709 C1704 1.425 1_556 S
C1709 C1706 1.409 . S
C1709 C1707 1.415 1_556 S
C1710 H1700 0.930 . S
C1710 C1708 1.419 . S
C1710 C1711 1.362 . S
C1711 H1701 0.930 . S
C1711 C1704 1.409 . S
C1711 C1710 1.362 . S
H1712 C1718 0.930 . S
H1713 C1721 0.930 . S
H1714 C1722 0.930 . S
H1715 C1723 0.930 . S
H1716 C1726 0.930 . S
H1717 C1727 0.930 . S
C1718 H1712 0.930 . S
C1718 C1719 1.355 . S
C1718 C1720 1.415 . S
C1719 C1718 1.355 . S
C1719 C1721 1.419 . S
C1720 C1718 1.415 . S
C1720 C1725 1.425 1_545 S
C1720 C1727 1.409 . S
C1721 H1713 0.930 . S
C1721 C1719 1.419 . S
C1721 C1722 1.362 1_545 S
C1722 H1714 0.930 . S
C1722 C1721 1.362 1_565 S
C1722 C1725 1.409 . S
C1723 H1715 0.930 . S
C1723 C1724 1.355 . S
C1723 C1725 1.415 . S
C1724 C1723 1.355 . S
C1724 C1726 1.419 . S
C1725 C1720 1.425 1_565 S
C1725 C1722 1.409 . S
C1725 C1723 1.415 . S
C1726 H1716 0.930 . S
C1726 C1724 1.419 . S
C1726 C1727 1.362 1_565 S
C1727 H1717 0.930 . S
C1727 C1720 1.409 . S
C1727 C1726 1.362 1_545 S
H1728 C1734 0.930 . S
H1729 C1737 0.930 . S
H1730 C1738 0.930 . S
H1731 C1739 0.930 . S
H1732 C1742 0.930 . S
H1733 C1743 0.930 . S
C1734 H1728 0.930 . S
C1734 C1735 1.355 . S
C1734 C1736 1.415 . S
C1735 C1734 1.355 . S
C1735 C1737 1.419 . S
C1736 C1734 1.415 . S
C1736 C1741 1.425 . S
C1736 C1743 1.409 . S
C1737 H1729 0.930 . S
C1737 C1735 1.419 . S
C1737 C1738 1.362 . S
C1738 H1730 0.930 . S
C1738 C1737 1.362 . S
C1738 C1741 1.409 . S
C1739 H1731 0.930 . S
C1739 C1740 1.355 . S
C1739 C1741 1.415 . S
C1740 C1739 1.355 . S
C1740 C1742 1.419 . S
C1741 C1736 1.425 . S
C1741 C1738 1.409 . S
C1741 C1739 1.415 . S
C1742 H1732 0.930 . S
C1742 C1740 1.419 . S
C1742 C1743 1.362 . S
C1743 H1733 0.930 . S
C1743 C1736 1.409 . S
C1743 C1742 1.362 . S
H1744 C1750 0.930 . S
H1745 C1753 0.930 . S
H1746 C1754 0.930 . S
H1747 C1755 0.930 . S
H1748 C1758 0.930 . S
H1749 C1759 0.930 . S
C1750 H1744 0.930 . S
C1750 C1751 1.355 . S
C1750 C1752 1.415 . S
C1751 C1750 1.355 . S
C1751 C1753 1.419 1_565 S
C1752 C1750 1.415 . S
C1752 C1757 1.425 1_565 S
C1752 C1759 1.409 . S
C1753 H1745 0.930 . S
C1753 C1751 1.419 1_545 S
C1753 C1754 1.362 . S
C1754 H1746 0.930 . S
C1754 C1753 1.362 . S
C1754 C1757 1.409 . S
C1755 H1747 0.930 . S
C1755 C1756 1.355 . S
C1755 C1757 1.415 . S
C1756 C1755 1.355 . S
C1756 C1758 1.419 . S
C1757 C1752 1.425 1_545 S
C1757 C1754 1.409 . S
C1757 C1755 1.415 . S
C1758 H1748 0.930 . S
C1758 C1756 1.419 . S
C1758 C1759 1.362 1_545 S
C1759 H1749 0.930 . S
C1759 C1752 1.409 . S
C1759 C1758 1.362 1_565 S
H1760 C1766 0.930 . S
H1761 C1769 0.930 . S
H1762 C1770 0.930 . S
H1763 C1771 0.930 . S
H1764 C1774 0.930 . S
H1765 C1775 0.930 1_554 S
C1766 H1760 0.930 . S
C1766 C1767 1.355 . S
C1766 C1768 1.415 1_554 S
C1767 C1766 1.355 . S
C1767 C1769 1.419 1_554 S
C1768 C1766 1.415 1_556 S
C1768 C1773 1.425 . S
C1768 C1775 1.409 . S
C1769 H1761 0.930 . S
C1769 C1767 1.419 1_556 S
C1769 C1770 1.362 . S
C1770 H1762 0.930 . S
C1770 C1769 1.362 . S
C1770 C1773 1.409 . S
C1771 H1763 0.930 . S
C1771 C1772 1.355 . S
C1771 C1773 1.415 . S
C1772 C1771 1.355 . S
C1772 C1774 1.419 . S
C1773 C1768 1.425 . S
C1773 C1770 1.409 . S
C1773 C1771 1.415 . S
C1774 H1764 0.930 . S
C1774 C1772 1.419 . S
C1774 C1775 1.362 . S
C1775 H1765 0.930 1_556 S
C1775 C1768 1.409 . S
C1775 C1774 1.362 . S
H1776 C1782 0.930 . S
H1777 C1785 0.930 . S
H1778 C1786 0.930 . S
H1779 C1787 0.930 . S
H1780 C1790 0.930 . S
H1781 C1791 0.930 . S
C1782 H1776 0.930 . S
C1782 C1783 1.355 1_455 S
C1782 C1784 1.415 . S
C1783 C1782 1.355 1_655 S
C1783 C1785 1.419 . S
C1784 C1782 1.415 . S
C1784 C1789 1.425 . S
C1784 C1791 1.409 . S
C1785 H1777 0.930 . S
C1785 C1783 1.419 . S
C1785 C1786 1.362 . S
C1786 H1778 0.930 . S
C1786 C1785 1.362 . S
C1786 C1789 1.409 1_655 S
C1787 H1779 0.930 . S
C1787 C1788 1.355 . S
C1787 C1789 1.415 . S
C1788 C1787 1.355 . S
C1788 C1790 1.419 . S
C1789 C1784 1.425 . S
C1789 C1786 1.409 1_455 S
C1789 C1787 1.415 . S
C1790 H1780 0.930 . S
C1790 C1788 1.419 . S
C1790 C1791 1.362 . S
C1791 H1781 0.930 . S
C1791 C1784 1.409 . S
C1791 C1790 1.362 . S
H1792 C1798 0.930 . S
H1793 C1801 0.930 . S
H1794 C1802 0.930 . S
H1795 C1803 0.930 . S
H1796 C1806 0.930 . S
H1797 C1807 0.930 . S
C1798 H1792 0.930 . S
C1798 C1799 1.355 . S
C1798 C1800 1.415 . S
C1799 C1798 1.355 . S
C1799 C1801 1.419 . S
C1800 C1798 1.415 . S
C1800 C1805 1.425 . S
C1800 C1807 1.409 . S
C1801 H1793 0.930 . S
C1801 C1799 1.419 . S
C1801 C1802 1.362 . S
C1802 H1794 0.930 . S
C1802 C1801 1.362 . S
C1802 C1805 1.409 . S
C1803 H1795 0.930 . S
C1803 C1804 1.355 . S
C1803 C1805 1.415 . S
C1804 C1803 1.355 . S
C1804 C1806 1.419 . S
C1805 C1800 1.425 . S
C1805 C1802 1.409 . S
C1805 C1803 1.415 . S
C1806 H1796 0.930 . S
C1806 C1804 1.419 . S
C1806 C1807 1.362 . S
C1807 H1797 0.930 . S
C1807 C1800 1.409 . S
C1807 C1806 1.362 . S
H1808 C1814 0.930 . S
H1809 C1817 0.930 . S
H1810 C1818 0.930 . S
H1811 C1819 0.930 . S
H1812 C1822 0.930 . S
H1813 C1823 0.930 . S
C1814 H1808 0.930 . S
C1814 C1815 1.355 . S
C1814 C1816 1.415 1_455 S
C1815 C1814 1.355 . S
C1815 C1817 1.419 . S
C1816 C1814 1.415 1_655 S
C1816 C1821 1.425 . S
C1816 C1823 1.409 . S
C1817 H1809 0.930 . S
C1817 C1815 1.419 . S
C1817 C1818 1.362 . S
C1818 H1810 0.930 . S
C1818 C1817 1.362 . S
C1818 C1821 1.409 1_455 S
C1819 H1811 0.930 . S
C1819 C1820 1.355 . S
C1819 C1821 1.415 . S
C1820 C1819 1.355 . S
C1820 C1822 1.419 . S
C1821 C1816 1.425 . S
C1821 C1818 1.409 1_655 S
C1821 C1819 1.415 . S
C1822 H1812 0.930 . S
C1822 C1820 1.419 . S
C1822 C1823 1.362 . S
C1823 H1813 0.930 . S
C1823 C1816 1.409 . S
C1823 C1822 1.362 . S
H1824 C1830 0.930 . S
H1825 C1833 0.930 . S
H1826 C1834 0.930 . S
H1827 C1835 0.930 . S
H1828 C1838 0.930 . S
H1829 C1839 0.930 . S
C1830 H1824 0.930 . S
C1830 C1831 1.355 1_655 S
C1830 C1832 1.415 . S
C1831 C1830 1.355 1_455 S
C1831 C1833 1.419 . S
C1832 C1830 1.415 . S
C1832 C1837 1.425 . S
C1832 C1839 1.409 . S
C1833 H1825 0.930 . S
C1833 C1831 1.419 . S
C1833 C1834 1.362 . S
C1834 H1826 0.930 . S
C1834 C1833 1.362 . S
C1834 C1837 1.409 1_455 S
C1835 H1827 0.930 . S
C1835 C1836 1.355 . S
C1835 C1837 1.415 . S
C1836 C1835 1.355 . S
C1836 C1838 1.419 . S
C1837 C1832 1.425 . S
C1837 C1834 1.409 1_655 S
C1837 C1835 1.415 . S
C1838 H1828 0.930 . S
C1838 C1836 1.419 . S
C1838 C1839 1.362 . S
C1839 H1829 0.930 . S
C1839 C1832 1.409 . S
C1839 C1838 1.362 . S
H1840 C1846 0.930 . S
H1841 C1849 0.930 . S
H1842 C1850 0.930 . S
H1843 C1851 0.930 . S
H1844 C1854 0.930 . S
H1845 C1855 0.930 . S
C1846 H1840 0.930 . S
C1846 C1847 1.355 . S
C1846 C1848 1.415 . S
C1847 C1846 1.355 . S
C1847 C1849 1.419 . S
C1848 C1846 1.415 . S
C1848 C1853 1.425 . S
C1848 C1855 1.409 . S
C1849 H1841 0.930 . S
C1849 C1847 1.419 . S
C1849 C1850 1.362 . S
C1850 H1842 0.930 . S
C1850 C1849 1.362 . S
C1850 C1853 1.409 . S
C1851 H1843 0.930 . S
C1851 C1852 1.355 . S
C1851 C1853 1.415 . S
C1852 C1851 1.355 . S
C1852 C1854 1.419 . S
C1853 C1848 1.425 . S
C1853 C1850 1.409 . S
C1853 C1851 1.415 . S
C1854 H1844 0.930 . S
C1854 C1852 1.419 . S
C1854 C1855 1.362 . S
C1855 H1845 0.930 . S
C1855 C1848 1.409 . S
C1855 C1854 1.362 . S
H1856 C1862 0.930 . S
H1857 C1865 0.930 . S
H1858 C1866 0.930 . S
H1859 C1867 0.930 . S
H1860 C1870 0.930 . S
H1861 C1871 0.930 1_655 S
C1862 H1856 0.930 . S
C1862 C1863 1.355 . S
C1862 C1864 1.415 1_655 S
C1863 C1862 1.355 . S
C1863 C1865 1.419 . S
C1864 C1862 1.415 1_455 S
C1864 C1869 1.425 . S
C1864 C1871 1.409 . S
C1865 H1857 0.930 . S
C1865 C1863 1.419 . S
C1865 C1866 1.362 1_655 S
C1866 H1858 0.930 . S
C1866 C1865 1.362 1_455 S
C1866 C1869 1.409 . S
C1867 H1859 0.930 . S
C1867 C1868 1.355 . S
C1867 C1869 1.415 . S
C1868 C1867 1.355 . S
C1868 C1870 1.419 . S
C1869 C1864 1.425 . S
C1869 C1866 1.409 . S
C1869 C1867 1.415 . S
C1870 H1860 0.930 . S
C1870 C1868 1.419 . S
C1870 C1871 1.362 . S
C1871 H1861 0.930 1_455 S
C1871 C1864 1.409 . S
C1871 C1870 1.362 . S
H1872 C1878 0.930 . S
H1873 C1881 0.930 . S
H1874 C1882 0.930 . S
H1875 C1883 0.930 . S
H1876 C1886 0.930 . S
H1877 C1887 0.930 . S
C1878 H1872 0.930 . S
C1878 C1879 1.355 . S
C1878 C1880 1.415 . S
C1879 C1878 1.355 . S
C1879 C1881 1.419 . S
C1880 C1878 1.415 . S
C1880 C1885 1.425 . S
C1880 C1887 1.409 . S
C1881 H1873 0.930 . S
C1881 C1879 1.419 . S
C1881 C1882 1.362 . S
C1882 H1874 0.930 . S
C1882 C1881 1.362 . S
C1882 C1885 1.409 . S
C1883 H1875 0.930 . S
C1883 C1884 1.355 . S
C1883 C1885 1.415 . S
C1884 C1883 1.355 . S
C1884 C1886 1.419 . S
C1885 C1880 1.425 . S
C1885 C1882 1.409 . S
C1885 C1883 1.415 . S
C1886 H1876 0.930 . S
C1886 C1884 1.419 . S
C1886 C1887 1.362 . S
C1887 H1877 0.930 . S
C1887 C1880 1.409 . S
C1887 C1886 1.362 . S
H1888 C1894 0.930 . S
H1889 C1897 0.930 . S
H1890 C1898 0.930 . S
H1891 C1899 0.930 . S
H1892 C1902 0.930 . S
H1893 C1903 0.930 . S
C1894 H1888 0.930 . S
C1894 C1895 1.355 . S
C1894 C1896 1.415 . S
C1895 C1894 1.355 . S
C1895 C1897 1.419 . S
C1896 C1894 1.415 . S
C1896 C1901 1.425 . S
C1896 C1903 1.409 . S
C1897 H1889 0.930 . S
C1897 C1895 1.419 . S
C1897 C1898 1.362 . S
C1898 H1890 0.930 . S
C1898 C1897 1.362 . S
C1898 C1901 1.409 . S
C1899 H1891 0.930 . S
C1899 C1900 1.355 . S
C1899 C1901 1.415 . S
C1900 C1899 1.355 . S
C1900 C1902 1.419 . S
C1901 C1896 1.425 . S
C1901 C1898 1.409 . S
C1901 C1899 1.415 . S
C1902 H1892 0.930 . S
C1902 C1900 1.419 . S
C1902 C1903 1.362 . S
C1903 H1893 0.930 . S
C1903 C1896 1.409 . S
C1903 C1902 1.362 . S
H1904 C1910 0.930 . S
H1905 C1913 0.930 . S
H1906 C1914 0.930 . S
H1907 C1915 0.930 . S
H1908 C1918 0.930 . S
H1909 C1919 0.930 1_554 S
C1910 H1904 0.930 . S
C1910 C1911 1.355 . S
C1910 C1912 1.415 . S
C1911 C1910 1.355 . S
C1911 C1913 1.419 . S
C1912 C1910 1.415 . S
C1912 C1917 1.425 1_554 S
C1912 C1919 1.409 1_554 S
C1913 H1905 0.930 . S
C1913 C1911 1.419 . S
C1913 C1914 1.362 1_554 S
C1914 H1906 0.930 . S
C1914 C1913 1.362 1_556 S
C1914 C1917 1.409 . S
C1915 H1907 0.930 . S
C1915 C1916 1.355 . S
C1915 C1917 1.415 . S
C1916 C1915 1.355 . S
C1916 C1918 1.419 . S
C1917 C1912 1.425 1_556 S
C1917 C1914 1.409 . S
C1917 C1915 1.415 . S
C1918 H1908 0.930 . S
C1918 C1916 1.419 . S
C1918 C1919 1.362 . S
C1919 H1909 0.930 1_556 S
C1919 C1912 1.409 1_556 S
C1919 C1918 1.362 . S
H1920 C1926 0.930 . S
H1921 C1929 0.930 . S
H1922 C1930 0.930 . S
H1923 C1931 0.930 . S
H1924 C1934 0.930 . S
H1925 C1935 0.930 . S
C1926 H1920 0.930 . S
C1926 C1927 1.355 . S
C1926 C1928 1.415 . S
C1927 C1926 1.355 . S
C1927 C1929 1.419 . S
C1928 C1926 1.415 . S
C1928 C1933 1.425 . S
C1928 C1935 1.409 . S
C1929 H1921 0.930 . S
C1929 C1927 1.419 . S
C1929 C1930 1.362 . S
C1930 H1922 0.930 . S
C1930 C1929 1.362 . S
C1930 C1933 1.409 . S
C1931 H1923 0.930 . S
C1931 C1932 1.355 . S
C1931 C1933 1.415 . S
C1932 C1931 1.355 . S
C1932 C1934 1.419 . S
C1933 C1928 1.425 . S
C1933 C1930 1.409 . S
C1933 C1931 1.415 . S
C1934 H1924 0.930 . S
C1934 C1932 1.419 . S
C1934 C1935 1.362 . S
C1935 H1925 0.930 . S
C1935 C1928 1.409 . S
C1935 C1934 1.362 . S
H1936 C1942 0.930 . S
H1937 C1945 0.930 . S
H1938 C1946 0.930 . S
H1939 C1947 0.930 . S
H1940 C1950 0.930 . S
H1941 C1951 0.930 . S
C1942 H1936 0.930 . S
C1942 C1943 1.355 . S
C1942 C1944 1.415 . S
C1943 C1942 1.355 . S
C1943 C1945 1.419 . S
C1944 C1942 1.415 . S
C1944 C1949 1.425 . S
C1944 C1951 1.409 . S
C1945 H1937 0.930 . S
C1945 C1943 1.419 . S
C1945 C1946 1.362 . S
C1946 H1938 0.930 . S
C1946 C1945 1.362 . S
C1946 C1949 1.409 . S
C1947 H1939 0.930 . S
C1947 C1948 1.355 . S
C1947 C1949 1.415 . S
C1948 C1947 1.355 . S
C1948 C1950 1.419 . S
C1949 C1944 1.425 . S
C1949 C1946 1.409 . S
C1949 C1947 1.415 . S
C1950 H1940 0.930 . S
C1950 C1948 1.419 . S
C1950 C1951 1.362 . S
C1951 H1941 0.930 . S
C1951 C1944 1.409 . S
C1951 C1950 1.362 . S
H1952 C1958 0.930 . S
H1953 C1961 0.930 . S
H1954 C1962 0.930 . S
H1955 C1963 0.930 . S
H1956 C1966 0.930 . S
H1957 C1967 0.930 . S
C1958 H1952 0.930 . S
C1958 C1959 1.355 . S
C1958 C1960 1.415 . S
C1959 C1958 1.355 . S
C1959 C1961 1.419 . S
C1960 C1958 1.415 . S
C1960 C1965 1.425 . S
C1960 C1967 1.409 . S
C1961 H1953 0.930 . S
C1961 C1959 1.419 . S
C1961 C1962 1.362 . S
C1962 H1954 0.930 . S
C1962 C1961 1.362 . S
C1962 C1965 1.409 . S
C1963 H1955 0.930 . S
C1963 C1964 1.355 . S
C1963 C1965 1.415 . S
C1964 C1963 1.355 . S
C1964 C1966 1.419 . S
C1965 C1960 1.425 . S
C1965 C1962 1.409 . S
C1965 C1963 1.415 . S
C1966 H1956 0.930 . S
C1966 C1964 1.419 . S
C1966 C1967 1.362 . S
C1967 H1957 0.930 . S
C1967 C1960 1.409 . S
C1967 C1966 1.362 . S
H1968 C1974 0.930 . S
H1969 C1977 0.930 . S
H1970 C1978 0.930 . S
H1971 C1979 0.931 . S
H1972 C1982 0.930 . S
H1973 C1983 0.930 . S
C1974 H1968 0.930 . S
C1974 C1975 1.355 . S
C1974 C1976 1.415 . S
C1975 C1974 1.355 . S
C1975 C1977 1.419 . S
C1976 C1974 1.415 . S
C1976 C1981 1.425 . S
C1976 C1983 1.409 1_554 S
C1977 H1969 0.930 . S
C1977 C1975 1.419 . S
C1977 C1978 1.362 . S
C1978 H1970 0.930 . S
C1978 C1977 1.362 . S
C1978 C1981 1.409 . S
C1979 H1971 0.931 . S
C1979 C1980 1.355 . S
C1979 C1981 1.415 1_556 S
C1980 C1979 1.355 . S
C1980 C1982 1.419 . S
C1981 C1976 1.425 . S
C1981 C1978 1.409 . S
C1981 C1979 1.415 1_554 S
C1982 H1972 0.930 . S
C1982 C1980 1.419 . S
C1982 C1983 1.362 . S
C1983 H1973 0.930 . S
C1983 C1976 1.409 1_556 S
C1983 C1982 1.362 . S
H1984 C1990 0.930 . S
H1985 C1993 0.930 . S
H1986 C1994 0.930 . S
H1987 C1995 0.930 . S
H1988 C1998 0.930 . S
H1989 C1999 0.930 . S
C1990 H1984 0.930 . S
C1990 C1991 1.355 . S
C1990 C1992 1.415 . S
C1991 C1990 1.355 . S
C1991 C1993 1.419 . S
C1992 C1990 1.415 . S
C1992 C1997 1.425 . S
C1992 C1999 1.409 . S
C1993 H1985 0.930 . S
C1993 C1991 1.419 . S
C1993 C1994 1.362 . S
C1994 H1986 0.930 . S
C1994 C1993 1.362 . S
C1994 C1997 1.409 . S
C1995 H1987 0.930 . S
C1995 C1996 1.355 . S
C1995 C1997 1.415 . S
C1996 C1995 1.355 . S
C1996 C1998 1.419 . S
C1997 C1992 1.425 . S
C1997 C1994 1.409 . S
C1997 C1995 1.415 . S
C1998 H1988 0.930 . S
C1998 C1996 1.419 . S
C1998 C1999 1.362 . S
C1999 H1989 0.930 . S
C1999 C1992 1.409 . S
C1999 C1998 1.362 . S
H2000 C2006 0.930 . S
H2001 C2009 0.930 . S
H2002 C2010 0.930 . S
H2003 C2011 0.930 . S
H2004 C2014 0.930 . S
H2005 C2015 0.930 . S
C2006 H2000 0.930 . S
C2006 C2007 1.355 . S
C2006 C2008 1.415 . S
C2007 C2006 1.355 . S
C2007 C2009 1.419 . S
C2008 C2006 1.415 . S
C2008 C2013 1.425 . S
C2008 C2015 1.409 . S
C2009 H2001 0.930 . S
C2009 C2007 1.419 . S
C2009 C2010 1.362 . S
C2010 H2002 0.930 . S
C2010 C2009 1.362 . S
C2010 C2013 1.409 . S
C2011 H2003 0.930 . S
C2011 C2012 1.355 . S
C2011 C2013 1.415 . S
C2012 C2011 1.355 . S
C2012 C2014 1.419 . S
C2013 C2008 1.425 . S
C2013 C2010 1.409 . S
C2013 C2011 1.415 . S
C2014 H2004 0.930 . S
C2014 C2012 1.419 . S
C2014 C2015 1.362 . S
C2015 H2005 0.930 . S
C2015 C2008 1.409 . S
C2015 C2014 1.362 . S
H2016 C2022 0.930 . S
H2017 C2025 0.930 . S
H2018 C2026 0.930 . S
H2019 C2027 0.930 . S
H2020 C2030 0.930 . S
H2021 C2031 0.930 . S
C2022 H2016 0.930 . S
C2022 C2023 1.355 . S
C2022 C2024 1.415 . S
C2023 C2022 1.355 . S
C2023 C2025 1.419 . S
C2024 C2022 1.415 . S
C2024 C2029 1.425 . S
C2024 C2031 1.409 . S
C2025 H2017 0.930 . S
C2025 C2023 1.419 . S
C2025 C2026 1.362 . S
C2026 H2018 0.930 . S
C2026 C2025 1.362 . S
C2026 C2029 1.409 . S
C2027 H2019 0.930 . S
C2027 C2028 1.355 . S
C2027 C2029 1.415 . S
C2028 C2027 1.355 . S
C2028 C2030 1.419 . S
C2029 C2024 1.425 . S
C2029 C2026 1.409 . S
C2029 C2027 1.415 . S
C2030 H2020 0.930 . S
C2030 C2028 1.419 . S
C2030 C2031 1.362 . S
C2031 H2021 0.930 . S
C2031 C2024 1.409 . S
C2031 C2030 1.362 . S
H2032 C2038 0.930 . S
H2033 C2041 0.930 . S
H2034 C2042 0.930 . S
H2035 C2043 0.930 . S
H2036 C2046 0.930 . S
H2037 C2047 0.930 . S
C2038 H2032 0.930 . S
C2038 C2039 1.355 . S
C2038 C2040 1.415 . S
C2039 C2038 1.355 . S
C2039 C2041 1.419 . S
C2040 C2038 1.415 . S
C2040 C2045 1.425 . S
C2040 C2047 1.409 . S
C2041 H2033 0.930 . S
C2041 C2039 1.419 . S
C2041 C2042 1.362 . S
C2042 H2034 0.930 . S
C2042 C2041 1.362 . S
C2042 C2045 1.409 . S
C2043 H2035 0.930 . S
C2043 C2044 1.355 . S
C2043 C2045 1.415 . S
C2044 C2043 1.355 . S
C2044 C2046 1.419 . S
C2045 C2040 1.425 . S
C2045 C2042 1.409 . S
C2045 C2043 1.415 . S
C2046 H2036 0.930 . S
C2046 C2044 1.419 . S
C2046 C2047 1.362 . S
C2047 H2037 0.930 . S
C2047 C2040 1.409 . S
C2047 C2046 1.362 . S
H2048 C2054 0.930 . S
H2049 C2057 0.930 . S
H2050 C2058 0.930 . S
H2051 C2059 0.930 1_554 S
H2052 C2062 0.930 . S
H2053 C2063 0.930 . S
C2054 H2048 0.930 . S
C2054 C2055 1.355 . S
C2054 C2056 1.415 . S
C2055 C2054 1.355 . S
C2055 C2057 1.419 . S
C2056 C2054 1.415 . S
C2056 C2061 1.425 . S
C2056 C2063 1.409 1_554 S
C2057 H2049 0.930 . S
C2057 C2055 1.419 . S
C2057 C2058 1.362 . S
C2058 H2050 0.930 . S
C2058 C2057 1.362 . S
C2058 C2061 1.409 . S
C2059 H2051 0.930 1_556 S
C2059 C2060 1.355 . S
C2059 C2061 1.415 1_556 S
C2060 C2059 1.355 . S
C2060 C2062 1.419 . S
C2061 C2056 1.425 . S
C2061 C2058 1.409 . S
C2061 C2059 1.415 1_554 S
C2062 H2052 0.930 . S
C2062 C2060 1.419 . S
C2062 C2063 1.362 . S
C2063 H2053 0.930 . S
C2063 C2056 1.409 1_556 S
C2063 C2062 1.362 . S
H2064 C2070 0.930 . S
H2065 C2073 0.930 . S
H2066 C2074 0.930 . S
H2067 C2075 0.930 . S
H2068 C2078 0.930 . S
H2069 C2079 0.930 . S
C2070 H2064 0.930 . S
C2070 C2071 1.355 . S
C2070 C2072 1.415 . S
C2071 C2070 1.355 . S
C2071 C2073 1.419 . S
C2072 C2070 1.415 . S
C2072 C2077 1.425 . S
C2072 C2079 1.409 . S
C2073 H2065 0.930 . S
C2073 C2071 1.419 . S
C2073 C2074 1.362 . S
C2074 H2066 0.930 . S
C2074 C2073 1.362 . S
C2074 C2077 1.409 . S
C2075 H2067 0.930 . S
C2075 C2076 1.355 . S
C2075 C2077 1.415 . S
C2076 C2075 1.355 . S
C2076 C2078 1.419 . S
C2077 C2072 1.425 . S
C2077 C2074 1.409 . S
C2077 C2075 1.415 . S
C2078 H2068 0.930 . S
C2078 C2076 1.419 . S
C2078 C2079 1.362 . S
C2079 H2069 0.930 . S
C2079 C2072 1.409 . S
C2079 C2078 1.362 . S
H2080 C2086 0.930 . S
H2081 C2089 0.930 . S
H2082 C2090 0.930 . S
H2083 C2091 0.930 . S
H2084 C2094 0.930 . S
H2085 C2095 0.930 . S
C2086 H2080 0.930 . S
C2086 C2087 1.355 . S
C2086 C2088 1.415 . S
C2087 C2086 1.355 . S
C2087 C2089 1.419 . S
C2088 C2086 1.415 . S
C2088 C2093 1.425 . S
C2088 C2095 1.409 . S
C2089 H2081 0.930 . S
C2089 C2087 1.419 . S
C2089 C2090 1.362 . S
C2090 H2082 0.930 . S
C2090 C2089 1.362 . S
C2090 C2093 1.409 . S
C2091 H2083 0.930 . S
C2091 C2092 1.355 . S
C2091 C2093 1.415 . S
C2092 C2091 1.355 . S
C2092 C2094 1.419 . S
C2093 C2088 1.425 . S
C2093 C2090 1.409 . S
C2093 C2091 1.415 . S
C2094 H2084 0.930 . S
C2094 C2092 1.419 . S
C2094 C2095 1.362 . S
C2095 H2085 0.930 . S
C2095 C2088 1.409 . S
C2095 C2094 1.362 . S
H2096 C2102 0.930 . S
H2097 C2105 0.930 . S
H2098 C2106 0.930 . S
H2099 C2107 0.930 . S
H2100 C2110 0.930 . S
H2101 C2111 0.930 . S
C2102 H2096 0.930 . S
C2102 C2103 1.355 . S
C2102 C2104 1.415 . S
C2103 C2102 1.355 . S
C2103 C2105 1.419 . S
C2104 C2102 1.415 . S
C2104 C2109 1.425 . S
C2104 C2111 1.409 . S
C2105 H2097 0.930 . S
C2105 C2103 1.419 . S
C2105 C2106 1.362 . S
C2106 H2098 0.930 . S
C2106 C2105 1.362 . S
C2106 C2109 1.409 . S
C2107 H2099 0.930 . S
C2107 C2108 1.355 . S
C2107 C2109 1.415 . S
C2108 C2107 1.355 . S
C2108 C2110 1.419 . S
C2109 C2104 1.425 . S
C2109 C2106 1.409 . S
C2109 C2107 1.415 . S
C2110 H2100 0.930 . S
C2110 C2108 1.419 . S
C2110 C2111 1.362 . S
C2111 H2101 0.930 . S
C2111 C2104 1.409 . S
C2111 C2110 1.362 . S
H2112 C2118 0.930 . S
H2113 C2121 0.930 . S
H2114 C2122 0.930 . S
H2115 C2123 0.930 . S
H2116 C2126 0.930 . S
H2117 C2127 0.930 . S
C2118 H2112 0.930 . S
C2118 C2119 1.355 . S
C2118 C2120 1.415 . S
C2119 C2118 1.355 . S
C2119 C2121 1.419 1_554 S
C2120 C2118 1.415 . S
C2120 C2125 1.425 1_554 S
C2120 C2127 1.409 . S
C2121 H2113 0.930 . S
C2121 C2119 1.419 1_556 S
C2121 C2122 1.362 . S
C2122 H2114 0.930 . S
C2122 C2121 1.362 . S
C2122 C2125 1.409 . S
C2123 H2115 0.930 . S
C2123 C2124 1.355 . S
C2123 C2125 1.415 . S
C2124 C2123 1.355 . S
C2124 C2126 1.419 . S
C2125 C2120 1.425 1_556 S
C2125 C2122 1.409 . S
C2125 C2123 1.415 . S
C2126 H2116 0.930 . S
C2126 C2124 1.419 . S
C2126 C2127 1.362 1_556 S
C2127 H2117 0.930 . S
C2127 C2120 1.409 . S
C2127 C2126 1.362 1_554 S
H2128 C2134 0.930 . S
H2129 C2137 0.930 . S
H2130 C2138 0.930 . S
H2131 C2139 0.930 . S
H2132 C2142 0.930 . S
H2133 C2143 0.930 . S
C2134 H2128 0.930 . S
C2134 C2135 1.355 . S
C2134 C2136 1.415 . S
C2135 C2134 1.355 . S
C2135 C2137 1.419 . S
C2136 C2134 1.415 . S
C2136 C2141 1.425 . S
C2136 C2143 1.409 . S
C2137 H2129 0.930 . S
C2137 C2135 1.419 . S
C2137 C2138 1.362 . S
C2138 H2130 0.930 . S
C2138 C2137 1.362 . S
C2138 C2141 1.409 . S
C2139 H2131 0.930 . S
C2139 C2140 1.355 . S
C2139 C2141 1.415 . S
C2140 C2139 1.355 . S
C2140 C2142 1.419 . S
C2141 C2136 1.425 . S
C2141 C2138 1.409 . S
C2141 C2139 1.415 . S
C2142 H2132 0.930 . S
C2142 C2140 1.419 . S
C2142 C2143 1.362 . S
C2143 H2133 0.930 . S
C2143 C2136 1.409 . S
C2143 C2142 1.362 . S
H2144 C2150 0.930 . S
H2145 C2153 0.930 . S
H2146 C2154 0.930 . S
H2147 C2155 0.930 . S
H2148 C2158 0.930 . S
H2149 C2159 0.930 . S
C2150 H2144 0.930 . S
C2150 C2151 1.355 . S
C2150 C2152 1.415 . S
C2151 C2150 1.355 . S
C2151 C2153 1.419 . S
C2152 C2150 1.415 . S
C2152 C2157 1.425 . S
C2152 C2159 1.409 . S
C2153 H2145 0.930 . S
C2153 C2151 1.419 . S
C2153 C2154 1.362 . S
C2154 H2146 0.930 . S
C2154 C2153 1.362 . S
C2154 C2157 1.409 . S
C2155 H2147 0.930 . S
C2155 C2156 1.355 . S
C2155 C2157 1.415 . S
C2156 C2155 1.355 . S
C2156 C2158 1.419 . S
C2157 C2152 1.425 . S
C2157 C2154 1.409 . S
C2157 C2155 1.415 . S
C2158 H2148 0.930 . S
C2158 C2156 1.419 . S
C2158 C2159 1.362 . S
C2159 H2149 0.930 . S
C2159 C2152 1.409 . S
C2159 C2158 1.362 . S
H2160 C2166 0.930 . S
H2161 C2169 0.930 . S
H2162 C2170 0.930 . S
H2163 C2171 0.930 . S
H2164 C2174 0.930 . S
H2165 C2175 0.930 . S
C2166 H2160 0.930 . S
C2166 C2167 1.355 . S
C2166 C2168 1.415 . S
C2167 C2166 1.355 . S
C2167 C2169 1.419 . S
C2168 C2166 1.415 . S
C2168 C2173 1.425 . S
C2168 C2175 1.409 . S
C2169 H2161 0.930 . S
C2169 C2167 1.419 . S
C2169 C2170 1.362 . S
C2170 H2162 0.930 . S
C2170 C2169 1.362 . S
C2170 C2173 1.409 . S
C2171 H2163 0.930 . S
C2171 C2172 1.355 . S
C2171 C2173 1.415 . S
C2172 C2171 1.355 . S
C2172 C2174 1.419 . S
C2173 C2168 1.425 . S
C2173 C2170 1.409 . S
C2173 C2171 1.415 . S
C2174 H2164 0.930 . S
C2174 C2172 1.419 . S
C2174 C2175 1.362 . S
C2175 H2165 0.930 . S
C2175 C2168 1.409 . S
C2175 C2174 1.362 . S
C1159 C2 0.768 . S
C1164 C470 0.773 . S
C1175 C902 1.231 . S
C1180 C38 1.230 . S
C1191 C74 1.361 . S
C1196 C542 1.370 . S
C1207 C110 1.608 . S
C1212 C866 1.597 . S
C1223 C146 1.483 . S
C1228 C614 1.475 . S
C1239 C182 1.382 . S
C1244 C794 1.369 . S
C1255 C218 1.356 . S
C1260 C686 1.362 . S
C1271 C1118 0.798 . S
C1276 C254 0.784 . S
C1287 C758 1.492 . S
C1292 C290 1.486 . S
C1303 C326 1.381 . S
C1308 C650 1.369 . S
C1319 C830 1.349 . S
C1324 C362 1.358 . S
C1335 C398 1.589 . S
C1340 C578 1.607 . S
C1351 C506 1.232 . S
C1356 C434 1.241 . S
C1367 C722 0.785 . S
C1372 C1010 0.792 . S
C1383 C1046 0.776 . S
C1388 C938 0.765 . S
C1399 C1082 1.361 . S
C1404 C974 1.351 . S
C1415 C14 1.369 . S
C1420 C39 1.526 . S
C1431 C76 1.397 . S
C1436 C40 1.418 . S
C1447 C122 1.590 . S
C1452 C86 1.543 . S
C1463 C111 1.417 . S
C1468 C4 1.388 . S
C1479 C266 1.322 . S
C1484 C147 1.483 . S
C1495 C183 1.578 . S
C1500 C158 1.518 . S
C1511 C230 1.703 . S
C1516 C194 1.637 . S
C1527 C220 1.588 . S
C1532 C255 1.605 . S
C1543 C328 1.727 . S
C1548 C3 1.746 . S
C1559 C292 1.387 . S
C1564 C112 1.343 . S
C1575 C363 1.445 . S
C1580 C50 1.301 . S
C1591 C975 1.649 . S
C1596 C256 1.632 . S
C1607 C1012 1.608 . S
C1612 C75 1.611 . S
C1623 C400 1.364 . S
C1628 C148 1.409 . S
C1639 C219 1.428 . S
C1644 C446 1.316 . S
C1655 C508 1.608 . S
C1660 C472 1.628 . S
C1671 C554 1.523 . S
C1676 C507 1.653 . S
C1687 C580 1.467 . S
C1692 C544 1.478 . S
C1703 C482 1.574 . S
C1708 C579 1.673 . S
C1719 C616 1.577 . S
C1724 C723 1.613 . S
C1735 C626 1.412 . S
C1740 C662 1.381 . S
C1751 C687 1.254 . S
C1756 C651 1.276 . S
C1767 C688 1.526 . S
C1772 C734 1.423 . S
C1783 C471 1.515 . S
C1788 C796 1.469 . S
C1799 C759 1.621 . S
C1804 C590 1.506 . S
C1815 C842 1.589 . S
C1820 C518 1.570 . S
C1831 C1083 1.679 . S
C1836 C724 1.663 . S
C1847 C1120 1.646 . S
C1852 C543 1.684 . S
C1863 C615 1.627 . S
C1868 C878 1.482 . S
C1879 C914 1.577 . S
C1884 C698 1.558 . S
C1895 C435 1.534 . S
C1900 C950 1.408 . S
C1911 C976 1.403 . S
C1916 C436 1.415 . S
C1927 C410 1.608 . S
C1932 C986 1.531 . S
C1943 C399 1.445 . S
C1948 C940 1.444 . S
C1959 C291 1.512 . S
C1964 C1022 1.412 . S
C1975 C327 1.572 . S
C1980 C302 1.520 . S
C1991 C374 1.704 . S
C1996 C338 1.636 . S
C2007 C364 1.568 . S
C2012 C1011 1.585 . S
C2023 C939 1.737 . S
C2028 C184 1.719 . S
C2039 C904 1.647 . S
C2044 C1048 1.619 . S
C2055 C903 1.653 . S
C2060 C1094 1.523 . S
C2071 C1084 1.472 . S
C2076 C868 1.475 . S
C2087 C867 1.671 . S
C2092 C1058 1.590 . S
C2103 C1119 1.593 . S
C2108 C760 1.602 . S
C2119 C770 1.368 . S
C2124 C806 1.386 . S
C2135 C831 1.267 . S
C2140 C795 1.247 . S
C2151 C832 1.533 . S
C2156 C1130 1.438 . S
C2167 C1047 1.489 . S
C2172 C652 1.458 . S
