# Generated by pormake.
# Topology wgq, (5)-cn, num edge types: 1
# Building blocks:
#     Node 0, Type 0, BuildingBlock: XOMCOT_clean_sbu_0, # of connection points: 5
#     Node 1, Type 0, BuildingBlock: XOMCOT_clean_sbu_0, # of connection points: 5
#     Node 2, Type 0, BuildingBlock: XOMCOT_clean_sbu_0, # of connection points: 5
#     Node 3, Type 0, BuildingBlock: XOMCOT_clean_sbu_0, # of connection points: 5
#     Node 4, Type 0, BuildingBlock: XOMCOT_clean_sbu_0, # of connection points: 5
#     Node 5, Type 0, BuildingBlock: XOMCOT_clean_sbu_0, # of connection points: 5
#     Node 6, Type 0, BuildingBlock: XOMCOT_clean_sbu_0, # of connection points: 5
#     Node 7, Type 0, BuildingBlock: XOMCOT_clean_sbu_0, # of connection points: 5
#     Node 8, Type 0, BuildingBlock: XOMCOT_clean_sbu_0, # of connection points: 5
#     Node 9, Type 0, BuildingBlock: XOMCOT_clean_sbu_0, # of connection points: 5
#     Node 10, Type 0, BuildingBlock: XOMCOT_clean_sbu_0, # of connection points: 5
#     Node 11, Type 0, BuildingBlock: XOMCOT_clean_sbu_0, # of connection points: 5
#     Node 12, Type 0, BuildingBlock: XOMCOT_clean_sbu_0, # of connection points: 5
#     Node 13, Type 0, BuildingBlock: XOMCOT_clean_sbu_0, # of connection points: 5
#     Node 14, Type 0, BuildingBlock: XOMCOT_clean_sbu_0, # of connection points: 5
#     Node 15, Type 0, BuildingBlock: XOMCOT_clean_sbu_0, # of connection points: 5
#     Node 16, Type 0, BuildingBlock: XOMCOT_clean_sbu_0, # of connection points: 5
#     Node 17, Type 0, BuildingBlock: XOMCOT_clean_sbu_0, # of connection points: 5
#     Node 18, Type 0, BuildingBlock: XOMCOT_clean_sbu_0, # of connection points: 5
#     Node 19, Type 0, BuildingBlock: XOMCOT_clean_sbu_0, # of connection points: 5
#     Node 20, Type 0, BuildingBlock: XOMCOT_clean_sbu_0, # of connection points: 5
#     Node 21, Type 0, BuildingBlock: XOMCOT_clean_sbu_0, # of connection points: 5
#     Node 22, Type 0, BuildingBlock: XOMCOT_clean_sbu_0, # of connection points: 5
#     Node 23, Type 0, BuildingBlock: XOMCOT_clean_sbu_0, # of connection points: 5
#     Node 24, Type 0, BuildingBlock: XOMCOT_clean_sbu_0, # of connection points: 5
#     Node 25, Type 0, BuildingBlock: XOMCOT_clean_sbu_0, # of connection points: 5
#     Node 26, Type 0, BuildingBlock: XOMCOT_clean_sbu_0, # of connection points: 5
#     Node 27, Type 0, BuildingBlock: XOMCOT_clean_sbu_0, # of connection points: 5
#     Node 28, Type 0, BuildingBlock: XOMCOT_clean_sbu_0, # of connection points: 5
#     Node 29, Type 0, BuildingBlock: XOMCOT_clean_sbu_0, # of connection points: 5
#     Node 30, Type 0, BuildingBlock: XOMCOT_clean_sbu_0, # of connection points: 5
#     Node 31, Type 0, BuildingBlock: XOMCOT_clean_sbu_0, # of connection points: 5
#     Edge 32, Type (0, 0), BuildingBlock: CIFDUS_clean_linker_0, # of connection points: 2
#     Edge 33, Type (0, 0), BuildingBlock: CIFDUS_clean_linker_0, # of connection points: 2
#     Edge 34, Type (0, 0), BuildingBlock: CIFDUS_clean_linker_0, # of connection points: 2
#     Edge 35, Type (0, 0), BuildingBlock: CIFDUS_clean_linker_0, # of connection points: 2
#     Edge 36, Type (0, 0), BuildingBlock: CIFDUS_clean_linker_0, # of connection points: 2
#     Edge 37, Type (0, 0), BuildingBlock: CIFDUS_clean_linker_0, # of connection points: 2
#     Edge 38, Type (0, 0), BuildingBlock: CIFDUS_clean_linker_0, # of connection points: 2
#     Edge 39, Type (0, 0), BuildingBlock: CIFDUS_clean_linker_0, # of connection points: 2
#     Edge 40, Type (0, 0), BuildingBlock: CIFDUS_clean_linker_0, # of connection points: 2
#     Edge 41, Type (0, 0), BuildingBlock: CIFDUS_clean_linker_0, # of connection points: 2
#     Edge 42, Type (0, 0), BuildingBlock: CIFDUS_clean_linker_0, # of connection points: 2
#     Edge 43, Type (0, 0), BuildingBlock: CIFDUS_clean_linker_0, # of connection points: 2
#     Edge 44, Type (0, 0), BuildingBlock: CIFDUS_clean_linker_0, # of connection points: 2
#     Edge 45, Type (0, 0), BuildingBlock: CIFDUS_clean_linker_0, # of connection points: 2
#     Edge 46, Type (0, 0), BuildingBlock: CIFDUS_clean_linker_0, # of connection points: 2
#     Edge 47, Type (0, 0), BuildingBlock: CIFDUS_clean_linker_0, # of connection points: 2
#     Edge 48, Type (0, 0), BuildingBlock: CIFDUS_clean_linker_0, # of connection points: 2
#     Edge 49, Type (0, 0), BuildingBlock: CIFDUS_clean_linker_0, # of connection points: 2
#     Edge 50, Type (0, 0), BuildingBlock: CIFDUS_clean_linker_0, # of connection points: 2
#     Edge 51, Type (0, 0), BuildingBlock: CIFDUS_clean_linker_0, # of connection points: 2
#     Edge 52, Type (0, 0), BuildingBlock: CIFDUS_clean_linker_0, # of connection points: 2
#     Edge 53, Type (0, 0), BuildingBlock: CIFDUS_clean_linker_0, # of connection points: 2
#     Edge 54, Type (0, 0), BuildingBlock: CIFDUS_clean_linker_0, # of connection points: 2
#     Edge 55, Type (0, 0), BuildingBlock: CIFDUS_clean_linker_0, # of connection points: 2
#     Edge 56, Type (0, 0), BuildingBlock: CIFDUS_clean_linker_0, # of connection points: 2
#     Edge 57, Type (0, 0), BuildingBlock: CIFDUS_clean_linker_0, # of connection points: 2
#     Edge 58, Type (0, 0), BuildingBlock: CIFDUS_clean_linker_0, # of connection points: 2
#     Edge 59, Type (0, 0), BuildingBlock: CIFDUS_clean_linker_0, # of connection points: 2
#     Edge 60, Type (0, 0), BuildingBlock: CIFDUS_clean_linker_0, # of connection points: 2
#     Edge 61, Type (0, 0), BuildingBlock: CIFDUS_clean_linker_0, # of connection points: 2
#     Edge 62, Type (0, 0), BuildingBlock: CIFDUS_clean_linker_0, # of connection points: 2
#     Edge 63, Type (0, 0), BuildingBlock: CIFDUS_clean_linker_0, # of connection points: 2
#     Edge 64, Type (0, 0), BuildingBlock: CIFDUS_clean_linker_0, # of connection points: 2
#     Edge 65, Type (0, 0), BuildingBlock: CIFDUS_clean_linker_0, # of connection points: 2
#     Edge 66, Type (0, 0), BuildingBlock: CIFDUS_clean_linker_0, # of connection points: 2
#     Edge 67, Type (0, 0), BuildingBlock: CIFDUS_clean_linker_0, # of connection points: 2
#     Edge 68, Type (0, 0), BuildingBlock: CIFDUS_clean_linker_0, # of connection points: 2
#     Edge 69, Type (0, 0), BuildingBlock: CIFDUS_clean_linker_0, # of connection points: 2
#     Edge 70, Type (0, 0), BuildingBlock: CIFDUS_clean_linker_0, # of connection points: 2
#     Edge 71, Type (0, 0), BuildingBlock: CIFDUS_clean_linker_0, # of connection points: 2
#     Edge 72, Type (0, 0), BuildingBlock: CIFDUS_clean_linker_0, # of connection points: 2
#     Edge 73, Type (0, 0), BuildingBlock: CIFDUS_clean_linker_0, # of connection points: 2
#     Edge 74, Type (0, 0), BuildingBlock: CIFDUS_clean_linker_0, # of connection points: 2
#     Edge 75, Type (0, 0), BuildingBlock: CIFDUS_clean_linker_0, # of connection points: 2
#     Edge 76, Type (0, 0), BuildingBlock: CIFDUS_clean_linker_0, # of connection points: 2
#     Edge 77, Type (0, 0), BuildingBlock: CIFDUS_clean_linker_0, # of connection points: 2
#     Edge 78, Type (0, 0), BuildingBlock: CIFDUS_clean_linker_0, # of connection points: 2
#     Edge 79, Type (0, 0), BuildingBlock: CIFDUS_clean_linker_0, # of connection points: 2
#     Edge 80, Type (0, 0), BuildingBlock: CIFDUS_clean_linker_0, # of connection points: 2
#     Edge 81, Type (0, 0), BuildingBlock: CIFDUS_clean_linker_0, # of connection points: 2
#     Edge 82, Type (0, 0), BuildingBlock: CIFDUS_clean_linker_0, # of connection points: 2
#     Edge 83, Type (0, 0), BuildingBlock: CIFDUS_clean_linker_0, # of connection points: 2
#     Edge 84, Type (0, 0), BuildingBlock: CIFDUS_clean_linker_0, # of connection points: 2
#     Edge 85, Type (0, 0), BuildingBlock: CIFDUS_clean_linker_0, # of connection points: 2
#     Edge 86, Type (0, 0), BuildingBlock: CIFDUS_clean_linker_0, # of connection points: 2
#     Edge 87, Type (0, 0), BuildingBlock: CIFDUS_clean_linker_0, # of connection points: 2
#     Edge 88, Type (0, 0), BuildingBlock: CIFDUS_clean_linker_0, # of connection points: 2
#     Edge 89, Type (0, 0), BuildingBlock: CIFDUS_clean_linker_0, # of connection points: 2
#     Edge 90, Type (0, 0), BuildingBlock: CIFDUS_clean_linker_0, # of connection points: 2
#     Edge 91, Type (0, 0), BuildingBlock: CIFDUS_clean_linker_0, # of connection points: 2
#     Edge 92, Type (0, 0), BuildingBlock: CIFDUS_clean_linker_0, # of connection points: 2
#     Edge 93, Type (0, 0), BuildingBlock: CIFDUS_clean_linker_0, # of connection points: 2
#     Edge 94, Type (0, 0), BuildingBlock: CIFDUS_clean_linker_0, # of connection points: 2
#     Edge 95, Type (0, 0), BuildingBlock: CIFDUS_clean_linker_0, # of connection points: 2
#     Edge 96, Type (0, 0), BuildingBlock: CIFDUS_clean_linker_0, # of connection points: 2
#     Edge 97, Type (0, 0), BuildingBlock: CIFDUS_clean_linker_0, # of connection points: 2
#     Edge 98, Type (0, 0), BuildingBlock: CIFDUS_clean_linker_0, # of connection points: 2
#     Edge 99, Type (0, 0), BuildingBlock: CIFDUS_clean_linker_0, # of connection points: 2
#     Edge 100, Type (0, 0), BuildingBlock: CIFDUS_clean_linker_0, # of connection points: 2
#     Edge 101, Type (0, 0), BuildingBlock: CIFDUS_clean_linker_0, # of connection points: 2
#     Edge 102, Type (0, 0), BuildingBlock: CIFDUS_clean_linker_0, # of connection points: 2
#     Edge 103, Type (0, 0), BuildingBlock: CIFDUS_clean_linker_0, # of connection points: 2
#     Edge 104, Type (0, 0), BuildingBlock: CIFDUS_clean_linker_0, # of connection points: 2
#     Edge 105, Type (0, 0), BuildingBlock: CIFDUS_clean_linker_0, # of connection points: 2
#     Edge 106, Type (0, 0), BuildingBlock: CIFDUS_clean_linker_0, # of connection points: 2
#     Edge 107, Type (0, 0), BuildingBlock: CIFDUS_clean_linker_0, # of connection points: 2
#     Edge 108, Type (0, 0), BuildingBlock: CIFDUS_clean_linker_0, # of connection points: 2
#     Edge 109, Type (0, 0), BuildingBlock: CIFDUS_clean_linker_0, # of connection points: 2
#     Edge 110, Type (0, 0), BuildingBlock: CIFDUS_clean_linker_0, # of connection points: 2
#     Edge 111, Type (0, 0), BuildingBlock: CIFDUS_clean_linker_0, # of connection points: 2
# Relax obj value: 0.346
# Max RMSD: 0.245
# Mean RMSD: 0.245
data_MOF--net-wgq--node1-XOMCOT_clean_sbu_0--edge1-CIFDUS_clean_linker_0
_symmetry_space_group_name_H-M    P1
_symmetry_Int_Tables_number       1
_symmetry_cell_setting            triclinic
loop_
_symmetry_equiv_pos_as_xyz
'x, y, z'
_cell_length_a     26.105731
_cell_length_b     26.131328
_cell_length_c     126.27901
_cell_angle_alpha  89.879693
_cell_angle_beta   89.962283
_cell_angle_gamma 90.088027
loop_
_atom_site_label
_atom_site_type_symbol
_atom_site_fract_x
_atom_site_fract_y
_atom_site_fract_z
_atom_type_partial_charge
Co0 Co 0.25428 0.05724 0.19536 0.0
C1 C 0.27723 0.03835 0.1723 0.0
C2 C 0.19705 0.03501 0.176 0.0
C3 C 0.20278 0.02675 0.16538 0.0
N4 N 0.2436 0.04183 0.18044 0.0
N5 N 0.25302 0.02882 0.16302 0.0
H6 H 0.31815 0.0437 0.17304 0.0
H7 H 0.16074 0.03822 0.18004 0.0
C8 C 0.15048 1.02161 0.20542 0.0
O9 O 0.16179 0.03795 0.21495 0.0
N10 N 0.26519 0.07132 0.2102 0.0
C11 C 0.28107 0.11578 0.21443 0.0
C12 C 0.28998 0.10833 0.22505 0.0
C13 C 0.26688 0.03696 0.21816 0.0
N14 N 0.28064 0.05869 0.22746 0.0
C15 C 0.22609 0.15001 0.18449 0.0
C16 C 0.14816 0.17666 0.19817 0.0
C17 C 0.15263 0.2031 0.18854 0.0
C18 C 0.19357 0.19058 0.18182 0.0
C19 C 0.18173 0.13718 0.20055 0.0
N20 N 0.21777 0.1217 0.19344 0.0
H21 H 0.25673 0.13998 0.17913 0.0
H22 H 0.17789 0.11898 0.20809 0.0
H23 H 0.28664 0.15097 0.21004 0.0
H24 H 0.25754 0.99702 0.21708 0.0
O25 O 0.3237 0.08187 0.19281 0.0
O26 O 0.30455 1.00147 0.19639 0.0
O27 O 0.18478 1.0208 0.19807 0.0
C28 C 0.34008 0.03578 0.19459 0.0
H29 H 0.17199 0.02224 0.15971 0.0
H30 H 0.30303 0.13752 0.23047 0.0
H31 H 0.11767 0.18464 0.20374 0.0
H32 H 0.19981 0.21107 0.17447 0.0
Co33 Co 0.24616 0.99566 0.44521 0.0
C34 C 0.25777 1.01927 0.42209 0.0
C35 C 0.29989 0.95248 0.42661 0.0
C36 C 0.30614 0.95995 0.41594 0.0
N37 N 0.26874 0.9891 0.43052 0.0
N38 N 0.2794 1.00172 0.41305 0.0
H39 H 0.23352 0.05272 0.42251 0.0
H40 H 0.31687 0.92154 0.43103 0.0
C41 C 0.27991 0.89165 0.45558 0.0
O42 O 0.26362 0.90386 0.46507 0.0
N43 N 0.22597 1.00406 0.45983 0.0
C44 C 0.17975 1.01818 0.46355 0.0
C45 C 0.1841 0.02808 0.47423 0.0
C46 C 0.2581 1.00801 0.46813 0.0
N47 N 0.2335 1.02145 0.47711 0.0
C48 C 0.1558 0.96696 0.43304 0.0
C49 C 0.12753 0.88838 0.44646 0.0
C50 C 0.10159 0.89384 0.43684 0.0
C51 C 0.11525 0.93459 0.43016 0.0
C52 C 0.16695 0.92144 0.449 0.0
N53 N 0.1831 0.95827 0.44211 0.0
H54 H 0.16521 0.99854 0.42792 0.0
H55 H 0.18425 0.91688 0.45661 0.0
H56 H 0.14564 0.02247 0.45878 0.0
H57 H 0.29876 1.00074 0.46751 0.0
O58 O 0.22204 0.0652 0.4427 0.0
O59 O 0.30064 0.0461 0.44765 0.0
O60 O 0.28078 0.92534 0.44809 0.0
C61 C 0.26698 0.08166 0.44546 0.0
H62 H 0.32705 0.93503 0.41065 0.0
H63 H 0.1534 0.0406 0.47935 0.0
H64 H 0.11878 0.85769 0.45195 0.0
H65 H 0.09517 0.94118 0.42278 0.0
Co66 Co 0.28294 0.99453 0.69536 0.0
C67 C 0.27117 1.00159 0.67224 0.0
C68 C 0.30471 0.06982 0.67867 0.0
C69 C 0.30349 0.07422 0.6678 0.0
N70 N 0.28512 0.02398 0.68137 0.0
N71 N 0.28274 0.03106 0.66375 0.0
H72 H 0.25453 0.96372 0.67189 0.0
H73 H 0.32057 0.09721 0.68418 0.0
C74 C 0.39024 1.00185 0.70313 0.0
O75 O 0.38014 0.95733 0.70752 0.0
N76 N 0.27823 0.96869 0.70982 0.0
C77 C 0.24551 0.9333 0.71375 0.0
C78 C 0.24251 0.93866 0.72458 0.0
C79 C 0.29236 0.99652 0.71834 0.0
N80 N 0.27185 0.97876 0.72746 0.0
C81 C 0.3113 0.88664 0.69364 0.0
C82 C 0.39898 0.90632 0.68197 0.0
C83 C 0.39372 0.85928 0.68705 0.0
C84 C 0.34818 0.84831 0.69247 0.0
C85 C 0.36213 0.94378 0.6836 0.0
N86 N 0.32093 0.93511 0.69011 0.0
H87 H 0.27696 0.87787 0.69793 0.0
H88 H 0.37028 0.98158 0.68058 0.0
H89 H 0.22084 0.90893 0.70909 0.0
H90 H 0.31461 0.0313 0.71774 0.0
O91 O 0.21336 0.97147 0.69273 0.0
O92 O 0.23329 0.04674 0.6995 0.0
O93 O 0.35338 0.02698 0.69868 0.0
C94 C 0.1975 1.01465 0.69658 0.0
H95 H 0.31892 0.10582 0.66326 0.0
H96 H 0.21705 0.91756 0.72976 0.0
H97 H 0.43383 0.91602 0.67774 0.0
H98 H 0.34267 0.81163 0.69633 0.0
Co99 Co 0.29576 0.05244 0.94602 0.0
C100 C 0.29371 0.03684 0.92227 0.0
C101 C 0.22926 0.07776 0.92839 0.0
C102 C 0.22238 0.07167 0.91772 0.0
N103 N 0.27501 0.05805 0.93125 0.0
N104 N 0.26296 0.04615 0.91385 0.0
H105 H 0.32756 1.01331 0.92189 0.0
H106 H 0.20172 0.09427 0.93378 0.0
C107 C 0.27249 0.16284 0.94301 0.0
O108 O 0.30031 0.15755 0.93441 0.0
N109 N 0.31163 0.04512 0.96085 0.0
C110 C 0.35415 0.02491 0.96519 0.0
C111 C 0.3475 0.0226 0.97601 0.0
C112 C 0.2795 0.05415 0.96899 0.0
N113 N 0.30046 0.04084 0.97837 0.0
C114 C 0.39428 0.07815 0.936 0.0
C115 C 0.41357 0.15878 0.94955 0.0
C116 C 0.44493 0.15293 0.94064 0.0
C117 C 0.43613 0.11062 0.93402 0.0
C118 C 0.37271 0.12587 0.95119 0.0
N119 N 0.36091 0.08844 0.94404 0.0
H120 H 0.38879 0.0454 0.93102 0.0
H121 H 0.34804 0.13324 0.95788 0.0
H122 H 0.38707 1.01174 0.96077 0.0
H123 H 0.24131 0.06944 0.96799 0.0
O124 O 0.31887 0.98278 0.94372 0.0
O125 O 0.23961 1.00361 0.94799 0.0
O126 O 0.26244 0.12311 0.94881 0.0
C127 C 0.2728 0.96748 0.94594 0.0
H128 H 0.18911 0.08342 0.91322 0.0
H129 H 0.37449 1.00692 0.98164 0.0
H130 H 0.41799 0.19062 0.95495 0.0
H131 H 0.46078 0.10307 0.92731 0.0
Co132 Co 0.24484 0.99334 0.31958 0.0
C133 C 0.26647 1.00907 0.34276 0.0
C134 C 0.20812 0.05901 0.33687 0.0
C135 C 0.21518 0.06915 0.34741 0.0
N136 N 0.23908 1.0202 0.33394 0.0
N137 N 0.2514 0.03734 0.35118 0.0
H138 H 0.29631 0.98044 0.34305 0.0
H139 H 0.18263 0.07996 0.33174 0.0
C140 C 0.1402 0.0239 0.30923 0.0
O141 O 0.15191 1.00554 0.29988 0.0
N142 N 0.25255 0.97013 0.30514 0.0
C143 C 0.26683 0.92355 0.30166 0.0
C144 C 0.27735 0.92689 0.29096 0.0
C145 C 0.2568 1.00132 0.29669 0.0
N146 N 0.27109 0.976 0.28787 0.0
C147 C 0.21272 0.90741 0.33298 0.0
C148 C 0.13271 0.87912 0.31997 0.0
C149 C 0.13463 0.85944 0.33022 0.0
C150 C 0.17666 0.87155 0.33662 0.0
C151 C 0.16952 0.91389 0.31667 0.0
N152 N 0.20655 0.93126 0.3234 0.0
H153 H 0.24478 0.91625 0.33796 0.0
H154 H 0.1671 0.92731 0.30868 0.0
H155 H 0.27114 0.89003 0.30662 0.0
H156 H 0.24971 0.04205 0.29709 0.0
O157 O 0.31482 0.97014 0.32219 0.0
O158 O 0.295 0.04729 0.31648 0.0
O159 O 0.17443 0.02707 0.31656 0.0
C160 C 0.3309 1.01457 0.31897 0.0
H161 H 0.1954 0.09831 0.35189 0.0
H162 H 0.29053 0.89598 0.28597 0.0
H163 H 0.10237 0.86824 0.31456 0.0
H164 H 0.18065 0.85491 0.34444 0.0
Co165 Co 0.30106 0.99272 0.56965 0.0
C166 C 0.28981 1.01296 0.59295 0.0
C167 C 0.24435 0.94947 0.58776 0.0
C168 C 0.23704 0.95539 0.5984 0.0
N169 N 0.27857 0.98456 0.58429 0.0
N170 N 0.26593 0.99489 0.6017 0.0
H171 H 0.31585 0.04522 0.59294 0.0
H172 H 0.22473 0.92154 0.58299 0.0
C173 C 0.26913 0.88755 0.55944 0.0
O174 O 0.28609 0.89851 0.54993 0.0
N175 N 0.32042 1.00263 0.55503 0.0
C176 C 0.36552 1.02007 0.5513 0.0
C177 C 0.36036 0.02992 0.54063 0.0
C178 C 0.28804 1.00424 0.54675 0.0
N179 N 0.31152 1.01977 0.53775 0.0
C180 C 0.39152 0.96207 0.58171 0.0
C181 C 0.42102 0.88742 0.56756 0.0
C182 C 0.44636 0.89038 0.57729 0.0
C183 C 0.43213 0.92929 0.58434 0.0
C184 C 0.38163 0.92093 0.56527 0.0
N185 N 0.36469 0.95563 0.57251 0.0
H186 H 0.38182 0.99215 0.58714 0.0
H187 H 0.36487 0.91825 0.55758 0.0
H188 H 0.39929 0.02664 0.55607 0.0
H189 H 0.24797 0.99424 0.54741 0.0
O190 O 0.32447 0.06229 0.5724 0.0
O191 O 0.2459 0.0426 0.56749 0.0
O192 O 0.26712 0.92227 0.56668 0.0
C193 C 0.27913 0.07837 0.56985 0.0
H194 H 0.21199 0.9325 0.60335 0.0
H195 H 0.39009 0.04489 0.53552 0.0
H196 H 0.43015 0.85831 0.56177 0.0
H197 H 0.45182 0.93416 0.59182 0.0
Co198 Co 0.29918 0.05142 0.81971 0.0
C199 C 0.27632 0.03966 0.84291 0.0
C200 C 0.34284 0.99767 0.83821 0.0
C201 C 0.33651 0.99175 0.8489 0.0
N202 N 0.30576 0.0286 0.83439 0.0
N203 N 0.29489 1.01835 0.85192 0.0
H204 H 0.24263 0.06363 0.84257 0.0
H205 H 0.3735 0.98062 0.83374 0.0
C206 C 0.40348 1.01779 0.80953 0.0
O207 O 0.39241 0.03528 0.80006 0.0
N208 N 0.2916 0.07153 0.80506 0.0
C209 C 0.28096 0.1182 0.80108 0.0
C210 C 0.27276 0.11356 0.79033 0.0
C211 C 0.2874 0.03905 0.79683 0.0
N212 N 0.27691 0.06368 0.78769 0.0
C213 C 0.32465 0.14198 0.83186 0.0
C214 C 0.4089 0.16861 0.81981 0.0
C215 C 0.40075 0.19321 0.82943 0.0
C216 C 0.35689 0.18146 0.83532 0.0
C217 C 0.37558 0.13028 0.81662 0.0
N218 N 0.33625 0.11449 0.82297 0.0
H219 H 0.29098 0.13315 0.83643 0.0
H220 H 0.38176 0.11372 0.809 0.0
H221 H 0.27826 0.15293 0.80569 0.0
H222 H 0.29274 0.99814 0.79757 0.0
O223 O 0.22941 0.07526 0.82217 0.0
O224 O 0.24879 0.99684 0.81725 0.0
O225 O 0.36921 1.01676 0.81688 0.0
C226 C 0.21307 0.0302 0.8195 0.0
H227 H 0.36225 0.9711 0.85407 0.0
H228 H 0.26316 0.14436 0.78495 0.0
H229 H 0.44118 0.17868 0.81481 0.0
H230 H 0.34855 0.20138 0.84263 0.0
Co231 Co 0.23977 0.04521 0.07053 0.0
C232 C 0.25542 0.02602 0.0934 0.0
C233 C 0.32227 0.05806 0.086 0.0
C234 C 0.33258 0.05049 0.09659 0.0
N235 N 0.27381 0.0432 0.08408 0.0
N236 N 0.29047 0.03044 0.10124 0.0
H237 H 0.21668 1.0121 0.09445 0.0
H238 H 0.34822 0.07343 0.08012 0.0
C239 C 0.24516 0.1538 0.06372 0.0
O240 O 0.1988 0.14463 0.06015 0.0
N241 N 0.20968 0.04484 0.05641 0.0
C242 C 0.17197 1.01479 0.05251 0.0
C243 C 0.17507 1.0143 0.0416 0.0
C244 C 0.23632 0.05995 0.04777 0.0
N245 N 0.21597 0.04242 0.03865 0.0
C246 C 0.13264 0.07159 0.07471 0.0
C247 C 0.15645 0.15433 0.08742 0.0
C248 C 0.10605 0.1486 0.0839 0.0
C249 C 0.09376 0.10514 0.07786 0.0
C250 C 0.19398 0.12087 0.0839 0.0
N251 N 0.18259 0.08189 0.07706 0.0
H252 H 0.12248 0.03873 0.07009 0.0
H253 H 0.23311 0.12892 0.08611 0.0
H254 H 0.1477 0.98982 0.05714 0.0
H255 H 0.27235 0.08024 0.04825 0.0
O256 O 0.21642 0.9755 0.07266 0.0
O257 O 0.29031 0.9961 0.06524 0.0
O258 O 0.27185 0.11616 0.06746 0.0
C259 C 0.25853 0.96015 0.06825 0.0
H260 H 0.36842 0.05891 0.10052 0.0
H261 H 0.15219 0.99088 0.03636 0.0
H262 H 0.16754 0.18599 0.09245 0.0
H263 H 0.05507 0.09837 0.07511 0.0
Co264 Co 0.79556 1.00383 0.82134 0.0
C265 C 0.78034 1.01179 0.84468 0.0
C266 C 0.81053 0.08103 0.83792 0.0
C267 C 0.80617 0.08738 0.84872 0.0
N268 N 0.79479 0.03356 0.83541 0.0
N269 N 0.78742 0.04376 0.853 0.0
H270 H 0.76658 0.97283 0.84532 0.0
H271 H 0.82467 0.10894 0.8323 0.0
C272 C 0.90427 1.0121 0.81411 0.0
O273 O 0.89482 0.96743 0.80978 0.0
N274 N 0.79374 0.97744 0.8068 0.0
C275 C 0.76425 0.93936 0.80288 0.0
C276 C 0.7635 0.94237 0.79199 0.0
C277 C 0.80769 1.00482 0.79811 0.0
N278 N 0.79062 0.98377 0.78897 0.0
C279 C 0.8243 0.89633 0.82381 0.0
C280 C 0.91188 0.91817 0.83529 0.0
C281 C 0.90735 0.87081 0.83034 0.0
C282 C 0.86171 0.85864 0.82509 0.0
C283 C 0.87429 0.95491 0.83357 0.0
N284 N 0.83354 0.94528 0.82702 0.0
H285 H 0.78977 0.88661 0.8197 0.0
H286 H 0.88157 0.99303 0.8365 0.0
H287 H 0.73983 0.91449 0.80749 0.0
H288 H 0.82743 0.04119 0.79853 0.0
O289 O 0.72571 0.97985 0.8235 0.0
O290 O 0.74535 0.05493 0.81663 0.0
O291 O 0.8666 0.03708 0.81836 0.0
C292 C 0.70959 0.02229 0.81934 0.0
H293 H 0.81584 0.12174 0.85305 0.0
H294 H 0.74069 0.91872 0.78677 0.0
H295 H 0.94665 0.92871 0.83944 0.0
H296 H 0.85656 0.82155 0.82142 0.0
Co297 Co 0.81401 0.03464 0.56836 0.0
C298 C 0.81304 0.02222 0.59252 0.0
C299 C 0.74408 0.05194 0.58576 0.0
C300 C 0.73728 0.04802 0.59648 0.0
N301 N 0.79206 0.03741 0.58318 0.0
N302 N 0.78068 0.02966 0.60081 0.0
H303 H 0.85014 1.00485 0.59334 0.0
H304 H 0.7154 0.0641 0.58011 0.0
C305 C 0.78661 0.14376 0.57204 0.0
O306 O 0.81299 0.13772 0.58081 0.0
N307 N 0.83113 0.0306 0.55344 0.0
C308 C 0.87511 1.01387 0.5491 0.0
C309 C 0.86922 1.01242 0.53824 0.0
C310 C 0.79893 0.03843 0.54523 0.0
N311 N 0.8212 0.02769 0.5358 0.0
C312 C 0.91298 0.05596 0.57828 0.0
C313 C 0.92993 0.14461 0.56683 0.0
C314 C 0.96086 0.13417 0.57557 0.0
C315 C 0.95422 0.08781 0.581 0.0
C316 C 0.88952 0.11206 0.56446 0.0
N317 N 0.87836 0.07106 0.57081 0.0
H318 H 0.90897 1.01956 0.58218 0.0
H319 H 0.86516 0.12179 0.55784 0.0
H320 H 0.90858 1.00225 0.55353 0.0
H321 H 0.75969 0.05087 0.5462 0.0
O322 O 0.83815 0.96494 0.57027 0.0
O323 O 0.75895 0.9852 0.56586 0.0
O324 O 0.77917 0.10486 0.56589 0.0
C325 C 0.79254 0.94928 0.5678 0.0
H326 H 0.7023 0.0566 0.60072 0.0
H327 H 0.89755 0.99911 0.53263 0.0
H328 H 0.93566 0.17886 0.56212 0.0
H329 H 0.97944 0.07721 0.58745 0.0
Co330 Co 0.74668 0.03867 0.31915 0.0
C331 C 0.75379 1.02129 0.34256 0.0
C332 C 0.73004 0.95432 0.33403 0.0
C333 C 0.72996 0.94318 0.34469 0.0
N334 N 0.74442 1.00333 0.33269 0.0
N335 N 0.74447 0.98534 0.3501 0.0
H336 H 0.76505 0.06036 0.34418 0.0
H337 H 0.71952 0.92867 0.32768 0.0
C338 C 0.6386 0.03327 0.3113 0.0
O339 O 0.64798 0.07931 0.30757 0.0
N340 N 0.75138 0.07112 0.30511 0.0
C341 C 0.78312 0.10959 0.30222 0.0
C342 C 0.78423 0.11353 0.29137 0.0
C343 C 0.73638 0.05021 0.29575 0.0
N344 N 0.75481 0.07619 0.28724 0.0
C345 C 0.71894 0.14524 0.32293 0.0
C346 C 0.62766 0.12095 0.33289 0.0
C347 C 0.63379 0.16945 0.32843 0.0
C348 C 0.68131 0.18278 0.32406 0.0
C349 C 0.66576 0.0845 0.33136 0.0
N350 N 0.70835 0.09553 0.32541 0.0
H351 H 0.75486 0.15583 0.31945 0.0
H352 H 0.6575 0.04568 0.33378 0.0
H353 H 0.80809 0.13049 0.30748 0.0
H354 H 0.71415 1.01536 0.29519 0.0
O355 O 0.81644 0.06066 0.32221 0.0
O356 O 0.7971 0.98889 0.314 0.0
O357 O 0.67618 1.00708 0.31524 0.0
C358 C 0.83277 1.01976 0.31748 0.0
H359 H 0.71988 0.90665 0.34816 0.0
H360 H 0.80821 0.1395 0.28688 0.0
H361 H 0.59158 0.10949 0.33642 0.0
H362 H 0.68794 0.2208 0.32091 0.0
Co363 Co 0.74154 1.00023 0.06976 0.0
C364 C 0.75308 1.01648 0.09294 0.0
C365 C 0.82131 0.98546 0.08598 0.0
C366 C 0.82871 0.98997 0.09676 0.0
N367 N 0.77377 1.00164 0.08362 0.0
N368 N 0.7857 1.00927 0.10116 0.0
H369 H 0.71424 0.03041 0.09371 0.0
H370 H 0.84843 0.97068 0.08028 0.0
C371 C 0.74904 0.89107 0.06285 0.0
O372 O 0.70322 0.89953 0.05892 0.0
N373 N 0.71179 1.0014 0.05547 0.0
C374 C 0.67214 0.03023 0.05205 0.0
C375 C 0.67045 0.02942 0.04118 0.0
C376 C 0.73559 0.98639 0.04641 0.0
N377 N 0.71041 1.00196 0.03758 0.0
C378 C 0.63424 0.97363 0.07381 0.0
C379 C 0.65735 0.88716 0.08549 0.0
C380 C 0.60735 0.89346 0.08175 0.0
C381 C 0.59528 0.93892 0.07635 0.0
C382 C 0.69501 0.92201 0.08255 0.0
N383 N 0.6841 0.96247 0.07603 0.0
H384 H 0.62411 1.00827 0.06979 0.0
H385 H 0.73396 0.91381 0.08487 0.0
H386 H 0.64904 0.05501 0.05692 0.0
H387 H 0.77185 0.9664 0.04628 0.0
O388 O 0.71797 0.07003 0.07202 0.0
O389 O 0.79167 0.05055 0.06455 0.0
O390 O 0.77458 0.92941 0.06667 0.0
C391 C 0.75969 0.08624 0.06754 0.0
H392 H 0.86326 0.97985 0.10099 0.0
H393 H 0.64425 0.05106 0.03627 0.0
H394 H 0.66812 0.85402 0.09014 0.0
H395 H 0.5568 0.94649 0.07358 0.0
Co396 Co 0.78291 0.0365 0.69533 0.0
C397 C 0.77187 0.03067 0.67187 0.0
C398 C 0.79958 0.9605 0.67861 0.0
C399 C 0.79842 0.95547 0.66776 0.0
N400 N 0.78351 1.00778 0.68117 0.0
N401 N 0.78137 0.99972 0.66349 0.0
H402 H 0.75915 0.06996 0.67126 0.0
H403 H 0.81235 0.93205 0.68425 0.0
C404 C 0.89043 0.02837 0.70281 0.0
O405 O 0.88067 0.07286 0.70719 0.0
N406 N 0.77994 0.06148 0.70997 0.0
C407 C 0.75072 0.09924 0.71407 0.0
C408 C 0.75141 0.09601 0.72498 0.0
C409 C 0.79491 0.03394 0.71855 0.0
N410 N 0.77915 0.05476 0.72779 0.0
C411 C 0.81168 0.1445 0.69326 0.0
C412 C 0.89841 0.12394 0.68139 0.0
C413 C 0.89348 0.17144 0.68623 0.0
C414 C 0.84847 0.18283 0.69178 0.0
C415 C 0.86183 0.08655 0.68337 0.0
N416 N 0.8211 0.09573 0.68996 0.0
H417 H 0.77749 0.15366 0.69754 0.0
H418 H 0.8697 0.04849 0.68049 0.0
H419 H 0.72626 0.1245 0.70958 0.0
H420 H 0.81517 0.99797 0.71799 0.0
O421 O 0.71334 0.06023 0.69303 0.0
O422 O 0.73315 0.98444 0.6996 0.0
O423 O 0.85331 1.00343 0.69839 0.0
C424 C 0.69742 1.0169 0.69685 0.0
H425 H 0.80953 0.92175 0.66336 0.0
H426 H 0.7297 0.11973 0.73037 0.0
H427 H 0.93292 0.11392 0.6771 0.0
H428 H 0.84332 0.21987 0.69546 0.0
Co429 Co 0.75567 0.03403 0.4428 0.0
C430 C 0.76558 0.02654 0.41905 0.0
C431 C 0.83475 0.05007 0.42689 0.0
C432 C 0.84323 0.05041 0.41615 0.0
N433 N 0.78603 0.03584 0.42874 0.0
N434 N 0.79974 0.03613 0.41117 0.0
H435 H 0.72609 1.01546 0.4178 0.0
H436 H 0.86201 0.06046 0.43296 0.0
C437 C 0.76447 0.14062 0.45086 0.0
O438 O 0.72004 0.13042 0.45527 0.0
N439 N 0.73006 0.02959 0.45737 0.0
C440 C 0.69292 0.99904 0.46137 0.0
C441 C 0.69746 0.99709 0.47226 0.0
C442 C 0.75831 0.04292 0.46594 0.0
N443 N 0.73887 0.02461 0.47513 0.0
C444 C 0.64851 0.06741 0.44138 0.0
C445 C 0.67221 0.1534 0.42956 0.0
C446 C 0.62538 0.15181 0.4349 0.0
C447 C 0.61227 0.10667 0.44035 0.0
C448 C 0.70748 0.11443 0.43105 0.0
N449 N 0.6971 0.07378 0.43759 0.0
H450 H 0.63812 0.03379 0.44576 0.0
H451 H 0.74536 0.12051 0.42787 0.0
H452 H 0.66731 0.97551 0.45675 0.0
H453 H 0.79415 0.06353 0.46536 0.0
O454 O 0.7316 0.96459 0.4402 0.0
O455 O 0.80705 0.9837 0.44701 0.0
O456 O 0.78916 0.104 0.44622 0.0
C457 C 0.77456 0.94826 0.44413 0.0
H458 H 0.87884 0.06072 0.4123 0.0
H459 H 0.67457 0.9737 0.47754 0.0
H460 H 0.68324 0.18625 0.42483 0.0
H461 H 0.57579 0.10284 0.44435 0.0
Co462 Co 0.75702 0.99204 0.19621 0.0
C463 C 0.77262 0.99695 0.17228 0.0
C464 C 0.74466 0.06646 0.17907 0.0
C465 C 0.74918 0.07332 0.1683 0.0
N466 N 0.75788 1.01808 0.18162 0.0
N467 N 0.76657 0.0295 0.164 0.0
H468 H 0.78804 0.95914 0.17142 0.0
H469 H 0.73215 0.09494 0.18471 0.0
C470 C 0.6482 1.022 0.19185 0.0
O471 O 0.65605 0.99903 0.18274 0.0
N472 N 0.75756 0.96866 0.21084 0.0
C473 C 0.77375 0.92242 0.21413 0.0
C474 C 0.77056 0.92031 0.22499 0.0
C475 C 0.74539 0.9945 0.21978 0.0
N476 N 0.7527 0.96554 0.2286 0.0
C477 C 0.74049 0.895 0.18525 0.0
C478 C 0.64614 0.87733 0.19446 0.0
C479 C 0.6612 0.84745 0.18586 0.0
C480 C 0.71025 0.8543 0.1816 0.0
C481 C 0.67748 0.91688 0.19782 0.0
N482 N 0.72129 0.92898 0.19243 0.0
H483 H 0.77916 0.89881 0.1824 0.0
H484 H 0.66507 0.9395 0.2045 0.0
H485 H 0.78756 0.89246 0.20897 0.0
H486 H 0.73165 0.03355 0.21982 0.0
O487 O 0.82731 0.96841 0.19461 0.0
O488 O 0.80646 0.04563 0.20008 0.0
O489 O 0.68603 0.02671 0.19844 0.0
C490 C 0.84274 1.0127 0.19796 0.0
H491 H 0.74104 0.10826 0.16401 0.0
H492 H 0.78201 0.88823 0.22987 0.0
H493 H 0.60983 0.87083 0.19841 0.0
H494 H 0.72449 0.82933 0.17543 0.0
Co495 Co 0.80376 1.01752 0.94751 0.0
C496 C 0.79569 0.03283 0.92417 0.0
C497 C 0.72685 1.00127 0.93084 0.0
C498 C 0.7208 1.00522 0.92002 0.0
N499 N 0.77395 1.01806 0.93341 0.0
N500 N 0.76419 0.0248 0.91579 0.0
H501 H 0.83448 0.04723 0.92357 0.0
H502 H 0.69909 0.98648 0.93642 0.0
C503 C 0.7959 0.90867 0.95438 0.0
O504 O 0.84131 0.91707 0.95852 0.0
N505 N 0.83073 1.01952 0.96204 0.0
C506 C 0.86839 0.05014 0.96575 0.0
C507 C 0.86947 0.04767 0.97662 0.0
C508 C 0.80718 1.00175 0.97094 0.0
N509 N 0.831 1.01719 0.97993 0.0
C510 C 0.85373 0.94107 0.93499 0.0
C511 C 0.95187 0.95677 0.94233 0.0
C512 C 0.94141 0.913 0.93625 0.0
C513 C 0.89222 0.90753 0.93202 0.0
C514 C 0.91227 0.99086 0.94478 0.0
N515 N 0.86304 0.98056 0.94184 0.0
H516 H 0.81537 0.93275 0.9323 0.0
H517 H 0.92144 0.02426 0.9493 0.0
H518 H 0.89103 0.07624 0.96103 0.0
H519 H 0.77235 0.97929 0.97085 0.0
O520 O 0.82653 0.08764 0.94531 0.0
O521 O 0.75151 0.06624 0.95209 0.0
O522 O 0.77086 0.94683 0.95041 0.0
C523 C 0.78312 0.10264 0.94924 0.0
H524 H 0.68686 0.99454 0.91563 0.0
H525 H 0.89451 0.06956 0.98173 0.0
H526 H 0.98959 0.96374 0.94558 0.0
H527 H 0.88254 0.87615 0.9268 0.0
Co528 Co 0.7443 0.53892 0.69631 0.0
C529 C 0.76812 0.53151 0.67296 0.0
C530 C 0.7067 0.48214 0.67774 0.0
C531 C 0.71349 0.47699 0.66705 0.0
N532 N 0.73986 0.51743 0.68151 0.0
N533 N 0.75163 0.50837 0.66399 0.0
H534 H 0.79917 0.55896 0.67321 0.0
H535 H 0.67937 0.4605 0.68233 0.0
C536 C 0.63812 0.50339 0.70574 0.0
O537 O 0.64838 0.51806 0.71544 0.0
N538 N 0.75045 0.55735 0.71109 0.0
C539 C 0.7627 0.60334 0.7152 0.0
C540 C 0.76897 0.59796 0.72598 0.0
C541 C 0.75225 0.52434 0.7193 0.0
N542 N 0.76219 0.5482 0.72854 0.0
C543 C 0.71445 0.6305 0.68438 0.0
C544 C 0.63489 0.65547 0.69779 0.0
C545 C 0.64022 0.68292 0.68835 0.0
C546 C 0.68143 0.67085 0.68166 0.0
C547 C 0.66861 0.61644 0.70018 0.0
N548 N 0.70605 0.60182 0.69329 0.0
H549 H 0.74645 0.62266 0.67929 0.0
H550 H 0.66406 0.5983 0.70771 0.0
H551 H 0.76754 0.63813 0.71065 0.0
H552 H 0.74558 0.48365 0.71848 0.0
O553 O 0.81411 0.56413 0.69424 0.0
O554 O 0.7956 0.48509 0.6989 0.0
O555 O 0.67351 0.50342 0.69859 0.0
C556 C 0.83104 0.5194 0.69699 0.0
H557 H 0.69207 0.45168 0.66191 0.0
H558 H 0.77896 0.62817 0.73145 0.0
H559 H 0.60391 0.66286 0.70328 0.0
H560 H 0.68802 0.69215 0.67442 0.0
Co561 Co 0.74974 0.51764 0.94539 0.0
C562 C 0.75819 0.53072 0.92214 0.0
C563 C 0.82687 0.50001 0.92901 0.0
C564 C 0.83399 0.50467 0.91825 0.0
N565 N 0.77928 0.5159 0.93139 0.0
N566 N 0.79073 0.52379 0.91392 0.0
H567 H 0.71945 0.54502 0.92144 0.0
H568 H 0.85445 0.48609 0.93471 0.0
C569 C 0.75708 0.40989 0.95313 0.0
O570 O 0.71208 0.41925 0.95736 0.0
N571 N 0.72374 0.52191 0.95984 0.0
C572 C 0.68854 0.55481 0.96372 0.0
C573 C 0.69302 0.55701 0.97456 0.0
C574 C 0.75069 0.50689 0.96845 0.0
N575 N 0.73238 0.52695 0.97755 0.0
C576 C 0.64157 0.48965 0.94379 0.0
C577 C 0.66089 0.40098 0.93254 0.0
C578 C 0.6145 0.40586 0.93791 0.0
C579 C 0.60355 0.45207 0.94305 0.0
C580 C 0.69806 0.43877 0.9337 0.0
N581 N 0.68981 0.48024 0.94012 0.0
H582 H 0.63288 0.52436 0.94791 0.0
H583 H 0.73562 0.43103 0.93051 0.0
H584 H 0.66486 0.58001 0.95903 0.0
H585 H 0.78519 0.48426 0.96793 0.0
O586 O 0.72787 0.5879 0.94289 0.0
O587 O 0.80275 0.56626 0.94963 0.0
O588 O 0.7819 0.44702 0.94866 0.0
C589 C 0.77146 0.60278 0.94679 0.0
H590 H 0.86866 0.4952 0.91399 0.0
H591 H 0.67177 0.58235 0.97971 0.0
H592 H 0.67057 0.36589 0.92844 0.0
H593 H 0.56719 0.45768 0.94701 0.0
Co594 Co 0.79903 0.51573 0.19344 0.0
C595 C 0.78738 0.53305 0.17026 0.0
C596 C 0.8177 0.59847 0.1784 0.0
C597 C 0.81528 0.60962 0.16777 0.0
N598 N 0.80068 0.55043 0.17993 0.0
N599 N 0.79638 0.56846 0.16261 0.0
H600 H 0.77215 0.49512 0.16889 0.0
H601 H 0.83186 0.62331 0.18459 0.0
C602 C 0.90767 0.5193 0.20091 0.0
O603 O 0.89747 0.47349 0.20468 0.0
N604 N 0.79555 0.48512 0.20754 0.0
C605 C 0.76329 0.4486 0.21121 0.0
C606 C 0.76175 0.4507 0.22211 0.0
C607 C 0.81077 0.51034 0.21634 0.0
N608 N 0.79141 0.48992 0.22533 0.0
C609 C 0.82403 0.40865 0.19003 0.0
C610 C 0.91421 0.42956 0.17934 0.0
C611 C 0.90746 0.38169 0.18405 0.0
C612 C 0.86046 0.37005 0.18882 0.0
C613 C 0.87735 0.46718 0.18096 0.0
N614 N 0.83545 0.45776 0.18721 0.0
H615 H 0.7886 0.39959 0.19391 0.0
H616 H 0.88615 0.50555 0.17832 0.0
H617 H 0.73774 0.42589 0.2064 0.0
H618 H 0.83274 0.54541 0.21608 0.0
O619 O 0.72903 0.49411 0.19073 0.0
O620 O 0.74937 0.56643 0.19862 0.0
O621 O 0.87056 0.54617 0.19698 0.0
C622 C 0.71328 0.53538 0.19537 0.0
H623 H 0.82804 0.64489 0.16411 0.0
H624 H 0.73678 0.42834 0.22717 0.0
H625 H 0.95009 0.43965 0.17555 0.0
H626 H 0.85362 0.33269 0.19228 0.0
Co627 Co 0.79645 0.53384 0.44447 0.0
C628 C 0.78597 0.52059 0.42131 0.0
C629 C 0.71739 0.55027 0.42841 0.0
C630 C 0.71009 0.54721 0.41763 0.0
N631 N 0.76509 0.53413 0.43065 0.0
N632 N 0.75332 0.5288 0.41317 0.0
H633 H 0.82494 0.50711 0.42047 0.0
H634 H 0.69017 0.56404 0.43419 0.0
C635 C 0.78857 0.64169 0.45184 0.0
O636 O 0.83366 0.63248 0.45604 0.0
N637 N 0.82415 0.5312 0.45883 0.0
C638 C 0.86216 0.50149 0.46272 0.0
C639 C 0.8596 0.50111 0.47362 0.0
C640 C 0.79733 0.54557 0.46751 0.0
N641 N 0.81856 0.52868 0.47662 0.0
C642 C 0.90374 0.56296 0.44172 0.0
C643 C 0.88104 0.65014 0.43018 0.0
C644 C 0.92891 0.6456 0.43492 0.0
C645 C 0.94147 0.60025 0.44023 0.0
C646 C 0.84428 0.61286 0.43213 0.0
N647 N 0.8545 0.57217 0.43866 0.0
H648 H 0.91366 0.52861 0.44588 0.0
H649 H 0.80585 0.6203 0.42938 0.0
H650 H 0.88673 0.47704 0.45808 0.0
H651 H 0.76115 0.56559 0.46711 0.0
O652 O 0.82042 0.4646 0.442 0.0
O653 O 0.74558 0.48353 0.44912 0.0
O654 O 0.76333 0.6041 0.44768 0.0
C655 C 0.77787 0.44819 0.4461 0.0
H656 H 0.6756 0.55777 0.41341 0.0
H657 H 0.88326 0.47845 0.47888 0.0
H658 H 0.8702 0.68485 0.42603 0.0
H659 H 0.97887 0.59532 0.4438 0.0
Co660 Co 0.75445 0.49124 0.82073 0.0
C661 C 0.77493 0.50742 0.84347 0.0
C662 C 0.74179 0.57396 0.83619 0.0
C663 C 0.74858 0.58358 0.84683 0.0
N664 N 0.75782 0.52608 0.83416 0.0
N665 N 0.76921 0.54161 0.8514 0.0
H666 H 0.78919 0.46884 0.84445 0.0
H667 H 0.7256 0.59971 0.83038 0.0
C668 C 0.64413 0.49573 0.81448 0.0
O669 O 0.65273 0.44902 0.81109 0.0
N670 N 0.75344 0.45962 0.80678 0.0
C671 C 0.78473 0.42283 0.80297 0.0
C672 C 0.78561 0.42559 0.79207 0.0
C673 C 0.73753 0.48518 0.79807 0.0
N674 N 0.75625 0.46529 0.78899 0.0
C675 C 0.72928 0.38449 0.82537 0.0
C676 C 0.64693 0.40803 0.83824 0.0
C677 C 0.65241 0.35773 0.83466 0.0
C678 C 0.69584 0.34555 0.82859 0.0
C679 C 0.68017 0.44567 0.8346 0.0
N680 N 0.71882 0.43437 0.82766 0.0
H681 H 0.76202 0.37443 0.82069 0.0
H682 H 0.67206 0.48478 0.83677 0.0
H683 H 0.8106 0.39987 0.80765 0.0
H684 H 0.71623 0.52052 0.79849 0.0
O685 O 0.82499 0.46907 0.82265 0.0
O686 O 0.80316 0.54111 0.81478 0.0
O687 O 0.6825 0.52257 0.8179 0.0
C688 C 0.83982 0.51012 0.81774 0.0
H689 H 0.73894 0.61876 0.85087 0.0
H690 H 0.81033 0.40349 0.78695 0.0
H691 H 0.61536 0.41902 0.84331 0.0
H692 H 0.7025 0.30698 0.82581 0.0
Co693 Co 0.79418 0.49746 0.07024 0.0
C694 C 0.78587 0.51161 0.094 0.0
C695 C 0.72994 0.46008 0.08764 0.0
C696 C 0.72477 0.46049 0.09843 0.0
N697 N 0.7695 0.49057 0.08478 0.0
N698 N 0.76003 0.49254 0.10242 0.0
H699 H 0.81617 0.53961 0.09464 0.0
H700 H 0.70595 0.4385 0.08231 0.0
C701 C 0.75887 0.39382 0.05982 0.0
O702 O 0.77496 0.40614 0.05031 0.0
N703 N 0.81587 0.50521 0.05567 0.0
C704 C 0.86337 0.51395 0.05188 0.0
C705 C 0.86017 0.52211 0.04111 0.0
C706 C 0.78441 0.51051 0.04728 0.0
N707 N 0.81039 0.51979 0.03823 0.0
C708 C 0.88778 0.47491 0.08195 0.0
C709 C 0.91 0.38683 0.07084 0.0
C710 C 0.93732 0.39743 0.08005 0.0
C711 C 0.92786 0.44328 0.08541 0.0
C712 C 0.87127 0.41956 0.06766 0.0
N713 N 0.85739 0.4607 0.07365 0.0
H714 H 0.88144 0.5106 0.08595 0.0
H715 H 0.85331 0.41181 0.06024 0.0
H716 H 0.8978 0.51527 0.05664 0.0
H717 H 0.74322 0.50652 0.04782 0.0
O718 O 0.81699 0.56764 0.07278 0.0
O719 O 0.73931 0.54703 0.0675 0.0
O720 O 0.76017 0.42689 0.06738 0.0
C721 C 0.77198 0.58326 0.06986 0.0
H722 H 0.69747 0.43852 0.10303 0.0
H723 H 0.89193 0.53028 0.03586 0.0
H724 H 0.91855 0.35331 0.06612 0.0
H725 H 0.95026 0.45388 0.09228 0.0
Co726 Co 0.78504 0.55503 0.3185 0.0
C727 C 0.77147 0.55363 0.34249 0.0
C728 C 0.79501 0.4826 0.33562 0.0
C729 C 0.79018 0.47561 0.34633 0.0
N730 N 0.7846 0.53175 0.33316 0.0
N731 N 0.77566 0.5203 0.35067 0.0
H732 H 0.75854 0.59237 0.34343 0.0
H733 H 0.80527 0.4535 0.32993 0.0
C734 C 0.89268 0.52462 0.3231 0.0
O735 O 0.88504 0.54941 0.332 0.0
N736 N 0.78427 0.57378 0.30372 0.0
C737 C 0.76931 0.61851 0.29944 0.0
C738 C 0.7701 0.61376 0.28857 0.0
C739 C 0.79339 0.54233 0.2955 0.0
N740 N 0.78506 0.56575 0.2861 0.0
C741 C 0.80391 0.65366 0.32859 0.0
C742 C 0.89762 0.6686 0.31888 0.0
C743 C 0.88376 0.70015 0.32731 0.0
C744 C 0.83503 0.69455 0.33182 0.0
C745 C 0.86543 0.62888 0.31592 0.0
N746 N 0.82183 0.61844 0.32153 0.0
H747 H 0.76568 0.65045 0.33172 0.0
H748 H 0.87711 0.60469 0.30942 0.0
H749 H 0.75735 0.65169 0.3039 0.0
H750 H 0.80499 0.50284 0.29642 0.0
O751 O 0.71543 0.5802 0.31989 0.0
O752 O 0.73508 0.50089 0.31552 0.0
O753 O 0.85504 0.51904 0.31653 0.0
C754 C 0.69944 0.53483 0.31737 0.0
H755 H 0.79586 0.43998 0.35055 0.0
H756 H 0.75851 0.64283 0.28295 0.0
H757 H 0.93372 0.67386 0.31477 0.0
H758 H 0.82178 0.72054 0.3379 0.0
Co759 Co 0.76128 0.53495 0.56991 0.0
C760 C 0.7641 0.52234 0.59319 0.0
C761 C 0.83405 0.55446 0.5872 0.0
C762 C 0.83687 0.55251 0.59809 0.0
N763 N 0.7882 0.53612 0.58418 0.0
N764 N 0.79269 0.53256 0.6019 0.0
H765 H 0.72583 0.50651 0.59328 0.0
H766 H 0.86275 0.56974 0.58187 0.0
C767 C 0.77187 0.6422 0.56227 0.0
O768 O 0.72769 0.63299 0.55767 0.0
N769 N 0.73759 0.53126 0.55525 0.0
C770 C 0.70013 0.5014 0.55119 0.0
C771 C 0.70418 0.5008 0.54032 0.0
C772 C 0.76577 0.54543 0.54672 0.0
N773 N 0.74562 0.5284 0.53752 0.0
C774 C 0.65321 0.56412 0.57137 0.0
C775 C 0.67286 0.65171 0.58297 0.0
C776 C 0.62574 0.64631 0.57795 0.0
C777 C 0.6148 0.6009 0.57254 0.0
C778 C 0.71036 0.61494 0.58134 0.0
N779 N 0.70175 0.57384 0.57484 0.0
H780 H 0.64424 0.52951 0.56724 0.0
H781 H 0.74811 0.62281 0.58442 0.0
H782 H 0.6747 0.47715 0.55571 0.0
H783 H 0.80177 0.56579 0.54729 0.0
O784 O 0.73617 0.46593 0.57225 0.0
O785 O 0.81342 0.4843 0.56617 0.0
O786 O 0.79577 0.60481 0.56683 0.0
C787 C 0.77989 0.44927 0.56881 0.0
H788 H 0.86847 0.5666 0.60279 0.0
H789 H 0.681 0.4782 0.53497 0.0
H790 H 0.68244 0.68646 0.58721 0.0
H791 H 0.57797 0.59525 0.56876 0.0
Co792 Co 0.28453 0.49181 0.32019 0.0
C793 C 0.27374 0.48825 0.34428 0.0
C794 C 0.30568 0.55761 0.33809 0.0
C795 C 0.30213 0.5622 0.34887 0.0
N796 N 0.28962 0.51068 0.33513 0.0
N797 N 0.28236 0.51852 0.35282 0.0
H798 H 0.25475 0.45176 0.34476 0.0
H799 H 0.31835 0.58721 0.33269 0.0
C800 C 0.39443 0.51874 0.32327 0.0
O801 O 0.39001 0.49047 0.33184 0.0
N802 N 0.27795 0.47709 0.30525 0.0
C803 C 0.25666 0.43518 0.30092 0.0
C804 C 0.25458 0.44183 0.29012 0.0
C805 C 0.28828 0.5088 0.29708 0.0
N806 N 0.27445 0.48822 0.28765 0.0
C807 C 0.30785 0.39112 0.32915 0.0
C808 C 0.39347 0.37663 0.31665 0.0
C809 C 0.38423 0.34228 0.32497 0.0
C810 C 0.33949 0.34871 0.33102 0.0
C811 C 0.36097 0.41778 0.31507 0.0
N812 N 0.32142 0.42735 0.32187 0.0
H813 H 0.27258 0.39441 0.33347 0.0
H814 H 0.36971 0.44394 0.30868 0.0
H815 H 0.2424 0.40267 0.30535 0.0
H816 H 0.30483 0.54641 0.2981 0.0
O817 O 0.21527 0.46681 0.32229 0.0
O818 O 0.23463 0.54712 0.31851 0.0
O819 O 0.35431 0.52755 0.31753 0.0
C820 C 0.19919 0.51278 0.32032 0.0
H821 H 0.31177 0.59598 0.3534 0.0
H822 H 0.23796 0.41496 0.2846 0.0
H823 H 0.42708 0.37374 0.31167 0.0
H824 H 0.32921 0.32156 0.33715 0.0
Co825 Co 0.29307 0.54544 0.06787 0.0
C826 C 0.29544 0.53287 0.0918 0.0
C827 C 0.22742 0.56824 0.08591 0.0
C828 C 0.22374 0.56521 0.09673 0.0
N829 N 0.27325 0.54994 0.08277 0.0
N830 N 0.26667 0.54313 0.10051 0.0
H831 H 0.33039 0.5112 0.09206 0.0
H832 H 0.1984 0.58321 0.08064 0.0
C833 C 0.26845 0.65548 0.07116 0.0
O834 O 0.29657 0.6502 0.07972 0.0
N835 N 0.30878 0.53972 0.05296 0.0
C836 C 0.35214 0.52152 0.0486 0.0
C837 C 0.34639 0.52098 0.03776 0.0
C838 C 0.27699 0.54932 0.04478 0.0
N839 N 0.29908 0.53835 0.03535 0.0
C840 C 0.39359 0.56513 0.07719 0.0
C841 C 0.4111 0.65265 0.06541 0.0
C842 C 0.44282 0.6419 0.07402 0.0
C843 C 0.43585 0.59608 0.0796 0.0
C844 C 0.36973 0.62091 0.06333 0.0
N845 N 0.35838 0.58065 0.06987 0.0
H846 H 0.38933 0.5291 0.0812 0.0
H847 H 0.34479 0.63078 0.05682 0.0
H848 H 0.38524 0.50875 0.05302 0.0
H849 H 0.23839 0.56361 0.04574 0.0
O850 O 0.31629 0.47571 0.06994 0.0
O851 O 0.23684 0.49688 0.06588 0.0
O852 O 0.25917 0.61597 0.0653 0.0
C853 C 0.27011 0.46063 0.0678 0.0
H854 H 0.19186 0.57895 0.10139 0.0
H855 H 0.37432 0.50721 0.03211 0.0
H856 H 0.41702 0.68655 0.0606 0.0
H857 H 0.46158 0.5853 0.08594 0.0
Co858 Co 0.24996 0.54593 0.81858 0.0
C859 C 0.25938 0.53477 0.8425 0.0
C860 C 0.21252 0.47731 0.83528 0.0
C861 C 0.21012 0.47094 0.84604 0.0
N862 N 0.2417 0.51859 0.83295 0.0
N863 N 0.23923 0.50718 0.85059 0.0
H864 H 0.28588 0.566 0.84363 0.0
H865 H 0.19363 0.45308 0.82957 0.0
C866 C 0.14609 0.51121 0.80784 0.0
O867 O 0.15746 0.52824 0.79834 0.0
N868 N 0.25928 0.5712 0.8042 0.0
C869 C 0.27192 0.61944 0.80151 0.0
C870 C 0.27878 0.62197 0.79073 0.0
C871 C 0.26106 0.54449 0.79503 0.0
N872 N 0.27142 0.5749 0.78655 0.0
C873 C 0.22548 0.63845 0.83068 0.0
C874 C 0.1411 0.66303 0.81857 0.0
C875 C 0.15066 0.69151 0.82771 0.0
C876 C 0.1942 0.67959 0.83374 0.0
C877 C 0.17312 0.62312 0.81586 0.0
N878 N 0.21266 0.60848 0.82222 0.0
H879 H 0.26024 0.63164 0.83499 0.0
H880 H 0.16644 0.60511 0.80841 0.0
H881 H 0.2764 0.65068 0.80704 0.0
H882 H 0.25421 0.50373 0.79466 0.0
O883 O 0.31986 0.56806 0.82162 0.0
O884 O 0.29948 0.49156 0.81563 0.0
O885 O 0.17964 0.5123 0.81532 0.0
C886 C 0.33555 0.52349 0.81847 0.0
H887 H 0.18825 0.44209 0.85025 0.0
H888 H 0.28901 0.65623 0.78641 0.0
H889 H 0.10851 0.67083 0.81351 0.0
H890 H 0.20422 0.70203 0.84063 0.0
Co891 Co 0.255 0.49574 0.57234 0.0
C892 C 0.27226 0.50902 0.59568 0.0
C893 C 0.33835 0.48117 0.58738 0.0
C894 C 0.34991 0.48409 0.59798 0.0
N895 N 0.28968 0.49635 0.58593 0.0
N896 N 0.30841 0.50147 0.60326 0.0
H897 H 0.2338 0.52261 0.59718 0.0
H898 H 0.3634 0.4678 0.58115 0.0
C899 C 0.25954 0.38682 0.56529 0.0
O900 O 0.21349 0.39646 0.56161 0.0
N901 N 0.22475 0.49701 0.55817 0.0
C902 C 0.18672 0.52683 0.55434 0.0
C903 C 0.18909 0.52738 0.54341 0.0
C904 C 0.25108 0.4824 0.54944 0.0
N905 N 0.22995 0.4997 0.54035 0.0
C906 C 0.14786 0.46909 0.57628 0.0
C907 C 0.17073 0.38301 0.58811 0.0
C908 C 0.1211 0.38851 0.58411 0.0
C909 C 0.10907 0.43382 0.57863 0.0
C910 C 0.20827 0.41842 0.58538 0.0
N911 N 0.19756 0.45875 0.5788 0.0
H912 H 0.13799 0.50317 0.57201 0.0
H913 H 0.24714 0.41038 0.58778 0.0
H914 H 0.16259 0.55158 0.55901 0.0
H915 H 0.2873 0.46244 0.5498 0.0
O916 O 0.23249 0.56589 0.57465 0.0
O917 O 0.30516 0.54551 0.56688 0.0
O918 O 0.28632 0.42433 0.56912 0.0
C919 C 0.2737 0.58161 0.5699 0.0
H920 H 0.38581 0.4726 0.60152 0.0
H921 H 0.16564 0.55051 0.53821 0.0
H922 H 0.18144 0.34993 0.59279 0.0
H923 H 0.07091 0.44068 0.57561 0.0
Co924 Co 0.30214 0.55681 0.19488 0.0
C925 C 0.28077 0.54338 0.1715 0.0
C926 C 0.34222 0.49624 0.17704 0.0
C927 C 0.33681 0.4886 0.16638 0.0
N928 N 0.30824 0.53183 0.18031 0.0
N929 N 0.29868 0.51863 0.16284 0.0
H930 H 0.24927 0.57022 0.17135 0.0
H931 H 0.36922 0.47609 0.18196 0.0
C932 C 0.40722 0.52607 0.20502 0.0
O933 O 0.3961 0.54413 0.21443 0.0
N934 N 0.29469 0.57818 0.2095 0.0
C935 C 0.28278 0.62472 0.21335 0.0
C936 C 0.27533 0.62056 0.22416 0.0
C937 C 0.29185 0.54619 0.21788 0.0
N938 N 0.28118 0.57102 0.22699 0.0
C939 C 0.33161 0.64416 0.18187 0.0
C940 C 0.4145 0.67067 0.19424 0.0
C941 C 0.41081 0.69074 0.18403 0.0
C942 C 0.36728 0.67973 0.17799 0.0
C943 C 0.37797 0.63611 0.19778 0.0
N944 N 0.33977 0.61937 0.19127 0.0
H945 H 0.29832 0.63598 0.17718 0.0
H946 H 0.38147 0.62237 0.20572 0.0
H947 H 0.27882 0.65904 0.20862 0.0
H948 H 0.29833 0.50543 0.21725 0.0
O949 O 0.23251 0.58049 0.19233 0.0
O950 O 0.25185 0.50259 0.1977 0.0
O951 O 0.37251 0.52284 0.19779 0.0
C952 C 0.21619 0.53576 0.19529 0.0
H953 H 0.35921 0.46256 0.1616 0.0
H954 H 0.26503 0.65145 0.22943 0.0
H955 H 0.44599 0.68098 0.19941 0.0
H956 H 0.36186 0.69685 0.17026 0.0
Co957 Co 0.2452 0.55242 0.94257 0.0
C958 C 0.26286 0.54037 0.91917 0.0
C959 C 0.32674 0.57292 0.92749 0.0
C960 C 0.33892 0.57021 0.91693 0.0
N961 N 0.27904 0.55472 0.9289 0.0
N962 N 0.29892 0.5497 0.91163 0.0
H963 H 0.22555 0.52382 0.91768 0.0
H964 H 0.35088 0.58779 0.93372 0.0
C965 C 0.24919 0.66023 0.95008 0.0
O966 O 0.20322 0.65021 0.9538 0.0
N967 N 0.21594 0.54838 0.95682 0.0
C968 C 0.17959 0.51616 0.96057 0.0
C969 C 0.18215 0.51475 0.97148 0.0
C970 C 0.24162 0.56363 0.96558 0.0
N971 N 0.22153 0.54441 0.97461 0.0
C972 C 0.13745 0.57683 0.9394 0.0
C973 C 0.15663 0.66423 0.9277 0.0
C974 C 0.10779 0.65724 0.93207 0.0
C975 C 0.09764 0.61128 0.93747 0.0
C976 C 0.19541 0.62973 0.9301 0.0
N977 N 0.18649 0.58871 0.9366 0.0
H978 H 0.12891 0.54211 0.94357 0.0
H979 H 0.23372 0.63892 0.92748 0.0
H980 H 0.15655 0.49065 0.95582 0.0
H981 H 0.2767 0.58562 0.96525 0.0
O982 O 0.22326 0.48281 0.93994 0.0
O983 O 0.29703 0.50342 0.94739 0.0
O984 O 0.27593 0.62334 0.9461 0.0
C985 C 0.26554 0.46747 0.94428 0.0
H986 H 0.37436 0.58362 0.91345 0.0
H987 H 0.15994 0.48992 0.9766 0.0
H988 H 0.16587 0.69765 0.92299 0.0
H989 H 0.06022 0.6031 0.94076 0.0
Co990 Co 0.24374 0.48918 0.69624 0.0
C991 C 0.25908 0.50362 0.67252 0.0
C992 C 0.20625 0.55698 0.6793 0.0
C993 C 0.20669 0.56405 0.66854 0.0
N994 N 0.23751 0.5177 0.68189 0.0
N995 N 0.23949 0.53035 0.66426 0.0
H996 H 0.28741 0.47378 0.67167 0.0
H997 H 0.18372 0.57924 0.68476 0.0
C998 C 0.13841 0.52201 0.70665 0.0
O999 O 0.1489 0.50408 0.71612 0.0
N1000 N 0.25159 0.46292 0.71059 0.0
C1001 C 0.26513 0.4148 0.71319 0.0
C1002 C 0.27206 0.41199 0.72397 0.0
C1003 C 0.25299 0.48931 0.71979 0.0
N1004 N 0.26402 0.45877 0.72819 0.0
C1005 C 0.21381 0.40068 0.68323 0.0
C1006 C 0.13367 0.37314 0.6963 0.0
C1007 C 0.13953 0.34736 0.68671 0.0
C1008 C 0.18083 0.36081 0.68015 0.0
C1009 C 0.16724 0.41172 0.69902 0.0
N1010 N 0.20487 0.42782 0.69229 0.0
H1011 H 0.2466 0.40875 0.67838 0.0
H1012 H 0.163 0.42775 0.70673 0.0
H1013 H 0.27045 0.38399 0.70759 0.0
H1014 H 0.24559 0.52995 0.72028 0.0
O1015 O 0.31325 0.46545 0.69332 0.0
O1016 O 0.29515 0.54173 0.69965 0.0
O1017 O 0.17334 0.52353 0.69942 0.0
C1018 C 0.33038 0.50874 0.69689 0.0
H1019 H 0.18379 0.59128 0.66414 0.0
H1020 H 0.28336 0.37807 0.72829 0.0
H1021 H 0.10271 0.36431 0.70173 0.0
H1022 H 0.18779 0.34058 0.67282 0.0
Co1023 Co 0.29073 0.49654 0.44716 0.0
C1024 C 0.28485 0.51129 0.42382 0.0
C1025 C 0.21389 0.48433 0.4304 0.0
C1026 C 0.20862 0.48789 0.41957 0.0
N1027 N 0.26181 0.4984 0.43303 0.0
N1028 N 0.25335 0.50451 0.41541 0.0
H1029 H 0.32451 0.52312 0.42328 0.0
H1030 H 0.18508 0.47151 0.43597 0.0
C1031 C 0.27852 0.38829 0.45428 0.0
O1032 O 0.32214 0.39678 0.45915 0.0
N1033 N 0.31578 0.49767 0.46175 0.0
C1034 C 0.35426 0.52602 0.46586 0.0
C1035 C 0.34985 0.52687 0.47673 0.0
C1036 C 0.28685 0.48463 0.47026 0.0
N1037 N 0.30723 0.50099 0.4795 0.0
C1038 C 0.39704 0.45959 0.44551 0.0
C1039 C 0.37116 0.37814 0.43264 0.0
C1040 C 0.41857 0.37738 0.43775 0.0
C1041 C 0.4326 0.42023 0.44381 0.0
C1042 C 0.3366 0.41695 0.4348 0.0
N1043 N 0.34815 0.45549 0.44175 0.0
H1044 H 0.40848 0.49155 0.45025 0.0
H1045 H 0.2985 0.41259 0.43163 0.0
H1046 H 0.38077 0.54912 0.46133 0.0
H1047 H 0.25004 0.46582 0.46963 0.0
O1048 O 0.31747 0.56557 0.44497 0.0
O1049 O 0.24115 0.54889 0.45157 0.0
O1050 O 0.25487 0.42669 0.44997 0.0
C1051 C 0.27508 0.5834 0.44886 0.0
H1052 H 0.17438 0.47885 0.41512 0.0
H1053 H 0.37371 0.54863 0.4821 0.0
H1054 H 0.3593 0.34731 0.42747 0.0
H1055 H 0.4695 0.42227 0.44769 0.0
H1056 H 0.2669 0.92645 0.26909 0.0
H1057 H 0.29291 0.07492 0.28306 0.0
H1058 H 0.29892 0.11323 0.26557 0.0
H1059 H 0.29338 0.10562 0.24645 0.0
H1060 H 0.27152 0.95679 0.23223 0.0
H1061 H 0.26784 0.91797 0.24968 0.0
C1062 C 0.27459 0.96704 0.26833 0.0
C1063 C 0.27856 0.99767 0.27745 0.0
C1064 C 0.27858 0.98902 0.25818 0.0
C1065 C 0.28828 0.05037 0.27625 0.0
C1066 C 0.29213 0.0724 0.26621 0.0
C1067 C 0.28842 0.06464 0.24703 0.0
C1068 C 0.28222 0.03479 0.23783 0.0
C1069 C 0.2867 0.04221 0.25713 0.0
C1070 C 0.27563 0.9815 0.23902 0.0
C1071 C 0.27369 0.95895 0.24906 0.0
H1072 H 0.18276 1.02065 0.49582 0.0
H1073 H 0.33421 0.03312 0.48223 0.0
H1074 H 0.37156 0.03404 0.49984 0.0
H1075 H 0.3618 0.02783 0.51903 0.0
H1076 H 0.20997 1.02116 0.53265 0.0
H1077 H 0.17263 1.02173 0.51507 0.0
C1078 C 0.22386 0.02439 0.49664 0.0
C1079 C 0.25534 0.0261 0.48759 0.0
C1080 C 0.24529 0.02563 0.50684 0.0
C1081 C 0.30872 0.0305 0.48896 0.0
C1082 C 0.33029 0.03138 0.49907 0.0
C1083 C 0.32054 0.02726 0.51824 0.0
C1084 C 0.28917 0.02377 0.5273 0.0
C1085 C 0.29898 0.02837 0.50806 0.0
C1086 C 0.2356 0.02267 0.52594 0.0
C1087 C 0.21396 0.02334 0.51583 0.0
H1088 H 0.2545 0.93281 0.7463 0.0
H1089 H 0.2958 0.07771 0.73214 0.0
H1090 H 0.30097 0.11657 0.74956 0.0
H1091 H 0.29403 0.10985 0.76888 0.0
H1092 H 0.24906 0.96621 0.78304 0.0
H1093 H 0.2447 0.92683 0.76559 0.0
C1094 C 0.26417 0.97299 0.74699 0.0
C1095 C 0.27497 1.00189 0.73783 0.0
C1096 C 0.2664 0.99554 0.75707 0.0
C1097 C 0.28816 0.05389 0.73897 0.0
C1098 C 0.29074 0.07646 0.74897 0.0
C1099 C 0.28265 0.07013 0.76816 0.0
C1100 C 0.27213 0.04114 0.77731 0.0
C1101 C 0.27992 0.04769 0.75807 0.0
C1102 C 0.2582 0.98938 0.77618 0.0
C1103 C 0.25542 0.9668 0.76618 0.0
H1104 H 0.34819 0.05081 0.99714 0.0
H1105 H 0.19893 0.03504 0.98289 0.0
H1106 H 0.15907 0.03561 1.00039 0.0
H1107 H 0.1669 0.03837 0.01987 0.0
H1108 H 0.31697 0.05182 0.03391 0.0
H1109 H 0.35596 0.0544 0.01644 0.0
C1110 C 0.30698 0.04717 0.99786 0.0
C1111 C 0.27674 0.04272 0.98869 0.0
C1112 C 0.28433 0.0472 0.00795 0.0
C1113 C 0.2232 0.03906 0.98978 0.0
C1114 C 0.20035 0.03905 0.99981 0.0
C1115 C 0.20811 0.04172 0.01909 0.0
C1116 C 0.23871 0.04517 0.02824 0.0
C1117 C 0.23057 0.04276 0.00896 0.0
C1118 C 0.29215 0.05005 0.02707 0.0
C1119 C 0.31467 0.0511 0.01705 0.0
H1120 H 0.79236 0.93131 0.77061 0.0
H1121 H 0.79372 0.08415 0.78338 0.0
H1122 H 0.79153 0.11984 0.76548 0.0
H1123 H 0.7857 0.10766 0.7461 0.0
H1124 H 0.78509 0.95469 0.73338 0.0
H1125 H 0.79058 0.91917 0.75125 0.0
C1126 C 0.79223 0.97242 0.76947 0.0
C1127 C 0.79304 1.00489 0.77837 0.0
C1128 C 0.79095 0.99273 0.75912 0.0
C1129 C 0.79364 0.05816 0.77672 0.0
C1130 C 0.792 0.07863 0.76646 0.0
C1131 C 0.78674 0.06656 0.74725 0.0
C1132 C 0.78481 0.03398 0.73837 0.0
C1133 C 0.79008 0.04631 0.75759 0.0
C1134 C 0.787 0.98076 0.74001 0.0
C1135 C 0.78984 0.96037 0.75026 0.0
H1136 H 0.68957 1.01866 0.49397 0.0
H1137 H 0.83934 0.03812 0.48005 0.0
H1138 H 0.8776 0.04257 0.4976 0.0
H1139 H 0.86929 0.03922 0.51696 0.0
H1140 H 0.72011 1.01787 0.53102 0.0
H1141 H 0.68117 1.01617 0.51345 0.0
C1142 C 0.73059 0.02363 0.49477 0.0
C1143 C 0.76128 0.02811 0.48561 0.0
C1144 C 0.75263 0.02591 0.50496 0.0
C1145 C 0.81441 0.03528 0.48686 0.0
C1146 C 0.83651 0.03748 0.49694 0.0
C1147 C 0.8283 0.03389 0.51621 0.0
C1148 C 0.79791 0.02854 0.52538 0.0
C1149 C 0.80608 0.0326 0.50605 0.0
C1150 C 0.74461 0.02265 0.52417 0.0
C1151 C 0.72225 1.02132 0.51409 0.0
H1152 H 0.73593 0.98355 0.27823 0.0
H1153 H 0.76209 0.14266 0.27082 0.0
H1154 H 0.76151 0.12322 0.25195 0.0
H1155 H 0.75838 0.06018 0.23742 0.0
H1156 H 0.73071 0.90139 0.24486 0.0
H1157 H 0.72672 0.9216 0.26366 0.0
C1158 C 0.74075 1.01413 0.27251 0.0
C1159 C 0.74968 0.06449 0.27605 0.0
C1160 C 0.74046 1.00268 0.26158 0.0
C1161 C 0.75618 0.10338 0.26841 0.0
C1162 C 0.75562 0.09235 0.25757 0.0
C1163 C 0.75075 0.03012 0.24313 0.0
C1164 C 0.74557 0.97917 0.23964 0.0
C1165 C 0.74857 0.042 0.25403 0.0
C1166 C 0.73598 0.94078 0.24725 0.0
C1167 C 0.73342 0.95233 0.25805 0.0
H1168 H 0.73553 1.00287 0.98798 0.0
H1169 H 0.89496 1.01072 0.99667 0.0
H1170 H 0.87229 1.00301 0.01537 0.0
H1171 H 0.80664 0.99973 0.02946 0.0
H1172 H 0.64715 0.99375 0.02079 0.0
H1173 H 0.67014 0.99453 1.00203 0.0
C1174 C 0.76532 1.00209 0.99395 0.0
C1175 C 0.81692 1.00779 0.99088 0.0
C1176 C 0.75191 0.99826 1.00477 0.0
C1177 C 0.85492 1.0072 0.99879 0.0
C1178 C 0.84199 1.00262 0.00951 0.0
C1179 C 0.77702 0.9977 0.02346 0.0
C1180 C 0.72518 0.99692 0.02657 0.0
C1181 C 0.79055 0.99898 0.01263 0.0
C1182 C 0.68729 0.99498 0.01865 0.0
C1183 C 0.70043 0.99535 0.0079 0.0
H1184 H 0.74283 0.59495 0.74712 0.0
H1185 H 0.78468 0.44962 0.7335 0.0
H1186 H 0.78454 0.41044 0.75106 0.0
H1187 H 0.77274 0.4175 0.77032 0.0
H1188 H 0.73469 0.56436 0.78385 0.0
H1189 H 0.73276 0.6024 0.76633 0.0
C1190 C 0.75253 0.55487 0.74798 0.0
C1191 C 0.76374 0.52542 0.73897 0.0
C1192 C 0.75266 0.53259 0.75811 0.0
C1193 C 0.77527 0.47319 0.74026 0.0
C1194 C 0.77543 0.45074 0.75032 0.0
C1195 C 0.76434 0.45788 0.76947 0.0
C1196 C 0.75367 0.48758 0.7785 0.0
C1197 C 0.76414 0.48007 0.75931 0.0
C1198 C 0.74216 0.53986 0.77714 0.0
C1199 C 0.7415 0.56201 0.76708 0.0
H1200 H 0.68487 0.54521 0.99617 0.0
H1201 H 0.82989 0.49924 0.98276 0.0
H1202 H 0.8666 0.49289 1.00039 0.0
H1203 H 0.85804 0.50055 0.01968 0.0
H1204 H 0.71439 0.5504 0.03304 0.0
H1205 H 0.67708 0.55548 0.01539 0.0
C1206 C 0.72464 0.5343 0.99706 0.0
C1207 C 0.7542 0.52268 0.98804 0.0
C1208 C 0.74599 0.53145 1.00725 0.0
C1209 C 0.80558 0.5077 0.98946 0.0
C1210 C 0.82693 0.50443 0.99958 0.0
C1211 C 0.81879 0.51313 0.01874 0.0
C1212 C 0.78916 0.52486 0.02773 0.0
C1213 C 0.79755 0.51632 0.00853 0.0
C1214 C 0.738 0.54034 0.02632 0.0
C1215 C 0.71662 0.54352 0.0162 0.0
H1216 H 0.80242 0.61522 0.26767 0.0
H1217 H 0.77368 0.46554 0.28089 0.0
H1218 H 0.77498 0.42833 0.26319 0.0
H1219 H 0.78159 0.43869 0.24382 0.0
H1220 H 0.8075 0.58925 0.23073 0.0
H1221 H 0.81003 0.62542 0.24844 0.0
C1222 C 0.79614 0.57452 0.2667 0.0
C1223 C 0.78778 0.54342 0.27565 0.0
C1224 C 0.79646 0.55338 0.25647 0.0
C1225 C 0.78074 0.49048 0.2742 0.0
C1226 C 0.78113 0.46914 0.26405 0.0
C1227 C 0.78762 0.47942 0.24484 0.0
C1228 C 0.79448 0.51095 0.23589 0.0
C1229 C 0.78853 0.50029 0.25511 0.0
C1230 C 0.80293 0.56366 0.23741 0.0
C1231 C 0.80399 0.5846 0.24757 0.0
H1232 H 0.69368 0.5323 0.51916 0.0
H1233 H 0.84621 0.53344 0.53221 0.0
H1234 H 0.88261 0.5351 0.51437 0.0
H1235 H 0.871 0.53278 0.49496 0.0
H1236 H 0.7182 0.5319 0.48202 0.0
H1237 H 0.68206 0.5337 0.49984 0.0
C1238 C 0.73488 0.53288 0.51809 0.0
C1239 C 0.76711 0.53251 0.52701 0.0
C1240 C 0.75551 0.53381 0.5078 0.0
C1241 C 0.82047 0.53416 0.5255 0.0
C1242 C 0.84133 0.53475 0.51528 0.0
C1243 C 0.82983 0.53297 0.49607 0.0
C1244 C 0.79744 0.53215 0.48716 0.0
C1245 C 0.80923 0.53405 0.50637 0.0
C1246 C 0.74409 0.53313 0.48871 0.0
C1247 C 0.72334 0.5338 0.49891 0.0
H1248 H 0.26498 0.44066 0.26866 0.0
H1249 H 0.29143 0.58882 0.28279 0.0
H1250 H 0.29606 0.62743 0.26527 0.0
H1251 H 0.29239 0.61951 0.24584 0.0
H1252 H 0.26089 0.47187 0.23197 0.0
H1253 H 0.25804 0.43324 0.24948 0.0
C1254 C 0.27117 0.48149 0.26801 0.0
C1255 C 0.27771 0.51137 0.27721 0.0
C1256 C 0.27292 0.50384 0.25788 0.0
C1257 C 0.28674 0.56426 0.27599 0.0
C1258 C 0.28909 0.58665 0.26591 0.0
C1259 C 0.28432 0.57902 0.24662 0.0
C1260 C 0.27728 0.54883 0.23749 0.0
C1261 C 0.2821 0.55684 0.2568 0.0
C1262 C 0.26747 0.49617 0.23875 0.0
C1263 C 0.26551 0.47394 0.24881 0.0
H1264 H 0.34841 0.55372 0.01685 0.0
H1265 H 0.19833 0.53011 0.0303 0.0
H1266 H 0.16051 0.53156 0.0126 0.0
H1267 H 0.17052 0.53668 0.99317 0.0
H1268 H 0.32133 0.55863 0.9799 0.0
H1269 H 0.35817 0.56075 0.99759 0.0
C1270 C 0.30746 0.54863 0.01592 0.0
C1271 C 0.27641 0.54153 0.02493 0.0
C1272 C 0.286 0.54924 1.00571 0.0
C1273 C 0.2232 0.53608 0.02355 0.0
C1274 C 0.20154 0.53657 0.01341 0.0
C1275 C 0.21144 0.54182 0.99416 0.0
C1276 C 0.2429 0.54757 0.98516 0.0
C1277 C 0.23263 0.54268 1.00442 0.0
C1278 C 0.29587 0.55487 0.98661 0.0
C1279 C 0.31715 0.5557 0.99676 0.0
H1280 H 0.27379 0.55369 0.73678 0.0
H1281 H 0.25737 0.39407 0.74506 0.0
H1282 H 0.26023 0.41558 0.76374 0.0
H1283 H 0.26608 0.4794 0.77787 0.0
H1284 H 0.27808 0.63959 0.76953 0.0
H1285 H 0.27807 0.61773 0.75094 0.0
C1286 C 0.27046 0.5235 0.74262 0.0
C1287 C 0.26572 0.47217 0.73934 0.0
C1288 C 0.27138 0.53612 0.75348 0.0
C1289 C 0.26203 0.43384 0.74719 0.0
C1290 C 0.26328 0.44613 0.75796 0.0
C1291 C 0.26857 0.50983 0.77207 0.0
C1292 C 0.27233 0.56127 0.77538 0.0
C1293 C 0.26785 0.49716 0.76121 0.0
C1294 C 0.27577 0.59955 0.76749 0.0
C1295 C 0.2755 0.58715 0.75673 0.0
H1296 H 0.17869 0.49828 0.52178 0.0
H1297 H 0.33064 0.4962 0.53514 0.0
H1298 H 0.3679 0.49502 0.51744 0.0
H1299 H 0.35775 0.49685 0.49807 0.0
H1300 H 0.20613 0.49865 0.48458 0.0
H1301 H 0.1685 0.49741 0.5023 0.0
C1302 C 0.21992 0.49759 0.5208 0.0
C1303 C 0.25167 0.49719 0.52982 0.0
C1304 C 0.24126 0.49686 0.51053 0.0
C1305 C 0.30513 0.49576 0.52839 0.0
C1306 C 0.32657 0.49545 0.51824 0.0
C1307 C 0.31648 0.49707 0.49902 0.0
C1308 C 0.28493 0.49795 0.48998 0.0
C1309 C 0.29506 0.4963 0.50925 0.0
C1310 C 0.23144 0.49742 0.49136 0.0
C1311 C 0.20984 0.49706 0.50151 0.0
H1312 H 0.1012 0.26879 0.2014 0.0
H1313 H 0.11375 0.22253 0.16868 0.0
H1314 H 0.0399 0.27556 0.16419 0.0
H1315 H 0.96709 0.3301 0.16989 0.0
H1316 H 0.94982 0.36549 0.20302 0.0
H1317 H 0.02894 0.31997 0.20711 0.0
C1318 C 0.0876 0.26958 0.19329 0.0
C1319 C 0.11276 0.2409 0.18545 0.0
C1320 C 0.04344 0.29741 0.19088 0.0
C1321 C 0.09559 0.24444 0.1749 0.0
C1322 C 0.05283 0.27421 0.17234 0.0
C1323 C 0.98065 0.32709 0.17799 0.0
C1324 C 0.95266 0.34996 0.1862 0.0
C1325 C 0.02566 0.29983 0.18031 0.0
C1326 C 0.97051 0.34696 0.19665 0.0
C1327 C 1.01585 0.32144 0.19897 0.0
H1328 H 0.03194 0.84892 0.4497 0.0
H1329 H 0.08436 0.85096 0.41729 0.0
H1330 H 0.03334 0.77437 0.41355 0.0
H1331 H 0.9808 0.70143 0.42014 0.0
H1332 H 0.94084 0.69483 0.45324 0.0
H1333 H 0.98203 0.7774 0.45625 0.0
C1334 C 0.03258 0.83253 0.44182 0.0
C1335 C 0.06282 0.85497 0.43386 0.0
C1336 C 1.0066 0.78677 0.43996 0.0
C1337 C 0.06134 0.83451 0.42357 0.0
C1338 C 0.03286 0.79024 0.42148 0.0
C1339 C 0.98201 0.71806 0.428 0.0
C1340 C 0.95922 0.69214 0.43653 0.0
C1341 C 1.00683 0.76504 0.42971 0.0
C1342 C 0.95958 0.71393 0.44666 0.0
C1343 C 0.98248 0.76123 0.44835 0.0
H1344 H 0.44957 0.80884 0.6721 0.0
H1345 H 0.44172 0.84294 0.70545 0.0
H1346 H 0.52305 0.79928 0.7084 0.0
H1347 H 0.59422 0.74959 0.70168 0.0
H1348 H 0.59786 0.70399 0.66887 0.0
H1349 H 0.52196 0.75635 0.66534 0.0
C1350 C 0.46561 0.80584 0.68 0.0
C1351 C 0.43957 0.82769 0.68861 0.0
C1352 C 0.51197 0.77976 0.68167 0.0
C1353 C 0.46073 0.82493 0.6988 0.0
C1354 C 0.50738 0.80062 0.70045 0.0
C1355 C 0.5783 0.75061 0.69375 0.0
C1356 C 0.60111 0.72198 0.68561 0.0
C1357 C 0.53301 0.77758 0.69197 0.0
C1358 C 0.58119 0.72572 0.67529 0.0
C1359 C 0.53732 0.75501 0.67331 0.0
H1360 H 0.50234 0.20904 0.95441 0.0
H1361 H 0.47352 0.18889 0.921 0.0
H1362 H 0.52471 0.26497 0.91708 0.0
H1363 H 0.57195 0.34165 0.92333 0.0
H1364 H 0.59012 0.36579 0.95688 0.0
H1365 H 0.54641 0.28513 0.9606 0.0
C1366 C 0.50655 0.22139 0.94625 0.0
C1367 C 0.48318 0.19345 0.93805 0.0
C1368 C 0.53299 0.26683 0.94411 0.0
C1369 C 0.49127 0.20916 0.92751 0.0
C1370 C 0.51989 0.25322 0.92526 0.0
C1371 C 0.56562 0.3293 0.93143 0.0
C1372 C 0.58306 0.35985 0.93984 0.0
C1373 C 0.53975 0.28312 0.93352 0.0
C1374 C 0.57563 0.34341 0.95032 0.0
C1375 C 0.55129 0.29707 0.95244 0.0
H1376 H 0.03481 0.88386 0.33091 0.0
H1377 H 0.14027 0.76072 0.33713 0.0
H1378 H 0.06856 0.70036 0.33853 0.0
H1379 H 0.97801 0.68117 0.33483 0.0
H1380 H 0.87307 0.80384 0.32788 0.0
H1381 H 0.94229 0.86652 0.33005 0.0
C1382 C 0.04175 0.84398 0.33286 0.0
C1383 C 0.09237 0.82626 0.33382 0.0
C1384 C 1.00059 0.80967 0.33337 0.0
C1385 C 0.10145 0.77488 0.3364 0.0
C1386 C 0.06056 0.74046 0.33709 0.0
C1387 C 0.97025 0.7218 0.33407 0.0
C1388 C 0.92106 0.73825 0.3311 0.0
C1389 C 1.01029 0.75712 0.33513 0.0
C1390 C 0.9108 0.79069 0.33018 0.0
C1391 C 0.95038 0.82631 0.33134 0.0
H1392 H 0.57171 0.69823 0.59292 0.0
H1393 H 0.61209 0.69739 0.55982 0.0
H1394 H 0.56778 0.77861 0.55717 0.0
H1395 H 0.51603 0.8478 0.56408 0.0
H1396 H 0.46409 0.84406 0.59653 0.0
H1397 H 0.51682 0.76831 0.59983 0.0
C1398 C 0.56992 0.71578 0.58513 0.0
C1399 C 0.59379 0.69187 0.5765 0.0
C1400 C 0.54345 0.76199 0.58363 0.0
C1401 C 0.5926 0.71488 0.56647 0.0
C1402 C 0.56789 0.76143 0.56499 0.0
C1403 C 0.51568 0.83026 0.57187 0.0
C1404 C 0.48524 0.85103 0.57997 0.0
C1405 C 0.54291 0.78502 0.57349 0.0
C1406 C 0.48725 0.82904 0.59014 0.0
C1407 C 0.51676 0.78524 0.59199 0.0
H1408 H 0.49767 0.17279 0.83492 0.0
H1409 H 0.38953 0.29607 0.83153 0.0
H1410 H 0.45866 0.35882 0.83377 0.0
H1411 H 0.55025 0.37723 0.83433 0.0
H1412 H 0.65896 0.25391 0.83809 0.0
H1413 H 0.58882 0.19195 0.83792 0.0
C1414 C 0.48935 0.21348 0.83496 0.0
C1415 C 0.4391 0.2303 0.8331 0.0
C1416 C 0.52921 0.24891 0.83612 0.0
C1417 C 0.42809 0.28273 0.83307 0.0
C1418 C 0.46759 0.31838 0.83425 0.0
C1419 C 0.55883 0.33701 0.83548 0.0
C1420 C 0.61008 0.32034 0.83617 0.0
C1421 C 0.51842 0.30177 0.83547 0.0
C1422 C 0.62007 0.2678 0.83735 0.0
C1423 C 0.57997 0.23237 0.83732 0.0
H1424 H 0.12429 0.25104 0.08358 0.0
H1425 H 1.0028 0.14033 0.08784 0.0
H1426 H 0.94 0.20946 0.08836 0.0
H1427 H 0.91923 0.30032 0.08579 0.0
H1428 H 0.04051 0.4106 0.0817 0.0
H1429 H 0.10456 0.34245 0.0834 0.0
C1430 C 0.08432 0.24183 0.08496 0.0
C1431 C 0.06834 0.19032 0.08561 0.0
C1432 C 0.04858 0.28168 0.08533 0.0
C1433 C 1.01611 0.17945 0.08713 0.0
C1434 C 0.98022 0.21897 0.08749 0.0
C1435 C 0.95982 0.30937 0.08557 0.0
C1436 C 0.97557 0.35996 0.08364 0.0
C1437 C 0.99596 0.27004 0.08635 0.0
C1438 C 0.02791 0.37181 0.08329 0.0
C1439 C 0.0643 0.33285 0.08415 0.0
H1440 H 0.10505 0.75945 0.81465 0.0
H1441 H 0.11332 0.7147 0.8475 0.0
H1442 H 0.03916 0.76889 0.85149 0.0
H1443 H 0.96601 0.82173 0.84511 0.0
H1444 H 0.95347 0.85484 0.81175 0.0
H1445 H 0.03412 0.81078 0.80837 0.0
C1446 C 0.09062 0.76135 0.8227 0.0
C1447 C 0.11394 0.73224 0.83071 0.0
C1448 C 0.04629 0.78937 0.82476 0.0
C1449 C 0.09605 0.73677 0.84117 0.0
C1450 C 0.05319 0.76711 0.84343 0.0
C1451 C 0.98099 0.81859 0.83712 0.0
C1452 C 0.95372 0.84015 0.82863 0.0
C1453 C 0.02691 0.7921 0.8352 0.0
C1454 C 0.97346 0.83712 0.81832 0.0
C1455 C 1.0197 0.81253 0.81641 0.0
H1456 H 0.93905 0.2305 0.58127 0.0
H1457 H 0.06475 0.12541 0.5775 0.0
H1458 H 0.12593 0.19512 0.58069 0.0
H1459 H 0.14274 0.28696 0.58243 0.0
H1460 H 1.01657 0.39188 0.5867 0.0
H1461 H 0.95607 0.32096 0.5852 0.0
C1462 C 0.97991 0.22294 0.58127 0.0
C1463 C 0.99775 0.17338 0.57907 0.0
C1464 C 1.01445 0.26309 0.58299 0.0
C1465 C 0.05048 0.16343 0.5792 0.0
C1466 C 0.08527 0.20328 0.58093 0.0
C1467 C 0.10213 0.29441 0.58335 0.0
C1468 C 0.08434 0.34501 0.58463 0.0
C1469 C 0.06762 0.25346 0.58256 0.0
C1470 C 0.03138 0.35362 0.58553 0.0
C1471 C 0.99675 0.31304 0.58472 0.0
H1472 H 0.44333 0.28866 0.31116 0.0
H1473 H 0.4133 0.30665 0.34458 0.0
H1474 H 0.48718 0.25287 0.34872 0.0
H1475 H 0.56521 0.20688 0.34278 0.0
H1476 H 0.59925 0.19949 0.30941 0.0
H1477 H 0.52024 0.2451 0.30532 0.0
C1478 C 0.45305 0.28143 0.31938 0.0
C1479 C 0.42314 0.3026 0.32753 0.0
C1480 C 0.49721 0.25343 0.32171 0.0
C1481 C 0.4353 0.29071 0.33811 0.0
C1482 C 0.47806 0.26056 0.3405 0.0
C1483 C 0.55531 0.21591 0.33465 0.0
C1484 C 0.58823 0.20112 0.32641 0.0
C1485 C 0.51013 0.24295 0.33236 0.0
C1486 C 0.57499 0.21197 0.31587 0.0
C1487 C 0.52962 0.23741 0.31353 0.0
H1488 H 0.62739 0.79181 0.07996 0.0
H1489 H 0.50326 0.89847 0.08491 0.0
H1490 H 0.44157 0.82844 0.08365 0.0
H1491 H 0.42291 0.73832 0.07979 0.0
H1492 H 0.54667 0.63153 0.07537 0.0
H1493 H 0.60921 0.70036 0.07826 0.0
C1494 C 0.58702 0.79982 0.0811 0.0
C1495 C 0.57006 0.85061 0.08248 0.0
C1496 C 0.55189 0.75942 0.08047 0.0
C1497 C 0.51737 0.86001 0.08366 0.0
C1498 C 0.48209 0.81997 0.08299 0.0
C1499 C 0.46367 0.73022 0.0796 0.0
C1500 C 0.48062 0.6805 0.07729 0.0
C1501 C 0.49893 0.76981 0.08117 0.0
C1502 C 0.53317 0.66974 0.07715 0.0
C1503 C 0.56869 0.70906 0.07872 0.0
H1504 H 0.94566 0.2253 0.67115 0.0
H1505 H 0.94588 0.18324 0.70418 0.0
H1506 H 0.02864 0.22508 0.70662 0.0
H1507 H 0.09838 0.2761 0.69964 0.0
H1508 H 0.094 0.33053 0.66738 0.0
H1509 H 1.01699 0.27896 0.66411 0.0
C1510 C 0.96376 0.22627 0.67888 0.0
C1511 C 0.93968 0.20269 0.68756 0.0
C1512 C 1.01091 0.2514 0.68026 0.0
C1513 C 0.96346 0.20265 0.69751 0.0
C1514 C 1.0109 0.22589 0.69886 0.0
C1515 C 0.08055 0.2769 0.69188 0.0
C1516 C 0.10116 0.30793 0.68384 0.0
C1517 C 0.03463 0.25069 0.69033 0.0
C1518 C 0.07886 0.3069 0.67371 0.0
C1519 C 0.03439 0.27813 0.6719 0.0
H1520 H 0.52324 0.37054 0.43724 0.0
H1521 H 0.38603 0.27791 0.43744 0.0
H1522 H 0.4371 0.20064 0.4363 0.0
H1523 H 0.52077 0.15875 0.43502 0.0
H1524 H 0.65812 0.2509 0.43644 0.0
H1525 H 0.60701 0.32834 0.43718 0.0
C1526 C 0.50446 0.33352 0.43714 0.0
C1527 C 0.45074 0.33049 0.43726 0.0
C1528 C 0.53413 0.28879 0.43669 0.0
C1529 C 0.42725 0.28185 0.43706 0.0
C1530 C 0.45645 0.23736 0.43649 0.0
C1531 C 0.53957 0.19567 0.43558 0.0
C1532 C 0.59328 0.19869 0.43547 0.0
C1533 C 0.50993 0.24034 0.43625 0.0
C1534 C 0.61684 0.24717 0.43617 0.0
C1535 C 0.58764 0.29169 0.4367 0.0
H1536 H 0.56806 0.8668 0.17795 0.0
H1537 H 0.67246 0.74389 0.18505 0.0
H1538 H 0.60285 0.6815 0.1831 0.0
H1539 H 0.51014 0.66506 0.18278 0.0
H1540 H 0.40512 0.78883 0.17675 0.0
H1541 H 0.47721 0.8482 0.17462 0.0
C1542 C 0.57565 0.82613 0.17873 0.0
C1543 C 0.62472 0.80954 0.18172 0.0
C1544 C 0.5353 0.79109 0.17791 0.0
C1545 C 0.6348 0.7571 0.18271 0.0
C1546 C 0.59497 0.72168 0.1817 0.0
C1547 C 0.50334 0.70483 0.18072 0.0
C1548 C 0.45283 0.72312 0.18005 0.0
C1549 C 0.54474 0.73861 0.17981 0.0
C1550 C 0.44387 0.77429 0.17729 0.0
C1551 C 0.48499 0.80814 0.17617 0.0
H1552 H 0.92283 0.81061 0.93504 0.0
H1553 H 0.04664 0.9208 0.93472 0.0
H1554 H 0.10851 0.85122 0.93351 0.0
H1555 H 0.12711 0.75968 0.93299 0.0
H1556 H 1.00263 0.65068 0.93099 0.0
H1557 H 0.941 0.72019 0.93254 0.0
C1558 C 0.96317 0.81998 0.93438 0.0
C1559 C 0.9797 0.87134 0.93491 0.0
C1560 C 0.9984 0.78007 0.9333 0.0
C1561 C 0.03253 0.88185 0.93448 0.0
C1562 C 0.06801 0.84206 0.9337 0.0
C1563 C 0.08658 0.75087 0.93256 0.0
C1564 C 0.06981 0.69962 0.93186 0.0
C1565 C 0.05129 0.79107 0.93313 0.0
C1566 C 1.0169 0.68944 0.93169 0.0
C1567 C 0.98155 0.72923 0.93251 0.0
H1568 H 0.4201 0.09924 0.19982 0.0
H1569 H 0.38706 0.94565 0.18942 0.0
H1570 H 0.479 0.92764 0.18825 0.0
H1571 H 0.56872 0.9569 0.18917 0.0
H1572 H 0.60355 0.10789 0.20076 0.0
H1573 H 0.51128 0.12549 0.20262 0.0
C1574 C 0.43305 0.06173 0.19734 0.0
C1575 C 0.39635 0.02397 0.19457 0.0
C1576 C 0.48637 0.05123 0.19694 0.0
C1577 C 0.41405 0.9754 0.19156 0.0
C1578 C 0.46676 0.96515 0.19087 0.0
C1579 C 0.55626 0.99345 0.19229 0.0
C1580 C 0.59334 0.03108 0.19483 0.0
C1581 C 0.50325 1.0029 0.19342 0.0
C1582 C 0.5762 0.07812 0.19885 0.0
C1583 C 0.5233 0.08824 0.19981 0.0
H1584 H 0.3397 0.30569 0.45741 0.0
H1585 H 0.19011 0.34565 0.44549 0.0
H1586 H 0.17388 0.25482 0.44147 0.0
H1587 H 0.20255 0.16338 0.44155 0.0
H1588 H 0.35398 0.12702 0.45301 0.0
H1589 H 0.36913 0.21728 0.45688 0.0
C1590 C 0.30309 0.29502 0.45402 0.0
C1591 C 0.26576 0.33315 0.45195 0.0
C1592 C 0.2946 0.24307 0.45155 0.0
C1593 C 0.21935 0.31763 0.4473 0.0
C1594 C 0.21022 0.26554 0.44497 0.0
C1595 C 0.23904 0.1752 0.44484 0.0
C1596 C 0.27713 0.13781 0.44699 0.0
C1597 C 0.2476 0.2278 0.44707 0.0
C1598 C 0.32402 0.15434 0.45124 0.0
C1599 C 0.33261 0.20614 0.45351 0.0
H1600 H 0.97284 0.08688 0.7078 0.0
H1601 H 0.93352 0.94116 0.69394 0.0
H1602 H 0.02491 0.92447 0.69068 0.0
H1603 H 0.11618 0.95213 0.69169 0.0
H1604 H 0.15263 0.09956 0.70511 0.0
H1605 H 0.06178 0.11497 0.70846 0.0
C1606 C 0.9838 0.05109 0.70412 0.0
C1607 C 0.94577 1.01499 0.70124 0.0
C1608 C 0.03607 0.04237 0.70209 0.0
C1609 C 0.96157 0.9694 0.69635 0.0
C1610 C 1.01392 0.96002 0.69444 0.0
C1611 C 0.10428 0.98774 0.69532 0.0
C1612 C 0.14162 0.0247 0.69814 0.0
C1613 C 0.05156 0.99636 0.69725 0.0
C1614 C 0.12515 0.0705 0.70284 0.0
C1615 C 0.07308 0.07925 0.70479 0.0
H1616 H 0.1873 0.74272 0.95258 0.0
H1617 H 0.34289 0.70291 0.94453 0.0
H1618 H 0.36346 0.79421 0.94234 0.0
H1619 H 0.33697 0.88563 0.9429 0.0
H1620 H 0.18042 0.9232 0.95065 0.0
H1621 H 0.1605 0.83226 0.95267 0.0
C1622 C 0.22603 0.75364 0.95043 0.0
C1623 C 0.26378 0.71548 0.9489 0.0
C1624 C 0.23724 0.80598 0.94906 0.0
C1625 C 0.31322 0.73108 0.94588 0.0
C1626 C 0.32488 0.78339 0.9446 0.0
C1627 C 0.2984 0.87398 0.945 0.0
C1628 C 0.26024 0.91166 0.94665 0.0
C1629 C 0.28719 0.82124 0.94618 0.0
C1630 C 0.21056 0.89548 0.94935 0.0
C1631 C 0.19918 0.84334 0.95053 0.0
H1632 H 0.41354 0.95031 0.32216 0.0
H1633 H 0.37531 0.10366 0.3122 0.0
H1634 H 0.4657 0.12146 0.30878 0.0
H1635 H 0.5551 0.09395 0.30831 0.0
H1636 H 0.59623 0.94188 0.31858 0.0
H1637 H 0.50535 0.92306 0.32205 0.0
C1638 C 0.42496 0.98773 0.31928 0.0
C1639 C 0.38703 0.02563 0.31746 0.0
C1640 C 0.47759 0.99776 0.31726 0.0
C1641 C 0.40306 0.07374 0.3137 0.0
C1642 C 0.45495 0.08391 0.3117 0.0
C1643 C 0.54461 0.0563 0.31122 0.0
C1644 C 0.58318 1.01909 0.313 0.0
C1645 C 0.49247 0.04617 0.31336 0.0
C1646 C 0.5679 0.97113 0.31699 0.0
C1647 C 0.51576 0.96048 0.31902 0.0
H1648 H 0.34337 0.16021 0.57369 0.0
H1649 H 0.18916 0.12377 0.56392 0.0
H1650 H 0.17108 0.21475 0.56151 0.0
H1651 H 0.19847 0.30406 0.56193 0.0
H1652 H 0.35149 0.34338 0.57198 0.0
H1653 H 0.37056 0.2519 0.57448 0.0
C1654 C 0.30568 0.17213 0.57108 0.0
C1655 C 0.26764 0.13457 0.56898 0.0
C1656 C 0.29544 0.22507 0.56968 0.0
C1657 C 0.21918 0.15123 0.5656 0.0
C1658 C 0.20885 0.20345 0.56419 0.0
C1659 C 0.23637 0.29311 0.5646 0.0
C1660 C 0.27377 0.33131 0.56661 0.0
C1661 C 0.2467 0.24064 0.56614 0.0
C1662 C 0.32207 0.31536 0.57025 0.0
C1663 C 0.33287 0.26288 0.57172 0.0
H1664 H 0.13112 0.09396 0.82361 0.0
H1665 H 0.16743 0.94151 0.81289 0.0
H1666 H 0.07641 0.92395 0.81022 0.0
H1667 H 0.98712 0.95159 0.81054 0.0
H1668 H 0.94778 0.10256 0.82164 0.0
H1669 H 0.0393 0.12105 0.82445 0.0
C1670 C 0.11916 0.05678 0.82072 0.0
C1671 C 0.15673 1.01908 0.81845 0.0
C1672 C 0.06616 0.04686 0.81917 0.0
C1673 C 0.13999 0.97124 0.81473 0.0
C1674 C 0.08773 0.96123 0.81316 0.0
C1675 C 0.99808 0.9889 0.81352 0.0
C1676 C 0.95984 0.02594 0.81571 0.0
C1677 C 0.05056 0.9988 0.81526 0.0
C1678 C 0.9758 0.07345 0.81976 0.0
C1679 C 0.02831 0.08391 0.82139 0.0
H1680 H 0.33709 0.73164 0.06914 0.0
H1681 H 0.1758 0.70007 0.06626 0.0
H1682 H 0.15854 0.79239 0.06469 0.0
H1683 H 0.18935 0.88249 0.06589 0.0
H1684 H 0.35155 0.91239 0.06792 0.0
H1685 H 0.36871 0.82023 0.068 0.0
C1686 C 0.29825 0.74482 0.06787 0.0
C1687 C 0.25776 0.70893 0.06774 0.0
C1688 C 0.28891 0.79773 0.06698 0.0
C1689 C 0.20762 0.72672 0.06623 0.0
C1690 C 0.19782 0.77958 0.06545 0.0
C1691 C 0.2285 0.86877 0.06623 0.0
C1692 C 0.26919 0.90441 0.06702 0.0
C1693 C 0.23808 0.81552 0.06609 0.0
C1694 C 0.31965 0.886 0.06731 0.0
C1695 C 0.32942 0.83325 0.06739 0.0
H1696 H 0.48536 0.07329 0.8025 0.0
H1697 H 0.44636 0.94827 0.82332 0.0
H1698 H 0.53671 0.93952 0.82835 0.0
H1699 H 0.6275 0.96678 0.82667 0.0
H1700 H 0.66546 0.09485 0.80653 0.0
H1701 H 0.57527 0.10323 0.80149 0.0
C1702 C 0.49665 0.04374 0.80807 0.0
C1703 C 0.45885 1.01089 0.8124 0.0
C1704 C 0.54869 0.03979 0.81112 0.0
C1705 C 0.4743 0.97389 0.81982 0.0
C1706 C 0.52612 0.96892 0.8227 0.0
C1707 C 0.61608 0.99678 0.82122 0.0
C1708 C 0.65373 0.03014 0.81699 0.0
C1709 C 0.56375 1.00163 0.81841 0.0
C1710 C 0.63773 0.0688 0.80998 0.0
C1711 C 0.58601 0.07342 0.80704 0.0
H1712 H 0.71136 0.72497 0.55894 0.0
H1713 H 0.86303 0.68445 0.56959 0.0
H1714 H 0.88244 0.77565 0.57239 0.0
H1715 H 0.85596 0.86728 0.57163 0.0
H1716 H 0.70279 0.90498 0.56142 0.0
H1717 H 0.68427 0.81425 0.55875 0.0
C1718 C 0.74902 0.73566 0.56181 0.0
C1719 C 0.78604 0.69735 0.56388 0.0
C1720 C 0.75943 0.78787 0.56355 0.0
C1721 C 0.83399 0.71273 0.56781 0.0
C1722 C 0.84497 0.76498 0.56944 0.0
C1723 C 0.81844 0.85568 0.56885 0.0
C1724 C 0.78081 0.89339 0.56671 0.0
C1725 C 0.80797 0.80298 0.56732 0.0
C1726 C 0.73247 0.87726 0.56314 0.0
C1727 C 0.7219 0.82524 0.56157 0.0
H1728 H 0.91443 0.07272 0.32578 0.0
H1729 H 0.8781 0.94961 0.30435 0.0
H1730 H 0.96883 0.94141 0.29974 0.0
H1731 H 0.05868 0.97042 0.30142 0.0
H1732 H 0.09615 0.0902 0.32353 0.0
H1733 H 1.00529 0.09858 0.32819 0.0
C1734 C 0.92631 0.04383 0.32014 0.0
C1735 C 0.88891 1.01189 0.3154 0.0
C1736 C 0.97897 0.03909 0.31756 0.0
C1737 C 0.90555 0.97462 0.30816 0.0
C1738 C 0.95761 0.97009 0.30548 0.0
C1739 C 0.04701 0.99878 0.3072 0.0
C1740 C 0.08455 0.0304 0.31196 0.0
C1741 C 0.99465 1.00246 0.31003 0.0
C1742 C 0.06846 0.06571 0.31966 0.0
C1743 C 1.01634 0.07042 0.32233 0.0
H1744 H 0.70963 0.16805 0.07637 0.0
H1745 H 0.82709 0.13101 0.05363 0.0
H1746 H 0.83537 0.22172 0.04899 0.0
H1747 H 0.80842 0.31192 0.05114 0.0
H1748 H 0.69518 0.34996 0.07468 0.0
H1749 H 0.68598 0.25904 0.07921 0.0
C1750 C 0.73728 0.17978 0.07043 0.0
C1751 C 0.76765 0.14224 0.06535 0.0
C1752 C 0.74226 0.23243 0.06787 0.0
C1753 C 0.8034 0.15863 0.05772 0.0
C1754 C 0.80794 0.21067 0.05502 0.0
C1755 C 0.78128 0.30036 0.05719 0.0
C1756 C 0.75173 0.33809 0.06241 0.0
C1757 C 0.7773 0.24793 0.05997 0.0
C1758 C 0.71803 0.32212 0.07046 0.0
C1759 C 0.71285 0.26997 0.07306 0.0
H1760 H 0.61605 0.07987 0.6923 0.0
H1761 H 0.65255 0.93111 0.70515 0.0
H1762 H 0.5617 0.91503 0.70844 0.0
H1763 H 0.47261 0.94278 0.70785 0.0
H1764 H 0.43343 0.09 0.69461 0.0
H1765 H 0.5248 0.10734 0.69142 0.0
C1766 C 0.60416 0.04385 0.69581 0.0
C1767 C 0.64153 1.0067 0.69848 0.0
C1768 C 0.55144 0.03483 0.69771 0.0
C1769 C 0.62507 0.96036 0.703 0.0
C1770 C 0.57299 0.9512 0.70492 0.0
C1771 C 0.48363 0.97905 0.70434 0.0
C1772 C 0.44563 1.01538 0.70161 0.0
C1773 C 0.53594 0.98821 0.70236 0.0
C1774 C 0.46146 0.06157 0.69691 0.0
C1775 C 0.51381 0.07133 0.69504 0.0
H1776 H 0.84674 0.72486 0.45645 0.0
H1777 H 0.70077 0.68375 0.44286 0.0
H1778 H 0.68376 0.77467 0.43916 0.0
H1779 H 0.71139 0.8663 0.43966 0.0
H1780 H 0.85939 0.90395 0.45277 0.0
H1781 H 0.87478 0.81372 0.45659 0.0
C1782 C 0.81084 0.73531 0.45273 0.0
C1783 C 0.77479 0.69687 0.45007 0.0
C1784 C 0.80198 0.7873 0.45042 0.0
C1785 C 0.729 0.71209 0.44513 0.0
C1786 C 0.71945 0.7642 0.44296 0.0
C1787 C 0.74711 0.85475 0.44332 0.0
C1788 C 0.78423 0.89238 0.44592 0.0
C1789 C 0.75581 0.80222 0.44553 0.0
C1790 C 0.83017 0.87633 0.45066 0.0
C1791 C 0.83894 0.82457 0.45289 0.0
H1792 H 0.92581 0.96263 0.18957 0.0
H1793 H 0.88598 0.0853 0.21081 0.0
H1794 H 0.97659 0.09729 0.2152 0.0
H1795 H 0.06742 0.07182 0.21336 0.0
H1796 H 0.10856 0.95401 0.1911 0.0
H1797 H 1.01769 0.94117 0.18678 0.0
C1798 C 0.93694 0.99223 0.19511 0.0
C1799 C 0.89863 0.02292 0.19988 0.0
C1800 C 0.98957 0.99946 0.19749 0.0
C1801 C 0.9142 0.06128 0.20697 0.0
C1802 C 0.96618 0.06795 0.20954 0.0
C1803 C 0.05654 0.04297 0.20761 0.0
C1804 C 0.09507 1.01305 0.20274 0.0
C1805 C 1.00421 0.03698 0.20493 0.0
C1806 C 0.08002 0.9771 0.19508 0.0
C1807 C 0.02793 0.96986 0.19259 0.0
H1808 H 0.7009 0.32614 0.95851 0.0
H1809 H 0.84685 0.36864 0.94501 0.0
H1810 H 0.86767 0.27763 0.94263 0.0
H1811 H 0.84354 0.18562 0.94423 0.0
H1812 H 0.69621 0.14553 0.95741 0.0
H1813 H 0.67677 0.23609 0.95997 0.0
C1814 C 0.73764 0.31593 0.95512 0.0
C1815 C 0.77254 0.35481 0.95206 0.0
C1816 C 0.7489 0.2637 0.95364 0.0
C1817 C 0.81942 0.33997 0.94754 0.0
C1818 C 0.8312 0.2878 0.94614 0.0
C1819 C 0.80714 0.19665 0.94766 0.0
C1820 C 0.77137 0.15833 0.95063 0.0
C1821 C 0.79613 0.24925 0.94913 0.0
C1822 C 0.72448 0.17373 0.95505 0.0
C1823 C 0.71337 0.22567 0.95654 0.0
H1824 H 0.0562 0.46479 0.71307 0.0
H1825 H 0.09539 0.59296 0.69312 0.0
H1826 H 1.00488 0.60286 0.68822 0.0
H1827 H 0.91349 0.57603 0.68989 0.0
H1828 H 0.87598 0.4438 0.70886 0.0
H1829 H 0.96626 0.43434 0.71373 0.0
C1830 C 0.04497 0.49522 0.7077 0.0
C1831 C 0.08293 0.52884 0.70366 0.0
C1832 C 0.99282 0.49967 0.70467 0.0
C1833 C 0.06741 0.56689 0.69646 0.0
C1834 C 1.01545 0.57248 0.69364 0.0
C1835 C 0.92506 0.54482 0.69502 0.0
C1836 C 0.88733 0.51065 0.69899 0.0
C1837 C 0.97765 0.53921 0.69771 0.0
C1838 C 0.90364 0.47046 0.7056 0.0
C1839 C 0.95547 0.46524 0.70845 0.0
H1840 H 0.70972 0.6864 0.94304 0.0
H1841 H 0.85979 0.64459 0.95445 0.0
H1842 H 0.87901 0.73439 0.95797 0.0
H1843 H 0.85371 0.82416 0.95804 0.0
H1844 H 0.70508 0.86893 0.94634 0.0
H1845 H 0.68467 0.7786 0.94282 0.0
C1846 C 0.74671 0.69693 0.94627 0.0
C1847 C 0.78328 0.6583 0.94848 0.0
C1848 C 0.75757 0.74917 0.94833 0.0
C1849 C 0.8309 0.67303 0.95267 0.0
C1850 C 0.84189 0.72454 0.95471 0.0
C1851 C 0.81648 0.81458 0.9548 0.0
C1852 C 0.78069 0.85388 0.95261 0.0
C1853 C 0.80547 0.76284 0.95265 0.0
C1854 C 0.7332 0.83989 0.94823 0.0
C1855 C 0.72165 0.78812 0.94617 0.0
H1856 H 0.48823 0.58215 0.21226 0.0
H1857 H 0.45119 0.45939 0.19083 0.0
H1858 H 0.54161 0.45283 0.18573 0.0
H1859 H 0.63185 0.48091 0.1876 0.0
H1860 H 0.66822 0.60632 0.20845 0.0
H1861 H 0.57773 0.61325 0.21342 0.0
C1862 C 0.49995 0.55356 0.20654 0.0
C1863 C 0.46267 0.52061 0.20208 0.0
C1864 C 0.55205 0.55083 0.20347 0.0
C1865 C 0.47869 0.48496 0.19445 0.0
C1866 C 0.53056 0.48127 0.19153 0.0
C1867 C 0.62005 0.51006 0.19319 0.0
C1868 C 0.65733 0.54302 0.19765 0.0
C1869 C 0.56766 0.51391 0.196 0.0
C1870 C 0.6408 0.58057 0.20484 0.0
C1871 C 0.58892 0.58434 0.20774 0.0
H1872 H 0.70707 0.22222 0.45672 0.0
H1873 H 0.85101 0.18499 0.44179 0.0
H1874 H 0.86763 0.27676 0.43897 0.0
H1875 H 0.84015 0.36776 0.4406 0.0
H1876 H 0.69426 0.40205 0.45503 0.0
H1877 H 0.6793 0.31087 0.45805 0.0
C1878 C 0.74253 0.2337 0.45292 0.0
C1879 C 0.7781 0.19612 0.44959 0.0
C1880 C 0.75115 0.28619 0.45114 0.0
C1881 C 0.82319 0.21264 0.44454 0.0
C1882 C 0.83251 0.26522 0.44289 0.0
C1883 C 0.80502 0.35532 0.4444 0.0
C1884 C 0.76834 0.39216 0.4476 0.0
C1885 C 0.7966 0.30239 0.44612 0.0
C1886 C 0.72312 0.37499 0.45249 0.0
C1887 C 0.71463 0.32273 0.45424 0.0
H1888 H 0.92349 0.46063 0.8259 0.0
H1889 H 0.88149 0.57703 0.80328 0.0
H1890 H 0.97133 0.58553 0.7979 0.0
H1891 H 0.06227 0.55945 0.79948 0.0
H1892 H 0.1049 0.44679 0.82284 0.0
H1893 H 1.01488 0.43713 0.828 0.0
C1894 C 0.93393 0.48809 0.81982 0.0
C1895 C 0.89529 0.51817 0.81501 0.0
C1896 C 0.98602 0.49311 0.81683 0.0
C1897 C 0.91002 0.55361 0.80718 0.0
C1898 C 0.96155 0.55826 0.80406 0.0
C1899 C 0.05187 0.53228 0.80562 0.0
C1900 C 0.09069 0.50315 0.81063 0.0
C1901 C 0.99991 0.52799 0.80877 0.0
C1902 C 0.07623 0.46936 0.81878 0.0
C1903 C 0.02458 0.46393 0.82175 0.0
H1904 H 0.68944 0.80672 0.05988 0.0
H1905 H 0.841 0.84989 0.07017 0.0
H1906 H 0.8611 0.75918 0.07344 0.0
H1907 H 0.83519 0.66681 0.07328 0.0
H1908 H 0.68223 0.62676 0.06328 0.0
H1909 H 0.66326 0.71694 0.06009 0.0
C1910 C 0.72725 0.79676 0.06276 0.0
C1911 C 0.76393 0.83587 0.0646 0.0
C1912 C 0.73814 0.74469 0.06476 0.0
C1913 C 0.81212 0.82118 0.06855 0.0
C1914 C 0.8235 0.76911 0.07045 0.0
C1915 C 0.79758 0.67778 0.07045 0.0
C1916 C 0.76018 0.63933 0.06853 0.0
C1917 C 0.78678 0.73039 0.06859 0.0
C1918 C 0.71181 0.65484 0.06485 0.0
C1919 C 0.70095 0.70665 0.06299 0.0
H1920 H 0.47286 0.45218 0.32255 0.0
H1921 H 0.43626 0.60998 0.31624 0.0
H1922 H 0.52786 0.62874 0.31353 0.0
H1923 H 0.61917 0.60091 0.31443 0.0
H1924 H 0.65357 0.4416 0.31986 0.0
H1925 H 0.56202 0.42259 0.32136 0.0
C1926 C 0.48476 0.49056 0.32037 0.0
C1927 C 0.44767 0.52971 0.3196 0.0
C1928 C 0.53723 0.50074 0.31878 0.0
C1929 C 0.46382 0.57915 0.31678 0.0
C1930 C 0.51629 0.58985 0.31533 0.0
C1931 C 0.60657 0.56194 0.31584 0.0
C1932 C 0.64347 0.52273 0.31714 0.0
C1933 C 0.55349 0.55114 0.31654 0.0
C1934 C 0.62632 0.47242 0.31883 0.0
C1935 C 0.57387 0.46159 0.31973 0.0
H1936 H 0.71056 0.3719 0.56592 0.0
H1937 H 0.87215 0.40038 0.56997 0.0
H1938 H 0.88835 0.3081 0.57037 0.0
H1939 H 0.85577 0.2199 0.57116 0.0
H1940 H 0.69559 0.18935 0.56613 0.0
H1941 H 0.67939 0.28187 0.56443 0.0
C1942 C 0.74938 0.35785 0.56682 0.0
C1943 C 0.79011 0.39319 0.56806 0.0
C1944 C 0.75851 0.30447 0.56686 0.0
C1945 C 0.8402 0.37429 0.56903 0.0
C1946 C 0.84942 0.32146 0.5693 0.0
C1947 C 0.8175 0.23331 0.5694 0.0
C1948 C 0.77698 0.19762 0.56868 0.0
C1949 C 0.80881 0.28628 0.5684 0.0
C1950 C 0.7275 0.2158 0.56655 0.0
C1951 C 0.71828 0.26877 0.5657 0.0
H1952 H 0.12027 0.44808 0.3154 0.0
H1953 H 0.15215 0.60364 0.32468 0.0
H1954 H 0.06012 0.62118 0.3257 0.0
H1955 H 0.97106 0.59079 0.32515 0.0
H1956 H 0.9372 0.43756 0.31475 0.0
H1957 H 0.02956 0.4205 0.31286 0.0
C1958 C 0.10702 0.48591 0.31759 0.0
C1959 C 0.14322 0.52441 0.3201 0.0
C1960 C 0.05378 0.496 0.31794 0.0
C1961 C 0.12536 0.57339 0.32275 0.0
C1962 C 0.07268 0.58335 0.32335 0.0
C1963 C 0.98376 0.55388 0.32227 0.0
C1964 C 0.94716 0.51541 0.3201 0.0
C1965 C 0.03663 0.54479 0.32112 0.0
C1966 C 0.96439 0.46787 0.31639 0.0
C1967 C 1.01725 0.4581 0.3154 0.0
H1968 H 0.18326 0.23643 0.06182 0.0
H1969 H 0.33991 0.19589 0.06877 0.0
H1970 H 0.36103 0.28716 0.07084 0.0
H1971 H 0.33464 0.3787 0.07042 0.0
H1972 H 0.17707 0.41668 0.06369 0.0
H1973 H 0.15665 0.32582 0.06189 0.0
C1974 C 0.22234 0.24713 0.06371 0.0
C1975 C 0.26021 0.20884 0.06496 0.0
C1976 C 0.23388 0.29937 0.06499 0.0
C1977 C 0.31012 0.22419 0.06765 0.0
C1978 C 0.3221 0.27646 0.06885 0.0
C1979 C 0.29576 0.36714 0.06858 0.0
C1980 C 0.25742 0.4049 0.06715 0.0
C1981 C 0.28428 0.31445 0.06751 0.0
C1982 C 0.20734 0.38888 0.0648 0.0
C1983 C 0.19567 0.3368 0.06375 0.0
H1984 H 0.41907 0.58646 0.82204 0.0
H1985 H 0.37909 0.43229 0.81298 0.0
H1986 H 0.46968 0.4115 0.81094 0.0
H1987 H 0.55974 0.43652 0.81138 0.0
H1988 H 0.60282 0.58956 0.82059 0.0
H1989 H 0.5117 0.61135 0.82282 0.0
C1990 C 0.43015 0.54824 0.81964 0.0
C1991 C 0.39165 0.51099 0.81766 0.0
C1992 C 0.48296 0.53646 0.81841 0.0
C1993 C 0.40725 0.46179 0.81456 0.0
C1994 C 0.45928 0.44988 0.81336 0.0
C1995 C 0.5497 0.47498 0.81381 0.0
C1996 C 0.58888 0.51155 0.81567 0.0
C1997 C 0.4974 0.48692 0.81518 0.0
C1998 C 0.57406 0.56069 0.81899 0.0
C1999 C 0.52177 0.57306 0.82029 0.0
H2000 H 0.323 0.80514 0.55217 0.0
H2001 H 0.20114 0.84493 0.57366 0.0
H2002 H 0.19281 0.75494 0.57893 0.0
H2003 H 0.21959 0.66418 0.57734 0.0
H2004 H 0.34406 0.62511 0.55641 0.0
H2005 H 0.35205 0.71501 0.5511 0.0
C2006 C 0.29422 0.79412 0.55794 0.0
C2007 C 0.26227 0.83218 0.56241 0.0
C2008 C 0.29039 0.74216 0.56111 0.0
C2009 C 0.22622 0.81694 0.57007 0.0
C2010 C 0.22143 0.76527 0.57309 0.0
C2011 C 0.24874 0.67527 0.57166 0.0
C2012 C 0.28124 0.63735 0.5673 0.0
C2013 C 0.25332 0.72745 0.56867 0.0
C2014 C 0.31872 0.653 0.55996 0.0
C2015 C 0.3231 0.70458 0.55688 0.0
H2016 H 0.13462 0.59999 0.19133 0.0
H2017 H 0.17042 0.44734 0.20212 0.0
H2018 H 0.07937 0.43036 0.205 0.0
H2019 H 0.99017 0.45853 0.20475 0.0
H2020 H 0.95165 0.60978 0.19356 0.0
H2021 H 0.04316 0.62777 0.19068 0.0
C2022 C 0.12255 0.56289 0.19428 0.0
C2023 C 0.15992 0.52494 0.1965 0.0
C2024 C 0.06961 0.55334 0.19596 0.0
C2025 C 0.14307 0.47724 0.20032 0.0
C2026 C 0.09083 0.46757 0.202 0.0
C2027 C 1.00134 0.49577 0.20174 0.0
C2028 C 0.96334 0.53301 0.19952 0.0
C2029 C 0.05383 0.50538 0.19993 0.0
C2030 C 0.97952 0.58053 0.19547 0.0
C2031 C 0.03202 0.59069 0.19377 0.0
H2032 H 0.19553 0.39073 0.94679 0.0
H2033 H 0.35817 0.41881 0.94512 0.0
H2034 H 0.37438 0.32648 0.94577 0.0
H2035 H 0.3419 0.23809 0.94511 0.0
H2036 H 0.18001 0.20859 0.94754 0.0
H2037 H 0.16365 0.30123 0.94849 0.0
C2038 C 0.23456 0.37661 0.94666 0.0
C2039 C 0.27568 0.41172 0.94574 0.0
C2040 C 0.24356 0.32332 0.94723 0.0
C2041 C 0.32596 0.39281 0.94577 0.0
C2042 C 0.33517 0.33997 0.94613 0.0
C2043 C 0.30311 0.25182 0.94619 0.0
C2044 C 0.2622 0.21637 0.94638 0.0
C2045 C 0.29426 0.30492 0.94667 0.0
C2046 C 0.21213 0.23487 0.94758 0.0
C2047 C 0.20285 0.28791 0.94798 0.0
H2048 H 0.5565 0.55822 0.71303 0.0
H2049 H 0.59448 0.43767 0.69118 0.0
H2050 H 0.50367 0.42942 0.68634 0.0
H2051 H 0.41233 0.4552 0.68867 0.0
H2052 H 0.3762 0.57995 0.70968 0.0
H2053 H 0.46679 0.58804 0.71438 0.0
C2054 C 0.54496 0.52983 0.70724 0.0
C2055 C 0.58265 0.49785 0.70264 0.0
C2056 C 0.49267 0.52633 0.70429 0.0
C2057 C 0.56672 0.46247 0.69493 0.0
C2058 C 0.51459 0.45781 0.69216 0.0
C2059 C 0.42427 0.48451 0.69421 0.0
C2060 C 0.38682 0.51693 0.69881 0.0
C2061 C 0.47704 0.48937 0.69682 0.0
C2062 C 0.4036 0.55468 0.70594 0.0
C2063 C 0.45562 0.55911 0.70869 0.0
H2064 H 0.22604 0.8111 0.46369 0.0
H2065 H 0.34677 0.84606 0.44153 0.0
H2066 H 0.3556 0.75464 0.43743 0.0
H2067 H 0.32963 0.6639 0.44035 0.0
H2068 H 0.205 0.63047 0.46172 0.0
H2069 H 0.19697 0.72159 0.46585 0.0
C2070 C 0.25465 0.79878 0.45801 0.0
C2071 C 0.28634 0.83579 0.45306 0.0
C2072 C 0.25857 0.74611 0.4555 0.0
C2073 C 0.32207 0.81882 0.44551 0.0
C2074 C 0.3271 0.76636 0.44317 0.0
C2075 C 0.30051 0.67653 0.44588 0.0
C2076 C 0.26801 0.6398 0.45073 0.0
C2077 C 0.29563 0.72952 0.44813 0.0
C2078 C 0.23038 0.65738 0.45781 0.0
C2079 C 0.22594 0.70968 0.46022 0.0
H2080 H 0.34046 0.07277 0.11784 0.0
H2081 H 0.22421 0.96194 0.10972 0.0
H2082 H 0.20609 0.94788 0.12843 0.0
H2083 H 0.21873 0.97156 0.14698 0.0
H2084 H 0.33341 0.08316 0.15529 0.0
H2085 H 0.3583 0.09094 0.13663 0.0
C2086 C 0.3118 0.04487 0.12014 0.0
C2087 C 0.28323 1.01901 0.11233 0.0
C2088 C 0.30151 0.03696 0.13095 0.0
C2089 C 0.24595 0.98327 0.11552 0.0
C2090 C 0.23579 0.97492 0.12623 0.0
C2091 C 0.24945 0.9973 0.1447 0.0
C2092 C 0.27379 0.02721 0.15246 0.0
C2093 C 0.26255 1.00235 0.13399 0.0
C2094 C 0.31427 0.0596 0.14946 0.0
C2095 C 0.3281 0.0644 0.13879 0.0
H2096 H 0.19653 0.06375 0.36844 0.0
H2097 H 0.34088 0.99848 0.35873 0.0
H2098 H 0.36408 0.985 0.37727 0.0
H2099 H 0.34161 0.98861 0.39618 0.0
H2100 H 0.19623 0.05242 0.40564 0.0
H2101 H 0.17626 0.07178 0.38722 0.0
C2102 C 0.23355 0.04749 0.37031 0.0
C2103 C 0.26683 0.03211 0.36212 0.0
C2104 C 0.24661 0.03992 0.38097 0.0
C2105 C 0.31417 1.01008 0.36482 0.0
C2106 C 0.32759 1.00261 0.37544 0.0
C2107 C 0.30555 1.00677 0.39422 0.0
C2108 C 0.27036 1.01864 0.40233 0.0
C2109 C 0.29377 1.01676 0.38357 0.0
C2110 C 0.22431 0.04324 0.39963 0.0
C2111 C 0.2126 0.05388 0.38907 0.0
H2112 H 0.26608 0.93366 0.61862 0.0
H2113 H 0.28048 0.09134 0.60905 0.0
H2114 H 0.28651 0.11734 0.62771 0.0
H2115 H 0.28479 0.09452 0.64669 0.0
H2116 H 0.27322 0.93518 0.65572 0.0
H2117 H 0.26722 0.9108 0.63728 0.0
C2118 C 0.27011 0.97379 0.62062 0.0
C2119 C 0.27217 1.01065 0.61252 0.0
C2120 C 0.27343 0.98814 0.63125 0.0
C2121 C 0.2789 0.06235 0.61518 0.0
C2122 C 0.28204 0.07713 0.62583 0.0
C2123 C 0.28136 0.05444 0.64466 0.0
C2124 C 0.2789 1.017 0.65272 0.0
C2125 C 0.27898 0.04028 0.63393 0.0
C2126 C 0.27402 0.96523 0.64983 0.0
C2127 C 0.27109 0.95101 0.63923 0.0
H2128 H 0.23112 0.09837 0.89677 0.0
H2129 H 0.31238 0.96247 0.90639 0.0
H2130 H 0.32578 0.93953 0.88781 0.0
H2131 H 0.3157 0.95918 0.86897 0.0
H2132 H 0.23831 0.09777 0.85941 0.0
H2133 H 0.21983 0.11727 0.87789 0.0
C2134 C 0.25123 0.0634 0.8948 0.0
C2135 C 0.27073 0.03214 0.90295 0.0
C2136 C 0.25891 0.05069 0.88414 0.0
C2137 C 0.29756 0.98746 0.90027 0.0
C2138 C 0.30488 0.97419 0.88966 0.0
C2139 C 0.29506 0.99387 0.87088 0.0
C2140 C 0.27895 0.02713 0.86273 0.0
C2141 C 0.28605 1.00576 0.88154 0.0
C2142 C 0.25091 0.07112 0.86543 0.0
C2143 C 0.24076 0.08263 0.87603 0.0
H2144 H 0.72092 0.9769 0.89898 0.0
H2145 H 0.83198 0.09241 0.90733 0.0
H2146 H 0.84967 0.10781 0.8886 0.0
H2147 H 0.83313 0.08919 0.86983 0.0
H2148 H 0.72074 0.97499 0.86146 0.0
H2149 H 0.70421 0.95844 0.8802 0.0
C2150 C 0.74865 1.00583 0.89674 0.0
C2151 C 0.77486 0.03357 0.90466 0.0
C2152 C 0.75853 1.01469 0.88591 0.0
C2153 C 0.81148 0.0701 0.9015 0.0
C2154 C 0.82145 0.07915 0.89075 0.0
C2155 C 0.80464 0.061 0.87206 0.0
C2156 C 0.77811 0.03359 0.86414 0.0
C2157 C 0.79509 0.0518 0.88289 0.0
C2158 C 0.74214 0.99641 0.8673 0.0
C2159 C 0.73243 0.9871 0.87805 0.0
H2160 H 0.7344 0.0763 0.61729 0.0
H2161 H 0.84605 0.96055 0.60964 0.0
H2162 H 0.85696 0.94166 0.62849 0.0
H2163 H 0.83317 0.95673 0.64712 0.0
H2164 H 0.71923 0.07072 0.65455 0.0
H2165 H 0.71074 0.09135 0.63579 0.0
C2166 C 0.76079 0.04653 0.61969 0.0
C2167 C 0.78898 1.01959 0.61196 0.0
C2168 C 0.76642 0.03551 0.63053 0.0
C2169 C 0.82404 0.98216 0.61534 0.0
C2170 C 0.83004 0.97111 0.62614 0.0
C2171 C 0.80607 0.98574 0.64467 0.0
C2172 C 0.77669 1.01192 0.65233 0.0
C2173 C 0.80111 0.99726 0.63381 0.0
C2174 C 0.74268 0.05021 0.64891 0.0
C2175 C 0.73761 0.06189 0.63815 0.0
H2176 H 0.73577 0.97442 0.40004 0.0
H2177 H 0.84629 0.09609 0.39656 0.0
H2178 H 0.83848 0.09187 0.37737 0.0
H2179 H 0.80254 0.05184 0.36139 0.0
H2180 H 0.69116 0.9308 0.36477 0.0
H2181 H 0.6971 0.93656 0.38398 0.0
C2182 C 0.75771 1.0003 0.39508 0.0
C2183 C 0.79202 0.03506 0.39981 0.0
C2184 C 0.7532 0.99761 0.38395 0.0
C2185 C 0.82037 0.06816 0.3932 0.0
C2186 C 0.81574 0.06601 0.38218 0.0
C2187 C 0.77919 0.02705 0.36631 0.0
C2188 C 0.74687 0.99061 0.36153 0.0
C2189 C 0.78269 0.03054 0.37744 0.0
C2190 C 0.71722 0.95857 0.36813 0.0
C2191 C 0.7203 0.96204 0.37917 0.0
H2192 H 0.72037 0.07485 0.14723 0.0
H2193 H 0.8338 0.96169 0.15547 0.0
H2194 H 0.84941 0.94507 0.13672 0.0
H2195 H 0.83113 0.96275 0.11793 0.0
H2196 H 0.71864 0.07691 0.10972 0.0
H2197 H 0.70251 0.09293 0.12846 0.0
C2198 C 0.74891 0.04691 0.14496 0.0
C2199 C 0.77592 1.01974 0.15285 0.0
C2200 C 0.75782 0.03757 0.13412 0.0
C2201 C 0.81199 0.98289 0.14966 0.0
C2202 C 0.82116 0.97353 0.1389 0.0
C2203 C 0.80343 0.99151 0.12021 0.0
C2204 C 0.77628 1.01863 0.11232 0.0
C2205 C 0.79437 1.00068 0.13105 0.0
C2206 C 0.73979 0.05503 0.11553 0.0
C2207 C 0.73072 0.06444 0.12628 0.0
H2208 H 0.85401 0.53791 0.61935 0.0
H2209 H 0.69663 0.51583 0.60963 0.0
H2210 H 0.6709 0.50703 0.62796 0.0
H2211 H 0.69194 0.50593 0.64676 0.0
H2212 H 0.84753 0.5304 0.65693 0.0
H2213 H 0.87471 0.53977 0.6384 0.0
C2214 C 0.81399 0.5316 0.62117 0.0
C2215 C 0.77766 0.5272 0.61291 0.0
C2216 C 0.79892 0.52746 0.63185 0.0
C2217 C 0.72602 0.51852 0.61562 0.0
C2218 C 0.71097 0.51386 0.62618 0.0
C2219 C 0.73192 0.51292 0.64493 0.0
C2220 C 0.76781 0.51681 0.6532 0.0
C2221 C 0.74703 0.51812 0.63433 0.0
C2222 C 0.8192 0.52735 0.65071 0.0
C2223 C 0.8347 0.53239 0.64012 0.0
H2224 H 0.83684 0.47841 0.89726 0.0
H2225 H 0.72272 0.59089 0.90547 0.0
H2226 H 0.706 0.60656 0.88673 0.0
H2227 H 0.7234 0.58787 0.86801 0.0
H2228 H 0.83926 0.47709 0.85987 0.0
H2229 H 0.85585 0.46145 0.8786 0.0
C2230 C 0.80875 0.50684 0.89499 0.0
C2231 C 0.78118 0.53344 0.90283 0.0
C2232 C 0.79956 0.51592 0.88419 0.0
C2233 C 0.74413 0.56937 0.89966 0.0
C2234 C 0.73475 0.57859 0.88892 0.0
C2235 C 0.75274 0.56079 0.87031 0.0
C2236 C 0.78 0.53371 0.86249 0.0
C2237 C 0.76222 0.55207 0.88112 0.0
C2238 C 0.81723 0.49803 0.86568 0.0
C2239 C 0.82693 0.48922 0.87641 0.0
H2240 H 0.77195 0.58128 0.11296 0.0
H2241 H 0.77126 0.41753 0.11667 0.0
H2242 H 0.78316 0.42626 0.13578 0.0
H2243 H 0.79188 0.48035 0.15144 0.0
H2244 H 0.78709 0.64468 0.14804 0.0
H2245 H 0.77966 0.63599 0.1289 0.0
C2246 C 0.775 0.54778 0.118 0.0
C2247 C 0.77087 0.49889 0.11349 0.0
C2248 C 0.78058 0.55318 0.12904 0.0
C2249 C 0.77415 0.4555 0.12004 0.0
C2250 C 0.78089 0.46049 0.13094 0.0
C2251 C 0.78863 0.51435 0.14657 0.0
C2252 C 0.7902 0.56307 0.15128 0.0
C2253 C 0.78354 0.50914 0.13555 0.0
C2254 C 0.78677 0.6066 0.14471 0.0
C2255 C 0.78227 0.60172 0.13372 0.0
H2256 H 0.8206 0.47196 0.36702 0.0
H2257 H 0.71106 0.58984 0.35941 0.0
H2258 H 0.69477 0.60346 0.37827 0.0
H2259 H 0.71082 0.58071 0.39689 0.0
H2260 H 0.8188 0.46108 0.40433 0.0
H2261 H 0.83639 0.44911 0.38552 0.0
C2262 C 0.79274 0.50028 0.36946 0.0
C2263 C 0.76682 0.52955 0.36178 0.0
C2264 C 0.7833 0.50754 0.38029 0.0
C2265 C 0.73185 0.56704 0.36513 0.0
C2266 C 0.72228 0.5746 0.37591 0.0
C2267 C 0.73779 0.55165 0.3944 0.0
C2268 C 0.76331 0.5217 0.40204 0.0
C2269 C 0.74758 0.54484 0.38356 0.0
C2270 C 0.79899 0.48497 0.39866 0.0
C2271 C 0.80889 0.47794 0.38789 0.0
H2272 H 0.33055 0.55979 0.36966 0.0
H2273 H 0.21109 0.45344 0.36108 0.0
H2274 H 0.1921 0.43886 0.37982 0.0
H2275 H 0.20831 0.45787 0.39864 0.0
H2276 H 0.32598 0.56674 0.407 0.0
H2277 H 0.34654 0.57891 0.38833 0.0
C2278 C 0.29995 0.5338 0.37184 0.0
C2279 C 0.27202 0.50816 0.36389 0.0
C2280 C 0.28888 0.52607 0.38262 0.0
C2281 C 0.23348 0.47351 0.36696 0.0
C2282 C 0.22238 0.4654 0.3777 0.0
C2283 C 0.23811 0.48466 0.3964 0.0
C2284 C 0.26538 0.51148 0.4043 0.0
C2285 C 0.24958 0.49179 0.3856 0.0
C2286 C 0.30464 0.54519 0.40117 0.0
C2287 C 0.31628 0.55238 0.39047 0.0
H2288 H 0.36026 0.51121 0.14586 0.0
H2289 H 0.20423 0.5411 0.15514 0.0
H2290 H 0.17977 0.54966 0.13646 0.0
H2291 H 0.203 0.54743 0.11761 0.0
H2292 H 0.36062 0.52076 0.10863 0.0
H2293 H 0.38362 0.51023 0.12713 0.0
C2294 C 0.32073 0.51903 0.14382 0.0
C2295 C 0.28398 0.52499 0.15189 0.0
C2296 C 0.30715 0.52394 0.13312 0.0
C2297 C 0.23324 0.53654 0.14909 0.0
C2298 C 0.21927 0.54114 0.13841 0.0
C2299 C 0.24251 0.53969 0.11961 0.0
C2300 C 0.27979 0.53483 0.11154 0.0
C2301 C 0.25596 0.53483 0.13036 0.0
C2302 C 0.33063 0.52399 0.1145 0.0
C2303 C 0.34407 0.51838 0.12514 0.0
H2304 H 0.32425 0.52471 0.86215 0.0
H2305 H 0.16029 0.51063 0.86419 0.0
H2306 H 0.16366 0.52262 0.88338 0.0
H2307 H 0.21342 0.53641 0.89965 0.0
H2308 H 0.37844 0.5442 0.89771 0.0
H2309 H 0.37442 0.53572 0.8786 0.0
C2310 C 0.28943 0.52475 0.86683 0.0
C2311 C 0.24213 0.51701 0.8618 0.0
C2312 C 0.29181 0.5304 0.87793 0.0
C2313 C 0.19715 0.51635 0.86793 0.0
C2314 C 0.19907 0.52318 0.8789 0.0
C2315 C 0.24859 0.53578 0.8951 0.0
C2316 C 0.29605 0.54168 0.90027 0.0
C2317 C 0.24625 0.52986 0.88402 0.0
C2318 C 0.34109 0.54099 0.89408 0.0
C2319 C 0.33898 0.5358 0.88307 0.0
H2320 H 0.32718 0.52352 0.65298 0.0
H2321 H 0.16295 0.51694 0.65042 0.0
H2322 H 0.16921 0.50739 0.6312 0.0
H2323 H 0.22133 0.50243 0.61504 0.0
H2324 H 0.38585 0.51427 0.61742 0.0
H2325 H 0.37962 0.51999 0.6366 0.0
C2326 C 0.29302 0.5194 0.64817 0.0
C2327 C 0.24471 0.5207 0.65307 0.0
C2328 C 0.29692 0.51517 0.63705 0.0
C2329 C 0.20052 0.51612 0.64678 0.0
C2330 C 0.20409 0.51076 0.6358 0.0
C2331 C 0.25585 0.50678 0.6197 0.0
C2332 C 0.30398 0.5075 0.61465 0.0
C2333 C 0.25207 0.51078 0.63081 0.0
C2334 C 0.34821 0.51263 0.62098 0.0
C2335 C 0.34475 0.51616 0.63201 0.0
loop_
_geom_bond_atom_site_label_1
_geom_bond_atom_site_label_2
_geom_bond_distance
_geom_bond_site_symmetry_2
_ccdc_geom_bond_type
Co0 N4 2.148 . S
Co0 N10 2.128 . S
Co0 N20 2.194 . S
Co0 O25 2.351 . S
Co0 O26 2.155 1_545 S
Co0 O27 2.096 1_545 S
C1 N4 1.301 . S
C1 N5 1.328 . S
C1 H6 0.930 . S
C2 C3 1.333 1_565 S
C2 N4 1.317 1_565 S
C2 H7 0.930 . S
C3 C2 1.333 1_545 S
C3 N5 1.350 . S
C3 H29 0.931 1_545 S
N4 Co0 2.148 . S
N4 C1 1.301 . S
N4 C2 1.317 1_545 S
N5 C1 1.328 . S
N5 C3 1.350 . S
H6 C1 0.930 . S
H7 C2 0.930 . S
C8 O9 1.224 1_565 S
C8 O27 1.247 1_655 S
O9 C8 1.224 1_545 S
N10 Co0 2.128 . S
N10 C11 1.355 . S
N10 C13 1.311 1_545 S
C11 N10 1.355 . S
C11 C12 1.363 . S
C11 H23 0.929 . S
C12 C11 1.363 . S
C12 N14 1.375 . S
C12 H30 0.931 . S
C13 N10 1.311 1_565 S
C13 N14 1.347 1_565 S
C13 H24 0.929 . S
N14 C12 1.375 . S
N14 C13 1.347 1_545 S
C15 C18 1.365 . S
C15 N20 1.328 . S
C15 H21 0.929 . S
C16 C17 1.362 . S
C16 C19 1.378 . S
C16 H31 0.929 1_455 S
C17 C16 1.362 . S
C17 C18 1.366 . S
C18 C15 1.365 . S
C18 C17 1.366 . S
C18 H32 0.930 . S
C19 C16 1.378 . S
C19 N20 1.315 . S
C19 H22 0.930 . S
N20 Co0 2.194 . S
N20 C15 1.328 . S
N20 C19 1.315 . S
H21 C15 0.929 . S
H22 C19 0.930 . S
H23 C11 0.929 . S
H24 C13 0.929 . S
O25 Co0 2.351 . S
O25 C28 1.244 1_545 S
O26 Co0 2.155 1_565 S
O26 C28 1.240 . S
O27 Co0 2.096 1_565 S
O27 C8 1.247 1_455 S
C28 O25 1.244 1_565 S
C28 O26 1.240 . S
H29 C3 0.931 1_565 S
H30 C12 0.931 . S
H31 C16 0.929 1_655 S
H32 C18 0.930 . S
Co33 N37 2.148 . S
Co33 N43 2.128 . S
Co33 N53 2.194 . S
Co33 O58 2.351 . S
Co33 O59 2.155 . S
Co33 O60 2.096 . S
C34 N37 1.301 . S
C34 N38 1.328 . S
C34 H39 0.930 . S
C35 C36 1.333 . S
C35 N37 1.317 . S
C35 H40 0.930 . S
C36 C35 1.333 . S
C36 N38 1.350 . S
C36 H62 0.931 . S
N37 Co33 2.148 . S
N37 C34 1.301 . S
N37 C35 1.317 . S
N38 C34 1.328 . S
N38 C36 1.350 . S
H39 C34 0.930 . S
H40 C35 0.930 . S
C41 O42 1.224 . S
C41 O60 1.247 . S
O42 C41 1.224 . S
N43 Co33 2.128 . S
N43 C44 1.355 . S
N43 C46 1.311 . S
C44 N43 1.355 . S
C44 C45 1.363 . S
C44 H56 0.929 . S
C45 C44 1.363 . S
C45 N47 1.375 . S
C45 H63 0.931 . S
C46 N43 1.311 . S
C46 N47 1.347 . S
C46 H57 0.929 . S
N47 C45 1.375 . S
N47 C46 1.347 . S
C48 C51 1.365 . S
C48 N53 1.328 . S
C48 H54 0.929 . S
C49 C50 1.362 . S
C49 C52 1.378 . S
C49 H64 0.929 . S
C50 C49 1.362 . S
C50 C51 1.366 . S
C51 C48 1.365 . S
C51 C50 1.366 . S
C51 H65 0.930 . S
C52 C49 1.378 . S
C52 N53 1.315 . S
C52 H55 0.930 . S
N53 Co33 2.194 . S
N53 C48 1.328 . S
N53 C52 1.315 . S
H54 C48 0.929 . S
H55 C52 0.930 . S
H56 C44 0.929 . S
H57 C46 0.929 . S
O58 Co33 2.351 . S
O58 C61 1.244 . S
O59 Co33 2.155 . S
O59 C61 1.240 . S
O60 Co33 2.096 . S
O60 C41 1.247 . S
C61 O58 1.244 . S
C61 O59 1.240 . S
H62 C36 0.931 . S
H63 C45 0.931 . S
H64 C49 0.929 . S
H65 C51 0.930 . S
Co66 N70 2.148 . S
Co66 N76 2.128 . S
Co66 N86 2.194 . S
Co66 O91 2.351 . S
Co66 O92 2.155 1_565 S
Co66 O93 2.096 1_565 S
C67 N70 1.301 . S
C67 N71 1.328 . S
C67 H72 0.930 . S
C68 C69 1.333 1_545 S
C68 N70 1.317 1_545 S
C68 H73 0.930 . S
C69 C68 1.333 1_565 S
C69 N71 1.350 . S
C69 H95 0.931 1_565 S
N70 Co66 2.148 . S
N70 C67 1.301 . S
N70 C68 1.317 1_565 S
N71 C67 1.328 . S
N71 C69 1.350 . S
H72 C67 0.930 . S
H73 C68 0.930 . S
C74 O75 1.224 1_545 S
C74 O93 1.247 . S
O75 C74 1.224 1_565 S
N76 Co66 2.128 . S
N76 C77 1.355 . S
N76 C79 1.311 1_565 S
C77 N76 1.355 . S
C77 C78 1.363 . S
C77 H89 0.929 . S
C78 C77 1.363 . S
C78 N80 1.375 . S
C78 H96 0.931 . S
C79 N76 1.311 1_545 S
C79 N80 1.347 1_545 S
C79 H90 0.929 . S
N80 C78 1.375 . S
N80 C79 1.347 1_565 S
C81 C84 1.365 . S
C81 N86 1.328 . S
C81 H87 0.929 . S
C82 C83 1.362 . S
C82 C85 1.378 . S
C82 H97 0.929 . S
C83 C82 1.362 . S
C83 C84 1.366 . S
C84 C81 1.365 . S
C84 C83 1.366 . S
C84 H98 0.930 . S
C85 C82 1.378 . S
C85 N86 1.315 . S
C85 H88 0.930 . S
N86 Co66 2.194 . S
N86 C81 1.328 . S
N86 C85 1.315 . S
H87 C81 0.929 . S
H88 C85 0.930 . S
H89 C77 0.929 . S
H90 C79 0.929 . S
O91 Co66 2.351 . S
O91 C94 1.244 1_565 S
O92 Co66 2.155 1_545 S
O92 C94 1.240 . S
O93 Co66 2.096 1_545 S
O93 C74 1.247 . S
C94 O91 1.244 1_545 S
C94 O92 1.240 . S
H95 C69 0.931 1_545 S
H96 C78 0.931 . S
H97 C82 0.929 . S
H98 C84 0.930 . S
Co99 N103 2.148 . S
Co99 N109 2.128 . S
Co99 N119 2.194 . S
Co99 O124 2.351 . S
Co99 O125 2.155 . S
Co99 O126 2.096 . S
C100 N103 1.301 . S
C100 N104 1.328 . S
C100 H105 0.930 . S
C101 C102 1.333 . S
C101 N103 1.317 . S
C101 H106 0.930 . S
C102 C101 1.333 . S
C102 N104 1.350 . S
C102 H128 0.931 . S
N103 Co99 2.148 . S
N103 C100 1.301 . S
N103 C101 1.317 . S
N104 C100 1.328 . S
N104 C102 1.350 . S
H105 C100 0.930 . S
H106 C101 0.930 . S
C107 O108 1.224 . S
C107 O126 1.247 . S
O108 C107 1.224 . S
N109 Co99 2.128 . S
N109 C110 1.355 . S
N109 C112 1.311 . S
C110 N109 1.355 . S
C110 C111 1.363 . S
C110 H122 0.929 . S
C111 C110 1.363 . S
C111 N113 1.375 . S
C111 H129 0.931 . S
C112 N109 1.311 . S
C112 N113 1.347 . S
C112 H123 0.929 . S
N113 C111 1.375 . S
N113 C112 1.347 . S
C114 C117 1.365 . S
C114 N119 1.328 . S
C114 H120 0.929 . S
C115 C116 1.362 . S
C115 C118 1.378 . S
C115 H130 0.929 . S
C116 C115 1.362 . S
C116 C117 1.366 . S
C117 C114 1.365 . S
C117 C116 1.366 . S
C117 H131 0.930 . S
C118 C115 1.378 . S
C118 N119 1.315 . S
C118 H121 0.930 . S
N119 Co99 2.194 . S
N119 C114 1.328 . S
N119 C118 1.315 . S
H120 C114 0.929 . S
H121 C118 0.930 . S
H122 C110 0.929 . S
H123 C112 0.929 . S
O124 Co99 2.351 . S
O124 C127 1.244 . S
O125 Co99 2.155 . S
O125 C127 1.240 . S
O126 Co99 2.096 . S
O126 C107 1.247 . S
C127 O124 1.244 . S
C127 O125 1.240 . S
H128 C102 0.931 . S
H129 C111 0.931 . S
H130 C115 0.929 . S
H131 C117 0.930 . S
Co132 N136 2.148 . S
Co132 N142 2.128 . S
Co132 N152 2.194 . S
Co132 O157 2.351 . S
Co132 O158 2.155 1_565 S
Co132 O159 2.096 1_565 S
C133 N136 1.301 . S
C133 N137 1.328 . S
C133 H138 0.930 . S
C134 C135 1.333 1_545 S
C134 N136 1.317 1_545 S
C134 H139 0.930 . S
C135 C134 1.333 1_565 S
C135 N137 1.350 . S
C135 H161 0.931 1_565 S
N136 Co132 2.148 . S
N136 C133 1.301 . S
N136 C134 1.317 1_565 S
N137 C133 1.328 . S
N137 C135 1.350 . S
H138 C133 0.930 . S
H139 C134 0.930 . S
C140 O141 1.224 1_545 S
C140 O159 1.247 1_655 S
O141 C140 1.224 1_565 S
N142 Co132 2.128 . S
N142 C143 1.355 . S
N142 C145 1.311 1_565 S
C143 N142 1.355 . S
C143 C144 1.363 . S
C143 H155 0.929 . S
C144 C143 1.363 . S
C144 N146 1.375 . S
C144 H162 0.931 . S
C145 N142 1.311 1_545 S
C145 N146 1.347 1_545 S
C145 H156 0.929 . S
N146 C144 1.375 . S
N146 C145 1.347 1_565 S
C147 C150 1.365 . S
C147 N152 1.328 . S
C147 H153 0.929 . S
C148 C149 1.362 . S
C148 C151 1.378 . S
C148 H163 0.929 1_455 S
C149 C148 1.362 . S
C149 C150 1.366 . S
C150 C147 1.365 . S
C150 C149 1.366 . S
C150 H164 0.930 . S
C151 C148 1.378 . S
C151 N152 1.315 . S
C151 H154 0.930 . S
N152 Co132 2.194 . S
N152 C147 1.328 . S
N152 C151 1.315 . S
H153 C147 0.929 . S
H154 C151 0.930 . S
H155 C143 0.929 . S
H156 C145 0.929 . S
O157 Co132 2.351 . S
O157 C160 1.244 1_565 S
O158 Co132 2.155 1_545 S
O158 C160 1.240 . S
O159 Co132 2.096 1_545 S
O159 C140 1.247 1_455 S
C160 O157 1.244 1_545 S
C160 O158 1.240 . S
H161 C135 0.931 1_545 S
H162 C144 0.931 . S
H163 C148 0.929 1_655 S
H164 C150 0.930 . S
Co165 N169 2.148 . S
Co165 N175 2.128 . S
Co165 N185 2.194 . S
Co165 O190 2.351 . S
Co165 O191 2.155 . S
Co165 O192 2.096 . S
C166 N169 1.301 . S
C166 N170 1.328 . S
C166 H171 0.930 . S
C167 C168 1.333 . S
C167 N169 1.317 . S
C167 H172 0.930 . S
C168 C167 1.333 . S
C168 N170 1.350 . S
C168 H194 0.931 . S
N169 Co165 2.148 . S
N169 C166 1.301 . S
N169 C167 1.317 . S
N170 C166 1.328 . S
N170 C168 1.350 . S
H171 C166 0.930 . S
H172 C167 0.930 . S
C173 O174 1.224 . S
C173 O192 1.247 . S
O174 C173 1.224 . S
N175 Co165 2.128 . S
N175 C176 1.355 . S
N175 C178 1.311 . S
C176 N175 1.355 . S
C176 C177 1.363 . S
C176 H188 0.929 . S
C177 C176 1.363 . S
C177 N179 1.375 . S
C177 H195 0.931 . S
C178 N175 1.311 . S
C178 N179 1.347 . S
C178 H189 0.929 . S
N179 C177 1.375 . S
N179 C178 1.347 . S
C180 C183 1.365 . S
C180 N185 1.328 . S
C180 H186 0.929 . S
C181 C182 1.362 . S
C181 C184 1.378 . S
C181 H196 0.929 . S
C182 C181 1.362 . S
C182 C183 1.366 . S
C183 C180 1.365 . S
C183 C182 1.366 . S
C183 H197 0.930 . S
C184 C181 1.378 . S
C184 N185 1.315 . S
C184 H187 0.930 . S
N185 Co165 2.194 . S
N185 C180 1.328 . S
N185 C184 1.315 . S
H186 C180 0.929 . S
H187 C184 0.930 . S
H188 C176 0.929 . S
H189 C178 0.929 . S
O190 Co165 2.351 . S
O190 C193 1.244 . S
O191 Co165 2.155 . S
O191 C193 1.240 . S
O192 Co165 2.096 . S
O192 C173 1.247 . S
C193 O190 1.244 . S
C193 O191 1.240 . S
H194 C168 0.931 . S
H195 C177 0.931 . S
H196 C181 0.929 . S
H197 C183 0.930 . S
Co198 N202 2.148 . S
Co198 N208 2.128 . S
Co198 N218 2.194 . S
Co198 O223 2.351 . S
Co198 O224 2.155 1_545 S
Co198 O225 2.096 1_545 S
C199 N202 1.301 . S
C199 N203 1.328 . S
C199 H204 0.930 . S
C200 C201 1.333 1_565 S
C200 N202 1.317 1_565 S
C200 H205 0.930 . S
C201 C200 1.333 1_545 S
C201 N203 1.350 . S
C201 H227 0.931 1_545 S
N202 Co198 2.148 . S
N202 C199 1.301 . S
N202 C200 1.317 1_545 S
N203 C199 1.328 . S
N203 C201 1.350 . S
H204 C199 0.930 . S
H205 C200 0.930 . S
C206 O207 1.224 1_565 S
C206 O225 1.247 . S
O207 C206 1.224 1_545 S
N208 Co198 2.128 . S
N208 C209 1.355 . S
N208 C211 1.311 1_545 S
C209 N208 1.355 . S
C209 C210 1.363 . S
C209 H221 0.929 . S
C210 C209 1.363 . S
C210 N212 1.375 . S
C210 H228 0.931 . S
C211 N208 1.311 1_565 S
C211 N212 1.347 1_565 S
C211 H222 0.929 . S
N212 C210 1.375 . S
N212 C211 1.347 1_545 S
C213 C216 1.365 . S
C213 N218 1.328 . S
C213 H219 0.929 . S
C214 C215 1.362 . S
C214 C217 1.378 . S
C214 H229 0.929 . S
C215 C214 1.362 . S
C215 C216 1.366 . S
C216 C213 1.365 . S
C216 C215 1.366 . S
C216 H230 0.930 . S
C217 C214 1.378 . S
C217 N218 1.315 . S
C217 H220 0.930 . S
N218 Co198 2.194 . S
N218 C213 1.328 . S
N218 C217 1.315 . S
H219 C213 0.929 . S
H220 C217 0.930 . S
H221 C209 0.929 . S
H222 C211 0.929 . S
O223 Co198 2.351 . S
O223 C226 1.244 1_545 S
O224 Co198 2.155 1_565 S
O224 C226 1.240 . S
O225 Co198 2.096 1_565 S
O225 C206 1.247 . S
C226 O223 1.244 1_565 S
C226 O224 1.240 . S
H227 C201 0.931 1_565 S
H228 C210 0.931 . S
H229 C214 0.929 . S
H230 C216 0.930 . S
Co231 N235 2.148 . S
Co231 N241 2.128 . S
Co231 N251 2.194 . S
Co231 O256 2.351 . S
Co231 O257 2.155 . S
Co231 O258 2.096 . S
C232 N235 1.301 . S
C232 N236 1.328 . S
C232 H237 0.930 . S
C233 C234 1.333 . S
C233 N235 1.317 . S
C233 H238 0.930 . S
C234 C233 1.333 . S
C234 N236 1.350 . S
C234 H260 0.931 . S
N235 Co231 2.148 . S
N235 C232 1.301 . S
N235 C233 1.317 . S
N236 C232 1.328 . S
N236 C234 1.350 . S
H237 C232 0.930 . S
H238 C233 0.930 . S
C239 O240 1.224 . S
C239 O258 1.247 . S
O240 C239 1.224 . S
N241 Co231 2.128 . S
N241 C242 1.355 . S
N241 C244 1.311 . S
C242 N241 1.355 . S
C242 C243 1.363 . S
C242 H254 0.929 . S
C243 C242 1.363 . S
C243 N245 1.375 . S
C243 H261 0.931 . S
C244 N241 1.311 . S
C244 N245 1.347 . S
C244 H255 0.929 . S
N245 C243 1.375 . S
N245 C244 1.347 . S
C246 C249 1.365 . S
C246 N251 1.328 . S
C246 H252 0.929 . S
C247 C248 1.362 . S
C247 C250 1.378 . S
C247 H262 0.929 . S
C248 C247 1.362 . S
C248 C249 1.366 . S
C249 C246 1.365 . S
C249 C248 1.366 . S
C249 H263 0.930 . S
C250 C247 1.378 . S
C250 N251 1.315 . S
C250 H253 0.930 . S
N251 Co231 2.194 . S
N251 C246 1.328 . S
N251 C250 1.315 . S
H252 C246 0.929 . S
H253 C250 0.930 . S
H254 C242 0.929 . S
H255 C244 0.929 . S
O256 Co231 2.351 . S
O256 C259 1.244 . S
O257 Co231 2.155 . S
O257 C259 1.240 . S
O258 Co231 2.096 . S
O258 C239 1.247 . S
C259 O256 1.244 . S
C259 O257 1.240 . S
H260 C234 0.931 . S
H261 C243 0.931 . S
H262 C247 0.929 . S
H263 C249 0.930 . S
Co264 N268 2.148 . S
Co264 N274 2.128 . S
Co264 N284 2.194 . S
Co264 O289 2.351 . S
Co264 O290 2.155 1_565 S
Co264 O291 2.096 1_565 S
C265 N268 1.301 . S
C265 N269 1.328 . S
C265 H270 0.930 . S
C266 C267 1.333 1_545 S
C266 N268 1.317 1_545 S
C266 H271 0.930 . S
C267 C266 1.333 1_565 S
C267 N269 1.350 . S
C267 H293 0.931 1_565 S
N268 Co264 2.148 . S
N268 C265 1.301 . S
N268 C266 1.317 1_565 S
N269 C265 1.328 . S
N269 C267 1.350 . S
H270 C265 0.930 . S
H271 C266 0.930 . S
C272 O273 1.224 1_545 S
C272 O291 1.247 1_455 S
O273 C272 1.224 1_565 S
N274 Co264 2.128 . S
N274 C275 1.355 . S
N274 C277 1.311 1_565 S
C275 N274 1.355 . S
C275 C276 1.363 . S
C275 H287 0.929 . S
C276 C275 1.363 . S
C276 N278 1.375 . S
C276 H294 0.931 . S
C277 N274 1.311 1_545 S
C277 N278 1.347 1_545 S
C277 H288 0.929 . S
N278 C276 1.375 . S
N278 C277 1.347 1_565 S
C279 C282 1.365 . S
C279 N284 1.328 . S
C279 H285 0.929 . S
C280 C281 1.362 . S
C280 C283 1.378 . S
C280 H295 0.929 1_655 S
C281 C280 1.362 . S
C281 C282 1.366 . S
C282 C279 1.365 . S
C282 C281 1.366 . S
C282 H296 0.930 . S
C283 C280 1.378 . S
C283 N284 1.315 . S
C283 H286 0.930 . S
N284 Co264 2.194 . S
N284 C279 1.328 . S
N284 C283 1.315 . S
H285 C279 0.929 . S
H286 C283 0.930 . S
H287 C275 0.929 . S
H288 C277 0.929 . S
O289 Co264 2.351 . S
O289 C292 1.244 1_565 S
O290 Co264 2.155 1_545 S
O290 C292 1.240 . S
O291 Co264 2.096 1_545 S
O291 C272 1.247 1_655 S
C292 O289 1.244 1_545 S
C292 O290 1.240 . S
H293 C267 0.931 1_545 S
H294 C276 0.931 . S
H295 C280 0.929 1_455 S
H296 C282 0.930 . S
Co297 N301 2.148 . S
Co297 N307 2.128 . S
Co297 N317 2.194 . S
Co297 O322 2.351 . S
Co297 O323 2.155 . S
Co297 O324 2.096 . S
C298 N301 1.301 . S
C298 N302 1.328 . S
C298 H303 0.930 . S
C299 C300 1.333 . S
C299 N301 1.317 . S
C299 H304 0.930 . S
C300 C299 1.333 . S
C300 N302 1.350 . S
C300 H326 0.931 . S
N301 Co297 2.148 . S
N301 C298 1.301 . S
N301 C299 1.317 . S
N302 C298 1.328 . S
N302 C300 1.350 . S
H303 C298 0.930 . S
H304 C299 0.930 . S
C305 O306 1.224 . S
C305 O324 1.247 . S
O306 C305 1.224 . S
N307 Co297 2.128 . S
N307 C308 1.355 . S
N307 C310 1.311 . S
C308 N307 1.355 . S
C308 C309 1.363 . S
C308 H320 0.929 . S
C309 C308 1.363 . S
C309 N311 1.375 . S
C309 H327 0.931 . S
C310 N307 1.311 . S
C310 N311 1.347 . S
C310 H321 0.929 . S
N311 C309 1.375 . S
N311 C310 1.347 . S
C312 C315 1.365 . S
C312 N317 1.328 . S
C312 H318 0.929 . S
C313 C314 1.362 . S
C313 C316 1.378 . S
C313 H328 0.929 . S
C314 C313 1.362 . S
C314 C315 1.366 . S
C315 C312 1.365 . S
C315 C314 1.366 . S
C315 H329 0.930 . S
C316 C313 1.378 . S
C316 N317 1.315 . S
C316 H319 0.930 . S
N317 Co297 2.194 . S
N317 C312 1.328 . S
N317 C316 1.315 . S
H318 C312 0.929 . S
H319 C316 0.930 . S
H320 C308 0.929 . S
H321 C310 0.929 . S
O322 Co297 2.351 . S
O322 C325 1.244 . S
O323 Co297 2.155 . S
O323 C325 1.240 . S
O324 Co297 2.096 . S
O324 C305 1.247 . S
C325 O322 1.244 . S
C325 O323 1.240 . S
H326 C300 0.931 . S
H327 C309 0.931 . S
H328 C313 0.929 . S
H329 C315 0.930 . S
Co330 N334 2.148 . S
Co330 N340 2.128 . S
Co330 N350 2.194 . S
Co330 O355 2.351 . S
Co330 O356 2.155 1_545 S
Co330 O357 2.096 1_545 S
C331 N334 1.301 . S
C331 N335 1.328 . S
C331 H336 0.930 . S
C332 C333 1.333 1_565 S
C332 N334 1.317 1_565 S
C332 H337 0.930 . S
C333 C332 1.333 1_545 S
C333 N335 1.350 . S
C333 H359 0.931 1_545 S
N334 Co330 2.148 . S
N334 C331 1.301 . S
N334 C332 1.317 1_545 S
N335 C331 1.328 . S
N335 C333 1.350 . S
H336 C331 0.930 . S
H337 C332 0.930 . S
C338 O339 1.224 1_565 S
C338 O357 1.247 . S
O339 C338 1.224 1_545 S
N340 Co330 2.128 . S
N340 C341 1.355 . S
N340 C343 1.311 1_545 S
C341 N340 1.355 . S
C341 C342 1.363 . S
C341 H353 0.929 . S
C342 C341 1.363 . S
C342 N344 1.375 . S
C342 H360 0.931 . S
C343 N340 1.311 1_565 S
C343 N344 1.347 1_565 S
C343 H354 0.929 . S
N344 C342 1.375 . S
N344 C343 1.347 1_545 S
C345 C348 1.365 . S
C345 N350 1.328 . S
C345 H351 0.929 . S
C346 C347 1.362 . S
C346 C349 1.378 . S
C346 H361 0.929 . S
C347 C346 1.362 . S
C347 C348 1.366 . S
C348 C345 1.365 . S
C348 C347 1.366 . S
C348 H362 0.930 . S
C349 C346 1.378 . S
C349 N350 1.315 . S
C349 H352 0.930 . S
N350 Co330 2.194 . S
N350 C345 1.328 . S
N350 C349 1.315 . S
H351 C345 0.929 . S
H352 C349 0.930 . S
H353 C341 0.929 . S
H354 C343 0.929 . S
O355 Co330 2.351 . S
O355 C358 1.244 1_545 S
O356 Co330 2.155 1_565 S
O356 C358 1.240 . S
O357 Co330 2.096 1_565 S
O357 C338 1.247 . S
C358 O355 1.244 1_565 S
C358 O356 1.240 . S
H359 C333 0.931 1_565 S
H360 C342 0.931 . S
H361 C346 0.929 . S
H362 C348 0.930 . S
Co363 N367 2.148 . S
Co363 N373 2.128 . S
Co363 N383 2.194 . S
Co363 O388 2.351 . S
Co363 O389 2.155 . S
Co363 O390 2.096 . S
C364 N367 1.301 . S
C364 N368 1.328 . S
C364 H369 0.930 . S
C365 C366 1.333 . S
C365 N367 1.317 . S
C365 H370 0.930 . S
C366 C365 1.333 . S
C366 N368 1.350 . S
C366 H392 0.931 . S
N367 Co363 2.148 . S
N367 C364 1.301 . S
N367 C365 1.317 . S
N368 C364 1.328 . S
N368 C366 1.350 . S
H369 C364 0.930 . S
H370 C365 0.930 . S
C371 O372 1.224 . S
C371 O390 1.247 . S
O372 C371 1.224 . S
N373 Co363 2.128 . S
N373 C374 1.355 . S
N373 C376 1.311 . S
C374 N373 1.355 . S
C374 C375 1.363 . S
C374 H386 0.929 . S
C375 C374 1.363 . S
C375 N377 1.375 . S
C375 H393 0.931 . S
C376 N373 1.311 . S
C376 N377 1.347 . S
C376 H387 0.929 . S
N377 C375 1.375 . S
N377 C376 1.347 . S
C378 C381 1.365 . S
C378 N383 1.328 . S
C378 H384 0.929 . S
C379 C380 1.362 . S
C379 C382 1.378 . S
C379 H394 0.929 . S
C380 C379 1.362 . S
C380 C381 1.366 . S
C381 C378 1.365 . S
C381 C380 1.366 . S
C381 H395 0.930 . S
C382 C379 1.378 . S
C382 N383 1.315 . S
C382 H385 0.930 . S
N383 Co363 2.194 . S
N383 C378 1.328 . S
N383 C382 1.315 . S
H384 C378 0.929 . S
H385 C382 0.930 . S
H386 C374 0.929 . S
H387 C376 0.929 . S
O388 Co363 2.351 . S
O388 C391 1.244 . S
O389 Co363 2.155 . S
O389 C391 1.240 . S
O390 Co363 2.096 . S
O390 C371 1.247 . S
C391 O388 1.244 . S
C391 O389 1.240 . S
H392 C366 0.931 . S
H393 C375 0.931 . S
H394 C379 0.929 . S
H395 C381 0.930 . S
Co396 N400 2.148 . S
Co396 N406 2.128 . S
Co396 N416 2.194 . S
Co396 O421 2.351 . S
Co396 O422 2.155 1_545 S
Co396 O423 2.096 1_545 S
C397 N400 1.301 . S
C397 N401 1.328 . S
C397 H402 0.930 . S
C398 C399 1.333 1_565 S
C398 N400 1.317 1_565 S
C398 H403 0.930 . S
C399 C398 1.333 1_545 S
C399 N401 1.350 . S
C399 H425 0.931 1_545 S
N400 Co396 2.148 . S
N400 C397 1.301 . S
N400 C398 1.317 1_545 S
N401 C397 1.328 . S
N401 C399 1.350 . S
H402 C397 0.930 . S
H403 C398 0.930 . S
C404 O405 1.224 1_565 S
C404 O423 1.247 1_455 S
O405 C404 1.224 1_545 S
N406 Co396 2.128 . S
N406 C407 1.355 . S
N406 C409 1.311 1_545 S
C407 N406 1.355 . S
C407 C408 1.363 . S
C407 H419 0.929 . S
C408 C407 1.363 . S
C408 N410 1.375 . S
C408 H426 0.931 . S
C409 N406 1.311 1_565 S
C409 N410 1.347 1_565 S
C409 H420 0.929 . S
N410 C408 1.375 . S
N410 C409 1.347 1_545 S
C411 C414 1.365 . S
C411 N416 1.328 . S
C411 H417 0.929 . S
C412 C413 1.362 . S
C412 C415 1.378 . S
C412 H427 0.929 1_655 S
C413 C412 1.362 . S
C413 C414 1.366 . S
C414 C411 1.365 . S
C414 C413 1.366 . S
C414 H428 0.930 . S
C415 C412 1.378 . S
C415 N416 1.315 . S
C415 H418 0.930 . S
N416 Co396 2.194 . S
N416 C411 1.328 . S
N416 C415 1.315 . S
H417 C411 0.929 . S
H418 C415 0.930 . S
H419 C407 0.929 . S
H420 C409 0.929 . S
O421 Co396 2.351 . S
O421 C424 1.244 1_545 S
O422 Co396 2.155 1_565 S
O422 C424 1.240 . S
O423 Co396 2.096 1_565 S
O423 C404 1.247 1_655 S
C424 O421 1.244 1_565 S
C424 O422 1.240 . S
H425 C399 0.931 1_565 S
H426 C408 0.931 . S
H427 C412 0.929 1_455 S
H428 C414 0.930 . S
Co429 N433 2.148 . S
Co429 N439 2.128 . S
Co429 N449 2.194 . S
Co429 O454 2.351 . S
Co429 O455 2.155 . S
Co429 O456 2.096 . S
C430 N433 1.301 . S
C430 N434 1.328 . S
C430 H435 0.930 . S
C431 C432 1.333 . S
C431 N433 1.317 . S
C431 H436 0.930 . S
C432 C431 1.333 . S
C432 N434 1.350 . S
C432 H458 0.931 . S
N433 Co429 2.148 . S
N433 C430 1.301 . S
N433 C431 1.317 . S
N434 C430 1.328 . S
N434 C432 1.350 . S
H435 C430 0.930 . S
H436 C431 0.930 . S
C437 O438 1.224 . S
C437 O456 1.247 . S
O438 C437 1.224 . S
N439 Co429 2.128 . S
N439 C440 1.355 . S
N439 C442 1.311 . S
C440 N439 1.355 . S
C440 C441 1.363 . S
C440 H452 0.929 . S
C441 C440 1.363 . S
C441 N443 1.375 . S
C441 H459 0.931 . S
C442 N439 1.311 . S
C442 N443 1.347 . S
C442 H453 0.929 . S
N443 C441 1.375 . S
N443 C442 1.347 . S
C444 C447 1.365 . S
C444 N449 1.328 . S
C444 H450 0.929 . S
C445 C446 1.362 . S
C445 C448 1.378 . S
C445 H460 0.929 . S
C446 C445 1.362 . S
C446 C447 1.366 . S
C447 C444 1.365 . S
C447 C446 1.366 . S
C447 H461 0.930 . S
C448 C445 1.378 . S
C448 N449 1.315 . S
C448 H451 0.930 . S
N449 Co429 2.194 . S
N449 C444 1.328 . S
N449 C448 1.315 . S
H450 C444 0.929 . S
H451 C448 0.930 . S
H452 C440 0.929 . S
H453 C442 0.929 . S
O454 Co429 2.351 . S
O454 C457 1.244 . S
O455 Co429 2.155 . S
O455 C457 1.240 . S
O456 Co429 2.096 . S
O456 C437 1.247 . S
C457 O454 1.244 . S
C457 O455 1.240 . S
H458 C432 0.931 . S
H459 C441 0.931 . S
H460 C445 0.929 . S
H461 C447 0.930 . S
Co462 N466 2.148 . S
Co462 N472 2.128 . S
Co462 N482 2.194 . S
Co462 O487 2.351 . S
Co462 O488 2.155 1_565 S
Co462 O489 2.096 1_565 S
C463 N466 1.301 . S
C463 N467 1.328 . S
C463 H468 0.930 . S
C464 C465 1.333 1_545 S
C464 N466 1.317 1_545 S
C464 H469 0.930 . S
C465 C464 1.333 1_565 S
C465 N467 1.350 . S
C465 H491 0.931 1_565 S
N466 Co462 2.148 . S
N466 C463 1.301 . S
N466 C464 1.317 1_565 S
N467 C463 1.328 . S
N467 C465 1.350 . S
H468 C463 0.930 . S
H469 C464 0.930 . S
C470 O471 1.224 1_545 S
C470 O489 1.247 . S
O471 C470 1.224 1_565 S
N472 Co462 2.128 . S
N472 C473 1.355 . S
N472 C475 1.311 1_565 S
C473 N472 1.355 . S
C473 C474 1.363 . S
C473 H485 0.929 . S
C474 C473 1.363 . S
C474 N476 1.375 . S
C474 H492 0.931 . S
C475 N472 1.311 1_545 S
C475 N476 1.347 1_545 S
C475 H486 0.929 . S
N476 C474 1.375 . S
N476 C475 1.347 1_565 S
C477 C480 1.365 . S
C477 N482 1.328 . S
C477 H483 0.929 . S
C478 C479 1.362 . S
C478 C481 1.378 . S
C478 H493 0.929 . S
C479 C478 1.362 . S
C479 C480 1.366 . S
C480 C477 1.365 . S
C480 C479 1.366 . S
C480 H494 0.930 . S
C481 C478 1.378 . S
C481 N482 1.315 . S
C481 H484 0.930 . S
N482 Co462 2.194 . S
N482 C477 1.328 . S
N482 C481 1.315 . S
H483 C477 0.929 . S
H484 C481 0.930 . S
H485 C473 0.929 . S
H486 C475 0.929 . S
O487 Co462 2.351 . S
O487 C490 1.244 1_565 S
O488 Co462 2.155 1_545 S
O488 C490 1.240 . S
O489 Co462 2.096 1_545 S
O489 C470 1.247 . S
C490 O487 1.244 1_545 S
C490 O488 1.240 . S
H491 C465 0.931 1_545 S
H492 C474 0.931 . S
H493 C478 0.929 . S
H494 C480 0.930 . S
Co495 N499 2.148 . S
Co495 N505 2.128 . S
Co495 N515 2.194 . S
Co495 O520 2.351 . S
Co495 O521 2.155 . S
Co495 O522 2.096 . S
C496 N499 1.301 . S
C496 N500 1.328 . S
C496 H501 0.930 . S
C497 C498 1.333 . S
C497 N499 1.317 . S
C497 H502 0.930 . S
C498 C497 1.333 . S
C498 N500 1.350 . S
C498 H524 0.931 . S
N499 Co495 2.148 . S
N499 C496 1.301 . S
N499 C497 1.317 . S
N500 C496 1.328 . S
N500 C498 1.350 . S
H501 C496 0.930 . S
H502 C497 0.930 . S
C503 O504 1.224 . S
C503 O522 1.247 . S
O504 C503 1.224 . S
N505 Co495 2.128 . S
N505 C506 1.355 . S
N505 C508 1.311 . S
C506 N505 1.355 . S
C506 C507 1.363 . S
C506 H518 0.929 . S
C507 C506 1.363 . S
C507 N509 1.375 . S
C507 H525 0.931 . S
C508 N505 1.311 . S
C508 N509 1.347 . S
C508 H519 0.929 . S
N509 C507 1.375 . S
N509 C508 1.347 . S
C510 C513 1.365 . S
C510 N515 1.328 . S
C510 H516 0.929 . S
C511 C512 1.362 . S
C511 C514 1.378 . S
C511 H526 0.929 . S
C512 C511 1.362 . S
C512 C513 1.366 . S
C513 C510 1.365 . S
C513 C512 1.366 . S
C513 H527 0.930 . S
C514 C511 1.378 . S
C514 N515 1.315 . S
C514 H517 0.930 . S
N515 Co495 2.194 . S
N515 C510 1.328 . S
N515 C514 1.315 . S
H516 C510 0.929 . S
H517 C514 0.930 . S
H518 C506 0.929 . S
H519 C508 0.929 . S
O520 Co495 2.351 . S
O520 C523 1.244 . S
O521 Co495 2.155 . S
O521 C523 1.240 . S
O522 Co495 2.096 . S
O522 C503 1.247 . S
C523 O520 1.244 . S
C523 O521 1.240 . S
H524 C498 0.931 . S
H525 C507 0.931 . S
H526 C511 0.929 . S
H527 C513 0.930 . S
Co528 N532 2.148 . S
Co528 N538 2.128 . S
Co528 N548 2.194 . S
Co528 O553 2.351 . S
Co528 O554 2.155 . S
Co528 O555 2.096 . S
C529 N532 1.301 . S
C529 N533 1.328 . S
C529 H534 0.930 . S
C530 C531 1.333 . S
C530 N532 1.317 . S
C530 H535 0.930 . S
C531 C530 1.333 . S
C531 N533 1.350 . S
C531 H557 0.931 . S
N532 Co528 2.148 . S
N532 C529 1.301 . S
N532 C530 1.317 . S
N533 C529 1.328 . S
N533 C531 1.350 . S
H534 C529 0.930 . S
H535 C530 0.930 . S
C536 O537 1.224 . S
C536 O555 1.247 . S
O537 C536 1.224 . S
N538 Co528 2.128 . S
N538 C539 1.355 . S
N538 C541 1.311 . S
C539 N538 1.355 . S
C539 C540 1.363 . S
C539 H551 0.929 . S
C540 C539 1.363 . S
C540 N542 1.375 . S
C540 H558 0.931 . S
C541 N538 1.311 . S
C541 N542 1.347 . S
C541 H552 0.929 . S
N542 C540 1.375 . S
N542 C541 1.347 . S
C543 C546 1.365 . S
C543 N548 1.328 . S
C543 H549 0.929 . S
C544 C545 1.362 . S
C544 C547 1.378 . S
C544 H559 0.929 . S
C545 C544 1.362 . S
C545 C546 1.366 . S
C546 C543 1.365 . S
C546 C545 1.366 . S
C546 H560 0.930 . S
C547 C544 1.378 . S
C547 N548 1.315 . S
C547 H550 0.930 . S
N548 Co528 2.194 . S
N548 C543 1.328 . S
N548 C547 1.315 . S
H549 C543 0.929 . S
H550 C547 0.930 . S
H551 C539 0.929 . S
H552 C541 0.929 . S
O553 Co528 2.351 . S
O553 C556 1.244 . S
O554 Co528 2.155 . S
O554 C556 1.240 . S
O555 Co528 2.096 . S
O555 C536 1.247 . S
C556 O553 1.244 . S
C556 O554 1.240 . S
H557 C531 0.931 . S
H558 C540 0.931 . S
H559 C544 0.929 . S
H560 C546 0.930 . S
Co561 N565 2.148 . S
Co561 N571 2.128 . S
Co561 N581 2.194 . S
Co561 O586 2.351 . S
Co561 O587 2.155 . S
Co561 O588 2.096 . S
C562 N565 1.301 . S
C562 N566 1.328 . S
C562 H567 0.930 . S
C563 C564 1.333 . S
C563 N565 1.317 . S
C563 H568 0.930 . S
C564 C563 1.333 . S
C564 N566 1.350 . S
C564 H590 0.931 . S
N565 Co561 2.148 . S
N565 C562 1.301 . S
N565 C563 1.317 . S
N566 C562 1.328 . S
N566 C564 1.350 . S
H567 C562 0.930 . S
H568 C563 0.930 . S
C569 O570 1.224 . S
C569 O588 1.247 . S
O570 C569 1.224 . S
N571 Co561 2.128 . S
N571 C572 1.355 . S
N571 C574 1.311 . S
C572 N571 1.355 . S
C572 C573 1.363 . S
C572 H584 0.929 . S
C573 C572 1.363 . S
C573 N575 1.375 . S
C573 H591 0.931 . S
C574 N571 1.311 . S
C574 N575 1.347 . S
C574 H585 0.929 . S
N575 C573 1.375 . S
N575 C574 1.347 . S
C576 C579 1.365 . S
C576 N581 1.328 . S
C576 H582 0.929 . S
C577 C578 1.362 . S
C577 C580 1.378 . S
C577 H592 0.929 . S
C578 C577 1.362 . S
C578 C579 1.366 . S
C579 C576 1.365 . S
C579 C578 1.366 . S
C579 H593 0.930 . S
C580 C577 1.378 . S
C580 N581 1.315 . S
C580 H583 0.930 . S
N581 Co561 2.194 . S
N581 C576 1.328 . S
N581 C580 1.315 . S
H582 C576 0.929 . S
H583 C580 0.930 . S
H584 C572 0.929 . S
H585 C574 0.929 . S
O586 Co561 2.351 . S
O586 C589 1.244 . S
O587 Co561 2.155 . S
O587 C589 1.240 . S
O588 Co561 2.096 . S
O588 C569 1.247 . S
C589 O586 1.244 . S
C589 O587 1.240 . S
H590 C564 0.931 . S
H591 C573 0.931 . S
H592 C577 0.929 . S
H593 C579 0.930 . S
Co594 N598 2.148 . S
Co594 N604 2.128 . S
Co594 N614 2.194 . S
Co594 O619 2.351 . S
Co594 O620 2.155 . S
Co594 O621 2.096 . S
C595 N598 1.301 . S
C595 N599 1.328 . S
C595 H600 0.930 . S
C596 C597 1.333 . S
C596 N598 1.317 . S
C596 H601 0.930 . S
C597 C596 1.333 . S
C597 N599 1.350 . S
C597 H623 0.931 . S
N598 Co594 2.148 . S
N598 C595 1.301 . S
N598 C596 1.317 . S
N599 C595 1.328 . S
N599 C597 1.350 . S
H600 C595 0.930 . S
H601 C596 0.930 . S
C602 O603 1.224 . S
C602 O621 1.247 1_455 S
O603 C602 1.224 . S
N604 Co594 2.128 . S
N604 C605 1.355 . S
N604 C607 1.311 . S
C605 N604 1.355 . S
C605 C606 1.363 . S
C605 H617 0.929 . S
C606 C605 1.363 . S
C606 N608 1.375 . S
C606 H624 0.931 . S
C607 N604 1.311 . S
C607 N608 1.347 . S
C607 H618 0.929 . S
N608 C606 1.375 . S
N608 C607 1.347 . S
C609 C612 1.365 . S
C609 N614 1.328 . S
C609 H615 0.929 . S
C610 C611 1.362 . S
C610 C613 1.378 . S
C610 H625 0.929 1_655 S
C611 C610 1.362 . S
C611 C612 1.366 . S
C612 C609 1.365 . S
C612 C611 1.366 . S
C612 H626 0.930 . S
C613 C610 1.378 . S
C613 N614 1.315 . S
C613 H616 0.930 . S
N614 Co594 2.194 . S
N614 C609 1.328 . S
N614 C613 1.315 . S
H615 C609 0.929 . S
H616 C613 0.930 . S
H617 C605 0.929 . S
H618 C607 0.929 . S
O619 Co594 2.351 . S
O619 C622 1.244 . S
O620 Co594 2.155 . S
O620 C622 1.240 . S
O621 Co594 2.096 . S
O621 C602 1.247 1_655 S
C622 O619 1.244 . S
C622 O620 1.240 . S
H623 C597 0.931 . S
H624 C606 0.931 . S
H625 C610 0.929 1_455 S
H626 C612 0.930 . S
Co627 N631 2.148 . S
Co627 N637 2.128 . S
Co627 N647 2.194 . S
Co627 O652 2.351 . S
Co627 O653 2.155 . S
Co627 O654 2.096 . S
C628 N631 1.301 . S
C628 N632 1.328 . S
C628 H633 0.930 . S
C629 C630 1.333 . S
C629 N631 1.317 . S
C629 H634 0.930 . S
C630 C629 1.333 . S
C630 N632 1.350 . S
C630 H656 0.931 . S
N631 Co627 2.148 . S
N631 C628 1.301 . S
N631 C629 1.317 . S
N632 C628 1.328 . S
N632 C630 1.350 . S
H633 C628 0.930 . S
H634 C629 0.930 . S
C635 O636 1.224 . S
C635 O654 1.247 . S
O636 C635 1.224 . S
N637 Co627 2.128 . S
N637 C638 1.355 . S
N637 C640 1.311 . S
C638 N637 1.355 . S
C638 C639 1.363 . S
C638 H650 0.929 . S
C639 C638 1.363 . S
C639 N641 1.375 . S
C639 H657 0.931 . S
C640 N637 1.311 . S
C640 N641 1.347 . S
C640 H651 0.929 . S
N641 C639 1.375 . S
N641 C640 1.347 . S
C642 C645 1.365 . S
C642 N647 1.328 . S
C642 H648 0.929 . S
C643 C644 1.362 . S
C643 C646 1.378 . S
C643 H658 0.929 . S
C644 C643 1.362 . S
C644 C645 1.366 . S
C645 C642 1.365 . S
C645 C644 1.366 . S
C645 H659 0.930 . S
C646 C643 1.378 . S
C646 N647 1.315 . S
C646 H649 0.930 . S
N647 Co627 2.194 . S
N647 C642 1.328 . S
N647 C646 1.315 . S
H648 C642 0.929 . S
H649 C646 0.930 . S
H650 C638 0.929 . S
H651 C640 0.929 . S
O652 Co627 2.351 . S
O652 C655 1.244 . S
O653 Co627 2.155 . S
O653 C655 1.240 . S
O654 Co627 2.096 . S
O654 C635 1.247 . S
C655 O652 1.244 . S
C655 O653 1.240 . S
H656 C630 0.931 . S
H657 C639 0.931 . S
H658 C643 0.929 . S
H659 C645 0.930 . S
Co660 N664 2.148 . S
Co660 N670 2.128 . S
Co660 N680 2.194 . S
Co660 O685 2.351 . S
Co660 O686 2.155 . S
Co660 O687 2.096 . S
C661 N664 1.301 . S
C661 N665 1.328 . S
C661 H666 0.930 . S
C662 C663 1.333 . S
C662 N664 1.317 . S
C662 H667 0.930 . S
C663 C662 1.333 . S
C663 N665 1.350 . S
C663 H689 0.931 . S
N664 Co660 2.148 . S
N664 C661 1.301 . S
N664 C662 1.317 . S
N665 C661 1.328 . S
N665 C663 1.350 . S
H666 C661 0.930 . S
H667 C662 0.930 . S
C668 O669 1.224 . S
C668 O687 1.247 . S
O669 C668 1.224 . S
N670 Co660 2.128 . S
N670 C671 1.355 . S
N670 C673 1.311 . S
C671 N670 1.355 . S
C671 C672 1.363 . S
C671 H683 0.929 . S
C672 C671 1.363 . S
C672 N674 1.375 . S
C672 H690 0.931 . S
C673 N670 1.311 . S
C673 N674 1.347 . S
C673 H684 0.929 . S
N674 C672 1.375 . S
N674 C673 1.347 . S
C675 C678 1.365 . S
C675 N680 1.328 . S
C675 H681 0.929 . S
C676 C677 1.362 . S
C676 C679 1.378 . S
C676 H691 0.929 . S
C677 C676 1.362 . S
C677 C678 1.366 . S
C678 C675 1.365 . S
C678 C677 1.366 . S
C678 H692 0.930 . S
C679 C676 1.378 . S
C679 N680 1.315 . S
C679 H682 0.930 . S
N680 Co660 2.194 . S
N680 C675 1.328 . S
N680 C679 1.315 . S
H681 C675 0.929 . S
H682 C679 0.930 . S
H683 C671 0.929 . S
H684 C673 0.929 . S
O685 Co660 2.351 . S
O685 C688 1.244 . S
O686 Co660 2.155 . S
O686 C688 1.240 . S
O687 Co660 2.096 . S
O687 C668 1.247 . S
C688 O685 1.244 . S
C688 O686 1.240 . S
H689 C663 0.931 . S
H690 C672 0.931 . S
H691 C676 0.929 . S
H692 C678 0.930 . S
Co693 N697 2.148 . S
Co693 N703 2.128 . S
Co693 N713 2.194 . S
Co693 O718 2.351 . S
Co693 O719 2.155 . S
Co693 O720 2.096 . S
C694 N697 1.301 . S
C694 N698 1.328 . S
C694 H699 0.930 . S
C695 C696 1.333 . S
C695 N697 1.317 . S
C695 H700 0.930 . S
C696 C695 1.333 . S
C696 N698 1.350 . S
C696 H722 0.931 . S
N697 Co693 2.148 . S
N697 C694 1.301 . S
N697 C695 1.317 . S
N698 C694 1.328 . S
N698 C696 1.350 . S
H699 C694 0.930 . S
H700 C695 0.930 . S
C701 O702 1.224 . S
C701 O720 1.247 . S
O702 C701 1.224 . S
N703 Co693 2.128 . S
N703 C704 1.355 . S
N703 C706 1.311 . S
C704 N703 1.355 . S
C704 C705 1.363 . S
C704 H716 0.929 . S
C705 C704 1.363 . S
C705 N707 1.375 . S
C705 H723 0.931 . S
C706 N703 1.311 . S
C706 N707 1.347 . S
C706 H717 0.929 . S
N707 C705 1.375 . S
N707 C706 1.347 . S
C708 C711 1.365 . S
C708 N713 1.328 . S
C708 H714 0.929 . S
C709 C710 1.362 . S
C709 C712 1.378 . S
C709 H724 0.929 . S
C710 C709 1.362 . S
C710 C711 1.366 . S
C711 C708 1.365 . S
C711 C710 1.366 . S
C711 H725 0.930 . S
C712 C709 1.378 . S
C712 N713 1.315 . S
C712 H715 0.930 . S
N713 Co693 2.194 . S
N713 C708 1.328 . S
N713 C712 1.315 . S
H714 C708 0.929 . S
H715 C712 0.930 . S
H716 C704 0.929 . S
H717 C706 0.929 . S
O718 Co693 2.351 . S
O718 C721 1.244 . S
O719 Co693 2.155 . S
O719 C721 1.240 . S
O720 Co693 2.096 . S
O720 C701 1.247 . S
C721 O718 1.244 . S
C721 O719 1.240 . S
H722 C696 0.931 . S
H723 C705 0.931 . S
H724 C709 0.929 . S
H725 C711 0.930 . S
Co726 N730 2.148 . S
Co726 N736 2.128 . S
Co726 N746 2.194 . S
Co726 O751 2.351 . S
Co726 O752 2.155 . S
Co726 O753 2.096 . S
C727 N730 1.301 . S
C727 N731 1.328 . S
C727 H732 0.930 . S
C728 C729 1.333 . S
C728 N730 1.317 . S
C728 H733 0.930 . S
C729 C728 1.333 . S
C729 N731 1.350 . S
C729 H755 0.931 . S
N730 Co726 2.148 . S
N730 C727 1.301 . S
N730 C728 1.317 . S
N731 C727 1.328 . S
N731 C729 1.350 . S
H732 C727 0.930 . S
H733 C728 0.930 . S
C734 O735 1.224 . S
C734 O753 1.247 1_455 S
O735 C734 1.224 . S
N736 Co726 2.128 . S
N736 C737 1.355 . S
N736 C739 1.311 . S
C737 N736 1.355 . S
C737 C738 1.363 . S
C737 H749 0.929 . S
C738 C737 1.363 . S
C738 N740 1.375 . S
C738 H756 0.931 . S
C739 N736 1.311 . S
C739 N740 1.347 . S
C739 H750 0.929 . S
N740 C738 1.375 . S
N740 C739 1.347 . S
C741 C744 1.365 . S
C741 N746 1.328 . S
C741 H747 0.929 . S
C742 C743 1.362 . S
C742 C745 1.378 . S
C742 H757 0.929 1_655 S
C743 C742 1.362 . S
C743 C744 1.366 . S
C744 C741 1.365 . S
C744 C743 1.366 . S
C744 H758 0.930 . S
C745 C742 1.378 . S
C745 N746 1.315 . S
C745 H748 0.930 . S
N746 Co726 2.194 . S
N746 C741 1.328 . S
N746 C745 1.315 . S
H747 C741 0.929 . S
H748 C745 0.930 . S
H749 C737 0.929 . S
H750 C739 0.929 . S
O751 Co726 2.351 . S
O751 C754 1.244 . S
O752 Co726 2.155 . S
O752 C754 1.240 . S
O753 Co726 2.096 . S
O753 C734 1.247 1_655 S
C754 O751 1.244 . S
C754 O752 1.240 . S
H755 C729 0.931 . S
H756 C738 0.931 . S
H757 C742 0.929 1_455 S
H758 C744 0.930 . S
Co759 N763 2.148 . S
Co759 N769 2.128 . S
Co759 N779 2.194 . S
Co759 O784 2.351 . S
Co759 O785 2.155 . S
Co759 O786 2.096 . S
C760 N763 1.301 . S
C760 N764 1.328 . S
C760 H765 0.930 . S
C761 C762 1.333 . S
C761 N763 1.317 . S
C761 H766 0.930 . S
C762 C761 1.333 . S
C762 N764 1.350 . S
C762 H788 0.931 . S
N763 Co759 2.148 . S
N763 C760 1.301 . S
N763 C761 1.317 . S
N764 C760 1.328 . S
N764 C762 1.350 . S
H765 C760 0.930 . S
H766 C761 0.930 . S
C767 O768 1.224 . S
C767 O786 1.247 . S
O768 C767 1.224 . S
N769 Co759 2.128 . S
N769 C770 1.355 . S
N769 C772 1.311 . S
C770 N769 1.355 . S
C770 C771 1.363 . S
C770 H782 0.929 . S
C771 C770 1.363 . S
C771 N773 1.375 . S
C771 H789 0.931 . S
C772 N769 1.311 . S
C772 N773 1.347 . S
C772 H783 0.929 . S
N773 C771 1.375 . S
N773 C772 1.347 . S
C774 C777 1.365 . S
C774 N779 1.328 . S
C774 H780 0.929 . S
C775 C776 1.362 . S
C775 C778 1.378 . S
C775 H790 0.929 . S
C776 C775 1.362 . S
C776 C777 1.366 . S
C777 C774 1.365 . S
C777 C776 1.366 . S
C777 H791 0.930 . S
C778 C775 1.378 . S
C778 N779 1.315 . S
C778 H781 0.930 . S
N779 Co759 2.194 . S
N779 C774 1.328 . S
N779 C778 1.315 . S
H780 C774 0.929 . S
H781 C778 0.930 . S
H782 C770 0.929 . S
H783 C772 0.929 . S
O784 Co759 2.351 . S
O784 C787 1.244 . S
O785 Co759 2.155 . S
O785 C787 1.240 . S
O786 Co759 2.096 . S
O786 C767 1.247 . S
C787 O784 1.244 . S
C787 O785 1.240 . S
H788 C762 0.931 . S
H789 C771 0.931 . S
H790 C775 0.929 . S
H791 C777 0.930 . S
Co792 N796 2.148 . S
Co792 N802 2.128 . S
Co792 N812 2.194 . S
Co792 O817 2.351 . S
Co792 O818 2.155 . S
Co792 O819 2.096 . S
C793 N796 1.301 . S
C793 N797 1.328 . S
C793 H798 0.930 . S
C794 C795 1.333 . S
C794 N796 1.317 . S
C794 H799 0.930 . S
C795 C794 1.333 . S
C795 N797 1.350 . S
C795 H821 0.931 . S
N796 Co792 2.148 . S
N796 C793 1.301 . S
N796 C794 1.317 . S
N797 C793 1.328 . S
N797 C795 1.350 . S
H798 C793 0.930 . S
H799 C794 0.930 . S
C800 O801 1.224 . S
C800 O819 1.247 . S
O801 C800 1.224 . S
N802 Co792 2.128 . S
N802 C803 1.355 . S
N802 C805 1.311 . S
C803 N802 1.355 . S
C803 C804 1.363 . S
C803 H815 0.929 . S
C804 C803 1.363 . S
C804 N806 1.375 . S
C804 H822 0.931 . S
C805 N802 1.311 . S
C805 N806 1.347 . S
C805 H816 0.929 . S
N806 C804 1.375 . S
N806 C805 1.347 . S
C807 C810 1.365 . S
C807 N812 1.328 . S
C807 H813 0.929 . S
C808 C809 1.362 . S
C808 C811 1.378 . S
C808 H823 0.929 . S
C809 C808 1.362 . S
C809 C810 1.366 . S
C810 C807 1.365 . S
C810 C809 1.366 . S
C810 H824 0.930 . S
C811 C808 1.378 . S
C811 N812 1.315 . S
C811 H814 0.930 . S
N812 Co792 2.194 . S
N812 C807 1.328 . S
N812 C811 1.315 . S
H813 C807 0.929 . S
H814 C811 0.930 . S
H815 C803 0.929 . S
H816 C805 0.929 . S
O817 Co792 2.351 . S
O817 C820 1.244 . S
O818 Co792 2.155 . S
O818 C820 1.240 . S
O819 Co792 2.096 . S
O819 C800 1.247 . S
C820 O817 1.244 . S
C820 O818 1.240 . S
H821 C795 0.931 . S
H822 C804 0.931 . S
H823 C808 0.929 . S
H824 C810 0.930 . S
Co825 N829 2.148 . S
Co825 N835 2.128 . S
Co825 N845 2.194 . S
Co825 O850 2.351 . S
Co825 O851 2.155 . S
Co825 O852 2.096 . S
C826 N829 1.301 . S
C826 N830 1.328 . S
C826 H831 0.930 . S
C827 C828 1.333 . S
C827 N829 1.317 . S
C827 H832 0.930 . S
C828 C827 1.333 . S
C828 N830 1.350 . S
C828 H854 0.931 . S
N829 Co825 2.148 . S
N829 C826 1.301 . S
N829 C827 1.317 . S
N830 C826 1.328 . S
N830 C828 1.350 . S
H831 C826 0.930 . S
H832 C827 0.930 . S
C833 O834 1.224 . S
C833 O852 1.247 . S
O834 C833 1.224 . S
N835 Co825 2.128 . S
N835 C836 1.355 . S
N835 C838 1.311 . S
C836 N835 1.355 . S
C836 C837 1.363 . S
C836 H848 0.929 . S
C837 C836 1.363 . S
C837 N839 1.375 . S
C837 H855 0.931 . S
C838 N835 1.311 . S
C838 N839 1.347 . S
C838 H849 0.929 . S
N839 C837 1.375 . S
N839 C838 1.347 . S
C840 C843 1.365 . S
C840 N845 1.328 . S
C840 H846 0.929 . S
C841 C842 1.362 . S
C841 C844 1.378 . S
C841 H856 0.929 . S
C842 C841 1.362 . S
C842 C843 1.366 . S
C843 C840 1.365 . S
C843 C842 1.366 . S
C843 H857 0.930 . S
C844 C841 1.378 . S
C844 N845 1.315 . S
C844 H847 0.930 . S
N845 Co825 2.194 . S
N845 C840 1.328 . S
N845 C844 1.315 . S
H846 C840 0.929 . S
H847 C844 0.930 . S
H848 C836 0.929 . S
H849 C838 0.929 . S
O850 Co825 2.351 . S
O850 C853 1.244 . S
O851 Co825 2.155 . S
O851 C853 1.240 . S
O852 Co825 2.096 . S
O852 C833 1.247 . S
C853 O850 1.244 . S
C853 O851 1.240 . S
H854 C828 0.931 . S
H855 C837 0.931 . S
H856 C841 0.929 . S
H857 C843 0.930 . S
Co858 N862 2.148 . S
Co858 N868 2.128 . S
Co858 N878 2.194 . S
Co858 O883 2.351 . S
Co858 O884 2.155 . S
Co858 O885 2.096 . S
C859 N862 1.301 . S
C859 N863 1.328 . S
C859 H864 0.930 . S
C860 C861 1.333 . S
C860 N862 1.317 . S
C860 H865 0.930 . S
C861 C860 1.333 . S
C861 N863 1.350 . S
C861 H887 0.931 . S
N862 Co858 2.148 . S
N862 C859 1.301 . S
N862 C860 1.317 . S
N863 C859 1.328 . S
N863 C861 1.350 . S
H864 C859 0.930 . S
H865 C860 0.930 . S
C866 O867 1.224 . S
C866 O885 1.247 1_655 S
O867 C866 1.224 . S
N868 Co858 2.128 . S
N868 C869 1.355 . S
N868 C871 1.311 . S
C869 N868 1.355 . S
C869 C870 1.363 . S
C869 H881 0.929 . S
C870 C869 1.363 . S
C870 N872 1.375 . S
C870 H888 0.931 . S
C871 N868 1.311 . S
C871 N872 1.347 . S
C871 H882 0.929 . S
N872 C870 1.375 . S
N872 C871 1.347 . S
C873 C876 1.365 . S
C873 N878 1.328 . S
C873 H879 0.929 . S
C874 C875 1.362 . S
C874 C877 1.378 . S
C874 H889 0.929 1_455 S
C875 C874 1.362 . S
C875 C876 1.366 . S
C876 C873 1.365 . S
C876 C875 1.366 . S
C876 H890 0.930 . S
C877 C874 1.378 . S
C877 N878 1.315 . S
C877 H880 0.930 . S
N878 Co858 2.194 . S
N878 C873 1.328 . S
N878 C877 1.315 . S
H879 C873 0.929 . S
H880 C877 0.930 . S
H881 C869 0.929 . S
H882 C871 0.929 . S
O883 Co858 2.351 . S
O883 C886 1.244 . S
O884 Co858 2.155 . S
O884 C886 1.240 . S
O885 Co858 2.096 . S
O885 C866 1.247 1_455 S
C886 O883 1.244 . S
C886 O884 1.240 . S
H887 C861 0.931 . S
H888 C870 0.931 . S
H889 C874 0.929 1_655 S
H890 C876 0.930 . S
Co891 N895 2.148 . S
Co891 N901 2.128 . S
Co891 N911 2.194 . S
Co891 O916 2.351 . S
Co891 O917 2.155 . S
Co891 O918 2.096 . S
C892 N895 1.301 . S
C892 N896 1.328 . S
C892 H897 0.930 . S
C893 C894 1.333 . S
C893 N895 1.317 . S
C893 H898 0.930 . S
C894 C893 1.333 . S
C894 N896 1.350 . S
C894 H920 0.931 . S
N895 Co891 2.148 . S
N895 C892 1.301 . S
N895 C893 1.317 . S
N896 C892 1.328 . S
N896 C894 1.350 . S
H897 C892 0.930 . S
H898 C893 0.930 . S
C899 O900 1.224 . S
C899 O918 1.247 . S
O900 C899 1.224 . S
N901 Co891 2.128 . S
N901 C902 1.355 . S
N901 C904 1.311 . S
C902 N901 1.355 . S
C902 C903 1.363 . S
C902 H914 0.929 . S
C903 C902 1.363 . S
C903 N905 1.375 . S
C903 H921 0.931 . S
C904 N901 1.311 . S
C904 N905 1.347 . S
C904 H915 0.929 . S
N905 C903 1.375 . S
N905 C904 1.347 . S
C906 C909 1.365 . S
C906 N911 1.328 . S
C906 H912 0.929 . S
C907 C908 1.362 . S
C907 C910 1.378 . S
C907 H922 0.929 . S
C908 C907 1.362 . S
C908 C909 1.366 . S
C909 C906 1.365 . S
C909 C908 1.366 . S
C909 H923 0.930 . S
C910 C907 1.378 . S
C910 N911 1.315 . S
C910 H913 0.930 . S
N911 Co891 2.194 . S
N911 C906 1.328 . S
N911 C910 1.315 . S
H912 C906 0.929 . S
H913 C910 0.930 . S
H914 C902 0.929 . S
H915 C904 0.929 . S
O916 Co891 2.351 . S
O916 C919 1.244 . S
O917 Co891 2.155 . S
O917 C919 1.240 . S
O918 Co891 2.096 . S
O918 C899 1.247 . S
C919 O916 1.244 . S
C919 O917 1.240 . S
H920 C894 0.931 . S
H921 C903 0.931 . S
H922 C907 0.929 . S
H923 C909 0.930 . S
Co924 N928 2.148 . S
Co924 N934 2.128 . S
Co924 N944 2.194 . S
Co924 O949 2.351 . S
Co924 O950 2.155 . S
Co924 O951 2.096 . S
C925 N928 1.301 . S
C925 N929 1.328 . S
C925 H930 0.930 . S
C926 C927 1.333 . S
C926 N928 1.317 . S
C926 H931 0.930 . S
C927 C926 1.333 . S
C927 N929 1.350 . S
C927 H953 0.931 . S
N928 Co924 2.148 . S
N928 C925 1.301 . S
N928 C926 1.317 . S
N929 C925 1.328 . S
N929 C927 1.350 . S
H930 C925 0.930 . S
H931 C926 0.930 . S
C932 O933 1.224 . S
C932 O951 1.247 . S
O933 C932 1.224 . S
N934 Co924 2.128 . S
N934 C935 1.355 . S
N934 C937 1.311 . S
C935 N934 1.355 . S
C935 C936 1.363 . S
C935 H947 0.929 . S
C936 C935 1.363 . S
C936 N938 1.375 . S
C936 H954 0.931 . S
C937 N934 1.311 . S
C937 N938 1.347 . S
C937 H948 0.929 . S
N938 C936 1.375 . S
N938 C937 1.347 . S
C939 C942 1.365 . S
C939 N944 1.328 . S
C939 H945 0.929 . S
C940 C941 1.362 . S
C940 C943 1.378 . S
C940 H955 0.929 . S
C941 C940 1.362 . S
C941 C942 1.366 . S
C942 C939 1.365 . S
C942 C941 1.366 . S
C942 H956 0.930 . S
C943 C940 1.378 . S
C943 N944 1.315 . S
C943 H946 0.930 . S
N944 Co924 2.194 . S
N944 C939 1.328 . S
N944 C943 1.315 . S
H945 C939 0.929 . S
H946 C943 0.930 . S
H947 C935 0.929 . S
H948 C937 0.929 . S
O949 Co924 2.351 . S
O949 C952 1.244 . S
O950 Co924 2.155 . S
O950 C952 1.240 . S
O951 Co924 2.096 . S
O951 C932 1.247 . S
C952 O949 1.244 . S
C952 O950 1.240 . S
H953 C927 0.931 . S
H954 C936 0.931 . S
H955 C940 0.929 . S
H956 C942 0.930 . S
Co957 N961 2.148 . S
Co957 N967 2.128 . S
Co957 N977 2.194 . S
Co957 O982 2.351 . S
Co957 O983 2.155 . S
Co957 O984 2.096 . S
C958 N961 1.301 . S
C958 N962 1.328 . S
C958 H963 0.930 . S
C959 C960 1.333 . S
C959 N961 1.317 . S
C959 H964 0.930 . S
C960 C959 1.333 . S
C960 N962 1.350 . S
C960 H986 0.931 . S
N961 Co957 2.148 . S
N961 C958 1.301 . S
N961 C959 1.317 . S
N962 C958 1.328 . S
N962 C960 1.350 . S
H963 C958 0.930 . S
H964 C959 0.930 . S
C965 O966 1.224 . S
C965 O984 1.247 . S
O966 C965 1.224 . S
N967 Co957 2.128 . S
N967 C968 1.355 . S
N967 C970 1.311 . S
C968 N967 1.355 . S
C968 C969 1.363 . S
C968 H980 0.929 . S
C969 C968 1.363 . S
C969 N971 1.375 . S
C969 H987 0.931 . S
C970 N967 1.311 . S
C970 N971 1.347 . S
C970 H981 0.929 . S
N971 C969 1.375 . S
N971 C970 1.347 . S
C972 C975 1.365 . S
C972 N977 1.328 . S
C972 H978 0.929 . S
C973 C974 1.362 . S
C973 C976 1.378 . S
C973 H988 0.929 . S
C974 C973 1.362 . S
C974 C975 1.366 . S
C975 C972 1.365 . S
C975 C974 1.366 . S
C975 H989 0.930 . S
C976 C973 1.378 . S
C976 N977 1.315 . S
C976 H979 0.930 . S
N977 Co957 2.194 . S
N977 C972 1.328 . S
N977 C976 1.315 . S
H978 C972 0.929 . S
H979 C976 0.930 . S
H980 C968 0.929 . S
H981 C970 0.929 . S
O982 Co957 2.351 . S
O982 C985 1.244 . S
O983 Co957 2.155 . S
O983 C985 1.240 . S
O984 Co957 2.096 . S
O984 C965 1.247 . S
C985 O982 1.244 . S
C985 O983 1.240 . S
H986 C960 0.931 . S
H987 C969 0.931 . S
H988 C973 0.929 . S
H989 C975 0.930 . S
Co990 N994 2.148 . S
Co990 N1000 2.128 . S
Co990 N1010 2.194 . S
Co990 O1015 2.351 . S
Co990 O1016 2.155 . S
Co990 O1017 2.096 . S
C991 N994 1.301 . S
C991 N995 1.328 . S
C991 H996 0.930 . S
C992 C993 1.333 . S
C992 N994 1.317 . S
C992 H997 0.930 . S
C993 C992 1.333 . S
C993 N995 1.350 . S
C993 H1019 0.931 . S
N994 Co990 2.148 . S
N994 C991 1.301 . S
N994 C992 1.317 . S
N995 C991 1.328 . S
N995 C993 1.350 . S
H996 C991 0.930 . S
H997 C992 0.930 . S
C998 O999 1.224 . S
C998 O1017 1.247 1_655 S
O999 C998 1.224 . S
N1000 Co990 2.128 . S
N1000 C1001 1.355 . S
N1000 C1003 1.311 . S
C1001 N1000 1.355 . S
C1001 C1002 1.363 . S
C1001 H1013 0.929 . S
C1002 C1001 1.363 . S
C1002 N1004 1.375 . S
C1002 H1020 0.931 . S
C1003 N1000 1.311 . S
C1003 N1004 1.347 . S
C1003 H1014 0.929 . S
N1004 C1002 1.375 . S
N1004 C1003 1.347 . S
C1005 C1008 1.365 . S
C1005 N1010 1.328 . S
C1005 H1011 0.929 . S
C1006 C1007 1.362 . S
C1006 C1009 1.378 . S
C1006 H1021 0.929 1_455 S
C1007 C1006 1.362 . S
C1007 C1008 1.366 . S
C1008 C1005 1.365 . S
C1008 C1007 1.366 . S
C1008 H1022 0.930 . S
C1009 C1006 1.378 . S
C1009 N1010 1.315 . S
C1009 H1012 0.930 . S
N1010 Co990 2.194 . S
N1010 C1005 1.328 . S
N1010 C1009 1.315 . S
H1011 C1005 0.929 . S
H1012 C1009 0.930 . S
H1013 C1001 0.929 . S
H1014 C1003 0.929 . S
O1015 Co990 2.351 . S
O1015 C1018 1.244 . S
O1016 Co990 2.155 . S
O1016 C1018 1.240 . S
O1017 Co990 2.096 . S
O1017 C998 1.247 1_455 S
C1018 O1015 1.244 . S
C1018 O1016 1.240 . S
H1019 C993 0.931 . S
H1020 C1002 0.931 . S
H1021 C1006 0.929 1_655 S
H1022 C1008 0.930 . S
Co1023 N1027 2.148 . S
Co1023 N1033 2.128 . S
Co1023 N1043 2.194 . S
Co1023 O1048 2.351 . S
Co1023 O1049 2.155 . S
Co1023 O1050 2.096 . S
C1024 N1027 1.301 . S
C1024 N1028 1.328 . S
C1024 H1029 0.930 . S
C1025 C1026 1.333 . S
C1025 N1027 1.317 . S
C1025 H1030 0.930 . S
C1026 C1025 1.333 . S
C1026 N1028 1.350 . S
C1026 H1052 0.931 . S
N1027 Co1023 2.148 . S
N1027 C1024 1.301 . S
N1027 C1025 1.317 . S
N1028 C1024 1.328 . S
N1028 C1026 1.350 . S
H1029 C1024 0.930 . S
H1030 C1025 0.930 . S
C1031 O1032 1.224 . S
C1031 O1050 1.247 . S
O1032 C1031 1.224 . S
N1033 Co1023 2.128 . S
N1033 C1034 1.355 . S
N1033 C1036 1.311 . S
C1034 N1033 1.355 . S
C1034 C1035 1.363 . S
C1034 H1046 0.929 . S
C1035 C1034 1.363 . S
C1035 N1037 1.375 . S
C1035 H1053 0.931 . S
C1036 N1033 1.311 . S
C1036 N1037 1.347 . S
C1036 H1047 0.929 . S
N1037 C1035 1.375 . S
N1037 C1036 1.347 . S
C1038 C1041 1.365 . S
C1038 N1043 1.328 . S
C1038 H1044 0.929 . S
C1039 C1040 1.362 . S
C1039 C1042 1.378 . S
C1039 H1054 0.929 . S
C1040 C1039 1.362 . S
C1040 C1041 1.366 . S
C1041 C1038 1.365 . S
C1041 C1040 1.366 . S
C1041 H1055 0.930 . S
C1042 C1039 1.378 . S
C1042 N1043 1.315 . S
C1042 H1045 0.930 . S
N1043 Co1023 2.194 . S
N1043 C1038 1.328 . S
N1043 C1042 1.315 . S
H1044 C1038 0.929 . S
H1045 C1042 0.930 . S
H1046 C1034 0.929 . S
H1047 C1036 0.929 . S
O1048 Co1023 2.351 . S
O1048 C1051 1.244 . S
O1049 Co1023 2.155 . S
O1049 C1051 1.240 . S
O1050 Co1023 2.096 . S
O1050 C1031 1.247 . S
C1051 O1048 1.244 . S
C1051 O1049 1.240 . S
H1052 C1026 0.931 . S
H1053 C1035 0.931 . S
H1054 C1039 0.929 . S
H1055 C1041 0.930 . S
H1056 C1062 0.930 . S
H1057 C1065 0.924 1_655 S
H1058 C1066 0.930 1_655 S
H1059 C1067 0.930 . S
H1060 C1070 0.930 . S
H1061 C1071 0.930 . S
C1062 H1056 0.930 . S
C1062 C1063 1.362 . S
C1062 C1064 1.415 . S
C1063 C1062 1.362 . S
C1063 C1065 1.409 1_545 S
C1064 C1062 1.415 . S
C1064 C1069 1.425 1_545 S
C1064 C1071 1.409 . S
C1065 H1057 0.924 1_455 S
C1065 C1063 1.409 1_565 S
C1065 C1066 1.362 . S
C1066 H1058 0.930 1_455 S
C1066 C1065 1.362 . S
C1066 C1069 1.409 . S
C1067 H1059 0.930 . S
C1067 C1068 1.362 . S
C1067 C1069 1.415 . S
C1068 C1067 1.362 . S
C1068 C1070 1.409 1_565 S
C1069 C1064 1.425 1_565 S
C1069 C1066 1.409 . S
C1069 C1067 1.415 . S
C1070 H1060 0.930 . S
C1070 C1068 1.409 1_545 S
C1070 C1071 1.362 . S
C1071 H1061 0.930 . S
C1071 C1064 1.409 . S
C1071 C1070 1.362 . S
H1072 C1078 0.930 . S
H1073 C1081 0.930 . S
H1074 C1082 0.930 . S
H1075 C1083 0.930 . S
H1076 C1086 0.930 . S
H1077 C1087 0.930 . S
C1078 H1072 0.930 . S
C1078 C1079 1.355 . S
C1078 C1080 1.415 . S
C1079 C1078 1.355 . S
C1079 C1081 1.419 . S
C1080 C1078 1.415 . S
C1080 C1085 1.425 . S
C1080 C1087 1.409 . S
C1081 H1073 0.930 . S
C1081 C1079 1.419 . S
C1081 C1082 1.362 . S
C1082 H1074 0.930 . S
C1082 C1081 1.362 . S
C1082 C1085 1.409 . S
C1083 H1075 0.930 . S
C1083 C1084 1.355 . S
C1083 C1085 1.415 . S
C1084 C1083 1.355 . S
C1084 C1086 1.419 . S
C1085 C1080 1.425 . S
C1085 C1082 1.409 . S
C1085 C1083 1.415 . S
C1086 H1076 0.930 . S
C1086 C1084 1.419 . S
C1086 C1087 1.362 . S
C1087 H1077 0.930 . S
C1087 C1080 1.409 . S
C1087 C1086 1.362 . S
H1088 C1094 0.930 . S
H1089 C1097 0.930 . S
H1090 C1098 0.930 . S
H1091 C1099 0.930 . S
H1092 C1102 0.930 . S
H1093 C1103 0.930 . S
C1094 H1088 0.930 . S
C1094 C1095 1.355 1_565 S
C1094 C1096 1.415 . S
C1095 C1094 1.355 1_545 S
C1095 C1097 1.419 . S
C1096 C1094 1.415 . S
C1096 C1101 1.425 1_565 S
C1096 C1103 1.409 . S
C1097 H1089 0.930 . S
C1097 C1095 1.419 . S
C1097 C1098 1.362 . S
C1098 H1090 0.930 . S
C1098 C1097 1.362 . S
C1098 C1101 1.409 . S
C1099 H1091 0.930 . S
C1099 C1100 1.355 1_545 S
C1099 C1101 1.415 . S
C1100 C1099 1.355 1_565 S
C1100 C1102 1.419 . S
C1101 C1096 1.425 1_545 S
C1101 C1098 1.409 . S
C1101 C1099 1.415 . S
C1102 H1092 0.930 . S
C1102 C1100 1.419 . S
C1102 C1103 1.362 . S
C1103 H1093 0.930 . S
C1103 C1096 1.409 . S
C1103 C1102 1.362 . S
H1104 C1110 0.930 . S
H1105 C1113 0.930 . S
H1106 C1114 0.930 . S
H1107 C1115 0.930 . S
H1108 C1118 0.930 . S
H1109 C1119 0.930 . S
C1110 H1104 0.930 . S
C1110 C1111 1.355 . S
C1110 C1112 1.415 . S
C1111 C1110 1.355 . S
C1111 C1113 1.419 . S
C1112 C1110 1.415 . S
C1112 C1117 1.425 1_556 S
C1112 C1119 1.409 1_556 S
C1113 H1105 0.930 . S
C1113 C1111 1.419 . S
C1113 C1114 1.362 . S
C1114 H1106 0.930 . S
C1114 C1113 1.362 . S
C1114 C1117 1.409 1_556 S
C1115 H1107 0.930 . S
C1115 C1116 1.355 . S
C1115 C1117 1.415 . S
C1116 C1115 1.355 . S
C1116 C1118 1.419 . S
C1117 C1112 1.425 1_554 S
C1117 C1114 1.409 1_554 S
C1117 C1115 1.415 . S
C1118 H1108 0.930 . S
C1118 C1116 1.419 . S
C1118 C1119 1.362 . S
C1119 H1109 0.930 . S
C1119 C1112 1.409 1_554 S
C1119 C1118 1.362 . S
H1120 C1126 0.930 . S
H1121 C1129 0.930 . S
H1122 C1130 0.930 . S
H1123 C1131 0.930 . S
H1124 C1134 0.930 1_455 S
H1125 C1135 0.930 1_455 S
C1126 H1120 0.930 . S
C1126 C1127 1.365 . S
C1126 C1128 1.415 . S
C1127 C1126 1.365 . S
C1127 C1129 1.405 1_545 S
C1128 C1126 1.415 . S
C1128 C1133 1.425 1_545 S
C1128 C1135 1.409 . S
C1129 H1121 0.930 . S
C1129 C1127 1.405 1_565 S
C1129 C1130 1.362 . S
C1130 H1122 0.930 . S
C1130 C1129 1.362 . S
C1130 C1133 1.409 . S
C1131 H1123 0.930 . S
C1131 C1132 1.365 . S
C1131 C1133 1.415 . S
C1132 C1131 1.365 . S
C1132 C1134 1.406 1_565 S
C1133 C1128 1.425 1_565 S
C1133 C1130 1.409 . S
C1133 C1131 1.415 . S
C1134 H1124 0.930 1_655 S
C1134 C1132 1.406 1_545 S
C1134 C1135 1.362 . S
C1135 H1125 0.930 1_655 S
C1135 C1128 1.409 . S
C1135 C1134 1.362 . S
H1136 C1142 0.930 . S
H1137 C1145 0.930 . S
H1138 C1146 0.930 . S
H1139 C1147 0.930 . S
H1140 C1150 0.930 . S
H1141 C1151 0.930 . S
C1142 H1136 0.930 . S
C1142 C1143 1.355 . S
C1142 C1144 1.415 . S
C1143 C1142 1.355 . S
C1143 C1145 1.419 . S
C1144 C1142 1.415 . S
C1144 C1149 1.425 . S
C1144 C1151 1.409 . S
C1145 H1137 0.930 . S
C1145 C1143 1.419 . S
C1145 C1146 1.362 . S
C1146 H1138 0.930 . S
C1146 C1145 1.362 . S
C1146 C1149 1.409 . S
C1147 H1139 0.930 . S
C1147 C1148 1.355 . S
C1147 C1149 1.415 . S
C1148 C1147 1.355 . S
C1148 C1150 1.419 . S
C1149 C1144 1.425 . S
C1149 C1146 1.409 . S
C1149 C1147 1.415 . S
C1150 H1140 0.930 . S
C1150 C1148 1.419 . S
C1150 C1151 1.362 . S
C1151 H1141 0.930 . S
C1151 C1144 1.409 . S
C1151 C1150 1.362 . S
H1152 C1158 0.930 . S
H1153 C1161 0.930 . S
H1154 C1162 0.930 . S
H1155 C1163 0.930 . S
H1156 C1166 0.930 . S
H1157 C1167 0.930 . S
C1158 H1152 0.930 . S
C1158 C1159 1.343 1_565 S
C1158 C1160 1.415 . S
C1159 C1158 1.343 1_545 S
C1159 C1161 1.434 . S
C1160 C1158 1.415 . S
C1160 C1165 1.425 1_565 S
C1160 C1167 1.409 . S
C1161 H1153 0.930 . S
C1161 C1159 1.434 . S
C1161 C1162 1.362 . S
C1162 H1154 0.930 . S
C1162 C1161 1.362 . S
C1162 C1165 1.409 . S
C1163 H1155 0.930 . S
C1163 C1164 1.344 1_545 S
C1163 C1165 1.415 . S
C1164 C1163 1.344 1_565 S
C1164 C1166 1.434 . S
C1165 C1160 1.425 1_545 S
C1165 C1162 1.409 . S
C1165 C1163 1.415 . S
C1166 H1156 0.930 . S
C1166 C1164 1.434 . S
C1166 C1167 1.362 . S
C1167 H1157 0.930 . S
C1167 C1160 1.409 . S
C1167 C1166 1.362 . S
H1168 C1174 0.930 . S
H1169 C1177 0.930 . S
H1170 C1178 0.930 . S
H1171 C1179 0.930 . S
H1172 C1182 0.930 . S
H1173 C1183 0.930 . S
C1174 H1168 0.930 . S
C1174 C1175 1.355 . S
C1174 C1176 1.415 . S
C1175 C1174 1.355 . S
C1175 C1177 1.419 . S
C1176 C1174 1.415 . S
C1176 C1181 1.425 1_556 S
C1176 C1183 1.409 1_556 S
C1177 H1169 0.930 . S
C1177 C1175 1.419 . S
C1177 C1178 1.362 . S
C1178 H1170 0.930 . S
C1178 C1177 1.362 . S
C1178 C1181 1.409 1_556 S
C1179 H1171 0.930 . S
C1179 C1180 1.355 . S
C1179 C1181 1.415 . S
C1180 C1179 1.355 . S
C1180 C1182 1.419 . S
C1181 C1176 1.425 1_554 S
C1181 C1178 1.409 1_554 S
C1181 C1179 1.415 . S
C1182 H1172 0.930 . S
C1182 C1180 1.419 . S
C1182 C1183 1.362 . S
C1183 H1173 0.930 . S
C1183 C1176 1.409 1_554 S
C1183 C1182 1.362 . S
H1184 C1190 0.930 . S
H1185 C1193 0.930 . S
H1186 C1194 0.930 . S
H1187 C1195 0.930 . S
H1188 C1198 0.930 . S
H1189 C1199 0.930 . S
C1190 H1184 0.930 . S
C1190 C1191 1.355 . S
C1190 C1192 1.415 . S
C1191 C1190 1.355 . S
C1191 C1193 1.419 . S
C1192 C1190 1.415 . S
C1192 C1197 1.425 . S
C1192 C1199 1.409 . S
C1193 H1185 0.930 . S
C1193 C1191 1.419 . S
C1193 C1194 1.362 . S
C1194 H1186 0.930 . S
C1194 C1193 1.362 . S
C1194 C1197 1.409 . S
C1195 H1187 0.930 . S
C1195 C1196 1.355 . S
C1195 C1197 1.415 . S
C1196 C1195 1.355 . S
C1196 C1198 1.419 . S
C1197 C1192 1.425 . S
C1197 C1194 1.409 . S
C1197 C1195 1.415 . S
C1198 H1188 0.930 . S
C1198 C1196 1.419 . S
C1198 C1199 1.362 . S
C1199 H1189 0.930 . S
C1199 C1192 1.409 . S
C1199 C1198 1.362 . S
H1200 C1206 0.930 . S
H1201 C1209 0.930 . S
H1202 C1210 0.930 . S
H1203 C1211 0.930 . S
H1204 C1214 0.930 . S
H1205 C1215 0.930 . S
C1206 H1200 0.930 . S
C1206 C1207 1.355 . S
C1206 C1208 1.415 . S
C1207 C1206 1.355 . S
C1207 C1209 1.419 . S
C1208 C1206 1.415 . S
C1208 C1213 1.425 1_556 S
C1208 C1215 1.409 1_556 S
C1209 H1201 0.930 . S
C1209 C1207 1.419 . S
C1209 C1210 1.362 . S
C1210 H1202 0.930 . S
C1210 C1209 1.362 . S
C1210 C1213 1.409 1_556 S
C1211 H1203 0.930 . S
C1211 C1212 1.355 . S
C1211 C1213 1.415 . S
C1212 C1211 1.355 . S
C1212 C1214 1.419 . S
C1213 C1208 1.425 1_554 S
C1213 C1210 1.409 1_554 S
C1213 C1211 1.415 . S
C1214 H1204 0.930 . S
C1214 C1212 1.419 . S
C1214 C1215 1.362 . S
C1215 H1205 0.930 . S
C1215 C1208 1.409 1_554 S
C1215 C1214 1.362 . S
H1216 C1222 0.930 . S
H1217 C1225 0.930 1_455 S
H1218 C1226 0.920 1_455 S
H1219 C1227 0.930 1_455 S
H1220 C1230 0.930 . S
H1221 C1231 0.930 . S
C1222 H1216 0.930 . S
C1222 C1223 1.355 . S
C1222 C1224 1.415 . S
C1223 C1222 1.355 . S
C1223 C1225 1.419 . S
C1224 C1222 1.415 . S
C1224 C1229 1.425 . S
C1224 C1231 1.409 . S
C1225 H1217 0.930 1_655 S
C1225 C1223 1.419 . S
C1225 C1226 1.364 . S
C1226 H1218 0.920 1_655 S
C1226 C1225 1.364 . S
C1226 C1229 1.417 . S
C1227 H1219 0.930 1_655 S
C1227 C1228 1.355 . S
C1227 C1229 1.415 . S
C1228 C1227 1.355 . S
C1228 C1230 1.419 . S
C1229 C1224 1.425 . S
C1229 C1226 1.417 . S
C1229 C1227 1.415 . S
C1230 H1220 0.930 . S
C1230 C1228 1.419 . S
C1230 C1231 1.362 . S
C1231 H1221 0.930 . S
C1231 C1224 1.409 . S
C1231 C1230 1.362 . S
H1232 C1238 0.930 . S
H1233 C1241 0.930 . S
H1234 C1242 0.930 . S
H1235 C1243 0.930 . S
H1236 C1246 0.930 . S
H1237 C1247 0.930 . S
C1238 H1232 0.930 . S
C1238 C1239 1.355 . S
C1238 C1240 1.415 . S
C1239 C1238 1.355 . S
C1239 C1241 1.419 . S
C1240 C1238 1.415 . S
C1240 C1245 1.425 . S
C1240 C1247 1.409 . S
C1241 H1233 0.930 . S
C1241 C1239 1.419 . S
C1241 C1242 1.362 . S
C1242 H1234 0.930 . S
C1242 C1241 1.362 . S
C1242 C1245 1.409 . S
C1243 H1235 0.930 . S
C1243 C1244 1.355 . S
C1243 C1245 1.415 . S
C1244 C1243 1.355 . S
C1244 C1246 1.419 . S
C1245 C1240 1.425 . S
C1245 C1242 1.409 . S
C1245 C1243 1.415 . S
C1246 H1236 0.930 . S
C1246 C1244 1.419 . S
C1246 C1247 1.362 . S
C1247 H1237 0.930 . S
C1247 C1240 1.409 . S
C1247 C1246 1.362 . S
H1248 C1254 0.930 . S
H1249 C1257 0.930 . S
H1250 C1258 0.930 . S
H1251 C1259 0.930 . S
H1252 C1262 0.930 . S
H1253 C1263 0.930 . S
C1254 H1248 0.930 . S
C1254 C1255 1.355 . S
C1254 C1256 1.415 . S
C1255 C1254 1.355 . S
C1255 C1257 1.419 . S
C1256 C1254 1.415 . S
C1256 C1261 1.425 . S
C1256 C1263 1.409 . S
C1257 H1249 0.930 . S
C1257 C1255 1.419 . S
C1257 C1258 1.362 . S
C1258 H1250 0.930 . S
C1258 C1257 1.362 . S
C1258 C1261 1.409 . S
C1259 H1251 0.930 . S
C1259 C1260 1.355 . S
C1259 C1261 1.415 . S
C1260 C1259 1.355 . S
C1260 C1262 1.419 . S
C1261 C1256 1.425 . S
C1261 C1258 1.409 . S
C1261 C1259 1.415 . S
C1262 H1252 0.930 . S
C1262 C1260 1.419 . S
C1262 C1263 1.362 . S
C1263 H1253 0.930 . S
C1263 C1256 1.409 . S
C1263 C1262 1.362 . S
H1264 C1270 0.930 . S
H1265 C1273 0.930 . S
H1266 C1274 0.930 . S
H1267 C1275 0.930 . S
H1268 C1278 0.930 . S
H1269 C1279 0.930 . S
C1270 H1264 0.930 . S
C1270 C1271 1.355 . S
C1270 C1272 1.415 . S
C1271 C1270 1.355 . S
C1271 C1273 1.419 . S
C1272 C1270 1.415 . S
C1272 C1277 1.425 1_554 S
C1272 C1279 1.409 1_554 S
C1273 H1265 0.930 . S
C1273 C1271 1.419 . S
C1273 C1274 1.362 . S
C1274 H1266 0.930 . S
C1274 C1273 1.362 . S
C1274 C1277 1.409 1_554 S
C1275 H1267 0.930 . S
C1275 C1276 1.355 . S
C1275 C1277 1.415 . S
C1276 C1275 1.355 . S
C1276 C1278 1.419 . S
C1277 C1272 1.425 1_556 S
C1277 C1274 1.409 1_556 S
C1277 C1275 1.415 . S
C1278 H1268 0.930 . S
C1278 C1276 1.419 . S
C1278 C1279 1.362 . S
C1279 H1269 0.930 . S
C1279 C1272 1.409 1_556 S
C1279 C1278 1.362 . S
H1280 C1286 0.930 . S
H1281 C1289 0.930 . S
H1282 C1290 0.930 . S
H1283 C1291 0.930 . S
H1284 C1294 0.930 . S
H1285 C1295 0.930 . S
C1286 H1280 0.930 . S
C1286 C1287 1.355 . S
C1286 C1288 1.415 . S
C1287 C1286 1.355 . S
C1287 C1289 1.419 . S
C1288 C1286 1.415 . S
C1288 C1293 1.425 . S
C1288 C1295 1.409 . S
C1289 H1281 0.930 . S
C1289 C1287 1.419 . S
C1289 C1290 1.362 . S
C1290 H1282 0.930 . S
C1290 C1289 1.362 . S
C1290 C1293 1.409 . S
C1291 H1283 0.930 . S
C1291 C1292 1.355 . S
C1291 C1293 1.415 . S
C1292 C1291 1.355 . S
C1292 C1294 1.419 . S
C1293 C1288 1.425 . S
C1293 C1290 1.409 . S
C1293 C1291 1.415 . S
C1294 H1284 0.930 . S
C1294 C1292 1.419 . S
C1294 C1295 1.362 . S
C1295 H1285 0.930 . S
C1295 C1288 1.409 . S
C1295 C1294 1.362 . S
H1296 C1302 0.930 . S
H1297 C1305 0.930 . S
H1298 C1306 0.930 . S
H1299 C1307 0.930 . S
H1300 C1310 0.930 . S
H1301 C1311 0.930 . S
C1302 H1296 0.930 . S
C1302 C1303 1.355 . S
C1302 C1304 1.415 . S
C1303 C1302 1.355 . S
C1303 C1305 1.419 . S
C1304 C1302 1.415 . S
C1304 C1309 1.425 . S
C1304 C1311 1.409 . S
C1305 H1297 0.930 . S
C1305 C1303 1.419 . S
C1305 C1306 1.362 . S
C1306 H1298 0.930 . S
C1306 C1305 1.362 . S
C1306 C1309 1.409 . S
C1307 H1299 0.930 . S
C1307 C1308 1.355 . S
C1307 C1309 1.415 . S
C1308 C1307 1.355 . S
C1308 C1310 1.419 . S
C1309 C1304 1.425 . S
C1309 C1306 1.409 . S
C1309 C1307 1.415 . S
C1310 H1300 0.930 . S
C1310 C1308 1.419 . S
C1310 C1311 1.362 . S
C1311 H1301 0.930 . S
C1311 C1304 1.409 . S
C1311 C1310 1.362 . S
H1312 C1318 0.930 . S
H1313 C1321 0.930 . S
H1314 C1322 0.930 1_655 S
H1315 C1323 0.930 . S
H1316 C1326 0.930 . S
H1317 C1327 0.930 1_455 S
C1318 H1312 0.930 . S
C1318 C1319 1.355 . S
C1318 C1320 1.415 . S
C1319 C1318 1.355 . S
C1319 C1321 1.419 . S
C1320 C1318 1.415 . S
C1320 C1325 1.425 1_455 S
C1320 C1327 1.409 1_455 S
C1321 H1313 0.930 . S
C1321 C1319 1.419 . S
C1321 C1322 1.362 . S
C1322 H1314 0.930 1_455 S
C1322 C1321 1.362 . S
C1322 C1325 1.409 1_455 S
C1323 H1315 0.930 . S
C1323 C1324 1.355 . S
C1323 C1325 1.415 . S
C1324 C1323 1.355 . S
C1324 C1326 1.419 . S
C1325 C1320 1.425 1_655 S
C1325 C1322 1.409 1_655 S
C1325 C1323 1.415 . S
C1326 H1316 0.930 . S
C1326 C1324 1.419 . S
C1326 C1327 1.362 . S
C1327 H1317 0.930 1_655 S
C1327 C1320 1.409 1_655 S
C1327 C1326 1.362 . S
H1328 C1334 0.929 1_655 S
H1329 C1337 0.930 . S
H1330 C1338 0.930 . S
H1331 C1339 0.929 . S
H1332 C1342 0.930 . S
H1333 C1343 0.930 . S
C1334 H1328 0.929 1_455 S
C1334 C1335 1.355 . S
C1334 C1336 1.415 1_455 S
C1335 C1334 1.355 . S
C1335 C1337 1.419 . S
C1336 C1334 1.415 1_655 S
C1336 C1341 1.425 1_655 S
C1336 C1343 1.409 . S
C1337 H1329 0.930 . S
C1337 C1335 1.419 . S
C1337 C1338 1.362 . S
C1338 H1330 0.930 . S
C1338 C1337 1.362 . S
C1338 C1341 1.409 . S
C1339 H1331 0.929 . S
C1339 C1340 1.355 . S
C1339 C1341 1.415 1_655 S
C1340 C1339 1.355 . S
C1340 C1342 1.419 . S
C1341 C1336 1.425 1_455 S
C1341 C1338 1.409 . S
C1341 C1339 1.415 1_455 S
C1342 H1332 0.930 . S
C1342 C1340 1.419 . S
C1342 C1343 1.362 . S
C1343 H1333 0.930 . S
C1343 C1336 1.409 . S
C1343 C1342 1.362 . S
H1344 C1350 0.930 . S
H1345 C1353 0.930 . S
H1346 C1354 0.930 . S
H1347 C1355 0.930 . S
H1348 C1358 0.930 . S
H1349 C1359 0.930 . S
C1350 H1344 0.930 . S
C1350 C1351 1.355 . S
C1350 C1352 1.415 . S
C1351 C1350 1.355 . S
C1351 C1353 1.419 . S
C1352 C1350 1.415 . S
C1352 C1357 1.425 . S
C1352 C1359 1.409 . S
C1353 H1345 0.930 . S
C1353 C1351 1.419 . S
C1353 C1354 1.362 . S
C1354 H1346 0.930 . S
C1354 C1353 1.362 . S
C1354 C1357 1.409 . S
C1355 H1347 0.930 . S
C1355 C1356 1.355 . S
C1355 C1357 1.415 . S
C1356 C1355 1.355 . S
C1356 C1358 1.419 . S
C1357 C1352 1.425 . S
C1357 C1354 1.409 . S
C1357 C1355 1.415 . S
C1358 H1348 0.930 . S
C1358 C1356 1.419 . S
C1358 C1359 1.362 . S
C1359 H1349 0.930 . S
C1359 C1352 1.409 . S
C1359 C1358 1.362 . S
H1360 C1366 0.930 . S
H1361 C1369 0.930 . S
H1362 C1370 0.930 . S
H1363 C1371 0.930 . S
H1364 C1374 0.930 . S
H1365 C1375 0.930 . S
C1366 H1360 0.930 . S
C1366 C1367 1.355 . S
C1366 C1368 1.415 . S
C1367 C1366 1.355 . S
C1367 C1369 1.419 . S
C1368 C1366 1.415 . S
C1368 C1373 1.425 . S
C1368 C1375 1.409 . S
C1369 H1361 0.930 . S
C1369 C1367 1.419 . S
C1369 C1370 1.362 . S
C1370 H1362 0.930 . S
C1370 C1369 1.362 . S
C1370 C1373 1.409 . S
C1371 H1363 0.930 . S
C1371 C1372 1.355 . S
C1371 C1373 1.415 . S
C1372 C1371 1.355 . S
C1372 C1374 1.419 . S
C1373 C1368 1.425 . S
C1373 C1370 1.409 . S
C1373 C1371 1.415 . S
C1374 H1364 0.930 . S
C1374 C1372 1.419 . S
C1374 C1375 1.362 . S
C1375 H1365 0.930 . S
C1375 C1368 1.409 . S
C1375 C1374 1.362 . S
H1376 C1382 0.930 . S
H1377 C1385 0.930 . S
H1378 C1386 0.930 . S
H1379 C1387 0.930 . S
H1380 C1390 0.930 . S
H1381 C1391 0.930 . S
C1382 H1376 0.930 . S
C1382 C1383 1.355 . S
C1382 C1384 1.415 1_455 S
C1383 C1382 1.355 . S
C1383 C1385 1.419 . S
C1384 C1382 1.415 1_655 S
C1384 C1389 1.425 1_655 S
C1384 C1391 1.409 . S
C1385 H1377 0.930 . S
C1385 C1383 1.419 . S
C1385 C1386 1.362 . S
C1386 H1378 0.930 . S
C1386 C1385 1.362 . S
C1386 C1389 1.409 . S
C1387 H1379 0.930 . S
C1387 C1388 1.355 . S
C1387 C1389 1.415 1_655 S
C1388 C1387 1.355 . S
C1388 C1390 1.419 . S
C1389 C1384 1.425 1_455 S
C1389 C1386 1.409 . S
C1389 C1387 1.415 1_455 S
C1390 H1380 0.930 . S
C1390 C1388 1.419 . S
C1390 C1391 1.362 . S
C1391 H1381 0.930 . S
C1391 C1384 1.409 . S
C1391 C1390 1.362 . S
H1392 C1398 0.930 . S
H1393 C1401 0.930 . S
H1394 C1402 0.930 . S
H1395 C1403 0.930 . S
H1396 C1406 0.930 . S
H1397 C1407 0.930 . S
C1398 H1392 0.930 . S
C1398 C1399 1.355 . S
C1398 C1400 1.415 . S
C1399 C1398 1.355 . S
C1399 C1401 1.419 . S
C1400 C1398 1.415 . S
C1400 C1405 1.425 . S
C1400 C1407 1.409 . S
C1401 H1393 0.930 . S
C1401 C1399 1.419 . S
C1401 C1402 1.362 . S
C1402 H1394 0.930 . S
C1402 C1401 1.362 . S
C1402 C1405 1.409 . S
C1403 H1395 0.930 . S
C1403 C1404 1.355 . S
C1403 C1405 1.415 . S
C1404 C1403 1.355 . S
C1404 C1406 1.419 . S
C1405 C1400 1.425 . S
C1405 C1402 1.409 . S
C1405 C1403 1.415 . S
C1406 H1396 0.930 . S
C1406 C1404 1.419 . S
C1406 C1407 1.362 . S
C1407 H1397 0.930 . S
C1407 C1400 1.409 . S
C1407 C1406 1.362 . S
H1408 C1414 0.930 . S
H1409 C1417 0.930 . S
H1410 C1418 0.930 . S
H1411 C1419 0.930 . S
H1412 C1422 0.930 . S
H1413 C1423 0.930 . S
C1414 H1408 0.930 . S
C1414 C1415 1.355 . S
C1414 C1416 1.415 . S
C1415 C1414 1.355 . S
C1415 C1417 1.419 . S
C1416 C1414 1.415 . S
C1416 C1421 1.425 . S
C1416 C1423 1.409 . S
C1417 H1409 0.930 . S
C1417 C1415 1.419 . S
C1417 C1418 1.362 . S
C1418 H1410 0.930 . S
C1418 C1417 1.362 . S
C1418 C1421 1.409 . S
C1419 H1411 0.930 . S
C1419 C1420 1.355 . S
C1419 C1421 1.415 . S
C1420 C1419 1.355 . S
C1420 C1422 1.419 . S
C1421 C1416 1.425 . S
C1421 C1418 1.409 . S
C1421 C1419 1.415 . S
C1422 H1412 0.930 . S
C1422 C1420 1.419 . S
C1422 C1423 1.362 . S
C1423 H1413 0.930 . S
C1423 C1416 1.409 . S
C1423 C1422 1.362 . S
H1424 C1430 0.930 . S
H1425 C1433 0.930 . S
H1426 C1434 0.930 . S
H1427 C1435 0.930 . S
H1428 C1438 0.930 . S
H1429 C1439 0.930 . S
C1430 H1424 0.930 . S
C1430 C1431 1.355 . S
C1430 C1432 1.415 . S
C1431 C1430 1.355 . S
C1431 C1433 1.419 1_455 S
C1432 C1430 1.415 . S
C1432 C1437 1.425 1_455 S
C1432 C1439 1.409 . S
C1433 H1425 0.930 . S
C1433 C1431 1.419 1_655 S
C1433 C1434 1.362 . S
C1434 H1426 0.930 . S
C1434 C1433 1.362 . S
C1434 C1437 1.409 . S
C1435 H1427 0.930 . S
C1435 C1436 1.355 . S
C1435 C1437 1.415 . S
C1436 C1435 1.355 . S
C1436 C1438 1.419 1_655 S
C1437 C1432 1.425 1_655 S
C1437 C1434 1.409 . S
C1437 C1435 1.415 . S
C1438 H1428 0.930 . S
C1438 C1436 1.419 1_455 S
C1438 C1439 1.362 . S
C1439 H1429 0.930 . S
C1439 C1432 1.409 . S
C1439 C1438 1.362 . S
H1440 C1446 0.930 . S
H1441 C1449 0.930 . S
H1442 C1450 0.930 . S
H1443 C1451 0.930 . S
H1444 C1454 0.930 . S
H1445 C1455 0.930 . S
C1446 H1440 0.930 . S
C1446 C1447 1.355 . S
C1446 C1448 1.415 . S
C1447 C1446 1.355 . S
C1447 C1449 1.419 . S
C1448 C1446 1.415 . S
C1448 C1453 1.425 1_455 S
C1448 C1455 1.409 . S
C1449 H1441 0.930 . S
C1449 C1447 1.419 . S
C1449 C1450 1.362 1_455 S
C1450 H1442 0.930 . S
C1450 C1449 1.362 1_655 S
C1450 C1453 1.409 . S
C1451 H1443 0.930 . S
C1451 C1452 1.355 . S
C1451 C1453 1.415 . S
C1452 C1451 1.355 . S
C1452 C1454 1.419 . S
C1453 C1448 1.425 1_655 S
C1453 C1450 1.409 . S
C1453 C1451 1.415 . S
C1454 H1444 0.930 . S
C1454 C1452 1.419 . S
C1454 C1455 1.362 1_655 S
C1455 H1445 0.930 . S
C1455 C1448 1.409 . S
C1455 C1454 1.362 1_455 S
H1456 C1462 0.930 . S
H1457 C1465 0.930 . S
H1458 C1466 0.927 1_455 S
H1459 C1467 0.930 . S
H1460 C1470 0.930 . S
H1461 C1471 0.928 1_655 S
C1462 H1456 0.930 . S
C1462 C1463 1.355 . S
C1462 C1464 1.415 . S
C1463 C1462 1.355 . S
C1463 C1465 1.419 . S
C1464 C1462 1.415 . S
C1464 C1469 1.425 1_655 S
C1464 C1471 1.409 1_655 S
C1465 H1457 0.930 . S
C1465 C1463 1.419 . S
C1465 C1466 1.362 . S
C1466 H1458 0.927 1_655 S
C1466 C1465 1.362 . S
C1466 C1469 1.409 1_655 S
C1467 H1459 0.930 . S
C1467 C1468 1.355 . S
C1467 C1469 1.415 . S
C1468 C1467 1.355 . S
C1468 C1470 1.419 . S
C1469 C1464 1.425 1_455 S
C1469 C1466 1.409 1_455 S
C1469 C1467 1.415 . S
C1470 H1460 0.930 . S
C1470 C1468 1.419 . S
C1470 C1471 1.362 . S
C1471 H1461 0.928 1_455 S
C1471 C1464 1.409 1_455 S
C1471 C1470 1.362 . S
H1472 C1478 0.930 . S
H1473 C1481 0.930 . S
H1474 C1482 0.930 . S
H1475 C1483 0.930 . S
H1476 C1486 0.930 . S
H1477 C1487 0.930 . S
C1478 H1472 0.930 . S
C1478 C1479 1.355 . S
C1478 C1480 1.415 . S
C1479 C1478 1.355 . S
C1479 C1481 1.419 . S
C1480 C1478 1.415 . S
C1480 C1485 1.425 . S
C1480 C1487 1.409 . S
C1481 H1473 0.930 . S
C1481 C1479 1.419 . S
C1481 C1482 1.362 . S
C1482 H1474 0.930 . S
C1482 C1481 1.362 . S
C1482 C1485 1.409 . S
C1483 H1475 0.930 . S
C1483 C1484 1.355 . S
C1483 C1485 1.415 . S
C1484 C1483 1.355 . S
C1484 C1486 1.419 . S
C1485 C1480 1.425 . S
C1485 C1482 1.409 . S
C1485 C1483 1.415 . S
C1486 H1476 0.930 . S
C1486 C1484 1.419 . S
C1486 C1487 1.362 . S
C1487 H1477 0.930 . S
C1487 C1480 1.409 . S
C1487 C1486 1.362 . S
H1488 C1494 0.930 . S
H1489 C1497 0.930 . S
H1490 C1498 0.930 . S
H1491 C1499 0.930 . S
H1492 C1502 0.930 . S
H1493 C1503 0.930 . S
C1494 H1488 0.930 . S
C1494 C1495 1.355 . S
C1494 C1496 1.415 . S
C1495 C1494 1.355 . S
C1495 C1497 1.419 . S
C1496 C1494 1.415 . S
C1496 C1501 1.425 . S
C1496 C1503 1.409 . S
C1497 H1489 0.930 . S
C1497 C1495 1.419 . S
C1497 C1498 1.362 . S
C1498 H1490 0.930 . S
C1498 C1497 1.362 . S
C1498 C1501 1.409 . S
C1499 H1491 0.930 . S
C1499 C1500 1.355 . S
C1499 C1501 1.415 . S
C1500 C1499 1.355 . S
C1500 C1502 1.419 . S
C1501 C1496 1.425 . S
C1501 C1498 1.409 . S
C1501 C1499 1.415 . S
C1502 H1492 0.930 . S
C1502 C1500 1.419 . S
C1502 C1503 1.362 . S
C1503 H1493 0.930 . S
C1503 C1496 1.409 . S
C1503 C1502 1.362 . S
H1504 C1510 0.930 . S
H1505 C1513 0.930 . S
H1506 C1514 0.930 . S
H1507 C1515 0.930 . S
H1508 C1518 0.930 . S
H1509 C1519 0.930 . S
C1510 H1504 0.930 . S
C1510 C1511 1.355 . S
C1510 C1512 1.415 . S
C1511 C1510 1.355 . S
C1511 C1513 1.419 . S
C1512 C1510 1.415 . S
C1512 C1517 1.425 1_655 S
C1512 C1519 1.409 . S
C1513 H1505 0.930 . S
C1513 C1511 1.419 . S
C1513 C1514 1.362 1_655 S
C1514 H1506 0.930 . S
C1514 C1513 1.362 1_455 S
C1514 C1517 1.409 . S
C1515 H1507 0.930 . S
C1515 C1516 1.355 . S
C1515 C1517 1.415 . S
C1516 C1515 1.355 . S
C1516 C1518 1.419 . S
C1517 C1512 1.425 1_455 S
C1517 C1514 1.409 . S
C1517 C1515 1.415 . S
C1518 H1508 0.930 . S
C1518 C1516 1.419 . S
C1518 C1519 1.362 1_455 S
C1519 H1509 0.930 . S
C1519 C1512 1.409 . S
C1519 C1518 1.362 1_655 S
H1520 C1526 0.930 . S
H1521 C1529 0.930 . S
H1522 C1530 0.930 . S
H1523 C1531 0.930 . S
H1524 C1534 0.930 . S
H1525 C1535 0.930 . S
C1526 H1520 0.930 . S
C1526 C1527 1.355 . S
C1526 C1528 1.415 . S
C1527 C1526 1.355 . S
C1527 C1529 1.419 . S
C1528 C1526 1.415 . S
C1528 C1533 1.425 . S
C1528 C1535 1.409 . S
C1529 H1521 0.930 . S
C1529 C1527 1.419 . S
C1529 C1530 1.362 . S
C1530 H1522 0.930 . S
C1530 C1529 1.362 . S
C1530 C1533 1.409 . S
C1531 H1523 0.930 . S
C1531 C1532 1.355 . S
C1531 C1533 1.415 . S
C1532 C1531 1.355 . S
C1532 C1534 1.419 . S
C1533 C1528 1.425 . S
C1533 C1530 1.409 . S
C1533 C1531 1.415 . S
C1534 H1524 0.930 . S
C1534 C1532 1.419 . S
C1534 C1535 1.362 . S
C1535 H1525 0.930 . S
C1535 C1528 1.409 . S
C1535 C1534 1.362 . S
H1536 C1542 0.930 . S
H1537 C1545 0.930 . S
H1538 C1546 0.930 . S
H1539 C1547 0.930 . S
H1540 C1550 0.930 . S
H1541 C1551 0.930 . S
C1542 H1536 0.930 . S
C1542 C1543 1.355 . S
C1542 C1544 1.415 . S
C1543 C1542 1.355 . S
C1543 C1545 1.419 . S
C1544 C1542 1.415 . S
C1544 C1549 1.425 . S
C1544 C1551 1.409 . S
C1545 H1537 0.930 . S
C1545 C1543 1.419 . S
C1545 C1546 1.362 . S
C1546 H1538 0.930 . S
C1546 C1545 1.362 . S
C1546 C1549 1.409 . S
C1547 H1539 0.930 . S
C1547 C1548 1.355 . S
C1547 C1549 1.415 . S
C1548 C1547 1.355 . S
C1548 C1550 1.419 . S
C1549 C1544 1.425 . S
C1549 C1546 1.409 . S
C1549 C1547 1.415 . S
C1550 H1540 0.930 . S
C1550 C1548 1.419 . S
C1550 C1551 1.362 . S
C1551 H1541 0.930 . S
C1551 C1544 1.409 . S
C1551 C1550 1.362 . S
H1552 C1558 0.930 . S
H1553 C1561 0.930 . S
H1554 C1562 0.930 . S
H1555 C1563 0.930 . S
H1556 C1566 0.930 . S
H1557 C1567 0.930 . S
C1558 H1552 0.930 . S
C1558 C1559 1.355 . S
C1558 C1560 1.415 . S
C1559 C1558 1.355 . S
C1559 C1561 1.419 1_655 S
C1560 C1558 1.415 . S
C1560 C1565 1.425 1_655 S
C1560 C1567 1.409 . S
C1561 H1553 0.930 . S
C1561 C1559 1.419 1_455 S
C1561 C1562 1.362 . S
C1562 H1554 0.930 . S
C1562 C1561 1.362 . S
C1562 C1565 1.409 . S
C1563 H1555 0.930 . S
C1563 C1564 1.355 . S
C1563 C1565 1.415 . S
C1564 C1563 1.355 . S
C1564 C1566 1.419 1_455 S
C1565 C1560 1.425 1_455 S
C1565 C1562 1.409 . S
C1565 C1563 1.415 . S
C1566 H1556 0.930 . S
C1566 C1564 1.419 1_655 S
C1566 C1567 1.362 . S
C1567 H1557 0.930 . S
C1567 C1560 1.409 . S
C1567 C1566 1.362 . S
H1568 C1574 0.930 . S
H1569 C1577 0.930 . S
H1570 C1578 0.930 . S
H1571 C1579 0.930 . S
H1572 C1582 0.930 1_565 S
H1573 C1583 0.930 . S
C1574 H1568 0.930 . S
C1574 C1575 1.355 1_565 S
C1574 C1576 1.415 1_565 S
C1575 C1574 1.355 1_545 S
C1575 C1577 1.418 . S
C1576 C1574 1.415 1_545 S
C1576 C1581 1.425 . S
C1576 C1583 1.409 1_545 S
C1577 H1569 0.930 . S
C1577 C1575 1.418 . S
C1577 C1578 1.362 . S
C1578 H1570 0.930 . S
C1578 C1577 1.362 . S
C1578 C1581 1.409 . S
C1579 H1571 0.930 . S
C1579 C1580 1.355 . S
C1579 C1581 1.415 . S
C1580 C1579 1.355 . S
C1580 C1582 1.419 . S
C1581 C1576 1.425 . S
C1581 C1578 1.409 . S
C1581 C1579 1.415 . S
C1582 H1572 0.930 1_545 S
C1582 C1580 1.419 . S
C1582 C1583 1.362 1_545 S
C1583 H1573 0.930 . S
C1583 C1576 1.409 1_565 S
C1583 C1582 1.362 1_565 S
H1584 C1590 0.930 . S
H1585 C1593 0.930 . S
H1586 C1594 0.930 . S
H1587 C1595 0.930 . S
H1588 C1598 0.930 . S
H1589 C1599 0.930 . S
C1590 H1584 0.930 . S
C1590 C1591 1.355 . S
C1590 C1592 1.415 . S
C1591 C1590 1.355 . S
C1591 C1593 1.419 . S
C1592 C1590 1.415 . S
C1592 C1597 1.425 . S
C1592 C1599 1.409 . S
C1593 H1585 0.930 . S
C1593 C1591 1.419 . S
C1593 C1594 1.362 . S
C1594 H1586 0.930 . S
C1594 C1593 1.362 . S
C1594 C1597 1.409 . S
C1595 H1587 0.930 . S
C1595 C1596 1.355 . S
C1595 C1597 1.415 . S
C1596 C1595 1.355 . S
C1596 C1598 1.419 . S
C1597 C1592 1.425 . S
C1597 C1594 1.409 . S
C1597 C1595 1.415 . S
C1598 H1588 0.930 . S
C1598 C1596 1.419 . S
C1598 C1599 1.362 . S
C1599 H1589 0.930 . S
C1599 C1592 1.409 . S
C1599 C1598 1.362 . S
H1600 C1606 0.930 . S
H1601 C1609 0.930 . S
H1602 C1610 0.930 . S
H1603 C1611 0.930 . S
H1604 C1614 0.930 . S
H1605 C1615 0.930 . S
C1606 H1600 0.930 . S
C1606 C1607 1.355 . S
C1606 C1608 1.415 . S
C1607 C1606 1.355 . S
C1607 C1609 1.419 . S
C1608 C1606 1.415 . S
C1608 C1613 1.425 . S
C1608 C1615 1.409 . S
C1609 H1601 0.930 . S
C1609 C1607 1.419 . S
C1609 C1610 1.362 . S
C1610 H1602 0.930 . S
C1610 C1609 1.362 . S
C1610 C1613 1.409 . S
C1611 H1603 0.930 . S
C1611 C1612 1.355 1_565 S
C1611 C1613 1.415 . S
C1612 C1611 1.355 1_545 S
C1612 C1614 1.419 . S
C1613 C1608 1.425 . S
C1613 C1610 1.409 . S
C1613 C1611 1.415 . S
C1614 H1604 0.930 . S
C1614 C1612 1.419 . S
C1614 C1615 1.362 1_545 S
C1615 H1605 0.930 . S
C1615 C1608 1.409 . S
C1615 C1614 1.362 1_565 S
H1616 C1622 0.930 . S
H1617 C1625 0.930 . S
H1618 C1626 0.930 . S
H1619 C1627 0.930 . S
H1620 C1630 0.930 . S
H1621 C1631 0.930 . S
C1622 H1616 0.930 . S
C1622 C1623 1.355 . S
C1622 C1624 1.415 . S
C1623 C1622 1.355 . S
C1623 C1625 1.419 . S
C1624 C1622 1.415 . S
C1624 C1629 1.425 . S
C1624 C1631 1.409 . S
C1625 H1617 0.930 . S
C1625 C1623 1.419 . S
C1625 C1626 1.362 . S
C1626 H1618 0.930 . S
C1626 C1625 1.362 . S
C1626 C1629 1.409 . S
C1627 H1619 0.930 . S
C1627 C1628 1.355 . S
C1627 C1629 1.415 . S
C1628 C1627 1.355 . S
C1628 C1630 1.419 . S
C1629 C1624 1.425 . S
C1629 C1626 1.409 . S
C1629 C1627 1.415 . S
C1630 H1620 0.930 . S
C1630 C1628 1.419 . S
C1630 C1631 1.362 . S
C1631 H1621 0.930 . S
C1631 C1624 1.409 . S
C1631 C1630 1.362 . S
H1632 C1638 0.930 . S
H1633 C1641 0.930 . S
H1634 C1642 0.930 . S
H1635 C1643 0.930 . S
H1636 C1646 0.930 1_545 S
H1637 C1647 0.930 . S
C1638 H1632 0.930 . S
C1638 C1639 1.355 . S
C1638 C1640 1.415 1_545 S
C1639 C1638 1.355 . S
C1639 C1641 1.419 1_545 S
C1640 C1638 1.415 1_565 S
C1640 C1645 1.425 . S
C1640 C1647 1.409 1_565 S
C1641 H1633 0.930 . S
C1641 C1639 1.419 1_565 S
C1641 C1642 1.362 . S
C1642 H1634 0.930 . S
C1642 C1641 1.362 . S
C1642 C1645 1.409 . S
C1643 H1635 0.930 . S
C1643 C1644 1.355 . S
C1643 C1645 1.415 . S
C1644 C1643 1.355 . S
C1644 C1646 1.419 . S
C1645 C1640 1.425 . S
C1645 C1642 1.409 . S
C1645 C1643 1.415 . S
C1646 H1636 0.930 1_565 S
C1646 C1644 1.419 . S
C1646 C1647 1.362 1_565 S
C1647 H1637 0.930 . S
C1647 C1640 1.409 1_545 S
C1647 C1646 1.362 1_545 S
H1648 C1654 0.930 . S
H1649 C1657 0.930 . S
H1650 C1658 0.930 . S
H1651 C1659 0.930 . S
H1652 C1662 0.930 . S
H1653 C1663 0.930 . S
C1654 H1648 0.930 . S
C1654 C1655 1.355 . S
C1654 C1656 1.415 . S
C1655 C1654 1.355 . S
C1655 C1657 1.419 . S
C1656 C1654 1.415 . S
C1656 C1661 1.425 . S
C1656 C1663 1.409 . S
C1657 H1649 0.930 . S
C1657 C1655 1.419 . S
C1657 C1658 1.362 . S
C1658 H1650 0.930 . S
C1658 C1657 1.362 . S
C1658 C1661 1.409 . S
C1659 H1651 0.930 . S
C1659 C1660 1.355 . S
C1659 C1661 1.415 . S
C1660 C1659 1.355 . S
C1660 C1662 1.419 . S
C1661 C1656 1.425 . S
C1661 C1658 1.409 . S
C1661 C1659 1.415 . S
C1662 H1652 0.930 . S
C1662 C1660 1.419 . S
C1662 C1663 1.362 . S
C1663 H1653 0.930 . S
C1663 C1656 1.409 . S
C1663 C1662 1.362 . S
H1664 C1670 0.930 . S
H1665 C1673 0.930 . S
H1666 C1674 0.930 . S
H1667 C1675 0.930 . S
H1668 C1678 0.930 . S
H1669 C1679 0.930 . S
C1670 H1664 0.930 . S
C1670 C1671 1.355 1_545 S
C1670 C1672 1.415 . S
C1671 C1670 1.355 1_565 S
C1671 C1673 1.419 . S
C1672 C1670 1.415 . S
C1672 C1677 1.425 1_545 S
C1672 C1679 1.409 . S
C1673 H1665 0.930 . S
C1673 C1671 1.419 . S
C1673 C1674 1.362 . S
C1674 H1666 0.930 . S
C1674 C1673 1.362 . S
C1674 C1677 1.409 . S
C1675 H1667 0.930 . S
C1675 C1676 1.354 1_565 S
C1675 C1677 1.415 . S
C1676 C1675 1.354 1_545 S
C1676 C1678 1.419 . S
C1677 C1672 1.425 1_565 S
C1677 C1674 1.409 . S
C1677 C1675 1.415 . S
C1678 H1668 0.930 . S
C1678 C1676 1.419 . S
C1678 C1679 1.362 . S
C1679 H1669 0.930 . S
C1679 C1672 1.409 . S
C1679 C1678 1.362 . S
H1680 C1686 0.930 . S
H1681 C1689 0.930 . S
H1682 C1690 0.930 . S
H1683 C1691 0.930 . S
H1684 C1694 0.930 1_545 S
H1685 C1695 0.930 . S
C1686 H1680 0.930 . S
C1686 C1687 1.355 . S
C1686 C1688 1.415 . S
C1687 C1686 1.355 . S
C1687 C1689 1.419 . S
C1688 C1686 1.415 . S
C1688 C1693 1.425 . S
C1688 C1695 1.409 . S
C1689 H1681 0.930 . S
C1689 C1687 1.419 . S
C1689 C1690 1.362 . S
C1690 H1682 0.930 . S
C1690 C1689 1.362 . S
C1690 C1693 1.409 . S
C1691 H1683 0.930 . S
C1691 C1692 1.355 . S
C1691 C1693 1.415 . S
C1692 C1691 1.355 . S
C1692 C1694 1.419 . S
C1693 C1688 1.425 . S
C1693 C1690 1.409 . S
C1693 C1691 1.415 . S
C1694 H1684 0.930 1_565 S
C1694 C1692 1.419 . S
C1694 C1695 1.362 . S
C1695 H1685 0.930 . S
C1695 C1688 1.409 . S
C1695 C1694 1.362 . S
H1696 C1702 0.930 . S
H1697 C1705 0.930 . S
H1698 C1706 0.930 . S
H1699 C1707 0.930 . S
H1700 C1710 0.930 . S
H1701 C1711 0.930 . S
C1702 H1696 0.930 . S
C1702 C1703 1.355 . S
C1702 C1704 1.415 . S
C1703 C1702 1.355 . S
C1703 C1705 1.419 1_565 S
C1704 C1702 1.415 . S
C1704 C1709 1.425 1_565 S
C1704 C1711 1.409 . S
C1705 H1697 0.930 . S
C1705 C1703 1.419 1_545 S
C1705 C1706 1.362 . S
C1706 H1698 0.930 . S
C1706 C1705 1.362 . S
C1706 C1709 1.409 . S
C1707 H1699 0.930 . S
C1707 C1708 1.348 1_545 S
C1707 C1709 1.415 . S
C1708 C1707 1.348 1_565 S
C1708 C1710 1.430 . S
C1709 C1704 1.425 1_545 S
C1709 C1706 1.409 . S
C1709 C1707 1.415 . S
C1710 H1700 0.930 . S
C1710 C1708 1.430 . S
C1710 C1711 1.362 . S
C1711 H1701 0.930 . S
C1711 C1704 1.409 . S
C1711 C1710 1.362 . S
H1712 C1718 0.930 . S
H1713 C1721 0.930 . S
H1714 C1722 0.930 . S
H1715 C1723 0.930 . S
H1716 C1726 0.930 . S
H1717 C1727 0.930 . S
C1718 H1712 0.930 . S
C1718 C1719 1.355 . S
C1718 C1720 1.415 . S
C1719 C1718 1.355 . S
C1719 C1721 1.419 . S
C1720 C1718 1.415 . S
C1720 C1725 1.425 . S
C1720 C1727 1.409 . S
C1721 H1713 0.930 . S
C1721 C1719 1.419 . S
C1721 C1722 1.362 . S
C1722 H1714 0.930 . S
C1722 C1721 1.362 . S
C1722 C1725 1.409 . S
C1723 H1715 0.930 . S
C1723 C1724 1.355 . S
C1723 C1725 1.415 . S
C1724 C1723 1.355 . S
C1724 C1726 1.419 . S
C1725 C1720 1.425 . S
C1725 C1722 1.409 . S
C1725 C1723 1.415 . S
C1726 H1716 0.930 . S
C1726 C1724 1.419 . S
C1726 C1727 1.362 . S
C1727 H1717 0.930 . S
C1727 C1720 1.409 . S
C1727 C1726 1.362 . S
H1728 C1734 0.930 . S
H1729 C1737 0.930 . S
H1730 C1738 0.930 . S
H1731 C1739 0.940 . S
H1732 C1742 0.930 . S
H1733 C1743 0.930 . S
C1734 H1728 0.930 . S
C1734 C1735 1.355 1_545 S
C1734 C1736 1.415 . S
C1735 C1734 1.355 1_565 S
C1735 C1737 1.419 . S
C1736 C1734 1.415 . S
C1736 C1741 1.425 1_545 S
C1736 C1743 1.409 . S
C1737 H1729 0.930 . S
C1737 C1735 1.419 . S
C1737 C1738 1.362 . S
C1738 H1730 0.930 . S
C1738 C1737 1.362 . S
C1738 C1741 1.409 . S
C1739 H1731 0.940 . S
C1739 C1740 1.343 1_565 S
C1739 C1741 1.416 . S
C1740 C1739 1.343 1_545 S
C1740 C1742 1.419 . S
C1741 C1736 1.425 1_565 S
C1741 C1738 1.409 . S
C1741 C1739 1.416 . S
C1742 H1732 0.930 . S
C1742 C1740 1.419 . S
C1742 C1743 1.362 . S
C1743 H1733 0.930 . S
C1743 C1736 1.409 . S
C1743 C1742 1.362 . S
H1744 C1750 0.930 . S
H1745 C1753 0.930 1_565 S
H1746 C1754 0.930 . S
H1747 C1755 0.930 . S
H1748 C1758 0.930 . S
H1749 C1759 0.930 . S
C1750 H1744 0.930 . S
C1750 C1751 1.355 . S
C1750 C1752 1.415 . S
C1751 C1750 1.355 . S
C1751 C1753 1.419 . S
C1752 C1750 1.415 . S
C1752 C1757 1.425 . S
C1752 C1759 1.409 . S
C1753 H1745 0.930 1_545 S
C1753 C1751 1.419 . S
C1753 C1754 1.362 . S
C1754 H1746 0.930 . S
C1754 C1753 1.362 . S
C1754 C1757 1.409 . S
C1755 H1747 0.930 . S
C1755 C1756 1.355 . S
C1755 C1757 1.415 . S
C1756 C1755 1.355 . S
C1756 C1758 1.419 . S
C1757 C1752 1.425 . S
C1757 C1754 1.409 . S
C1757 C1755 1.415 . S
C1758 H1748 0.930 . S
C1758 C1756 1.419 . S
C1758 C1759 1.362 . S
C1759 H1749 0.930 . S
C1759 C1752 1.409 . S
C1759 C1758 1.362 . S
H1760 C1766 0.930 . S
H1761 C1769 0.930 . S
H1762 C1770 0.930 . S
H1763 C1771 0.930 . S
H1764 C1774 0.930 . S
H1765 C1775 0.930 . S
C1766 H1760 0.930 . S
C1766 C1767 1.355 1_545 S
C1766 C1768 1.415 . S
C1767 C1766 1.355 1_565 S
C1767 C1769 1.419 . S
C1768 C1766 1.415 . S
C1768 C1773 1.425 1_545 S
C1768 C1775 1.409 . S
C1769 H1761 0.930 . S
C1769 C1767 1.419 . S
C1769 C1770 1.362 . S
C1770 H1762 0.930 . S
C1770 C1769 1.362 . S
C1770 C1773 1.409 . S
C1771 H1763 0.930 . S
C1771 C1772 1.355 1_565 S
C1771 C1773 1.415 . S
C1772 C1771 1.355 1_545 S
C1772 C1774 1.419 . S
C1773 C1768 1.425 1_565 S
C1773 C1770 1.409 . S
C1773 C1771 1.415 . S
C1774 H1764 0.930 . S
C1774 C1772 1.419 . S
C1774 C1775 1.362 . S
C1775 H1765 0.930 . S
C1775 C1768 1.409 . S
C1775 C1774 1.362 . S
H1776 C1782 0.930 . S
H1777 C1785 0.930 . S
H1778 C1786 0.930 . S
H1779 C1787 0.930 . S
H1780 C1790 0.930 . S
H1781 C1791 0.930 . S
C1782 H1776 0.930 . S
C1782 C1783 1.355 . S
C1782 C1784 1.415 . S
C1783 C1782 1.355 . S
C1783 C1785 1.419 . S
C1784 C1782 1.415 . S
C1784 C1789 1.425 . S
C1784 C1791 1.409 . S
C1785 H1777 0.930 . S
C1785 C1783 1.419 . S
C1785 C1786 1.362 . S
C1786 H1778 0.930 . S
C1786 C1785 1.362 . S
C1786 C1789 1.409 . S
C1787 H1779 0.930 . S
C1787 C1788 1.355 . S
C1787 C1789 1.415 . S
C1788 C1787 1.355 . S
C1788 C1790 1.419 . S
C1789 C1784 1.425 . S
C1789 C1786 1.409 . S
C1789 C1787 1.415 . S
C1790 H1780 0.930 . S
C1790 C1788 1.419 . S
C1790 C1791 1.362 . S
C1791 H1781 0.930 . S
C1791 C1784 1.409 . S
C1791 C1790 1.362 . S
H1792 C1798 0.930 . S
H1793 C1801 0.930 . S
H1794 C1802 0.930 . S
H1795 C1803 0.930 . S
H1796 C1806 0.930 . S
H1797 C1807 0.930 . S
C1798 H1792 0.930 . S
C1798 C1799 1.343 1_545 S
C1798 C1800 1.415 . S
C1799 C1798 1.343 1_565 S
C1799 C1801 1.440 . S
C1800 C1798 1.415 . S
C1800 C1805 1.425 1_545 S
C1800 C1807 1.409 . S
C1801 H1793 0.930 . S
C1801 C1799 1.440 . S
C1801 C1802 1.362 . S
C1802 H1794 0.930 . S
C1802 C1801 1.362 . S
C1802 C1805 1.409 . S
C1803 H1795 0.930 . S
C1803 C1804 1.355 . S
C1803 C1805 1.415 . S
C1804 C1803 1.355 . S
C1804 C1806 1.419 1_565 S
C1805 C1800 1.425 1_565 S
C1805 C1802 1.409 . S
C1805 C1803 1.415 . S
C1806 H1796 0.930 . S
C1806 C1804 1.419 1_545 S
C1806 C1807 1.362 . S
C1807 H1797 0.930 . S
C1807 C1800 1.409 . S
C1807 C1806 1.362 . S
H1808 C1814 0.930 . S
H1809 C1817 0.930 . S
H1810 C1818 0.930 . S
H1811 C1819 0.930 . S
H1812 C1822 0.930 . S
H1813 C1823 0.930 . S
C1814 H1808 0.930 . S
C1814 C1815 1.355 . S
C1814 C1816 1.415 . S
C1815 C1814 1.355 . S
C1815 C1817 1.419 . S
C1816 C1814 1.415 . S
C1816 C1821 1.425 . S
C1816 C1823 1.409 . S
C1817 H1809 0.930 . S
C1817 C1815 1.419 . S
C1817 C1818 1.362 . S
C1818 H1810 0.930 . S
C1818 C1817 1.362 . S
C1818 C1821 1.409 . S
C1819 H1811 0.930 . S
C1819 C1820 1.355 . S
C1819 C1821 1.415 . S
C1820 C1819 1.355 . S
C1820 C1822 1.419 . S
C1821 C1816 1.425 . S
C1821 C1818 1.409 . S
C1821 C1819 1.415 . S
C1822 H1812 0.930 . S
C1822 C1820 1.419 . S
C1822 C1823 1.362 . S
C1823 H1813 0.930 . S
C1823 C1816 1.409 . S
C1823 C1822 1.362 . S
H1824 C1830 0.930 . S
H1825 C1833 0.930 . S
H1826 C1834 0.930 . S
H1827 C1835 0.930 . S
H1828 C1838 0.930 . S
H1829 C1839 0.930 . S
C1830 H1824 0.930 . S
C1830 C1831 1.355 . S
C1830 C1832 1.415 . S
C1831 C1830 1.355 . S
C1831 C1833 1.419 . S
C1832 C1830 1.415 . S
C1832 C1837 1.425 . S
C1832 C1839 1.409 . S
C1833 H1825 0.930 . S
C1833 C1831 1.419 . S
C1833 C1834 1.362 . S
C1834 H1826 0.930 . S
C1834 C1833 1.362 . S
C1834 C1837 1.409 . S
C1835 H1827 0.930 . S
C1835 C1836 1.355 . S
C1835 C1837 1.415 . S
C1836 C1835 1.355 . S
C1836 C1838 1.419 . S
C1837 C1832 1.425 . S
C1837 C1834 1.409 . S
C1837 C1835 1.415 . S
C1838 H1828 0.930 . S
C1838 C1836 1.419 . S
C1838 C1839 1.362 . S
C1839 H1829 0.930 . S
C1839 C1832 1.409 . S
C1839 C1838 1.362 . S
H1840 C1846 0.930 . S
H1841 C1849 0.930 . S
H1842 C1850 0.930 . S
H1843 C1851 0.930 . S
H1844 C1854 0.930 . S
H1845 C1855 0.930 . S
C1846 H1840 0.930 . S
C1846 C1847 1.355 . S
C1846 C1848 1.415 . S
C1847 C1846 1.355 . S
C1847 C1849 1.419 . S
C1848 C1846 1.415 . S
C1848 C1853 1.425 . S
C1848 C1855 1.409 . S
C1849 H1841 0.930 . S
C1849 C1847 1.419 . S
C1849 C1850 1.362 . S
C1850 H1842 0.930 . S
C1850 C1849 1.362 . S
C1850 C1853 1.409 . S
C1851 H1843 0.930 . S
C1851 C1852 1.355 . S
C1851 C1853 1.415 . S
C1852 C1851 1.355 . S
C1852 C1854 1.419 . S
C1853 C1848 1.425 . S
C1853 C1850 1.409 . S
C1853 C1851 1.415 . S
C1854 H1844 0.930 . S
C1854 C1852 1.419 . S
C1854 C1855 1.362 . S
C1855 H1845 0.930 . S
C1855 C1848 1.409 . S
C1855 C1854 1.362 . S
H1856 C1862 0.930 . S
H1857 C1865 0.930 . S
H1858 C1866 0.930 . S
H1859 C1867 0.930 . S
H1860 C1870 0.930 . S
H1861 C1871 0.930 . S
C1862 H1856 0.930 . S
C1862 C1863 1.355 . S
C1862 C1864 1.415 . S
C1863 C1862 1.355 . S
C1863 C1865 1.419 . S
C1864 C1862 1.415 . S
C1864 C1869 1.425 . S
C1864 C1871 1.409 . S
C1865 H1857 0.930 . S
C1865 C1863 1.419 . S
C1865 C1866 1.362 . S
C1866 H1858 0.930 . S
C1866 C1865 1.362 . S
C1866 C1869 1.409 . S
C1867 H1859 0.930 . S
C1867 C1868 1.355 . S
C1867 C1869 1.415 . S
C1868 C1867 1.355 . S
C1868 C1870 1.419 . S
C1869 C1864 1.425 . S
C1869 C1866 1.409 . S
C1869 C1867 1.415 . S
C1870 H1860 0.930 . S
C1870 C1868 1.419 . S
C1870 C1871 1.362 . S
C1871 H1861 0.930 . S
C1871 C1864 1.409 . S
C1871 C1870 1.362 . S
H1872 C1878 0.930 . S
H1873 C1881 0.930 . S
H1874 C1882 0.930 . S
H1875 C1883 0.930 . S
H1876 C1886 0.930 . S
H1877 C1887 0.930 . S
C1878 H1872 0.930 . S
C1878 C1879 1.355 . S
C1878 C1880 1.415 . S
C1879 C1878 1.355 . S
C1879 C1881 1.419 . S
C1880 C1878 1.415 . S
C1880 C1885 1.425 . S
C1880 C1887 1.409 . S
C1881 H1873 0.930 . S
C1881 C1879 1.419 . S
C1881 C1882 1.362 . S
C1882 H1874 0.930 . S
C1882 C1881 1.362 . S
C1882 C1885 1.409 . S
C1883 H1875 0.930 . S
C1883 C1884 1.355 . S
C1883 C1885 1.415 . S
C1884 C1883 1.355 . S
C1884 C1886 1.419 . S
C1885 C1880 1.425 . S
C1885 C1882 1.409 . S
C1885 C1883 1.415 . S
C1886 H1876 0.930 . S
C1886 C1884 1.419 . S
C1886 C1887 1.362 . S
C1887 H1877 0.930 . S
C1887 C1880 1.409 . S
C1887 C1886 1.362 . S
H1888 C1894 0.930 . S
H1889 C1897 0.930 . S
H1890 C1898 0.930 . S
H1891 C1899 0.930 . S
H1892 C1902 0.930 . S
H1893 C1903 0.930 . S
C1894 H1888 0.930 . S
C1894 C1895 1.355 . S
C1894 C1896 1.415 . S
C1895 C1894 1.355 . S
C1895 C1897 1.419 . S
C1896 C1894 1.415 . S
C1896 C1901 1.425 . S
C1896 C1903 1.409 . S
C1897 H1889 0.930 . S
C1897 C1895 1.419 . S
C1897 C1898 1.362 . S
C1898 H1890 0.930 . S
C1898 C1897 1.362 . S
C1898 C1901 1.409 . S
C1899 H1891 0.930 . S
C1899 C1900 1.355 . S
C1899 C1901 1.415 . S
C1900 C1899 1.355 . S
C1900 C1902 1.419 . S
C1901 C1896 1.425 . S
C1901 C1898 1.409 . S
C1901 C1899 1.415 . S
C1902 H1892 0.930 . S
C1902 C1900 1.419 . S
C1902 C1903 1.362 . S
C1903 H1893 0.930 . S
C1903 C1896 1.409 . S
C1903 C1902 1.362 . S
H1904 C1910 0.930 . S
H1905 C1913 0.930 . S
H1906 C1914 0.930 . S
H1907 C1915 0.930 . S
H1908 C1918 0.930 . S
H1909 C1919 0.930 . S
C1910 H1904 0.930 . S
C1910 C1911 1.355 . S
C1910 C1912 1.415 . S
C1911 C1910 1.355 . S
C1911 C1913 1.419 . S
C1912 C1910 1.415 . S
C1912 C1917 1.425 . S
C1912 C1919 1.409 . S
C1913 H1905 0.930 . S
C1913 C1911 1.419 . S
C1913 C1914 1.362 . S
C1914 H1906 0.930 . S
C1914 C1913 1.362 . S
C1914 C1917 1.409 . S
C1915 H1907 0.930 . S
C1915 C1916 1.355 . S
C1915 C1917 1.415 . S
C1916 C1915 1.355 . S
C1916 C1918 1.419 . S
C1917 C1912 1.425 . S
C1917 C1914 1.409 . S
C1917 C1915 1.415 . S
C1918 H1908 0.930 . S
C1918 C1916 1.419 . S
C1918 C1919 1.362 . S
C1919 H1909 0.930 . S
C1919 C1912 1.409 . S
C1919 C1918 1.362 . S
H1920 C1926 0.930 . S
H1921 C1929 0.930 . S
H1922 C1930 0.930 . S
H1923 C1931 0.930 . S
H1924 C1934 0.930 . S
H1925 C1935 0.930 . S
C1926 H1920 0.930 . S
C1926 C1927 1.355 . S
C1926 C1928 1.415 . S
C1927 C1926 1.355 . S
C1927 C1929 1.419 . S
C1928 C1926 1.415 . S
C1928 C1933 1.425 . S
C1928 C1935 1.409 . S
C1929 H1921 0.930 . S
C1929 C1927 1.419 . S
C1929 C1930 1.362 . S
C1930 H1922 0.930 . S
C1930 C1929 1.362 . S
C1930 C1933 1.409 . S
C1931 H1923 0.930 . S
C1931 C1932 1.355 . S
C1931 C1933 1.415 . S
C1932 C1931 1.355 . S
C1932 C1934 1.419 . S
C1933 C1928 1.425 . S
C1933 C1930 1.409 . S
C1933 C1931 1.415 . S
C1934 H1924 0.930 . S
C1934 C1932 1.419 . S
C1934 C1935 1.362 . S
C1935 H1925 0.930 . S
C1935 C1928 1.409 . S
C1935 C1934 1.362 . S
H1936 C1942 0.930 . S
H1937 C1945 0.930 . S
H1938 C1946 0.930 . S
H1939 C1947 0.930 . S
H1940 C1950 0.930 . S
H1941 C1951 0.930 . S
C1942 H1936 0.930 . S
C1942 C1943 1.355 . S
C1942 C1944 1.415 . S
C1943 C1942 1.355 . S
C1943 C1945 1.419 . S
C1944 C1942 1.415 . S
C1944 C1949 1.425 . S
C1944 C1951 1.409 . S
C1945 H1937 0.930 . S
C1945 C1943 1.419 . S
C1945 C1946 1.362 . S
C1946 H1938 0.930 . S
C1946 C1945 1.362 . S
C1946 C1949 1.409 . S
C1947 H1939 0.930 . S
C1947 C1948 1.355 . S
C1947 C1949 1.415 . S
C1948 C1947 1.355 . S
C1948 C1950 1.419 . S
C1949 C1944 1.425 . S
C1949 C1946 1.409 . S
C1949 C1947 1.415 . S
C1950 H1940 0.930 . S
C1950 C1948 1.419 . S
C1950 C1951 1.362 . S
C1951 H1941 0.930 . S
C1951 C1944 1.409 . S
C1951 C1950 1.362 . S
H1952 C1958 0.930 . S
H1953 C1961 0.930 . S
H1954 C1962 0.930 . S
H1955 C1963 0.930 . S
H1956 C1966 0.930 . S
H1957 C1967 0.930 . S
C1958 H1952 0.930 . S
C1958 C1959 1.355 . S
C1958 C1960 1.415 . S
C1959 C1958 1.355 . S
C1959 C1961 1.419 . S
C1960 C1958 1.415 . S
C1960 C1965 1.425 . S
C1960 C1967 1.409 . S
C1961 H1953 0.930 . S
C1961 C1959 1.419 . S
C1961 C1962 1.362 . S
C1962 H1954 0.930 . S
C1962 C1961 1.362 . S
C1962 C1965 1.409 . S
C1963 H1955 0.930 . S
C1963 C1964 1.355 . S
C1963 C1965 1.415 . S
C1964 C1963 1.355 . S
C1964 C1966 1.419 . S
C1965 C1960 1.425 . S
C1965 C1962 1.409 . S
C1965 C1963 1.415 . S
C1966 H1956 0.930 . S
C1966 C1964 1.419 . S
C1966 C1967 1.362 . S
C1967 H1957 0.930 . S
C1967 C1960 1.409 . S
C1967 C1966 1.362 . S
H1968 C1974 0.930 . S
H1969 C1977 0.930 . S
H1970 C1978 0.930 . S
H1971 C1979 0.930 . S
H1972 C1982 0.930 . S
H1973 C1983 0.930 . S
C1974 H1968 0.930 . S
C1974 C1975 1.355 . S
C1974 C1976 1.415 . S
C1975 C1974 1.355 . S
C1975 C1977 1.419 . S
C1976 C1974 1.415 . S
C1976 C1981 1.425 . S
C1976 C1983 1.409 . S
C1977 H1969 0.930 . S
C1977 C1975 1.419 . S
C1977 C1978 1.362 . S
C1978 H1970 0.930 . S
C1978 C1977 1.362 . S
C1978 C1981 1.409 . S
C1979 H1971 0.930 . S
C1979 C1980 1.355 . S
C1979 C1981 1.415 . S
C1980 C1979 1.355 . S
C1980 C1982 1.419 . S
C1981 C1976 1.425 . S
C1981 C1978 1.409 . S
C1981 C1979 1.415 . S
C1982 H1972 0.930 . S
C1982 C1980 1.419 . S
C1982 C1983 1.362 . S
C1983 H1973 0.930 . S
C1983 C1976 1.409 . S
C1983 C1982 1.362 . S
H1984 C1990 0.930 . S
H1985 C1993 0.930 . S
H1986 C1994 0.930 . S
H1987 C1995 0.930 . S
H1988 C1998 0.930 . S
H1989 C1999 0.930 . S
C1990 H1984 0.930 . S
C1990 C1991 1.355 . S
C1990 C1992 1.415 . S
C1991 C1990 1.355 . S
C1991 C1993 1.419 . S
C1992 C1990 1.415 . S
C1992 C1997 1.425 . S
C1992 C1999 1.409 . S
C1993 H1985 0.930 . S
C1993 C1991 1.419 . S
C1993 C1994 1.362 . S
C1994 H1986 0.930 . S
C1994 C1993 1.362 . S
C1994 C1997 1.409 . S
C1995 H1987 0.930 . S
C1995 C1996 1.355 . S
C1995 C1997 1.415 . S
C1996 C1995 1.355 . S
C1996 C1998 1.419 . S
C1997 C1992 1.425 . S
C1997 C1994 1.409 . S
C1997 C1995 1.415 . S
C1998 H1988 0.930 . S
C1998 C1996 1.419 . S
C1998 C1999 1.362 . S
C1999 H1989 0.930 . S
C1999 C1992 1.409 . S
C1999 C1998 1.362 . S
H2000 C2006 0.930 . S
H2001 C2009 0.930 . S
H2002 C2010 0.930 . S
H2003 C2011 0.930 . S
H2004 C2014 0.930 . S
H2005 C2015 0.930 . S
C2006 H2000 0.930 . S
C2006 C2007 1.355 . S
C2006 C2008 1.415 . S
C2007 C2006 1.355 . S
C2007 C2009 1.419 . S
C2008 C2006 1.415 . S
C2008 C2013 1.425 . S
C2008 C2015 1.409 . S
C2009 H2001 0.930 . S
C2009 C2007 1.419 . S
C2009 C2010 1.362 . S
C2010 H2002 0.930 . S
C2010 C2009 1.362 . S
C2010 C2013 1.409 . S
C2011 H2003 0.930 . S
C2011 C2012 1.355 . S
C2011 C2013 1.415 . S
C2012 C2011 1.355 . S
C2012 C2014 1.419 . S
C2013 C2008 1.425 . S
C2013 C2010 1.409 . S
C2013 C2011 1.415 . S
C2014 H2004 0.930 . S
C2014 C2012 1.419 . S
C2014 C2015 1.362 . S
C2015 H2005 0.930 . S
C2015 C2008 1.409 . S
C2015 C2014 1.362 . S
H2016 C2022 0.930 . S
H2017 C2025 0.930 . S
H2018 C2026 0.930 . S
H2019 C2027 0.930 . S
H2020 C2030 0.930 . S
H2021 C2031 0.930 . S
C2022 H2016 0.930 . S
C2022 C2023 1.355 . S
C2022 C2024 1.415 . S
C2023 C2022 1.355 . S
C2023 C2025 1.419 . S
C2024 C2022 1.415 . S
C2024 C2029 1.425 . S
C2024 C2031 1.409 . S
C2025 H2017 0.930 . S
C2025 C2023 1.419 . S
C2025 C2026 1.362 . S
C2026 H2018 0.930 . S
C2026 C2025 1.362 . S
C2026 C2029 1.409 . S
C2027 H2019 0.930 . S
C2027 C2028 1.355 . S
C2027 C2029 1.415 . S
C2028 C2027 1.355 . S
C2028 C2030 1.419 . S
C2029 C2024 1.425 . S
C2029 C2026 1.409 . S
C2029 C2027 1.415 . S
C2030 H2020 0.930 . S
C2030 C2028 1.419 . S
C2030 C2031 1.362 . S
C2031 H2021 0.930 . S
C2031 C2024 1.409 . S
C2031 C2030 1.362 . S
H2032 C2038 0.930 . S
H2033 C2041 0.930 . S
H2034 C2042 0.930 . S
H2035 C2043 0.930 . S
H2036 C2046 0.930 . S
H2037 C2047 0.930 . S
C2038 H2032 0.930 . S
C2038 C2039 1.355 . S
C2038 C2040 1.415 . S
C2039 C2038 1.355 . S
C2039 C2041 1.419 . S
C2040 C2038 1.415 . S
C2040 C2045 1.425 . S
C2040 C2047 1.409 . S
C2041 H2033 0.930 . S
C2041 C2039 1.419 . S
C2041 C2042 1.362 . S
C2042 H2034 0.930 . S
C2042 C2041 1.362 . S
C2042 C2045 1.409 . S
C2043 H2035 0.930 . S
C2043 C2044 1.355 . S
C2043 C2045 1.415 . S
C2044 C2043 1.355 . S
C2044 C2046 1.419 . S
C2045 C2040 1.425 . S
C2045 C2042 1.409 . S
C2045 C2043 1.415 . S
C2046 H2036 0.930 . S
C2046 C2044 1.419 . S
C2046 C2047 1.362 . S
C2047 H2037 0.930 . S
C2047 C2040 1.409 . S
C2047 C2046 1.362 . S
H2048 C2054 0.930 . S
H2049 C2057 0.930 . S
H2050 C2058 0.930 . S
H2051 C2059 0.930 . S
H2052 C2062 0.930 . S
H2053 C2063 0.930 . S
C2054 H2048 0.930 . S
C2054 C2055 1.355 . S
C2054 C2056 1.415 . S
C2055 C2054 1.355 . S
C2055 C2057 1.419 . S
C2056 C2054 1.415 . S
C2056 C2061 1.425 . S
C2056 C2063 1.409 . S
C2057 H2049 0.930 . S
C2057 C2055 1.419 . S
C2057 C2058 1.362 . S
C2058 H2050 0.930 . S
C2058 C2057 1.362 . S
C2058 C2061 1.409 . S
C2059 H2051 0.930 . S
C2059 C2060 1.355 . S
C2059 C2061 1.415 . S
C2060 C2059 1.355 . S
C2060 C2062 1.419 . S
C2061 C2056 1.425 . S
C2061 C2058 1.409 . S
C2061 C2059 1.415 . S
C2062 H2052 0.930 . S
C2062 C2060 1.419 . S
C2062 C2063 1.362 . S
C2063 H2053 0.930 . S
C2063 C2056 1.409 . S
C2063 C2062 1.362 . S
H2064 C2070 0.930 . S
H2065 C2073 0.930 . S
H2066 C2074 0.930 . S
H2067 C2075 0.930 . S
H2068 C2078 0.930 . S
H2069 C2079 0.930 . S
C2070 H2064 0.930 . S
C2070 C2071 1.355 . S
C2070 C2072 1.415 . S
C2071 C2070 1.355 . S
C2071 C2073 1.419 . S
C2072 C2070 1.415 . S
C2072 C2077 1.425 . S
C2072 C2079 1.409 . S
C2073 H2065 0.930 . S
C2073 C2071 1.419 . S
C2073 C2074 1.362 . S
C2074 H2066 0.930 . S
C2074 C2073 1.362 . S
C2074 C2077 1.409 . S
C2075 H2067 0.930 . S
C2075 C2076 1.355 . S
C2075 C2077 1.415 . S
C2076 C2075 1.355 . S
C2076 C2078 1.419 . S
C2077 C2072 1.425 . S
C2077 C2074 1.409 . S
C2077 C2075 1.415 . S
C2078 H2068 0.930 . S
C2078 C2076 1.419 . S
C2078 C2079 1.362 . S
C2079 H2069 0.930 . S
C2079 C2072 1.409 . S
C2079 C2078 1.362 . S
H2080 C2086 0.930 . S
H2081 C2089 0.930 . S
H2082 C2090 0.930 . S
H2083 C2091 0.930 . S
H2084 C2094 0.930 . S
H2085 C2095 0.930 . S
C2086 H2080 0.930 . S
C2086 C2087 1.355 . S
C2086 C2088 1.415 . S
C2087 C2086 1.355 . S
C2087 C2089 1.419 . S
C2088 C2086 1.415 . S
C2088 C2093 1.425 . S
C2088 C2095 1.409 . S
C2089 H2081 0.930 . S
C2089 C2087 1.419 . S
C2089 C2090 1.362 . S
C2090 H2082 0.930 . S
C2090 C2089 1.362 . S
C2090 C2093 1.409 . S
C2091 H2083 0.930 . S
C2091 C2092 1.355 . S
C2091 C2093 1.415 . S
C2092 C2091 1.355 . S
C2092 C2094 1.419 . S
C2093 C2088 1.425 . S
C2093 C2090 1.409 . S
C2093 C2091 1.415 . S
C2094 H2084 0.930 . S
C2094 C2092 1.419 . S
C2094 C2095 1.362 . S
C2095 H2085 0.930 . S
C2095 C2088 1.409 . S
C2095 C2094 1.362 . S
H2096 C2102 0.930 . S
H2097 C2105 0.930 1_545 S
H2098 C2106 0.930 . S
H2099 C2107 0.930 . S
H2100 C2110 0.930 . S
H2101 C2111 0.930 . S
C2102 H2096 0.930 . S
C2102 C2103 1.355 . S
C2102 C2104 1.415 . S
C2103 C2102 1.355 . S
C2103 C2105 1.419 . S
C2104 C2102 1.415 . S
C2104 C2109 1.425 . S
C2104 C2111 1.409 . S
C2105 H2097 0.930 1_565 S
C2105 C2103 1.419 . S
C2105 C2106 1.362 . S
C2106 H2098 0.930 . S
C2106 C2105 1.362 . S
C2106 C2109 1.409 . S
C2107 H2099 0.930 . S
C2107 C2108 1.355 . S
C2107 C2109 1.415 . S
C2108 C2107 1.355 . S
C2108 C2110 1.419 . S
C2109 C2104 1.425 . S
C2109 C2106 1.409 . S
C2109 C2107 1.415 . S
C2110 H2100 0.930 . S
C2110 C2108 1.419 . S
C2110 C2111 1.362 . S
C2111 H2101 0.930 . S
C2111 C2104 1.409 . S
C2111 C2110 1.362 . S
H2112 C2118 0.930 . S
H2113 C2121 0.930 . S
H2114 C2122 0.930 . S
H2115 C2123 0.930 . S
H2116 C2126 0.930 . S
H2117 C2127 0.930 . S
C2118 H2112 0.930 . S
C2118 C2119 1.355 . S
C2118 C2120 1.415 . S
C2119 C2118 1.355 . S
C2119 C2121 1.419 . S
C2120 C2118 1.415 . S
C2120 C2125 1.425 . S
C2120 C2127 1.409 . S
C2121 H2113 0.930 . S
C2121 C2119 1.419 . S
C2121 C2122 1.362 . S
C2122 H2114 0.930 . S
C2122 C2121 1.362 . S
C2122 C2125 1.409 . S
C2123 H2115 0.930 . S
C2123 C2124 1.355 . S
C2123 C2125 1.415 . S
C2124 C2123 1.355 . S
C2124 C2126 1.419 . S
C2125 C2120 1.425 . S
C2125 C2122 1.409 . S
C2125 C2123 1.415 . S
C2126 H2116 0.930 . S
C2126 C2124 1.419 . S
C2126 C2127 1.362 . S
C2127 H2117 0.930 . S
C2127 C2120 1.409 . S
C2127 C2126 1.362 . S
H2128 C2134 0.930 . S
H2129 C2137 0.930 . S
H2130 C2138 0.930 . S
H2131 C2139 0.930 . S
H2132 C2142 0.930 . S
H2133 C2143 0.930 . S
C2134 H2128 0.930 . S
C2134 C2135 1.355 . S
C2134 C2136 1.415 . S
C2135 C2134 1.355 . S
C2135 C2137 1.419 . S
C2136 C2134 1.415 . S
C2136 C2141 1.425 . S
C2136 C2143 1.409 . S
C2137 H2129 0.930 . S
C2137 C2135 1.419 . S
C2137 C2138 1.362 . S
C2138 H2130 0.930 . S
C2138 C2137 1.362 . S
C2138 C2141 1.409 . S
C2139 H2131 0.930 . S
C2139 C2140 1.355 . S
C2139 C2141 1.415 . S
C2140 C2139 1.355 . S
C2140 C2142 1.419 . S
C2141 C2136 1.425 . S
C2141 C2138 1.409 . S
C2141 C2139 1.415 . S
C2142 H2132 0.930 . S
C2142 C2140 1.419 . S
C2142 C2143 1.362 . S
C2143 H2133 0.930 . S
C2143 C2136 1.409 . S
C2143 C2142 1.362 . S
H2144 C2150 0.930 . S
H2145 C2153 0.930 . S
H2146 C2154 0.930 . S
H2147 C2155 0.930 . S
H2148 C2158 0.930 . S
H2149 C2159 0.930 . S
C2150 H2144 0.930 . S
C2150 C2151 1.355 . S
C2150 C2152 1.415 . S
C2151 C2150 1.355 . S
C2151 C2153 1.419 . S
C2152 C2150 1.415 . S
C2152 C2157 1.425 . S
C2152 C2159 1.409 . S
C2153 H2145 0.930 . S
C2153 C2151 1.419 . S
C2153 C2154 1.362 . S
C2154 H2146 0.930 . S
C2154 C2153 1.362 . S
C2154 C2157 1.409 . S
C2155 H2147 0.930 . S
C2155 C2156 1.355 . S
C2155 C2157 1.415 . S
C2156 C2155 1.355 . S
C2156 C2158 1.419 . S
C2157 C2152 1.425 . S
C2157 C2154 1.409 . S
C2157 C2155 1.415 . S
C2158 H2148 0.930 . S
C2158 C2156 1.419 . S
C2158 C2159 1.362 . S
C2159 H2149 0.930 . S
C2159 C2152 1.409 . S
C2159 C2158 1.362 . S
H2160 C2166 0.930 . S
H2161 C2169 0.930 . S
H2162 C2170 0.930 . S
H2163 C2171 0.930 . S
H2164 C2174 0.930 . S
H2165 C2175 0.930 . S
C2166 H2160 0.930 . S
C2166 C2167 1.355 . S
C2166 C2168 1.415 . S
C2167 C2166 1.355 . S
C2167 C2169 1.419 . S
C2168 C2166 1.415 . S
C2168 C2173 1.425 . S
C2168 C2175 1.409 . S
C2169 H2161 0.930 . S
C2169 C2167 1.419 . S
C2169 C2170 1.362 . S
C2170 H2162 0.930 . S
C2170 C2169 1.362 . S
C2170 C2173 1.409 . S
C2171 H2163 0.930 . S
C2171 C2172 1.355 . S
C2171 C2173 1.415 . S
C2172 C2171 1.355 . S
C2172 C2174 1.419 . S
C2173 C2168 1.425 . S
C2173 C2170 1.409 . S
C2173 C2171 1.415 . S
C2174 H2164 0.930 . S
C2174 C2172 1.419 . S
C2174 C2175 1.362 . S
C2175 H2165 0.930 . S
C2175 C2168 1.409 . S
C2175 C2174 1.362 . S
H2176 C2182 0.930 . S
H2177 C2185 0.930 . S
H2178 C2186 0.930 . S
H2179 C2187 0.930 . S
H2180 C2190 0.930 1_565 S
H2181 C2191 0.930 1_565 S
C2182 H2176 0.930 . S
C2182 C2183 1.355 . S
C2182 C2184 1.415 . S
C2183 C2182 1.355 . S
C2183 C2185 1.419 . S
C2184 C2182 1.415 . S
C2184 C2189 1.425 . S
C2184 C2191 1.409 . S
C2185 H2177 0.930 . S
C2185 C2183 1.419 . S
C2185 C2186 1.362 . S
C2186 H2178 0.930 . S
C2186 C2185 1.362 . S
C2186 C2189 1.409 . S
C2187 H2179 0.930 . S
C2187 C2188 1.355 . S
C2187 C2189 1.415 . S
C2188 C2187 1.355 . S
C2188 C2190 1.419 . S
C2189 C2184 1.425 . S
C2189 C2186 1.409 . S
C2189 C2187 1.415 . S
C2190 H2180 0.930 1_545 S
C2190 C2188 1.419 . S
C2190 C2191 1.362 . S
C2191 H2181 0.930 1_545 S
C2191 C2184 1.409 . S
C2191 C2190 1.362 . S
H2192 C2198 0.930 . S
H2193 C2201 0.930 . S
H2194 C2202 0.930 . S
H2195 C2203 0.930 . S
H2196 C2206 0.930 . S
H2197 C2207 0.930 . S
C2198 H2192 0.930 . S
C2198 C2199 1.355 . S
C2198 C2200 1.415 . S
C2199 C2198 1.355 . S
C2199 C2201 1.419 . S
C2200 C2198 1.415 . S
C2200 C2205 1.425 . S
C2200 C2207 1.409 . S
C2201 H2193 0.930 . S
C2201 C2199 1.419 . S
C2201 C2202 1.362 . S
C2202 H2194 0.930 . S
C2202 C2201 1.362 . S
C2202 C2205 1.409 . S
C2203 H2195 0.930 . S
C2203 C2204 1.355 . S
C2203 C2205 1.415 . S
C2204 C2203 1.355 . S
C2204 C2206 1.419 . S
C2205 C2200 1.425 . S
C2205 C2202 1.409 . S
C2205 C2203 1.415 . S
C2206 H2196 0.930 . S
C2206 C2204 1.419 . S
C2206 C2207 1.362 . S
C2207 H2197 0.930 . S
C2207 C2200 1.409 . S
C2207 C2206 1.362 . S
H2208 C2214 0.930 . S
H2209 C2217 0.930 . S
H2210 C2218 0.930 . S
H2211 C2219 0.930 . S
H2212 C2222 0.930 . S
H2213 C2223 0.930 . S
C2214 H2208 0.930 . S
C2214 C2215 1.355 . S
C2214 C2216 1.415 . S
C2215 C2214 1.355 . S
C2215 C2217 1.419 . S
C2216 C2214 1.415 . S
C2216 C2221 1.425 . S
C2216 C2223 1.409 . S
C2217 H2209 0.930 . S
C2217 C2215 1.419 . S
C2217 C2218 1.362 . S
C2218 H2210 0.930 . S
C2218 C2217 1.362 . S
C2218 C2221 1.409 . S
C2219 H2211 0.930 . S
C2219 C2220 1.355 . S
C2219 C2221 1.415 . S
C2220 C2219 1.355 . S
C2220 C2222 1.419 . S
C2221 C2216 1.425 . S
C2221 C2218 1.409 . S
C2221 C2219 1.415 . S
C2222 H2212 0.930 . S
C2222 C2220 1.419 . S
C2222 C2223 1.362 . S
C2223 H2213 0.930 . S
C2223 C2216 1.409 . S
C2223 C2222 1.362 . S
H2224 C2230 0.930 . S
H2225 C2233 0.930 . S
H2226 C2234 0.930 . S
H2227 C2235 0.930 . S
H2228 C2238 0.930 . S
H2229 C2239 0.930 . S
C2230 H2224 0.930 . S
C2230 C2231 1.355 . S
C2230 C2232 1.415 . S
C2231 C2230 1.355 . S
C2231 C2233 1.419 . S
C2232 C2230 1.415 . S
C2232 C2237 1.425 . S
C2232 C2239 1.409 . S
C2233 H2225 0.930 . S
C2233 C2231 1.419 . S
C2233 C2234 1.362 . S
C2234 H2226 0.930 . S
C2234 C2233 1.362 . S
C2234 C2237 1.409 . S
C2235 H2227 0.930 . S
C2235 C2236 1.355 . S
C2235 C2237 1.415 . S
C2236 C2235 1.355 . S
C2236 C2238 1.419 . S
C2237 C2232 1.425 . S
C2237 C2234 1.409 . S
C2237 C2235 1.415 . S
C2238 H2228 0.930 . S
C2238 C2236 1.419 . S
C2238 C2239 1.362 . S
C2239 H2229 0.930 . S
C2239 C2232 1.409 . S
C2239 C2238 1.362 . S
H2240 C2246 0.930 . S
H2241 C2249 0.930 . S
H2242 C2250 0.930 . S
H2243 C2251 0.930 . S
H2244 C2254 0.930 . S
H2245 C2255 0.930 . S
C2246 H2240 0.930 . S
C2246 C2247 1.355 . S
C2246 C2248 1.415 . S
C2247 C2246 1.355 . S
C2247 C2249 1.419 . S
C2248 C2246 1.415 . S
C2248 C2253 1.425 . S
C2248 C2255 1.409 . S
C2249 H2241 0.930 . S
C2249 C2247 1.419 . S
C2249 C2250 1.362 . S
C2250 H2242 0.930 . S
C2250 C2249 1.362 . S
C2250 C2253 1.409 . S
C2251 H2243 0.930 . S
C2251 C2252 1.355 . S
C2251 C2253 1.415 . S
C2252 C2251 1.355 . S
C2252 C2254 1.419 . S
C2253 C2248 1.425 . S
C2253 C2250 1.409 . S
C2253 C2251 1.415 . S
C2254 H2244 0.930 . S
C2254 C2252 1.419 . S
C2254 C2255 1.362 . S
C2255 H2245 0.930 . S
C2255 C2248 1.409 . S
C2255 C2254 1.362 . S
H2256 C2262 0.930 . S
H2257 C2265 0.930 . S
H2258 C2266 0.930 . S
H2259 C2267 0.930 . S
H2260 C2270 0.930 . S
H2261 C2271 0.930 . S
C2262 H2256 0.930 . S
C2262 C2263 1.355 . S
C2262 C2264 1.415 . S
C2263 C2262 1.355 . S
C2263 C2265 1.419 . S
C2264 C2262 1.415 . S
C2264 C2269 1.425 . S
C2264 C2271 1.409 . S
C2265 H2257 0.930 . S
C2265 C2263 1.419 . S
C2265 C2266 1.362 . S
C2266 H2258 0.930 . S
C2266 C2265 1.362 . S
C2266 C2269 1.409 . S
C2267 H2259 0.930 . S
C2267 C2268 1.355 . S
C2267 C2269 1.415 . S
C2268 C2267 1.355 . S
C2268 C2270 1.419 . S
C2269 C2264 1.425 . S
C2269 C2266 1.409 . S
C2269 C2267 1.415 . S
C2270 H2260 0.930 . S
C2270 C2268 1.419 . S
C2270 C2271 1.362 . S
C2271 H2261 0.930 . S
C2271 C2264 1.409 . S
C2271 C2270 1.362 . S
H2272 C2278 0.930 . S
H2273 C2281 0.930 . S
H2274 C2282 0.930 . S
H2275 C2283 0.930 . S
H2276 C2286 0.930 . S
H2277 C2287 0.930 . S
C2278 H2272 0.930 . S
C2278 C2279 1.355 . S
C2278 C2280 1.415 . S
C2279 C2278 1.355 . S
C2279 C2281 1.419 . S
C2280 C2278 1.415 . S
C2280 C2285 1.425 . S
C2280 C2287 1.409 . S
C2281 H2273 0.930 . S
C2281 C2279 1.419 . S
C2281 C2282 1.362 . S
C2282 H2274 0.930 . S
C2282 C2281 1.362 . S
C2282 C2285 1.409 . S
C2283 H2275 0.930 . S
C2283 C2284 1.355 . S
C2283 C2285 1.415 . S
C2284 C2283 1.355 . S
C2284 C2286 1.419 . S
C2285 C2280 1.425 . S
C2285 C2282 1.409 . S
C2285 C2283 1.415 . S
C2286 H2276 0.930 . S
C2286 C2284 1.419 . S
C2286 C2287 1.362 . S
C2287 H2277 0.930 . S
C2287 C2280 1.409 . S
C2287 C2286 1.362 . S
H2288 C2294 0.930 . S
H2289 C2297 0.930 . S
H2290 C2298 0.930 . S
H2291 C2299 0.930 . S
H2292 C2302 0.930 . S
H2293 C2303 0.930 . S
C2294 H2288 0.930 . S
C2294 C2295 1.355 . S
C2294 C2296 1.415 . S
C2295 C2294 1.355 . S
C2295 C2297 1.419 . S
C2296 C2294 1.415 . S
C2296 C2301 1.425 . S
C2296 C2303 1.409 . S
C2297 H2289 0.930 . S
C2297 C2295 1.419 . S
C2297 C2298 1.362 . S
C2298 H2290 0.930 . S
C2298 C2297 1.362 . S
C2298 C2301 1.409 . S
C2299 H2291 0.930 . S
C2299 C2300 1.355 . S
C2299 C2301 1.415 . S
C2300 C2299 1.355 . S
C2300 C2302 1.419 . S
C2301 C2296 1.425 . S
C2301 C2298 1.409 . S
C2301 C2299 1.415 . S
C2302 H2292 0.930 . S
C2302 C2300 1.419 . S
C2302 C2303 1.362 . S
C2303 H2293 0.930 . S
C2303 C2296 1.409 . S
C2303 C2302 1.362 . S
H2304 C2310 0.930 . S
H2305 C2313 0.930 . S
H2306 C2314 0.930 . S
H2307 C2315 0.930 . S
H2308 C2318 0.930 . S
H2309 C2319 0.930 . S
C2310 H2304 0.930 . S
C2310 C2311 1.355 . S
C2310 C2312 1.415 . S
C2311 C2310 1.355 . S
C2311 C2313 1.419 . S
C2312 C2310 1.415 . S
C2312 C2317 1.425 . S
C2312 C2319 1.409 . S
C2313 H2305 0.930 . S
C2313 C2311 1.419 . S
C2313 C2314 1.362 . S
C2314 H2306 0.930 . S
C2314 C2313 1.362 . S
C2314 C2317 1.409 . S
C2315 H2307 0.930 . S
C2315 C2316 1.355 . S
C2315 C2317 1.415 . S
C2316 C2315 1.355 . S
C2316 C2318 1.419 . S
C2317 C2312 1.425 . S
C2317 C2314 1.409 . S
C2317 C2315 1.415 . S
C2318 H2308 0.930 . S
C2318 C2316 1.419 . S
C2318 C2319 1.362 . S
C2319 H2309 0.930 . S
C2319 C2312 1.409 . S
C2319 C2318 1.362 . S
H2320 C2326 0.930 . S
H2321 C2329 0.930 . S
H2322 C2330 0.930 . S
H2323 C2331 0.930 . S
H2324 C2334 0.930 . S
H2325 C2335 0.930 . S
C2326 H2320 0.930 . S
C2326 C2327 1.355 . S
C2326 C2328 1.415 . S
C2327 C2326 1.355 . S
C2327 C2329 1.419 . S
C2328 C2326 1.415 . S
C2328 C2333 1.425 . S
C2328 C2335 1.409 . S
C2329 H2321 0.930 . S
C2329 C2327 1.419 . S
C2329 C2330 1.362 . S
C2330 H2322 0.930 . S
C2330 C2329 1.362 . S
C2330 C2333 1.409 . S
C2331 H2323 0.930 . S
C2331 C2332 1.355 . S
C2331 C2333 1.415 . S
C2332 C2331 1.355 . S
C2332 C2334 1.419 . S
C2333 C2328 1.425 . S
C2333 C2330 1.409 . S
C2333 C2331 1.415 . S
C2334 H2324 0.930 . S
C2334 C2332 1.419 . S
C2334 C2335 1.362 . S
C2335 H2325 0.930 . S
C2335 C2328 1.409 . S
C2335 C2334 1.362 . S
C1063 N146 1.553 1_545 S
C1068 N14 1.501 1_565 S
C1079 N47 1.577 . S
C1084 N179 1.559 . S
C1095 N80 1.575 1_545 S
C1100 N212 1.562 1_565 S
C1111 N113 1.575 . S
C1116 N245 1.516 . S
C1127 N278 1.501 1_545 S
C1132 N410 1.555 1_565 S
C1143 N443 1.555 . S
C1148 N311 1.503 . S
C1159 N344 1.504 . S
C1164 N476 1.543 . S
C1175 N509 1.507 . S
C1180 N377 1.528 . S
C1191 N542 1.526 . S
C1196 N674 1.580 . S
C1207 N575 1.502 . S
C1212 N707 1.539 . S
C1223 N740 1.581 . S
C1228 N608 1.545 . S
C1239 N773 1.502 . S
C1244 N641 1.552 . S
C1255 N806 1.502 . S
C1260 N938 1.552 . S
C1271 N839 1.558 . S
C1276 N971 1.503 . S
C1287 N1004 1.507 . S
C1292 N872 1.527 . S
C1303 N905 1.557 . S
C1308 N1037 1.577 . S
C1319 C17 0.654 . S
C1324 C611 0.685 . S
C1335 C50 0.649 . S
C1340 C644 0.674 . S
C1351 C83 0.782 . S
C1356 C545 0.734 . S
C1367 C116 0.645 . S
C1372 C578 0.656 . S
C1383 C149 0.845 . S
C1388 C743 0.851 . S
C1399 C776 0.766 . S
C1404 C182 0.718 . S
C1415 C215 0.850 . S
C1420 C677 0.848 . S
C1431 C248 0.816 . S
C1436 C710 0.843 . S
C1447 C875 0.673 . S
C1452 C281 0.716 . S
C1463 C314 0.758 . S
C1468 C908 0.709 . S
C1479 C809 0.850 . S
C1484 C347 0.834 . S
C1495 C380 0.845 . S
C1500 C842 0.851 . S
C1511 C413 0.646 . S
C1516 C1007 0.655 . S
C1527 C1040 0.646 . S
C1532 C446 0.666 . S
C1543 C479 0.851 . S
C1548 C941 0.841 . S
C1559 C512 0.849 . S
C1564 C974 0.829 . S
C1575 C28 1.942 1_545 S
C1580 C470 1.784 . S
C1591 C1031 1.857 . S
C1596 C61 1.974 1_545 S
C1607 C404 1.809 . S
C1612 C94 1.944 . S
C1623 C965 1.856 . S
C1628 C127 1.973 1_565 S
C1639 C160 1.944 . S
C1644 C338 1.810 . S
C1655 C193 1.979 1_545 S
C1660 C899 1.863 . S
C1671 C226 1.986 . S
C1676 C272 1.867 . S
C1687 C833 1.807 . S
C1692 C259 1.957 1_565 S
C1703 C206 1.779 . S
C1708 C292 1.930 1_565 S
C1719 C767 1.859 . S
C1724 C325 1.975 1_565 S
C1735 C358 1.976 . S
C1740 C140 1.859 . S
C1751 C391 1.931 1_545 S
C1756 C701 1.776 . S
C1767 C424 1.978 . S
C1772 C74 1.861 . S
C1783 C635 1.837 . S
C1788 C457 1.974 1_565 S
C1799 C490 1.931 1_565 S
C1804 C8 1.776 . S
C1815 C569 1.867 . S
C1820 C523 1.984 1_545 S
C1831 C998 1.842 . S
C1836 C556 1.963 . S
C1847 C589 1.969 . S
C1852 C503 1.828 . S
C1863 C932 1.777 . S
C1868 C622 1.931 . S
C1879 C437 1.862 . S
C1884 C655 1.985 . S
C1895 C688 1.937 . S
C1900 C866 1.794 . S
C1911 C371 1.865 . S
C1916 C721 1.985 . S
C1927 C800 1.782 . S
C1932 C754 1.940 . S
C1943 C787 1.932 . S
C1948 C305 1.776 . S
C1959 C820 1.942 . S
C1964 C734 1.784 . S
C1975 C239 1.861 . S
C1980 C853 1.985 . S
C1991 C886 1.943 . S
C1996 C668 1.808 . S
C2007 C173 1.859 . S
C2012 C919 1.976 . S
C2023 C952 1.984 . S
C2028 C602 1.867 . S
C2039 C985 1.943 . S
C2044 C107 1.787 . S
C2055 C536 1.778 . S
C2060 C1018 1.931 . S
C2071 C41 1.830 . S
C2076 C1051 1.971 . S
C2087 N236 1.710 . S
C2092 N5 1.700 . S
C2103 N137 1.710 . S
C2108 N38 1.700 . S
C2119 N170 1.708 . S
C2124 N71 1.700 . S
C2135 N104 1.710 . S
C2140 N203 1.700 . S
C2151 N500 1.703 . S
C2156 N269 1.710 . S
C2167 N302 1.709 . S
C2172 N401 1.705 . S
C2183 N434 1.700 . S
C2188 N335 1.708 . S
C2199 N467 1.704 . S
C2204 N368 1.710 . S
C2215 N764 1.700 . S
C2220 N533 1.711 . S
C2231 N566 1.708 . S
C2236 N665 1.706 . S
C2247 N698 1.699 . S
C2252 N599 1.710 . S
C2263 N731 1.709 . S
C2268 N632 1.699 . S
C2279 N797 1.710 . S
C2284 N1028 1.699 . S
C2295 N929 1.706 . S
C2300 N830 1.708 . S
C2311 N863 1.700 . S
C2316 N962 1.708 . S
C2327 N995 1.701 . S
C2332 N896 1.705 . S
