# Generated by pormake.
# Topology gis, (4)-cn, num edge types: 1
# Building blocks:
#     Node 0, Type 0, BuildingBlock: QUQFOY_clean_sbu_3, # of connection points: 4
#     Node 1, Type 0, BuildingBlock: QUQFOY_clean_sbu_3, # of connection points: 4
#     Node 2, Type 0, BuildingBlock: QUQFOY_clean_sbu_3, # of connection points: 4
#     Node 3, Type 0, BuildingBlock: QUQFOY_clean_sbu_3, # of connection points: 4
#     Node 4, Type 0, BuildingBlock: QUQFOY_clean_sbu_3, # of connection points: 4
#     Node 5, Type 0, BuildingBlock: QUQFOY_clean_sbu_3, # of connection points: 4
#     Node 6, Type 0, BuildingBlock: QUQFOY_clean_sbu_3, # of connection points: 4
#     Node 7, Type 0, BuildingBlock: QUQFOY_clean_sbu_3, # of connection points: 4
#     Node 8, Type 0, BuildingBlock: QUQFOY_clean_sbu_3, # of connection points: 4
#     Node 9, Type 0, BuildingBlock: QUQFOY_clean_sbu_3, # of connection points: 4
#     Node 10, Type 0, BuildingBlock: QUQFOY_clean_sbu_3, # of connection points: 4
#     Node 11, Type 0, BuildingBlock: QUQFOY_clean_sbu_3, # of connection points: 4
#     Node 12, Type 0, BuildingBlock: QUQFOY_clean_sbu_3, # of connection points: 4
#     Node 13, Type 0, BuildingBlock: QUQFOY_clean_sbu_3, # of connection points: 4
#     Node 14, Type 0, BuildingBlock: QUQFOY_clean_sbu_3, # of connection points: 4
#     Node 15, Type 0, BuildingBlock: QUQFOY_clean_sbu_3, # of connection points: 4
#     Edge 16, Type (0, 0), BuildingBlock: TEMPAE_clean_linker_10, # of connection points: 2
#     Edge 17, Type (0, 0), BuildingBlock: TEMPAE_clean_linker_10, # of connection points: 2
#     Edge 18, Type (0, 0), BuildingBlock: TEMPAE_clean_linker_10, # of connection points: 2
#     Edge 19, Type (0, 0), BuildingBlock: TEMPAE_clean_linker_10, # of connection points: 2
#     Edge 20, Type (0, 0), BuildingBlock: TEMPAE_clean_linker_10, # of connection points: 2
#     Edge 21, Type (0, 0), BuildingBlock: TEMPAE_clean_linker_10, # of connection points: 2
#     Edge 22, Type (0, 0), BuildingBlock: TEMPAE_clean_linker_10, # of connection points: 2
#     Edge 23, Type (0, 0), BuildingBlock: TEMPAE_clean_linker_10, # of connection points: 2
#     Edge 24, Type (0, 0), BuildingBlock: TEMPAE_clean_linker_10, # of connection points: 2
#     Edge 25, Type (0, 0), BuildingBlock: TEMPAE_clean_linker_10, # of connection points: 2
#     Edge 26, Type (0, 0), BuildingBlock: TEMPAE_clean_linker_10, # of connection points: 2
#     Edge 27, Type (0, 0), BuildingBlock: TEMPAE_clean_linker_10, # of connection points: 2
#     Edge 28, Type (0, 0), BuildingBlock: TEMPAE_clean_linker_10, # of connection points: 2
#     Edge 29, Type (0, 0), BuildingBlock: TEMPAE_clean_linker_10, # of connection points: 2
#     Edge 30, Type (0, 0), BuildingBlock: TEMPAE_clean_linker_10, # of connection points: 2
#     Edge 31, Type (0, 0), BuildingBlock: TEMPAE_clean_linker_10, # of connection points: 2
#     Edge 32, Type (0, 0), BuildingBlock: TEMPAE_clean_linker_10, # of connection points: 2
#     Edge 33, Type (0, 0), BuildingBlock: TEMPAE_clean_linker_10, # of connection points: 2
#     Edge 34, Type (0, 0), BuildingBlock: TEMPAE_clean_linker_10, # of connection points: 2
#     Edge 35, Type (0, 0), BuildingBlock: TEMPAE_clean_linker_10, # of connection points: 2
#     Edge 36, Type (0, 0), BuildingBlock: TEMPAE_clean_linker_10, # of connection points: 2
#     Edge 37, Type (0, 0), BuildingBlock: TEMPAE_clean_linker_10, # of connection points: 2
#     Edge 38, Type (0, 0), BuildingBlock: TEMPAE_clean_linker_10, # of connection points: 2
#     Edge 39, Type (0, 0), BuildingBlock: TEMPAE_clean_linker_10, # of connection points: 2
#     Edge 40, Type (0, 0), BuildingBlock: TEMPAE_clean_linker_10, # of connection points: 2
#     Edge 41, Type (0, 0), BuildingBlock: TEMPAE_clean_linker_10, # of connection points: 2
#     Edge 42, Type (0, 0), BuildingBlock: TEMPAE_clean_linker_10, # of connection points: 2
#     Edge 43, Type (0, 0), BuildingBlock: TEMPAE_clean_linker_10, # of connection points: 2
#     Edge 44, Type (0, 0), BuildingBlock: TEMPAE_clean_linker_10, # of connection points: 2
#     Edge 45, Type (0, 0), BuildingBlock: TEMPAE_clean_linker_10, # of connection points: 2
#     Edge 46, Type (0, 0), BuildingBlock: TEMPAE_clean_linker_10, # of connection points: 2
#     Edge 47, Type (0, 0), BuildingBlock: TEMPAE_clean_linker_10, # of connection points: 2
# Relax obj value: 0.062
# Max RMSD: 0.132
# Mean RMSD: 0.124
data_MOF--net-gis--node1-QUQFOY_clean_sbu_3--edge1-TEMPAE_clean_linker_10
_symmetry_space_group_name_H-M    P1
_symmetry_Int_Tables_number       1
_symmetry_cell_setting            triclinic
loop_
_symmetry_equiv_pos_as_xyz
'x, y, z'
_cell_length_a     54.548168
_cell_length_b     58.053101
_cell_length_c     38.171684
_cell_angle_alpha  90.483189
_cell_angle_beta   90.602878
_cell_angle_gamma 89.828247
loop_
_atom_site_label
_atom_site_type_symbol
_atom_site_fract_x
_atom_site_fract_y
_atom_site_fract_z
_atom_type_partial_charge
C0 C 0.15416 0.5882 0.18536 0.0
O1 O 0.13555 0.59479 0.20243 0.0
Cd2 Cd 0.09904 0.60585 0.17165 0.0
O3 O 0.15279 0.58535 0.15233 0.0
Cd4 Cd 0.12306 0.58643 0.10335 0.0
C5 C 0.12489 0.6433 0.11174 0.0
O6 O 0.0848 0.57581 0.13292 0.0
O7 O 0.08163 0.59337 0.08333 0.0
O8 O 0.14114 0.54912 0.0915 0.0
C9 C 0.07117 0.58308 0.10817 0.0
O10 O 0.11244 0.63949 0.13914 0.0
C11 C 0.14191 0.55134 0.05854 0.0
O12 O 0.13262 0.62677 0.09265 0.0
O13 O 0.13397 0.57015 0.04586 0.0
C14 C 0.65053 0.85102 0.3115 0.0
O15 O 0.63184 0.8407 0.29911 0.0
Cd16 Cd 0.59562 0.83424 0.33294 0.0
O17 O 0.6504 0.85917 0.34253 0.0
Cd18 Cd 0.62248 0.86222 0.39251 0.0
C19 C 0.62228 0.80524 0.40233 0.0
O20 O 0.58299 0.86824 0.36293 0.0
O21 O 0.58185 0.85556 0.41599 0.0
O22 O 0.62966 0.90306 0.39703 0.0
C23 C 0.57035 0.86332 0.38953 0.0
O24 O 0.60727 0.80586 0.37655 0.0
C25 C 0.63797 0.90308 0.42816 0.0
O26 O 0.63353 0.82329 0.41276 0.0
O27 O 0.63998 0.88364 0.44309 0.0
C28 C 0.31486 0.34882 0.65987 0.0
O29 O 0.33382 0.33798 0.67027 0.0
Cd30 Cd 0.37048 0.33536 0.63564 0.0
O31 O 0.31442 0.35857 0.63016 0.0
Cd32 Cd 0.33972 0.36512 0.57871 0.0
C33 C 0.3458 0.30828 0.5628 0.0
O34 O 0.37638 0.37308 0.61325 0.0
O35 O 0.38103 0.37324 0.55728 0.0
O36 O 0.3158 0.40042 0.57808 0.0
C37 C 0.39047 0.37581 0.58751 0.0
O38 O 0.36067 0.30813 0.58876 0.0
C39 C 0.3142 0.40133 0.54494 0.0
O40 O 0.33397 0.32642 0.5547 0.0
O41 O 0.32393 0.385 0.52757 0.0
C42 C 0.81306 0.09704 0.81012 0.0
O43 O 0.83148 0.10635 0.7959 0.0
Cd44 Cd 0.87117 0.10908 0.8248 0.0
O45 O 0.81487 0.08853 0.84062 0.0
Cd46 Cd 0.84419 0.08246 0.88866 0.0
C47 C 0.85306 0.13955 0.89839 0.0
O48 O 0.87924 0.07289 0.85152 0.0
O49 O 0.88617 0.07484 0.9072 0.0
O50 O 0.81994 0.04774 0.89414 0.0
C51 C 0.8945 0.07145 0.87674 0.0
O52 O 0.86567 0.13801 0.87054 0.0
C53 C 0.81991 0.04807 0.92738 0.0
O54 O 0.84123 0.12234 0.90984 0.0
O55 O 0.83097 0.06462 0.94269 0.0
C56 C 0.16198 0.35521 0.80499 0.0
O57 O 0.1421 0.34707 0.7926 0.0
Cd58 Cd 0.10588 0.34229 0.82668 0.0
O59 O 0.16324 0.36237 0.83656 0.0
Cd60 Cd 0.13642 0.36641 0.88768 0.0
C61 C 0.13253 0.3094 0.892 0.0
O62 O 0.09749 0.37636 0.85923 0.0
O63 O 0.09563 0.36183 0.91097 0.0
O64 O 0.15352 0.40472 0.89544 0.0
C65 C 0.08457 0.37116 0.88541 0.0
O66 O 0.11669 0.31179 0.86751 0.0
C67 C 0.15541 0.40357 0.92853 0.0
O68 O 0.1453 0.32638 0.90304 0.0
O69 O 0.14966 0.3846 0.94261 0.0
C70 C 0.80621 0.85621 0.17219 0.0
O71 O 0.82592 0.84734 0.18405 0.0
Cd72 Cd 0.86381 0.84539 0.15189 0.0
O73 O 0.80529 0.86456 0.14149 0.0
Cd74 Cd 0.8316 0.86977 0.09052 0.0
C75 C 0.8428 0.81266 0.08259 0.0
O76 O 0.86791 0.88166 0.12401 0.0
O77 O 0.8722 0.87821 0.06809 0.0
O78 O 0.80751 0.90457 0.08184 0.0
C79 C 0.88162 0.88334 0.09756 0.0
O80 O 0.85757 0.81501 0.10843 0.0
C81 C 0.80591 0.9022 0.0488 0.0
O82 O 0.82935 0.82931 0.07235 0.0
O83 O 0.81528 0.88413 0.03546 0.0
C84 C 0.31661 0.58763 0.30973 0.0
O85 O 0.33587 0.59663 0.29754 0.0
Cd86 Cd 0.37075 0.604 0.33516 0.0
O87 O 0.3154 0.58247 0.34195 0.0
Cd88 Cd 0.33959 0.58344 0.39628 0.0
C89 C 0.34278 0.64052 0.39423 0.0
O90 O 0.37843 0.57094 0.37098 0.0
O91 O 0.38028 0.58576 0.42295 0.0
O92 O 0.31702 0.54834 0.40528 0.0
C93 C 0.39123 0.57575 0.39796 0.0
O94 O 0.3591 0.63728 0.37104 0.0
C95 C 0.31434 0.55128 0.43796 0.0
O96 O 0.33053 0.62379 0.40621 0.0
O97 O 0.32343 0.56939 0.45162 0.0
C98 C 0.64895 0.09812 0.68652 0.0
O99 O 0.63039 0.10807 0.69959 0.0
Cd100 Cd 0.59409 0.11612 0.66505 0.0
O101 O 0.6484 0.09107 0.65491 0.0
Cd102 Cd 0.62014 0.08979 0.60458 0.0
C103 C 0.62115 0.14689 0.59899 0.0
O104 O 0.57959 0.08439 0.63062 0.0
O105 O 0.58077 0.09945 0.57891 0.0
O106 O 0.62517 0.04885 0.59733 0.0
C107 C 0.56809 0.09117 0.60345 0.0
O108 O 0.60613 0.14579 0.62425 0.0
C109 C 0.63477 0.04944 0.56726 0.0
O110 O 0.63208 0.12895 0.58752 0.0
O111 O 0.63833 0.06921 0.55414 0.0
C112 C 0.81841 0.35646 0.80074 0.0
O113 O 0.83467 0.34455 0.78535 0.0
Cd114 Cd 0.86982 0.33077 0.81727 0.0
O115 O 0.82106 0.36213 0.83278 0.0
Cd116 Cd 0.84989 0.3593 0.88205 0.0
C117 C 0.84198 0.3023 0.8855 0.0
O118 O 0.88816 0.36188 0.84971 0.0
O119 O 0.89067 0.35371 0.9051 0.0
O120 O 0.84847 0.40004 0.89047 0.0
C121 C 0.90141 0.35849 0.87676 0.0
O122 O 0.85305 0.30234 0.85631 0.0
C123 C 0.83745 0.39987 0.91948 0.0
O124 O 0.83779 0.32096 0.90216 0.0
O125 O 0.83152 0.38041 0.93177 0.0
C126 C 0.32571 0.06076 0.51069 0.0
O127 O 0.32874 0.07549 0.48675 0.0
Cd128 Cd 0.34136 0.11386 0.50268 0.0
O129 O 0.32553 0.06673 0.5428 0.0
Cd130 Cd 0.32572 0.10043 0.58154 0.0
C131 C 0.38613 0.10137 0.56552 0.0
O132 O 0.31026 0.1292 0.54001 0.0
O133 O 0.32405 0.14133 0.59019 0.0
O134 O 0.28907 0.08295 0.60476 0.0
C135 C 0.31445 0.14599 0.56072 0.0
O136 O 0.38008 0.10736 0.53455 0.0
C137 C 0.29501 0.08604 0.63669 0.0
O138 O 0.37001 0.09762 0.58865 0.0
O139 O 0.31556 0.09555 0.64307 0.0
C140 C 0.64709 0.59055 0.29212 0.0
O141 O 0.62785 0.60076 0.28133 0.0
Cd142 Cd 0.5951 0.61094 0.31988 0.0
O143 O 0.64919 0.58426 0.32387 0.0
Cd144 Cd 0.62661 0.58346 0.3793 0.0
C145 C 0.62936 0.64142 0.38196 0.0
O146 O 0.58595 0.57782 0.35378 0.0
O147 O 0.58766 0.58384 0.40983 0.0
O148 O 0.63798 0.54346 0.38138 0.0
C149 C 0.57481 0.57952 0.3827 0.0
O150 O 0.61435 0.64025 0.35623 0.0
C151 C 0.6479 0.54415 0.41155 0.0
O152 O 0.63764 0.62325 0.39649 0.0
O153 O 0.64888 0.56371 0.42682 0.0
C154 C 0.14347 0.86338 0.17507 0.0
O155 O 0.12442 0.85514 0.189 0.0
Cd156 Cd 0.08779 0.84827 0.15504 0.0
O157 O 0.14349 0.8684 0.14273 0.0
Cd158 Cd 0.11595 0.868 0.09152 0.0
C159 C 0.11186 0.81094 0.09359 0.0
O160 O 0.07855 0.88138 0.12044 0.0
O161 O 0.07404 0.8656 0.06938 0.0
O162 O 0.13672 0.90397 0.08289 0.0
C163 C 0.06455 0.87656 0.09471 0.0
O164 O 0.09673 0.81487 0.11814 0.0
C165 C 0.13755 0.90257 0.04979 0.0
O166 O 0.12423 0.82719 0.08029 0.0
O167 O 0.12884 0.88446 0.0355 0.0
C168 C 0.82554 0.55889 0.01462 0.0
O169 O 0.83138 0.57379 -0.00792 0.0
Cd170 Cd 0.84925 0.60925 0.01246 0.0
O171 O 0.82558 0.56404 0.04703 0.0
Cd172 Cd 0.82987 0.59723 0.08661 0.0
C173 C 0.88998 0.5898 0.07625 0.0
O174 O 0.81999 0.62972 0.04749 0.0
O175 O 0.83639 0.63734 0.09824 0.0
O176 O 0.78933 0.58568 0.1037 0.0
C177 C 0.82691 0.64466 0.07 0.0
O178 O 0.88581 0.59732 0.04549 0.0
C179 C 0.79342 0.58686 0.13643 0.0
O180 O 0.8727 0.58762 0.09811 0.0
O181 O 0.81489 0.59259 0.14637 0.0
C182 C 0.13803 0.05929 0.9509 0.0
O183 O 0.12826 0.07478 0.96993 0.0
Cd184 Cd 0.11733 0.11253 0.94898 0.0
O185 O 0.14223 0.06293 0.91873 0.0
Cd186 Cd 0.13631 0.0937 0.87602 0.0
C187 C 0.07484 0.09557 0.88761 0.0
O188 O 0.15031 0.12582 0.91371 0.0
O189 O 0.13548 0.13434 0.86276 0.0
O190 O 0.17384 0.07778 0.85189 0.0
C191 C 0.14577 0.14106 0.89091 0.0
O192 O 0.07957 0.10706 0.91541 0.0
C193 C 0.16695 0.07937 0.82014 0.0
O194 O 0.09202 0.08681 0.86943 0.0
O195 O 0.14542 0.08693 0.81441 0.0
C196 C 0.65328 0.37053 0.68894 0.0
O197 O 0.63449 0.36293 0.70429 0.0
Cd198 Cd 0.59991 0.35013 0.67045 0.0
O199 O 0.65312 0.37322 0.65592 0.0
Cd200 Cd 0.62587 0.37012 0.60457 0.0
C201 C 0.62947 0.31313 0.61247 0.0
O202 O 0.58633 0.37919 0.63041 0.0
O203 O 0.58565 0.36127 0.58039 0.0
O204 O 0.63257 0.40982 0.59108 0.0
C205 C 0.57398 0.37173 0.60434 0.0
O206 O 0.61605 0.31674 0.63909 0.0
C207 C 0.64254 0.40647 0.56164 0.0
O208 O 0.63694 0.32979 0.59391 0.0
O209 O 0.64543 0.38567 0.55171 0.0
C210 C 0.32551 0.89276 0.44975 0.0
O211 O 0.32643 0.87756 0.47341 0.0
Cd212 Cd 0.34099 0.84006 0.45645 0.0
O213 O 0.32725 0.88728 0.41758 0.0
Cd214 Cd 0.3277 0.85386 0.37821 0.0
C215 C 0.38714 0.85502 0.39831 0.0
O216 O 0.31211 0.82338 0.4162 0.0
O217 O 0.32974 0.81333 0.3677 0.0
O218 O 0.28974 0.87017 0.35721 0.0
C219 C 0.31837 0.80748 0.39498 0.0
O220 O 0.38011 0.84857 0.42841 0.0
C221 C 0.29437 0.86768 0.3249 0.0
O222 O 0.37187 0.85837 0.37339 0.0
O223 O 0.31521 0.85935 0.31699 0.0
C224 C 0.13985 0.77876 0.07626 0.0
C225 C 0.11611 0.78682 0.08298 0.0
C226 C 0.14468 0.75499 0.07407 0.0
C227 C 0.1252 0.73919 0.07819 0.0
C228 C 0.10087 0.74745 0.08142 0.0
C229 C 0.09668 0.77118 0.08418 0.0
C230 C 0.17084 0.74687 0.07058 0.0
C231 C 0.07948 0.73122 0.08511 0.0
C232 C 0.12935 0.67426 0.067 0.0
C233 C 0.12956 0.66741 0.10213 0.0
C234 C 0.1295 0.69777 0.05834 0.0
C235 C 0.13027 0.71454 0.0855 0.0
C236 C 0.13253 0.70751 0.12083 0.0
C237 C 0.13189 0.68404 0.12869 0.0
C238 C 0.12701 0.70459 0.02042 0.0
C239 C 0.13392 0.72479 0.1506 0.0
H240 H 0.15491 0.79089 0.07535 0.0
H241 H 0.07825 0.77747 0.08889 0.0
H242 H 0.17791 0.74156 0.09667 0.0
H243 H 0.17201 0.73168 0.05285 0.0
H244 H 0.1829 0.76066 0.06056 0.0
H245 H 0.06158 0.74024 0.08222 0.0
H246 H 0.0804 0.71719 0.06527 0.0
H247 H 0.08021 0.72317 0.11137 0.0
H248 H 0.12753 0.66137 0.04644 0.0
H249 H 0.13244 0.6787 0.15585 0.0
H250 H 0.13914 0.71932 0.01448 0.0
H251 H 0.10787 0.71015 0.01509 0.0
H252 H 0.13141 0.69004 0.00244 0.0
H253 H 0.14788 0.73812 0.14519 0.0
H254 H 0.13855 0.71655 0.176 0.0
H255 H 0.11597 0.73366 0.15325 0.0
C256 C 0.42721 0.87035 0.41871 0.0
C257 C 0.41344 0.85883 0.39289 0.0
C258 C 0.45262 0.87279 0.41554 0.0
C259 C 0.4646 0.86269 0.38647 0.0
C260 C 0.45067 0.85141 0.35992 0.0
C261 C 0.42509 0.84997 0.36317 0.0
C262 C 0.46671 0.88559 0.44383 0.0
C263 C 0.46287 0.83985 0.3291 0.0
C264 C 0.53051 0.87975 0.36884 0.0
C265 C 0.5434 0.86301 0.38782 0.0
C266 C 0.50476 0.8799 0.36801 0.0
C267 C 0.49181 0.86238 0.38553 0.0
C268 C 0.50486 0.845 0.40372 0.0
C269 C 0.53051 0.84577 0.40517 0.0
C270 C 0.49144 0.89912 0.34933 0.0
C271 C 0.49174 0.82566 0.42189 0.0
H272 H 0.41805 0.87738 0.44152 0.0
H273 H 0.41434 0.84094 0.34337 0.0
H274 H 0.47828 0.87332 0.45883 0.0
H275 H 0.47914 0.89841 0.43201 0.0
H276 H 0.45439 0.89465 0.46243 0.0
H277 H 0.44935 0.83304 0.30969 0.0
H278 H 0.47516 0.85208 0.31574 0.0
H279 H 0.47441 0.82534 0.33852 0.0
H280 H 0.54057 0.89311 0.35554 0.0
H281 H 0.54055 0.83264 0.41946 0.0
H282 H 0.48024 0.90902 0.36836 0.0
H283 H 0.47868 0.89195 0.32927 0.0
H284 H 0.50423 0.91114 0.33638 0.0
H285 H 0.48087 0.83267 0.44395 0.0
H286 H 0.50464 0.8125 0.43236 0.0
H287 H 0.47875 0.81709 0.40344 0.0
C288 C 0.31667 0.28183 0.53159 0.0
C289 C 0.34021 0.28618 0.54518 0.0
C290 C 0.30922 0.2592 0.52379 0.0
C291 C 0.32578 0.2408 0.5297 0.0
C292 C 0.35047 0.24555 0.53899 0.0
C293 C 0.35734 0.26822 0.54682 0.0
C294 C 0.28296 0.25488 0.51295 0.0
C295 C 0.36895 0.22648 0.54468 0.0
C296 C 0.30775 0.18685 0.5762 0.0
C297 C 0.31145 0.17013 0.5502 0.0
C298 C 0.31005 0.21026 0.5688 0.0
C299 C 0.31656 0.21705 0.53458 0.0
C300 C 0.31808 0.20035 0.50742 0.0
C301 C 0.31542 0.17692 0.51557 0.0
C302 C 0.3077 0.22751 0.59847 0.0
C303 C 0.32456 0.20691 0.47052 0.0
H304 H 0.30342 0.29575 0.52987 0.0
H305 H 0.37574 0.27165 0.55652 0.0
H306 H 0.2816 0.24022 0.4942 0.0
H307 H 0.27216 0.25044 0.53642 0.0
H308 H 0.27454 0.27038 0.50084 0.0
H309 H 0.38799 0.23315 0.54654 0.0
H310 H 0.36477 0.21745 0.56942 0.0
H311 H 0.36795 0.21363 0.52306 0.0
H312 H 0.30427 0.18155 0.60286 0.0
H313 H 0.3182 0.16393 0.49541 0.0
H314 H 0.29581 0.24212 0.59052 0.0
H315 H 0.32605 0.23458 0.60523 0.0
H316 H 0.29995 0.21968 0.62238 0.0
H317 H 0.31655 0.22385 0.4634 0.0
H318 H 0.31817 0.19372 0.45128 0.0
H319 H 0.34478 0.20826 0.46845 0.0
C320 C 0.04189 0.07147 0.85955 0.0
C321 C 0.04891 0.09149 0.87782 0.0
C322 C 0.01697 0.06615 0.85429 0.0
C323 C -0.00119 0.08145 0.86707 0.0
C324 C 0.0059 0.10233 0.88368 0.0
C325 C 0.03083 0.10697 0.88915 0.0
C326 C 0.01012 0.04362 0.83683 0.0
C327 C -0.01287 0.11934 0.8971 0.0
C328 C 0.93155 0.07908 0.84066 0.0
C329 C 0.9212 0.07022 0.87116 0.0
C330 C 0.95707 0.08175 0.83799 0.0
C331 C 0.97245 0.07497 0.86623 0.0
C332 C 0.96211 0.0644 0.8959 0.0
C333 C 0.93658 0.06239 0.89817 0.0
C334 C 0.96736 0.09331 0.8061 0.0
C335 C 0.97788 0.05647 0.92627 0.0
H336 H 0.05582 0.05941 0.85087 0.0
H337 H 0.03619 0.1226 0.90292 0.0
H338 H 0.00227 0.0319 0.85656 0.0
H339 H -0.00413 0.04637 0.81634 0.0
H340 H 0.02618 0.03498 0.82473 0.0
H341 H -0.00437 0.1357 0.90629 0.0
H342 H 0.97347 0.12333 0.87626 0.0
H343 H 0.97707 0.11169 0.91926 0.0
H344 H 0.91966 0.08524 0.81979 0.0
H345 H 0.92859 0.05533 0.92163 0.0
H346 H -0.01639 0.08381 0.79633 0.0
H347 H 0.97345 0.11096 0.8133 0.0
H348 H 0.95358 0.09459 0.78455 0.0
H349 H -0.00642 0.04607 0.9167 0.0
H350 H 0.96739 0.04603 0.94519 0.0
H351 H -0.0145 0.07168 0.94036 0.0
C352 C 0.16098 0.27817 0.91165 0.0
C353 C 0.13706 0.286 0.90519 0.0
C354 C 0.16575 0.25455 0.91603 0.0
C355 C 0.14605 0.23872 0.91436 0.0
C356 C 0.12167 0.24696 0.91144 0.0
C357 C 0.1175 0.27049 0.90653 0.0
C358 C 0.19197 0.24644 0.91921 0.0
C359 C 0.10007 0.23073 0.91028 0.0
C360 C 0.15115 0.18089 0.86943 0.0
C361 C 0.14983 0.16579 0.89772 0.0
C362 C 0.15182 0.20474 0.87481 0.0
C363 C 0.15071 0.21371 0.90937 0.0
C364 C 0.15084 0.19852 0.9382 0.0
C365 C 0.15055 0.17462 0.93202 0.0
C366 C 0.15214 0.22032 0.84331 0.0
C367 C 0.14963 0.20745 0.97538 0.0
H368 H 0.17612 0.2902 0.91059 0.0
H369 H 0.09895 0.27665 0.90201 0.0
H370 H 0.19369 0.23227 0.9384 0.0
H371 H 0.19807 0.23965 0.89347 0.0
H372 H 0.20446 0.26066 0.92726 0.0
H373 H 0.08234 0.24001 0.91301 0.0
H374 H 0.09983 0.22127 0.88489 0.0
H375 H 0.10162 0.2178 0.93142 0.0
H376 H 0.15097 0.17405 0.8429 0.0
H377 H 0.14957 0.16293 0.95395 0.0
H378 H 0.16637 0.23379 0.84667 0.0
H379 H 0.13416 0.22918 0.84065 0.0
H380 H 0.15572 0.21068 0.81862 0.0
H381 H 0.16213 0.2223 0.97936 0.0
H382 H 0.1544 0.19389 -0.00532 0.0
H383 H 0.13073 0.21356 0.98075 0.0
C384 C 0.92109 0.87823 0.12988 0.0
C385 C 0.90818 0.88715 0.10112 0.0
C386 C 0.9468 0.87852 0.13085 0.0
C387 C 0.95971 0.88863 0.10291 0.0
C388 C 0.94661 0.89913 0.07507 0.0
C389 C 0.92095 0.89788 0.07419 0.0
C390 C 0.96011 0.86659 0.1605 0.0
C391 C 0.9597 0.91074 0.0454 0.0
C392 C 0.02809 0.89869 0.11544 0.0
C393 C 0.03786 0.8801 0.09653 0.0
C394 C 0.00261 0.90204 0.11725 0.0
C395 C -0.01328 0.88592 0.10077 0.0
C396 C -0.0034 0.86695 0.08205 0.0
C397 C 0.02207 0.8645 0.07967 0.0
C398 C -0.00729 0.92286 0.13642 0.0
C399 C 0.98028 0.84906 0.06486 0.0
H400 H 0.91115 0.86978 0.15057 0.0
H401 H 0.91087 0.90493 0.05209 0.0
H402 H 0.96958 0.85104 0.15022 0.0
H403 H 0.97434 0.87802 0.17208 0.0
H404 H 0.94747 0.86124 0.18155 0.0
H405 H 0.94695 0.92093 0.0287 0.0
H406 H 0.97427 0.92232 0.05575 0.0
H407 H 0.96869 0.89754 0.0287 0.0
H408 H 0.04037 0.91082 0.12828 0.0
H409 H 0.02965 0.84998 0.06532 0.0
H410 H -0.01889 0.91736 0.1585 0.0
H411 H 0.98089 0.93311 0.11852 0.0
H412 H 0.00755 0.93412 0.1469 0.0
H413 H 0.96776 0.84165 0.08451 0.0
H414 H -0.00908 0.83481 0.05266 0.0
H415 H 0.96871 0.85717 0.0443 0.0
C416 C 0.31345 0.67031 0.41622 0.0
C417 C 0.33712 0.66427 0.40543 0.0
C418 C 0.30695 0.6935 0.42135 0.0
C419 C 0.3247 0.71081 0.41599 0.0
C420 C 0.34915 0.70457 0.40807 0.0
C421 C 0.355 0.68137 0.40256 0.0
C422 C 0.28072 0.6995 0.42975 0.0
C423 C 0.36876 0.72251 0.40282 0.0
C424 C 0.3108 0.76777 0.3742 0.0
C425 C 0.31457 0.783 0.4023 0.0
C426 C 0.3118 0.74397 0.3791 0.0
C427 C 0.31729 0.73528 0.41282 0.0
C428 C 0.31929 0.75057 0.44183 0.0
C429 C 0.31769 0.77442 0.43623 0.0
C430 C 0.30896 0.72824 0.34758 0.0
C431 C 0.32517 0.74193 0.47812 0.0
H432 H 0.2996 0.65707 0.41859 0.0
H433 H 0.37344 0.67667 0.39484 0.0
H434 H 0.27983 0.71367 0.44938 0.0
H435 H 0.27128 0.70555 0.40561 0.0
H436 H 0.27057 0.68441 0.43982 0.0
H437 H 0.38737 0.71475 0.40137 0.0
H438 H 0.36507 0.73185 0.37806 0.0
H439 H 0.36859 0.73536 0.42448 0.0
H440 H 0.30807 0.77452 0.34803 0.0
H441 H 0.32064 0.7863 0.45792 0.0
H442 H 0.29661 0.71368 0.35355 0.0
H443 H 0.32709 0.72087 0.34066 0.0
H444 H 0.30153 0.73746 0.32438 0.0
H445 H 0.31462 0.72613 0.4839 0.0
H446 H 0.32124 0.75515 0.49852 0.0
H447 H 0.34493 0.73743 0.47979 0.0
C448 C 0.52972 0.11131 0.58616 0.0
C449 C 0.54116 0.09245 0.60213 0.0
C450 C 0.50414 0.11264 0.58336 0.0
C451 C 0.48973 0.09422 0.5957 0.0
C452 C 0.50121 0.07518 0.61217 0.0
C453 C 0.52688 0.07472 0.61576 0.0
C454 C 0.49258 0.13357 0.56663 0.0
C455 C 0.48649 0.05493 0.62467 0.0
C456 C 0.42153 0.10517 0.60716 0.0
C457 C 0.41231 0.0984 0.57429 0.0
C458 C 0.44674 0.10366 0.61479 0.0
C459 C 0.46281 0.09443 0.58932 0.0
C460 C 0.45333 0.08667 0.55664 0.0
C461 C 0.42824 0.08914 0.54929 0.0
C462 C 0.45628 0.11277 0.64948 0.0
C463 C 0.46974 0.07612 0.52918 0.0
H464 H 0.54084 0.12516 0.57601 0.0
H465 H 0.53583 0.0601 0.62796 0.0
H466 H 0.48374 0.12861 0.54139 0.0
H467 H 0.47806 0.14075 0.58375 0.0
H468 H 0.5062 0.1473 0.56153 0.0
H469 H 0.4981 0.0419 0.63815 0.0
H470 H 0.472 0.0608 0.64287 0.0
H471 H 0.47717 0.04653 0.60197 0.0
H472 H 0.40917 0.11244 0.62639 0.0
H473 H 0.42101 0.08365 0.52401 0.0
H474 H 0.46866 0.12756 0.64491 0.0
H475 H 0.46719 0.09936 0.66312 0.0
H476 H 0.44127 0.11855 0.66697 0.0
H477 H 0.48251 0.08934 0.51927 0.0
H478 H 0.45916 0.06895 0.50659 0.0
H479 H 0.48104 0.06214 0.54078 0.0
C480 C 0.82817 0.16936 0.92985 0.0
C481 C 0.8504 0.16248 0.91483 0.0
C482 C 0.82333 0.19279 0.93648 0.0
C483 C 0.84117 0.20941 0.92779 0.0
C484 C 0.86475 0.20211 0.91709 0.0
C485 C 0.86902 0.17872 0.91057 0.0
C486 C 0.79831 0.19982 0.94922 0.0
C487 C 0.88461 0.21917 0.90838 0.0
C488 C 0.82713 0.26261 0.87656 0.0
C489 C 0.835 0.27985 0.89984 0.0
C490 C 0.82635 0.2396 0.88683 0.0
C491 C 0.83396 0.23369 0.92121 0.0
C492 C 0.83928 0.25133 0.946 0.0
C493 C 0.83973 0.27439 0.93496 0.0
C494 C 0.81996 0.22146 0.85963 0.0
C495 C 0.84674 0.24582 0.98314 0.0
H496 H 0.81381 0.15677 0.93363 0.0
H497 H 0.88646 0.17332 0.8998 0.0
H498 H 0.79932 0.21549 0.96599 0.0
H499 H 0.78633 0.20375 0.92636 0.0
H500 H 0.78961 0.18574 0.96418 0.0
H501 H 0.90274 0.21068 0.90514 0.0
H502 H 0.87978 0.22799 0.88355 0.0
H503 H 0.88626 0.23252 0.9292 0.0
H504 H 0.82305 0.26698 0.84954 0.0
H505 H 0.84568 0.28781 0.95304 0.0
H506 H 0.80686 0.20884 0.87035 0.0
H507 H 0.8368 0.21191 0.85214 0.0
H508 H 0.81176 0.22905 0.83558 0.0
H509 H 0.8374 0.23013 -0.00742 0.0
H510 H 0.84256 0.26042 0.00113 0.0
H511 H 0.8668 0.24266 0.9843 0.0
C512 C 0.63888 0.68202 0.36919 0.0
C513 C 0.63698 0.66454 0.39403 0.0
C514 C 0.64133 0.70506 0.37942 0.0
C515 C 0.64164 0.71085 0.41554 0.0
C516 C 0.64197 0.69309 0.44082 0.0
C517 C 0.63966 0.66998 0.42971 0.0
C518 C 0.64138 0.7233 0.35138 0.0
C519 C 0.64282 0.69847 0.47952 0.0
C520 C 0.65164 0.77494 0.42279 0.0
C521 C 0.62748 0.78257 0.41779 0.0
C522 C 0.65674 0.75131 0.42671 0.0
C523 C 0.63717 0.7353 0.42562 0.0
C524 C 0.61267 0.74344 0.42539 0.0
C525 C 0.60814 0.76698 0.42117 0.0
C526 C 0.68307 0.74337 0.42804 0.0
C527 C 0.59117 0.7271 0.42506 0.0
H528 H 0.63731 0.67774 0.34154 0.0
H529 H 0.63835 0.65642 0.44896 0.0
H530 H 0.62385 0.73305 0.35202 0.0
H531 H 0.65646 0.73574 0.35618 0.0
H532 H 0.64352 0.71581 0.3247 0.0
H533 H 0.65037 0.68374 0.49462 0.0
H534 H 0.65401 0.71401 0.48523 0.0
H535 H 0.62394 0.70188 0.48882 0.0
H536 H 0.66662 0.78705 0.42037 0.0
H537 H 0.58942 0.77301 0.41787 0.0
H538 H 0.689 0.73855 0.40123 0.0
H539 H 0.68523 0.72799 0.44485 0.0
H540 H 0.69537 0.75723 0.438 0.0
H541 H 0.58969 0.71863 0.39894 0.0
H542 H 0.5736 0.73616 0.43037 0.0
H543 H 0.59381 0.71342 0.44484 0.0
C544 C 0.82698 0.67877 0.03037 0.0
C545 C 0.82465 0.66957 0.06399 0.0
C546 C 0.82826 0.70273 0.02565 0.0
C547 C 0.8267 0.71757 0.0552 0.0
C548 C 0.82268 0.70826 0.08881 0.0
C549 C 0.822 0.68436 0.09281 0.0
C550 C 0.83278 0.71203 0.9895 0.0
C551 C 0.82038 0.72346 0.12095 0.0
C552 C 0.85938 0.77396 0.06776 0.0
C553 C 0.83973 0.78952 0.06704 0.0
C554 C 0.85578 0.75059 0.06011 0.0
C555 C 0.83182 0.74257 0.05239 0.0
C556 C 0.81231 0.75853 0.04861 0.0
C557 C 0.81656 0.78196 0.05573 0.0
C558 C 0.87722 0.73421 0.06354 0.0
C559 C 0.78653 0.75066 0.04044 0.0
H560 H 0.82911 0.66725 0.00809 0.0
H561 H 0.81987 0.6772 0.11875 0.0
H562 H 0.82112 0.72733 0.98431 0.0
H563 H 0.85217 0.71757 0.98769 0.0
H564 H 0.82924 0.69886 0.96878 0.0
H565 H 0.81485 0.71363 0.14441 0.0
H566 H 0.83823 0.73187 0.12674 0.0
H567 H 0.80668 0.73729 0.11629 0.0
H568 H 0.87741 0.77988 0.07595 0.0
H569 H 0.80134 0.79401 0.05509 0.0
H570 H 0.8772 0.72152 0.04165 0.0
H571 H 0.87566 0.72448 0.08832 0.0
H572 H 0.89504 0.74342 0.0639 0.0
H573 H 0.78643 0.737 0.01994 0.0
H574 H 0.77468 0.76513 0.0316 0.0
H575 H 0.77843 0.74325 0.06438 0.0
C576 C 0.63621 0.27253 0.62973 0.0
C577 C 0.63569 0.28908 0.60326 0.0
C578 C 0.63827 0.24907 0.62172 0.0
C579 C 0.63956 0.2419 0.58623 0.0
C580 C 0.64087 0.25861 0.55948 0.0
C581 C 0.63902 0.28213 0.56835 0.0
C582 C 0.63723 0.23191 0.65124 0.0
C583 C 0.64246 0.25168 0.5214 0.0
C584 C 0.65054 0.17765 0.58208 0.0
C585 C 0.62639 0.16982 0.58488 0.0
C586 C 0.65539 0.20131 0.57865 0.0
C587 C 0.63557 0.21715 0.57778 0.0
C588 C 0.61119 0.20885 0.57636 0.0
C589 C 0.60692 0.18528 0.5803 0.0
C590 C 0.68161 0.20945 0.5797 0.0
C591 C 0.58948 0.22503 0.57469 0.0
H592 H 0.63413 0.27789 0.65683 0.0
H593 H 0.63874 0.29492 0.54782 0.0
H594 H 0.61953 0.22255 0.64997 0.0
H595 H 0.65212 0.21897 0.64869 0.0
H596 H 0.63888 0.24033 0.6774 0.0
H597 H 0.64921 0.26604 0.50508 0.0
H598 H 0.6547 0.23656 0.5179 0.0
H599 H 0.62396 0.24676 0.51163 0.0
H600 H 0.6656 0.16562 0.58564 0.0
H601 H 0.58823 0.17909 0.58209 0.0
H602 H 0.6864 0.21506 0.60677 0.0
H603 H 0.6842 0.22441 0.56223 0.0
H604 H 0.6945 0.1955 0.57195 0.0
H605 H 0.58731 0.23375 0.60046 0.0
H606 H 0.57218 0.2158 0.56826 0.0
H607 H 0.59239 0.23854 0.55481 0.0
C608 C 0.04468 0.38794 0.86584 0.0
C609 C 0.05773 0.3704 0.88274 0.0
C610 C 0.01899 0.38724 0.86357 0.0
C611 C 0.00638 0.36811 0.87738 0.0
C612 C 0.01964 0.35006 0.89361 0.0
C613 C 0.04516 0.35164 0.89665 0.0
C614 C 0.00533 0.40712 0.8471 0.0
C615 C 0.0069 0.32906 0.90771 0.0
C616 C 0.94011 0.37152 0.90511 0.0
C617 C 0.92808 0.36173 0.87608 0.0
C618 C 0.96554 0.37471 0.90514 0.0
C619 C 0.97924 0.36711 0.87595 0.0
C620 C 0.96712 0.35726 0.84647 0.0
C621 C 0.94151 0.35507 0.84664 0.0
C622 C 0.97776 0.38593 0.93659 0.0
C623 C -0.01876 0.34827 0.81539 0.0
H624 H 0.05454 0.40243 0.85516 0.0
H625 H 0.05537 0.3379 0.90926 0.0
H626 H -0.00594 0.40093 0.82461 0.0
H627 H -0.00741 0.41485 0.86643 0.0
H628 H 0.01789 0.42075 0.8378 0.0
H629 H 0.02007 0.31588 0.91742 0.0
H630 H -0.00527 0.33412 0.92957 0.0
H631 H -0.0048 0.32111 0.88697 0.0
H632 H 0.92957 0.37695 0.92766 0.0
H633 H 0.93208 0.34744 0.82428 0.0
H634 H -0.01027 0.40022 0.92813 0.0
H635 H -0.01042 0.37321 0.95026 0.0
H636 H 0.96424 0.39284 0.95557 0.0
H637 H -0.00711 0.36205 0.80456 0.0
H638 H 0.96898 0.34164 0.7942 0.0
H639 H -0.00636 0.33414 0.82385 0.0
C640 C 0.5374 0.56702 0.41397 0.0
C641 C 0.54804 0.57712 0.38464 0.0
C642 C 0.51187 0.56487 0.41637 0.0
C643 C 0.49671 0.57388 0.38942 0.0
C644 C 0.50744 0.58415 0.35976 0.0
C645 C 0.53305 0.58525 0.35743 0.0
C646 C 0.50113 0.55311 0.4478 0.0
C647 C 0.49187 0.59464 0.33105 0.0
C648 C 0.42992 0.55653 0.37919 0.0
C649 C 0.41816 0.57439 0.39733 0.0
C650 C 0.45561 0.55567 0.37742 0.0
C651 C 0.46964 0.5736 0.39297 0.0
C652 C 0.45775 0.5917 0.41123 0.0
C653 C 0.43215 0.59164 0.41372 0.0
C654 C 0.46772 0.53567 0.35882 0.0
C655 C 0.47201 0.6115 0.42724 0.0
H656 H 0.5491 0.56053 0.43483 0.0
H657 H 0.54136 0.59319 0.33487 0.0
H658 H 0.49052 0.5657 0.46358 0.0
H659 H 0.48823 0.53939 0.43915 0.0
H660 H 0.51547 0.54532 0.4649 0.0
H661 H 0.5031 0.60203 0.30981 0.0
H662 H 0.47947 0.58147 0.31946 0.0
H663 H 0.48016 0.6085 0.34217 0.0
H664 H 0.41903 0.54314 0.36668 0.0
H665 H 0.42299 0.6056 0.42743 0.0
H666 H 0.48165 0.52761 0.37625 0.0
H667 H 0.47741 0.54188 0.33534 0.0
H668 H 0.4543 0.52231 0.35042 0.0
H669 H 0.4853 0.60501 0.44701 0.0
H670 H 0.45991 0.62441 0.44006 0.0
H671 H 0.48268 0.62025 0.40667 0.0
C672 C 0.53522 0.39196 0.62021 0.0
C673 C 0.54709 0.37374 0.60299 0.0
C674 C 0.50962 0.39423 0.61851 0.0
C675 C 0.49567 0.37747 0.60007 0.0
C676 C 0.5076 0.35885 0.58308 0.0
C677 C 0.53323 0.35742 0.58431 0.0
C678 C 0.49754 0.41464 0.63608 0.0
C679 C 0.49328 0.34032 0.5639 0.0
C680 C 0.42873 0.36893 0.6219 0.0
C681 C 0.41713 0.37826 0.59234 0.0
C682 C 0.45435 0.36894 0.62512 0.0
C683 C 0.46854 0.37915 0.59861 0.0
C684 C 0.4568 0.38965 0.56957 0.0
C685 C 0.43118 0.38873 0.56649 0.0
C686 C 0.46625 0.35707 0.65601 0.0
C687 C 0.47131 0.40129 0.54131 0.0
H688 H 0.54601 0.40469 0.63442 0.0
H689 H 0.54242 0.34323 0.5712 0.0
H690 H 0.48652 0.42441 0.61659 0.0
H691 H 0.48476 0.40867 0.65648 0.0
H692 H 0.51109 0.4265 0.64848 0.0
H693 H 0.50534 0.32658 0.55315 0.0
H694 H 0.47996 0.33233 0.58187 0.0
H695 H 0.48264 0.34797 0.54198 0.0
H696 H 0.41784 0.36067 0.64178 0.0
H697 H 0.42213 0.39611 0.54376 0.0
H698 H 0.47899 0.36897 0.66988 0.0
H699 H 0.47725 0.34218 0.64663 0.0
H700 H 0.45257 0.35075 0.67502 0.0
H701 H 0.48455 0.41365 0.55317 0.0
H702 H 0.45933 0.41066 0.52248 0.0
H703 H 0.48206 0.38825 0.52659 0.0
C704 C 0.03196 0.56358 0.12379 0.0
C705 C 0.04423 0.58255 0.10996 0.0
C706 C 0.00621 0.56235 0.12238 0.0
C707 C -0.00736 0.58085 0.10776 0.0
C708 C 0.00506 0.60055 0.09553 0.0
C709 C 0.0307 0.60098 0.09628 0.0
C710 C -0.00637 0.54087 0.13491 0.0
C711 C -0.0087 0.62092 0.08059 0.0
C712 C 0.9314 0.57493 0.06161 0.0
C713 C 0.91543 0.58424 0.0865 0.0
C714 C 0.95636 0.57196 0.06934 0.0
C715 C 0.96568 0.5792 0.10238 0.0
C716 C 0.94941 0.58764 0.12821 0.0
C717 C 0.92432 0.58977 0.12008 0.0
C718 C 0.97297 0.5623 0.04139 0.0
C719 C 0.9587 0.59597 0.16347 0.0
H720 H 0.04251 0.54931 0.13427 0.0
H721 H 0.04022 0.61579 0.08601 0.0
H722 H 0.97847 0.54536 0.15287 0.0
H723 H -0.01457 0.53158 0.11214 0.0
H724 H 0.00651 0.52903 0.1486 0.0
H725 H 0.00355 0.63576 0.07555 0.0
H726 H -0.01775 0.61586 0.05554 0.0
H727 H 0.97672 0.6266 0.09882 0.0
H728 H 0.92442 0.57036 0.03577 0.0
H729 H 0.91194 0.59705 0.13929 0.0
H730 H -0.01457 0.54905 0.05257 0.0
H731 H -0.01545 0.57628 0.03093 0.0
H732 H 0.96246 0.55447 0.01924 0.0
H733 H 0.97164 0.58332 0.17509 0.0
H734 H 0.94353 0.59912 0.18212 0.0
H735 H 0.96888 0.61231 0.16011 0.0
C736 C 0.13652 0.52645 0.00585 0.0
C737 C 0.14984 0.53202 0.03623 0.0
C738 C 0.14096 0.50573 0.98781 0.0
C739 C 0.1598 0.49078 -0.00018 0.0
C740 C 0.17458 0.49732 0.0289 0.0
C741 C 0.16904 0.51766 0.04729 0.0
C742 C 0.12438 0.49912 0.95745 0.0
C743 C 0.19551 0.48237 0.04152 0.0
C744 C 0.14871 0.42744 0.98176 0.0
C745 C 0.1605 0.42438 0.94966 0.0
C746 C 0.14899 0.44886 -0.00105 0.0
C747 C 0.16215 0.46736 0.98424 0.0
C748 C 0.17572 0.46379 0.95326 0.0
C749 C 0.17431 0.44242 0.93588 0.0
C750 C 0.13381 0.45208 0.03152 0.0
C751 C 0.19084 0.48279 0.93766 0.0
H752 H 0.12154 0.53753 -0.00244 0.0
H753 H 0.17945 0.52215 0.07072 0.0
H754 H 0.13536 0.49483 0.93401 0.0
H755 H 0.1138 0.4835 0.96424 0.0
H756 H 0.11124 0.51307 0.95055 0.0
H757 H 0.20767 0.49167 0.06036 0.0
H758 H 0.18815 0.46695 0.05472 0.0
H759 H 0.20663 0.47624 0.01909 0.0
H760 H 0.13782 0.41355 -0.00776 0.0
H761 H 0.18353 0.43998 0.91109 0.0
H762 H 0.11912 0.46494 0.02646 0.0
H763 H 0.14532 0.45884 0.05336 0.0
H764 H 0.12516 0.43579 0.04004 0.0
H765 H 0.17853 0.49577 0.9255 0.0
H766 H 0.20347 0.47617 0.91725 0.0
H767 H 0.20176 0.49172 0.95834 0.0
C768 C 0.69177 0.86802 0.30076 0.0
C769 C 0.67302 0.85284 0.29043 0.0
C770 C 0.71364 0.86928 0.28193 0.0
C771 C 0.71695 0.85479 0.25236 0.0
C772 C 0.69808 0.83951 0.24169 0.0
C773 C 0.67625 0.83883 0.26072 0.0
C774 C 0.73324 0.88604 0.29374 0.0
C775 C 0.70109 0.82365 0.21044 0.0
C776 C 0.76396 0.8706 0.18432 0.0
C777 C 0.78381 0.85643 0.19367 0.0
C778 C 0.74222 0.87049 0.20353 0.0
C779 C 0.74018 0.85563 0.23252 0.0
C780 C 0.76019 0.84139 0.24229 0.0
C781 C 0.78186 0.84208 0.22287 0.0
C782 C 0.72138 0.88616 0.19267 0.0
C783 C 0.75854 0.82516 0.27288 0.0
H784 H 0.68935 0.87898 0.3236 0.0
H785 H 0.6619 0.82696 0.25274 0.0
H786 H 0.75029 0.87656 0.30062 0.0
H787 H 0.73772 0.89788 0.27208 0.0
H788 H 0.72756 0.89646 0.31682 0.0
H789 H 0.68471 0.81269 0.2057 0.0
H790 H 0.7045 0.83387 0.18657 0.0
H791 H 0.71726 0.8123 0.21451 0.0
H792 H 0.76539 0.88185 0.16192 0.0
H793 H 0.7971 0.83101 0.23011 0.0
H794 H 0.71603 0.89741 0.21498 0.0
H795 H 0.70509 0.87574 0.18525 0.0
H796 H 0.72622 0.89722 0.17018 0.0
H797 H 0.75429 0.83494 0.29716 0.0
H798 H 0.7758 0.81533 0.27717 0.0
H799 H 0.74337 0.81277 0.26832 0.0
C800 C 0.31529 0.42903 0.49622 0.0
C801 C 0.30471 0.42204 0.52757 0.0
C802 C 0.31088 0.45107 0.48309 0.0
C803 C 0.29467 0.46607 0.5011 0.0
C804 C 0.28195 0.45817 0.53076 0.0
C805 C 0.2876 0.43635 0.54422 0.0
C806 C 0.32517 0.45891 0.45165 0.0
C807 C 0.26351 0.47309 0.54954 0.0
C808 C 0.31569 0.5272 0.49101 0.0
C809 C 0.30418 0.53281 0.45932 0.0
C810 C 0.31112 0.50603 0.50692 0.0
C811 C 0.29398 0.49069 0.49125 0.0
C812 C 0.27996 0.49775 0.46187 0.0
C813 C 0.28569 0.51857 0.44561 0.0
C814 C 0.3266 0.49909 0.53815 0.0
C815 C 0.26037 0.48253 0.44592 0.0
H816 H 0.32856 0.41795 0.4834 0.0
H817 H 0.27917 0.43077 0.5683 0.0
H818 H 0.31251 0.46506 0.43082 0.0
H819 H 0.3372 0.47355 0.45926 0.0
H820 H 0.33679 0.44497 0.4405 0.0
H821 H 0.2498 0.46241 0.56327 0.0
H822 H 0.27309 0.48383 0.56954 0.0
H823 H 0.25374 0.48476 0.53119 0.0
H824 H 0.32996 0.53832 0.50155 0.0
H825 H 0.2765 0.52321 0.42132 0.0
H826 H 0.3391 0.48483 0.53049 0.0
H827 H 0.31485 0.4927 0.55946 0.0
H828 H 0.33785 0.51359 0.54856 0.0
H829 H 0.269 0.46926 0.42895 0.0
H830 H 0.24728 0.49259 0.42959 0.0
H831 H 0.25006 0.47349 0.46659 0.0
C832 C 0.69072 0.08131 0.69537 0.0
C833 C 0.67206 0.09613 0.70692 0.0
C834 C 0.71358 0.08066 0.71247 0.0
C835 C 0.71799 0.09541 0.74153 0.0
C836 C 0.69909 0.11009 0.75377 0.0
C837 C 0.67626 0.11015 0.73646 0.0
C838 C 0.73315 0.06448 0.69905 0.0
C839 C 0.70321 0.12617 0.78456 0.0
C840 C 0.77056 0.08162 0.80372 0.0
C841 C 0.78905 0.09628 0.79175 0.0
C842 C 0.74742 0.08104 0.78747 0.0
C843 C 0.74252 0.09568 0.7588 0.0
C844 C 0.76107 0.11051 0.74652 0.0
C845 C 0.78421 0.11051 0.763 0.0
C846 C 0.72821 0.06476 0.80097 0.0
C847 C 0.7564 0.12652 0.71619 0.0
H848 H 0.68755 0.07033 0.67267 0.0
H849 H 0.66198 0.12175 0.74537 0.0
H850 H 0.74906 0.07451 0.6898 0.0
H851 H 0.73984 0.05325 0.72051 0.0
H852 H 0.72641 0.0534 0.67713 0.0
H853 H 0.68649 0.13618 0.79123 0.0
H854 H 0.70911 0.11627 0.80792 0.0
H855 H 0.71815 0.13841 0.77857 0.0
H856 H 0.7742 0.07046 0.82582 0.0
H857 H 0.79835 0.12196 0.75375 0.0
H858 H 0.72201 0.053 0.77962 0.0
H859 H 0.71193 0.07463 0.80979 0.0
H860 H 0.7351 0.05423 0.82318 0.0
H861 H 0.75118 0.11644 0.69246 0.0
H862 H 0.77268 0.13716 0.71007 0.0
H863 H 0.74083 0.13818 0.72227 0.0
C864 C 0.81008 0.42617 0.95346 0.0
C865 C 0.83276 0.42161 0.93804 0.0
C866 C 0.80502 0.44805 0.96772 0.0
C867 C 0.82341 0.46523 0.96733 0.0
C868 C 0.84668 0.46021 0.95303 0.0
C869 C 0.8509 0.43857 0.93803 0.0
C870 C 0.77984 0.45305 0.98195 0.0
C871 C 0.86704 0.47782 0.95305 0.0
C872 C 0.81378 0.52958 0.96923 0.0
C873 C 0.82077 0.53489 0.00375 0.0
C874 C 0.81229 0.50661 0.95778 0.0
C875 C 0.81867 0.48871 0.98118 0.0
C876 C 0.82435 0.49394 0.01658 0.0
C877 C 0.82505 0.517 0.02755 0.0
C878 C 0.80545 0.5016 0.92006 0.0
C879 C 0.83178 0.4754 0.04214 0.0
H880 H 0.79603 0.41299 0.95299 0.0
H881 H 0.86849 0.43485 0.92621 0.0
H882 H 0.78121 0.46017 0.00895 0.0
H883 H 0.77069 0.46631 0.96557 0.0
H884 H 0.7681 0.43745 0.98224 0.0
H885 H 0.88452 0.47058 0.94303 0.0
H886 H 0.86169 0.49263 0.93644 0.0
H887 H 0.8703 0.48455 0.97999 0.0
H888 H 0.81009 0.54338 0.95094 0.0
H889 H 0.83045 0.52103 0.05432 0.0
H890 H 0.79245 0.48695 0.9183 0.0
H891 H 0.82212 0.49663 0.90537 0.0
H892 H 0.79701 0.51679 0.90712 0.0
H893 H 0.81899 0.46062 0.04055 0.0
H894 H 0.83237 0.4819 0.06959 0.0
H895 H 0.85029 0.46885 0.03533 0.0
C896 C 0.20464 0.06071 0.79651 0.0
C897 C 0.18415 0.07495 0.79136 0.0
C898 C 0.22284 0.05887 0.77093 0.0
C899 C 0.22078 0.07219 0.74015 0.0
C900 C 0.19963 0.08589 0.73427 0.0
C901 C 0.18137 0.08682 0.75978 0.0
C902 C 0.24471 0.04345 0.77749 0.0
C903 C 0.19697 0.10069 0.70208 0.0
C904 C 0.27833 0.09317 0.69616 0.0
C905 C 0.27789 0.0804 0.6649 0.0
C906 C 0.26015 0.0902 0.72137 0.0
C907 C 0.24158 0.07356 0.71553 0.0
C908 C 0.24195 0.05962 0.68495 0.0
C909 C 0.25991 0.06349 0.65965 0.0
C910 C 0.26009 0.10573 0.75333 0.0
C911 C 0.22295 0.04118 0.67843 0.0
H912 H 0.20668 0.05137 0.82084 0.0
H913 H 0.16559 0.09794 0.75587 0.0
H914 H 0.24871 0.03289 0.75386 0.0
H915 H 0.26112 0.05414 0.78317 0.0
H916 H 0.24182 0.03179 0.79999 0.0
H917 H 0.17891 0.10956 0.70075 0.0
H918 H 0.21162 0.11392 0.70215 0.0
H919 H 0.19918 0.09009 0.67802 0.0
H920 H 0.29216 0.10634 0.70012 0.0
H921 H 0.25972 0.05346 0.63555 0.0
H922 H 0.25991 0.0953 0.77753 0.0
H923 H 0.24321 0.11646 0.75322 0.0
H924 H 0.27625 0.11732 0.75442 0.0
H925 H 0.22085 0.03038 0.70206 0.0
H926 H 0.22773 0.02987 0.65589 0.0
H927 H 0.20491 0.04931 0.67291 0.0
C928 C 0.64472 0.50179 0.41811 0.0
C929 C 0.655 0.52269 0.42948 0.0
C930 C 0.64705 0.48187 0.43824 0.0
C931 C 0.66065 0.48272 0.46998 0.0
C932 C 0.67313 0.50318 0.4798 0.0
C933 C 0.66978 0.52313 0.45971 0.0
C934 C 0.63295 0.4606 0.42719 0.0
C935 C 0.68863 0.50444 0.51273 0.0
C936 C 0.63476 0.44635 0.54219 0.0
C937 C 0.64868 0.42614 0.53934 0.0
C938 C 0.63889 0.46501 0.52018 0.0
C939 C 0.65802 0.46375 0.49546 0.0
C940 C 0.67294 0.44377 0.49353 0.0
C941 C 0.66775 0.42491 0.5151 0.0
C942 C 0.62207 0.48572 0.52249 0.0
C943 C 0.69405 0.44218 0.46839 0.0
H944 H 0.63331 0.50134 0.39468 0.0
H945 H 0.67806 0.5392 0.46829 0.0
H946 H 0.64481 0.44509 0.42848 0.0
H947 H 0.61753 0.45795 0.44545 0.0
H948 H 0.62533 0.462 0.40018 0.0
H949 H 0.70104 0.51958 0.51271 0.0
H950 H 0.67656 0.50591 0.53585 0.0
H951 H 0.6998 0.48856 0.51578 0.0
H952 H 0.61992 0.44725 0.56084 0.0
H953 H 0.67868 0.40933 0.51321 0.0
H954 H 0.61259 0.48833 0.49695 0.0
H955 H 0.63285 0.50147 0.52831 0.0
H956 H 0.60798 0.48384 0.54306 0.0
H957 H 0.68692 0.44023 0.44123 0.0
H958 H 0.70622 0.42728 0.47417 0.0
H959 H 0.7051 0.4582 0.46944 0.0
C960 C 0.25568 0.88685 0.30604 0.0
C961 C 0.27515 0.87191 0.29835 0.0
C962 C 0.23503 0.88805 0.28399 0.0
C963 C 0.23366 0.87353 0.25408 0.0
C964 C 0.25386 0.85934 0.24519 0.0
C965 C 0.27456 0.8589 0.2673 0.0
C966 C 0.21415 0.9039 0.29377 0.0
C967 C 0.25293 0.8434 0.21373 0.0
C968 C 0.17023 0.85365 0.22624 0.0
C969 C 0.16608 0.86667 0.19603 0.0
C970 C 0.19225 0.85569 0.24525 0.0
C971 C 0.21026 0.8715 0.23417 0.0
C972 C 0.20591 0.88512 0.20419 0.0
C973 C 0.18395 0.88234 0.18521 0.0
C974 C 0.19641 0.84062 0.27685 0.0
C975 C 0.22444 0.90255 0.19217 0.0
H976 H 0.25624 0.89706 0.32995 0.0
H977 H 0.28956 0.84725 0.26145 0.0
H978 H 0.20775 0.91375 0.27063 0.0
H979 H 0.19845 0.89354 0.30297 0.0
H980 H 0.21944 0.91624 0.31491 0.0
H981 H 0.27091 0.83502 0.20871 0.0
H982 H 0.2391 0.82977 0.21809 0.0
H983 H 0.24719 0.85294 0.18996 0.0
H984 H 0.15653 0.84142 0.23452 0.0
H985 H 0.1807 0.89257 0.16198 0.0
H986 H 0.19931 0.85148 0.30057 0.0
H987 H 0.21321 0.83007 0.27328 0.0
H988 H 0.18075 0.82889 0.28156 0.0
H989 H 0.22871 0.91487 0.21375 0.0
H990 H 0.21783 0.9124 0.16907 0.0
H991 H 0.24182 0.89375 0.18522 0.0
C992 C 0.65756 0.02685 0.52166 0.0
C993 C 0.63978 0.02789 0.54784 0.0
C994 C 0.66139 0.00641 0.5024 0.0
C995 C 0.64644 -0.013 0.50872 0.0
C996 C 0.62871 -0.01205 0.53551 0.0
C997 C 0.62589 0.00826 0.55509 0.0
C998 C 0.68103 0.00574 0.47486 0.0
C999 C 0.61188 0.96791 0.54245 0.0
C1000 C 0.63084 0.94508 0.43558 0.0
C1001 C 0.64282 0.92501 0.44678 0.0
C1002 C 0.63267 0.96564 0.45482 0.0
C1003 C 0.64747 0.96636 0.48548 0.0
C1004 C 0.66089 0.94654 0.4957 0.0
C1005 C 0.65806 0.92591 0.47654 0.0
C1006 C 0.61749 -0.01385 0.44352 0.0
C1007 C 0.67751 0.94691 0.52755 0.0
H1008 H 0.66848 0.04197 0.51629 0.0
H1009 H 0.61203 0.00906 0.57522 0.0
H1010 H 0.69238 -0.01005 0.47766 0.0
H1011 H 0.67242 0.00515 0.44842 0.0
H1012 H 0.69319 0.02104 0.47644 0.0
H1013 H 0.59936 0.97133 0.56468 0.0
H1014 H 0.60062 0.96415 0.51871 0.0
H1015 H 0.62274 0.95221 0.54834 0.0
H1016 H 0.61896 0.94443 0.41264 0.0
H1017 H 0.66754 0.91047 0.48503 0.0
H1018 H 0.62923 0.00159 0.44101 0.0
H1019 H 0.60359 -0.00989 0.46374 0.0
H1020 H 0.60785 -0.01691 0.41813 0.0
H1021 H 0.68916 0.96255 0.52765 0.0
H1022 H 0.68953 0.93145 0.52871 0.0
H1023 H 0.66631 0.9475 0.55162 0.0
C1024 C 0.27463 0.36663 0.67472 0.0
C1025 C 0.29292 0.35027 0.68212 0.0
C1026 C 0.25341 0.36809 0.69492 0.0
C1027 C 0.25026 0.35263 0.72292 0.0
C1028 C 0.26865 0.33613 0.73067 0.0
C1029 C 0.28989 0.33525 0.71029 0.0
C1030 C 0.23431 0.38611 0.68618 0.0
C1031 C 0.26572 0.31921 0.76016 0.0
C1032 C 0.20484 0.36804 0.79386 0.0
C1033 C 0.18421 0.3553 0.78324 0.0
C1034 C 0.22644 0.36745 0.77433 0.0
C1035 C 0.2275 0.35356 0.74375 0.0
C1036 C 0.20674 0.34072 0.73282 0.0
C1037 C 0.18526 0.34187 0.75259 0.0
C1038 C 0.24814 0.38165 0.78642 0.0
C1039 C 0.20731 0.32557 0.70047 0.0
H1040 H 0.27693 0.37843 0.65314 0.0
H1041 H 0.30392 0.32252 0.71602 0.0
H1042 H 0.21674 0.37766 0.67895 0.0
H1043 H 0.23081 0.39716 0.70947 0.0
H1044 H 0.23992 0.39728 0.66419 0.0
H1045 H 0.28178 0.30753 0.76287 0.0
H1046 H 0.26317 0.32859 0.7853 0.0
H1047 H 0.24908 0.30862 0.75552 0.0
H1048 H 0.2041 0.37853 0.81746 0.0
H1049 H 0.16945 0.33185 0.74438 0.0
H1050 H 0.25358 0.39367 0.76545 0.0
H1051 H 0.26408 0.37025 0.79175 0.0
H1052 H 0.24419 0.39182 0.8105 0.0
H1053 H 0.21141 0.33608 0.67713 0.0
H1054 H 0.18967 0.31647 0.69579 0.0
H1055 H 0.22214 0.31255 0.70303 0.0
C1056 C 0.79006 0.01596 0.93362 0.0
C1057 C 0.80982 0.02873 0.94711 0.0
C1058 C 0.78264 -0.00443 0.94984 0.0
C1059 C 0.79614 -0.01265 0.97904 0.0
C1060 C 0.81539 0.00082 -0.00637 0.0
C1061 C 0.82167 0.02162 0.97783 0.0
C1062 C 0.76122 -0.01765 0.93457 0.0
C1063 C 0.83063 -0.00752 0.02433 0.0
C1064 C 0.78241 0.9387 0.04044 0.0
C1065 C 0.79758 0.9214 0.02671 0.0
C1066 C 0.77934 0.95966 0.02287 0.0
C1067 C 0.79262 0.96357 -0.00814 0.0
C1068 C 0.80621 0.94538 0.97641 0.0
C1069 C 0.80815 0.92432 -0.00621 0.0
C1070 C 0.76346 -0.02182 0.03891 0.0
C1071 C 0.82086 0.94888 0.94352 0.0
H1072 H 0.78071 0.02167 0.91001 0.0
H1073 H 0.83701 0.0315 0.98813 0.0
H1074 H 0.76805 0.96897 0.91618 0.0
H1075 H 0.75073 0.97359 0.95533 0.0
H1076 H 0.74861 -0.00616 0.91974 0.0
H1077 H 0.84464 0.00527 0.03286 0.0
H1078 H 0.81872 -0.01127 0.04691 0.0
H1079 H 0.84015 0.97623 0.01707 0.0
H1080 H 0.77389 0.93629 0.06568 0.0
H1081 H 0.81983 0.91091 0.98309 0.0
H1082 H 0.75327 -0.01225 0.01831 0.0
H1083 H 0.77516 -0.00929 0.05339 0.0
H1084 H 0.75013 0.97087 0.05759 0.0
H1085 H 0.80915 0.95625 0.92252 0.0
H1086 H 0.82907 0.93256 0.93364 0.0
H1087 H 0.83589 0.96131 0.94897 0.0
C1088 C 0.18279 0.59653 0.23517 0.0
C1089 C 0.178 0.58512 0.20337 0.0
C1090 C 0.20608 0.59551 0.25094 0.0
C1091 C 0.22482 0.58236 0.23486 0.0
C1092 C 0.21985 0.57015 0.20337 0.0
C1093 C 0.19654 0.57188 0.18776 0.0
C1094 C 0.21081 0.60902 0.28433 0.0
C1095 C 0.23923 0.5555 0.18598 0.0
C1096 C 0.28984 0.59928 0.25951 0.0
C1097 C 0.2947 0.58436 0.28738 0.0
C1098 C 0.26736 0.59838 0.24137 0.0
C1099 C 0.24969 0.5818 0.25091 0.0
C1100 C 0.25516 0.56578 0.27761 0.0
C1101 C 0.2775 0.56745 0.29584 0.0
C1102 C 0.26201 0.61595 0.21336 0.0
C1103 C 0.23703 0.54748 0.28787 0.0
H1104 H 0.16857 0.60692 0.24717 0.0
H1105 H 0.19283 0.56292 0.16325 0.0
H1106 H 0.21696 0.59727 0.30545 0.0
H1107 H 0.22573 0.62163 0.2802 0.0
H1108 H 0.19427 0.61847 0.29337 0.0
H1109 H 0.23199 0.54608 0.16264 0.0
H1110 H 0.25468 0.5665 0.1777 0.0
H1111 H 0.24675 0.54281 0.20485 0.0
H1112 H 0.30308 0.61245 0.25309 0.0
H1113 H 0.28136 0.55573 0.3172 0.0
H1114 H 0.24682 0.62738 0.22194 0.0
H1115 H 0.25592 0.60729 0.18878 0.0
H1116 H 0.27821 0.62678 0.20763 0.0
H1117 H 0.22097 0.55568 0.30056 0.0
H1118 H 0.24516 0.53483 0.30635 0.0
H1119 H 0.23018 0.53811 0.2643 0.0
C1120 C 0.3096 0.02871 0.47327 0.0
C1121 C 0.32376 0.03621 0.50189 0.0
C1122 C 0.30768 0.00514 0.46531 0.0
C1123 C 0.32106 -0.01097 0.48568 0.0
C1124 C 0.3355 -0.00335 0.51447 0.0
C1125 C 0.3363 0.02016 0.52261 0.0
C1126 C 0.2915 -0.00253 0.4351 0.0
C1127 C 0.35077 -0.0199 0.53596 0.0
C1128 C 0.30717 0.92506 0.48412 0.0
C1129 C 0.32388 0.91723 0.45913 0.0
C1130 C 0.30533 0.94864 0.49211 0.0
C1131 C 0.32128 0.96435 0.47569 0.0
C1132 C 0.3384 0.95634 0.45078 0.0
C1133 C 0.33914 0.93288 0.44231 0.0
C1134 C 0.28635 0.95675 0.51798 0.0
C1135 C 0.35634 0.97243 0.43371 0.0
H1136 H 0.29974 0.04123 0.45755 0.0
H1137 H 0.34739 0.02612 0.54462 0.0
H1138 H 0.30288 -0.01012 0.41403 0.0
H1139 H 0.27871 -0.01611 0.4438 0.0
H1140 H 0.28065 0.01194 0.42395 0.0
H1141 H 0.361 -0.0111 0.55751 0.0
H1142 H 0.33891 0.96672 0.54748 0.0
H1143 H 0.36413 0.97112 0.51884 0.0
H1144 H 0.29524 0.91283 0.49676 0.0
H1145 H 0.35217 0.92663 0.42313 0.0
H1146 H 0.27487 0.97052 0.50615 0.0
H1147 H 0.2955 0.96426 0.54148 0.0
H1148 H 0.27422 0.94255 0.52646 0.0
H1149 H 0.34634 -0.01399 0.41909 0.0
H1150 H 0.36875 0.96329 0.41532 0.0
H1151 H 0.36768 -0.01882 0.45411 0.0
C1152 C 0.77397 0.59434 0.19417 0.0
C1153 C 0.77345 0.5833 0.16143 0.0
C1154 C 0.75352 0.59375 0.2161 0.0
C1155 C 0.73241 0.58135 0.20525 0.0
C1156 C 0.73239 0.56903 0.17312 0.0
C1157 C 0.75284 0.5704 0.15135 0.0
C1158 C 0.75403 0.6074 0.24995 0.0
C1159 C 0.71046 0.55511 0.16116 0.0
C1160 C 0.6852 0.56965 0.27501 0.0
C1161 C 0.66789 0.58701 0.26831 0.0
C1162 C 0.70598 0.56711 0.25401 0.0
C1163 C 0.70975 0.58268 0.22629 0.0
C1164 C 0.69215 0.60004 0.21912 0.0
C1165 C 0.67125 0.60181 0.24 0.0
C1166 C 0.72404 0.54801 0.26177 0.0
C1167 C 0.69576 0.61718 0.19008 0.0
H1168 H 0.78986 0.60442 0.20186 0.0
H1169 H 0.75254 0.56168 0.12611 0.0
H1170 H 0.7402 0.62143 0.24866 0.0
H1171 H 0.74912 0.59625 0.27223 0.0
H1172 H 0.77228 0.61516 0.25541 0.0
H1173 H 0.71444 0.5445 0.13752 0.0
H1174 H 0.70438 0.54356 0.18238 0.0
H1175 H 0.69496 0.56684 0.15494 0.0
H1176 H 0.68252 0.55807 0.29677 0.0
H1177 H 0.65798 0.61536 0.23494 0.0
H1178 H 0.74189 0.55546 0.27012 0.0
H1179 H 0.72737 0.53761 0.23775 0.0
H1180 H 0.71755 0.53641 0.2827 0.0
H1181 H 0.71294 0.62697 0.19483 0.0
H1182 H 0.6803 0.6296 0.18792 0.0
H1183 H 0.69768 0.60804 0.16463 0.0
C1184 C 0.16163 0.93853 0.0441 0.0
C1185 C 0.14522 0.92258 0.02931 0.0
C1186 C 0.16485 0.96022 0.02902 0.0
C1187 C 0.15074 0.9662 -0.00085 0.0
C1188 C 0.13554 0.9495 0.98263 0.0
C1189 C 0.13321 0.92769 -0.00227 0.0
C1190 C 0.1819 -0.02273 0.04665 0.0
C1191 C 0.11997 0.95533 0.95096 0.0
C1192 C 0.1291 0.02806 -0.00689 0.0
C1193 C 0.14301 0.03624 0.96527 0.0
C1194 C 0.13168 0.00532 0.00455 0.0
C1195 C 0.14906 -0.00937 0.98833 0.0
C1196 C 0.16398 -0.00088 0.96128 0.0
C1197 C 0.16053 0.02178 0.94971 0.0
C1198 C 0.11519 -0.00321 0.03322 0.0
C1199 C 0.1832 -0.01583 0.94418 0.0
H1200 H 0.1711 0.93445 0.0684 0.0
H1201 H 0.12043 0.91538 0.98641 0.0
H1202 H 0.19272 -0.01331 0.02694 0.0
H1203 H 0.17099 -0.00982 0.06142 0.0
H1204 H 0.19473 0.96873 0.06527 0.0
H1205 H 0.11137 0.93979 0.93896 0.0
H1206 H 0.1052 0.96744 0.95886 0.0
H1207 H 0.13106 0.96404 0.93086 0.0
H1208 H 0.11544 0.03915 0.00502 0.0
H1209 H 0.17146 0.02816 0.92832 0.0
H1210 H 0.12637 -0.0095 0.05562 0.0
H1211 H 0.10409 -0.01793 0.02334 0.0
H1212 H 0.10254 0.0104 0.04293 0.0
H1213 H 0.1951 0.97607 0.9644 0.0
H1214 H 0.19491 -0.00594 0.92605 0.0
H1215 H 0.17422 0.97005 0.92914 0.0
C1216 C 0.68079 0.36176 0.7396 0.0
C1217 C 0.67644 0.37386 0.70854 0.0
C1218 C 0.70418 0.36144 0.75512 0.0
C1219 C 0.72343 0.37388 0.73951 0.0
C1220 C 0.7187 0.38744 0.70958 0.0
C1221 C 0.69526 0.38709 0.69421 0.0
C1222 C 0.70861 0.34663 0.78693 0.0
C1223 C 0.73865 0.4014 0.69279 0.0
C1224 C 0.78079 0.38067 0.79525 0.0
C1225 C 0.79542 0.36263 0.78243 0.0
C1226 C 0.75766 0.38523 0.78053 0.0
C1227 C 0.74886 0.37109 0.75285 0.0
C1228 C 0.76387 0.35333 0.73905 0.0
C1229 C 0.78713 0.34945 0.75382 0.0
C1230 C 0.74237 0.40466 0.79532 0.0
C1231 C 0.75495 0.33775 0.70972 0.0
H1232 H 0.66631 0.35146 0.75068 0.0
H1233 H 0.69187 0.39665 0.67036 0.0
H1234 H 0.72118 0.33225 0.78003 0.0
H1235 H 0.71761 0.3568 0.80813 0.0
H1236 H 0.69138 0.33923 0.79717 0.0
H1237 H 0.73126 0.41325 0.67254 0.0
H1238 H 0.74873 0.41166 0.71288 0.0
H1239 H 0.75207 0.38964 0.68024 0.0
H1240 H 0.78727 0.39104 0.8172 0.0
H1241 H 0.79835 0.33544 0.74396 0.0
H1242 H 0.72619 0.39752 0.80878 0.0
H1243 H 0.73542 0.41581 0.77392 0.0
H1244 H 0.75286 0.41546 0.81436 0.0
H1245 H 0.73863 0.32804 0.7184 0.0
H1246 H 0.76918 0.32522 0.70127 0.0
H1247 H 0.74923 0.34812 0.68676 0.0
loop_
_geom_bond_atom_site_label_1
_geom_bond_atom_site_label_2
_geom_bond_distance
_geom_bond_site_symmetry_2
_ccdc_geom_bond_type
C0 O1 1.306 . S
C0 O3 1.160 . S
O1 C0 1.306 . S
O1 Cd2 2.228 . S
Cd2 O1 2.228 . S
Cd2 O6 2.273 . S
Cd2 O10 2.277 . S
O3 C0 1.160 . S
O3 Cd4 2.203 . S
Cd4 O3 2.203 . S
Cd4 O6 2.411 . S
Cd4 O7 2.333 . S
Cd4 O8 2.352 . S
Cd4 O12 2.277 . S
Cd4 O13 2.356 . S
C5 O10 1.209 . S
C5 O12 1.226 . S
O6 Cd2 2.273 . S
O6 Cd4 2.411 . S
O6 C9 1.320 . S
O7 Cd4 2.333 . S
O7 C9 1.214 . S
O8 Cd4 2.352 . S
O8 C11 1.258 . S
C9 O6 1.320 . S
C9 O7 1.214 . S
O10 Cd2 2.277 . S
O10 C5 1.209 . S
C11 O8 1.258 . S
C11 O13 1.282 . S
O12 Cd4 2.277 . S
O12 C5 1.226 . S
O13 Cd4 2.356 . S
O13 C11 1.282 . S
C14 O15 1.306 . S
C14 O17 1.160 . S
O15 C14 1.306 . S
O15 Cd16 2.228 . S
Cd16 O15 2.228 . S
Cd16 O20 2.273 . S
Cd16 O24 2.277 . S
O17 C14 1.160 . S
O17 Cd18 2.203 . S
Cd18 O17 2.203 . S
Cd18 O20 2.411 . S
Cd18 O21 2.333 . S
Cd18 O22 2.352 . S
Cd18 O26 2.277 . S
Cd18 O27 2.356 . S
C19 O24 1.209 . S
C19 O26 1.226 . S
O20 Cd16 2.273 . S
O20 Cd18 2.411 . S
O20 C23 1.320 . S
O21 Cd18 2.333 . S
O21 C23 1.214 . S
O22 Cd18 2.352 . S
O22 C25 1.258 . S
C23 O20 1.320 . S
C23 O21 1.214 . S
O24 Cd16 2.277 . S
O24 C19 1.209 . S
C25 O22 1.258 . S
C25 O27 1.282 . S
O26 Cd18 2.277 . S
O26 C19 1.226 . S
O27 Cd18 2.356 . S
O27 C25 1.282 . S
C28 O29 1.306 . S
C28 O31 1.160 . S
O29 C28 1.306 . S
O29 Cd30 2.228 . S
Cd30 O29 2.228 . S
Cd30 O34 2.273 . S
Cd30 O38 2.277 . S
O31 C28 1.160 . S
O31 Cd32 2.203 . S
Cd32 O31 2.203 . S
Cd32 O34 2.411 . S
Cd32 O35 2.333 . S
Cd32 O36 2.352 . S
Cd32 O40 2.277 . S
Cd32 O41 2.356 . S
C33 O38 1.209 . S
C33 O40 1.226 . S
O34 Cd30 2.273 . S
O34 Cd32 2.411 . S
O34 C37 1.320 . S
O35 Cd32 2.333 . S
O35 C37 1.214 . S
O36 Cd32 2.352 . S
O36 C39 1.258 . S
C37 O34 1.320 . S
C37 O35 1.214 . S
O38 Cd30 2.277 . S
O38 C33 1.209 . S
C39 O36 1.258 . S
C39 O41 1.282 . S
O40 Cd32 2.277 . S
O40 C33 1.226 . S
O41 Cd32 2.356 . S
O41 C39 1.282 . S
C42 O43 1.306 . S
C42 O45 1.160 . S
O43 C42 1.306 . S
O43 Cd44 2.228 . S
Cd44 O43 2.228 . S
Cd44 O48 2.273 . S
Cd44 O52 2.277 . S
O45 C42 1.160 . S
O45 Cd46 2.203 . S
Cd46 O45 2.203 . S
Cd46 O48 2.411 . S
Cd46 O49 2.333 . S
Cd46 O50 2.352 . S
Cd46 O54 2.277 . S
Cd46 O55 2.356 . S
C47 O52 1.209 . S
C47 O54 1.226 . S
O48 Cd44 2.273 . S
O48 Cd46 2.411 . S
O48 C51 1.320 . S
O49 Cd46 2.333 . S
O49 C51 1.214 . S
O50 Cd46 2.352 . S
O50 C53 1.258 . S
C51 O48 1.320 . S
C51 O49 1.214 . S
O52 Cd44 2.277 . S
O52 C47 1.209 . S
C53 O50 1.258 . S
C53 O55 1.282 . S
O54 Cd46 2.277 . S
O54 C47 1.226 . S
O55 Cd46 2.356 . S
O55 C53 1.282 . S
C56 O57 1.306 . S
C56 O59 1.160 . S
O57 C56 1.306 . S
O57 Cd58 2.228 . S
Cd58 O57 2.228 . S
Cd58 O62 2.273 . S
Cd58 O66 2.277 . S
O59 C56 1.160 . S
O59 Cd60 2.203 . S
Cd60 O59 2.203 . S
Cd60 O62 2.411 . S
Cd60 O63 2.333 . S
Cd60 O64 2.352 . S
Cd60 O68 2.277 . S
Cd60 O69 2.356 . S
C61 O66 1.209 . S
C61 O68 1.226 . S
O62 Cd58 2.273 . S
O62 Cd60 2.411 . S
O62 C65 1.320 . S
O63 Cd60 2.333 . S
O63 C65 1.214 . S
O64 Cd60 2.352 . S
O64 C67 1.258 . S
C65 O62 1.320 . S
C65 O63 1.214 . S
O66 Cd58 2.277 . S
O66 C61 1.209 . S
C67 O64 1.258 . S
C67 O69 1.282 . S
O68 Cd60 2.277 . S
O68 C61 1.226 . S
O69 Cd60 2.356 . S
O69 C67 1.282 . S
C70 O71 1.306 . S
C70 O73 1.160 . S
O71 C70 1.306 . S
O71 Cd72 2.228 . S
Cd72 O71 2.228 . S
Cd72 O76 2.273 . S
Cd72 O80 2.277 . S
O73 C70 1.160 . S
O73 Cd74 2.203 . S
Cd74 O73 2.203 . S
Cd74 O76 2.411 . S
Cd74 O77 2.333 . S
Cd74 O78 2.352 . S
Cd74 O82 2.277 . S
Cd74 O83 2.356 . S
C75 O80 1.209 . S
C75 O82 1.226 . S
O76 Cd72 2.273 . S
O76 Cd74 2.411 . S
O76 C79 1.320 . S
O77 Cd74 2.333 . S
O77 C79 1.214 . S
O78 Cd74 2.352 . S
O78 C81 1.258 . S
C79 O76 1.320 . S
C79 O77 1.214 . S
O80 Cd72 2.277 . S
O80 C75 1.209 . S
C81 O78 1.258 . S
C81 O83 1.282 . S
O82 Cd74 2.277 . S
O82 C75 1.226 . S
O83 Cd74 2.356 . S
O83 C81 1.282 . S
C84 O85 1.306 . S
C84 O87 1.160 . S
O85 C84 1.306 . S
O85 Cd86 2.228 . S
Cd86 O85 2.228 . S
Cd86 O90 2.273 . S
Cd86 O94 2.277 . S
O87 C84 1.160 . S
O87 Cd88 2.203 . S
Cd88 O87 2.203 . S
Cd88 O90 2.411 . S
Cd88 O91 2.333 . S
Cd88 O92 2.352 . S
Cd88 O96 2.277 . S
Cd88 O97 2.356 . S
C89 O94 1.209 . S
C89 O96 1.226 . S
O90 Cd86 2.273 . S
O90 Cd88 2.411 . S
O90 C93 1.320 . S
O91 Cd88 2.333 . S
O91 C93 1.214 . S
O92 Cd88 2.352 . S
O92 C95 1.258 . S
C93 O90 1.320 . S
C93 O91 1.214 . S
O94 Cd86 2.277 . S
O94 C89 1.209 . S
C95 O92 1.258 . S
C95 O97 1.282 . S
O96 Cd88 2.277 . S
O96 C89 1.226 . S
O97 Cd88 2.356 . S
O97 C95 1.282 . S
C98 O99 1.306 . S
C98 O101 1.160 . S
O99 C98 1.306 . S
O99 Cd100 2.228 . S
Cd100 O99 2.228 . S
Cd100 O104 2.273 . S
Cd100 O108 2.277 . S
O101 C98 1.160 . S
O101 Cd102 2.203 . S
Cd102 O101 2.203 . S
Cd102 O104 2.411 . S
Cd102 O105 2.333 . S
Cd102 O106 2.352 . S
Cd102 O110 2.277 . S
Cd102 O111 2.356 . S
C103 O108 1.209 . S
C103 O110 1.226 . S
O104 Cd100 2.273 . S
O104 Cd102 2.411 . S
O104 C107 1.320 . S
O105 Cd102 2.333 . S
O105 C107 1.214 . S
O106 Cd102 2.352 . S
O106 C109 1.258 . S
C107 O104 1.320 . S
C107 O105 1.214 . S
O108 Cd100 2.277 . S
O108 C103 1.209 . S
C109 O106 1.258 . S
C109 O111 1.282 . S
O110 Cd102 2.277 . S
O110 C103 1.226 . S
O111 Cd102 2.356 . S
O111 C109 1.282 . S
C112 O113 1.306 . S
C112 O115 1.160 . S
O113 C112 1.306 . S
O113 Cd114 2.228 . S
Cd114 O113 2.228 . S
Cd114 O118 2.273 . S
Cd114 O122 2.277 . S
O115 C112 1.160 . S
O115 Cd116 2.203 . S
Cd116 O115 2.203 . S
Cd116 O118 2.411 . S
Cd116 O119 2.333 . S
Cd116 O120 2.352 . S
Cd116 O124 2.277 . S
Cd116 O125 2.356 . S
C117 O122 1.209 . S
C117 O124 1.226 . S
O118 Cd114 2.273 . S
O118 Cd116 2.411 . S
O118 C121 1.320 . S
O119 Cd116 2.333 . S
O119 C121 1.214 . S
O120 Cd116 2.352 . S
O120 C123 1.258 . S
C121 O118 1.320 . S
C121 O119 1.214 . S
O122 Cd114 2.277 . S
O122 C117 1.209 . S
C123 O120 1.258 . S
C123 O125 1.282 . S
O124 Cd116 2.277 . S
O124 C117 1.226 . S
O125 Cd116 2.356 . S
O125 C123 1.282 . S
C126 O127 1.306 . S
C126 O129 1.160 . S
O127 C126 1.306 . S
O127 Cd128 2.228 . S
Cd128 O127 2.228 . S
Cd128 O132 2.273 . S
Cd128 O136 2.277 . S
O129 C126 1.160 . S
O129 Cd130 2.203 . S
Cd130 O129 2.203 . S
Cd130 O132 2.411 . S
Cd130 O133 2.333 . S
Cd130 O134 2.352 . S
Cd130 O138 2.277 . S
Cd130 O139 2.356 . S
C131 O136 1.209 . S
C131 O138 1.226 . S
O132 Cd128 2.273 . S
O132 Cd130 2.411 . S
O132 C135 1.320 . S
O133 Cd130 2.333 . S
O133 C135 1.214 . S
O134 Cd130 2.352 . S
O134 C137 1.258 . S
C135 O132 1.320 . S
C135 O133 1.214 . S
O136 Cd128 2.277 . S
O136 C131 1.209 . S
C137 O134 1.258 . S
C137 O139 1.282 . S
O138 Cd130 2.277 . S
O138 C131 1.226 . S
O139 Cd130 2.356 . S
O139 C137 1.282 . S
C140 O141 1.306 . S
C140 O143 1.160 . S
O141 C140 1.306 . S
O141 Cd142 2.228 . S
Cd142 O141 2.228 . S
Cd142 O146 2.273 . S
Cd142 O150 2.277 . S
O143 C140 1.160 . S
O143 Cd144 2.203 . S
Cd144 O143 2.203 . S
Cd144 O146 2.411 . S
Cd144 O147 2.333 . S
Cd144 O148 2.352 . S
Cd144 O152 2.277 . S
Cd144 O153 2.356 . S
C145 O150 1.209 . S
C145 O152 1.226 . S
O146 Cd142 2.273 . S
O146 Cd144 2.411 . S
O146 C149 1.320 . S
O147 Cd144 2.333 . S
O147 C149 1.214 . S
O148 Cd144 2.352 . S
O148 C151 1.258 . S
C149 O146 1.320 . S
C149 O147 1.214 . S
O150 Cd142 2.277 . S
O150 C145 1.209 . S
C151 O148 1.258 . S
C151 O153 1.282 . S
O152 Cd144 2.277 . S
O152 C145 1.226 . S
O153 Cd144 2.356 . S
O153 C151 1.282 . S
C154 O155 1.306 . S
C154 O157 1.160 . S
O155 C154 1.306 . S
O155 Cd156 2.228 . S
Cd156 O155 2.228 . S
Cd156 O160 2.273 . S
Cd156 O164 2.277 . S
O157 C154 1.160 . S
O157 Cd158 2.203 . S
Cd158 O157 2.203 . S
Cd158 O160 2.411 . S
Cd158 O161 2.333 . S
Cd158 O162 2.352 . S
Cd158 O166 2.277 . S
Cd158 O167 2.356 . S
C159 O164 1.209 . S
C159 O166 1.226 . S
O160 Cd156 2.273 . S
O160 Cd158 2.411 . S
O160 C163 1.320 . S
O161 Cd158 2.333 . S
O161 C163 1.214 . S
O162 Cd158 2.352 . S
O162 C165 1.258 . S
C163 O160 1.320 . S
C163 O161 1.214 . S
O164 Cd156 2.277 . S
O164 C159 1.209 . S
C165 O162 1.258 . S
C165 O167 1.282 . S
O166 Cd158 2.277 . S
O166 C159 1.226 . S
O167 Cd158 2.356 . S
O167 C165 1.282 . S
C168 O169 1.306 . S
C168 O171 1.160 . S
O169 C168 1.306 . S
O169 Cd170 2.228 . S
Cd170 O169 2.228 . S
Cd170 O174 2.273 . S
Cd170 O178 2.277 . S
O171 C168 1.160 . S
O171 Cd172 2.203 . S
Cd172 O171 2.203 . S
Cd172 O174 2.411 . S
Cd172 O175 2.333 . S
Cd172 O176 2.352 . S
Cd172 O180 2.277 . S
Cd172 O181 2.356 . S
C173 O178 1.209 . S
C173 O180 1.226 . S
O174 Cd170 2.273 . S
O174 Cd172 2.411 . S
O174 C177 1.320 . S
O175 Cd172 2.333 . S
O175 C177 1.214 . S
O176 Cd172 2.352 . S
O176 C179 1.258 . S
C177 O174 1.320 . S
C177 O175 1.214 . S
O178 Cd170 2.277 . S
O178 C173 1.209 . S
C179 O176 1.258 . S
C179 O181 1.282 . S
O180 Cd172 2.277 . S
O180 C173 1.226 . S
O181 Cd172 2.356 . S
O181 C179 1.282 . S
C182 O183 1.306 . S
C182 O185 1.160 . S
O183 C182 1.306 . S
O183 Cd184 2.228 . S
Cd184 O183 2.228 . S
Cd184 O188 2.273 . S
Cd184 O192 2.277 . S
O185 C182 1.160 . S
O185 Cd186 2.203 . S
Cd186 O185 2.203 . S
Cd186 O188 2.411 . S
Cd186 O189 2.333 . S
Cd186 O190 2.352 . S
Cd186 O194 2.277 . S
Cd186 O195 2.356 . S
C187 O192 1.209 . S
C187 O194 1.226 . S
O188 Cd184 2.273 . S
O188 Cd186 2.411 . S
O188 C191 1.320 . S
O189 Cd186 2.333 . S
O189 C191 1.214 . S
O190 Cd186 2.352 . S
O190 C193 1.258 . S
C191 O188 1.320 . S
C191 O189 1.214 . S
O192 Cd184 2.277 . S
O192 C187 1.209 . S
C193 O190 1.258 . S
C193 O195 1.282 . S
O194 Cd186 2.277 . S
O194 C187 1.226 . S
O195 Cd186 2.356 . S
O195 C193 1.282 . S
C196 O197 1.306 . S
C196 O199 1.160 . S
O197 C196 1.306 . S
O197 Cd198 2.228 . S
Cd198 O197 2.228 . S
Cd198 O202 2.273 . S
Cd198 O206 2.277 . S
O199 C196 1.160 . S
O199 Cd200 2.203 . S
Cd200 O199 2.203 . S
Cd200 O202 2.411 . S
Cd200 O203 2.333 . S
Cd200 O204 2.352 . S
Cd200 O208 2.277 . S
Cd200 O209 2.356 . S
C201 O206 1.209 . S
C201 O208 1.226 . S
O202 Cd198 2.273 . S
O202 Cd200 2.411 . S
O202 C205 1.320 . S
O203 Cd200 2.333 . S
O203 C205 1.214 . S
O204 Cd200 2.352 . S
O204 C207 1.258 . S
C205 O202 1.320 . S
C205 O203 1.214 . S
O206 Cd198 2.277 . S
O206 C201 1.209 . S
C207 O204 1.258 . S
C207 O209 1.282 . S
O208 Cd200 2.277 . S
O208 C201 1.226 . S
O209 Cd200 2.356 . S
O209 C207 1.282 . S
C210 O211 1.306 . S
C210 O213 1.160 . S
O211 C210 1.306 . S
O211 Cd212 2.228 . S
Cd212 O211 2.228 . S
Cd212 O216 2.273 . S
Cd212 O220 2.277 . S
O213 C210 1.160 . S
O213 Cd214 2.203 . S
Cd214 O213 2.203 . S
Cd214 O216 2.411 . S
Cd214 O217 2.333 . S
Cd214 O218 2.352 . S
Cd214 O222 2.277 . S
Cd214 O223 2.356 . S
C215 O220 1.209 . S
C215 O222 1.226 . S
O216 Cd212 2.273 . S
O216 Cd214 2.411 . S
O216 C219 1.320 . S
O217 Cd214 2.333 . S
O217 C219 1.214 . S
O218 Cd214 2.352 . S
O218 C221 1.258 . S
C219 O216 1.320 . S
C219 O217 1.214 . S
O220 Cd212 2.277 . S
O220 C215 1.209 . S
C221 O218 1.258 . S
C221 O223 1.282 . S
O222 Cd214 2.277 . S
O222 C215 1.226 . S
O223 Cd214 2.356 . S
O223 C221 1.282 . S
C224 C225 1.391 . S
C224 C226 1.394 . S
C224 H240 0.931 . S
C225 C224 1.391 . S
C225 C229 1.376 . S
C226 C224 1.394 . S
C226 C227 1.369 . S
C226 C230 1.531 . S
C227 C226 1.369 . S
C227 C228 1.410 . S
C227 C235 1.503 . S
C228 C227 1.410 . S
C228 C229 1.392 . S
C228 C231 1.511 . S
C229 C225 1.376 . S
C229 C228 1.392 . S
C229 H241 0.929 . S
C230 C226 1.531 . S
C230 H242 0.960 . S
C230 H243 0.962 . S
C230 H244 0.960 . S
C231 C228 1.511 . S
C231 H245 0.961 . S
C231 H246 0.961 . S
C231 H247 0.961 . S
C232 C233 1.370 . S
C232 C234 1.363 . S
C232 H248 0.931 . S
C233 C232 1.370 . S
C233 C237 1.408 . S
C234 C232 1.363 . S
C234 C235 1.370 . S
C234 C238 1.524 . S
C235 C227 1.503 . S
C235 C234 1.370 . S
C235 C236 1.403 . S
C236 C235 1.403 . S
C236 C237 1.404 . S
C236 C239 1.539 . S
C237 C233 1.408 . S
C237 C236 1.404 . S
C237 H249 0.930 . S
C238 C234 1.524 . S
C238 H250 0.956 . S
C238 H251 0.961 . S
C238 H252 0.961 . S
C239 C236 1.539 . S
C239 H253 0.958 . S
C239 H254 0.961 . S
C239 H255 0.960 . S
H240 C224 0.931 . S
H241 C229 0.929 . S
H242 C230 0.960 . S
H243 C230 0.962 . S
H244 C230 0.960 . S
H245 C231 0.961 . S
H246 C231 0.961 . S
H247 C231 0.961 . S
H248 C232 0.931 . S
H249 C237 0.930 . S
H250 C238 0.956 . S
H251 C238 0.961 . S
H252 C238 0.961 . S
H253 C239 0.958 . S
H254 C239 0.961 . S
H255 C239 0.960 . S
C256 C257 1.391 . S
C256 C258 1.394 . S
C256 H272 0.931 . S
C257 C256 1.391 . S
C257 C261 1.376 . S
C258 C256 1.394 . S
C258 C259 1.369 . S
C258 C262 1.531 . S
C259 C258 1.369 . S
C259 C260 1.410 . S
C259 C267 1.503 . S
C260 C259 1.410 . S
C260 C261 1.392 . S
C260 C263 1.511 . S
C261 C257 1.376 . S
C261 C260 1.392 . S
C261 H273 0.929 . S
C262 C258 1.531 . S
C262 H274 0.960 . S
C262 H275 0.962 . S
C262 H276 0.960 . S
C263 C260 1.511 . S
C263 H277 0.961 . S
C263 H278 0.961 . S
C263 H279 0.961 . S
C264 C265 1.370 . S
C264 C266 1.363 . S
C264 H280 0.931 . S
C265 C264 1.370 . S
C265 C269 1.408 . S
C266 C264 1.363 . S
C266 C267 1.370 . S
C266 C270 1.524 . S
C267 C259 1.503 . S
C267 C266 1.370 . S
C267 C268 1.403 . S
C268 C267 1.403 . S
C268 C269 1.404 . S
C268 C271 1.539 . S
C269 C265 1.408 . S
C269 C268 1.404 . S
C269 H281 0.930 . S
C270 C266 1.524 . S
C270 H282 0.956 . S
C270 H283 0.961 . S
C270 H284 0.961 . S
C271 C268 1.539 . S
C271 H285 0.958 . S
C271 H286 0.961 . S
C271 H287 0.960 . S
H272 C256 0.931 . S
H273 C261 0.929 . S
H274 C262 0.960 . S
H275 C262 0.962 . S
H276 C262 0.960 . S
H277 C263 0.961 . S
H278 C263 0.961 . S
H279 C263 0.961 . S
H280 C264 0.931 . S
H281 C269 0.930 . S
H282 C270 0.956 . S
H283 C270 0.961 . S
H284 C270 0.961 . S
H285 C271 0.958 . S
H286 C271 0.961 . S
H287 C271 0.960 . S
C288 C289 1.391 . S
C288 C290 1.394 . S
C288 H304 0.931 . S
C289 C288 1.391 . S
C289 C293 1.376 . S
C290 C288 1.394 . S
C290 C291 1.369 . S
C290 C294 1.531 . S
C291 C290 1.369 . S
C291 C292 1.410 . S
C291 C299 1.503 . S
C292 C291 1.410 . S
C292 C293 1.392 . S
C292 C295 1.511 . S
C293 C289 1.376 . S
C293 C292 1.392 . S
C293 H305 0.929 . S
C294 C290 1.531 . S
C294 H306 0.960 . S
C294 H307 0.962 . S
C294 H308 0.960 . S
C295 C292 1.511 . S
C295 H309 0.961 . S
C295 H310 0.961 . S
C295 H311 0.961 . S
C296 C297 1.370 . S
C296 C298 1.363 . S
C296 H312 0.931 . S
C297 C296 1.370 . S
C297 C301 1.408 . S
C298 C296 1.363 . S
C298 C299 1.370 . S
C298 C302 1.524 . S
C299 C291 1.503 . S
C299 C298 1.370 . S
C299 C300 1.403 . S
C300 C299 1.403 . S
C300 C301 1.404 . S
C300 C303 1.539 . S
C301 C297 1.408 . S
C301 C300 1.404 . S
C301 H313 0.930 . S
C302 C298 1.524 . S
C302 H314 0.956 . S
C302 H315 0.961 . S
C302 H316 0.961 . S
C303 C300 1.539 . S
C303 H317 0.958 . S
C303 H318 0.961 . S
C303 H319 0.960 . S
H304 C288 0.931 . S
H305 C293 0.929 . S
H306 C294 0.960 . S
H307 C294 0.962 . S
H308 C294 0.960 . S
H309 C295 0.961 . S
H310 C295 0.961 . S
H311 C295 0.961 . S
H312 C296 0.931 . S
H313 C301 0.930 . S
H314 C302 0.956 . S
H315 C302 0.961 . S
H316 C302 0.961 . S
H317 C303 0.958 . S
H318 C303 0.961 . S
H319 C303 0.960 . S
C320 C321 1.391 . S
C320 C322 1.394 . S
C320 H336 0.931 . S
C321 C320 1.391 . S
C321 C325 1.376 . S
C322 C320 1.394 . S
C322 C323 1.369 . S
C322 C326 1.531 . S
C323 C322 1.369 . S
C323 C324 1.410 . S
C323 C331 1.503 1_455 S
C324 C323 1.410 . S
C324 C325 1.392 . S
C324 C327 1.511 . S
C325 C321 1.376 . S
C325 C324 1.392 . S
C325 H337 0.929 . S
C326 C322 1.531 . S
C326 H338 0.960 1_455 S
C326 H339 0.962 . S
C326 H340 0.960 . S
C327 C324 1.511 . S
C327 H341 0.961 . S
C327 H342 0.961 1_455 S
C327 H343 0.961 . S
C328 C329 1.370 . S
C328 C330 1.363 . S
C328 H344 0.931 . S
C329 C328 1.370 . S
C329 C333 1.408 . S
C330 C328 1.363 . S
C330 C331 1.370 . S
C330 C334 1.524 . S
C331 C323 1.503 1_655 S
C331 C330 1.370 . S
C331 C332 1.403 . S
C332 C331 1.403 . S
C332 C333 1.404 . S
C332 C335 1.539 . S
C333 C329 1.408 . S
C333 C332 1.404 . S
C333 H345 0.930 . S
C334 C330 1.524 . S
C334 H346 0.956 . S
C334 H347 0.961 . S
C334 H348 0.961 . S
C335 C332 1.539 . S
C335 H349 0.958 . S
C335 H350 0.961 . S
C335 H351 0.960 . S
H336 C320 0.931 . S
H337 C325 0.929 . S
H338 C326 0.960 1_655 S
H339 C326 0.962 . S
H340 C326 0.960 . S
H341 C327 0.961 . S
H342 C327 0.961 1_655 S
H343 C327 0.961 . S
H344 C328 0.931 . S
H345 C333 0.930 . S
H346 C334 0.956 . S
H347 C334 0.961 . S
H348 C334 0.961 . S
H349 C335 0.958 . S
H350 C335 0.961 . S
H351 C335 0.960 . S
C352 C353 1.391 . S
C352 C354 1.394 . S
C352 H368 0.931 . S
C353 C352 1.391 . S
C353 C357 1.376 . S
C354 C352 1.394 . S
C354 C355 1.369 . S
C354 C358 1.531 . S
C355 C354 1.369 . S
C355 C356 1.410 . S
C355 C363 1.503 . S
C356 C355 1.410 . S
C356 C357 1.392 . S
C356 C359 1.511 . S
C357 C353 1.376 . S
C357 C356 1.392 . S
C357 H369 0.929 . S
C358 C354 1.531 . S
C358 H370 0.960 . S
C358 H371 0.962 . S
C358 H372 0.960 . S
C359 C356 1.511 . S
C359 H373 0.961 . S
C359 H374 0.961 . S
C359 H375 0.961 . S
C360 C361 1.370 . S
C360 C362 1.363 . S
C360 H376 0.931 . S
C361 C360 1.370 . S
C361 C365 1.408 . S
C362 C360 1.363 . S
C362 C363 1.370 . S
C362 C366 1.524 . S
C363 C355 1.503 . S
C363 C362 1.370 . S
C363 C364 1.403 . S
C364 C363 1.403 . S
C364 C365 1.404 . S
C364 C367 1.539 . S
C365 C361 1.408 . S
C365 C364 1.404 . S
C365 H377 0.930 . S
C366 C362 1.524 . S
C366 H378 0.956 . S
C366 H379 0.961 . S
C366 H380 0.961 . S
C367 C364 1.539 . S
C367 H381 0.958 . S
C367 H382 0.961 . S
C367 H383 0.960 . S
H368 C352 0.931 . S
H369 C357 0.929 . S
H370 C358 0.960 . S
H371 C358 0.962 . S
H372 C358 0.960 . S
H373 C359 0.961 . S
H374 C359 0.961 . S
H375 C359 0.961 . S
H376 C360 0.931 . S
H377 C365 0.930 . S
H378 C366 0.956 . S
H379 C366 0.961 . S
H380 C366 0.961 . S
H381 C367 0.958 . S
H382 C367 0.961 . S
H383 C367 0.960 . S
C384 C385 1.391 . S
C384 C386 1.394 . S
C384 H400 0.931 . S
C385 C384 1.391 . S
C385 C389 1.376 . S
C386 C384 1.394 . S
C386 C387 1.369 . S
C386 C390 1.531 . S
C387 C386 1.369 . S
C387 C388 1.410 . S
C387 C395 1.503 1_655 S
C388 C387 1.410 . S
C388 C389 1.392 . S
C388 C391 1.511 . S
C389 C385 1.376 . S
C389 C388 1.392 . S
C389 H401 0.929 . S
C390 C386 1.531 . S
C390 H402 0.925 1_655 S
C390 H403 0.962 . S
C390 H404 0.960 . S
C391 C388 1.511 . S
C391 H405 0.961 . S
C391 H406 0.961 . S
C391 H407 0.961 . S
C392 C393 1.370 . S
C392 C394 1.363 . S
C392 H408 0.931 . S
C393 C392 1.370 . S
C393 C397 1.408 . S
C394 C392 1.363 . S
C394 C395 1.370 . S
C394 C398 1.524 . S
C395 C387 1.503 1_455 S
C395 C394 1.370 . S
C395 C396 1.403 . S
C396 C395 1.403 . S
C396 C397 1.404 . S
C396 C399 1.539 . S
C397 C393 1.408 . S
C397 C396 1.404 . S
C397 H409 0.930 . S
C398 C394 1.524 . S
C398 H410 0.956 1_455 S
C398 H411 0.961 1_455 S
C398 H412 0.961 . S
C399 C396 1.539 . S
C399 H413 0.958 . S
C399 H414 0.961 . S
C399 H415 0.960 1_455 S
H400 C384 0.931 . S
H401 C389 0.929 . S
H402 C390 0.925 1_455 S
H403 C390 0.962 . S
H404 C390 0.960 . S
H405 C391 0.961 . S
H406 C391 0.961 . S
H407 C391 0.961 . S
H408 C392 0.931 . S
H409 C397 0.930 . S
H410 C398 0.956 1_655 S
H411 C398 0.961 1_655 S
H412 C398 0.961 . S
H413 C399 0.958 . S
H414 C399 0.961 . S
H415 C399 0.960 1_655 S
C416 C417 1.391 . S
C416 C418 1.394 . S
C416 H432 0.931 . S
C417 C416 1.391 . S
C417 C421 1.376 . S
C418 C416 1.394 . S
C418 C419 1.369 . S
C418 C422 1.531 . S
C419 C418 1.369 . S
C419 C420 1.410 . S
C419 C427 1.503 . S
C420 C419 1.410 . S
C420 C421 1.392 . S
C420 C423 1.511 . S
C421 C417 1.376 . S
C421 C420 1.392 . S
C421 H433 0.929 . S
C422 C418 1.531 . S
C422 H434 0.960 . S
C422 H435 0.962 . S
C422 H436 0.960 . S
C423 C420 1.511 . S
C423 H437 0.961 . S
C423 H438 0.961 . S
C423 H439 0.961 . S
C424 C425 1.370 . S
C424 C426 1.363 . S
C424 H440 0.931 . S
C425 C424 1.370 . S
C425 C429 1.408 . S
C426 C424 1.363 . S
C426 C427 1.370 . S
C426 C430 1.524 . S
C427 C419 1.503 . S
C427 C426 1.370 . S
C427 C428 1.403 . S
C428 C427 1.403 . S
C428 C429 1.404 . S
C428 C431 1.539 . S
C429 C425 1.408 . S
C429 C428 1.404 . S
C429 H441 0.930 . S
C430 C426 1.524 . S
C430 H442 0.956 . S
C430 H443 0.961 . S
C430 H444 0.961 . S
C431 C428 1.539 . S
C431 H445 0.958 . S
C431 H446 0.961 . S
C431 H447 0.960 . S
H432 C416 0.931 . S
H433 C421 0.929 . S
H434 C422 0.960 . S
H435 C422 0.962 . S
H436 C422 0.960 . S
H437 C423 0.961 . S
H438 C423 0.961 . S
H439 C423 0.961 . S
H440 C424 0.931 . S
H441 C429 0.930 . S
H442 C430 0.956 . S
H443 C430 0.961 . S
H444 C430 0.961 . S
H445 C431 0.958 . S
H446 C431 0.961 . S
H447 C431 0.960 . S
C448 C449 1.391 . S
C448 C450 1.394 . S
C448 H464 0.931 . S
C449 C448 1.391 . S
C449 C453 1.376 . S
C450 C448 1.394 . S
C450 C451 1.369 . S
C450 C454 1.531 . S
C451 C450 1.369 . S
C451 C452 1.410 . S
C451 C459 1.503 . S
C452 C451 1.410 . S
C452 C453 1.392 . S
C452 C455 1.511 . S
C453 C449 1.376 . S
C453 C452 1.392 . S
C453 H465 0.929 . S
C454 C450 1.531 . S
C454 H466 0.960 . S
C454 H467 0.962 . S
C454 H468 0.960 . S
C455 C452 1.511 . S
C455 H469 0.961 . S
C455 H470 0.961 . S
C455 H471 0.961 . S
C456 C457 1.370 . S
C456 C458 1.363 . S
C456 H472 0.931 . S
C457 C456 1.370 . S
C457 C461 1.408 . S
C458 C456 1.363 . S
C458 C459 1.370 . S
C458 C462 1.524 . S
C459 C451 1.503 . S
C459 C458 1.370 . S
C459 C460 1.403 . S
C460 C459 1.403 . S
C460 C461 1.404 . S
C460 C463 1.539 . S
C461 C457 1.408 . S
C461 C460 1.404 . S
C461 H473 0.930 . S
C462 C458 1.524 . S
C462 H474 0.956 . S
C462 H475 0.961 . S
C462 H476 0.961 . S
C463 C460 1.539 . S
C463 H477 0.958 . S
C463 H478 0.961 . S
C463 H479 0.960 . S
H464 C448 0.931 . S
H465 C453 0.929 . S
H466 C454 0.960 . S
H467 C454 0.962 . S
H468 C454 0.960 . S
H469 C455 0.961 . S
H470 C455 0.961 . S
H471 C455 0.961 . S
H472 C456 0.931 . S
H473 C461 0.930 . S
H474 C462 0.956 . S
H475 C462 0.961 . S
H476 C462 0.961 . S
H477 C463 0.958 . S
H478 C463 0.961 . S
H479 C463 0.960 . S
C480 C481 1.391 . S
C480 C482 1.394 . S
C480 H496 0.931 . S
C481 C480 1.391 . S
C481 C485 1.376 . S
C482 C480 1.394 . S
C482 C483 1.369 . S
C482 C486 1.531 . S
C483 C482 1.369 . S
C483 C484 1.410 . S
C483 C491 1.503 . S
C484 C483 1.410 . S
C484 C485 1.392 . S
C484 C487 1.511 . S
C485 C481 1.376 . S
C485 C484 1.392 . S
C485 H497 0.929 . S
C486 C482 1.531 . S
C486 H498 0.960 . S
C486 H499 0.962 . S
C486 H500 0.960 . S
C487 C484 1.511 . S
C487 H501 0.961 . S
C487 H502 0.961 . S
C487 H503 0.961 . S
C488 C489 1.370 . S
C488 C490 1.363 . S
C488 H504 0.931 . S
C489 C488 1.370 . S
C489 C493 1.408 . S
C490 C488 1.363 . S
C490 C491 1.370 . S
C490 C494 1.524 . S
C491 C483 1.503 . S
C491 C490 1.370 . S
C491 C492 1.403 . S
C492 C491 1.403 . S
C492 C493 1.404 . S
C492 C495 1.539 . S
C493 C489 1.408 . S
C493 C492 1.404 . S
C493 H505 0.930 . S
C494 C490 1.524 . S
C494 H506 0.956 . S
C494 H507 0.961 . S
C494 H508 0.961 . S
C495 C492 1.539 . S
C495 H509 0.958 . S
C495 H510 0.961 . S
C495 H511 0.960 . S
H496 C480 0.931 . S
H497 C485 0.929 . S
H498 C486 0.960 . S
H499 C486 0.962 . S
H500 C486 0.960 . S
H501 C487 0.961 . S
H502 C487 0.961 . S
H503 C487 0.961 . S
H504 C488 0.931 . S
H505 C493 0.930 . S
H506 C494 0.956 . S
H507 C494 0.961 . S
H508 C494 0.961 . S
H509 C495 0.958 . S
H510 C495 0.961 . S
H511 C495 0.960 . S
C512 C513 1.391 . S
C512 C514 1.394 . S
C512 H528 0.931 . S
C513 C512 1.391 . S
C513 C517 1.376 . S
C514 C512 1.394 . S
C514 C515 1.369 . S
C514 C518 1.531 . S
C515 C514 1.369 . S
C515 C516 1.410 . S
C515 C523 1.503 . S
C516 C515 1.410 . S
C516 C517 1.392 . S
C516 C519 1.511 . S
C517 C513 1.376 . S
C517 C516 1.392 . S
C517 H529 0.929 . S
C518 C514 1.531 . S
C518 H530 0.960 . S
C518 H531 0.962 . S
C518 H532 0.960 . S
C519 C516 1.511 . S
C519 H533 0.961 . S
C519 H534 0.961 . S
C519 H535 0.961 . S
C520 C521 1.370 . S
C520 C522 1.363 . S
C520 H536 0.931 . S
C521 C520 1.370 . S
C521 C525 1.408 . S
C522 C520 1.363 . S
C522 C523 1.370 . S
C522 C526 1.524 . S
C523 C515 1.503 . S
C523 C522 1.370 . S
C523 C524 1.403 . S
C524 C523 1.403 . S
C524 C525 1.404 . S
C524 C527 1.539 . S
C525 C521 1.408 . S
C525 C524 1.404 . S
C525 H537 0.930 . S
C526 C522 1.524 . S
C526 H538 0.956 . S
C526 H539 0.961 . S
C526 H540 0.961 . S
C527 C524 1.539 . S
C527 H541 0.958 . S
C527 H542 0.961 . S
C527 H543 0.960 . S
H528 C512 0.931 . S
H529 C517 0.929 . S
H530 C518 0.960 . S
H531 C518 0.962 . S
H532 C518 0.960 . S
H533 C519 0.961 . S
H534 C519 0.961 . S
H535 C519 0.961 . S
H536 C520 0.931 . S
H537 C525 0.930 . S
H538 C526 0.956 . S
H539 C526 0.961 . S
H540 C526 0.961 . S
H541 C527 0.958 . S
H542 C527 0.961 . S
H543 C527 0.960 . S
C544 C545 1.391 . S
C544 C546 1.394 . S
C544 H560 0.931 . S
C545 C544 1.391 . S
C545 C549 1.376 . S
C546 C544 1.394 . S
C546 C547 1.369 . S
C546 C550 1.531 . S
C547 C546 1.369 . S
C547 C548 1.410 . S
C547 C555 1.503 . S
C548 C547 1.410 . S
C548 C549 1.392 . S
C548 C551 1.511 . S
C549 C545 1.376 . S
C549 C548 1.392 . S
C549 H561 0.929 . S
C550 C546 1.531 . S
C550 H562 0.960 . S
C550 H563 0.962 . S
C550 H564 0.960 . S
C551 C548 1.511 . S
C551 H565 0.961 . S
C551 H566 0.961 . S
C551 H567 0.961 . S
C552 C553 1.370 . S
C552 C554 1.363 . S
C552 H568 0.931 . S
C553 C552 1.370 . S
C553 C557 1.408 . S
C554 C552 1.363 . S
C554 C555 1.370 . S
C554 C558 1.524 . S
C555 C547 1.503 . S
C555 C554 1.370 . S
C555 C556 1.403 . S
C556 C555 1.403 . S
C556 C557 1.404 . S
C556 C559 1.539 . S
C557 C553 1.408 . S
C557 C556 1.404 . S
C557 H569 0.930 . S
C558 C554 1.524 . S
C558 H570 0.956 . S
C558 H571 0.961 . S
C558 H572 0.961 . S
C559 C556 1.539 . S
C559 H573 0.958 . S
C559 H574 0.961 . S
C559 H575 0.960 . S
H560 C544 0.931 . S
H561 C549 0.929 . S
H562 C550 0.960 . S
H563 C550 0.962 . S
H564 C550 0.960 . S
H565 C551 0.961 . S
H566 C551 0.961 . S
H567 C551 0.961 . S
H568 C552 0.931 . S
H569 C557 0.930 . S
H570 C558 0.956 . S
H571 C558 0.961 . S
H572 C558 0.961 . S
H573 C559 0.958 . S
H574 C559 0.961 . S
H575 C559 0.960 . S
C576 C577 1.391 . S
C576 C578 1.394 . S
C576 H592 0.931 . S
C577 C576 1.391 . S
C577 C581 1.376 . S
C578 C576 1.394 . S
C578 C579 1.369 . S
C578 C582 1.531 . S
C579 C578 1.369 . S
C579 C580 1.410 . S
C579 C587 1.503 . S
C580 C579 1.410 . S
C580 C581 1.392 . S
C580 C583 1.511 . S
C581 C577 1.376 . S
C581 C580 1.392 . S
C581 H593 0.929 . S
C582 C578 1.531 . S
C582 H594 0.960 . S
C582 H595 0.962 . S
C582 H596 0.960 . S
C583 C580 1.511 . S
C583 H597 0.961 . S
C583 H598 0.961 . S
C583 H599 0.961 . S
C584 C585 1.370 . S
C584 C586 1.363 . S
C584 H600 0.931 . S
C585 C584 1.370 . S
C585 C589 1.408 . S
C586 C584 1.363 . S
C586 C587 1.370 . S
C586 C590 1.524 . S
C587 C579 1.503 . S
C587 C586 1.370 . S
C587 C588 1.403 . S
C588 C587 1.403 . S
C588 C589 1.404 . S
C588 C591 1.539 . S
C589 C585 1.408 . S
C589 C588 1.404 . S
C589 H601 0.930 . S
C590 C586 1.524 . S
C590 H602 0.956 . S
C590 H603 0.961 . S
C590 H604 0.961 . S
C591 C588 1.539 . S
C591 H605 0.958 . S
C591 H606 0.961 . S
C591 H607 0.960 . S
H592 C576 0.931 . S
H593 C581 0.929 . S
H594 C582 0.960 . S
H595 C582 0.962 . S
H596 C582 0.960 . S
H597 C583 0.961 . S
H598 C583 0.961 . S
H599 C583 0.961 . S
H600 C584 0.931 . S
H601 C589 0.930 . S
H602 C590 0.956 . S
H603 C590 0.961 . S
H604 C590 0.961 . S
H605 C591 0.958 . S
H606 C591 0.961 . S
H607 C591 0.960 . S
C608 C609 1.391 . S
C608 C610 1.394 . S
C608 H624 0.931 . S
C609 C608 1.391 . S
C609 C613 1.376 . S
C610 C608 1.394 . S
C610 C611 1.369 . S
C610 C614 1.531 . S
C611 C610 1.369 . S
C611 C612 1.410 . S
C611 C619 1.503 1_455 S
C612 C611 1.410 . S
C612 C613 1.392 . S
C612 C615 1.511 . S
C613 C609 1.376 . S
C613 C612 1.392 . S
C613 H625 0.929 . S
C614 C610 1.531 . S
C614 H626 0.930 1_455 S
C614 H627 0.962 . S
C614 H628 0.960 . S
C615 C612 1.511 . S
C615 H629 0.961 . S
C615 H630 0.961 1_455 S
C615 H631 0.961 . S
C616 C617 1.370 . S
C616 C618 1.363 . S
C616 H632 0.931 . S
C617 C616 1.370 . S
C617 C621 1.408 . S
C618 C616 1.363 . S
C618 C619 1.370 . S
C618 C622 1.524 . S
C619 C611 1.503 1_655 S
C619 C618 1.370 . S
C619 C620 1.403 . S
C620 C619 1.403 . S
C620 C621 1.404 . S
C620 C623 1.539 . S
C621 C617 1.408 . S
C621 C620 1.404 . S
C621 H633 0.930 . S
C622 C618 1.524 . S
C622 H634 0.945 1_655 S
C622 H635 0.961 1_655 S
C622 H636 0.961 . S
C623 C620 1.539 . S
C623 H637 0.958 . S
C623 H638 0.961 . S
C623 H639 0.993 . S
H624 C608 0.931 . S
H625 C613 0.929 . S
H626 C614 0.930 1_655 S
H627 C614 0.962 . S
H628 C614 0.960 . S
H629 C615 0.961 . S
H630 C615 0.961 1_655 S
H631 C615 0.961 . S
H632 C616 0.931 . S
H633 C621 0.930 . S
H634 C622 0.945 1_455 S
H635 C622 0.961 1_455 S
H636 C622 0.961 . S
H637 C623 0.958 . S
H638 C623 0.961 . S
H639 C623 0.993 . S
C640 C641 1.391 . S
C640 C642 1.394 . S
C640 H656 0.931 . S
C641 C640 1.391 . S
C641 C645 1.376 . S
C642 C640 1.394 . S
C642 C643 1.369 . S
C642 C646 1.531 . S
C643 C642 1.369 . S
C643 C644 1.410 . S
C643 C651 1.503 . S
C644 C643 1.410 . S
C644 C645 1.392 . S
C644 C647 1.511 . S
C645 C641 1.376 . S
C645 C644 1.392 . S
C645 H657 0.929 . S
C646 C642 1.531 . S
C646 H658 0.960 . S
C646 H659 0.962 . S
C646 H660 0.960 . S
C647 C644 1.511 . S
C647 H661 0.961 . S
C647 H662 0.961 . S
C647 H663 0.961 . S
C648 C649 1.370 . S
C648 C650 1.363 . S
C648 H664 0.931 . S
C649 C648 1.370 . S
C649 C653 1.408 . S
C650 C648 1.363 . S
C650 C651 1.370 . S
C650 C654 1.524 . S
C651 C643 1.503 . S
C651 C650 1.370 . S
C651 C652 1.403 . S
C652 C651 1.403 . S
C652 C653 1.404 . S
C652 C655 1.539 . S
C653 C649 1.408 . S
C653 C652 1.404 . S
C653 H665 0.930 . S
C654 C650 1.524 . S
C654 H666 0.956 . S
C654 H667 0.961 . S
C654 H668 0.961 . S
C655 C652 1.539 . S
C655 H669 0.958 . S
C655 H670 0.961 . S
C655 H671 0.960 . S
H656 C640 0.931 . S
H657 C645 0.929 . S
H658 C646 0.960 . S
H659 C646 0.962 . S
H660 C646 0.960 . S
H661 C647 0.961 . S
H662 C647 0.961 . S
H663 C647 0.961 . S
H664 C648 0.931 . S
H665 C653 0.930 . S
H666 C654 0.956 . S
H667 C654 0.961 . S
H668 C654 0.961 . S
H669 C655 0.958 . S
H670 C655 0.961 . S
H671 C655 0.960 . S
C672 C673 1.391 . S
C672 C674 1.394 . S
C672 H688 0.931 . S
C673 C672 1.391 . S
C673 C677 1.376 . S
C674 C672 1.394 . S
C674 C675 1.369 . S
C674 C678 1.531 . S
C675 C674 1.369 . S
C675 C676 1.410 . S
C675 C683 1.503 . S
C676 C675 1.410 . S
C676 C677 1.392 . S
C676 C679 1.511 . S
C677 C673 1.376 . S
C677 C676 1.392 . S
C677 H689 0.929 . S
C678 C674 1.531 . S
C678 H690 0.960 . S
C678 H691 0.962 . S
C678 H692 0.960 . S
C679 C676 1.511 . S
C679 H693 0.961 . S
C679 H694 0.961 . S
C679 H695 0.961 . S
C680 C681 1.370 . S
C680 C682 1.363 . S
C680 H696 0.931 . S
C681 C680 1.370 . S
C681 C685 1.408 . S
C682 C680 1.363 . S
C682 C683 1.370 . S
C682 C686 1.524 . S
C683 C675 1.503 . S
C683 C682 1.370 . S
C683 C684 1.403 . S
C684 C683 1.403 . S
C684 C685 1.404 . S
C684 C687 1.539 . S
C685 C681 1.408 . S
C685 C684 1.404 . S
C685 H697 0.930 . S
C686 C682 1.524 . S
C686 H698 0.956 . S
C686 H699 0.961 . S
C686 H700 0.961 . S
C687 C684 1.539 . S
C687 H701 0.958 . S
C687 H702 0.961 . S
C687 H703 0.960 . S
H688 C672 0.931 . S
H689 C677 0.929 . S
H690 C678 0.960 . S
H691 C678 0.962 . S
H692 C678 0.960 . S
H693 C679 0.961 . S
H694 C679 0.961 . S
H695 C679 0.961 . S
H696 C680 0.931 . S
H697 C685 0.930 . S
H698 C686 0.956 . S
H699 C686 0.961 . S
H700 C686 0.961 . S
H701 C687 0.958 . S
H702 C687 0.961 . S
H703 C687 0.960 . S
C704 C705 1.391 . S
C704 C706 1.394 . S
C704 H720 0.931 . S
C705 C704 1.391 . S
C705 C709 1.376 . S
C706 C704 1.394 . S
C706 C707 1.369 . S
C706 C710 1.531 . S
C707 C706 1.369 . S
C707 C708 1.410 . S
C707 C715 1.503 1_455 S
C708 C707 1.410 . S
C708 C709 1.392 . S
C708 C711 1.511 . S
C709 C705 1.376 . S
C709 C708 1.392 . S
C709 H721 0.929 . S
C710 C706 1.531 . S
C710 H722 0.960 . S
C710 H723 0.962 . S
C710 H724 0.960 . S
C711 C708 1.511 . S
C711 H725 0.961 . S
C711 H726 0.961 1_455 S
C711 H727 0.961 . S
C712 C713 1.370 . S
C712 C714 1.363 . S
C712 H728 0.931 . S
C713 C712 1.370 . S
C713 C717 1.408 . S
C714 C712 1.363 . S
C714 C715 1.370 . S
C714 C718 1.524 . S
C715 C707 1.503 1_655 S
C715 C714 1.370 . S
C715 C716 1.403 . S
C716 C715 1.403 . S
C716 C717 1.404 . S
C716 C719 1.539 . S
C717 C713 1.408 . S
C717 C716 1.404 . S
C717 H729 0.930 . S
C718 C714 1.524 . S
C718 H730 0.956 1_655 S
C718 H731 0.961 1_655 S
C718 H732 0.961 . S
C719 C716 1.539 . S
C719 H733 0.958 . S
C719 H734 0.961 . S
C719 H735 0.960 1_655 S
H720 C704 0.931 . S
H721 C709 0.929 . S
H722 C710 0.960 . S
H723 C710 0.962 . S
H724 C710 0.960 . S
H725 C711 0.961 . S
H726 C711 0.961 1_655 S
H727 C711 0.961 . S
H728 C712 0.931 . S
H729 C717 0.930 . S
H730 C718 0.956 1_455 S
H731 C718 0.961 1_455 S
H732 C718 0.961 . S
H733 C719 0.958 . S
H734 C719 0.961 . S
H735 C719 0.960 1_455 S
C736 C737 1.391 . S
C736 C738 1.394 . S
C736 H752 0.931 . S
C737 C736 1.391 . S
C737 C741 1.376 . S
C738 C736 1.394 . S
C738 C739 1.369 . S
C738 C742 1.531 1_554 S
C739 C738 1.369 . S
C739 C740 1.410 . S
C739 C747 1.503 1_554 S
C740 C739 1.410 . S
C740 C741 1.392 . S
C740 C743 1.511 . S
C741 C737 1.376 . S
C741 C740 1.392 . S
C741 H753 0.929 . S
C742 C738 1.531 1_556 S
C742 H754 0.960 . S
C742 H755 0.962 1_556 S
C742 H756 0.960 . S
C743 C740 1.511 . S
C743 H757 0.961 . S
C743 H758 0.961 . S
C743 H759 0.961 1_554 S
C744 C745 1.370 . S
C744 C746 1.363 1_556 S
C744 H760 0.931 1_556 S
C745 C744 1.370 . S
C745 C749 1.408 . S
C746 C744 1.363 1_554 S
C746 C747 1.370 1_554 S
C746 C750 1.524 . S
C747 C739 1.503 1_556 S
C747 C746 1.370 1_556 S
C747 C748 1.403 . S
C748 C747 1.403 . S
C748 C749 1.404 . S
C748 C751 1.539 . S
C749 C745 1.408 . S
C749 C748 1.404 . S
C749 H761 0.930 . S
C750 C746 1.524 . S
C750 H762 0.956 . S
C750 H763 0.961 . S
C750 H764 0.961 . S
C751 C748 1.539 . S
C751 H765 0.958 . S
C751 H766 0.961 . S
C751 H767 0.960 . S
H752 C736 0.931 . S
H753 C741 0.929 . S
H754 C742 0.960 . S
H755 C742 0.962 1_554 S
H756 C742 0.960 . S
H757 C743 0.961 . S
H758 C743 0.961 . S
H759 C743 0.961 1_556 S
H760 C744 0.931 1_554 S
H761 C749 0.930 . S
H762 C750 0.956 . S
H763 C750 0.961 . S
H764 C750 0.961 . S
H765 C751 0.958 . S
H766 C751 0.961 . S
H767 C751 0.960 . S
C768 C769 1.391 . S
C768 C770 1.394 . S
C768 H784 0.931 . S
C769 C768 1.391 . S
C769 C773 1.376 . S
C770 C768 1.394 . S
C770 C771 1.369 . S
C770 C774 1.531 . S
C771 C770 1.369 . S
C771 C772 1.410 . S
C771 C779 1.503 . S
C772 C771 1.410 . S
C772 C773 1.392 . S
C772 C775 1.511 . S
C773 C769 1.376 . S
C773 C772 1.392 . S
C773 H785 0.929 . S
C774 C770 1.531 . S
C774 H786 0.960 . S
C774 H787 0.962 . S
C774 H788 0.960 . S
C775 C772 1.511 . S
C775 H789 0.961 . S
C775 H790 0.961 . S
C775 H791 0.961 . S
C776 C777 1.370 . S
C776 C778 1.363 . S
C776 H792 0.931 . S
C777 C776 1.370 . S
C777 C781 1.408 . S
C778 C776 1.363 . S
C778 C779 1.370 . S
C778 C782 1.524 . S
C779 C771 1.503 . S
C779 C778 1.370 . S
C779 C780 1.403 . S
C780 C779 1.403 . S
C780 C781 1.404 . S
C780 C783 1.539 . S
C781 C777 1.408 . S
C781 C780 1.404 . S
C781 H793 0.930 . S
C782 C778 1.524 . S
C782 H794 0.956 . S
C782 H795 0.961 . S
C782 H796 0.961 . S
C783 C780 1.539 . S
C783 H797 0.958 . S
C783 H798 0.961 . S
C783 H799 0.960 . S
H784 C768 0.931 . S
H785 C773 0.929 . S
H786 C774 0.960 . S
H787 C774 0.962 . S
H788 C774 0.960 . S
H789 C775 0.961 . S
H790 C775 0.961 . S
H791 C775 0.961 . S
H792 C776 0.931 . S
H793 C781 0.930 . S
H794 C782 0.956 . S
H795 C782 0.961 . S
H796 C782 0.961 . S
H797 C783 0.958 . S
H798 C783 0.961 . S
H799 C783 0.960 . S
C800 C801 1.391 . S
C800 C802 1.394 . S
C800 H816 0.931 . S
C801 C800 1.391 . S
C801 C805 1.376 . S
C802 C800 1.394 . S
C802 C803 1.369 . S
C802 C806 1.531 . S
C803 C802 1.369 . S
C803 C804 1.410 . S
C803 C811 1.503 . S
C804 C803 1.410 . S
C804 C805 1.392 . S
C804 C807 1.511 . S
C805 C801 1.376 . S
C805 C804 1.392 . S
C805 H817 0.929 . S
C806 C802 1.531 . S
C806 H818 0.960 . S
C806 H819 0.962 . S
C806 H820 0.960 . S
C807 C804 1.511 . S
C807 H821 0.961 . S
C807 H822 0.961 . S
C807 H823 0.961 . S
C808 C809 1.370 . S
C808 C810 1.363 . S
C808 H824 0.931 . S
C809 C808 1.370 . S
C809 C813 1.408 . S
C810 C808 1.363 . S
C810 C811 1.370 . S
C810 C814 1.524 . S
C811 C803 1.503 . S
C811 C810 1.370 . S
C811 C812 1.403 . S
C812 C811 1.403 . S
C812 C813 1.404 . S
C812 C815 1.539 . S
C813 C809 1.408 . S
C813 C812 1.404 . S
C813 H825 0.930 . S
C814 C810 1.524 . S
C814 H826 0.956 . S
C814 H827 0.961 . S
C814 H828 0.961 . S
C815 C812 1.539 . S
C815 H829 0.958 . S
C815 H830 0.961 . S
C815 H831 0.960 . S
H816 C800 0.931 . S
H817 C805 0.929 . S
H818 C806 0.960 . S
H819 C806 0.962 . S
H820 C806 0.960 . S
H821 C807 0.961 . S
H822 C807 0.961 . S
H823 C807 0.961 . S
H824 C808 0.931 . S
H825 C813 0.930 . S
H826 C814 0.956 . S
H827 C814 0.961 . S
H828 C814 0.961 . S
H829 C815 0.958 . S
H830 C815 0.961 . S
H831 C815 0.960 . S
C832 C833 1.391 . S
C832 C834 1.394 . S
C832 H848 0.931 . S
C833 C832 1.391 . S
C833 C837 1.376 . S
C834 C832 1.394 . S
C834 C835 1.369 . S
C834 C838 1.531 . S
C835 C834 1.369 . S
C835 C836 1.410 . S
C835 C843 1.503 . S
C836 C835 1.410 . S
C836 C837 1.392 . S
C836 C839 1.511 . S
C837 C833 1.376 . S
C837 C836 1.392 . S
C837 H849 0.929 . S
C838 C834 1.531 . S
C838 H850 0.960 . S
C838 H851 0.962 . S
C838 H852 0.960 . S
C839 C836 1.511 . S
C839 H853 0.961 . S
C839 H854 0.961 . S
C839 H855 0.961 . S
C840 C841 1.370 . S
C840 C842 1.363 . S
C840 H856 0.931 . S
C841 C840 1.370 . S
C841 C845 1.408 . S
C842 C840 1.363 . S
C842 C843 1.370 . S
C842 C846 1.524 . S
C843 C835 1.503 . S
C843 C842 1.370 . S
C843 C844 1.403 . S
C844 C843 1.403 . S
C844 C845 1.404 . S
C844 C847 1.539 . S
C845 C841 1.408 . S
C845 C844 1.404 . S
C845 H857 0.930 . S
C846 C842 1.524 . S
C846 H858 0.956 . S
C846 H859 0.961 . S
C846 H860 0.961 . S
C847 C844 1.539 . S
C847 H861 0.958 . S
C847 H862 0.961 . S
C847 H863 0.960 . S
H848 C832 0.931 . S
H849 C837 0.929 . S
H850 C838 0.960 . S
H851 C838 0.962 . S
H852 C838 0.960 . S
H853 C839 0.961 . S
H854 C839 0.961 . S
H855 C839 0.961 . S
H856 C840 0.931 . S
H857 C845 0.930 . S
H858 C846 0.956 . S
H859 C846 0.961 . S
H860 C846 0.961 . S
H861 C847 0.958 . S
H862 C847 0.961 . S
H863 C847 0.960 . S
C864 C865 1.391 . S
C864 C866 1.394 1_556 S
C864 H880 0.931 . S
C865 C864 1.391 . S
C865 C869 1.376 . S
C866 C864 1.394 1_554 S
C866 C867 1.372 . S
C866 C870 1.531 . S
C867 C866 1.372 . S
C867 C868 1.397 1_554 S
C867 C875 1.511 . S
C868 C867 1.397 1_556 S
C868 C869 1.392 . S
C868 C871 1.511 . S
C869 C865 1.376 . S
C869 C868 1.392 . S
C869 H881 0.929 . S
C870 C866 1.531 . S
C870 H882 0.960 . S
C870 H883 0.962 . S
C870 H884 0.960 . S
C871 C868 1.511 . S
C871 H885 0.961 . S
C871 H886 0.961 . S
C871 H887 0.961 . S
C872 C873 1.370 . S
C872 C874 1.363 . S
C872 H888 0.931 . S
C873 C872 1.370 . S
C873 C877 1.408 . S
C874 C872 1.363 . S
C874 C875 1.370 . S
C874 C878 1.524 1_554 S
C875 C867 1.511 . S
C875 C874 1.370 . S
C875 C876 1.403 . S
C876 C875 1.403 . S
C876 C877 1.404 . S
C876 C879 1.539 . S
C877 C873 1.408 . S
C877 C876 1.404 . S
C877 H889 0.930 . S
C878 C874 1.524 1_556 S
C878 H890 0.956 . S
C878 H891 0.961 . S
C878 H892 0.961 . S
C879 C876 1.539 . S
C879 H893 0.958 . S
C879 H894 0.961 . S
C879 H895 0.960 . S
H880 C864 0.931 . S
H881 C869 0.929 . S
H882 C870 0.960 . S
H883 C870 0.962 . S
H884 C870 0.960 . S
H885 C871 0.961 . S
H886 C871 0.961 . S
H887 C871 0.961 . S
H888 C872 0.931 . S
H889 C877 0.930 . S
H890 C878 0.956 . S
H891 C878 0.961 . S
H892 C878 0.961 . S
H893 C879 0.958 . S
H894 C879 0.961 . S
H895 C879 0.960 . S
C896 C897 1.391 . S
C896 C898 1.394 . S
C896 H912 0.931 . S
C897 C896 1.391 . S
C897 C901 1.376 . S
C898 C896 1.394 . S
C898 C899 1.369 . S
C898 C902 1.531 . S
C899 C898 1.369 . S
C899 C900 1.410 . S
C899 C907 1.503 . S
C900 C899 1.410 . S
C900 C901 1.392 . S
C900 C903 1.511 . S
C901 C897 1.376 . S
C901 C900 1.392 . S
C901 H913 0.929 . S
C902 C898 1.531 . S
C902 H914 0.960 . S
C902 H915 0.962 . S
C902 H916 0.960 . S
C903 C900 1.511 . S
C903 H917 0.961 . S
C903 H918 0.961 . S
C903 H919 0.961 . S
C904 C905 1.370 . S
C904 C906 1.363 . S
C904 H920 0.931 . S
C905 C904 1.370 . S
C905 C909 1.408 . S
C906 C904 1.363 . S
C906 C907 1.370 . S
C906 C910 1.524 . S
C907 C899 1.503 . S
C907 C906 1.370 . S
C907 C908 1.403 . S
C908 C907 1.403 . S
C908 C909 1.404 . S
C908 C911 1.539 . S
C909 C905 1.408 . S
C909 C908 1.404 . S
C909 H921 0.930 . S
C910 C906 1.524 . S
C910 H922 0.956 . S
C910 H923 0.961 . S
C910 H924 0.961 . S
C911 C908 1.539 . S
C911 H925 0.958 . S
C911 H926 0.961 . S
C911 H927 0.960 . S
H912 C896 0.931 . S
H913 C901 0.929 . S
H914 C902 0.960 . S
H915 C902 0.962 . S
H916 C902 0.960 . S
H917 C903 0.961 . S
H918 C903 0.961 . S
H919 C903 0.961 . S
H920 C904 0.931 . S
H921 C909 0.930 . S
H922 C910 0.956 . S
H923 C910 0.961 . S
H924 C910 0.961 . S
H925 C911 0.958 . S
H926 C911 0.961 . S
H927 C911 0.960 . S
C928 C929 1.391 . S
C928 C930 1.394 . S
C928 H944 0.931 . S
C929 C928 1.391 . S
C929 C933 1.376 . S
C930 C928 1.394 . S
C930 C931 1.369 . S
C930 C934 1.531 . S
C931 C930 1.369 . S
C931 C932 1.410 . S
C931 C939 1.503 . S
C932 C931 1.410 . S
C932 C933 1.392 . S
C932 C935 1.511 . S
C933 C929 1.376 . S
C933 C932 1.392 . S
C933 H945 0.929 . S
C934 C930 1.531 . S
C934 H946 0.960 . S
C934 H947 0.962 . S
C934 H948 0.960 . S
C935 C932 1.511 . S
C935 H949 0.961 . S
C935 H950 0.961 . S
C935 H951 0.961 . S
C936 C937 1.370 . S
C936 C938 1.363 . S
C936 H952 0.931 . S
C937 C936 1.370 . S
C937 C941 1.408 . S
C938 C936 1.363 . S
C938 C939 1.370 . S
C938 C942 1.524 . S
C939 C931 1.503 . S
C939 C938 1.370 . S
C939 C940 1.403 . S
C940 C939 1.403 . S
C940 C941 1.404 . S
C940 C943 1.539 . S
C941 C937 1.408 . S
C941 C940 1.404 . S
C941 H953 0.930 . S
C942 C938 1.524 . S
C942 H954 0.956 . S
C942 H955 0.961 . S
C942 H956 0.961 . S
C943 C940 1.539 . S
C943 H957 0.958 . S
C943 H958 0.961 . S
C943 H959 0.960 . S
H944 C928 0.931 . S
H945 C933 0.929 . S
H946 C934 0.960 . S
H947 C934 0.962 . S
H948 C934 0.960 . S
H949 C935 0.961 . S
H950 C935 0.961 . S
H951 C935 0.961 . S
H952 C936 0.931 . S
H953 C941 0.930 . S
H954 C942 0.956 . S
H955 C942 0.961 . S
H956 C942 0.961 . S
H957 C943 0.958 . S
H958 C943 0.961 . S
H959 C943 0.960 . S
C960 C961 1.391 . S
C960 C962 1.394 . S
C960 H976 0.931 . S
C961 C960 1.391 . S
C961 C965 1.376 . S
C962 C960 1.394 . S
C962 C963 1.369 . S
C962 C966 1.531 . S
C963 C962 1.369 . S
C963 C964 1.410 . S
C963 C971 1.503 . S
C964 C963 1.410 . S
C964 C965 1.392 . S
C964 C967 1.511 . S
C965 C961 1.376 . S
C965 C964 1.392 . S
C965 H977 0.929 . S
C966 C962 1.531 . S
C966 H978 0.960 . S
C966 H979 0.962 . S
C966 H980 0.960 . S
C967 C964 1.511 . S
C967 H981 0.961 . S
C967 H982 0.961 . S
C967 H983 0.961 . S
C968 C969 1.370 . S
C968 C970 1.363 . S
C968 H984 0.931 . S
C969 C968 1.370 . S
C969 C973 1.408 . S
C970 C968 1.363 . S
C970 C971 1.370 . S
C970 C974 1.524 . S
C971 C963 1.503 . S
C971 C970 1.370 . S
C971 C972 1.403 . S
C972 C971 1.403 . S
C972 C973 1.404 . S
C972 C975 1.539 . S
C973 C969 1.408 . S
C973 C972 1.404 . S
C973 H985 0.930 . S
C974 C970 1.524 . S
C974 H986 0.956 . S
C974 H987 0.961 . S
C974 H988 0.961 . S
C975 C972 1.539 . S
C975 H989 0.958 . S
C975 H990 0.961 . S
C975 H991 0.960 . S
H976 C960 0.931 . S
H977 C965 0.929 . S
H978 C966 0.960 . S
H979 C966 0.962 . S
H980 C966 0.960 . S
H981 C967 0.961 . S
H982 C967 0.961 . S
H983 C967 0.961 . S
H984 C968 0.931 . S
H985 C973 0.930 . S
H986 C974 0.956 . S
H987 C974 0.961 . S
H988 C974 0.961 . S
H989 C975 0.958 . S
H990 C975 0.961 . S
H991 C975 0.960 . S
C992 C993 1.391 . S
C992 C994 1.394 . S
C992 H1008 0.931 . S
C993 C992 1.391 . S
C993 C997 1.376 . S
C994 C992 1.394 . S
C994 C995 1.369 . S
C994 C998 1.531 . S
C995 C994 1.369 . S
C995 C996 1.410 . S
C995 C1003 1.503 1_545 S
C996 C995 1.410 . S
C996 C997 1.392 . S
C996 C999 1.511 1_545 S
C997 C993 1.376 . S
C997 C996 1.392 . S
C997 H1009 0.929 . S
C998 C994 1.531 . S
C998 H1010 0.960 . S
C998 H1011 0.962 . S
C998 H1012 0.960 . S
C999 C996 1.511 1_565 S
C999 H1013 0.961 . S
C999 H1014 0.961 . S
C999 H1015 0.961 . S
C1000 C1001 1.370 . S
C1000 C1002 1.363 . S
C1000 H1016 0.931 . S
C1001 C1000 1.370 . S
C1001 C1005 1.408 . S
C1002 C1000 1.363 . S
C1002 C1003 1.370 . S
C1002 C1006 1.524 . S
C1003 C995 1.503 1_565 S
C1003 C1002 1.370 . S
C1003 C1004 1.403 . S
C1004 C1003 1.403 . S
C1004 C1005 1.404 . S
C1004 C1007 1.539 . S
C1005 C1001 1.408 . S
C1005 C1004 1.404 . S
C1005 H1017 0.930 . S
C1006 C1002 1.524 . S
C1006 H1018 0.956 1_565 S
C1006 H1019 0.961 1_565 S
C1006 H1020 0.961 . S
C1007 C1004 1.539 . S
C1007 H1021 0.958 . S
C1007 H1022 0.961 . S
C1007 H1023 0.960 . S
H1008 C992 0.931 . S
H1009 C997 0.929 . S
H1010 C998 0.960 . S
H1011 C998 0.962 . S
H1012 C998 0.960 . S
H1013 C999 0.961 . S
H1014 C999 0.961 . S
H1015 C999 0.961 . S
H1016 C1000 0.931 . S
H1017 C1005 0.930 . S
H1018 C1006 0.956 1_545 S
H1019 C1006 0.961 1_545 S
H1020 C1006 0.961 . S
H1021 C1007 0.958 . S
H1022 C1007 0.961 . S
H1023 C1007 0.960 . S
C1024 C1025 1.391 . S
C1024 C1026 1.394 . S
C1024 H1040 0.931 . S
C1025 C1024 1.391 . S
C1025 C1029 1.376 . S
C1026 C1024 1.394 . S
C1026 C1027 1.369 . S
C1026 C1030 1.531 . S
C1027 C1026 1.369 . S
C1027 C1028 1.410 . S
C1027 C1035 1.503 . S
C1028 C1027 1.410 . S
C1028 C1029 1.392 . S
C1028 C1031 1.511 . S
C1029 C1025 1.376 . S
C1029 C1028 1.392 . S
C1029 H1041 0.929 . S
C1030 C1026 1.531 . S
C1030 H1042 0.960 . S
C1030 H1043 0.962 . S
C1030 H1044 0.960 . S
C1031 C1028 1.511 . S
C1031 H1045 0.961 . S
C1031 H1046 0.961 . S
C1031 H1047 0.961 . S
C1032 C1033 1.370 . S
C1032 C1034 1.363 . S
C1032 H1048 0.931 . S
C1033 C1032 1.370 . S
C1033 C1037 1.408 . S
C1034 C1032 1.363 . S
C1034 C1035 1.370 . S
C1034 C1038 1.524 . S
C1035 C1027 1.503 . S
C1035 C1034 1.370 . S
C1035 C1036 1.403 . S
C1036 C1035 1.403 . S
C1036 C1037 1.404 . S
C1036 C1039 1.539 . S
C1037 C1033 1.408 . S
C1037 C1036 1.404 . S
C1037 H1049 0.930 . S
C1038 C1034 1.524 . S
C1038 H1050 0.956 . S
C1038 H1051 0.961 . S
C1038 H1052 0.961 . S
C1039 C1036 1.539 . S
C1039 H1053 0.958 . S
C1039 H1054 0.961 . S
C1039 H1055 0.960 . S
H1040 C1024 0.931 . S
H1041 C1029 0.929 . S
H1042 C1030 0.960 . S
H1043 C1030 0.962 . S
H1044 C1030 0.960 . S
H1045 C1031 0.961 . S
H1046 C1031 0.961 . S
H1047 C1031 0.961 . S
H1048 C1032 0.931 . S
H1049 C1037 0.930 . S
H1050 C1038 0.956 . S
H1051 C1038 0.961 . S
H1052 C1038 0.961 . S
H1053 C1039 0.958 . S
H1054 C1039 0.961 . S
H1055 C1039 0.960 . S
C1056 C1057 1.391 . S
C1056 C1058 1.394 . S
C1056 H1072 0.931 . S
C1057 C1056 1.391 . S
C1057 C1061 1.376 . S
C1058 C1056 1.394 . S
C1058 C1059 1.369 . S
C1058 C1062 1.531 . S
C1059 C1058 1.369 . S
C1059 C1060 1.410 . S
C1059 C1067 1.503 1_546 S
C1060 C1059 1.410 . S
C1060 C1061 1.392 . S
C1060 C1063 1.511 . S
C1061 C1057 1.376 . S
C1061 C1060 1.392 . S
C1061 H1073 0.929 . S
C1062 C1058 1.531 . S
C1062 H1074 0.960 1_545 S
C1062 H1075 0.962 . S
C1062 H1076 0.960 . S
C1063 C1060 1.511 . S
C1063 H1077 0.961 1_556 S
C1063 H1078 0.961 1_556 S
C1063 H1079 0.961 . S
C1064 C1065 1.370 . S
C1064 C1066 1.363 . S
C1064 H1080 0.931 . S
C1065 C1064 1.370 . S
C1065 C1069 1.408 . S
C1066 C1064 1.363 . S
C1066 C1067 1.370 . S
C1066 C1070 1.524 1_565 S
C1067 C1059 1.503 1_564 S
C1067 C1066 1.370 . S
C1067 C1068 1.403 1_554 S
C1068 C1067 1.403 1_556 S
C1068 C1069 1.404 1_556 S
C1068 C1071 1.539 . S
C1069 C1065 1.408 . S
C1069 C1068 1.404 1_554 S
C1069 H1081 0.930 1_554 S
C1070 C1066 1.524 1_545 S
C1070 H1082 0.956 . S
C1070 H1083 0.961 . S
C1070 H1084 0.961 . S
C1071 C1068 1.539 . S
C1071 H1085 0.958 . S
C1071 H1086 0.961 . S
C1071 H1087 0.960 . S
H1072 C1056 0.931 . S
H1073 C1061 0.929 . S
H1074 C1062 0.960 1_565 S
H1075 C1062 0.962 . S
H1076 C1062 0.960 . S
H1077 C1063 0.961 1_554 S
H1078 C1063 0.961 1_554 S
H1079 C1063 0.961 . S
H1080 C1064 0.931 . S
H1081 C1069 0.930 1_556 S
H1082 C1070 0.956 . S
H1083 C1070 0.961 . S
H1084 C1070 0.961 . S
H1085 C1071 0.958 . S
H1086 C1071 0.961 . S
H1087 C1071 0.960 . S
C1088 C1089 1.391 . S
C1088 C1090 1.394 . S
C1088 H1104 0.931 . S
C1089 C1088 1.391 . S
C1089 C1093 1.376 . S
C1090 C1088 1.394 . S
C1090 C1091 1.369 . S
C1090 C1094 1.531 . S
C1091 C1090 1.369 . S
C1091 C1092 1.410 . S
C1091 C1099 1.503 . S
C1092 C1091 1.410 . S
C1092 C1093 1.392 . S
C1092 C1095 1.511 . S
C1093 C1089 1.376 . S
C1093 C1092 1.392 . S
C1093 H1105 0.929 . S
C1094 C1090 1.531 . S
C1094 H1106 0.960 . S
C1094 H1107 0.962 . S
C1094 H1108 0.960 . S
C1095 C1092 1.511 . S
C1095 H1109 0.961 . S
C1095 H1110 0.961 . S
C1095 H1111 0.961 . S
C1096 C1097 1.370 . S
C1096 C1098 1.363 . S
C1096 H1112 0.931 . S
C1097 C1096 1.370 . S
C1097 C1101 1.408 . S
C1098 C1096 1.363 . S
C1098 C1099 1.370 . S
C1098 C1102 1.524 . S
C1099 C1091 1.503 . S
C1099 C1098 1.370 . S
C1099 C1100 1.403 . S
C1100 C1099 1.403 . S
C1100 C1101 1.404 . S
C1100 C1103 1.539 . S
C1101 C1097 1.408 . S
C1101 C1100 1.404 . S
C1101 H1113 0.930 . S
C1102 C1098 1.524 . S
C1102 H1114 0.956 . S
C1102 H1115 0.961 . S
C1102 H1116 0.961 . S
C1103 C1100 1.539 . S
C1103 H1117 0.958 . S
C1103 H1118 0.961 . S
C1103 H1119 0.960 . S
H1104 C1088 0.931 . S
H1105 C1093 0.929 . S
H1106 C1094 0.960 . S
H1107 C1094 0.962 . S
H1108 C1094 0.960 . S
H1109 C1095 0.961 . S
H1110 C1095 0.961 . S
H1111 C1095 0.961 . S
H1112 C1096 0.931 . S
H1113 C1101 0.930 . S
H1114 C1102 0.956 . S
H1115 C1102 0.961 . S
H1116 C1102 0.961 . S
H1117 C1103 0.958 . S
H1118 C1103 0.961 . S
H1119 C1103 0.960 . S
C1120 C1121 1.391 . S
C1120 C1122 1.394 . S
C1120 H1136 0.931 . S
C1121 C1120 1.391 . S
C1121 C1125 1.376 . S
C1122 C1120 1.394 . S
C1122 C1123 1.369 . S
C1122 C1126 1.531 . S
C1123 C1122 1.369 . S
C1123 C1124 1.410 . S
C1123 C1131 1.503 1_545 S
C1124 C1123 1.410 . S
C1124 C1125 1.392 . S
C1124 C1127 1.504 1_545 S
C1125 C1121 1.376 . S
C1125 C1124 1.392 . S
C1125 H1137 0.929 . S
C1126 C1122 1.531 . S
C1126 H1138 0.960 . S
C1126 H1139 0.962 . S
C1126 H1140 0.960 . S
C1127 C1124 1.504 1_565 S
C1127 H1141 0.959 1_565 S
C1127 H1142 0.971 . S
C1127 H1143 0.958 1_565 S
C1128 C1129 1.370 . S
C1128 C1130 1.363 . S
C1128 H1144 0.931 . S
C1129 C1128 1.370 . S
C1129 C1133 1.408 . S
C1130 C1128 1.363 . S
C1130 C1131 1.370 . S
C1130 C1134 1.524 . S
C1131 C1123 1.503 1_565 S
C1131 C1130 1.370 . S
C1131 C1132 1.403 . S
C1132 C1131 1.403 . S
C1132 C1133 1.404 . S
C1132 C1135 1.539 1_565 S
C1133 C1129 1.408 . S
C1133 C1132 1.404 . S
C1133 H1145 0.930 . S
C1134 C1130 1.524 . S
C1134 H1146 0.956 . S
C1134 H1147 0.961 . S
C1134 H1148 0.961 . S
C1135 C1132 1.539 1_545 S
C1135 H1149 0.958 . S
C1135 H1150 0.942 1_545 S
C1135 H1151 0.960 . S
H1136 C1120 0.931 . S
H1137 C1125 0.929 . S
H1138 C1126 0.960 . S
H1139 C1126 0.962 . S
H1140 C1126 0.960 . S
H1141 C1127 0.959 1_545 S
H1142 C1127 0.971 . S
H1143 C1127 0.958 1_545 S
H1144 C1128 0.931 . S
H1145 C1133 0.930 . S
H1146 C1134 0.956 . S
H1147 C1134 0.961 . S
H1148 C1134 0.961 . S
H1149 C1135 0.958 . S
H1150 C1135 0.942 1_565 S
H1151 C1135 0.960 . S
C1152 C1153 1.391 . S
C1152 C1154 1.394 . S
C1152 H1168 0.931 . S
C1153 C1152 1.391 . S
C1153 C1157 1.376 . S
C1154 C1152 1.394 . S
C1154 C1155 1.369 . S
C1154 C1158 1.531 . S
C1155 C1154 1.369 . S
C1155 C1156 1.410 . S
C1155 C1163 1.503 . S
C1156 C1155 1.410 . S
C1156 C1157 1.392 . S
C1156 C1159 1.511 . S
C1157 C1153 1.376 . S
C1157 C1156 1.392 . S
C1157 H1169 0.929 . S
C1158 C1154 1.531 . S
C1158 H1170 0.960 . S
C1158 H1171 0.962 . S
C1158 H1172 0.960 . S
C1159 C1156 1.511 . S
C1159 H1173 0.961 . S
C1159 H1174 0.961 . S
C1159 H1175 0.961 . S
C1160 C1161 1.370 . S
C1160 C1162 1.363 . S
C1160 H1176 0.931 . S
C1161 C1160 1.370 . S
C1161 C1165 1.408 . S
C1162 C1160 1.363 . S
C1162 C1163 1.370 . S
C1162 C1166 1.524 . S
C1163 C1155 1.503 . S
C1163 C1162 1.370 . S
C1163 C1164 1.403 . S
C1164 C1163 1.403 . S
C1164 C1165 1.404 . S
C1164 C1167 1.539 . S
C1165 C1161 1.408 . S
C1165 C1164 1.404 . S
C1165 H1177 0.930 . S
C1166 C1162 1.524 . S
C1166 H1178 0.956 . S
C1166 H1179 0.961 . S
C1166 H1180 0.961 . S
C1167 C1164 1.539 . S
C1167 H1181 0.958 . S
C1167 H1182 0.961 . S
C1167 H1183 0.960 . S
H1168 C1152 0.931 . S
H1169 C1157 0.929 . S
H1170 C1158 0.960 . S
H1171 C1158 0.962 . S
H1172 C1158 0.960 . S
H1173 C1159 0.961 . S
H1174 C1159 0.961 . S
H1175 C1159 0.961 . S
H1176 C1160 0.931 . S
H1177 C1165 0.930 . S
H1178 C1166 0.956 . S
H1179 C1166 0.961 . S
H1180 C1166 0.961 . S
H1181 C1167 0.958 . S
H1182 C1167 0.961 . S
H1183 C1167 0.960 . S
C1184 C1185 1.391 . S
C1184 C1186 1.394 . S
C1184 H1200 0.931 . S
C1185 C1184 1.391 . S
C1185 C1189 1.376 . S
C1186 C1184 1.394 . S
C1186 C1187 1.355 1_554 S
C1186 C1190 1.531 1_565 S
C1187 C1186 1.355 1_556 S
C1187 C1188 1.413 . S
C1187 C1195 1.513 1_565 S
C1188 C1187 1.413 . S
C1188 C1189 1.392 1_556 S
C1188 C1191 1.511 . S
C1189 C1185 1.376 . S
C1189 C1188 1.392 1_554 S
C1189 H1201 0.929 . S
C1190 C1186 1.531 1_545 S
C1190 H1202 0.960 . S
C1190 H1203 0.962 . S
C1190 H1204 0.960 1_545 S
C1191 C1188 1.511 . S
C1191 H1205 0.961 . S
C1191 H1206 0.961 . S
C1191 H1207 0.961 . S
C1192 C1193 1.370 . S
C1192 C1194 1.363 . S
C1192 H1208 0.931 . S
C1193 C1192 1.370 . S
C1193 C1197 1.408 . S
C1194 C1192 1.363 . S
C1194 C1195 1.370 . S
C1194 C1198 1.524 1_556 S
C1195 C1187 1.513 1_545 S
C1195 C1194 1.370 . S
C1195 C1196 1.403 . S
C1196 C1195 1.403 . S
C1196 C1197 1.404 . S
C1196 C1199 1.539 1_545 S
C1197 C1193 1.408 . S
C1197 C1196 1.404 . S
C1197 H1209 0.930 . S
C1198 C1194 1.524 1_554 S
C1198 H1210 0.956 . S
C1198 H1211 0.961 . S
C1198 H1212 0.961 . S
C1199 C1196 1.539 1_565 S
C1199 H1213 0.958 . S
C1199 H1214 0.961 . S
C1199 H1215 0.960 . S
H1200 C1184 0.931 . S
H1201 C1189 0.929 . S
H1202 C1190 0.960 . S
H1203 C1190 0.962 . S
H1204 C1190 0.960 1_565 S
H1205 C1191 0.961 . S
H1206 C1191 0.961 . S
H1207 C1191 0.961 . S
H1208 C1192 0.931 . S
H1209 C1197 0.930 . S
H1210 C1198 0.956 . S
H1211 C1198 0.961 . S
H1212 C1198 0.961 . S
H1213 C1199 0.958 . S
H1214 C1199 0.961 . S
H1215 C1199 0.960 . S
C1216 C1217 1.391 . S
C1216 C1218 1.394 . S
C1216 H1232 0.931 . S
C1217 C1216 1.391 . S
C1217 C1221 1.376 . S
C1218 C1216 1.394 . S
C1218 C1219 1.369 . S
C1218 C1222 1.531 . S
C1219 C1218 1.369 . S
C1219 C1220 1.410 . S
C1219 C1227 1.503 . S
C1220 C1219 1.410 . S
C1220 C1221 1.392 . S
C1220 C1223 1.511 . S
C1221 C1217 1.376 . S
C1221 C1220 1.392 . S
C1221 H1233 0.929 . S
C1222 C1218 1.531 . S
C1222 H1234 0.960 . S
C1222 H1235 0.962 . S
C1222 H1236 0.960 . S
C1223 C1220 1.511 . S
C1223 H1237 0.961 . S
C1223 H1238 0.961 . S
C1223 H1239 0.961 . S
C1224 C1225 1.370 . S
C1224 C1226 1.363 . S
C1224 H1240 0.931 . S
C1225 C1224 1.370 . S
C1225 C1229 1.408 . S
C1226 C1224 1.363 . S
C1226 C1227 1.370 . S
C1226 C1230 1.524 . S
C1227 C1219 1.503 . S
C1227 C1226 1.370 . S
C1227 C1228 1.403 . S
C1228 C1227 1.403 . S
C1228 C1229 1.404 . S
C1228 C1231 1.539 . S
C1229 C1225 1.408 . S
C1229 C1228 1.404 . S
C1229 H1241 0.930 . S
C1230 C1226 1.524 . S
C1230 H1242 0.956 . S
C1230 H1243 0.961 . S
C1230 H1244 0.961 . S
C1231 C1228 1.539 . S
C1231 H1245 0.958 . S
C1231 H1246 0.961 . S
C1231 H1247 0.960 . S
H1232 C1216 0.931 . S
H1233 C1221 0.929 . S
H1234 C1222 0.960 . S
H1235 C1222 0.962 . S
H1236 C1222 0.960 . S
H1237 C1223 0.961 . S
H1238 C1223 0.961 . S
H1239 C1223 0.961 . S
H1240 C1224 0.931 . S
H1241 C1229 0.930 . S
H1242 C1230 0.956 . S
H1243 C1230 0.961 . S
H1244 C1230 0.961 . S
H1245 C1231 0.958 . S
H1246 C1231 0.961 . S
H1247 C1231 0.960 . S
C225 C159 1.331 . S
C233 C5 1.340 . S
C257 C215 1.390 . S
C265 C23 1.392 . S
C289 C33 1.388 . S
C297 C135 1.376 . S
C321 C187 1.371 . S
C329 C51 1.364 . S
C353 C61 1.353 . S
C361 C191 1.341 . S
C385 C79 1.381 . S
C393 C163 1.386 . S
C417 C89 1.372 . S
C425 C219 1.373 . S
C449 C107 1.351 . S
C457 C131 1.375 . S
C481 C47 1.335 . S
C489 C117 1.339 . S
C513 C145 1.296 . S
C521 C19 1.299 . S
C545 C177 1.339 . S
C553 C75 1.336 . S
C577 C201 1.288 . S
C585 C103 1.294 . S
C609 C65 1.441 . S
C617 C121 1.435 . S
C641 C149 1.381 . S
C649 C93 1.398 . S
C673 C205 1.405 . S
C681 C37 1.424 . S
C705 C9 1.412 . S
C713 C173 1.410 . S
C737 C11 1.264 . S
C745 C67 1.261 . S
C769 C14 1.333 . S
C777 C70 1.335 . S
C801 C39 1.340 . S
C809 C95 1.337 . S
C833 C98 1.277 . S
C841 C42 1.271 . S
C865 C123 1.301 . S
C873 C168 1.300 . S
C897 C193 1.248 . S
C905 C137 1.248 . S
C929 C151 1.249 . S
C937 C207 1.252 . S
C961 C221 1.299 . S
C969 C154 1.296 . S
C993 C109 1.182 . S
C1001 C25 1.178 . S
C1025 C28 1.415 . S
C1033 C56 1.417 . S
C1057 C53 1.238 . S
C1065 C81 1.248 . S
C1089 C0 1.369 . S
C1097 C84 1.360 . S
C1121 C126 1.333 . S
C1129 C210 1.339 . S
C1153 C179 1.262 . S
C1161 C140 1.263 . S
C1185 C165 1.294 . S
C1193 C182 1.285 . S
C1217 C196 1.302 . S
C1225 C112 1.314 . S
