# Generated by pormake.
# Topology srs, (3)-cn, num edge types: 1
# Building blocks:
#     Node 0, Type 0, BuildingBlock: WUSLED_clean_sbu_0, # of connection points: 3
#     Node 1, Type 0, BuildingBlock: WUSLED_clean_sbu_0, # of connection points: 3
#     Node 2, Type 0, BuildingBlock: WUSLED_clean_sbu_0, # of connection points: 3
#     Node 3, Type 0, BuildingBlock: WUSLED_clean_sbu_0, # of connection points: 3
#     Node 4, Type 0, BuildingBlock: WUSLED_clean_sbu_0, # of connection points: 3
#     Node 5, Type 0, BuildingBlock: WUSLED_clean_sbu_0, # of connection points: 3
#     Node 6, Type 0, BuildingBlock: WUSLED_clean_sbu_0, # of connection points: 3
#     Node 7, Type 0, BuildingBlock: WUSLED_clean_sbu_0, # of connection points: 3
#     Edge 8, Type (0, 0), BuildingBlock: XUDNAN_clean_linker_2, # of connection points: 2
#     Edge 9, Type (0, 0), BuildingBlock: XUDNAN_clean_linker_2, # of connection points: 2
#     Edge 10, Type (0, 0), BuildingBlock: XUDNAN_clean_linker_2, # of connection points: 2
#     Edge 11, Type (0, 0), BuildingBlock: XUDNAN_clean_linker_2, # of connection points: 2
#     Edge 12, Type (0, 0), BuildingBlock: XUDNAN_clean_linker_2, # of connection points: 2
#     Edge 13, Type (0, 0), BuildingBlock: XUDNAN_clean_linker_2, # of connection points: 2
#     Edge 14, Type (0, 0), BuildingBlock: XUDNAN_clean_linker_2, # of connection points: 2
#     Edge 15, Type (0, 0), BuildingBlock: XUDNAN_clean_linker_2, # of connection points: 2
#     Edge 16, Type (0, 0), BuildingBlock: XUDNAN_clean_linker_2, # of connection points: 2
#     Edge 17, Type (0, 0), BuildingBlock: XUDNAN_clean_linker_2, # of connection points: 2
#     Edge 18, Type (0, 0), BuildingBlock: XUDNAN_clean_linker_2, # of connection points: 2
#     Edge 19, Type (0, 0), BuildingBlock: XUDNAN_clean_linker_2, # of connection points: 2
# Relax obj value: 0.000
# Max RMSD: 0.008
# Mean RMSD: 0.008
data_MOF--net-srs--node1-WUSLED_clean_sbu_0--edge1-XUDNAN_clean_linker_2
_symmetry_space_group_name_H-M    P1
_symmetry_Int_Tables_number       1
_symmetry_cell_setting            triclinic
loop_
_symmetry_equiv_pos_as_xyz
'x, y, z'
_cell_length_a     65.471331
_cell_length_b     66.468872
_cell_length_c     66.165576
_cell_angle_alpha  89.716001
_cell_angle_beta   89.752879
_cell_angle_gamma 89.902221
loop_
_atom_site_label
_atom_site_type_symbol
_atom_site_fract_x
_atom_site_fract_y
_atom_site_fract_z
_atom_type_partial_charge
C0 C 0.12955 0.09727 0.18246 0.0
C1 C 0.14945 0.08973 0.18492 0.0
C2 C 0.13755 0.06577 0.21082 0.0
C3 C 0.15339 0.07416 0.1989 0.0
C4 C 0.11759 0.07315 0.20789 0.0
C5 C 0.11369 0.08865 0.19393 0.0
U6 U 0.13678 0.13429 0.13624 0.0
O7 O 0.11242 0.14805 0.11762 0.0
O8 O 0.13221 0.16716 0.13595 0.0
C9 C 0.11647 0.1664 0.12371 0.0
C10 C 0.12484 0.1148 0.16916 0.0
C11 C 0.09882 0.1798 0.12831 0.0
C12 C 0.07617 0.19724 0.15188 0.0
C13 C 0.09169 0.18304 0.14809 0.0
C14 C 0.07436 0.20489 0.11619 0.0
C15 C 0.06743 0.20863 0.13601 0.0
C16 C 0.0898 0.1907 0.11243 0.0
C17 C 0.18112 0.12685 0.09672 0.0
C18 C 0.18534 0.12736 0.05997 0.0
C19 C 0.21425 0.13471 0.08122 0.0
C20 C 0.2019 0.13193 0.09847 0.0
C21 C 0.20621 0.13238 0.06165 0.0
C22 C 0.17301 0.12465 0.07719 0.0
C23 C 0.16888 0.12195 0.11526 0.0
O24 O 0.13769 0.12999 0.1693 0.0
O25 O 0.11777 0.11095 0.15103 0.0
O26 O 0.15028 0.11498 0.11271 0.0
O27 O 0.17014 0.13441 0.13059 0.0
H28 H 0.16198 0.09605 0.17626 0.0
H29 H 0.16892 0.06875 0.20038 0.0
H30 H 0.10498 0.06744 0.21685 0.0
H31 H 0.09821 0.09426 0.19243 0.0
H32 H 0.0711 0.19935 0.16732 0.0
H33 H 0.09834 0.17484 0.16064 0.0
H34 H 0.06837 0.21341 0.10354 0.0
H35 H 0.0951 0.18861 0.09705 0.0
H36 H 0.17853 0.12505 0.04529 0.0
H37 H 0.2301 0.13878 0.08328 0.0
H38 H 0.20873 0.13347 0.11326 0.0
H39 H 0.15718 0.12044 0.07515 0.0
C40 C 0.13132 0.92367 0.34141 0.0
C41 C 0.15114 0.9277 0.3342 0.0
C42 C 0.13866 0.95647 0.3143 0.0
C43 C 0.15476 0.94389 0.32086 0.0
C44 C 0.1189 0.95248 0.32179 0.0
C45 C 0.11531 0.93633 0.33511 0.0
U46 U 0.13773 0.88459 0.38609 0.0
O47 O 0.11326 0.87056 0.40426 0.0
O48 O 0.13255 0.8517 0.38496 0.0
C49 C 0.11657 0.85244 0.39705 0.0
C50 C 0.12639 0.90559 0.35397 0.0
C51 C 0.09837 0.84004 0.39157 0.0
C52 C 0.06141 0.83524 0.38952 0.0
C53 C 0.07838 0.84777 0.39258 0.0
C54 C 0.0839 0.80691 0.38418 0.0
C55 C 0.06384 0.81456 0.38536 0.0
C56 C 0.10087 0.81945 0.38727 0.0
C57 C 0.18188 0.89051 0.42592 0.0
C58 C 0.18585 0.88912 0.46265 0.0
C59 C 0.21512 0.88306 0.44117 0.0
C60 C 0.20281 0.88598 0.42402 0.0
C61 C 0.20688 0.8847 0.46081 0.0
C62 C 0.17356 0.89197 0.44551 0.0
C63 C 0.16972 0.89582 0.40754 0.0
O64 O 0.13904 0.89021 0.35322 0.0
O65 O 0.11905 0.9087 0.37221 0.0
O66 O 0.15115 0.90289 0.41031 0.0
O67 O 0.17102 0.88374 0.39189 0.0
H68 H 0.16381 0.91815 0.33858 0.0
H69 H 0.17017 0.94624 0.31533 0.0
H70 H 0.10613 0.96189 0.31745 0.0
H71 H 0.09985 0.93354 0.34028 0.0
H72 H 0.04631 0.84176 0.39093 0.0
H73 H 0.07575 0.86345 0.39614 0.0
H74 H 0.08655 0.79121 0.38077 0.0
H75 H 0.11603 0.81293 0.38665 0.0
H76 H 0.17887 0.89088 0.47739 0.0
H77 H 0.2311 0.87946 0.43899 0.0
H78 H 0.20979 0.88502 0.40918 0.0
H79 H 0.15761 0.89574 0.44768 0.0
C80 C 0.37837 0.92788 0.677 0.0
C81 C 0.39858 0.93253 0.68227 0.0
C82 C 0.38665 0.95458 0.70961 0.0
C83 C 0.40266 0.9457 0.69835 0.0
C84 C 0.36644 0.94973 0.70427 0.0
C85 C 0.3624 0.9366 0.68822 0.0
U86 U 0.38631 0.8834 0.6388 0.0
O87 O 0.36299 0.86321 0.62608 0.0
O88 O 0.38001 0.88349 0.60599 0.0
C89 C 0.36526 0.87014 0.60756 0.0
C90 C 0.3733 0.915 0.65934 0.0
C91 C 0.34628 0.87315 0.59538 0.0
C92 C 0.32623 0.89104 0.56971 0.0
C93 C 0.34336 0.88989 0.58254 0.0
C94 C 0.31469 0.85881 0.58224 0.0
C95 C 0.31161 0.87547 0.56934 0.0
C96 C 0.33169 0.85769 0.59499 0.0
C97 C 0.43346 0.84724 0.64506 0.0
C98 C 0.44703 0.82242 0.62146 0.0
C99 C 0.46126 0.82472 0.65501 0.0
C100 C 0.44746 0.84027 0.65953 0.0
C101 C 0.46149 0.81569 0.63581 0.0
C102 C 0.43321 0.83801 0.62602 0.0
C103 C 0.42004 0.86459 0.65014 0.0
O104 O 0.38532 0.91623 0.64341 0.0
O105 O 0.36736 0.8965 0.66321 0.0
O106 O 0.40186 0.86042 0.6575 0.0
O107 O 0.41979 0.87979 0.63734 0.0
H108 H 0.41123 0.92616 0.67384 0.0
H109 H 0.41843 0.94916 0.70172 0.0
H110 H 0.35366 0.9559 0.71265 0.0
H111 H 0.34666 0.93334 0.68445 0.0
H112 H 0.32441 0.90419 0.56015 0.0
H113 H 0.35441 0.90199 0.58218 0.0
H114 H 0.30417 0.84625 0.58218 0.0
H115 H 0.33368 0.84436 0.60428 0.0
H116 H 0.44642 0.81569 0.60661 0.0
H117 H 0.47221 0.82026 0.66641 0.0
H118 H 0.448 0.84717 0.67433 0.0
H119 H 0.4225 0.84302 0.6146 0.0
C120 C 0.38401 0.08645 0.84959 0.0
C121 C 0.37994 0.09047 0.82905 0.0
C122 C 0.39076 0.05647 0.81939 0.0
C123 C 0.38331 0.07572 0.81417 0.0
C124 C 0.39493 0.05259 0.83994 0.0
C125 C 0.39157 0.06729 0.85474 0.0
U126 U 0.38845 0.13404 0.88507 0.0
O127 O 0.36348 0.15365 0.89597 0.0
O128 O 0.38089 0.13546 0.9176 0.0
C129 C 0.36549 0.14791 0.91491 0.0
C130 C 0.37793 0.10075 0.866 0.0
C131 C 0.34637 0.1446 0.9269 0.0
C132 C 0.32651 0.12677 0.95287 0.0
C133 C 0.34377 0.12808 0.94011 0.0
C134 C 0.31413 0.15836 0.93949 0.0
C135 C 0.31142 0.14195 0.9528 0.0
C136 C 0.33128 0.15964 0.9268 0.0
C137 C 0.43363 0.17255 0.87912 0.0
C138 C 0.4376 0.20914 0.87867 0.0
C139 C 0.46638 0.18817 0.88756 0.0
C140 C 0.45424 0.17094 0.88492 0.0
C141 C 0.45831 0.20759 0.88438 0.0
C142 C 0.42547 0.19193 0.8761 0.0
C143 C 0.42172 0.15399 0.87432 0.0
O144 O 0.38908 0.10093 0.88249 0.0
O145 O 0.37145 0.11879 0.86079 0.0
O146 O 0.40384 0.1564 0.86565 0.0
O147 O 0.42174 0.13933 0.88775 0.0
H148 H 0.37377 0.1049 0.82446 0.0
H149 H 0.38006 0.07943 0.79856 0.0
H150 H 0.40026 0.03792 0.84477 0.0
H151 H 0.39437 0.0634 0.87041 0.0
H152 H 0.32497 0.11381 0.96273 0.0
H153 H 0.3552 0.1163 0.94083 0.0
H154 H 0.30322 0.17062 0.93919 0.0
H155 H 0.333 0.17279 0.9172 0.0
H156 H 0.43078 0.22369 0.87569 0.0
H157 H 0.4821 0.18622 0.89219 0.0
H158 H 0.4611 0.15625 0.88712 0.0
H159 H 0.40978 0.19386 0.87134 0.0
C160 C 0.62961 0.42456 0.84163 0.0
C161 C 0.64884 0.42668 0.8323 0.0
C162 C 0.63744 0.45703 0.81422 0.0
C163 C 0.65269 0.44267 0.8188 0.0
C164 C 0.61828 0.45491 0.82376 0.0
C165 C 0.61444 0.43892 0.83722 0.0
U166 U 0.63687 0.38611 0.88644 0.0
O167 O 0.61327 0.37314 0.90652 0.0
O168 O 0.63075 0.3534 0.88643 0.0
C169 C 0.61573 0.35477 0.89962 0.0
C170 C 0.62434 0.4068 0.85456 0.0
C171 C 0.59684 0.34258 0.89628 0.0
C172 C 0.57788 0.31611 0.87876 0.0
C173 C 0.59493 0.32897 0.88011 0.0
C174 C 0.56434 0.3301 0.90966 0.0
C175 C 0.56231 0.31644 0.89356 0.0
C176 C 0.58129 0.34289 0.91098 0.0
C177 C 0.68375 0.39302 0.92301 0.0
C178 C 0.70015 0.36975 0.94661 0.0
C179 C 0.70935 0.40494 0.94691 0.0
C180 C 0.69536 0.40867 0.93132 0.0
C181 C 0.71217 0.38539 0.95472 0.0
C182 C 0.68614 0.37351 0.93093 0.0
C183 C 0.67028 0.39759 0.9055 0.0
O184 O 0.63626 0.39088 0.85344 0.0
O185 O 0.61802 0.41041 0.87308 0.0
O186 O 0.65201 0.40476 0.90953 0.0
O187 O 0.6703 0.38481 0.89038 0.0
H188 H 0.66084 0.41582 0.83515 0.0
H189 H 0.66756 0.44348 0.81163 0.0
H190 H 0.6062 0.46571 0.82096 0.0
H191 H 0.59942 0.43762 0.84402 0.0
H192 H 0.57689 0.30595 0.86606 0.0
H193 H 0.60673 0.32802 0.86864 0.0
H194 H 0.55305 0.33062 0.92164 0.0
H195 H 0.58245 0.35276 0.92391 0.0
H196 H 0.70156 0.35453 0.95234 0.0
H197 H 0.7184 0.41737 0.9524 0.0
H198 H 0.69391 0.42384 0.92541 0.0
H199 H 0.67736 0.36115 0.92486 0.0
C200 C 0.89389 0.42271 0.18201 0.0
C201 C 0.90978 0.43395 0.19061 0.0
C202 C 0.88562 0.45265 0.21173 0.0
C203 C 0.90574 0.44874 0.20522 0.0
C204 C 0.86963 0.44189 0.20244 0.0
C205 C 0.8737 0.42711 0.18782 0.0
U206 U 0.88674 0.38529 0.13658 0.0
O207 O 0.85322 0.38458 0.13255 0.0
O208 O 0.87203 0.40378 0.11299 0.0
C209 C 0.8536 0.39698 0.11702 0.0
C210 C 0.89906 0.40537 0.1687 0.0
C211 C 0.84034 0.39199 0.09952 0.0
C212 C 0.8069 0.39459 0.08339 0.0
C213 C 0.81976 0.39799 0.09995 0.0
C214 C 0.83493 0.37887 0.06554 0.0
C215 C 0.81426 0.38504 0.06584 0.0
C216 C 0.84781 0.38232 0.08215 0.0
C217 C 0.92564 0.3407 0.12894 0.0
C218 C 0.95407 0.3202 0.11652 0.0
C219 C 0.94644 0.3208 0.15227 0.0
C220 C 0.93019 0.33423 0.14869 0.0
C221 C 0.95858 0.31344 0.13622 0.0
C222 C 0.93786 0.3336 0.11296 0.0
C223 C 0.90747 0.35342 0.12423 0.0
O224 O 0.90541 0.4094 0.15025 0.0
O225 O 0.88696 0.38961 0.16957 0.0
O226 O 0.89186 0.3525 0.13678 0.0
O227 O 0.91086 0.37173 0.11742 0.0
H228 H 0.92551 0.43081 0.18653 0.0
H229 H 0.9185 0.45646 0.21204 0.0
H230 H 0.85389 0.44466 0.20671 0.0
H231 H 0.86109 0.41877 0.18145 0.0
H232 H 0.79109 0.39929 0.08447 0.0
H233 H 0.8136 0.40551 0.11314 0.0
H234 H 0.84131 0.37167 0.05229 0.0
H235 H 0.86364 0.37762 0.08134 0.0
H236 H 0.96316 0.31523 0.10376 0.0
H237 H 0.94918 0.31585 0.16763 0.0
H238 H 0.921 0.33927 0.16134 0.0
H239 H 0.93465 0.33822 0.09757 0.0
C240 C 0.8807 0.5852 0.35145 0.0
C241 C 0.88106 0.59018 0.3307 0.0
C242 C 0.88143 0.55448 0.3215 0.0
C243 C 0.88158 0.57497 0.3159 0.0
C244 C 0.88199 0.54968 0.34224 0.0
C245 C 0.88165 0.56478 0.35694 0.0
U246 U 0.88788 0.63441 0.38454 0.0
O247 O 0.86318 0.65342 0.39694 0.0
O248 O 0.88322 0.6368 0.41752 0.0
C249 C 0.86722 0.64865 0.41581 0.0
C250 C 0.87652 0.6003 0.36762 0.0
C251 C 0.84951 0.64431 0.42926 0.0
C252 C 0.81987 0.62435 0.43939 0.0
C253 C 0.8367 0.62764 0.42645 0.0
C254 C 0.82854 0.65421 0.4582 0.0
C255 C 0.81546 0.63765 0.45545 0.0
C256 C 0.84529 0.65746 0.44529 0.0
C257 C 0.93162 0.67365 0.37307 0.0
C258 C 0.95645 0.69436 0.3912 0.0
C259 C 0.94484 0.70475 0.35815 0.0
C260 C 0.93236 0.68767 0.35713 0.0
C261 C 0.95713 0.70843 0.37518 0.0
C262 C 0.94387 0.67718 0.39016 0.0
C263 C 0.9196 0.65472 0.37038 0.0
O264 O 0.88927 0.60119 0.38289 0.0
O265 O 0.86932 0.61802 0.36228 0.0
O266 O 0.90099 0.65661 0.36322 0.0
O267 O 0.92105 0.64056 0.38426 0.0
H268 H 0.88019 0.60575 0.3259 0.0
H269 H 0.88105 0.57923 0.30009 0.0
H270 H 0.88214 0.53411 0.34717 0.0
H271 H 0.88124 0.56042 0.37274 0.0
H272 H 0.8104 0.61128 0.43686 0.0
H273 H 0.83967 0.61722 0.41424 0.0
H274 H 0.82561 0.66499 0.47008 0.0
H275 H 0.85491 0.67046 0.44776 0.0
H276 H 0.96552 0.69666 0.40462 0.0
H277 H 0.94518 0.71486 0.34527 0.0
H278 H 0.92352 0.68523 0.34355 0.0
H279 H 0.94394 0.6666 0.40265 0.0
C280 C 0.6326 0.59965 0.68377 0.0
C281 C 0.62343 0.58062 0.68152 0.0
C282 C 0.63948 0.56814 0.71259 0.0
C283 C 0.62686 0.56509 0.69568 0.0
C284 C 0.64865 0.58719 0.71475 0.0
C285 C 0.64523 0.60266 0.70064 0.0
U286 U 0.63877 0.63563 0.63666 0.0
O287 O 0.61456 0.64969 0.61819 0.0
O288 O 0.63546 0.66873 0.63548 0.0
C289 C 0.61961 0.6681 0.62338 0.0
C290 C 0.62712 0.61694 0.67016 0.0
C291 C 0.60304 0.68317 0.62652 0.0
C292 C 0.56764 0.69277 0.63387 0.0
C293 C 0.58336 0.67818 0.63362 0.0
C294 C 0.59114 0.71745 0.62033 0.0
C295 C 0.57125 0.71248 0.62671 0.0
C296 C 0.60676 0.70305 0.6203 0.0
C297 C 0.68372 0.62622 0.59817 0.0
C298 C 0.68789 0.63447 0.56237 0.0
C299 C 0.71721 0.62391 0.58181 0.0
C300 C 0.70476 0.62212 0.59906 0.0
C301 C 0.70895 0.62982 0.56307 0.0
C302 C 0.67544 0.63268 0.57967 0.0
C303 C 0.67081 0.62214 0.61635 0.0
O304 O 0.63951 0.6325 0.66985 0.0
O305 O 0.61972 0.61282 0.65219 0.0
O306 O 0.65203 0.61588 0.61333 0.0
O307 O 0.67217 0.63486 0.63143 0.0
H308 H 0.61328 0.57778 0.66897 0.0
H309 H 0.61963 0.55066 0.6933 0.0
H310 H 0.65813 0.5904 0.72771 0.0
H311 H 0.65217 0.61719 0.70327 0.0
H312 H 0.55248 0.68842 0.63881 0.0
H313 H 0.58 0.66294 0.63844 0.0
H314 H 0.59455 0.73249 0.61493 0.0
H315 H 0.62173 0.70733 0.6147 0.0
H316 H 0.68094 0.63941 0.54837 0.0
H317 H 0.7332 0.61995 0.58305 0.0
H318 H 0.71154 0.61698 0.61308 0.0
H319 H 0.65928 0.63601 0.57849 0.0
H320 H 0.11402 0.97031 0.28301 0.0
H321 H 0.17181 0.98197 0.31265 0.0
H322 H 0.17815 0.01018 0.2891 0.0
H323 H 0.13081 0.98205 0.23219 0.0
H324 H 0.10709 0.99386 0.22506 0.0
H325 H 0.10722 0.97427 0.24397 0.0
H326 H 0.08913 0.99811 0.26921 0.0
H327 H 0.08893 0.01776 0.25037 0.0
H328 H 0.10034 0.02223 0.27468 0.0
H329 H 0.17796 0.03791 0.26254 0.0
H330 H 0.17117 0.06274 0.2356 0.0
H331 H 0.11356 0.03321 0.22286 0.0
C332 C 0.12797 0.97884 0.2847 0.0
C333 C 0.14243 0.97366 0.29983 0.0
C334 C 0.16059 0.98523 0.30112 0.0
C335 C 0.16429 1.00144 0.28783 0.0
C336 C 0.14974 1.00608 0.27317 0.0
C337 C 0.13193 0.9951 0.27152 0.0
C338 C 0.11872 1.00331 0.2545 0.0
C339 C 0.11579 0.98743 0.23795 0.0
C340 C 0.09806 0.0108 0.26268 0.0
C341 C 0.13179 0.0207 0.24694 0.0
C342 C 0.14966 0.02199 0.25788 0.0
C343 C 0.16406 0.03692 0.25381 0.0
C344 C 0.16011 0.05093 0.23828 0.0
C345 C 0.14186 0.05008 0.2268 0.0
C346 C 0.1276 0.03457 0.23131 0.0
H347 H 0.24761 0.89551 0.46685 0.0
H348 H 0.19613 0.8669 0.49696 0.0
H349 H 0.21678 0.86274 0.52769 0.0
H350 H 0.28644 0.8631 0.48861 0.0
H351 H 0.30503 0.88291 0.49101 0.0
H352 H 0.2861 0.88418 0.47136 0.0
H353 H 0.2746 0.91914 0.48425 0.0
H354 H 0.29342 0.91792 0.50402 0.0
H355 H 0.26691 0.92195 0.51028 0.0
H356 H 0.24276 0.86175 0.5555 0.0
H357 H 0.27264 0.86263 0.57789 0.0
H358 H 0.30843 0.89035 0.52988 0.0
C359 C 0.24067 0.88822 0.47982 0.0
C360 C 0.21997 0.88175 0.47931 0.0
C361 C 0.21166 0.87245 0.49687 0.0
C362 C 0.22336 0.86988 0.51446 0.0
C363 C 0.24353 0.87656 0.51446 0.0
C364 C 0.2522 0.88544 0.49759 0.0
C365 C 0.27438 0.89099 0.50163 0.0
C366 C 0.28884 0.87962 0.4873 0.0
C367 C 0.27751 0.91386 0.49995 0.0
C368 C 0.27681 0.88378 0.52338 0.0
C369 C 0.25874 0.8756 0.53045 0.0
C370 C 0.25703 0.86797 0.55004 0.0
C371 C 0.27423 0.86843 0.56265 0.0
C372 C 0.29319 0.87632 0.55577 0.0
C373 C 0.29427 0.88431 0.53581 0.0
H374 H 0.36518 0.98875 0.7217 0.0
H375 H 0.41781 0.9521 0.73736 0.0
H376 H 0.42505 0.9746 0.76594 0.0
H377 H 0.38728 0.03691 0.73468 0.0
H378 H 0.36388 0.04693 0.74499 0.0
H379 H 0.36302 0.02832 0.7253 0.0
H380 H 0.34033 1.00555 0.74791 0.0
H381 H 0.34105 0.02412 0.76763 0.0
H382 H 0.34902 0.99864 0.77282 0.0
H383 H 0.42648 1.00088 0.79334 0.0
H384 H 0.4217 0.02845 0.81766 0.0
H385 H 0.36741 0.04775 0.78538 0.0
C386 C 0.37818 0.98533 0.73116 0.0
C387 C 0.39098 0.96853 0.72698 0.0
C388 C 0.40794 0.96495 0.7398 0.0
C389 C 0.41214 0.97763 0.75623 0.0
C390 C 0.39926 0.99397 0.75986 0.0
C391 C 0.3826 0.99786 0.74771 0.0
C392 C 0.37105 0.01632 0.75513 0.0
C393 C 0.37133 0.03311 0.73907 0.0
C394 C 0.34906 0.01082 0.76124 0.0
C395 C 0.38369 0.02208 0.77346 0.0
C396 C 0.39995 1.00901 0.77582 0.0
C397 C 0.41374 0.01113 0.79166 0.0
C398 C 0.41079 0.02684 0.80553 0.0
C399 C 0.39407 0.04037 0.80373 0.0
C400 C 0.38047 0.03791 0.78724 0.0
H401 H 0.24728 0.12252 0.05577 0.0
H402 H 0.19516 0.14908 0.02514 0.0
H403 H 0.21589 0.15312 0.99429 0.0
H404 H 0.28524 0.15549 0.03324 0.0
H405 H 0.30445 0.13614 0.03126 0.0
H406 H 0.28542 0.1348 0.05096 0.0
H407 H 0.27512 0.09927 0.03887 0.0
H408 H 0.29404 0.10055 0.01904 0.0
H409 H 0.26772 0.09567 0.01292 0.0
H410 H 0.24207 0.15421 0.96642 0.0
H411 H 0.27215 0.15362 0.94401 0.0
H412 H 0.30838 0.12793 0.99258 0.0
C413 C 0.24021 0.12935 0.04267 0.0
C414 C 0.21932 0.13526 0.04307 0.0
C415 C 0.21086 0.14395 0.02533 0.0
C416 C 0.2226 0.14646 1.00766 0.0
C417 C 0.24297 0.14032 1.00777 0.0
C418 C 0.25178 0.13205 0.02482 0.0
C419 C 0.27415 0.12701 0.02087 0.0
C420 C 0.28814 0.13908 0.03492 0.0
C421 C 0.27798 0.10427 0.02306 0.0
C422 C 0.27652 0.13381 0.99897 0.0
C423 C 0.25826 0.14134 0.99174 0.0
C424 C 0.25648 0.14849 0.97199 0.0
C425 C 0.27378 0.1482 0.95937 0.0
C426 C 0.29291 0.14096 0.9664 0.0
C427 C 0.29408 0.13346 0.98653 0.0
H428 H 0.97137 0.28118 0.11265 0.0
H429 H 0.98534 0.3126 0.16827 0.0
H430 H 1.01365 0.28891 0.17466 0.0
H431 H 0.98269 0.23106 0.13083 0.0
H432 H 0.99394 0.2229 0.10734 0.0
H433 H 0.97445 0.24207 0.10728 0.0
H434 H 0.9987 0.2661 0.08781 0.0
H435 H 0.01826 0.247 0.08778 0.0
H436 H 0.02357 0.27151 0.09802 0.0
H437 H 0.04119 0.262 0.17474 0.0
H438 H 0.06569 0.23453 0.16838 0.0
H439 H 0.03399 0.22025 0.11275 0.0
C440 C 0.98043 0.28323 0.12613 0.0
C441 C 0.97586 0.2989 0.13999 0.0
C442 C 0.98811 0.30066 0.15754 0.0
C443 C 1.00439 0.2873 0.16126 0.0
C444 C 1.0084 0.27209 0.14732 0.0
C445 C 0.99677 0.26999 0.13009 0.0
C446 C 1.00442 0.25244 0.11746 0.0
C447 C 0.98789 0.23615 0.11562 0.0
C448 C 1.01167 0.2597 0.09653 0.0
C449 C 0.02225 0.24508 0.13019 0.0
C450 C 0.02423 0.2566 0.14739 0.0
C451 C 0.03967 0.25282 0.16137 0.0
C452 C 0.05347 0.23699 0.15768 0.0
C453 C 0.05192 0.22492 0.1401 0.0
C454 C 0.0359 0.22915 0.12627 0.0
H455 H 0.49969 0.21328 0.87562 0.0
H456 H 0.44645 0.24429 0.89958 0.0
H457 H 0.4668 0.27513 0.90324 0.0
H458 H 0.5363 0.23662 0.90917 0.0
H459 H 0.55617 0.23817 0.89029 0.0
H460 H 0.53735 0.21848 0.88902 0.0
H461 H 0.52824 0.2296 0.85261 0.0
H462 H 0.54695 0.2494 0.85381 0.0
H463 H 0.52077 0.2553 0.84785 0.0
H464 H 0.4927 0.30295 0.90419 0.0
H465 H 0.52259 0.32533 0.90376 0.0
H466 H 0.56009 0.27649 0.88079 0.0
C467 C 0.49229 0.22648 0.8818 0.0
C468 C 0.4712 0.22617 0.88708 0.0
C469 C 0.46232 0.24401 0.89494 0.0
C470 C 0.47384 0.26168 0.89722 0.0
C471 C 0.49441 0.26147 0.89171 0.0
C472 C 0.50364 0.24432 0.88427 0.0
C473 C 0.52614 0.2482 0.87979 0.0
C474 C 0.5398 0.23456 0.89285 0.0
C475 C 0.53079 0.24546 0.85717 0.0
C476 C 0.5281 0.27016 0.88592 0.0
C477 C 0.50954 0.27749 0.89267 0.0
C478 C 0.50734 0.2973 0.8991 0.0
C479 C 0.52455 0.30991 0.89891 0.0
C480 C 0.54397 0.3028 0.89248 0.0
C481 C 0.54557 0.28259 0.88569 0.0
H482 H 0.05833 0.77441 0.39672 0.0
H483 H 0.02764 0.8241 0.36657 0.0
H484 H 0.99726 0.80289 0.36192 0.0
H485 H 0.03844 0.73536 0.36423 0.0
H486 H 0.0358 0.71714 0.38434 0.0
H487 H 0.05513 0.73633 0.38581 0.0
H488 H 0.04061 0.74756 0.42043 0.0
H489 H 0.02116 0.72847 0.419 0.0
H490 H 1.01404 0.75443 0.42251 0.0
H491 H 0.9699 0.77645 0.36048 0.0
H492 H 0.94802 0.74638 0.36125 0.0
H493 H 0.99636 0.71278 0.39098 0.0
C494 C 0.04532 0.78084 0.38899 0.0
C495 C 0.04555 0.80119 0.38221 0.0
C496 C 0.02793 0.80884 0.37235 0.0
C497 C 1.01054 0.79682 0.3695 0.0
C498 C 1.01081 0.77699 0.37648 0.0
C499 C 0.02775 0.76898 0.38594 0.0
C500 C 0.02403 0.74708 0.39174 0.0
C501 C 0.03925 0.73315 0.38088 0.0
C502 C 0.02502 0.74422 0.41479 0.0
C503 C 1.00239 0.74404 0.384 0.0
C504 C 0.99508 0.76156 0.37532 0.0
C505 C 0.97554 0.76261 0.36711 0.0
C506 C 0.96323 0.74532 0.36752 0.0
C507 C 0.97036 0.72694 0.37597 0.0
C508 C 0.99025 0.7265 0.38451 0.0
H509 H 0.54168 0.72462 0.65465 0.0
H510 H 0.56268 0.73472 0.59318 0.0
H511 H 0.5364 0.76095 0.58863 0.0
H512 H 0.48711 0.73299 0.64496 0.0
H513 H 0.48273 0.74593 0.66846 0.0
H514 H 0.5025 0.72711 0.66674 0.0
H515 H 0.52907 0.75299 0.6792 0.0
H516 H 0.5094 0.77189 0.6809 0.0
H517 H 0.53194 0.77654 0.66587 0.0
H518 H 0.50865 0.78685 0.59077 0.0
H519 H 0.48172 0.81117 0.59965 0.0
H520 H 0.47796 0.78512 0.65989 0.0
C521 C 0.54055 0.7322 0.64018 0.0
C522 C 0.55435 0.72756 0.62426 0.0
C523 C 0.55247 0.73807 0.60565 0.0
C524 C 0.53751 0.75297 0.60288 0.0
C525 C 0.52439 0.75741 0.61889 0.0
C526 C 0.52571 0.74739 0.6372 0.0
C527 C 0.51011 0.75577 0.65211 0.0
C528 C 0.4947 0.73948 0.65844 0.0
C529 C 0.52077 0.76484 0.67062 0.0
C530 C 0.49995 0.77207 0.63933 0.0
C531 C 0.50838 0.7726 0.62018 0.0
C532 C 0.50183 0.78645 0.60569 0.0
C533 C 0.48633 0.80018 0.61087 0.0
C534 C 0.47739 0.80016 0.63044 0.0
C535 C 0.48441 0.78575 0.64481 0.0
H536 H 0.61228 0.53932 0.72744 0.0
H537 H 0.67509 0.55945 0.73281 0.0
H538 H 0.68112 0.53374 0.75905 0.0
H539 H 0.60383 0.52864 0.77996 0.0
H540 H 0.58875 0.50642 0.77567 0.0
H541 H 0.58919 0.52629 0.75707 0.0
H542 H 0.60081 0.50096 0.72972 0.0
H543 H 0.60029 0.48098 0.74822 0.0
H544 H 0.62329 0.48584 0.73396 0.0
H545 H 0.68039 0.50613 0.78539 0.0
H546 H 0.67312 0.47843 0.80921 0.0
H547 H 0.61119 0.47487 0.78626 0.0
C548 C 0.62739 0.53822 0.73393 0.0
C549 C 0.64314 0.55173 0.72798 0.0
C550 C 0.66258 0.54971 0.73721 0.0
C551 C 0.66623 0.53499 0.75211 0.0
C552 C 0.65037 0.52215 0.75774 0.0
C553 C 0.63134 0.52352 0.74888 0.0
C554 C 0.61694 0.50782 0.75779 0.0
C555 C 0.59859 0.5179 0.76824 0.0
C556 C 0.60992 0.49302 0.74145 0.0
C557 C 0.6308 0.49752 0.7731 0.0
C558 C 0.65002 0.50604 0.77278 0.0
C559 C 0.66542 0.49925 0.78563 0.0
C560 C 0.66115 0.48334 0.79908 0.0
C561 C 0.6416 0.47414 0.79972 0.0
C562 C 0.62626 0.48152 0.78645 0.0
H563 H 0.78362 0.40972 0.05053 0.0
H564 H 0.81313 0.35201 0.04082 0.0
H565 H 0.79036 0.34578 0.0119 0.0
H566 H 0.73235 0.39337 0.03867 0.0
H567 H 0.72547 0.41659 0.02626 0.0
H568 H 0.7442 0.41662 0.04613 0.0
H569 H 0.77022 0.43379 0.02205 0.0
H570 H 0.75157 0.4338 1.00211 0.0
H571 H 0.77619 0.42226 0.99813 0.0
H572 H 0.76403 0.34571 0.98377 0.0
H573 H 0.73715 0.35215 0.95854 0.0
H574 H 0.72387 0.40946 0.98699 0.0
C575 C 0.78524 0.39567 0.04247 0.0
C576 C 0.80038 0.38139 0.04813 0.0
C577 C 0.802 0.36338 0.03678 0.0
C578 C 0.78898 0.35962 0.02035 0.0
C579 C 0.77427 0.37397 0.01527 0.0
C580 C 0.77235 0.39166 0.02598 0.0
C581 C 0.75535 0.40469 0.0173 0.0
C582 C 0.73834 0.40801 0.03303 0.0
C583 C 0.76384 0.42482 1.00943 0.0
C584 C 0.74802 0.39158 1.00003 0.0
C585 C 0.7591 0.3739 0.99915 0.0
C586 C 0.75521 0.35948 0.98442 0.0
C587 C 0.73971 0.36323 0.97019 0.0
C588 C 0.72811 0.38129 0.97062 0.0
C589 C 0.73244 0.39557 0.98593 0.0
H590 H 0.90441 0.48919 0.22096 0.0
H591 H 0.85766 0.44788 0.24236 0.0
H592 H 0.8512 0.46978 0.27157 0.0
H593 H 0.92454 0.50133 0.26992 0.0
H594 H 0.92912 0.52745 0.26408 0.0
H595 H 0.92978 0.50899 0.24424 0.0
H596 H 0.90249 0.52915 0.22444 0.0
H597 H 0.90175 0.54768 0.24422 0.0
H598 H 0.87858 0.53531 0.23656 0.0
H599 H 0.85053 0.49514 0.29937 0.0
H600 H 0.85499 0.52293 0.32344 0.0
H601 H 0.90194 0.54875 0.28483 0.0
C602 C 0.89279 0.48474 0.23176 0.0
C603 C 0.88143 0.46672 0.22905 0.0
C604 C 0.86632 0.46168 0.24365 0.0
C605 C 0.86262 0.47399 0.26047 0.0
C606 C 0.87407 0.49149 0.26268 0.0
C607 C 0.88879 0.49698 0.24871 0.0
C608 C 0.899 0.51659 0.25492 0.0
C609 C 0.92197 0.51339 0.2585 0.0
C610 C 0.89523 0.53316 0.23909 0.0
C611 C 0.88783 0.52113 0.27463 0.0
C612 C 0.87355 0.50636 0.27877 0.0
C613 C 0.86164 0.5068 0.29625 0.0
C614 C 0.86437 0.52264 0.30993 0.0
C615 C 0.87888 0.53806 0.3062 0.0
C616 C 0.89063 0.53731 0.28812 0.0
H617 H 0.81153 0.64485 0.49669 0.0
H618 H 0.77729 0.62399 0.44481 0.0
H619 H 0.74678 0.61982 0.46642 0.0
H620 H 0.78836 0.61174 0.53355 0.0
H621 H 0.78802 0.63027 0.55334 0.0
H622 H 0.80732 0.63137 0.53389 0.0
H623 H 0.79668 0.66797 0.52541 0.0
H624 H 0.77734 0.66699 0.54483 0.0
H625 H 0.77044 0.6734 0.51925 0.0
H626 H 0.71953 0.61831 0.49374 0.0
H627 H 0.69819 0.6187 0.52452 0.0
H628 H 0.74961 0.64143 0.55874 0.0
C629 C 0.79761 0.63951 0.48977 0.0
C630 C 0.79704 0.63469 0.46887 0.0
C631 C 0.77843 0.62749 0.46072 0.0
C632 C 0.76089 0.6252 0.47289 0.0
C633 C 0.76201 0.63017 0.49332 0.0
C634 C 0.77991 0.63713 0.50173 0.0
C635 C 0.777 0.64138 0.52413 0.0
C636 C 0.79101 0.62788 0.53698 0.0
C637 C 0.78058 0.66377 0.52867 0.0
C638 C 0.75467 0.63574 0.52702 0.0
C639 C 0.74631 0.62936 0.50903 0.0
C640 C 0.72594 0.62337 0.50787 0.0
C641 C 0.71385 0.62381 0.5255 0.0
C642 C 0.722 0.63021 0.54425 0.0
C643 C 0.74279 0.63628 0.54482 0.0
loop_
_geom_bond_atom_site_label_1
_geom_bond_atom_site_label_2
_geom_bond_distance
_geom_bond_site_symmetry_2
_ccdc_geom_bond_type
C0 C1 1.264 . S
C0 C5 1.479 . S
C0 C10 1.465 . S
C1 C0 1.264 . S
C1 C3 1.339 . S
C1 H28 0.931 . S
C2 C3 1.395 . S
C2 C4 1.320 . S
C3 C1 1.339 . S
C3 C2 1.395 . S
C3 H29 0.929 . S
C4 C2 1.320 . S
C4 C5 1.405 . S
C4 H30 0.930 . S
C5 C0 1.479 . S
C5 C4 1.405 . S
C5 H31 0.931 . S
U6 O7 2.454 . S
U6 O8 2.458 . S
U6 C9 2.984 . S
U6 C10 2.847 . S
U6 C23 2.882 . S
U6 O24 2.441 . S
U6 O25 2.420 . S
U6 O26 2.455 . S
U6 O27 2.449 . S
O7 U6 2.454 . S
O7 C9 1.353 . S
O8 U6 2.458 . S
O8 C9 1.286 . S
C9 U6 2.984 . S
C9 O7 1.353 . S
C9 O8 1.286 . S
C9 C11 1.363 . S
C10 C0 1.465 . S
C10 U6 2.847 . S
C10 O24 1.249 . S
C10 O25 1.202 . S
C11 C9 1.363 . S
C11 C13 1.408 . S
C11 C16 1.342 . S
C12 C13 1.310 . S
C12 C15 1.461 . S
C12 H32 0.932 . S
C13 C11 1.408 . S
C13 C12 1.310 . S
C13 H33 0.930 . S
C14 C15 1.474 . S
C14 C16 1.285 . S
C14 H34 0.929 . S
C15 C12 1.461 . S
C15 C14 1.474 . S
C16 C11 1.342 . S
C16 C14 1.285 . S
C16 H35 0.930 . S
C17 C20 1.424 . S
C17 C22 1.245 . S
C17 C23 1.428 . S
C18 C21 1.260 . S
C18 C22 1.477 . S
C18 H36 0.932 . S
C19 C20 1.384 . S
C19 C21 1.479 . S
C19 H37 0.929 . S
C20 C17 1.424 . S
C20 C19 1.384 . S
C20 H38 0.928 . S
C21 C18 1.260 . S
C21 C19 1.479 . S
C22 C17 1.245 . S
C22 C18 1.477 . S
C22 H39 0.932 . S
C23 U6 2.882 . S
C23 C17 1.428 . S
C23 O26 1.301 . S
C23 O27 1.282 . S
O24 U6 2.441 . S
O24 C10 1.249 . S
O25 U6 2.420 . S
O25 C10 1.202 . S
O26 U6 2.455 . S
O26 C23 1.301 . S
O27 U6 2.449 . S
O27 C23 1.282 . S
H28 C1 0.931 . S
H29 C3 0.929 . S
H30 C4 0.930 . S
H31 C5 0.931 . S
H32 C12 0.932 . S
H33 C13 0.930 . S
H34 C14 0.929 . S
H35 C16 0.930 . S
H36 C18 0.932 . S
H37 C19 0.929 . S
H38 C20 0.928 . S
H39 C22 0.932 . S
C40 C41 1.264 . S
C40 C45 1.479 . S
C40 C50 1.465 . S
C41 C40 1.264 . S
C41 C43 1.339 . S
C41 H68 0.931 . S
C42 C43 1.395 . S
C42 C44 1.320 . S
C43 C41 1.339 . S
C43 C42 1.395 . S
C43 H69 0.929 . S
C44 C42 1.320 . S
C44 C45 1.405 . S
C44 H70 0.930 . S
C45 C40 1.479 . S
C45 C44 1.405 . S
C45 H71 0.931 . S
U46 O47 2.454 . S
U46 O48 2.458 . S
U46 C49 2.984 . S
U46 C50 2.847 . S
U46 C63 2.882 . S
U46 O64 2.441 . S
U46 O65 2.420 . S
U46 O66 2.455 . S
U46 O67 2.449 . S
O47 U46 2.454 . S
O47 C49 1.353 . S
O48 U46 2.458 . S
O48 C49 1.286 . S
C49 U46 2.984 . S
C49 O47 1.353 . S
C49 O48 1.286 . S
C49 C51 1.363 . S
C50 C40 1.465 . S
C50 U46 2.847 . S
C50 O64 1.249 . S
C50 O65 1.202 . S
C51 C49 1.363 . S
C51 C53 1.408 . S
C51 C56 1.342 . S
C52 C53 1.310 . S
C52 C55 1.461 . S
C52 H72 0.932 . S
C53 C51 1.408 . S
C53 C52 1.310 . S
C53 H73 0.930 . S
C54 C55 1.474 . S
C54 C56 1.285 . S
C54 H74 0.929 . S
C55 C52 1.461 . S
C55 C54 1.474 . S
C56 C51 1.342 . S
C56 C54 1.285 . S
C56 H75 0.930 . S
C57 C60 1.424 . S
C57 C62 1.245 . S
C57 C63 1.428 . S
C58 C61 1.260 . S
C58 C62 1.477 . S
C58 H76 0.932 . S
C59 C60 1.384 . S
C59 C61 1.479 . S
C59 H77 0.929 . S
C60 C57 1.424 . S
C60 C59 1.384 . S
C60 H78 0.928 . S
C61 C58 1.260 . S
C61 C59 1.479 . S
C62 C57 1.245 . S
C62 C58 1.477 . S
C62 H79 0.932 . S
C63 U46 2.882 . S
C63 C57 1.428 . S
C63 O66 1.301 . S
C63 O67 1.282 . S
O64 U46 2.441 . S
O64 C50 1.249 . S
O65 U46 2.420 . S
O65 C50 1.202 . S
O66 U46 2.455 . S
O66 C63 1.301 . S
O67 U46 2.449 . S
O67 C63 1.282 . S
H68 C41 0.931 . S
H69 C43 0.929 . S
H70 C44 0.930 . S
H71 C45 0.931 . S
H72 C52 0.932 . S
H73 C53 0.930 . S
H74 C54 0.929 . S
H75 C56 0.930 . S
H76 C58 0.932 . S
H77 C59 0.929 . S
H78 C60 0.928 . S
H79 C62 0.932 . S
C80 C81 1.264 . S
C80 C85 1.479 . S
C80 C90 1.465 . S
C81 C80 1.264 . S
C81 C83 1.339 . S
C81 H108 0.931 . S
C82 C83 1.395 . S
C82 C84 1.320 . S
C83 C81 1.339 . S
C83 C82 1.395 . S
C83 H109 0.929 . S
C84 C82 1.320 . S
C84 C85 1.405 . S
C84 H110 0.930 . S
C85 C80 1.479 . S
C85 C84 1.405 . S
C85 H111 0.931 . S
U86 O87 2.454 . S
U86 O88 2.458 . S
U86 C89 2.984 . S
U86 C90 2.847 . S
U86 C103 2.882 . S
U86 O104 2.441 . S
U86 O105 2.420 . S
U86 O106 2.455 . S
U86 O107 2.449 . S
O87 U86 2.454 . S
O87 C89 1.353 . S
O88 U86 2.458 . S
O88 C89 1.286 . S
C89 U86 2.984 . S
C89 O87 1.353 . S
C89 O88 1.286 . S
C89 C91 1.363 . S
C90 C80 1.465 . S
C90 U86 2.847 . S
C90 O104 1.249 . S
C90 O105 1.202 . S
C91 C89 1.363 . S
C91 C93 1.408 . S
C91 C96 1.342 . S
C92 C93 1.310 . S
C92 C95 1.461 . S
C92 H112 0.932 . S
C93 C91 1.408 . S
C93 C92 1.310 . S
C93 H113 0.930 . S
C94 C95 1.474 . S
C94 C96 1.285 . S
C94 H114 0.929 . S
C95 C92 1.461 . S
C95 C94 1.474 . S
C96 C91 1.342 . S
C96 C94 1.285 . S
C96 H115 0.930 . S
C97 C100 1.424 . S
C97 C102 1.245 . S
C97 C103 1.428 . S
C98 C101 1.260 . S
C98 C102 1.477 . S
C98 H116 0.932 . S
C99 C100 1.384 . S
C99 C101 1.479 . S
C99 H117 0.929 . S
C100 C97 1.424 . S
C100 C99 1.384 . S
C100 H118 0.928 . S
C101 C98 1.260 . S
C101 C99 1.479 . S
C102 C97 1.245 . S
C102 C98 1.477 . S
C102 H119 0.932 . S
C103 U86 2.882 . S
C103 C97 1.428 . S
C103 O106 1.301 . S
C103 O107 1.282 . S
O104 U86 2.441 . S
O104 C90 1.249 . S
O105 U86 2.420 . S
O105 C90 1.202 . S
O106 U86 2.455 . S
O106 C103 1.301 . S
O107 U86 2.449 . S
O107 C103 1.282 . S
H108 C81 0.931 . S
H109 C83 0.929 . S
H110 C84 0.930 . S
H111 C85 0.931 . S
H112 C92 0.932 . S
H113 C93 0.930 . S
H114 C94 0.929 . S
H115 C96 0.930 . S
H116 C98 0.932 . S
H117 C99 0.929 . S
H118 C100 0.928 . S
H119 C102 0.932 . S
C120 C121 1.264 . S
C120 C125 1.479 . S
C120 C130 1.465 . S
C121 C120 1.264 . S
C121 C123 1.339 . S
C121 H148 0.931 . S
C122 C123 1.395 . S
C122 C124 1.320 . S
C123 C121 1.339 . S
C123 C122 1.395 . S
C123 H149 0.929 . S
C124 C122 1.320 . S
C124 C125 1.405 . S
C124 H150 0.930 . S
C125 C120 1.479 . S
C125 C124 1.405 . S
C125 H151 0.931 . S
U126 O127 2.454 . S
U126 O128 2.458 . S
U126 C129 2.984 . S
U126 C130 2.847 . S
U126 C143 2.882 . S
U126 O144 2.441 . S
U126 O145 2.420 . S
U126 O146 2.455 . S
U126 O147 2.449 . S
O127 U126 2.454 . S
O127 C129 1.353 . S
O128 U126 2.458 . S
O128 C129 1.286 . S
C129 U126 2.984 . S
C129 O127 1.353 . S
C129 O128 1.286 . S
C129 C131 1.363 . S
C130 C120 1.465 . S
C130 U126 2.847 . S
C130 O144 1.249 . S
C130 O145 1.202 . S
C131 C129 1.363 . S
C131 C133 1.408 . S
C131 C136 1.342 . S
C132 C133 1.310 . S
C132 C135 1.461 . S
C132 H152 0.932 . S
C133 C131 1.408 . S
C133 C132 1.310 . S
C133 H153 0.930 . S
C134 C135 1.474 . S
C134 C136 1.285 . S
C134 H154 0.929 . S
C135 C132 1.461 . S
C135 C134 1.474 . S
C136 C131 1.342 . S
C136 C134 1.285 . S
C136 H155 0.930 . S
C137 C140 1.424 . S
C137 C142 1.245 . S
C137 C143 1.428 . S
C138 C141 1.260 . S
C138 C142 1.477 . S
C138 H156 0.932 . S
C139 C140 1.384 . S
C139 C141 1.479 . S
C139 H157 0.929 . S
C140 C137 1.424 . S
C140 C139 1.384 . S
C140 H158 0.928 . S
C141 C138 1.260 . S
C141 C139 1.479 . S
C142 C137 1.245 . S
C142 C138 1.477 . S
C142 H159 0.932 . S
C143 U126 2.882 . S
C143 C137 1.428 . S
C143 O146 1.301 . S
C143 O147 1.282 . S
O144 U126 2.441 . S
O144 C130 1.249 . S
O145 U126 2.420 . S
O145 C130 1.202 . S
O146 U126 2.455 . S
O146 C143 1.301 . S
O147 U126 2.449 . S
O147 C143 1.282 . S
H148 C121 0.931 . S
H149 C123 0.929 . S
H150 C124 0.930 . S
H151 C125 0.931 . S
H152 C132 0.932 . S
H153 C133 0.930 . S
H154 C134 0.929 . S
H155 C136 0.930 . S
H156 C138 0.932 . S
H157 C139 0.929 . S
H158 C140 0.928 . S
H159 C142 0.932 . S
C160 C161 1.264 . S
C160 C165 1.479 . S
C160 C170 1.465 . S
C161 C160 1.264 . S
C161 C163 1.339 . S
C161 H188 0.931 . S
C162 C163 1.395 . S
C162 C164 1.320 . S
C163 C161 1.339 . S
C163 C162 1.395 . S
C163 H189 0.929 . S
C164 C162 1.320 . S
C164 C165 1.405 . S
C164 H190 0.930 . S
C165 C160 1.479 . S
C165 C164 1.405 . S
C165 H191 0.931 . S
U166 O167 2.454 . S
U166 O168 2.458 . S
U166 C169 2.984 . S
U166 C170 2.847 . S
U166 C183 2.882 . S
U166 O184 2.441 . S
U166 O185 2.420 . S
U166 O186 2.455 . S
U166 O187 2.449 . S
O167 U166 2.454 . S
O167 C169 1.353 . S
O168 U166 2.458 . S
O168 C169 1.286 . S
C169 U166 2.984 . S
C169 O167 1.353 . S
C169 O168 1.286 . S
C169 C171 1.363 . S
C170 C160 1.465 . S
C170 U166 2.847 . S
C170 O184 1.249 . S
C170 O185 1.202 . S
C171 C169 1.363 . S
C171 C173 1.408 . S
C171 C176 1.342 . S
C172 C173 1.310 . S
C172 C175 1.461 . S
C172 H192 0.932 . S
C173 C171 1.408 . S
C173 C172 1.310 . S
C173 H193 0.930 . S
C174 C175 1.474 . S
C174 C176 1.285 . S
C174 H194 0.929 . S
C175 C172 1.461 . S
C175 C174 1.474 . S
C176 C171 1.342 . S
C176 C174 1.285 . S
C176 H195 0.930 . S
C177 C180 1.424 . S
C177 C182 1.245 . S
C177 C183 1.428 . S
C178 C181 1.260 . S
C178 C182 1.477 . S
C178 H196 0.932 . S
C179 C180 1.384 . S
C179 C181 1.479 . S
C179 H197 0.929 . S
C180 C177 1.424 . S
C180 C179 1.384 . S
C180 H198 0.928 . S
C181 C178 1.260 . S
C181 C179 1.479 . S
C182 C177 1.245 . S
C182 C178 1.477 . S
C182 H199 0.932 . S
C183 U166 2.882 . S
C183 C177 1.428 . S
C183 O186 1.301 . S
C183 O187 1.282 . S
O184 U166 2.441 . S
O184 C170 1.249 . S
O185 U166 2.420 . S
O185 C170 1.202 . S
O186 U166 2.455 . S
O186 C183 1.301 . S
O187 U166 2.449 . S
O187 C183 1.282 . S
H188 C161 0.931 . S
H189 C163 0.929 . S
H190 C164 0.930 . S
H191 C165 0.931 . S
H192 C172 0.932 . S
H193 C173 0.930 . S
H194 C174 0.929 . S
H195 C176 0.930 . S
H196 C178 0.932 . S
H197 C179 0.929 . S
H198 C180 0.928 . S
H199 C182 0.932 . S
C200 C201 1.264 . S
C200 C205 1.479 . S
C200 C210 1.465 . S
C201 C200 1.264 . S
C201 C203 1.339 . S
C201 H228 0.931 . S
C202 C203 1.395 . S
C202 C204 1.320 . S
C203 C201 1.339 . S
C203 C202 1.395 . S
C203 H229 0.929 . S
C204 C202 1.320 . S
C204 C205 1.405 . S
C204 H230 0.930 . S
C205 C200 1.479 . S
C205 C204 1.405 . S
C205 H231 0.931 . S
U206 O207 2.454 . S
U206 O208 2.458 . S
U206 C209 2.984 . S
U206 C210 2.847 . S
U206 C223 2.882 . S
U206 O224 2.441 . S
U206 O225 2.420 . S
U206 O226 2.455 . S
U206 O227 2.449 . S
O207 U206 2.454 . S
O207 C209 1.353 . S
O208 U206 2.458 . S
O208 C209 1.286 . S
C209 U206 2.984 . S
C209 O207 1.353 . S
C209 O208 1.286 . S
C209 C211 1.363 . S
C210 C200 1.465 . S
C210 U206 2.847 . S
C210 O224 1.249 . S
C210 O225 1.202 . S
C211 C209 1.363 . S
C211 C213 1.408 . S
C211 C216 1.342 . S
C212 C213 1.310 . S
C212 C215 1.461 . S
C212 H232 0.932 . S
C213 C211 1.408 . S
C213 C212 1.310 . S
C213 H233 0.930 . S
C214 C215 1.474 . S
C214 C216 1.285 . S
C214 H234 0.929 . S
C215 C212 1.461 . S
C215 C214 1.474 . S
C216 C211 1.342 . S
C216 C214 1.285 . S
C216 H235 0.930 . S
C217 C220 1.424 . S
C217 C222 1.245 . S
C217 C223 1.428 . S
C218 C221 1.260 . S
C218 C222 1.477 . S
C218 H236 0.932 . S
C219 C220 1.384 . S
C219 C221 1.479 . S
C219 H237 0.929 . S
C220 C217 1.424 . S
C220 C219 1.384 . S
C220 H238 0.928 . S
C221 C218 1.260 . S
C221 C219 1.479 . S
C222 C217 1.245 . S
C222 C218 1.477 . S
C222 H239 0.932 . S
C223 U206 2.882 . S
C223 C217 1.428 . S
C223 O226 1.301 . S
C223 O227 1.282 . S
O224 U206 2.441 . S
O224 C210 1.249 . S
O225 U206 2.420 . S
O225 C210 1.202 . S
O226 U206 2.455 . S
O226 C223 1.301 . S
O227 U206 2.449 . S
O227 C223 1.282 . S
H228 C201 0.931 . S
H229 C203 0.929 . S
H230 C204 0.930 . S
H231 C205 0.931 . S
H232 C212 0.932 . S
H233 C213 0.930 . S
H234 C214 0.929 . S
H235 C216 0.930 . S
H236 C218 0.932 . S
H237 C219 0.929 . S
H238 C220 0.928 . S
H239 C222 0.932 . S
C240 C241 1.264 . S
C240 C245 1.479 . S
C240 C250 1.465 . S
C241 C240 1.264 . S
C241 C243 1.339 . S
C241 H268 0.931 . S
C242 C243 1.395 . S
C242 C244 1.320 . S
C243 C241 1.339 . S
C243 C242 1.395 . S
C243 H269 0.929 . S
C244 C242 1.320 . S
C244 C245 1.405 . S
C244 H270 0.930 . S
C245 C240 1.479 . S
C245 C244 1.405 . S
C245 H271 0.931 . S
U246 O247 2.454 . S
U246 O248 2.458 . S
U246 C249 2.984 . S
U246 C250 2.847 . S
U246 C263 2.882 . S
U246 O264 2.441 . S
U246 O265 2.420 . S
U246 O266 2.455 . S
U246 O267 2.449 . S
O247 U246 2.454 . S
O247 C249 1.353 . S
O248 U246 2.458 . S
O248 C249 1.286 . S
C249 U246 2.984 . S
C249 O247 1.353 . S
C249 O248 1.286 . S
C249 C251 1.363 . S
C250 C240 1.465 . S
C250 U246 2.847 . S
C250 O264 1.249 . S
C250 O265 1.202 . S
C251 C249 1.363 . S
C251 C253 1.408 . S
C251 C256 1.342 . S
C252 C253 1.310 . S
C252 C255 1.461 . S
C252 H272 0.932 . S
C253 C251 1.408 . S
C253 C252 1.310 . S
C253 H273 0.930 . S
C254 C255 1.474 . S
C254 C256 1.285 . S
C254 H274 0.929 . S
C255 C252 1.461 . S
C255 C254 1.474 . S
C256 C251 1.342 . S
C256 C254 1.285 . S
C256 H275 0.930 . S
C257 C260 1.424 . S
C257 C262 1.245 . S
C257 C263 1.428 . S
C258 C261 1.260 . S
C258 C262 1.477 . S
C258 H276 0.932 . S
C259 C260 1.384 . S
C259 C261 1.479 . S
C259 H277 0.929 . S
C260 C257 1.424 . S
C260 C259 1.384 . S
C260 H278 0.928 . S
C261 C258 1.260 . S
C261 C259 1.479 . S
C262 C257 1.245 . S
C262 C258 1.477 . S
C262 H279 0.932 . S
C263 U246 2.882 . S
C263 C257 1.428 . S
C263 O266 1.301 . S
C263 O267 1.282 . S
O264 U246 2.441 . S
O264 C250 1.249 . S
O265 U246 2.420 . S
O265 C250 1.202 . S
O266 U246 2.455 . S
O266 C263 1.301 . S
O267 U246 2.449 . S
O267 C263 1.282 . S
H268 C241 0.931 . S
H269 C243 0.929 . S
H270 C244 0.930 . S
H271 C245 0.931 . S
H272 C252 0.932 . S
H273 C253 0.930 . S
H274 C254 0.929 . S
H275 C256 0.930 . S
H276 C258 0.932 . S
H277 C259 0.929 . S
H278 C260 0.928 . S
H279 C262 0.932 . S
C280 C281 1.264 . S
C280 C285 1.479 . S
C280 C290 1.465 . S
C281 C280 1.264 . S
C281 C283 1.339 . S
C281 H308 0.931 . S
C282 C283 1.395 . S
C282 C284 1.320 . S
C283 C281 1.339 . S
C283 C282 1.395 . S
C283 H309 0.929 . S
C284 C282 1.320 . S
C284 C285 1.405 . S
C284 H310 0.930 . S
C285 C280 1.479 . S
C285 C284 1.405 . S
C285 H311 0.931 . S
U286 O287 2.454 . S
U286 O288 2.458 . S
U286 C289 2.984 . S
U286 C290 2.847 . S
U286 C303 2.882 . S
U286 O304 2.441 . S
U286 O305 2.420 . S
U286 O306 2.455 . S
U286 O307 2.449 . S
O287 U286 2.454 . S
O287 C289 1.353 . S
O288 U286 2.458 . S
O288 C289 1.286 . S
C289 U286 2.984 . S
C289 O287 1.353 . S
C289 O288 1.286 . S
C289 C291 1.363 . S
C290 C280 1.465 . S
C290 U286 2.847 . S
C290 O304 1.249 . S
C290 O305 1.202 . S
C291 C289 1.363 . S
C291 C293 1.408 . S
C291 C296 1.342 . S
C292 C293 1.310 . S
C292 C295 1.461 . S
C292 H312 0.932 . S
C293 C291 1.408 . S
C293 C292 1.310 . S
C293 H313 0.930 . S
C294 C295 1.474 . S
C294 C296 1.285 . S
C294 H314 0.929 . S
C295 C292 1.461 . S
C295 C294 1.474 . S
C296 C291 1.342 . S
C296 C294 1.285 . S
C296 H315 0.930 . S
C297 C300 1.424 . S
C297 C302 1.245 . S
C297 C303 1.428 . S
C298 C301 1.260 . S
C298 C302 1.477 . S
C298 H316 0.932 . S
C299 C300 1.384 . S
C299 C301 1.479 . S
C299 H317 0.929 . S
C300 C297 1.424 . S
C300 C299 1.384 . S
C300 H318 0.928 . S
C301 C298 1.260 . S
C301 C299 1.479 . S
C302 C297 1.245 . S
C302 C298 1.477 . S
C302 H319 0.932 . S
C303 U286 2.882 . S
C303 C297 1.428 . S
C303 O306 1.301 . S
C303 O307 1.282 . S
O304 U286 2.441 . S
O304 C290 1.249 . S
O305 U286 2.420 . S
O305 C290 1.202 . S
O306 U286 2.455 . S
O306 C303 1.301 . S
O307 U286 2.449 . S
O307 C303 1.282 . S
H308 C281 0.931 . S
H309 C283 0.929 . S
H310 C284 0.930 . S
H311 C285 0.931 . S
H312 C292 0.932 . S
H313 C293 0.930 . S
H314 C294 0.929 . S
H315 C296 0.930 . S
H316 C298 0.932 . S
H317 C299 0.929 . S
H318 C300 0.928 . S
H319 C302 0.932 . S
H320 C332 0.930 . S
H321 C334 0.930 . S
H322 C335 0.930 1_545 S
H323 C339 0.959 . S
H324 C339 0.959 . S
H325 C339 0.961 . S
H326 C340 0.960 . S
H327 C340 0.961 . S
H328 C340 0.939 1_545 S
H329 C343 0.929 . S
H330 C344 0.931 . S
H331 C346 0.930 . S
C332 H320 0.930 . S
C332 C333 1.399 . S
C332 C337 1.399 . S
C333 C332 1.399 . S
C333 C334 1.376 . S
C334 H321 0.930 . S
C334 C333 1.376 . S
C334 C335 1.388 . S
C335 H322 0.930 1_565 S
C335 C334 1.388 . S
C335 C336 1.390 . S
C336 C335 1.390 . S
C336 C337 1.394 . S
C336 C342 1.465 1_565 S
C337 C332 1.399 . S
C337 C336 1.394 . S
C337 C338 1.516 . S
C338 C337 1.516 . S
C338 C339 1.502 . S
C338 C340 1.561 . S
C338 C341 1.526 1_565 S
C339 H323 0.959 . S
C339 H324 0.959 . S
C339 H325 0.961 . S
C339 C338 1.502 . S
C340 H326 0.960 . S
C340 H327 0.961 . S
C340 H328 0.939 1_565 S
C340 C338 1.561 . S
C341 C338 1.526 1_545 S
C341 C342 1.396 . S
C341 C346 1.390 . S
C342 C336 1.465 1_545 S
C342 C341 1.396 . S
C342 C343 1.399 . S
C343 H329 0.929 . S
C343 C342 1.399 . S
C343 C344 1.385 . S
C344 H330 0.931 . S
C344 C343 1.385 . S
C344 C345 1.389 . S
C345 C344 1.389 . S
C345 C346 1.387 . S
C346 H331 0.930 . S
C346 C341 1.390 . S
C346 C345 1.387 . S
H347 C359 0.930 . S
H348 C361 0.930 . S
H349 C362 0.930 . S
H350 C366 0.959 . S
H351 C366 0.959 . S
H352 C366 0.961 . S
H353 C367 0.960 . S
H354 C367 0.961 . S
H355 C367 0.959 . S
H356 C370 0.929 . S
H357 C371 0.931 . S
H358 C373 0.930 . S
C359 H347 0.930 . S
C359 C360 1.399 . S
C359 C364 1.399 . S
C360 C359 1.399 . S
C360 C361 1.376 . S
C361 H348 0.930 . S
C361 C360 1.376 . S
C361 C362 1.388 . S
C362 H349 0.930 . S
C362 C361 1.388 . S
C362 C363 1.390 . S
C363 C362 1.390 . S
C363 C364 1.394 . S
C363 C369 1.465 . S
C364 C359 1.399 . S
C364 C363 1.394 . S
C364 C365 1.516 . S
C365 C364 1.516 . S
C365 C366 1.502 . S
C365 C367 1.561 . S
C365 C368 1.526 . S
C366 H350 0.959 . S
C366 H351 0.959 . S
C366 H352 0.961 . S
C366 C365 1.502 . S
C367 H353 0.960 . S
C367 H354 0.961 . S
C367 H355 0.959 . S
C367 C365 1.561 . S
C368 C365 1.526 . S
C368 C369 1.396 . S
C368 C373 1.390 . S
C369 C363 1.465 . S
C369 C368 1.396 . S
C369 C370 1.399 . S
C370 H356 0.929 . S
C370 C369 1.399 . S
C370 C371 1.385 . S
C371 H357 0.931 . S
C371 C370 1.385 . S
C371 C372 1.389 . S
C372 C371 1.389 . S
C372 C373 1.387 . S
C373 H358 0.930 . S
C373 C368 1.390 . S
C373 C372 1.387 . S
H374 C386 0.930 . S
H375 C388 0.930 . S
H376 C389 0.930 . S
H377 C393 0.959 . S
H378 C393 0.959 . S
H379 C393 0.961 . S
H380 C394 0.960 . S
H381 C394 0.961 . S
H382 C394 0.959 . S
H383 C397 0.929 1_565 S
H384 C398 0.931 . S
H385 C400 0.930 . S
C386 H374 0.930 . S
C386 C387 1.399 . S
C386 C391 1.399 . S
C387 C386 1.399 . S
C387 C388 1.376 . S
C388 H375 0.930 . S
C388 C387 1.376 . S
C388 C389 1.388 . S
C389 H376 0.930 . S
C389 C388 1.388 . S
C389 C390 1.390 . S
C390 C389 1.390 . S
C390 C391 1.394 . S
C390 C396 1.465 1_565 S
C391 C386 1.399 . S
C391 C390 1.394 . S
C391 C392 1.516 1_565 S
C392 C391 1.516 1_545 S
C392 C393 1.502 . S
C392 C394 1.561 . S
C392 C395 1.526 . S
C393 H377 0.959 . S
C393 H378 0.959 . S
C393 H379 0.961 . S
C393 C392 1.502 . S
C394 H380 0.960 . S
C394 H381 0.961 . S
C394 H382 0.959 . S
C394 C392 1.561 . S
C395 C392 1.526 . S
C395 C396 1.396 . S
C395 C400 1.390 . S
C396 C390 1.465 1_545 S
C396 C395 1.396 . S
C396 C397 1.399 . S
C397 H383 0.929 1_545 S
C397 C396 1.399 . S
C397 C398 1.385 . S
C398 H384 0.931 . S
C398 C397 1.385 . S
C398 C399 1.389 . S
C399 C398 1.389 . S
C399 C400 1.387 . S
C400 H385 0.930 . S
C400 C395 1.390 . S
C400 C399 1.387 . S
H401 C413 0.930 . S
H402 C415 0.930 . S
H403 C416 0.930 . S
H404 C420 0.959 . S
H405 C420 0.959 . S
H406 C420 0.961 . S
H407 C421 0.960 1_554 S
H408 C421 0.961 . S
H409 C421 0.959 . S
H410 C424 0.929 . S
H411 C425 0.931 . S
H412 C427 0.930 . S
C413 H401 0.930 . S
C413 C414 1.399 . S
C413 C418 1.399 . S
C414 C413 1.399 . S
C414 C415 1.376 . S
C415 H402 0.930 . S
C415 C414 1.376 . S
C415 C416 1.388 . S
C416 H403 0.930 . S
C416 C415 1.388 . S
C416 C417 1.390 . S
C417 C416 1.390 . S
C417 C418 1.394 . S
C417 C423 1.465 1_554 S
C418 C413 1.399 . S
C418 C417 1.394 . S
C418 C419 1.516 . S
C419 C418 1.516 . S
C419 C420 1.502 . S
C419 C421 1.561 1_554 S
C419 C422 1.526 1_554 S
C420 H404 0.959 . S
C420 H405 0.959 . S
C420 H406 0.961 . S
C420 C419 1.502 . S
C421 H407 0.960 1_556 S
C421 H408 0.961 . S
C421 H409 0.959 . S
C421 C419 1.561 1_556 S
C422 C419 1.526 1_556 S
C422 C423 1.396 . S
C422 C427 1.390 . S
C423 C417 1.465 1_556 S
C423 C422 1.396 . S
C423 C424 1.399 . S
C424 H410 0.929 . S
C424 C423 1.399 . S
C424 C425 1.385 . S
C425 H411 0.931 . S
C425 C424 1.385 . S
C425 C426 1.389 . S
C426 C425 1.389 . S
C426 C427 1.387 . S
C427 H412 0.930 . S
C427 C422 1.390 . S
C427 C426 1.387 . S
H428 C440 0.930 . S
H429 C442 0.930 . S
H430 C443 0.930 1_455 S
H431 C447 0.959 . S
H432 C447 0.959 . S
H433 C447 0.961 . S
H434 C448 0.960 . S
H435 C448 0.961 . S
H436 C448 0.959 1_455 S
H437 C451 0.929 . S
H438 C452 0.931 . S
H439 C454 0.930 . S
C440 H428 0.930 . S
C440 C441 1.399 . S
C440 C445 1.399 . S
C441 C440 1.399 . S
C441 C442 1.376 . S
C442 H429 0.930 . S
C442 C441 1.376 . S
C442 C443 1.388 . S
C443 H430 0.930 1_655 S
C443 C442 1.388 . S
C443 C444 1.390 . S
C444 C443 1.390 . S
C444 C445 1.394 . S
C444 C450 1.465 1_655 S
C445 C440 1.399 . S
C445 C444 1.394 . S
C445 C446 1.516 . S
C446 C445 1.516 . S
C446 C447 1.502 . S
C446 C448 1.561 . S
C446 C449 1.526 1_655 S
C447 H431 0.959 . S
C447 H432 0.959 . S
C447 H433 0.961 . S
C447 C446 1.502 . S
C448 H434 0.960 . S
C448 H435 0.961 . S
C448 H436 0.959 1_655 S
C448 C446 1.561 . S
C449 C446 1.526 1_455 S
C449 C450 1.396 . S
C449 C454 1.390 . S
C450 C444 1.465 1_455 S
C450 C449 1.396 . S
C450 C451 1.399 . S
C451 H437 0.929 . S
C451 C450 1.399 . S
C451 C452 1.385 . S
C452 H438 0.931 . S
C452 C451 1.385 . S
C452 C453 1.389 . S
C453 C452 1.389 . S
C453 C454 1.387 . S
C454 H439 0.930 . S
C454 C449 1.390 . S
C454 C453 1.387 . S
H455 C467 0.930 . S
H456 C469 0.930 . S
H457 C470 0.930 . S
H458 C474 0.959 . S
H459 C474 0.959 . S
H460 C474 0.961 . S
H461 C475 0.960 . S
H462 C475 0.961 . S
H463 C475 0.959 . S
H464 C478 0.929 . S
H465 C479 0.931 . S
H466 C481 0.930 . S
C467 H455 0.930 . S
C467 C468 1.399 . S
C467 C472 1.399 . S
C468 C467 1.399 . S
C468 C469 1.376 . S
C469 H456 0.930 . S
C469 C468 1.376 . S
C469 C470 1.388 . S
C470 H457 0.930 . S
C470 C469 1.388 . S
C470 C471 1.390 . S
C471 C470 1.390 . S
C471 C472 1.394 . S
C471 C477 1.465 . S
C472 C467 1.399 . S
C472 C471 1.394 . S
C472 C473 1.516 . S
C473 C472 1.516 . S
C473 C474 1.502 . S
C473 C475 1.561 . S
C473 C476 1.526 . S
C474 H458 0.959 . S
C474 H459 0.959 . S
C474 H460 0.961 . S
C474 C473 1.502 . S
C475 H461 0.960 . S
C475 H462 0.961 . S
C475 H463 0.959 . S
C475 C473 1.561 . S
C476 C473 1.526 . S
C476 C477 1.396 . S
C476 C481 1.390 . S
C477 C471 1.465 . S
C477 C476 1.396 . S
C477 C478 1.399 . S
C478 H464 0.929 . S
C478 C477 1.399 . S
C478 C479 1.385 . S
C479 H465 0.931 . S
C479 C478 1.385 . S
C479 C480 1.389 . S
C480 C479 1.389 . S
C480 C481 1.387 . S
C481 H466 0.930 . S
C481 C476 1.390 . S
C481 C480 1.387 . S
H482 C494 0.930 . S
H483 C496 0.930 . S
H484 C497 0.930 . S
H485 C501 0.959 . S
H486 C501 0.959 . S
H487 C501 0.961 . S
H488 C502 0.983 . S
H489 C502 0.961 . S
H490 C502 0.959 . S
H491 C505 0.929 . S
H492 C506 0.931 . S
H493 C508 0.930 . S
C494 H482 0.930 . S
C494 C495 1.399 . S
C494 C499 1.399 . S
C495 C494 1.399 . S
C495 C496 1.376 . S
C496 H483 0.930 . S
C496 C495 1.376 . S
C496 C497 1.388 . S
C497 H484 0.930 . S
C497 C496 1.388 . S
C497 C498 1.390 . S
C498 C497 1.390 . S
C498 C499 1.394 . S
C498 C504 1.465 1_455 S
C499 C494 1.399 . S
C499 C498 1.394 . S
C499 C500 1.516 . S
C500 C499 1.516 . S
C500 C501 1.502 . S
C500 C502 1.561 1_455 S
C500 C503 1.526 1_455 S
C501 H485 0.959 . S
C501 H486 0.959 . S
C501 H487 0.961 . S
C501 C500 1.502 . S
C502 H488 0.983 . S
C502 H489 0.961 . S
C502 H490 0.959 . S
C502 C500 1.561 1_655 S
C503 C500 1.526 1_655 S
C503 C504 1.396 . S
C503 C508 1.390 . S
C504 C498 1.465 1_655 S
C504 C503 1.396 . S
C504 C505 1.399 . S
C505 H491 0.929 . S
C505 C504 1.399 . S
C505 C506 1.385 . S
C506 H492 0.931 . S
C506 C505 1.385 . S
C506 C507 1.389 . S
C507 C506 1.389 . S
C507 C508 1.387 . S
C508 H493 0.930 . S
C508 C503 1.390 . S
C508 C507 1.387 . S
H509 C521 0.930 . S
H510 C523 0.930 . S
H511 C524 0.930 . S
H512 C528 0.959 . S
H513 C528 0.959 . S
H514 C528 0.961 . S
H515 C529 0.960 . S
H516 C529 0.961 . S
H517 C529 0.959 . S
H518 C532 0.929 . S
H519 C533 0.931 . S
H520 C535 0.930 . S
C521 H509 0.930 . S
C521 C522 1.399 . S
C521 C526 1.399 . S
C522 C521 1.399 . S
C522 C523 1.376 . S
C523 H510 0.930 . S
C523 C522 1.376 . S
C523 C524 1.388 . S
C524 H511 0.930 . S
C524 C523 1.388 . S
C524 C525 1.390 . S
C525 C524 1.390 . S
C525 C526 1.394 . S
C525 C531 1.465 . S
C526 C521 1.399 . S
C526 C525 1.394 . S
C526 C527 1.516 . S
C527 C526 1.516 . S
C527 C528 1.502 . S
C527 C529 1.561 . S
C527 C530 1.526 . S
C528 H512 0.959 . S
C528 H513 0.959 . S
C528 H514 0.961 . S
C528 C527 1.502 . S
C529 H515 0.960 . S
C529 H516 0.961 . S
C529 H517 0.959 . S
C529 C527 1.561 . S
C530 C527 1.526 . S
C530 C531 1.396 . S
C530 C535 1.390 . S
C531 C525 1.465 . S
C531 C530 1.396 . S
C531 C532 1.399 . S
C532 H518 0.929 . S
C532 C531 1.399 . S
C532 C533 1.385 . S
C533 H519 0.931 . S
C533 C532 1.385 . S
C533 C534 1.389 . S
C534 C533 1.389 . S
C534 C535 1.387 . S
C535 H520 0.930 . S
C535 C530 1.390 . S
C535 C534 1.387 . S
H536 C548 0.930 . S
H537 C550 0.930 . S
H538 C551 0.930 . S
H539 C555 0.959 . S
H540 C555 0.959 . S
H541 C555 0.961 . S
H542 C556 0.960 . S
H543 C556 0.961 . S
H544 C556 0.959 . S
H545 C559 0.929 . S
H546 C560 0.931 . S
H547 C562 0.930 . S
C548 H536 0.930 . S
C548 C549 1.399 . S
C548 C553 1.399 . S
C549 C548 1.399 . S
C549 C550 1.376 . S
C550 H537 0.930 . S
C550 C549 1.376 . S
C550 C551 1.388 . S
C551 H538 0.930 . S
C551 C550 1.388 . S
C551 C552 1.390 . S
C552 C551 1.390 . S
C552 C553 1.394 . S
C552 C558 1.465 . S
C553 C548 1.399 . S
C553 C552 1.394 . S
C553 C554 1.516 . S
C554 C553 1.516 . S
C554 C555 1.502 . S
C554 C556 1.561 . S
C554 C557 1.526 . S
C555 H539 0.959 . S
C555 H540 0.959 . S
C555 H541 0.961 . S
C555 C554 1.502 . S
C556 H542 0.960 . S
C556 H543 0.961 . S
C556 H544 0.959 . S
C556 C554 1.561 . S
C557 C554 1.526 . S
C557 C558 1.396 . S
C557 C562 1.390 . S
C558 C552 1.465 . S
C558 C557 1.396 . S
C558 C559 1.399 . S
C559 H545 0.929 . S
C559 C558 1.399 . S
C559 C560 1.385 . S
C560 H546 0.931 . S
C560 C559 1.385 . S
C560 C561 1.389 . S
C561 C560 1.389 . S
C561 C562 1.387 . S
C562 H547 0.930 . S
C562 C557 1.390 . S
C562 C561 1.387 . S
H563 C575 0.930 . S
H564 C577 0.930 . S
H565 C578 0.930 1_556 S
H566 C582 0.959 . S
H567 C582 0.959 . S
H568 C582 0.961 . S
H569 C583 0.960 . S
H570 C583 0.961 . S
H571 C583 0.959 . S
H572 C586 0.929 . S
H573 C587 0.931 . S
H574 C589 0.930 . S
C575 H563 0.930 . S
C575 C576 1.399 . S
C575 C580 1.399 . S
C576 C575 1.399 . S
C576 C577 1.376 . S
C577 H564 0.930 . S
C577 C576 1.376 . S
C577 C578 1.388 . S
C578 H565 0.930 1_554 S
C578 C577 1.388 . S
C578 C579 1.390 1_554 S
C579 C578 1.390 1_556 S
C579 C580 1.394 1_556 S
C579 C585 1.465 . S
C580 C575 1.399 . S
C580 C579 1.394 1_554 S
C580 C581 1.494 1_554 S
C581 C580 1.494 1_556 S
C581 C582 1.463 1_556 S
C581 C583 1.588 . S
C581 C584 1.568 . S
C582 H566 0.959 . S
C582 H567 0.959 . S
C582 H568 0.961 . S
C582 C581 1.463 1_554 S
C583 H569 0.960 . S
C583 H570 0.961 . S
C583 H571 0.959 . S
C583 C581 1.588 . S
C584 C581 1.568 . S
C584 C585 1.396 . S
C584 C589 1.390 . S
C585 C579 1.465 . S
C585 C584 1.396 . S
C585 C586 1.399 . S
C586 H572 0.929 . S
C586 C585 1.399 . S
C586 C587 1.385 . S
C587 H573 0.931 . S
C587 C586 1.385 . S
C587 C588 1.389 . S
C588 C587 1.389 . S
C588 C589 1.387 . S
C589 H574 0.930 . S
C589 C584 1.390 . S
C589 C588 1.387 . S
H590 C602 0.930 . S
H591 C604 0.930 . S
H592 C605 0.930 . S
H593 C609 0.959 . S
H594 C609 0.959 . S
H595 C609 0.961 . S
H596 C610 0.960 . S
H597 C610 0.961 . S
H598 C610 0.959 . S
H599 C613 0.929 . S
H600 C614 0.931 . S
H601 C616 0.930 . S
C602 H590 0.930 . S
C602 C603 1.399 . S
C602 C607 1.399 . S
C603 C602 1.399 . S
C603 C604 1.376 . S
C604 H591 0.930 . S
C604 C603 1.376 . S
C604 C605 1.388 . S
C605 H592 0.930 . S
C605 C604 1.388 . S
C605 C606 1.390 . S
C606 C605 1.390 . S
C606 C607 1.394 . S
C606 C612 1.465 . S
C607 C602 1.399 . S
C607 C606 1.394 . S
C607 C608 1.516 . S
C608 C607 1.516 . S
C608 C609 1.502 . S
C608 C610 1.561 . S
C608 C611 1.526 . S
C609 H593 0.959 . S
C609 H594 0.959 . S
C609 H595 0.961 . S
C609 C608 1.502 . S
C610 H596 0.960 . S
C610 H597 0.961 . S
C610 H598 0.959 . S
C610 C608 1.561 . S
C611 C608 1.526 . S
C611 C612 1.396 . S
C611 C616 1.390 . S
C612 C606 1.465 . S
C612 C611 1.396 . S
C612 C613 1.399 . S
C613 H599 0.929 . S
C613 C612 1.399 . S
C613 C614 1.385 . S
C614 H600 0.931 . S
C614 C613 1.385 . S
C614 C615 1.389 . S
C615 C614 1.389 . S
C615 C616 1.387 . S
C616 H601 0.930 . S
C616 C611 1.390 . S
C616 C615 1.387 . S
H617 C629 0.930 . S
H618 C631 0.930 . S
H619 C632 0.930 . S
H620 C636 0.959 . S
H621 C636 0.959 . S
H622 C636 0.961 . S
H623 C637 0.960 . S
H624 C637 0.961 . S
H625 C637 0.959 . S
H626 C640 0.929 . S
H627 C641 0.931 . S
H628 C643 0.930 . S
C629 H617 0.930 . S
C629 C630 1.399 . S
C629 C634 1.399 . S
C630 C629 1.399 . S
C630 C631 1.376 . S
C631 H618 0.930 . S
C631 C630 1.376 . S
C631 C632 1.388 . S
C632 H619 0.930 . S
C632 C631 1.388 . S
C632 C633 1.390 . S
C633 C632 1.390 . S
C633 C634 1.394 . S
C633 C639 1.465 . S
C634 C629 1.399 . S
C634 C633 1.394 . S
C634 C635 1.516 . S
C635 C634 1.516 . S
C635 C636 1.502 . S
C635 C637 1.561 . S
C635 C638 1.526 . S
C636 H620 0.959 . S
C636 H621 0.959 . S
C636 H622 0.961 . S
C636 C635 1.502 . S
C637 H623 0.960 . S
C637 H624 0.961 . S
C637 H625 0.959 . S
C637 C635 1.561 . S
C638 C635 1.526 . S
C638 C639 1.396 . S
C638 C643 1.390 . S
C639 C633 1.465 . S
C639 C638 1.396 . S
C639 C640 1.399 . S
C640 H626 0.929 . S
C640 C639 1.399 . S
C640 C641 1.385 . S
C641 H627 0.931 . S
C641 C640 1.385 . S
C641 C642 1.389 . S
C642 C641 1.389 . S
C642 C643 1.387 . S
C643 H628 0.930 . S
C643 C638 1.390 . S
C643 C642 1.387 . S
C333 C42 1.473 . S
C345 C2 1.498 . S
C360 C61 1.483 . S
C372 C95 1.492 . S
C387 C82 1.459 . S
C399 C122 1.476 . S
C414 C21 1.483 . S
C426 C135 1.492 . S
C441 C221 1.492 . S
C453 C15 1.498 . S
C468 C141 1.478 . S
C480 C175 1.492 . S
C495 C55 1.495 . S
C507 C261 1.463 . S
C522 C295 1.494 . S
C534 C101 1.499 . S
C549 C282 1.501 . S
C561 C162 1.483 . S
C576 C215 1.495 . S
C588 C181 1.501 . S
C603 C202 1.462 . S
C615 C242 1.467 . S
C630 C255 1.493 . S
C642 C301 1.463 . S
