# Generated by pormake.
# Topology unf, (4)-cn, num edge types: 1
# Building blocks:
#     Node 0, Type 0, BuildingBlock: AZAVOO_clean_sbu_0, # of connection points: 4
#     Node 1, Type 0, BuildingBlock: AZAVOO_clean_sbu_0, # of connection points: 4
#     Node 2, Type 0, BuildingBlock: AZAVOO_clean_sbu_0, # of connection points: 4
#     Node 3, Type 0, BuildingBlock: AZAVOO_clean_sbu_0, # of connection points: 4
#     Node 4, Type 0, BuildingBlock: AZAVOO_clean_sbu_0, # of connection points: 4
#     Node 5, Type 0, BuildingBlock: AZAVOO_clean_sbu_0, # of connection points: 4
#     Node 6, Type 0, BuildingBlock: AZAVOO_clean_sbu_0, # of connection points: 4
#     Node 7, Type 0, BuildingBlock: AZAVOO_clean_sbu_0, # of connection points: 4
#     Node 8, Type 0, BuildingBlock: AZAVOO_clean_sbu_0, # of connection points: 4
#     Node 9, Type 0, BuildingBlock: AZAVOO_clean_sbu_0, # of connection points: 4
#     Node 10, Type 0, BuildingBlock: AZAVOO_clean_sbu_0, # of connection points: 4
#     Node 11, Type 0, BuildingBlock: AZAVOO_clean_sbu_0, # of connection points: 4
#     Edge 12, Type (0, 0), BuildingBlock: XIVTED_clean_linker_0, # of connection points: 2
#     Edge 13, Type (0, 0), BuildingBlock: XIVTED_clean_linker_0, # of connection points: 2
#     Edge 14, Type (0, 0), BuildingBlock: XIVTED_clean_linker_0, # of connection points: 2
#     Edge 15, Type (0, 0), BuildingBlock: XIVTED_clean_linker_0, # of connection points: 2
#     Edge 16, Type (0, 0), BuildingBlock: XIVTED_clean_linker_0, # of connection points: 2
#     Edge 17, Type (0, 0), BuildingBlock: XIVTED_clean_linker_0, # of connection points: 2
#     Edge 18, Type (0, 0), BuildingBlock: XIVTED_clean_linker_0, # of connection points: 2
#     Edge 19, Type (0, 0), BuildingBlock: XIVTED_clean_linker_0, # of connection points: 2
#     Edge 20, Type (0, 0), BuildingBlock: XIVTED_clean_linker_0, # of connection points: 2
#     Edge 21, Type (0, 0), BuildingBlock: XIVTED_clean_linker_0, # of connection points: 2
#     Edge 22, Type (0, 0), BuildingBlock: XIVTED_clean_linker_0, # of connection points: 2
#     Edge 23, Type (0, 0), BuildingBlock: XIVTED_clean_linker_0, # of connection points: 2
#     Edge 24, Type (0, 0), BuildingBlock: XIVTED_clean_linker_0, # of connection points: 2
#     Edge 25, Type (0, 0), BuildingBlock: XIVTED_clean_linker_0, # of connection points: 2
#     Edge 26, Type (0, 0), BuildingBlock: XIVTED_clean_linker_0, # of connection points: 2
#     Edge 27, Type (0, 0), BuildingBlock: XIVTED_clean_linker_0, # of connection points: 2
#     Edge 28, Type (0, 0), BuildingBlock: XIVTED_clean_linker_0, # of connection points: 2
#     Edge 29, Type (0, 0), BuildingBlock: XIVTED_clean_linker_0, # of connection points: 2
#     Edge 30, Type (0, 0), BuildingBlock: XIVTED_clean_linker_0, # of connection points: 2
#     Edge 31, Type (0, 0), BuildingBlock: XIVTED_clean_linker_0, # of connection points: 2
#     Edge 32, Type (0, 0), BuildingBlock: XIVTED_clean_linker_0, # of connection points: 2
#     Edge 33, Type (0, 0), BuildingBlock: XIVTED_clean_linker_0, # of connection points: 2
#     Edge 34, Type (0, 0), BuildingBlock: XIVTED_clean_linker_0, # of connection points: 2
#     Edge 35, Type (0, 0), BuildingBlock: XIVTED_clean_linker_0, # of connection points: 2
# Relax obj value: 0.253
# Max RMSD: 0.199
# Mean RMSD: 0.199
data_MOF--net-unf--node1-AZAVOO_clean_sbu_0--edge1-XIVTED_clean_linker_0
_symmetry_space_group_name_H-M    P1
_symmetry_Int_Tables_number       1
_symmetry_cell_setting            triclinic
loop_
_symmetry_equiv_pos_as_xyz
'x, y, z'
_cell_length_a     37.140869
_cell_length_b     37.174244
_cell_length_c     37.553998
_cell_angle_alpha  89.580046
_cell_angle_beta   90.277363
_cell_angle_gamma 119.88837
loop_
_atom_site_label
_atom_site_type_symbol
_atom_site_fract_x
_atom_site_fract_y
_atom_site_fract_z
_atom_type_partial_charge
Mg0 Mg 0.15628 0.38847 -0.00387 0.0
O1 O 0.09409 0.33219 0.00895 0.0
O2 O 0.10088 0.28356 0.0384 0.0
Mg3 Mg 0.17151 0.30872 0.04172 0.0
C4 C 0.07836 0.297 0.02447 0.0
C5 C 0.09466 0.40935 0.95744 0.0
O6 O 0.08908 0.37633 0.9402 0.0
O7 O 0.16492 0.40795 0.05518 0.0
O8 O 0.1803 0.36135 0.07821 0.0
O9 O 0.15994 0.35966 0.94435 0.0
O10 O 0.18242 0.35024 -0.00385 0.0
C11 C 0.17672 0.39364 0.08105 0.0
C12 C 0.17559 0.34138 0.96299 0.0
O13 O 0.12164 0.4237 0.9823 0.0
Mg14 Mg 0.59059 0.67303 0.12146 0.0
O15 O 0.64788 0.66711 0.10683 0.0
O16 O 0.70734 0.72789 0.10842 0.0
Mg17 Mg 0.68989 0.76469 0.14582 0.0
C18 C 0.68676 0.68939 0.10051 0.0
C19 C 0.55628 0.593 0.07901 0.0
O20 O 0.58125 0.62208 0.0567 0.0
O21 O 0.59322 0.66284 0.18185 0.0
O22 O 0.65863 0.70374 0.17547 0.0
O23 O 0.59646 0.70421 0.0693 0.0
O24 O 0.62849 0.73951 0.11768 0.0
C25 C 0.62625 0.69364 0.1935 0.0
C26 C 0.62155 0.73937 0.084 0.0
O27 O 0.55101 0.60356 0.10988 0.0
Mg28 Mg 0.23046 0.7728 0.07979 0.0
O29 O 0.23676 0.83631 0.08348 0.0
O30 O 0.17826 0.83569 0.09711 0.0
Mg31 Mg 0.13087 0.76576 0.1028 0.0
C32 C 0.2169 0.85527 0.08966 0.0
C33 C 0.31652 0.83341 0.05267 0.0
O34 O 0.29046 0.83679 0.03103 0.0
O35 O 0.22855 0.76788 0.14067 0.0
O36 O 0.16525 0.75895 0.15089 0.0
O37 O 0.21173 0.76799 0.02255 0.0
O38 O 0.16724 0.74857 0.0671 0.0
C39 C 0.19865 0.76051 0.16172 0.0
C40 C 0.17415 0.75444 0.03339 0.0
O41 O 0.30184 0.80637 0.07752 0.0
Mg42 Mg 0.59788 0.92592 0.37199 0.0
O43 O 0.65311 0.99197 0.37906 0.0
O44 O 0.71501 0.99888 0.36652 0.0
Mg45 Mg 0.69462 0.94255 0.3307 0.0
C46 C 0.69275 0.01323 0.37892 0.0
C47 C 0.5671 0.96921 0.42222 0.0
O48 O 0.598 0.96964 0.43974 0.0
O49 O 0.58602 0.93355 0.31288 0.0
O50 O 0.65231 0.96441 0.30819 0.0
O51 O 0.61912 0.90747 0.42074 0.0
O52 O 0.64035 0.90301 0.3668 0.0
C53 C 0.61734 0.93786 0.29578 0.0
C54 C 0.64163 0.89831 0.40072 0.0
O55 O 0.55665 0.95108 0.39219 0.0
Mg56 Mg 0.16162 0.76355 0.50104 0.0
O57 O 0.10932 0.77049 0.47702 0.0
O58 O 0.13275 0.83206 0.45041 0.0
Mg59 Mg 0.2042 0.8646 0.45588 0.0
C60 C 0.10312 0.7964 0.4596 0.0
C61 C 0.11201 0.67963 0.54262 0.0
O62 O 0.13876 0.70209 0.56741 0.0
O63 O 0.17612 0.75036 0.44474 0.0
O64 O 0.20503 0.81456 0.42144 0.0
O65 O 0.16213 0.79852 0.55062 0.0
O66 O 0.19996 0.82716 0.50261 0.0
C67 C 0.19455 0.77627 0.41937 0.0
C68 C 0.18908 0.83154 0.53386 0.0
O69 O 0.11436 0.69564 0.51207 0.0
Mg70 Mg 0.24988 0.45818 0.41898 0.0
O71 O 0.25623 0.40096 0.41823 0.0
O72 O 0.19705 0.34251 0.4077 0.0
Mg73 Mg 0.14892 0.36431 0.40142 0.0
C74 C 0.23601 0.36185 0.41404 0.0
C75 C 0.33899 0.48704 0.44349 0.0
O76 O 0.31529 0.45967 0.46752 0.0
O77 O 0.24467 0.45646 0.3578 0.0
O78 O 0.18067 0.40189 0.35124 0.0
O79 O 0.23281 0.44794 0.47727 0.0
O80 O 0.18742 0.42017 0.43355 0.0
C81 C 0.21345 0.43262 0.33839 0.0
C82 C 0.19508 0.42313 0.46714 0.0
O83 O 0.32162 0.49632 0.4185 0.0
Mg84 Mg 0.83585 0.54293 0.88897 0.0
O85 O 0.89671 0.60331 0.89704 0.0
O86 O 0.8887 0.65886 0.89876 0.0
Mg87 Mg 0.81981 0.6336 0.88627 0.0
C88 C 0.91147 0.64218 0.90065 0.0
C89 C 0.89908 0.51854 0.91257 0.0
O90 O 0.89723 0.54163 0.938 0.0
O91 O 0.83807 0.5572 0.82873 0.0
O92 O 0.82802 0.61177 0.83191 0.0
O93 O 0.82126 0.53925 0.94759 0.0
O94 O 0.80412 0.57246 0.90818 0.0
C95 C 0.83395 0.58613 0.814 0.0
C96 C 0.80599 0.56309 0.94085 0.0
O97 O 0.87532 0.51063 0.88558 0.0
Mg98 Mg 0.42018 0.21495 0.97058 0.0
O99 O 0.3622 0.21574 0.95224 0.0
O100 O 0.31713 0.15596 0.92637 0.0
Mg101 Mg 0.34952 0.11673 0.92589 0.0
C102 C 0.32767 0.19252 0.9368 0.0
C103 C 0.43801 0.29384 0.01192 0.0
O104 O 0.41011 0.26418 0.03218 0.0
O105 O 0.44312 0.22711 0.91259 0.0
O106 O 0.40016 0.16462 0.88934 0.0
O107 O 0.38845 0.18108 0.02152 0.0
O108 O 0.38832 0.15053 0.97145 0.0
C109 C 0.43075 0.20161 0.88655 0.0
C110 C 0.3765 0.14722 0.0039 0.0
O111 O 0.44969 0.28406 0.98358 0.0
Mg112 Mg 0.69699 0.08874 0.96492 0.0
O113 O 0.6967 0.02625 0.96601 0.0
O114 O 0.75803 0.03395 0.94924 0.0
Mg115 Mg 0.78015 0.09009 0.91241 0.0
C116 C 0.72203 0.01252 0.96314 0.0
C117 C 0.6208 0.02806 0.01283 0.0
O118 O 0.64944 0.02231 0.02811 0.0
O119 O 0.67323 0.08416 0.90709 0.0
O120 O 0.71239 0.05773 0.89816 0.0
O121 O 0.74358 0.11046 0.01032 0.0
O122 O 0.76131 0.12059 0.95362 0.0
C123 C 0.69592 0.07783 0.88579 0.0
C124 C 0.77249 0.12483 0.98637 0.0
O125 O 0.63108 0.05442 0.98759 0.0
Mg126 Mg 0.43443 0.20787 0.54753 0.0
O127 O 0.37672 0.14822 0.56278 0.0
O128 O 0.32752 0.15774 0.58702 0.0
Mg129 Mg 0.35709 0.2292 0.58807 0.0
C130 C 0.34092 0.13394 0.57662 0.0
C131 C 0.44781 0.14145 0.51268 0.0
O132 O 0.41326 0.1363 0.49827 0.0
O133 O 0.45346 0.21764 0.6066 0.0
O134 O 0.4071 0.23444 0.62705 0.0
O135 O 0.40579 0.20961 0.49496 0.0
O136 O 0.40003 0.238 0.54442 0.0
C137 C 0.43861 0.22967 0.63157 0.0
C138 C 0.3908 0.22968 0.5114 0.0
O139 O 0.4661 0.16978 0.53585 0.0
Mg140 Mg 0.84841 0.29614 0.59911 0.0
O141 O 0.9101 0.29776 0.59214 0.0
O142 O 0.9003 0.23392 0.58638 0.0
Mg143 Mg 0.83041 0.18992 0.59434 0.0
C144 C 0.92414 0.27318 0.58715 0.0
C145 C 0.88177 0.38888 0.5869 0.0
O146 O 0.85229 0.3714 0.56286 0.0
O147 O 0.8443 0.27746 0.65818 0.0
O148 O 0.83274 0.21274 0.65115 0.0
O149 O 0.83992 0.29143 0.5395 0.0
O150 O 0.81578 0.23757 0.5761 0.0
C151 C 0.83735 0.24254 0.67098 0.0
C152 C 0.82031 0.25164 0.54417 0.0
O153 O 0.88657 0.36579 0.6093 0.0
Mg154 Mg 0.73269 0.62674 0.49878 0.0
O155 O 0.72984 0.68745 0.4998 0.0
O156 O 0.7897 0.74186 0.51809 0.0
Mg157 Mg 0.82098 0.70997 0.54557 0.0
C158 C 0.75336 0.72646 0.50466 0.0
C159 C 0.64824 0.60242 0.45912 0.0
O160 O 0.674 0.63277 0.43817 0.0
O161 O 0.72081 0.60971 0.55834 0.0
O162 O 0.75817 0.67506 0.5727 0.0
O163 O 0.77031 0.65046 0.44816 0.0
O164 O 0.79764 0.66293 0.50216 0.0
C165 C 0.74049 0.63717 0.58184 0.0
C166 C 0.80271 0.66917 0.46845 0.0
O167 O 0.66291 0.59137 0.48501 0.0
H168 H 0.14997 0.26273 0.9856 0.0
H169 H 0.34979 0.27125 0.91759 0.0
H170 H 0.22656 0.35341 0.90697 0.0
H171 H 0.24267 0.15278 0.94221 0.0
H172 H 0.30504 0.30195 0.91354 0.0
H173 H 0.18137 0.22054 0.96993 0.0
C174 C 0.17273 0.27318 0.96442 0.0
C175 C 0.18598 0.3115 0.94757 0.0
C176 C 0.29117 0.26909 0.91921 0.0
C177 C 0.22272 0.2643 0.93032 0.0
C178 C 0.31669 0.25164 0.92179 0.0
C179 C 0.29982 0.20955 0.93052 0.0
C180 C 0.24863 0.24457 0.92649 0.0
C181 C 0.25677 0.18538 0.93544 0.0
C182 C 0.19054 0.24912 0.95545 0.0
C183 C 0.21547 0.32384 0.92035 0.0
N184 N 0.23265 0.20346 0.93414 0.0
N185 N 0.23368 0.30076 0.91311 0.0
H186 H 0.69229 0.81282 0.09891 0.0
H187 H 0.64345 0.94673 0.96694 0.0
H188 H 0.5934 0.75464 0.02182 0.0
H189 H 0.77071 0.9834 0.9918 0.0
H190 H 0.62144 0.87841 0.99319 0.0
H191 H 0.71943 0.87838 0.06599 0.0
C192 C 0.67648 0.81372 0.07496 0.0
C193 C 0.64053 0.77826 0.06307 0.0
C194 C 0.65419 0.90133 0.99257 0.0
C195 C 0.67085 0.85312 0.02594 0.0
C196 C 0.66676 0.9403 0.9778 0.0
C197 C 0.70897 0.97064 0.97719 0.0
C198 C 0.6839 0.89305 0.0077 0.0
C199 C 0.7379 0.96071 0.99157 0.0
C200 C 0.69208 0.85107 0.05617 0.0
C201 C 0.6213 0.78123 0.03181 0.0
N202 N 0.72477 0.92285 0.00678 0.0
N203 N 0.63631 0.81822 0.01461 0.0
H204 H 0.17105 0.73823 0.96225 0.0
H205 H 0.97432 0.62661 0.88647 0.0
H206 H 0.10065 0.75262 0.0464 0.0
H207 H 0.94835 0.71391 0.93927 0.0
H208 H 0.04389 0.66135 0.9124 0.0
H209 H 0.11204 0.71835 0.92183 0.0
C210 C 0.14337 0.73753 0.97217 0.0
C211 C 0.14046 0.7463 0.00799 0.0
C212 C 0.02347 0.67371 0.91744 0.0
C213 C 0.07323 0.7237 0.96213 0.0
C214 C 0.98365 0.65372 0.90288 0.0
C215 C 0.95555 0.66739 0.91084 0.0
C216 C 0.03496 0.70713 0.94065 0.0
C217 C 0.96913 0.70252 0.93235 0.0
C218 C 0.10971 0.72595 0.94918 0.0
C219 C 0.10405 0.74527 0.01936 0.0
N220 N 0.00763 0.72063 0.94721 0.0
N221 N 0.07184 0.73411 -0.00349 0.0
H222 H 0.77112 0.8024 0.53076 0.0
H223 H 0.67225 0.85579 0.36529 0.0
H224 H 0.70449 0.71505 0.44707 0.0
H225 H 0.6642 0.89764 0.47036 0.0
H226 H 0.70274 0.81662 0.39134 0.0
H227 H 0.74833 0.84925 0.50557 0.0
C228 C 0.75173 0.79314 0.50717 0.0
C229 C 0.73927 0.7547 0.4911 0.0
C230 C 0.69465 0.83476 0.40858 0.0
C231 C 0.71449 0.80818 0.4619 0.0
C232 C 0.67754 0.85732 0.39378 0.0
C233 C 0.66535 0.87966 0.41579 0.0
C234 C 0.70034 0.83516 0.44554 0.0
C235 C 0.67287 0.88047 0.45254 0.0
C236 C 0.7388 0.81974 0.49293 0.0
C237 C 0.71427 0.74411 0.46055 0.0
N238 N 0.68993 0.85841 0.46638 0.0
N239 N 0.70302 0.77087 0.44674 0.0
H240 H 0.15473 0.86527 0.57903 0.0
H241 H 0.25608 0.08587 0.58822 0.0
H242 H 0.26654 0.8934 0.52228 0.0
H243 H 0.36684 0.07766 0.57225 0.0
H244 H 0.21457 0.00965 0.58566 0.0
H245 H 0.18799 0.93867 0.59765 0.0
C246 C 0.18627 0.88679 0.57082 0.0
C247 C 0.20788 0.8736 0.54883 0.0
C248 C 0.24802 0.02461 0.58359 0.0
C249 C 0.2457 0.95663 0.5696 0.0
C250 C 0.2717 0.0681 0.58484 0.0
C251 C 0.31494 0.08826 0.57983 0.0
C252 C 0.26802 0.00156 0.57736 0.0
C253 C 0.33359 0.06373 0.57557 0.0
C254 C 0.20503 0.92861 0.58109 0.0
C255 C 0.24858 0.90242 0.53885 0.0
N256 N 0.31002 0.02194 0.574 0.0
N257 N 0.26608 0.94234 0.54935 0.0
H258 H 0.9631 0.2354 0.55558 0.0
H259 H 0.17816 0.44792 0.53006 0.0
H260 H 0.98693 0.35272 0.59852 0.0
H261 H 0.13658 0.34125 0.46243 0.0
H262 H 0.11591 0.40842 0.56708 0.0
H263 H 0.0344 0.26922 0.53315 0.0
C264 C 0.98349 0.26807 0.56088 0.0
C265 C 0.96879 0.29137 0.57853 0.0
C266 C 0.12072 0.39358 0.54432 0.0
C267 C 0.05034 0.33019 0.5529 0.0
C268 C 0.15624 0.41599 0.52338 0.0
C269 C 0.16181 0.39803 0.49274 0.0
C270 C 0.09112 0.35283 0.53474 0.0
C271 C 0.13269 0.35662 0.48517 0.0
C272 C 0.02412 0.28738 0.54792 0.0
C273 C 0.99673 0.33364 0.58462 0.0
N274 N 0.09846 0.33547 0.50588 0.0
N275 N 0.03604 0.35177 0.57158 0.0
H276 H 0.65756 0.60667 0.08897 0.0
H277 H 0.833 0.64502 0.95023 0.0
H278 H 0.7638 0.7278 0.06939 0.0
H279 H 0.75301 0.52454 -0.0037 0.0
H280 H 0.80736 0.67585 0.99318 0.0
H281 H 0.69079 0.57561 0.05472 0.0
C282 C 0.688 0.62676 0.07769 0.0
C283 C 0.70782 0.67001 0.08192 0.0
C284 C 0.79562 0.64272 0.99418 0.0
C285 C 0.74582 0.63452 0.0425 0.0
C286 C 0.81001 0.62509 0.96947 0.0
C287 C 0.79451 0.58219 0.96948 0.0
C288 C 0.76493 0.6171 0.0187 0.0
C289 C 0.76557 0.55781 0.99554 0.0
C290 C 0.70699 0.60892 0.05827 0.0
C291 C 0.74731 0.69437 0.06681 0.0
N292 N 0.75115 0.57553 0.01886 0.0
N293 N 0.7648 0.67632 0.04745 0.0
H294 H 0.37142 0.07617 0.98151 0.0
H295 H 0.18693 0.91027 0.09283 0.0
H296 H 0.32366 0.12355 0.06206 0.0
H297 H 0.29913 0.90486 0.07561 0.0
H298 H 0.22521 0.98446 0.07608 0.0
H299 H 0.33181 0.00728 0.00759 0.0
C300 C 0.35231 0.07203 0.0046 0.0
C301 C 0.35091 0.10563 0.01975 0.0
C302 C 0.24123 0.96682 0.07663 0.0
C303 C 0.3052 0.02656 0.04952 0.0
C304 C 0.21953 0.92462 0.08606 0.0
C305 C 0.23956 0.90099 0.08498 0.0
C306 C 0.28271 0.98481 0.06558 0.0
C307 C 0.28196 0.92133 0.07621 0.0
C308 C 0.32993 0.03274 0.01954 0.0
C309 C 0.32569 0.09836 0.0498 0.0
N310 N 0.3018 0.96173 0.06627 0.0
N311 N 0.30338 0.05927 0.06371 0.0
H312 H 0.02848 0.22516 0.06287 0.0
H313 H 0.83571 0.16697 0.94037 0.0
H314 H 0.02368 0.30855 0.98467 0.0
H315 H 0.81161 0.13221 0.05143 0.0
H316 H 0.90925 0.20696 0.95325 0.0
H317 H 0.95244 0.18052 0.05726 0.0
C318 C 0.01157 0.23419 0.04475 0.0
C319 C 0.03258 0.27052 0.024 0.0
C320 C 0.88793 0.19049 0.97483 0.0
C321 C 0.94663 0.21971 0.01731 0.0
C322 C 0.84584 0.16739 0.96754 0.0
C323 C 0.81729 0.14636 0.99496 0.0
C324 C 0.90209 0.19248 0.00974 0.0
C325 C 0.83262 0.14824 0.02961 0.0
C326 C 0.96836 0.20888 0.04176 0.0
C327 C 0.0091 0.28088 0.00113 0.0
N328 N 0.8743 0.17103 0.03613 0.0
N329 N 0.96761 0.25538 -0.00189 0.0
H330 H 0.34331 0.1994 0.45038 0.0
H331 H 0.31867 0.39482 0.42685 0.0
H332 H 0.37978 0.29303 0.53146 0.0
H333 H 0.20568 0.2769 0.41513 0.0
H334 H 0.35443 0.35854 0.44648 0.0
H335 H 0.30316 0.22792 0.42072 0.0
C336 C 0.34277 0.22574 0.46191 0.0
C337 C 0.36481 0.24397 0.49337 0.0
C338 C 0.32195 0.34067 0.43908 0.0
C339 C 0.32044 0.27672 0.45952 0.0
C340 C 0.30134 0.36124 0.4279 0.0
C341 C 0.25868 0.33894 0.42004 0.0
C342 C 0.30018 0.29742 0.44197 0.0
C343 C 0.23841 0.29532 0.42135 0.0
C344 C 0.31987 0.24174 0.44513 0.0
C345 C 0.36312 0.27793 0.50737 0.0
N346 N 0.25934 0.27579 0.43252 0.0
N347 N 0.34183 0.29355 0.49009 0.0
H348 H 0.85482 0.25452 0.47856 0.0
H349 H 0.65435 0.04964 0.41272 0.0
H350 H 0.74627 0.18179 0.54322 0.0
H351 H 0.77633 0.07071 0.3854 0.0
H352 H 0.68646 0.11259 0.44797 0.0
H353 H 0.82482 0.20008 0.43235 0.0
C354 C 0.82453 0.22745 0.4827 0.0
C355 C 0.80284 0.22227 0.51454 0.0
C356 C 0.70616 0.10361 0.43393 0.0
C357 C 0.76855 0.16132 0.46231 0.0
C358 C 0.68793 0.0676 0.41378 0.0
C359 C 0.71265 0.05422 0.3966 0.0
C360 C 0.74948 0.12692 0.43668 0.0
C361 C 0.75607 0.07952 0.39862 0.0
C362 C 0.80767 0.19653 0.4566 0.0
C363 C 0.76396 0.1867 0.51904 0.0
N364 N 0.77324 0.11468 0.41861 0.0
N365 N 0.74795 0.15771 0.49315 0.0
H366 H 0.04468 0.7207 0.43637 0.0
H367 H 0.85853 0.74736 0.48968 0.0
H368 H 0.06345 0.84211 0.46034 0.0
H369 H 0.84278 0.65174 0.41667 0.0
H370 H 0.93302 0.78456 0.47738 0.0
H371 H 0.9708 0.69567 0.42717 0.0
C372 C 0.03319 0.74221 0.43925 0.0
C373 C 0.05996 0.7834 0.44942 0.0
C374 C 0.9132 0.756 0.46333 0.0
C375 C 0.97539 0.75481 0.43954 0.0
C376 C 0.8707 0.7347 0.47043 0.0
C377 C 0.8447 0.69637 0.45432 0.0
C378 C 0.9299 0.7381 0.44081 0.0
C379 C 0.86191 0.68134 0.42948 0.0
C380 C 0.99111 0.72798 0.43377 0.0
C381 C 0.0437 0.81011 0.45255 0.0
N382 N 0.90371 0.70177 0.42409 0.0
N383 N 0.00216 0.79511 0.4484 0.0
H384 H 0.27934 0.46356 0.2918 0.0
H385 H 0.1337 0.42156 0.12071 0.0
H386 H 0.14783 0.41941 0.29728 0.0
H387 H 0.24489 0.41236 0.12022 0.0
H388 H 0.14752 0.44354 0.18341 0.0
H389 H 0.27545 0.46706 0.22649 0.0
C390 C 0.2499 0.45535 0.27931 0.0
C391 C 0.21374 0.44047 0.29976 0.0
C392 C 0.16928 0.43752 0.16923 0.0
C393 C 0.20915 0.44495 0.2257 0.0
C394 C 0.16152 0.42527 0.13355 0.0
C395 C 0.18799 0.41479 0.11568 0.0
C396 C 0.20402 0.43982 0.18665 0.0
C397 C 0.22353 0.41975 0.1334 0.0
C398 C 0.24765 0.45726 0.24217 0.0
C399 C 0.17631 0.43029 0.28235 0.0
N400 N 0.2304 0.43165 0.16798 0.0
N401 N 0.17492 0.4325 0.24634 0.0
H402 H 0.68977 0.76743 0.21646 0.0
H403 H 0.55034 0.85781 0.29169 0.0
H404 H 0.55586 0.69715 0.21177 0.0
H405 H 0.6788 0.93326 0.26086 0.0
H406 H 0.55086 0.79663 0.26801 0.0
H407 H 0.68579 0.82606 0.24032 0.0
C408 C 0.65946 0.76429 0.22044 0.0
C409 C 0.62315 0.72752 0.21134 0.0
C410 C 0.57882 0.82667 0.26641 0.0
C411 C 0.61835 0.79472 0.23914 0.0
C412 C 0.57855 0.86162 0.27981 0.0
C413 C 0.61484 0.90072 0.27881 0.0
C414 C 0.61565 0.8309 0.25216 0.0
C415 C 0.65033 0.90371 0.26284 0.0
C416 C 0.65722 0.79786 0.23403 0.0
C417 C 0.58471 0.72502 0.21799 0.0
N418 N 0.64995 0.86931 0.25051 0.0
N419 N 0.5833 0.75827 0.2314 0.0
H420 H 0.13527 0.7126 0.20658 0.0
H421 H 0.26314 0.81599 0.37806 0.0
H422 H 0.26854 0.79056 0.20374 0.0
H423 H 0.14223 0.70621 0.38218 0.0
H424 H 0.26856 0.80284 0.31527 0.0
H425 H 0.13866 0.70563 0.27088 0.0
C426 C 0.16535 0.72803 0.21954 0.0
C427 C 0.20165 0.75283 0.19994 0.0
C428 C 0.24126 0.78099 0.33002 0.0
C429 C 0.2057 0.74514 0.27369 0.0
C430 C 0.23817 0.78847 0.36584 0.0
C431 C 0.20202 0.7623 0.38505 0.0
C432 C 0.20745 0.74773 0.31307 0.0
C433 C 0.17059 0.72707 0.36819 0.0
C434 C 0.16728 0.72374 0.25623 0.0
C435 C 0.23981 0.77145 0.21795 0.0
N436 N 0.17359 0.72131 0.33282 0.0
N437 N 0.24079 0.76791 0.254 0.0
H438 H 0.87452 0.65489 0.77334 0.0
H439 H 0.71868 0.55916 0.60814 0.0
H440 H 0.7845 0.5246 0.76732 0.0
H441 H 0.79332 0.68963 0.63203 0.0
H442 H 0.7476 0.5433 0.66113 0.0
H443 H 0.85372 0.66507 0.71422 0.0
C444 C 0.85121 0.62817 0.75895 0.0
C445 C 0.83125 0.58889 0.77506 0.0
C446 C 0.75751 0.57533 0.65463 0.0
C447 C 0.80572 0.6005 0.70797 0.0
C448 C 0.74081 0.58441 0.62458 0.0
C449 C 0.75347 0.62583 0.61556 0.0
C450 C 0.78731 0.60792 0.67548 0.0
C451 C 0.78245 0.65724 0.63778 0.0
C452 C 0.83886 0.63404 0.72541 0.0
C453 C 0.8009 0.5553 0.75553 0.0
N454 N 0.7984 0.64763 0.66645 0.0
N455 N 0.78845 0.56196 0.72311 0.0
H456 H 0.47238 0.2804 0.85778 0.0
H457 H 0.44673 0.28896 0.67762 0.0
H458 H 0.43367 0.15266 0.8346 0.0
H459 H 0.46981 0.18673 0.66787 0.0
H460 H 0.46137 0.29217 0.74102 0.0
H461 H 0.49227 0.29809 0.79515 0.0
C462 C 0.46863 0.25624 0.83964 0.0
C463 C 0.45026 0.21484 0.8511 0.0
C464 C 0.46483 0.26997 0.72506 0.0
C465 C 0.47187 0.23446 0.77954 0.0
C466 C 0.45603 0.26786 0.68881 0.0
C467 C 0.45662 0.23721 0.66767 0.0
C468 C 0.47361 0.24067 0.74048 0.0
C469 C 0.46897 0.21076 0.68334 0.0
C470 C 0.47953 0.26622 0.80382 0.0
C471 C 0.44663 0.18481 0.82664 0.0
N472 N 0.47594 0.21239 0.71907 0.0
N473 N 0.45684 0.19512 0.79197 0.0
H474 H 0.68954 0.14608 0.86487 0.0
H475 H 0.79605 0.26795 0.71558 0.0
H476 H 0.75209 0.07792 0.83977 0.0
H477 H 0.85352 0.19195 0.71198 0.0
H478 H 0.76228 0.23417 0.77142 0.0
H479 H 0.72926 0.19619 0.81816 0.0
C480 C 0.71148 0.14154 0.84939 0.0
C481 C 0.71741 0.10764 0.8563 0.0
C482 C 0.78282 0.22525 0.75904 0.0
C483 C 0.76347 0.16515 0.80264 0.0
C484 C 0.80264 0.2451 0.72724 0.0
C485 C 0.82735 0.23249 0.70905 0.0
C486 C 0.78799 0.19263 0.77257 0.0
C487 C 0.83441 0.20236 0.725 0.0
C488 C 0.73445 0.17041 0.82267 0.0
C489 C 0.74643 0.10353 0.83554 0.0
N490 N 0.81447 0.18322 0.7555 0.0
N491 N 0.76821 0.13182 0.80984 0.0
H492 H 0.09323 0.47431 0.99052 0.0
H493 H 0.90752 0.46215 0.87068 0.0
H494 H 0.0356 0.38656 0.90514 0.0
H495 H 0.95927 0.54036 0.96283 0.0
H496 H 0.95689 0.43695 0.87974 0.0
H497 H 0.04717 0.50207 0.97761 0.0
C498 C 0.07105 0.46099 0.96895 0.0
C499 C 0.06828 0.42795 0.94899 0.0
C500 C 0.95737 0.45968 0.89789 0.0
C501 C 0.01516 0.45956 0.93403 0.0
C502 C 0.92925 0.47409 0.89268 0.0
C503 C 0.92899 0.5032 0.91613 0.0
C504 C 0.98552 0.47471 0.92661 0.0
C505 C 0.95796 0.51766 0.94418 0.0
C506 C 0.04464 0.4768 0.96159 0.0
C507 C 0.03882 0.41197 0.92132 0.0
N508 N 0.98487 0.50329 0.94861 0.0
N509 N 0.01338 0.42784 0.91471 0.0
H510 H 0.5639 0.56205 0.01562 0.0
H511 H 0.4245 0.32399 0.07357 0.0
H512 H 0.50549 0.52332 0.11867 0.0
H513 H 0.4902 0.36388 0.97364 0.0
H514 H 0.45209 0.39649 0.08998 0.0
H515 H 0.53499 0.48956 -0.0008 0.0
C516 C 0.54483 0.5383 0.03481 0.0
C517 C 0.53712 0.54887 0.06863 0.0
C518 C 0.46048 0.38942 0.06446 0.0
C519 C 0.50396 0.46546 0.0499 0.0
C520 C 0.44472 0.34799 0.05503 0.0
C521 C 0.45504 0.33779 0.02213 0.0
C522 C 0.48665 0.42102 0.0408 0.0
C523 C 0.48147 0.37026 -0.00071 0.0
C524 C 0.52839 0.49683 0.02539 0.0
C525 C 0.5122 0.51663 0.09231 0.0
N526 N 0.4963 0.41039 0.00903 0.0
N527 N 0.49655 0.47636 0.0825 0.0
H528 H 0.3537 0.89945 0.00758 0.0
H529 H 0.58675 0.96414 0.06153 0.0
H530 H 0.38221 0.83452 0.08872 0.0
H531 H 0.55362 0.03069 0.98571 0.0
H532 H 0.51285 0.91725 0.07341 0.0
H533 H 0.42728 0.94801 0.00045 0.0
C534 C 0.37547 0.89525 0.0239 0.0
C535 C 0.36164 0.86256 0.04866 0.0
C536 C 0.52182 0.94227 0.05435 0.0
C537 C 0.44666 0.91867 0.0406 0.0
C538 C 0.56401 0.96914 0.04758 0.0
C539 C 0.57648 0.00138 0.02246 0.0
C540 C 0.49189 0.94763 0.03579 0.0
C541 C 0.54558 0.00626 0.00519 0.0
C542 C 0.41765 0.92323 0.01986 0.0
C543 C 0.3915 0.85915 0.06923 0.0
N544 N 0.50484 0.97961 0.01207 0.0
N545 N 0.4327 0.88681 0.06464 0.0
H546 H 0.49957 0.97238 0.39576 0.0
H547 H 0.51728 0.14073 0.53758 0.0
H548 H 0.59012 0.01925 0.48062 0.0
H549 H 0.41765 0.0821 0.46111 0.0
H550 H 0.54534 0.09745 0.51647 0.0
H551 H 0.46976 0.01333 0.4187 0.0
C552 C 0.51306 0.99111 0.41928 0.0
C553 C 0.54732 0.99228 0.43631 0.0
C554 C 0.51727 0.09401 0.5044 0.0
C555 C 0.5136 0.03947 0.4626 0.0
C556 C 0.50128 0.11875 0.51643 0.0
C557 C 0.46511 0.11514 0.50107 0.0
C558 C 0.49706 0.0656 0.4767 0.0
C559 C 0.44564 0.08604 0.47375 0.0
C560 C 0.49605 0.0145 0.43238 0.0
C561 C 0.56359 0.01721 0.46668 0.0
N562 N 0.46191 0.06255 0.46239 0.0
N563 N 0.5467 0.0399 0.47875 0.0
H564 H 0.88307 0.44483 0.53867 0.0
H565 H 0.1018 0.63278 0.60252 0.0
H566 H 0.95141 0.4349 0.62792 0.0
H567 H 0.04436 0.62979 0.50154 0.0
H568 H 0.04406 0.56327 0.61596 0.0
H569 H 0.93827 0.51617 0.52923 0.0
C570 C 0.90949 0.45775 0.55656 0.0
C571 C 0.91267 0.43366 0.58402 0.0
C572 C 0.04417 0.57786 0.59087 0.0
C573 C 0.97633 0.51552 0.5731 0.0
C574 C 0.07711 0.61752 0.58315 0.0
C575 C 0.07802 0.63712 0.55078 0.0
C576 C 0.0117 0.55782 0.5662 0.0
C577 C 0.04513 0.61585 0.52673 0.0
C578 C 0.94115 0.4985 0.551 0.0
C579 C 0.94768 0.45226 0.60636 0.0
N580 N 0.01331 0.57746 0.53497 0.0
N581 N 0.97826 0.49206 0.60031 0.0
H582 H 0.38242 0.46803 0.49139 0.0
H583 H 0.60661 0.62174 0.40871 0.0
H584 H 0.3999 0.54493 0.3991 0.0
H585 H 0.58567 0.5412 0.49904 0.0
H586 H 0.53156 0.59377 0.40375 0.0
H587 H 0.4569 0.49464 0.49382 0.0
C588 C 0.40192 0.49069 0.47163 0.0
C589 C 0.38469 0.50436 0.44505 0.0
C590 C 0.54338 0.58211 0.42455 0.0
C591 C 0.47073 0.53504 0.44766 0.0
C592 C 0.58627 0.59799 0.42739 0.0
C593 C 0.60263 0.58386 0.45439 0.0
C594 C 0.51651 0.55188 0.44893 0.0
C595 C 0.57463 0.5531 0.47781 0.0
C596 C 0.44462 0.50582 0.47301 0.0
C597 C 0.41177 0.53359 0.42012 0.0
N598 N 0.53309 0.5383 0.47459 0.0
N599 N 0.45345 0.54801 0.42206 0.0
loop_
_geom_bond_atom_site_label_1
_geom_bond_atom_site_label_2
_geom_bond_distance
_geom_bond_site_symmetry_2
_ccdc_geom_bond_type
Mg0 O1 2.028 . S
Mg0 O7 1.986 . S
Mg0 O9 2.114 . S
Mg0 O10 2.251 . S
Mg0 O13 2.010 . S
O1 Mg0 2.028 . S
O1 C4 1.250 1_455 S
O2 Mg3 2.028 . S
O2 C4 1.248 1_455 S
Mg3 O2 2.028 . S
Mg3 O8 2.032 . S
Mg3 O10 2.079 . S
C4 O1 1.250 1_655 S
C4 O2 1.248 1_655 S
C5 O6 1.264 . S
C5 O13 1.249 . S
O6 C5 1.264 . S
O7 Mg0 1.986 . S
O7 C11 1.246 . S
O8 Mg3 2.032 . S
O8 C11 1.259 . S
O9 Mg0 2.114 . S
O9 C12 1.252 . S
O10 Mg0 2.251 . S
O10 Mg3 2.079 . S
O10 C12 1.273 . S
C11 O7 1.246 . S
C11 O8 1.259 . S
C12 O9 1.252 . S
C12 O10 1.273 . S
O13 Mg0 2.010 . S
O13 C5 1.249 . S
Mg14 O15 2.028 . S
Mg14 O21 1.986 . S
Mg14 O23 2.114 . S
Mg14 O24 2.251 . S
Mg14 O27 2.010 . S
O15 Mg14 2.028 . S
O15 C18 1.250 . S
O16 Mg17 2.028 . S
O16 C18 1.248 . S
Mg17 O16 2.028 . S
Mg17 O22 2.032 . S
Mg17 O24 2.079 . S
C18 O15 1.250 . S
C18 O16 1.248 . S
C19 O20 1.264 . S
C19 O27 1.249 . S
O20 C19 1.264 . S
O21 Mg14 1.986 . S
O21 C25 1.246 . S
O22 Mg17 2.032 . S
O22 C25 1.259 . S
O23 Mg14 2.114 . S
O23 C26 1.252 . S
O24 Mg14 2.251 . S
O24 Mg17 2.079 . S
O24 C26 1.273 . S
C25 O21 1.246 . S
C25 O22 1.259 . S
C26 O23 1.252 . S
C26 O24 1.273 . S
O27 Mg14 2.010 . S
O27 C19 1.249 . S
Mg28 O29 2.028 . S
Mg28 O35 1.986 . S
Mg28 O37 2.114 . S
Mg28 O38 2.251 . S
Mg28 O41 2.010 . S
O29 Mg28 2.028 . S
O29 C32 1.250 1_565 S
O30 Mg31 2.028 . S
O30 C32 1.248 1_565 S
Mg31 O30 2.028 . S
Mg31 O36 2.032 . S
Mg31 O38 2.079 . S
C32 O29 1.250 1_545 S
C32 O30 1.248 1_545 S
C33 O34 1.264 . S
C33 O41 1.249 . S
O34 C33 1.264 . S
O35 Mg28 1.986 . S
O35 C39 1.246 . S
O36 Mg31 2.032 . S
O36 C39 1.259 . S
O37 Mg28 2.114 . S
O37 C40 1.252 . S
O38 Mg28 2.251 . S
O38 Mg31 2.079 . S
O38 C40 1.273 . S
C39 O35 1.246 . S
C39 O36 1.259 . S
C40 O37 1.252 . S
C40 O38 1.273 . S
O41 Mg28 2.010 . S
O41 C33 1.249 . S
Mg42 O43 2.028 . S
Mg42 O49 1.986 . S
Mg42 O51 2.114 . S
Mg42 O52 2.251 . S
Mg42 O55 2.010 . S
O43 Mg42 2.028 . S
O43 C46 1.250 1_565 S
O44 Mg45 2.028 . S
O44 C46 1.248 1_565 S
Mg45 O44 2.028 . S
Mg45 O50 2.032 . S
Mg45 O52 2.079 . S
C46 O43 1.250 1_545 S
C46 O44 1.248 1_545 S
C47 O48 1.264 . S
C47 O55 1.249 . S
O48 C47 1.264 . S
O49 Mg42 1.986 . S
O49 C53 1.246 . S
O50 Mg45 2.032 . S
O50 C53 1.259 . S
O51 Mg42 2.114 . S
O51 C54 1.252 . S
O52 Mg42 2.251 . S
O52 Mg45 2.079 . S
O52 C54 1.273 . S
C53 O49 1.246 . S
C53 O50 1.259 . S
C54 O51 1.252 . S
C54 O52 1.273 . S
O55 Mg42 2.010 . S
O55 C47 1.249 . S
Mg56 O57 2.028 . S
Mg56 O63 1.986 . S
Mg56 O65 2.114 . S
Mg56 O66 2.251 . S
Mg56 O69 2.010 . S
O57 Mg56 2.028 . S
O57 C60 1.250 1_455 S
O58 Mg59 2.028 . S
O58 C60 1.248 1_455 S
Mg59 O58 2.028 . S
Mg59 O64 2.032 . S
Mg59 O66 2.079 . S
C60 O57 1.250 1_655 S
C60 O58 1.248 1_655 S
C61 O62 1.264 . S
C61 O69 1.249 . S
O62 C61 1.264 . S
O63 Mg56 1.986 . S
O63 C67 1.246 . S
O64 Mg59 2.032 . S
O64 C67 1.259 . S
O65 Mg56 2.114 . S
O65 C68 1.252 . S
O66 Mg56 2.251 . S
O66 Mg59 2.079 . S
O66 C68 1.273 . S
C67 O63 1.246 . S
C67 O64 1.259 . S
C68 O65 1.252 . S
C68 O66 1.273 . S
O69 Mg56 2.010 . S
O69 C61 1.249 . S
Mg70 O71 2.028 . S
Mg70 O77 1.986 . S
Mg70 O79 2.114 . S
Mg70 O80 2.251 . S
Mg70 O83 2.010 . S
O71 Mg70 2.028 . S
O71 C74 1.250 . S
O72 Mg73 2.028 . S
O72 C74 1.248 . S
Mg73 O72 2.028 . S
Mg73 O78 2.032 . S
Mg73 O80 2.079 . S
C74 O71 1.250 . S
C74 O72 1.248 . S
C75 O76 1.264 . S
C75 O83 1.249 . S
O76 C75 1.264 . S
O77 Mg70 1.986 . S
O77 C81 1.246 . S
O78 Mg73 2.032 . S
O78 C81 1.259 . S
O79 Mg70 2.114 . S
O79 C82 1.252 . S
O80 Mg70 2.251 . S
O80 Mg73 2.079 . S
O80 C82 1.273 . S
C81 O77 1.246 . S
C81 O78 1.259 . S
C82 O79 1.252 . S
C82 O80 1.273 . S
O83 Mg70 2.010 . S
O83 C75 1.249 . S
Mg84 O85 2.028 . S
Mg84 O91 1.986 . S
Mg84 O93 2.114 . S
Mg84 O94 2.251 . S
Mg84 O97 2.010 . S
O85 Mg84 2.028 . S
O85 C88 1.250 1_655 S
O86 Mg87 2.028 . S
O86 C88 1.248 1_655 S
Mg87 O86 2.028 . S
Mg87 O92 2.032 . S
Mg87 O94 2.079 . S
C88 O85 1.250 1_455 S
C88 O86 1.248 1_455 S
C89 O90 1.264 . S
C89 O97 1.249 . S
O90 C89 1.264 . S
O91 Mg84 1.986 . S
O91 C95 1.246 . S
O92 Mg87 2.032 . S
O92 C95 1.259 . S
O93 Mg84 2.114 . S
O93 C96 1.252 . S
O94 Mg84 2.251 . S
O94 Mg87 2.079 . S
O94 C96 1.273 . S
C95 O91 1.246 . S
C95 O92 1.259 . S
C96 O93 1.252 . S
C96 O94 1.273 . S
O97 Mg84 2.010 . S
O97 C89 1.249 . S
Mg98 O99 2.028 . S
Mg98 O105 1.986 . S
Mg98 O107 2.114 . S
Mg98 O108 2.251 . S
Mg98 O111 2.010 . S
O99 Mg98 2.028 . S
O99 C102 1.250 . S
O100 Mg101 2.028 . S
O100 C102 1.248 . S
Mg101 O100 2.028 . S
Mg101 O106 2.032 . S
Mg101 O108 2.079 . S
C102 O99 1.250 . S
C102 O100 1.248 . S
C103 O104 1.264 . S
C103 O111 1.249 . S
O104 C103 1.264 . S
O105 Mg98 1.986 . S
O105 C109 1.246 . S
O106 Mg101 2.032 . S
O106 C109 1.259 . S
O107 Mg98 2.114 . S
O107 C110 1.252 . S
O108 Mg98 2.251 . S
O108 Mg101 2.079 . S
O108 C110 1.273 . S
C109 O105 1.246 . S
C109 O106 1.259 . S
C110 O107 1.252 . S
C110 O108 1.273 . S
O111 Mg98 2.010 . S
O111 C103 1.249 . S
Mg112 O113 2.028 . S
Mg112 O119 1.986 . S
Mg112 O121 2.114 . S
Mg112 O122 2.251 . S
Mg112 O125 2.010 . S
O113 Mg112 2.028 . S
O113 C116 1.250 1_545 S
O114 Mg115 2.028 . S
O114 C116 1.248 1_545 S
Mg115 O114 2.028 . S
Mg115 O120 2.032 . S
Mg115 O122 2.079 . S
C116 O113 1.250 1_565 S
C116 O114 1.248 1_565 S
C117 O118 1.264 . S
C117 O125 1.249 . S
O118 C117 1.264 . S
O119 Mg112 1.986 . S
O119 C123 1.246 . S
O120 Mg115 2.032 . S
O120 C123 1.259 . S
O121 Mg112 2.114 . S
O121 C124 1.252 . S
O122 Mg112 2.251 . S
O122 Mg115 2.079 . S
O122 C124 1.273 . S
C123 O119 1.246 . S
C123 O120 1.259 . S
C124 O121 1.252 . S
C124 O122 1.273 . S
O125 Mg112 2.010 . S
O125 C117 1.249 . S
Mg126 O127 2.028 . S
Mg126 O133 1.986 . S
Mg126 O135 2.114 . S
Mg126 O136 2.251 . S
Mg126 O139 2.010 . S
O127 Mg126 2.028 . S
O127 C130 1.250 1_545 S
O128 Mg129 2.028 . S
O128 C130 1.248 1_545 S
Mg129 O128 2.028 . S
Mg129 O134 2.032 . S
Mg129 O136 2.079 . S
C130 O127 1.250 1_565 S
C130 O128 1.248 1_565 S
C131 O132 1.264 . S
C131 O139 1.249 . S
O132 C131 1.264 . S
O133 Mg126 1.986 . S
O133 C137 1.246 . S
O134 Mg129 2.032 . S
O134 C137 1.259 . S
O135 Mg126 2.114 . S
O135 C138 1.252 . S
O136 Mg126 2.251 . S
O136 Mg129 2.079 . S
O136 C138 1.273 . S
C137 O133 1.246 . S
C137 O134 1.259 . S
C138 O135 1.252 . S
C138 O136 1.273 . S
O139 Mg126 2.010 . S
O139 C131 1.249 . S
Mg140 O141 2.028 . S
Mg140 O147 1.986 . S
Mg140 O149 2.114 . S
Mg140 O150 2.251 . S
Mg140 O153 2.010 . S
O141 Mg140 2.028 . S
O141 C144 1.250 1_655 S
O142 Mg143 2.028 . S
O142 C144 1.248 1_655 S
Mg143 O142 2.028 . S
Mg143 O148 2.032 . S
Mg143 O150 2.079 . S
C144 O141 1.250 1_455 S
C144 O142 1.248 1_455 S
C145 O146 1.264 . S
C145 O153 1.249 . S
O146 C145 1.264 . S
O147 Mg140 1.986 . S
O147 C151 1.246 . S
O148 Mg143 2.032 . S
O148 C151 1.259 . S
O149 Mg140 2.114 . S
O149 C152 1.252 . S
O150 Mg140 2.251 . S
O150 Mg143 2.079 . S
O150 C152 1.273 . S
C151 O147 1.246 . S
C151 O148 1.259 . S
C152 O149 1.252 . S
C152 O150 1.273 . S
O153 Mg140 2.010 . S
O153 C145 1.249 . S
Mg154 O155 2.028 . S
Mg154 O161 1.986 . S
Mg154 O163 2.114 . S
Mg154 O164 2.251 . S
Mg154 O167 2.010 . S
O155 Mg154 2.028 . S
O155 C158 1.250 . S
O156 Mg157 2.028 . S
O156 C158 1.248 . S
Mg157 O156 2.028 . S
Mg157 O162 2.032 . S
Mg157 O164 2.079 . S
C158 O155 1.250 . S
C158 O156 1.248 . S
C159 O160 1.264 . S
C159 O167 1.249 . S
O160 C159 1.264 . S
O161 Mg154 1.986 . S
O161 C165 1.246 . S
O162 Mg157 2.032 . S
O162 C165 1.259 . S
O163 Mg154 2.114 . S
O163 C166 1.252 . S
O164 Mg154 2.251 . S
O164 Mg157 2.079 . S
O164 C166 1.273 . S
C165 O161 1.246 . S
C165 O162 1.259 . S
C166 O163 1.252 . S
C166 O164 1.273 . S
O167 Mg154 2.010 . S
O167 C159 1.249 . S
H168 C174 0.930 . S
H169 C178 0.930 . S
H170 C183 0.929 . S
H171 C181 0.929 . S
H172 C176 0.929 . S
H173 C182 0.929 . S
C174 H168 0.930 . S
C174 C175 1.367 . S
C174 C182 1.378 1_554 S
C175 C174 1.367 . S
C175 C183 1.433 . S
C176 H172 0.929 . S
C176 C178 1.378 . S
C176 C180 1.350 . S
C177 C180 1.463 . S
C177 C182 1.350 . S
C177 N185 1.427 1_556 S
C178 H169 0.930 . S
C178 C176 1.378 . S
C178 C179 1.367 . S
C179 C178 1.367 . S
C179 C181 1.433 . S
C180 C176 1.350 . S
C180 C177 1.463 . S
C180 N184 1.427 . S
C181 H171 0.929 . S
C181 C179 1.433 . S
C181 N184 1.384 . S
C182 H173 0.929 . S
C182 C174 1.378 1_556 S
C182 C177 1.350 . S
C183 H170 0.929 . S
C183 C175 1.433 . S
C183 N185 1.384 . S
N184 C180 1.427 . S
N184 C181 1.384 . S
N185 C177 1.427 1_554 S
N185 C183 1.384 . S
H186 C192 0.930 . S
H187 C196 0.930 . S
H188 C201 0.929 1_556 S
H189 C199 0.929 1_545 S
H190 C194 0.929 . S
H191 C200 0.929 . S
C192 H186 0.930 . S
C192 C193 1.367 . S
C192 C200 1.378 . S
C193 C192 1.367 . S
C193 C201 1.433 . S
C194 H190 0.929 . S
C194 C196 1.378 . S
C194 C198 1.350 . S
C195 C198 1.463 . S
C195 C200 1.350 1_556 S
C195 N203 1.427 . S
C196 H187 0.930 . S
C196 C194 1.378 . S
C196 C197 1.367 . S
C197 C196 1.367 . S
C197 C199 1.433 . S
C198 C194 1.350 . S
C198 C195 1.463 . S
C198 N202 1.427 . S
C199 H189 0.929 1_565 S
C199 C197 1.433 . S
C199 N202 1.384 . S
C200 H191 0.929 . S
C200 C192 1.378 . S
C200 C195 1.350 1_554 S
C201 H188 0.929 1_554 S
C201 C193 1.433 . S
C201 N203 1.384 1_554 S
N202 C198 1.427 . S
N202 C199 1.384 . S
N203 C195 1.427 . S
N203 C201 1.384 1_556 S
H204 C210 0.930 . S
H205 C214 0.930 . S
H206 C219 0.929 . S
H207 C217 0.929 . S
H208 C212 0.929 1_554 S
H209 C218 0.929 . S
C210 H204 0.930 . S
C210 C211 1.367 1_556 S
C210 C218 1.378 . S
C211 C210 1.367 1_554 S
C211 C219 1.433 . S
C212 H208 0.929 1_556 S
C212 C214 1.378 . S
C212 C216 1.350 . S
C213 C216 1.463 . S
C213 C218 1.350 . S
C213 N221 1.427 1_556 S
C214 H205 0.930 . S
C214 C212 1.378 . S
C214 C215 1.367 . S
C215 C214 1.367 . S
C215 C217 1.433 . S
C216 C212 1.350 . S
C216 C213 1.463 . S
C216 N220 1.427 . S
C217 H207 0.929 . S
C217 C215 1.433 . S
C217 N220 1.384 . S
C218 H209 0.929 . S
C218 C210 1.378 . S
C218 C213 1.350 . S
C219 H206 0.929 . S
C219 C211 1.433 . S
C219 N221 1.384 . S
N220 C216 1.427 . S
N220 C217 1.384 . S
N221 C213 1.427 1_554 S
N221 C219 1.384 . S
H222 C228 0.930 . S
H223 C232 0.930 . S
H224 C237 0.929 . S
H225 C235 0.929 . S
H226 C230 0.929 . S
H227 C236 0.929 . S
C228 H222 0.930 . S
C228 C229 1.367 . S
C228 C236 1.378 . S
C229 C228 1.367 . S
C229 C237 1.433 . S
C230 H226 0.929 . S
C230 C232 1.378 . S
C230 C234 1.350 . S
C231 C234 1.463 . S
C231 C236 1.350 . S
C231 N239 1.427 . S
C232 H223 0.930 . S
C232 C230 1.378 . S
C232 C233 1.367 . S
C233 C232 1.367 . S
C233 C235 1.433 . S
C234 C230 1.350 . S
C234 C231 1.463 . S
C234 N238 1.427 . S
C235 H225 0.929 . S
C235 C233 1.433 . S
C235 N238 1.384 . S
C236 H227 0.929 . S
C236 C228 1.378 . S
C236 C231 1.350 . S
C237 H224 0.929 . S
C237 C229 1.433 . S
C237 N239 1.384 . S
N238 C234 1.427 . S
N238 C235 1.384 . S
N239 C231 1.427 . S
N239 C237 1.384 . S
H240 C246 0.930 . S
H241 C250 0.930 1_545 S
H242 C255 0.929 . S
H243 C253 0.929 . S
H244 C248 0.929 . S
H245 C254 0.929 . S
C246 H240 0.930 . S
C246 C247 1.367 . S
C246 C254 1.378 . S
C247 C246 1.367 . S
C247 C255 1.433 . S
C248 H244 0.929 . S
C248 C250 1.378 . S
C248 C252 1.350 . S
C249 C252 1.463 . S
C249 C254 1.350 . S
C249 N257 1.427 . S
C250 H241 0.930 1_565 S
C250 C248 1.378 . S
C250 C251 1.367 . S
C251 C250 1.367 . S
C251 C253 1.433 . S
C252 C248 1.350 . S
C252 C249 1.463 . S
C252 N256 1.427 . S
C253 H243 0.929 . S
C253 C251 1.433 . S
C253 N256 1.384 . S
C254 H245 0.929 . S
C254 C246 1.378 . S
C254 C249 1.350 . S
C255 H242 0.929 . S
C255 C247 1.433 . S
C255 N257 1.384 . S
N256 C252 1.427 . S
N256 C253 1.384 . S
N257 C249 1.427 . S
N257 C255 1.384 . S
H258 C264 0.930 1_655 S
H259 C268 0.930 . S
H260 C273 0.929 . S
H261 C271 0.929 . S
H262 C266 0.929 . S
H263 C272 0.929 . S
C264 H258 0.930 1_455 S
C264 C265 1.367 . S
C264 C272 1.378 . S
C265 C264 1.367 . S
C265 C273 1.433 . S
C266 H262 0.929 . S
C266 C268 1.378 . S
C266 C270 1.350 . S
C267 C270 1.463 . S
C267 C272 1.350 . S
C267 N275 1.427 . S
C268 H259 0.930 . S
C268 C266 1.378 . S
C268 C269 1.367 . S
C269 C268 1.367 . S
C269 C271 1.433 . S
C270 C266 1.350 . S
C270 C267 1.463 . S
C270 N274 1.427 . S
C271 H261 0.929 . S
C271 C269 1.433 . S
C271 N274 1.384 . S
C272 H263 0.929 . S
C272 C264 1.378 . S
C272 C267 1.350 . S
C273 H260 0.929 . S
C273 C265 1.433 . S
C273 N275 1.384 . S
N274 C270 1.427 . S
N274 C271 1.384 . S
N275 C267 1.427 . S
N275 C273 1.384 . S
H276 C282 0.930 . S
H277 C286 0.930 . S
H278 C291 0.929 . S
H279 C289 0.929 . S
H280 C284 0.929 . S
H281 C290 0.929 . S
C282 H276 0.930 . S
C282 C283 1.367 . S
C282 C290 1.378 . S
C283 C282 1.367 . S
C283 C291 1.433 . S
C284 H280 0.929 . S
C284 C286 1.378 . S
C284 C288 1.350 1_556 S
C285 C288 1.463 . S
C285 C290 1.350 . S
C285 N293 1.427 . S
C286 H277 0.930 . S
C286 C284 1.378 . S
C286 C287 1.367 . S
C287 C286 1.367 . S
C287 C289 1.433 1_556 S
C288 C284 1.350 1_554 S
C288 C285 1.463 . S
C288 N292 1.427 . S
C289 H279 0.929 . S
C289 C287 1.433 1_554 S
C289 N292 1.384 . S
C290 H281 0.929 . S
C290 C282 1.378 . S
C290 C285 1.350 . S
C291 H278 0.929 . S
C291 C283 1.433 . S
C291 N293 1.384 . S
N292 C288 1.427 . S
N292 C289 1.384 . S
N293 C285 1.427 . S
N293 C291 1.384 . S
H294 C300 0.930 . S
H295 C304 0.930 . S
H296 C309 0.929 . S
H297 C307 0.929 . S
H298 C302 0.929 . S
H299 C308 0.929 . S
C300 H294 0.930 . S
C300 C301 1.367 . S
C300 C308 1.378 . S
C301 C300 1.367 . S
C301 C309 1.433 1_556 S
C302 H298 0.929 . S
C302 C304 1.378 . S
C302 C306 1.350 . S
C303 C306 1.463 . S
C303 C308 1.350 1_554 S
C303 N311 1.427 . S
C304 H295 0.930 . S
C304 C302 1.378 . S
C304 C305 1.367 . S
C305 C304 1.367 . S
C305 C307 1.433 . S
C306 C302 1.350 . S
C306 C303 1.463 . S
C306 N310 1.427 . S
C307 H297 0.929 . S
C307 C305 1.433 . S
C307 N310 1.384 . S
C308 H299 0.929 . S
C308 C300 1.378 . S
C308 C303 1.350 1_556 S
C309 H296 0.929 . S
C309 C301 1.433 1_554 S
C309 N311 1.384 . S
N310 C306 1.427 . S
N310 C307 1.384 . S
N311 C303 1.427 . S
N311 C309 1.384 . S
H312 C318 0.930 . S
H313 C322 0.930 . S
H314 C327 0.915 1_455 S
H315 C325 0.929 . S
H316 C320 0.929 . S
H317 C326 0.929 . S
C318 H312 0.930 . S
C318 C319 1.367 . S
C318 C326 1.378 . S
C319 C318 1.367 . S
C319 C327 1.433 . S
C320 H316 0.929 . S
C320 C322 1.378 . S
C320 C324 1.350 1_556 S
C321 C324 1.463 . S
C321 C326 1.350 . S
C321 N329 1.427 . S
C322 H313 0.930 . S
C322 C320 1.378 . S
C322 C323 1.367 . S
C323 C322 1.367 . S
C323 C325 1.433 1_556 S
C324 C320 1.350 1_554 S
C324 C321 1.463 . S
C324 N328 1.427 . S
C325 H315 0.929 . S
C325 C323 1.433 1_554 S
C325 N328 1.384 . S
C326 H317 0.929 . S
C326 C318 1.378 . S
C326 C321 1.350 . S
C327 H314 0.915 1_655 S
C327 C319 1.433 . S
C327 N329 1.384 . S
N328 C324 1.427 . S
N328 C325 1.384 . S
N329 C321 1.427 . S
N329 C327 1.384 . S
H330 C336 0.930 . S
H331 C340 0.930 . S
H332 C345 0.929 . S
H333 C343 0.929 . S
H334 C338 0.929 . S
H335 C344 0.929 . S
C336 H330 0.930 . S
C336 C337 1.367 . S
C336 C344 1.378 . S
C337 C336 1.367 . S
C337 C345 1.433 . S
C338 H334 0.929 . S
C338 C340 1.378 . S
C338 C342 1.350 . S
C339 C342 1.463 . S
C339 C344 1.350 . S
C339 N347 1.427 . S
C340 H331 0.930 . S
C340 C338 1.378 . S
C340 C341 1.367 . S
C341 C340 1.367 . S
C341 C343 1.433 . S
C342 C338 1.350 . S
C342 C339 1.463 . S
C342 N346 1.427 . S
C343 H333 0.929 . S
C343 C341 1.433 . S
C343 N346 1.384 . S
C344 H335 0.929 . S
C344 C336 1.378 . S
C344 C339 1.350 . S
C345 H332 0.929 . S
C345 C337 1.433 . S
C345 N347 1.384 . S
N346 C342 1.427 . S
N346 C343 1.384 . S
N347 C339 1.427 . S
N347 C345 1.384 . S
H348 C354 0.930 . S
H349 C358 0.930 . S
H350 C363 0.929 . S
H351 C361 0.929 . S
H352 C356 0.929 . S
H353 C362 0.929 . S
C354 H348 0.930 . S
C354 C355 1.367 . S
C354 C362 1.378 . S
C355 C354 1.367 . S
C355 C363 1.433 . S
C356 H352 0.929 . S
C356 C358 1.378 . S
C356 C360 1.350 . S
C357 C360 1.463 . S
C357 C362 1.350 . S
C357 N365 1.427 . S
C358 H349 0.930 . S
C358 C356 1.378 . S
C358 C359 1.367 . S
C359 C358 1.367 . S
C359 C361 1.433 . S
C360 C356 1.350 . S
C360 C357 1.463 . S
C360 N364 1.427 . S
C361 H351 0.929 . S
C361 C359 1.433 . S
C361 N364 1.384 . S
C362 H353 0.929 . S
C362 C354 1.378 . S
C362 C357 1.350 . S
C363 H350 0.929 . S
C363 C355 1.433 . S
C363 N365 1.384 . S
N364 C360 1.427 . S
N364 C361 1.384 . S
N365 C357 1.427 . S
N365 C363 1.384 . S
H366 C372 0.930 . S
H367 C376 0.930 . S
H368 C381 0.929 . S
H369 C379 0.929 . S
H370 C374 0.929 . S
H371 C380 0.929 . S
C372 H366 0.930 . S
C372 C373 1.367 . S
C372 C380 1.378 . S
C373 C372 1.367 . S
C373 C381 1.433 . S
C374 H370 0.929 . S
C374 C376 1.378 . S
C374 C378 1.350 . S
C375 C378 1.463 . S
C375 C380 1.350 . S
C375 N383 1.427 . S
C376 H367 0.930 . S
C376 C374 1.378 . S
C376 C377 1.367 . S
C377 C376 1.367 . S
C377 C379 1.433 . S
C378 C374 1.350 . S
C378 C375 1.463 . S
C378 N382 1.427 . S
C379 H369 0.929 . S
C379 C377 1.433 . S
C379 N382 1.384 . S
C380 H371 0.929 . S
C380 C372 1.378 . S
C380 C375 1.350 . S
C381 H368 0.929 . S
C381 C373 1.433 . S
C381 N383 1.384 . S
N382 C378 1.427 . S
N382 C379 1.384 . S
N383 C375 1.427 . S
N383 C381 1.384 . S
H384 C390 0.930 . S
H385 C394 0.930 . S
H386 C399 0.929 . S
H387 C397 0.929 . S
H388 C392 0.929 . S
H389 C398 0.929 . S
C390 H384 0.930 . S
C390 C391 1.367 . S
C390 C398 1.378 . S
C391 C390 1.367 . S
C391 C399 1.433 . S
C392 H388 0.929 . S
C392 C394 1.378 . S
C392 C396 1.350 . S
C393 C396 1.463 . S
C393 C398 1.350 . S
C393 N401 1.427 . S
C394 H385 0.930 . S
C394 C392 1.378 . S
C394 C395 1.367 . S
C395 C394 1.367 . S
C395 C397 1.433 . S
C396 C392 1.350 . S
C396 C393 1.463 . S
C396 N400 1.427 . S
C397 H387 0.929 . S
C397 C395 1.433 . S
C397 N400 1.384 . S
C398 H389 0.929 . S
C398 C390 1.378 . S
C398 C393 1.350 . S
C399 H386 0.929 . S
C399 C391 1.433 . S
C399 N401 1.384 . S
N400 C396 1.427 . S
N400 C397 1.384 . S
N401 C393 1.427 . S
N401 C399 1.384 . S
H402 C408 0.930 . S
H403 C412 0.930 . S
H404 C417 0.929 . S
H405 C415 0.929 . S
H406 C410 0.929 . S
H407 C416 0.929 . S
C408 H402 0.930 . S
C408 C409 1.367 . S
C408 C416 1.378 . S
C409 C408 1.367 . S
C409 C417 1.433 . S
C410 H406 0.929 . S
C410 C412 1.378 . S
C410 C414 1.350 . S
C411 C414 1.463 . S
C411 C416 1.350 . S
C411 N419 1.427 . S
C412 H403 0.930 . S
C412 C410 1.378 . S
C412 C413 1.367 . S
C413 C412 1.367 . S
C413 C415 1.433 . S
C414 C410 1.350 . S
C414 C411 1.463 . S
C414 N418 1.427 . S
C415 H405 0.929 . S
C415 C413 1.433 . S
C415 N418 1.384 . S
C416 H407 0.929 . S
C416 C408 1.378 . S
C416 C411 1.350 . S
C417 H404 0.929 . S
C417 C409 1.433 . S
C417 N419 1.384 . S
N418 C414 1.427 . S
N418 C415 1.384 . S
N419 C411 1.427 . S
N419 C417 1.384 . S
H420 C426 0.930 . S
H421 C430 0.930 . S
H422 C435 0.929 . S
H423 C433 0.929 . S
H424 C428 0.929 . S
H425 C434 0.929 . S
C426 H420 0.930 . S
C426 C427 1.367 . S
C426 C434 1.378 . S
C427 C426 1.367 . S
C427 C435 1.433 . S
C428 H424 0.929 . S
C428 C430 1.378 . S
C428 C432 1.350 . S
C429 C432 1.463 . S
C429 C434 1.350 . S
C429 N437 1.427 . S
C430 H421 0.930 . S
C430 C428 1.378 . S
C430 C431 1.367 . S
C431 C430 1.367 . S
C431 C433 1.433 . S
C432 C428 1.350 . S
C432 C429 1.463 . S
C432 N436 1.427 . S
C433 H423 0.929 . S
C433 C431 1.433 . S
C433 N436 1.384 . S
C434 H425 0.929 . S
C434 C426 1.378 . S
C434 C429 1.350 . S
C435 H422 0.929 . S
C435 C427 1.433 . S
C435 N437 1.384 . S
N436 C432 1.427 . S
N436 C433 1.384 . S
N437 C429 1.427 . S
N437 C435 1.384 . S
H438 C444 0.930 . S
H439 C448 0.930 . S
H440 C453 0.929 . S
H441 C451 0.929 . S
H442 C446 0.929 . S
H443 C452 0.929 . S
C444 H438 0.930 . S
C444 C445 1.367 . S
C444 C452 1.378 . S
C445 C444 1.367 . S
C445 C453 1.433 . S
C446 H442 0.929 . S
C446 C448 1.378 . S
C446 C450 1.350 . S
C447 C450 1.463 . S
C447 C452 1.350 . S
C447 N455 1.427 . S
C448 H439 0.930 . S
C448 C446 1.378 . S
C448 C449 1.367 . S
C449 C448 1.367 . S
C449 C451 1.433 . S
C450 C446 1.350 . S
C450 C447 1.463 . S
C450 N454 1.427 . S
C451 H441 0.929 . S
C451 C449 1.433 . S
C451 N454 1.384 . S
C452 H443 0.929 . S
C452 C444 1.378 . S
C452 C447 1.350 . S
C453 H440 0.929 . S
C453 C445 1.433 . S
C453 N455 1.384 . S
N454 C450 1.427 . S
N454 C451 1.384 . S
N455 C447 1.427 . S
N455 C453 1.384 . S
H456 C462 0.930 . S
H457 C466 0.930 . S
H458 C471 0.929 . S
H459 C469 0.929 . S
H460 C464 0.929 . S
H461 C470 0.929 . S
C462 H456 0.930 . S
C462 C463 1.367 . S
C462 C470 1.378 . S
C463 C462 1.367 . S
C463 C471 1.433 . S
C464 H460 0.929 . S
C464 C466 1.378 . S
C464 C468 1.350 . S
C465 C468 1.463 . S
C465 C470 1.350 . S
C465 N473 1.427 . S
C466 H457 0.930 . S
C466 C464 1.378 . S
C466 C467 1.367 . S
C467 C466 1.367 . S
C467 C469 1.433 . S
C468 C464 1.350 . S
C468 C465 1.463 . S
C468 N472 1.427 . S
C469 H459 0.929 . S
C469 C467 1.433 . S
C469 N472 1.384 . S
C470 H461 0.929 . S
C470 C462 1.378 . S
C470 C465 1.350 . S
C471 H458 0.929 . S
C471 C463 1.433 . S
C471 N473 1.384 . S
N472 C468 1.427 . S
N472 C469 1.384 . S
N473 C465 1.427 . S
N473 C471 1.384 . S
H474 C480 0.930 . S
H475 C484 0.930 . S
H476 C489 0.929 . S
H477 C487 0.929 . S
H478 C482 0.929 . S
H479 C488 0.929 . S
C480 H474 0.930 . S
C480 C481 1.367 . S
C480 C488 1.378 . S
C481 C480 1.367 . S
C481 C489 1.433 . S
C482 H478 0.929 . S
C482 C484 1.378 . S
C482 C486 1.350 . S
C483 C486 1.463 . S
C483 C488 1.350 . S
C483 N491 1.427 . S
C484 H475 0.930 . S
C484 C482 1.378 . S
C484 C485 1.367 . S
C485 C484 1.367 . S
C485 C487 1.433 . S
C486 C482 1.350 . S
C486 C483 1.463 . S
C486 N490 1.427 . S
C487 H477 0.929 . S
C487 C485 1.433 . S
C487 N490 1.384 . S
C488 H479 0.929 . S
C488 C480 1.378 . S
C488 C483 1.350 . S
C489 H476 0.929 . S
C489 C481 1.433 . S
C489 N491 1.384 . S
N490 C486 1.427 . S
N490 C487 1.384 . S
N491 C483 1.427 . S
N491 C489 1.384 . S
H492 C498 0.930 . S
H493 C502 0.930 . S
H494 C507 0.929 1_556 S
H495 C505 0.929 1_554 S
H496 C500 0.929 . S
H497 C506 0.929 . S
C498 H492 0.930 . S
C498 C499 1.367 . S
C498 C506 1.378 . S
C499 C498 1.367 . S
C499 C507 1.433 . S
C500 H496 0.929 . S
C500 C502 1.378 . S
C500 C504 1.350 . S
C501 C504 1.463 1_454 S
C501 C506 1.350 . S
C501 N509 1.427 1_554 S
C502 H493 0.930 . S
C502 C500 1.378 . S
C502 C503 1.367 . S
C503 C502 1.367 . S
C503 C505 1.433 . S
C504 C500 1.350 . S
C504 C501 1.463 1_656 S
C504 N508 1.427 1_556 S
C505 H495 0.929 1_556 S
C505 C503 1.433 . S
C505 N508 1.384 1_556 S
C506 H497 0.929 . S
C506 C498 1.378 . S
C506 C501 1.350 . S
C507 H494 0.929 1_554 S
C507 C499 1.433 . S
C507 N509 1.384 1_554 S
N508 C504 1.427 1_554 S
N508 C505 1.384 1_554 S
N509 C501 1.427 1_556 S
N509 C507 1.384 1_556 S
H510 C516 0.930 1_556 S
H511 C520 0.930 1_554 S
H512 C525 0.929 . S
H513 C523 0.929 . S
H514 C518 0.929 . S
H515 C524 0.929 . S
C516 H510 0.930 1_554 S
C516 C517 1.367 . S
C516 C524 1.378 1_554 S
C517 C516 1.367 . S
C517 C525 1.433 . S
C518 H514 0.929 . S
C518 C520 1.378 1_554 S
C518 C522 1.350 1_554 S
C519 C522 1.463 1_554 S
C519 C524 1.350 1_554 S
C519 N527 1.427 . S
C520 H511 0.930 1_556 S
C520 C518 1.378 1_556 S
C520 C521 1.367 . S
C521 C520 1.367 . S
C521 C523 1.433 . S
C522 C518 1.350 1_556 S
C522 C519 1.463 1_556 S
C522 N526 1.427 . S
C523 H513 0.929 . S
C523 C521 1.433 . S
C523 N526 1.384 . S
C524 H515 0.929 . S
C524 C516 1.378 1_556 S
C524 C519 1.350 1_556 S
C525 H512 0.929 . S
C525 C517 1.433 . S
C525 N527 1.384 . S
N526 C522 1.427 . S
N526 C523 1.384 . S
N527 C519 1.427 . S
N527 C525 1.384 . S
H528 C534 0.930 . S
H529 C538 0.930 . S
H530 C543 0.929 . S
H531 C541 0.929 . S
H532 C536 0.922 1_554 S
H533 C542 0.922 1_556 S
C534 H528 0.930 . S
C534 C535 1.367 . S
C534 C542 1.382 . S
C535 C534 1.367 . S
C535 C543 1.433 1_565 S
C536 H532 0.922 1_556 S
C536 C538 1.382 . S
C536 C540 1.352 . S
C537 C540 1.463 1_564 S
C537 C542 1.352 . S
C537 N545 1.427 1_565 S
C538 H529 0.930 . S
C538 C536 1.382 . S
C538 C539 1.367 . S
C539 C538 1.367 . S
C539 C541 1.433 1_545 S
C540 C536 1.352 . S
C540 C537 1.463 1_546 S
C540 N544 1.427 1_545 S
C541 H531 0.929 . S
C541 C539 1.433 1_565 S
C541 N544 1.384 . S
C542 H533 0.922 1_554 S
C542 C534 1.382 . S
C542 C537 1.352 . S
C543 H530 0.929 . S
C543 C535 1.433 1_545 S
C543 N545 1.384 . S
N544 C540 1.427 1_565 S
N544 C541 1.384 . S
N545 C537 1.427 1_545 S
N545 C543 1.384 . S
H546 C552 0.930 . S
H547 C556 0.930 . S
H548 C561 0.929 . S
H549 C559 0.929 . S
H550 C554 0.929 . S
H551 C560 0.929 . S
C552 H546 0.930 . S
C552 C553 1.367 1_545 S
C552 C560 1.378 . S
C553 C552 1.367 1_565 S
C553 C561 1.433 . S
C554 H550 0.929 . S
C554 C556 1.378 . S
C554 C558 1.350 1_565 S
C555 C558 1.463 1_565 S
C555 C560 1.350 1_565 S
C555 N563 1.427 . S
C556 H547 0.930 . S
C556 C554 1.378 . S
C556 C557 1.367 1_565 S
C557 C556 1.367 1_545 S
C557 C559 1.433 . S
C558 C554 1.350 1_545 S
C558 C555 1.463 1_545 S
C558 N562 1.427 . S
C559 H549 0.929 . S
C559 C557 1.433 . S
C559 N562 1.384 . S
C560 H551 0.929 . S
C560 C552 1.378 . S
C560 C555 1.350 1_545 S
C561 H548 0.929 . S
C561 C553 1.433 . S
C561 N563 1.384 . S
N562 C558 1.427 . S
N562 C559 1.384 . S
N563 C555 1.427 . S
N563 C561 1.384 . S
H564 C570 0.930 . S
H565 C574 0.930 . S
H566 C579 0.929 1_455 S
H567 C577 0.929 1_655 S
H568 C572 0.929 . S
H569 C578 0.929 . S
C570 H564 0.930 . S
C570 C571 1.367 . S
C570 C578 1.378 . S
C571 C570 1.367 . S
C571 C579 1.433 . S
C572 H568 0.929 . S
C572 C574 1.378 . S
C572 C576 1.350 . S
C573 C576 1.463 1_655 S
C573 C578 1.350 . S
C573 N581 1.427 1_655 S
C574 H565 0.930 . S
C574 C572 1.378 . S
C574 C575 1.367 . S
C575 C574 1.367 . S
C575 C577 1.433 . S
C576 C572 1.350 . S
C576 C573 1.463 1_455 S
C576 N580 1.427 1_455 S
C577 H567 0.929 1_455 S
C577 C575 1.433 . S
C577 N580 1.384 1_455 S
C578 H569 0.929 . S
C578 C570 1.378 . S
C578 C573 1.350 . S
C579 H566 0.929 1_655 S
C579 C571 1.433 . S
C579 N581 1.384 1_655 S
N580 C576 1.427 1_655 S
N580 C577 1.384 1_655 S
N581 C573 1.427 1_455 S
N581 C579 1.384 1_455 S
H582 C588 0.930 . S
H583 C592 0.930 . S
H584 C597 0.929 . S
H585 C595 0.929 . S
H586 C590 0.929 . S
H587 C596 0.929 . S
C588 H582 0.930 . S
C588 C589 1.367 . S
C588 C596 1.378 . S
C589 C588 1.367 . S
C589 C597 1.433 . S
C590 H586 0.929 . S
C590 C592 1.378 . S
C590 C594 1.350 . S
C591 C594 1.463 . S
C591 C596 1.350 . S
C591 N599 1.427 . S
C592 H583 0.930 . S
C592 C590 1.378 . S
C592 C593 1.367 . S
C593 C592 1.367 . S
C593 C595 1.433 . S
C594 C590 1.350 . S
C594 C591 1.463 . S
C594 N598 1.427 . S
C595 H585 0.929 . S
C595 C593 1.433 . S
C595 N598 1.384 . S
C596 H587 0.929 . S
C596 C588 1.378 . S
C596 C591 1.350 . S
C597 H584 0.929 . S
C597 C589 1.433 . S
C597 N599 1.384 . S
N598 C594 1.427 . S
N598 C595 1.384 . S
N599 C591 1.427 . S
N599 C597 1.384 . S
C175 C12 0.550 . S
C179 C102 0.575 . S
C193 C26 0.548 . S
C197 C116 0.577 . S
C211 C40 0.555 . S
C215 C88 0.563 . S
C229 C158 0.567 . S
C233 C54 0.550 . S
C247 C68 0.556 . S
C251 C130 0.554 . S
C265 C144 0.556 . S
C269 C82 0.556 . S
C283 C18 0.576 . S
C287 C96 0.548 . S
C301 C110 0.550 . S
C305 C32 0.565 . S
C319 C4 0.570 . S
C323 C124 0.549 . S
C337 C138 0.551 . S
C341 C74 0.572 . S
C355 C152 0.554 . S
C359 C46 0.565 . S
C373 C60 0.577 . S
C377 C166 0.549 . S
C391 C81 1.620 . S
C395 C11 1.614 . S
C409 C25 1.618 . S
C413 C53 1.622 . S
C427 C39 1.615 . S
C431 C67 1.621 . S
C445 C95 1.613 . S
C449 C165 1.620 . S
C463 C109 1.623 . S
C467 C137 1.621 . S
C481 C123 1.607 . S
C485 C151 1.604 . S
C499 C5 1.443 . S
C503 C89 1.443 . S
C517 C19 1.447 . S
C521 C103 1.447 . S
C535 C33 1.436 . S
C539 C117 1.436 . S
C553 C47 1.452 . S
C557 C131 1.452 . S
C571 C145 1.437 . S
C575 C61 1.437 . S
C589 C75 1.436 . S
C593 C159 1.436 . S
