# Generated by pormake.
# Topology yfr, (5)-cn, num edge types: 1
# Building blocks:
#     Node 0, Type 0, BuildingBlock: XOMCOT_clean_sbu_1, # of connection points: 5
#     Node 1, Type 0, BuildingBlock: XOMCOT_clean_sbu_1, # of connection points: 5
#     Node 2, Type 0, BuildingBlock: XOMCOT_clean_sbu_1, # of connection points: 5
#     Node 3, Type 0, BuildingBlock: XOMCOT_clean_sbu_1, # of connection points: 5
#     Node 4, Type 0, BuildingBlock: XOMCOT_clean_sbu_1, # of connection points: 5
#     Node 5, Type 0, BuildingBlock: XOMCOT_clean_sbu_1, # of connection points: 5
#     Node 6, Type 0, BuildingBlock: XOMCOT_clean_sbu_1, # of connection points: 5
#     Node 7, Type 0, BuildingBlock: XOMCOT_clean_sbu_1, # of connection points: 5
#     Node 8, Type 0, BuildingBlock: XOMCOT_clean_sbu_1, # of connection points: 5
#     Node 9, Type 0, BuildingBlock: XOMCOT_clean_sbu_1, # of connection points: 5
#     Node 10, Type 0, BuildingBlock: XOMCOT_clean_sbu_1, # of connection points: 5
#     Node 11, Type 0, BuildingBlock: XOMCOT_clean_sbu_1, # of connection points: 5
#     Node 12, Type 0, BuildingBlock: XOMCOT_clean_sbu_1, # of connection points: 5
#     Node 13, Type 0, BuildingBlock: XOMCOT_clean_sbu_1, # of connection points: 5
#     Node 14, Type 0, BuildingBlock: XOMCOT_clean_sbu_1, # of connection points: 5
#     Node 15, Type 0, BuildingBlock: XOMCOT_clean_sbu_1, # of connection points: 5
#     Node 16, Type 0, BuildingBlock: XOMCOT_clean_sbu_1, # of connection points: 5
#     Node 17, Type 0, BuildingBlock: XOMCOT_clean_sbu_1, # of connection points: 5
#     Node 18, Type 0, BuildingBlock: XOMCOT_clean_sbu_1, # of connection points: 5
#     Node 19, Type 0, BuildingBlock: XOMCOT_clean_sbu_1, # of connection points: 5
#     Node 20, Type 0, BuildingBlock: XOMCOT_clean_sbu_1, # of connection points: 5
#     Node 21, Type 0, BuildingBlock: XOMCOT_clean_sbu_1, # of connection points: 5
#     Node 22, Type 0, BuildingBlock: XOMCOT_clean_sbu_1, # of connection points: 5
#     Node 23, Type 0, BuildingBlock: XOMCOT_clean_sbu_1, # of connection points: 5
#     Node 24, Type 0, BuildingBlock: XOMCOT_clean_sbu_1, # of connection points: 5
#     Node 25, Type 0, BuildingBlock: XOMCOT_clean_sbu_1, # of connection points: 5
#     Node 26, Type 0, BuildingBlock: XOMCOT_clean_sbu_1, # of connection points: 5
#     Node 27, Type 0, BuildingBlock: XOMCOT_clean_sbu_1, # of connection points: 5
#     Node 28, Type 0, BuildingBlock: XOMCOT_clean_sbu_1, # of connection points: 5
#     Node 29, Type 0, BuildingBlock: XOMCOT_clean_sbu_1, # of connection points: 5
#     Node 30, Type 0, BuildingBlock: XOMCOT_clean_sbu_1, # of connection points: 5
#     Node 31, Type 0, BuildingBlock: XOMCOT_clean_sbu_1, # of connection points: 5
#     Edge 32, Type (0, 0), None
#     Edge 33, Type (0, 0), None
#     Edge 34, Type (0, 0), None
#     Edge 35, Type (0, 0), None
#     Edge 36, Type (0, 0), None
#     Edge 37, Type (0, 0), None
#     Edge 38, Type (0, 0), None
#     Edge 39, Type (0, 0), None
#     Edge 40, Type (0, 0), None
#     Edge 41, Type (0, 0), None
#     Edge 42, Type (0, 0), None
#     Edge 43, Type (0, 0), None
#     Edge 44, Type (0, 0), None
#     Edge 45, Type (0, 0), None
#     Edge 46, Type (0, 0), None
#     Edge 47, Type (0, 0), None
#     Edge 48, Type (0, 0), None
#     Edge 49, Type (0, 0), None
#     Edge 50, Type (0, 0), None
#     Edge 51, Type (0, 0), None
#     Edge 52, Type (0, 0), None
#     Edge 53, Type (0, 0), None
#     Edge 54, Type (0, 0), None
#     Edge 55, Type (0, 0), None
#     Edge 56, Type (0, 0), None
#     Edge 57, Type (0, 0), None
#     Edge 58, Type (0, 0), None
#     Edge 59, Type (0, 0), None
#     Edge 60, Type (0, 0), None
#     Edge 61, Type (0, 0), None
#     Edge 62, Type (0, 0), None
#     Edge 63, Type (0, 0), None
#     Edge 64, Type (0, 0), None
#     Edge 65, Type (0, 0), None
#     Edge 66, Type (0, 0), None
#     Edge 67, Type (0, 0), None
#     Edge 68, Type (0, 0), None
#     Edge 69, Type (0, 0), None
#     Edge 70, Type (0, 0), None
#     Edge 71, Type (0, 0), None
#     Edge 72, Type (0, 0), None
#     Edge 73, Type (0, 0), None
#     Edge 74, Type (0, 0), None
#     Edge 75, Type (0, 0), None
#     Edge 76, Type (0, 0), None
#     Edge 77, Type (0, 0), None
#     Edge 78, Type (0, 0), None
#     Edge 79, Type (0, 0), None
#     Edge 80, Type (0, 0), None
#     Edge 81, Type (0, 0), None
#     Edge 82, Type (0, 0), None
#     Edge 83, Type (0, 0), None
#     Edge 84, Type (0, 0), None
#     Edge 85, Type (0, 0), None
#     Edge 86, Type (0, 0), None
#     Edge 87, Type (0, 0), None
#     Edge 88, Type (0, 0), None
#     Edge 89, Type (0, 0), None
#     Edge 90, Type (0, 0), None
#     Edge 91, Type (0, 0), None
#     Edge 92, Type (0, 0), None
#     Edge 93, Type (0, 0), None
#     Edge 94, Type (0, 0), None
#     Edge 95, Type (0, 0), None
#     Edge 96, Type (0, 0), None
#     Edge 97, Type (0, 0), None
#     Edge 98, Type (0, 0), None
#     Edge 99, Type (0, 0), None
#     Edge 100, Type (0, 0), None
#     Edge 101, Type (0, 0), None
#     Edge 102, Type (0, 0), None
#     Edge 103, Type (0, 0), None
#     Edge 104, Type (0, 0), None
#     Edge 105, Type (0, 0), None
#     Edge 106, Type (0, 0), None
#     Edge 107, Type (0, 0), None
#     Edge 108, Type (0, 0), None
#     Edge 109, Type (0, 0), None
#     Edge 110, Type (0, 0), None
#     Edge 111, Type (0, 0), None
# Relax obj value: 0.606
# Max RMSD: 0.324
# Mean RMSD: 0.324
data_MOF--net-yfr--node1-XOMCOT_clean_sbu_1--edge1-none
_symmetry_space_group_name_H-M    P1
_symmetry_Int_Tables_number       1
_symmetry_cell_setting            triclinic
loop_
_symmetry_equiv_pos_as_xyz
'x, y, z'
_cell_length_a     24.038244
_cell_length_b     24.037837
_cell_length_c     34.490998
_cell_angle_alpha  90.0
_cell_angle_beta   89.999991
_cell_angle_gamma 89.999938
loop_
_atom_site_label
_atom_site_type_symbol
_atom_site_fract_x
_atom_site_fract_y
_atom_site_fract_z
_atom_type_partial_charge
C0 C 0.15116 0.12456 0.30188 0.0
C1 C 0.1271 0.10675 0.33554 0.0
N2 N 0.07344 0.122 0.33505 0.0
N3 N 0.11301 0.15075 0.2797 0.0
C4 C 0.06574 0.14815 0.30056 0.0
H5 H 0.19479 0.12091 0.29478 0.0
Co6 Co 0.13501 0.17605 0.2309 0.0
C7 C 0.06865 0.2753 0.20577 0.0
O8 O 0.11715 0.29798 0.19834 0.0
N9 N 0.15981 0.19604 0.18027 0.0
C10 C 0.20419 0.22295 0.12644 0.0
C11 C 0.20477 0.22373 0.16662 0.0
C12 C 0.13306 0.17846 0.14778 0.0
N13 N 0.15915 0.19407 0.11496 0.0
O14 O 0.10738 0.10534 0.21162 0.0
H15 H 0.23643 0.24288 0.18435 0.0
H16 H 0.09509 0.15434 0.14811 0.0
O17 O 0.06571 0.22366 0.21811 0.0
C18 C 0.15003 0.07489 0.2186 0.0
O19 O 0.19835 0.09978 0.22275 0.0
N20 N 0.16499 0.23873 0.25624 0.0
C21 C 0.20097 0.29562 0.32163 0.0
C22 C 0.14536 0.29603 0.31149 0.0
C23 C 0.12812 0.26649 0.27975 0.0
C24 C 0.22054 0.2402 0.26466 0.0
C25 C 0.2398 0.2695 0.29734 0.0
H26 H 0.08392 0.26021 0.27813 0.0
H27 H 0.24917 0.21421 0.24867 0.0
H28 H 1.02777 0.16939 0.29237 0.0
H29 H 0.14888 0.09012 0.36047 0.0
H30 H 0.2352 0.24067 0.10735 0.0
H31 H 0.11469 0.3161 0.32979 0.0
H32 H 0.28354 0.26907 0.30479 0.0
C33 C 0.21397 0.90114 0.55188 0.0
C34 C 0.23178 0.87707 0.58553 0.0
N35 N 0.21652 0.82342 0.58504 0.0
N36 N 0.18775 0.863 0.5297 0.0
C37 C 0.19035 0.81573 0.55056 0.0
H38 H 0.21762 0.94477 0.54477 0.0
Co39 Co 0.16245 0.88502 0.4809 0.0
C40 C 0.06318 0.8187 0.45576 0.0
O41 O 1.04052 0.86721 0.44834 0.0
N42 N 0.14248 0.90984 0.43027 0.0
C43 C 0.11558 0.95423 0.37645 0.0
C44 C 0.1148 0.95482 0.41662 0.0
C45 C 0.16004 0.88308 0.39778 0.0
N46 N 0.14444 0.90918 0.36496 0.0
O47 O 0.23316 0.85738 0.46162 0.0
H48 H 0.09566 0.98648 0.43435 0.0
H49 H 0.18414 0.8451 0.39812 0.0
O50 O 0.11482 0.81574 0.4681 0.0
C51 C 0.26361 0.90003 0.4686 0.0
O52 O 0.23872 0.94835 0.47274 0.0
N53 N 0.09978 0.91502 0.50624 0.0
C54 C 1.04293 0.951 0.57164 0.0
C55 C 1.0425 0.89539 0.56151 0.0
C56 C 0.07202 0.87814 0.52975 0.0
C57 C 0.09833 0.97057 0.51467 0.0
C58 C 0.06905 0.98982 0.54736 0.0
H59 H 0.07828 0.83394 0.52812 0.0
H60 H 0.12434 0.9992 0.49868 0.0
H61 H 0.16909 0.77777 0.54238 0.0
H62 H 0.24843 0.89885 0.61046 0.0
H63 H 0.09788 0.98525 0.35735 0.0
H64 H 1.02243 0.86472 0.5798 0.0
H65 H 0.0695 1.03357 0.55481 0.0
C66 C 0.43731 0.96398 0.80188 0.0
C67 C 0.46138 0.98179 0.83554 0.0
N68 N 0.51503 0.96653 0.83505 0.0
N69 N 0.47547 0.93778 0.7797 0.0
C70 C 0.52274 0.94038 0.80056 0.0
H71 H 0.39368 0.96763 0.79478 0.0
Co72 Co 0.45346 0.91248 0.7309 0.0
C73 C 0.51982 0.81323 0.70577 0.0
O74 O 0.47133 0.79056 0.69834 0.0
N75 N 0.42867 0.8925 0.68027 0.0
C76 C 0.38429 0.86558 0.62644 0.0
C77 C 0.3837 0.8648 0.66662 0.0
C78 C 0.45541 0.91007 0.64778 0.0
N79 N 0.42933 0.89446 0.61496 0.0
O80 O 0.4811 0.98319 0.71162 0.0
H81 H 0.35204 0.84565 0.68435 0.0
H82 H 0.49338 0.9342 0.64811 0.0
O83 O 0.52276 0.86487 0.71811 0.0
C84 C 0.43844 1.01364 0.7186 0.0
O85 O 0.39012 0.98875 0.72275 0.0
N86 N 0.42348 0.8498 0.75624 0.0
C87 C 0.3875 0.79291 0.82163 0.0
C88 C 0.44311 0.7925 0.81149 0.0
C89 C 0.46036 0.82204 0.77975 0.0
C90 C 0.36793 0.84833 0.76466 0.0
C91 C 0.34868 0.81903 0.79734 0.0
H92 H 0.50456 0.82833 0.77813 0.0
H93 H 0.3393 0.87433 0.74867 0.0
H94 H 0.5607 0.91914 0.79237 0.0
H95 H 0.43959 0.99842 0.86047 0.0
H96 H 0.35328 0.84787 0.60735 0.0
H97 H 0.47379 0.77243 0.82979 0.0
H98 H 0.30493 0.81946 0.80479 0.0
C99 C 0.37451 0.18739 0.05188 0.0
C100 C 0.35669 0.21146 0.08553 0.0
N101 N 0.37196 0.26511 0.08504 0.0
N102 N 0.40072 0.22553 0.0297 0.0
C103 C 0.39813 0.27281 0.05056 0.0
H104 H 0.37085 0.14376 0.04477 0.0
Co105 Co 0.42602 0.20351 -0.0191 0.0
C106 C 0.52529 0.26983 0.95576 0.0
O107 O 0.54795 0.22132 0.94834 0.0
N108 N 0.446 0.1787 0.93027 0.0
C109 C 0.47289 0.1343 0.87645 0.0
C110 C 0.47367 0.13372 0.91662 0.0
C111 C 0.42844 0.20545 0.89778 0.0
N112 N 0.44404 0.17936 0.86496 0.0
O113 O 0.35532 0.23116 0.96162 0.0
H114 H 0.49281 0.10205 0.93435 0.0
H115 H 0.40433 0.24343 0.89812 0.0
O116 O 0.47365 0.27279 0.9681 0.0
C117 C 0.32486 0.1885 0.9686 0.0
O118 O 0.34975 0.14018 -0.02726 0.0
N119 N 0.48869 0.17351 0.00624 0.0
C120 C 0.54554 0.13753 0.07164 0.0
C121 C 0.54598 0.19314 0.06151 0.0
C122 C 0.51645 0.21039 0.02975 0.0
C123 C 0.49014 0.11797 0.01467 0.0
C124 C 0.51942 0.09871 0.04736 0.0
H125 H 0.51019 0.25459 0.02812 0.0
H126 H 0.46414 0.08934 -0.00132 0.0
H127 H 0.41938 0.31077 0.04238 0.0
H128 H 0.34004 0.18968 0.11046 0.0
H129 H 0.49059 0.10328 0.85735 0.0
H130 H 0.56605 0.22382 0.0798 0.0
H131 H 0.51897 0.05497 0.05481 0.0
C132 C 0.15117 0.96397 0.13957 0.0
C133 C 0.1271 0.98178 0.10592 0.0
N134 N 0.07345 0.96653 0.10641 0.0
N135 N 0.11301 0.93778 0.16176 0.0
C136 C 0.06574 0.94039 0.1409 0.0
H137 H 0.1948 0.96761 0.14668 0.0
Co138 Co 0.13501 0.91248 0.21057 0.0
C139 C 0.06865 0.81323 0.23569 0.0
O140 O 0.11715 0.79056 0.24313 0.0
N141 N 0.15981 0.89251 0.26119 0.0
C142 C 0.20417 0.86559 0.31503 0.0
C143 C 0.20476 0.8648 0.27485 0.0
C144 C 0.13307 0.9101 0.29368 0.0
N145 N 0.15916 0.89452 0.32651 0.0
O146 O 0.10738 0.98319 0.22983 0.0
H147 H 0.2364 0.84561 0.25713 0.0
H148 H 0.09509 0.93422 0.29334 0.0
O149 O 0.06571 0.86487 0.22335 0.0
C150 C 0.15003 1.01365 0.22285 0.0
O151 O 0.19835 0.98876 0.21871 0.0
N152 N 0.165 0.84979 0.18523 0.0
C153 C 0.20098 0.79291 0.11984 0.0
C154 C 0.14536 0.7925 0.12997 0.0
C155 C 0.12812 0.82204 0.16172 0.0
C156 C 0.22054 0.84832 0.1768 0.0
C157 C 0.2398 0.81902 0.14413 0.0
H158 H 0.08392 0.82832 0.16334 0.0
H159 H 0.24918 0.87431 0.1928 0.0
H160 H 1.02777 0.91915 0.14909 0.0
H161 H 0.14889 0.99841 0.08098 0.0
H162 H 0.23516 0.84785 0.33412 0.0
H163 H 0.11469 0.77243 0.11167 0.0
H164 H 0.28354 0.81945 0.13668 0.0
C165 C 0.37452 0.90115 0.38958 0.0
C166 C 0.3567 0.87708 0.35593 0.0
N167 N 0.37196 0.82343 0.35641 0.0
N168 N 0.40073 0.863 0.41176 0.0
C169 C 0.39813 0.81573 0.3909 0.0
H170 H 0.37087 0.94478 0.39669 0.0
Co171 Co 0.42602 0.88502 0.46057 0.0
C172 C 0.52529 0.8187 0.48571 0.0
O173 O 0.54795 0.86721 0.49313 0.0
N174 N 0.44599 0.90984 0.51119 0.0
C175 C 0.47288 0.95422 0.56502 0.0
C176 C 0.47367 0.9548 0.52485 0.0
C177 C 0.4284 0.88309 0.54368 0.0
N178 N 0.44398 0.90919 0.5765 0.0
O179 O 0.35531 0.85738 0.47984 0.0
H180 H 0.49284 0.98646 0.50712 0.0
H181 H 0.40431 0.8451 0.54334 0.0
O182 O 0.47365 0.81574 0.47336 0.0
C183 C 0.32486 0.90003 0.47285 0.0
O184 O 0.34974 0.94835 0.46871 0.0
N185 N 0.48869 0.91502 0.43523 0.0
C186 C 0.54555 0.951 0.36982 0.0
C187 C 0.54598 0.89539 0.37996 0.0
C188 C 0.51646 0.87815 0.41172 0.0
C189 C 0.49015 0.97057 0.42679 0.0
C190 C 0.51943 0.98983 0.39411 0.0
H191 H 0.51019 0.83394 0.41334 0.0
H192 H 0.46415 0.9992 0.44279 0.0
H193 H 0.41938 0.77777 0.39908 0.0
H194 H 0.34005 0.89886 0.331 0.0
H195 H 0.49061 0.98522 0.58412 0.0
H196 H 0.56605 0.86472 0.36166 0.0
H197 H 0.51898 1.03357 0.38666 0.0
C198 C 0.43731 0.12457 0.63957 0.0
C199 C 0.46137 0.10675 0.60592 0.0
N200 N 0.51503 0.122 0.60641 0.0
N201 N 0.47546 0.15076 0.66176 0.0
C202 C 0.52273 0.14815 0.6409 0.0
H203 H 0.39368 0.12093 0.64668 0.0
Co204 Co 0.45346 0.17605 0.71057 0.0
C205 C 0.51982 0.2753 0.73569 0.0
O206 O 0.47133 0.29797 0.74313 0.0
N207 N 0.42867 0.19603 0.76119 0.0
C208 C 0.3843 0.22294 0.81503 0.0
C209 C 0.38371 0.22373 0.77485 0.0
C210 C 0.45541 0.17843 0.79368 0.0
N211 N 0.42932 0.19402 0.82651 0.0
O212 O 0.4811 0.10534 0.72983 0.0
H213 H 0.35207 0.24292 0.75713 0.0
H214 H 0.49338 0.15432 0.79334 0.0
O215 O 0.52276 0.22366 0.72335 0.0
C216 C 0.43844 0.07489 0.72285 0.0
O217 O 0.39012 0.09978 0.71871 0.0
N218 N 0.42348 0.23874 0.68523 0.0
C219 C 0.3875 0.29563 0.61984 0.0
C220 C 0.44311 0.29604 0.62997 0.0
C221 C 0.46036 0.26649 0.66172 0.0
C222 C 0.36793 0.24021 0.6768 0.0
C223 C 0.34867 0.26951 0.64413 0.0
H224 H 0.50456 0.26021 0.66334 0.0
H225 H 0.3393 0.21422 0.6928 0.0
H226 H 0.5607 0.16938 0.64909 0.0
H227 H 0.43958 0.09013 0.58098 0.0
H228 H 0.35331 0.24068 0.83412 0.0
H229 H 0.47379 0.3161 0.61167 0.0
H230 H 0.30493 0.26908 0.63668 0.0
C231 C 0.21395 0.18738 0.88958 0.0
C232 C 0.23178 0.21145 0.85593 0.0
N233 N 0.21652 0.26511 0.85641 0.0
N234 N 0.18775 0.22553 0.91176 0.0
C235 C 0.19035 0.2728 0.8909 0.0
H236 H 0.2176 0.14375 0.89669 0.0
Co237 Co 0.16245 0.20351 0.96056 0.0
C238 C 0.06318 0.26983 -0.01429 0.0
O239 O 1.04052 0.22132 -0.00687 0.0
N240 N 0.14249 0.1787 0.01119 0.0
C241 C 0.11559 0.13432 0.06502 0.0
C242 C 0.1148 0.13373 0.02485 0.0
C243 C 0.16007 0.20545 0.04368 0.0
N244 N 0.14449 0.17935 0.0765 0.0
O245 O 0.23316 0.23116 -0.02016 0.0
H246 H 0.09563 0.10208 0.00712 0.0
H247 H 0.18417 0.24343 0.04334 0.0
O248 O 0.11482 0.27279 -0.02664 0.0
C249 C 0.26362 0.1885 -0.02715 0.0
O250 O 0.23873 0.14018 0.96871 0.0
N251 N 0.09978 0.17351 0.93523 0.0
C252 C 1.04293 0.13753 0.86982 0.0
C253 C 1.04249 0.19314 0.87996 0.0
C254 C 0.07202 0.21039 0.91172 0.0
C255 C 0.09833 0.11797 0.92679 0.0
C256 C 0.06904 0.09871 0.89411 0.0
H257 H 0.07828 0.25459 0.91334 0.0
H258 H 0.12433 0.08934 0.94279 0.0
H259 H 0.1691 0.31077 0.89908 0.0
H260 H 0.24842 0.18967 0.831 0.0
H261 H 0.09786 0.10332 0.08412 0.0
H262 H 1.02242 0.22382 0.86166 0.0
H263 H 0.06949 0.05497 0.88666 0.0
C264 C 0.93731 0.96407 0.63962 0.0
C265 C 0.96135 0.98179 0.60592 0.0
N266 N 1.01493 0.96632 0.60638 0.0
N267 N 0.97544 0.93778 0.66178 0.0
C268 C 1.02268 0.94022 0.64088 0.0
H269 H 0.89371 0.96784 0.64676 0.0
Co270 Co 0.95345 0.91248 0.71058 0.0
C271 C 1.01982 0.81323 0.73571 0.0
O272 O 0.97133 0.79056 0.74314 0.0
N273 N 0.92866 0.8925 0.76121 0.0
C274 C 0.88429 0.86559 0.81504 0.0
C275 C 0.88369 0.86481 0.77486 0.0
C276 C 0.95542 0.91006 0.7937 0.0
N277 N 0.92933 0.89446 0.82652 0.0
O278 O 0.98109 0.98319 0.72985 0.0
H279 H 0.85203 0.84567 0.75713 0.0
H280 H 0.99339 0.93418 0.79336 0.0
O281 O 1.02275 0.86487 0.72336 0.0
C282 C 0.93843 1.01365 0.72289 0.0
O283 O 0.8901 0.98875 0.71879 0.0
N284 N 0.92346 0.8498 0.68524 0.0
C285 C 0.88748 0.79296 0.61982 0.0
C286 C 0.94308 0.7925 0.62998 0.0
C287 C 0.96033 0.82202 0.66174 0.0
C288 C 0.86791 0.84837 0.6768 0.0
C289 C 0.84866 0.81909 0.64411 0.0
H290 H 1.00453 0.82826 0.66337 0.0
H291 H 0.83929 0.87437 0.69279 0.0
H292 H 0.06061 0.91888 0.64903 0.0
H293 H 0.93958 0.99847 0.581 0.0
H294 H 0.85327 0.84788 0.83413 0.0
H295 H 0.97375 0.77242 0.61168 0.0
H296 H 0.80492 0.81956 0.63665 0.0
C297 C 0.87452 0.18733 0.38956 0.0
C298 C 0.85671 0.2114 0.35591 0.0
N299 N 0.87198 0.26505 0.3564 0.0
N300 N 0.90073 0.22547 0.41175 0.0
C301 C 0.89814 0.27274 0.39089 0.0
H302 H 0.87086 0.1437 0.39667 0.0
Co303 Co 0.92603 0.20348 0.46055 0.0
C304 C 1.0253 0.26982 0.48565 0.0
O305 O 0.04798 0.22132 0.49308 0.0
N306 N 0.94601 0.17869 0.51118 0.0
C307 C 0.97292 0.13432 0.56501 0.0
C308 C 0.9737 0.13372 0.52483 0.0
C309 C 0.92844 0.20545 0.54367 0.0
N310 N 0.94405 0.17936 0.57649 0.0
O311 O 0.85533 0.23115 0.47982 0.0
H312 H 0.99285 0.10206 0.5071 0.0
H313 H 0.90432 0.24342 0.54333 0.0
O314 O 0.97366 0.27277 0.47331 0.0
C315 C 0.82486 0.18849 0.47285 0.0
O316 O 0.84975 0.14017 0.46871 0.0
N317 N 0.98869 0.17345 0.4352 0.0
C318 C 0.04547 0.13738 0.36979 0.0
C319 C 0.04596 0.193 0.37992 0.0
C320 C 1.01647 0.21029 0.41168 0.0
C321 C 0.99009 0.1179 0.42678 0.0
C322 C 1.01933 0.0986 0.39409 0.0
H323 H 1.01025 0.2545 0.4133 0.0
H324 H 0.96407 0.0893 0.44279 0.0
H325 H 0.91939 0.3107 0.39907 0.0
H326 H 0.84006 0.18962 0.33098 0.0
H327 H 0.99063 0.1033 0.5841 0.0
H328 H 0.06605 0.22365 0.36161 0.0
H329 H 1.01883 0.05485 0.38665 0.0
C330 C 0.65116 0.12446 0.13962 0.0
C331 C 0.62712 0.10674 0.10592 0.0
N332 N 0.57354 0.12222 0.10638 0.0
N333 N 0.61303 0.15075 0.16178 0.0
C334 C 0.56579 0.14831 0.14088 0.0
H335 H 0.69476 0.12069 0.14676 0.0
Co336 Co 0.63502 0.17606 0.21058 0.0
C337 C 0.56865 0.2753 0.23571 0.0
O338 O 0.61715 0.29798 0.24314 0.0
N339 N 0.65981 0.19604 0.26121 0.0
C340 C 0.70419 0.22295 0.31504 0.0
C341 C 0.70478 0.22372 0.27486 0.0
C342 C 0.63306 0.17847 0.2937 0.0
N343 N 0.65914 0.19408 0.32652 0.0
O344 O 0.60738 0.10534 0.22985 0.0
H345 H 0.73645 0.24286 0.25713 0.0
H346 H 0.59508 0.15435 0.29336 0.0
O347 O 0.56572 0.22366 0.22336 0.0
C348 C 0.65005 0.07489 0.22289 0.0
O349 O 0.69837 0.09978 0.21879 0.0
N350 N 0.66502 0.23874 0.18524 0.0
C351 C 0.701 0.29557 0.11982 0.0
C352 C 0.64539 0.29603 0.12998 0.0
C353 C 0.62815 0.26651 0.16174 0.0
C354 C 0.72056 0.24017 0.1768 0.0
C355 C 0.73982 0.26944 0.14411 0.0
H356 H 0.58394 0.26027 0.16337 0.0
H357 H 0.74919 0.21416 0.19279 0.0
H358 H 0.52787 0.16965 0.14903 0.0
H359 H 0.64889 0.09006 0.081 0.0
H360 H 0.7352 0.24065 0.33413 0.0
H361 H 0.61472 0.31611 0.11168 0.0
H362 H 0.78355 0.26898 0.13665 0.0
C363 C 0.71396 0.90121 0.88956 0.0
C364 C 0.73177 0.87714 0.85591 0.0
N365 N 0.7165 0.82348 0.8564 0.0
N366 N 0.68774 0.86306 0.91175 0.0
C367 C 0.69034 0.81579 0.89089 0.0
H368 H 0.71762 0.94484 0.89667 0.0
Co369 Co 0.66244 0.88506 0.96055 0.0
C370 C 0.56317 0.81871 -0.01435 0.0
O371 O 0.5405 0.86721 -0.00692 0.0
N372 N 0.64246 0.90984 0.01118 0.0
C373 C 0.61555 0.95422 0.06501 0.0
C374 C 0.61477 0.95481 0.02483 0.0
C375 C 0.66003 0.88309 0.04367 0.0
N376 N 0.64442 0.90917 0.07649 0.0
O377 O 0.73315 0.85739 -0.02018 0.0
H378 H 0.59562 0.98647 0.00711 0.0
H379 H 0.68415 0.84511 0.04333 0.0
O380 O 0.61481 0.81577 -0.02669 0.0
C381 C 0.76361 0.90004 -0.02715 0.0
O382 O 0.73873 0.94836 0.96871 0.0
N383 N 0.59978 0.91508 0.9352 0.0
C384 C 0.543 0.95115 0.86979 0.0
C385 C 0.54251 0.89554 0.87992 0.0
C386 C 0.572 0.87824 0.91168 0.0
C387 C 0.59839 0.97064 0.92678 0.0
C388 C 0.56915 0.98994 0.89409 0.0
H389 H 0.57823 0.83404 0.9133 0.0
H390 H 0.6244 0.99923 0.94279 0.0
H391 H 0.66908 0.77783 0.89907 0.0
H392 H 0.74841 0.89891 0.83098 0.0
H393 H 0.59785 0.98523 0.0841 0.0
H394 H 0.52242 0.86489 0.86161 0.0
H395 H 0.56964 1.03368 0.88665 0.0
C396 C 0.93731 0.12447 0.80185 0.0
C397 C 0.96134 0.10675 0.83554 0.0
N398 N 1.01493 0.12222 0.83508 0.0
N399 N 0.97544 0.15076 0.77969 0.0
C400 C 1.02268 0.14831 0.80059 0.0
H401 H 0.8937 0.12071 0.7947 0.0
Co402 Co 0.95345 0.17606 0.73088 0.0
C403 C 1.01982 0.2753 0.70575 0.0
O404 O 0.97133 0.29798 0.69832 0.0
N405 N 0.92866 0.19603 0.68025 0.0
C406 C 0.8843 0.22293 0.62642 0.0
C407 C 0.8837 0.22373 0.66659 0.0
C408 C 0.95541 0.17844 0.64777 0.0
N409 N 0.92932 0.19402 0.61494 0.0
O410 O 0.98109 0.10534 0.71162 0.0
H411 H 0.85205 0.2429 0.68432 0.0
H412 H 0.99339 0.15433 0.64811 0.0
O413 O 1.02275 0.22366 0.7181 0.0
C414 C 0.93843 0.07488 0.71858 0.0
O415 O 0.8901 0.09978 0.72268 0.0
N416 N 0.92345 0.23874 0.75622 0.0
C417 C 0.88748 0.29558 0.82163 0.0
C418 C 0.94308 0.29603 0.81148 0.0
C419 C 0.96033 0.26652 0.77972 0.0
C420 C 0.86791 0.24018 0.76466 0.0
C421 C 0.84866 0.26945 0.79735 0.0
H422 H 1.00453 0.26027 0.77809 0.0
H423 H 0.83928 0.21417 0.74867 0.0
H424 H 0.06061 0.16965 0.79243 0.0
H425 H 0.93957 0.09007 0.86047 0.0
H426 H 0.8533 0.24067 0.60732 0.0
H427 H 0.97375 0.31611 0.82978 0.0
H428 H 0.80492 0.26899 0.80481 0.0
C429 C 0.71394 0.18732 0.55191 0.0
C430 C 0.73176 0.21139 0.58556 0.0
N431 N 0.7165 0.26504 0.58507 0.0
N432 N 0.68774 0.22547 0.52972 0.0
C433 C 0.69034 0.27274 0.55058 0.0
H434 H 0.7176 0.14369 0.5448 0.0
Co435 Co 0.66244 0.20348 0.48092 0.0
C436 C 0.56317 0.26982 0.45581 0.0
O437 O 0.5405 0.22132 0.44838 0.0
N438 N 0.64247 0.17869 0.43029 0.0
C439 C 0.61557 0.13433 0.37645 0.0
C440 C 0.61477 0.13374 0.41663 0.0
C441 C 0.66006 0.20544 0.3978 0.0
N442 N 0.64448 0.17935 0.36498 0.0
O443 O 0.73315 0.23115 0.46165 0.0
H444 H 0.59559 0.10209 0.43435 0.0
H445 H 0.68417 0.24342 0.39814 0.0
O446 O 0.61481 0.27277 0.46815 0.0
C447 C 0.76362 0.18849 0.46862 0.0
O448 O 0.73873 0.14017 0.47277 0.0
N449 N 0.59978 0.17345 0.50625 0.0
C450 C 0.543 0.13738 0.57167 0.0
C451 C 0.54251 0.193 0.56154 0.0
C452 C 0.572 0.21029 0.52978 0.0
C453 C 0.59838 0.1179 0.51468 0.0
C454 C 0.56914 0.0986 0.54736 0.0
H455 H 0.57823 0.2545 0.52816 0.0
H456 H 0.62439 0.0893 0.49867 0.0
H457 H 0.66909 0.3107 0.54239 0.0
H458 H 0.7484 0.18961 0.61049 0.0
H459 H 0.59783 0.10334 0.35735 0.0
H460 H 0.52242 0.22365 0.57985 0.0
H461 H 0.56963 0.05485 0.5548 0.0
C462 C 0.65117 0.96406 0.30185 0.0
C463 C 0.62713 0.98178 0.33554 0.0
N464 N 0.57355 0.96632 0.33508 0.0
N465 N 0.61303 0.93777 0.27969 0.0
C466 C 0.56579 0.94022 0.30059 0.0
H467 H 0.69477 0.96782 0.2947 0.0
Co468 Co 0.63502 0.91248 0.23088 0.0
C469 C 0.56865 0.81323 0.20575 0.0
O470 O 0.61715 0.79056 0.19832 0.0
N471 N 0.65981 0.89251 0.18025 0.0
C472 C 0.70418 0.8656 0.12642 0.0
C473 C 0.70477 0.86481 0.16659 0.0
C474 C 0.63306 0.91009 0.14777 0.0
N475 N 0.65915 0.89451 0.11494 0.0
O476 O 0.60738 0.9832 0.21162 0.0
H477 H 0.73642 0.84564 0.18432 0.0
H478 H 0.59508 0.9342 0.14811 0.0
O479 O 0.56572 0.86487 0.2181 0.0
C480 C 0.65005 1.01365 0.21858 0.0
O481 O 0.69837 0.98875 0.22268 0.0
N482 N 0.66502 0.84979 0.25622 0.0
C483 C 0.701 0.79296 0.32163 0.0
C484 C 0.64539 0.7925 0.31148 0.0
C485 C 0.62815 0.82202 0.27972 0.0
C486 C 0.72056 0.84836 0.26466 0.0
C487 C 0.73982 0.81909 0.29735 0.0
H488 H 0.58395 0.82826 0.27809 0.0
H489 H 0.74919 0.87436 0.24867 0.0
H490 H 0.52787 0.91889 0.29243 0.0
H491 H 0.6489 0.99846 0.36047 0.0
H492 H 0.73517 0.84787 0.10732 0.0
H493 H 0.61472 0.77242 0.32978 0.0
H494 H 0.78356 0.81955 0.30481 0.0
C495 C 0.87453 0.90121 0.05191 0.0
C496 C 0.85672 0.87714 0.08556 0.0
N497 N 0.87198 0.82349 0.08507 0.0
N498 N 0.90074 0.86307 0.02972 0.0
C499 C 0.89814 0.81579 0.05058 0.0
H500 H 0.87087 0.94484 0.0448 0.0
Co501 Co 0.92603 0.88506 -0.01908 0.0
C502 C 1.0253 0.81871 0.95581 0.0
O503 O 0.04797 0.86721 0.94838 0.0
N504 N 0.946 0.90984 0.93029 0.0
C505 C 0.97291 0.95421 0.87645 0.0
C506 C 0.9737 0.9548 0.91663 0.0
C507 C 0.92841 0.88309 0.8978 0.0
N508 N 0.94399 0.90918 0.86498 0.0
O509 O 0.85532 0.85739 0.96165 0.0
H510 H 0.99288 0.98645 0.93435 0.0
H511 H 0.9043 0.84511 0.89814 0.0
O512 O 0.97366 0.81577 0.96815 0.0
C513 C 0.82486 0.90004 0.96862 0.0
O514 O 0.84974 0.94836 -0.02723 0.0
N515 N 0.98869 0.91509 0.00625 0.0
C516 C 0.04548 0.95115 0.07167 0.0
C517 C 0.04597 0.89554 0.06154 0.0
C518 C 1.01648 0.87825 0.02978 0.0
C519 C 0.99009 0.97064 0.01468 0.0
C520 C 1.01933 0.98994 0.04736 0.0
H521 H 1.01025 0.83404 0.02816 0.0
H522 H 0.96408 0.99924 -0.00133 0.0
H523 H 0.91938 0.77783 0.04239 0.0
H524 H 0.84007 0.89892 0.11049 0.0
H525 H 0.99064 0.9852 0.85735 0.0
H526 H 0.06606 0.86489 0.07985 0.0
H527 H 1.01884 1.03368 0.0548 0.0
C528 C 0.65117 0.62454 0.8019 0.0
C529 C 0.6271 0.60672 0.83555 0.0
N530 N 0.57345 0.62199 0.83506 0.0
N531 N 0.61303 0.65076 0.77972 0.0
C532 C 0.56576 0.64816 0.80058 0.0
H533 H 0.6948 0.62088 0.79479 0.0
Co534 Co 0.63504 0.67605 0.73091 0.0
C535 C 0.56872 0.77533 0.70579 0.0
O536 O 0.61722 0.798 0.69837 0.0
N537 N 0.65984 0.69603 0.68029 0.0
C538 C 0.70421 0.72293 0.62645 0.0
C539 C 0.7048 0.72371 0.66663 0.0
C540 C 0.63308 0.67845 0.64779 0.0
N541 N 0.65917 0.69406 0.61497 0.0
O542 O 0.60737 0.60535 0.71164 0.0
H543 H 0.73647 0.74286 0.68436 0.0
H544 H 0.5951 0.65434 0.64813 0.0
O545 O 0.56576 0.72369 0.71814 0.0
C546 C 0.65002 0.57489 0.71861 0.0
O547 O 0.69834 0.59978 0.72276 0.0
N548 N 0.66506 0.73871 0.75625 0.0
C549 C 0.70112 0.79551 0.82166 0.0
C550 C 0.64551 0.796 0.81153 0.0
C551 C 0.62822 0.7665 0.77977 0.0
C552 C 0.72061 0.74011 0.76468 0.0
C553 C 0.73991 0.76936 0.79736 0.0
H554 H 0.58401 0.76027 0.77815 0.0
H555 H 0.74921 0.71409 0.74868 0.0
H556 H 0.5278 0.66942 0.79239 0.0
H557 H 0.64888 0.59007 0.86048 0.0
H558 H 0.73523 0.74063 0.60736 0.0
H559 H 0.61486 0.8161 0.82984 0.0
H560 H 0.78365 0.76887 0.80481 0.0
C561 C 0.71405 0.40118 0.05184 0.0
C562 C 0.73178 0.37715 0.08554 0.0
N563 N 0.7163 0.32357 0.08508 0.0
N564 N 0.68776 0.36306 0.02968 0.0
C565 C 0.6902 0.31582 0.05059 0.0
H566 H 0.71782 0.44479 0.0447 0.0
Co567 Co 0.66246 0.38506 -0.01912 0.0
C568 C 0.56321 0.31872 0.95574 0.0
O569 O 0.54054 0.36722 0.94831 0.0
N570 N 0.64248 0.40987 0.93026 0.0
C571 C 0.61559 0.45425 0.87643 0.0
C572 C 0.61481 0.45484 0.9166 0.0
C573 C 0.66005 0.38311 0.89776 0.0
N574 N 0.64445 0.4092 0.86494 0.0
O575 O 0.73317 0.35742 0.96161 0.0
H576 H 0.59567 0.48651 0.93433 0.0
H577 H 0.68416 0.34513 0.8981 0.0
O578 O 0.61484 0.31577 0.96809 0.0
C579 C 0.76362 0.40009 0.96857 0.0
O580 O 0.73872 0.44841 -0.02733 0.0
N581 N 0.59978 0.41506 0.00622 0.0
C582 C 0.54292 0.45102 0.07163 0.0
C583 C 0.54247 0.39542 0.06148 0.0
C584 C 0.572 0.37818 0.02972 0.0
C585 C 0.59834 0.4706 0.01467 0.0
C586 C 0.56906 0.48985 0.04735 0.0
H587 H 0.57825 0.33398 0.02809 0.0
H588 H 0.62435 0.49923 -0.00132 0.0
H589 H 0.66886 0.27789 0.04244 0.0
H590 H 0.74847 0.39892 0.11046 0.0
H591 H 0.59789 0.48526 0.85733 0.0
H592 H 0.52239 0.36474 0.07977 0.0
H593 H 0.56952 0.53359 0.05482 0.0
C594 C 0.9373 0.46399 0.3019 0.0
C595 C 0.96137 0.48181 0.33555 0.0
N596 N 1.01502 0.46654 0.33506 0.0
N597 N 0.97544 0.43778 0.27972 0.0
C598 C 1.02272 0.44037 0.30058 0.0
H599 H 0.89367 0.46766 0.29479 0.0
Co600 Co 0.95344 0.41248 0.23091 0.0
C601 C 1.01975 0.31321 0.20579 0.0
O602 O 0.97125 0.29054 0.19837 0.0
N603 N 0.92864 0.39251 0.18029 0.0
C604 C 0.88426 0.36561 0.12645 0.0
C605 C 0.88367 0.36482 0.16663 0.0
C606 C 0.95539 0.41008 0.14779 0.0
N607 N 0.92931 0.39448 0.11497 0.0
O608 O 0.98111 0.48318 0.21164 0.0
H609 H 0.85201 0.34568 0.18436 0.0
H610 H 0.99337 0.43419 0.14813 0.0
O611 O 1.02271 0.36484 0.21814 0.0
C612 C 0.93845 0.51364 0.21861 0.0
O613 O 0.89013 0.48876 0.22276 0.0
N614 N 0.92341 0.34982 0.25625 0.0
C615 C 0.88735 0.29302 0.32166 0.0
C616 C 0.94297 0.29253 0.31153 0.0
C617 C 0.96025 0.32203 0.27977 0.0
C618 C 0.86786 0.34842 0.26468 0.0
C619 C 0.84857 0.31917 0.29736 0.0
H620 H 1.00446 0.32826 0.27815 0.0
H621 H 0.83926 0.37444 0.24867 0.0
H622 H 0.06067 0.41911 0.29239 0.0
H623 H 0.9396 0.49846 0.36048 0.0
H624 H 0.85325 0.3479 0.10736 0.0
H625 H 0.97362 0.27244 0.32984 0.0
H626 H 0.80482 0.31966 0.30481 0.0
C627 C 0.87442 0.68735 0.55184 0.0
C628 C 0.8567 0.71139 0.58554 0.0
N629 N 0.87217 0.76497 0.58508 0.0
N630 N 0.90072 0.72548 0.52968 0.0
C631 C 0.89828 0.77272 0.55059 0.0
H632 H 0.87065 0.64374 0.5447 0.0
Co633 Co 0.92602 0.70347 0.48088 0.0
C634 C 1.02527 0.76981 0.45574 0.0
O635 O 0.04794 0.72131 0.44831 0.0
N636 N 0.94599 0.67867 0.43026 0.0
C637 C 0.97289 0.63429 0.37643 0.0
C638 C 0.97367 0.63369 0.4166 0.0
C639 C 0.92842 0.70543 0.39776 0.0
N640 N 0.94402 0.67934 0.36494 0.0
O641 O 0.85531 0.73111 0.46161 0.0
H642 H 0.99281 0.60203 0.43433 0.0
H643 H 0.90431 0.7434 0.39811 0.0
O644 O 0.97363 0.77276 0.46809 0.0
C645 C 0.82486 0.68845 0.46857 0.0
O646 O 0.84975 0.64012 0.47267 0.0
N647 N 0.98869 0.67348 0.50622 0.0
C648 C 0.04555 0.63751 0.57163 0.0
C649 C 0.046 0.69311 0.56148 0.0
C650 C 1.01647 0.71035 0.52972 0.0
C651 C 0.99013 0.61793 0.51467 0.0
C652 C 1.01942 0.59868 0.54735 0.0
H653 H 1.01022 0.75456 0.52809 0.0
H654 H 0.96413 0.5893 0.49868 0.0
H655 H 0.91962 0.81064 0.54244 0.0
H656 H 0.84001 0.68961 0.61046 0.0
H657 H 0.99059 0.60327 0.35733 0.0
H658 H 0.06609 0.72379 0.57977 0.0
H659 H 1.01896 0.55495 0.55482 0.0
C660 C 0.65118 0.46398 0.63956 0.0
C661 C 0.62711 0.4818 0.60591 0.0
N662 N 0.57346 0.46654 0.6064 0.0
N663 N 0.61303 0.43777 0.66174 0.0
C664 C 0.56576 0.44037 0.64088 0.0
H665 H 0.69481 0.46764 0.64667 0.0
Co666 Co 0.63504 0.41248 0.71055 0.0
C667 C 0.56872 0.31321 0.73568 0.0
O668 O 0.61722 0.29054 0.7431 0.0
N669 N 0.65984 0.39252 0.76118 0.0
C670 C 0.7042 0.36562 0.81502 0.0
C671 C 0.70479 0.36482 0.77484 0.0
C672 C 0.63309 0.41011 0.79366 0.0
N673 N 0.65918 0.39453 0.82649 0.0
O674 O 0.60737 0.48318 0.72982 0.0
H675 H 0.73644 0.34564 0.75712 0.0
H676 H 0.5951 0.43422 0.79332 0.0
O677 O 0.56576 0.36484 0.72333 0.0
C678 C 0.65002 0.51365 0.72284 0.0
O679 O 0.69834 0.48876 0.7187 0.0
N680 N 0.66507 0.34982 0.68521 0.0
C681 C 0.70112 0.29302 0.61981 0.0
C682 C 0.64551 0.29253 0.62994 0.0
C683 C 0.62822 0.32203 0.66169 0.0
C684 C 0.72062 0.34841 0.67679 0.0
C685 C 0.73991 0.31916 0.64411 0.0
H686 H 0.58401 0.32826 0.66332 0.0
H687 H 0.74922 0.37443 0.6928 0.0
H688 H 0.5278 0.41912 0.64907 0.0
H689 H 0.64889 0.49845 0.58098 0.0
H690 H 0.73519 0.34789 0.83412 0.0
H691 H 0.61486 0.27244 0.61163 0.0
H692 H 0.78365 0.31965 0.63666 0.0
C693 C 0.87443 0.40119 0.88961 0.0
C694 C 0.8567 0.37716 0.85592 0.0
N695 N 0.87217 0.32357 0.85638 0.0
N696 N 0.90072 0.36306 0.91177 0.0
C697 C 0.89828 0.31582 0.89087 0.0
H698 H 0.87067 0.4448 0.89676 0.0
Co699 Co 0.92602 0.38507 0.96058 0.0
C700 C 1.02527 0.31872 -0.01427 0.0
O701 O 0.04794 0.36722 -0.00684 0.0
N702 N 0.94598 0.40987 0.01121 0.0
C703 C 0.97287 0.45424 0.06504 0.0
C704 C 0.97367 0.45483 0.02487 0.0
C705 C 0.92839 0.38311 0.04369 0.0
N706 N 0.94397 0.40921 0.07652 0.0
O707 O 0.8553 0.35742 -0.02016 0.0
H708 H 0.99284 0.48648 0.00714 0.0
H709 H 0.90429 0.34513 0.04335 0.0
O710 O 0.97363 0.31577 -0.02663 0.0
C711 C 0.82485 0.40009 -0.02712 0.0
O712 O 0.84975 0.44841 0.96878 0.0
N713 N 0.9887 0.41506 0.93524 0.0
C714 C 0.04556 0.45102 0.86984 0.0
C715 C 0.04601 0.39542 0.87999 0.0
C716 C 1.01648 0.37818 0.91175 0.0
C717 C 0.99014 0.4706 0.9268 0.0
C718 C 1.01942 0.48985 0.89412 0.0
H719 H 1.01023 0.33398 0.91338 0.0
H720 H 0.96414 0.49923 0.94279 0.0
H721 H 0.91961 0.27789 0.89902 0.0
H722 H 0.84002 0.39893 0.831 0.0
H723 H 0.9906 0.48523 0.08414 0.0
H724 H 0.06609 0.36474 0.8617 0.0
H725 H 1.01897 0.53359 0.88665 0.0
C726 C 0.93729 0.62455 0.13956 0.0
C727 C 0.96136 0.60673 0.10591 0.0
N728 N 1.01502 0.62199 0.1064 0.0
N729 N 0.97544 0.65076 0.16174 0.0
C730 C 1.02271 0.64816 0.14088 0.0
H731 H 0.89367 0.6209 0.14667 0.0
Co732 Co 0.95343 0.67605 0.21055 0.0
C733 C 1.01975 0.77533 0.23568 0.0
O734 O 0.97125 0.798 0.2431 0.0
N735 N 0.92864 0.69602 0.26118 0.0
C736 C 0.88427 0.72291 0.31502 0.0
C737 C 0.88368 0.72371 0.27484 0.0
C738 C 0.95539 0.67842 0.29366 0.0
N739 N 0.9293 0.694 0.32649 0.0
O740 O 0.98111 0.60535 0.22982 0.0
H741 H 0.85203 0.74289 0.25712 0.0
H742 H 0.99337 0.65432 0.29332 0.0
O743 O 1.02271 0.72369 0.22333 0.0
C744 C 0.93845 0.57489 0.22284 0.0
O745 O 0.89013 0.59977 0.2187 0.0
N746 N 0.92341 0.73872 0.18521 0.0
C747 C 0.88735 0.79552 0.11981 0.0
C748 C 0.94296 0.79601 0.12994 0.0
C749 C 0.96025 0.7665 0.16169 0.0
C750 C 0.86786 0.74012 0.17679 0.0
C751 C 0.84856 0.76937 0.14411 0.0
H752 H 1.00446 0.76027 0.16332 0.0
H753 H 0.83926 0.7141 0.1928 0.0
H754 H 0.06067 0.66941 0.14907 0.0
H755 H 0.93959 0.59009 0.08098 0.0
H756 H 0.85328 0.74065 0.33412 0.0
H757 H 0.97362 0.8161 0.11163 0.0
H758 H 0.80482 0.76888 0.13666 0.0
C759 C 0.71404 0.68734 0.38961 0.0
C760 C 0.73177 0.71138 0.35592 0.0
N761 N 0.7163 0.76496 0.35638 0.0
N762 N 0.68775 0.72547 0.41177 0.0
C763 C 0.6902 0.77271 0.39087 0.0
H764 H 0.71781 0.64374 0.39676 0.0
Co765 Co 0.66246 0.70347 0.46058 0.0
C766 C 0.56321 0.76981 0.48573 0.0
O767 O 0.54054 0.72131 0.49316 0.0
N768 N 0.64249 0.67867 0.51121 0.0
C769 C 0.6156 0.6343 0.56504 0.0
C770 C 0.6148 0.63371 0.52487 0.0
C771 C 0.66008 0.70542 0.54369 0.0
N772 N 0.64451 0.67933 0.57652 0.0
O773 O 0.73317 0.73111 0.47984 0.0
H774 H 0.59563 0.60205 0.50714 0.0
H775 H 0.68419 0.7434 0.54335 0.0
O776 O 0.61484 0.77276 0.47337 0.0
C777 C 0.76362 0.68845 0.47288 0.0
O778 O 0.73873 0.64012 0.46878 0.0
N779 N 0.59978 0.67348 0.43524 0.0
C780 C 0.54292 0.63751 0.36984 0.0
C781 C 0.54247 0.69311 0.37999 0.0
C782 C 0.572 0.71035 0.41175 0.0
C783 C 0.59833 0.61793 0.4268 0.0
C784 C 0.56905 0.59868 0.39412 0.0
H785 H 0.57825 0.75456 0.41338 0.0
H786 H 0.62434 0.5893 0.44279 0.0
H787 H 0.66886 0.81064 0.39902 0.0
H788 H 0.74845 0.6896 0.331 0.0
H789 H 0.59787 0.6033 0.58414 0.0
H790 H 0.52239 0.72379 0.3617 0.0
H791 H 0.5695 0.55494 0.38665 0.0
C792 C 0.4373 0.46409 0.1396 0.0
C793 C 0.46135 0.48181 0.10591 0.0
N794 N 0.51492 0.46632 0.10637 0.0
N795 N 0.47542 0.43777 0.16176 0.0
C796 C 0.52266 0.4402 0.14086 0.0
H797 H 0.3937 0.46788 0.14675 0.0
Co798 Co 0.45342 0.41248 0.21057 0.0
C799 C 0.51975 0.31321 0.23569 0.0
O800 O 0.47125 0.29053 0.24311 0.0
N801 N 0.42863 0.39251 0.26119 0.0
C802 C 0.38426 0.36561 0.31503 0.0
C803 C 0.38366 0.36483 0.27485 0.0
C804 C 0.4554 0.41007 0.29368 0.0
N805 N 0.42931 0.39447 0.32651 0.0
O806 O 0.4811 0.48318 0.22984 0.0
H807 H 0.35199 0.3457 0.25712 0.0
H808 H 0.49338 0.43418 0.29334 0.0
O809 O 0.5227 0.36484 0.22334 0.0
C810 C 0.43844 0.51364 0.22288 0.0
O811 O 0.39011 0.48876 0.21878 0.0
N812 N 0.42339 0.34982 0.18522 0.0
C813 C 0.38733 0.29307 0.11979 0.0
C814 C 0.44294 0.29254 0.12994 0.0
C815 C 0.46022 0.32201 0.16171 0.0
C816 C 0.36784 0.34846 0.17678 0.0
C817 C 0.34855 0.31924 0.14408 0.0
H818 H 0.50443 0.3282 0.16335 0.0
H819 H 0.33925 0.37449 0.19278 0.0
H820 H 0.56058 0.41885 0.14901 0.0
H821 H 0.43958 0.49852 0.08099 0.0
H822 H 0.35324 0.34792 0.33412 0.0
H823 H 0.47358 0.27243 0.11164 0.0
H824 H 0.30481 0.31976 0.13663 0.0
C825 C 0.37443 0.68729 0.8896 0.0
C826 C 0.35671 0.71132 0.8559 0.0
N827 N 0.37219 0.76491 0.85636 0.0
N828 N 0.40073 0.72541 0.91176 0.0
C829 C 0.39829 0.77265 0.89086 0.0
H830 H 0.37065 0.64368 0.89675 0.0
Co831 Co 0.42602 0.70343 0.96056 0.0
C832 C 0.52528 0.7698 -0.01433 0.0
O833 O 0.54796 0.72131 -0.00689 0.0
N834 N 0.44601 0.67866 0.01119 0.0
C835 C 0.47291 0.6343 0.06503 0.0
C836 C 0.4737 0.6337 0.02485 0.0
C837 C 0.42843 0.70542 0.04368 0.0
N838 N 0.44404 0.67934 0.07651 0.0
O839 O 0.35532 0.7311 -0.02017 0.0
H840 H 0.49285 0.60204 0.00713 0.0
H841 H 0.40431 0.74339 0.04334 0.0
O842 O 0.47364 0.77274 -0.02668 0.0
C843 C 0.32486 0.68844 -0.02712 0.0
O844 O 0.34975 0.64011 0.96878 0.0
N845 N 0.48869 0.67341 0.93522 0.0
C846 C 0.54548 0.63736 0.8698 0.0
C847 C 0.54599 0.69297 0.87995 0.0
C848 C 0.51649 0.71025 0.91171 0.0
C849 C 0.49008 0.61786 0.92679 0.0
C850 C 0.51932 0.59857 0.8941 0.0
H851 H 0.51028 0.75446 0.91334 0.0
H852 H 0.46406 0.58926 0.94279 0.0
H853 H 0.41963 0.81058 0.89901 0.0
H854 H 0.34003 0.68955 0.83098 0.0
H855 H 0.49062 0.60329 0.08412 0.0
H856 H 0.56609 0.72362 0.86165 0.0
H857 H 0.51882 0.55483 0.88665 0.0
C858 C 0.15117 0.62444 0.6396 0.0
C859 C 0.12713 0.60672 0.60591 0.0
N860 N 0.07355 0.62221 0.60637 0.0
N861 N 0.11305 0.65076 0.66176 0.0
C862 C 0.06581 0.64833 0.64086 0.0
H863 H 0.19478 0.62066 0.64675 0.0
Co864 Co 0.13505 0.67605 0.71057 0.0
C865 C 0.06872 0.77533 0.73569 0.0
O866 O 0.11722 0.798 0.74311 0.0
N867 N 0.15984 0.69603 0.76119 0.0
C868 C 0.20422 0.72292 0.81503 0.0
C869 C 0.20481 0.7237 0.77485 0.0
C870 C 0.13308 0.67846 0.79368 0.0
N871 N 0.15916 0.69406 0.82651 0.0
O872 O 0.10737 0.60535 0.72984 0.0
H873 H 0.23649 0.74284 0.75712 0.0
H874 H 0.0951 0.65436 0.79334 0.0
O875 O 0.06577 0.72369 0.72334 0.0
C876 C 0.15004 0.57489 0.72288 0.0
O877 O 0.19837 0.59978 0.71878 0.0
N878 N 0.16509 0.73871 0.68522 0.0
C879 C 0.20114 0.79546 0.61979 0.0
C880 C 0.14554 0.796 0.62994 0.0
C881 C 0.12825 0.76652 0.66171 0.0
C882 C 0.22063 0.74008 0.67678 0.0
C883 C 0.23993 0.7693 0.64409 0.0
H884 H 0.08404 0.76033 0.66335 0.0
H885 H 0.24923 0.71405 0.69278 0.0
H886 H 1.02789 0.66968 0.64901 0.0
H887 H 0.14889 0.59002 0.58099 0.0
H888 H 0.23523 0.74062 0.83412 0.0
H889 H 0.11489 0.81611 0.61164 0.0
H890 H 0.28367 0.76878 0.63663 0.0
C891 C 0.21405 0.40125 0.3896 0.0
C892 C 0.23176 0.37721 0.3559 0.0
N893 N 0.21628 0.32363 0.35636 0.0
N894 N 0.18775 0.36312 0.41176 0.0
C895 C 0.19018 0.31588 0.39086 0.0
H896 H 0.21782 0.44485 0.39675 0.0
Co897 Co 0.16245 0.3851 0.46056 0.0
C898 C 0.0632 0.31873 0.48567 0.0
O899 O 1.04051 0.36722 0.49311 0.0
N900 N 0.14247 0.40987 0.51119 0.0
C901 C 0.11556 0.45423 0.56503 0.0
C902 C 0.11478 0.45483 0.52485 0.0
C903 C 0.16004 0.38311 0.54368 0.0
N904 N 0.14444 0.40919 0.57651 0.0
O905 O 0.23316 0.35743 0.47983 0.0
H906 H 0.09563 0.4865 0.50713 0.0
H907 H 0.18417 0.34514 0.54334 0.0
O908 O 0.11483 0.3158 0.47332 0.0
C909 C 0.26361 0.4001 0.47288 0.0
O910 O 0.23873 0.44843 0.46878 0.0
N911 N 0.09978 0.41512 0.43522 0.0
C912 C 1.04299 0.45117 0.3698 0.0
C913 C 1.04249 0.39556 0.37995 0.0
C914 C 0.07198 0.37828 0.41171 0.0
C915 C 0.09839 0.47067 0.42679 0.0
C916 C 0.06915 0.48996 0.3941 0.0
H917 H 0.07819 0.33407 0.41334 0.0
H918 H 0.12442 0.49927 0.44279 0.0
H919 H 0.16885 0.27796 0.39901 0.0
H920 H 0.24844 0.39898 0.33098 0.0
H921 H 0.09785 0.48524 0.58412 0.0
H922 H 1.02238 0.36491 0.36165 0.0
H923 H 0.06966 0.5337 0.38665 0.0
C924 C 0.43729 0.62446 0.30186 0.0
C925 C 0.46134 0.60673 0.33555 0.0
N926 N 0.51492 0.62221 0.3351 0.0
N927 N 0.47542 0.65077 0.27971 0.0
C928 C 0.52266 0.64833 0.30061 0.0
H929 H 0.39369 0.62068 0.29472 0.0
Co930 Co 0.45342 0.67605 0.2309 0.0
C931 C 0.51975 0.77533 0.20577 0.0
O932 O 0.47125 0.798 0.19834 0.0
N933 N 0.42863 0.69602 0.18027 0.0
C934 C 0.38427 0.72291 0.12643 0.0
C935 C 0.38367 0.7237 0.16661 0.0
C936 C 0.45539 0.67843 0.14778 0.0
N937 N 0.4293 0.694 0.11496 0.0
O938 O 0.4811 0.60534 0.21164 0.0
H939 H 0.35201 0.74287 0.18433 0.0
H940 H 0.49338 0.65433 0.14813 0.0
O941 O 0.5227 0.72369 0.21813 0.0
C942 C 0.43844 0.57489 0.21859 0.0
O943 O 0.39011 0.59977 0.22269 0.0
N944 N 0.42338 0.73872 0.25624 0.0
C945 C 0.38733 0.79547 0.32167 0.0
C946 C 0.44293 0.796 0.31152 0.0
C947 C 0.46022 0.76653 0.27975 0.0
C948 C 0.36784 0.74008 0.26467 0.0
C949 C 0.34854 0.7693 0.29737 0.0
H950 H 0.50443 0.76033 0.27811 0.0
H951 H 0.33924 0.71406 0.24867 0.0
H952 H 0.56058 0.66967 0.29245 0.0
H953 H 0.43957 0.59003 0.36047 0.0
H954 H 0.35328 0.74063 0.10733 0.0
H955 H 0.47358 0.81611 0.32982 0.0
H956 H 0.30481 0.76879 0.30483 0.0
C957 C 0.21403 0.68728 0.05187 0.0
C958 C 0.23175 0.71132 0.08556 0.0
N959 N 0.21628 0.7649 0.0851 0.0
N960 N 0.18774 0.72541 0.02971 0.0
C961 C 0.19019 0.77265 0.05061 0.0
H962 H 0.2178 0.64367 0.04472 0.0
Co963 Co 0.16245 0.70343 -0.0191 0.0
C964 C 0.0632 0.7698 0.95579 0.0
O965 O 1.04052 0.72131 0.94835 0.0
N966 N 0.14248 0.67866 0.93027 0.0
C967 C 0.11557 0.63431 0.87643 0.0
C968 C 0.11477 0.63371 0.91661 0.0
C969 C 0.16007 0.70542 0.89779 0.0
N970 N 0.14449 0.67933 0.86496 0.0
O971 O 0.23316 0.7311 0.96164 0.0
H972 H 0.09559 0.60206 0.93433 0.0
H973 H 0.18419 0.74339 0.89813 0.0
O974 O 0.11483 0.77274 0.96814 0.0
C975 C 0.26362 0.68844 0.96859 0.0
O976 O 0.23873 0.64011 -0.02731 0.0
N977 N 0.09978 0.67341 0.00624 0.0
C978 C 1.04299 0.63736 0.07165 0.0
C979 C 1.04248 0.69297 0.06151 0.0
C980 C 0.07198 0.71025 0.02975 0.0
C981 C 0.09839 0.61786 0.01467 0.0
C982 C 0.06915 0.59857 0.04736 0.0
H983 H 0.07819 0.75446 0.02813 0.0
H984 H 0.12441 0.58926 -0.00133 0.0
H985 H 0.16885 0.81058 0.04245 0.0
H986 H 0.24843 0.68954 0.11049 0.0
H987 H 0.09783 0.60332 0.85733 0.0
H988 H 1.02238 0.72362 0.07981 0.0
H989 H 0.06965 0.55483 0.05481 0.0
C990 C 0.15118 0.46408 0.80186 0.0
C991 C 0.12714 0.4818 0.83555 0.0
N992 N 0.07356 0.46632 0.8351 0.0
N993 N 0.11306 0.43777 0.77971 0.0
C994 C 0.06582 0.44021 0.80061 0.0
H995 H 0.19478 0.46786 0.79472 0.0
Co996 Co 0.13505 0.41248 0.7309 0.0
C997 C 0.06872 0.31321 0.70577 0.0
O998 O 0.11722 0.29054 0.69834 0.0
N999 N 0.15984 0.39252 0.68027 0.0
C1000 C 0.2042 0.36563 0.62643 0.0
C1001 C 0.2048 0.36483 0.66661 0.0
C1002 C 0.13308 0.4101 0.64778 0.0
N1003 N 0.15917 0.39453 0.61496 0.0
O1004 O 0.10737 0.48319 0.71164 0.0
H1005 H 0.23646 0.34566 0.68433 0.0
H1006 H 0.0951 0.4342 0.64813 0.0
O1007 O 0.06577 0.36484 0.71813 0.0
C1008 C 0.15004 0.51365 0.71859 0.0
O1009 O 0.19837 0.48876 0.72269 0.0
N1010 N 0.16509 0.34982 0.75624 0.0
C1011 C 0.20115 0.29307 0.82167 0.0
C1012 C 0.14554 0.29253 0.81152 0.0
C1013 C 0.12825 0.32201 0.77975 0.0
C1014 C 0.22063 0.34845 0.76467 0.0
C1015 C 0.23993 0.31923 0.79737 0.0
H1016 H 0.08404 0.3282 0.77811 0.0
H1017 H 0.24923 0.37448 0.74867 0.0
H1018 H 1.02789 0.41886 0.79245 0.0
H1019 H 0.1489 0.49851 0.86047 0.0
H1020 H 0.2352 0.3479 0.60733 0.0
H1021 H 0.11489 0.27242 0.82982 0.0
H1022 H 0.28367 0.31975 0.80483 0.0
C1023 C 0.37444 0.40125 0.55187 0.0
C1024 C 0.35672 0.37722 0.58556 0.0
N1025 N 0.37219 0.32363 0.5851 0.0
N1026 N 0.40073 0.36312 0.52971 0.0
C1027 C 0.39829 0.31588 0.55061 0.0
H1028 H 0.37067 0.44486 0.54472 0.0
Co1029 Co 0.42602 0.3851 0.4809 0.0
C1030 C 0.52528 0.31873 0.45579 0.0
O1031 O 0.54796 0.36722 0.44835 0.0
N1032 N 0.446 0.40987 0.43027 0.0
C1033 C 0.4729 0.45422 0.37643 0.0
C1034 C 0.4737 0.45482 0.41661 0.0
C1035 C 0.4284 0.38312 0.39779 0.0
N1036 N 0.44398 0.4092 0.36496 0.0
O1037 O 0.35531 0.35743 0.46164 0.0
H1038 H 0.49288 0.48647 0.43433 0.0
H1039 H 0.40428 0.34514 0.39813 0.0
O1040 O 0.47364 0.3158 0.46814 0.0
C1041 C 0.32486 0.4001 0.46859 0.0
O1042 O 0.34974 0.44843 0.47269 0.0
N1043 N 0.4887 0.41512 0.50624 0.0
C1044 C 0.54549 0.45118 0.57165 0.0
C1045 C 0.54599 0.39557 0.56151 0.0
C1046 C 0.5165 0.37828 0.52975 0.0
C1047 C 0.49009 0.47067 0.51467 0.0
C1048 C 0.51933 0.48996 0.54736 0.0
H1049 H 0.51028 0.33407 0.52813 0.0
H1050 H 0.46407 0.49927 0.49867 0.0
H1051 H 0.41962 0.27795 0.54245 0.0
H1052 H 0.34004 0.39899 0.61049 0.0
H1053 H 0.49064 0.48521 0.35733 0.0
H1054 H 0.5661 0.36491 0.57981 0.0
H1055 H 0.51883 0.5337 0.55481 0.0
loop_
_geom_bond_atom_site_label_1
_geom_bond_atom_site_label_2
_geom_bond_distance
_geom_bond_site_symmetry_2
_ccdc_geom_bond_type
C0 C1 1.351 1_455 S
C0 N3 1.363 1_455 S
C0 H5 0.931 . S
C1 C0 1.351 1_655 S
C1 N2 1.373 . S
C1 H29 0.930 . S
N2 C1 1.373 . S
N2 C4 1.340 . S
N3 C0 1.363 1_655 S
N3 C4 1.336 . S
N3 Co6 2.124 1_655 S
C4 N2 1.340 . S
C4 N3 1.336 . S
C4 H28 0.930 . S
H5 C0 0.931 . S
Co6 N3 2.124 1_455 S
Co6 N9 2.121 . S
Co6 O14 2.055 . S
Co6 O17 2.039 1_455 S
Co6 N20 2.140 . S
C7 O8 1.227 1_655 S
C7 O17 1.265 . S
O8 C7 1.227 1_455 S
N9 Co6 2.121 . S
N9 C11 1.375 . S
N9 C12 1.313 . S
C10 C11 1.338 . S
C10 N13 1.377 . S
C10 H30 0.930 . S
C11 N9 1.375 . S
C11 C10 1.338 . S
C11 H15 0.931 . S
C12 N9 1.313 . S
C12 N13 1.344 . S
C12 H16 0.930 . S
N13 C10 1.377 . S
N13 C12 1.344 . S
O14 Co6 2.055 . S
O14 C18 1.253 . S
H15 C11 0.931 . S
H16 C12 0.930 . S
O17 Co6 2.039 1_655 S
O17 C7 1.265 . S
C18 O14 1.253 . S
C18 O19 1.227 . S
O19 C18 1.227 . S
N20 Co6 2.140 . S
N20 C23 1.346 . S
N20 C24 1.345 . S
C21 C22 1.387 . S
C21 C25 1.391 . S
C22 C21 1.387 . S
C22 C23 1.369 . S
C22 H31 0.929 . S
C23 N20 1.346 . S
C23 C22 1.369 . S
C23 H26 0.928 . S
C24 N20 1.345 . S
C24 C25 1.371 . S
C24 H27 0.931 . S
C25 C21 1.391 . S
C25 C24 1.371 . S
C25 H32 0.930 . S
H26 C23 0.928 . S
H27 C24 0.931 . S
H28 C4 0.930 . S
H29 C1 0.930 . S
H30 C10 0.930 . S
H31 C22 0.929 . S
H32 C25 0.930 . S
C33 C34 1.351 . S
C33 N36 1.368 . S
C33 H38 0.931 . S
C34 C33 1.351 . S
C34 N35 1.373 . S
C34 H62 0.930 . S
N35 C34 1.373 . S
N35 C37 1.340 . S
N36 C33 1.368 . S
N36 C37 1.321 . S
N36 Co39 2.135 . S
C37 N35 1.340 . S
C37 N36 1.321 . S
C37 H61 0.930 . S
H38 C33 0.931 . S
Co39 N36 2.135 . S
Co39 N42 2.121 . S
Co39 O47 2.055 . S
Co39 O50 2.039 . S
Co39 N53 2.140 . S
C40 O41 1.227 . S
C40 O50 1.265 . S
O41 C40 1.227 . S
N42 Co39 2.121 . S
N42 C44 1.375 . S
N42 C45 1.313 . S
C43 C44 1.338 . S
C43 N46 1.377 . S
C43 H63 0.930 . S
C44 N42 1.375 . S
C44 C43 1.338 . S
C44 H48 0.931 . S
C45 N42 1.313 . S
C45 N46 1.344 . S
C45 H49 0.930 . S
N46 C43 1.377 . S
N46 C45 1.344 . S
O47 Co39 2.055 . S
O47 C51 1.253 . S
H48 C44 0.931 . S
H49 C45 0.930 . S
O50 Co39 2.039 . S
O50 C40 1.265 . S
C51 O47 1.253 . S
C51 O52 1.227 . S
O52 C51 1.227 . S
N53 Co39 2.140 . S
N53 C56 1.346 . S
N53 C57 1.345 . S
C54 C55 1.387 . S
C54 C58 1.391 . S
C55 C54 1.387 . S
C55 C56 1.369 . S
C55 H64 0.929 . S
C56 N53 1.346 . S
C56 C55 1.369 . S
C56 H59 0.928 . S
C57 N53 1.345 . S
C57 C58 1.371 . S
C57 H60 0.931 . S
C58 C54 1.391 . S
C58 C57 1.371 . S
C58 H65 0.930 . S
H59 C56 0.928 . S
H60 C57 0.931 . S
H61 C37 0.930 . S
H62 C34 0.930 . S
H63 C43 0.930 . S
H64 C55 0.929 . S
H65 C58 0.930 . S
C66 C67 1.351 . S
C66 N69 1.368 . S
C66 H71 0.931 . S
C67 C66 1.351 . S
C67 N68 1.373 . S
C67 H95 0.930 . S
N68 C67 1.373 . S
N68 C70 1.340 . S
N69 C66 1.368 . S
N69 C70 1.321 . S
N69 Co72 2.135 . S
C70 N68 1.340 . S
C70 N69 1.321 . S
C70 H94 0.930 . S
H71 C66 0.931 . S
Co72 N69 2.135 . S
Co72 N75 2.121 . S
Co72 O80 2.055 . S
Co72 O83 2.039 . S
Co72 N86 2.140 . S
C73 O74 1.227 . S
C73 O83 1.265 . S
O74 C73 1.227 . S
N75 Co72 2.121 . S
N75 C77 1.375 . S
N75 C78 1.313 . S
C76 C77 1.338 . S
C76 N79 1.377 . S
C76 H96 0.930 . S
C77 N75 1.375 . S
C77 C76 1.338 . S
C77 H81 0.931 . S
C78 N75 1.313 . S
C78 N79 1.344 . S
C78 H82 0.930 . S
N79 C76 1.377 . S
N79 C78 1.344 . S
O80 Co72 2.055 . S
O80 C84 1.253 . S
H81 C77 0.931 . S
H82 C78 0.930 . S
O83 Co72 2.039 . S
O83 C73 1.265 . S
C84 O80 1.253 . S
C84 O85 1.227 . S
O85 C84 1.227 . S
N86 Co72 2.140 . S
N86 C89 1.346 . S
N86 C90 1.345 . S
C87 C88 1.387 . S
C87 C91 1.391 . S
C88 C87 1.387 . S
C88 C89 1.369 . S
C88 H97 0.929 . S
C89 N86 1.346 . S
C89 C88 1.369 . S
C89 H92 0.928 . S
C90 N86 1.345 . S
C90 C91 1.371 . S
C90 H93 0.931 . S
C91 C87 1.391 . S
C91 C90 1.371 . S
C91 H98 0.930 . S
H92 C89 0.928 . S
H93 C90 0.931 . S
H94 C70 0.930 . S
H95 C67 0.930 . S
H96 C76 0.930 . S
H97 C88 0.929 . S
H98 C91 0.930 . S
C99 C100 1.351 . S
C99 N102 1.368 . S
C99 H104 0.931 . S
C100 C99 1.351 . S
C100 N101 1.373 . S
C100 H128 0.930 . S
N101 C100 1.373 . S
N101 C103 1.340 . S
N102 C99 1.368 . S
N102 C103 1.321 . S
N102 Co105 2.135 . S
C103 N101 1.340 . S
C103 N102 1.321 . S
C103 H127 0.930 . S
H104 C99 0.931 . S
Co105 N102 2.135 . S
Co105 N108 2.121 1_554 S
Co105 O113 2.055 1_554 S
Co105 O116 2.039 1_554 S
Co105 N119 2.140 . S
C106 O107 1.227 . S
C106 O116 1.265 1_554 S
O107 C106 1.227 . S
N108 Co105 2.121 1_556 S
N108 C110 1.375 . S
N108 C111 1.313 . S
C109 C110 1.338 . S
C109 N112 1.377 . S
C109 H129 0.930 . S
C110 N108 1.375 . S
C110 C109 1.338 . S
C110 H114 0.931 . S
C111 N108 1.313 . S
C111 N112 1.344 . S
C111 H115 0.930 . S
N112 C109 1.377 . S
N112 C111 1.344 . S
O113 Co105 2.055 1_556 S
O113 C117 1.253 . S
H114 C110 0.931 . S
H115 C111 0.930 . S
O116 Co105 2.039 1_556 S
O116 C106 1.265 1_556 S
C117 O113 1.253 . S
C117 O118 1.227 1_556 S
O118 C117 1.227 1_554 S
N119 Co105 2.140 . S
N119 C122 1.346 . S
N119 C123 1.345 . S
C120 C121 1.387 . S
C120 C124 1.391 . S
C121 C120 1.387 . S
C121 C122 1.369 . S
C121 H130 0.929 . S
C122 N119 1.346 . S
C122 C121 1.369 . S
C122 H125 0.928 . S
C123 N119 1.345 . S
C123 C124 1.371 . S
C123 H126 0.931 . S
C124 C120 1.391 . S
C124 C123 1.371 . S
C124 H131 0.930 . S
H125 C122 0.928 . S
H126 C123 0.931 . S
H127 C103 0.930 . S
H128 C100 0.930 . S
H129 C109 0.930 . S
H130 C121 0.929 . S
H131 C124 0.930 . S
C132 C133 1.351 1_455 S
C132 N135 1.363 1_455 S
C132 H137 0.931 . S
C133 C132 1.351 1_655 S
C133 N134 1.373 . S
C133 H161 0.930 . S
N134 C133 1.373 . S
N134 C136 1.340 . S
N135 C132 1.363 1_655 S
N135 C136 1.337 . S
N135 Co138 2.123 1_655 S
C136 N134 1.340 . S
C136 N135 1.337 . S
C136 H160 0.930 . S
H137 C132 0.931 . S
Co138 N135 2.123 1_455 S
Co138 N141 2.121 . S
Co138 O146 2.055 . S
Co138 O149 2.039 1_455 S
Co138 N152 2.140 . S
C139 O140 1.227 1_655 S
C139 O149 1.265 . S
O140 C139 1.227 1_455 S
N141 Co138 2.121 . S
N141 C143 1.375 . S
N141 C144 1.313 . S
C142 C143 1.338 . S
C142 N145 1.377 . S
C142 H162 0.930 . S
C143 N141 1.375 . S
C143 C142 1.338 . S
C143 H147 0.931 . S
C144 N141 1.313 . S
C144 N145 1.344 . S
C144 H148 0.930 . S
N145 C142 1.377 . S
N145 C144 1.344 . S
O146 Co138 2.055 . S
O146 C150 1.253 . S
H147 C143 0.931 . S
H148 C144 0.930 . S
O149 Co138 2.039 1_655 S
O149 C139 1.265 . S
C150 O146 1.253 . S
C150 O151 1.227 . S
O151 C150 1.227 . S
N152 Co138 2.140 . S
N152 C155 1.346 . S
N152 C156 1.345 . S
C153 C154 1.387 . S
C153 C157 1.391 . S
C154 C153 1.387 . S
C154 C155 1.369 . S
C154 H163 0.929 . S
C155 N152 1.346 . S
C155 C154 1.369 . S
C155 H158 0.928 . S
C156 N152 1.345 . S
C156 C157 1.371 . S
C156 H159 0.931 . S
C157 C153 1.391 . S
C157 C156 1.371 . S
C157 H164 0.930 . S
H158 C155 0.928 . S
H159 C156 0.931 . S
H160 C136 0.930 . S
H161 C133 0.930 . S
H162 C142 0.930 . S
H163 C154 0.929 . S
H164 C157 0.930 . S
C165 C166 1.351 . S
C165 N168 1.368 . S
C165 H170 0.931 . S
C166 C165 1.351 . S
C166 N167 1.373 . S
C166 H194 0.930 . S
N167 C166 1.373 . S
N167 C169 1.340 . S
N168 C165 1.368 . S
N168 C169 1.321 . S
N168 Co171 2.135 . S
C169 N167 1.340 . S
C169 N168 1.321 . S
C169 H193 0.930 . S
H170 C165 0.931 . S
Co171 N168 2.135 . S
Co171 N174 2.121 . S
Co171 O179 2.055 . S
Co171 O182 2.039 . S
Co171 N185 2.140 . S
C172 O173 1.227 . S
C172 O182 1.265 . S
O173 C172 1.227 . S
N174 Co171 2.121 . S
N174 C176 1.375 . S
N174 C177 1.313 . S
C175 C176 1.338 . S
C175 N178 1.377 . S
C175 H195 0.930 . S
C176 N174 1.375 . S
C176 C175 1.338 . S
C176 H180 0.931 . S
C177 N174 1.313 . S
C177 N178 1.344 . S
C177 H181 0.930 . S
N178 C175 1.377 . S
N178 C177 1.344 . S
O179 Co171 2.055 . S
O179 C183 1.253 . S
H180 C176 0.931 . S
H181 C177 0.930 . S
O182 Co171 2.039 . S
O182 C172 1.265 . S
C183 O179 1.253 . S
C183 O184 1.227 . S
O184 C183 1.227 . S
N185 Co171 2.140 . S
N185 C188 1.346 . S
N185 C189 1.345 . S
C186 C187 1.387 . S
C186 C190 1.391 . S
C187 C186 1.387 . S
C187 C188 1.369 . S
C187 H196 0.929 . S
C188 N185 1.346 . S
C188 C187 1.369 . S
C188 H191 0.928 . S
C189 N185 1.345 . S
C189 C190 1.371 . S
C189 H192 0.931 . S
C190 C186 1.391 . S
C190 C189 1.371 . S
C190 H197 0.930 . S
H191 C188 0.928 . S
H192 C189 0.931 . S
H193 C169 0.930 . S
H194 C166 0.930 . S
H195 C175 0.930 . S
H196 C187 0.929 . S
H197 C190 0.930 . S
C198 C199 1.351 . S
C198 N201 1.368 . S
C198 H203 0.931 . S
C199 C198 1.351 . S
C199 N200 1.373 . S
C199 H227 0.930 . S
N200 C199 1.373 . S
N200 C202 1.340 . S
N201 C198 1.368 . S
N201 C202 1.321 . S
N201 Co204 2.135 . S
C202 N200 1.340 . S
C202 N201 1.321 . S
C202 H226 0.930 . S
H203 C198 0.931 . S
Co204 N201 2.135 . S
Co204 N207 2.121 . S
Co204 O212 2.055 . S
Co204 O215 2.039 . S
Co204 N218 2.140 . S
C205 O206 1.227 . S
C205 O215 1.265 . S
O206 C205 1.227 . S
N207 Co204 2.121 . S
N207 C209 1.375 . S
N207 C210 1.313 . S
C208 C209 1.338 . S
C208 N211 1.377 . S
C208 H228 0.930 . S
C209 N207 1.375 . S
C209 C208 1.338 . S
C209 H213 0.931 . S
C210 N207 1.313 . S
C210 N211 1.344 . S
C210 H214 0.930 . S
N211 C208 1.377 . S
N211 C210 1.344 . S
O212 Co204 2.055 . S
O212 C216 1.253 . S
H213 C209 0.931 . S
H214 C210 0.930 . S
O215 Co204 2.039 . S
O215 C205 1.265 . S
C216 O212 1.253 . S
C216 O217 1.227 . S
O217 C216 1.227 . S
N218 Co204 2.140 . S
N218 C221 1.346 . S
N218 C222 1.345 . S
C219 C220 1.387 . S
C219 C223 1.391 . S
C220 C219 1.387 . S
C220 C221 1.369 . S
C220 H229 0.929 . S
C221 N218 1.346 . S
C221 C220 1.369 . S
C221 H224 0.928 . S
C222 N218 1.345 . S
C222 C223 1.371 . S
C222 H225 0.931 . S
C223 C219 1.391 . S
C223 C222 1.371 . S
C223 H230 0.930 . S
H224 C221 0.928 . S
H225 C222 0.931 . S
H226 C202 0.930 . S
H227 C199 0.930 . S
H228 C208 0.930 . S
H229 C220 0.929 . S
H230 C223 0.930 . S
C231 C232 1.351 . S
C231 N234 1.368 . S
C231 H236 0.931 . S
C232 C231 1.351 . S
C232 N233 1.373 . S
C232 H260 0.930 . S
N233 C232 1.373 . S
N233 C235 1.340 . S
N234 C231 1.368 . S
N234 C235 1.321 . S
N234 Co237 2.135 . S
C235 N233 1.340 . S
C235 N234 1.321 . S
C235 H259 0.930 . S
H236 C231 0.931 . S
Co237 N234 2.135 . S
Co237 N240 2.121 1_556 S
Co237 O245 2.055 1_556 S
Co237 O248 2.039 1_556 S
Co237 N251 2.140 . S
C238 O239 1.227 . S
C238 O248 1.265 1_556 S
O239 C238 1.227 . S
N240 Co237 2.121 1_554 S
N240 C242 1.375 . S
N240 C243 1.313 . S
C241 C242 1.338 . S
C241 N244 1.377 . S
C241 H261 0.930 . S
C242 N240 1.375 . S
C242 C241 1.338 . S
C242 H246 0.931 . S
C243 N240 1.313 . S
C243 N244 1.344 . S
C243 H247 0.930 . S
N244 C241 1.377 . S
N244 C243 1.344 . S
O245 Co237 2.055 1_554 S
O245 C249 1.253 . S
H246 C242 0.931 . S
H247 C243 0.930 . S
O248 Co237 2.039 1_554 S
O248 C238 1.265 1_554 S
C249 O245 1.253 . S
C249 O250 1.227 1_554 S
O250 C249 1.227 1_556 S
N251 Co237 2.140 . S
N251 C254 1.346 . S
N251 C255 1.345 . S
C252 C253 1.387 . S
C252 C256 1.391 . S
C253 C252 1.387 . S
C253 C254 1.369 . S
C253 H262 0.929 . S
C254 N251 1.346 . S
C254 C253 1.369 . S
C254 H257 0.928 . S
C255 N251 1.345 . S
C255 C256 1.371 . S
C255 H258 0.931 . S
C256 C252 1.391 . S
C256 C255 1.371 . S
C256 H263 0.930 . S
H257 C254 0.928 . S
H258 C255 0.931 . S
H259 C235 0.930 . S
H260 C232 0.930 . S
H261 C241 0.930 . S
H262 C253 0.929 . S
H263 C256 0.930 . S
C264 C265 1.351 1_655 S
C264 N267 1.363 1_655 S
C264 H269 0.931 . S
C265 C264 1.351 1_455 S
C265 N266 1.373 . S
C265 H293 0.930 . S
N266 C265 1.373 . S
N266 C268 1.340 . S
N267 C264 1.363 1_455 S
N267 C268 1.336 . S
N267 Co270 2.124 1_455 S
C268 N266 1.340 . S
C268 N267 1.336 . S
C268 H292 0.930 . S
H269 C264 0.931 . S
Co270 N267 2.124 1_655 S
Co270 N273 2.121 . S
Co270 O278 2.055 . S
Co270 O281 2.039 1_655 S
Co270 N284 2.140 . S
C271 O272 1.227 1_455 S
C271 O281 1.265 . S
O272 C271 1.227 1_655 S
N273 Co270 2.121 . S
N273 C275 1.375 . S
N273 C276 1.313 . S
C274 C275 1.338 . S
C274 N277 1.377 . S
C274 H294 0.930 . S
C275 N273 1.375 . S
C275 C274 1.338 . S
C275 H279 0.931 . S
C276 N273 1.313 . S
C276 N277 1.344 . S
C276 H280 0.930 . S
N277 C274 1.377 . S
N277 C276 1.344 . S
O278 Co270 2.055 . S
O278 C282 1.253 . S
H279 C275 0.931 . S
H280 C276 0.930 . S
O281 Co270 2.039 1_455 S
O281 C271 1.265 . S
C282 O278 1.253 . S
C282 O283 1.227 . S
O283 C282 1.227 . S
N284 Co270 2.140 . S
N284 C287 1.346 . S
N284 C288 1.345 . S
C285 C286 1.387 . S
C285 C289 1.391 . S
C286 C285 1.387 . S
C286 C287 1.369 . S
C286 H295 0.929 . S
C287 N284 1.346 . S
C287 C286 1.369 . S
C287 H290 0.928 . S
C288 N284 1.345 . S
C288 C289 1.371 . S
C288 H291 0.931 . S
C289 C285 1.391 . S
C289 C288 1.371 . S
C289 H296 0.930 . S
H290 C287 0.928 . S
H291 C288 0.931 . S
H292 C268 0.930 . S
H293 C265 0.930 . S
H294 C274 0.930 . S
H295 C286 0.929 . S
H296 C289 0.930 . S
C297 C298 1.351 . S
C297 N300 1.368 . S
C297 H302 0.931 . S
C298 C297 1.351 . S
C298 N299 1.373 . S
C298 H326 0.930 . S
N299 C298 1.373 . S
N299 C301 1.340 . S
N300 C297 1.368 . S
N300 C301 1.321 . S
N300 Co303 2.135 . S
C301 N299 1.340 . S
C301 N300 1.321 . S
C301 H325 0.930 . S
H302 C297 0.931 . S
Co303 N300 2.135 . S
Co303 N306 2.121 . S
Co303 O311 2.055 . S
Co303 O314 2.039 . S
Co303 N317 2.140 . S
C304 O305 1.227 . S
C304 O314 1.265 . S
O305 C304 1.227 . S
N306 Co303 2.121 . S
N306 C308 1.375 . S
N306 C309 1.313 . S
C307 C308 1.338 . S
C307 N310 1.377 . S
C307 H327 0.930 . S
C308 N306 1.375 . S
C308 C307 1.338 . S
C308 H312 0.931 . S
C309 N306 1.313 . S
C309 N310 1.344 . S
C309 H313 0.930 . S
N310 C307 1.377 . S
N310 C309 1.344 . S
O311 Co303 2.055 . S
O311 C315 1.253 . S
H312 C308 0.931 . S
H313 C309 0.930 . S
O314 Co303 2.039 . S
O314 C304 1.265 . S
C315 O311 1.253 . S
C315 O316 1.227 . S
O316 C315 1.227 . S
N317 Co303 2.140 . S
N317 C320 1.346 . S
N317 C321 1.345 . S
C318 C319 1.387 . S
C318 C322 1.391 . S
C319 C318 1.387 . S
C319 C320 1.369 . S
C319 H328 0.929 . S
C320 N317 1.346 . S
C320 C319 1.369 . S
C320 H323 0.928 . S
C321 N317 1.345 . S
C321 C322 1.371 . S
C321 H324 0.931 . S
C322 C318 1.391 . S
C322 C321 1.371 . S
C322 H329 0.930 . S
H323 C320 0.928 . S
H324 C321 0.931 . S
H325 C301 0.930 . S
H326 C298 0.930 . S
H327 C307 0.930 . S
H328 C319 0.929 . S
H329 C322 0.930 . S
C330 C331 1.351 . S
C330 N333 1.368 . S
C330 H335 0.931 . S
C331 C330 1.351 . S
C331 N332 1.373 . S
C331 H359 0.930 . S
N332 C331 1.373 . S
N332 C334 1.340 . S
N333 C330 1.368 . S
N333 C334 1.321 . S
N333 Co336 2.135 . S
C334 N332 1.340 . S
C334 N333 1.321 . S
C334 H358 0.930 . S
H335 C330 0.931 . S
Co336 N333 2.135 . S
Co336 N339 2.121 . S
Co336 O344 2.055 . S
Co336 O347 2.039 . S
Co336 N350 2.140 . S
C337 O338 1.227 . S
C337 O347 1.265 . S
O338 C337 1.227 . S
N339 Co336 2.121 . S
N339 C341 1.375 . S
N339 C342 1.313 . S
C340 C341 1.338 . S
C340 N343 1.377 . S
C340 H360 0.930 . S
C341 N339 1.375 . S
C341 C340 1.338 . S
C341 H345 0.931 . S
C342 N339 1.313 . S
C342 N343 1.344 . S
C342 H346 0.930 . S
N343 C340 1.377 . S
N343 C342 1.344 . S
O344 Co336 2.055 . S
O344 C348 1.253 . S
H345 C341 0.931 . S
H346 C342 0.930 . S
O347 Co336 2.039 . S
O347 C337 1.265 . S
C348 O344 1.253 . S
C348 O349 1.227 . S
O349 C348 1.227 . S
N350 Co336 2.140 . S
N350 C353 1.346 . S
N350 C354 1.345 . S
C351 C352 1.387 . S
C351 C355 1.391 . S
C352 C351 1.387 . S
C352 C353 1.369 . S
C352 H361 0.929 . S
C353 N350 1.346 . S
C353 C352 1.369 . S
C353 H356 0.928 . S
C354 N350 1.345 . S
C354 C355 1.371 . S
C354 H357 0.931 . S
C355 C351 1.391 . S
C355 C354 1.371 . S
C355 H362 0.930 . S
H356 C353 0.928 . S
H357 C354 0.931 . S
H358 C334 0.930 . S
H359 C331 0.930 . S
H360 C340 0.930 . S
H361 C352 0.929 . S
H362 C355 0.930 . S
C363 C364 1.351 . S
C363 N366 1.368 . S
C363 H368 0.931 . S
C364 C363 1.351 . S
C364 N365 1.373 . S
C364 H392 0.930 . S
N365 C364 1.373 . S
N365 C367 1.340 . S
N366 C363 1.368 . S
N366 C367 1.321 . S
N366 Co369 2.135 . S
C367 N365 1.340 . S
C367 N366 1.321 . S
C367 H391 0.930 . S
H368 C363 0.931 . S
Co369 N366 2.135 . S
Co369 N372 2.121 1_556 S
Co369 O377 2.055 1_556 S
Co369 O380 2.039 1_556 S
Co369 N383 2.140 . S
C370 O371 1.227 . S
C370 O380 1.265 1_556 S
O371 C370 1.227 . S
N372 Co369 2.121 1_554 S
N372 C374 1.375 . S
N372 C375 1.313 . S
C373 C374 1.338 . S
C373 N376 1.377 . S
C373 H393 0.930 . S
C374 N372 1.375 . S
C374 C373 1.338 . S
C374 H378 0.931 . S
C375 N372 1.313 . S
C375 N376 1.344 . S
C375 H379 0.930 . S
N376 C373 1.377 . S
N376 C375 1.344 . S
O377 Co369 2.055 1_554 S
O377 C381 1.253 . S
H378 C374 0.931 . S
H379 C375 0.930 . S
O380 Co369 2.039 1_554 S
O380 C370 1.265 1_554 S
C381 O377 1.253 . S
C381 O382 1.227 1_554 S
O382 C381 1.227 1_556 S
N383 Co369 2.140 . S
N383 C386 1.346 . S
N383 C387 1.345 . S
C384 C385 1.387 . S
C384 C388 1.391 . S
C385 C384 1.387 . S
C385 C386 1.369 . S
C385 H394 0.929 . S
C386 N383 1.346 . S
C386 C385 1.369 . S
C386 H389 0.928 . S
C387 N383 1.345 . S
C387 C388 1.371 . S
C387 H390 0.931 . S
C388 C384 1.391 . S
C388 C387 1.371 . S
C388 H395 0.930 . S
H389 C386 0.928 . S
H390 C387 0.931 . S
H391 C367 0.930 . S
H392 C364 0.930 . S
H393 C373 0.930 . S
H394 C385 0.929 . S
H395 C388 0.930 . S
C396 C397 1.351 1_655 S
C396 N399 1.363 1_655 S
C396 H401 0.931 . S
C397 C396 1.351 1_455 S
C397 N398 1.373 . S
C397 H425 0.930 . S
N398 C397 1.373 . S
N398 C400 1.340 . S
N399 C396 1.363 1_455 S
N399 C400 1.337 . S
N399 Co402 2.123 1_455 S
C400 N398 1.340 . S
C400 N399 1.337 . S
C400 H424 0.930 . S
H401 C396 0.931 . S
Co402 N399 2.123 1_655 S
Co402 N405 2.121 . S
Co402 O410 2.055 . S
Co402 O413 2.039 1_655 S
Co402 N416 2.140 . S
C403 O404 1.227 1_455 S
C403 O413 1.265 . S
O404 C403 1.227 1_655 S
N405 Co402 2.121 . S
N405 C407 1.375 . S
N405 C408 1.313 . S
C406 C407 1.338 . S
C406 N409 1.377 . S
C406 H426 0.930 . S
C407 N405 1.375 . S
C407 C406 1.338 . S
C407 H411 0.931 . S
C408 N405 1.313 . S
C408 N409 1.344 . S
C408 H412 0.930 . S
N409 C406 1.377 . S
N409 C408 1.344 . S
O410 Co402 2.055 . S
O410 C414 1.253 . S
H411 C407 0.931 . S
H412 C408 0.930 . S
O413 Co402 2.039 1_455 S
O413 C403 1.265 . S
C414 O410 1.253 . S
C414 O415 1.227 . S
O415 C414 1.227 . S
N416 Co402 2.140 . S
N416 C419 1.346 . S
N416 C420 1.345 . S
C417 C418 1.387 . S
C417 C421 1.391 . S
C418 C417 1.387 . S
C418 C419 1.369 . S
C418 H427 0.929 . S
C419 N416 1.346 . S
C419 C418 1.369 . S
C419 H422 0.928 . S
C420 N416 1.345 . S
C420 C421 1.371 . S
C420 H423 0.931 . S
C421 C417 1.391 . S
C421 C420 1.371 . S
C421 H428 0.930 . S
H422 C419 0.928 . S
H423 C420 0.931 . S
H424 C400 0.930 . S
H425 C397 0.930 . S
H426 C406 0.930 . S
H427 C418 0.929 . S
H428 C421 0.930 . S
C429 C430 1.351 . S
C429 N432 1.368 . S
C429 H434 0.931 . S
C430 C429 1.351 . S
C430 N431 1.373 . S
C430 H458 0.930 . S
N431 C430 1.373 . S
N431 C433 1.340 . S
N432 C429 1.368 . S
N432 C433 1.321 . S
N432 Co435 2.135 . S
C433 N431 1.340 . S
C433 N432 1.321 . S
C433 H457 0.930 . S
H434 C429 0.931 . S
Co435 N432 2.135 . S
Co435 N438 2.121 . S
Co435 O443 2.055 . S
Co435 O446 2.039 . S
Co435 N449 2.140 . S
C436 O437 1.227 . S
C436 O446 1.265 . S
O437 C436 1.227 . S
N438 Co435 2.121 . S
N438 C440 1.375 . S
N438 C441 1.313 . S
C439 C440 1.338 . S
C439 N442 1.377 . S
C439 H459 0.930 . S
C440 N438 1.375 . S
C440 C439 1.338 . S
C440 H444 0.931 . S
C441 N438 1.313 . S
C441 N442 1.344 . S
C441 H445 0.930 . S
N442 C439 1.377 . S
N442 C441 1.344 . S
O443 Co435 2.055 . S
O443 C447 1.253 . S
H444 C440 0.931 . S
H445 C441 0.930 . S
O446 Co435 2.039 . S
O446 C436 1.265 . S
C447 O443 1.253 . S
C447 O448 1.227 . S
O448 C447 1.227 . S
N449 Co435 2.140 . S
N449 C452 1.346 . S
N449 C453 1.345 . S
C450 C451 1.387 . S
C450 C454 1.391 . S
C451 C450 1.387 . S
C451 C452 1.369 . S
C451 H460 0.929 . S
C452 N449 1.346 . S
C452 C451 1.369 . S
C452 H455 0.928 . S
C453 N449 1.345 . S
C453 C454 1.371 . S
C453 H456 0.931 . S
C454 C450 1.391 . S
C454 C453 1.371 . S
C454 H461 0.930 . S
H455 C452 0.928 . S
H456 C453 0.931 . S
H457 C433 0.930 . S
H458 C430 0.930 . S
H459 C439 0.930 . S
H460 C451 0.929 . S
H461 C454 0.930 . S
C462 C463 1.351 . S
C462 N465 1.368 . S
C462 H467 0.931 . S
C463 C462 1.351 . S
C463 N464 1.373 . S
C463 H491 0.930 . S
N464 C463 1.373 . S
N464 C466 1.340 . S
N465 C462 1.368 . S
N465 C466 1.321 . S
N465 Co468 2.135 . S
C466 N464 1.340 . S
C466 N465 1.321 . S
C466 H490 0.930 . S
H467 C462 0.931 . S
Co468 N465 2.135 . S
Co468 N471 2.121 . S
Co468 O476 2.055 . S
Co468 O479 2.039 . S
Co468 N482 2.140 . S
C469 O470 1.227 . S
C469 O479 1.265 . S
O470 C469 1.227 . S
N471 Co468 2.121 . S
N471 C473 1.375 . S
N471 C474 1.313 . S
C472 C473 1.338 . S
C472 N475 1.377 . S
C472 H492 0.930 . S
C473 N471 1.375 . S
C473 C472 1.338 . S
C473 H477 0.931 . S
C474 N471 1.313 . S
C474 N475 1.344 . S
C474 H478 0.930 . S
N475 C472 1.377 . S
N475 C474 1.344 . S
O476 Co468 2.055 . S
O476 C480 1.253 . S
H477 C473 0.931 . S
H478 C474 0.930 . S
O479 Co468 2.039 . S
O479 C469 1.265 . S
C480 O476 1.253 . S
C480 O481 1.227 . S
O481 C480 1.227 . S
N482 Co468 2.140 . S
N482 C485 1.346 . S
N482 C486 1.345 . S
C483 C484 1.387 . S
C483 C487 1.391 . S
C484 C483 1.387 . S
C484 C485 1.369 . S
C484 H493 0.929 . S
C485 N482 1.346 . S
C485 C484 1.369 . S
C485 H488 0.928 . S
C486 N482 1.345 . S
C486 C487 1.371 . S
C486 H489 0.931 . S
C487 C483 1.391 . S
C487 C486 1.371 . S
C487 H494 0.930 . S
H488 C485 0.928 . S
H489 C486 0.931 . S
H490 C466 0.930 . S
H491 C463 0.930 . S
H492 C472 0.930 . S
H493 C484 0.929 . S
H494 C487 0.930 . S
C495 C496 1.351 . S
C495 N498 1.368 . S
C495 H500 0.931 . S
C496 C495 1.351 . S
C496 N497 1.373 . S
C496 H524 0.930 . S
N497 C496 1.373 . S
N497 C499 1.340 . S
N498 C495 1.368 . S
N498 C499 1.321 . S
N498 Co501 2.135 . S
C499 N497 1.340 . S
C499 N498 1.321 . S
C499 H523 0.930 . S
H500 C495 0.931 . S
Co501 N498 2.135 . S
Co501 N504 2.121 1_554 S
Co501 O509 2.055 1_554 S
Co501 O512 2.039 1_554 S
Co501 N515 2.140 . S
C502 O503 1.227 . S
C502 O512 1.265 1_554 S
O503 C502 1.227 . S
N504 Co501 2.121 1_556 S
N504 C506 1.375 . S
N504 C507 1.313 . S
C505 C506 1.338 . S
C505 N508 1.377 . S
C505 H525 0.930 . S
C506 N504 1.375 . S
C506 C505 1.338 . S
C506 H510 0.931 . S
C507 N504 1.313 . S
C507 N508 1.344 . S
C507 H511 0.930 . S
N508 C505 1.377 . S
N508 C507 1.344 . S
O509 Co501 2.055 1_556 S
O509 C513 1.253 . S
H510 C506 0.931 . S
H511 C507 0.930 . S
O512 Co501 2.039 1_556 S
O512 C502 1.265 1_556 S
C513 O509 1.253 . S
C513 O514 1.227 1_556 S
O514 C513 1.227 1_554 S
N515 Co501 2.140 . S
N515 C518 1.346 . S
N515 C519 1.345 . S
C516 C517 1.387 . S
C516 C520 1.391 . S
C517 C516 1.387 . S
C517 C518 1.369 . S
C517 H526 0.929 . S
C518 N515 1.346 . S
C518 C517 1.369 . S
C518 H521 0.928 . S
C519 N515 1.345 . S
C519 C520 1.371 . S
C519 H522 0.931 . S
C520 C516 1.391 . S
C520 C519 1.371 . S
C520 H527 0.930 . S
H521 C518 0.928 . S
H522 C519 0.931 . S
H523 C499 0.930 . S
H524 C496 0.930 . S
H525 C505 0.930 . S
H526 C517 0.929 . S
H527 C520 0.930 . S
C528 C529 1.351 . S
C528 N531 1.368 . S
C528 H533 0.931 . S
C529 C528 1.351 . S
C529 N530 1.373 . S
C529 H557 0.930 . S
N530 C529 1.373 . S
N530 C532 1.340 . S
N531 C528 1.368 . S
N531 C532 1.321 . S
N531 Co534 2.135 . S
C532 N530 1.340 . S
C532 N531 1.321 . S
C532 H556 0.930 . S
H533 C528 0.931 . S
Co534 N531 2.135 . S
Co534 N537 2.121 . S
Co534 O542 2.055 . S
Co534 O545 2.039 . S
Co534 N548 2.140 . S
C535 O536 1.227 . S
C535 O545 1.265 . S
O536 C535 1.227 . S
N537 Co534 2.121 . S
N537 C539 1.375 . S
N537 C540 1.313 . S
C538 C539 1.338 . S
C538 N541 1.377 . S
C538 H558 0.930 . S
C539 N537 1.375 . S
C539 C538 1.338 . S
C539 H543 0.931 . S
C540 N537 1.313 . S
C540 N541 1.344 . S
C540 H544 0.930 . S
N541 C538 1.377 . S
N541 C540 1.344 . S
O542 Co534 2.055 . S
O542 C546 1.253 . S
H543 C539 0.931 . S
H544 C540 0.930 . S
O545 Co534 2.039 . S
O545 C535 1.265 . S
C546 O542 1.253 . S
C546 O547 1.227 . S
O547 C546 1.227 . S
N548 Co534 2.140 . S
N548 C551 1.346 . S
N548 C552 1.345 . S
C549 C550 1.387 . S
C549 C553 1.391 . S
C550 C549 1.387 . S
C550 C551 1.369 . S
C550 H559 0.929 . S
C551 N548 1.346 . S
C551 C550 1.369 . S
C551 H554 0.928 . S
C552 N548 1.345 . S
C552 C553 1.371 . S
C552 H555 0.931 . S
C553 C549 1.391 . S
C553 C552 1.371 . S
C553 H560 0.930 . S
H554 C551 0.928 . S
H555 C552 0.931 . S
H556 C532 0.930 . S
H557 C529 0.930 . S
H558 C538 0.930 . S
H559 C550 0.929 . S
H560 C553 0.930 . S
C561 C562 1.351 . S
C561 N564 1.368 . S
C561 H566 0.931 . S
C562 C561 1.351 . S
C562 N563 1.373 . S
C562 H590 0.930 . S
N563 C562 1.373 . S
N563 C565 1.340 . S
N564 C561 1.368 . S
N564 C565 1.321 . S
N564 Co567 2.135 . S
C565 N563 1.340 . S
C565 N564 1.321 . S
C565 H589 0.930 . S
H566 C561 0.931 . S
Co567 N564 2.135 . S
Co567 N570 2.121 1_554 S
Co567 O575 2.055 1_554 S
Co567 O578 2.039 1_554 S
Co567 N581 2.140 . S
C568 O569 1.227 . S
C568 O578 1.265 1_554 S
O569 C568 1.227 . S
N570 Co567 2.121 1_556 S
N570 C572 1.375 . S
N570 C573 1.313 . S
C571 C572 1.338 . S
C571 N574 1.377 . S
C571 H591 0.930 . S
C572 N570 1.375 . S
C572 C571 1.338 . S
C572 H576 0.931 . S
C573 N570 1.313 . S
C573 N574 1.344 . S
C573 H577 0.930 . S
N574 C571 1.377 . S
N574 C573 1.344 . S
O575 Co567 2.055 1_556 S
O575 C579 1.253 . S
H576 C572 0.931 . S
H577 C573 0.930 . S
O578 Co567 2.039 1_556 S
O578 C568 1.265 1_556 S
C579 O575 1.253 . S
C579 O580 1.227 1_556 S
O580 C579 1.227 1_554 S
N581 Co567 2.140 . S
N581 C584 1.346 . S
N581 C585 1.345 . S
C582 C583 1.387 . S
C582 C586 1.391 . S
C583 C582 1.387 . S
C583 C584 1.369 . S
C583 H592 0.929 . S
C584 N581 1.346 . S
C584 C583 1.369 . S
C584 H587 0.928 . S
C585 N581 1.345 . S
C585 C586 1.371 . S
C585 H588 0.931 . S
C586 C582 1.391 . S
C586 C585 1.371 . S
C586 H593 0.930 . S
H587 C584 0.928 . S
H588 C585 0.931 . S
H589 C565 0.930 . S
H590 C562 0.930 . S
H591 C571 0.930 . S
H592 C583 0.929 . S
H593 C586 0.930 . S
C594 C595 1.351 1_655 S
C594 N597 1.363 1_655 S
C594 H599 0.931 . S
C595 C594 1.351 1_455 S
C595 N596 1.373 . S
C595 H623 0.930 . S
N596 C595 1.373 . S
N596 C598 1.340 . S
N597 C594 1.363 1_455 S
N597 C598 1.336 . S
N597 Co600 2.124 1_455 S
C598 N596 1.340 . S
C598 N597 1.336 . S
C598 H622 0.930 . S
H599 C594 0.931 . S
Co600 N597 2.124 1_655 S
Co600 N603 2.121 . S
Co600 O608 2.055 . S
Co600 O611 2.039 1_655 S
Co600 N614 2.140 . S
C601 O602 1.227 1_455 S
C601 O611 1.265 . S
O602 C601 1.227 1_655 S
N603 Co600 2.121 . S
N603 C605 1.375 . S
N603 C606 1.313 . S
C604 C605 1.338 . S
C604 N607 1.377 . S
C604 H624 0.930 . S
C605 N603 1.375 . S
C605 C604 1.338 . S
C605 H609 0.931 . S
C606 N603 1.313 . S
C606 N607 1.344 . S
C606 H610 0.930 . S
N607 C604 1.377 . S
N607 C606 1.344 . S
O608 Co600 2.055 . S
O608 C612 1.253 . S
H609 C605 0.931 . S
H610 C606 0.930 . S
O611 Co600 2.039 1_455 S
O611 C601 1.265 . S
C612 O608 1.253 . S
C612 O613 1.227 . S
O613 C612 1.227 . S
N614 Co600 2.140 . S
N614 C617 1.346 . S
N614 C618 1.345 . S
C615 C616 1.387 . S
C615 C619 1.391 . S
C616 C615 1.387 . S
C616 C617 1.369 . S
C616 H625 0.929 . S
C617 N614 1.346 . S
C617 C616 1.369 . S
C617 H620 0.928 . S
C618 N614 1.345 . S
C618 C619 1.371 . S
C618 H621 0.931 . S
C619 C615 1.391 . S
C619 C618 1.371 . S
C619 H626 0.930 . S
H620 C617 0.928 . S
H621 C618 0.931 . S
H622 C598 0.930 . S
H623 C595 0.930 . S
H624 C604 0.930 . S
H625 C616 0.929 . S
H626 C619 0.930 . S
C627 C628 1.351 . S
C627 N630 1.368 . S
C627 H632 0.931 . S
C628 C627 1.351 . S
C628 N629 1.373 . S
C628 H656 0.930 . S
N629 C628 1.373 . S
N629 C631 1.340 . S
N630 C627 1.368 . S
N630 C631 1.321 . S
N630 Co633 2.135 . S
C631 N629 1.340 . S
C631 N630 1.321 . S
C631 H655 0.930 . S
H632 C627 0.931 . S
Co633 N630 2.135 . S
Co633 N636 2.121 . S
Co633 O641 2.055 . S
Co633 O644 2.039 . S
Co633 N647 2.140 . S
C634 O635 1.227 . S
C634 O644 1.265 . S
O635 C634 1.227 . S
N636 Co633 2.121 . S
N636 C638 1.375 . S
N636 C639 1.313 . S
C637 C638 1.338 . S
C637 N640 1.377 . S
C637 H657 0.930 . S
C638 N636 1.375 . S
C638 C637 1.338 . S
C638 H642 0.931 . S
C639 N636 1.313 . S
C639 N640 1.344 . S
C639 H643 0.930 . S
N640 C637 1.377 . S
N640 C639 1.344 . S
O641 Co633 2.055 . S
O641 C645 1.253 . S
H642 C638 0.931 . S
H643 C639 0.930 . S
O644 Co633 2.039 . S
O644 C634 1.265 . S
C645 O641 1.253 . S
C645 O646 1.227 . S
O646 C645 1.227 . S
N647 Co633 2.140 . S
N647 C650 1.346 . S
N647 C651 1.345 . S
C648 C649 1.387 . S
C648 C652 1.391 . S
C649 C648 1.387 . S
C649 C650 1.369 . S
C649 H658 0.929 . S
C650 N647 1.346 . S
C650 C649 1.369 . S
C650 H653 0.928 . S
C651 N647 1.345 . S
C651 C652 1.371 . S
C651 H654 0.931 . S
C652 C648 1.391 . S
C652 C651 1.371 . S
C652 H659 0.930 . S
H653 C650 0.928 . S
H654 C651 0.931 . S
H655 C631 0.930 . S
H656 C628 0.930 . S
H657 C637 0.930 . S
H658 C649 0.929 . S
H659 C652 0.930 . S
C660 C661 1.351 . S
C660 N663 1.368 . S
C660 H665 0.931 . S
C661 C660 1.351 . S
C661 N662 1.373 . S
C661 H689 0.930 . S
N662 C661 1.373 . S
N662 C664 1.340 . S
N663 C660 1.368 . S
N663 C664 1.321 . S
N663 Co666 2.135 . S
C664 N662 1.340 . S
C664 N663 1.321 . S
C664 H688 0.930 . S
H665 C660 0.931 . S
Co666 N663 2.135 . S
Co666 N669 2.121 . S
Co666 O674 2.055 . S
Co666 O677 2.039 . S
Co666 N680 2.140 . S
C667 O668 1.227 . S
C667 O677 1.265 . S
O668 C667 1.227 . S
N669 Co666 2.121 . S
N669 C671 1.375 . S
N669 C672 1.313 . S
C670 C671 1.338 . S
C670 N673 1.377 . S
C670 H690 0.930 . S
C671 N669 1.375 . S
C671 C670 1.338 . S
C671 H675 0.931 . S
C672 N669 1.313 . S
C672 N673 1.344 . S
C672 H676 0.930 . S
N673 C670 1.377 . S
N673 C672 1.344 . S
O674 Co666 2.055 . S
O674 C678 1.253 . S
H675 C671 0.931 . S
H676 C672 0.930 . S
O677 Co666 2.039 . S
O677 C667 1.265 . S
C678 O674 1.253 . S
C678 O679 1.227 . S
O679 C678 1.227 . S
N680 Co666 2.140 . S
N680 C683 1.346 . S
N680 C684 1.345 . S
C681 C682 1.387 . S
C681 C685 1.391 . S
C682 C681 1.387 . S
C682 C683 1.369 . S
C682 H691 0.929 . S
C683 N680 1.346 . S
C683 C682 1.369 . S
C683 H686 0.928 . S
C684 N680 1.345 . S
C684 C685 1.371 . S
C684 H687 0.931 . S
C685 C681 1.391 . S
C685 C684 1.371 . S
C685 H692 0.930 . S
H686 C683 0.928 . S
H687 C684 0.931 . S
H688 C664 0.930 . S
H689 C661 0.930 . S
H690 C670 0.930 . S
H691 C682 0.929 . S
H692 C685 0.930 . S
C693 C694 1.351 . S
C693 N696 1.368 . S
C693 H698 0.931 . S
C694 C693 1.351 . S
C694 N695 1.373 . S
C694 H722 0.930 . S
N695 C694 1.373 . S
N695 C697 1.340 . S
N696 C693 1.368 . S
N696 C697 1.321 . S
N696 Co699 2.135 . S
C697 N695 1.340 . S
C697 N696 1.321 . S
C697 H721 0.930 . S
H698 C693 0.931 . S
Co699 N696 2.135 . S
Co699 N702 2.121 1_556 S
Co699 O707 2.055 1_556 S
Co699 O710 2.039 1_556 S
Co699 N713 2.140 . S
C700 O701 1.227 . S
C700 O710 1.265 1_556 S
O701 C700 1.227 . S
N702 Co699 2.121 1_554 S
N702 C704 1.375 . S
N702 C705 1.313 . S
C703 C704 1.338 . S
C703 N706 1.377 . S
C703 H723 0.930 . S
C704 N702 1.375 . S
C704 C703 1.338 . S
C704 H708 0.931 . S
C705 N702 1.313 . S
C705 N706 1.344 . S
C705 H709 0.930 . S
N706 C703 1.377 . S
N706 C705 1.344 . S
O707 Co699 2.055 1_554 S
O707 C711 1.253 . S
H708 C704 0.931 . S
H709 C705 0.930 . S
O710 Co699 2.039 1_554 S
O710 C700 1.265 1_554 S
C711 O707 1.253 . S
C711 O712 1.227 1_554 S
O712 C711 1.227 1_556 S
N713 Co699 2.140 . S
N713 C716 1.346 . S
N713 C717 1.345 . S
C714 C715 1.387 . S
C714 C718 1.391 . S
C715 C714 1.387 . S
C715 C716 1.369 . S
C715 H724 0.929 . S
C716 N713 1.346 . S
C716 C715 1.369 . S
C716 H719 0.928 . S
C717 N713 1.345 . S
C717 C718 1.371 . S
C717 H720 0.931 . S
C718 C714 1.391 . S
C718 C717 1.371 . S
C718 H725 0.930 . S
H719 C716 0.928 . S
H720 C717 0.931 . S
H721 C697 0.930 . S
H722 C694 0.930 . S
H723 C703 0.930 . S
H724 C715 0.929 . S
H725 C718 0.930 . S
C726 C727 1.351 1_655 S
C726 N729 1.363 1_655 S
C726 H731 0.931 . S
C727 C726 1.351 1_455 S
C727 N728 1.373 . S
C727 H755 0.930 . S
N728 C727 1.373 . S
N728 C730 1.340 . S
N729 C726 1.363 1_455 S
N729 C730 1.337 . S
N729 Co732 2.123 1_455 S
C730 N728 1.340 . S
C730 N729 1.337 . S
C730 H754 0.930 . S
H731 C726 0.931 . S
Co732 N729 2.123 1_655 S
Co732 N735 2.121 . S
Co732 O740 2.055 . S
Co732 O743 2.039 1_655 S
Co732 N746 2.140 . S
C733 O734 1.227 1_455 S
C733 O743 1.265 . S
O734 C733 1.227 1_655 S
N735 Co732 2.121 . S
N735 C737 1.375 . S
N735 C738 1.313 . S
C736 C737 1.338 . S
C736 N739 1.377 . S
C736 H756 0.930 . S
C737 N735 1.375 . S
C737 C736 1.338 . S
C737 H741 0.931 . S
C738 N735 1.313 . S
C738 N739 1.344 . S
C738 H742 0.930 . S
N739 C736 1.377 . S
N739 C738 1.344 . S
O740 Co732 2.055 . S
O740 C744 1.253 . S
H741 C737 0.931 . S
H742 C738 0.930 . S
O743 Co732 2.039 1_455 S
O743 C733 1.265 . S
C744 O740 1.253 . S
C744 O745 1.227 . S
O745 C744 1.227 . S
N746 Co732 2.140 . S
N746 C749 1.346 . S
N746 C750 1.345 . S
C747 C748 1.387 . S
C747 C751 1.391 . S
C748 C747 1.387 . S
C748 C749 1.369 . S
C748 H757 0.929 . S
C749 N746 1.346 . S
C749 C748 1.369 . S
C749 H752 0.928 . S
C750 N746 1.345 . S
C750 C751 1.371 . S
C750 H753 0.931 . S
C751 C747 1.391 . S
C751 C750 1.371 . S
C751 H758 0.930 . S
H752 C749 0.928 . S
H753 C750 0.931 . S
H754 C730 0.930 . S
H755 C727 0.930 . S
H756 C736 0.930 . S
H757 C748 0.929 . S
H758 C751 0.930 . S
C759 C760 1.351 . S
C759 N762 1.368 . S
C759 H764 0.931 . S
C760 C759 1.351 . S
C760 N761 1.373 . S
C760 H788 0.930 . S
N761 C760 1.373 . S
N761 C763 1.340 . S
N762 C759 1.368 . S
N762 C763 1.321 . S
N762 Co765 2.135 . S
C763 N761 1.340 . S
C763 N762 1.321 . S
C763 H787 0.930 . S
H764 C759 0.931 . S
Co765 N762 2.135 . S
Co765 N768 2.121 . S
Co765 O773 2.055 . S
Co765 O776 2.039 . S
Co765 N779 2.140 . S
C766 O767 1.227 . S
C766 O776 1.265 . S
O767 C766 1.227 . S
N768 Co765 2.121 . S
N768 C770 1.375 . S
N768 C771 1.313 . S
C769 C770 1.338 . S
C769 N772 1.377 . S
C769 H789 0.930 . S
C770 N768 1.375 . S
C770 C769 1.338 . S
C770 H774 0.931 . S
C771 N768 1.313 . S
C771 N772 1.344 . S
C771 H775 0.930 . S
N772 C769 1.377 . S
N772 C771 1.344 . S
O773 Co765 2.055 . S
O773 C777 1.253 . S
H774 C770 0.931 . S
H775 C771 0.930 . S
O776 Co765 2.039 . S
O776 C766 1.265 . S
C777 O773 1.253 . S
C777 O778 1.227 . S
O778 C777 1.227 . S
N779 Co765 2.140 . S
N779 C782 1.346 . S
N779 C783 1.345 . S
C780 C781 1.387 . S
C780 C784 1.391 . S
C781 C780 1.387 . S
C781 C782 1.369 . S
C781 H790 0.929 . S
C782 N779 1.346 . S
C782 C781 1.369 . S
C782 H785 0.928 . S
C783 N779 1.345 . S
C783 C784 1.371 . S
C783 H786 0.931 . S
C784 C780 1.391 . S
C784 C783 1.371 . S
C784 H791 0.930 . S
H785 C782 0.928 . S
H786 C783 0.931 . S
H787 C763 0.930 . S
H788 C760 0.930 . S
H789 C769 0.930 . S
H790 C781 0.929 . S
H791 C784 0.930 . S
C792 C793 1.351 . S
C792 N795 1.368 . S
C792 H797 0.931 . S
C793 C792 1.351 . S
C793 N794 1.373 . S
C793 H821 0.930 . S
N794 C793 1.373 . S
N794 C796 1.340 . S
N795 C792 1.368 . S
N795 C796 1.321 . S
N795 Co798 2.135 . S
C796 N794 1.340 . S
C796 N795 1.321 . S
C796 H820 0.930 . S
H797 C792 0.931 . S
Co798 N795 2.135 . S
Co798 N801 2.121 . S
Co798 O806 2.055 . S
Co798 O809 2.039 . S
Co798 N812 2.140 . S
C799 O800 1.227 . S
C799 O809 1.265 . S
O800 C799 1.227 . S
N801 Co798 2.121 . S
N801 C803 1.375 . S
N801 C804 1.313 . S
C802 C803 1.338 . S
C802 N805 1.377 . S
C802 H822 0.930 . S
C803 N801 1.375 . S
C803 C802 1.338 . S
C803 H807 0.931 . S
C804 N801 1.313 . S
C804 N805 1.344 . S
C804 H808 0.930 . S
N805 C802 1.377 . S
N805 C804 1.344 . S
O806 Co798 2.055 . S
O806 C810 1.253 . S
H807 C803 0.931 . S
H808 C804 0.930 . S
O809 Co798 2.039 . S
O809 C799 1.265 . S
C810 O806 1.253 . S
C810 O811 1.227 . S
O811 C810 1.227 . S
N812 Co798 2.140 . S
N812 C815 1.346 . S
N812 C816 1.345 . S
C813 C814 1.387 . S
C813 C817 1.391 . S
C814 C813 1.387 . S
C814 C815 1.369 . S
C814 H823 0.929 . S
C815 N812 1.346 . S
C815 C814 1.369 . S
C815 H818 0.928 . S
C816 N812 1.345 . S
C816 C817 1.371 . S
C816 H819 0.931 . S
C817 C813 1.391 . S
C817 C816 1.371 . S
C817 H824 0.930 . S
H818 C815 0.928 . S
H819 C816 0.931 . S
H820 C796 0.930 . S
H821 C793 0.930 . S
H822 C802 0.930 . S
H823 C814 0.929 . S
H824 C817 0.930 . S
C825 C826 1.351 . S
C825 N828 1.368 . S
C825 H830 0.931 . S
C826 C825 1.351 . S
C826 N827 1.373 . S
C826 H854 0.930 . S
N827 C826 1.373 . S
N827 C829 1.340 . S
N828 C825 1.368 . S
N828 C829 1.321 . S
N828 Co831 2.135 . S
C829 N827 1.340 . S
C829 N828 1.321 . S
C829 H853 0.930 . S
H830 C825 0.931 . S
Co831 N828 2.135 . S
Co831 N834 2.121 1_556 S
Co831 O839 2.055 1_556 S
Co831 O842 2.039 1_556 S
Co831 N845 2.140 . S
C832 O833 1.227 . S
C832 O842 1.265 1_556 S
O833 C832 1.227 . S
N834 Co831 2.121 1_554 S
N834 C836 1.375 . S
N834 C837 1.313 . S
C835 C836 1.338 . S
C835 N838 1.377 . S
C835 H855 0.930 . S
C836 N834 1.375 . S
C836 C835 1.338 . S
C836 H840 0.931 . S
C837 N834 1.313 . S
C837 N838 1.344 . S
C837 H841 0.930 . S
N838 C835 1.377 . S
N838 C837 1.344 . S
O839 Co831 2.055 1_554 S
O839 C843 1.253 . S
H840 C836 0.931 . S
H841 C837 0.930 . S
O842 Co831 2.039 1_554 S
O842 C832 1.265 1_554 S
C843 O839 1.253 . S
C843 O844 1.227 1_554 S
O844 C843 1.227 1_556 S
N845 Co831 2.140 . S
N845 C848 1.346 . S
N845 C849 1.345 . S
C846 C847 1.387 . S
C846 C850 1.391 . S
C847 C846 1.387 . S
C847 C848 1.369 . S
C847 H856 0.929 . S
C848 N845 1.346 . S
C848 C847 1.369 . S
C848 H851 0.928 . S
C849 N845 1.345 . S
C849 C850 1.371 . S
C849 H852 0.931 . S
C850 C846 1.391 . S
C850 C849 1.371 . S
C850 H857 0.930 . S
H851 C848 0.928 . S
H852 C849 0.931 . S
H853 C829 0.930 . S
H854 C826 0.930 . S
H855 C835 0.930 . S
H856 C847 0.929 . S
H857 C850 0.930 . S
C858 C859 1.351 1_455 S
C858 N861 1.363 1_455 S
C858 H863 0.931 . S
C859 C858 1.351 1_655 S
C859 N860 1.373 . S
C859 H887 0.930 . S
N860 C859 1.373 . S
N860 C862 1.340 . S
N861 C858 1.363 1_655 S
N861 C862 1.336 . S
N861 Co864 2.124 1_655 S
C862 N860 1.340 . S
C862 N861 1.336 . S
C862 H886 0.930 . S
H863 C858 0.931 . S
Co864 N861 2.124 1_455 S
Co864 N867 2.121 . S
Co864 O872 2.055 . S
Co864 O875 2.039 1_455 S
Co864 N878 2.140 . S
C865 O866 1.227 1_655 S
C865 O875 1.265 . S
O866 C865 1.227 1_455 S
N867 Co864 2.121 . S
N867 C869 1.375 . S
N867 C870 1.313 . S
C868 C869 1.338 . S
C868 N871 1.377 . S
C868 H888 0.930 . S
C869 N867 1.375 . S
C869 C868 1.338 . S
C869 H873 0.931 . S
C870 N867 1.313 . S
C870 N871 1.344 . S
C870 H874 0.930 . S
N871 C868 1.377 . S
N871 C870 1.344 . S
O872 Co864 2.055 . S
O872 C876 1.253 . S
H873 C869 0.931 . S
H874 C870 0.930 . S
O875 Co864 2.039 1_655 S
O875 C865 1.265 . S
C876 O872 1.253 . S
C876 O877 1.227 . S
O877 C876 1.227 . S
N878 Co864 2.140 . S
N878 C881 1.346 . S
N878 C882 1.345 . S
C879 C880 1.387 . S
C879 C883 1.391 . S
C880 C879 1.387 . S
C880 C881 1.369 . S
C880 H889 0.929 . S
C881 N878 1.346 . S
C881 C880 1.369 . S
C881 H884 0.928 . S
C882 N878 1.345 . S
C882 C883 1.371 . S
C882 H885 0.931 . S
C883 C879 1.391 . S
C883 C882 1.371 . S
C883 H890 0.930 . S
H884 C881 0.928 . S
H885 C882 0.931 . S
H886 C862 0.930 . S
H887 C859 0.930 . S
H888 C868 0.930 . S
H889 C880 0.929 . S
H890 C883 0.930 . S
C891 C892 1.351 . S
C891 N894 1.368 . S
C891 H896 0.931 . S
C892 C891 1.351 . S
C892 N893 1.373 . S
C892 H920 0.930 . S
N893 C892 1.373 . S
N893 C895 1.340 . S
N894 C891 1.368 . S
N894 C895 1.321 . S
N894 Co897 2.135 . S
C895 N893 1.340 . S
C895 N894 1.321 . S
C895 H919 0.930 . S
H896 C891 0.931 . S
Co897 N894 2.135 . S
Co897 N900 2.121 . S
Co897 O905 2.055 . S
Co897 O908 2.039 . S
Co897 N911 2.140 . S
C898 O899 1.227 . S
C898 O908 1.265 . S
O899 C898 1.227 . S
N900 Co897 2.121 . S
N900 C902 1.375 . S
N900 C903 1.313 . S
C901 C902 1.338 . S
C901 N904 1.377 . S
C901 H921 0.930 . S
C902 N900 1.375 . S
C902 C901 1.338 . S
C902 H906 0.931 . S
C903 N900 1.313 . S
C903 N904 1.344 . S
C903 H907 0.930 . S
N904 C901 1.377 . S
N904 C903 1.344 . S
O905 Co897 2.055 . S
O905 C909 1.253 . S
H906 C902 0.931 . S
H907 C903 0.930 . S
O908 Co897 2.039 . S
O908 C898 1.265 . S
C909 O905 1.253 . S
C909 O910 1.227 . S
O910 C909 1.227 . S
N911 Co897 2.140 . S
N911 C914 1.346 . S
N911 C915 1.345 . S
C912 C913 1.387 . S
C912 C916 1.391 . S
C913 C912 1.387 . S
C913 C914 1.369 . S
C913 H922 0.929 . S
C914 N911 1.346 . S
C914 C913 1.369 . S
C914 H917 0.928 . S
C915 N911 1.345 . S
C915 C916 1.371 . S
C915 H918 0.931 . S
C916 C912 1.391 . S
C916 C915 1.371 . S
C916 H923 0.930 . S
H917 C914 0.928 . S
H918 C915 0.931 . S
H919 C895 0.930 . S
H920 C892 0.930 . S
H921 C901 0.930 . S
H922 C913 0.929 . S
H923 C916 0.930 . S
C924 C925 1.351 . S
C924 N927 1.368 . S
C924 H929 0.931 . S
C925 C924 1.351 . S
C925 N926 1.373 . S
C925 H953 0.930 . S
N926 C925 1.373 . S
N926 C928 1.340 . S
N927 C924 1.368 . S
N927 C928 1.321 . S
N927 Co930 2.135 . S
C928 N926 1.340 . S
C928 N927 1.321 . S
C928 H952 0.930 . S
H929 C924 0.931 . S
Co930 N927 2.135 . S
Co930 N933 2.121 . S
Co930 O938 2.055 . S
Co930 O941 2.039 . S
Co930 N944 2.140 . S
C931 O932 1.227 . S
C931 O941 1.265 . S
O932 C931 1.227 . S
N933 Co930 2.121 . S
N933 C935 1.375 . S
N933 C936 1.313 . S
C934 C935 1.338 . S
C934 N937 1.377 . S
C934 H954 0.930 . S
C935 N933 1.375 . S
C935 C934 1.338 . S
C935 H939 0.931 . S
C936 N933 1.313 . S
C936 N937 1.344 . S
C936 H940 0.930 . S
N937 C934 1.377 . S
N937 C936 1.344 . S
O938 Co930 2.055 . S
O938 C942 1.253 . S
H939 C935 0.931 . S
H940 C936 0.930 . S
O941 Co930 2.039 . S
O941 C931 1.265 . S
C942 O938 1.253 . S
C942 O943 1.227 . S
O943 C942 1.227 . S
N944 Co930 2.140 . S
N944 C947 1.346 . S
N944 C948 1.345 . S
C945 C946 1.387 . S
C945 C949 1.391 . S
C946 C945 1.387 . S
C946 C947 1.369 . S
C946 H955 0.929 . S
C947 N944 1.346 . S
C947 C946 1.369 . S
C947 H950 0.928 . S
C948 N944 1.345 . S
C948 C949 1.371 . S
C948 H951 0.931 . S
C949 C945 1.391 . S
C949 C948 1.371 . S
C949 H956 0.930 . S
H950 C947 0.928 . S
H951 C948 0.931 . S
H952 C928 0.930 . S
H953 C925 0.930 . S
H954 C934 0.930 . S
H955 C946 0.929 . S
H956 C949 0.930 . S
C957 C958 1.351 . S
C957 N960 1.368 . S
C957 H962 0.931 . S
C958 C957 1.351 . S
C958 N959 1.373 . S
C958 H986 0.930 . S
N959 C958 1.373 . S
N959 C961 1.340 . S
N960 C957 1.368 . S
N960 C961 1.321 . S
N960 Co963 2.135 . S
C961 N959 1.340 . S
C961 N960 1.321 . S
C961 H985 0.930 . S
H962 C957 0.931 . S
Co963 N960 2.135 . S
Co963 N966 2.121 1_554 S
Co963 O971 2.055 1_554 S
Co963 O974 2.039 1_554 S
Co963 N977 2.140 . S
C964 O965 1.227 . S
C964 O974 1.265 1_554 S
O965 C964 1.227 . S
N966 Co963 2.121 1_556 S
N966 C968 1.375 . S
N966 C969 1.313 . S
C967 C968 1.338 . S
C967 N970 1.377 . S
C967 H987 0.930 . S
C968 N966 1.375 . S
C968 C967 1.338 . S
C968 H972 0.931 . S
C969 N966 1.313 . S
C969 N970 1.344 . S
C969 H973 0.930 . S
N970 C967 1.377 . S
N970 C969 1.344 . S
O971 Co963 2.055 1_556 S
O971 C975 1.253 . S
H972 C968 0.931 . S
H973 C969 0.930 . S
O974 Co963 2.039 1_556 S
O974 C964 1.265 1_556 S
C975 O971 1.253 . S
C975 O976 1.227 1_556 S
O976 C975 1.227 1_554 S
N977 Co963 2.140 . S
N977 C980 1.346 . S
N977 C981 1.345 . S
C978 C979 1.387 . S
C978 C982 1.391 . S
C979 C978 1.387 . S
C979 C980 1.369 . S
C979 H988 0.929 . S
C980 N977 1.346 . S
C980 C979 1.369 . S
C980 H983 0.928 . S
C981 N977 1.345 . S
C981 C982 1.371 . S
C981 H984 0.931 . S
C982 C978 1.391 . S
C982 C981 1.371 . S
C982 H989 0.930 . S
H983 C980 0.928 . S
H984 C981 0.931 . S
H985 C961 0.930 . S
H986 C958 0.930 . S
H987 C967 0.930 . S
H988 C979 0.929 . S
H989 C982 0.930 . S
C990 C991 1.351 1_455 S
C990 N993 1.363 1_455 S
C990 H995 0.931 . S
C991 C990 1.351 1_655 S
C991 N992 1.373 . S
C991 H1019 0.930 . S
N992 C991 1.373 . S
N992 C994 1.340 . S
N993 C990 1.363 1_655 S
N993 C994 1.337 . S
N993 Co996 2.123 1_655 S
C994 N992 1.340 . S
C994 N993 1.337 . S
C994 H1018 0.930 . S
H995 C990 0.931 . S
Co996 N993 2.123 1_455 S
Co996 N999 2.121 . S
Co996 O1004 2.055 . S
Co996 O1007 2.039 1_455 S
Co996 N1010 2.140 . S
C997 O998 1.227 1_655 S
C997 O1007 1.265 . S
O998 C997 1.227 1_455 S
N999 Co996 2.121 . S
N999 C1001 1.375 . S
N999 C1002 1.313 . S
C1000 C1001 1.338 . S
C1000 N1003 1.377 . S
C1000 H1020 0.930 . S
C1001 N999 1.375 . S
C1001 C1000 1.338 . S
C1001 H1005 0.931 . S
C1002 N999 1.313 . S
C1002 N1003 1.344 . S
C1002 H1006 0.930 . S
N1003 C1000 1.377 . S
N1003 C1002 1.344 . S
O1004 Co996 2.055 . S
O1004 C1008 1.253 . S
H1005 C1001 0.931 . S
H1006 C1002 0.930 . S
O1007 Co996 2.039 1_655 S
O1007 C997 1.265 . S
C1008 O1004 1.253 . S
C1008 O1009 1.227 . S
O1009 C1008 1.227 . S
N1010 Co996 2.140 . S
N1010 C1013 1.346 . S
N1010 C1014 1.345 . S
C1011 C1012 1.387 . S
C1011 C1015 1.391 . S
C1012 C1011 1.387 . S
C1012 C1013 1.369 . S
C1012 H1021 0.929 . S
C1013 N1010 1.346 . S
C1013 C1012 1.369 . S
C1013 H1016 0.928 . S
C1014 N1010 1.345 . S
C1014 C1015 1.371 . S
C1014 H1017 0.931 . S
C1015 C1011 1.391 . S
C1015 C1014 1.371 . S
C1015 H1022 0.930 . S
H1016 C1013 0.928 . S
H1017 C1014 0.931 . S
H1018 C994 0.930 . S
H1019 C991 0.930 . S
H1020 C1000 0.930 . S
H1021 C1012 0.929 . S
H1022 C1015 0.930 . S
C1023 C1024 1.351 . S
C1023 N1026 1.368 . S
C1023 H1028 0.931 . S
C1024 C1023 1.351 . S
C1024 N1025 1.373 . S
C1024 H1052 0.930 . S
N1025 C1024 1.373 . S
N1025 C1027 1.340 . S
N1026 C1023 1.368 . S
N1026 C1027 1.321 . S
N1026 Co1029 2.135 . S
C1027 N1025 1.340 . S
C1027 N1026 1.321 . S
C1027 H1051 0.930 . S
H1028 C1023 0.931 . S
Co1029 N1026 2.135 . S
Co1029 N1032 2.121 . S
Co1029 O1037 2.055 . S
Co1029 O1040 2.039 . S
Co1029 N1043 2.140 . S
C1030 O1031 1.227 . S
C1030 O1040 1.265 . S
O1031 C1030 1.227 . S
N1032 Co1029 2.121 . S
N1032 C1034 1.375 . S
N1032 C1035 1.313 . S
C1033 C1034 1.338 . S
C1033 N1036 1.377 . S
C1033 H1053 0.930 . S
C1034 N1032 1.375 . S
C1034 C1033 1.338 . S
C1034 H1038 0.931 . S
C1035 N1032 1.313 . S
C1035 N1036 1.344 . S
C1035 H1039 0.930 . S
N1036 C1033 1.377 . S
N1036 C1035 1.344 . S
O1037 Co1029 2.055 . S
O1037 C1041 1.253 . S
H1038 C1034 0.931 . S
H1039 C1035 0.930 . S
O1040 Co1029 2.039 . S
O1040 C1030 1.265 . S
C1041 O1037 1.253 . S
C1041 O1042 1.227 . S
O1042 C1041 1.227 . S
N1043 Co1029 2.140 . S
N1043 C1046 1.346 . S
N1043 C1047 1.345 . S
C1044 C1045 1.387 . S
C1044 C1048 1.391 . S
C1045 C1044 1.387 . S
C1045 C1046 1.369 . S
C1045 H1054 0.929 . S
C1046 N1043 1.346 . S
C1046 C1045 1.369 . S
C1046 H1049 0.928 . S
C1047 N1043 1.345 . S
C1047 C1048 1.371 . S
C1047 H1050 0.931 . S
C1048 C1044 1.391 . S
C1048 C1047 1.371 . S
C1048 H1055 0.930 . S
H1049 C1046 0.928 . S
H1050 C1047 0.931 . S
H1051 C1027 0.930 . S
H1052 C1024 0.930 . S
H1053 C1033 0.930 . S
H1054 C1045 0.929 . S
H1055 C1048 0.930 . S
N244 N13 2.167 . S
N46 N145 2.166 . S
N79 N178 2.166 . S
N211 N112 2.166 . S
N508 N277 2.167 . S
N409 N310 2.166 . S
N343 N442 2.166 . S
N376 N475 2.166 . S
N772 N541 2.167 . S
N574 N673 2.166 . S
N607 N706 2.166 . S
N739 N640 2.166 . S
N1036 N805 2.167 . S
N838 N937 2.166 . S
N970 N871 2.166 . S
N1003 N904 2.166 . S
C150 C18 0.995 1_565 S
C51 C183 0.995 . S
C216 C84 0.995 1_545 S
C117 C249 0.994 1_556 S
C414 C282 0.995 1_545 S
C315 C447 0.995 . S
C348 C480 0.995 1_545 S
C513 C381 0.994 1_556 S
C678 C546 0.995 . S
C711 C579 0.994 1_554 S
C744 C612 0.995 . S
C777 C645 0.995 . S
C942 C810 0.995 . S
C843 C975 0.994 1_554 S
C1008 C876 0.995 . S
C1041 C909 0.995 . S
C601 C7 2.383 1_455 S
C40 C634 2.383 1_455 S
C73 C535 2.383 . S
C106 C568 2.383 . S
C733 C139 2.383 1_455 S
C766 C172 2.383 . S
C205 C667 2.383 . S
C238 C700 2.383 1_455 S
C271 C865 2.383 1_455 S
C304 C898 2.383 1_655 S
C799 C337 2.383 . S
C370 C832 2.383 . S
C403 C997 2.383 1_455 S
C1030 C436 2.383 . S
C469 C931 2.383 . S
C964 C502 2.383 1_455 S
N893 C21 1.287 . S
C54 N266 1.287 . S
C87 N827 1.287 . S
N332 C120 1.287 . S
N959 C153 1.287 . S
C186 N464 1.287 . S
N1025 C219 1.287 . S
N398 C252 1.287 . S
C285 N629 1.287 . S
C318 N2 1.287 . S
N563 C351 1.287 . S
C384 N68 1.287 . S
C417 N695 1.287 . S
C450 N200 1.287 . S
C483 N761 1.287 . S
N134 C516 1.287 . S
C549 N365 1.287 . S
N794 C582 1.287 . S
N299 C615 1.287 . S
N860 C648 1.287 . S
C681 N431 1.287 . S
C714 N992 1.287 . S
N497 C747 1.287 . S
C780 N926 1.287 . S
C813 N101 1.287 . S
N530 C846 1.287 . S
C879 N35 1.287 . S
C912 N596 1.287 . S
C945 N167 1.287 . S
N728 C978 1.287 . S
C1011 N233 1.287 . S
C1044 N662 1.287 . S
