# Generated by pormake.
# Topology noz, (5)-cn, num edge types: 1
# Building blocks:
#     Node 0, Type 0, BuildingBlock: XOMCOT_clean_sbu_0, # of connection points: 5
#     Node 1, Type 0, BuildingBlock: XOMCOT_clean_sbu_0, # of connection points: 5
#     Node 2, Type 0, BuildingBlock: XOMCOT_clean_sbu_0, # of connection points: 5
#     Node 3, Type 0, BuildingBlock: XOMCOT_clean_sbu_0, # of connection points: 5
#     Node 4, Type 0, BuildingBlock: XOMCOT_clean_sbu_0, # of connection points: 5
#     Node 5, Type 0, BuildingBlock: XOMCOT_clean_sbu_0, # of connection points: 5
#     Node 6, Type 0, BuildingBlock: XOMCOT_clean_sbu_0, # of connection points: 5
#     Node 7, Type 0, BuildingBlock: XOMCOT_clean_sbu_0, # of connection points: 5
#     Edge 8, Type (0, 0), BuildingBlock: EZIPEK_clean_linker_0, # of connection points: 2
#     Edge 9, Type (0, 0), BuildingBlock: EZIPEK_clean_linker_0, # of connection points: 2
#     Edge 10, Type (0, 0), BuildingBlock: EZIPEK_clean_linker_0, # of connection points: 2
#     Edge 11, Type (0, 0), BuildingBlock: EZIPEK_clean_linker_0, # of connection points: 2
#     Edge 12, Type (0, 0), BuildingBlock: EZIPEK_clean_linker_0, # of connection points: 2
#     Edge 13, Type (0, 0), BuildingBlock: EZIPEK_clean_linker_0, # of connection points: 2
#     Edge 14, Type (0, 0), BuildingBlock: EZIPEK_clean_linker_0, # of connection points: 2
#     Edge 15, Type (0, 0), BuildingBlock: EZIPEK_clean_linker_0, # of connection points: 2
#     Edge 16, Type (0, 0), BuildingBlock: EZIPEK_clean_linker_0, # of connection points: 2
#     Edge 17, Type (0, 0), BuildingBlock: EZIPEK_clean_linker_0, # of connection points: 2
#     Edge 18, Type (0, 0), BuildingBlock: EZIPEK_clean_linker_0, # of connection points: 2
#     Edge 19, Type (0, 0), BuildingBlock: EZIPEK_clean_linker_0, # of connection points: 2
#     Edge 20, Type (0, 0), BuildingBlock: EZIPEK_clean_linker_0, # of connection points: 2
#     Edge 21, Type (0, 0), BuildingBlock: EZIPEK_clean_linker_0, # of connection points: 2
#     Edge 22, Type (0, 0), BuildingBlock: EZIPEK_clean_linker_0, # of connection points: 2
#     Edge 23, Type (0, 0), BuildingBlock: EZIPEK_clean_linker_0, # of connection points: 2
#     Edge 24, Type (0, 0), BuildingBlock: EZIPEK_clean_linker_0, # of connection points: 2
#     Edge 25, Type (0, 0), BuildingBlock: EZIPEK_clean_linker_0, # of connection points: 2
#     Edge 26, Type (0, 0), BuildingBlock: EZIPEK_clean_linker_0, # of connection points: 2
#     Edge 27, Type (0, 0), BuildingBlock: EZIPEK_clean_linker_0, # of connection points: 2
# Relax obj value: 0.103
# Max RMSD: 0.189
# Mean RMSD: 0.188
data_MOF--net-noz--node1-XOMCOT_clean_sbu_0--edge1-EZIPEK_clean_linker_0
_symmetry_space_group_name_H-M    P1
_symmetry_Int_Tables_number       1
_symmetry_cell_setting            triclinic
loop_
_symmetry_equiv_pos_as_xyz
'x, y, z'
_cell_length_a     18.373723
_cell_length_b     38.662423
_cell_length_c     27.584205
_cell_angle_alpha  88.859307
_cell_angle_beta   90.169146
_cell_angle_gamma 89.471381
loop_
_atom_site_label
_atom_site_type_symbol
_atom_site_fract_x
_atom_site_fract_y
_atom_site_fract_z
_atom_type_partial_charge
Co0 Co 0.1983 0.33626 0.38612 0.0
C1 C 0.34314 0.3076 0.42344 0.0
C2 C 0.26551 0.31917 0.47865 0.0
C3 C 0.32521 0.30442 0.50056 0.0
N4 N 0.27526 0.32062 0.43021 0.0
N5 N 0.37378 0.29694 0.46598 0.0
H6 H 0.36999 0.30611 0.38889 0.0
H7 H 0.21791 0.3283 0.49715 0.0
C8 C 0.06118 0.30879 0.43601 0.0
O9 O 0.0205 0.33415 0.41855 0.0
N10 N 0.11875 0.35287 0.34351 0.0
C11 C 0.10076 0.38653 0.33665 0.0
C12 C 0.03632 0.38914 0.31169 0.0
C13 C 0.06557 0.3354 0.31996 0.0
N14 N 1.01323 0.35716 0.30135 0.0
C15 C 0.24293 0.40365 0.41344 0.0
C16 C 0.13406 0.41844 0.47866 0.0
C17 C 0.183 0.44452 0.46555 0.0
C18 C 0.23831 0.43667 0.43277 0.0
C19 C 0.13898 0.38603 0.457 0.0
N20 N 0.19183 0.37902 0.42366 0.0
H21 H 0.28712 0.39846 0.38902 0.0
H22 H 0.10004 0.36718 0.46766 0.0
H23 H 0.13109 0.4082 0.34977 0.0
H24 H 0.06391 0.30753 0.31795 0.0
O25 O 0.26823 0.35179 0.33811 0.0
O26 O 0.22199 0.29936 0.34088 0.0
O27 O 0.12969 0.30821 0.42882 0.0
C28 C 0.26585 0.32118 0.31985 0.0
H29 H 0.33277 0.29953 0.53905 0.0
H30 H 1.00785 0.41296 0.30206 0.0
H31 H 0.09151 0.4233 0.50483 0.0
H32 H 0.27804 0.45594 0.42233 0.0
Co33 Co 0.59752 0.70015 0.91761 0.0
C34 C 0.73401 0.69805 0.85778 0.0
C35 C 0.63943 0.70988 0.81478 0.0
C36 C 0.69909 0.71128 0.78514 0.0
N37 N 0.66056 0.70102 0.8605 0.0
N38 N 0.75815 0.70369 0.81215 0.0
H39 H 0.7695 0.69221 0.88827 0.0
H40 H 0.58473 0.71584 0.80286 0.0
C41 C 0.4435 0.70339 0.87099 0.0
O42 O 0.40682 0.69669 0.91074 0.0
N43 N 0.53411 0.70187 0.97363 0.0
C44 C 0.5307 0.68034 0.01268 0.0
C45 C 0.47818 0.69274 0.04394 0.0
C46 C 0.48653 0.72771 0.98269 0.0
N47 N 0.45044 0.7223 0.02451 0.0
C48 C 0.6559 0.63129 0.91581 0.0
C49 C 0.52769 0.59637 0.93215 0.0
C50 C 0.59353 0.57786 0.9338 0.0
C51 C 0.65784 0.5955 0.92337 0.0
C52 C 0.52797 0.63214 0.92288 0.0
N53 N 0.5918 0.64952 0.91614 0.0
H54 H 0.70698 0.64444 0.91312 0.0
H55 H 0.47724 0.64584 0.92507 0.0
H56 H 0.56375 0.65728 0.01805 0.0
H57 H 0.47689 0.74961 0.95836 0.0
O58 O 0.68022 0.7026 0.95981 0.0
O59 O 0.62225 0.74823 0.92833 0.0
O60 O 0.5127 0.706 0.87127 0.0
C61 C 0.67564 0.73601 0.95517 0.0
H62 H 0.69928 0.71698 0.74655 0.0
H63 H 0.46114 0.6809 0.07788 0.0
H64 H 0.47686 0.58362 0.94049 0.0
H65 H 0.70987 0.58208 0.92482 0.0
Co66 Co 0.20295 0.68707 0.63057 0.0
C67 C 0.3106 0.72586 0.56964 0.0
C68 C 0.31489 0.67121 0.55797 0.0
C69 C 0.36981 0.6864 0.53186 0.0
N70 N 0.2764 0.69586 0.58102 0.0
N71 N 0.3677 0.72063 0.53952 0.0
H72 H 0.297 0.75054 0.58526 0.0
H73 H 0.30726 0.64365 0.56223 0.0
C74 C 0.0616 0.70847 0.58134 0.0
O75 O 0.03604 0.67794 0.59376 0.0
N76 N 0.13278 0.67808 0.68234 0.0
C77 C 0.13818 0.65345 0.71783 0.0
C78 C 0.08089 0.6566 0.7491 0.0
C79 C 0.075 0.69761 0.6954 0.0
N80 N 0.04105 0.68416 0.73471 0.0
C81 C 0.19121 0.61347 0.62188 0.0
C82 C 0.15215 0.6124 0.52525 0.0
C83 C 0.16583 0.58101 0.5501 0.0
C84 C 0.1837 0.58185 0.59926 0.0
C85 C 0.15787 0.6437 0.54992 0.0
N86 N 0.17694 0.64409 0.598 0.0
H87 H 0.21441 0.61295 0.65749 0.0
H88 H 0.152 0.66759 0.5294 0.0
H89 H 0.18219 0.63518 0.72294 0.0
H90 H 0.05939 0.72165 0.67762 0.0
O91 O 0.27801 0.66861 0.67272 0.0
O92 O 0.24272 0.72355 0.66973 0.0
O93 O 0.12763 0.71606 0.59216 0.0
C94 C 0.28293 0.69946 0.69026 0.0
H95 H 0.41154 0.6731 0.51156 0.0
H96 H 0.06857 0.6397 0.7797 0.0
H97 H 0.14013 0.61278 0.48678 0.0
H98 H 0.19689 0.5582 0.61927 0.0
Co99 Co 0.57364 0.33695 0.11546 0.0
C100 C 0.45546 0.32497 0.04209 0.0
C101 C 0.53211 0.28297 0.05008 0.0
C102 C 0.47914 0.27331 0.01822 0.0
N103 N 0.51771 0.31529 0.06508 0.0
N104 N 0.43076 0.29946 0.01352 0.0
H105 H 0.42683 0.34907 0.04811 0.0
H106 H 0.57592 0.26659 0.06364 0.0
C107 C 0.72495 0.32585 0.07545 0.0
O108 O 0.73679 0.35912 0.07973 0.0
N109 N 0.63365 0.35612 0.16725 0.0
C110 C 0.62345 0.38436 0.19471 0.0
C111 C 0.68282 0.38807 0.22504 0.0
C112 C 0.69697 0.34204 0.18395 0.0
N113 N 0.72918 0.36159 0.21763 0.0
C114 C 0.55553 0.40842 0.09014 0.0
C115 C 0.61584 0.40749 0.99866 0.0
C116 C 0.59062 0.43898 0.01696 0.0
C117 C 0.55858 0.43896 0.06275 0.0
C118 C 0.6101 0.37711 0.02721 0.0
N119 N 0.58485 0.37824 0.07383 0.0
H120 H 0.52716 0.40916 0.12404 0.0
H121 H 0.62636 0.35286 0.01184 0.0
H122 H 0.57627 0.4011 0.19396 0.0
H123 H 0.71961 0.31783 0.17183 0.0
O124 O 0.48593 0.35186 0.14762 0.0
O125 O 0.53865 0.30137 0.16136 0.0
O126 O 0.66373 0.31307 0.08837 0.0
C127 C 0.48484 0.32251 0.17092 0.0
H128 H 0.47316 0.24797 1.00271 0.0
H129 H 0.69186 0.40886 0.25001 0.0
H130 H 0.63925 0.40639 0.96273 0.0
H131 H 0.5362 0.46257 0.07741 0.0
Co132 Co 0.69228 0.83603 0.38687 0.0
C133 C 0.81966 0.81148 0.4513 0.0
C134 C 0.75212 0.77164 0.42275 0.0
C135 C 0.80718 0.7561 0.44876 0.0
N136 N 0.75946 0.8063 0.42373 0.0
N137 N 0.84968 0.7809 0.46672 0.0
H138 H 0.84067 0.83656 0.46038 0.0
H139 H 0.70905 0.75844 0.40401 0.0
C140 C 0.60324 0.80453 0.4668 0.0
O141 O 0.65447 0.81417 0.49688 0.0
N142 N 0.62257 0.86325 0.34902 0.0
C143 C 0.62784 0.89643 0.33353 0.0
C144 C 0.56499 0.90547 0.30845 0.0
C145 C 0.55705 0.85251 0.33299 0.0
N146 N 0.5208 0.8778 0.30822 0.0
C147 C 0.75845 0.89457 0.42887 0.0
C148 C 0.64289 0.91732 0.48336 0.0
C149 C 0.70101 0.94014 0.47498 0.0
C150 C 0.75902 0.92802 0.44687 0.0
C151 C 0.64051 0.88557 0.45947 0.0
N152 N 0.69851 0.87404 0.43305 0.0
H153 H 0.80515 0.88639 0.4084 0.0
H154 H 0.59052 0.87143 0.46074 0.0
H155 H 0.67389 0.91292 0.34011 0.0
H156 H 0.5361 0.82675 0.3394 0.0
O157 O 0.77052 0.8511 0.34526 0.0
O158 O 0.70485 0.80475 0.33193 0.0
O159 O 0.60809 0.81237 0.42159 0.0
C160 C 0.75885 0.82453 0.31892 0.0
H161 H 0.81464 0.72857 0.45523 0.0
H162 H 0.55247 0.93041 0.29177 0.0
H163 H 0.59702 0.92494 0.5054 0.0
H164 H 0.8048 0.94442 0.43815 0.0
Co165 Co 0.09914 0.20296 0.9058 0.0
C166 C 0.2285 0.19793 0.83955 0.0
C167 C 0.13455 0.17354 0.81015 0.0
C168 C 0.19187 0.16776 0.77969 0.0
N169 N 0.15669 0.19253 0.84802 0.0
N170 N 0.25079 0.18292 0.79824 0.0
H171 H 0.26494 0.21078 0.86399 0.0
H172 H 0.08158 0.16291 0.80514 0.0
C173 C 0.9636 0.18594 0.84526 0.0
O174 O 0.97333 0.15241 0.85029 0.0
N175 N 0.04151 0.21356 0.96216 0.0
C176 C 0.04851 0.20013 1.0075 0.0
C177 C 0.99585 0.21472 0.03638 0.0
C178 C 0.98565 0.23632 0.96406 0.0
N179 N 0.9568 0.23736 0.00887 0.0
C180 C 0.15282 0.13442 0.91881 0.0
C181 C 0.02879 0.10478 0.95695 0.0
C182 C 0.09314 0.08516 0.95489 0.0
C183 C 0.15538 0.10016 0.93522 0.0
C184 C 0.02853 0.13916 0.93993 0.0
N185 N 0.08993 0.15351 0.92033 0.0
H186 H 0.20284 0.14613 0.907 0.0
H187 H 0.97932 0.15445 0.94344 0.0
H188 H 0.08927 0.18124 0.01875 0.0
H189 H 0.96686 0.25202 0.93351 0.0
O190 O 0.18619 0.21014 0.94338 0.0
O191 O 0.12792 0.25134 0.90133 0.0
O192 O 1.00739 0.20725 0.86456 0.0
C193 C 0.18138 0.2426 0.93037 0.0
H194 H 0.19107 0.15268 0.74703 0.0
H195 H 0.98749 0.20963 0.07469 0.0
H196 H 0.97999 0.09393 0.9728 0.0
H197 H 0.20634 0.08587 0.9342 0.0
Co198 Co 0.69807 0.1898 0.62576 0.0
C199 C 0.83179 0.2074 0.5658 0.0
C200 C 0.77149 0.25086 0.59244 0.0
C201 C 0.82823 0.26325 0.56595 0.0
N202 N 0.77257 0.21599 0.59228 0.0
N203 N 0.86595 0.23616 0.54911 0.0
H204 H 0.84964 0.18125 0.55888 0.0
H205 H 0.7329 0.26644 0.61184 0.0
C206 C 0.6248 0.22428 0.53945 0.0
O207 O 0.68287 0.21743 0.51359 0.0
N208 N 0.62193 0.16609 0.66033 0.0
C209 C 0.61338 0.13204 0.67001 0.0
C210 C 0.55011 0.1278 0.6963 0.0
C211 C 0.56512 0.18205 0.68132 0.0
N212 N 0.52041 0.15933 0.70336 0.0
C213 C 0.76211 0.12722 0.59242 0.0
C214 C 0.65517 0.10933 0.52759 0.0
C215 C 0.70713 0.084 0.54145 0.0
C216 C 0.76085 0.09367 0.57469 0.0
C217 C 0.65338 0.14134 0.55077 0.0
N218 N 0.70722 0.15039 0.58231 0.0
H219 H 0.80514 0.1335 0.61726 0.0
H220 H 0.60608 0.15754 0.54538 0.0
H221 H 0.65023 0.11173 0.65905 0.0
H222 H 0.55646 0.20979 0.68034 0.0
O223 O 0.76795 0.17435 0.67394 0.0
O224 O 0.70385 0.22279 0.67879 0.0
O225 O 0.62086 0.21405 0.58391 0.0
C226 C 0.75306 0.20205 0.69758 0.0
H227 H 0.84198 0.29019 0.56012 0.0
H228 H 0.5278 0.10358 0.70951 0.0
H229 H 0.61281 0.10357 0.50167 0.0
H230 H 0.80158 0.07527 0.58767 0.0
Co231 Co 0.08208 0.84138 0.1238 0.0
C232 C 0.95741 0.80673 0.07316 0.0
C233 C 0.04439 0.81873 0.02458 0.0
C234 C 0.98907 0.80433 0.99845 0.0
N235 N 0.02504 0.82049 0.07173 0.0
N236 N 0.93401 0.79728 0.02893 0.0
H237 H 0.92518 0.80346 0.10543 0.0
H238 H 0.09334 0.82893 0.009 0.0
C239 C 0.21597 0.81518 0.06847 0.0
O240 O 0.21247 0.84068 0.03653 0.0
N241 N 0.1406 0.86128 0.17543 0.0
C242 C 0.12616 0.89095 0.19868 0.0
C243 C 0.1846 0.89873 0.22795 0.0
C244 C 0.20786 0.85138 0.19118 0.0
N245 N 0.23585 0.87392 0.22305 0.0
C246 C 0.0428 0.89596 0.05915 0.0
C247 C 0.17242 0.93155 0.06 0.0
C248 C 0.11154 0.94639 0.03666 0.0
C249 C 0.04664 0.92805 0.03572 0.0
C250 C 0.16623 0.89907 0.08302 0.0
N251 N 0.10208 0.88144 0.08201 0.0
H252 H 0.99049 0.88349 0.06096 0.0
H253 H 0.21245 0.88841 0.10237 0.0
H254 H 0.0779 0.90677 0.1931 0.0
H255 H 0.2372 0.82898 0.17843 0.0
O256 O 0.99509 0.86065 0.15251 0.0
O257 O 0.03966 0.80883 0.17048 0.0
O258 O 0.17 0.81266 0.10319 0.0
C259 C 0.98907 0.83218 0.1777 0.0
H260 H 0.98785 0.80079 0.95961 0.0
H261 H 0.19022 0.92147 0.24988 0.0
H262 H 0.22325 0.94544 0.06178 0.0
H263 H 0.99831 0.93917 0.01878 0.0
C264 C 0.37286 0.29068 0.28144 0.0
C265 C 0.3113 0.31287 0.27672 0.0
C266 C 0.35297 0.32953 0.1954 0.0
C267 C 0.42313 0.31468 0.20535 0.0
N268 N 0.50065 0.28376 0.2634 0.0
N269 N 0.24143 0.35344 0.22789 0.0
C270 C 0.4332 0.29541 0.24954 0.0
C271 C 0.30098 0.33224 0.23322 0.0
N272 N 0.37388 0.26506 0.31612 0.0
N273 N 0.33441 0.33976 0.14934 0.0
H274 H 0.19902 0.35386 0.25294 0.0
H275 H 0.23594 0.37167 0.19974 0.0
H276 H 0.36846 0.33607 0.11995 0.0
H277 H 0.28204 0.34769 0.13933 0.0
H278 H 0.41519 0.24645 0.31876 0.0
H279 H 0.32934 0.26023 0.33849 0.0
H280 H 0.51101 0.27275 0.29756 0.0
H281 H 0.54767 0.28822 0.24347 0.0
C282 C 0.42972 0.6844 0.78468 0.0
C283 C 0.40486 0.70491 0.8236 0.0
C284 C 0.299 0.72315 0.77491 0.0
C285 C 0.32768 0.70521 0.73442 0.0
N286 N 0.43075 0.67664 0.69808 0.0
N287 N 0.32587 0.75071 0.85091 0.0
C288 C 0.39648 0.68845 0.73848 0.0
C289 C 0.34265 0.72649 0.8172 0.0
N290 N 0.48185 0.65939 0.79217 0.0
N291 N 0.22872 0.735 0.77485 0.0
H292 H 0.3574 0.75448 0.88184 0.0
H293 H 0.28524 0.76939 0.84556 0.0
H294 H 0.19284 0.73211 0.74607 0.0
H295 H 0.20359 0.74469 0.80563 0.0
H296 H 0.49616 0.64152 0.76598 0.0
H297 H 0.50526 0.65388 0.82587 0.0
H298 H 0.48428 0.66747 0.69846 0.0
H299 H 0.40855 0.67944 0.66342 0.0
C300 C 0.95715 0.71763 0.78596 0.0
C301 C 0.96881 0.69162 0.75143 0.0
C302 C 0.84419 0.6714 0.7619 0.0
C303 C 0.83058 0.6989 0.79381 0.0
N304 N 0.8694 0.75094 0.83197 0.0
N305 N 0.92179 0.64779 0.69968 0.0
C306 C 0.88591 0.72283 0.8048 0.0
C307 C 0.91155 0.66978 0.73724 0.0
N308 N 1.01473 0.73659 0.80136 0.0
N309 N 0.79358 0.64603 0.75697 0.0
H310 H 0.97089 0.6461 0.68095 0.0
H311 H 0.88006 0.63359 0.6843 0.0
H312 H 0.74472 0.64591 0.77614 0.0
H313 H 0.8028 0.62352 0.73772 0.0
H314 H 1.012 0.75369 0.82998 0.0
H315 H 0.06676 0.73358 0.78692 0.0
H316 H 0.90531 0.77108 0.83801 0.0
H317 H 0.81745 0.75518 0.84584 0.0
C318 C 0.86055 0.37539 0.21467 0.0
C319 C 0.80223 0.35734 0.23673 0.0
C320 C 0.8867 0.33268 0.29777 0.0
C321 C 0.94562 0.35064 0.27539 0.0
N322 N 0.99134 0.37998 0.20462 0.0
N323 N 0.76047 0.31416 0.29328 0.0
C324 C 0.93302 0.3691 0.2312 0.0
C325 C 0.81579 0.33436 0.2763 0.0
N326 N 0.8464 0.39882 0.17809 0.0
N327 N 0.89743 0.31532 0.3406 0.0
H328 H 0.70763 0.31609 0.27945 0.0
H329 H 0.76769 0.29409 0.3186 0.0
H330 H 0.94878 0.31109 0.35495 0.0
H331 H 0.85563 0.30587 0.36239 0.0
H332 H 0.88536 0.41556 0.16391 0.0
H333 H 0.79437 0.40281 0.16371 0.0
H334 H 0.98689 0.39103 0.16999 0.0
H335 H 0.04478 0.37441 0.21541 0.0
C336 C 0.87483 0.80086 0.28599 0.0
C337 C 0.8077 0.81805 0.27712 0.0
C338 C 0.85409 0.83892 0.19852 0.0
C339 C 0.92561 0.82643 0.21118 0.0
N340 N 1.00478 0.8019 0.27358 0.0
N341 N 0.7335 0.85529 0.22648 0.0
C342 C 0.93611 0.80871 0.25647 0.0
C343 C 0.79725 0.83735 0.23359 0.0
N344 N 0.88016 0.77719 0.32315 0.0
N345 N 0.83902 0.85155 0.15289 0.0
H346 H 0.68909 0.85268 0.24973 0.0
H347 H 0.72599 0.87397 0.19913 0.0
H348 H 0.87725 0.85455 0.12558 0.0
H349 H 0.7863 0.85654 0.14048 0.0
H350 H 0.92609 0.7617 0.32937 0.0
H351 H 0.83511 0.77023 0.34379 0.0
H352 H 1.01514 0.79212 0.30841 0.0
H353 H 0.05179 0.80992 0.25579 0.0
C354 C 0.85793 0.22825 0.73995 0.0
C355 C 0.79322 0.20889 0.74298 0.0
C356 C 0.83172 0.18586 0.82245 0.0
C357 C 0.90278 0.19872 0.81383 0.0
N358 N 0.98489 0.23144 0.76217 0.0
N359 N 0.71497 0.1706 0.78783 0.0
C360 C 0.9161 0.22041 0.77254 0.0
C361 C 0.77859 0.18847 0.7849 0.0
N362 N 0.86376 0.25387 0.70553 0.0
N363 N 0.81511 0.17154 0.86669 0.0
H364 H 0.67362 0.17382 0.76208 0.0
H365 H 0.70441 0.15186 0.81447 0.0
H366 H 0.85264 0.17003 0.89514 0.0
H367 H 0.76271 0.16432 0.87668 0.0
H368 H 0.90751 0.27077 0.70344 0.0
H369 H 0.82027 0.26076 0.68296 0.0
H370 H 0.99873 0.24351 0.72943 0.0
H371 H 0.02974 0.22635 0.78433 0.0
C372 C 0.37876 0.1619 0.80159 0.0
C373 C 0.32268 0.18112 0.77774 0.0
C374 C 0.39621 0.1845 0.70401 0.0
C375 C 0.4542 0.16735 0.72882 0.0
N376 N 0.50719 0.14717 0.80421 0.0
N377 N 0.28403 0.21752 0.71083 0.0
C378 C 0.44747 0.15832 0.77863 0.0
C379 C 0.33364 0.19469 0.73034 0.0
N380 N 0.36525 0.14541 0.84479 0.0
N381 N 0.39921 0.18929 0.65487 0.0
H382 H 0.23843 0.22581 0.73005 0.0
H383 H 0.29185 0.23071 0.67799 0.0
H384 H 0.44266 0.1805 0.63409 0.0
H385 H 0.35562 0.1988 0.63421 0.0
H386 H 0.40176 0.12806 0.8613 0.0
H387 H 0.31506 0.14672 0.86208 0.0
H388 H 0.50719 0.14335 0.84171 0.0
H389 H 0.55855 0.14502 0.78855 0.0
C390 C 0.31687 0.86878 0.29502 0.0
C391 C 0.3081 0.87377 0.24431 0.0
C392 C 0.44086 0.87785 0.23559 0.0
C393 C 0.44903 0.87601 0.28663 0.0
N394 N 0.39362 0.8778 0.36525 0.0
N395 N 0.36028 0.89191 0.16831 0.0
C396 C 0.38661 0.87357 0.31652 0.0
C397 C 0.36982 0.88062 0.21502 0.0
N398 N 0.25866 0.85891 0.32242 0.0
N399 N 0.50101 0.87632 0.20679 0.0
H400 H 0.30877 0.89612 0.1534 0.0
H401 H 0.40278 0.90043 0.14633 0.0
H402 H 0.55355 0.87398 0.221 0.0
H403 H 0.49817 0.87422 0.16923 0.0
H404 H 0.26295 0.85171 0.35892 0.0
H405 H 0.20725 0.85505 0.30739 0.0
H406 H 0.34932 0.87974 0.38855 0.0
H407 H 0.44364 0.88291 0.38146 0.0
C408 C 0.10728 0.53259 0.50355 0.0
C409 C 0.17006 0.54737 0.52455 0.0
C410 C 0.23774 0.4934 0.51204 0.0
C411 C 0.17762 0.47983 0.48644 0.0
N412 N 0.06081 0.4903 0.44803 0.0
N413 N 0.30042 0.54503 0.53594 0.0
C414 C 0.11386 0.50051 0.47932 0.0
C415 C 0.23702 0.52874 0.52478 0.0
N416 N 0.04094 0.5484 0.50816 0.0
N417 N 0.29429 0.47228 0.52619 0.0
H418 H 0.3026 0.57133 0.54359 0.0
H419 H 0.35143 0.53338 0.53229 0.0
H420 H 0.29541 0.44578 0.51983 0.0
H421 H 0.33606 0.48036 0.54883 0.0
H422 H 0.99236 0.53683 0.49803 0.0
H423 H 0.03374 0.57171 0.52599 0.0
H424 H 1.01665 0.506 0.43807 0.0
H425 H 0.06462 0.46767 0.4282 0.0
C426 C 0.5622 0.51449 0.92644 0.0
C427 C 0.59646 0.5413 0.95231 0.0
C428 C 0.64244 0.49841 0.01169 0.0
C429 C 0.59908 0.47266 0.99033 0.0
N430 N 0.50994 0.45712 0.9303 0.0
N431 N 0.65625 0.5594 0.02574 0.0
C432 C 0.55713 0.48082 0.94821 0.0
C433 C 0.63344 0.53344 0.99654 0.0
N434 N 0.53588 0.52099 0.88076 0.0
N435 N 0.69275 0.48932 0.04637 0.0
H436 H 0.64742 0.58556 0.01759 0.0
H437 H 0.67682 0.55493 0.06056 0.0
H438 H 0.70177 0.46372 0.05772 0.0
H439 H 0.73052 0.50662 0.05995 0.0
H440 H 0.5168 0.50169 0.85832 0.0
H441 H 0.53931 0.54522 0.86364 0.0
H442 H 0.47219 0.46297 0.90304 0.0
H443 H 0.50451 0.43229 0.94521 0.0
C444 C 0.63716 0.02959 0.51802 0.0
C445 C 0.70428 0.04732 0.52342 0.0
C446 C 0.76661 0.9922 0.50936 0.0
C447 C 0.70091 0.97677 0.49344 0.0
N448 N 0.57637 0.98876 0.46758 0.0
N449 N 0.83351 0.04533 0.50544 0.0
C450 C 0.63663 0.9977 0.49327 0.0
C451 C 0.76944 0.02865 0.51339 0.0
N452 N 0.57454 0.04159 0.53841 0.0
N453 N 0.82545 0.97246 0.52281 0.0
H454 H 0.83671 0.07222 0.50254 0.0
H455 H 0.88085 0.03215 0.49554 0.0
H456 H 0.82333 0.94555 0.52578 0.0
H457 H 0.87264 0.98329 0.53691 0.0
H458 H 0.52598 0.02785 0.5369 0.0
H459 H 0.57351 0.06224 0.56212 0.0
H460 H 0.53046 1.0048 0.46514 0.0
H461 H 0.57606 0.96823 0.44368 0.0
C462 C 0.10529 1.01069 0.04718 0.0
C463 C 0.11271 0.98211 0.01599 0.0
C464 C 0.10001 0.02082 0.94488 0.0
C465 C 0.09762 0.04958 0.97601 0.0
N466 N 0.11116 0.07284 0.05604 0.0
N467 N 0.12898 0.9599 0.93576 0.0
C468 C 0.10403 0.0448 0.027 0.0
C469 C 0.11361 0.98719 0.96493 0.0
N470 N 0.09661 1.00519 0.09596 0.0
N471 N 0.08708 0.02559 0.89635 0.0
H472 H 0.13917 0.93495 0.94939 0.0
H473 H 0.13775 0.96243 0.8986 0.0
H474 H 0.07706 0.04989 0.88047 0.0
H475 H 0.08044 1.00537 0.87243 0.0
H476 H 0.08222 0.02466 0.11975 0.0
H477 H 0.09837 0.98067 0.11238 0.0
H478 H 0.12442 0.0709 0.09273 0.0
H479 H 0.10965 0.09829 0.04277 0.0
C480 C 0.45721 0.24629 0.46196 0.0
C481 C 0.44353 0.28086 0.47551 0.0
C482 C 0.54651 0.27802 0.53184 0.0
C483 C 0.56322 0.24396 0.51652 0.0
N484 N 0.54362 0.19877 0.45848 0.0
N485 N 0.48533 0.33248 0.51266 0.0
C486 C 0.52191 0.22918 0.47852 0.0
C487 C 0.49199 0.29761 0.5069 0.0
N488 N 0.40617 0.22901 0.43604 0.0
N489 N 0.58083 0.29145 0.57106 0.0
H490 H 0.4461 0.34725 0.49395 0.0
H491 H 0.52288 0.34706 0.53167 0.0
H492 H 0.6202 0.27792 0.59091 0.0
H493 H 0.5654 0.31469 0.58666 0.0
H494 H 0.40916 0.20256 0.42974 0.0
H495 H 0.35765 0.24053 0.42421 0.0
H496 H 0.51961 0.18885 0.4275 0.0
H497 H 0.58939 0.18485 0.47009 0.0
C498 C 0.3184 0.73306 0.03427 0.0
C499 C 0.39127 0.74323 0.04227 0.0
C500 C 0.34906 0.79938 0.07164 0.0
C501 C 0.27576 0.7892 0.06401 0.0
N502 N 0.18945 0.74462 0.0457 0.0
N503 N 0.47693 0.78242 0.07596 0.0
C504 C 0.26006 0.75534 0.04808 0.0
C505 C 0.40673 0.77535 0.06338 0.0
N506 N 0.30542 0.70282 0.01111 0.0
N507 N 0.36343 0.8323 0.08577 0.0
H508 H 0.51969 0.76509 0.0699 0.0
H509 H 0.49227 0.80391 0.09553 0.0
H510 H 0.32252 0.84999 0.0942 0.0
H511 H 0.41536 0.84276 0.08699 0.0
H512 H 0.25439 0.6955 0.99874 0.0
H513 H 0.34698 0.68578 1.00149 0.0
H514 H 0.17454 0.71923 0.03919 0.0
H515 H 0.14523 0.7606 0.05355 0.0
C516 C 0.40976 0.77083 0.48999 0.0
C517 C 0.42411 0.7445 0.52509 0.0
C518 C 0.555 0.75517 0.51798 0.0
C519 C 0.54085 0.78373 0.48592 0.0
N520 N 0.45192 0.82295 0.44964 0.0
N521 N 0.50803 0.71733 0.58112 0.0
C522 C 0.46738 0.79276 0.4741 0.0
C523 C 0.49612 0.73859 0.54179 0.0
N524 N 0.3416 0.77406 0.47052 0.0
N525 N 0.62418 0.74237 0.52367 0.0
H526 H 0.46552 0.70547 0.59971 0.0
H527 H 0.55851 0.71453 0.59814 0.0
H528 H 0.66869 0.75217 0.50484 0.0
H529 H 0.63618 0.71954 0.54286 0.0
H530 H 0.32941 0.79017 0.44081 0.0
H531 H 0.29843 0.75856 0.4818 0.0
H532 H 0.39915 0.8326 0.44539 0.0
H533 H 0.49178 0.84001 0.4378 0.0
C534 C 0.28654 0.28416 0.92072 0.0
C535 C 0.23346 0.26788 0.95048 0.0
C536 C 0.3042 0.28045 0.02312 0.0
C537 C 0.35904 0.29524 0.99364 0.0
N538 N 0.39811 0.3179 0.91682 0.0
N539 N 0.17875 0.26278 0.02916 0.0
C540 C 0.34817 0.29961 0.94307 0.0
C541 C 0.23816 0.27016 1.00151 0.0
N542 N 0.27972 0.28336 0.87145 0.0
N543 N 0.31738 0.2739 0.07119 0.0
H544 H 0.12891 0.25721 0.01332 0.0
H545 H 0.17651 0.26647 0.06643 0.0
H546 H 0.36605 0.28034 0.08808 0.0
H547 H 0.28251 0.25965 0.09341 0.0
H548 H 0.32008 0.29128 0.84742 0.0
H549 H 0.23356 0.27382 0.85442 0.0
H550 H 0.39224 0.32431 0.8802 0.0
H551 H 0.44356 0.32886 0.93313 0.0
C552 C 0.94155 0.74144 0.57527 0.0
C553 C 1.01182 0.73404 0.5555 0.0
C554 C 0.98002 0.77025 0.48336 0.0
C555 C 0.90808 0.7736 0.5007 0.0
N556 N 0.81974 0.76549 0.56298 0.0
N557 N 0.09816 0.74172 0.49008 0.0
C558 C 0.88957 0.76079 0.54724 0.0
C559 C 0.03182 0.74927 0.50982 0.0
N560 N 0.92416 0.7301 0.62098 0.0
N561 N 0.99754 0.78662 0.4407 0.0
H562 H 0.13761 0.72655 0.50754 0.0
H563 H 0.11371 0.74896 0.45516 0.0
H564 H 0.95948 0.80131 0.42085 0.0
H565 H 0.04987 0.78798 0.4266 0.0
H566 H 0.87882 0.73847 0.64011 0.0
H567 H 0.95629 0.7131 0.6413 0.0
H568 H 0.79733 0.75302 0.59309 0.0
H569 H 0.78273 0.78156 0.54433 0.0
C570 C 0.77108 0.27828 0.02108 0.0
C571 C 0.78464 0.30276 0.05791 0.0
C572 C 0.91415 0.28646 0.05704 0.0
C573 C 0.89876 0.25958 0.02483 0.0
N574 N 0.81158 0.22586 0.98185 0.0
N575 N 0.86811 0.32441 0.11798 0.0
C576 C 0.82681 0.25431 0.00848 0.0
C577 C 0.85602 0.30537 0.07772 0.0
N578 N 0.70665 0.279 0.99626 0.0
N579 N 0.98474 0.29459 0.06686 0.0
H580 H 0.82695 0.33767 0.13546 0.0
H581 H 0.9172 0.32401 0.137 0.0
H582 H 0.02851 0.28138 0.05179 0.0
H583 H 0.99968 0.31642 0.08594 0.0
H584 H 0.69674 0.26401 0.96603 0.0
H585 H 0.66574 0.29709 1.00256 0.0
H586 H 0.75887 0.21855 0.97288 0.0
H587 H 0.85145 0.20783 0.97246 0.0
C588 C 0.03266 0.28063 0.51722 0.0
C589 C 0.02681 0.28104 0.46585 0.0
C590 C 0.92887 0.23866 0.47065 0.0
C591 C 0.93167 0.24019 0.52172 0.0
N592 N 0.9996 0.25206 0.59327 0.0
N593 N 0.9905 0.25053 0.39462 0.0
C594 C 0.98965 0.2571 0.54461 0.0
C595 C 0.98188 0.25664 0.44279 0.0
N596 N 0.07455 0.30432 0.53998 0.0
N597 N 0.87258 0.22216 0.44893 0.0
H598 H 0.03119 0.26246 0.37417 0.0
H599 H 0.96266 0.23127 0.37651 0.0
H600 H 0.83422 0.20815 0.4688 0.0
H601 H 0.86236 0.22374 0.41178 0.0
H602 H 0.07503 0.30754 0.57736 0.0
H603 H 0.10492 0.32257 0.52111 0.0
H604 H 0.04382 0.26165 0.61233 0.0
H605 H 0.96647 0.23532 0.61339 0.0
C606 C 0.76426 0.78659 0.95486 0.0
C607 C 0.73157 0.75778 0.97892 0.0
C608 C 0.83142 0.75621 0.03812 0.0
C609 C 0.86236 0.78567 0.01538 0.0
N610 N 0.84314 0.83592 0.96386 0.0
N611 N 0.72039 0.72502 0.05401 0.0
C612 C 0.82377 0.80317 0.9775 0.0
C613 C 0.7607 0.74585 0.02411 0.0
N614 N 0.74264 0.79705 0.90944 0.0
N615 N 0.87077 0.73679 0.07088 0.0
H616 H 0.66655 0.71874 0.04618 0.0
H617 H 0.7373 0.71773 0.08888 0.0
H618 H 0.92449 0.74227 0.07989 0.0
H619 H 0.85253 0.71324 0.08507 0.0
H620 H 0.77079 0.81552 0.88905 0.0
H621 H 0.70155 0.78533 0.88991 0.0
H622 H 0.81305 0.85099 0.93913 0.0
H623 H 0.88396 0.84936 0.98166 0.0
loop_
_geom_bond_atom_site_label_1
_geom_bond_atom_site_label_2
_geom_bond_distance
_geom_bond_site_symmetry_2
_ccdc_geom_bond_type
Co0 N4 2.148 . S
Co0 N10 2.128 . S
Co0 N20 2.194 . S
Co0 O25 2.351 . S
Co0 O26 2.155 . S
Co0 O27 2.096 . S
C1 N4 1.301 . S
C1 N5 1.328 . S
C1 H6 0.930 . S
C2 C3 1.333 . S
C2 N4 1.317 . S
C2 H7 0.930 . S
C3 C2 1.333 . S
C3 N5 1.350 . S
C3 H29 0.931 . S
N4 Co0 2.148 . S
N4 C1 1.301 . S
N4 C2 1.317 . S
N5 C1 1.328 . S
N5 C3 1.350 . S
H6 C1 0.930 . S
H7 C2 0.930 . S
C8 O9 1.224 . S
C8 O27 1.247 . S
O9 C8 1.224 . S
N10 Co0 2.128 . S
N10 C11 1.355 . S
N10 C13 1.311 . S
C11 N10 1.355 . S
C11 C12 1.363 . S
C11 H23 0.929 . S
C12 C11 1.363 . S
C12 N14 1.375 . S
C12 H30 0.931 . S
C13 N10 1.311 . S
C13 N14 1.347 . S
C13 H24 0.929 . S
N14 C12 1.375 . S
N14 C13 1.347 . S
C15 C18 1.365 . S
C15 N20 1.328 . S
C15 H21 0.929 . S
C16 C17 1.362 . S
C16 C19 1.378 . S
C16 H31 0.929 . S
C17 C16 1.362 . S
C17 C18 1.366 . S
C18 C15 1.365 . S
C18 C17 1.366 . S
C18 H32 0.930 . S
C19 C16 1.378 . S
C19 N20 1.315 . S
C19 H22 0.930 . S
N20 Co0 2.194 . S
N20 C15 1.328 . S
N20 C19 1.315 . S
H21 C15 0.929 . S
H22 C19 0.930 . S
H23 C11 0.929 . S
H24 C13 0.929 . S
O25 Co0 2.351 . S
O25 C28 1.244 . S
O26 Co0 2.155 . S
O26 C28 1.240 . S
O27 Co0 2.096 . S
O27 C8 1.247 . S
C28 O25 1.244 . S
C28 O26 1.240 . S
H29 C3 0.931 . S
H30 C12 0.931 . S
H31 C16 0.929 . S
H32 C18 0.930 . S
Co33 N37 2.148 . S
Co33 N43 2.128 . S
Co33 N53 2.194 . S
Co33 O58 2.351 . S
Co33 O59 2.155 . S
Co33 O60 2.096 . S
C34 N37 1.301 . S
C34 N38 1.328 . S
C34 H39 0.930 . S
C35 C36 1.333 . S
C35 N37 1.317 . S
C35 H40 0.930 . S
C36 C35 1.333 . S
C36 N38 1.350 . S
C36 H62 0.931 . S
N37 Co33 2.148 . S
N37 C34 1.301 . S
N37 C35 1.317 . S
N38 C34 1.328 . S
N38 C36 1.350 . S
H39 C34 0.930 . S
H40 C35 0.930 . S
C41 O42 1.224 . S
C41 O60 1.247 . S
O42 C41 1.224 . S
N43 Co33 2.128 . S
N43 C44 1.355 . S
N43 C46 1.311 . S
C44 N43 1.355 . S
C44 C45 1.363 1_556 S
C44 H56 0.929 1_556 S
C45 C44 1.363 1_554 S
C45 N47 1.375 1_554 S
C45 H63 0.931 . S
C46 N43 1.311 . S
C46 N47 1.347 . S
C46 H57 0.929 . S
N47 C45 1.375 1_556 S
N47 C46 1.347 . S
C48 C51 1.365 . S
C48 N53 1.328 . S
C48 H54 0.929 . S
C49 C50 1.362 . S
C49 C52 1.378 . S
C49 H64 0.929 . S
C50 C49 1.362 . S
C50 C51 1.366 . S
C51 C48 1.365 . S
C51 C50 1.366 . S
C51 H65 0.930 . S
C52 C49 1.378 . S
C52 N53 1.315 . S
C52 H55 0.930 . S
N53 Co33 2.194 . S
N53 C48 1.328 . S
N53 C52 1.315 . S
H54 C48 0.929 . S
H55 C52 0.930 . S
H56 C44 0.929 1_554 S
H57 C46 0.929 . S
O58 Co33 2.351 . S
O58 C61 1.244 . S
O59 Co33 2.155 . S
O59 C61 1.240 . S
O60 Co33 2.096 . S
O60 C41 1.247 . S
C61 O58 1.244 . S
C61 O59 1.240 . S
H62 C36 0.931 . S
H63 C45 0.931 . S
H64 C49 0.929 . S
H65 C51 0.930 . S
Co66 N70 2.148 . S
Co66 N76 2.128 . S
Co66 N86 2.194 . S
Co66 O91 2.351 . S
Co66 O92 2.155 . S
Co66 O93 2.096 . S
C67 N70 1.301 . S
C67 N71 1.328 . S
C67 H72 0.930 . S
C68 C69 1.333 . S
C68 N70 1.317 . S
C68 H73 0.930 . S
C69 C68 1.333 . S
C69 N71 1.350 . S
C69 H95 0.931 . S
N70 Co66 2.148 . S
N70 C67 1.301 . S
N70 C68 1.317 . S
N71 C67 1.328 . S
N71 C69 1.350 . S
H72 C67 0.930 . S
H73 C68 0.930 . S
C74 O75 1.224 . S
C74 O93 1.247 . S
O75 C74 1.224 . S
N76 Co66 2.128 . S
N76 C77 1.355 . S
N76 C79 1.311 . S
C77 N76 1.355 . S
C77 C78 1.363 . S
C77 H89 0.929 . S
C78 C77 1.363 . S
C78 N80 1.375 . S
C78 H96 0.931 . S
C79 N76 1.311 . S
C79 N80 1.347 . S
C79 H90 0.929 . S
N80 C78 1.375 . S
N80 C79 1.347 . S
C81 C84 1.365 . S
C81 N86 1.328 . S
C81 H87 0.929 . S
C82 C83 1.362 . S
C82 C85 1.378 . S
C82 H97 0.929 . S
C83 C82 1.362 . S
C83 C84 1.366 . S
C84 C81 1.365 . S
C84 C83 1.366 . S
C84 H98 0.930 . S
C85 C82 1.378 . S
C85 N86 1.315 . S
C85 H88 0.930 . S
N86 Co66 2.194 . S
N86 C81 1.328 . S
N86 C85 1.315 . S
H87 C81 0.929 . S
H88 C85 0.930 . S
H89 C77 0.929 . S
H90 C79 0.929 . S
O91 Co66 2.351 . S
O91 C94 1.244 . S
O92 Co66 2.155 . S
O92 C94 1.240 . S
O93 Co66 2.096 . S
O93 C74 1.247 . S
C94 O91 1.244 . S
C94 O92 1.240 . S
H95 C69 0.931 . S
H96 C78 0.931 . S
H97 C82 0.929 . S
H98 C84 0.930 . S
Co99 N103 2.148 . S
Co99 N109 2.128 . S
Co99 N119 2.194 . S
Co99 O124 2.351 . S
Co99 O125 2.155 . S
Co99 O126 2.096 . S
C100 N103 1.301 . S
C100 N104 1.328 . S
C100 H105 0.930 . S
C101 C102 1.333 . S
C101 N103 1.317 . S
C101 H106 0.930 . S
C102 C101 1.333 . S
C102 N104 1.350 . S
C102 H128 0.931 1_554 S
N103 Co99 2.148 . S
N103 C100 1.301 . S
N103 C101 1.317 . S
N104 C100 1.328 . S
N104 C102 1.350 . S
H105 C100 0.930 . S
H106 C101 0.930 . S
C107 O108 1.224 . S
C107 O126 1.247 . S
O108 C107 1.224 . S
N109 Co99 2.128 . S
N109 C110 1.355 . S
N109 C112 1.311 . S
C110 N109 1.355 . S
C110 C111 1.363 . S
C110 H122 0.929 . S
C111 C110 1.363 . S
C111 N113 1.375 . S
C111 H129 0.931 . S
C112 N109 1.311 . S
C112 N113 1.347 . S
C112 H123 0.929 . S
N113 C111 1.375 . S
N113 C112 1.347 . S
C114 C117 1.365 . S
C114 N119 1.328 . S
C114 H120 0.929 . S
C115 C116 1.362 . S
C115 C118 1.378 . S
C115 H130 0.929 1_554 S
C116 C115 1.362 . S
C116 C117 1.366 . S
C117 C114 1.365 . S
C117 C116 1.366 . S
C117 H131 0.930 . S
C118 C115 1.378 . S
C118 N119 1.315 . S
C118 H121 0.930 . S
N119 Co99 2.194 . S
N119 C114 1.328 . S
N119 C118 1.315 . S
H120 C114 0.929 . S
H121 C118 0.930 . S
H122 C110 0.929 . S
H123 C112 0.929 . S
O124 Co99 2.351 . S
O124 C127 1.244 . S
O125 Co99 2.155 . S
O125 C127 1.240 . S
O126 Co99 2.096 . S
O126 C107 1.247 . S
C127 O124 1.244 . S
C127 O125 1.240 . S
H128 C102 0.931 1_556 S
H129 C111 0.931 . S
H130 C115 0.929 1_556 S
H131 C117 0.930 . S
Co132 N136 2.148 . S
Co132 N142 2.128 . S
Co132 N152 2.194 . S
Co132 O157 2.351 . S
Co132 O158 2.155 . S
Co132 O159 2.096 . S
C133 N136 1.301 . S
C133 N137 1.328 . S
C133 H138 0.930 . S
C134 C135 1.333 . S
C134 N136 1.317 . S
C134 H139 0.930 . S
C135 C134 1.333 . S
C135 N137 1.350 . S
C135 H161 0.931 . S
N136 Co132 2.148 . S
N136 C133 1.301 . S
N136 C134 1.317 . S
N137 C133 1.328 . S
N137 C135 1.350 . S
H138 C133 0.930 . S
H139 C134 0.930 . S
C140 O141 1.224 . S
C140 O159 1.247 . S
O141 C140 1.224 . S
N142 Co132 2.128 . S
N142 C143 1.355 . S
N142 C145 1.311 . S
C143 N142 1.355 . S
C143 C144 1.363 . S
C143 H155 0.929 . S
C144 C143 1.363 . S
C144 N146 1.375 . S
C144 H162 0.931 . S
C145 N142 1.311 . S
C145 N146 1.347 . S
C145 H156 0.929 . S
N146 C144 1.375 . S
N146 C145 1.347 . S
C147 C150 1.365 . S
C147 N152 1.328 . S
C147 H153 0.929 . S
C148 C149 1.362 . S
C148 C151 1.378 . S
C148 H163 0.929 . S
C149 C148 1.362 . S
C149 C150 1.366 . S
C150 C147 1.365 . S
C150 C149 1.366 . S
C150 H164 0.930 . S
C151 C148 1.378 . S
C151 N152 1.315 . S
C151 H154 0.930 . S
N152 Co132 2.194 . S
N152 C147 1.328 . S
N152 C151 1.315 . S
H153 C147 0.929 . S
H154 C151 0.930 . S
H155 C143 0.929 . S
H156 C145 0.929 . S
O157 Co132 2.351 . S
O157 C160 1.244 . S
O158 Co132 2.155 . S
O158 C160 1.240 . S
O159 Co132 2.096 . S
O159 C140 1.247 . S
C160 O157 1.244 . S
C160 O158 1.240 . S
H161 C135 0.931 . S
H162 C144 0.931 . S
H163 C148 0.929 . S
H164 C150 0.930 . S
Co165 N169 2.148 . S
Co165 N175 2.128 1_455 S
Co165 N185 2.194 . S
Co165 O190 2.351 . S
Co165 O191 2.155 . S
Co165 O192 2.096 . S
C166 N169 1.301 . S
C166 N170 1.328 . S
C166 H171 0.930 . S
C167 C168 1.333 . S
C167 N169 1.317 . S
C167 H172 0.930 . S
C168 C167 1.333 . S
C168 N170 1.350 . S
C168 H194 0.931 . S
N169 Co165 2.148 . S
N169 C166 1.301 . S
N169 C167 1.317 . S
N170 C166 1.328 . S
N170 C168 1.350 . S
H171 C166 0.930 . S
H172 C167 0.930 . S
C173 O174 1.224 . S
C173 O192 1.247 1_655 S
O174 C173 1.224 . S
N175 Co165 2.128 1_655 S
N175 C176 1.355 . S
N175 C178 1.311 . S
C176 N175 1.355 . S
C176 C177 1.363 1_556 S
C176 H188 0.929 1_656 S
C177 C176 1.363 1_554 S
C177 N179 1.375 1_554 S
C177 H195 0.931 . S
C178 N175 1.311 . S
C178 N179 1.347 . S
C178 H189 0.929 . S
N179 C177 1.375 1_556 S
N179 C178 1.347 . S
C180 C183 1.365 . S
C180 N185 1.328 . S
C180 H186 0.929 . S
C181 C182 1.362 . S
C181 C184 1.378 . S
C181 H196 0.929 1_455 S
C182 C181 1.362 . S
C182 C183 1.366 . S
C183 C180 1.365 . S
C183 C182 1.366 . S
C183 H197 0.930 . S
C184 C181 1.378 . S
C184 N185 1.315 . S
C184 H187 0.930 1_455 S
N185 Co165 2.194 . S
N185 C180 1.328 . S
N185 C184 1.315 . S
H186 C180 0.929 . S
H187 C184 0.930 1_655 S
H188 C176 0.929 1_454 S
H189 C178 0.929 . S
O190 Co165 2.351 . S
O190 C193 1.244 . S
O191 Co165 2.155 . S
O191 C193 1.240 . S
O192 Co165 2.096 . S
O192 C173 1.247 1_455 S
C193 O190 1.244 . S
C193 O191 1.240 . S
H194 C168 0.931 . S
H195 C177 0.931 . S
H196 C181 0.929 1_655 S
H197 C183 0.930 . S
Co198 N202 2.148 . S
Co198 N208 2.128 . S
Co198 N218 2.194 . S
Co198 O223 2.351 . S
Co198 O224 2.155 . S
Co198 O225 2.096 . S
C199 N202 1.301 . S
C199 N203 1.328 . S
C199 H204 0.930 . S
C200 C201 1.333 . S
C200 N202 1.317 . S
C200 H205 0.930 . S
C201 C200 1.333 . S
C201 N203 1.350 . S
C201 H227 0.931 . S
N202 Co198 2.148 . S
N202 C199 1.301 . S
N202 C200 1.317 . S
N203 C199 1.328 . S
N203 C201 1.350 . S
H204 C199 0.930 . S
H205 C200 0.930 . S
C206 O207 1.224 . S
C206 O225 1.247 . S
O207 C206 1.224 . S
N208 Co198 2.128 . S
N208 C209 1.355 . S
N208 C211 1.311 . S
C209 N208 1.355 . S
C209 C210 1.363 . S
C209 H221 0.929 . S
C210 C209 1.363 . S
C210 N212 1.375 . S
C210 H228 0.931 . S
C211 N208 1.311 . S
C211 N212 1.347 . S
C211 H222 0.929 . S
N212 C210 1.375 . S
N212 C211 1.347 . S
C213 C216 1.365 . S
C213 N218 1.328 . S
C213 H219 0.929 . S
C214 C215 1.362 . S
C214 C217 1.378 . S
C214 H229 0.929 . S
C215 C214 1.362 . S
C215 C216 1.366 . S
C216 C213 1.365 . S
C216 C215 1.366 . S
C216 H230 0.930 . S
C217 C214 1.378 . S
C217 N218 1.315 . S
C217 H220 0.930 . S
N218 Co198 2.194 . S
N218 C213 1.328 . S
N218 C217 1.315 . S
H219 C213 0.929 . S
H220 C217 0.930 . S
H221 C209 0.929 . S
H222 C211 0.929 . S
O223 Co198 2.351 . S
O223 C226 1.244 . S
O224 Co198 2.155 . S
O224 C226 1.240 . S
O225 Co198 2.096 . S
O225 C206 1.247 . S
C226 O223 1.244 . S
C226 O224 1.240 . S
H227 C201 0.931 . S
H228 C210 0.931 . S
H229 C214 0.929 . S
H230 C216 0.930 . S
Co231 N235 2.148 1_455 S
Co231 N241 2.128 . S
Co231 N251 2.194 . S
Co231 O256 2.351 1_455 S
Co231 O257 2.155 . S
Co231 O258 2.096 . S
C232 N235 1.301 . S
C232 N236 1.328 . S
C232 H237 0.930 . S
C233 C234 1.333 . S
C233 N235 1.317 . S
C233 H238 0.930 1_655 S
C234 C233 1.333 . S
C234 N236 1.350 . S
C234 H260 0.931 1_554 S
N235 Co231 2.148 1_655 S
N235 C232 1.301 . S
N235 C233 1.317 . S
N236 C232 1.328 . S
N236 C234 1.350 . S
H237 C232 0.930 . S
H238 C233 0.930 1_455 S
C239 O240 1.224 . S
C239 O258 1.247 . S
O240 C239 1.224 . S
N241 Co231 2.128 . S
N241 C242 1.355 . S
N241 C244 1.311 . S
C242 N241 1.355 . S
C242 C243 1.363 . S
C242 H254 0.929 . S
C243 C242 1.363 . S
C243 N245 1.375 . S
C243 H261 0.931 . S
C244 N241 1.311 . S
C244 N245 1.347 . S
C244 H255 0.929 . S
N245 C243 1.375 . S
N245 C244 1.347 . S
C246 C249 1.365 . S
C246 N251 1.328 . S
C246 H252 0.929 1_455 S
C247 C248 1.362 . S
C247 C250 1.378 . S
C247 H262 0.929 1_554 S
C248 C247 1.362 . S
C248 C249 1.366 . S
C249 C246 1.365 . S
C249 C248 1.366 . S
C249 H263 0.930 1_455 S
C250 C247 1.378 . S
C250 N251 1.315 . S
C250 H253 0.930 . S
N251 Co231 2.194 . S
N251 C246 1.328 . S
N251 C250 1.315 . S
H252 C246 0.929 1_655 S
H253 C250 0.930 . S
H254 C242 0.929 . S
H255 C244 0.929 . S
O256 Co231 2.351 1_655 S
O256 C259 1.244 . S
O257 Co231 2.155 . S
O257 C259 1.240 1_455 S
O258 Co231 2.096 . S
O258 C239 1.247 . S
C259 O256 1.244 . S
C259 O257 1.240 1_655 S
H260 C234 0.931 1_556 S
H261 C243 0.931 . S
H262 C247 0.929 1_556 S
H263 C249 0.930 1_655 S
C264 C265 1.363 . S
C264 C270 1.379 . S
C264 N272 1.356 . S
C265 C264 1.363 . S
C265 C271 1.363 . S
C266 C267 1.363 . S
C266 C271 1.379 . S
C266 N273 1.356 . S
C267 C266 1.363 . S
C267 C270 1.363 . S
N268 C270 1.356 . S
N268 H280 0.984 . S
N268 H281 0.985 . S
N269 C271 1.356 . S
N269 H274 0.984 . S
N269 H275 0.985 . S
C270 C264 1.379 . S
C270 C267 1.363 . S
C270 N268 1.356 . S
C271 C265 1.363 . S
C271 C266 1.379 . S
C271 N269 1.356 . S
N272 C264 1.356 . S
N272 H278 0.984 . S
N272 H279 0.984 . S
N273 C266 1.356 . S
N273 H276 0.984 . S
N273 H277 0.985 . S
H274 N269 0.984 . S
H275 N269 0.985 . S
H276 N273 0.984 . S
H277 N273 0.985 . S
H278 N272 0.984 . S
H279 N272 0.984 . S
H280 N268 0.984 . S
H281 N268 0.985 . S
C282 C283 1.363 . S
C282 C288 1.379 . S
C282 N290 1.356 . S
C283 C282 1.363 . S
C283 C289 1.363 . S
C284 C285 1.363 . S
C284 C289 1.379 . S
C284 N291 1.356 . S
C285 C284 1.363 . S
C285 C288 1.363 . S
N286 C288 1.356 . S
N286 H298 0.984 . S
N286 H299 0.985 . S
N287 C289 1.356 . S
N287 H292 0.984 . S
N287 H293 0.985 . S
C288 C282 1.379 . S
C288 C285 1.363 . S
C288 N286 1.356 . S
C289 C283 1.363 . S
C289 C284 1.379 . S
C289 N287 1.356 . S
N290 C282 1.356 . S
N290 H296 0.984 . S
N290 H297 0.984 . S
N291 C284 1.356 . S
N291 H294 0.984 . S
N291 H295 0.985 . S
H292 N287 0.984 . S
H293 N287 0.985 . S
H294 N291 0.984 . S
H295 N291 0.985 . S
H296 N290 0.984 . S
H297 N290 0.984 . S
H298 N286 0.984 . S
H299 N286 0.985 . S
C300 C301 1.363 . S
C300 C306 1.379 . S
C300 N308 1.356 . S
C301 C300 1.363 . S
C301 C307 1.363 . S
C302 C303 1.363 . S
C302 C307 1.379 . S
C302 N309 1.356 . S
C303 C302 1.363 . S
C303 C306 1.363 . S
N304 C306 1.356 . S
N304 H316 0.984 . S
N304 H317 0.985 . S
N305 C307 1.356 . S
N305 H310 0.984 . S
N305 H311 0.985 . S
C306 C300 1.379 . S
C306 C303 1.363 . S
C306 N304 1.356 . S
C307 C301 1.363 . S
C307 C302 1.379 . S
C307 N305 1.356 . S
N308 C300 1.356 . S
N308 H314 0.984 . S
N308 H315 0.984 1_655 S
N309 C302 1.356 . S
N309 H312 0.984 . S
N309 H313 0.985 . S
H310 N305 0.984 . S
H311 N305 0.985 . S
H312 N309 0.984 . S
H313 N309 0.985 . S
H314 N308 0.984 . S
H315 N308 0.984 1_455 S
H316 N304 0.984 . S
H317 N304 0.985 . S
C318 C319 1.363 . S
C318 C324 1.379 . S
C318 N326 1.356 . S
C319 C318 1.363 . S
C319 C325 1.363 . S
C320 C321 1.363 . S
C320 C325 1.379 . S
C320 N327 1.356 . S
C321 C320 1.363 . S
C321 C324 1.363 . S
N322 C324 1.356 . S
N322 H334 0.984 . S
N322 H335 0.985 1_655 S
N323 C325 1.356 . S
N323 H328 0.984 . S
N323 H329 0.985 . S
C324 C318 1.379 . S
C324 C321 1.363 . S
C324 N322 1.356 . S
C325 C319 1.363 . S
C325 C320 1.379 . S
C325 N323 1.356 . S
N326 C318 1.356 . S
N326 H332 0.984 . S
N326 H333 0.984 . S
N327 C320 1.356 . S
N327 H330 0.984 . S
N327 H331 0.985 . S
H328 N323 0.984 . S
H329 N323 0.985 . S
H330 N327 0.984 . S
H331 N327 0.985 . S
H332 N326 0.984 . S
H333 N326 0.984 . S
H334 N322 0.984 . S
H335 N322 0.985 1_455 S
C336 C337 1.363 . S
C336 C342 1.379 . S
C336 N344 1.356 . S
C337 C336 1.363 . S
C337 C343 1.363 . S
C338 C339 1.363 . S
C338 C343 1.379 . S
C338 N345 1.356 . S
C339 C338 1.363 . S
C339 C342 1.363 . S
N340 C342 1.356 . S
N340 H352 0.984 . S
N340 H353 0.985 1_655 S
N341 C343 1.356 . S
N341 H346 0.984 . S
N341 H347 0.985 . S
C342 C336 1.379 . S
C342 C339 1.363 . S
C342 N340 1.356 . S
C343 C337 1.363 . S
C343 C338 1.379 . S
C343 N341 1.356 . S
N344 C336 1.356 . S
N344 H350 0.984 . S
N344 H351 0.984 . S
N345 C338 1.356 . S
N345 H348 0.984 . S
N345 H349 0.985 . S
H346 N341 0.984 . S
H347 N341 0.985 . S
H348 N345 0.984 . S
H349 N345 0.985 . S
H350 N344 0.984 . S
H351 N344 0.984 . S
H352 N340 0.984 . S
H353 N340 0.985 1_455 S
C354 C355 1.363 . S
C354 C360 1.379 . S
C354 N362 1.356 . S
C355 C354 1.363 . S
C355 C361 1.363 . S
C356 C357 1.363 . S
C356 C361 1.379 . S
C356 N363 1.356 . S
C357 C356 1.363 . S
C357 C360 1.363 . S
N358 C360 1.356 . S
N358 H370 0.984 . S
N358 H371 0.985 . S
N359 C361 1.356 . S
N359 H364 0.984 . S
N359 H365 0.985 . S
C360 C354 1.379 . S
C360 C357 1.363 . S
C360 N358 1.356 . S
C361 C355 1.363 . S
C361 C356 1.379 . S
C361 N359 1.356 . S
N362 C354 1.356 . S
N362 H368 0.984 . S
N362 H369 0.984 . S
N363 C356 1.356 . S
N363 H366 0.984 . S
N363 H367 0.985 . S
H364 N359 0.984 . S
H365 N359 0.985 . S
H366 N363 0.984 . S
H367 N363 0.985 . S
H368 N362 0.984 . S
H369 N362 0.984 . S
H370 N358 0.984 . S
H371 N358 0.985 . S
C372 C373 1.363 . S
C372 C378 1.379 . S
C372 N380 1.356 . S
C373 C372 1.363 . S
C373 C379 1.363 . S
C374 C375 1.363 . S
C374 C379 1.379 . S
C374 N381 1.356 . S
C375 C374 1.363 . S
C375 C378 1.363 . S
N376 C378 1.356 . S
N376 H388 0.984 . S
N376 H389 0.985 . S
N377 C379 1.356 . S
N377 H382 0.984 . S
N377 H383 0.985 . S
C378 C372 1.379 . S
C378 C375 1.363 . S
C378 N376 1.356 . S
C379 C373 1.363 . S
C379 C374 1.379 . S
C379 N377 1.356 . S
N380 C372 1.356 . S
N380 H386 0.984 . S
N380 H387 0.984 . S
N381 C374 1.356 . S
N381 H384 0.984 . S
N381 H385 0.985 . S
H382 N377 0.984 . S
H383 N377 0.985 . S
H384 N381 0.984 . S
H385 N381 0.985 . S
H386 N380 0.984 . S
H387 N380 0.984 . S
H388 N376 0.984 . S
H389 N376 0.985 . S
C390 C391 1.363 . S
C390 C396 1.379 . S
C390 N398 1.356 . S
C391 C390 1.363 . S
C391 C397 1.363 . S
C392 C393 1.363 . S
C392 C397 1.379 . S
C392 N399 1.356 . S
C393 C392 1.363 . S
C393 C396 1.363 . S
N394 C396 1.356 . S
N394 H406 0.984 . S
N394 H407 0.985 . S
N395 C397 1.356 . S
N395 H400 0.984 . S
N395 H401 0.985 . S
C396 C390 1.379 . S
C396 C393 1.363 . S
C396 N394 1.356 . S
C397 C391 1.363 . S
C397 C392 1.379 . S
C397 N395 1.356 . S
N398 C390 1.356 . S
N398 H404 0.984 . S
N398 H405 0.984 . S
N399 C392 1.356 . S
N399 H402 0.984 . S
N399 H403 0.985 . S
H400 N395 0.984 . S
H401 N395 0.985 . S
H402 N399 0.984 . S
H403 N399 0.985 . S
H404 N398 0.984 . S
H405 N398 0.984 . S
H406 N394 0.984 . S
H407 N394 0.985 . S
C408 C409 1.363 . S
C408 C414 1.379 . S
C408 N416 1.356 . S
C409 C408 1.363 . S
C409 C415 1.363 . S
C410 C411 1.363 . S
C410 C415 1.379 . S
C410 N417 1.356 . S
C411 C410 1.363 . S
C411 C414 1.363 . S
N412 C414 1.356 . S
N412 H424 0.984 . S
N412 H425 0.985 . S
N413 C415 1.356 . S
N413 H418 0.984 . S
N413 H419 0.985 . S
C414 C408 1.379 . S
C414 C411 1.363 . S
C414 N412 1.356 . S
C415 C409 1.363 . S
C415 C410 1.379 . S
C415 N413 1.356 . S
N416 C408 1.356 . S
N416 H422 0.984 . S
N416 H423 0.984 . S
N417 C410 1.356 . S
N417 H420 0.984 . S
N417 H421 0.985 . S
H418 N413 0.984 . S
H419 N413 0.985 . S
H420 N417 0.984 . S
H421 N417 0.985 . S
H422 N416 0.984 . S
H423 N416 0.984 . S
H424 N412 0.984 . S
H425 N412 0.985 . S
C426 C427 1.363 . S
C426 C432 1.379 . S
C426 N434 1.356 . S
C427 C426 1.363 . S
C427 C433 1.363 1_556 S
C428 C429 1.363 . S
C428 C433 1.379 . S
C428 N435 1.356 . S
C429 C428 1.363 . S
C429 C432 1.363 1_554 S
N430 C432 1.356 . S
N430 H442 0.984 . S
N430 H443 0.985 . S
N431 C433 1.356 . S
N431 H436 0.984 . S
N431 H437 0.985 . S
C432 C426 1.379 . S
C432 C429 1.363 1_556 S
C432 N430 1.356 . S
C433 C427 1.363 1_554 S
C433 C428 1.379 . S
C433 N431 1.356 . S
N434 C426 1.356 . S
N434 H440 0.984 . S
N434 H441 0.984 . S
N435 C428 1.356 . S
N435 H438 0.984 . S
N435 H439 0.985 . S
H436 N431 0.984 . S
H437 N431 0.985 . S
H438 N435 0.984 . S
H439 N435 0.985 . S
H440 N434 0.984 . S
H441 N434 0.984 . S
H442 N430 0.984 . S
H443 N430 0.985 . S
C444 C445 1.363 . S
C444 C450 1.379 1_545 S
C444 N452 1.356 . S
C445 C444 1.363 . S
C445 C451 1.363 . S
C446 C447 1.363 . S
C446 C451 1.379 1_565 S
C446 N453 1.356 . S
C447 C446 1.363 . S
C447 C450 1.363 . S
N448 C450 1.356 . S
N448 H460 0.984 . S
N448 H461 0.985 . S
N449 C451 1.356 . S
N449 H454 0.984 . S
N449 H455 0.985 . S
C450 C444 1.379 1_565 S
C450 C447 1.363 . S
C450 N448 1.356 . S
C451 C445 1.363 . S
C451 C446 1.379 1_545 S
C451 N449 1.356 . S
N452 C444 1.356 . S
N452 H458 0.984 . S
N452 H459 0.984 . S
N453 C446 1.356 . S
N453 H456 0.984 . S
N453 H457 0.985 . S
H454 N449 0.984 . S
H455 N449 0.985 . S
H456 N453 0.984 . S
H457 N453 0.985 . S
H458 N452 0.984 . S
H459 N452 0.984 . S
H460 N448 0.984 . S
H461 N448 0.985 . S
C462 C463 1.363 . S
C462 C468 1.379 1_565 S
C462 N470 1.356 1_455 S
C463 C462 1.363 . S
C463 C469 1.363 1_554 S
C464 C465 1.363 . S
C464 C469 1.379 1_545 S
C464 N471 1.356 . S
C465 C464 1.363 . S
C465 C468 1.363 1_556 S
N466 C468 1.356 1_655 S
N466 H478 0.984 . S
N466 H479 0.985 . S
N467 C469 1.356 . S
N467 H472 0.984 . S
N467 H473 0.985 . S
C468 C462 1.379 1_545 S
C468 C465 1.363 1_554 S
C468 N466 1.356 1_455 S
C469 C463 1.363 1_556 S
C469 C464 1.379 1_565 S
C469 N467 1.356 . S
N470 C462 1.356 1_655 S
N470 H476 0.984 . S
N470 H477 0.984 . S
N471 C464 1.356 . S
N471 H474 0.984 . S
N471 H475 0.985 . S
H472 N467 0.984 . S
H473 N467 0.985 . S
H474 N471 0.984 . S
H475 N471 0.985 . S
H476 N470 0.984 . S
H477 N470 0.984 . S
H478 N466 0.984 . S
H479 N466 0.985 . S
C480 C481 1.363 . S
C480 C486 1.379 . S
C480 N488 1.356 . S
C481 C480 1.363 . S
C481 C487 1.363 . S
C482 C483 1.363 . S
C482 C487 1.379 . S
C482 N489 1.356 . S
C483 C482 1.363 . S
C483 C486 1.363 . S
N484 C486 1.356 . S
N484 H496 0.984 . S
N484 H497 0.985 . S
N485 C487 1.356 . S
N485 H490 0.984 . S
N485 H491 0.985 . S
C486 C480 1.379 . S
C486 C483 1.363 . S
C486 N484 1.356 . S
C487 C481 1.363 . S
C487 C482 1.379 . S
C487 N485 1.356 . S
N488 C480 1.356 . S
N488 H494 0.984 . S
N488 H495 0.984 . S
N489 C482 1.356 . S
N489 H492 0.984 . S
N489 H493 0.985 . S
H490 N485 0.984 . S
H491 N485 0.985 . S
H492 N489 0.984 . S
H493 N489 0.985 . S
H494 N488 0.984 . S
H495 N488 0.984 . S
H496 N484 0.984 . S
H497 N484 0.985 . S
C498 C499 1.363 1_554 S
C498 C504 1.379 . S
C498 N506 1.356 . S
C499 C498 1.363 1_556 S
C499 C505 1.363 1_556 S
C500 C501 1.363 . S
C500 C505 1.379 . S
C500 N507 1.356 . S
C501 C500 1.363 . S
C501 C504 1.363 . S
N502 C504 1.356 . S
N502 H514 0.984 . S
N502 H515 0.985 . S
N503 C505 1.356 1_556 S
N503 H508 0.984 . S
N503 H509 0.985 . S
C504 C498 1.379 . S
C504 C501 1.363 . S
C504 N502 1.356 . S
C505 C499 1.363 1_554 S
C505 C500 1.379 . S
C505 N503 1.356 1_554 S
N506 C498 1.356 . S
N506 H512 0.984 . S
N506 H513 0.984 1_554 S
N507 C500 1.356 . S
N507 H510 0.984 . S
N507 H511 0.985 . S
H508 N503 0.984 . S
H509 N503 0.985 . S
H510 N507 0.984 . S
H511 N507 0.985 . S
H512 N506 0.984 . S
H513 N506 0.984 1_556 S
H514 N502 0.984 . S
H515 N502 0.985 . S
C516 C517 1.363 . S
C516 C522 1.379 . S
C516 N524 1.356 . S
C517 C516 1.363 . S
C517 C523 1.363 . S
C518 C519 1.363 . S
C518 C523 1.379 . S
C518 N525 1.356 . S
C519 C518 1.363 . S
C519 C522 1.363 . S
N520 C522 1.356 . S
N520 H532 0.984 . S
N520 H533 0.985 . S
N521 C523 1.356 . S
N521 H526 0.984 . S
N521 H527 0.985 . S
C522 C516 1.379 . S
C522 C519 1.363 . S
C522 N520 1.356 . S
C523 C517 1.363 . S
C523 C518 1.379 . S
C523 N521 1.356 . S
N524 C516 1.356 . S
N524 H530 0.984 . S
N524 H531 0.984 . S
N525 C518 1.356 . S
N525 H528 0.984 . S
N525 H529 0.985 . S
H526 N521 0.984 . S
H527 N521 0.985 . S
H528 N525 0.984 . S
H529 N525 0.985 . S
H530 N524 0.984 . S
H531 N524 0.984 . S
H532 N520 0.984 . S
H533 N520 0.985 . S
C534 C535 1.363 . S
C534 C540 1.379 . S
C534 N542 1.356 . S
C535 C534 1.363 . S
C535 C541 1.363 1_556 S
C536 C537 1.360 1_554 S
C536 C541 1.379 . S
C536 N543 1.356 . S
C537 C536 1.360 1_556 S
C537 C540 1.370 . S
N538 C540 1.356 . S
N538 H550 0.984 . S
N538 H551 0.985 . S
N539 C541 1.356 . S
N539 H544 0.984 1_554 S
N539 H545 0.985 . S
C540 C534 1.379 . S
C540 C537 1.370 . S
C540 N538 1.356 . S
C541 C535 1.363 1_554 S
C541 C536 1.379 . S
C541 N539 1.356 . S
N542 C534 1.356 . S
N542 H548 0.984 . S
N542 H549 0.984 . S
N543 C536 1.356 . S
N543 H546 0.984 . S
N543 H547 0.985 . S
H544 N539 0.984 1_556 S
H545 N539 0.985 . S
H546 N543 0.984 . S
H547 N543 0.985 . S
H548 N542 0.984 . S
H549 N542 0.984 . S
H550 N538 0.984 . S
H551 N538 0.985 . S
C552 C553 1.363 1_655 S
C552 C558 1.379 . S
C552 N560 1.356 . S
C553 C552 1.363 1_455 S
C553 C559 1.363 . S
C554 C555 1.363 . S
C554 C559 1.379 1_655 S
C554 N561 1.356 . S
C555 C554 1.363 . S
C555 C558 1.363 . S
N556 C558 1.356 . S
N556 H568 0.984 . S
N556 H569 0.985 . S
N557 C559 1.356 . S
N557 H562 0.984 . S
N557 H563 0.985 . S
C558 C552 1.379 . S
C558 C555 1.363 . S
C558 N556 1.356 . S
C559 C553 1.363 . S
C559 C554 1.379 1_455 S
C559 N557 1.356 . S
N560 C552 1.356 . S
N560 H566 0.984 . S
N560 H567 0.984 1_655 S
N561 C554 1.356 . S
N561 H564 0.984 . S
N561 H565 0.985 1_655 S
H562 N557 0.984 . S
H563 N557 0.985 . S
H564 N561 0.984 . S
H565 N561 0.985 1_455 S
H566 N560 0.984 . S
H567 N560 0.984 1_455 S
H568 N556 0.984 . S
H569 N556 0.985 . S
C570 C571 1.363 1_556 S
C570 C576 1.379 . S
C570 N578 1.356 . S
C571 C570 1.363 1_554 S
C571 C577 1.363 . S
C572 C573 1.363 1_554 S
C572 C577 1.379 . S
C572 N579 1.356 . S
C573 C572 1.363 1_556 S
C573 C576 1.363 . S
N574 C576 1.356 . S
N574 H586 0.984 . S
N574 H587 0.985 . S
N575 C577 1.356 . S
N575 H580 0.984 . S
N575 H581 0.985 . S
C576 C570 1.379 . S
C576 C573 1.363 . S
C576 N574 1.356 . S
C577 C571 1.363 . S
C577 C572 1.379 . S
C577 N575 1.356 . S
N578 C570 1.356 . S
N578 H584 0.984 . S
N578 H585 0.984 1_556 S
N579 C572 1.356 . S
N579 H582 0.984 . S
N579 H583 0.985 . S
H580 N575 0.984 . S
H581 N575 0.985 . S
H582 N579 0.984 . S
H583 N579 0.985 . S
H584 N578 0.984 . S
H585 N578 0.984 1_554 S
H586 N574 0.984 . S
H587 N574 0.985 . S
C588 C589 1.363 . S
C588 C594 1.379 1_455 S
C588 N596 1.356 . S
C589 C588 1.363 . S
C589 C595 1.363 1_455 S
C590 C591 1.363 . S
C590 C595 1.379 . S
C590 N597 1.356 . S
C591 C590 1.363 . S
C591 C594 1.363 . S
N592 C594 1.356 . S
N592 H604 0.984 1_655 S
N592 H605 0.985 . S
N593 C595 1.356 . S
N593 H598 0.984 1_655 S
N593 H599 0.985 . S
C594 C588 1.379 1_655 S
C594 C591 1.363 . S
C594 N592 1.356 . S
C595 C589 1.363 1_655 S
C595 C590 1.379 . S
C595 N593 1.356 . S
N596 C588 1.356 . S
N596 H602 0.984 . S
N596 H603 0.984 . S
N597 C590 1.356 . S
N597 H600 0.984 . S
N597 H601 0.985 . S
H598 N593 0.984 1_455 S
H599 N593 0.985 . S
H600 N597 0.984 . S
H601 N597 0.985 . S
H602 N596 0.984 . S
H603 N596 0.984 . S
H604 N592 0.984 1_455 S
H605 N592 0.985 . S
C606 C607 1.363 . S
C606 C612 1.379 . S
C606 N614 1.356 . S
C607 C606 1.363 . S
C607 C613 1.363 . S
C608 C609 1.361 1_554 S
C608 C613 1.379 1_554 S
C608 N615 1.356 . S
C609 C608 1.361 1_556 S
C609 C612 1.369 . S
N610 C612 1.356 . S
N610 H622 0.984 . S
N610 H623 0.985 . S
N611 C613 1.356 . S
N611 H616 0.984 . S
N611 H617 0.985 1_556 S
C612 C606 1.379 . S
C612 C609 1.369 . S
C612 N610 1.356 . S
C613 C607 1.363 . S
C613 C608 1.379 1_556 S
C613 N611 1.356 . S
N614 C606 1.356 . S
N614 H620 0.984 . S
N614 H621 0.984 . S
N615 C608 1.356 . S
N615 H618 0.984 . S
N615 H619 0.985 . S
H616 N611 0.984 . S
H617 N611 0.985 1_554 S
H618 N615 0.984 . S
H619 N615 0.985 . S
H620 N614 0.984 . S
H621 N614 0.984 . S
H622 N610 0.984 . S
H623 N610 0.985 . S
C265 C28 1.339 . S
C267 C127 1.339 . S
C283 C41 1.325 . S
C285 C94 1.335 . S
C301 N80 1.623 1_655 S
C303 N38 1.584 . S
C319 N113 1.672 . S
C321 N14 1.672 1_655 S
C337 C160 1.339 . S
C339 C259 1.339 . S
C355 C226 1.335 . S
C357 C173 1.325 . S
C373 N170 1.584 . S
C375 N212 1.623 . S
C391 N245 1.672 . S
C393 N146 1.672 . S
C409 C83 1.540 . S
C411 C17 1.540 . S
C427 C50 1.478 . S
C429 C116 1.484 . S
C445 C215 1.540 . S
C447 C149 1.540 . S
C463 C248 1.484 . S
C465 C182 1.478 . S
C481 N5 1.440 . S
C483 C206 1.513 . S
C499 N47 1.488 . S
C501 C239 1.520 . S
C517 N71 1.433 . S
C519 C140 1.505 . S
C535 C193 1.501 . S
C537 N104 1.427 1_556 S
C553 C74 1.513 . S
C555 N137 1.440 . S
C571 C107 1.520 . S
C573 N179 1.488 . S
C589 C8 1.505 . S
C591 N203 1.433 . S
C607 C61 1.501 . S
C609 N236 1.427 1_556 S
