# Generated by pormake.
# Topology ftb, (5)-cn, num edge types: 1
# Building blocks:
#     Node 0, Type 0, BuildingBlock: BEQFEK_clean_sbu_0, # of connection points: 5
#     Node 1, Type 0, BuildingBlock: BEQFEK_clean_sbu_0, # of connection points: 5
#     Node 2, Type 0, BuildingBlock: BEQFEK_clean_sbu_0, # of connection points: 5
#     Node 3, Type 0, BuildingBlock: BEQFEK_clean_sbu_0, # of connection points: 5
#     Node 4, Type 0, BuildingBlock: BEQFEK_clean_sbu_0, # of connection points: 5
#     Node 5, Type 0, BuildingBlock: BEQFEK_clean_sbu_0, # of connection points: 5
#     Node 6, Type 0, BuildingBlock: BEQFEK_clean_sbu_0, # of connection points: 5
#     Node 7, Type 0, BuildingBlock: BEQFEK_clean_sbu_0, # of connection points: 5
#     Edge 8, Type (0, 0), BuildingBlock: FUNLAD_clean_linker_1, # of connection points: 2
#     Edge 9, Type (0, 0), BuildingBlock: FUNLAD_clean_linker_1, # of connection points: 2
#     Edge 10, Type (0, 0), BuildingBlock: FUNLAD_clean_linker_1, # of connection points: 2
#     Edge 11, Type (0, 0), BuildingBlock: FUNLAD_clean_linker_1, # of connection points: 2
#     Edge 12, Type (0, 0), BuildingBlock: FUNLAD_clean_linker_1, # of connection points: 2
#     Edge 13, Type (0, 0), BuildingBlock: FUNLAD_clean_linker_1, # of connection points: 2
#     Edge 14, Type (0, 0), BuildingBlock: FUNLAD_clean_linker_1, # of connection points: 2
#     Edge 15, Type (0, 0), BuildingBlock: FUNLAD_clean_linker_1, # of connection points: 2
#     Edge 16, Type (0, 0), BuildingBlock: FUNLAD_clean_linker_1, # of connection points: 2
#     Edge 17, Type (0, 0), BuildingBlock: FUNLAD_clean_linker_1, # of connection points: 2
#     Edge 18, Type (0, 0), BuildingBlock: FUNLAD_clean_linker_1, # of connection points: 2
#     Edge 19, Type (0, 0), BuildingBlock: FUNLAD_clean_linker_1, # of connection points: 2
#     Edge 20, Type (0, 0), BuildingBlock: FUNLAD_clean_linker_1, # of connection points: 2
#     Edge 21, Type (0, 0), BuildingBlock: FUNLAD_clean_linker_1, # of connection points: 2
#     Edge 22, Type (0, 0), BuildingBlock: FUNLAD_clean_linker_1, # of connection points: 2
#     Edge 23, Type (0, 0), BuildingBlock: FUNLAD_clean_linker_1, # of connection points: 2
#     Edge 24, Type (0, 0), BuildingBlock: FUNLAD_clean_linker_1, # of connection points: 2
#     Edge 25, Type (0, 0), BuildingBlock: FUNLAD_clean_linker_1, # of connection points: 2
#     Edge 26, Type (0, 0), BuildingBlock: FUNLAD_clean_linker_1, # of connection points: 2
#     Edge 27, Type (0, 0), BuildingBlock: FUNLAD_clean_linker_1, # of connection points: 2
# Relax obj value: 0.133
# Max RMSD: 0.202
# Mean RMSD: 0.202
data_MOF--net-ftb--node1-BEQFEK_clean_sbu_0--edge1-FUNLAD_clean_linker_1
_symmetry_space_group_name_H-M    P1
_symmetry_Int_Tables_number       1
_symmetry_cell_setting            triclinic
loop_
_symmetry_equiv_pos_as_xyz
'x, y, z'
_cell_length_a     58.76058
_cell_length_b     15.863703
_cell_length_c     36.716714
_cell_angle_alpha  90.155372
_cell_angle_beta   92.948948
_cell_angle_gamma 89.890514
loop_
_atom_site_label
_atom_site_type_symbol
_atom_site_fract_x
_atom_site_fract_y
_atom_site_fract_z
_atom_type_partial_charge
Co0 Co 0.34382 0.04631 0.11336 0.0
Co1 Co 0.3418 0.97759 0.0325 0.0
C2 C 0.30963 0.91578 0.08415 0.0
O3 O 0.31803 0.96645 0.10824 0.0
O4 O 0.31782 0.90829 0.05285 0.0
C5 C 0.34479 0.02619 0.19124 0.0
O6 O 0.33959 0.94749 0.18357 0.0
C7 C 0.33687 0.89316 0.96012 0.0
C8 C 0.36306 0.96058 0.93049 0.0
C9 C 0.34672 0.89794 0.92659 0.0
N10 N 0.34711 0.9498 0.98285 0.0
N11 N 0.3626 0.99026 0.96479 0.0
C12 C 0.31827 0.83538 0.97079 0.0
H13 H 0.30314 0.87342 0.97733 0.0
H14 H 0.32396 0.80072 0.99585 0.0
H15 H 0.31347 0.78959 0.94886 0.0
C16 C 0.39105 0.98728 0.11077 0.0
N17 N 0.37009 0.99885 0.09521 0.0
N18 N 0.36925 0.96757 0.06194 0.0
C19 C 0.38961 0.93275 0.05565 0.0
C20 C 0.40415 0.94549 0.08618 0.0
C21 C 0.39856 0.0198 0.14776 0.0
H22 H 0.3914 0.0837 0.15182 0.0
H23 H 0.39191 0.97761 0.16878 0.0
H24 H 0.41739 0.02241 0.15148 0.0
O25 O 0.33485 0.14834 0.08674 0.0
O26 O 0.32918 0.09374 0.03129 0.0
H27 H 0.40031 0.92452 1.00097 0.0
H28 H 0.40808 0.83486 0.02882 0.0
C29 C 0.39447 0.88199 0.02249 0.0
H30 H 0.37886 0.84886 0.01203 0.0
H31 H 0.37287 0.0384 0.97594 0.0
O32 O 0.34801 0.07762 0.16552 0.0
C33 C 0.32781 0.15483 0.05362 0.0
Co34 Co 0.63919 0.06153 0.0377 0.0
Co35 Co 0.64075 0.01159 0.12109 0.0
C36 C 0.67151 0.93065 0.07029 0.0
O37 O 0.66267 0.9727 0.04366 0.0
O38 O 0.66479 0.93818 0.10263 0.0
C39 C 0.6305 0.03464 0.9598 0.0
O40 O 0.62682 0.95555 0.96806 0.0
C41 C 0.64007 0.92355 0.19265 0.0
C42 C 0.61875 0.01251 0.22254 0.0
C43 C 0.63001 0.93618 0.22567 0.0
N44 N 0.63494 0.99006 0.17101 0.0
N45 N 0.62247 0.04331 0.1893 0.0
C46 C 0.65221 0.84631 0.18043 0.0
H47 H 0.67084 0.85547 0.18525 0.0
H48 H 0.64859 0.83575 0.15083 0.0
H49 H 0.647 0.78997 0.19577 0.0
C50 C 0.59064 0.01753 0.044 0.0
N51 N 0.61208 0.02687 0.05811 0.0
N52 N 0.61319 -4e-05 0.09204 0.0
C53 C 0.5927 0.96915 0.10004 0.0
C54 C 0.5777 0.98073 0.07002 0.0
C55 C 0.58234 0.04711 0.00699 0.0
H56 H 0.59251 0.10171 0.99845 0.0
H57 H 0.58399 0.99501 0.98709 0.0
H58 H 0.56411 0.06552 0.00688 0.0
O59 O 0.65126 0.16339 0.06179 0.0
O60 O 0.65292 0.12817 0.1203 0.0
H61 H 0.58432 0.96639 0.15602 0.0
H62 H 0.57385 0.87714 0.12968 0.0
C63 C 0.58833 0.92137 0.13409 0.0
H64 H 0.60365 0.88454 0.14294 0.0
H65 H 0.61584 0.0996 0.17856 0.0
O66 O 0.63521 0.08786 0.98501 0.0
C67 C 0.65631 0.18068 0.09506 0.0
Co68 Co 0.33998 0.59023 0.598 0.0
Co69 Co 0.34477 0.49792 0.52233 0.0
C70 C 0.3272 0.40648 0.58391 0.0
O71 O 0.32879 0.474 0.6027 0.0
O72 O 0.33366 0.40251 0.55135 0.0
C73 C 0.3505 0.59835 0.67439 0.0
O74 O 0.36 0.52508 0.66823 0.0
C75 C 0.35038 0.39376 0.45537 0.0
C76 C 0.36309 0.49155 0.41874 0.0
C77 C 0.35722 0.40739 0.42012 0.0
N78 N 0.35191 0.46737 0.47371 0.0
N79 N 0.35946 0.52532 0.45155 0.0
C80 C 0.344 0.3119 0.47217 0.0
H81 H 0.34989 0.31062 0.50132 0.0
H82 H 0.35162 0.25781 0.45791 0.0
H83 H 0.32517 0.30553 0.47043 0.0
C84 C 0.38918 0.61827 0.58912 0.0
N85 N 0.36854 0.5907 0.57681 0.0
N86 N 0.37076 0.54733 0.5466 0.0
C87 C 0.393 0.54276 0.53957 0.0
C88 C 0.40538 0.58905 0.56604 0.0
C89 C 0.39354 0.66857 0.62328 0.0
H90 H 0.37867 0.70924 0.62838 0.0
H91 H 0.3965 0.62494 0.64661 0.0
H92 H 0.40894 0.70839 0.62131 0.0
O93 O 0.31703 0.65026 0.56765 0.0
O94 O 0.31923 0.58008 0.51549 0.0
H95 H 0.40423 0.51806 0.48607 0.0
H96 H 0.41898 0.45771 0.52145 0.0
C97 C 0.4022 0.48368 0.51197 0.0
H98 H 0.39038 0.43017 0.5068 0.0
H99 H 0.36221 0.5882 0.45895 0.0
O100 O 0.34131 0.63964 0.64786 0.0
C101 C 0.31005 0.63603 0.53484 0.0
Co102 Co 0.64916 0.57898 0.54555 0.0
Co103 Co 0.64048 0.47659 0.61706 0.0
C104 C 0.66538 0.39924 0.55798 0.0
O105 O 0.66357 0.46725 0.53963 0.0
O106 O 0.65655 0.39119 0.58873 0.0
C107 C 0.64495 0.60774 0.4681 0.0
O108 O 0.63654 0.53104 0.46661 0.0
C109 C 0.63898 0.36576 0.68139 0.0
C110 C 0.61274 0.42889 0.71281 0.0
C111 C 0.62767 0.36114 0.71361 0.0
N112 N 0.63075 0.43218 0.66213 0.0
N113 N 0.6153 0.47014 0.68134 0.0
C114 C 0.65767 0.30978 0.66924 0.0
H115 H 0.67224 0.34898 0.66134 0.0
H116 H 0.65143 0.27423 0.64466 0.0
H117 H 0.66346 0.26445 0.69072 0.0
C118 C 0.59888 0.59408 0.5448 0.0
N119 N 0.61899 0.56833 0.56018 0.0
N120 N 0.61525 0.52005 0.58836 0.0
C121 C 0.5926 0.50976 0.59051 0.0
C122 C 0.58154 0.55844 0.56364 0.0
C123 C 0.59625 0.65128 0.51252 0.0
H124 H 0.61054 0.69683 0.51267 0.0
H125 H 0.59637 0.61301 0.48721 0.0
H126 H 0.57984 0.68612 0.51251 0.0
O127 O 0.66803 0.64008 0.58199 0.0
O128 O 0.66302 0.56539 0.63195 0.0
H129 H 0.57477 0.46986 0.63697 0.0
H130 H 0.56797 0.4114 0.5959 0.0
C131 C 0.58201 0.44207 0.61235 0.0
H132 H 0.59475 0.39325 0.6206 0.0
H133 H 0.60691 0.52577 0.67342 0.0
O134 O 0.65091 0.64016 0.49877 0.0
C135 C 0.67246 0.62553 0.61564 0.0
Co136 Co 0.84395 0.07465 0.61077 0.0
Co137 Co 0.84665 0.97673 0.53511 0.0
C138 C 0.82217 0.90336 0.59548 0.0
O139 O 0.82651 0.96853 0.61503 0.0
O140 O 0.82947 0.89518 0.56355 0.0
C141 C 0.84617 0.09002 0.68932 0.0
O142 O 0.84561 0.00735 0.6882 0.0
C143 C 0.84463 0.86703 0.46876 0.0
C144 C 0.86852 0.93319 0.43424 0.0
C145 C 0.85417 0.86406 0.43485 0.0
N146 N 0.85328 0.93392 0.48748 0.0
N147 N 0.86733 0.97353 0.46638 0.0
C148 C 0.82748 0.80803 0.48324 0.0
H149 H 0.83492 0.77724 0.50822 0.0
H150 H 0.82216 0.75894 0.46301 0.0
H151 H 0.81236 0.8445 0.49118 0.0
C152 C 0.89355 0.06933 0.60682 0.0
N153 N 0.87255 0.05232 0.59258 0.0
N154 N 0.87405 0.00855 0.56223 0.0
C155 C 0.89627 0.99368 0.55704 0.0
C156 C 0.90928 0.03338 0.58473 0.0
C157 C 0.89829 0.11994 0.64083 0.0
H158 H 0.88671 0.17522 0.64096 0.0
H159 H 0.89494 0.08041 0.66485 0.0
H160 H 0.91621 0.14203 0.64319 0.0
O161 O 0.82649 0.14871 0.57737 0.0
O162 O 0.82561 0.07401 0.52594 0.0
H163 H 0.90943 0.96733 0.50493 0.0
H164 H 0.92015 0.89932 0.54088 0.0
C165 C 0.90475 0.93269 0.52963 0.0
H166 H 0.89146 0.88548 0.52197 0.0
H167 H 0.87587 0.0292 0.47372 0.0
O168 O 0.84616 0.13136 0.65966 0.0
C169 C 0.81961 0.13769 0.54436 0.0
Co170 Co 0.15048 0.11871 0.5585 0.0
Co171 Co 0.14552 0.03239 0.6354 0.0
C172 C 0.16636 0.94006 0.57588 0.0
O173 O 0.16367 0.0039 0.555 0.0
O174 O 0.1599 0.94021 0.60851 0.0
C175 C 0.146 0.13132 0.47983 0.0
O176 O 0.14127 0.05047 0.48079 0.0
C177 C 0.14029 0.9322 0.70363 0.0
C178 C 0.12295 0.02741 0.73654 0.0
C179 C 0.13148 0.9462 0.73764 0.0
N180 N 0.13726 0.00285 0.68363 0.0
N181 N 0.12695 0.05928 0.70361 0.0
C182 C 0.15007 0.85217 0.68949 0.0
H183 H 0.14622 0.84659 0.65972 0.0
H184 H 0.14306 0.79657 0.70332 0.0
H185 H 0.16886 0.85304 0.69451 0.0
C186 C 0.10061 0.12886 0.5618 0.0
N187 N 0.1214 0.11207 0.57712 0.0
N188 N 0.11921 0.07184 0.60803 0.0
C189 C 0.0969 0.05865 0.61264 0.0
C190 C 0.08437 0.0959 0.58374 0.0
C191 C 0.09643 0.17057 0.52556 0.0
H192 H 0.10911 0.22127 0.52217 0.0
H193 H 0.09827 0.12317 0.50364 0.0
H194 H 0.07902 0.19776 0.52281 0.0
O195 O 0.17094 0.18654 0.59042 0.0
O196 O 0.16944 0.11951 0.64324 0.0
H197 H 0.08422 0.03345 0.66509 0.0
H198 H 0.07272 0.96538 0.62937 0.0
C199 C 0.0883 0.99829 0.64009 0.0
H200 H 0.1014 0.95001 0.64727 0.0
H201 H 0.12258 0.11983 0.69464 0.0
O202 O 0.14996 0.1716 0.50942 0.0
C203 C 0.17758 0.17677 0.62358 0.0
Co204 Co 0.84242 0.56426 0.10833 0.0
Co205 Co 0.84107 0.5527 0.02121 0.0
C206 C 0.80742 0.46265 0.06488 0.0
O207 O 0.81641 0.48797 0.09538 0.0
O208 O 0.81556 0.48178 0.03456 0.0
C209 C 0.85086 0.52605 0.18807 0.0
O210 O 0.85467 0.44669 0.1802 0.0
C211 C 0.84181 0.47768 0.94675 0.0
C212 C 0.85556 0.58376 0.91588 0.0
C213 C 0.84823 0.50119 0.91216 0.0
N214 N 0.84521 0.54377 0.96958 0.0
N215 N 0.8532 0.60707 0.95076 0.0
C216 C 0.83478 0.39216 0.95902 0.0
H217 H 0.83746 0.3862 0.98903 0.0
H218 H 0.84468 0.34244 0.9455 0.0
H219 H 0.81642 0.38277 0.95157 0.0
C220 C 0.89048 0.51616 0.09801 0.0
N221 N 0.86907 0.53192 0.08498 0.0
N222 N 0.86819 0.5241 0.04915 0.0
C223 C 0.88884 0.50041 0.03849 0.0
C224 C 0.90368 0.49598 0.06907 0.0
C225 C 0.89866 0.52769 0.13696 0.0
H226 H 0.88949 0.58077 0.14935 0.0
H227 H 0.8953 0.46923 0.15225 0.0
H228 H 0.91725 0.54032 0.13934 0.0
O229 O 0.83298 0.67572 0.09162 0.0
O230 O 0.83112 0.66995 0.03106 0.0
H231 H 0.89441 0.53554 0.98344 0.0
H232 H 0.91006 0.44252 0.99865 0.0
C233 C 0.89377 0.47745 1.00011 0.0
H234 H 0.88002 0.43658 0.98846 0.0
H235 H 0.85753 0.66578 0.96196 0.0
O236 O 0.84637 0.57865 0.16259 0.0
C237 C 0.82857 0.70958 0.06082 0.0
Co238 Co 0.14285 0.56231 0.04376 0.0
Co239 Co 0.1378 0.48786 0.12307 0.0
C240 C 0.17211 0.41972 0.07572 0.0
O241 O 0.16624 0.47375 0.05138 0.0
O242 O 0.1619 0.41316 0.10537 0.0
C243 C 0.15946 0.59203 0.97288 0.0
O244 O 0.17813 0.55773 0.98737 0.0
C245 C 0.13505 0.39377 0.19297 0.0
C246 C 0.10814 0.46707 0.21875 0.0
C247 C 0.12251 0.3987 0.22399 0.0
N248 N 0.12832 0.45687 0.1704 0.0
N249 N 0.11244 0.50086 0.18627 0.0
C250 C 0.15213 0.32797 0.18388 0.0
H251 H 0.16942 0.3562 0.18571 0.0
H252 H 0.14869 0.30598 0.15542 0.0
H253 H 0.15166 0.27339 0.20264 0.0
C254 C 0.09425 0.51997 0.03775 0.0
N255 N 0.11441 0.52272 0.05672 0.0
N256 N 0.11236 0.48836 0.08896 0.0
C257 C 0.09087 0.4602 0.09109 0.0
C258 C 0.0786 0.48115 0.05903 0.0
C259 C 0.09011 0.55734 1.0006 0.0
H260 H 0.09717 0.62216 1.00035 0.0
H261 H 0.09925 0.51926 0.98057 0.0
H262 H 0.07172 0.5593 0.9922 0.0
O263 O 0.15265 0.65751 0.07419 0.0
O264 O 0.15157 0.60189 0.12951 0.0
H265 H 0.07642 0.44823 0.14313 0.0
H266 H 0.06882 0.36468 0.11164 0.0
C267 C 0.08287 0.40696 0.12152 0.0
H268 H 0.09709 0.36813 0.13334 0.0
H269 H 0.10433 0.55361 0.17465 0.0
O270 O 0.14206 0.59944 0.99188 0.0
C271 C 0.15632 0.66244 0.10856 0.0
H272 H 0.37067 0.36424 0.36856 0.0
C273 C 0.35847 0.34921 0.38887 0.0
H274 H 0.32988 0.27484 0.40003 0.0
H275 H 0.30933 0.20595 0.23101 0.0
H276 H 0.27701 0.29249 0.2459 0.0
H277 H 0.27484 0.35592 0.30707 0.0
H278 H 0.30491 0.33287 0.35374 0.0
C279 C 0.34367 0.28606 0.38209 0.0
C280 C 0.34376 0.23953 0.34682 0.0
C281 C 0.32591 0.2531 0.32 0.0
C282 C 0.32729 0.21738 0.28462 0.0
C283 C 0.30928 0.23231 0.25823 0.0
C284 C 0.2906 0.28173 0.26642 0.0
C285 C 0.28937 0.31737 0.30086 0.0
C286 C 0.30677 0.30357 0.32742 0.0
H287 H 0.34263 0.00968 0.25072 0.0
C288 C 0.34552 0.05539 0.22945 0.0
H289 H 0.35041 0.18379 0.21704 0.0
H290 H 0.37904 0.1908 0.39361 0.0
H291 H 0.41157 0.1051 0.37863 0.0
H292 H 0.41494 0.04896 0.3164 0.0
H293 H 0.38571 0.07714 0.26893 0.0
C294 C 0.3485 0.13701 0.23823 0.0
C295 C 0.34647 0.16808 0.27616 0.0
C296 C 0.36395 0.15206 0.30335 0.0
C297 C 0.3624 0.18682 0.3389 0.0
C298 C 0.37975 0.16808 0.36587 0.0
C299 C 0.39843 0.1186 0.3577 0.0
C300 C 0.4003 0.0868 0.32269 0.0
C301 C 0.38333 0.1032 0.29571 0.0
H302 H 0.61297 0.87814 0.2711 0.0
C303 C 0.62891 0.87988 0.25734 0.0
H304 H 0.66342 0.84255 0.25919 0.0
H305 H 0.61779 0.7788 0.42206 0.0
H306 H 0.61153 0.92965 0.42333 0.0
H307 H 0.62282 0.01938 0.37255 0.0
H308 H 0.63943 0.95795 0.31954 0.0
C309 C 0.64723 0.83947 0.27213 0.0
C310 C 0.6457 0.78917 0.30626 0.0
C311 C 0.63803 0.82728 0.3385 0.0
C312 C 0.63361 0.77674 0.36926 0.0
C313 C 0.6232 0.81494 0.39915 0.0
C314 C 0.61925 0.90148 0.40006 0.0
C315 C 0.62545 0.95189 0.37138 0.0
C316 C 0.63474 0.91561 0.34092 0.0
H317 H 0.65784 0.71411 0.43688 0.0
C318 C 0.64746 0.65748 0.43475 0.0
H319 H 0.62648 0.58056 0.40026 0.0
H320 H 0.66144 0.69652 0.24968 0.0
H321 H 0.67107 0.54797 0.25052 0.0
H322 H 0.66693 0.46293 0.30592 0.0
H323 H 0.65281 0.52562 0.36062 0.0
C324 C 0.63673 0.63745 0.40269 0.0
C325 C 0.63937 0.68971 0.36941 0.0
C326 C 0.64814 0.65244 0.33783 0.0
C327 C 0.65105 0.70196 0.30611 0.0
C328 C 0.65918 0.66238 0.27467 0.0
C329 C 0.66478 0.57703 0.27476 0.0
C330 C 0.66243 0.52913 0.30593 0.0
C331 C 0.65424 0.56599 0.33716 0.0
H332 H 0.36364 0.6052 0.7316 0.0
C333 C 0.35159 0.63324 0.71167 0.0
H334 H 0.3261 0.72527 0.70182 0.0
H335 H 0.34651 0.68787 0.88377 0.0
H336 H 0.33312 0.54429 0.87659 0.0
H337 H 0.32152 0.48778 0.81578 0.0
H338 H 0.324 0.57398 0.7617 0.0
C339 C 0.33812 0.69689 0.72169 0.0
C340 C 0.34059 0.73506 0.75888 0.0
C341 C 0.33753 0.68569 0.79047 0.0
C342 C 0.34266 0.72026 0.82578 0.0
C343 C 0.34156 0.66686 0.8565 0.0
C344 C 0.33408 0.58386 0.85274 0.0
C345 C 0.32767 0.55189 0.8185 0.0
C346 C 0.32937 0.60186 0.78764 0.0
H347 H 0.32383 0.82268 0.88911 0.0
C348 C 0.34065 0.8507 0.89266 0.0
H349 H 0.37214 0.87257 0.86951 0.0
H350 H 0.34701 0.84873 0.70417 0.0
H351 H 0.35684 0.99608 0.71147 0.0
H352 H 0.36257 0.05928 0.77268 0.0
H353 H 0.35879 0.97514 0.82694 0.0
C354 C 0.3554 0.84371 0.86598 0.0
C355 C 0.3491 0.80623 0.82954 0.0
C356 C 0.35066 0.857 0.79798 0.0
C357 C 0.34671 0.82117 0.76266 0.0
C358 C 0.34933 0.87277 0.73169 0.0
C359 C 0.35503 0.95761 0.73545 0.0
C360 C 0.3583 0.99314 0.7699 0.0
C361 C 0.35617 0.94384 0.80086 0.0
H362 H 0.64912 0.27705 0.74926 0.0
C363 C 0.63222 0.3042 0.74494 0.0
H364 H 0.59945 0.31762 0.76478 0.0
H365 H 0.65256 0.01683 0.86714 0.0
H366 H 0.65674 0.93852 0.81113 0.0
H367 H 0.64354 0.99836 0.75178 0.0
H368 H 0.62677 0.13795 0.74806 0.0
C369 C 0.6163 0.28995 0.76921 0.0
C370 C 0.62172 0.24796 0.8049 0.0
C371 C 0.63004 0.1639 0.80673 0.0
C372 C 0.63612 0.12692 0.84119 0.0
C373 C 0.64636 0.046 0.84198 0.0
C374 C 0.64906 0.0006 0.80996 0.0
C375 C 0.64174 0.03446 0.77654 0.0
C376 C 0.63232 0.11506 0.77477 0.0
H377 H 0.61641 0.0268 0.90291 0.0
C378 C 0.62742 0.06316 0.92171 0.0
H379 H 0.64864 0.16904 0.92945 0.0
H380 H 0.60715 0.41178 0.81146 0.0
H381 H 0.60052 0.48616 0.86749 0.0
H382 H 0.60744 0.41709 0.92712 0.0
H383 H 0.6214 0.27378 0.93103 0.0
C384 C 0.63759 0.13353 0.91037 0.0
C385 C 0.63214 0.17156 0.87385 0.0
C386 C 0.62319 0.25468 0.87199 0.0
C387 C 0.61839 0.29341 0.83757 0.0
C388 C 0.61046 0.37796 0.83672 0.0
C389 C 0.60666 0.42179 0.86875 0.0
C390 C 0.61061 0.38301 0.9023 0.0
C391 C 0.61875 0.30058 0.9041 0.0
H392 H 0.84593 0.09451 0.74938 0.0
C393 C 0.84605 0.13334 0.72503 0.0
H394 H 0.84465 0.25728 0.70425 0.0
H395 H 0.79831 0.42096 0.83844 0.0
H396 H 0.76766 0.42775 0.79169 0.0
H397 H 0.77117 0.35697 0.73233 0.0
H398 H 0.80538 0.27929 0.71926 0.0
C399 C 0.84543 0.21777 0.72842 0.0
C400 C 0.84343 0.25937 0.7647 0.0
C401 C 0.82322 0.30394 0.77211 0.0
C402 C 0.82106 0.34387 0.80657 0.0
C403 C 0.80078 0.38874 0.81293 0.0
C404 C 0.78305 0.39325 0.78631 0.0
C405 C 0.78503 0.35347 0.75288 0.0
C406 C 0.80481 0.3092 0.74571 0.0
H407 H 0.86159 0.47407 0.85843 0.0
C408 C 0.84981 0.45147 0.87809 0.0
H409 H 0.82365 0.36362 0.88675 0.0
H410 H 0.88544 0.1869 0.75846 0.0
H411 H 0.91553 0.17598 0.80589 0.0
H412 H 0.91069 0.23641 0.86699 0.0
H413 H 0.8759 0.30952 0.88079 0.0
C414 C 0.83698 0.38355 0.86936 0.0
C415 C 0.8391 0.3392 0.8337 0.0
C416 C 0.85919 0.2935 0.8265 0.0
C417 C 0.86156 0.25517 0.79175 0.0
C418 C 0.88232 0.2142 0.78475 0.0
C419 C 0.89982 0.20794 0.81169 0.0
C420 C 0.89713 0.24224 0.84604 0.0
C421 C 0.87711 0.28453 0.85352 0.0
H422 H 0.17477 0.61652 0.92036 0.0
C423 C 0.15948 0.62532 0.93541 0.0
H424 H 0.12687 0.68188 0.93532 0.0
H425 H 0.15925 0.95872 0.8232 0.0
H426 H 0.16471 0.03686 0.87978 0.0
H427 H 0.16046 0.96728 0.93904 0.0
H428 H 0.1509 0.81885 0.94204 0.0
C429 C 0.14195 0.66945 0.92021 0.0
C430 C 0.14383 0.71111 0.88424 0.0
C431 C 0.14883 0.79835 0.88292 0.0
C432 C 0.15078 0.83886 0.84872 0.0
C433 C 0.1568 0.92529 0.84832 0.0
C434 C 0.16017 0.97082 0.88064 0.0
C435 C 0.15781 0.93162 0.914 0.0
C436 C 0.15229 0.84639 0.91532 0.0
H437 H 0.11746 0.90414 0.78882 0.0
C438 C 0.1308 0.89154 0.77007 0.0
H439 H 0.16142 0.82435 0.7628 0.0
H440 H 0.1341 0.54313 0.87726 0.0
H441 H 0.12895 0.46441 0.82063 0.0
H442 H 0.13206 0.53486 0.76126 0.0
H443 H 0.14034 0.68454 0.75812 0.0
C444 C 0.14727 0.83616 0.77997 0.0
C445 C 0.14704 0.79248 0.81583 0.0
C446 C 0.14252 0.70487 0.81719 0.0
C447 C 0.14083 0.66414 0.85145 0.0
C448 C 0.13581 0.57694 0.852 0.0
C449 C 0.13275 0.5311 0.8197 0.0
C450 C 0.13449 0.57078 0.78627 0.0
C451 C 0.13926 0.65668 0.78485 0.0
H452 H 0.83219 0.7765 0.40138 0.0
C453 C 0.84884 0.80616 0.40374 0.0
H454 H 0.88037 0.82375 0.38029 0.0
H455 H 0.83031 0.50906 0.2823 0.0
H456 H 0.82773 0.43292 0.33903 0.0
H457 H 0.84032 0.49822 0.39767 0.0
H458 H 0.85482 0.64105 0.40002 0.0
C459 C 0.86378 0.79348 0.37761 0.0
C460 C 0.85777 0.74926 0.3423 0.0
C461 C 0.85079 0.66352 0.34121 0.0
C462 C 0.84515 0.62349 0.30705 0.0
C463 C 0.83621 0.54069 0.30712 0.0
C464 C 0.83441 0.49648 0.33956 0.0
C465 C 0.84138 0.53341 0.37259 0.0
C466 C 0.8495 0.61585 0.37357 0.0
H467 H 0.86506 0.52134 0.2451 0.0
C468 C 0.85373 0.55613 0.22624 0.0
H469 H 0.83171 0.65968 0.21824 0.0
H470 H 0.86909 0.91568 0.33405 0.0
H471 H 0.8742 0.98848 0.27731 0.0
H472 H 0.86843 0.91484 0.21836 0.0
H473 H 0.85714 0.76849 0.2158 0.0
C474 C 0.84311 0.62619 0.23748 0.0
C475 C 0.84827 0.66691 0.27385 0.0
C476 C 0.85576 0.75202 0.27501 0.0
C477 C 0.86001 0.79358 0.30911 0.0
C478 C 0.86637 0.87982 0.30913 0.0
C479 C 0.86926 0.92276 0.27668 0.0
C480 C 0.86594 0.8814 0.24351 0.0
C481 C 0.85931 0.7972 0.24249 0.0
H482 H 0.15313 0.24085 0.44551 0.0
C483 C 0.14666 0.17667 0.44489 0.0
H484 H 0.13286 0.07824 0.41197 0.0
H485 H 0.12334 0.43899 0.3158 0.0
H486 H 0.10033 0.49126 0.36388 0.0
H487 H 0.09346 0.4036 0.4176 0.0
H488 H 0.11035 0.26483 0.42417 0.0
C489 C 0.13901 0.1428 0.41297 0.0
C490 C 0.13985 0.19029 0.37797 0.0
C491 C 0.12821 0.26837 0.37321 0.0
C492 C 0.13045 0.3157 0.34073 0.0
C493 C 0.1208 0.39761 0.33858 0.0
C494 C 0.10775 0.42887 0.3662 0.0
C495 C 0.10402 0.37978 0.39654 0.0
C496 C 0.11404 0.30045 0.40014 0.0
H497 H 0.10686 0.32895 0.26783 0.0
C498 C 0.12307 0.34466 0.2566 0.0
H499 H 0.15883 0.3437 0.26527 0.0
H500 H 0.16486 0.04429 0.37834 0.0
H501 H 0.18601 0.98859 0.32867 0.0
H502 H 0.18708 0.06486 0.27034 0.0
H503 H 0.16725 0.19791 0.26149 0.0
C504 C 0.14254 0.32583 0.27565 0.0
C505 C 0.14234 0.28107 0.31141 0.0
C506 C 0.15369 0.20255 0.31595 0.0
C507 C 0.15265 0.15759 0.34936 0.0
C508 C 0.16469 0.08042 0.35339 0.0
C509 C 0.17696 0.04775 0.3251 0.0
C510 C 0.17758 0.09073 0.29228 0.0
C511 C 0.16612 0.16717 0.28758 0.0
H512 H 0.54596 0.94598 0.03895 0.0
C513 C 0.55325 0.96108 0.066 0.0
H514 H 0.54606 0.99339 0.12009 0.0
H515 H 0.44585 0.10341 0.06899 0.0
H516 H 0.46367 0.23973 0.07947 0.0
H517 H 0.50507 0.2509 0.09354 0.0
H518 H 0.52886 0.12578 0.09735 0.0
C519 C 0.53954 0.97025 0.09373 0.0
C520 C 0.51463 0.96237 0.08734 0.0
C521 C 0.50108 0.03626 0.08535 0.0
C522 C 0.47733 0.02987 0.07702 0.0
C523 C 0.46406 0.1046 0.0751 0.0
C524 C 0.47406 0.18331 0.08106 0.0
C525 C 0.49736 0.18959 0.089 0.0
C526 C 0.51081 0.1172 0.09111 0.0
H527 H 0.4361 0.91547 0.11772 0.0
C528 C 0.42874 0.92881 0.09058 0.0
H529 H 0.43562 0.96565 0.03702 0.0
H530 H 0.53579 0.80838 0.09186 0.0
H531 H 0.51794 0.6719 0.08125 0.0
H532 H 0.47671 0.66112 0.06543 0.0
H533 H 0.45306 0.78684 0.06032 0.0
C534 C 0.44247 0.94389 0.06338 0.0
C535 C 0.4673 0.94959 0.071 0.0
C536 C 0.48078 0.87563 0.07337 0.0
C537 C 0.50455 0.88198 0.08181 0.0
C538 C 0.51769 0.80718 0.08479 0.0
C539 C 0.50764 0.72847 0.07892 0.0
C540 C 0.48442 0.72239 0.07008 0.0
C541 C 0.47104 0.79493 0.06731 0.0
H542 H 0.43691 0.59862 0.60106 0.0
C543 C 0.4303 0.59375 0.57292 0.0
H544 H 0.43886 0.59205 0.51771 0.0
H545 H 0.53923 0.72422 0.5557 0.0
H546 H 0.52242 0.84588 0.52482 0.0
H547 H 0.48136 0.84978 0.50713 0.0
H548 H 0.45685 0.73202 0.5204 0.0
C549 C 0.44491 0.59015 0.54613 0.0
C550 C 0.46981 0.58533 0.55472 0.0
C551 C 0.48393 0.6538 0.54596 0.0
C552 C 0.50766 0.65088 0.55557 0.0
C553 C 0.52124 0.72176 0.54795 0.0
C554 C 0.51177 0.79239 0.5305 0.0
C555 C 0.48864 0.79465 0.5206 0.0
C556 C 0.47478 0.72654 0.52832 0.0
H557 H 0.55081 0.57347 0.52692 0.0
C558 C 0.55686 0.56722 0.55526 0.0
H559 H 0.548 0.5691 0.61026 0.0
H560 H 0.44788 0.43875 0.57183 0.0
H561 H 0.46453 0.31822 0.60345 0.0
H562 H 0.50539 0.31588 0.62257 0.0
H563 H 0.52976 0.43382 0.60969 0.0
C564 C 0.54208 0.57266 0.58181 0.0
C565 C 0.51718 0.57863 0.57327 0.0
C566 C 0.50299 0.51056 0.5824 0.0
C567 C 0.47934 0.51306 0.57241 0.0
C568 C 0.4658 0.44189 0.57991 0.0
C569 C 0.47518 0.37178 0.59784 0.0
C570 C 0.49817 0.37037 0.60851 0.0
C571 C 0.512 0.43857 0.60085 0.0
H572 H 0.05404 0.08894 0.54575 0.0
C573 C 0.05972 0.08989 0.5744 0.0
H574 H 0.04928 0.09387 0.62856 0.0
H575 H 0.9483 0.20169 0.58277 0.0
H576 H 0.96297 0.33157 0.60981 0.0
H577 H 0.00381 0.34628 0.62781 0.0
H578 H 0.03021 0.23119 0.6188 0.0
C579 C 0.04426 0.08599 0.59988 0.0
C580 C 0.01972 0.07615 0.5895 0.0
C581 C 0.00456 0.14372 0.59542 0.0
C582 C 0.98103 0.13495 0.58541 0.0
C583 C 0.96628 0.2042 0.59067 0.0
C584 C 0.9745 0.27936 0.60594 0.0
C585 C -0.00251 0.28766 0.61605 0.0
C586 C 0.01244 0.22099 0.6108 0.0
H587 H 0.94142 0.04095 0.61831 0.0
C588 C 0.93423 0.03733 0.59048 0.0
H589 H 0.94129 0.04562 0.53463 0.0
H590 H 0.04403 0.93167 0.57678 0.0
H591 H 0.02936 0.80305 0.54883 0.0
H592 H 0.98866 0.78988 0.52967 0.0
H593 H 0.96239 0.90537 0.53871 0.0
C594 C 0.94797 0.04592 0.56273 0.0
C595 C 0.97275 0.0581 0.57006 0.0
C596 C 0.98796 0.99122 0.5634 0.0
C597 C 0.01147 0.99965 0.57365 0.0
C598 C 0.02612 0.93003 0.56849 0.0
C599 C 0.01789 0.85543 0.55269 0.0
C600 C -0.00503 0.84795 0.54197 0.0
C601 C 0.98008 0.9147 0.54733 0.0
H602 H 0.93599 0.44966 0.09503 0.0
C603 C 0.92841 0.48072 0.07098 0.0
H604 H 0.93483 0.55032 0.02365 0.0
H605 H 0.03446 0.64547 0.08126 0.0
H606 H 0.01541 0.78109 0.08259 0.0
H607 H 0.97387 0.79219 0.06984 0.0
H608 H 0.95121 0.66785 0.05543 0.0
C609 C 0.94187 0.51185 0.04593 0.0
C610 C 0.96692 0.50525 0.05105 0.0
C611 C 0.9798 0.57876 0.05945 0.0
C612 C 0.00361 0.57223 0.06732 0.0
C613 C 0.01622 0.64661 0.07549 0.0
C614 C 0.00551 0.72495 0.07628 0.0
C615 C 0.98214 0.73121 0.06906 0.0
C616 C 0.96933 0.65923 0.06078 0.0
H617 H 0.04785 0.46398 0.02242 0.0
C618 C 0.05395 0.47291 0.0506 0.0
H619 H 0.04483 0.50358 0.10389 0.0
H620 H 0.94746 0.35406 0.03098 0.0
H621 H 0.96642 0.21802 0.03038 0.0
H622 H 0.00746 0.20554 0.04743 0.0
H623 H 0.02982 0.32914 0.06466 0.0
C624 C 0.03901 0.48622 0.07635 0.0
C625 C 0.01435 0.49224 0.06685 0.0
C626 C 0.00155 0.41889 0.05775 0.0
C627 C 0.9778 0.42564 0.04922 0.0
C628 C 0.96544 0.35206 0.03889 0.0
C629 C 0.97614 0.27367 0.03822 0.0
C630 C -0.00074 0.26668 0.04772 0.0
C631 C 0.01191 0.33821 0.05742 0.0
H632 H 0.19371 0.30608 0.08253 0.0
C633 C 0.19249 0.36856 0.0705 0.0
H634 H 0.20891 0.46504 0.04247 0.0
H635 H 0.28754 0.17785 0.09821 0.0
H636 H 0.27632 0.20503 0.15955 0.0
H637 H 0.24567 0.3067 0.17106 0.0
H638 H 0.22544 0.3782 0.12101 0.0
C639 C 0.21015 0.40157 0.05352 0.0
C640 C 0.23138 0.35353 0.0478 0.0
C641 C 0.24432 0.31861 0.07781 0.0
C642 C 0.26344 0.26681 0.07149 0.0
C643 C 0.27419 0.22365 0.10151 0.0
C644 C 0.26771 0.23782 0.13696 0.0
C645 C 0.25036 0.29452 0.14341 0.0
C646 C 0.23872 0.33448 0.11431 0.0
H647 H 0.31443 0.28323 0.05973 0.0
C648 C 0.31212 0.22451 0.04465 0.0
H649 H 0.28857 0.14596 0.01536 0.0
H650 H 0.2105 0.41178 0.984 0.0
H651 H 0.22391 0.39434 0.92318 0.0
H652 H 0.25933 0.31591 0.91303 0.0
H653 H 0.28142 0.25359 0.96379 0.0
C654 C 0.29155 0.20621 0.02896 0.0
C655 C 0.2712 0.25842 0.03559 0.0
C656 C 0.25884 0.29614 0.00581 0.0
C657 C 0.23872 0.34287 0.01182 0.0
C658 C 0.2262 0.37721 0.9813 0.0
C659 C 0.23365 0.3674 0.94612 0.0
C660 C 0.25358 0.32316 0.9404 0.0
C661 C 0.26608 0.28768 0.96978 0.0
H662 H 0.8134 0.81574 0.08785 0.0
C663 C 0.81466 0.78633 0.06121 0.0
H664 H 0.79802 0.76471 0.01013 0.0
H665 H 0.70354 0.70882 0.07602 0.0
H666 H 0.71223 0.57127 0.05111 0.0
H667 H 0.74967 0.54282 0.02626 0.0
H668 H 0.7784 0.65139 0.02545 0.0
C669 C 0.79731 0.79611 0.03639 0.0
C670 C 0.77438 0.81564 0.04964 0.0
C671 C 0.75774 0.75048 0.04964 0.0
C672 C 0.73625 0.76615 0.06436 0.0
C673 C 0.71999 0.70034 0.06453 0.0
C674 C 0.72481 0.62097 0.0506 0.0
C675 C 0.7459 0.60497 0.03663 0.0
C676 C 0.76224 0.66845 0.03616 0.0
H677 H 0.69566 0.86885 0.03526 0.0
C678 C 0.692 0.88139 0.06352 0.0
H679 H 0.70554 0.88514 0.11792 0.0
H680 H 0.80239 0.95362 0.05434 0.0
H681 H 0.79507 0.08492 0.08581 0.0
H682 H 0.75852 0.10871 0.11444 0.0
H683 H 0.72897 0.00227 0.11118 0.0
C684 C 0.7082 0.86725 0.08986 0.0
C685 C 0.73157 0.84606 0.07944 0.0
C686 C 0.74863 0.90918 0.08162 0.0
C687 C 0.76991 0.89465 0.06598 0.0
C688 C 0.78628 0.96013 0.06706 0.0
C689 C 0.78224 0.03596 0.08483 0.0
C690 C 0.76165 0.04944 0.10088 0.0
C691 C 0.74482 0.9877 0.09879 0.0
H692 H 0.17662 0.7267 0.15231 0.0
C693 C 0.17145 0.72934 0.12347 0.0
H694 H 0.17944 0.77635 0.07183 0.0
H695 H 0.25608 0.03064 0.12797 0.0
H696 H 0.2247 0.1303 0.12528 0.0
H697 H 0.18494 0.08126 0.11767 0.0
H698 H 0.17632 0.9317 0.11212 0.0
C699 C 0.18388 0.77464 0.10092 0.0
C700 C 0.20718 0.80285 0.11221 0.0
C701 C 0.21184 0.88975 0.11683 0.0
C702 C 0.23474 0.91771 0.12186 0.0
C703 C 0.23901 0.00548 0.1246 0.0
C704 C 0.22115 0.06351 0.12309 0.0
C705 C 0.19875 0.0359 0.11875 0.0
C706 C 0.19404 0.95007 0.11556 0.0
H707 H 0.2809 0.83165 0.0695 0.0
C708 C 0.28832 0.87184 0.09102 0.0
H709 H 0.28338 0.93071 0.14182 0.0
H710 H 0.20449 0.63027 0.10252 0.0
H711 H 0.23557 0.53075 0.1087 0.0
H712 H 0.2748 0.57879 0.124 0.0
H713 H 0.28313 0.72789 0.13192 0.0
C714 C 0.27662 0.88787 0.12082 0.0
C715 C 0.25281 0.8581 0.12271 0.0
C716 C 0.248 0.77071 0.12112 0.0
C717 C 0.22523 0.74296 0.11452 0.0
C718 C 0.22123 0.65542 0.10934 0.0
C719 C 0.23899 0.59724 0.1126 0.0
C720 C 0.26109 0.62432 0.12103 0.0
C721 C 0.26565 0.70999 0.12526 0.0
H722 H 0.67949 0.25552 0.13092 0.0
C723 C 0.67114 0.25348 0.10379 0.0
H724 H 0.67165 0.29679 0.04965 0.0
H725 H 0.75645 0.51785 0.13058 0.0
H726 H 0.72709 0.60203 0.15705 0.0
H727 H 0.68661 0.56165 0.14922 0.0
H728 H 0.67528 0.43667 0.11444 0.0
C729 C 0.67945 0.30018 0.07711 0.0
C730 C 0.70352 0.32808 0.08069 0.0
C731 C 0.70989 0.39981 0.10172 0.0
C732 C 0.73325 0.42239 0.10646 0.0
C733 C 0.73905 0.49635 0.12661 0.0
C734 C 0.72233 0.54561 0.14188 0.0
C735 C 0.69954 0.52294 0.13743 0.0
C736 C 0.69328 0.45099 0.11755 0.0
H737 H 0.77706 0.40865 0.03677 0.0
C738 C 0.7854 0.41914 0.06354 0.0
H739 H 0.78217 0.41293 0.1204 0.0
H740 H 0.6968 0.18745 0.03749 0.0
H741 H 0.72587 0.10398 0.01015 0.0
H742 H 0.76652 0.1394 0.02041 0.0
H743 H 0.77828 0.25661 0.05918 0.0
C744 C 0.77437 0.3999 0.0935 0.0
C745 C 0.75016 0.3724 0.09037 0.0
C746 C 0.74372 0.29983 0.06959 0.0
C747 C 0.72033 0.27872 0.06414 0.0
C748 C 0.71429 0.20699 0.04256 0.0
C749 C 0.73083 0.15823 0.02665 0.0
C750 C 0.75369 0.17824 0.03238 0.0
C751 C 0.76019 0.24676 0.05428 0.0
H752 H 0.18868 0.83099 0.58549 0.0
C753 C 0.1806 0.86983 0.56415 0.0
H754 H 0.17862 0.90109 0.50847 0.0
H755 H 0.28449 0.84603 0.50109 0.0
H756 H 0.2779 0.97927 0.46985 0.0
H757 H 0.23905 0.03729 0.46093 0.0
H758 H 0.2067 0.96376 0.48371 0.0
C759 C 0.18677 0.86181 0.52949 0.0
C760 C 0.20777 0.81384 0.52154 0.0
C761 C 0.22627 0.85673 0.50648 0.0
C762 C 0.24864 0.8227 0.51098 0.0
C763 C 0.26714 0.86868 0.4979 0.0
C764 C 0.26359 0.94515 0.47993 0.0
C765 C 0.24172 0.9778 0.47491 0.0
C766 C 0.22324 0.93491 0.48831 0.0
H767 H 0.2841 0.66904 0.49141 0.0
C768 C 0.28927 0.67821 0.52 0.0
H769 H 0.27968 0.7235 0.57112 0.0
H770 H 0.17484 0.70323 0.54001 0.0
H771 H 0.18096 0.56297 0.56573 0.0
H772 H 0.21987 0.50527 0.57525 0.0
H773 H 0.2528 0.58663 0.55867 0.0
C774 C 0.27535 0.71853 0.54206 0.0
C775 C 0.25214 0.74533 0.52951 0.0
C776 C 0.23324 0.6969 0.53947 0.0
C777 C 0.21093 0.73071 0.53484 0.0
C778 C 0.19219 0.68084 0.54421 0.0
C779 C 0.19548 0.60034 0.55867 0.0
C780 C 0.21739 0.56782 0.56399 0.0
C781 C 0.23613 0.61523 0.55452 0.0
H782 H 0.68132 0.27336 0.56057 0.0
C783 C 0.68128 0.33374 0.54662 0.0
H784 H 0.69908 0.41443 0.51221 0.0
H785 H 0.77695 0.15389 0.58731 0.0
H786 H 0.76678 0.21235 0.64526 0.0
H787 H 0.73598 0.31772 0.64819 0.0
H788 H 0.71464 0.36189 0.59352 0.0
C789 C 0.69868 0.35377 0.52586 0.0
C790 C 0.71915 0.29923 0.52389 0.0
C791 C 0.73267 0.28031 0.55606 0.0
C792 C 0.7519 0.22669 0.55401 0.0
C793 C 0.76341 0.20014 0.58693 0.0
C794 C 0.75756 0.23239 0.62049 0.0
C795 C 0.74012 0.29112 0.62216 0.0
C796 C 0.72778 0.31509 0.59046 0.0
H797 H 0.80062 0.25644 0.53997 0.0
C798 C 0.80087 0.19148 0.53044 0.0
H799 H 0.78096 0.08994 0.50928 0.0
H800 H 0.69696 0.32299 0.4573 0.0
H801 H 0.70929 0.27359 0.39883 0.0
H802 H 0.74477 0.19136 0.39489 0.0
H803 H 0.76805 0.15722 0.4495 0.0
C804 C 0.78141 0.15607 0.51715 0.0
C805 C 0.75935 0.20126 0.51945 0.0
C806 C 0.74608 0.22095 0.48733 0.0
C807 C 0.72581 0.26937 0.48959 0.0
C808 C 0.71266 0.28727 0.45711 0.0
C809 C 0.71952 0.25919 0.42339 0.0
C810 C 0.7395 0.21284 0.42117 0.0
C811 C 0.7527 0.19375 0.45269 0.0
H812 H 0.20201 0.28015 0.62213 0.0
C813 C 0.19815 0.22229 0.63642 0.0
H814 H 0.21226 0.12079 0.66747 0.0
H815 H 0.28534 0.26785 0.5543 0.0
H816 H 0.26561 0.16931 0.51396 0.0
H817 H 0.23424 0.08231 0.53547 0.0
H818 H 0.22235 0.09514 0.59741 0.0
C819 C 0.2151 0.1819 0.65521 0.0
C820 C 0.2389 0.20664 0.64886 0.0
C821 C 0.24746 0.19135 0.61409 0.0
C822 C 0.26658 0.23719 0.60279 0.0
C823 C 0.27229 0.23024 0.56581 0.0
C824 C 0.26081 0.17444 0.54195 0.0
C825 C 0.24313 0.1256 0.55394 0.0
C826 C 0.23638 0.13399 0.58948 0.0
H827 H 0.31837 0.27187 0.59146 0.0
C828 C 0.31409 0.33642 0.59835 0.0
H829 H 0.29116 0.41995 0.62186 0.0
H830 H 0.22906 0.23472 0.71948 0.0
H831 H 0.25121 0.32019 0.76368 0.0
H832 H 0.28659 0.39022 0.74658 0.0
H833 H 0.29989 0.37636 0.68524 0.0
C834 C 0.29514 0.35447 0.61589 0.0
C835 C 0.27849 0.29151 0.6281 0.0
C836 C 0.27166 0.29672 0.66463 0.0
C837 C 0.25156 0.25531 0.67481 0.0
C838 C 0.24432 0.26514 0.7107 0.0
C839 C 0.25689 0.31359 0.73623 0.0
C840 C 0.27681 0.35306 0.72659 0.0
C841 C 0.28419 0.34496 0.69127 0.0
H842 H 0.69544 0.65697 0.66339 0.0
C843 C 0.69133 0.67108 0.63485 0.0
H844 H 0.70172 0.73295 0.58758 0.0
H845 H 0.77213 0.98695 0.65366 0.0
H846 H 0.73897 0.07777 0.65379 0.0
H847 H 0.70025 0.01932 0.64458 0.0
H848 H 0.6945 0.86889 0.63516 0.0
C849 C 0.7055 0.71884 0.61621 0.0
C850 C 0.72769 0.74899 0.63206 0.0
C851 C 0.73073 0.8361 0.63884 0.0
C852 C 0.75304 0.8694 0.64456 0.0
C853 C 0.75562 0.9576 0.64955 0.0
C854 C 0.7367 0.0107 0.64963 0.0
C855 C 0.71488 0.97779 0.64444 0.0
C856 C 0.71183 0.89155 0.63898 0.0
H857 H 0.79841 0.79761 0.58731 0.0
C858 C 0.8052 0.84267 0.60742 0.0
H859 H 0.8015 0.89782 0.65917 0.0
H860 H 0.72761 0.57652 0.62381 0.0
H861 H 0.76051 0.48417 0.62861 0.0
H862 H 0.79906 0.54165 0.6419 0.0
H863 H 0.80487 0.69268 0.64982 0.0
C864 C 0.7951 0.85173 0.63926 0.0
C865 C 0.77218 0.81484 0.64351 0.0
C866 C 0.76894 0.72654 0.64103 0.0
C867 C 0.74665 0.69342 0.63462 0.0
C868 C 0.74406 0.60528 0.62961 0.0
C869 C 0.76284 0.55142 0.63224 0.0
C870 C 0.78455 0.58379 0.63964 0.0
C871 C 0.78767 0.67036 0.64393 0.0
loop_
_geom_bond_atom_site_label_1
_geom_bond_atom_site_label_2
_geom_bond_distance
_geom_bond_site_symmetry_2
_ccdc_geom_bond_type
Co0 O3 1.970 1_545 S
Co0 N17 1.989 . S
Co0 O25 1.967 . S
Co0 O32 1.920 . S
Co1 O4 1.966 1_545 S
Co1 N10 2.022 1_544 S
Co1 N18 1.993 . S
Co1 O26 1.941 . S
C2 O3 1.258 . S
C2 O4 1.263 . S
O3 Co0 1.970 1_565 S
O3 C2 1.258 . S
O4 Co1 1.966 1_565 S
O4 C2 1.263 . S
C5 O6 1.235 1_545 S
C5 O32 1.289 . S
O6 C5 1.235 1_565 S
C7 C9 1.400 . S
C7 N10 1.351 . S
C7 C12 1.501 . S
C8 C9 1.387 . S
C8 N11 1.341 1_565 S
C9 C7 1.400 . S
C9 C8 1.387 . S
N10 Co1 2.022 1_566 S
N10 C7 1.351 . S
N10 N11 1.365 1_565 S
N11 C8 1.341 1_545 S
N11 N10 1.365 1_545 S
N11 H31 0.862 . S
C12 C7 1.501 . S
C12 H13 0.961 . S
C12 H14 0.961 . S
C12 H15 0.960 . S
H13 C12 0.961 . S
H14 C12 0.961 . S
H15 C12 0.960 . S
C16 N17 1.342 . S
C16 C20 1.401 . S
C16 C21 1.499 . S
N17 Co0 1.989 . S
N17 C16 1.342 . S
N17 N18 1.388 . S
N18 Co1 1.993 . S
N18 N17 1.388 . S
N18 C19 1.346 . S
C19 N18 1.346 . S
C19 C20 1.396 . S
C19 C29 1.510 1_544 S
C20 C16 1.401 . S
C20 C19 1.396 . S
C21 C16 1.499 . S
C21 H22 0.959 . S
C21 H23 0.960 . S
C21 H24 0.961 . S
H22 C21 0.959 . S
H23 C21 0.960 . S
H24 C21 0.961 . S
O25 Co0 1.967 . S
O25 C33 1.258 . S
O26 Co1 1.941 . S
O26 C33 1.266 . S
H27 C29 0.959 1_545 S
H28 C29 0.961 . S
C29 C19 1.510 1_566 S
C29 H27 0.959 1_565 S
C29 H28 0.961 . S
C29 H30 0.960 . S
H30 C29 0.960 . S
H31 N11 0.862 . S
O32 Co0 1.920 . S
O32 C5 1.289 . S
C33 O25 1.258 . S
C33 O26 1.266 . S
Co34 O37 1.970 1_545 S
Co34 N51 1.989 . S
Co34 O59 1.967 . S
Co34 O66 1.920 1_554 S
Co35 O38 1.966 1_545 S
Co35 N44 2.022 1_545 S
Co35 N52 1.993 . S
Co35 O60 1.941 . S
C36 O37 1.258 . S
C36 O38 1.263 . S
O37 Co34 1.970 1_565 S
O37 C36 1.258 . S
O38 Co35 1.966 1_565 S
O38 C36 1.263 . S
C39 O40 1.235 1_545 S
C39 O66 1.289 . S
O40 C39 1.235 1_565 S
C41 C43 1.400 . S
C41 N44 1.351 . S
C41 C46 1.501 . S
C42 C43 1.387 . S
C42 N45 1.341 1_565 S
C43 C41 1.400 . S
C43 C42 1.387 . S
N44 Co35 2.022 1_565 S
N44 C41 1.351 . S
N44 N45 1.365 1_565 S
N45 C42 1.341 1_545 S
N45 N44 1.365 1_545 S
N45 H65 0.862 . S
C46 C41 1.501 . S
C46 H47 0.961 . S
C46 H48 0.961 . S
C46 H49 0.960 . S
H47 C46 0.961 . S
H48 C46 0.961 . S
H49 C46 0.960 . S
C50 N51 1.342 . S
C50 C54 1.401 . S
C50 C55 1.499 . S
N51 Co34 1.989 . S
N51 C50 1.342 . S
N51 N52 1.388 . S
N52 Co35 1.993 . S
N52 N51 1.388 . S
N52 C53 1.346 . S
C53 N52 1.346 . S
C53 C54 1.396 . S
C53 C63 1.510 1_545 S
C54 C50 1.401 . S
C54 C53 1.396 . S
C55 C50 1.499 . S
C55 H56 0.959 . S
C55 H57 0.960 . S
C55 H58 0.961 . S
H56 C55 0.959 . S
H57 C55 0.960 . S
H58 C55 0.961 . S
O59 Co34 1.967 . S
O59 C67 1.258 . S
O60 Co35 1.941 . S
O60 C67 1.266 . S
H61 C63 0.959 1_545 S
H62 C63 0.961 . S
C63 C53 1.510 1_565 S
C63 H61 0.959 1_565 S
C63 H62 0.961 . S
C63 H64 0.960 . S
H64 C63 0.960 . S
H65 N45 0.862 . S
O66 Co34 1.920 1_556 S
O66 C39 1.289 . S
C67 O59 1.258 . S
C67 O60 1.266 . S
Co68 O71 1.970 . S
Co68 N85 1.989 . S
Co68 O93 1.967 . S
Co68 O100 1.920 . S
Co69 O72 1.966 . S
Co69 N78 2.022 . S
Co69 N86 1.993 . S
Co69 O94 1.941 . S
C70 O71 1.258 . S
C70 O72 1.263 . S
O71 Co68 1.970 . S
O71 C70 1.258 . S
O72 Co69 1.966 . S
O72 C70 1.263 . S
C73 O74 1.235 . S
C73 O100 1.289 . S
O74 C73 1.235 . S
C75 C77 1.400 . S
C75 N78 1.351 . S
C75 C80 1.501 . S
C76 C77 1.387 . S
C76 N79 1.341 . S
C77 C75 1.400 . S
C77 C76 1.387 . S
N78 Co69 2.022 . S
N78 C75 1.351 . S
N78 N79 1.365 . S
N79 C76 1.341 . S
N79 N78 1.365 . S
N79 H99 0.862 . S
C80 C75 1.501 . S
C80 H81 0.961 . S
C80 H82 0.961 . S
C80 H83 0.960 . S
H81 C80 0.961 . S
H82 C80 0.961 . S
H83 C80 0.960 . S
C84 N85 1.342 . S
C84 C88 1.401 . S
C84 C89 1.499 . S
N85 Co68 1.989 . S
N85 C84 1.342 . S
N85 N86 1.388 . S
N86 Co69 1.993 . S
N86 N85 1.388 . S
N86 C87 1.346 . S
C87 N86 1.346 . S
C87 C88 1.396 . S
C87 C97 1.510 . S
C88 C84 1.401 . S
C88 C87 1.396 . S
C89 C84 1.499 . S
C89 H90 0.959 . S
C89 H91 0.960 . S
C89 H92 0.961 . S
H90 C89 0.959 . S
H91 C89 0.960 . S
H92 C89 0.961 . S
O93 Co68 1.967 . S
O93 C101 1.258 . S
O94 Co69 1.941 . S
O94 C101 1.266 . S
H95 C97 0.959 . S
H96 C97 0.961 . S
C97 C87 1.510 . S
C97 H95 0.959 . S
C97 H96 0.961 . S
C97 H98 0.960 . S
H98 C97 0.960 . S
H99 N79 0.862 . S
O100 Co68 1.920 . S
O100 C73 1.289 . S
C101 O93 1.258 . S
C101 O94 1.266 . S
Co102 O105 1.970 . S
Co102 N119 1.989 . S
Co102 O127 1.967 . S
Co102 O134 1.920 . S
Co103 O106 1.966 . S
Co103 N112 2.022 . S
Co103 N120 1.993 . S
Co103 O128 1.941 . S
C104 O105 1.258 . S
C104 O106 1.263 . S
O105 Co102 1.970 . S
O105 C104 1.258 . S
O106 Co103 1.966 . S
O106 C104 1.263 . S
C107 O108 1.235 . S
C107 O134 1.289 . S
O108 C107 1.235 . S
C109 C111 1.400 . S
C109 N112 1.351 . S
C109 C114 1.501 . S
C110 C111 1.387 . S
C110 N113 1.341 . S
C111 C109 1.400 . S
C111 C110 1.387 . S
N112 Co103 2.022 . S
N112 C109 1.351 . S
N112 N113 1.365 . S
N113 C110 1.341 . S
N113 N112 1.365 . S
N113 H133 0.862 . S
C114 C109 1.501 . S
C114 H115 0.961 . S
C114 H116 0.961 . S
C114 H117 0.960 . S
H115 C114 0.961 . S
H116 C114 0.961 . S
H117 C114 0.960 . S
C118 N119 1.342 . S
C118 C122 1.401 . S
C118 C123 1.499 . S
N119 Co102 1.989 . S
N119 C118 1.342 . S
N119 N120 1.388 . S
N120 Co103 1.993 . S
N120 N119 1.388 . S
N120 C121 1.346 . S
C121 N120 1.346 . S
C121 C122 1.396 . S
C121 C131 1.510 . S
C122 C118 1.401 . S
C122 C121 1.396 . S
C123 C118 1.499 . S
C123 H124 0.959 . S
C123 H125 0.960 . S
C123 H126 0.961 . S
H124 C123 0.959 . S
H125 C123 0.960 . S
H126 C123 0.961 . S
O127 Co102 1.967 . S
O127 C135 1.258 . S
O128 Co103 1.941 . S
O128 C135 1.266 . S
H129 C131 0.959 . S
H130 C131 0.961 . S
C131 C121 1.510 . S
C131 H129 0.959 . S
C131 H130 0.961 . S
C131 H132 0.960 . S
H132 C131 0.960 . S
H133 N113 0.862 . S
O134 Co102 1.920 . S
O134 C107 1.289 . S
C135 O127 1.258 . S
C135 O128 1.266 . S
Co136 O139 1.970 1_545 S
Co136 N153 1.989 . S
Co136 O161 1.967 . S
Co136 O168 1.920 . S
Co137 O140 1.966 1_545 S
Co137 N146 2.022 1_545 S
Co137 N154 1.993 . S
Co137 O162 1.941 . S
C138 O139 1.258 . S
C138 O140 1.263 . S
O139 Co136 1.970 1_565 S
O139 C138 1.258 . S
O140 Co137 1.966 1_565 S
O140 C138 1.263 . S
C141 O142 1.235 1_545 S
C141 O168 1.289 . S
O142 C141 1.235 1_565 S
C143 C145 1.400 . S
C143 N146 1.351 . S
C143 C148 1.501 . S
C144 C145 1.387 . S
C144 N147 1.341 1_565 S
C145 C143 1.400 . S
C145 C144 1.387 . S
N146 Co137 2.022 1_565 S
N146 C143 1.351 . S
N146 N147 1.365 1_565 S
N147 C144 1.341 1_545 S
N147 N146 1.365 1_545 S
N147 H167 0.862 . S
C148 C143 1.501 . S
C148 H149 0.961 . S
C148 H150 0.961 . S
C148 H151 0.960 . S
H149 C148 0.961 . S
H150 C148 0.961 . S
H151 C148 0.960 . S
C152 N153 1.342 . S
C152 C156 1.401 . S
C152 C157 1.499 . S
N153 Co136 1.989 . S
N153 C152 1.342 . S
N153 N154 1.388 . S
N154 Co137 1.993 . S
N154 N153 1.388 . S
N154 C155 1.346 . S
C155 N154 1.346 . S
C155 C156 1.396 . S
C155 C165 1.510 1_545 S
C156 C152 1.401 . S
C156 C155 1.396 . S
C157 C152 1.499 . S
C157 H158 0.959 . S
C157 H159 0.960 . S
C157 H160 0.961 . S
H158 C157 0.959 . S
H159 C157 0.960 . S
H160 C157 0.961 . S
O161 Co136 1.967 . S
O161 C169 1.258 . S
O162 Co137 1.941 . S
O162 C169 1.266 . S
H163 C165 0.959 1_545 S
H164 C165 0.961 . S
C165 C155 1.510 1_565 S
C165 H163 0.959 1_565 S
C165 H164 0.961 . S
C165 H166 0.960 . S
H166 C165 0.960 . S
H167 N147 0.862 . S
O168 Co136 1.920 . S
O168 C141 1.289 . S
C169 O161 1.258 . S
C169 O162 1.266 . S
Co170 O173 1.970 1_545 S
Co170 N187 1.989 . S
Co170 O195 1.967 . S
Co170 O202 1.920 . S
Co171 O174 1.966 1_545 S
Co171 N180 2.022 1_545 S
Co171 N188 1.993 . S
Co171 O196 1.941 . S
C172 O173 1.258 . S
C172 O174 1.263 . S
O173 Co170 1.970 1_565 S
O173 C172 1.258 . S
O174 Co171 1.966 1_565 S
O174 C172 1.263 . S
C175 O176 1.235 1_545 S
C175 O202 1.289 . S
O176 C175 1.235 1_565 S
C177 C179 1.400 . S
C177 N180 1.351 . S
C177 C182 1.501 . S
C178 C179 1.387 . S
C178 N181 1.341 1_565 S
C179 C177 1.400 . S
C179 C178 1.387 . S
N180 Co171 2.022 1_565 S
N180 C177 1.351 . S
N180 N181 1.365 1_565 S
N181 C178 1.341 1_545 S
N181 N180 1.365 1_545 S
N181 H201 0.862 . S
C182 C177 1.501 . S
C182 H183 0.961 . S
C182 H184 0.961 . S
C182 H185 0.960 . S
H183 C182 0.961 . S
H184 C182 0.961 . S
H185 C182 0.960 . S
C186 N187 1.342 . S
C186 C190 1.401 . S
C186 C191 1.499 . S
N187 Co170 1.989 . S
N187 C186 1.342 . S
N187 N188 1.388 . S
N188 Co171 1.993 . S
N188 N187 1.388 . S
N188 C189 1.346 . S
C189 N188 1.346 . S
C189 C190 1.396 . S
C189 C199 1.510 1_545 S
C190 C186 1.401 . S
C190 C189 1.396 . S
C191 C186 1.499 . S
C191 H192 0.959 . S
C191 H193 0.960 . S
C191 H194 0.961 . S
H192 C191 0.959 . S
H193 C191 0.960 . S
H194 C191 0.961 . S
O195 Co170 1.967 . S
O195 C203 1.258 . S
O196 Co171 1.941 . S
O196 C203 1.266 . S
H197 C199 0.959 1_545 S
H198 C199 0.961 . S
C199 C189 1.510 1_565 S
C199 H197 0.959 1_565 S
C199 H198 0.961 . S
C199 H200 0.960 . S
H200 C199 0.960 . S
H201 N181 0.862 . S
O202 Co170 1.920 . S
O202 C175 1.289 . S
C203 O195 1.258 . S
C203 O196 1.266 . S
Co204 O207 1.970 . S
Co204 N221 1.989 . S
Co204 O229 1.967 . S
Co204 O236 1.920 . S
Co205 O208 1.966 . S
Co205 N214 2.022 1_554 S
Co205 N222 1.993 . S
Co205 O230 1.941 . S
C206 O207 1.258 . S
C206 O208 1.263 . S
O207 Co204 1.970 . S
O207 C206 1.258 . S
O208 Co205 1.966 . S
O208 C206 1.263 . S
C209 O210 1.235 . S
C209 O236 1.289 . S
O210 C209 1.235 . S
C211 C213 1.400 . S
C211 N214 1.351 . S
C211 C216 1.501 . S
C212 C213 1.387 . S
C212 N215 1.341 . S
C213 C211 1.400 . S
C213 C212 1.387 . S
N214 Co205 2.022 1_556 S
N214 C211 1.351 . S
N214 N215 1.365 . S
N215 C212 1.341 . S
N215 N214 1.365 . S
N215 H235 0.862 . S
C216 C211 1.501 . S
C216 H217 0.961 . S
C216 H218 0.961 . S
C216 H219 0.960 . S
H217 C216 0.961 . S
H218 C216 0.961 . S
H219 C216 0.960 . S
C220 N221 1.342 . S
C220 C224 1.401 . S
C220 C225 1.499 . S
N221 Co204 1.989 . S
N221 C220 1.342 . S
N221 N222 1.388 . S
N222 Co205 1.993 . S
N222 N221 1.388 . S
N222 C223 1.346 . S
C223 N222 1.346 . S
C223 C224 1.396 . S
C223 C233 1.510 1_554 S
C224 C220 1.401 . S
C224 C223 1.396 . S
C225 C220 1.499 . S
C225 H226 0.959 . S
C225 H227 0.960 . S
C225 H228 0.961 . S
H226 C225 0.959 . S
H227 C225 0.960 . S
H228 C225 0.961 . S
O229 Co204 1.967 . S
O229 C237 1.258 . S
O230 Co205 1.941 . S
O230 C237 1.266 . S
H231 C233 0.959 . S
H232 C233 0.961 . S
C233 C223 1.510 1_556 S
C233 H231 0.959 . S
C233 H232 0.961 . S
C233 H234 0.960 . S
H234 C233 0.960 . S
H235 N215 0.862 . S
O236 Co204 1.920 . S
O236 C209 1.289 . S
C237 O229 1.258 . S
C237 O230 1.266 . S
Co238 O241 1.970 . S
Co238 N255 1.989 . S
Co238 O263 1.967 . S
Co238 O270 1.920 1_554 S
Co239 O242 1.966 . S
Co239 N248 2.022 . S
Co239 N256 1.993 . S
Co239 O264 1.941 . S
C240 O241 1.258 . S
C240 O242 1.263 . S
O241 Co238 1.970 . S
O241 C240 1.258 . S
O242 Co239 1.966 . S
O242 C240 1.263 . S
C243 O244 1.235 . S
C243 O270 1.289 . S
O244 C243 1.235 . S
C245 C247 1.400 . S
C245 N248 1.351 . S
C245 C250 1.501 . S
C246 C247 1.387 . S
C246 N249 1.341 . S
C247 C245 1.400 . S
C247 C246 1.387 . S
N248 Co239 2.022 . S
N248 C245 1.351 . S
N248 N249 1.365 . S
N249 C246 1.341 . S
N249 N248 1.365 . S
N249 H269 0.862 . S
C250 C245 1.501 . S
C250 H251 0.961 . S
C250 H252 0.961 . S
C250 H253 0.960 . S
H251 C250 0.961 . S
H252 C250 0.961 . S
H253 C250 0.960 . S
C254 N255 1.342 . S
C254 C258 1.401 . S
C254 C259 1.499 . S
N255 Co238 1.989 . S
N255 C254 1.342 . S
N255 N256 1.388 . S
N256 Co239 1.993 . S
N256 N255 1.388 . S
N256 C257 1.346 . S
C257 N256 1.346 . S
C257 C258 1.396 . S
C257 C267 1.510 . S
C258 C254 1.401 . S
C258 C257 1.396 . S
C259 C254 1.499 . S
C259 H260 0.959 . S
C259 H261 0.960 . S
C259 H262 0.961 . S
H260 C259 0.959 . S
H261 C259 0.960 . S
H262 C259 0.961 . S
O263 Co238 1.967 . S
O263 C271 1.258 . S
O264 Co239 1.941 . S
O264 C271 1.266 . S
H265 C267 0.959 . S
H266 C267 0.961 . S
C267 C257 1.510 . S
C267 H265 0.959 . S
C267 H266 0.961 . S
C267 H268 0.960 . S
H268 C267 0.960 . S
H269 N249 0.862 . S
O270 Co238 1.920 1_556 S
O270 C243 1.289 . S
C271 O263 1.258 . S
C271 O264 1.266 . S
H272 C273 0.951 . S
C273 H272 0.951 . S
C273 C279 1.265 . S
H274 C279 0.950 . S
H275 C283 0.949 . S
H276 C284 0.950 . S
H277 C285 0.951 . S
H278 C286 0.951 . S
C279 C273 1.265 . S
C279 H274 0.950 . S
C279 C280 1.478 . S
C280 C279 1.478 . S
C280 C281 1.397 . S
C280 C297 1.394 . S
C281 C280 1.397 . S
C281 C282 1.438 . S
C281 C286 1.429 . S
C282 C281 1.438 . S
C282 C283 1.428 . S
C282 C295 1.394 . S
C283 H275 0.949 . S
C283 C282 1.428 . S
C283 C284 1.345 . S
C284 H276 0.950 . S
C284 C283 1.345 . S
C284 C285 1.424 . S
C285 H277 0.951 . S
C285 C284 1.424 . S
C285 C286 1.347 . S
C286 H278 0.951 . S
C286 C281 1.429 . S
C286 C285 1.347 . S
H287 C288 0.951 . S
C288 H287 0.951 . S
C288 C294 1.265 . S
H289 C294 0.950 . S
H290 C298 0.949 . S
H291 C299 0.950 . S
H292 C300 0.951 . S
H293 C301 0.951 . S
C294 C288 1.265 . S
C294 H289 0.950 . S
C294 C295 1.478 . S
C295 C282 1.394 . S
C295 C294 1.478 . S
C295 C296 1.397 . S
C296 C295 1.397 . S
C296 C297 1.438 . S
C296 C301 1.429 . S
C297 C280 1.394 . S
C297 C296 1.438 . S
C297 C298 1.428 . S
C298 H290 0.949 . S
C298 C297 1.428 . S
C298 C299 1.345 . S
C299 H291 0.950 . S
C299 C298 1.345 . S
C299 C300 1.424 . S
C300 H292 0.951 . S
C300 C299 1.424 . S
C300 C301 1.347 . S
C301 H293 0.951 . S
C301 C296 1.429 . S
C301 C300 1.347 . S
H302 C303 0.951 . S
C303 H302 0.951 . S
C303 C309 1.265 . S
H304 C309 0.950 . S
H305 C313 0.949 . S
H306 C314 0.950 . S
H307 C315 0.951 . S
H308 C316 0.951 . S
C309 C303 1.265 . S
C309 H304 0.950 . S
C309 C310 1.478 . S
C310 C309 1.478 . S
C310 C311 1.397 . S
C310 C327 1.394 . S
C311 C310 1.397 . S
C311 C312 1.438 . S
C311 C316 1.429 . S
C312 C311 1.438 . S
C312 C313 1.428 . S
C312 C325 1.394 . S
C313 H305 0.949 . S
C313 C312 1.428 . S
C313 C314 1.345 . S
C314 H306 0.950 . S
C314 C313 1.345 . S
C314 C315 1.424 . S
C315 H307 0.951 . S
C315 C314 1.424 . S
C315 C316 1.347 . S
C316 H308 0.951 . S
C316 C311 1.429 . S
C316 C315 1.347 . S
H317 C318 0.951 . S
C318 H317 0.951 . S
C318 C324 1.265 . S
H319 C324 0.950 . S
H320 C328 0.949 . S
H321 C329 0.950 . S
H322 C330 0.951 . S
H323 C331 0.951 . S
C324 C318 1.265 . S
C324 H319 0.950 . S
C324 C325 1.478 . S
C325 C312 1.394 . S
C325 C324 1.478 . S
C325 C326 1.397 . S
C326 C325 1.397 . S
C326 C327 1.438 . S
C326 C331 1.429 . S
C327 C310 1.394 . S
C327 C326 1.438 . S
C327 C328 1.428 . S
C328 H320 0.949 . S
C328 C327 1.428 . S
C328 C329 1.345 . S
C329 H321 0.950 . S
C329 C328 1.345 . S
C329 C330 1.424 . S
C330 H322 0.951 . S
C330 C329 1.424 . S
C330 C331 1.347 . S
C331 H323 0.951 . S
C331 C326 1.429 . S
C331 C330 1.347 . S
H332 C333 0.951 . S
C333 H332 0.951 . S
C333 C339 1.265 . S
H334 C339 0.950 . S
H335 C343 0.949 . S
H336 C344 0.950 . S
H337 C345 0.951 . S
H338 C346 0.951 . S
C339 C333 1.265 . S
C339 H334 0.950 . S
C339 C340 1.478 . S
C340 C339 1.478 . S
C340 C341 1.397 . S
C340 C357 1.394 . S
C341 C340 1.397 . S
C341 C342 1.438 . S
C341 C346 1.429 . S
C342 C341 1.438 . S
C342 C343 1.428 . S
C342 C355 1.394 . S
C343 H335 0.949 . S
C343 C342 1.428 . S
C343 C344 1.345 . S
C344 H336 0.950 . S
C344 C343 1.345 . S
C344 C345 1.424 . S
C345 H337 0.951 . S
C345 C344 1.424 . S
C345 C346 1.347 . S
C346 H338 0.951 . S
C346 C341 1.429 . S
C346 C345 1.347 . S
H347 C348 0.951 . S
C348 H347 0.951 . S
C348 C354 1.265 . S
H349 C354 0.950 . S
H350 C358 0.949 . S
H351 C359 0.950 . S
H352 C360 0.951 . S
H353 C361 0.951 . S
C354 C348 1.265 . S
C354 H349 0.950 . S
C354 C355 1.478 . S
C355 C342 1.394 . S
C355 C354 1.478 . S
C355 C356 1.397 . S
C356 C355 1.397 . S
C356 C357 1.438 . S
C356 C361 1.429 . S
C357 C340 1.394 . S
C357 C356 1.438 . S
C357 C358 1.428 . S
C358 H350 0.949 . S
C358 C357 1.428 . S
C358 C359 1.345 . S
C359 H351 0.950 . S
C359 C358 1.345 . S
C359 C360 1.424 . S
C360 H352 0.951 . S
C360 C359 1.424 . S
C360 C361 1.347 . S
C361 H353 0.951 . S
C361 C356 1.429 . S
C361 C360 1.347 . S
H362 C363 0.951 . S
C363 H362 0.951 . S
C363 C369 1.265 . S
H364 C369 0.950 . S
H365 C373 0.949 . S
H366 C374 0.950 . S
H367 C375 0.951 . S
H368 C376 0.951 . S
C369 C363 1.265 . S
C369 H364 0.950 . S
C369 C370 1.478 . S
C370 C369 1.478 . S
C370 C371 1.397 . S
C370 C387 1.394 . S
C371 C370 1.397 . S
C371 C372 1.438 . S
C371 C376 1.429 . S
C372 C371 1.438 . S
C372 C373 1.428 . S
C372 C385 1.394 . S
C373 H365 0.949 . S
C373 C372 1.428 . S
C373 C374 1.345 1_545 S
C374 H366 0.950 . S
C374 C373 1.345 1_565 S
C374 C375 1.424 1_565 S
C375 H367 0.951 . S
C375 C374 1.424 1_545 S
C375 C376 1.347 . S
C376 H368 0.951 . S
C376 C371 1.429 . S
C376 C375 1.347 . S
H377 C378 0.951 . S
C378 H377 0.951 . S
C378 C384 1.265 . S
H379 C384 0.950 . S
H380 C388 0.949 . S
H381 C389 0.950 . S
H382 C390 0.951 . S
H383 C391 0.951 . S
C384 C378 1.265 . S
C384 H379 0.950 . S
C384 C385 1.478 . S
C385 C372 1.394 . S
C385 C384 1.478 . S
C385 C386 1.397 . S
C386 C385 1.397 . S
C386 C387 1.438 . S
C386 C391 1.429 . S
C387 C370 1.394 . S
C387 C386 1.438 . S
C387 C388 1.428 . S
C388 H380 0.949 . S
C388 C387 1.428 . S
C388 C389 1.345 . S
C389 H381 0.950 . S
C389 C388 1.345 . S
C389 C390 1.424 . S
C390 H382 0.951 . S
C390 C389 1.424 . S
C390 C391 1.347 . S
C391 H383 0.951 . S
C391 C386 1.429 . S
C391 C390 1.347 . S
H392 C393 0.951 . S
C393 H392 0.951 . S
C393 C399 1.265 . S
H394 C399 0.950 . S
H395 C403 0.949 . S
H396 C404 0.950 . S
H397 C405 0.951 . S
H398 C406 0.951 . S
C399 C393 1.265 . S
C399 H394 0.950 . S
C399 C400 1.478 . S
C400 C399 1.478 . S
C400 C401 1.397 . S
C400 C417 1.394 . S
C401 C400 1.397 . S
C401 C402 1.438 . S
C401 C406 1.429 . S
C402 C401 1.438 . S
C402 C403 1.428 . S
C402 C415 1.394 . S
C403 H395 0.949 . S
C403 C402 1.428 . S
C403 C404 1.345 . S
C404 H396 0.950 . S
C404 C403 1.345 . S
C404 C405 1.424 . S
C405 H397 0.951 . S
C405 C404 1.424 . S
C405 C406 1.347 . S
C406 H398 0.951 . S
C406 C401 1.429 . S
C406 C405 1.347 . S
H407 C408 0.951 . S
C408 H407 0.951 . S
C408 C414 1.265 . S
H409 C414 0.950 . S
H410 C418 0.949 . S
H411 C419 0.950 . S
H412 C420 0.951 . S
H413 C421 0.951 . S
C414 C408 1.265 . S
C414 H409 0.950 . S
C414 C415 1.478 . S
C415 C402 1.394 . S
C415 C414 1.478 . S
C415 C416 1.397 . S
C416 C415 1.397 . S
C416 C417 1.438 . S
C416 C421 1.429 . S
C417 C400 1.394 . S
C417 C416 1.438 . S
C417 C418 1.428 . S
C418 H410 0.949 . S
C418 C417 1.428 . S
C418 C419 1.345 . S
C419 H411 0.950 . S
C419 C418 1.345 . S
C419 C420 1.424 . S
C420 H412 0.951 . S
C420 C419 1.424 . S
C420 C421 1.347 . S
C421 H413 0.951 . S
C421 C416 1.429 . S
C421 C420 1.347 . S
H422 C423 0.951 . S
C423 H422 0.951 . S
C423 C429 1.265 . S
H424 C429 0.950 . S
H425 C433 0.949 . S
H426 C434 0.950 . S
H427 C435 0.951 . S
H428 C436 0.951 . S
C429 C423 1.265 . S
C429 H424 0.950 . S
C429 C430 1.478 . S
C430 C429 1.478 . S
C430 C431 1.397 . S
C430 C447 1.394 . S
C431 C430 1.397 . S
C431 C432 1.438 . S
C431 C436 1.429 . S
C432 C431 1.438 . S
C432 C433 1.428 . S
C432 C445 1.394 . S
C433 H425 0.949 . S
C433 C432 1.428 . S
C433 C434 1.345 . S
C434 H426 0.950 . S
C434 C433 1.345 . S
C434 C435 1.424 . S
C435 H427 0.951 . S
C435 C434 1.424 . S
C435 C436 1.347 . S
C436 H428 0.951 . S
C436 C431 1.429 . S
C436 C435 1.347 . S
H437 C438 0.951 . S
C438 H437 0.951 . S
C438 C444 1.265 . S
H439 C444 0.950 . S
H440 C448 0.949 . S
H441 C449 0.950 . S
H442 C450 0.951 . S
H443 C451 0.951 . S
C444 C438 1.265 . S
C444 H439 0.950 . S
C444 C445 1.478 . S
C445 C432 1.394 . S
C445 C444 1.478 . S
C445 C446 1.397 . S
C446 C445 1.397 . S
C446 C447 1.438 . S
C446 C451 1.429 . S
C447 C430 1.394 . S
C447 C446 1.438 . S
C447 C448 1.428 . S
C448 H440 0.949 . S
C448 C447 1.428 . S
C448 C449 1.345 . S
C449 H441 0.950 . S
C449 C448 1.345 . S
C449 C450 1.424 . S
C450 H442 0.951 . S
C450 C449 1.424 . S
C450 C451 1.347 . S
C451 H443 0.951 . S
C451 C446 1.429 . S
C451 C450 1.347 . S
H452 C453 0.951 . S
C453 H452 0.951 . S
C453 C459 1.265 . S
H454 C459 0.950 . S
H455 C463 0.949 . S
H456 C464 0.950 . S
H457 C465 0.951 . S
H458 C466 0.951 . S
C459 C453 1.265 . S
C459 H454 0.950 . S
C459 C460 1.478 . S
C460 C459 1.478 . S
C460 C461 1.397 . S
C460 C477 1.394 . S
C461 C460 1.397 . S
C461 C462 1.438 . S
C461 C466 1.429 . S
C462 C461 1.438 . S
C462 C463 1.428 . S
C462 C475 1.394 . S
C463 H455 0.949 . S
C463 C462 1.428 . S
C463 C464 1.345 . S
C464 H456 0.950 . S
C464 C463 1.345 . S
C464 C465 1.424 . S
C465 H457 0.951 . S
C465 C464 1.424 . S
C465 C466 1.347 . S
C466 H458 0.951 . S
C466 C461 1.429 . S
C466 C465 1.347 . S
H467 C468 0.951 . S
C468 H467 0.951 . S
C468 C474 1.265 . S
H469 C474 0.950 . S
H470 C478 0.949 . S
H471 C479 0.950 . S
H472 C480 0.951 . S
H473 C481 0.951 . S
C474 C468 1.265 . S
C474 H469 0.950 . S
C474 C475 1.478 . S
C475 C462 1.394 . S
C475 C474 1.478 . S
C475 C476 1.397 . S
C476 C475 1.397 . S
C476 C477 1.438 . S
C476 C481 1.429 . S
C477 C460 1.394 . S
C477 C476 1.438 . S
C477 C478 1.428 . S
C478 H470 0.949 . S
C478 C477 1.428 . S
C478 C479 1.345 . S
C479 H471 0.950 . S
C479 C478 1.345 . S
C479 C480 1.424 . S
C480 H472 0.951 . S
C480 C479 1.424 . S
C480 C481 1.347 . S
C481 H473 0.951 . S
C481 C476 1.429 . S
C481 C480 1.347 . S
H482 C483 0.951 . S
C483 H482 0.951 . S
C483 C489 1.265 . S
H484 C489 0.950 . S
H485 C493 0.949 . S
H486 C494 0.950 . S
H487 C495 0.951 . S
H488 C496 0.951 . S
C489 C483 1.265 . S
C489 H484 0.950 . S
C489 C490 1.478 . S
C490 C489 1.478 . S
C490 C491 1.397 . S
C490 C507 1.394 . S
C491 C490 1.397 . S
C491 C492 1.438 . S
C491 C496 1.429 . S
C492 C491 1.438 . S
C492 C493 1.428 . S
C492 C505 1.394 . S
C493 H485 0.949 . S
C493 C492 1.428 . S
C493 C494 1.345 . S
C494 H486 0.950 . S
C494 C493 1.345 . S
C494 C495 1.424 . S
C495 H487 0.951 . S
C495 C494 1.424 . S
C495 C496 1.347 . S
C496 H488 0.951 . S
C496 C491 1.429 . S
C496 C495 1.347 . S
H497 C498 0.951 . S
C498 H497 0.951 . S
C498 C504 1.265 . S
H499 C504 0.950 . S
H500 C508 0.949 . S
H501 C509 0.950 1_565 S
H502 C510 0.951 . S
H503 C511 0.951 . S
C504 C498 1.265 . S
C504 H499 0.950 . S
C504 C505 1.478 . S
C505 C492 1.394 . S
C505 C504 1.478 . S
C505 C506 1.397 . S
C506 C505 1.397 . S
C506 C507 1.438 . S
C506 C511 1.429 . S
C507 C490 1.394 . S
C507 C506 1.438 . S
C507 C508 1.428 . S
C508 H500 0.949 . S
C508 C507 1.428 . S
C508 C509 1.345 . S
C509 H501 0.950 1_545 S
C509 C508 1.345 . S
C509 C510 1.424 . S
C510 H502 0.951 . S
C510 C509 1.424 . S
C510 C511 1.347 . S
C511 H503 0.951 . S
C511 C506 1.429 . S
C511 C510 1.347 . S
H512 C513 0.951 . S
C513 H512 0.951 . S
C513 C519 1.265 . S
H514 C519 0.950 . S
H515 C523 0.949 . S
H516 C524 0.950 . S
H517 C525 0.951 . S
H518 C526 0.951 . S
C519 C513 1.265 . S
C519 H514 0.950 . S
C519 C520 1.478 . S
C520 C519 1.478 . S
C520 C521 1.397 . S
C520 C537 1.394 1_545 S
C521 C520 1.397 . S
C521 C522 1.438 . S
C521 C526 1.429 . S
C522 C521 1.438 . S
C522 C523 1.428 . S
C522 C535 1.394 . S
C523 H515 0.949 . S
C523 C522 1.428 . S
C523 C524 1.345 . S
C524 H516 0.950 . S
C524 C523 1.345 . S
C524 C525 1.424 . S
C525 H517 0.951 . S
C525 C524 1.424 . S
C525 C526 1.347 . S
C526 H518 0.951 . S
C526 C521 1.429 . S
C526 C525 1.347 . S
H527 C528 0.951 . S
C528 H527 0.951 . S
C528 C534 1.265 . S
H529 C534 0.950 . S
H530 C538 0.949 . S
H531 C539 0.950 . S
H532 C540 0.951 . S
H533 C541 0.951 . S
C534 C528 1.265 . S
C534 H529 0.950 . S
C534 C535 1.478 . S
C535 C522 1.394 . S
C535 C534 1.478 . S
C535 C536 1.397 1_545 S
C536 C535 1.397 1_565 S
C536 C537 1.438 . S
C536 C541 1.429 . S
C537 C520 1.394 1_565 S
C537 C536 1.438 . S
C537 C538 1.428 . S
C538 H530 0.949 . S
C538 C537 1.428 . S
C538 C539 1.345 . S
C539 H531 0.950 . S
C539 C538 1.345 . S
C539 C540 1.424 . S
C540 H532 0.951 . S
C540 C539 1.424 . S
C540 C541 1.347 . S
C541 H533 0.951 . S
C541 C536 1.429 . S
C541 C540 1.347 . S
H542 C543 0.951 . S
C543 H542 0.951 . S
C543 C549 1.265 . S
H544 C549 0.950 . S
H545 C553 0.949 . S
H546 C554 0.950 . S
H547 C555 0.951 . S
H548 C556 0.951 . S
C549 C543 1.265 . S
C549 H544 0.950 . S
C549 C550 1.478 . S
C550 C549 1.478 . S
C550 C551 1.397 . S
C550 C567 1.394 . S
C551 C550 1.397 . S
C551 C552 1.438 . S
C551 C556 1.429 . S
C552 C551 1.438 . S
C552 C553 1.428 . S
C552 C565 1.394 . S
C553 H545 0.949 . S
C553 C552 1.428 . S
C553 C554 1.345 . S
C554 H546 0.950 . S
C554 C553 1.345 . S
C554 C555 1.424 . S
C555 H547 0.951 . S
C555 C554 1.424 . S
C555 C556 1.347 . S
C556 H548 0.951 . S
C556 C551 1.429 . S
C556 C555 1.347 . S
H557 C558 0.951 . S
C558 H557 0.951 . S
C558 C564 1.265 . S
H559 C564 0.950 . S
H560 C568 0.949 . S
H561 C569 0.950 . S
H562 C570 0.951 . S
H563 C571 0.951 . S
C564 C558 1.265 . S
C564 H559 0.950 . S
C564 C565 1.478 . S
C565 C552 1.394 . S
C565 C564 1.478 . S
C565 C566 1.397 . S
C566 C565 1.397 . S
C566 C567 1.438 . S
C566 C571 1.429 . S
C567 C550 1.394 . S
C567 C566 1.438 . S
C567 C568 1.428 . S
C568 H560 0.949 . S
C568 C567 1.428 . S
C568 C569 1.345 . S
C569 H561 0.950 . S
C569 C568 1.345 . S
C569 C570 1.424 . S
C570 H562 0.951 . S
C570 C569 1.424 . S
C570 C571 1.347 . S
C571 H563 0.951 . S
C571 C566 1.429 . S
C571 C570 1.347 . S
H572 C573 0.951 . S
C573 H572 0.951 . S
C573 C579 1.265 . S
H574 C579 0.950 . S
H575 C583 0.949 . S
H576 C584 0.950 . S
H577 C585 0.951 . S
H578 C586 0.951 . S
C579 C573 1.265 . S
C579 H574 0.950 . S
C579 C580 1.478 . S
C580 C579 1.478 . S
C580 C581 1.397 . S
C580 C597 1.394 1_545 S
C581 C580 1.397 . S
C581 C582 1.438 1_455 S
C581 C586 1.429 . S
C582 C581 1.438 1_655 S
C582 C583 1.428 . S
C582 C595 1.394 . S
C583 H575 0.949 . S
C583 C582 1.428 . S
C583 C584 1.345 . S
C584 H576 0.950 . S
C584 C583 1.345 . S
C584 C585 1.424 1_655 S
C585 H577 0.951 . S
C585 C584 1.424 1_455 S
C585 C586 1.347 . S
C586 H578 0.951 . S
C586 C581 1.429 . S
C586 C585 1.347 . S
H587 C588 0.951 . S
C588 H587 0.951 . S
C588 C594 1.265 . S
H589 C594 0.950 . S
H590 C598 0.949 . S
H591 C599 0.950 . S
H592 C600 0.951 . S
H593 C601 0.951 . S
C594 C588 1.265 . S
C594 H589 0.950 . S
C594 C595 1.478 . S
C595 C582 1.394 . S
C595 C594 1.478 . S
C595 C596 1.397 1_545 S
C596 C595 1.397 1_565 S
C596 C597 1.438 1_655 S
C596 C601 1.429 . S
C597 C580 1.394 1_565 S
C597 C596 1.438 1_455 S
C597 C598 1.428 . S
C598 H590 0.949 . S
C598 C597 1.428 . S
C598 C599 1.345 . S
C599 H591 0.950 . S
C599 C598 1.345 . S
C599 C600 1.424 1_455 S
C600 H592 0.951 . S
C600 C599 1.424 1_655 S
C600 C601 1.347 . S
C601 H593 0.951 . S
C601 C596 1.429 . S
C601 C600 1.347 . S
H602 C603 0.951 . S
C603 H602 0.951 . S
C603 C609 1.265 . S
H604 C609 0.950 . S
H605 C613 0.949 . S
H606 C614 0.950 . S
H607 C615 0.951 . S
H608 C616 0.951 . S
C609 C603 1.265 . S
C609 H604 0.950 . S
C609 C610 1.478 . S
C610 C609 1.478 . S
C610 C611 1.397 . S
C610 C627 1.394 . S
C611 C610 1.397 . S
C611 C612 1.438 1_655 S
C611 C616 1.429 . S
C612 C611 1.438 1_455 S
C612 C613 1.428 . S
C612 C625 1.394 . S
C613 H605 0.949 . S
C613 C612 1.428 . S
C613 C614 1.345 . S
C614 H606 0.950 . S
C614 C613 1.345 . S
C614 C615 1.424 1_455 S
C615 H607 0.951 . S
C615 C614 1.424 1_655 S
C615 C616 1.347 . S
C616 H608 0.951 . S
C616 C611 1.429 . S
C616 C615 1.347 . S
H617 C618 0.951 . S
C618 H617 0.951 . S
C618 C624 1.265 . S
H619 C624 0.950 . S
H620 C628 0.949 . S
H621 C629 0.950 . S
H622 C630 0.951 . S
H623 C631 0.951 . S
C624 C618 1.265 . S
C624 H619 0.950 . S
C624 C625 1.478 . S
C625 C612 1.394 . S
C625 C624 1.478 . S
C625 C626 1.397 . S
C626 C625 1.397 . S
C626 C627 1.438 1_455 S
C626 C631 1.429 . S
C627 C610 1.394 . S
C627 C626 1.438 1_655 S
C627 C628 1.428 . S
C628 H620 0.949 . S
C628 C627 1.428 . S
C628 C629 1.345 . S
C629 H621 0.950 . S
C629 C628 1.345 . S
C629 C630 1.424 1_655 S
C630 H622 0.951 . S
C630 C629 1.424 1_455 S
C630 C631 1.347 . S
C631 H623 0.951 . S
C631 C626 1.429 . S
C631 C630 1.347 . S
H632 C633 0.951 . S
C633 H632 0.951 . S
C633 C639 1.265 . S
H634 C639 0.950 . S
H635 C643 0.949 . S
H636 C644 0.950 . S
H637 C645 0.951 . S
H638 C646 0.951 . S
C639 C633 1.265 . S
C639 H634 0.950 . S
C639 C640 1.478 . S
C640 C639 1.478 . S
C640 C641 1.397 . S
C640 C657 1.394 . S
C641 C640 1.397 . S
C641 C642 1.438 . S
C641 C646 1.429 . S
C642 C641 1.438 . S
C642 C643 1.428 . S
C642 C655 1.394 . S
C643 H635 0.949 . S
C643 C642 1.428 . S
C643 C644 1.345 . S
C644 H636 0.950 . S
C644 C643 1.345 . S
C644 C645 1.424 . S
C645 H637 0.951 . S
C645 C644 1.424 . S
C645 C646 1.347 . S
C646 H638 0.951 . S
C646 C641 1.429 . S
C646 C645 1.347 . S
H647 C648 0.951 . S
C648 H647 0.951 . S
C648 C654 1.265 . S
H649 C654 0.950 . S
H650 C658 0.949 1_554 S
H651 C659 0.950 . S
H652 C660 0.951 . S
H653 C661 0.951 . S
C654 C648 1.265 . S
C654 H649 0.950 . S
C654 C655 1.478 . S
C655 C642 1.394 . S
C655 C654 1.478 . S
C655 C656 1.397 . S
C656 C655 1.397 . S
C656 C657 1.438 . S
C656 C661 1.429 1_554 S
C657 C640 1.394 . S
C657 C656 1.438 . S
C657 C658 1.428 1_554 S
C658 H650 0.949 1_556 S
C658 C657 1.428 1_556 S
C658 C659 1.345 . S
C659 H651 0.950 . S
C659 C658 1.345 . S
C659 C660 1.424 . S
C660 H652 0.951 . S
C660 C659 1.424 . S
C660 C661 1.347 . S
C661 H653 0.951 . S
C661 C656 1.429 1_556 S
C661 C660 1.347 . S
H662 C663 0.951 . S
C663 H662 0.951 . S
C663 C669 1.265 . S
H664 C669 0.950 . S
H665 C673 0.949 . S
H666 C674 0.950 . S
H667 C675 0.951 . S
H668 C676 0.951 . S
C669 C663 1.265 . S
C669 H664 0.950 . S
C669 C670 1.478 . S
C670 C669 1.478 . S
C670 C671 1.397 . S
C670 C687 1.394 . S
C671 C670 1.397 . S
C671 C672 1.438 . S
C671 C676 1.429 . S
C672 C671 1.438 . S
C672 C673 1.428 . S
C672 C685 1.394 . S
C673 H665 0.949 . S
C673 C672 1.428 . S
C673 C674 1.345 . S
C674 H666 0.950 . S
C674 C673 1.345 . S
C674 C675 1.424 . S
C675 H667 0.951 . S
C675 C674 1.424 . S
C675 C676 1.347 . S
C676 H668 0.951 . S
C676 C671 1.429 . S
C676 C675 1.347 . S
H677 C678 0.951 . S
C678 H677 0.951 . S
C678 C684 1.265 . S
H679 C684 0.950 . S
H680 C688 0.949 . S
H681 C689 0.950 . S
H682 C690 0.951 . S
H683 C691 0.951 . S
C684 C678 1.265 . S
C684 H679 0.950 . S
C684 C685 1.478 . S
C685 C672 1.394 . S
C685 C684 1.478 . S
C685 C686 1.397 . S
C686 C685 1.397 . S
C686 C687 1.438 . S
C686 C691 1.429 . S
C687 C670 1.394 . S
C687 C686 1.438 . S
C687 C688 1.428 . S
C688 H680 0.949 . S
C688 C687 1.428 . S
C688 C689 1.345 . S
C689 H681 0.950 . S
C689 C688 1.345 . S
C689 C690 1.424 1_565 S
C690 H682 0.951 . S
C690 C689 1.424 1_545 S
C690 C691 1.347 1_545 S
C691 H683 0.951 . S
C691 C686 1.429 . S
C691 C690 1.347 1_565 S
H692 C693 0.951 . S
C693 H692 0.951 . S
C693 C699 1.265 . S
H694 C699 0.950 . S
H695 C703 0.949 . S
H696 C704 0.950 1_545 S
H697 C705 0.951 . S
H698 C706 0.951 . S
C699 C693 1.265 . S
C699 H694 0.950 . S
C699 C700 1.478 . S
C700 C699 1.478 . S
C700 C701 1.397 . S
C700 C717 1.394 . S
C701 C700 1.397 . S
C701 C702 1.438 . S
C701 C706 1.429 . S
C702 C701 1.438 . S
C702 C703 1.428 . S
C702 C715 1.394 . S
C703 H695 0.949 . S
C703 C702 1.428 . S
C703 C704 1.345 . S
C704 H696 0.950 1_565 S
C704 C703 1.345 . S
C704 C705 1.424 . S
C705 H697 0.951 . S
C705 C704 1.424 . S
C705 C706 1.347 . S
C706 H698 0.951 . S
C706 C701 1.429 . S
C706 C705 1.347 . S
H707 C708 0.951 . S
C708 H707 0.951 . S
C708 C714 1.265 . S
H709 C714 0.950 . S
H710 C718 0.949 . S
H711 C719 0.950 . S
H712 C720 0.945 1_556 S
H713 C721 0.951 . S
C714 C708 1.265 . S
C714 H709 0.950 . S
C714 C715 1.478 . S
C715 C702 1.394 . S
C715 C714 1.478 . S
C715 C716 1.397 . S
C716 C715 1.397 . S
C716 C717 1.438 . S
C716 C721 1.429 . S
C717 C700 1.394 . S
C717 C716 1.438 . S
C717 C718 1.428 . S
C718 H710 0.949 . S
C718 C717 1.428 . S
C718 C719 1.345 . S
C719 H711 0.950 . S
C719 C718 1.345 . S
C719 C720 1.424 . S
C720 H712 0.945 1_554 S
C720 C719 1.424 . S
C720 C721 1.347 . S
C721 H713 0.951 . S
C721 C716 1.429 . S
C721 C720 1.347 . S
H722 C723 0.951 . S
C723 H722 0.951 . S
C723 C729 1.265 . S
H724 C729 0.950 . S
H725 C733 0.949 . S
H726 C734 0.950 . S
H727 C735 0.951 . S
H728 C736 0.951 . S
C729 C723 1.265 . S
C729 H724 0.950 . S
C729 C730 1.478 . S
C730 C729 1.478 . S
C730 C731 1.397 . S
C730 C747 1.394 . S
C731 C730 1.397 . S
C731 C732 1.438 . S
C731 C736 1.429 . S
C732 C731 1.438 . S
C732 C733 1.428 . S
C732 C745 1.394 . S
C733 H725 0.949 . S
C733 C732 1.428 . S
C733 C734 1.345 . S
C734 H726 0.950 . S
C734 C733 1.345 . S
C734 C735 1.424 . S
C735 H727 0.951 . S
C735 C734 1.424 . S
C735 C736 1.347 . S
C736 H728 0.951 . S
C736 C731 1.429 . S
C736 C735 1.347 . S
H737 C738 0.951 . S
C738 H737 0.951 . S
C738 C744 1.265 . S
H739 C744 0.950 . S
H740 C748 0.949 . S
H741 C749 0.950 . S
H742 C750 0.951 1_556 S
H743 C751 0.951 . S
C744 C738 1.265 . S
C744 H739 0.950 . S
C744 C745 1.478 . S
C745 C732 1.394 . S
C745 C744 1.478 . S
C745 C746 1.397 . S
C746 C745 1.397 . S
C746 C747 1.438 . S
C746 C751 1.429 . S
C747 C730 1.394 . S
C747 C746 1.438 . S
C747 C748 1.428 . S
C748 H740 0.949 . S
C748 C747 1.428 . S
C748 C749 1.345 . S
C749 H741 0.950 . S
C749 C748 1.345 . S
C749 C750 1.424 . S
C750 H742 0.951 1_554 S
C750 C749 1.424 . S
C750 C751 1.347 . S
C751 H743 0.951 . S
C751 C746 1.429 . S
C751 C750 1.347 . S
H752 C753 0.951 . S
C753 H752 0.951 . S
C753 C759 1.265 . S
H754 C759 0.950 . S
H755 C763 0.949 . S
H756 C764 0.950 . S
H757 C765 0.951 . S
H758 C766 0.951 . S
C759 C753 1.265 . S
C759 H754 0.950 . S
C759 C760 1.478 . S
C760 C759 1.478 . S
C760 C761 1.397 . S
C760 C777 1.394 . S
C761 C760 1.397 . S
C761 C762 1.438 . S
C761 C766 1.429 . S
C762 C761 1.438 . S
C762 C763 1.428 . S
C762 C775 1.394 . S
C763 H755 0.949 . S
C763 C762 1.428 . S
C763 C764 1.345 . S
C764 H756 0.950 . S
C764 C763 1.345 . S
C764 C765 1.424 . S
C765 H757 0.951 . S
C765 C764 1.424 . S
C765 C766 1.347 . S
C766 H758 0.951 . S
C766 C761 1.429 . S
C766 C765 1.347 . S
H767 C768 0.951 . S
C768 H767 0.951 . S
C768 C774 1.265 . S
H769 C774 0.950 . S
H770 C778 0.949 . S
H771 C779 0.950 . S
H772 C780 0.951 . S
H773 C781 0.951 . S
C774 C768 1.265 . S
C774 H769 0.950 . S
C774 C775 1.478 . S
C775 C762 1.394 . S
C775 C774 1.478 . S
C775 C776 1.397 . S
C776 C775 1.397 . S
C776 C777 1.438 . S
C776 C781 1.429 . S
C777 C760 1.394 . S
C777 C776 1.438 . S
C777 C778 1.428 . S
C778 H770 0.949 . S
C778 C777 1.428 . S
C778 C779 1.345 . S
C779 H771 0.950 . S
C779 C778 1.345 . S
C779 C780 1.424 . S
C780 H772 0.951 . S
C780 C779 1.424 . S
C780 C781 1.347 . S
C781 H773 0.951 . S
C781 C776 1.429 . S
C781 C780 1.347 . S
H782 C783 0.951 . S
C783 H782 0.951 . S
C783 C789 1.265 . S
H784 C789 0.950 . S
H785 C793 0.949 . S
H786 C794 0.950 . S
H787 C795 0.951 . S
H788 C796 0.951 . S
C789 C783 1.265 . S
C789 H784 0.950 . S
C789 C790 1.478 . S
C790 C789 1.478 . S
C790 C791 1.397 . S
C790 C807 1.394 . S
C791 C790 1.397 . S
C791 C792 1.438 . S
C791 C796 1.429 . S
C792 C791 1.438 . S
C792 C793 1.428 . S
C792 C805 1.394 . S
C793 H785 0.949 . S
C793 C792 1.428 . S
C793 C794 1.345 . S
C794 H786 0.950 . S
C794 C793 1.345 . S
C794 C795 1.424 . S
C795 H787 0.951 . S
C795 C794 1.424 . S
C795 C796 1.347 . S
C796 H788 0.951 . S
C796 C791 1.429 . S
C796 C795 1.347 . S
H797 C798 0.951 . S
C798 H797 0.951 . S
C798 C804 1.265 . S
H799 C804 0.950 . S
H800 C808 0.949 . S
H801 C809 0.950 . S
H802 C810 0.951 . S
H803 C811 0.951 . S
C804 C798 1.265 . S
C804 H799 0.950 . S
C804 C805 1.478 . S
C805 C792 1.394 . S
C805 C804 1.478 . S
C805 C806 1.397 . S
C806 C805 1.397 . S
C806 C807 1.438 . S
C806 C811 1.429 . S
C807 C790 1.394 . S
C807 C806 1.438 . S
C807 C808 1.428 . S
C808 H800 0.949 . S
C808 C807 1.428 . S
C808 C809 1.345 . S
C809 H801 0.950 . S
C809 C808 1.345 . S
C809 C810 1.424 . S
C810 H802 0.951 . S
C810 C809 1.424 . S
C810 C811 1.347 . S
C811 H803 0.951 . S
C811 C806 1.429 . S
C811 C810 1.347 . S
H812 C813 0.951 . S
C813 H812 0.951 . S
C813 C819 1.265 . S
H814 C819 0.950 . S
H815 C823 0.949 . S
H816 C824 0.950 . S
H817 C825 0.951 . S
H818 C826 0.951 . S
C819 C813 1.265 . S
C819 H814 0.950 . S
C819 C820 1.478 . S
C820 C819 1.478 . S
C820 C821 1.397 . S
C820 C837 1.394 . S
C821 C820 1.397 . S
C821 C822 1.438 . S
C821 C826 1.429 . S
C822 C821 1.438 . S
C822 C823 1.428 . S
C822 C835 1.394 . S
C823 H815 0.949 . S
C823 C822 1.428 . S
C823 C824 1.345 . S
C824 H816 0.950 . S
C824 C823 1.345 . S
C824 C825 1.424 . S
C825 H817 0.951 . S
C825 C824 1.424 . S
C825 C826 1.347 . S
C826 H818 0.951 . S
C826 C821 1.429 . S
C826 C825 1.347 . S
H827 C828 0.951 . S
C828 H827 0.951 . S
C828 C834 1.265 . S
H829 C834 0.950 . S
H830 C838 0.949 . S
H831 C839 0.950 . S
H832 C840 0.951 . S
H833 C841 0.951 . S
C834 C828 1.265 . S
C834 H829 0.950 . S
C834 C835 1.478 . S
C835 C822 1.394 . S
C835 C834 1.478 . S
C835 C836 1.397 . S
C836 C835 1.397 . S
C836 C837 1.438 . S
C836 C841 1.429 . S
C837 C820 1.394 . S
C837 C836 1.438 . S
C837 C838 1.428 . S
C838 H830 0.949 . S
C838 C837 1.428 . S
C838 C839 1.345 . S
C839 H831 0.950 . S
C839 C838 1.345 . S
C839 C840 1.424 . S
C840 H832 0.951 . S
C840 C839 1.424 . S
C840 C841 1.347 . S
C841 H833 0.951 . S
C841 C836 1.429 . S
C841 C840 1.347 . S
H842 C843 0.951 . S
C843 H842 0.951 . S
C843 C849 1.265 . S
H844 C849 0.950 . S
H845 C853 0.949 . S
H846 C854 0.950 . S
H847 C855 0.951 . S
H848 C856 0.951 . S
C849 C843 1.265 . S
C849 H844 0.950 . S
C849 C850 1.478 . S
C850 C849 1.478 . S
C850 C851 1.397 . S
C850 C867 1.394 . S
C851 C850 1.397 . S
C851 C852 1.438 . S
C851 C856 1.429 . S
C852 C851 1.438 . S
C852 C853 1.428 . S
C852 C865 1.394 . S
C853 H845 0.949 . S
C853 C852 1.428 . S
C853 C854 1.345 . S
C854 H846 0.950 . S
C854 C853 1.345 . S
C854 C855 1.424 . S
C855 H847 0.951 . S
C855 C854 1.424 . S
C855 C856 1.347 . S
C856 H848 0.951 . S
C856 C851 1.429 . S
C856 C855 1.347 . S
H857 C858 0.951 . S
C858 H857 0.951 . S
C858 C864 1.265 . S
H859 C864 0.950 . S
H860 C868 0.949 . S
H861 C869 0.950 . S
H862 C870 0.951 . S
H863 C871 0.951 . S
C864 C858 1.265 . S
C864 H859 0.950 . S
C864 C865 1.478 . S
C865 C852 1.394 . S
C865 C864 1.478 . S
C865 C866 1.397 . S
C866 C865 1.397 . S
C866 C867 1.438 . S
C866 C871 1.429 . S
C867 C850 1.394 . S
C867 C866 1.438 . S
C867 C868 1.428 . S
C868 H860 0.949 . S
C868 C867 1.428 . S
C868 C869 1.345 . S
C869 H861 0.950 . S
C869 C868 1.345 . S
C869 C870 1.424 . S
C870 H862 0.951 . S
C870 C869 1.424 . S
C870 C871 1.347 . S
C871 H863 0.951 . S
C871 C866 1.429 . S
C871 C870 1.347 . S
C273 C77 1.487 . S
C288 C5 1.545 . S
C303 C43 1.511 . S
C318 C107 1.541 . S
C333 C73 1.536 . S
C348 C9 1.481 . S
C363 C111 1.481 . S
C378 C39 1.536 . S
C393 C141 1.545 . S
C408 C213 1.464 . S
C423 C243 1.545 . S
C438 C179 1.488 . S
C453 C145 1.486 . S
C468 C209 1.535 . S
C483 C175 1.541 . S
C498 C247 1.511 . S
C513 C54 1.390 . S
C528 C20 1.401 . S
C543 C88 1.398 . S
C558 C122 1.393 . S
C573 C190 1.395 . S
C588 C156 1.396 . S
C603 C224 1.392 . S
C618 C258 1.397 . S
C633 C240 0.864 . S
C648 C33 0.883 . S
C663 C237 0.827 . S
C678 C36 0.841 . S
C693 C271 0.730 . S
C708 C2 0.748 . S
C723 C67 0.729 . S
C738 C206 0.748 . S
C753 C172 0.752 . S
C768 C101 0.740 . S
C783 C104 0.855 . S
C798 C169 0.857 . S
C813 C203 0.885 . S
C828 C70 0.863 . S
C843 C135 0.720 . S
C858 C138 0.745 . S
