# Generated by pormake.
# Topology wiz, (3)-cn, num edge types: 1
# Building blocks:
#     Node 0, Type 0, BuildingBlock: OLANEW_clean_sbu_2, # of connection points: 3
#     Node 1, Type 0, BuildingBlock: OLANEW_clean_sbu_2, # of connection points: 3
#     Node 2, Type 0, BuildingBlock: OLANEW_clean_sbu_2, # of connection points: 3
#     Node 3, Type 0, BuildingBlock: OLANEW_clean_sbu_2, # of connection points: 3
#     Node 4, Type 0, BuildingBlock: OLANEW_clean_sbu_2, # of connection points: 3
#     Node 5, Type 0, BuildingBlock: OLANEW_clean_sbu_2, # of connection points: 3
#     Node 6, Type 0, BuildingBlock: OLANEW_clean_sbu_2, # of connection points: 3
#     Node 7, Type 0, BuildingBlock: OLANEW_clean_sbu_2, # of connection points: 3
#     Node 8, Type 0, BuildingBlock: OLANEW_clean_sbu_2, # of connection points: 3
#     Node 9, Type 0, BuildingBlock: OLANEW_clean_sbu_2, # of connection points: 3
#     Node 10, Type 0, BuildingBlock: OLANEW_clean_sbu_2, # of connection points: 3
#     Node 11, Type 0, BuildingBlock: OLANEW_clean_sbu_2, # of connection points: 3
#     Edge 12, Type (0, 0), BuildingBlock: TEMPAE_clean_linker_10, # of connection points: 2
#     Edge 13, Type (0, 0), BuildingBlock: TEMPAE_clean_linker_10, # of connection points: 2
#     Edge 14, Type (0, 0), BuildingBlock: TEMPAE_clean_linker_10, # of connection points: 2
#     Edge 15, Type (0, 0), BuildingBlock: TEMPAE_clean_linker_10, # of connection points: 2
#     Edge 16, Type (0, 0), BuildingBlock: TEMPAE_clean_linker_10, # of connection points: 2
#     Edge 17, Type (0, 0), BuildingBlock: TEMPAE_clean_linker_10, # of connection points: 2
#     Edge 18, Type (0, 0), BuildingBlock: TEMPAE_clean_linker_10, # of connection points: 2
#     Edge 19, Type (0, 0), BuildingBlock: TEMPAE_clean_linker_10, # of connection points: 2
#     Edge 20, Type (0, 0), BuildingBlock: TEMPAE_clean_linker_10, # of connection points: 2
#     Edge 21, Type (0, 0), BuildingBlock: TEMPAE_clean_linker_10, # of connection points: 2
#     Edge 22, Type (0, 0), BuildingBlock: TEMPAE_clean_linker_10, # of connection points: 2
#     Edge 23, Type (0, 0), BuildingBlock: TEMPAE_clean_linker_10, # of connection points: 2
#     Edge 24, Type (0, 0), BuildingBlock: TEMPAE_clean_linker_10, # of connection points: 2
#     Edge 25, Type (0, 0), BuildingBlock: TEMPAE_clean_linker_10, # of connection points: 2
#     Edge 26, Type (0, 0), BuildingBlock: TEMPAE_clean_linker_10, # of connection points: 2
#     Edge 27, Type (0, 0), BuildingBlock: TEMPAE_clean_linker_10, # of connection points: 2
#     Edge 28, Type (0, 0), BuildingBlock: TEMPAE_clean_linker_10, # of connection points: 2
#     Edge 29, Type (0, 0), BuildingBlock: TEMPAE_clean_linker_10, # of connection points: 2
# Relax obj value: 0.000
# Max RMSD: 0.046
# Mean RMSD: 0.046
data_MOF--net-wiz--node1-OLANEW_clean_sbu_2--edge1-TEMPAE_clean_linker_10
_symmetry_space_group_name_H-M    P1
_symmetry_Int_Tables_number       1
_symmetry_cell_setting            triclinic
loop_
_symmetry_equiv_pos_as_xyz
'x, y, z'
_cell_length_a     34.902499
_cell_length_b     34.841391
_cell_length_c     75.097865
_cell_angle_alpha  89.921274
_cell_angle_beta   90.032529
_cell_angle_gamma 120.00437
loop_
_atom_site_label
_atom_site_type_symbol
_atom_site_fract_x
_atom_site_fract_y
_atom_site_fract_z
_atom_type_partial_charge
O0 O 0.10435 0.49322 0.06293 0.0
Cd1 Cd 0.10748 0.5083 0.09498 0.0
O2 O 0.14665 0.46673 0.07119 0.0
Cd3 Cd 0.19639 0.44785 0.06567 0.0
O4 O 0.25584 0.44513 0.05938 0.0
C5 C 0.28899 0.48012 0.05341 0.0
O6 O 0.28561 0.51571 0.05112 0.0
C7 C 0.12816 0.47646 0.05879 0.0
C8 C 0.03991 0.44756 0.11698 0.0
O9 O 0.04194 0.48411 0.11261 0.0
O10 O 0.0687 0.43895 0.11047 0.0
O11 O 0.84501 0.22324 0.41952 0.0
Cd12 Cd 0.83854 0.23241 0.45143 0.0
O13 O 0.91661 0.26944 0.41744 0.0
Cd14 Cd 0.92339 0.29521 0.44445 0.0
O15 O 0.94971 0.3585 0.45829 0.0
C16 C 0.93199 0.38161 0.45436 0.0
O17 O 0.89704 0.36414 0.44395 0.0
C18 C 0.88022 0.24151 0.41027 0.0
C19 C 0.80338 0.15064 0.46869 0.0
O20 O 0.77827 0.16221 0.46071 0.0
O21 O 0.84516 0.17788 0.4687 0.0
O22 O 0.6429 0.80104 0.72758 0.0
Cd23 Cd 0.61372 0.80298 0.757 0.0
O24 O 0.68391 0.87323 0.72431 0.0
Cd25 Cd 0.65463 0.8866 0.74743 0.0
O26 O 0.61026 0.90973 0.75655 0.0
C27 C 0.61756 0.94673 0.75032 0.0
O28 O 0.65216 0.96922 0.73998 0.0
C29 C 0.67067 0.8343 0.71855 0.0
C30 C 0.64076 0.76421 0.78301 0.0
O31 O 0.60816 0.74046 0.77267 0.0
O32 O 0.66068 0.80642 0.78111 0.0
O33 O 0.78771 0.50152 0.0703 0.0
Cd34 Cd 0.77883 0.46286 0.09853 0.0
O35 O 0.72428 0.49751 0.07578 0.0
Cd36 Cd 0.66507 0.50098 0.06936 0.0
O37 O 0.60414 0.50296 0.06601 0.0
C38 C 0.58505 0.4967 0.05101 0.0
O39 O 0.60282 0.48933 0.03695 0.0
C40 C 0.75711 0.50892 0.06545 0.0
C41 C 0.84646 0.50909 0.1231 0.0
O42 O 0.84952 0.48418 0.11131 0.0
O43 O 0.81167 0.5127 0.12307 0.0
O44 O 0.21972 0.82196 0.41203 0.0
Cd45 Cd 0.2188 0.81086 0.44434 0.0
O46 O 0.157 0.82227 0.41039 0.0
Cd47 Cd 0.14213 0.80158 0.43815 0.0
O48 O 0.11133 0.73847 0.45239 0.0
C49 C 0.11631 0.70925 0.44429 0.0
O50 O 0.14048 0.72091 0.42974 0.0
C51 C 0.19106 0.8255 0.4028 0.0
C52 C 0.25312 0.88741 0.46517 0.0
O53 O 0.27868 0.87594 0.45754 0.0
O54 O 0.21134 0.86328 0.46265 0.0
O55 O 0.24529 0.12982 0.74901 0.0
Cd56 Cd 0.22465 0.11173 0.78033 0.0
O57 O 0.27656 0.08928 0.75212 0.0
Cd58 Cd 0.31832 0.06168 0.74448 0.0
O59 O 0.36557 0.03797 0.74329 0.0
C60 C 0.39152 0.0461 0.75643 0.0
O61 O 0.38889 0.0684 0.77001 0.0
C62 C 0.26692 0.11297 0.74227 0.0
C63 C 0.24454 0.18417 0.80212 0.0
O64 O 0.27394 0.17368 0.79833 0.0
O65 O 0.20589 0.1609 0.79532 0.0
O66 O 0.6596 0.78846 0.57908 0.0
Cd67 Cd 0.64416 0.77261 0.54739 0.0
O68 O 0.70804 0.766 0.58169 0.0
Cd69 Cd 0.68792 0.73108 0.55627 0.0
O70 O 0.64608 0.66328 0.54678 0.0
C71 C 0.60776 0.64284 0.55373 0.0
O72 O 0.59585 0.6648 0.56446 0.0
C73 C 0.68767 0.78421 0.58841 0.0
C74 C 0.67674 0.85246 0.52885 0.0
O75 O 0.6391 0.83475 0.53667 0.0
O76 O 0.69878 0.8321 0.52949 0.0
O77 O 0.74463 0.56516 0.92737 0.0
Cd78 Cd 0.75458 0.56054 0.8953 0.0
O79 O 0.80815 0.62602 0.93198 0.0
Cd80 Cd 0.83295 0.62593 0.90538 0.0
O81 O 0.8851 0.61533 0.89478 0.0
C82 C 0.92219 0.63731 0.90259 0.0
O83 O 0.92652 0.6661 0.91485 0.0
C84 C 0.77142 0.59522 0.93789 0.0
C85 C 0.73178 0.61156 0.87384 0.0
O86 O 0.70208 0.57419 0.88013 0.0
O87 O 0.77225 0.62531 0.87796 0.0
O88 O 0.14468 0.70833 0.26968 0.0
Cd89 Cd 0.15345 0.67898 0.24132 0.0
O90 O 0.20794 0.76649 0.26297 0.0
Cd91 Cd 0.27065 0.82782 0.26695 0.0
O92 O 0.33984 0.87953 0.26477 0.0
C93 C 0.36912 0.8716 0.2709 0.0
O94 O 0.35643 0.83349 0.27886 0.0
C95 C 0.1765 0.74618 0.27403 0.0
C96 C 0.08237 0.64642 0.21771 0.0
O97 O 0.08452 0.62151 0.22979 0.0
O98 O 0.11326 0.68709 0.21714 0.0
O99 O 0.39561 0.18694 0.60809 0.0
Cd100 Cd 0.42562 0.20881 0.5779 0.0
O101 O 0.33468 0.18929 0.6032 0.0
Cd102 Cd 0.3611 0.22499 0.5782 0.0
O103 O 0.40103 0.28776 0.56418 0.0
C104 C 0.43743 0.31457 0.57165 0.0
O105 O 0.44878 0.30167 0.5862 0.0
C106 C 0.35831 0.18057 0.61347 0.0
C107 C 0.38565 0.13952 0.55331 0.0
O108 O 0.41646 0.14311 0.56366 0.0
O109 O 0.37349 0.16855 0.55459 0.0
O110 O 0.30424 0.483 0.94276 0.0
Cd111 Cd 0.35349 0.49366 0.91772 0.0
O112 O 0.25767 0.49199 0.92613 0.0
Cd113 Cd 0.20219 0.50322 0.92146 0.0
O114 O 0.1498 0.51916 0.91735 0.0
C115 C 0.15215 0.54407 0.90451 0.0
O116 O 0.18627 0.55955 0.89369 0.0
C117 C 0.26914 0.48527 0.94138 0.0
C118 C 0.32148 0.42458 0.8931 0.0
O119 O 0.34043 0.42307 0.9075 0.0
O120 O 0.3168 0.45839 0.8905 0.0
O121 O 0.82134 0.20201 0.26975 0.0
Cd122 Cd 0.79269 0.17996 0.2394 0.0
O123 O 0.83155 0.14498 0.27291 0.0
Cd124 Cd 0.79051 0.11191 0.24983 0.0
O125 O 0.71939 0.07276 0.24531 0.0
C126 C 0.69679 0.08011 0.25666 0.0
O127 O 0.71787 0.11074 0.2688 0.0
C128 C 0.83549 0.18089 0.27893 0.0
C129 C 0.8448 0.2411 0.21334 0.0
O130 O 0.80967 0.23987 0.21913 0.0
O131 O 0.85547 0.21382 0.21996 0.0
C132 C 0.2665 0.499 0.97375 0.0
C133 C 0.24394 0.48267 0.95762 0.0
C134 C 0.24373 0.49677 0.98944 0.0
C135 C 0.19707 0.47715 0.98908 0.0
C136 C 0.17401 0.46028 0.97285 0.0
C137 C 0.19776 0.46321 0.95729 0.0
C138 C 0.26964 0.51495 0.00646 0.0
C139 C 0.12424 0.43839 0.97201 0.0
C140 C 0.1438 0.43758 0.03445 0.0
C141 C 0.13876 0.47316 0.04 0.0
C142 C 0.16055 0.43729 0.0175 0.0
C143 C 0.17277 0.47364 0.00587 0.0
C144 C 0.16537 0.5085 0.01106 0.0
C145 C 0.14808 0.50766 0.02805 0.0
C146 C 0.16721 0.39911 0.01241 0.0
C147 C 0.17828 0.548 0.99912 0.0
H148 H 0.3022 0.51393 0.97407 0.0
H149 H 0.18003 0.44915 0.945 0.0
H150 H 0.26138 0.53876 0.0127 0.0
H151 H 0.26045 0.48746 0.01604 0.0
H152 H 0.30596 0.53186 0.00426 0.0
H153 H 0.11141 0.42843 0.95824 0.0
H154 H 0.10912 0.40849 0.98062 0.0
H155 H 0.1133 0.46119 0.97716 0.0
H156 H 0.13561 0.41039 0.04356 0.0
H157 H 0.14423 0.53524 0.03235 0.0
H158 H 0.20311 0.41045 0.01219 0.0
H159 H 0.1541 0.38706 0.99885 0.0
H160 H 0.15085 0.37098 0.02191 0.0
H161 H 0.21484 0.56725 0.9978 0.0
H162 H 0.16676 0.57028 0.00439 0.0
H163 H 0.16444 0.53702 0.98557 0.0
C164 C 0.86496 0.17016 0.30778 0.0
C165 C 0.85174 0.19502 0.29736 0.0
C166 C 0.87405 0.17893 0.32599 0.0
C167 C 0.86982 0.21337 0.334 0.0
C168 C 0.85885 0.24012 0.32338 0.0
C169 C 0.84999 0.23066 0.30518 0.0
C170 C 0.88597 0.14987 0.33684 0.0
C171 C 0.85424 0.27731 0.33142 0.0
C172 C 0.83798 0.20256 0.38282 0.0
C173 C 0.87837 0.23224 0.39091 0.0
C174 C 0.83498 0.19575 0.36435 0.0
C175 C 0.87329 0.21912 0.35367 0.0
C176 C 0.91436 0.24838 0.36175 0.0
C177 C 0.91642 0.2546 0.38028 0.0
C178 C 0.79056 0.16411 0.35622 0.0
C179 C 0.95592 0.27374 0.35079 0.0
H180 H 0.86666 0.1427 0.30186 0.0
H181 H 0.83995 0.25015 0.29725 0.0
H182 H 0.91587 0.17047 0.345 0.0
H183 H 0.85857 0.12933 0.34616 0.0
H184 H 0.89218 0.12745 0.32836 0.0
H185 H 0.84932 0.2974 0.32114 0.0
H186 H 0.82551 0.26336 0.34062 0.0
H187 H 0.88404 0.29949 0.33935 0.0
H188 H 0.80841 0.18508 0.39089 0.0
H189 H 0.94781 0.27762 0.38639 0.0
H190 H 0.79274 0.13813 0.34851 0.0
H191 H 0.78073 0.18222 0.34681 0.0
H192 H 0.76418 0.14772 0.36642 0.0
H193 H 0.96166 0.25051 0.34267 0.0
H194 H 0.98559 0.29382 0.35918 0.0
H195 H 0.95206 0.29621 0.34142 0.0
C196 C 0.7145 0.86425 0.69043 0.0
C197 C 0.68353 0.82785 0.70046 0.0
C198 C 0.72182 0.85959 0.67238 0.0
C199 C 0.69725 0.81764 0.66413 0.0
C200 C 0.66788 0.78032 0.67443 0.0
C201 C 0.66157 0.78583 0.69249 0.0
C202 C 0.75399 0.90001 0.66191 0.0
C203 C 0.64096 0.73502 0.66613 0.0
C204 C 0.66653 0.81132 0.61539 0.0
C205 C 0.6938 0.79726 0.60745 0.0
C206 C 0.66832 0.81925 0.63374 0.0
C207 C 0.69843 0.81344 0.64446 0.0
C208 C 0.72745 0.80118 0.63645 0.0
C209 C 0.72465 0.79301 0.61804 0.0
C210 C 0.63668 0.83217 0.64176 0.0
C211 C 0.76042 0.7953 0.64742 0.0
H212 H 0.73194 0.89679 0.69651 0.0
H213 H 0.6377 0.75746 0.70011 0.0
H214 H 0.77589 0.89263 0.65367 0.0
H215 H 0.73544 0.90976 0.6527 0.0
H216 H 0.77483 0.92862 0.67069 0.0
H217 H 0.6226 0.70879 0.67623 0.0
H218 H 0.61673 0.73535 0.65665 0.0
H219 H 0.66265 0.72623 0.65847 0.0
H220 H 0.64265 0.8148 0.60735 0.0
H221 H 0.74602 0.78238 0.61202 0.0
H222 H 0.65518 0.86326 0.64951 0.0
H223 H 0.61393 0.80598 0.65112 0.0
H224 H 0.61657 0.83706 0.6315 0.0
H225 H 0.77993 0.82474 0.65597 0.0
H226 H 0.78354 0.79005 0.63899 0.0
H227 H 0.7426 0.76628 0.65637 0.0
C228 C 0.73868 0.55305 0.04419 0.0
C229 C 0.75837 0.52716 0.04751 0.0
C230 C 0.7378 0.5682 0.02692 0.0
C231 C 0.75772 0.55776 0.01275 0.0
C232 C 0.7788 0.53275 0.01617 0.0
C233 C 0.77895 0.51787 0.0335 0.0
C234 C 0.71535 0.59509 0.02382 0.0
C235 C 0.80059 0.52099 0.00144 0.0
C236 C 0.7258 0.55303 0.96426 0.0
C237 C 0.76301 0.59068 0.95736 0.0
C238 C 0.72212 0.54343 0.98255 0.0
C239 C 0.75638 0.5722 0.99421 0.0
C240 C 0.79215 0.61208 0.98755 0.0
C241 C 0.79504 0.62085 0.9692 0.0
C242 C 0.68319 0.50078 0.98917 0.0
C243 C 0.82911 0.6439 0.99957 0.0
H244 H 0.72446 0.56199 0.0551 0.0
H245 H 0.79439 0.49804 0.03603 0.0
H246 H 0.73927 0.62788 0.01812 0.0
H247 H 0.68822 0.57812 0.01399 0.0
H248 H 0.70134 0.60027 0.03626 0.0
H249 H 0.81609 0.50186 0.00637 0.0
H250 H 0.77574 0.50101 0.99114 0.0
H251 H 0.82644 0.55159 0.99487 0.0
H252 H 0.70066 0.52967 0.95528 0.0
H253 H 0.82373 0.65026 0.96405 0.0
H254 H 0.66892 0.50679 0.00132 0.0
H255 H 0.69447 0.47712 0.99278 0.0
H256 H 0.65675 0.48502 0.97896 0.0
H257 H 0.81563 0.64998 0.01195 0.0
H258 H 0.85082 0.67618 0.99293 0.0
H259 H 0.84965 0.62919 0.0035 0.0
C260 C 0.20121 0.80953 0.29549 0.0
C261 C 0.17843 0.76381 0.29215 0.0
C262 C 0.20502 0.82596 0.3129 0.0
C263 C 0.18556 0.7959 0.32724 0.0
C264 C 0.16152 0.74974 0.32384 0.0
C265 C 0.15804 0.73432 0.30634 0.0
C266 C 0.23028 0.87538 0.31596 0.0
C267 C 0.14036 0.7165 0.33875 0.0
C268 C 0.22819 0.82326 0.37462 0.0
C269 C 0.19423 0.82685 0.38305 0.0
C270 C 0.22711 0.81574 0.35622 0.0
C271 C 0.1914 0.81204 0.34595 0.0
C272 C 0.1588 0.81895 0.35413 0.0
C273 C 0.16053 0.82616 0.3726 0.0
C274 C 0.26262 0.80868 0.34802 0.0
C275 C 0.12051 0.8159 0.34361 0.0
H276 H 0.21573 0.83251 0.28451 0.0
H277 H 0.14032 0.69894 0.30383 0.0
H278 H 0.20914 0.8858 0.32308 0.0
H279 H 0.25943 0.88427 0.32454 0.0
H280 H 0.2419 0.89438 0.30332 0.0
H281 H 0.12202 0.68182 0.33382 0.0
H282 H 0.16618 0.71957 0.34822 0.0
H283 H 0.11709 0.72332 0.34629 0.0
H284 H 0.25454 0.82399 0.38252 0.0
H285 H 0.13427 0.8292 0.37894 0.0
H286 H 0.27587 0.82889 0.33577 0.0
H287 H 0.24815 0.77339 0.34414 0.0
H288 H 0.29048 0.81726 0.35735 0.0
H289 H 0.13234 0.83499 0.33102 0.0
H290 H 0.10175 0.82837 0.35127 0.0
H291 H 0.09754 0.78081 0.34 0.0
C292 C 0.29972 0.14934 0.63709 0.0
C293 C 0.34397 0.16608 0.63205 0.0
C294 C 0.28645 0.13836 0.65491 0.0
C295 C 0.31836 0.14516 0.66806 0.0
C296 C 0.36293 0.16142 0.66301 0.0
C297 C 0.3751 0.17126 0.64505 0.0
C298 C 0.23843 0.12021 0.65972 0.0
C299 C 0.39806 0.16978 0.67666 0.0
C300 C 0.29293 0.1624 0.71562 0.0
C301 C 0.28091 0.12136 0.72343 0.0
C302 C 0.30575 0.17076 0.69767 0.0
C303 C 0.30545 0.13684 0.68718 0.0
C304 C 0.29281 0.09513 0.69497 0.0
C305 C 0.28097 0.088 0.71305 0.0
C306 C 0.31979 0.21594 0.68996 0.0
C307 C 0.29116 0.05785 0.68414 0.0
H308 H 0.27545 0.14502 0.6271 0.0
H309 H 0.40943 0.18446 0.64129 0.0
H310 H 0.2258 0.08871 0.66722 0.0
H311 H 0.2351 0.14394 0.66851 0.0
H312 H 0.21729 0.11405 0.64779 0.0
H313 H 0.43102 0.18148 0.6705 0.0
H314 H 0.4008 0.1951 0.68632 0.0
H315 H 0.38873 0.13906 0.68429 0.0
H316 H 0.29285 0.18821 0.72365 0.0
H317 H 0.27053 0.05585 0.71894 0.0
H318 H 0.29746 0.21288 0.67885 0.0
H319 H 0.3537 0.23065 0.68439 0.0
H320 H 0.31936 0.23906 0.70002 0.0
H321 H 0.26789 0.0498 0.67283 0.0
H322 H 0.28049 0.02737 0.69218 0.0
H323 H 0.32422 0.06823 0.67841 0.0
C324 C 0.52479 0.50576 0.06467 0.0
C325 C 0.54236 0.49601 0.04968 0.0
C326 C 0.48365 0.50362 0.06394 0.0
C327 C 0.45932 0.49131 0.04783 0.0
C328 C 0.47708 0.48208 0.03256 0.0
C329 C 0.51848 0.48461 0.03366 0.0
C330 C 0.46592 0.51394 0.0805 0.0
C331 C 0.45203 0.46884 0.01518 0.0
C332 C 0.33588 0.4444 0.0536 0.0
C333 C 0.33167 0.48175 0.05028 0.0
C334 C 0.377 0.44659 0.05215 0.0
C335 C 0.4148 0.48711 0.04727 0.0
C336 C 0.41045 0.52441 0.04318 0.0
C337 C 0.3689 0.52127 0.04471 0.0
C338 C 0.38028 0.406 0.0565 0.0
C339 C 0.44999 0.56815 0.03789 0.0
H340 H 0.54306 0.51479 0.07709 0.0
H341 H 0.53182 0.47705 0.02201 0.0
H342 H 0.45859 0.54089 0.07772 0.0
H343 H 0.43444 0.48434 0.08458 0.0
H344 H 0.48951 0.52417 0.09182 0.0
H345 H 0.47112 0.46432 0.00436 0.0
H346 H 0.42034 0.43735 0.01695 0.0
H347 H 0.44374 0.49435 0.01096 0.0
H348 H 0.30723 0.41364 0.05778 0.0
H349 H 0.36588 0.5502 0.04197 0.0
H350 H 0.40043 0.41213 0.06872 0.0
H351 H 0.39723 0.39894 0.04558 0.0
H352 H 0.34732 0.3762 0.05871 0.0
H353 H 0.47315 0.58195 0.04931 0.0
H354 H 0.44046 0.59283 0.03371 0.0
H355 H 0.4682 0.56336 0.02682 0.0
C356 C 0.93981 0.45649 0.45094 0.0
C357 C 0.95499 0.42966 0.45846 0.0
C358 C 0.96542 0.50283 0.45168 0.0
C359 C 0.00701 0.52286 0.46034 0.0
C360 C 0.02074 0.49601 0.4693 0.0
C361 C 0.99465 0.44964 0.46818 0.0
C362 C 0.9495 0.53022 0.44194 0.0
C363 C 0.06441 0.51613 0.47901 0.0
C364 C 0.09324 0.63003 0.43897 0.0
C365 C 0.0917 0.66205 0.44976 0.0
C366 C 0.06684 0.58474 0.44266 0.0
C367 C 0.03847 0.57096 0.45766 0.0
C368 C 0.03826 0.60309 0.46913 0.0
C369 C 0.06472 0.64836 0.46497 0.0
C370 C 0.06798 0.55159 0.43003 0.0
C371 C 0.00903 0.58964 0.48541 0.0
H372 H 0.909 0.4414 0.44355 0.0
H373 H 0.0064 0.42917 0.47424 0.0
H374 H 0.95276 0.55762 0.45048 0.0
H375 H 0.97033 0.54536 0.42996 0.0
H376 H 0.91448 0.51005 0.43762 0.0
H377 H 0.06666 0.49167 0.48781 0.0
H378 H 0.09176 0.52846 0.46918 0.0
H379 H 0.06945 0.54483 0.48716 0.0
H380 H 0.11409 0.64022 0.42723 0.0
H381 H 0.06355 0.67292 0.47344 0.0
H382 H 0.03505 0.53146 0.42371 0.0
H383 H 0.07541 0.5285 0.43742 0.0
H384 H 0.09308 0.56778 0.41935 0.0
H385 H 0.9739 0.57424 0.48127 0.0
H386 H 0.01687 0.61836 0.49415 0.0
H387 H 0.01252 0.56452 0.49324 0.0
C388 C 0.45406 0.04165 0.77068 0.0
C389 C 0.42439 0.03098 0.75644 0.0
C390 C 0.48578 0.0281 0.77079 0.0
C391 C 0.48782 0.0032 0.75632 0.0
C392 C 0.4577 0.99194 0.74199 0.0
C393 C 0.42639 0.00601 0.7422 0.0
C394 C 0.51741 0.04083 0.78629 0.0
C395 C 0.45881 0.96535 0.72633 0.0
C396 C 0.59472 0.00374 0.74644 0.0
C397 C 0.58565 0.96245 0.75318 0.0
C398 C 0.56353 0.01779 0.74773 0.0
C399 C 0.52217 0.98984 0.75591 0.0
C400 C 0.51321 0.94862 0.76316 0.0
C401 C 0.54511 0.93544 0.76174 0.0
C402 C 0.57445 0.06213 0.73996 0.0
C403 C 0.46947 0.91794 0.77199 0.0
H404 H 0.45276 0.0609 0.78175 0.0
H405 H 0.40355 0.99752 0.73116 0.0
H406 H 0.51498 0.01071 0.79243 0.0
H407 H 0.55193 0.06162 0.78152 0.0
H408 H 0.51085 0.05946 0.79669 0.0
H409 H 0.43243 0.95844 0.71645 0.0
H410 H 0.49136 0.98357 0.71955 0.0
H411 H 0.45486 0.93335 0.73101 0.0
H412 H 0.62602 0.02492 0.73987 0.0
H413 H 0.53782 0.90348 0.76697 0.0
H414 H 0.57025 0.08265 0.7502 0.0
H415 H 0.55127 0.05721 0.72892 0.0
H416 H 0.60881 0.08078 0.73474 0.0
H417 H 0.46298 0.93554 0.78283 0.0
H418 H 0.46841 0.88793 0.77764 0.0
H419 H 0.44229 0.90731 0.76215 0.0
C420 C 0.50217 0.39091 0.57492 0.0
C421 C 0.46428 0.36103 0.56541 0.0
C422 C 0.52545 0.43608 0.57056 0.0
C423 C 0.51072 0.45187 0.55624 0.0
C424 C 0.47383 0.4216 0.54599 0.0
C425 C 0.45091 0.37649 0.55074 0.0
C426 C 0.56462 0.46724 0.58185 0.0
C427 C 0.45751 0.4371 0.53048 0.0
C428 C 0.54023 0.57158 0.56182 0.0
C429 C 0.57964 0.59406 0.55203 0.0
C430 C 0.51628 0.52516 0.56256 0.0
C431 C 0.53185 0.50048 0.55314 0.0
C432 C 0.57003 0.52283 0.54231 0.0
C433 C 0.59363 0.56942 0.54194 0.0
C434 C 0.47573 0.50265 0.57428 0.0
C435 C 0.58725 0.49764 0.53186 0.0
H436 H 0.51297 0.3793 0.5862 0.0
H437 H 0.42182 0.3536 0.54324 0.0
H438 H 0.59389 0.48742 0.57331 0.0
H439 H 0.557 0.49049 0.589 0.0
H440 H 0.57344 0.44937 0.59183 0.0
H441 H 0.43199 0.40898 0.52258 0.0
H442 H 0.44295 0.45697 0.53548 0.0
H443 H 0.48541 0.45885 0.52158 0.0
H444 H 0.52893 0.59025 0.56957 0.0
H445 H 0.62385 0.5865 0.53422 0.0
H446 H 0.48234 0.48652 0.58569 0.0
H447 H 0.44742 0.47632 0.56677 0.0
H448 H 0.46597 0.52629 0.57958 0.0
H449 H 0.60135 0.48315 0.54115 0.0
H450 H 0.61339 0.51926 0.52223 0.0
H451 H 0.55996 0.46982 0.52448 0.0
C452 C 0.0814 0.54008 0.91378 0.0
C453 C 0.11777 0.55677 0.9022 0.0
C454 C 0.04959 0.55327 0.91228 0.0
C455 C 0.05423 0.58395 0.89888 0.0
C456 C 0.0903 0.6002 0.8869 0.0
C457 C 0.12166 0.5864 0.88869 0.0
C458 C 0.01151 0.53513 0.92531 0.0
C459 C 0.09632 0.63292 0.87244 0.0
C460 C 0.9512 0.59112 0.88897 0.0
C461 C 0.95796 0.62678 0.89979 0.0
C462 C 0.98302 0.57773 0.888 0.0
C463 C 0.02243 0.60056 0.89808 0.0
C464 C 0.03027 0.63777 0.90839 0.0
C465 C 0.99798 0.65043 0.90911 0.0
C466 C 0.97363 0.53804 0.87678 0.0
C467 C 0.07199 0.66313 0.91927 0.0
H468 H 0.07801 0.51705 0.92421 0.0
H469 H 0.14959 0.59938 0.87965 0.0
H470 H 0.01321 0.56257 0.93339 0.0
H471 H 0.97958 0.51962 0.91803 0.0
H472 H 0.01164 0.51011 0.93446 0.0
H473 H 0.12469 0.64043 0.86357 0.0
H474 H 0.0659 0.61983 0.86424 0.0
H475 H 0.10194 0.66432 0.87853 0.0
H476 H 0.92043 0.57273 0.88169 0.0
H477 H 0.00364 0.67819 0.91742 0.0
H478 H 0.96924 0.51046 0.88555 0.0
H479 H 0.00201 0.54613 0.86786 0.0
H480 H 0.94336 0.52634 0.86855 0.0
H481 H 0.07282 0.64138 0.92989 0.0
H482 H 0.07439 0.69305 0.9256 0.0
H483 H 0.10156 0.67351 0.91077 0.0
C484 C 0.43048 0.94193 0.25796 0.0
C485 C 0.41678 0.90385 0.26843 0.0
C486 C 0.47559 0.972 0.25513 0.0
C487 C 0.5077 0.96394 0.26305 0.0
C488 C 0.49409 0.92573 0.27371 0.0
C489 C 0.44881 0.8961 0.27623 0.0
C490 C 0.48889 0.01234 0.24363 0.0
C491 C 0.52738 0.91617 0.2825 0.0
C492 C 0.62504 0.01817 0.24499 0.0
C493 C 0.64795 0.05242 0.25731 0.0
C494 C 0.57911 0.98979 0.2464 0.0
C495 C 0.55565 0.99576 0.26049 0.0
C496 C 0.57839 0.031 0.27266 0.0
C497 C 0.62422 0.05895 0.2709 0.0
C498 C 0.55587 0.95272 0.23309 0.0
C499 C 0.55455 0.03841 0.28788 0.0
H500 H 0.40595 0.94809 0.25183 0.0
H501 H 0.43853 0.86681 0.28436 0.0
H502 H 0.50939 0.0429 0.25146 0.0
H503 H 0.50942 0.01257 0.23232 0.0
H504 H 0.45984 0.01353 0.23826 0.0
H505 H 0.51136 0.88495 0.29035 0.0
H506 H 0.54891 0.91364 0.27226 0.0
H507 H 0.54909 0.94385 0.29149 0.0
H508 H 0.6431 0.01299 0.23441 0.0
H509 H 0.64158 0.08539 0.28046 0.0
H510 H 0.52761 0.95409 0.227 0.0
H511 H 0.54224 0.92029 0.23996 0.0
H512 H 0.57835 0.95418 0.22231 0.0
H513 H 0.52646 0.04162 0.28277 0.0
H514 H 0.57668 0.06856 0.2957 0.0
H515 H 0.54059 0.00938 0.29696 0.0
C516 C 0.85271 0.28775 0.18673 0.0
C517 C 0.872 0.2726 0.19923 0.0
C518 C 0.87788 0.31615 0.17279 0.0
C519 C 0.92366 0.33074 0.17169 0.0
C520 C 0.94348 0.31642 0.18457 0.0
C521 C 0.91725 0.28695 0.19802 0.0
C522 C 0.85535 0.3298 0.15907 0.0
C523 C 0.99247 0.33248 0.18423 0.0
C524 C 0.98762 0.37158 0.1283 0.0
C525 C 0.0073 0.41758 0.13015 0.0
C526 C 0.95874 0.34285 0.14138 0.0
C527 C 0.95096 0.36072 0.157 0.0
C528 C 0.9709 0.40727 0.1589 0.0
C529 C 0.99812 0.43512 0.14525 0.0
C530 C 0.93709 0.29342 0.13862 0.0
C531 C 0.96458 0.42775 0.17555 0.0
H532 H 0.81764 0.27644 0.18757 0.0
H533 H 0.93231 0.27558 0.20776 0.0
H534 H 0.87019 0.36633 0.15908 0.0
H535 H 0.86047 0.32014 0.14558 0.0
H536 H 0.81924 0.31444 0.16151 0.0
H537 H 0.0031 0.31996 0.19573 0.0
H538 H 0.00118 0.32154 0.17178 0.0
H539 H 0.01151 0.36926 0.18438 0.0
H540 H 0.99472 0.35809 0.11657 0.0
H541 H 0.01396 0.47075 0.14678 0.0
H542 H 0.90079 0.27761 0.14057 0.0
H543 H 0.94965 0.27894 0.14861 0.0
H544 H 0.94352 0.28492 0.12511 0.0
H545 H 0.92994 0.42077 0.17624 0.0
H546 H 0.98701 0.46422 0.17594 0.0
H547 H 0.97068 0.41309 0.18759 0.0
C548 C 0.72549 0.90718 0.50588 0.0
C549 C 0.69462 0.89565 0.51969 0.0
C550 C 0.74286 0.94826 0.49718 0.0
C551 C 0.73003 0.979 0.50279 0.0
C552 C 0.69919 0.96765 0.51686 0.0
C553 C 0.68137 0.92584 0.52497 0.0
C554 C 0.77474 0.95867 0.48192 0.0
C555 C 0.68552 0.99992 0.52353 0.0
C556 C 0.80722 0.10039 0.49152 0.0
C557 C 0.78465 0.10689 0.47745 0.0
C558 C 0.78953 0.05908 0.50005 0.0
C559 C 0.74897 0.02312 0.494 0.0
C560 C 0.7264 0.02937 0.47962 0.0
C561 C 0.74421 0.07138 0.47169 0.0
C562 C 0.81399 0.05403 0.51565 0.0
C563 C 0.68367 0.9916 0.4725 0.0
H564 H 0.73559 0.88378 0.50171 0.0
H565 H 0.6578 0.91717 0.53575 0.0
H566 H 0.76208 0.96705 0.46984 0.0
H567 H 0.80716 0.98802 0.4852 0.0
H568 H 0.78005 0.93053 0.47875 0.0
H569 H 0.66203 0.98638 0.53488 0.0
H570 H 0.71515 0.0311 0.52785 0.0
H571 H 0.6697 0.00857 0.51264 0.0
H572 H 0.83836 0.12788 0.49608 0.0
H573 H 0.72687 0.07621 0.46071 0.0
H574 H 0.8233 0.02861 0.51263 0.0
H575 H 0.79215 0.04244 0.52752 0.0
H576 H 0.84447 0.08556 0.51902 0.0
H577 H 0.68865 0.96376 0.46849 0.0
H578 H 0.67103 0.0016 0.46084 0.0
H579 H 0.658 0.97897 0.48305 0.0
C580 C 0.64656 0.69996 0.79439 0.0
C581 C 0.65495 0.7434 0.79671 0.0
C582 C 0.66014 0.67978 0.80717 0.0
C583 C 0.68146 0.70317 0.82288 0.0
C584 C 0.68949 0.74687 0.8254 0.0
C585 C 0.67672 0.76671 0.81214 0.0
C586 C 0.65198 0.63357 0.80377 0.0
C587 C 0.71107 0.77241 0.84218 0.0
C588 C 0.67722 0.6317 0.86196 0.0
C589 C 0.71979 0.6371 0.86157 0.0
C590 C 0.66479 0.65423 0.84983 0.0
C591 C 0.69525 0.68173 0.83666 0.0
C592 C 0.73839 0.68747 0.83628 0.0
C593 C 0.75034 0.66556 0.84891 0.0
C594 C 0.61891 0.6482 0.85098 0.0
C595 C 0.77144 0.7156 0.82218 0.0
H596 H 0.63003 0.68197 0.7824 0.0
H597 H 0.68295 0.8002 0.81402 0.0
H598 H 0.68367 0.63342 0.80441 0.0
H599 H 0.63004 0.61064 0.81424 0.0
H600 H 0.63648 0.62057 0.79058 0.0
H601 H 0.71397 0.80565 0.84228 0.0
H602 H 0.69155 0.75354 0.85397 0.0
H603 H 0.74461 0.7767 0.84363 0.0
H604 H 0.65363 0.60994 0.87182 0.0
H605 H 0.78317 0.66952 0.84848 0.0
H606 H 0.59986 0.63132 0.83883 0.0
H607 H 0.62089 0.68096 0.85167 0.0
H608 H 0.60037 0.62831 0.86278 0.0
H609 H 0.75814 0.70196 0.8088 0.0
H610 H 0.80378 0.71708 0.82385 0.0
H611 H 0.77702 0.74984 0.82256 0.0
C612 C 0.87507 0.55396 0.15098 0.0
C613 C 0.88151 0.53197 0.13666 0.0
C614 C 0.90718 0.57403 0.16436 0.0
C615 C 0.9468 0.57234 0.16331 0.0
C616 C 0.95383 0.55087 0.14873 0.0
C617 C 0.92105 0.53081 0.13561 0.0
C618 C 0.89842 0.59642 0.17975 0.0
C619 C 0.99581 0.54867 0.1471 0.0
C620 C 0.04731 0.65433 0.18989 0.0
C621 C 0.04635 0.62824 0.20433 0.0
C622 C 0.01485 0.63672 0.17654 0.0
C623 C 0.9805 0.59202 0.17769 0.0
C624 C 0.9789 0.56571 0.19237 0.0
C625 C 0.01182 0.58415 0.20552 0.0
C626 C 0.01776 0.66573 0.16104 0.0
C627 C 0.94241 0.51807 0.19421 0.0
H628 H 0.84457 0.55491 0.1519 0.0
H629 H 0.92635 0.514 0.12457 0.0
H630 H 0.89766 0.57951 0.19238 0.0
H631 H 0.92552 0.63132 0.18088 0.0
H632 H 0.86656 0.59606 0.17831 0.0
H633 H 0.99589 0.53015 0.13508 0.0
H634 H 0.02479 0.58267 0.14644 0.0
H635 H 9e-05 0.53246 0.15905 0.0
H636 H 0.07391 0.6884 0.18885 0.0
H637 H 0.01069 0.56381 0.21666 0.0
H638 H 0.98666 0.66688 0.1599 0.0
H639 H 0.02179 0.65148 0.14845 0.0
H640 H 0.04588 0.70014 0.16236 0.0
H641 H 0.91066 0.51704 0.19691 0.0
H642 H 0.94881 0.50061 0.20519 0.0
H643 H 0.93824 0.49971 0.18164 0.0
C644 C 0.24457 0.92937 0.49038 0.0
C645 C 0.27127 0.92632 0.47715 0.0
C646 C 0.26215 0.9644 0.50268 0.0
C647 C 0.30724 0.99773 0.50144 0.0
C648 C 0.33396 0.99557 0.48774 0.0
C649 C 0.31579 0.95958 0.47589 0.0
C650 C 0.23282 0.96501 0.51732 0.0
C651 C 0.3819 0.031 0.48572 0.0
C652 C 0.34369 0.10724 0.52506 0.0
C653 C 0.36502 0.10311 0.54017 0.0
C654 C 0.32507 0.07339 0.51225 0.0
C655 C 0.32687 0.03405 0.51485 0.0
C656 C 0.34771 0.02943 0.53024 0.0
C657 C 0.36701 0.06425 0.5426 0.0
C658 C 0.30403 0.07996 0.49583 0.0
C659 C 0.34946 0.98763 0.5337 0.0
H660 H 0.21021 0.90356 0.49148 0.0
H661 H 0.33648 0.95751 0.46562 0.0
H662 H 0.24636 0.96324 0.53047 0.0
H663 H 0.23221 0.99652 0.51694 0.0
H664 H 0.19831 0.93698 0.51627 0.0
H665 H 0.39734 0.02597 0.47368 0.0
H666 H 0.38479 0.06416 0.48489 0.0
H667 H 0.40091 0.03113 0.49758 0.0
H668 H 0.34234 0.13736 0.52307 0.0
H669 H 0.38321 0.06079 0.55431 0.0
H670 H 0.26877 0.05367 0.49502 0.0
H671 H 0.3207 0.07715 0.48373 0.0
H672 H 0.3059 0.11274 0.49568 0.0
H673 H 0.31549 0.95852 0.5337 0.0
H674 H 0.36546 0.98865 0.54662 0.0
H675 H 0.36809 0.98248 0.5229 0.0
C676 C 0.29853 0.25267 0.81842 0.0
C677 C 0.25455 0.22109 0.81447 0.0
C678 C 0.30853 0.28671 0.83073 0.0
C679 C 0.27371 0.28868 0.83955 0.0
C680 C 0.22923 0.25715 0.83549 0.0
C681 C 0.22018 0.22397 0.82287 0.0
C682 C 0.35638 0.32023 0.83445 0.0
C683 C 0.19122 0.25775 0.84482 0.0
C684 C 0.30257 0.348 0.88413 0.0
C685 C 0.30695 0.38906 0.8796 0.0
C686 C 0.29074 0.31468 0.8713 0.0
C687 C 0.28394 0.32293 0.85344 0.0
C688 C 0.28798 0.36421 0.84881 0.0
C689 C 0.29903 0.39664 0.86199 0.0
C690 C 0.28597 0.27081 0.87683 0.0
C691 C 0.28169 0.37449 0.82985 0.0
H692 H 0.32523 0.25078 0.81189 0.0
H693 H 0.18612 0.1995 0.81994 0.0
H694 H 0.36222 0.35431 0.83247 0.0
H695 H 0.36436 0.31755 0.84853 0.0
H696 H 0.37945 0.31555 0.82575 0.0
H697 H 0.15853 0.23145 0.83988 0.0
H698 H 0.1931 0.25304 0.85935 0.0
H699 H 0.19343 0.29038 0.84295 0.0
H700 H 0.30841 0.34187 0.89775 0.0
H701 H 0.30264 0.42843 0.85839 0.0
H702 H 0.31098 0.26558 0.86984 0.0
H703 H 0.25289 0.24328 0.87294 0.0
H704 H 0.29019 0.26888 0.89141 0.0
H705 H 0.3064 0.37279 0.82109 0.0
H706 H 0.28526 0.40788 0.8285 0.0
H707 H 0.24846 0.34944 0.82496 0.0
loop_
_geom_bond_atom_site_label_1
_geom_bond_atom_site_label_2
_geom_bond_distance
_geom_bond_site_symmetry_2
_ccdc_geom_bond_type
O0 Cd1 2.300 . S
O0 C7 1.275 . S
Cd1 O0 2.300 . S
Cd1 O9 2.381 . S
Cd1 O10 2.378 . S
O2 Cd3 2.385 . S
O2 C7 1.255 . S
Cd3 O2 2.385 . S
Cd3 O4 2.317 . S
O4 Cd3 2.317 . S
O4 C5 1.232 . S
C5 O4 1.232 . S
C5 O6 1.218 . S
O6 C5 1.218 . S
C7 O0 1.275 . S
C7 O2 1.255 . S
C8 O9 1.258 . S
C8 O10 1.256 . S
O9 Cd1 2.381 . S
O9 C8 1.258 . S
O10 Cd1 2.378 . S
O10 C8 1.256 . S
O11 Cd12 2.300 . S
O11 C18 1.275 . S
Cd12 O11 2.300 . S
Cd12 O20 2.381 . S
Cd12 O21 2.378 . S
O13 Cd14 2.385 . S
O13 C18 1.255 . S
Cd14 O13 2.385 . S
Cd14 O15 2.317 . S
O15 Cd14 2.317 . S
O15 C16 1.232 . S
C16 O15 1.232 . S
C16 O17 1.218 . S
O17 C16 1.218 . S
C18 O11 1.275 . S
C18 O13 1.255 . S
C19 O20 1.258 . S
C19 O21 1.256 . S
O20 Cd12 2.381 . S
O20 C19 1.258 . S
O21 Cd12 2.378 . S
O21 C19 1.256 . S
O22 Cd23 2.300 . S
O22 C29 1.275 . S
Cd23 O22 2.300 . S
Cd23 O31 2.381 . S
Cd23 O32 2.378 . S
O24 Cd25 2.385 . S
O24 C29 1.255 . S
Cd25 O24 2.385 . S
Cd25 O26 2.317 . S
O26 Cd25 2.317 . S
O26 C27 1.232 . S
C27 O26 1.232 . S
C27 O28 1.218 . S
O28 C27 1.218 . S
C29 O22 1.275 . S
C29 O24 1.255 . S
C30 O31 1.258 . S
C30 O32 1.256 . S
O31 Cd23 2.381 . S
O31 C30 1.258 . S
O32 Cd23 2.378 . S
O32 C30 1.256 . S
O33 Cd34 2.300 . S
O33 C40 1.275 . S
Cd34 O33 2.300 . S
Cd34 O42 2.381 . S
Cd34 O43 2.378 . S
O35 Cd36 2.385 . S
O35 C40 1.255 . S
Cd36 O35 2.385 . S
Cd36 O37 2.317 . S
O37 Cd36 2.317 . S
O37 C38 1.232 . S
C38 O37 1.232 . S
C38 O39 1.218 . S
O39 C38 1.218 . S
C40 O33 1.275 . S
C40 O35 1.255 . S
C41 O42 1.258 . S
C41 O43 1.256 . S
O42 Cd34 2.381 . S
O42 C41 1.258 . S
O43 Cd34 2.378 . S
O43 C41 1.256 . S
O44 Cd45 2.300 . S
O44 C51 1.275 . S
Cd45 O44 2.300 . S
Cd45 O53 2.381 . S
Cd45 O54 2.378 . S
O46 Cd47 2.385 . S
O46 C51 1.255 . S
Cd47 O46 2.385 . S
Cd47 O48 2.317 . S
O48 Cd47 2.317 . S
O48 C49 1.232 . S
C49 O48 1.232 . S
C49 O50 1.218 . S
O50 C49 1.218 . S
C51 O44 1.275 . S
C51 O46 1.255 . S
C52 O53 1.258 . S
C52 O54 1.256 . S
O53 Cd45 2.381 . S
O53 C52 1.258 . S
O54 Cd45 2.378 . S
O54 C52 1.256 . S
O55 Cd56 2.300 . S
O55 C62 1.275 . S
Cd56 O55 2.300 . S
Cd56 O64 2.381 . S
Cd56 O65 2.378 . S
O57 Cd58 2.385 . S
O57 C62 1.255 . S
Cd58 O57 2.385 . S
Cd58 O59 2.317 . S
O59 Cd58 2.317 . S
O59 C60 1.232 . S
C60 O59 1.232 . S
C60 O61 1.218 . S
O61 C60 1.218 . S
C62 O55 1.275 . S
C62 O57 1.255 . S
C63 O64 1.258 . S
C63 O65 1.256 . S
O64 Cd56 2.381 . S
O64 C63 1.258 . S
O65 Cd56 2.378 . S
O65 C63 1.256 . S
O66 Cd67 2.300 . S
O66 C73 1.275 . S
Cd67 O66 2.300 . S
Cd67 O75 2.381 . S
Cd67 O76 2.378 . S
O68 Cd69 2.385 . S
O68 C73 1.255 . S
Cd69 O68 2.385 . S
Cd69 O70 2.317 . S
O70 Cd69 2.317 . S
O70 C71 1.232 . S
C71 O70 1.232 . S
C71 O72 1.218 . S
O72 C71 1.218 . S
C73 O66 1.275 . S
C73 O68 1.255 . S
C74 O75 1.258 . S
C74 O76 1.256 . S
O75 Cd67 2.381 . S
O75 C74 1.258 . S
O76 Cd67 2.378 . S
O76 C74 1.256 . S
O77 Cd78 2.300 . S
O77 C84 1.275 . S
Cd78 O77 2.300 . S
Cd78 O86 2.381 . S
Cd78 O87 2.378 . S
O79 Cd80 2.385 . S
O79 C84 1.255 . S
Cd80 O79 2.385 . S
Cd80 O81 2.317 . S
O81 Cd80 2.317 . S
O81 C82 1.232 . S
C82 O81 1.232 . S
C82 O83 1.218 . S
O83 C82 1.218 . S
C84 O77 1.275 . S
C84 O79 1.255 . S
C85 O86 1.258 . S
C85 O87 1.256 . S
O86 Cd78 2.381 . S
O86 C85 1.258 . S
O87 Cd78 2.378 . S
O87 C85 1.256 . S
O88 Cd89 2.300 . S
O88 C95 1.275 . S
Cd89 O88 2.300 . S
Cd89 O97 2.381 . S
Cd89 O98 2.378 . S
O90 Cd91 2.385 . S
O90 C95 1.255 . S
Cd91 O90 2.385 . S
Cd91 O92 2.317 . S
O92 Cd91 2.317 . S
O92 C93 1.232 . S
C93 O92 1.232 . S
C93 O94 1.218 . S
O94 C93 1.218 . S
C95 O88 1.275 . S
C95 O90 1.255 . S
C96 O97 1.258 . S
C96 O98 1.256 . S
O97 Cd89 2.381 . S
O97 C96 1.258 . S
O98 Cd89 2.378 . S
O98 C96 1.256 . S
O99 Cd100 2.300 . S
O99 C106 1.275 . S
Cd100 O99 2.300 . S
Cd100 O108 2.381 . S
Cd100 O109 2.378 . S
O101 Cd102 2.385 . S
O101 C106 1.255 . S
Cd102 O101 2.385 . S
Cd102 O103 2.317 . S
O103 Cd102 2.317 . S
O103 C104 1.232 . S
C104 O103 1.232 . S
C104 O105 1.218 . S
O105 C104 1.218 . S
C106 O99 1.275 . S
C106 O101 1.255 . S
C107 O108 1.258 . S
C107 O109 1.256 . S
O108 Cd100 2.381 . S
O108 C107 1.258 . S
O109 Cd100 2.378 . S
O109 C107 1.256 . S
O110 Cd111 2.300 . S
O110 C117 1.275 . S
Cd111 O110 2.300 . S
Cd111 O119 2.381 . S
Cd111 O120 2.378 . S
O112 Cd113 2.385 . S
O112 C117 1.255 . S
Cd113 O112 2.385 . S
Cd113 O114 2.317 . S
O114 Cd113 2.317 . S
O114 C115 1.232 . S
C115 O114 1.232 . S
C115 O116 1.218 . S
O116 C115 1.218 . S
C117 O110 1.275 . S
C117 O112 1.255 . S
C118 O119 1.258 . S
C118 O120 1.256 . S
O119 Cd111 2.381 . S
O119 C118 1.258 . S
O120 Cd111 2.378 . S
O120 C118 1.256 . S
O121 Cd122 2.300 . S
O121 C128 1.275 . S
Cd122 O121 2.300 . S
Cd122 O130 2.381 . S
Cd122 O131 2.378 . S
O123 Cd124 2.385 . S
O123 C128 1.255 . S
Cd124 O123 2.385 . S
Cd124 O125 2.317 . S
O125 Cd124 2.317 . S
O125 C126 1.232 . S
C126 O125 1.232 . S
C126 O127 1.218 . S
O127 C126 1.218 . S
C128 O121 1.275 . S
C128 O123 1.255 . S
C129 O130 1.258 . S
C129 O131 1.256 . S
O130 Cd122 2.381 . S
O130 C129 1.258 . S
O131 Cd122 2.378 . S
O131 C129 1.256 . S
C132 C133 1.391 . S
C132 C134 1.394 . S
C132 H148 0.931 . S
C133 C132 1.391 . S
C133 C137 1.376 . S
C134 C132 1.394 . S
C134 C135 1.369 . S
C134 C138 1.531 . S
C135 C134 1.369 . S
C135 C136 1.410 . S
C135 C143 1.503 1_556 S
C136 C135 1.410 . S
C136 C137 1.392 . S
C136 C139 1.511 . S
C137 C133 1.376 . S
C137 C136 1.392 . S
C137 H149 0.929 . S
C138 C134 1.531 . S
C138 H150 0.960 . S
C138 H151 0.962 . S
C138 H152 0.960 . S
C139 C136 1.511 . S
C139 H153 0.961 . S
C139 H154 0.961 1_556 S
C139 H155 0.961 . S
C140 C141 1.370 . S
C140 C142 1.363 . S
C140 H156 0.931 . S
C141 C140 1.370 . S
C141 C145 1.408 . S
C142 C140 1.363 . S
C142 C143 1.370 . S
C142 C146 1.524 . S
C143 C135 1.503 1_554 S
C143 C142 1.370 . S
C143 C144 1.403 . S
C144 C143 1.403 . S
C144 C145 1.404 . S
C144 C147 1.539 . S
C145 C141 1.408 . S
C145 C144 1.404 . S
C145 H157 0.930 . S
C146 C142 1.524 . S
C146 H158 0.956 1_554 S
C146 H159 0.961 1_554 S
C146 H160 0.961 . S
C147 C144 1.539 . S
C147 H161 0.958 . S
C147 H162 0.961 . S
C147 H163 0.960 . S
H148 C132 0.931 . S
H149 C137 0.929 . S
H150 C138 0.960 . S
H151 C138 0.962 . S
H152 C138 0.960 . S
H153 C139 0.961 . S
H154 C139 0.961 1_554 S
H155 C139 0.961 . S
H156 C140 0.931 . S
H157 C145 0.930 . S
H158 C146 0.956 1_556 S
H159 C146 0.961 1_556 S
H160 C146 0.961 . S
H161 C147 0.958 . S
H162 C147 0.961 . S
H163 C147 0.960 . S
C164 C165 1.391 . S
C164 C166 1.394 . S
C164 H180 0.931 . S
C165 C164 1.391 . S
C165 C169 1.376 . S
C166 C164 1.394 . S
C166 C167 1.369 . S
C166 C170 1.531 . S
C167 C166 1.369 . S
C167 C168 1.410 . S
C167 C175 1.503 . S
C168 C167 1.410 . S
C168 C169 1.392 . S
C168 C171 1.511 . S
C169 C165 1.376 . S
C169 C168 1.392 . S
C169 H181 0.929 . S
C170 C166 1.531 . S
C170 H182 0.960 . S
C170 H183 0.962 . S
C170 H184 0.960 . S
C171 C168 1.511 . S
C171 H185 0.961 . S
C171 H186 0.961 . S
C171 H187 0.961 . S
C172 C173 1.370 . S
C172 C174 1.363 . S
C172 H188 0.931 . S
C173 C172 1.370 . S
C173 C177 1.408 . S
C174 C172 1.363 . S
C174 C175 1.370 . S
C174 C178 1.524 . S
C175 C167 1.503 . S
C175 C174 1.370 . S
C175 C176 1.403 . S
C176 C175 1.403 . S
C176 C177 1.404 . S
C176 C179 1.539 . S
C177 C173 1.408 . S
C177 C176 1.404 . S
C177 H189 0.930 . S
C178 C174 1.524 . S
C178 H190 0.956 . S
C178 H191 0.961 . S
C178 H192 0.961 . S
C179 C176 1.539 . S
C179 H193 0.958 . S
C179 H194 0.961 . S
C179 H195 0.960 . S
H180 C164 0.931 . S
H181 C169 0.929 . S
H182 C170 0.960 . S
H183 C170 0.962 . S
H184 C170 0.960 . S
H185 C171 0.961 . S
H186 C171 0.961 . S
H187 C171 0.961 . S
H188 C172 0.931 . S
H189 C177 0.930 . S
H190 C178 0.956 . S
H191 C178 0.961 . S
H192 C178 0.961 . S
H193 C179 0.958 . S
H194 C179 0.961 . S
H195 C179 0.960 . S
C196 C197 1.391 . S
C196 C198 1.394 . S
C196 H212 0.931 . S
C197 C196 1.391 . S
C197 C201 1.376 . S
C198 C196 1.394 . S
C198 C199 1.369 . S
C198 C202 1.531 . S
C199 C198 1.369 . S
C199 C200 1.410 . S
C199 C207 1.503 . S
C200 C199 1.410 . S
C200 C201 1.392 . S
C200 C203 1.511 . S
C201 C197 1.376 . S
C201 C200 1.392 . S
C201 H213 0.929 . S
C202 C198 1.531 . S
C202 H214 0.960 . S
C202 H215 0.962 . S
C202 H216 0.960 . S
C203 C200 1.511 . S
C203 H217 0.961 . S
C203 H218 0.961 . S
C203 H219 0.961 . S
C204 C205 1.370 . S
C204 C206 1.363 . S
C204 H220 0.931 . S
C205 C204 1.370 . S
C205 C209 1.408 . S
C206 C204 1.363 . S
C206 C207 1.370 . S
C206 C210 1.524 . S
C207 C199 1.503 . S
C207 C206 1.370 . S
C207 C208 1.403 . S
C208 C207 1.403 . S
C208 C209 1.404 . S
C208 C211 1.539 . S
C209 C205 1.408 . S
C209 C208 1.404 . S
C209 H221 0.930 . S
C210 C206 1.524 . S
C210 H222 0.956 . S
C210 H223 0.961 . S
C210 H224 0.961 . S
C211 C208 1.539 . S
C211 H225 0.958 . S
C211 H226 0.961 . S
C211 H227 0.960 . S
H212 C196 0.931 . S
H213 C201 0.929 . S
H214 C202 0.960 . S
H215 C202 0.962 . S
H216 C202 0.960 . S
H217 C203 0.961 . S
H218 C203 0.961 . S
H219 C203 0.961 . S
H220 C204 0.931 . S
H221 C209 0.930 . S
H222 C210 0.956 . S
H223 C210 0.961 . S
H224 C210 0.961 . S
H225 C211 0.958 . S
H226 C211 0.961 . S
H227 C211 0.960 . S
C228 C229 1.391 . S
C228 C230 1.394 . S
C228 H244 0.931 . S
C229 C228 1.391 . S
C229 C233 1.376 . S
C230 C228 1.394 . S
C230 C231 1.369 . S
C230 C234 1.531 . S
C231 C230 1.369 . S
C231 C232 1.410 . S
C231 C239 1.503 1_554 S
C232 C231 1.410 . S
C232 C233 1.392 . S
C232 C235 1.511 . S
C233 C229 1.376 . S
C233 C232 1.392 . S
C233 H245 0.929 . S
C234 C230 1.531 . S
C234 H246 0.960 1_554 S
C234 H247 0.962 . S
C234 H248 0.960 . S
C235 C232 1.511 . S
C235 H249 0.961 . S
C235 H250 0.961 . S
C235 H251 0.961 . S
C236 C237 1.370 . S
C236 C238 1.363 . S
C236 H252 0.931 . S
C237 C236 1.370 . S
C237 C241 1.408 . S
C238 C236 1.363 . S
C238 C239 1.370 . S
C238 C242 1.524 . S
C239 C231 1.503 1_556 S
C239 C238 1.370 . S
C239 C240 1.403 . S
C240 C239 1.403 . S
C240 C241 1.404 . S
C240 C243 1.539 . S
C241 C237 1.408 . S
C241 C240 1.404 . S
C241 H253 0.930 . S
C242 C238 1.524 . S
C242 H254 0.956 . S
C242 H255 0.961 1_556 S
C242 H256 0.961 . S
C243 C240 1.539 . S
C243 H257 0.958 . S
C243 H258 0.961 . S
C243 H259 0.921 1_556 S
H244 C228 0.931 . S
H245 C233 0.929 . S
H246 C234 0.960 1_556 S
H247 C234 0.962 . S
H248 C234 0.960 . S
H249 C235 0.961 . S
H250 C235 0.961 . S
H251 C235 0.961 . S
H252 C236 0.931 . S
H253 C241 0.930 . S
H254 C242 0.956 . S
H255 C242 0.961 1_554 S
H256 C242 0.961 . S
H257 C243 0.958 . S
H258 C243 0.961 . S
H259 C243 0.921 1_554 S
C260 C261 1.391 . S
C260 C262 1.394 . S
C260 H276 0.931 . S
C261 C260 1.391 . S
C261 C265 1.376 . S
C262 C260 1.394 . S
C262 C263 1.369 . S
C262 C266 1.531 . S
C263 C262 1.369 . S
C263 C264 1.410 . S
C263 C271 1.503 . S
C264 C263 1.410 . S
C264 C265 1.392 . S
C264 C267 1.511 . S
C265 C261 1.376 . S
C265 C264 1.392 . S
C265 H277 0.929 . S
C266 C262 1.531 . S
C266 H278 0.960 . S
C266 H279 0.962 . S
C266 H280 0.960 . S
C267 C264 1.511 . S
C267 H281 0.961 . S
C267 H282 0.961 . S
C267 H283 0.961 . S
C268 C269 1.370 . S
C268 C270 1.363 . S
C268 H284 0.931 . S
C269 C268 1.370 . S
C269 C273 1.408 . S
C270 C268 1.363 . S
C270 C271 1.370 . S
C270 C274 1.524 . S
C271 C263 1.503 . S
C271 C270 1.370 . S
C271 C272 1.403 . S
C272 C271 1.403 . S
C272 C273 1.404 . S
C272 C275 1.539 . S
C273 C269 1.408 . S
C273 C272 1.404 . S
C273 H285 0.930 . S
C274 C270 1.524 . S
C274 H286 0.956 . S
C274 H287 0.961 . S
C274 H288 0.961 . S
C275 C272 1.539 . S
C275 H289 0.958 . S
C275 H290 0.961 . S
C275 H291 0.960 . S
H276 C260 0.931 . S
H277 C265 0.929 . S
H278 C266 0.960 . S
H279 C266 0.962 . S
H280 C266 0.960 . S
H281 C267 0.961 . S
H282 C267 0.961 . S
H283 C267 0.961 . S
H284 C268 0.931 . S
H285 C273 0.930 . S
H286 C274 0.956 . S
H287 C274 0.961 . S
H288 C274 0.961 . S
H289 C275 0.958 . S
H290 C275 0.961 . S
H291 C275 0.960 . S
C292 C293 1.391 . S
C292 C294 1.394 . S
C292 H308 0.931 . S
C293 C292 1.391 . S
C293 C297 1.376 . S
C294 C292 1.394 . S
C294 C295 1.369 . S
C294 C298 1.531 . S
C295 C294 1.369 . S
C295 C296 1.410 . S
C295 C303 1.503 . S
C296 C295 1.410 . S
C296 C297 1.392 . S
C296 C299 1.511 . S
C297 C293 1.376 . S
C297 C296 1.392 . S
C297 H309 0.929 . S
C298 C294 1.531 . S
C298 H310 0.960 . S
C298 H311 0.962 . S
C298 H312 0.960 . S
C299 C296 1.511 . S
C299 H313 0.961 . S
C299 H314 0.961 . S
C299 H315 0.961 . S
C300 C301 1.370 . S
C300 C302 1.363 . S
C300 H316 0.931 . S
C301 C300 1.370 . S
C301 C305 1.408 . S
C302 C300 1.363 . S
C302 C303 1.370 . S
C302 C306 1.524 . S
C303 C295 1.503 . S
C303 C302 1.370 . S
C303 C304 1.403 . S
C304 C303 1.403 . S
C304 C305 1.404 . S
C304 C307 1.539 . S
C305 C301 1.408 . S
C305 C304 1.404 . S
C305 H317 0.930 . S
C306 C302 1.524 . S
C306 H318 0.956 . S
C306 H319 0.961 . S
C306 H320 0.961 . S
C307 C304 1.539 . S
C307 H321 0.958 . S
C307 H322 0.961 . S
C307 H323 0.960 . S
H308 C292 0.931 . S
H309 C297 0.929 . S
H310 C298 0.960 . S
H311 C298 0.962 . S
H312 C298 0.960 . S
H313 C299 0.961 . S
H314 C299 0.961 . S
H315 C299 0.961 . S
H316 C300 0.931 . S
H317 C305 0.930 . S
H318 C306 0.956 . S
H319 C306 0.961 . S
H320 C306 0.961 . S
H321 C307 0.958 . S
H322 C307 0.961 . S
H323 C307 0.960 . S
C324 C325 1.391 . S
C324 C326 1.394 . S
C324 H340 0.931 . S
C325 C324 1.391 . S
C325 C329 1.376 . S
C326 C324 1.394 . S
C326 C327 1.369 . S
C326 C330 1.531 . S
C327 C326 1.369 . S
C327 C328 1.410 . S
C327 C335 1.503 . S
C328 C327 1.410 . S
C328 C329 1.392 . S
C328 C331 1.511 . S
C329 C325 1.376 . S
C329 C328 1.392 . S
C329 H341 0.929 . S
C330 C326 1.531 . S
C330 H342 0.960 . S
C330 H343 0.962 . S
C330 H344 0.960 . S
C331 C328 1.511 . S
C331 H345 0.961 . S
C331 H346 0.961 . S
C331 H347 0.961 . S
C332 C333 1.370 . S
C332 C334 1.363 . S
C332 H348 0.931 . S
C333 C332 1.370 . S
C333 C337 1.408 . S
C334 C332 1.363 . S
C334 C335 1.370 . S
C334 C338 1.524 . S
C335 C327 1.503 . S
C335 C334 1.370 . S
C335 C336 1.403 . S
C336 C335 1.403 . S
C336 C337 1.404 . S
C336 C339 1.539 . S
C337 C333 1.408 . S
C337 C336 1.404 . S
C337 H349 0.930 . S
C338 C334 1.524 . S
C338 H350 0.956 . S
C338 H351 0.961 . S
C338 H352 0.961 . S
C339 C336 1.539 . S
C339 H353 0.958 . S
C339 H354 0.961 . S
C339 H355 0.960 . S
H340 C324 0.931 . S
H341 C329 0.929 . S
H342 C330 0.960 . S
H343 C330 0.962 . S
H344 C330 0.960 . S
H345 C331 0.961 . S
H346 C331 0.961 . S
H347 C331 0.961 . S
H348 C332 0.931 . S
H349 C337 0.930 . S
H350 C338 0.956 . S
H351 C338 0.961 . S
H352 C338 0.961 . S
H353 C339 0.958 . S
H354 C339 0.961 . S
H355 C339 0.960 . S
C356 C357 1.391 . S
C356 C358 1.394 . S
C356 H372 0.931 . S
C357 C356 1.391 . S
C357 C361 1.376 . S
C358 C356 1.394 . S
C358 C359 1.369 . S
C358 C362 1.531 . S
C359 C358 1.369 . S
C359 C360 1.410 . S
C359 C367 1.503 1_655 S
C360 C359 1.410 . S
C360 C361 1.392 . S
C360 C363 1.511 . S
C361 C357 1.376 . S
C361 C360 1.392 . S
C361 H373 0.929 . S
C362 C358 1.531 . S
C362 H374 0.960 . S
C362 H375 0.962 1_655 S
C362 H376 0.960 . S
C363 C360 1.511 . S
C363 H377 0.961 . S
C363 H378 0.961 1_655 S
C363 H379 0.961 . S
C364 C365 1.370 . S
C364 C366 1.363 . S
C364 H380 0.931 . S
C365 C364 1.370 . S
C365 C369 1.408 . S
C366 C364 1.363 . S
C366 C367 1.370 . S
C366 C370 1.524 . S
C367 C359 1.503 1_455 S
C367 C366 1.370 . S
C367 C368 1.403 1_455 S
C368 C367 1.403 1_655 S
C368 C369 1.404 1_655 S
C368 C371 1.539 . S
C369 C365 1.408 . S
C369 C368 1.404 1_455 S
C369 H381 0.930 . S
C370 C366 1.524 . S
C370 H382 0.956 . S
C370 H383 0.961 . S
C370 H384 0.961 . S
C371 C368 1.539 . S
C371 H385 0.958 . S
C371 H386 0.961 . S
C371 H387 0.960 . S
H372 C356 0.931 . S
H373 C361 0.929 . S
H374 C362 0.960 . S
H375 C362 0.962 1_455 S
H376 C362 0.960 . S
H377 C363 0.961 . S
H378 C363 0.961 1_455 S
H379 C363 0.961 . S
H380 C364 0.931 . S
H381 C369 0.930 . S
H382 C370 0.956 . S
H383 C370 0.961 . S
H384 C370 0.961 . S
H385 C371 0.958 . S
H386 C371 0.961 . S
H387 C371 0.960 . S
C388 C389 1.391 . S
C388 C390 1.394 . S
C388 H404 0.931 . S
C389 C388 1.391 . S
C389 C393 1.376 . S
C390 C388 1.394 . S
C390 C391 1.369 . S
C390 C394 1.531 . S
C391 C390 1.369 . S
C391 C392 1.410 . S
C391 C399 1.503 1_545 S
C392 C391 1.410 . S
C392 C393 1.392 . S
C392 C395 1.511 1_545 S
C393 C389 1.376 . S
C393 C392 1.392 . S
C393 H405 0.929 . S
C394 C390 1.531 . S
C394 H406 0.960 . S
C394 H407 0.962 . S
C394 H408 0.960 . S
C395 C392 1.511 1_565 S
C395 H409 0.961 . S
C395 H410 0.961 . S
C395 H411 0.961 . S
C396 C397 1.370 . S
C396 C398 1.363 . S
C396 H412 0.931 . S
C397 C396 1.370 . S
C397 C401 1.408 . S
C398 C396 1.363 . S
C398 C399 1.370 . S
C398 C402 1.524 1_565 S
C399 C391 1.503 1_565 S
C399 C398 1.370 . S
C399 C400 1.403 . S
C400 C399 1.403 . S
C400 C401 1.404 . S
C400 C403 1.539 . S
C401 C397 1.408 . S
C401 C400 1.404 . S
C401 H413 0.930 . S
C402 C398 1.524 1_545 S
C402 H414 0.956 . S
C402 H415 0.961 . S
C402 H416 0.961 . S
C403 C400 1.539 . S
C403 H417 0.958 . S
C403 H418 0.961 . S
C403 H419 0.960 . S
H404 C388 0.931 . S
H405 C393 0.929 . S
H406 C394 0.960 . S
H407 C394 0.962 . S
H408 C394 0.960 . S
H409 C395 0.961 . S
H410 C395 0.961 . S
H411 C395 0.961 . S
H412 C396 0.931 . S
H413 C401 0.930 . S
H414 C402 0.956 . S
H415 C402 0.961 . S
H416 C402 0.961 . S
H417 C403 0.958 . S
H418 C403 0.961 . S
H419 C403 0.960 . S
C420 C421 1.391 . S
C420 C422 1.394 . S
C420 H436 0.931 . S
C421 C420 1.391 . S
C421 C425 1.376 . S
C422 C420 1.394 . S
C422 C423 1.369 . S
C422 C426 1.531 . S
C423 C422 1.369 . S
C423 C424 1.410 . S
C423 C431 1.503 . S
C424 C423 1.410 . S
C424 C425 1.392 . S
C424 C427 1.511 . S
C425 C421 1.376 . S
C425 C424 1.392 . S
C425 H437 0.929 . S
C426 C422 1.531 . S
C426 H438 0.960 . S
C426 H439 0.962 . S
C426 H440 0.960 . S
C427 C424 1.511 . S
C427 H441 0.961 . S
C427 H442 0.961 . S
C427 H443 0.961 . S
C428 C429 1.370 . S
C428 C430 1.363 . S
C428 H444 0.931 . S
C429 C428 1.370 . S
C429 C433 1.408 . S
C430 C428 1.363 . S
C430 C431 1.370 . S
C430 C434 1.524 . S
C431 C423 1.503 . S
C431 C430 1.370 . S
C431 C432 1.403 . S
C432 C431 1.403 . S
C432 C433 1.404 . S
C432 C435 1.539 . S
C433 C429 1.408 . S
C433 C432 1.404 . S
C433 H445 0.930 . S
C434 C430 1.524 . S
C434 H446 0.956 . S
C434 H447 0.961 . S
C434 H448 0.961 . S
C435 C432 1.539 . S
C435 H449 0.958 . S
C435 H450 0.961 . S
C435 H451 0.960 . S
H436 C420 0.931 . S
H437 C425 0.929 . S
H438 C426 0.960 . S
H439 C426 0.962 . S
H440 C426 0.960 . S
H441 C427 0.961 . S
H442 C427 0.961 . S
H443 C427 0.961 . S
H444 C428 0.931 . S
H445 C433 0.930 . S
H446 C434 0.956 . S
H447 C434 0.961 . S
H448 C434 0.961 . S
H449 C435 0.958 . S
H450 C435 0.961 . S
H451 C435 0.960 . S
C452 C453 1.391 . S
C452 C454 1.394 . S
C452 H468 0.931 . S
C453 C452 1.391 . S
C453 C457 1.376 . S
C454 C452 1.394 . S
C454 C455 1.369 . S
C454 C458 1.531 1_455 S
C455 C454 1.369 . S
C455 C456 1.410 . S
C455 C463 1.503 1_455 S
C456 C455 1.410 . S
C456 C457 1.392 . S
C456 C459 1.511 . S
C457 C453 1.376 . S
C457 C456 1.392 . S
C457 H469 0.929 . S
C458 C454 1.531 1_655 S
C458 H470 0.960 . S
C458 H471 0.962 . S
C458 H472 0.960 . S
C459 C456 1.511 . S
C459 H473 0.961 . S
C459 H474 0.961 . S
C459 H475 0.961 . S
C460 C461 1.370 . S
C460 C462 1.363 . S
C460 H476 0.931 . S
C461 C460 1.370 . S
C461 C465 1.408 . S
C462 C460 1.363 . S
C462 C463 1.370 . S
C462 C466 1.524 . S
C463 C455 1.503 1_655 S
C463 C462 1.370 . S
C463 C464 1.403 . S
C464 C463 1.403 . S
C464 C465 1.404 . S
C464 C467 1.539 . S
C465 C461 1.408 . S
C465 C464 1.404 . S
C465 H477 0.930 . S
C466 C462 1.524 . S
C466 H478 0.956 . S
C466 H479 0.961 1_655 S
C466 H480 0.961 . S
C467 C464 1.539 . S
C467 H481 0.958 . S
C467 H482 0.961 . S
C467 H483 0.960 1_655 S
H468 C452 0.931 . S
H469 C457 0.929 . S
H470 C458 0.960 . S
H471 C458 0.962 . S
H472 C458 0.960 . S
H473 C459 0.961 . S
H474 C459 0.961 . S
H475 C459 0.961 . S
H476 C460 0.931 . S
H477 C465 0.930 . S
H478 C466 0.956 . S
H479 C466 0.961 1_455 S
H480 C466 0.961 . S
H481 C467 0.958 . S
H482 C467 0.961 . S
H483 C467 0.960 1_455 S
C484 C485 1.391 . S
C484 C486 1.394 . S
C484 H500 0.931 . S
C485 C484 1.391 . S
C485 C489 1.376 . S
C486 C484 1.394 . S
C486 C487 1.369 . S
C486 C490 1.531 1_565 S
C487 C486 1.369 . S
C487 C488 1.410 . S
C487 C495 1.503 1_565 S
C488 C487 1.410 . S
C488 C489 1.392 . S
C488 C491 1.511 . S
C489 C485 1.376 . S
C489 C488 1.392 . S
C489 H501 0.929 . S
C490 C486 1.531 1_545 S
C490 H502 0.960 . S
C490 H503 0.962 . S
C490 H504 0.960 . S
C491 C488 1.511 . S
C491 H505 0.961 . S
C491 H506 0.961 . S
C491 H507 0.961 . S
C492 C493 1.370 . S
C492 C494 1.363 . S
C492 H508 0.931 . S
C493 C492 1.370 . S
C493 C497 1.408 . S
C494 C492 1.363 . S
C494 C495 1.370 . S
C494 C498 1.524 . S
C495 C487 1.503 1_545 S
C495 C494 1.370 . S
C495 C496 1.403 . S
C496 C495 1.403 . S
C496 C497 1.404 . S
C496 C499 1.539 . S
C497 C493 1.408 . S
C497 C496 1.404 . S
C497 H509 0.930 . S
C498 C494 1.524 . S
C498 H510 0.956 . S
C498 H511 0.961 1_545 S
C498 H512 0.961 . S
C499 C496 1.539 . S
C499 H513 0.958 . S
C499 H514 0.961 . S
C499 H515 0.960 1_545 S
H500 C484 0.931 . S
H501 C489 0.929 . S
H502 C490 0.960 . S
H503 C490 0.962 . S
H504 C490 0.960 . S
H505 C491 0.961 . S
H506 C491 0.961 . S
H507 C491 0.961 . S
H508 C492 0.931 . S
H509 C497 0.930 . S
H510 C498 0.956 . S
H511 C498 0.961 1_565 S
H512 C498 0.961 . S
H513 C499 0.958 . S
H514 C499 0.961 . S
H515 C499 0.960 1_565 S
C516 C517 1.391 . S
C516 C518 1.394 . S
C516 H532 0.931 . S
C517 C516 1.391 . S
C517 C521 1.376 . S
C518 C516 1.394 . S
C518 C519 1.369 . S
C518 C522 1.531 . S
C519 C518 1.369 . S
C519 C520 1.410 . S
C519 C527 1.503 1_655 S
C520 C519 1.410 . S
C520 C521 1.392 . S
C520 C523 1.511 1_655 S
C521 C517 1.376 . S
C521 C520 1.392 . S
C521 H533 0.929 . S
C522 C518 1.531 . S
C522 H534 0.960 1_655 S
C522 H535 0.962 . S
C522 H536 0.960 . S
C523 C520 1.511 1_455 S
C523 H537 0.961 1_455 S
C523 H538 0.961 . S
C523 H539 0.961 . S
C524 C525 1.370 . S
C524 C526 1.363 . S
C524 H540 0.931 . S
C525 C524 1.370 . S
C525 C529 1.408 . S
C526 C524 1.363 . S
C526 C527 1.370 . S
C526 C530 1.524 1_455 S
C527 C519 1.503 1_455 S
C527 C526 1.370 . S
C527 C528 1.403 . S
C528 C527 1.403 . S
C528 C529 1.404 . S
C528 C531 1.539 . S
C529 C525 1.408 . S
C529 C528 1.404 . S
C529 H541 0.930 . S
C530 C526 1.524 1_655 S
C530 H542 0.956 . S
C530 H543 0.961 . S
C530 H544 0.961 . S
C531 C528 1.539 . S
C531 H545 0.958 . S
C531 H546 0.961 . S
C531 H547 0.960 . S
H532 C516 0.931 . S
H533 C521 0.929 . S
H534 C522 0.960 1_455 S
H535 C522 0.962 . S
H536 C522 0.960 . S
H537 C523 0.961 1_655 S
H538 C523 0.961 . S
H539 C523 0.961 . S
H540 C524 0.931 . S
H541 C529 0.930 . S
H542 C530 0.956 . S
H543 C530 0.961 . S
H544 C530 0.961 . S
H545 C531 0.958 . S
H546 C531 0.961 . S
H547 C531 0.960 . S
C548 C549 1.391 . S
C548 C550 1.394 . S
C548 H564 0.931 . S
C549 C548 1.391 . S
C549 C553 1.376 . S
C550 C548 1.394 . S
C550 C551 1.369 . S
C550 C554 1.531 . S
C551 C550 1.369 . S
C551 C552 1.410 . S
C551 C559 1.503 1_565 S
C552 C551 1.410 . S
C552 C553 1.392 . S
C552 C555 1.511 1_565 S
C553 C549 1.376 . S
C553 C552 1.392 . S
C553 H565 0.929 . S
C554 C550 1.531 . S
C554 H566 0.960 . S
C554 H567 0.962 . S
C554 H568 0.960 . S
C555 C552 1.511 1_545 S
C555 H569 0.961 . S
C555 H570 0.961 . S
C555 H571 0.961 . S
C556 C557 1.370 . S
C556 C558 1.363 . S
C556 H572 0.931 . S
C557 C556 1.370 . S
C557 C561 1.408 . S
C558 C556 1.363 . S
C558 C559 1.370 . S
C558 C562 1.524 . S
C559 C551 1.503 1_545 S
C559 C558 1.370 . S
C559 C560 1.403 . S
C560 C559 1.403 . S
C560 C561 1.404 . S
C560 C563 1.539 . S
C561 C557 1.408 . S
C561 C560 1.404 . S
C561 H573 0.930 . S
C562 C558 1.524 . S
C562 H574 0.956 . S
C562 H575 0.961 . S
C562 H576 0.961 . S
C563 C560 1.539 . S
C563 H577 0.958 1_545 S
C563 H578 0.961 . S
C563 H579 0.960 1_545 S
H564 C548 0.931 . S
H565 C553 0.929 . S
H566 C554 0.960 . S
H567 C554 0.962 . S
H568 C554 0.960 . S
H569 C555 0.961 . S
H570 C555 0.961 . S
H571 C555 0.961 . S
H572 C556 0.931 . S
H573 C561 0.930 . S
H574 C562 0.956 . S
H575 C562 0.961 . S
H576 C562 0.961 . S
H577 C563 0.958 1_565 S
H578 C563 0.961 . S
H579 C563 0.960 1_565 S
C580 C581 1.391 . S
C580 C582 1.394 . S
C580 H596 0.931 . S
C581 C580 1.391 . S
C581 C585 1.376 . S
C582 C580 1.394 . S
C582 C583 1.369 . S
C582 C586 1.531 . S
C583 C582 1.369 . S
C583 C584 1.410 . S
C583 C591 1.503 . S
C584 C583 1.410 . S
C584 C585 1.392 . S
C584 C587 1.511 . S
C585 C581 1.376 . S
C585 C584 1.392 . S
C585 H597 0.929 . S
C586 C582 1.531 . S
C586 H598 0.960 . S
C586 H599 0.962 . S
C586 H600 0.960 . S
C587 C584 1.511 . S
C587 H601 0.961 . S
C587 H602 0.961 . S
C587 H603 0.961 . S
C588 C589 1.370 . S
C588 C590 1.363 . S
C588 H604 0.931 . S
C589 C588 1.370 . S
C589 C593 1.408 . S
C590 C588 1.363 . S
C590 C591 1.370 . S
C590 C594 1.524 . S
C591 C583 1.503 . S
C591 C590 1.370 . S
C591 C592 1.403 . S
C592 C591 1.403 . S
C592 C593 1.404 . S
C592 C595 1.539 . S
C593 C589 1.408 . S
C593 C592 1.404 . S
C593 H605 0.930 . S
C594 C590 1.524 . S
C594 H606 0.956 . S
C594 H607 0.961 . S
C594 H608 0.961 . S
C595 C592 1.539 . S
C595 H609 0.958 . S
C595 H610 0.961 . S
C595 H611 0.960 . S
H596 C580 0.931 . S
H597 C585 0.929 . S
H598 C586 0.960 . S
H599 C586 0.962 . S
H600 C586 0.960 . S
H601 C587 0.961 . S
H602 C587 0.961 . S
H603 C587 0.961 . S
H604 C588 0.931 . S
H605 C593 0.930 . S
H606 C594 0.956 . S
H607 C594 0.961 . S
H608 C594 0.961 . S
H609 C595 0.958 . S
H610 C595 0.961 . S
H611 C595 0.960 . S
C612 C613 1.391 . S
C612 C614 1.394 . S
C612 H628 0.931 . S
C613 C612 1.391 . S
C613 C617 1.376 . S
C614 C612 1.394 . S
C614 C615 1.369 . S
C614 C618 1.531 . S
C615 C614 1.369 . S
C615 C616 1.410 . S
C615 C623 1.503 1_655 S
C616 C615 1.410 . S
C616 C617 1.392 . S
C616 C619 1.511 1_655 S
C617 C613 1.376 . S
C617 C616 1.392 . S
C617 H629 0.929 . S
C618 C614 1.531 . S
C618 H630 0.960 . S
C618 H631 0.962 . S
C618 H632 0.960 . S
C619 C616 1.511 1_455 S
C619 H633 0.961 . S
C619 H634 0.961 . S
C619 H635 0.961 1_455 S
C620 C621 1.370 . S
C620 C622 1.363 . S
C620 H636 0.931 . S
C621 C620 1.370 . S
C621 C625 1.408 . S
C622 C620 1.363 . S
C622 C623 1.370 . S
C622 C626 1.524 . S
C623 C615 1.503 1_455 S
C623 C622 1.370 . S
C623 C624 1.403 . S
C624 C623 1.403 . S
C624 C625 1.404 . S
C624 C627 1.539 1_455 S
C625 C621 1.408 . S
C625 C624 1.404 . S
C625 H637 0.930 . S
C626 C622 1.524 . S
C626 H638 0.956 . S
C626 H639 0.961 . S
C626 H640 0.961 . S
C627 C624 1.539 1_655 S
C627 H641 0.958 . S
C627 H642 0.961 . S
C627 H643 0.960 . S
H628 C612 0.931 . S
H629 C617 0.929 . S
H630 C618 0.960 . S
H631 C618 0.962 . S
H632 C618 0.960 . S
H633 C619 0.961 . S
H634 C619 0.961 . S
H635 C619 0.961 1_655 S
H636 C620 0.931 . S
H637 C625 0.930 . S
H638 C626 0.956 . S
H639 C626 0.961 . S
H640 C626 0.961 . S
H641 C627 0.958 . S
H642 C627 0.961 . S
H643 C627 0.960 . S
C644 C645 1.391 . S
C644 C646 1.394 . S
C644 H660 0.931 . S
C645 C644 1.391 . S
C645 C649 1.376 . S
C646 C644 1.394 . S
C646 C647 1.369 . S
C646 C650 1.531 . S
C647 C646 1.369 . S
C647 C648 1.410 . S
C647 C655 1.503 1_565 S
C648 C647 1.410 . S
C648 C649 1.392 . S
C648 C651 1.511 . S
C649 C645 1.376 . S
C649 C648 1.392 . S
C649 H661 0.929 . S
C650 C646 1.531 . S
C650 H662 0.960 . S
C650 H663 0.962 . S
C650 H664 0.960 . S
C651 C648 1.511 . S
C651 H665 0.961 . S
C651 H666 0.961 1_565 S
C651 H667 0.961 . S
C652 C653 1.370 . S
C652 C654 1.363 . S
C652 H668 0.931 . S
C653 C652 1.370 . S
C653 C657 1.408 . S
C654 C652 1.363 . S
C654 C655 1.370 . S
C654 C658 1.524 . S
C655 C647 1.503 1_545 S
C655 C654 1.370 . S
C655 C656 1.403 . S
C656 C655 1.403 . S
C656 C657 1.404 . S
C656 C659 1.539 1_545 S
C657 C653 1.408 . S
C657 C656 1.404 . S
C657 H669 0.930 . S
C658 C654 1.524 . S
C658 H670 0.956 . S
C658 H671 0.961 . S
C658 H672 0.961 . S
C659 C656 1.539 1_565 S
C659 H673 0.958 . S
C659 H674 0.961 . S
C659 H675 0.960 . S
H660 C644 0.931 . S
H661 C649 0.929 . S
H662 C650 0.960 . S
H663 C650 0.962 . S
H664 C650 0.960 . S
H665 C651 0.961 . S
H666 C651 0.961 1_545 S
H667 C651 0.961 . S
H668 C652 0.931 . S
H669 C657 0.930 . S
H670 C658 0.956 . S
H671 C658 0.961 . S
H672 C658 0.961 . S
H673 C659 0.958 . S
H674 C659 0.961 . S
H675 C659 0.960 . S
C676 C677 1.391 . S
C676 C678 1.394 . S
C676 H692 0.931 . S
C677 C676 1.391 . S
C677 C681 1.376 . S
C678 C676 1.394 . S
C678 C679 1.369 . S
C678 C682 1.531 . S
C679 C678 1.369 . S
C679 C680 1.410 . S
C679 C687 1.503 . S
C680 C679 1.410 . S
C680 C681 1.392 . S
C680 C683 1.511 . S
C681 C677 1.376 . S
C681 C680 1.392 . S
C681 H693 0.929 . S
C682 C678 1.531 . S
C682 H694 0.960 . S
C682 H695 0.962 . S
C682 H696 0.960 . S
C683 C680 1.511 . S
C683 H697 0.961 . S
C683 H698 0.961 . S
C683 H699 0.961 . S
C684 C685 1.370 . S
C684 C686 1.363 . S
C684 H700 0.931 . S
C685 C684 1.370 . S
C685 C689 1.408 . S
C686 C684 1.363 . S
C686 C687 1.370 . S
C686 C690 1.524 . S
C687 C679 1.503 . S
C687 C686 1.370 . S
C687 C688 1.403 . S
C688 C687 1.403 . S
C688 C689 1.404 . S
C688 C691 1.539 . S
C689 C685 1.408 . S
C689 C688 1.404 . S
C689 H701 0.930 . S
C690 C686 1.524 . S
C690 H702 0.956 . S
C690 H703 0.961 . S
C690 H704 0.961 . S
C691 C688 1.539 . S
C691 H705 0.958 . S
C691 H706 0.961 . S
C691 H707 0.960 . S
H692 C676 0.931 . S
H693 C681 0.929 . S
H694 C682 0.960 . S
H695 C682 0.962 . S
H696 C682 0.960 . S
H697 C683 0.961 . S
H698 C683 0.961 . S
H699 C683 0.961 . S
H700 C684 0.931 . S
H701 C689 0.930 . S
H702 C690 0.956 . S
H703 C690 0.961 . S
H704 C690 0.961 . S
H705 C691 0.958 . S
H706 C691 0.961 . S
H707 C691 0.960 . S
C133 C117 1.485 . S
C141 C7 1.467 . S
C165 C128 1.431 . S
C173 C18 1.448 . S
C197 C29 1.433 . S
C205 C73 1.448 . S
C229 C40 1.428 . S
C237 C84 1.449 . S
C261 C95 1.443 . S
C269 C51 1.449 . S
C293 C106 1.458 . S
C301 C62 1.469 . S
C325 C38 1.215 . S
C333 C5 1.286 . S
C357 C16 1.332 . S
C365 C49 1.257 . S
C389 C60 1.278 . S
C397 C27 1.302 . S
C421 C104 1.262 . S
C429 C71 1.304 . S
C453 C115 1.263 . S
C461 C82 1.260 . S
C485 C93 1.247 . S
C493 C126 1.265 . S
C517 C129 1.489 . S
C525 C8 1.500 . S
C549 C74 1.507 . S
C557 C19 1.500 . S
C581 C30 1.475 . S
C589 C85 1.491 . S
C613 C41 1.506 . S
C621 C96 1.497 . S
C645 C52 1.504 . S
C653 C107 1.496 . S
C677 C63 1.479 . S
C685 C118 1.495 . S
