# Generated by pormake.
# Topology smg, (6)-cn, num edge types: 1
# Building blocks:
#     Node 0, Type 0, BuildingBlock: OJICUG_clean_sbu_0, # of connection points: 6
#     Node 1, Type 0, BuildingBlock: OJICUG_clean_sbu_0, # of connection points: 6
#     Node 2, Type 0, BuildingBlock: OJICUG_clean_sbu_0, # of connection points: 6
#     Node 3, Type 0, BuildingBlock: OJICUG_clean_sbu_0, # of connection points: 6
#     Node 4, Type 0, BuildingBlock: OJICUG_clean_sbu_0, # of connection points: 6
#     Node 5, Type 0, BuildingBlock: OJICUG_clean_sbu_0, # of connection points: 6
#     Node 6, Type 0, BuildingBlock: OJICUG_clean_sbu_0, # of connection points: 6
#     Node 7, Type 0, BuildingBlock: OJICUG_clean_sbu_0, # of connection points: 6
#     Node 8, Type 0, BuildingBlock: OJICUG_clean_sbu_0, # of connection points: 6
#     Node 9, Type 0, BuildingBlock: OJICUG_clean_sbu_0, # of connection points: 6
#     Node 10, Type 0, BuildingBlock: OJICUG_clean_sbu_0, # of connection points: 6
#     Node 11, Type 0, BuildingBlock: OJICUG_clean_sbu_0, # of connection points: 6
#     Node 12, Type 0, BuildingBlock: OJICUG_clean_sbu_0, # of connection points: 6
#     Node 13, Type 0, BuildingBlock: OJICUG_clean_sbu_0, # of connection points: 6
#     Node 14, Type 0, BuildingBlock: OJICUG_clean_sbu_0, # of connection points: 6
#     Node 15, Type 0, BuildingBlock: OJICUG_clean_sbu_0, # of connection points: 6
#     Node 16, Type 0, BuildingBlock: OJICUG_clean_sbu_0, # of connection points: 6
#     Node 17, Type 0, BuildingBlock: OJICUG_clean_sbu_0, # of connection points: 6
#     Edge 18, Type (0, 0), BuildingBlock: XUDNAN_clean_linker_2, # of connection points: 2
#     Edge 19, Type (0, 0), BuildingBlock: XUDNAN_clean_linker_2, # of connection points: 2
#     Edge 20, Type (0, 0), BuildingBlock: XUDNAN_clean_linker_2, # of connection points: 2
#     Edge 21, Type (0, 0), BuildingBlock: XUDNAN_clean_linker_2, # of connection points: 2
#     Edge 22, Type (0, 0), BuildingBlock: XUDNAN_clean_linker_2, # of connection points: 2
#     Edge 23, Type (0, 0), BuildingBlock: XUDNAN_clean_linker_2, # of connection points: 2
#     Edge 24, Type (0, 0), BuildingBlock: XUDNAN_clean_linker_2, # of connection points: 2
#     Edge 25, Type (0, 0), BuildingBlock: XUDNAN_clean_linker_2, # of connection points: 2
#     Edge 26, Type (0, 0), BuildingBlock: XUDNAN_clean_linker_2, # of connection points: 2
#     Edge 27, Type (0, 0), BuildingBlock: XUDNAN_clean_linker_2, # of connection points: 2
#     Edge 28, Type (0, 0), BuildingBlock: XUDNAN_clean_linker_2, # of connection points: 2
#     Edge 29, Type (0, 0), BuildingBlock: XUDNAN_clean_linker_2, # of connection points: 2
#     Edge 30, Type (0, 0), BuildingBlock: XUDNAN_clean_linker_2, # of connection points: 2
#     Edge 31, Type (0, 0), BuildingBlock: XUDNAN_clean_linker_2, # of connection points: 2
#     Edge 32, Type (0, 0), BuildingBlock: XUDNAN_clean_linker_2, # of connection points: 2
#     Edge 33, Type (0, 0), BuildingBlock: XUDNAN_clean_linker_2, # of connection points: 2
#     Edge 34, Type (0, 0), BuildingBlock: XUDNAN_clean_linker_2, # of connection points: 2
#     Edge 35, Type (0, 0), BuildingBlock: XUDNAN_clean_linker_2, # of connection points: 2
#     Edge 36, Type (0, 0), BuildingBlock: XUDNAN_clean_linker_2, # of connection points: 2
#     Edge 37, Type (0, 0), BuildingBlock: XUDNAN_clean_linker_2, # of connection points: 2
#     Edge 38, Type (0, 0), BuildingBlock: XUDNAN_clean_linker_2, # of connection points: 2
#     Edge 39, Type (0, 0), BuildingBlock: XUDNAN_clean_linker_2, # of connection points: 2
#     Edge 40, Type (0, 0), BuildingBlock: XUDNAN_clean_linker_2, # of connection points: 2
#     Edge 41, Type (0, 0), BuildingBlock: XUDNAN_clean_linker_2, # of connection points: 2
#     Edge 42, Type (0, 0), BuildingBlock: XUDNAN_clean_linker_2, # of connection points: 2
#     Edge 43, Type (0, 0), BuildingBlock: XUDNAN_clean_linker_2, # of connection points: 2
#     Edge 44, Type (0, 0), BuildingBlock: XUDNAN_clean_linker_2, # of connection points: 2
#     Edge 45, Type (0, 0), BuildingBlock: XUDNAN_clean_linker_2, # of connection points: 2
#     Edge 46, Type (0, 0), BuildingBlock: XUDNAN_clean_linker_2, # of connection points: 2
#     Edge 47, Type (0, 0), BuildingBlock: XUDNAN_clean_linker_2, # of connection points: 2
#     Edge 48, Type (0, 0), BuildingBlock: XUDNAN_clean_linker_2, # of connection points: 2
#     Edge 49, Type (0, 0), BuildingBlock: XUDNAN_clean_linker_2, # of connection points: 2
#     Edge 50, Type (0, 0), BuildingBlock: XUDNAN_clean_linker_2, # of connection points: 2
#     Edge 51, Type (0, 0), BuildingBlock: XUDNAN_clean_linker_2, # of connection points: 2
#     Edge 52, Type (0, 0), BuildingBlock: XUDNAN_clean_linker_2, # of connection points: 2
#     Edge 53, Type (0, 0), BuildingBlock: XUDNAN_clean_linker_2, # of connection points: 2
#     Edge 54, Type (0, 0), BuildingBlock: XUDNAN_clean_linker_2, # of connection points: 2
#     Edge 55, Type (0, 0), BuildingBlock: XUDNAN_clean_linker_2, # of connection points: 2
#     Edge 56, Type (0, 0), BuildingBlock: XUDNAN_clean_linker_2, # of connection points: 2
#     Edge 57, Type (0, 0), BuildingBlock: XUDNAN_clean_linker_2, # of connection points: 2
#     Edge 58, Type (0, 0), BuildingBlock: XUDNAN_clean_linker_2, # of connection points: 2
#     Edge 59, Type (0, 0), BuildingBlock: XUDNAN_clean_linker_2, # of connection points: 2
#     Edge 60, Type (0, 0), BuildingBlock: XUDNAN_clean_linker_2, # of connection points: 2
#     Edge 61, Type (0, 0), BuildingBlock: XUDNAN_clean_linker_2, # of connection points: 2
#     Edge 62, Type (0, 0), BuildingBlock: XUDNAN_clean_linker_2, # of connection points: 2
#     Edge 63, Type (0, 0), BuildingBlock: XUDNAN_clean_linker_2, # of connection points: 2
#     Edge 64, Type (0, 0), BuildingBlock: XUDNAN_clean_linker_2, # of connection points: 2
#     Edge 65, Type (0, 0), BuildingBlock: XUDNAN_clean_linker_2, # of connection points: 2
#     Edge 66, Type (0, 0), BuildingBlock: XUDNAN_clean_linker_2, # of connection points: 2
#     Edge 67, Type (0, 0), BuildingBlock: XUDNAN_clean_linker_2, # of connection points: 2
#     Edge 68, Type (0, 0), BuildingBlock: XUDNAN_clean_linker_2, # of connection points: 2
#     Edge 69, Type (0, 0), BuildingBlock: XUDNAN_clean_linker_2, # of connection points: 2
#     Edge 70, Type (0, 0), BuildingBlock: XUDNAN_clean_linker_2, # of connection points: 2
#     Edge 71, Type (0, 0), BuildingBlock: XUDNAN_clean_linker_2, # of connection points: 2
# Relax obj value: 0.210
# Max RMSD: 0.238
# Mean RMSD: 0.238
data_MOF--net-smg--node1-OJICUG_clean_sbu_0--edge1-XUDNAN_clean_linker_2
_symmetry_space_group_name_H-M    P1
_symmetry_Int_Tables_number       1
_symmetry_cell_setting            triclinic
loop_
_symmetry_equiv_pos_as_xyz
'x, y, z'
_cell_length_a     45.37501
_cell_length_b     45.251919
_cell_length_c     45.460497
_cell_angle_alpha  90.007134
_cell_angle_beta   89.962183
_cell_angle_gamma 119.94153
loop_
_atom_site_label
_atom_site_type_symbol
_atom_site_fract_x
_atom_site_fract_y
_atom_site_fract_z
_atom_type_partial_charge
Sc0 Sc 0.00077 0.65558 0.24002 0.0
Sc1 Sc 0.95791 0.57284 0.2108 0.0
Sc2 Sc 0.0248 0.59714 0.26083 0.0
O3 O 0.99412 0.60809 0.23718 0.0
C4 C 0.07682 0.672 0.24619 0.0
C5 C -0.0008 0.64152 0.17255 0.0
C6 C 0.01766 0.55574 0.20223 0.0
C7 C 0.92129 0.61392 0.22745 0.0
C8 C 0.0025 0.63766 0.30523 0.0
C9 C 0.95119 0.53131 0.26933 0.0
O10 O 0.05424 0.68029 0.24985 0.0
O11 O 0.97711 0.60984 0.17523 0.0
O12 O 0.03274 0.56969 0.22605 0.0
O13 O 0.94915 0.64133 0.23086 0.0
O14 O 0.02015 0.62375 0.29861 0.0
O15 O 0.93859 0.53452 0.24525 0.0
O16 O 0.98932 0.64806 0.28604 0.0
O17 O 0.91957 0.58534 0.2238 0.0
O18 O 0.98162 0.55183 0.27739 0.0
O19 O 0.01204 0.66227 0.19398 0.0
O20 O 0.06986 0.64127 0.24493 0.0
O21 O 0.99049 0.55485 0.19407 0.0
Sc22 Sc 0.43694 0.4021 0.21939 0.0
Sc23 Sc 0.39689 0.44266 0.2532 0.0
Sc24 Sc 0.35287 0.35463 0.24531 0.0
O25 O 0.39578 0.39989 0.23913 0.0
C26 C 0.3731 0.35145 0.17951 0.0
C27 C 0.43857 0.46822 0.1934 0.0
C28 C 0.32203 0.40286 0.23105 0.0
C29 C 0.46912 0.45389 0.27286 0.0
C30 C 0.4092 0.33263 0.25335 0.0
C31 C 0.36222 0.39062 0.3061 0.0
O32 O 0.40498 0.36831 0.18489 0.0
O33 O 0.42246 0.47134 0.21484 0.0
O34 O 0.31897 0.37459 0.23908 0.0
O35 O 0.47162 0.4361 0.25237 0.0
O36 O 0.37875 0.32647 0.25213 0.0
O37 O 0.37137 0.41891 0.29335 0.0
O38 O 0.43423 0.3607 0.24502 0.0
O39 O 0.44358 0.45803 0.27609 0.0
O40 O 0.3557 0.36357 0.29221 0.0
O41 O 0.44532 0.4442 0.19156 0.0
O42 O 0.35027 0.34551 0.19871 0.0
O43 O 0.35027 0.43047 0.23163 0.0
Sc44 Sc 0.58954 0.04379 0.24852 0.0
Sc45 Sc 0.57166 0.96572 0.27999 0.0
Sc46 Sc 0.64943 0.01724 0.24366 0.0
O47 O 0.60346 0.00876 0.25744 0.0
C48 C 0.62782 0.04469 0.1895 0.0
C49 C 0.52267 0.9741 0.23473 0.0
C50 C 0.6024 0.93715 0.23281 0.0
C51 C 0.55858 0.01967 0.31286 0.0
C52 C 0.66565 0.0901 0.26753 0.0
C53 C 0.64473 0.9881 0.3075 0.0
O54 O 0.61199 0.05517 0.2055 0.0
O55 O 0.52811 0.95765 0.25466 0.0
O56 O 0.63011 0.96527 0.23066 0.0
O57 O 0.56521 0.03794 0.29001 0.0
O58 O 0.67451 0.07034 0.25553 0.0
O59 O 0.61243 0.96978 0.30713 0.0
O60 O 0.63495 0.08345 0.26848 0.0
O61 O 0.56176 0.99332 0.31377 0.0
O62 O 0.66191 0.00792 0.28668 0.0
O63 O 0.54336 0.00525 0.22869 0.0
O64 O 0.64059 0.02739 0.19951 0.0
O65 O 0.57766 0.93335 0.24862 0.0
Sc66 Sc 0.98904 0.35679 0.7358 0.0
Sc67 Sc 0.03463 0.43713 0.76818 0.0
Sc68 Sc 0.9561 0.4109 0.73429 0.0
O69 O 0.99344 0.40197 0.74637 0.0
C70 C 0.9701 0.3788 0.67782 0.0
C71 C 0.06915 0.40463 0.73107 0.0
C72 C 0.02254 0.48078 0.71933 0.0
C73 C 0.0104 0.36603 0.80175 0.0
C74 C 0.91231 0.33471 0.74906 0.0
C75 C 0.97715 0.44837 0.79634 0.0
O76 O 0.98854 0.3686 0.69027 0.0
O77 O 0.06958 0.43137 0.73999 0.0
O78 O 0.99197 0.45787 0.7142 0.0
O79 O 0.99049 0.34659 0.7817 0.0
O80 O 0.91801 0.36455 0.75461 0.0
O81 O 0.00476 0.44784 0.7988 0.0
O82 O 0.93427 0.3291 0.73704 0.0
O83 O 0.03047 0.39809 0.79835 0.0
O84 O 0.95809 0.43737 0.7739 0.0
O85 O 0.04259 0.37555 0.73216 0.0
O86 O 0.95086 0.38674 0.69209 0.0
O87 O 0.04089 0.47797 0.73916 0.0
Sc88 Sc 0.58601 0.60609 0.75804 0.0
Sc89 Sc 0.61899 0.55814 0.72492 0.0
Sc90 Sc 0.67186 0.64594 0.7362 0.0
O91 O 0.62543 0.60337 0.73959 0.0
C92 C 0.62376 0.67748 0.72473 0.0
C93 C 0.55151 0.55719 0.70303 0.0
C94 C 0.66683 0.61065 0.6753 0.0
C95 C 0.57232 0.53392 0.78204 0.0
C96 C 0.64828 0.65052 0.80122 0.0
C97 C 0.69166 0.58972 0.75361 0.0
O98 O 0.59697 0.65227 0.735 0.0
O99 O 0.5736 0.5477 0.70078 0.0
O100 O 0.67541 0.63777 0.68987 0.0
O101 O 0.56865 0.55995 0.78366 0.0
O102 O 0.67154 0.65646 0.78253 0.0
O103 O 0.66265 0.5639 0.74877 0.0
O104 O 0.61669 0.63425 0.79504 0.0
O105 O 0.58946 0.53002 0.762 0.0
O106 O 0.6987 0.61989 0.7475 0.0
O107 O 0.55274 0.57791 0.72257 0.0
O108 O 0.65224 0.67864 0.72461 0.0
O109 O 0.64865 0.5809 0.68592 0.0
Sc110 Sc 0.40205 0.94223 0.74491 0.0
Sc111 Sc 0.42541 0.02173 0.71306 0.0
Sc112 Sc 0.34384 0.97074 0.74347 0.0
O113 O 0.39051 0.97836 0.73355 0.0
C114 C 0.32823 0.89654 0.72335 0.0
C115 C 0.44179 0.96796 0.68403 0.0
C116 C 0.35577 -0.00065 0.67862 0.0
C117 C 0.46648 0.01162 0.7649 0.0
C118 C 0.35821 0.94157 0.79994 0.0
C119 C 0.38937 0.05099 0.7541 0.0
O120 O 0.35887 0.90323 0.72179 0.0
O121 O 0.44036 0.99521 0.68232 0.0
O122 O 0.33607 0.97966 0.69855 0.0
O123 O 0.44514 0.98015 0.7689 0.0
O124 O 0.34892 0.96136 0.78887 0.0
O125 O 0.41556 0.05424 0.74104 0.0
O126 O 0.37389 0.92976 0.78534 0.0
O127 O 0.46483 0.02922 0.74379 0.0
O128 O 0.36154 0.02291 0.75505 0.0
O129 O 0.4311 0.9483 0.70611 0.0
O130 O 0.31946 0.91713 0.73363 0.0
O131 O 0.38798 0.01737 0.68148 0.0
Sc132 Sc 0.6934 0.00314 0.579 0.0
Sc133 Sc 0.65992 0.91667 0.56293 0.0
Sc134 Sc 0.73222 0.95872 0.60808 0.0
O135 O 0.69536 0.95957 0.58328 0.0
C136 C 0.77349 0.03502 0.5853 0.0
C137 C 0.68391 0.97539 0.51414 0.0
C138 C 0.7288 0.9136 0.55437 0.0
C139 C 0.61403 0.94903 0.57789 0.0
C140 C 0.70208 0.99647 0.64726 0.0
C141 C 0.667 0.88528 0.6223 0.0
O142 O 0.74695 0.03626 0.57948 0.0
O143 O 0.66887 0.94429 0.52233 0.0
O144 O 0.74694 0.93612 0.57329 0.0
O145 O 0.63921 0.97898 0.57847 0.0
O146 O 0.71866 0.98067 0.64417 0.0
O147 O 0.6485 0.88583 0.60164 0.0
O148 O 0.69103 0.00632 0.62582 0.0
O149 O 0.61737 0.92314 0.57403 0.0
O150 O 0.69775 0.90868 0.62595 0.0
O151 O 0.69563 0.00048 0.53193 0.0
O152 O 0.77296 0.00829 0.59438 0.0
O153 O 0.69756 0.90372 0.5499 0.0
Sc154 Sc 0.01424 0.70231 0.57875 0.0
Sc155 Sc 0.09517 0.73322 0.54859 0.0
Sc156 Sc 0.0721 0.78873 0.5807 0.0
O157 O 0.06059 0.7413 0.56926 0.0
C158 C -0.00041 0.76005 0.55553 0.0
C159 C 0.0257 0.68426 0.51479 0.0
C160 C 0.11007 0.80175 0.51919 0.0
C161 C 0.06174 0.67013 0.59099 0.0
C162 C 0.02679 0.74509 0.63486 0.0
C163 C 0.13644 0.78535 0.5999 0.0
O164 O 0.99009 0.73185 0.56872 0.0
O165 O 0.05759 0.69677 0.51857 0.0
O166 O 0.10427 0.81259 0.54304 0.0
O167 O 0.03292 0.66839 0.58982 0.0
O168 O 0.04127 0.77255 0.62003 0.0
O169 O 0.13587 0.76893 0.57692 0.0
O170 O 0.01951 0.71639 0.6241 0.0
O171 O 0.08826 0.69403 0.57908 0.0
O172 O 0.11356 0.79279 0.60618 0.0
O173 O 0.00633 0.6862 0.53389 0.0
O174 O 0.03037 0.78405 0.55513 0.0
O175 O 0.10472 0.77158 0.51634 0.0
Sc176 Sc 0.3078 0.3273 0.57684 0.0
Sc177 Sc 0.27663 0.38171 0.55809 0.0
Sc178 Sc 0.22071 0.2983 0.58271 0.0
O179 O 0.26832 0.33586 0.57253 0.0
C180 C 0.24923 0.25506 0.55336 0.0
C181 C 0.32376 0.36564 0.51639 0.0
C182 C 0.20702 0.33141 0.52613 0.0
C183 C 0.34271 0.40565 0.59598 0.0
C184 C 0.26627 0.29341 0.63409 0.0
C185 C 0.22205 0.36399 0.60928 0.0
O186 O 0.27906 0.27528 0.5626 0.0
O187 O 0.3106 0.38352 0.52423 0.0
O188 O 0.19787 0.30836 0.54561 0.0
O189 O 0.34287 0.37803 0.5917 0.0
O190 O 0.23796 0.28373 0.6213 0.0
O191 O 0.24387 0.38441 0.59091 0.0
O192 O 0.29489 0.31255 0.62197 0.0
O193 O 0.3185 0.41003 0.58755 0.0
O194 O 0.21207 0.33222 0.60995 0.0
O195 O 0.32265 0.34165 0.53179 0.0
O196 O 0.22496 0.26124 0.55597 0.0
O197 O 0.23565 0.35878 0.5267 0.0
Sc198 Sc 0.70695 0.78651 0.08618 0.0
Sc199 Sc 0.62967 0.73646 0.04917 0.0
Sc200 Sc 0.6734 0.69887 0.08021 0.0
O201 O 0.66995 0.74081 0.07174 0.0
C202 C 0.75194 0.75397 0.07461 0.0
C203 C 0.69065 0.80627 0.02385 0.0
C204 C 0.65649 0.69333 0.0129 0.0
C205 C 0.63935 0.78976 0.09909 0.0
C206 C 0.68793 0.73549 0.14099 0.0
C207 C 0.59283 0.66584 0.0808 0.0
O208 O 0.74762 0.77922 0.07054 0.0
O209 O 0.66125 0.78001 0.02239 0.0
O210 O 0.67432 0.691 0.03355 0.0
O211 O 0.67045 0.79882 0.10292 0.0
O212 O 0.67226 0.70768 0.12654 0.0
O213 O 0.5927 0.69264 0.07312 0.0
O214 O 0.7054 0.76469 0.12887 0.0
O215 O 0.62054 0.76733 0.08031 0.0
O216 O 0.61976 0.66404 0.08132 0.0
O217 O 0.71052 0.81247 0.04555 0.0
O218 O 0.72785 0.72469 0.08138 0.0
O219 O 0.63661 0.70549 0.01655 0.0
Sc220 Sc 0.24781 0.92741 0.09784 0.0
Sc221 Sc 0.27048 0.87211 0.06517 0.0
Sc222 Sc 0.32891 0.95814 0.0685 0.0
O223 O 0.28217 0.91939 0.0772 0.0
C224 C 0.2839 0.99379 0.05968 0.0
C225 C 0.20757 0.87758 0.04463 0.0
C226 C 0.31549 0.91709 0.0117 0.0
C227 C 0.23028 0.85712 0.12547 0.0
C228 C 0.31721 0.97361 0.13301 0.0
C229 C 0.34217 0.89973 0.09075 0.0
O230 O 0.25671 0.96884 0.06959 0.0
O231 O 0.22993 0.8692 0.039 0.0
O232 O 0.32227 0.94554 0.02279 0.0
O233 O 0.23617 0.88739 0.12883 0.0
O234 O 0.33691 0.97182 0.11409 0.0
O235 O 0.31123 0.87621 0.09191 0.0
O236 O 0.28545 0.96174 0.12879 0.0
O237 O 0.23679 0.84685 0.10167 0.0
O238 O 0.35181 0.92674 0.07565 0.0
O239 O 0.20789 0.89391 0.06766 0.0
O240 O 0.31228 0.99454 0.06019 0.0
O241 O 0.3026 0.88967 0.02662 0.0
Sc242 Sc 0.05114 0.28171 0.09815 0.0
Sc243 Sc 0.08917 0.35793 0.05725 0.0
Sc244 Sc 0.00374 0.32026 0.07824 0.0
O245 O 0.04819 0.32002 0.07791 0.0
C246 C 0.97835 0.24087 0.07181 0.0
C247 C 0.09695 0.29371 0.04129 0.0
C248 C 0.02779 0.3385 0.01244 0.0
C249 C 0.12068 0.34726 0.11639 0.0
C250 C 0.00523 0.29709 0.14221 0.0
C251 C 0.05681 0.3997 0.08406 0.0
O252 O 0.00691 0.24282 0.07584 0.0
O253 O 0.1009 0.32288 0.03513 0.0
O254 O 0.00415 0.32301 0.03118 0.0
O255 O 0.09605 0.31751 0.12198 0.0
O256 O 0.00074 0.31678 0.12524 0.0
O257 O 0.0828 0.39745 0.07753 0.0
O258 O 0.02028 0.28097 0.13447 0.0
O259 O 0.1222 0.36388 0.09333 0.0
O260 O 0.02684 0.37449 0.08259 0.0
O261 O 0.08116 0.27703 0.06401 0.0
O262 O 0.97347 0.26597 0.07456 0.0
O263 O 0.05923 0.35479 0.01925 0.0
Sc264 Sc 0.32476 0.30299 0.90237 0.0
Sc265 Sc 0.28875 0.21435 0.89669 0.0
Sc266 Sc 0.37127 0.26388 0.92582 0.0
O267 O 0.32841 0.26043 0.90816 0.0
C268 C 0.40374 0.33348 0.88956 0.0
C269 C 0.29245 0.26251 0.84361 0.0
C270 C 0.35407 0.21072 0.87411 0.0
C271 C 0.24885 0.24935 0.92211 0.0
C272 C 0.35455 0.31063 0.96724 0.0
C273 C 0.31355 0.19413 0.95428 0.0
O274 O 0.37627 0.33424 0.88826 0.0
O275 O 0.28201 0.2337 0.85581 0.0
O276 O 0.37556 0.23441 0.89063 0.0
O277 O 0.27268 0.27904 0.91582 0.0
O278 O 0.36897 0.2931 0.96228 0.0
O279 O 0.29057 0.1901 0.93628 0.0
O280 O 0.33804 0.31674 0.94781 0.0
O281 O 0.25124 0.22288 0.91805 0.0
O282 O 0.34397 0.21865 0.9526 0.0
O283 O 0.31038 0.29083 0.85679 0.0
O284 O 0.40571 0.30938 0.90189 0.0
O285 O 0.32231 0.20052 0.87456 0.0
Sc286 Sc 0.74827 0.07394 0.89806 0.0
Sc287 Sc 0.71785 0.12416 0.92861 0.0
Sc288 Sc 0.66383 0.0379 0.91892 0.0
O289 O 0.7103 0.07875 0.91527 0.0
C290 C 0.68465 0.02933 0.85619 0.0
C291 C 0.76334 0.14389 0.87087 0.0
C292 C 0.64702 0.09566 0.90163 0.0
C293 C 0.78231 0.12345 0.95269 0.0
C294 C 0.71063 0.00468 0.92954 0.0
C295 C 0.66938 0.07251 0.97799 0.0
O296 O 0.7151 0.03959 0.86456 0.0
O297 O 0.75305 0.15237 0.89365 0.0
O298 O 0.63831 0.06693 0.91325 0.0
O299 O 0.78441 0.10772 0.93026 0.0
O300 O 0.68207 0.00243 0.92447 0.0
O301 O 0.68317 0.10147 0.96524 0.0
O302 O 0.73865 0.03218 0.92647 0.0
O303 O 0.75808 0.12949 0.95689 0.0
O304 O 0.66507 0.04548 0.96546 0.0
O305 O 0.76064 0.11477 0.86782 0.0
O306 O 0.6624 0.03058 0.87236 0.0
O307 O 0.67765 0.11971 0.90056 0.0
Sc308 Sc 0.94104 0.73114 0.90336 0.0
Sc309 Sc 0.92231 0.65689 0.94266 0.0
Sc310 Sc -0.00112 0.70121 0.90281 0.0
O311 O 0.95399 0.69626 0.91627 0.0
C312 C 0.97753 0.72444 0.84566 0.0
C313 C 0.87422 0.65879 0.89258 0.0
C314 C 0.953 0.62068 0.90298 0.0
C315 C 0.90842 0.71469 0.96721 0.0
C316 C 0.0182 0.77786 0.91807 0.0
C317 C 0.99518 0.68397 0.97113 0.0
O318 O 0.96178 0.73623 0.8601 0.0
O319 O 0.88034 0.64307 0.91284 0.0
O320 O 0.97794 0.64809 0.89351 0.0
O321 O 0.91861 0.73274 0.94422 0.0
O322 O 0.0254 0.75528 0.91011 0.0
O323 O 0.96296 0.66971 0.97289 0.0
O324 O 0.98805 0.77274 0.91964 0.0
O325 O 0.90843 0.68685 0.96978 0.0
O326 O 0.01193 0.69518 0.94731 0.0
O327 O 0.89352 0.69043 0.88689 0.0
O328 O 0.99005 0.70779 0.85753 0.0
O329 O 0.93145 0.61983 0.92119 0.0
Sc330 Sc 0.32878 0.01538 0.40687 0.0
Sc331 Sc 0.36422 0.09967 0.4292 0.0
Sc332 Sc 0.29751 0.06518 0.37833 0.0
O333 O 0.33034 0.06054 0.40473 0.0
C334 C 0.32811 0.02692 0.34006 0.0
C335 C 0.40741 0.06524 0.41822 0.0
C336 C 0.3656 0.13626 0.36875 0.0
C337 C 0.33055 0.03448 0.47234 0.0
C338 C 0.25112 0.98992 0.39625 0.0
C339 C 0.29825 0.10738 0.43455 0.0
O340 O 0.34204 0.02 0.36125 0.0
O341 O 0.40596 0.09242 0.41616 0.0
O342 O 0.33715 0.11194 0.35993 0.0
O343 O 0.31572 0.01186 0.45251 0.0
O344 O 0.25473 0.01949 0.3954 0.0
O345 O 0.32608 0.11103 0.44449 0.0
O346 O 0.2761 0.98487 0.39518 0.0
O347 O 0.35184 0.06576 0.46665 0.0
O348 O 0.28535 0.09255 0.41031 0.0
O349 O 0.38104 0.03606 0.41908 0.0
O350 O 0.30762 0.03832 0.34383 0.0
O351 O 0.37837 0.13608 0.39365 0.0
Sc352 Sc 0.89283 0.29352 0.44453 0.0
Sc353 Sc 0.92856 0.24948 0.41001 0.0
Sc354 Sc 0.96925 0.33816 0.40488 0.0
O355 O 0.93019 0.2937 0.42 0.0
C356 C 0.90733 0.35258 0.4003 0.0
C357 C 0.85173 0.23082 0.40126 0.0
C358 C 0.95229 0.29106 0.34976 0.0
C359 C 0.90099 0.23532 0.47601 0.0
C360 C 0.96127 0.35651 0.46967 0.0
C361 C 0.00686 0.29625 0.41974 0.0
O362 O 0.88586 0.32626 0.4142 0.0
O363 O 0.87722 0.22782 0.39407 0.0
O364 O 0.95941 0.32 0.36013 0.0
O365 O 0.89502 0.25995 0.47747 0.0
O366 O 0.98087 0.35844 0.44883 0.0
O367 O 0.98001 0.268 0.4248 0.0
O368 O 0.92927 0.33629 0.46986 0.0
O369 O 0.91145 0.22807 0.45273 0.0
O370 O 0.00627 0.32216 0.40982 0.0
O371 O 0.85312 0.25147 0.42088 0.0
O372 O 0.93839 0.36106 0.39767 0.0
O373 O 0.94494 0.26534 0.36585 0.0
Sc374 Sc 0.74483 0.64016 0.40271 0.0
Sc375 Sc 0.77134 0.72188 0.37396 0.0
Sc376 Sc 0.69289 0.67627 0.41067 0.0
O377 O 0.73638 0.67945 0.39563 0.0
C378 C 0.66698 0.60024 0.38836 0.0
C379 C 0.77539 0.66385 0.33802 0.0
C380 C 0.7005 0.70884 0.34789 0.0
C381 C 0.81688 0.7049 0.41607 0.0
C382 C 0.71162 0.64428 0.46369 0.0
C383 C 0.74715 0.75456 0.42309 0.0
O384 O 0.69616 0.60338 0.38479 0.0
O385 O 0.77679 0.69262 0.33896 0.0
O386 O 0.68162 0.68858 0.36788 0.0
O387 O 0.79397 0.67421 0.4211 0.0
O388 O 0.70105 0.66381 0.45439 0.0
O389 O 0.77045 0.75601 0.40664 0.0
O390 O 0.72485 0.63156 0.4469 0.0
O391 O 0.81311 0.72411 0.39793 0.0
O392 O 0.71772 0.72841 0.42454 0.0
O393 O 0.76606 0.64365 0.35983 0.0
O394 O 0.66234 0.62331 0.39957 0.0
O395 O 0.7328 0.72398 0.34825 0.0
H396 H 0.00869 0.41874 0.08872 0.0
H397 H 0.11401 0.45191 0.10962 0.0
H398 H 0.11724 0.49944 0.13901 0.0
H399 H 0.01768 0.50525 0.08572 0.0
H400 H 0.97639 0.48987 0.10215 0.0
H401 H 0.9843 0.46201 0.0793 0.0
H402 H 0.96468 0.41801 0.12181 0.0
H403 H 0.95721 0.44584 0.14492 0.0
H404 H 0.98535 0.43097 0.15711 0.0
H405 H 0.10598 0.53757 0.17213 0.0
H406 H 0.08269 0.56621 0.20285 0.0
H407 H 0.98514 0.50825 0.15912 0.0
C408 C 0.03275 0.43651 0.09882 0.0
C409 C 0.06111 0.43166 0.09686 0.0
C410 C 0.09205 0.45535 0.11057 0.0
C411 C 0.09408 0.48234 0.12739 0.0
C412 C 0.06514 0.48551 0.12984 0.0
C413 C 0.03524 0.46356 0.11546 0.0
C414 C 0.00703 0.47079 0.12319 0.0
C415 C -0.0043 0.4827 0.09597 0.0
C416 C 0.97681 0.43955 0.13762 0.0
C417 C 0.02533 0.49949 0.14498 0.0
C418 C 0.05886 0.50778 0.14846 0.0
C419 C 0.07996 0.53176 0.16915 0.0
C420 C 0.06644 0.5477 0.18663 0.0
C421 C 0.03215 0.5396 0.18326 0.0
C422 C 0.01158 0.51541 0.16192 0.0
H423 H 0.49146 0.48531 0.15553 0.0
H424 H 0.41578 0.51247 0.18083 0.0
H425 H 0.44257 0.56236 0.14785 0.0
H426 H 0.55893 0.56556 0.15822 0.0
H427 H 0.58173 0.56165 0.12737 0.0
H428 H 0.55273 0.52438 0.14783 0.0
H429 H 0.51957 0.49567 0.10002 0.0
H430 H 0.54872 0.53291 0.07929 0.0
H431 H 0.50365 0.51741 0.07749 0.0
H432 H 0.48224 0.61356 0.11831 0.0
H433 H 0.53228 0.66231 0.09532 0.0
H434 H 0.58207 0.60172 0.09007 0.0
C435 C 0.47984 0.50108 0.15336 0.0
C436 C 0.45152 0.49498 0.1706 0.0
C437 C 0.43755 0.51672 0.16778 0.0
C438 C 0.45242 0.54499 0.14897 0.0
C439 C 0.48112 0.55103 0.13305 0.0
C440 C 0.49456 0.52955 0.13491 0.0
C441 C 0.52789 0.54391 0.11852 0.0
C442 C 0.55701 0.54919 0.13923 0.0
C443 C 0.52475 0.52112 0.09227 0.0
C444 C 0.53187 0.57751 0.10837 0.0
C445 C 0.50433 0.5809 0.11636 0.0
C446 C 0.50367 0.61098 0.11141 0.0
C447 C 0.53221 0.63854 0.0984 0.0
C448 C 0.56108 0.63584 0.09097 0.0
C449 C 0.56037 0.6046 0.09542 0.0
H450 H 0.51125 0.99362 0.1813 0.0
H451 H 0.46588 0.9119 0.24562 0.0
H452 H 0.4167 0.87969 0.21255 0.0
H453 H 0.43553 0.99062 0.15908 0.0
H454 H 0.4482 -0.00011 0.12108 0.0
H455 H 0.47995 0.01514 0.1495 0.0
H456 H 0.50908 0.98507 0.12401 0.0
H457 H 0.47707 0.96923 0.09566 0.0
H458 H 0.48474 0.93994 0.11665 0.0
H459 H 0.37082 0.85849 0.17342 0.0
H460 H 0.33129 0.8519 0.13325 0.0
H461 H 0.40955 0.94642 0.09431 0.0
C462 C 0.49098 0.96901 0.18858 0.0
C463 C 0.49228 0.95536 0.21609 0.0
C464 C 0.46534 0.92288 0.2246 0.0
C465 C 0.43744 0.90432 0.20592 0.0
C466 C 0.43724 0.91844 0.17874 0.0
C467 C 0.46334 0.95007 0.17018 0.0
C468 C 0.45671 0.96036 0.14047 0.0
C469 C 0.45497 0.99343 0.14268 0.0
C470 C 0.48349 0.96384 0.11787 0.0
C471 C 0.42234 0.92992 0.13387 0.0
C472 C 0.41151 0.90583 0.15602 0.0
C473 C 0.37923 0.87691 0.15571 0.0
C474 C 0.35702 0.8733 0.13273 0.0
C475 C 0.36733 0.89858 0.11056 0.0
C476 C 0.40089 0.92641 0.11068 0.0
H477 H 0.45992 0.10352 0.38122 0.0
H478 H 0.42619 0.02598 0.44882 0.0
H479 H 0.47172 0.01394 0.43516 0.0
H480 H 0.4681 0.0582 0.32954 0.0
H481 H 0.50537 0.0911 0.31129 0.0
H482 H 0.47875 0.10221 0.33212 0.0
H483 H 0.53004 0.14394 0.36406 0.0
H484 H 0.55725 0.13352 0.34287 0.0
H485 H 0.55544 0.12903 0.38233 0.0
H486 H 0.50934 -0.00023 0.40644 0.0
H487 H 0.53828 0.98705 0.3665 0.0
H488 H 0.54762 0.07352 0.31719 0.0
C489 C 0.46358 0.08554 0.39422 0.0
C490 C 0.4401 0.06601 0.41626 0.0
C491 C 0.44436 0.04145 0.43205 0.0
C492 C 0.47018 0.0345 0.42448 0.0
C493 C 0.49158 0.05245 0.40116 0.0
C494 C 0.489 0.07799 0.38657 0.0
C495 C 0.51084 0.08921 0.35917 0.0
C496 C 0.48947 0.08488 0.33143 0.0
C497 C 0.54014 0.12612 0.36231 0.0
C498 C 0.52392 0.06432 0.35948 0.0
C499 C 0.51332 0.0439 0.38422 0.0
C500 C 0.51872 0.01627 0.38739 0.0
C501 C 0.53497 0.00906 0.3645 0.0
C502 C 0.54524 0.02922 0.33868 0.0
C503 C 0.54042 0.05773 0.33672 0.0
H504 H 0.96284 0.52617 0.32706 0.0
H505 H 0.89314 0.47056 0.2561 0.0
H506 H 0.86446 0.41958 0.28812 0.0
H507 H 0.97847 0.46465 0.34721 0.0
H508 H 0.98172 0.47307 0.38618 0.0
H509 H 0.99045 0.50665 0.36069 0.0
H510 H 0.94508 0.51676 0.38607 0.0
H511 H 0.93604 0.4829 0.41176 0.0
H512 H 0.90219 0.48181 0.39018 0.0
H513 H 0.85099 0.37217 0.32451 0.0
H514 H 0.85664 0.33338 0.35968 0.0
H515 H 0.93618 0.42049 0.40549 0.0
C516 C 0.94097 0.50357 0.31841 0.0
C517 C 0.93031 0.50225 0.28906 0.0
C518 C 0.90162 0.47218 0.27861 0.0
C519 C 0.8851 0.44317 0.2967 0.0
C520 C 0.89725 0.44496 0.32526 0.0
C521 C 0.92442 0.47464 0.33606 0.0
C522 C 0.93609 0.46915 0.36562 0.0
C523 C 0.97388 0.47892 0.36483 0.0
C524 C 0.92943 0.48882 0.38983 0.0
C525 C 0.91288 0.43118 0.36893 0.0
C526 C 0.88979 0.4177 0.34603 0.0
C527 C 0.86831 0.38255 0.34292 0.0
C528 C 0.87154 0.3607 0.363 0.0
C529 C 0.89653 0.37427 0.3853 0.0
C530 C 0.91643 0.40979 0.38889 0.0
H531 H 0.53832 0.48462 0.26524 0.0
H532 H 0.45962 0.45677 0.33119 0.0
H533 H 0.50335 0.48357 0.36963 0.0
H534 H 0.60134 0.47691 0.31279 0.0
H535 H 0.63688 0.51416 0.2969 0.0
H536 H 0.59966 0.48802 0.27499 0.0
H537 H 0.59379 0.54093 0.26318 0.0
H538 H 0.63102 0.56715 0.28484 0.0
H539 H 0.59161 0.56603 0.293 0.0
H540 H 0.55376 0.51867 0.39945 0.0
H541 H 0.60885 0.56344 0.41889 0.0
H542 H 0.65633 0.56963 0.33462 0.0
C543 C 0.53048 0.48357 0.28791 0.0
C544 C 0.49577 0.46859 0.29543 0.0
C545 C 0.48619 0.46831 0.32509 0.0
C546 C 0.51079 0.48313 0.34708 0.0
C547 C 0.54486 0.49824 0.33901 0.0
C548 C 0.55486 0.49883 0.31017 0.0
C549 C 0.59317 0.52041 0.30707 0.0
C550 C 0.60867 0.49856 0.29736 0.0
C551 C 0.60295 0.55039 0.28578 0.0
C552 C 0.60288 0.53263 0.3385 0.0
C553 C 0.57458 0.51899 0.35658 0.0
C554 C 0.57627 0.52897 0.38577 0.0
C555 C 0.60756 0.55435 0.39661 0.0
C556 C 0.63663 0.56925 0.37833 0.0
C557 C 0.63456 0.55765 0.3492 0.0
H558 H 0.9496 0.59972 0.84672 0.0
H559 H 0.95094 0.57041 0.93718 0.0
H560 H 0.95401 0.51991 0.92011 0.0
H561 H 0.89649 0.51142 0.81874 0.0
H562 H 0.91888 0.52175 0.78413 0.0
H563 H 0.91452 0.5539 0.80387 0.0
H564 H 0.97997 0.5933 0.80301 0.0
H565 H 0.98461 0.56125 0.78357 0.0
H566 H 0.00674 0.57797 0.81782 0.0
H567 H 0.96586 0.47801 0.89253 0.0
H568 H 0.97706 0.44331 0.85659 0.0
H569 H 0.96139 0.49705 0.7849 0.0
C570 C 0.94983 0.58218 0.86282 0.0
C571 C 0.95001 0.58853 0.89312 0.0
C572 C 0.95047 0.56545 0.91381 0.0
C573 C 0.95234 0.53691 0.90433 0.0
C574 C 0.9528 0.53162 0.87415 0.0
C575 C 0.95069 0.55318 0.85374 0.0
C576 C 0.952 0.54224 0.82264 0.0
C577 C 0.91847 0.53169 0.8064 0.0
C578 C 0.98265 0.57036 0.80579 0.0
C579 C 0.9564 0.51184 0.82867 0.0
C580 C 0.95711 0.50617 0.85847 0.0
C581 C 0.96437 0.48155 0.86914 0.0
C582 C 0.97082 0.46213 0.84873 0.0
C583 C 0.96921 0.46716 0.81823 0.0
C584 C 0.96167 0.49209 0.8082 0.0
H585 H 0.51054 0.51234 0.80822 0.0
H586 H 0.59353 0.49101 0.80218 0.0
H587 H 0.56085 0.43906 0.83213 0.0
H588 H 0.482 0.47848 0.88348 0.0
H589 H 0.43776 0.46057 0.87401 0.0
H590 H 0.46955 0.49841 0.85558 0.0
H591 H 0.44774 0.4684 0.80524 0.0
H592 H 0.41619 0.43039 0.82348 0.0
H593 H 0.44596 0.42828 0.79852 0.0
H594 H 0.51745 0.38711 0.85913 0.0
H595 H 0.46636 0.33895 0.88144 0.0
H596 H 0.41114 0.3934 0.86816 0.0
C597 C 0.52217 0.49724 0.81397 0.0
C598 C 0.55463 0.50577 0.80322 0.0
C599 C 0.56869 0.48489 0.81036 0.0
C600 C 0.55038 0.45541 0.82738 0.0
C601 C 0.51799 0.44709 0.83693 0.0
C602 C 0.50402 0.46743 0.83057 0.0
C603 C 0.46767 0.45127 0.84133 0.0
C604 C 0.46404 0.4735 0.86501 0.0
C605 C 0.44295 0.44416 0.81561 0.0
C606 C 0.46326 0.41849 0.85427 0.0
C607 C 0.49265 0.41669 0.8518 0.0
C608 C 0.49434 0.38833 0.86144 0.0
C609 C 0.46518 0.36107 0.87401 0.0
C610 C 0.43468 0.3623 0.87655 0.0
C611 C 0.43397 0.39154 0.86656 0.0
H612 H 0.53562 0.05411 0.76142 0.0
H613 H 0.45043 0.00988 0.82195 0.0
H614 H 0.48891 0.04069 0.86315 0.0
H615 H 0.58901 0.04171 0.80637 0.0
H616 H 0.62779 0.08012 0.79673 0.0
H617 H 0.59319 0.06145 0.77103 0.0
H618 H 0.59284 0.11836 0.76798 0.0
H619 H 0.6275 0.13742 0.7939 0.0
H620 H 0.58861 0.13777 0.80115 0.0
H621 H 0.5354 0.06862 0.89798 0.0
H622 H 0.5879 0.08414 0.9255 0.0
H623 H 0.64472 0.10957 0.84396 0.0
C624 C 0.52526 0.05163 0.78333 0.0
C625 C 0.49032 0.02991 0.78878 0.0
C626 C 0.47732 0.02637 0.81761 0.0
C627 C 0.49885 0.04417 0.84099 0.0
C628 C 0.53333 0.06522 0.83516 0.0
C629 C 0.54665 0.06869 0.80715 0.0
C630 C 0.58518 0.08815 0.80779 0.0
C631 C 0.59964 0.06657 0.79474 0.0
C632 C 0.59936 0.12247 0.79176 0.0
C633 C 0.59132 0.09332 0.84067 0.0
C634 C 0.56098 0.08105 0.85586 0.0
C635 C 0.55942 0.07914 0.88645 0.0
C636 C 0.5893 0.08812 0.90191 0.0
C637 C 0.62015 0.09876 0.88674 0.0
C638 C 0.62157 0.10289 0.85594 0.0
H639 H 0.59824 -0.00096 0.58801 0.0
H640 H 0.55343 0.88897 0.58437 0.0
H641 H 0.49952 0.88229 0.60352 0.0
H642 H 0.56678 0.00187 0.65436 0.0
H643 H 0.5592 0.03657 0.64657 0.0
H644 H 0.59138 0.03294 0.62658 0.0
H645 H 0.5627 0.03281 0.57725 0.0
H646 H 0.5304 0.03672 0.59712 0.0
H647 H 0.5184 0.00218 0.57148 0.0
H648 H 0.45527 0.8875 0.63147 0.0
H649 H 0.42353 0.90408 0.66535 0.0
H650 H 0.4966 0.01079 0.65034 0.0
C651 C 0.57682 0.97346 0.59033 0.0
C652 C 0.58009 0.9445 0.58462 0.0
C653 C 0.55152 0.91154 0.58842 0.0
C654 C 0.52075 0.9075 0.5992 0.0
C655 C 0.51888 0.93665 0.60569 0.0
C656 C 0.54607 0.96902 0.60109 0.0
C657 C 0.53912 0.99614 0.61318 0.0
C658 C 0.56568 0.01814 0.63656 0.0
C659 C 0.53755 0.01826 0.58826 0.0
C660 C 0.50443 0.97393 0.62672 0.0
C661 C 0.49297 0.9397 0.6217 0.0
C662 C 0.46352 0.91418 0.63489 0.0
C663 C 0.44578 0.92384 0.6542 0.0
C664 C 0.45754 0.9587 0.66011 0.0
C665 C 0.48663 0.98402 0.64551 0.0
H666 H 0.98711 0.50112 0.68487 0.0
H667 H 0.08977 0.53093 0.71273 0.0
H668 H 0.11212 0.58206 0.68073 0.0
H669 H 0.00611 0.52717 0.60985 0.0
H670 H 0.97584 0.54188 0.60806 0.0
H671 H 0.96861 0.50771 0.63266 0.0
H672 H 0.96382 0.54163 0.6767 0.0
H673 H 0.97079 0.57577 0.65222 0.0
H674 H -0.00205 0.58435 0.68375 0.0
H675 H 0.12247 0.63019 0.64518 0.0
H676 H 0.11961 0.67229 0.61226 0.0
H677 H 0.00963 0.60906 0.60931 0.0
C678 C 0.01436 0.51819 0.68426 0.0
C679 C 0.03674 0.51194 0.70117 0.0
C680 C 0.07216 0.53528 0.69995 0.0
C681 C 0.08506 0.56424 0.68176 0.0
C682 C 0.06212 0.56936 0.66518 0.0
C683 C 0.02751 0.547 0.66652 0.0
C684 C 0.00783 0.55839 0.64748 0.0
C685 C 0.98847 0.53223 0.62307 0.0
C686 C 0.98369 0.56546 0.66616 0.0
C687 C 0.03674 0.59084 0.63512 0.0
C688 C 0.06793 0.59679 0.64532 0.0
C689 C 0.09817 0.62571 0.63703 0.0
C690 C 0.0963 0.64937 0.61825 0.0
C691 C 0.06438 0.64395 0.60826 0.0
C692 C 0.03442 0.61404 0.61659 0.0
H693 H 0.40065 0.40668 0.61446 0.0
H694 H 0.35233 0.4688 0.61081 0.0
H695 H 0.40265 0.51603 0.63476 0.0
H696 H 0.4381 0.43408 0.68486 0.0
H697 H 0.47637 0.43342 0.67545 0.0
H698 H 0.43709 0.40519 0.65704 0.0
H699 H 0.46597 0.42925 0.60664 0.0
H700 H 0.50532 0.45779 0.62493 0.0
H701 H 0.48642 0.4745 0.59992 0.0
H702 H 0.457 0.55538 0.66093 0.0
H703 H 0.51088 0.58362 0.68868 0.0
H704 H 0.5239 0.49598 0.67412 0.0
C705 C 0.40055 0.4302 0.61857 0.0
C706 C 0.37247 0.43399 0.61071 0.0
C707 C 0.37351 0.46526 0.61659 0.0
C708 C 0.40202 0.49227 0.63009 0.0
C709 C 0.42926 0.48764 0.6374 0.0
C710 C 0.42874 0.45738 0.63188 0.0
C711 C 0.46081 0.45849 0.64269 0.0
C712 C 0.45259 0.43119 0.66642 0.0
C713 C 0.48081 0.4548 0.61701 0.0
C714 C 0.47936 0.49404 0.65552 0.0
C715 C 0.46079 0.51047 0.65214 0.0
C716 C 0.47191 0.5429 0.6635 0.0
C717 C 0.50251 0.55869 0.67924 0.0
C718 C 0.52164 0.54204 0.6834 0.0
C719 C 0.51015 0.50957 0.67086 0.0
H720 H 0.70814 0.75435 0.46847 0.0
H721 H 0.80232 0.8202 0.42219 0.0
H722 H 0.81204 0.86811 0.45496 0.0
H723 H 0.68089 0.81289 0.476 0.0
H724 H 0.66256 0.79833 0.51195 0.0
H725 H 0.66558 0.76929 0.48686 0.0
H726 H 0.69903 0.75603 0.52596 0.0
H727 H 0.6963 0.78529 0.55119 0.0
H728 H 0.7372 0.79048 0.5417 0.0
H729 H 0.80847 0.90991 0.49139 0.0
H730 H 0.79028 0.94103 0.52531 0.0
H731 H 0.69862 0.84615 0.54565 0.0
C732 C 0.73099 0.77873 0.46516 0.0
C733 C 0.75435 0.78357 0.4426 0.0
C734 C 0.78403 0.81592 0.43933 0.0
C735 C 0.78982 0.84319 0.45792 0.0
C736 C 0.76592 0.83746 0.47979 0.0
C737 C 0.73716 0.80587 0.48341 0.0
C738 C 0.71411 0.80622 0.50712 0.0
C739 C 0.67872 0.79611 0.49472 0.0
C740 C 0.71153 0.78314 0.53302 0.0
C741 C 0.7336 0.84334 0.51561 0.0
C742 C 0.76378 0.86104 0.50019 0.0
C743 C 0.78506 0.89618 0.50377 0.0
C744 C 0.77468 0.91363 0.52305 0.0
C745 C 0.7431 0.89581 0.53783 0.0
C746 C 0.72289 0.86026 0.5345 0.0
H747 H 0.21279 0.98265 0.44395 0.0
H748 H 0.21886 0.93004 0.36675 0.0
H749 H 0.17466 0.87513 0.38738 0.0
H750 H 0.21364 0.92786 0.4917 0.0
H751 H 0.18527 0.929 0.51885 0.0
H752 H 0.20868 0.96486 0.49493 0.0
H753 H 0.15268 0.96126 0.47715 0.0
H754 H 0.129 0.92572 0.50161 0.0
H755 H 0.11886 0.92152 0.46296 0.0
H756 H 0.14078 0.82612 0.42031 0.0
H757 H 0.11657 0.78628 0.46206 0.0
H758 H 0.13429 0.87062 0.51907 0.0
C759 C 0.20309 0.95976 0.43072 0.0
C760 C 0.21814 0.96035 0.40348 0.0
C761 C 0.20671 0.92988 0.38732 0.0
C762 C 0.18176 0.89867 0.39893 0.0
C763 C 0.16883 0.8985 0.42678 0.0
C764 C 0.17875 0.92832 0.44236 0.0
C765 C 0.16564 0.92084 0.47368 0.0
C766 C 0.19506 0.93657 0.49607 0.0
C767 C 0.14001 0.93305 0.47916 0.0
C768 C 0.14829 0.88233 0.47365 0.0
C769 C 0.14989 0.8699 0.4463 0.0
C770 C 0.13859 0.83543 0.44166 0.0
C771 C 0.12519 0.81305 0.46558 0.0
C772 C 0.12346 0.8253 0.49384 0.0
C773 C 0.13483 0.86036 0.49769 0.0
H774 H 0.02178 0.26164 0.46118 0.0
H775 H 0.06779 0.34149 0.39536 0.0
H776 H 0.12478 0.35461 0.4118 0.0
H777 H 0.07764 0.30681 0.51659 0.0
H778 H 0.07953 0.27141 0.53273 0.0
H779 H 0.04235 0.26402 0.51264 0.0
H780 H 0.04841 0.22158 0.47836 0.0
H781 H 0.08556 0.22863 0.49852 0.0
H782 H 0.08796 0.2351 0.45928 0.0
H783 H 0.17622 0.36436 0.43934 0.0
H784 H 0.21869 0.3694 0.47589 0.0
H785 H 0.13938 0.28339 0.52392 0.0
C786 C 0.04385 0.28109 0.44962 0.0
C787 C 0.04042 0.30041 0.42691 0.0
C788 C 0.06989 0.32637 0.41283 0.0
C789 C 0.10237 0.33391 0.4219 0.0
C790 C 0.10496 0.3152 0.44502 0.0
C791 C 0.07652 0.28916 0.45859 0.0
C792 C 0.08634 0.27538 0.48484 0.0
C793 C 0.07054 0.27969 0.51337 0.0
C794 C 0.07649 0.23795 0.47994 0.0
C795 C 0.12456 0.2985 0.48445 0.0
C796 C 0.13484 0.321 0.4611 0.0
C797 C 0.16862 0.34649 0.45744 0.0
C798 C 0.19253 0.34926 0.47839 0.0
C799 C 0.18245 0.32673 0.50272 0.0
C800 C 0.14807 0.30072 0.50537 0.0
H801 H 0.07936 0.35189 0.71699 0.0
H802 H 0.12768 0.46229 0.71328 0.0
H803 H 0.17539 0.46446 0.68508 0.0
H804 H 0.15772 0.34678 0.72252 0.0
H805 H 0.14045 0.30927 0.69965 0.0
H806 H 0.11261 0.31709 0.72254 0.0
H807 H 0.07671 0.31294 0.67673 0.0
H808 H 0.10449 0.30539 0.65369 0.0
H809 H 0.09725 0.34024 0.64557 0.0
H810 H 0.21431 0.45364 0.65261 0.0
H811 H 0.24201 0.43117 0.61994 0.0
H812 H 0.16741 0.32789 0.64563 0.0
C813 C 0.10022 0.37666 0.71076 0.0
C814 C 0.09978 0.40695 0.71734 0.0
C815 C 0.12757 0.43877 0.70864 0.0
C816 C 0.15475 0.44023 0.69261 0.0
C817 C 0.15381 0.40971 0.68582 0.0
C818 C 0.12738 0.37856 0.6949 0.0
C819 C 0.13101 0.34927 0.68322 0.0
C820 C 0.13574 0.32944 0.7085 0.0
C821 C 0.10057 0.32559 0.66364 0.0
C822 C 0.16319 0.36869 0.66542 0.0
C823 C 0.17617 0.40352 0.66733 0.0
C824 C 0.20465 0.42645 0.65129 0.0
C825 C 0.2201 0.4134 0.6327 0.0
C826 C 0.20695 0.37772 0.63025 0.0
C827 C 0.17837 0.35527 0.6472 0.0
H828 H 0.67738 0.74005 0.71082 0.0
H829 H 0.56699 0.68165 0.71008 0.0
H830 H 0.56565 0.73053 0.68702 0.0
H831 H 0.68547 0.82264 0.72676 0.0
H832 H 0.72216 0.84514 0.70333 0.0
H833 H 0.71409 0.80632 0.72131 0.0
H834 H 0.7154 0.78024 0.67084 0.0
H835 H 0.72355 0.81895 0.65275 0.0
H836 H 0.68766 0.77879 0.64181 0.0
H837 H 0.57701 0.7844 0.66018 0.0
H838 H 0.59991 0.83878 0.63292 0.0
H839 H 0.70263 0.86173 0.6533 0.0
C840 C 0.65282 0.73747 0.70606 0.0
C841 C 0.62226 0.70693 0.71222 0.0
C842 C 0.59074 0.70482 0.70565 0.0
C843 C 0.58974 0.73245 0.69257 0.0
C844 C 0.62044 0.76205 0.68656 0.0
C845 C 0.65136 0.76474 0.69329 0.0
C846 C 0.68081 0.79872 0.68374 0.0
C847 C 0.70187 0.81942 0.71038 0.0
C848 C 0.70315 0.79387 0.66093 0.0
C849 C 0.66171 0.81464 0.67007 0.0
C850 C 0.62691 0.79319 0.67189 0.0
C851 C 0.60419 0.80159 0.65901 0.0
C852 C 0.61743 0.83249 0.64355 0.0
C853 C 0.65304 0.85466 0.64127 0.0
C854 C 0.67529 0.84572 0.65518 0.0
H855 H 0.20523 0.81616 0.59166 0.0
H856 H 0.12595 0.77081 0.6577 0.0
H857 H 0.16907 0.7827 0.69588 0.0
H858 H 0.2668 0.79304 0.6257 0.0
H859 H 0.30287 0.83387 0.61646 0.0
H860 H 0.26583 0.81518 0.59308 0.0
H861 H 0.26095 0.86966 0.59803 0.0
H862 H 0.29801 0.8886 0.62106 0.0
H863 H 0.25878 0.88485 0.63416 0.0
H864 H 0.21908 0.80648 0.72738 0.0
H865 H 0.27305 0.84746 0.75122 0.0
H866 H 0.32138 0.87893 0.66599 0.0
C867 C 0.19716 0.80812 0.6141 0.0
C868 C 0.16257 0.79248 0.62198 0.0
C869 C 0.15254 0.78297 0.65149 0.0
C870 C 0.17675 0.78915 0.67317 0.0
C871 C 0.21084 0.80505 0.66493 0.0
C872 C 0.22117 0.81485 0.63618 0.0
C873 C 0.25949 0.83667 0.63413 0.0
C874 C 0.27463 0.81859 0.61628 0.0
C875 C 0.2699 0.87202 0.6211 0.0
C876 C 0.26887 0.83892 0.66636 0.0
C877 C 0.24044 0.81954 0.68359 0.0
C878 C 0.24172 0.82097 0.71421 0.0
C879 C 0.2724 0.84414 0.72758 0.0
C880 C 0.30119 0.8653 0.7103 0.0
C881 C 0.29991 0.86172 0.67949 0.0
H882 H 0.65361 0.92778 0.21349 0.0
H883 H 0.54381 0.88193 0.21177 0.0
H884 H 0.5401 0.83747 0.17751 0.0
H885 H 0.66497 0.91719 0.1392 0.0
H886 H 0.69876 0.90787 0.14516 0.0
H887 H 0.6921 0.93409 0.17098 0.0
H888 H 0.68631 0.89328 0.21355 0.0
H889 H 0.69338 0.86711 0.18789 0.0
H890 H 0.65575 0.84844 0.21054 0.0
H891 H 0.54996 0.80043 0.14003 0.0
H892 H 0.57199 0.77264 0.10642 0.0
H893 H 0.67484 0.84446 0.13472 0.0
C894 C 0.6287 0.90821 0.20619 0.0
C895 C 0.59902 0.90828 0.21515 0.0
C896 C 0.56687 0.88212 0.20526 0.0
C897 C 0.56455 0.85692 0.18573 0.0
C898 C 0.59457 0.85817 0.17674 0.0
C899 C 0.62595 0.88297 0.18707 0.0
C900 C 0.6546 0.87954 0.17397 0.0
C901 C 0.67902 0.91157 0.15628 0.0
C902 C 0.67362 0.87161 0.19791 0.0
C903 C 0.63464 0.84931 0.15414 0.0
C904 C 0.60007 0.8371 0.15588 0.0
C905 C 0.57699 0.80965 0.13872 0.0
C906 C 0.58971 0.79415 0.11961 0.0
C907 C 0.62513 0.80625 0.11797 0.0
C908 C 0.6476 0.83428 0.13547 0.0
H909 H 0.11189 0.67646 0.19691 0.0
H910 H 0.11519 0.73048 0.27651 0.0
H911 H 0.16304 0.78338 0.2563 0.0
H912 H 0.20647 0.72885 0.1766 0.0
H913 H 0.19579 0.72722 0.13822 0.0
H914 H 0.16939 0.69195 0.1621 0.0
H915 H 0.11703 0.69666 0.14641 0.0
H916 H 0.14315 0.73239 0.12315 0.0
H917 H 0.11763 0.73646 0.1515 0.0
H918 H 0.2004 0.83171 0.22423 0.0
H919 H 0.22755 0.87217 0.18332 0.0
H920 H 0.19865 0.78738 0.12334 0.0
C921 C 0.12421 0.699 0.21065 0.0
C922 C 0.11087 0.6995 0.2385 0.0
C923 C 0.12591 0.72971 0.25541 0.0
C924 C 0.15297 0.75979 0.24406 0.0
C925 C 0.16434 0.75912 0.21572 0.0
C926 C 0.15074 0.7294 0.19931 0.0
C927 C 0.16329 0.73662 0.16781 0.0
C928 C 0.18504 0.72019 0.16078 0.0
C929 C 0.13351 0.72485 0.14597 0.0
C930 C 0.18476 0.77509 0.16878 0.0
C931 C 0.18548 0.7875 0.19671 0.0
C932 C 0.20078 0.82232 0.20242 0.0
C933 C 0.21583 0.84509 0.17898 0.0
C934 C 0.21531 0.83292 0.15017 0.0
C935 C 0.19994 0.79746 0.1452 0.0
H936 H 0.14031 0.31526 0.15644 0.0
H937 H 0.16679 0.41509 0.12227 0.0
H938 H 0.2182 0.44133 0.15331 0.0
H939 H 0.17427 0.34316 0.23216 0.0
H940 H 0.18987 0.31356 0.23398 0.0
H941 H 0.1525 0.30324 0.21259 0.0
H942 H 0.18072 0.29391 0.16658 0.0
H943 H 0.21807 0.30422 0.18777 0.0
H944 H 0.22172 0.32765 0.15461 0.0
H945 H 0.26961 0.4559 0.18344 0.0
H946 H 0.31802 0.45748 0.20954 0.0
H947 H 0.25815 0.34804 0.22358 0.0
C948 C 0.15644 0.34273 0.15608 0.0
C949 C 0.14952 0.36315 0.13707 0.0
C950 C 0.17167 0.39894 0.13667 0.0
C951 C 0.2008 0.41412 0.15435 0.0
C952 C 0.20736 0.39317 0.17233 0.0
C953 C 0.18578 0.35826 0.17338 0.0
C954 C 0.20037 0.34112 0.19223 0.0
C955 C 0.17791 0.32428 0.21935 0.0
C956 C 0.20553 0.31522 0.17421 0.0
C957 C 0.23398 0.37171 0.2008 0.0
C958 C 0.23731 0.40156 0.18951 0.0
C959 C 0.26713 0.43278 0.19281 0.0
C960 C 0.29451 0.43339 0.20762 0.0
C961 C 0.29192 0.4029 0.21869 0.0
C962 C 0.26092 0.37187 0.21568 0.0
H963 H 0.14454 0.32576 -0.00204 0.0
H964 H 0.08384 0.22768 0.04075 0.0
H965 H 0.1118 0.2035 0.01049 0.0
H966 H 0.14759 0.29261 0.92439 0.0
H967 H 0.19104 0.32562 0.91851 0.0
H968 H 0.16324 0.33401 0.94091 0.0
H969 H 0.2063 0.35248 0.98404 0.0
H970 H 0.23414 0.34418 0.96179 0.0
H971 H 0.21994 0.32357 -0.00299 0.0
H972 H 0.15004 0.1914 0.97881 0.0
H973 H 0.19689 0.19323 0.94955 0.0
H974 H 0.23219 0.29926 0.92804 0.0
C975 C 0.13659 0.29902 0.00057 0.0
C976 C 0.11194 0.27863 0.02167 0.0
C977 C 0.10273 0.24386 0.02474 0.0
C978 C 0.1183 0.22981 0.00754 0.0
C979 C 0.14295 0.25079 0.9873 0.0
C980 C 0.152 0.28464 0.98373 0.0
C981 C 0.18116 0.30251 0.96231 0.0
C982 C 0.17008 0.31438 0.9349 0.0
C983 C 0.21221 0.33243 0.97719 0.0
C984 C 0.18771 0.27369 0.95504 0.0
C985 C 0.16514 0.24391 0.96929 0.0
C986 C 0.1676 0.21446 0.9672 0.0
C987 C 0.19426 0.21572 0.95053 0.0
C988 C 0.21823 0.24636 0.93648 0.0
C989 C 0.21428 0.27537 0.93838 0.0
H990 H 0.73451 0.8749 0.02844 0.0
H991 H 0.66637 0.79636 0.96778 0.0
H992 H 0.67179 0.84059 0.93313 0.0
H993 H 0.7007 0.9254 0.02142 0.0
H994 H 0.7394 0.96606 0.0231 0.0
H995 H 0.73752 0.92935 0.04015 0.0
H996 H 0.78936 0.93777 0.00961 0.0
H997 H 0.7919 0.97506 -0.00723 0.0
H998 H 0.78862 0.94085 0.97011 0.0
H999 H 0.67355 0.89078 0.91102 0.0
H1000 H 0.6763 0.94546 0.89995 0.0
H1001 H 0.74493 0.99293 0.97337 0.0
C1002 C 0.722 0.86708 0.00729 0.0
C1003 C 0.70012 0.83226 0.0007 0.0
C1004 C 0.68327 0.82292 0.97321 0.0
C1005 C 0.6863 0.84786 0.95335 0.0
C1006 C 0.70654 0.88197 0.96118 0.0
C1007 C 0.72466 0.89173 0.98723 0.0
C1008 C 0.7411 0.9299 0.99195 0.0
C1009 C 0.72893 0.93812 0.02086 0.0
C1010 C 0.78006 0.9469 0.99104 0.0
C1011 C 0.72773 0.93968 0.96538 0.0
C1012 C 0.70817 0.91163 0.94778 0.0
C1013 C 0.68963 0.91315 0.92404 0.0
C1014 C 0.69104 0.94413 0.91812 0.0
C1015 C 0.71104 0.97313 0.93573 0.0
C1016 C 0.73011 0.97113 0.95929 0.0
H1017 H 0.13904 0.85239 0.05106 0.0
H1018 H 0.22029 0.88972 0.98663 0.0
H1019 H 0.17942 0.88088 0.94719 0.0
H1020 H 0.08153 0.78485 0.0082 0.0
H1021 H 0.04436 0.78605 0.02041 0.0
H1022 H 0.08091 0.80183 0.04393 0.0
H1023 H 0.08243 0.85981 0.04748 0.0
H1024 H 0.04621 0.84424 0.0233 0.0
H1025 H 0.08503 0.88285 0.01431 0.0
H1026 H 0.13047 0.86079 0.9145 0.0
H1027 H 0.07573 0.82318 0.89006 0.0
H1028 H 0.02485 0.79815 0.97446 0.0
C1029 C 0.1481 0.85929 0.02868 0.0
C1030 C 0.1826 0.87184 0.02168 0.0
C1031 C 0.19378 0.8799 0.99222 0.0
C1032 C 0.17088 0.87545 0.9698 0.0
C1033 C 0.13688 0.86274 0.97721 0.0
C1034 C 0.12535 0.85427 0.00586 0.0
C1035 C 0.08688 0.83587 0.00716 0.0
C1036 C 0.07261 0.80004 0.0207 0.0
C1037 C 0.07442 0.85697 0.02406 0.0
C1038 C 0.07863 0.83413 0.97469 0.0
C1039 C 0.10793 0.8507 0.95789 0.0
C1040 C 0.10726 0.8486 0.92729 0.0
C1041 C 0.07612 0.82742 0.91355 0.0
C1042 C 0.04629 0.80892 0.93045 0.0
C1043 C 0.04722 0.81352 0.96116 0.0
H1044 H 0.31652 0.14778 0.84912 0.0
H1045 H 0.41929 0.23385 0.85462 0.0
H1046 H 0.43957 0.20336 0.82271 0.0
H1047 H 0.33993 0.08385 0.85342 0.0
H1048 H 0.30724 0.05517 0.8285 0.0
H1049 H 0.30074 0.08466 0.85028 0.0
H1050 H 0.28885 0.10892 0.8029 0.0
H1051 H 0.29528 0.07946 0.78097 0.0
H1052 H 0.31986 0.12458 0.77366 0.0
H1053 H 0.44855 0.1625 0.79089 0.0
H1054 H 0.44578 0.1141 0.76326 0.0
H1055 H 0.33714 0.05505 0.78016 0.0
C1056 C 0.34323 0.16047 0.84334 0.0
C1057 C 0.36629 0.1933 0.85417 0.0
C1058 C 0.40116 0.20869 0.84653 0.0
C1059 C 0.4129 0.19163 0.82838 0.0
C1060 C 0.38947 0.15915 0.81826 0.0
C1061 C 0.3554 0.14372 0.82559 0.0
C1062 C 0.33562 0.10809 0.81308 0.0
C1063 C 0.31998 0.08138 0.83779 0.0
C1064 C 0.30829 0.10511 0.79136 0.0
C1065 C 0.36385 0.10588 0.79746 0.0
C1066 C 0.39471 0.13557 0.80054 0.0
C1067 C 0.42449 0.13915 0.78826 0.0
C1068 C 0.42264 0.11154 0.77258 0.0
C1069 C 0.39125 0.08072 0.76949 0.0
C1070 C 0.36157 0.07817 0.78204 0.0
H1071 H 0.79444 0.21356 0.87423 0.0
H1072 H 0.76745 0.13017 0.8131 0.0
H1073 H 0.795 0.17148 0.77283 0.0
H1074 H 0.78665 0.27261 0.82201 0.0
H1075 H 0.82332 0.30946 0.83707 0.0
H1076 H 0.79714 0.27348 0.86036 0.0
H1077 H 0.85002 0.269 0.8751 0.0
H1078 H 0.87625 0.30507 0.85215 0.0
H1079 H 0.87581 0.26541 0.8467 0.0
H1080 H 0.83088 0.2206 0.741 0.0
H1081 H 0.87597 0.27478 0.72014 0.0
H1082 H 0.8796 0.32697 0.80118 0.0
C1083 C 0.79371 0.20403 0.85223 0.0
C1084 C 0.77872 0.16872 0.84671 0.0
C1085 C 0.77892 0.15716 0.81781 0.0
C1086 C 0.79418 0.18039 0.79474 0.0
C1087 C 0.80909 0.21505 0.80096 0.0
C1088 C 0.80914 0.22691 0.82899 0.0
C1089 C 0.83026 0.26543 0.83039 0.0
C1090 C 0.808 0.28117 0.8379 0.0
C1091 C 0.85983 0.27688 0.85237 0.0
C1092 C 0.84296 0.27327 0.79897 0.0
C1093 C 0.82995 0.24383 0.78228 0.0
C1094 C 0.84067 0.24394 0.75357 0.0
C1095 C 0.86624 0.27475 0.74192 0.0
C1096 C 0.88063 0.30491 0.75896 0.0
C1097 C 0.86809 0.3044 0.78744 0.0
H1098 H 0.8635 0.67739 0.83851 0.0
H1099 H 0.81824 0.59546 0.90259 0.0
H1100 H 0.76915 0.56322 0.86932 0.0
H1101 H 0.78947 0.67598 0.81779 0.0
H1102 H 0.80137 0.68544 0.77965 0.0
H1103 H 0.83372 0.6995 0.80742 0.0
H1104 H 0.86053 0.66813 0.78023 0.0
H1105 H 0.82773 0.65344 0.75261 0.0
H1106 H 0.83485 0.62318 0.77261 0.0
H1107 H 0.72227 0.54319 0.83092 0.0
H1108 H 0.68125 0.53938 0.79312 0.0
H1109 H 0.75956 0.63353 0.75411 0.0
C1110 C 0.8434 0.65259 0.84561 0.0
C1111 C 0.84456 0.63905 0.87324 0.0
C1112 C 0.81783 0.60636 0.88149 0.0
C1113 C 0.78999 0.58778 0.86267 0.0
C1114 C 0.78969 0.60202 0.83553 0.0
C1115 C 0.81584 0.63369 0.82708 0.0
C1116 C 0.80874 0.64467 0.79787 0.0
C1117 C 0.80828 0.67836 0.80089 0.0
C1118 C 0.8345 0.64751 0.77445 0.0
C1119 C 0.77376 0.61493 0.7917 0.0
C1120 C 0.76328 0.59022 0.81332 0.0
C1121 C 0.73046 0.56203 0.81356 0.0
C1122 C 0.70738 0.55994 0.79191 0.0
C1123 C 0.71733 0.58612 0.77068 0.0
C1124 C 0.75134 0.61298 0.76992 0.0
H1125 H 0.88587 0.76035 0.96416 0.0
H1126 H 0.89875 0.6934 0.02459 0.0
H1127 H 0.86961 0.70733 0.06337 0.0
H1128 H 0.89135 0.82457 0.0207 0.0
H1129 H 0.85879 0.82908 0.00202 0.0
H1130 H 0.88743 0.82028 0.98126 0.0
H1131 H 0.83595 0.76703 0.95837 0.0
H1132 H 0.80735 0.77573 0.9789 0.0
H1133 H 0.80475 0.73481 0.98231 0.0
H1134 H 0.83023 0.71893 0.0916 0.0
H1135 H 0.78191 0.72596 0.10681 0.0
H1136 H 0.79479 0.78632 0.02888 0.0
C1137 C 0.88358 0.74951 0.98584 0.0
C1138 C 0.89462 0.72587 0.99142 0.0
C1139 C 0.8904 0.71152 0.01984 0.0
C1140 C 0.87419 0.71956 0.04208 0.0
C1141 C 0.86261 0.74214 0.03557 0.0
C1142 C 0.86724 0.75706 0.00817 0.0
C1143 C 0.84813 0.77642 0.00543 0.0
C1144 C 0.87291 0.81488 0.00217 0.0
C1145 C 0.82254 0.76265 0.97976 0.0
C1146 C 0.83033 0.76831 0.03492 0.0
C1147 C 0.83972 0.74921 0.05225 0.0
C1148 C 0.82339 0.7347 0.07869 0.0
C1149 C 0.79596 0.73873 0.08711 0.0
C1150 C 0.78525 0.75712 0.06916 0.0
C1151 C 0.80341 0.77319 0.04338 0.0
H1152 H 0.35467 0.1718 0.97715 0.0
H1153 H 0.2518 0.15489 0.98001 0.0
H1154 H 0.23411 0.10393 0.0109 0.0
H1155 H 0.3315 0.08724 0.96772 0.0
H1156 H 0.36491 0.08822 0.98986 0.0
H1157 H 0.37123 0.12651 0.97218 0.0
H1158 H 0.38533 0.15777 0.0224 0.0
H1159 H 0.37954 0.11966 0.04024 0.0
H1160 H 0.35569 0.13946 0.05248 0.0
H1161 H 0.22604 0.05182 0.0363 0.0
H1162 H 0.22838 0.00245 0.05625 0.0
H1163 H 0.33631 0.05234 0.03587 0.0
C1164 C 0.32873 0.158 0.98515 0.0
C1165 C 0.30464 0.16735 0.97652 0.0
C1166 C 0.27063 0.14813 0.98655 0.0
C1167 C 0.26037 0.11922 0.00412 0.0
C1168 C 0.28443 0.10992 0.01136 0.0
C1169 C 0.31796 0.12881 0.00239 0.0
C1170 C 0.33791 0.11147 0.01088 0.0
C1171 C 0.35221 0.10286 0.98353 0.0
C1172 C 0.36629 0.1334 0.03281 0.0
C1173 C 0.31014 0.07955 0.02537 0.0
C1174 C 0.27961 0.07934 0.02566 0.0
C1175 C 0.24991 0.05185 0.0366 0.0
C1176 C 0.25149 0.02385 0.04774 0.0
C1177 C 0.28255 0.02347 0.0477 0.0
C1178 C 0.31221 0.05184 0.03639 0.0
H1179 H 0.85043 0.14864 0.94543 0.0
H1180 H 0.77203 0.12023 0.01169 0.0
H1181 H 0.81502 0.1357 0.0508 0.0
H1182 H 0.90628 0.12443 0.98675 0.0
H1183 H 0.94453 0.16142 0.97398 0.0
H1184 H 0.90708 0.14227 0.9511 0.0
H1185 H 0.90856 0.20027 0.94753 0.0
H1186 H 0.94628 0.21953 0.96975 0.0
H1187 H 0.90964 0.22237 0.98087 0.0
H1188 H 0.86591 0.16035 0.08205 0.0
H1189 H 0.92209 0.20035 0.10316 0.0
H1190 H 0.96835 0.21407 0.0173 0.0
C1191 C 0.84238 0.14511 0.96821 0.0
C1192 C 0.80811 0.13312 0.97574 0.0
C1193 C 0.79833 0.12955 0.00564 0.0
C1194 C 0.82243 0.13778 0.02793 0.0
C1195 C 0.85615 0.14969 0.01987 0.0
C1196 C 0.86626 0.15387 0.99074 0.0
C1197 C 0.90461 0.17202 0.98802 0.0
C1198 C 0.9163 0.14862 0.97414 0.0
C1199 C 0.91804 0.20551 0.97054 0.0
C1200 C 0.91451 0.1786 0.02016 0.0
C1201 C 0.8861 0.16457 0.03818 0.0
C1202 C 0.88841 0.17068 0.06836 0.0
C1203 C 0.92034 0.19318 0.0802 0.0
C1204 C 0.94927 0.20908 0.06186 0.0
C1205 C 0.94665 0.20076 0.03179 0.0
H1206 H 0.31746 0.14017 0.48751 0.0
H1207 H 0.23953 0.10788 0.42018 0.0
H1208 H 0.21303 0.13587 0.44743 0.0
H1209 H 0.26298 0.13286 0.55092 0.0
H1210 H 0.29683 0.17036 0.56811 0.0
H1211 H 0.3066 0.1437 0.54542 0.0
H1212 H 0.34625 0.19601 0.51321 0.0
H1213 H 0.3367 0.22275 0.53577 0.0
H1214 H 0.3296 0.22086 0.49664 0.0
H1215 H 0.19891 0.17301 0.47947 0.0
H1216 H 0.20029 0.21761 0.51202 0.0
H1217 H 0.28749 0.22452 0.55761 0.0
C1218 C 0.29446 0.13836 0.47866 0.0
C1219 C 0.28062 0.12179 0.45169 0.0
C1220 C 0.25063 0.12037 0.44085 0.0
C1221 C 0.23527 0.13605 0.45624 0.0
C1222 C 0.25002 0.15271 0.48254 0.0
C1223 C 0.2789 0.15379 0.49366 0.0
C1224 C 0.2917 0.17579 0.52083 0.0
C1225 C 0.28937 0.15439 0.54792 0.0
C1226 C 0.3282 0.20561 0.51632 0.0
C1227 C 0.26632 0.18806 0.52265 0.0
C1228 C 0.24204 0.17407 0.50077 0.0
C1229 C 0.21746 0.1837 0.49699 0.0
C1230 C 0.21837 0.20896 0.51559 0.0
C1231 C 0.244 0.22448 0.53728 0.0
C1232 C 0.26753 0.21306 0.54126 0.0
H1233 H 0.89282 0.17155 0.47521 0.0
H1234 H 0.88916 0.24546 0.53368 0.0
H1235 H 0.86828 0.20267 0.57368 0.0
H1236 H 0.81716 0.10599 0.4945 0.0
H1237 H 0.82847 0.07317 0.49138 0.0
H1238 H 0.85114 0.11163 0.47036 0.0
H1239 H 0.908 0.12191 0.49292 0.0
H1240 H 0.88527 0.08335 0.51427 0.0
H1241 H 0.91292 0.12327 0.53232 0.0
H1242 H 0.83792 0.1498 0.60352 0.0
H1243 H 0.7966 0.0911 0.61902 0.0
H1244 H 0.81902 0.0512 0.54105 0.0
C1245 C 0.88883 0.17926 0.49671 0.0
C1246 C 0.89288 0.21198 0.50139 0.0
C1247 C 0.88636 0.2206 0.52962 0.0
C1248 C 0.87479 0.19653 0.55252 0.0
C1249 C 0.87003 0.16408 0.54683 0.0
C1250 C 0.87689 0.15548 0.51953 0.0
C1251 C 0.86444 0.11765 0.51732 0.0
C1252 C 0.83878 0.10118 0.49192 0.0
C1253 C 0.89445 0.11118 0.51402 0.0
C1254 C 0.84756 0.10581 0.54702 0.0
C1255 C 0.85205 0.13314 0.56411 0.0
C1256 C 0.83513 0.12834 0.5908 0.0
C1257 C 0.81186 0.09496 0.59952 0.0
C1258 C 0.80571 0.06692 0.58159 0.0
C1259 C 0.82466 0.07228 0.55567 0.0
H1260 H 0.93302 0.71183 0.54852 0.0
H1261 H 0.00949 0.81275 0.51891 0.0
H1262 H 0.96996 0.81062 0.48049 0.0
H1263 H 0.90775 0.67753 0.4794 0.0
H1264 H 0.86345 0.65081 0.48854 0.0
H1265 H 0.89536 0.66236 0.51653 0.0
H1266 H 0.866 0.68767 0.5487 0.0
H1267 H 0.83354 0.6755 0.52105 0.0
H1268 H 0.85731 0.7192 0.53318 0.0
H1269 H 0.9241 0.79456 0.44219 0.0
H1270 H 0.87415 0.76772 0.40935 0.0
H1271 H 0.83002 0.67657 0.46374 0.0
C1272 C 0.94131 0.734 0.53458 0.0
C1273 C 0.97436 0.76251 0.53681 0.0
C1274 C 0.98418 0.79072 0.51777 0.0
C1275 C 0.96197 0.78968 0.4958 0.0
C1276 C 0.9302 0.76034 0.49334 0.0
C1277 C 0.91979 0.73322 0.51248 0.0
C1278 C 0.88562 0.70356 0.50399 0.0
C1279 C 0.88823 0.6717 0.49668 0.0
C1280 C 0.85905 0.69606 0.52816 0.0
C1281 C 0.87849 0.71802 0.47682 0.0
C1282 C 0.90434 0.75083 0.47105 0.0
C1283 C 0.90355 0.769 0.44666 0.0
C1284 C 0.87516 0.75345 0.42807 0.0
C1285 C 0.84816 0.71999 0.43395 0.0
C1286 C 0.85022 0.70208 0.4585 0.0
H1287 H 0.86756 0.576 0.26341 0.0
H1288 H 0.90759 0.65922 0.20091 0.0
H1289 H 0.86408 0.67368 0.21606 0.0
H1290 H 0.77412 0.556 0.2621 0.0
H1291 H 0.77075 0.54851 0.30122 0.0
H1292 H 0.79735 0.53794 0.27929 0.0
H1293 H 0.84844 0.57551 0.31319 0.0
H1294 H 0.82235 0.58658 0.33489 0.0
H1295 H 0.86091 0.61974 0.31844 0.0
H1296 H 0.82644 0.68742 0.24522 0.0
H1297 H 0.7975 0.69901 0.28578 0.0
H1298 H 0.78246 0.60772 0.33054 0.0
C1299 C 0.86573 0.59594 0.25183 0.0
C1300 C 0.89019 0.61605 0.2306 0.0
C1301 C 0.8885 0.6432 0.21687 0.0
C1302 C 0.86386 0.65153 0.2253 0.0
C1303 C 0.84116 0.63248 0.24757 0.0
C1304 C 0.84159 0.60494 0.26046 0.0
C1305 C 0.81878 0.59257 0.2873 0.0
C1306 C 0.78844 0.55662 0.28216 0.0
C1307 C 0.83883 0.59371 0.31507 0.0
C1308 C 0.80739 0.61881 0.2886 0.0
C1309 C 0.81976 0.64103 0.26507 0.0
C1310 C 0.81584 0.66966 0.26336 0.0
C1311 C 0.79951 0.67617 0.28661 0.0
C1312 C 0.78768 0.65433 0.31141 0.0
C1313 C 0.7908 0.62475 0.31179 0.0
H1314 H 0.36691 0.26432 0.25108 0.0
H1315 H 0.46369 0.34163 0.28646 0.0
H1316 H 0.46729 0.2974 0.31587 0.0
H1317 H 0.33384 0.22111 0.31424 0.0
H1318 H 0.3122 0.17899 0.29837 0.0
H1319 H 0.32047 0.21524 0.27631 0.0
H1320 H 0.35235 0.199 0.23799 0.0
H1321 H 0.34387 0.16234 0.25985 0.0
H1322 H 0.38695 0.19301 0.24975 0.0
H1323 H 0.4547 0.2463 0.34772 0.0
H1324 H 0.42901 0.1929 0.37667 0.0
H1325 H 0.34144 0.14962 0.31853 0.0
C1326 C 0.38934 0.27178 0.26438 0.0
C1327 C 0.41503 0.30625 0.26658 0.0
C1328 C 0.44393 0.31521 0.28429 0.0
C1329 C 0.44612 0.29028 0.30107 0.0
C1330 C 0.41957 0.25657 0.29926 0.0
C1331 C 0.39206 0.24728 0.28086 0.0
C1332 C 0.36545 0.21018 0.28457 0.0
C1333 C 0.33099 0.20618 0.29394 0.0
C1334 C 0.36196 0.18994 0.25636 0.0
C1335 C 0.38135 0.20036 0.30905 0.0
C1336 C 0.41273 0.22721 0.31708 0.0
C1337 C 0.43053 0.22488 0.34115 0.0
C1338 C 0.41565 0.19448 0.35754 0.0
C1339 C 0.38324 0.16692 0.34984 0.0
C1340 C 0.36644 0.1699 0.32485 0.0
H1341 H 0.83785 0.18448 0.35697 0.0
H1342 H 0.79379 0.23521 0.40642 0.0
H1343 H 0.74319 0.20855 0.37453 0.0
H1344 H 0.80862 0.19209 0.28603 0.0
H1345 H 0.7997 0.15053 0.27382 0.0
H1346 H 0.83261 0.17348 0.3006 0.0
H1347 H 0.80351 0.12242 0.33679 0.0
H1348 H 0.77089 0.09911 0.30993 0.0
H1349 H 0.75942 0.10569 0.3463 0.0
H1350 H 0.69733 0.17638 0.3372 0.0
H1351 H 0.65721 0.13634 0.30048 0.0
H1352 H 0.73223 0.108 0.27533 0.0
C1353 C 0.81752 0.18986 0.36129 0.0
C1354 C 0.81992 0.21201 0.3842 0.0
C1355 C 0.79261 0.21828 0.38905 0.0
C1356 C 0.76382 0.20346 0.37093 0.0
C1357 C 0.76271 0.18244 0.34811 0.0
C1358 C 0.78863 0.17531 0.34348 0.0
C1359 C 0.78077 0.15106 0.31802 0.0
C1360 C 0.80699 0.16781 0.29315 0.0
C1361 C 0.7785 0.11759 0.32838 0.0
C1362 C 0.74634 0.14564 0.30908 0.0
C1363 C 0.73641 0.16409 0.32656 0.0
C1364 C 0.70486 0.16191 0.32325 0.0
C1365 C 0.68233 0.13924 0.30222 0.0
C1366 C 0.69153 0.11903 0.28491 0.0
C1367 C 0.72441 0.12324 0.28791 0.0
H1368 H 0.05135 0.65902 0.4739 0.0
H1369 H 0.96848 0.67894 0.48973 0.0
H1370 H 0.95022 0.66457 0.43807 0.0
H1371 H 0.07435 0.69623 0.40635 0.0
H1372 H 0.0838 0.66556 0.3901 0.0
H1373 H 0.08726 0.67214 0.42922 0.0
H1374 H 0.04534 0.60775 0.43795 0.0
H1375 H 0.0422 0.60082 0.39876 0.0
H1376 H 0.00429 0.58762 0.42031 0.0
H1377 H 0.94667 0.65674 0.38312 0.0
H1378 H 0.9547 0.65035 0.33014 0.0
H1379 H 0.03893 0.6342 0.35134 0.0
C1380 C 0.02884 0.65951 0.46669 0.0
C1381 C 0.01134 0.67005 0.48573 0.0
C1382 C 0.98208 0.67057 0.47553 0.0
C1383 C 0.97156 0.66256 0.44621 0.0
C1384 C 0.99021 0.65349 0.42769 0.0
C1385 C 0.01779 0.65121 0.43769 0.0
C1386 C 0.03477 0.64286 0.41306 0.0
C1387 C 0.07224 0.67088 0.40948 0.0
C1388 C 0.03143 0.60767 0.41781 0.0
C1389 C 0.01345 0.64239 0.38742 0.0
C1390 C 0.9877 0.64831 0.39622 0.0
C1391 C 0.96632 0.65141 0.376 0.0
C1392 C 0.97126 0.64806 0.34599 0.0
C1393 C -0.00264 0.64168 0.33666 0.0
C1394 C 0.01848 0.63865 0.35777 0.0
H1395 H 0.31156 0.32172 0.4708 0.0
H1396 H 0.37166 0.42751 0.49742 0.0
H1397 H 0.39287 0.44364 0.44668 0.0
H1398 H 0.3715 0.32376 0.41141 0.0
H1399 H 0.3366 0.2965 0.38764 0.0
H1400 H 0.33162 0.29191 0.42703 0.0
H1401 H 0.27898 0.29974 0.42363 0.0
H1402 H 0.28406 0.30498 0.38439 0.0
H1403 H 0.28308 0.33756 0.40649 0.0
H1404 H 0.40035 0.44993 0.39389 0.0
H1405 H 0.39659 0.44661 0.34028 0.0
H1406 H 0.33077 0.33658 0.34535 0.0
C1407 C 0.33028 0.34798 0.46597 0.0
C1408 C 0.34064 0.37345 0.48777 0.0
C1409 C 0.36395 0.4078 0.48084 0.0
C1410 C 0.37611 0.41711 0.4522 0.0
C1411 C 0.36448 0.39172 0.43083 0.0
C1412 C 0.34232 0.3578 0.43723 0.0
C1413 C 0.33082 0.33649 0.40935 0.0
C1414 C 0.3434 0.31063 0.40883 0.0
C1415 C 0.29193 0.31866 0.40577 0.0
C1416 C 0.34887 0.36405 0.38634 0.0
C1417 C 0.36843 0.39553 0.39946 0.0
C1418 C 0.38561 0.4254 0.38328 0.0
C1419 C 0.38291 0.42319 0.35276 0.0
C1420 C 0.36316 0.39129 0.33855 0.0
C1421 C 0.34617 0.36124 0.3556 0.0
H1422 H 0.64583 0.93226 0.4705 0.0
H1423 H 0.73035 0.03422 0.48619 0.0
H1424 H 0.73541 0.04533 0.43261 0.0
H1425 H 0.67586 0.91646 0.39974 0.0
H1426 H 0.63341 0.89449 0.38483 0.0
H1427 H 0.63994 0.8929 0.42377 0.0
H1428 H 0.59899 0.91608 0.43454 0.0
H1429 H 0.59219 0.91747 0.39578 0.0
H1430 H 0.60696 0.95547 0.4177 0.0
H1431 H 0.72792 0.04672 0.37804 0.0
H1432 H 0.7046 0.04079 0.32796 0.0
H1433 H 0.62396 0.93846 0.34908 0.0
C1434 C 0.66588 0.95671 0.46267 0.0
C1435 C 0.68782 0.98232 0.48236 0.0
C1436 C 0.71322 0.01427 0.47136 0.0
C1437 C 0.71652 0.02067 0.44101 0.0
C1438 C 0.69423 0.99482 0.42218 0.0
C1439 C 0.66926 0.96357 0.43265 0.0
C1440 C 0.64594 0.94148 0.40843 0.0
C1441 C 0.64899 0.90944 0.40393 0.0
C1442 C 0.60885 0.93211 0.41448 0.0
C1443 C 0.66086 0.96566 0.38278 0.0
C1444 C 0.68926 0.99595 0.39092 0.0
C1445 C 0.70601 0.02296 0.3713 0.0
C1446 C 0.69265 0.0193 0.3429 0.0
C1447 C 0.66251 0.98911 0.3348 0.0
C1448 C 0.64713 0.9617 0.35472 0.0
H1449 H 0.66519 0.02827 0.02091 0.0
H1450 H 0.64898 0.11349 0.00381 0.0
H1451 H 0.63386 0.11365 0.05589 0.0
H1452 H 0.59764 0.98536 0.07615 0.0
H1453 H 0.62283 0.97329 0.09835 0.0
H1454 H 0.62904 0.97761 0.0591 0.0
H1455 H 0.69309 0.02064 0.06707 0.0
H1456 H 0.68702 0.01669 0.1063 0.0
H1457 H 0.70546 0.0581 0.0892 0.0
H1458 H 0.62306 0.10645 0.1095 0.0
H1459 H 0.61836 0.09316 0.16242 0.0
H1460 H 0.6439 0.0141 0.14521 0.0
C1461 C 0.6578 0.04648 0.02807 0.0
C1462 C 0.658 0.07073 0.00848 0.0
C1463 C 0.64897 0.09473 0.01862 0.0
C1464 C 0.64023 0.09494 0.04806 0.0
C1465 C 0.64089 0.07113 0.06698 0.0
C1466 C 0.64945 0.04736 0.05749 0.0
C1467 C 0.65037 0.02613 0.0828 0.0
C1468 C 0.62335 0.98836 0.07886 0.0
C1469 C 0.68611 0.03069 0.08656 0.0
C1470 C 0.64147 0.04209 0.10799 0.0
C1471 C 0.63569 0.06768 0.09829 0.0
C1472 C 0.62737 0.08638 0.11743 0.0
C1473 C 0.6248 0.07865 0.14742 0.0
C1474 C 0.63091 0.0527 0.1579 0.0
C1475 C 0.63934 0.03424 0.13786 0.0
H1476 H 0.99094 0.68763 0.141 0.0
H1477 H 0.03532 0.6224 0.13824 0.0
H1478 H 0.05316 0.63954 0.08668 0.0
H1479 H 0.95201 0.66325 0.07584 0.0
H1480 H 0.9574 0.70387 0.06461 0.0
H1481 H 0.95729 0.69462 0.10295 0.0
H1482 H 0.01649 0.74901 0.10904 0.0
H1483 H 0.01641 0.75824 0.07048 0.0
H1484 H 0.05129 0.75497 0.08587 0.0
H1485 H 0.05655 0.65477 0.0341 0.0
H1486 H 0.0391 0.6612 0.98398 0.0
H1487 H 0.98982 0.71396 0.0201 0.0
C1488 C 0.00546 0.67805 0.12965 0.0
C1489 C 0.01222 0.65416 0.14314 0.0
C1490 C 0.03021 0.64095 0.12787 0.0
C1491 C 0.04074 0.65084 0.09882 0.0
C1492 C 0.03286 0.6738 0.08553 0.0
C1493 C 0.01545 0.68714 0.10043 0.0
C1494 C 0.00437 0.70596 0.07985 0.0
C1495 C 0.96549 0.691 0.08087 0.0
C1496 C 0.02329 0.74433 0.08672 0.0
C1497 C 0.01589 0.69887 0.05081 0.0
C1498 C 0.03364 0.68163 0.05462 0.0
C1499 C 0.04346 0.66899 0.0308 0.0
C1500 C 0.03354 0.67272 0.00247 0.0
C1501 C 0.01342 0.68816 -0.00136 0.0
C1502 C 0.00569 0.70252 0.02281 0.0
H1503 H 0.40823 0.34049 0.13598 0.0
H1504 H 0.31473 0.34172 0.15331 0.0
H1505 H 0.30105 0.33388 0.10031 0.0
H1506 H 0.42946 0.38602 0.06899 0.0
H1507 H 0.44512 0.36088 0.05135 0.0
H1508 H 0.44723 0.36542 0.09077 0.0
H1509 H 0.41339 0.2997 0.097 0.0
H1510 H 0.41178 0.29494 0.05761 0.0
H1511 H 0.37298 0.2753 0.07875 0.0
H1512 H 0.29986 0.33035 0.04513 0.0
H1513 H 0.30647 0.32209 0.99238 0.0
H1514 H 0.39949 0.32065 0.01155 0.0
C1515 C 0.38467 0.33867 0.12867 0.0
C1516 C 0.36255 0.34173 0.14871 0.0
C1517 C 0.33189 0.33911 0.13835 0.0
C1518 C 0.32405 0.33498 0.10828 0.0
C1519 C 0.34692 0.33306 0.08901 0.0
C1520 C 0.37622 0.33406 0.09885 0.0
C1521 C 0.39618 0.33072 0.07367 0.0
C1522 C 0.43159 0.36267 0.07105 0.0
C1523 C 0.39871 0.29823 0.07695 0.0
C1524 C 0.37368 0.328 0.04809 0.0
C1525 C 0.34564 0.32986 0.05735 0.0
C1526 C 0.32157 0.3286 0.03762 0.0
C1527 C 0.32574 0.32423 0.00768 0.0
C1528 C 0.35352 0.32075 -0.0021 0.0
C1529 C 0.37799 0.32318 0.0184 0.0
H1530 H 0.99247 0.35016 0.63653 0.0
H1531 H 0.9545 0.42068 0.64698 0.0
H1532 H 0.96061 0.43204 0.5938 0.0
H1533 H 0.05285 0.39608 0.57512 0.0
H1534 H 0.04299 0.35688 0.55678 0.0
H1535 H 0.04085 0.35807 0.59634 0.0
H1536 H 0.97824 0.30851 0.59528 0.0
H1537 H 0.98061 0.30684 0.55593 0.0
H1538 H 0.94774 0.31248 0.57269 0.0
H1539 H 0.96304 0.43013 0.54001 0.0
H1540 H 0.9563 0.41036 0.48851 0.0
H1541 H 0.99392 0.34247 0.51185 0.0
C1542 C 0.98588 0.3683 0.62761 0.0
C1543 C 0.97288 0.38439 0.6458 0.0
C1544 C 0.96412 0.4077 0.63337 0.0
C1545 C 0.968 0.41475 0.60326 0.0
C1546 C 0.98078 0.39841 0.58587 0.0
C1547 C 0.98933 0.37545 0.59749 0.0
C1548 C -0.00155 0.35823 0.5735 0.0
C1549 C 0.03603 0.36791 0.57557 0.0
C1550 C 0.97485 0.31923 0.5744 0.0
C1551 C 0.99206 0.37391 0.54657 0.0
C1552 C 0.98274 0.39771 0.55426 0.0
C1553 C 0.97129 0.41238 0.53354 0.0
C1554 C 0.9677 0.40122 0.5044 0.0
C1555 C 0.97576 0.37594 0.49648 0.0
C1556 C 0.98923 0.36305 0.51744 0.0
H1557 H 0.67634 0.65904 0.634 0.0
H1558 H 0.68239 0.56725 0.64742 0.0
H1559 H 0.69793 0.56821 0.59534 0.0
H1560 H 0.63672 0.63523 0.56453 0.0
H1561 H 0.6587 0.67748 0.54889 0.0
H1562 H 0.65178 0.67212 0.58798 0.0
H1563 H 0.7165 0.7103 0.59699 0.0
H1564 H 0.72351 0.71586 0.55786 0.0
H1565 H 0.74572 0.69973 0.57948 0.0
H1566 H 0.71015 0.57715 0.54208 0.0
H1567 H 0.71634 0.59235 0.48956 0.0
H1568 H 0.6998 0.67693 0.50941 0.0
C1569 C 0.68162 0.6396 0.62601 0.0
C1570 C 0.67843 0.61319 0.64466 0.0
C1571 C 0.68471 0.58767 0.63341 0.0
C1572 C 0.69368 0.58808 0.60393 0.0
C1573 C 0.69601 0.61403 0.58595 0.0
C1574 C 0.6901 0.6393 0.59642 0.0
C1575 C 0.69188 0.66272 0.57177 0.0
C1576 C 0.65773 0.6618 0.56808 0.0
C1577 C 0.72115 0.69932 0.57683 0.0
C1578 C 0.69916 0.64623 0.54586 0.0
C1579 C 0.70192 0.61852 0.55468 0.0
C1580 C 0.70819 0.59888 0.53484 0.0
C1581 C 0.71165 0.60773 0.50505 0.0
C1582 C 0.70842 0.63574 0.49533 0.0
C1583 C 0.70219 0.65525 0.51612 0.0
H1584 H 0.38062 0.05198 0.63992 0.0
H1585 H 0.29844 0.94823 0.65281 0.0
H1586 H 0.27861 0.94749 0.60196 0.0
H1587 H 0.33259 0.07982 0.59158 0.0
H1588 H 0.36985 0.10585 0.56968 0.0
H1589 H 0.37417 0.09946 0.60822 0.0
H1590 H 0.41541 0.07727 0.5952 0.0
H1591 H 0.41102 0.08329 0.55673 0.0
H1592 H 0.40167 0.04198 0.57006 0.0
H1593 H 0.27317 0.95579 0.54761 0.0
H1594 H 0.28093 0.97338 0.49535 0.0
H1595 H 0.36596 0.07207 0.51976 0.0
C1596 C 0.35801 0.02938 0.63225 0.0
C1597 C 0.34101 0.0002 0.6501 0.0
C1598 C 0.31157 0.97099 0.63942 0.0
C1599 C 0.30017 0.97033 0.61062 0.0
C1600 C 0.31815 -0.00067 0.59324 0.0
C1601 C 0.34612 0.02849 0.60387 0.0
C1602 C 0.36253 0.05544 0.58039 0.0
C1603 C 0.35959 0.087 0.58792 0.0
C1604 C 0.39984 0.06502 0.5753 0.0
C1605 C 0.34042 0.0364 0.5545 0.0
C1606 C 0.31472 0.00422 0.56227 0.0
C1607 C 0.29282 0.98116 0.54137 0.0
C1608 C 0.29756 0.99129 0.51176 0.0
C1609 C 0.32403 0.02412 0.50349 0.0
C1610 C 0.34525 0.04695 0.52532 0.0
H1611 H 0.34593 0.97543 0.84393 0.0
H1612 H 0.35455 0.88572 0.82604 0.0
H1613 H 0.34459 0.86994 0.87843 0.0
H1614 H 0.38963 0.99565 0.91277 0.0
H1615 H 0.36292 0.0097 0.92992 0.0
H1616 H 0.36932 0.01348 0.8907 0.0
H1617 H 0.30415 0.97865 0.88245 0.0
H1618 H 0.29752 0.97494 0.92166 0.0
H1619 H 0.27984 0.93714 0.89913 0.0
H1620 H 0.33368 0.86364 0.93199 0.0
H1621 H 0.32329 0.86768 0.98465 0.0
H1622 H 0.32375 0.96251 0.96828 0.0
C1623 C 0.34537 0.9523 0.85102 0.0
C1624 C 0.35089 0.93172 0.83102 0.0
C1625 C 0.35048 0.9019 0.8411 0.0
C1626 C 0.34478 0.89267 0.87075 0.0
C1627 C 0.3398 0.91368 0.88996 0.0
C1628 C 0.34009 0.94289 0.88063 0.0
C1629 C 0.33494 0.9614 0.90605 0.0
C1630 C 0.36606 0.99717 0.91009 0.0
C1631 C 0.30216 0.96311 0.90208 0.0
C1632 C 0.33167 0.93794 0.93108 0.0
C1633 C 0.33437 0.9105 0.92124 0.0
C1634 C 0.33159 0.88502 0.94007 0.0
C1635 C 0.32566 0.88753 0.96988 0.0
C1636 C 0.32289 0.91548 0.98048 0.0
C1637 C 0.32615 0.94107 0.96081 0.0
H1638 H 0.06771 0.37818 0.96739 0.0
H1639 H 0.9674 0.2926 0.9865 0.0
H1640 H 0.95359 0.28671 0.9335 0.0
H1641 H 0.04159 0.41508 0.91202 0.0
H1642 H 0.07915 0.42862 0.88987 0.0
H1643 H 0.08123 0.42456 0.92907 0.0
H1644 H 0.10487 0.38344 0.92112 0.0
H1645 H 0.10243 0.38706 0.88184 0.0
H1646 H 0.08114 0.34566 0.89907 0.0
H1647 H 0.95054 0.29133 0.87829 0.0
H1648 H 0.95678 0.3092 0.82618 0.0
H1649 H 0.05897 0.39175 0.84433 0.0
C1650 C 0.04284 0.35812 0.96049 0.0
C1651 C 0.01863 0.33591 0.98105 0.0
C1652 C 0.98627 0.31013 0.97112 0.0
C1653 C 0.97829 0.30638 0.94106 0.0
C1654 C 0.00293 0.32862 0.92136 0.0
C1655 C 0.03443 0.35414 0.93073 0.0
C1656 C 0.05589 0.37581 0.90544 0.0
C1657 C 0.06497 0.41322 0.90934 0.0
C1658 C 0.08797 0.37279 0.90165 0.0
C1659 C 0.03133 0.35892 0.88036 0.0
C1660 C 0.0011 0.33143 0.88982 0.0
C1661 C 0.9742 0.31264 0.87058 0.0
C1662 C 0.97805 0.32285 0.84103 0.0
C1663 C 0.0084 0.35181 0.83129 0.0
C1664 C 0.03551 0.36948 0.85114 0.0
H1665 H 0.6101 0.65834 0.84353 0.0
H1666 H 0.7075 0.66426 0.82914 0.0
H1667 H 0.71988 0.6741 0.8824 0.0
H1668 H 0.63914 0.72406 0.8995 0.0
H1669 H 0.59986 0.70214 0.91984 0.0
H1670 H 0.5998 0.69679 0.88059 0.0
H1671 H 0.57042 0.63126 0.88773 0.0
H1672 H 0.57093 0.63645 0.92702 0.0
H1673 H 0.59015 0.61373 0.9109 0.0
H1674 H 0.7198 0.68022 0.93808 0.0
H1675 H 0.71005 0.68835 0.99029 0.0
H1676 H 0.61293 0.67882 0.96681 0.0
C1677 C 0.6342 0.66202 0.85147 0.0
C1678 C 0.65782 0.66051 0.83221 0.0
C1679 C 0.68914 0.6656 0.84349 0.0
C1680 C 0.69628 0.67094 0.87371 0.0
C1681 C 0.67196 0.6714 0.89219 0.0
C1682 C 0.6418 0.66759 0.88136 0.0
C1683 C 0.61991 0.66931 0.90558 0.0
C1684 C 0.61437 0.6999 0.90111 0.0
C1685 C 0.58585 0.63568 0.90793 0.0
C1686 C 0.6423 0.67443 0.93185 0.0
C1687 C 0.67213 0.67535 0.92383 0.0
C1688 C 0.69658 0.67966 0.94458 0.0
C1689 C 0.69069 0.68397 0.97419 0.0
C1690 C 0.66072 0.6842 0.98261 0.0
C1691 C 0.63613 0.67886 0.9611 0.0
H1692 H 0.72957 0.9906 0.69878 0.0
H1693 H 0.65394 0.01309 0.66348 0.0
H1694 H 0.63668 0.01784 0.71394 0.0
H1695 H 0.68048 0.94073 0.76132 0.0
H1696 H 0.71696 0.95766 0.78528 0.0
H1697 H 0.72209 0.95417 0.74635 0.0
H1698 H 0.76661 0.01873 0.74377 0.0
H1699 H 0.76199 0.02225 0.7827 0.0
H1700 H 0.75554 0.0493 0.75755 0.0
H1701 H 0.62867 0.02137 0.76831 0.0
H1702 H 0.6352 0.02984 0.82221 0.0
H1703 H 0.71623 0.00532 0.82083 0.0
C1704 C 0.70929 0.9964 0.70159 0.0
C1705 C 0.6931 0.00143 0.67724 0.0
C1706 C 0.66688 0.00933 0.68187 0.0
C1707 C 0.65664 0.01174 0.71041 0.0
C1708 C 0.67289 0.00619 0.73393 0.0
C1709 C 0.69888 -0.00096 0.72979 0.0
C1710 C 0.71371 0.99623 0.75863 0.0
C1711 C 0.70795 0.96004 0.76315 0.0
C1712 C 0.7517 0.02324 0.76078 0.0
C1713 C 0.69247 0.00361 0.77965 0.0
C1714 C 0.66864 0.0087 0.7651 0.0
C1715 C 0.64707 0.01724 0.78 0.0
C1716 C 0.65082 0.02182 0.81053 0.0
C1717 C 0.67625 0.01831 0.82549 0.0
C1718 C 0.69658 0.00816 0.80991 0.0
H1719 H 0.01925 0.70157 0.67967 0.0
H1720 H 0.01388 0.79248 0.65915 0.0
H1721 H -0.00145 0.79556 0.71069 0.0
H1722 H 0.94985 0.66472 0.73214 0.0
H1723 H 0.97105 0.64966 0.75628 0.0
H1724 H 0.97982 0.65345 0.71738 0.0
H1725 H 0.04413 0.69228 0.728 0.0
H1726 H 0.03553 0.68861 0.7669 0.0
H1727 H 0.05813 0.73013 0.74998 0.0
H1728 H 0.9837 0.78879 0.76364 0.0
H1729 H 0.97404 0.77511 0.81641 0.0
H1730 H 0.99183 0.69015 0.80332 0.0
C1731 C 0.01452 0.72191 0.68601 0.0
C1732 C 0.01749 0.74668 0.66552 0.0
C1733 C 0.01176 0.77331 0.67462 0.0
C1734 C 0.0029 0.77517 0.70374 0.0
C1735 C 0.00026 0.75041 0.72342 0.0
C1736 C 0.00617 0.72446 0.71509 0.0
C1737 C 0.00331 0.70216 0.74099 0.0
C1738 C 0.97427 0.66532 0.73641 0.0
C1739 C 0.0373 0.70339 0.74681 0.0
C1740 C 0.99494 0.71975 0.76517 0.0
C1741 C 0.99291 0.74725 0.75443 0.0
C1742 C 0.98525 0.76737 0.77239 0.0
C1743 C 0.97973 0.75932 0.80229 0.0
C1744 C 0.98232 0.73164 0.81392 0.0
C1745 C 0.98994 0.71159 0.79505 0.0
H1746 H 0.31354 0.32673 0.67729 0.0
H1747 H 0.21658 0.23572 0.65986 0.0
H1748 H 0.21312 0.21836 0.71173 0.0
H1749 H 0.34536 0.28899 0.72977 0.0
H1750 H 0.36475 0.32618 0.75305 0.0
H1751 H 0.3605 0.33076 0.71417 0.0
H1752 H 0.32818 0.36324 0.72519 0.0
H1753 H 0.3321 0.35855 0.7641 0.0
H1754 H 0.29071 0.34354 0.74805 0.0
H1755 H 0.21986 0.21068 0.76453 0.0
H1756 H 0.23585 0.21337 0.8166 0.0
H1757 H 0.32717 0.31079 0.80102 0.0
C1758 C 0.29183 0.30294 0.68437 0.0
C1759 C 0.26541 0.28239 0.66465 0.0
C1760 C 0.23706 0.25178 0.67471 0.0
C1761 C 0.23488 0.24171 0.70405 0.0
C1762 C 0.26109 0.26273 0.72303 0.0
C1763 C 0.28898 0.29274 0.71373 0.0
C1764 C 0.31297 0.31115 0.73901 0.0
C1765 C 0.34796 0.31445 0.73368 0.0
C1766 C 0.31616 0.34619 0.7444 0.0
C1767 C 0.29416 0.28666 0.76391 0.0
C1768 C 0.26443 0.25885 0.75405 0.0
C1769 C 0.24301 0.23233 0.77261 0.0
C1770 C 0.25235 0.2341 0.80209 0.0
C1771 C 0.28267 0.26234 0.81275 0.0
C1772 C 0.30367 0.28912 0.79347 0.0
H1773 H 0.00874 0.34325 0.18296 0.0
H1774 H 0.9681 0.23525 0.16703 0.0
H1775 H 0.94386 0.22223 0.21704 0.0
H1776 H 0.03628 0.34219 0.25431 0.0
H1777 H 0.02653 0.37319 0.26935 0.0
H1778 H 0.03595 0.37412 0.23081 0.0
H1779 H 0.97847 0.37005 0.2177 0.0
H1780 H 0.96885 0.36915 0.25629 0.0
H1781 H 0.93953 0.33552 0.23237 0.0
H1782 H 0.92827 0.22073 0.26842 0.0
H1783 H 0.92524 0.23044 0.32101 0.0
H1784 H 0.97853 0.34 0.30603 0.0
C1785 C 0.99408 0.31691 0.18998 0.0
C1786 C 0.9899 0.29012 0.17144 0.0
C1787 C 0.97144 0.25596 0.1812 0.0
C1788 C 0.95738 0.24835 0.20936 0.0
C1789 C 0.96235 0.27527 0.22742 0.0
C1790 C 0.98042 0.30889 0.21836 0.0
C1791 C 0.98526 0.33298 0.24345 0.0
C1792 C 0.02326 0.35702 0.24985 0.0
C1793 C 0.96693 0.35311 0.23706 0.0
C1794 C 0.96803 0.30757 0.26814 0.0
C1795 C 0.95438 0.27448 0.25807 0.0
C1796 C 0.93862 0.24647 0.27664 0.0
C1797 C 0.93729 0.25236 0.30655 0.0
C1798 C 0.952 0.28606 0.31771 0.0
C1799 C 0.96697 0.314 0.29812 0.0
H1800 H 0.67391 0.66469 0.3028 0.0
H1801 H 0.69703 0.76472 0.33287 0.0
H1802 H 0.68724 0.7791 0.28273 0.0
H1803 H 0.7197 0.69117 0.24165 0.0
H1804 H 0.69237 0.65656 0.2176 0.0
H1805 H 0.69083 0.64963 0.2566 0.0
H1806 H 0.62632 0.6284 0.2575 0.0
H1807 H 0.62721 0.63428 0.21821 0.0
H1808 H 0.61061 0.65451 0.24187 0.0
H1809 H 0.68781 0.78711 0.2294 0.0
H1810 H 0.69438 0.78728 0.17574 0.0
H1811 H 0.67194 0.68211 0.17889 0.0
C1812 C 0.67485 0.68878 0.29896 0.0
C1813 C 0.68501 0.71333 0.32147 0.0
C1814 C 0.68819 0.74543 0.31582 0.0
C1815 C 0.68278 0.75375 0.28747 0.0
C1816 C 0.67444 0.72965 0.26521 0.0
C1817 C 0.66995 0.69756 0.27065 0.0
C1818 C 0.66623 0.67844 0.24224 0.0
C1819 C 0.69394 0.66839 0.23938 0.0
C1820 C 0.63046 0.64705 0.23981 0.0
C1821 C 0.67129 0.70551 0.22004 0.0
C1822 C 0.67542 0.73459 0.23382 0.0
C1823 C 0.68382 0.76425 0.21829 0.0
C1824 C 0.68796 0.7642 0.18784 0.0
C1825 C 0.68379 0.73471 0.17319 0.0
C1826 C 0.67491 0.70487 0.1895 0.0
H1827 H 0.29934 0.03412 0.29007 0.0
H1828 H 0.37413 0.00811 0.32101 0.0
H1829 H 0.38548 -0.00108 0.26956 0.0
H1830 H 0.26358 0.97176 0.2369 0.0
H1831 H 0.25624 -0.00242 0.21102 0.0
H1832 H 0.25753 0.00607 0.24974 0.0
H1833 H 0.30497 0.06869 0.24076 0.0
H1834 H 0.30395 0.06027 0.20191 0.0
H1835 H 0.34337 0.07712 0.22192 0.0
H1836 H 0.38502 0.98826 0.21473 0.0
H1837 H 0.36943 0.97282 0.1625 0.0
H1838 H 0.29465 0.00553 0.16922 0.0
C1839 C 0.31847 0.02692 0.28618 0.0
C1840 C 0.33582 0.02181 0.30958 0.0
C1841 C 0.36043 0.01208 0.30339 0.0
C1842 C 0.36725 0.00709 0.27426 0.0
C1843 C 0.34942 0.01217 0.25173 0.0
C1844 C 0.3255 0.02182 0.25748 0.0
C1845 C 0.30758 0.02286 0.22992 0.0
C1846 C 0.26897 -0.00192 0.23203 0.0
C1847 C 0.31546 0.05941 0.22324 0.0
C1848 C 0.32415 0.01097 0.2078 0.0
C1849 C 0.34879 0.00565 0.22053 0.0
C1850 C 0.36609 0.99276 0.20447 0.0
C1851 C 0.35719 0.98419 0.17486 0.0
C1852 C 0.33087 0.98806 0.16206 0.0
C1853 C 0.3149 0.00242 0.17855 0.0
loop_
_geom_bond_atom_site_label_1
_geom_bond_atom_site_label_2
_geom_bond_distance
_geom_bond_site_symmetry_2
_ccdc_geom_bond_type
Sc0 O3 2.025 . S
Sc0 O10 2.105 . S
Sc0 O13 2.105 1_455 S
Sc0 O16 2.105 . S
Sc0 O19 2.105 1_455 S
Sc1 O3 2.025 1_655 S
Sc1 O11 2.105 . S
Sc1 O15 2.105 . S
Sc1 O17 2.105 . S
Sc1 O21 2.105 . S
Sc2 O3 2.025 . S
Sc2 O12 2.105 . S
Sc2 O14 2.105 . S
Sc2 O18 2.105 . S
Sc2 O20 2.105 . S
O3 Sc0 2.025 . S
O3 Sc1 2.025 1_455 S
O3 Sc2 2.025 . S
C4 O10 1.268 . S
C4 O20 1.268 . S
C5 O11 1.268 . S
C5 O19 1.268 . S
C6 O12 1.268 . S
C6 O21 1.268 1_455 S
C7 O13 1.268 . S
C7 O17 1.268 . S
C8 O14 1.268 . S
C8 O16 1.268 . S
C9 O15 1.268 . S
C9 O18 1.268 1_655 S
O10 Sc0 2.105 . S
O10 C4 1.268 . S
O11 Sc1 2.105 . S
O11 C5 1.268 . S
O12 Sc2 2.105 . S
O12 C6 1.268 . S
O13 Sc0 2.105 1_655 S
O13 C7 1.268 . S
O14 Sc2 2.105 . S
O14 C8 1.268 . S
O15 Sc1 2.105 . S
O15 C9 1.268 . S
O16 Sc0 2.105 . S
O16 C8 1.268 . S
O17 Sc1 2.105 . S
O17 C7 1.268 . S
O18 Sc2 2.105 . S
O18 C9 1.268 1_455 S
O19 Sc0 2.105 1_655 S
O19 C5 1.268 . S
O20 Sc2 2.105 . S
O20 C4 1.268 . S
O21 Sc1 2.105 . S
O21 C6 1.268 1_655 S
Sc22 O25 2.025 . S
Sc22 O32 2.105 . S
Sc22 O35 2.105 . S
Sc22 O38 2.105 . S
Sc22 O41 2.105 . S
Sc23 O25 2.025 . S
Sc23 O33 2.105 . S
Sc23 O37 2.105 . S
Sc23 O39 2.105 . S
Sc23 O43 2.105 . S
Sc24 O25 2.025 . S
Sc24 O34 2.105 . S
Sc24 O36 2.105 . S
Sc24 O40 2.105 . S
Sc24 O42 2.105 . S
O25 Sc22 2.025 . S
O25 Sc23 2.025 . S
O25 Sc24 2.025 . S
C26 O32 1.268 . S
C26 O42 1.268 . S
C27 O33 1.268 . S
C27 O41 1.268 . S
C28 O34 1.268 . S
C28 O43 1.268 . S
C29 O35 1.268 . S
C29 O39 1.268 . S
C30 O36 1.268 . S
C30 O38 1.268 . S
C31 O37 1.268 . S
C31 O40 1.268 . S
O32 Sc22 2.105 . S
O32 C26 1.268 . S
O33 Sc23 2.105 . S
O33 C27 1.268 . S
O34 Sc24 2.105 . S
O34 C28 1.268 . S
O35 Sc22 2.105 . S
O35 C29 1.268 . S
O36 Sc24 2.105 . S
O36 C30 1.268 . S
O37 Sc23 2.105 . S
O37 C31 1.268 . S
O38 Sc22 2.105 . S
O38 C30 1.268 . S
O39 Sc23 2.105 . S
O39 C29 1.268 . S
O40 Sc24 2.105 . S
O40 C31 1.268 . S
O41 Sc22 2.105 . S
O41 C27 1.268 . S
O42 Sc24 2.105 . S
O42 C26 1.268 . S
O43 Sc23 2.105 . S
O43 C28 1.268 . S
Sc44 O47 2.025 . S
Sc44 O54 2.105 . S
Sc44 O57 2.105 . S
Sc44 O60 2.105 . S
Sc44 O63 2.105 . S
Sc45 O47 2.025 1_565 S
Sc45 O55 2.105 . S
Sc45 O59 2.105 . S
Sc45 O61 2.105 . S
Sc45 O65 2.105 . S
Sc46 O47 2.025 . S
Sc46 O56 2.105 1_545 S
Sc46 O58 2.105 . S
Sc46 O62 2.105 1_545 S
Sc46 O64 2.105 . S
O47 Sc44 2.025 . S
O47 Sc45 2.025 1_545 S
O47 Sc46 2.025 . S
C48 O54 1.268 . S
C48 O64 1.268 . S
C49 O55 1.268 . S
C49 O63 1.268 1_565 S
C50 O56 1.268 . S
C50 O65 1.268 . S
C51 O57 1.268 . S
C51 O61 1.268 1_545 S
C52 O58 1.268 . S
C52 O60 1.268 . S
C53 O59 1.268 . S
C53 O62 1.268 . S
O54 Sc44 2.105 . S
O54 C48 1.268 . S
O55 Sc45 2.105 . S
O55 C49 1.268 . S
O56 Sc46 2.105 1_565 S
O56 C50 1.268 . S
O57 Sc44 2.105 . S
O57 C51 1.268 . S
O58 Sc46 2.105 . S
O58 C52 1.268 . S
O59 Sc45 2.105 . S
O59 C53 1.268 . S
O60 Sc44 2.105 . S
O60 C52 1.268 . S
O61 Sc45 2.105 . S
O61 C51 1.268 1_565 S
O62 Sc46 2.105 1_565 S
O62 C53 1.268 . S
O63 Sc44 2.105 . S
O63 C49 1.268 1_545 S
O64 Sc46 2.105 . S
O64 C48 1.268 . S
O65 Sc45 2.105 . S
O65 C50 1.268 . S
Sc66 O69 2.025 . S
Sc66 O76 2.105 1_455 S
Sc66 O79 2.105 . S
Sc66 O82 2.105 1_455 S
Sc66 O85 2.105 . S
Sc67 O69 2.025 . S
Sc67 O77 2.105 . S
Sc67 O81 2.105 . S
Sc67 O83 2.105 . S
Sc67 O87 2.105 . S
Sc68 O69 2.025 1_655 S
Sc68 O78 2.105 . S
Sc68 O80 2.105 . S
Sc68 O84 2.105 . S
Sc68 O86 2.105 . S
O69 Sc66 2.025 . S
O69 Sc67 2.025 . S
O69 Sc68 2.025 1_455 S
C70 O76 1.268 . S
C70 O86 1.268 . S
C71 O77 1.268 . S
C71 O85 1.268 . S
C72 O78 1.268 1_455 S
C72 O87 1.268 . S
C73 O79 1.268 . S
C73 O83 1.268 . S
C74 O80 1.268 . S
C74 O82 1.268 . S
C75 O81 1.268 1_655 S
C75 O84 1.268 . S
O76 Sc66 2.105 1_655 S
O76 C70 1.268 . S
O77 Sc67 2.105 . S
O77 C71 1.268 . S
O78 Sc68 2.105 . S
O78 C72 1.268 1_655 S
O79 Sc66 2.105 . S
O79 C73 1.268 . S
O80 Sc68 2.105 . S
O80 C74 1.268 . S
O81 Sc67 2.105 . S
O81 C75 1.268 1_455 S
O82 Sc66 2.105 1_655 S
O82 C74 1.268 . S
O83 Sc67 2.105 . S
O83 C73 1.268 . S
O84 Sc68 2.105 . S
O84 C75 1.268 . S
O85 Sc66 2.105 . S
O85 C71 1.268 . S
O86 Sc68 2.105 . S
O86 C70 1.268 . S
O87 Sc67 2.105 . S
O87 C72 1.268 . S
Sc88 O91 2.025 . S
Sc88 O98 2.105 . S
Sc88 O101 2.105 . S
Sc88 O104 2.105 . S
Sc88 O107 2.105 . S
Sc89 O91 2.025 . S
Sc89 O99 2.105 . S
Sc89 O103 2.105 . S
Sc89 O105 2.105 . S
Sc89 O109 2.105 . S
Sc90 O91 2.025 . S
Sc90 O100 2.105 . S
Sc90 O102 2.105 . S
Sc90 O106 2.105 . S
Sc90 O108 2.105 . S
O91 Sc88 2.025 . S
O91 Sc89 2.025 . S
O91 Sc90 2.025 . S
C92 O98 1.268 . S
C92 O108 1.268 . S
C93 O99 1.268 . S
C93 O107 1.268 . S
C94 O100 1.268 . S
C94 O109 1.268 . S
C95 O101 1.268 . S
C95 O105 1.268 . S
C96 O102 1.268 . S
C96 O104 1.268 . S
C97 O103 1.268 . S
C97 O106 1.268 . S
O98 Sc88 2.105 . S
O98 C92 1.268 . S
O99 Sc89 2.105 . S
O99 C93 1.268 . S
O100 Sc90 2.105 . S
O100 C94 1.268 . S
O101 Sc88 2.105 . S
O101 C95 1.268 . S
O102 Sc90 2.105 . S
O102 C96 1.268 . S
O103 Sc89 2.105 . S
O103 C97 1.268 . S
O104 Sc88 2.105 . S
O104 C96 1.268 . S
O105 Sc89 2.105 . S
O105 C95 1.268 . S
O106 Sc90 2.105 . S
O106 C97 1.268 . S
O107 Sc88 2.105 . S
O107 C93 1.268 . S
O108 Sc90 2.105 . S
O108 C92 1.268 . S
O109 Sc89 2.105 . S
O109 C94 1.268 . S
Sc110 O113 2.025 1_565 S
Sc110 O120 2.105 . S
Sc110 O123 2.105 . S
Sc110 O126 2.105 . S
Sc110 O129 2.105 . S
Sc111 O113 2.025 . S
Sc111 O121 2.105 . S
Sc111 O125 2.105 . S
Sc111 O127 2.105 . S
Sc111 O131 2.105 . S
Sc112 O113 2.025 . S
Sc112 O122 2.105 . S
Sc112 O124 2.105 1_545 S
Sc112 O128 2.105 . S
Sc112 O130 2.105 1_545 S
O113 Sc110 2.025 1_545 S
O113 Sc111 2.025 . S
O113 Sc112 2.025 . S
C114 O120 1.268 . S
C114 O130 1.268 . S
C115 O121 1.268 1_565 S
C115 O129 1.268 . S
C116 O122 1.268 . S
C116 O131 1.268 . S
C117 O123 1.268 1_545 S
C117 O127 1.268 . S
C118 O124 1.268 . S
C118 O126 1.268 . S
C119 O125 1.268 . S
C119 O128 1.268 . S
O120 Sc110 2.105 . S
O120 C114 1.268 . S
O121 Sc111 2.105 . S
O121 C115 1.268 1_545 S
O122 Sc112 2.105 . S
O122 C116 1.268 . S
O123 Sc110 2.105 . S
O123 C117 1.268 1_565 S
O124 Sc112 2.105 1_565 S
O124 C118 1.268 . S
O125 Sc111 2.105 . S
O125 C119 1.268 . S
O126 Sc110 2.105 . S
O126 C118 1.268 . S
O127 Sc111 2.105 . S
O127 C117 1.268 . S
O128 Sc112 2.105 . S
O128 C119 1.268 . S
O129 Sc110 2.105 . S
O129 C115 1.268 . S
O130 Sc112 2.105 1_565 S
O130 C114 1.268 . S
O131 Sc111 2.105 . S
O131 C116 1.268 . S
Sc132 O135 2.025 . S
Sc132 O142 2.105 1_565 S
Sc132 O145 2.105 . S
Sc132 O148 2.105 . S
Sc132 O151 2.105 . S
Sc133 O135 2.025 . S
Sc133 O143 2.105 . S
Sc133 O147 2.105 . S
Sc133 O149 2.105 . S
Sc133 O153 2.105 . S
Sc134 O135 2.025 . S
Sc134 O144 2.105 . S
Sc134 O146 2.105 . S
Sc134 O150 2.105 . S
Sc134 O152 2.105 . S
O135 Sc132 2.025 . S
O135 Sc133 2.025 . S
O135 Sc134 2.025 . S
C136 O142 1.268 1_565 S
C136 O152 1.268 . S
C137 O143 1.268 . S
C137 O151 1.268 . S
C138 O144 1.268 . S
C138 O153 1.268 . S
C139 O145 1.268 . S
C139 O149 1.268 . S
C140 O146 1.268 . S
C140 O148 1.268 . S
C141 O147 1.268 . S
C141 O150 1.268 . S
O142 Sc132 2.105 1_545 S
O142 C136 1.268 1_545 S
O143 Sc133 2.105 . S
O143 C137 1.268 . S
O144 Sc134 2.105 . S
O144 C138 1.268 . S
O145 Sc132 2.105 . S
O145 C139 1.268 . S
O146 Sc134 2.105 . S
O146 C140 1.268 . S
O147 Sc133 2.105 . S
O147 C141 1.268 . S
O148 Sc132 2.105 . S
O148 C140 1.268 . S
O149 Sc133 2.105 . S
O149 C139 1.268 . S
O150 Sc134 2.105 . S
O150 C141 1.268 . S
O151 Sc132 2.105 . S
O151 C137 1.268 . S
O152 Sc134 2.105 . S
O152 C136 1.268 . S
O153 Sc133 2.105 . S
O153 C138 1.268 . S
Sc154 O157 2.025 . S
Sc154 O164 2.105 . S
Sc154 O167 2.105 . S
Sc154 O170 2.105 . S
Sc154 O173 2.105 . S
Sc155 O157 2.025 . S
Sc155 O165 2.105 . S
Sc155 O169 2.105 . S
Sc155 O171 2.105 . S
Sc155 O175 2.105 . S
Sc156 O157 2.025 . S
Sc156 O166 2.105 . S
Sc156 O168 2.105 . S
Sc156 O172 2.105 . S
Sc156 O174 2.105 . S
O157 Sc154 2.025 . S
O157 Sc155 2.025 . S
O157 Sc156 2.025 . S
C158 O164 1.268 . S
C158 O174 1.268 . S
C159 O165 1.268 . S
C159 O173 1.268 . S
C160 O166 1.268 . S
C160 O175 1.268 . S
C161 O167 1.268 . S
C161 O171 1.268 . S
C162 O168 1.268 . S
C162 O170 1.268 . S
C163 O169 1.268 . S
C163 O172 1.268 . S
O164 Sc154 2.105 . S
O164 C158 1.268 . S
O165 Sc155 2.105 . S
O165 C159 1.268 . S
O166 Sc156 2.105 . S
O166 C160 1.268 . S
O167 Sc154 2.105 . S
O167 C161 1.268 . S
O168 Sc156 2.105 . S
O168 C162 1.268 . S
O169 Sc155 2.105 . S
O169 C163 1.268 . S
O170 Sc154 2.105 . S
O170 C162 1.268 . S
O171 Sc155 2.105 . S
O171 C161 1.268 . S
O172 Sc156 2.105 . S
O172 C163 1.268 . S
O173 Sc154 2.105 . S
O173 C159 1.268 . S
O174 Sc156 2.105 . S
O174 C158 1.268 . S
O175 Sc155 2.105 . S
O175 C160 1.268 . S
Sc176 O179 2.025 . S
Sc176 O186 2.105 . S
Sc176 O189 2.105 . S
Sc176 O192 2.105 . S
Sc176 O195 2.105 . S
Sc177 O179 2.025 . S
Sc177 O187 2.105 . S
Sc177 O191 2.105 . S
Sc177 O193 2.105 . S
Sc177 O197 2.105 . S
Sc178 O179 2.025 . S
Sc178 O188 2.105 . S
Sc178 O190 2.105 . S
Sc178 O194 2.105 . S
Sc178 O196 2.105 . S
O179 Sc176 2.025 . S
O179 Sc177 2.025 . S
O179 Sc178 2.025 . S
C180 O186 1.268 . S
C180 O196 1.268 . S
C181 O187 1.268 . S
C181 O195 1.268 . S
C182 O188 1.268 . S
C182 O197 1.268 . S
C183 O189 1.268 . S
C183 O193 1.268 . S
C184 O190 1.268 . S
C184 O192 1.268 . S
C185 O191 1.268 . S
C185 O194 1.268 . S
O186 Sc176 2.105 . S
O186 C180 1.268 . S
O187 Sc177 2.105 . S
O187 C181 1.268 . S
O188 Sc178 2.105 . S
O188 C182 1.268 . S
O189 Sc176 2.105 . S
O189 C183 1.268 . S
O190 Sc178 2.105 . S
O190 C184 1.268 . S
O191 Sc177 2.105 . S
O191 C185 1.268 . S
O192 Sc176 2.105 . S
O192 C184 1.268 . S
O193 Sc177 2.105 . S
O193 C183 1.268 . S
O194 Sc178 2.105 . S
O194 C185 1.268 . S
O195 Sc176 2.105 . S
O195 C181 1.268 . S
O196 Sc178 2.105 . S
O196 C180 1.268 . S
O197 Sc177 2.105 . S
O197 C182 1.268 . S
Sc198 O201 2.025 . S
Sc198 O208 2.105 . S
Sc198 O211 2.105 . S
Sc198 O214 2.105 . S
Sc198 O217 2.105 . S
Sc199 O201 2.025 . S
Sc199 O209 2.105 . S
Sc199 O213 2.105 . S
Sc199 O215 2.105 . S
Sc199 O219 2.105 . S
Sc200 O201 2.025 . S
Sc200 O210 2.105 . S
Sc200 O212 2.105 . S
Sc200 O216 2.105 . S
Sc200 O218 2.105 . S
O201 Sc198 2.025 . S
O201 Sc199 2.025 . S
O201 Sc200 2.025 . S
C202 O208 1.268 . S
C202 O218 1.268 . S
C203 O209 1.268 . S
C203 O217 1.268 . S
C204 O210 1.268 . S
C204 O219 1.268 . S
C205 O211 1.268 . S
C205 O215 1.268 . S
C206 O212 1.268 . S
C206 O214 1.268 . S
C207 O213 1.268 . S
C207 O216 1.268 . S
O208 Sc198 2.105 . S
O208 C202 1.268 . S
O209 Sc199 2.105 . S
O209 C203 1.268 . S
O210 Sc200 2.105 . S
O210 C204 1.268 . S
O211 Sc198 2.105 . S
O211 C205 1.268 . S
O212 Sc200 2.105 . S
O212 C206 1.268 . S
O213 Sc199 2.105 . S
O213 C207 1.268 . S
O214 Sc198 2.105 . S
O214 C206 1.268 . S
O215 Sc199 2.105 . S
O215 C205 1.268 . S
O216 Sc200 2.105 . S
O216 C207 1.268 . S
O217 Sc198 2.105 . S
O217 C203 1.268 . S
O218 Sc200 2.105 . S
O218 C202 1.268 . S
O219 Sc199 2.105 . S
O219 C204 1.268 . S
Sc220 O223 2.025 . S
Sc220 O230 2.105 . S
Sc220 O233 2.105 . S
Sc220 O236 2.105 . S
Sc220 O239 2.105 . S
Sc221 O223 2.025 . S
Sc221 O231 2.105 . S
Sc221 O235 2.105 . S
Sc221 O237 2.105 . S
Sc221 O241 2.105 . S
Sc222 O223 2.025 . S
Sc222 O232 2.105 . S
Sc222 O234 2.105 . S
Sc222 O238 2.105 . S
Sc222 O240 2.105 1_565 S
O223 Sc220 2.025 . S
O223 Sc221 2.025 . S
O223 Sc222 2.025 . S
C224 O230 1.268 . S
C224 O240 1.268 1_565 S
C225 O231 1.268 . S
C225 O239 1.268 . S
C226 O232 1.268 . S
C226 O241 1.268 . S
C227 O233 1.268 . S
C227 O237 1.268 . S
C228 O234 1.268 . S
C228 O236 1.268 . S
C229 O235 1.268 . S
C229 O238 1.268 . S
O230 Sc220 2.105 . S
O230 C224 1.268 . S
O231 Sc221 2.105 . S
O231 C225 1.268 . S
O232 Sc222 2.105 . S
O232 C226 1.268 . S
O233 Sc220 2.105 . S
O233 C227 1.268 . S
O234 Sc222 2.105 . S
O234 C228 1.268 . S
O235 Sc221 2.105 . S
O235 C229 1.268 . S
O236 Sc220 2.105 . S
O236 C228 1.268 . S
O237 Sc221 2.105 . S
O237 C227 1.268 . S
O238 Sc222 2.105 . S
O238 C229 1.268 . S
O239 Sc220 2.105 . S
O239 C225 1.268 . S
O240 Sc222 2.105 1_545 S
O240 C224 1.268 1_545 S
O241 Sc221 2.105 . S
O241 C226 1.268 . S
Sc242 O245 2.025 . S
Sc242 O252 2.105 . S
Sc242 O255 2.105 . S
Sc242 O258 2.105 . S
Sc242 O261 2.105 . S
Sc243 O245 2.025 . S
Sc243 O253 2.105 . S
Sc243 O257 2.105 . S
Sc243 O259 2.105 . S
Sc243 O263 2.105 . S
Sc244 O245 2.025 . S
Sc244 O254 2.105 . S
Sc244 O256 2.105 . S
Sc244 O260 2.105 . S
Sc244 O262 2.105 . S
O245 Sc242 2.025 . S
O245 Sc243 2.025 . S
O245 Sc244 2.025 . S
C246 O252 1.268 . S
C246 O262 1.268 . S
C247 O253 1.268 . S
C247 O261 1.268 . S
C248 O254 1.268 . S
C248 O263 1.268 . S
C249 O255 1.268 . S
C249 O259 1.268 . S
C250 O256 1.268 . S
C250 O258 1.268 . S
C251 O257 1.268 . S
C251 O260 1.268 . S
O252 Sc242 2.105 . S
O252 C246 1.268 . S
O253 Sc243 2.105 . S
O253 C247 1.268 . S
O254 Sc244 2.105 . S
O254 C248 1.268 . S
O255 Sc242 2.105 . S
O255 C249 1.268 . S
O256 Sc244 2.105 . S
O256 C250 1.268 . S
O257 Sc243 2.105 . S
O257 C251 1.268 . S
O258 Sc242 2.105 . S
O258 C250 1.268 . S
O259 Sc243 2.105 . S
O259 C249 1.268 . S
O260 Sc244 2.105 . S
O260 C251 1.268 . S
O261 Sc242 2.105 . S
O261 C247 1.268 . S
O262 Sc244 2.105 . S
O262 C246 1.268 . S
O263 Sc243 2.105 . S
O263 C248 1.268 . S
Sc264 O267 2.025 . S
Sc264 O274 2.105 . S
Sc264 O277 2.105 . S
Sc264 O280 2.105 . S
Sc264 O283 2.105 . S
Sc265 O267 2.025 . S
Sc265 O275 2.105 . S
Sc265 O279 2.105 . S
Sc265 O281 2.105 . S
Sc265 O285 2.105 . S
Sc266 O267 2.025 . S
Sc266 O276 2.105 . S
Sc266 O278 2.105 . S
Sc266 O282 2.105 . S
Sc266 O284 2.105 . S
O267 Sc264 2.025 . S
O267 Sc265 2.025 . S
O267 Sc266 2.025 . S
C268 O274 1.268 . S
C268 O284 1.268 . S
C269 O275 1.268 . S
C269 O283 1.268 . S
C270 O276 1.268 . S
C270 O285 1.268 . S
C271 O277 1.268 . S
C271 O281 1.268 . S
C272 O278 1.268 . S
C272 O280 1.268 . S
C273 O279 1.268 . S
C273 O282 1.268 . S
O274 Sc264 2.105 . S
O274 C268 1.268 . S
O275 Sc265 2.105 . S
O275 C269 1.268 . S
O276 Sc266 2.105 . S
O276 C270 1.268 . S
O277 Sc264 2.105 . S
O277 C271 1.268 . S
O278 Sc266 2.105 . S
O278 C272 1.268 . S
O279 Sc265 2.105 . S
O279 C273 1.268 . S
O280 Sc264 2.105 . S
O280 C272 1.268 . S
O281 Sc265 2.105 . S
O281 C271 1.268 . S
O282 Sc266 2.105 . S
O282 C273 1.268 . S
O283 Sc264 2.105 . S
O283 C269 1.268 . S
O284 Sc266 2.105 . S
O284 C268 1.268 . S
O285 Sc265 2.105 . S
O285 C270 1.268 . S
Sc286 O289 2.025 . S
Sc286 O296 2.105 . S
Sc286 O299 2.105 . S
Sc286 O302 2.105 . S
Sc286 O305 2.105 . S
Sc287 O289 2.025 . S
Sc287 O297 2.105 . S
Sc287 O301 2.105 . S
Sc287 O303 2.105 . S
Sc287 O307 2.105 . S
Sc288 O289 2.025 . S
Sc288 O298 2.105 . S
Sc288 O300 2.105 . S
Sc288 O304 2.105 . S
Sc288 O306 2.105 . S
O289 Sc286 2.025 . S
O289 Sc287 2.025 . S
O289 Sc288 2.025 . S
C290 O296 1.268 . S
C290 O306 1.268 . S
C291 O297 1.268 . S
C291 O305 1.268 . S
C292 O298 1.268 . S
C292 O307 1.268 . S
C293 O299 1.268 . S
C293 O303 1.268 . S
C294 O300 1.268 . S
C294 O302 1.268 . S
C295 O301 1.268 . S
C295 O304 1.268 . S
O296 Sc286 2.105 . S
O296 C290 1.268 . S
O297 Sc287 2.105 . S
O297 C291 1.268 . S
O298 Sc288 2.105 . S
O298 C292 1.268 . S
O299 Sc286 2.105 . S
O299 C293 1.268 . S
O300 Sc288 2.105 . S
O300 C294 1.268 . S
O301 Sc287 2.105 . S
O301 C295 1.268 . S
O302 Sc286 2.105 . S
O302 C294 1.268 . S
O303 Sc287 2.105 . S
O303 C293 1.268 . S
O304 Sc288 2.105 . S
O304 C295 1.268 . S
O305 Sc286 2.105 . S
O305 C291 1.268 . S
O306 Sc288 2.105 . S
O306 C290 1.268 . S
O307 Sc287 2.105 . S
O307 C292 1.268 . S
Sc308 O311 2.025 . S
Sc308 O318 2.105 . S
Sc308 O321 2.105 . S
Sc308 O324 2.105 . S
Sc308 O327 2.105 . S
Sc309 O311 2.025 . S
Sc309 O319 2.105 . S
Sc309 O323 2.105 . S
Sc309 O325 2.105 . S
Sc309 O329 2.105 . S
Sc310 O311 2.025 . S
Sc310 O320 2.105 . S
Sc310 O322 2.105 1_655 S
Sc310 O326 2.105 . S
Sc310 O328 2.105 . S
O311 Sc308 2.025 . S
O311 Sc309 2.025 . S
O311 Sc310 2.025 . S
C312 O318 1.268 . S
C312 O328 1.268 . S
C313 O319 1.268 . S
C313 O327 1.268 . S
C314 O320 1.268 . S
C314 O329 1.268 . S
C315 O321 1.268 . S
C315 O325 1.268 . S
C316 O322 1.268 1_655 S
C316 O324 1.268 . S
C317 O323 1.268 . S
C317 O326 1.268 . S
O318 Sc308 2.105 . S
O318 C312 1.268 . S
O319 Sc309 2.105 . S
O319 C313 1.268 . S
O320 Sc310 2.105 . S
O320 C314 1.268 . S
O321 Sc308 2.105 . S
O321 C315 1.268 . S
O322 Sc310 2.105 1_455 S
O322 C316 1.268 1_455 S
O323 Sc309 2.105 . S
O323 C317 1.268 . S
O324 Sc308 2.105 . S
O324 C316 1.268 . S
O325 Sc309 2.105 . S
O325 C315 1.268 . S
O326 Sc310 2.105 . S
O326 C317 1.268 . S
O327 Sc308 2.105 . S
O327 C313 1.268 . S
O328 Sc310 2.105 . S
O328 C312 1.268 . S
O329 Sc309 2.105 . S
O329 C314 1.268 . S
Sc330 O333 2.025 . S
Sc330 O340 2.105 . S
Sc330 O343 2.105 . S
Sc330 O346 2.105 . S
Sc330 O349 2.105 . S
Sc331 O333 2.025 . S
Sc331 O341 2.105 . S
Sc331 O345 2.105 . S
Sc331 O347 2.105 . S
Sc331 O351 2.105 . S
Sc332 O333 2.025 . S
Sc332 O342 2.105 . S
Sc332 O344 2.105 . S
Sc332 O348 2.105 . S
Sc332 O350 2.105 . S
O333 Sc330 2.025 . S
O333 Sc331 2.025 . S
O333 Sc332 2.025 . S
C334 O340 1.268 . S
C334 O350 1.268 . S
C335 O341 1.268 . S
C335 O349 1.268 . S
C336 O342 1.268 . S
C336 O351 1.268 . S
C337 O343 1.268 . S
C337 O347 1.268 . S
C338 O344 1.268 . S
C338 O346 1.268 . S
C339 O345 1.268 . S
C339 O348 1.268 . S
O340 Sc330 2.105 . S
O340 C334 1.268 . S
O341 Sc331 2.105 . S
O341 C335 1.268 . S
O342 Sc332 2.105 . S
O342 C336 1.268 . S
O343 Sc330 2.105 . S
O343 C337 1.268 . S
O344 Sc332 2.105 . S
O344 C338 1.268 . S
O345 Sc331 2.105 . S
O345 C339 1.268 . S
O346 Sc330 2.105 . S
O346 C338 1.268 . S
O347 Sc331 2.105 . S
O347 C337 1.268 . S
O348 Sc332 2.105 . S
O348 C339 1.268 . S
O349 Sc330 2.105 . S
O349 C335 1.268 . S
O350 Sc332 2.105 . S
O350 C334 1.268 . S
O351 Sc331 2.105 . S
O351 C336 1.268 . S
Sc352 O355 2.025 . S
Sc352 O362 2.105 . S
Sc352 O365 2.105 . S
Sc352 O368 2.105 . S
Sc352 O371 2.105 . S
Sc353 O355 2.025 . S
Sc353 O363 2.105 . S
Sc353 O367 2.105 . S
Sc353 O369 2.105 . S
Sc353 O373 2.105 . S
Sc354 O355 2.025 . S
Sc354 O364 2.105 . S
Sc354 O366 2.105 . S
Sc354 O370 2.105 1_655 S
Sc354 O372 2.105 . S
O355 Sc352 2.025 . S
O355 Sc353 2.025 . S
O355 Sc354 2.025 . S
C356 O362 1.268 . S
C356 O372 1.268 . S
C357 O363 1.268 . S
C357 O371 1.268 . S
C358 O364 1.268 . S
C358 O373 1.268 . S
C359 O365 1.268 . S
C359 O369 1.268 . S
C360 O366 1.268 . S
C360 O368 1.268 . S
C361 O367 1.268 . S
C361 O370 1.268 1_655 S
O362 Sc352 2.105 . S
O362 C356 1.268 . S
O363 Sc353 2.105 . S
O363 C357 1.268 . S
O364 Sc354 2.105 . S
O364 C358 1.268 . S
O365 Sc352 2.105 . S
O365 C359 1.268 . S
O366 Sc354 2.105 . S
O366 C360 1.268 . S
O367 Sc353 2.105 . S
O367 C361 1.268 . S
O368 Sc352 2.105 . S
O368 C360 1.268 . S
O369 Sc353 2.105 . S
O369 C359 1.268 . S
O370 Sc354 2.105 1_455 S
O370 C361 1.268 1_455 S
O371 Sc352 2.105 . S
O371 C357 1.268 . S
O372 Sc354 2.105 . S
O372 C356 1.268 . S
O373 Sc353 2.105 . S
O373 C358 1.268 . S
Sc374 O377 2.025 . S
Sc374 O384 2.105 . S
Sc374 O387 2.105 . S
Sc374 O390 2.105 . S
Sc374 O393 2.105 . S
Sc375 O377 2.025 . S
Sc375 O385 2.105 . S
Sc375 O389 2.105 . S
Sc375 O391 2.105 . S
Sc375 O395 2.105 . S
Sc376 O377 2.025 . S
Sc376 O386 2.105 . S
Sc376 O388 2.105 . S
Sc376 O392 2.105 . S
Sc376 O394 2.105 . S
O377 Sc374 2.025 . S
O377 Sc375 2.025 . S
O377 Sc376 2.025 . S
C378 O384 1.268 . S
C378 O394 1.268 . S
C379 O385 1.268 . S
C379 O393 1.268 . S
C380 O386 1.268 . S
C380 O395 1.268 . S
C381 O387 1.268 . S
C381 O391 1.268 . S
C382 O388 1.268 . S
C382 O390 1.268 . S
C383 O389 1.268 . S
C383 O392 1.268 . S
O384 Sc374 2.105 . S
O384 C378 1.268 . S
O385 Sc375 2.105 . S
O385 C379 1.268 . S
O386 Sc376 2.105 . S
O386 C380 1.268 . S
O387 Sc374 2.105 . S
O387 C381 1.268 . S
O388 Sc376 2.105 . S
O388 C382 1.268 . S
O389 Sc375 2.105 . S
O389 C383 1.268 . S
O390 Sc374 2.105 . S
O390 C382 1.268 . S
O391 Sc375 2.105 . S
O391 C381 1.268 . S
O392 Sc376 2.105 . S
O392 C383 1.268 . S
O393 Sc374 2.105 . S
O393 C379 1.268 . S
O394 Sc376 2.105 . S
O394 C378 1.268 . S
O395 Sc375 2.105 . S
O395 C380 1.268 . S
H396 C408 0.930 . S
H397 C410 0.930 . S
H398 C411 0.930 . S
H399 C415 0.959 1_455 S
H400 C415 0.959 . S
H401 C415 0.961 . S
H402 C416 0.960 . S
H403 C416 0.961 1_655 S
H404 C416 0.959 . S
H405 C419 0.929 . S
H406 C420 0.931 . S
H407 C422 0.930 1_655 S
C408 H396 0.930 . S
C408 C409 1.399 . S
C408 C413 1.399 . S
C409 C408 1.399 . S
C409 C410 1.376 . S
C410 H397 0.930 . S
C410 C409 1.376 . S
C410 C411 1.388 . S
C411 H398 0.930 . S
C411 C410 1.388 . S
C411 C412 1.390 . S
C412 C411 1.390 . S
C412 C413 1.394 . S
C412 C418 1.465 . S
C413 C408 1.399 . S
C413 C412 1.394 . S
C413 C414 1.516 . S
C414 C413 1.516 . S
C414 C415 1.502 1_455 S
C414 C416 1.561 . S
C414 C417 1.526 . S
C415 H399 0.959 1_655 S
C415 H400 0.959 . S
C415 H401 0.961 . S
C415 C414 1.502 1_655 S
C416 H402 0.960 . S
C416 H403 0.961 1_455 S
C416 H404 0.959 . S
C416 C414 1.561 . S
C417 C414 1.526 . S
C417 C418 1.396 . S
C417 C422 1.390 . S
C418 C412 1.465 . S
C418 C417 1.396 . S
C418 C419 1.399 . S
C419 H405 0.929 . S
C419 C418 1.399 . S
C419 C420 1.385 . S
C420 H406 0.931 . S
C420 C419 1.385 . S
C420 C421 1.389 . S
C421 C420 1.389 . S
C421 C422 1.387 . S
C422 H407 0.930 1_455 S
C422 C417 1.390 . S
C422 C421 1.387 . S
H423 C435 0.930 . S
H424 C437 0.930 . S
H425 C438 0.930 . S
H426 C442 0.959 . S
H427 C442 0.959 . S
H428 C442 0.961 . S
H429 C443 0.960 . S
H430 C443 0.961 . S
H431 C443 0.959 . S
H432 C446 0.929 . S
H433 C447 0.931 . S
H434 C449 0.930 . S
C435 H423 0.930 . S
C435 C436 1.399 . S
C435 C440 1.399 . S
C436 C435 1.399 . S
C436 C437 1.376 . S
C437 H424 0.930 . S
C437 C436 1.376 . S
C437 C438 1.388 . S
C438 H425 0.930 . S
C438 C437 1.388 . S
C438 C439 1.390 . S
C439 C438 1.390 . S
C439 C440 1.394 . S
C439 C445 1.465 . S
C440 C435 1.399 . S
C440 C439 1.394 . S
C440 C441 1.516 . S
C441 C440 1.516 . S
C441 C442 1.502 . S
C441 C443 1.561 . S
C441 C444 1.526 . S
C442 H426 0.959 . S
C442 H427 0.959 . S
C442 H428 0.961 . S
C442 C441 1.502 . S
C443 H429 0.960 . S
C443 H430 0.961 . S
C443 H431 0.959 . S
C443 C441 1.561 . S
C444 C441 1.526 . S
C444 C445 1.396 . S
C444 C449 1.390 . S
C445 C439 1.465 . S
C445 C444 1.396 . S
C445 C446 1.399 . S
C446 H432 0.929 . S
C446 C445 1.399 . S
C446 C447 1.385 . S
C447 H433 0.931 . S
C447 C446 1.385 . S
C447 C448 1.389 . S
C448 C447 1.389 . S
C448 C449 1.387 . S
C449 H434 0.930 . S
C449 C444 1.390 . S
C449 C448 1.387 . S
H450 C462 0.930 1_545 S
H451 C464 0.930 . S
H452 C465 0.930 . S
H453 C469 0.959 . S
H454 C469 0.959 . S
H455 C469 0.961 . S
H456 C470 0.960 . S
H457 C470 0.961 . S
H458 C470 0.959 . S
H459 C473 0.929 . S
H460 C474 0.931 . S
H461 C476 0.930 . S
C462 H450 0.930 1_565 S
C462 C463 1.399 . S
C462 C467 1.399 . S
C463 C462 1.399 . S
C463 C464 1.376 . S
C464 H451 0.930 . S
C464 C463 1.376 . S
C464 C465 1.388 . S
C465 H452 0.930 . S
C465 C464 1.388 . S
C465 C466 1.390 . S
C466 C465 1.390 . S
C466 C467 1.394 . S
C466 C472 1.465 . S
C467 C462 1.399 . S
C467 C466 1.394 . S
C467 C468 1.516 . S
C468 C467 1.516 . S
C468 C469 1.502 1_565 S
C468 C470 1.561 . S
C468 C471 1.526 . S
C469 H453 0.959 . S
C469 H454 0.959 . S
C469 H455 0.961 . S
C469 C468 1.502 1_545 S
C470 H456 0.960 . S
C470 H457 0.961 . S
C470 H458 0.959 . S
C470 C468 1.561 . S
C471 C468 1.526 . S
C471 C472 1.396 . S
C471 C476 1.390 . S
C472 C466 1.465 . S
C472 C471 1.396 . S
C472 C473 1.399 . S
C473 H459 0.929 . S
C473 C472 1.399 . S
C473 C474 1.385 . S
C474 H460 0.931 . S
C474 C473 1.385 . S
C474 C475 1.389 . S
C475 C474 1.389 . S
C475 C476 1.387 . S
C476 H461 0.930 . S
C476 C471 1.390 . S
C476 C475 1.387 . S
H477 C489 0.930 . S
H478 C491 0.930 . S
H479 C492 0.930 . S
H480 C496 0.959 . S
H481 C496 0.959 . S
H482 C496 0.961 . S
H483 C497 0.960 . S
H484 C497 0.961 . S
H485 C497 0.959 . S
H486 C500 0.929 . S
H487 C501 0.931 . S
H488 C503 0.930 . S
C489 H477 0.930 . S
C489 C490 1.399 . S
C489 C494 1.399 . S
C490 C489 1.399 . S
C490 C491 1.376 . S
C491 H478 0.930 . S
C491 C490 1.376 . S
C491 C492 1.388 . S
C492 H479 0.930 . S
C492 C491 1.388 . S
C492 C493 1.390 . S
C493 C492 1.390 . S
C493 C494 1.394 . S
C493 C499 1.465 . S
C494 C489 1.399 . S
C494 C493 1.394 . S
C494 C495 1.516 . S
C495 C494 1.516 . S
C495 C496 1.502 1_545 S
C495 C497 1.561 . S
C495 C498 1.526 . S
C496 H480 0.959 . S
C496 H481 0.959 . S
C496 H482 0.961 . S
C496 C495 1.502 1_565 S
C497 H483 0.960 . S
C497 H484 0.961 . S
C497 H485 0.959 . S
C497 C495 1.561 . S
C498 C495 1.526 . S
C498 C499 1.396 . S
C498 C503 1.390 . S
C499 C493 1.465 . S
C499 C498 1.396 . S
C499 C500 1.399 . S
C500 H486 0.929 . S
C500 C499 1.399 . S
C500 C501 1.385 . S
C501 H487 0.931 . S
C501 C500 1.385 . S
C501 C502 1.389 . S
C502 C501 1.389 . S
C502 C503 1.387 . S
C503 H488 0.930 . S
C503 C498 1.390 . S
C503 C502 1.387 . S
H504 C516 0.930 . S
H505 C518 0.930 . S
H506 C519 0.930 . S
H507 C523 0.959 . S
H508 C523 0.959 . S
H509 C523 0.961 . S
H510 C524 0.960 . S
H511 C524 0.961 . S
H512 C524 0.959 . S
H513 C527 0.929 . S
H514 C528 0.931 . S
H515 C530 0.930 . S
C516 H504 0.930 . S
C516 C517 1.399 . S
C516 C521 1.399 . S
C517 C516 1.399 . S
C517 C518 1.376 . S
C518 H505 0.930 . S
C518 C517 1.376 . S
C518 C519 1.388 . S
C519 H506 0.930 . S
C519 C518 1.388 . S
C519 C520 1.390 . S
C520 C519 1.390 . S
C520 C521 1.394 . S
C520 C526 1.465 . S
C521 C516 1.399 . S
C521 C520 1.394 . S
C521 C522 1.516 . S
C522 C521 1.516 . S
C522 C523 1.502 . S
C522 C524 1.561 . S
C522 C525 1.526 . S
C523 H507 0.959 . S
C523 H508 0.959 . S
C523 H509 0.961 . S
C523 C522 1.502 . S
C524 H510 0.960 . S
C524 H511 0.961 . S
C524 H512 0.959 . S
C524 C522 1.561 . S
C525 C522 1.526 . S
C525 C526 1.396 . S
C525 C530 1.390 . S
C526 C520 1.465 . S
C526 C525 1.396 . S
C526 C527 1.399 . S
C527 H513 0.929 . S
C527 C526 1.399 . S
C527 C528 1.385 . S
C528 H514 0.931 . S
C528 C527 1.385 . S
C528 C529 1.389 . S
C529 C528 1.389 . S
C529 C530 1.387 . S
C530 H515 0.930 . S
C530 C525 1.390 . S
C530 C529 1.387 . S
H531 C543 0.930 . S
H532 C545 0.930 . S
H533 C546 0.930 . S
H534 C550 0.959 . S
H535 C550 0.959 . S
H536 C550 0.961 . S
H537 C551 0.960 . S
H538 C551 0.961 . S
H539 C551 0.959 . S
H540 C554 0.929 . S
H541 C555 0.931 . S
H542 C557 0.930 . S
C543 H531 0.930 . S
C543 C544 1.399 . S
C543 C548 1.399 . S
C544 C543 1.399 . S
C544 C545 1.376 . S
C545 H532 0.930 . S
C545 C544 1.376 . S
C545 C546 1.388 . S
C546 H533 0.930 . S
C546 C545 1.388 . S
C546 C547 1.390 . S
C547 C546 1.390 . S
C547 C548 1.394 . S
C547 C553 1.465 . S
C548 C543 1.399 . S
C548 C547 1.394 . S
C548 C549 1.516 . S
C549 C548 1.516 . S
C549 C550 1.502 . S
C549 C551 1.561 . S
C549 C552 1.526 . S
C550 H534 0.959 . S
C550 H535 0.959 . S
C550 H536 0.961 . S
C550 C549 1.502 . S
C551 H537 0.960 . S
C551 H538 0.961 . S
C551 H539 0.959 . S
C551 C549 1.561 . S
C552 C549 1.526 . S
C552 C553 1.396 . S
C552 C557 1.390 . S
C553 C547 1.465 . S
C553 C552 1.396 . S
C553 C554 1.399 . S
C554 H540 0.929 . S
C554 C553 1.399 . S
C554 C555 1.385 . S
C555 H541 0.931 . S
C555 C554 1.385 . S
C555 C556 1.389 . S
C556 C555 1.389 . S
C556 C557 1.387 . S
C557 H542 0.930 . S
C557 C552 1.390 . S
C557 C556 1.387 . S
H558 C570 0.930 . S
H559 C572 0.930 . S
H560 C573 0.930 . S
H561 C577 0.959 . S
H562 C577 0.959 . S
H563 C577 0.961 . S
H564 C578 0.960 . S
H565 C578 0.951 1_455 S
H566 C578 0.959 1_455 S
H567 C581 0.929 . S
H568 C582 0.931 . S
H569 C584 0.930 . S
C570 H558 0.930 . S
C570 C571 1.399 . S
C570 C575 1.399 . S
C571 C570 1.399 . S
C571 C572 1.376 . S
C572 H559 0.930 . S
C572 C571 1.376 . S
C572 C573 1.388 . S
C573 H560 0.930 . S
C573 C572 1.388 . S
C573 C574 1.390 . S
C574 C573 1.390 . S
C574 C575 1.394 . S
C574 C580 1.465 . S
C575 C570 1.399 . S
C575 C574 1.394 . S
C575 C576 1.516 . S
C576 C575 1.516 . S
C576 C577 1.502 . S
C576 C578 1.561 . S
C576 C579 1.526 . S
C577 H561 0.959 . S
C577 H562 0.959 . S
C577 H563 0.961 . S
C577 C576 1.502 . S
C578 H564 0.960 . S
C578 H565 0.951 1_655 S
C578 H566 0.959 1_655 S
C578 C576 1.561 . S
C579 C576 1.526 . S
C579 C580 1.396 . S
C579 C584 1.390 . S
C580 C574 1.465 . S
C580 C579 1.396 . S
C580 C581 1.399 . S
C581 H567 0.929 . S
C581 C580 1.399 . S
C581 C582 1.385 . S
C582 H568 0.931 . S
C582 C581 1.385 . S
C582 C583 1.389 . S
C583 C582 1.389 . S
C583 C584 1.387 . S
C584 H569 0.930 . S
C584 C579 1.390 . S
C584 C583 1.387 . S
H585 C597 0.930 . S
H586 C599 0.930 . S
H587 C600 0.930 . S
H588 C604 0.959 . S
H589 C604 0.959 . S
H590 C604 0.961 . S
H591 C605 0.960 . S
H592 C605 0.961 . S
H593 C605 0.959 . S
H594 C608 0.929 . S
H595 C609 0.931 . S
H596 C611 0.930 . S
C597 H585 0.930 . S
C597 C598 1.399 . S
C597 C602 1.399 . S
C598 C597 1.399 . S
C598 C599 1.376 . S
C599 H586 0.930 . S
C599 C598 1.376 . S
C599 C600 1.388 . S
C600 H587 0.930 . S
C600 C599 1.388 . S
C600 C601 1.390 . S
C601 C600 1.390 . S
C601 C602 1.394 . S
C601 C607 1.465 . S
C602 C597 1.399 . S
C602 C601 1.394 . S
C602 C603 1.516 . S
C603 C602 1.516 . S
C603 C604 1.502 . S
C603 C605 1.561 . S
C603 C606 1.526 . S
C604 H588 0.959 . S
C604 H589 0.959 . S
C604 H590 0.961 . S
C604 C603 1.502 . S
C605 H591 0.960 . S
C605 H592 0.961 . S
C605 H593 0.959 . S
C605 C603 1.561 . S
C606 C603 1.526 . S
C606 C607 1.396 . S
C606 C611 1.390 . S
C607 C601 1.465 . S
C607 C606 1.396 . S
C607 C608 1.399 . S
C608 H594 0.929 . S
C608 C607 1.399 . S
C608 C609 1.385 . S
C609 H595 0.931 . S
C609 C608 1.385 . S
C609 C610 1.389 . S
C610 C609 1.389 . S
C610 C611 1.387 . S
C611 H596 0.930 . S
C611 C606 1.390 . S
C611 C610 1.387 . S
H612 C624 0.930 . S
H613 C626 0.930 1_565 S
H614 C627 0.930 . S
H615 C631 0.959 . S
H616 C631 0.959 . S
H617 C631 0.961 . S
H618 C632 0.960 . S
H619 C632 0.961 . S
H620 C632 0.959 . S
H621 C635 0.929 . S
H622 C636 0.931 . S
H623 C638 0.930 . S
C624 H612 0.930 . S
C624 C625 1.399 . S
C624 C629 1.399 . S
C625 C624 1.399 . S
C625 C626 1.376 . S
C626 H613 0.930 1_545 S
C626 C625 1.376 . S
C626 C627 1.388 . S
C627 H614 0.930 . S
C627 C626 1.388 . S
C627 C628 1.390 . S
C628 C627 1.390 . S
C628 C629 1.394 . S
C628 C634 1.465 . S
C629 C624 1.399 . S
C629 C628 1.394 . S
C629 C630 1.516 . S
C630 C629 1.516 . S
C630 C631 1.502 . S
C630 C632 1.561 . S
C630 C633 1.526 . S
C631 H615 0.959 . S
C631 H616 0.959 . S
C631 H617 0.961 . S
C631 C630 1.502 . S
C632 H618 0.960 . S
C632 H619 0.961 . S
C632 H620 0.959 . S
C632 C630 1.561 . S
C633 C630 1.526 . S
C633 C634 1.396 . S
C633 C638 1.390 . S
C634 C628 1.465 . S
C634 C633 1.396 . S
C634 C635 1.399 . S
C635 H621 0.929 . S
C635 C634 1.399 . S
C635 C636 1.385 . S
C636 H622 0.931 . S
C636 C635 1.385 . S
C636 C637 1.389 . S
C637 C636 1.389 . S
C637 C638 1.387 . S
C638 H623 0.930 . S
C638 C633 1.390 . S
C638 C637 1.387 . S
H639 C651 0.930 . S
H640 C653 0.930 . S
H641 C654 0.930 . S
H642 C658 0.959 . S
H643 C658 0.959 . S
H644 C658 0.961 . S
H645 C659 0.960 . S
H646 C659 0.964 . S
H647 C659 0.958 1_565 S
H648 C662 0.929 . S
H649 C663 0.931 . S
H650 C665 0.930 1_545 S
C651 H639 0.930 . S
C651 C652 1.399 . S
C651 C656 1.399 . S
C652 C651 1.399 . S
C652 C653 1.376 . S
C653 H640 0.930 . S
C653 C652 1.376 . S
C653 C654 1.388 . S
C654 H641 0.930 . S
C654 C653 1.388 . S
C654 C655 1.390 . S
C655 C654 1.390 . S
C655 C656 1.394 . S
C655 C661 1.465 . S
C656 C651 1.399 . S
C656 C655 1.394 . S
C656 C657 1.516 . S
C657 C656 1.516 . S
C657 C658 1.502 1_565 S
C657 C659 1.560 1_565 S
C657 C660 1.526 . S
C658 H642 0.959 . S
C658 H643 0.959 . S
C658 H644 0.961 . S
C658 C657 1.502 1_545 S
C659 H645 0.960 . S
C659 H646 0.964 . S
C659 H647 0.958 1_545 S
C659 C657 1.560 1_545 S
C660 C657 1.526 . S
C660 C661 1.396 . S
C660 C665 1.390 . S
C661 C655 1.465 . S
C661 C660 1.396 . S
C661 C662 1.399 . S
C662 H648 0.929 . S
C662 C661 1.399 . S
C662 C663 1.385 . S
C663 H649 0.931 . S
C663 C662 1.385 . S
C663 C664 1.389 . S
C664 C663 1.389 . S
C664 C665 1.387 . S
C665 H650 0.930 1_565 S
C665 C660 1.390 . S
C665 C664 1.387 . S
H666 C678 0.930 . S
H667 C680 0.930 . S
H668 C681 0.930 . S
H669 C685 0.959 . S
H670 C685 0.959 . S
H671 C685 0.961 . S
H672 C686 0.960 . S
H673 C686 0.961 . S
H674 C686 0.959 . S
H675 C689 0.929 . S
H676 C690 0.931 . S
H677 C692 0.930 . S
C678 H666 0.930 . S
C678 C679 1.399 . S
C678 C683 1.399 . S
C679 C678 1.399 . S
C679 C680 1.376 . S
C680 H667 0.930 . S
C680 C679 1.376 . S
C680 C681 1.388 . S
C681 H668 0.930 . S
C681 C680 1.388 . S
C681 C682 1.390 . S
C682 C681 1.390 . S
C682 C683 1.394 . S
C682 C688 1.465 . S
C683 C678 1.399 . S
C683 C682 1.394 . S
C683 C684 1.516 . S
C684 C683 1.516 . S
C684 C685 1.502 . S
C684 C686 1.561 . S
C684 C687 1.526 . S
C685 H669 0.959 . S
C685 H670 0.959 . S
C685 H671 0.961 . S
C685 C684 1.502 . S
C686 H672 0.960 . S
C686 H673 0.961 . S
C686 H674 0.959 . S
C686 C684 1.561 . S
C687 C684 1.526 . S
C687 C688 1.396 . S
C687 C692 1.390 . S
C688 C682 1.465 . S
C688 C687 1.396 . S
C688 C689 1.399 . S
C689 H675 0.929 . S
C689 C688 1.399 . S
C689 C690 1.385 . S
C690 H676 0.931 . S
C690 C689 1.385 . S
C690 C691 1.389 . S
C691 C690 1.389 . S
C691 C692 1.387 . S
C692 H677 0.930 . S
C692 C687 1.390 . S
C692 C691 1.387 . S
H693 C705 0.930 . S
H694 C707 0.930 . S
H695 C708 0.930 . S
H696 C712 0.959 . S
H697 C712 0.959 . S
H698 C712 0.961 . S
H699 C713 0.960 . S
H700 C713 0.961 . S
H701 C713 0.959 . S
H702 C716 0.929 . S
H703 C717 0.931 . S
H704 C719 0.930 . S
C705 H693 0.930 . S
C705 C706 1.399 . S
C705 C710 1.399 . S
C706 C705 1.399 . S
C706 C707 1.376 . S
C707 H694 0.930 . S
C707 C706 1.376 . S
C707 C708 1.388 . S
C708 H695 0.930 . S
C708 C707 1.388 . S
C708 C709 1.390 . S
C709 C708 1.390 . S
C709 C710 1.394 . S
C709 C715 1.465 . S
C710 C705 1.399 . S
C710 C709 1.394 . S
C710 C711 1.516 . S
C711 C710 1.516 . S
C711 C712 1.502 . S
C711 C713 1.561 . S
C711 C714 1.526 . S
C712 H696 0.959 . S
C712 H697 0.959 . S
C712 H698 0.961 . S
C712 C711 1.502 . S
C713 H699 0.960 . S
C713 H700 0.961 . S
C713 H701 0.959 . S
C713 C711 1.561 . S
C714 C711 1.526 . S
C714 C715 1.396 . S
C714 C719 1.390 . S
C715 C709 1.465 . S
C715 C714 1.396 . S
C715 C716 1.399 . S
C716 H702 0.929 . S
C716 C715 1.399 . S
C716 C717 1.385 . S
C717 H703 0.931 . S
C717 C716 1.385 . S
C717 C718 1.389 . S
C718 C717 1.389 . S
C718 C719 1.387 . S
C719 H704 0.930 . S
C719 C714 1.390 . S
C719 C718 1.387 . S
H720 C732 0.930 . S
H721 C734 0.930 . S
H722 C735 0.930 . S
H723 C739 0.959 . S
H724 C739 0.959 . S
H725 C739 0.961 . S
H726 C740 0.960 . S
H727 C740 0.961 . S
H728 C740 0.959 . S
H729 C743 0.929 . S
H730 C744 0.931 . S
H731 C746 0.930 . S
C732 H720 0.930 . S
C732 C733 1.399 . S
C732 C737 1.399 . S
C733 C732 1.399 . S
C733 C734 1.376 . S
C734 H721 0.930 . S
C734 C733 1.376 . S
C734 C735 1.388 . S
C735 H722 0.930 . S
C735 C734 1.388 . S
C735 C736 1.390 . S
C736 C735 1.390 . S
C736 C737 1.394 . S
C736 C742 1.465 . S
C737 C732 1.399 . S
C737 C736 1.394 . S
C737 C738 1.516 . S
C738 C737 1.516 . S
C738 C739 1.502 . S
C738 C740 1.561 . S
C738 C741 1.526 . S
C739 H723 0.959 . S
C739 H724 0.959 . S
C739 H725 0.961 . S
C739 C738 1.502 . S
C740 H726 0.960 . S
C740 H727 0.961 . S
C740 H728 0.959 . S
C740 C738 1.561 . S
C741 C738 1.526 . S
C741 C742 1.396 . S
C741 C746 1.390 . S
C742 C736 1.465 . S
C742 C741 1.396 . S
C742 C743 1.399 . S
C743 H729 0.929 . S
C743 C742 1.399 . S
C743 C744 1.385 . S
C744 H730 0.931 . S
C744 C743 1.385 . S
C744 C745 1.389 . S
C745 C744 1.389 . S
C745 C746 1.387 . S
C746 H731 0.930 . S
C746 C741 1.390 . S
C746 C745 1.387 . S
H747 C759 0.930 . S
H748 C761 0.930 . S
H749 C762 0.930 . S
H750 C766 0.959 . S
H751 C766 0.959 . S
H752 C766 0.961 . S
H753 C767 0.960 . S
H754 C767 0.961 . S
H755 C767 0.959 . S
H756 C770 0.929 . S
H757 C771 0.931 . S
H758 C773 0.930 . S
C759 H747 0.930 . S
C759 C760 1.399 . S
C759 C764 1.399 . S
C760 C759 1.399 . S
C760 C761 1.376 . S
C761 H748 0.930 . S
C761 C760 1.376 . S
C761 C762 1.388 . S
C762 H749 0.930 . S
C762 C761 1.388 . S
C762 C763 1.390 . S
C763 C762 1.390 . S
C763 C764 1.394 . S
C763 C769 1.465 . S
C764 C759 1.399 . S
C764 C763 1.394 . S
C764 C765 1.516 . S
C765 C764 1.516 . S
C765 C766 1.502 . S
C765 C767 1.561 . S
C765 C768 1.526 . S
C766 H750 0.959 . S
C766 H751 0.959 . S
C766 H752 0.961 . S
C766 C765 1.502 . S
C767 H753 0.960 . S
C767 H754 0.961 . S
C767 H755 0.959 . S
C767 C765 1.561 . S
C768 C765 1.526 . S
C768 C769 1.396 . S
C768 C773 1.390 . S
C769 C763 1.465 . S
C769 C768 1.396 . S
C769 C770 1.399 . S
C770 H756 0.929 . S
C770 C769 1.399 . S
C770 C771 1.385 . S
C771 H757 0.931 . S
C771 C770 1.385 . S
C771 C772 1.389 . S
C772 C771 1.389 . S
C772 C773 1.387 . S
C773 H758 0.930 . S
C773 C768 1.390 . S
C773 C772 1.387 . S
H774 C786 0.930 . S
H775 C788 0.930 . S
H776 C789 0.930 . S
H777 C793 0.959 . S
H778 C793 0.959 . S
H779 C793 0.961 . S
H780 C794 0.960 . S
H781 C794 0.961 . S
H782 C794 0.959 . S
H783 C797 0.929 . S
H784 C798 0.931 . S
H785 C800 0.930 . S
C786 H774 0.930 . S
C786 C787 1.399 . S
C786 C791 1.399 . S
C787 C786 1.399 . S
C787 C788 1.376 . S
C788 H775 0.930 . S
C788 C787 1.376 . S
C788 C789 1.388 . S
C789 H776 0.930 . S
C789 C788 1.388 . S
C789 C790 1.390 . S
C790 C789 1.390 . S
C790 C791 1.394 . S
C790 C796 1.465 . S
C791 C786 1.399 . S
C791 C790 1.394 . S
C791 C792 1.516 . S
C792 C791 1.516 . S
C792 C793 1.502 . S
C792 C794 1.561 . S
C792 C795 1.526 . S
C793 H777 0.959 . S
C793 H778 0.959 . S
C793 H779 0.961 . S
C793 C792 1.502 . S
C794 H780 0.960 . S
C794 H781 0.961 . S
C794 H782 0.959 . S
C794 C792 1.561 . S
C795 C792 1.526 . S
C795 C796 1.396 . S
C795 C800 1.390 . S
C796 C790 1.465 . S
C796 C795 1.396 . S
C796 C797 1.399 . S
C797 H783 0.929 . S
C797 C796 1.399 . S
C797 C798 1.385 . S
C798 H784 0.931 . S
C798 C797 1.385 . S
C798 C799 1.389 . S
C799 C798 1.389 . S
C799 C800 1.387 . S
C800 H785 0.930 . S
C800 C795 1.390 . S
C800 C799 1.387 . S
H801 C813 0.930 . S
H802 C815 0.930 . S
H803 C816 0.930 . S
H804 C820 0.959 . S
H805 C820 0.959 . S
H806 C820 0.961 . S
H807 C821 0.960 . S
H808 C821 0.961 . S
H809 C821 0.959 . S
H810 C824 0.929 . S
H811 C825 0.931 . S
H812 C827 0.930 . S
C813 H801 0.930 . S
C813 C814 1.399 . S
C813 C818 1.399 . S
C814 C813 1.399 . S
C814 C815 1.376 . S
C815 H802 0.930 . S
C815 C814 1.376 . S
C815 C816 1.388 . S
C816 H803 0.930 . S
C816 C815 1.388 . S
C816 C817 1.390 . S
C817 C816 1.390 . S
C817 C818 1.394 . S
C817 C823 1.465 . S
C818 C813 1.399 . S
C818 C817 1.394 . S
C818 C819 1.516 . S
C819 C818 1.516 . S
C819 C820 1.502 . S
C819 C821 1.561 . S
C819 C822 1.526 . S
C820 H804 0.959 . S
C820 H805 0.959 . S
C820 H806 0.961 . S
C820 C819 1.502 . S
C821 H807 0.960 . S
C821 H808 0.961 . S
C821 H809 0.959 . S
C821 C819 1.561 . S
C822 C819 1.526 . S
C822 C823 1.396 . S
C822 C827 1.390 . S
C823 C817 1.465 . S
C823 C822 1.396 . S
C823 C824 1.399 . S
C824 H810 0.929 . S
C824 C823 1.399 . S
C824 C825 1.385 . S
C825 H811 0.931 . S
C825 C824 1.385 . S
C825 C826 1.389 . S
C826 C825 1.389 . S
C826 C827 1.387 . S
C827 H812 0.930 . S
C827 C822 1.390 . S
C827 C826 1.387 . S
H828 C840 0.930 . S
H829 C842 0.930 . S
H830 C843 0.930 . S
H831 C847 0.959 . S
H832 C847 0.959 . S
H833 C847 0.961 . S
H834 C848 0.960 . S
H835 C848 0.961 . S
H836 C848 0.959 . S
H837 C851 0.929 . S
H838 C852 0.931 . S
H839 C854 0.930 . S
C840 H828 0.930 . S
C840 C841 1.399 . S
C840 C845 1.399 . S
C841 C840 1.399 . S
C841 C842 1.376 . S
C842 H829 0.930 . S
C842 C841 1.376 . S
C842 C843 1.388 . S
C843 H830 0.930 . S
C843 C842 1.388 . S
C843 C844 1.390 . S
C844 C843 1.390 . S
C844 C845 1.394 . S
C844 C850 1.465 . S
C845 C840 1.399 . S
C845 C844 1.394 . S
C845 C846 1.516 . S
C846 C845 1.516 . S
C846 C847 1.502 . S
C846 C848 1.561 . S
C846 C849 1.526 . S
C847 H831 0.959 . S
C847 H832 0.959 . S
C847 H833 0.961 . S
C847 C846 1.502 . S
C848 H834 0.960 . S
C848 H835 0.961 . S
C848 H836 0.959 . S
C848 C846 1.561 . S
C849 C846 1.526 . S
C849 C850 1.396 . S
C849 C854 1.390 . S
C850 C844 1.465 . S
C850 C849 1.396 . S
C850 C851 1.399 . S
C851 H837 0.929 . S
C851 C850 1.399 . S
C851 C852 1.385 . S
C852 H838 0.931 . S
C852 C851 1.385 . S
C852 C853 1.389 . S
C853 C852 1.389 . S
C853 C854 1.387 . S
C854 H839 0.930 . S
C854 C849 1.390 . S
C854 C853 1.387 . S
H855 C867 0.930 . S
H856 C869 0.930 . S
H857 C870 0.930 . S
H858 C874 0.959 . S
H859 C874 0.959 . S
H860 C874 0.961 . S
H861 C875 0.960 . S
H862 C875 0.961 . S
H863 C875 0.959 . S
H864 C878 0.929 . S
H865 C879 0.931 . S
H866 C881 0.930 . S
C867 H855 0.930 . S
C867 C868 1.399 . S
C867 C872 1.399 . S
C868 C867 1.399 . S
C868 C869 1.376 . S
C869 H856 0.930 . S
C869 C868 1.376 . S
C869 C870 1.388 . S
C870 H857 0.930 . S
C870 C869 1.388 . S
C870 C871 1.390 . S
C871 C870 1.390 . S
C871 C872 1.394 . S
C871 C877 1.465 . S
C872 C867 1.399 . S
C872 C871 1.394 . S
C872 C873 1.516 . S
C873 C872 1.516 . S
C873 C874 1.502 . S
C873 C875 1.561 . S
C873 C876 1.526 . S
C874 H858 0.959 . S
C874 H859 0.959 . S
C874 H860 0.961 . S
C874 C873 1.502 . S
C875 H861 0.960 . S
C875 H862 0.961 . S
C875 H863 0.959 . S
C875 C873 1.561 . S
C876 C873 1.526 . S
C876 C877 1.396 . S
C876 C881 1.390 . S
C877 C871 1.465 . S
C877 C876 1.396 . S
C877 C878 1.399 . S
C878 H864 0.929 . S
C878 C877 1.399 . S
C878 C879 1.385 . S
C879 H865 0.931 . S
C879 C878 1.385 . S
C879 C880 1.389 . S
C880 C879 1.389 . S
C880 C881 1.387 . S
C881 H866 0.930 . S
C881 C876 1.390 . S
C881 C880 1.387 . S
H882 C894 0.930 . S
H883 C896 0.930 . S
H884 C897 0.930 . S
H885 C901 0.959 . S
H886 C901 0.959 . S
H887 C901 0.961 . S
H888 C902 0.960 . S
H889 C902 0.961 . S
H890 C902 0.959 . S
H891 C905 0.929 . S
H892 C906 0.931 . S
H893 C908 0.930 . S
C894 H882 0.930 . S
C894 C895 1.399 . S
C894 C899 1.399 . S
C895 C894 1.399 . S
C895 C896 1.376 . S
C896 H883 0.930 . S
C896 C895 1.376 . S
C896 C897 1.388 . S
C897 H884 0.930 . S
C897 C896 1.388 . S
C897 C898 1.390 . S
C898 C897 1.390 . S
C898 C899 1.394 . S
C898 C904 1.465 . S
C899 C894 1.399 . S
C899 C898 1.394 . S
C899 C900 1.516 . S
C900 C899 1.516 . S
C900 C901 1.502 . S
C900 C902 1.561 . S
C900 C903 1.526 . S
C901 H885 0.959 . S
C901 H886 0.959 . S
C901 H887 0.961 . S
C901 C900 1.502 . S
C902 H888 0.960 . S
C902 H889 0.961 . S
C902 H890 0.959 . S
C902 C900 1.561 . S
C903 C900 1.526 . S
C903 C904 1.396 . S
C903 C908 1.390 . S
C904 C898 1.465 . S
C904 C903 1.396 . S
C904 C905 1.399 . S
C905 H891 0.929 . S
C905 C904 1.399 . S
C905 C906 1.385 . S
C906 H892 0.931 . S
C906 C905 1.385 . S
C906 C907 1.389 . S
C907 C906 1.389 . S
C907 C908 1.387 . S
C908 H893 0.930 . S
C908 C903 1.390 . S
C908 C907 1.387 . S
H909 C921 0.930 . S
H910 C923 0.930 . S
H911 C924 0.930 . S
H912 C928 0.959 . S
H913 C928 0.959 . S
H914 C928 0.961 . S
H915 C929 0.960 . S
H916 C929 0.961 . S
H917 C929 0.959 . S
H918 C932 0.929 . S
H919 C933 0.931 . S
H920 C935 0.930 . S
C921 H909 0.930 . S
C921 C922 1.399 . S
C921 C926 1.399 . S
C922 C921 1.399 . S
C922 C923 1.376 . S
C923 H910 0.930 . S
C923 C922 1.376 . S
C923 C924 1.388 . S
C924 H911 0.930 . S
C924 C923 1.388 . S
C924 C925 1.390 . S
C925 C924 1.390 . S
C925 C926 1.394 . S
C925 C931 1.465 . S
C926 C921 1.399 . S
C926 C925 1.394 . S
C926 C927 1.516 . S
C927 C926 1.516 . S
C927 C928 1.502 . S
C927 C929 1.561 . S
C927 C930 1.526 . S
C928 H912 0.959 . S
C928 H913 0.959 . S
C928 H914 0.961 . S
C928 C927 1.502 . S
C929 H915 0.960 . S
C929 H916 0.961 . S
C929 H917 0.959 . S
C929 C927 1.561 . S
C930 C927 1.526 . S
C930 C931 1.396 . S
C930 C935 1.390 . S
C931 C925 1.465 . S
C931 C930 1.396 . S
C931 C932 1.399 . S
C932 H918 0.929 . S
C932 C931 1.399 . S
C932 C933 1.385 . S
C933 H919 0.931 . S
C933 C932 1.385 . S
C933 C934 1.389 . S
C934 C933 1.389 . S
C934 C935 1.387 . S
C935 H920 0.930 . S
C935 C930 1.390 . S
C935 C934 1.387 . S
H936 C948 0.930 . S
H937 C950 0.930 . S
H938 C951 0.930 . S
H939 C955 0.959 . S
H940 C955 0.959 . S
H941 C955 0.961 . S
H942 C956 0.960 . S
H943 C956 0.961 . S
H944 C956 0.959 . S
H945 C959 0.929 . S
H946 C960 0.931 . S
H947 C962 0.930 . S
C948 H936 0.930 . S
C948 C949 1.399 . S
C948 C953 1.399 . S
C949 C948 1.399 . S
C949 C950 1.376 . S
C950 H937 0.930 . S
C950 C949 1.376 . S
C950 C951 1.388 . S
C951 H938 0.930 . S
C951 C950 1.388 . S
C951 C952 1.390 . S
C952 C951 1.390 . S
C952 C953 1.394 . S
C952 C958 1.465 . S
C953 C948 1.399 . S
C953 C952 1.394 . S
C953 C954 1.516 . S
C954 C953 1.516 . S
C954 C955 1.502 . S
C954 C956 1.561 . S
C954 C957 1.526 . S
C955 H939 0.959 . S
C955 H940 0.959 . S
C955 H941 0.961 . S
C955 C954 1.502 . S
C956 H942 0.960 . S
C956 H943 0.961 . S
C956 H944 0.959 . S
C956 C954 1.561 . S
C957 C954 1.526 . S
C957 C958 1.396 . S
C957 C962 1.390 . S
C958 C952 1.465 . S
C958 C957 1.396 . S
C958 C959 1.399 . S
C959 H945 0.929 . S
C959 C958 1.399 . S
C959 C960 1.385 . S
C960 H946 0.931 . S
C960 C959 1.385 . S
C960 C961 1.389 . S
C961 C960 1.389 . S
C961 C962 1.387 . S
C962 H947 0.930 . S
C962 C957 1.390 . S
C962 C961 1.387 . S
H963 C975 0.930 . S
H964 C977 0.930 . S
H965 C978 0.930 . S
H966 C982 0.959 . S
H967 C982 0.959 . S
H968 C982 0.961 . S
H969 C983 0.960 . S
H970 C983 0.961 . S
H971 C983 0.959 . S
H972 C986 0.929 . S
H973 C987 0.931 . S
H974 C989 0.930 . S
C975 H963 0.930 . S
C975 C976 1.399 1_556 S
C975 C980 1.399 . S
C976 C975 1.399 1_554 S
C976 C977 1.376 . S
C977 H964 0.930 . S
C977 C976 1.376 . S
C977 C978 1.388 . S
C978 H965 0.930 . S
C978 C977 1.388 . S
C978 C979 1.390 . S
C979 C978 1.390 . S
C979 C980 1.394 1_554 S
C979 C985 1.465 1_554 S
C980 C975 1.399 . S
C980 C979 1.394 1_556 S
C980 C981 1.516 . S
C981 C980 1.516 . S
C981 C982 1.502 . S
C981 C983 1.561 . S
C981 C984 1.526 . S
C982 H966 0.959 . S
C982 H967 0.959 . S
C982 H968 0.961 . S
C982 C981 1.502 . S
C983 H969 0.960 . S
C983 H970 0.961 . S
C983 H971 0.959 . S
C983 C981 1.561 . S
C984 C981 1.526 . S
C984 C985 1.396 . S
C984 C989 1.390 . S
C985 C979 1.465 1_556 S
C985 C984 1.396 . S
C985 C986 1.399 1_556 S
C986 H972 0.929 . S
C986 C985 1.399 1_554 S
C986 C987 1.385 1_554 S
C987 H973 0.931 . S
C987 C986 1.385 1_556 S
C987 C988 1.389 . S
C988 C987 1.389 . S
C988 C989 1.387 . S
C989 H974 0.930 . S
C989 C984 1.390 . S
C989 C988 1.387 . S
H990 C1002 0.930 . S
H991 C1004 0.930 . S
H992 C1005 0.930 . S
H993 C1009 0.959 . S
H994 C1009 0.959 . S
H995 C1009 0.961 . S
H996 C1010 0.960 . S
H997 C1010 0.961 . S
H998 C1010 0.959 . S
H999 C1013 0.929 . S
H1000 C1014 0.931 . S
H1001 C1016 0.930 . S
C1002 H990 0.930 . S
C1002 C1003 1.399 . S
C1002 C1007 1.399 . S
C1003 C1002 1.399 . S
C1003 C1004 1.376 1_554 S
C1004 H991 0.930 . S
C1004 C1003 1.376 1_556 S
C1004 C1005 1.388 . S
C1005 H992 0.930 . S
C1005 C1004 1.388 . S
C1005 C1006 1.390 . S
C1006 C1005 1.390 . S
C1006 C1007 1.394 1_556 S
C1006 C1012 1.465 . S
C1007 C1002 1.399 . S
C1007 C1006 1.394 1_554 S
C1007 C1008 1.516 . S
C1008 C1007 1.516 . S
C1008 C1009 1.502 . S
C1008 C1010 1.561 . S
C1008 C1011 1.526 1_554 S
C1009 H993 0.959 . S
C1009 H994 0.959 . S
C1009 H995 0.961 . S
C1009 C1008 1.502 . S
C1010 H996 0.960 . S
C1010 H997 0.961 . S
C1010 H998 0.959 . S
C1010 C1008 1.561 . S
C1011 C1008 1.526 1_556 S
C1011 C1012 1.396 . S
C1011 C1016 1.390 . S
C1012 C1006 1.465 . S
C1012 C1011 1.396 . S
C1012 C1013 1.399 . S
C1013 H999 0.929 . S
C1013 C1012 1.399 . S
C1013 C1014 1.385 . S
C1014 H1000 0.931 . S
C1014 C1013 1.385 . S
C1014 C1015 1.389 . S
C1015 C1014 1.389 . S
C1015 C1016 1.387 . S
C1016 H1001 0.930 . S
C1016 C1011 1.390 . S
C1016 C1015 1.387 . S
H1017 C1029 0.930 . S
H1018 C1031 0.935 . S
H1019 C1032 0.930 . S
H1020 C1036 0.959 1_556 S
H1021 C1036 0.959 . S
H1022 C1036 0.961 . S
H1023 C1037 0.960 . S
H1024 C1037 0.961 . S
H1025 C1037 0.959 . S
H1026 C1040 0.929 . S
H1027 C1041 0.931 . S
H1028 C1043 0.930 . S
C1029 H1017 0.930 . S
C1029 C1030 1.399 . S
C1029 C1034 1.399 . S
C1030 C1029 1.399 . S
C1030 C1031 1.376 . S
C1031 H1018 0.935 . S
C1031 C1030 1.376 . S
C1031 C1032 1.388 1_554 S
C1032 H1019 0.930 . S
C1032 C1031 1.388 1_556 S
C1032 C1033 1.390 . S
C1033 C1032 1.390 . S
C1033 C1034 1.394 1_556 S
C1033 C1039 1.465 . S
C1034 C1029 1.399 . S
C1034 C1033 1.394 1_554 S
C1034 C1035 1.516 . S
C1035 C1034 1.516 . S
C1035 C1036 1.502 . S
C1035 C1037 1.561 . S
C1035 C1038 1.526 1_554 S
C1036 H1020 0.959 1_554 S
C1036 H1021 0.959 . S
C1036 H1022 0.961 . S
C1036 C1035 1.502 . S
C1037 H1023 0.960 . S
C1037 H1024 0.961 . S
C1037 H1025 0.959 . S
C1037 C1035 1.561 . S
C1038 C1035 1.526 1_556 S
C1038 C1039 1.396 . S
C1038 C1043 1.390 . S
C1039 C1033 1.465 . S
C1039 C1038 1.396 . S
C1039 C1040 1.399 . S
C1040 H1026 0.929 . S
C1040 C1039 1.399 . S
C1040 C1041 1.385 . S
C1041 H1027 0.931 . S
C1041 C1040 1.385 . S
C1041 C1042 1.389 . S
C1042 C1041 1.389 . S
C1042 C1043 1.387 . S
C1043 H1028 0.930 . S
C1043 C1038 1.390 . S
C1043 C1042 1.387 . S
H1044 C1056 0.930 . S
H1045 C1058 0.930 . S
H1046 C1059 0.930 . S
H1047 C1063 0.959 . S
H1048 C1063 0.959 . S
H1049 C1063 0.961 . S
H1050 C1064 0.960 . S
H1051 C1064 0.961 . S
H1052 C1064 0.959 . S
H1053 C1067 0.929 . S
H1054 C1068 0.931 . S
H1055 C1070 0.930 . S
C1056 H1044 0.930 . S
C1056 C1057 1.399 . S
C1056 C1061 1.399 . S
C1057 C1056 1.399 . S
C1057 C1058 1.376 . S
C1058 H1045 0.930 . S
C1058 C1057 1.376 . S
C1058 C1059 1.388 . S
C1059 H1046 0.930 . S
C1059 C1058 1.388 . S
C1059 C1060 1.390 . S
C1060 C1059 1.390 . S
C1060 C1061 1.394 . S
C1060 C1066 1.465 . S
C1061 C1056 1.399 . S
C1061 C1060 1.394 . S
C1061 C1062 1.516 . S
C1062 C1061 1.516 . S
C1062 C1063 1.502 . S
C1062 C1064 1.561 . S
C1062 C1065 1.526 . S
C1063 H1047 0.959 . S
C1063 H1048 0.959 . S
C1063 H1049 0.961 . S
C1063 C1062 1.502 . S
C1064 H1050 0.960 . S
C1064 H1051 0.961 . S
C1064 H1052 0.959 . S
C1064 C1062 1.561 . S
C1065 C1062 1.526 . S
C1065 C1066 1.396 . S
C1065 C1070 1.390 . S
C1066 C1060 1.465 . S
C1066 C1065 1.396 . S
C1066 C1067 1.399 . S
C1067 H1053 0.929 . S
C1067 C1066 1.399 . S
C1067 C1068 1.385 . S
C1068 H1054 0.931 . S
C1068 C1067 1.385 . S
C1068 C1069 1.389 . S
C1069 C1068 1.389 . S
C1069 C1070 1.387 . S
C1070 H1055 0.930 . S
C1070 C1065 1.390 . S
C1070 C1069 1.387 . S
H1071 C1083 0.930 . S
H1072 C1085 0.930 . S
H1073 C1086 0.930 . S
H1074 C1090 0.959 . S
H1075 C1090 0.959 . S
H1076 C1090 0.961 . S
H1077 C1091 0.960 . S
H1078 C1091 0.961 . S
H1079 C1091 0.959 . S
H1080 C1094 0.929 . S
H1081 C1095 0.931 . S
H1082 C1097 0.930 . S
C1083 H1071 0.930 . S
C1083 C1084 1.399 . S
C1083 C1088 1.399 . S
C1084 C1083 1.399 . S
C1084 C1085 1.376 . S
C1085 H1072 0.930 . S
C1085 C1084 1.376 . S
C1085 C1086 1.388 . S
C1086 H1073 0.930 . S
C1086 C1085 1.388 . S
C1086 C1087 1.390 . S
C1087 C1086 1.390 . S
C1087 C1088 1.394 . S
C1087 C1093 1.465 . S
C1088 C1083 1.399 . S
C1088 C1087 1.394 . S
C1088 C1089 1.516 . S
C1089 C1088 1.516 . S
C1089 C1090 1.502 . S
C1089 C1091 1.561 . S
C1089 C1092 1.526 . S
C1090 H1074 0.959 . S
C1090 H1075 0.959 . S
C1090 H1076 0.961 . S
C1090 C1089 1.502 . S
C1091 H1077 0.960 . S
C1091 H1078 0.961 . S
C1091 H1079 0.959 . S
C1091 C1089 1.561 . S
C1092 C1089 1.526 . S
C1092 C1093 1.396 . S
C1092 C1097 1.390 . S
C1093 C1087 1.465 . S
C1093 C1092 1.396 . S
C1093 C1094 1.399 . S
C1094 H1080 0.929 . S
C1094 C1093 1.399 . S
C1094 C1095 1.385 . S
C1095 H1081 0.931 . S
C1095 C1094 1.385 . S
C1095 C1096 1.389 . S
C1096 C1095 1.389 . S
C1096 C1097 1.387 . S
C1097 H1082 0.930 . S
C1097 C1092 1.390 . S
C1097 C1096 1.387 . S
H1098 C1110 0.930 . S
H1099 C1112 0.930 . S
H1100 C1113 0.930 . S
H1101 C1117 0.959 . S
H1102 C1117 0.959 . S
H1103 C1117 0.961 . S
H1104 C1118 0.960 . S
H1105 C1118 0.961 . S
H1106 C1118 0.959 . S
H1107 C1121 0.929 . S
H1108 C1122 0.931 . S
H1109 C1124 0.930 . S
C1110 H1098 0.930 . S
C1110 C1111 1.399 . S
C1110 C1115 1.399 . S
C1111 C1110 1.399 . S
C1111 C1112 1.376 . S
C1112 H1099 0.930 . S
C1112 C1111 1.376 . S
C1112 C1113 1.388 . S
C1113 H1100 0.930 . S
C1113 C1112 1.388 . S
C1113 C1114 1.390 . S
C1114 C1113 1.390 . S
C1114 C1115 1.394 . S
C1114 C1120 1.465 . S
C1115 C1110 1.399 . S
C1115 C1114 1.394 . S
C1115 C1116 1.516 . S
C1116 C1115 1.516 . S
C1116 C1117 1.502 . S
C1116 C1118 1.561 . S
C1116 C1119 1.526 . S
C1117 H1101 0.959 . S
C1117 H1102 0.959 . S
C1117 H1103 0.961 . S
C1117 C1116 1.502 . S
C1118 H1104 0.960 . S
C1118 H1105 0.961 . S
C1118 H1106 0.959 . S
C1118 C1116 1.561 . S
C1119 C1116 1.526 . S
C1119 C1120 1.396 . S
C1119 C1124 1.390 . S
C1120 C1114 1.465 . S
C1120 C1119 1.396 . S
C1120 C1121 1.399 . S
C1121 H1107 0.929 . S
C1121 C1120 1.399 . S
C1121 C1122 1.385 . S
C1122 H1108 0.931 . S
C1122 C1121 1.385 . S
C1122 C1123 1.389 . S
C1123 C1122 1.389 . S
C1123 C1124 1.387 . S
C1124 H1109 0.930 . S
C1124 C1119 1.390 . S
C1124 C1123 1.387 . S
H1125 C1137 0.930 . S
H1126 C1139 0.930 . S
H1127 C1140 0.930 . S
H1128 C1144 0.959 . S
H1129 C1144 0.959 . S
H1130 C1144 0.961 1_556 S
H1131 C1145 0.960 . S
H1132 C1145 0.961 . S
H1133 C1145 0.959 . S
H1134 C1148 0.929 . S
H1135 C1149 0.931 . S
H1136 C1151 0.930 . S
C1137 H1125 0.930 . S
C1137 C1138 1.399 . S
C1137 C1142 1.399 . S
C1138 C1137 1.399 . S
C1138 C1139 1.376 . S
C1139 H1126 0.930 . S
C1139 C1138 1.376 . S
C1139 C1140 1.388 1_556 S
C1140 H1127 0.930 . S
C1140 C1139 1.388 1_554 S
C1140 C1141 1.390 . S
C1141 C1140 1.390 . S
C1141 C1142 1.394 1_554 S
C1141 C1147 1.465 . S
C1142 C1137 1.399 . S
C1142 C1141 1.394 1_556 S
C1142 C1143 1.516 . S
C1143 C1142 1.516 . S
C1143 C1144 1.502 1_556 S
C1143 C1145 1.561 . S
C1143 C1146 1.526 1_556 S
C1144 H1128 0.959 . S
C1144 H1129 0.959 . S
C1144 H1130 0.961 1_554 S
C1144 C1143 1.502 1_554 S
C1145 H1131 0.960 . S
C1145 H1132 0.961 . S
C1145 H1133 0.959 . S
C1145 C1143 1.561 . S
C1146 C1143 1.526 1_554 S
C1146 C1147 1.396 . S
C1146 C1151 1.390 . S
C1147 C1141 1.465 . S
C1147 C1146 1.396 . S
C1147 C1148 1.399 . S
C1148 H1134 0.929 . S
C1148 C1147 1.399 . S
C1148 C1149 1.385 . S
C1149 H1135 0.931 . S
C1149 C1148 1.385 . S
C1149 C1150 1.389 . S
C1150 C1149 1.389 . S
C1150 C1151 1.387 . S
C1151 H1136 0.930 . S
C1151 C1146 1.390 . S
C1151 C1150 1.387 . S
H1152 C1164 0.930 . S
H1153 C1166 0.930 . S
H1154 C1167 0.930 . S
H1155 C1171 0.959 . S
H1156 C1171 0.959 . S
H1157 C1171 0.961 . S
H1158 C1172 0.960 . S
H1159 C1172 0.961 . S
H1160 C1172 0.959 . S
H1161 C1175 0.929 . S
H1162 C1176 0.931 1_565 S
H1163 C1178 0.930 . S
C1164 H1152 0.930 . S
C1164 C1165 1.399 1_554 S
C1164 C1169 1.399 . S
C1165 C1164 1.399 1_556 S
C1165 C1166 1.376 . S
C1166 H1153 0.930 . S
C1166 C1165 1.376 . S
C1166 C1167 1.388 . S
C1167 H1154 0.930 . S
C1167 C1166 1.388 . S
C1167 C1168 1.390 . S
C1168 C1167 1.390 . S
C1168 C1169 1.394 1_556 S
C1168 C1174 1.465 1_556 S
C1169 C1164 1.399 . S
C1169 C1168 1.394 1_554 S
C1169 C1170 1.516 . S
C1170 C1169 1.516 . S
C1170 C1171 1.502 . S
C1170 C1172 1.561 . S
C1170 C1173 1.526 . S
C1171 H1155 0.959 . S
C1171 H1156 0.959 . S
C1171 H1157 0.961 . S
C1171 C1170 1.502 . S
C1172 H1158 0.960 . S
C1172 H1159 0.961 . S
C1172 H1160 0.959 . S
C1172 C1170 1.561 . S
C1173 C1170 1.526 . S
C1173 C1174 1.396 . S
C1173 C1178 1.390 . S
C1174 C1168 1.465 1_554 S
C1174 C1173 1.396 . S
C1174 C1175 1.399 1_554 S
C1175 H1161 0.929 . S
C1175 C1174 1.399 1_556 S
C1175 C1176 1.385 1_556 S
C1176 H1162 0.931 1_545 S
C1176 C1175 1.385 1_554 S
C1176 C1177 1.389 . S
C1177 C1176 1.389 . S
C1177 C1178 1.387 . S
C1178 H1163 0.930 . S
C1178 C1173 1.390 . S
C1178 C1177 1.387 . S
H1179 C1191 0.930 . S
H1180 C1193 0.930 . S
H1181 C1194 0.930 . S
H1182 C1198 0.959 . S
H1183 C1198 0.959 . S
H1184 C1198 0.961 . S
H1185 C1199 0.960 . S
H1186 C1199 0.961 . S
H1187 C1199 0.959 . S
H1188 C1202 0.929 . S
H1189 C1203 0.931 . S
H1190 C1205 0.930 1_455 S
C1191 H1179 0.930 . S
C1191 C1192 1.399 . S
C1191 C1196 1.399 . S
C1192 C1191 1.399 . S
C1192 C1193 1.376 1_556 S
C1193 H1180 0.930 . S
C1193 C1192 1.376 1_554 S
C1193 C1194 1.388 . S
C1194 H1181 0.930 . S
C1194 C1193 1.388 . S
C1194 C1195 1.390 . S
C1195 C1194 1.390 . S
C1195 C1196 1.394 1_554 S
C1195 C1201 1.465 . S
C1196 C1191 1.399 . S
C1196 C1195 1.394 1_556 S
C1196 C1197 1.516 . S
C1197 C1196 1.516 . S
C1197 C1198 1.502 . S
C1197 C1199 1.561 . S
C1197 C1200 1.526 1_556 S
C1198 H1182 0.959 . S
C1198 H1183 0.959 . S
C1198 H1184 0.961 . S
C1198 C1197 1.502 . S
C1199 H1185 0.960 . S
C1199 H1186 0.961 . S
C1199 H1187 0.959 . S
C1199 C1197 1.561 . S
C1200 C1197 1.526 1_554 S
C1200 C1201 1.396 . S
C1200 C1205 1.390 . S
C1201 C1195 1.465 . S
C1201 C1200 1.396 . S
C1201 C1202 1.399 . S
C1202 H1188 0.929 . S
C1202 C1201 1.399 . S
C1202 C1203 1.385 . S
C1203 H1189 0.931 . S
C1203 C1202 1.385 . S
C1203 C1204 1.389 . S
C1204 C1203 1.389 . S
C1204 C1205 1.387 . S
C1205 H1190 0.930 1_655 S
C1205 C1200 1.390 . S
C1205 C1204 1.387 . S
H1206 C1218 0.930 . S
H1207 C1220 0.930 . S
H1208 C1221 0.930 . S
H1209 C1225 0.959 . S
H1210 C1225 0.959 . S
H1211 C1225 0.961 . S
H1212 C1226 0.960 . S
H1213 C1226 0.961 . S
H1214 C1226 0.959 . S
H1215 C1229 0.929 . S
H1216 C1230 0.931 . S
H1217 C1232 0.930 . S
C1218 H1206 0.930 . S
C1218 C1219 1.399 . S
C1218 C1223 1.399 . S
C1219 C1218 1.399 . S
C1219 C1220 1.376 . S
C1220 H1207 0.930 . S
C1220 C1219 1.376 . S
C1220 C1221 1.388 . S
C1221 H1208 0.930 . S
C1221 C1220 1.388 . S
C1221 C1222 1.390 . S
C1222 C1221 1.390 . S
C1222 C1223 1.394 . S
C1222 C1228 1.465 . S
C1223 C1218 1.399 . S
C1223 C1222 1.394 . S
C1223 C1224 1.516 . S
C1224 C1223 1.516 . S
C1224 C1225 1.502 . S
C1224 C1226 1.561 . S
C1224 C1227 1.526 . S
C1225 H1209 0.959 . S
C1225 H1210 0.959 . S
C1225 H1211 0.961 . S
C1225 C1224 1.502 . S
C1226 H1212 0.960 . S
C1226 H1213 0.961 . S
C1226 H1214 0.959 . S
C1226 C1224 1.561 . S
C1227 C1224 1.526 . S
C1227 C1228 1.396 . S
C1227 C1232 1.390 . S
C1228 C1222 1.465 . S
C1228 C1227 1.396 . S
C1228 C1229 1.399 . S
C1229 H1215 0.929 . S
C1229 C1228 1.399 . S
C1229 C1230 1.385 . S
C1230 H1216 0.931 . S
C1230 C1229 1.385 . S
C1230 C1231 1.389 . S
C1231 C1230 1.389 . S
C1231 C1232 1.387 . S
C1232 H1217 0.930 . S
C1232 C1227 1.390 . S
C1232 C1231 1.387 . S
H1233 C1245 0.930 . S
H1234 C1247 0.930 . S
H1235 C1248 0.930 . S
H1236 C1252 0.959 . S
H1237 C1252 0.959 . S
H1238 C1252 0.961 . S
H1239 C1253 0.960 . S
H1240 C1253 0.961 . S
H1241 C1253 0.959 . S
H1242 C1256 0.929 . S
H1243 C1257 0.931 . S
H1244 C1259 0.930 . S
C1245 H1233 0.930 . S
C1245 C1246 1.399 . S
C1245 C1250 1.399 . S
C1246 C1245 1.399 . S
C1246 C1247 1.376 . S
C1247 H1234 0.930 . S
C1247 C1246 1.376 . S
C1247 C1248 1.388 . S
C1248 H1235 0.930 . S
C1248 C1247 1.388 . S
C1248 C1249 1.390 . S
C1249 C1248 1.390 . S
C1249 C1250 1.394 . S
C1249 C1255 1.465 . S
C1250 C1245 1.399 . S
C1250 C1249 1.394 . S
C1250 C1251 1.516 . S
C1251 C1250 1.516 . S
C1251 C1252 1.502 . S
C1251 C1253 1.561 . S
C1251 C1254 1.526 . S
C1252 H1236 0.959 . S
C1252 H1237 0.959 . S
C1252 H1238 0.961 . S
C1252 C1251 1.502 . S
C1253 H1239 0.960 . S
C1253 H1240 0.961 . S
C1253 H1241 0.959 . S
C1253 C1251 1.561 . S
C1254 C1251 1.526 . S
C1254 C1255 1.396 . S
C1254 C1259 1.390 . S
C1255 C1249 1.465 . S
C1255 C1254 1.396 . S
C1255 C1256 1.399 . S
C1256 H1242 0.929 . S
C1256 C1255 1.399 . S
C1256 C1257 1.385 . S
C1257 H1243 0.931 . S
C1257 C1256 1.385 . S
C1257 C1258 1.389 . S
C1258 C1257 1.389 . S
C1258 C1259 1.387 . S
C1259 H1244 0.930 . S
C1259 C1254 1.390 . S
C1259 C1258 1.387 . S
H1260 C1272 0.930 . S
H1261 C1274 0.930 1_455 S
H1262 C1275 0.930 . S
H1263 C1279 0.959 . S
H1264 C1279 0.959 . S
H1265 C1279 0.961 . S
H1266 C1280 0.960 . S
H1267 C1280 0.961 . S
H1268 C1280 0.959 . S
H1269 C1283 0.929 . S
H1270 C1284 0.931 . S
H1271 C1286 0.930 . S
C1272 H1260 0.930 . S
C1272 C1273 1.399 . S
C1272 C1277 1.399 . S
C1273 C1272 1.399 . S
C1273 C1274 1.376 . S
C1274 H1261 0.930 1_655 S
C1274 C1273 1.376 . S
C1274 C1275 1.389 . S
C1275 H1262 0.930 . S
C1275 C1274 1.389 . S
C1275 C1276 1.390 . S
C1276 C1275 1.390 . S
C1276 C1277 1.394 . S
C1276 C1282 1.465 . S
C1277 C1272 1.399 . S
C1277 C1276 1.394 . S
C1277 C1278 1.516 . S
C1278 C1277 1.516 . S
C1278 C1279 1.502 . S
C1278 C1280 1.561 . S
C1278 C1281 1.526 . S
C1279 H1263 0.959 . S
C1279 H1264 0.959 . S
C1279 H1265 0.961 . S
C1279 C1278 1.502 . S
C1280 H1266 0.960 . S
C1280 H1267 0.961 . S
C1280 H1268 0.959 . S
C1280 C1278 1.561 . S
C1281 C1278 1.526 . S
C1281 C1282 1.396 . S
C1281 C1286 1.390 . S
C1282 C1276 1.465 . S
C1282 C1281 1.396 . S
C1282 C1283 1.399 . S
C1283 H1269 0.929 . S
C1283 C1282 1.399 . S
C1283 C1284 1.385 . S
C1284 H1270 0.931 . S
C1284 C1283 1.385 . S
C1284 C1285 1.389 . S
C1285 C1284 1.389 . S
C1285 C1286 1.387 . S
C1286 H1271 0.930 . S
C1286 C1281 1.390 . S
C1286 C1285 1.387 . S
H1287 C1299 0.930 . S
H1288 C1301 0.930 . S
H1289 C1302 0.930 . S
H1290 C1306 0.959 . S
H1291 C1306 0.959 . S
H1292 C1306 0.961 . S
H1293 C1307 0.960 . S
H1294 C1307 0.961 . S
H1295 C1307 0.959 . S
H1296 C1310 0.929 . S
H1297 C1311 0.931 . S
H1298 C1313 0.930 . S
C1299 H1287 0.930 . S
C1299 C1300 1.399 . S
C1299 C1304 1.399 . S
C1300 C1299 1.399 . S
C1300 C1301 1.376 . S
C1301 H1288 0.930 . S
C1301 C1300 1.376 . S
C1301 C1302 1.388 . S
C1302 H1289 0.930 . S
C1302 C1301 1.388 . S
C1302 C1303 1.390 . S
C1303 C1302 1.390 . S
C1303 C1304 1.394 . S
C1303 C1309 1.465 . S
C1304 C1299 1.399 . S
C1304 C1303 1.394 . S
C1304 C1305 1.516 . S
C1305 C1304 1.516 . S
C1305 C1306 1.502 . S
C1305 C1307 1.561 . S
C1305 C1308 1.526 . S
C1306 H1290 0.959 . S
C1306 H1291 0.959 . S
C1306 H1292 0.961 . S
C1306 C1305 1.502 . S
C1307 H1293 0.960 . S
C1307 H1294 0.961 . S
C1307 H1295 0.959 . S
C1307 C1305 1.561 . S
C1308 C1305 1.526 . S
C1308 C1309 1.396 . S
C1308 C1313 1.390 . S
C1309 C1303 1.465 . S
C1309 C1308 1.396 . S
C1309 C1310 1.399 . S
C1310 H1296 0.929 . S
C1310 C1309 1.399 . S
C1310 C1311 1.385 . S
C1311 H1297 0.931 . S
C1311 C1310 1.385 . S
C1311 C1312 1.389 . S
C1312 C1311 1.389 . S
C1312 C1313 1.387 . S
C1313 H1298 0.930 . S
C1313 C1308 1.390 . S
C1313 C1312 1.387 . S
H1314 C1326 0.930 . S
H1315 C1328 0.930 . S
H1316 C1329 0.930 . S
H1317 C1333 0.959 . S
H1318 C1333 0.959 . S
H1319 C1333 0.961 . S
H1320 C1334 0.960 . S
H1321 C1334 0.961 . S
H1322 C1334 0.959 . S
H1323 C1337 0.929 . S
H1324 C1338 0.931 . S
H1325 C1340 0.930 . S
C1326 H1314 0.930 . S
C1326 C1327 1.399 . S
C1326 C1331 1.399 . S
C1327 C1326 1.399 . S
C1327 C1328 1.376 . S
C1328 H1315 0.930 . S
C1328 C1327 1.376 . S
C1328 C1329 1.388 . S
C1329 H1316 0.930 . S
C1329 C1328 1.388 . S
C1329 C1330 1.390 . S
C1330 C1329 1.390 . S
C1330 C1331 1.394 . S
C1330 C1336 1.465 . S
C1331 C1326 1.399 . S
C1331 C1330 1.394 . S
C1331 C1332 1.516 . S
C1332 C1331 1.516 . S
C1332 C1333 1.502 . S
C1332 C1334 1.561 . S
C1332 C1335 1.526 . S
C1333 H1317 0.959 . S
C1333 H1318 0.959 . S
C1333 H1319 0.961 . S
C1333 C1332 1.502 . S
C1334 H1320 0.960 . S
C1334 H1321 0.961 . S
C1334 H1322 0.959 . S
C1334 C1332 1.561 . S
C1335 C1332 1.526 . S
C1335 C1336 1.396 . S
C1335 C1340 1.390 . S
C1336 C1330 1.465 . S
C1336 C1335 1.396 . S
C1336 C1337 1.399 . S
C1337 H1323 0.929 . S
C1337 C1336 1.399 . S
C1337 C1338 1.385 . S
C1338 H1324 0.931 . S
C1338 C1337 1.385 . S
C1338 C1339 1.389 . S
C1339 C1338 1.389 . S
C1339 C1340 1.387 . S
C1340 H1325 0.930 . S
C1340 C1335 1.390 . S
C1340 C1339 1.387 . S
H1341 C1353 0.930 . S
H1342 C1355 0.930 . S
H1343 C1356 0.930 . S
H1344 C1360 0.959 . S
H1345 C1360 0.959 . S
H1346 C1360 0.961 . S
H1347 C1361 0.960 . S
H1348 C1361 0.961 . S
H1349 C1361 0.959 . S
H1350 C1364 0.929 . S
H1351 C1365 0.931 . S
H1352 C1367 0.930 . S
C1353 H1341 0.930 . S
C1353 C1354 1.399 . S
C1353 C1358 1.399 . S
C1354 C1353 1.399 . S
C1354 C1355 1.376 . S
C1355 H1342 0.930 . S
C1355 C1354 1.376 . S
C1355 C1356 1.388 . S
C1356 H1343 0.930 . S
C1356 C1355 1.388 . S
C1356 C1357 1.390 . S
C1357 C1356 1.390 . S
C1357 C1358 1.394 . S
C1357 C1363 1.465 . S
C1358 C1353 1.399 . S
C1358 C1357 1.394 . S
C1358 C1359 1.516 . S
C1359 C1358 1.516 . S
C1359 C1360 1.502 . S
C1359 C1361 1.561 . S
C1359 C1362 1.526 . S
C1360 H1344 0.959 . S
C1360 H1345 0.959 . S
C1360 H1346 0.961 . S
C1360 C1359 1.502 . S
C1361 H1347 0.960 . S
C1361 H1348 0.961 . S
C1361 H1349 0.959 . S
C1361 C1359 1.561 . S
C1362 C1359 1.526 . S
C1362 C1363 1.396 . S
C1362 C1367 1.390 . S
C1363 C1357 1.465 . S
C1363 C1362 1.396 . S
C1363 C1364 1.399 . S
C1364 H1350 0.929 . S
C1364 C1363 1.399 . S
C1364 C1365 1.385 . S
C1365 H1351 0.931 . S
C1365 C1364 1.385 . S
C1365 C1366 1.389 . S
C1366 C1365 1.389 . S
C1366 C1367 1.387 . S
C1367 H1352 0.930 . S
C1367 C1362 1.390 . S
C1367 C1366 1.387 . S
H1368 C1380 0.930 . S
H1369 C1382 0.930 . S
H1370 C1383 0.930 . S
H1371 C1387 0.959 . S
H1372 C1387 0.959 . S
H1373 C1387 0.961 . S
H1374 C1388 0.960 . S
H1375 C1388 0.961 . S
H1376 C1388 0.959 1_655 S
H1377 C1391 0.929 . S
H1378 C1392 0.931 . S
H1379 C1394 0.930 . S
C1380 H1368 0.930 . S
C1380 C1381 1.399 . S
C1380 C1385 1.399 . S
C1381 C1380 1.399 . S
C1381 C1382 1.376 . S
C1382 H1369 0.930 . S
C1382 C1381 1.376 . S
C1382 C1383 1.388 . S
C1383 H1370 0.930 . S
C1383 C1382 1.388 . S
C1383 C1384 1.390 . S
C1384 C1383 1.390 . S
C1384 C1385 1.394 . S
C1384 C1390 1.465 . S
C1385 C1380 1.399 . S
C1385 C1384 1.394 . S
C1385 C1386 1.516 . S
C1386 C1385 1.516 . S
C1386 C1387 1.502 . S
C1386 C1388 1.561 . S
C1386 C1389 1.526 . S
C1387 H1371 0.959 . S
C1387 H1372 0.959 . S
C1387 H1373 0.961 . S
C1387 C1386 1.502 . S
C1388 H1374 0.960 . S
C1388 H1375 0.961 . S
C1388 H1376 0.959 1_455 S
C1388 C1386 1.561 . S
C1389 C1386 1.526 . S
C1389 C1390 1.396 . S
C1389 C1394 1.390 . S
C1390 C1384 1.465 . S
C1390 C1389 1.396 . S
C1390 C1391 1.399 . S
C1391 H1377 0.929 . S
C1391 C1390 1.399 . S
C1391 C1392 1.385 . S
C1392 H1378 0.931 . S
C1392 C1391 1.385 . S
C1392 C1393 1.389 . S
C1393 C1392 1.389 . S
C1393 C1394 1.387 . S
C1394 H1379 0.930 . S
C1394 C1389 1.390 . S
C1394 C1393 1.387 . S
H1395 C1407 0.930 . S
H1396 C1409 0.930 . S
H1397 C1410 0.930 . S
H1398 C1414 0.959 . S
H1399 C1414 0.959 . S
H1400 C1414 0.961 . S
H1401 C1415 0.960 . S
H1402 C1415 0.961 . S
H1403 C1415 0.959 . S
H1404 C1418 0.929 . S
H1405 C1419 0.931 . S
H1406 C1421 0.930 . S
C1407 H1395 0.930 . S
C1407 C1408 1.399 . S
C1407 C1412 1.399 . S
C1408 C1407 1.399 . S
C1408 C1409 1.376 . S
C1409 H1396 0.930 . S
C1409 C1408 1.376 . S
C1409 C1410 1.388 . S
C1410 H1397 0.930 . S
C1410 C1409 1.388 . S
C1410 C1411 1.390 . S
C1411 C1410 1.390 . S
C1411 C1412 1.394 . S
C1411 C1417 1.465 . S
C1412 C1407 1.399 . S
C1412 C1411 1.394 . S
C1412 C1413 1.516 . S
C1413 C1412 1.516 . S
C1413 C1414 1.502 . S
C1413 C1415 1.561 . S
C1413 C1416 1.526 . S
C1414 H1398 0.959 . S
C1414 H1399 0.959 . S
C1414 H1400 0.961 . S
C1414 C1413 1.502 . S
C1415 H1401 0.960 . S
C1415 H1402 0.961 . S
C1415 H1403 0.959 . S
C1415 C1413 1.561 . S
C1416 C1413 1.526 . S
C1416 C1417 1.396 . S
C1416 C1421 1.390 . S
C1417 C1411 1.465 . S
C1417 C1416 1.396 . S
C1417 C1418 1.399 . S
C1418 H1404 0.929 . S
C1418 C1417 1.399 . S
C1418 C1419 1.385 . S
C1419 H1405 0.931 . S
C1419 C1418 1.385 . S
C1419 C1420 1.389 . S
C1420 C1419 1.389 . S
C1420 C1421 1.387 . S
C1421 H1406 0.930 . S
C1421 C1416 1.390 . S
C1421 C1420 1.387 . S
H1422 C1434 0.930 . S
H1423 C1436 0.931 . S
H1424 C1437 0.930 1_545 S
H1425 C1441 0.959 . S
H1426 C1441 0.959 . S
H1427 C1441 0.961 . S
H1428 C1442 0.960 . S
H1429 C1442 0.961 . S
H1430 C1442 0.959 . S
H1431 C1445 0.929 . S
H1432 C1446 0.931 . S
H1433 C1448 0.930 . S
C1434 H1422 0.930 . S
C1434 C1435 1.399 . S
C1434 C1439 1.399 . S
C1435 C1434 1.399 . S
C1435 C1436 1.376 . S
C1436 H1423 0.931 . S
C1436 C1435 1.376 . S
C1436 C1437 1.388 . S
C1437 H1424 0.930 1_565 S
C1437 C1436 1.388 . S
C1437 C1438 1.390 . S
C1438 C1437 1.390 . S
C1438 C1439 1.394 . S
C1438 C1444 1.465 . S
C1439 C1434 1.399 . S
C1439 C1438 1.394 . S
C1439 C1440 1.516 . S
C1440 C1439 1.516 . S
C1440 C1441 1.502 . S
C1440 C1442 1.561 . S
C1440 C1443 1.526 . S
C1441 H1425 0.959 . S
C1441 H1426 0.959 . S
C1441 H1427 0.961 . S
C1441 C1440 1.502 . S
C1442 H1428 0.960 . S
C1442 H1429 0.961 . S
C1442 H1430 0.959 . S
C1442 C1440 1.561 . S
C1443 C1440 1.526 . S
C1443 C1444 1.396 . S
C1443 C1448 1.390 . S
C1444 C1438 1.465 . S
C1444 C1443 1.396 . S
C1444 C1445 1.399 1_565 S
C1445 H1431 0.929 . S
C1445 C1444 1.399 1_545 S
C1445 C1446 1.385 . S
C1446 H1432 0.931 . S
C1446 C1445 1.385 . S
C1446 C1447 1.389 1_545 S
C1447 C1446 1.389 1_565 S
C1447 C1448 1.387 . S
C1448 H1433 0.930 . S
C1448 C1443 1.390 . S
C1448 C1447 1.387 . S
H1449 C1461 0.930 . S
H1450 C1463 0.930 . S
H1451 C1464 0.930 . S
H1452 C1468 0.959 . S
H1453 C1468 0.959 1_565 S
H1454 C1468 0.961 1_565 S
H1455 C1469 0.960 . S
H1456 C1469 0.961 . S
H1457 C1469 0.959 . S
H1458 C1472 0.929 . S
H1459 C1473 0.931 . S
H1460 C1475 0.930 . S
C1461 H1449 0.930 . S
C1461 C1462 1.399 . S
C1461 C1466 1.399 . S
C1462 C1461 1.399 . S
C1462 C1463 1.376 . S
C1463 H1450 0.930 . S
C1463 C1462 1.376 . S
C1463 C1464 1.388 . S
C1464 H1451 0.930 . S
C1464 C1463 1.388 . S
C1464 C1465 1.390 . S
C1465 C1464 1.390 . S
C1465 C1466 1.394 . S
C1465 C1471 1.465 . S
C1466 C1461 1.399 . S
C1466 C1465 1.394 . S
C1466 C1467 1.516 . S
C1467 C1466 1.516 . S
C1467 C1468 1.502 . S
C1467 C1469 1.561 1_545 S
C1467 C1470 1.526 . S
C1468 H1452 0.959 . S
C1468 H1453 0.959 1_545 S
C1468 H1454 0.961 1_545 S
C1468 C1467 1.502 . S
C1469 H1455 0.960 . S
C1469 H1456 0.961 . S
C1469 H1457 0.959 . S
C1469 C1467 1.561 1_565 S
C1470 C1467 1.526 . S
C1470 C1471 1.396 . S
C1470 C1475 1.390 . S
C1471 C1465 1.465 . S
C1471 C1470 1.396 . S
C1471 C1472 1.399 . S
C1472 H1458 0.929 . S
C1472 C1471 1.399 . S
C1472 C1473 1.385 . S
C1473 H1459 0.931 . S
C1473 C1472 1.385 . S
C1473 C1474 1.389 . S
C1474 C1473 1.389 . S
C1474 C1475 1.387 . S
C1475 H1460 0.930 . S
C1475 C1470 1.390 . S
C1475 C1474 1.387 . S
H1476 C1488 0.930 . S
H1477 C1490 0.930 . S
H1478 C1491 0.930 . S
H1479 C1495 0.959 . S
H1480 C1495 0.959 . S
H1481 C1495 0.961 . S
H1482 C1496 0.960 . S
H1483 C1496 0.961 . S
H1484 C1496 0.959 . S
H1485 C1499 0.929 . S
H1486 C1500 0.931 1_556 S
H1487 C1502 0.930 . S
C1488 H1476 0.930 . S
C1488 C1489 1.399 . S
C1488 C1493 1.399 . S
C1489 C1488 1.399 . S
C1489 C1490 1.376 . S
C1490 H1477 0.930 . S
C1490 C1489 1.376 . S
C1490 C1491 1.388 . S
C1491 H1478 0.930 . S
C1491 C1490 1.388 . S
C1491 C1492 1.390 . S
C1492 C1491 1.390 . S
C1492 C1493 1.394 . S
C1492 C1498 1.465 . S
C1493 C1488 1.399 . S
C1493 C1492 1.394 . S
C1493 C1494 1.516 . S
C1494 C1493 1.516 . S
C1494 C1495 1.502 . S
C1494 C1496 1.561 1_655 S
C1494 C1497 1.526 . S
C1495 H1479 0.959 . S
C1495 H1480 0.959 . S
C1495 H1481 0.961 . S
C1495 C1494 1.502 . S
C1496 H1482 0.960 . S
C1496 H1483 0.961 . S
C1496 H1484 0.959 . S
C1496 C1494 1.561 1_455 S
C1497 C1494 1.526 . S
C1497 C1498 1.396 . S
C1497 C1502 1.390 . S
C1498 C1492 1.465 . S
C1498 C1497 1.396 . S
C1498 C1499 1.399 . S
C1499 H1485 0.929 . S
C1499 C1498 1.399 . S
C1499 C1500 1.385 . S
C1500 H1486 0.931 1_554 S
C1500 C1499 1.385 . S
C1500 C1501 1.389 . S
C1501 C1500 1.389 . S
C1501 C1502 1.387 . S
C1502 H1487 0.930 . S
C1502 C1497 1.390 . S
C1502 C1501 1.387 . S
H1503 C1515 0.930 . S
H1504 C1517 0.930 . S
H1505 C1518 0.930 . S
H1506 C1522 0.959 . S
H1507 C1522 0.959 . S
H1508 C1522 0.961 . S
H1509 C1523 0.960 . S
H1510 C1523 0.961 . S
H1511 C1523 0.959 . S
H1512 C1526 0.929 . S
H1513 C1527 0.931 . S
H1514 C1529 0.930 . S
C1515 H1503 0.930 . S
C1515 C1516 1.399 . S
C1515 C1520 1.399 . S
C1516 C1515 1.399 . S
C1516 C1517 1.376 . S
C1517 H1504 0.930 . S
C1517 C1516 1.376 . S
C1517 C1518 1.388 . S
C1518 H1505 0.930 . S
C1518 C1517 1.388 . S
C1518 C1519 1.390 . S
C1519 C1518 1.390 . S
C1519 C1520 1.394 . S
C1519 C1525 1.465 . S
C1520 C1515 1.399 . S
C1520 C1519 1.394 . S
C1520 C1521 1.516 . S
C1521 C1520 1.516 . S
C1521 C1522 1.502 . S
C1521 C1523 1.561 . S
C1521 C1524 1.526 . S
C1522 H1506 0.959 . S
C1522 H1507 0.959 . S
C1522 H1508 0.961 . S
C1522 C1521 1.502 . S
C1523 H1509 0.960 . S
C1523 H1510 0.961 . S
C1523 H1511 0.959 . S
C1523 C1521 1.561 . S
C1524 C1521 1.526 . S
C1524 C1525 1.396 . S
C1524 C1529 1.390 . S
C1525 C1519 1.465 . S
C1525 C1524 1.396 . S
C1525 C1526 1.399 . S
C1526 H1512 0.929 . S
C1526 C1525 1.399 . S
C1526 C1527 1.385 . S
C1527 H1513 0.931 . S
C1527 C1526 1.385 . S
C1527 C1528 1.389 . S
C1528 C1527 1.389 . S
C1528 C1529 1.387 . S
C1529 H1514 0.930 . S
C1529 C1524 1.390 . S
C1529 C1528 1.387 . S
H1530 C1542 0.930 . S
H1531 C1544 0.930 . S
H1532 C1545 0.930 . S
H1533 C1549 0.961 . S
H1534 C1549 0.959 . S
H1535 C1549 0.961 . S
H1536 C1550 0.960 . S
H1537 C1550 0.961 . S
H1538 C1550 0.959 . S
H1539 C1553 0.929 . S
H1540 C1554 0.931 . S
H1541 C1556 0.930 . S
C1542 H1530 0.930 . S
C1542 C1543 1.399 . S
C1542 C1547 1.399 . S
C1543 C1542 1.399 . S
C1543 C1544 1.376 . S
C1544 H1531 0.930 . S
C1544 C1543 1.376 . S
C1544 C1545 1.388 . S
C1545 H1532 0.930 . S
C1545 C1544 1.388 . S
C1545 C1546 1.390 . S
C1546 C1545 1.390 . S
C1546 C1547 1.394 . S
C1546 C1552 1.465 . S
C1547 C1542 1.399 . S
C1547 C1546 1.394 . S
C1547 C1548 1.516 . S
C1548 C1547 1.516 . S
C1548 C1549 1.502 . S
C1548 C1550 1.561 . S
C1548 C1551 1.526 . S
C1549 H1533 0.961 . S
C1549 H1534 0.959 . S
C1549 H1535 0.961 . S
C1549 C1548 1.502 . S
C1550 H1536 0.960 . S
C1550 H1537 0.961 . S
C1550 H1538 0.959 . S
C1550 C1548 1.561 . S
C1551 C1548 1.526 . S
C1551 C1552 1.396 . S
C1551 C1556 1.390 . S
C1552 C1546 1.465 . S
C1552 C1551 1.396 . S
C1552 C1553 1.399 . S
C1553 H1539 0.929 . S
C1553 C1552 1.399 . S
C1553 C1554 1.385 . S
C1554 H1540 0.931 . S
C1554 C1553 1.385 . S
C1554 C1555 1.389 . S
C1555 C1554 1.389 . S
C1555 C1556 1.387 . S
C1556 H1541 0.930 . S
C1556 C1551 1.390 . S
C1556 C1555 1.387 . S
H1557 C1569 0.930 . S
H1558 C1571 0.930 . S
H1559 C1572 0.930 . S
H1560 C1576 0.959 . S
H1561 C1576 0.959 . S
H1562 C1576 0.961 . S
H1563 C1577 0.960 . S
H1564 C1577 0.961 . S
H1565 C1577 0.959 . S
H1566 C1580 0.929 . S
H1567 C1581 0.931 . S
H1568 C1583 0.930 . S
C1569 H1557 0.930 . S
C1569 C1570 1.399 . S
C1569 C1574 1.399 . S
C1570 C1569 1.399 . S
C1570 C1571 1.376 . S
C1571 H1558 0.930 . S
C1571 C1570 1.376 . S
C1571 C1572 1.388 . S
C1572 H1559 0.930 . S
C1572 C1571 1.388 . S
C1572 C1573 1.390 . S
C1573 C1572 1.390 . S
C1573 C1574 1.394 . S
C1573 C1579 1.465 . S
C1574 C1569 1.399 . S
C1574 C1573 1.394 . S
C1574 C1575 1.516 . S
C1575 C1574 1.516 . S
C1575 C1576 1.502 . S
C1575 C1577 1.561 . S
C1575 C1578 1.526 . S
C1576 H1560 0.959 . S
C1576 H1561 0.959 . S
C1576 H1562 0.961 . S
C1576 C1575 1.502 . S
C1577 H1563 0.960 . S
C1577 H1564 0.961 . S
C1577 H1565 0.959 . S
C1577 C1575 1.561 . S
C1578 C1575 1.526 . S
C1578 C1579 1.396 . S
C1578 C1583 1.390 . S
C1579 C1573 1.465 . S
C1579 C1578 1.396 . S
C1579 C1580 1.399 . S
C1580 H1566 0.929 . S
C1580 C1579 1.399 . S
C1580 C1581 1.385 . S
C1581 H1567 0.931 . S
C1581 C1580 1.385 . S
C1581 C1582 1.389 . S
C1582 C1581 1.389 . S
C1582 C1583 1.387 . S
C1583 H1568 0.930 . S
C1583 C1578 1.390 . S
C1583 C1582 1.387 . S
H1584 C1596 0.930 . S
H1585 C1598 0.930 1_565 S
H1586 C1599 0.930 1_565 S
H1587 C1603 0.959 . S
H1588 C1603 0.959 . S
H1589 C1603 0.961 . S
H1590 C1604 0.960 . S
H1591 C1604 0.961 . S
H1592 C1604 0.959 . S
H1593 C1607 0.929 1_565 S
H1594 C1608 0.931 . S
H1595 C1610 0.930 . S
C1596 H1584 0.930 . S
C1596 C1597 1.399 . S
C1596 C1601 1.399 . S
C1597 C1596 1.399 . S
C1597 C1598 1.376 . S
C1598 H1585 0.930 1_545 S
C1598 C1597 1.376 . S
C1598 C1599 1.388 . S
C1599 H1586 0.930 1_545 S
C1599 C1598 1.388 . S
C1599 C1600 1.390 . S
C1600 C1599 1.390 . S
C1600 C1601 1.394 . S
C1600 C1606 1.465 . S
C1601 C1596 1.399 . S
C1601 C1600 1.394 . S
C1601 C1602 1.516 . S
C1602 C1601 1.516 . S
C1602 C1603 1.502 . S
C1602 C1604 1.561 . S
C1602 C1605 1.526 . S
C1603 H1587 0.959 . S
C1603 H1588 0.959 . S
C1603 H1589 0.961 . S
C1603 C1602 1.502 . S
C1604 H1590 0.960 . S
C1604 H1591 0.961 . S
C1604 H1592 0.959 . S
C1604 C1602 1.561 . S
C1605 C1602 1.526 . S
C1605 C1606 1.396 . S
C1605 C1610 1.390 . S
C1606 C1600 1.465 . S
C1606 C1605 1.396 . S
C1606 C1607 1.399 . S
C1607 H1593 0.929 1_545 S
C1607 C1606 1.399 . S
C1607 C1608 1.385 . S
C1608 H1594 0.931 . S
C1608 C1607 1.385 . S
C1608 C1609 1.389 . S
C1609 C1608 1.389 . S
C1609 C1610 1.387 . S
C1610 H1595 0.930 . S
C1610 C1605 1.390 . S
C1610 C1609 1.387 . S
H1611 C1623 0.930 1_545 S
H1612 C1625 0.930 . S
H1613 C1626 0.930 . S
H1614 C1630 0.959 1_565 S
H1615 C1630 0.959 . S
H1616 C1630 0.961 . S
H1617 C1631 0.960 . S
H1618 C1631 0.961 . S
H1619 C1631 0.959 . S
H1620 C1634 0.929 . S
H1621 C1635 0.931 . S
H1622 C1637 0.930 . S
C1623 H1611 0.930 1_565 S
C1623 C1624 1.399 . S
C1623 C1628 1.399 . S
C1624 C1623 1.399 . S
C1624 C1625 1.376 . S
C1625 H1612 0.930 . S
C1625 C1624 1.376 . S
C1625 C1626 1.388 . S
C1626 H1613 0.930 . S
C1626 C1625 1.388 . S
C1626 C1627 1.390 . S
C1627 C1626 1.390 . S
C1627 C1628 1.394 . S
C1627 C1633 1.465 . S
C1628 C1623 1.399 . S
C1628 C1627 1.394 . S
C1628 C1629 1.516 . S
C1629 C1628 1.516 . S
C1629 C1630 1.502 1_565 S
C1629 C1631 1.561 1_565 S
C1629 C1632 1.526 . S
C1630 H1614 0.959 1_545 S
C1630 H1615 0.959 . S
C1630 H1616 0.961 . S
C1630 C1629 1.502 1_545 S
C1631 H1617 0.960 . S
C1631 H1618 0.961 . S
C1631 H1619 0.959 . S
C1631 C1629 1.561 1_545 S
C1632 C1629 1.526 . S
C1632 C1633 1.396 . S
C1632 C1637 1.390 . S
C1633 C1627 1.465 . S
C1633 C1632 1.396 . S
C1633 C1634 1.399 . S
C1634 H1620 0.929 . S
C1634 C1633 1.399 . S
C1634 C1635 1.385 . S
C1635 H1621 0.931 . S
C1635 C1634 1.385 . S
C1635 C1636 1.389 . S
C1636 C1635 1.389 . S
C1636 C1637 1.387 . S
C1637 H1622 0.930 . S
C1637 C1632 1.390 . S
C1637 C1636 1.387 . S
H1638 C1650 0.930 . S
H1639 C1652 0.930 . S
H1640 C1653 0.930 . S
H1641 C1657 0.959 . S
H1642 C1657 0.959 . S
H1643 C1657 0.961 . S
H1644 C1658 0.960 . S
H1645 C1658 0.961 . S
H1646 C1658 0.959 . S
H1647 C1661 0.929 . S
H1648 C1662 0.931 . S
H1649 C1664 0.930 . S
C1650 H1638 0.930 . S
C1650 C1651 1.399 . S
C1650 C1655 1.399 . S
C1651 C1650 1.399 . S
C1651 C1652 1.376 . S
C1652 H1639 0.930 . S
C1652 C1651 1.376 . S
C1652 C1653 1.388 . S
C1653 H1640 0.930 . S
C1653 C1652 1.388 . S
C1653 C1654 1.390 . S
C1654 C1653 1.390 . S
C1654 C1655 1.394 . S
C1654 C1660 1.465 . S
C1655 C1650 1.399 . S
C1655 C1654 1.394 . S
C1655 C1656 1.516 . S
C1656 C1655 1.516 . S
C1656 C1657 1.502 . S
C1656 C1658 1.561 . S
C1656 C1659 1.526 . S
C1657 H1641 0.959 . S
C1657 H1642 0.959 . S
C1657 H1643 0.961 . S
C1657 C1656 1.502 . S
C1658 H1644 0.960 . S
C1658 H1645 0.961 . S
C1658 H1646 0.959 . S
C1658 C1656 1.561 . S
C1659 C1656 1.526 . S
C1659 C1660 1.396 . S
C1659 C1664 1.390 . S
C1660 C1654 1.465 . S
C1660 C1659 1.396 . S
C1660 C1661 1.399 . S
C1661 H1647 0.929 . S
C1661 C1660 1.399 . S
C1661 C1662 1.385 . S
C1662 H1648 0.931 . S
C1662 C1661 1.385 . S
C1662 C1663 1.389 . S
C1663 C1662 1.389 . S
C1663 C1664 1.387 . S
C1664 H1649 0.930 . S
C1664 C1659 1.390 . S
C1664 C1663 1.387 . S
H1665 C1677 0.930 . S
H1666 C1679 0.930 . S
H1667 C1680 0.930 . S
H1668 C1684 0.959 . S
H1669 C1684 0.959 . S
H1670 C1684 0.961 . S
H1671 C1685 0.960 . S
H1672 C1685 0.961 . S
H1673 C1685 0.959 . S
H1674 C1688 0.929 . S
H1675 C1689 0.931 1_554 S
H1676 C1691 0.930 . S
C1677 H1665 0.930 . S
C1677 C1678 1.399 . S
C1677 C1682 1.399 . S
C1678 C1677 1.399 . S
C1678 C1679 1.376 . S
C1679 H1666 0.930 . S
C1679 C1678 1.376 . S
C1679 C1680 1.388 . S
C1680 H1667 0.930 . S
C1680 C1679 1.388 . S
C1680 C1681 1.390 . S
C1681 C1680 1.390 . S
C1681 C1682 1.394 . S
C1681 C1687 1.465 . S
C1682 C1677 1.399 . S
C1682 C1681 1.394 . S
C1682 C1683 1.516 . S
C1683 C1682 1.516 . S
C1683 C1684 1.502 . S
C1683 C1685 1.561 . S
C1683 C1686 1.526 . S
C1684 H1668 0.959 . S
C1684 H1669 0.959 . S
C1684 H1670 0.961 . S
C1684 C1683 1.502 . S
C1685 H1671 0.960 . S
C1685 H1672 0.961 . S
C1685 H1673 0.959 . S
C1685 C1683 1.561 . S
C1686 C1683 1.526 . S
C1686 C1687 1.396 . S
C1686 C1691 1.390 . S
C1687 C1681 1.465 . S
C1687 C1686 1.396 . S
C1687 C1688 1.399 . S
C1688 H1674 0.929 . S
C1688 C1687 1.399 . S
C1688 C1689 1.385 . S
C1689 H1675 0.931 1_556 S
C1689 C1688 1.385 . S
C1689 C1690 1.389 . S
C1690 C1689 1.389 . S
C1690 C1691 1.387 . S
C1691 H1676 0.930 . S
C1691 C1686 1.390 . S
C1691 C1690 1.387 . S
H1692 C1704 0.930 . S
H1693 C1706 0.930 . S
H1694 C1707 0.930 . S
H1695 C1711 0.959 . S
H1696 C1711 0.959 . S
H1697 C1711 0.961 . S
H1698 C1712 0.960 . S
H1699 C1712 0.961 . S
H1700 C1712 0.959 . S
H1701 C1715 0.929 . S
H1702 C1716 0.931 . S
H1703 C1718 0.930 . S
C1704 H1692 0.930 . S
C1704 C1705 1.399 . S
C1704 C1709 1.399 . S
C1705 C1704 1.399 . S
C1705 C1706 1.376 1_565 S
C1706 H1693 0.930 . S
C1706 C1705 1.376 1_545 S
C1706 C1707 1.388 . S
C1707 H1694 0.930 . S
C1707 C1706 1.388 . S
C1707 C1708 1.390 . S
C1708 C1707 1.390 . S
C1708 C1709 1.394 1_545 S
C1708 C1714 1.465 . S
C1709 C1704 1.399 . S
C1709 C1708 1.394 1_565 S
C1709 C1710 1.516 . S
C1710 C1709 1.516 . S
C1710 C1711 1.502 . S
C1710 C1712 1.561 . S
C1710 C1713 1.526 . S
C1711 H1695 0.959 . S
C1711 H1696 0.959 . S
C1711 H1697 0.961 . S
C1711 C1710 1.502 . S
C1712 H1698 0.960 . S
C1712 H1699 0.961 . S
C1712 H1700 0.959 . S
C1712 C1710 1.561 . S
C1713 C1710 1.526 . S
C1713 C1714 1.396 1_565 S
C1713 C1718 1.390 . S
C1714 C1708 1.465 . S
C1714 C1713 1.396 1_545 S
C1714 C1715 1.399 . S
C1715 H1701 0.929 . S
C1715 C1714 1.399 . S
C1715 C1716 1.385 . S
C1716 H1702 0.931 . S
C1716 C1715 1.385 . S
C1716 C1717 1.389 . S
C1717 C1716 1.389 . S
C1717 C1718 1.387 1_545 S
C1718 H1703 0.930 . S
C1718 C1713 1.390 . S
C1718 C1717 1.387 1_565 S
H1719 C1731 0.930 1_655 S
H1720 C1733 0.930 . S
H1721 C1734 0.930 . S
H1722 C1738 0.959 . S
H1723 C1738 0.959 . S
H1724 C1738 0.961 . S
H1725 C1739 0.960 . S
H1726 C1739 0.961 . S
H1727 C1739 0.959 1_455 S
H1728 C1742 0.929 . S
H1729 C1743 0.931 . S
H1730 C1745 0.930 . S
C1731 H1719 0.930 1_455 S
C1731 C1732 1.399 . S
C1731 C1736 1.399 . S
C1732 C1731 1.399 . S
C1732 C1733 1.376 . S
C1733 H1720 0.930 . S
C1733 C1732 1.376 . S
C1733 C1734 1.388 . S
C1734 H1721 0.930 . S
C1734 C1733 1.388 . S
C1734 C1735 1.390 . S
C1735 C1734 1.390 . S
C1735 C1736 1.394 . S
C1735 C1741 1.465 . S
C1736 C1731 1.399 . S
C1736 C1735 1.394 . S
C1736 C1737 1.516 1_455 S
C1737 C1736 1.516 1_655 S
C1737 C1738 1.502 . S
C1737 C1739 1.561 . S
C1737 C1740 1.526 . S
C1738 H1722 0.959 . S
C1738 H1723 0.959 . S
C1738 H1724 0.961 . S
C1738 C1737 1.502 . S
C1739 H1725 0.960 . S
C1739 H1726 0.961 . S
C1739 H1727 0.959 1_655 S
C1739 C1737 1.561 . S
C1740 C1737 1.526 . S
C1740 C1741 1.396 1_655 S
C1740 C1745 1.390 . S
C1741 C1735 1.465 . S
C1741 C1740 1.396 1_455 S
C1741 C1742 1.399 . S
C1742 H1728 0.929 . S
C1742 C1741 1.399 . S
C1742 C1743 1.385 . S
C1743 H1729 0.931 . S
C1743 C1742 1.385 . S
C1743 C1744 1.389 1_455 S
C1744 C1743 1.389 1_655 S
C1744 C1745 1.387 . S
C1745 H1730 0.930 . S
C1745 C1740 1.390 . S
C1745 C1744 1.387 . S
H1746 C1758 0.930 . S
H1747 C1760 0.930 . S
H1748 C1761 0.930 . S
H1749 C1765 0.959 . S
H1750 C1765 0.959 . S
H1751 C1765 0.961 . S
H1752 C1766 0.960 . S
H1753 C1766 0.961 . S
H1754 C1766 0.959 . S
H1755 C1769 0.929 . S
H1756 C1770 0.931 . S
H1757 C1772 0.930 . S
C1758 H1746 0.930 . S
C1758 C1759 1.399 . S
C1758 C1763 1.399 . S
C1759 C1758 1.399 . S
C1759 C1760 1.376 . S
C1760 H1747 0.930 . S
C1760 C1759 1.376 . S
C1760 C1761 1.388 . S
C1761 H1748 0.930 . S
C1761 C1760 1.388 . S
C1761 C1762 1.390 . S
C1762 C1761 1.390 . S
C1762 C1763 1.394 . S
C1762 C1768 1.465 . S
C1763 C1758 1.399 . S
C1763 C1762 1.394 . S
C1763 C1764 1.516 . S
C1764 C1763 1.516 . S
C1764 C1765 1.502 . S
C1764 C1766 1.561 . S
C1764 C1767 1.526 . S
C1765 H1749 0.959 . S
C1765 H1750 0.959 . S
C1765 H1751 0.961 . S
C1765 C1764 1.502 . S
C1766 H1752 0.960 . S
C1766 H1753 0.961 . S
C1766 H1754 0.959 . S
C1766 C1764 1.561 . S
C1767 C1764 1.526 . S
C1767 C1768 1.396 . S
C1767 C1772 1.390 . S
C1768 C1762 1.465 . S
C1768 C1767 1.396 . S
C1768 C1769 1.399 . S
C1769 H1755 0.929 . S
C1769 C1768 1.399 . S
C1769 C1770 1.385 . S
C1770 H1756 0.931 . S
C1770 C1769 1.385 . S
C1770 C1771 1.389 . S
C1771 C1770 1.389 . S
C1771 C1772 1.387 . S
C1772 H1757 0.930 . S
C1772 C1767 1.390 . S
C1772 C1771 1.387 . S
H1773 C1785 0.930 . S
H1774 C1787 0.930 . S
H1775 C1788 0.930 . S
H1776 C1792 0.959 . S
H1777 C1792 0.959 . S
H1778 C1792 0.961 . S
H1779 C1793 0.960 . S
H1780 C1793 0.961 . S
H1781 C1793 0.959 1_655 S
H1782 C1796 0.929 . S
H1783 C1797 0.931 . S
H1784 C1799 0.930 . S
C1785 H1773 0.930 . S
C1785 C1786 1.399 . S
C1785 C1790 1.399 . S
C1786 C1785 1.399 . S
C1786 C1787 1.376 1_455 S
C1787 H1774 0.930 . S
C1787 C1786 1.376 1_655 S
C1787 C1788 1.388 . S
C1788 H1775 0.930 . S
C1788 C1787 1.388 . S
C1788 C1789 1.390 . S
C1789 C1788 1.390 . S
C1789 C1790 1.394 1_655 S
C1789 C1795 1.465 . S
C1790 C1785 1.399 . S
C1790 C1789 1.394 1_455 S
C1790 C1791 1.516 . S
C1791 C1790 1.516 . S
C1791 C1792 1.502 . S
C1791 C1793 1.561 . S
C1791 C1794 1.526 . S
C1792 H1776 0.959 . S
C1792 H1777 0.959 . S
C1792 H1778 0.961 . S
C1792 C1791 1.502 . S
C1793 H1779 0.960 . S
C1793 H1780 0.961 . S
C1793 H1781 0.959 1_455 S
C1793 C1791 1.561 . S
C1794 C1791 1.526 . S
C1794 C1795 1.396 1_455 S
C1794 C1799 1.390 . S
C1795 C1789 1.465 . S
C1795 C1794 1.396 1_655 S
C1795 C1796 1.399 . S
C1796 H1782 0.929 . S
C1796 C1795 1.399 . S
C1796 C1797 1.385 . S
C1797 H1783 0.931 . S
C1797 C1796 1.385 . S
C1797 C1798 1.389 . S
C1798 C1797 1.389 . S
C1798 C1799 1.387 1_655 S
C1799 H1784 0.930 . S
C1799 C1794 1.390 . S
C1799 C1798 1.387 1_455 S
H1800 C1812 0.930 . S
H1801 C1814 0.930 . S
H1802 C1815 0.930 . S
H1803 C1819 0.959 . S
H1804 C1819 0.959 . S
H1805 C1819 0.961 . S
H1806 C1820 0.960 . S
H1807 C1820 0.961 . S
H1808 C1820 0.959 . S
H1809 C1823 0.929 . S
H1810 C1824 0.931 . S
H1811 C1826 0.930 . S
C1812 H1800 0.930 . S
C1812 C1813 1.399 . S
C1812 C1817 1.399 . S
C1813 C1812 1.399 . S
C1813 C1814 1.376 . S
C1814 H1801 0.930 . S
C1814 C1813 1.376 . S
C1814 C1815 1.388 . S
C1815 H1802 0.930 . S
C1815 C1814 1.388 . S
C1815 C1816 1.390 . S
C1816 C1815 1.390 . S
C1816 C1817 1.394 . S
C1816 C1822 1.465 . S
C1817 C1812 1.399 . S
C1817 C1816 1.394 . S
C1817 C1818 1.516 . S
C1818 C1817 1.516 . S
C1818 C1819 1.502 . S
C1818 C1820 1.561 . S
C1818 C1821 1.526 . S
C1819 H1803 0.959 . S
C1819 H1804 0.959 . S
C1819 H1805 0.961 . S
C1819 C1818 1.502 . S
C1820 H1806 0.960 . S
C1820 H1807 0.961 . S
C1820 H1808 0.959 . S
C1820 C1818 1.561 . S
C1821 C1818 1.526 . S
C1821 C1822 1.396 . S
C1821 C1826 1.390 . S
C1822 C1816 1.465 . S
C1822 C1821 1.396 . S
C1822 C1823 1.399 . S
C1823 H1809 0.929 . S
C1823 C1822 1.399 . S
C1823 C1824 1.385 . S
C1824 H1810 0.931 . S
C1824 C1823 1.385 . S
C1824 C1825 1.389 . S
C1825 C1824 1.389 . S
C1825 C1826 1.387 . S
C1826 H1811 0.930 . S
C1826 C1821 1.390 . S
C1826 C1825 1.387 . S
H1827 C1839 0.930 . S
H1828 C1841 0.930 . S
H1829 C1842 0.930 . S
H1830 C1846 0.959 . S
H1831 C1846 0.959 . S
H1832 C1846 0.961 . S
H1833 C1847 0.960 . S
H1834 C1847 0.961 . S
H1835 C1847 0.959 . S
H1836 C1850 0.929 . S
H1837 C1851 0.931 . S
H1838 C1853 0.930 . S
C1839 H1827 0.930 . S
C1839 C1840 1.399 . S
C1839 C1844 1.399 . S
C1840 C1839 1.399 . S
C1840 C1841 1.376 1_545 S
C1841 H1828 0.930 . S
C1841 C1840 1.376 1_565 S
C1841 C1842 1.388 . S
C1842 H1829 0.930 . S
C1842 C1841 1.388 . S
C1842 C1843 1.390 . S
C1843 C1842 1.390 . S
C1843 C1844 1.394 1_565 S
C1843 C1849 1.465 . S
C1844 C1839 1.399 . S
C1844 C1843 1.394 1_545 S
C1844 C1845 1.516 . S
C1845 C1844 1.516 . S
C1845 C1846 1.502 . S
C1845 C1847 1.561 . S
C1845 C1848 1.526 . S
C1846 H1830 0.959 . S
C1846 H1831 0.959 . S
C1846 H1832 0.961 . S
C1846 C1845 1.502 . S
C1847 H1833 0.960 . S
C1847 H1834 0.961 . S
C1847 H1835 0.959 . S
C1847 C1845 1.561 . S
C1848 C1845 1.526 . S
C1848 C1849 1.396 1_545 S
C1848 C1853 1.390 . S
C1849 C1843 1.465 . S
C1849 C1848 1.396 1_565 S
C1849 C1850 1.399 . S
C1850 H1836 0.929 . S
C1850 C1849 1.399 . S
C1850 C1851 1.385 . S
C1851 H1837 0.931 . S
C1851 C1850 1.385 . S
C1851 C1852 1.389 . S
C1852 C1851 1.389 . S
C1852 C1853 1.387 1_565 S
C1853 H1838 0.930 . S
C1853 C1848 1.390 . S
C1853 C1852 1.387 1_545 S
C409 C251 1.232 . S
C421 C6 1.191 . S
C436 C27 1.204 . S
C448 C207 1.228 . S
C463 C49 1.180 . S
C475 C229 1.231 . S
C490 C335 1.222 . S
C502 C51 1.216 . S
C517 C9 1.144 . S
C529 C356 1.199 . S
C544 C29 1.218 . S
C556 C378 1.156 . S
C571 C314 1.155 . S
C583 C75 1.230 . S
C598 C95 1.148 . S
C610 C268 1.194 . S
C625 C117 1.223 . S
C637 C292 1.146 . S
C652 C139 1.221 . S
C664 C115 1.192 . S
C679 C72 1.229 . S
C691 C161 1.151 . S
C706 C183 1.224 . S
C718 C93 1.146 . S
C733 C383 1.201 . S
C745 C138 1.229 . S
C760 C338 1.198 1_565 S
C772 C160 1.230 . S
C787 C361 1.144 1_455 S
C799 C182 1.185 . S
C814 C71 1.222 . S
C826 C185 1.216 . S
C841 C92 1.197 . S
C853 C141 1.230 . S
C868 C163 1.231 . S
C880 C114 1.180 . S
C895 C50 1.223 . S
C907 C205 1.189 . S
C922 C4 1.154 . S
C934 C227 1.230 . S
C949 C249 1.166 . S
C961 C28 1.171 . S
C976 C247 1.146 . S
C988 C271 1.225 . S
C1003 C203 1.226 . S
C1015 C294 1.185 1_565 S
C1030 C225 1.211 . S
C1042 C316 1.205 1_455 S
C1057 C270 1.227 . S
C1069 C119 1.168 . S
C1084 C291 1.205 . S
C1096 C74 1.148 . S
C1111 C313 1.195 . S
C1123 C97 1.231 . S
C1138 C315 1.175 . S
C1150 C202 1.147 . S
C1165 C273 1.161 . S
C1177 C224 1.223 1_545 S
C1192 C293 1.210 . S
C1204 C246 1.150 1_655 S
C1219 C339 1.146 . S
C1231 C180 1.198 . S
C1246 C359 1.218 . S
C1258 C136 1.196 1_545 S
C1273 C158 1.231 1_655 S
C1285 C381 1.170 . S
C1300 C7 1.165 . S
C1312 C379 1.172 . S
C1327 C30 1.232 . S
C1339 C336 1.162 . S
C1354 C357 1.169 . S
C1366 C52 1.167 . S
C1381 C159 1.426 . S
C1393 C8 1.429 . S
C1408 C181 1.419 . S
C1420 C31 1.419 . S
C1435 C137 1.428 . S
C1447 C53 1.425 . S
C1462 C295 1.421 1_554 S
C1474 C48 1.424 . S
C1489 C5 1.420 . S
C1501 C317 1.424 1_554 S
C1516 C26 1.422 . S
C1528 C272 1.420 1_554 S
C1543 C70 1.419 . S
C1555 C360 1.424 . S
C1570 C94 1.420 . S
C1582 C382 1.420 . S
C1597 C116 1.424 . S
C1609 C337 1.429 . S
C1624 C118 1.426 . S
C1636 C226 1.420 1_556 S
C1651 C248 1.423 1_556 S
C1663 C73 1.429 . S
C1678 C96 1.419 . S
C1690 C204 1.426 1_556 S
C1705 C140 1.423 . S
C1717 C290 1.420 . S
C1732 C162 1.420 . S
C1744 C312 1.424 . S
C1759 C184 1.420 . S
C1771 C269 1.419 . S
C1786 C250 1.424 . S
C1798 C358 1.419 . S
C1813 C380 1.425 . S
C1825 C206 1.419 . S
C1840 C334 1.429 . S
C1852 C228 1.424 . S
