# Generated by pormake.
# Topology wjf, (4)-cn, num edge types: 1
# Building blocks:
#     Node 0, Type 0, BuildingBlock: CEKHIL_clean_sbu_0, # of connection points: 4
#     Node 1, Type 0, BuildingBlock: CEKHIL_clean_sbu_0, # of connection points: 4
#     Node 2, Type 0, BuildingBlock: CEKHIL_clean_sbu_0, # of connection points: 4
#     Node 3, Type 0, BuildingBlock: CEKHIL_clean_sbu_0, # of connection points: 4
#     Node 4, Type 0, BuildingBlock: CEKHIL_clean_sbu_0, # of connection points: 4
#     Node 5, Type 0, BuildingBlock: CEKHIL_clean_sbu_0, # of connection points: 4
#     Node 6, Type 0, BuildingBlock: CEKHIL_clean_sbu_0, # of connection points: 4
#     Node 7, Type 0, BuildingBlock: CEKHIL_clean_sbu_0, # of connection points: 4
#     Node 8, Type 0, BuildingBlock: CEKHIL_clean_sbu_0, # of connection points: 4
#     Node 9, Type 0, BuildingBlock: CEKHIL_clean_sbu_0, # of connection points: 4
#     Node 10, Type 0, BuildingBlock: CEKHIL_clean_sbu_0, # of connection points: 4
#     Node 11, Type 0, BuildingBlock: CEKHIL_clean_sbu_0, # of connection points: 4
#     Edge 12, Type (0, 0), BuildingBlock: TEMPAE_clean_linker_10, # of connection points: 2
#     Edge 13, Type (0, 0), BuildingBlock: TEMPAE_clean_linker_10, # of connection points: 2
#     Edge 14, Type (0, 0), BuildingBlock: TEMPAE_clean_linker_10, # of connection points: 2
#     Edge 15, Type (0, 0), BuildingBlock: TEMPAE_clean_linker_10, # of connection points: 2
#     Edge 16, Type (0, 0), BuildingBlock: TEMPAE_clean_linker_10, # of connection points: 2
#     Edge 17, Type (0, 0), BuildingBlock: TEMPAE_clean_linker_10, # of connection points: 2
#     Edge 18, Type (0, 0), BuildingBlock: TEMPAE_clean_linker_10, # of connection points: 2
#     Edge 19, Type (0, 0), BuildingBlock: TEMPAE_clean_linker_10, # of connection points: 2
#     Edge 20, Type (0, 0), BuildingBlock: TEMPAE_clean_linker_10, # of connection points: 2
#     Edge 21, Type (0, 0), BuildingBlock: TEMPAE_clean_linker_10, # of connection points: 2
#     Edge 22, Type (0, 0), BuildingBlock: TEMPAE_clean_linker_10, # of connection points: 2
#     Edge 23, Type (0, 0), BuildingBlock: TEMPAE_clean_linker_10, # of connection points: 2
#     Edge 24, Type (0, 0), BuildingBlock: TEMPAE_clean_linker_10, # of connection points: 2
#     Edge 25, Type (0, 0), BuildingBlock: TEMPAE_clean_linker_10, # of connection points: 2
#     Edge 26, Type (0, 0), BuildingBlock: TEMPAE_clean_linker_10, # of connection points: 2
#     Edge 27, Type (0, 0), BuildingBlock: TEMPAE_clean_linker_10, # of connection points: 2
#     Edge 28, Type (0, 0), BuildingBlock: TEMPAE_clean_linker_10, # of connection points: 2
#     Edge 29, Type (0, 0), BuildingBlock: TEMPAE_clean_linker_10, # of connection points: 2
#     Edge 30, Type (0, 0), BuildingBlock: TEMPAE_clean_linker_10, # of connection points: 2
#     Edge 31, Type (0, 0), BuildingBlock: TEMPAE_clean_linker_10, # of connection points: 2
#     Edge 32, Type (0, 0), BuildingBlock: TEMPAE_clean_linker_10, # of connection points: 2
#     Edge 33, Type (0, 0), BuildingBlock: TEMPAE_clean_linker_10, # of connection points: 2
#     Edge 34, Type (0, 0), BuildingBlock: TEMPAE_clean_linker_10, # of connection points: 2
#     Edge 35, Type (0, 0), BuildingBlock: TEMPAE_clean_linker_10, # of connection points: 2
# Relax obj value: 0.111
# Max RMSD: 0.133
# Mean RMSD: 0.133
data_MOF--net-wjf--node1-CEKHIL_clean_sbu_0--edge1-TEMPAE_clean_linker_10
_symmetry_space_group_name_H-M    P1
_symmetry_Int_Tables_number       1
_symmetry_cell_setting            triclinic
loop_
_symmetry_equiv_pos_as_xyz
'x, y, z'
_cell_length_a     51.297649
_cell_length_b     51.268237
_cell_length_c     27.574631
_cell_angle_alpha  89.996645
_cell_angle_beta   90.070586
_cell_angle_gamma 120.01276
loop_
_atom_site_label
_atom_site_type_symbol
_atom_site_fract_x
_atom_site_fract_y
_atom_site_fract_z
_atom_type_partial_charge
Co0 Co 0.32731 0.39061 0.08404 0.0
O1 O 0.28463 0.37503 0.08077 0.0
O2 O 0.31923 0.41989 0.05382 0.0
C3 C 0.32891 0.37735 0.16116 0.0
O4 O 0.3731 0.41482 0.08338 0.0
Co5 Co 0.35287 0.34767 0.10022 0.0
O6 O 0.39148 0.38585 0.11045 0.0
C7 C 0.32863 0.34986 0.00465 0.0
C8 C 0.29089 0.40028 0.06018 0.0
C9 C 0.39511 0.41133 0.09742 0.0
O10 O 0.32655 0.37269 0.01868 0.0
O11 O 0.33607 0.33489 0.03302 0.0
O12 O 0.32802 0.40176 0.15188 0.0
O13 O 0.32557 0.36045 0.12425 0.0
Co14 Co 0.93857 0.32911 0.4156 0.0
O15 O 0.91205 0.28624 0.41336 0.0
O16 O 0.90056 0.32001 0.38657 0.0
C17 C 0.95482 0.33194 0.49213 0.0
O18 O 0.95948 0.3749 0.41422 0.0
Co19 Co 0.0075 0.35523 0.42818 0.0
O20 O 0.00883 0.39461 0.43138 0.0
C21 C 0.97925 0.32953 0.33459 0.0
C22 C 0.8925 0.29183 0.39313 0.0
C23 C 0.98595 0.39737 0.42242 0.0
O24 O 0.95487 0.32819 0.34954 0.0
O25 O 0.00198 0.33674 0.36209 0.0
O26 O 0.92903 0.33017 0.48374 0.0
O27 O 0.96793 0.32839 0.45483 0.0
Co28 Co 0.61161 0.93714 0.74826 0.0
O29 O 0.62732 0.9101 0.74539 0.0
O30 O 0.5823 0.89954 0.71865 0.0
C31 C 0.62513 0.95282 0.82498 0.0
O32 O 0.58734 0.95861 0.74739 0.0
Co33 Co 0.65515 0.00586 0.76186 0.0
O34 O 0.61743 0.00776 0.7656 0.0
C35 C 0.65228 0.97802 0.66785 0.0
C36 C 0.60208 0.891 0.72486 0.0
C37 C 0.59167 0.98513 0.75622 0.0
O38 O 0.62898 0.95373 0.68244 0.0
O39 O 0.66808 1.0005 0.69566 0.0
O40 O 0.60084 0.92727 0.81628 0.0
O41 O 0.64194 0.966 0.78784 0.0
Co42 Co 0.67298 0.61098 0.08042 0.0
O43 O 0.71561 0.62657 0.07651 0.0
O44 O 0.68089 0.58206 0.04838 0.0
C45 C 0.67189 0.62325 0.15827 0.0
O46 O 0.62723 0.58706 0.07989 0.0
Co47 Co 0.64775 0.65394 0.10025 0.0
O48 O 0.60992 0.61543 0.11377 0.0
C49 C 0.67037 0.6521 0.00313 0.0
C50 C 0.70926 0.60157 0.05494 0.0
C51 C 0.60586 0.59035 0.09763 0.0
O52 O 0.67314 0.62953 0.01613 0.0
O53 O 0.66314 0.66688 0.0323 0.0
O54 O 0.67258 0.5989 0.14762 0.0
O55 O 0.67509 0.64066 0.1222 0.0
Co56 Co 0.06364 0.6761 0.41547 0.0
O57 O 0.08932 0.71908 0.413 0.0
O58 O 0.10203 0.68607 0.38714 0.0
C59 C 0.04719 0.67315 0.49184 0.0
O60 O 0.04364 0.63034 0.41435 0.0
Co61 Co 0.99452 0.64867 0.42762 0.0
O62 O 0.99414 0.60977 0.43068 0.0
C63 C 0.0225 0.67433 0.33396 0.0
C64 C 0.10942 0.71411 0.39343 0.0
C65 C 0.01733 0.60748 0.42211 0.0
O66 O 0.04717 0.67635 0.34914 0.0
O67 O 0.99969 0.66678 0.36134 0.0
O68 O 0.07325 0.6755 0.48374 0.0
O69 O 0.03387 0.67621 0.45433 0.0
Co70 Co 0.3886 0.0599 0.74904 0.0
O71 O 0.37161 0.08592 0.74692 0.0
O72 O 0.41657 0.09762 0.71856 0.0
C73 C 0.37656 0.04456 0.82608 0.0
O74 O 0.4144 0.03995 0.74704 0.0
Co75 Co 0.34818 0.99078 0.76553 0.0
O76 O 0.38695 0.99113 0.76869 0.0
C77 C 0.34956 0.01636 0.66952 0.0
C78 C 0.39634 0.10543 0.7256 0.0
C79 C 0.41183 0.01424 0.75708 0.0
O80 O 0.37023 0.04246 0.68399 0.0
O81 O 0.33668 0.99323 0.69702 0.0
O82 O 0.40024 0.07045 0.81667 0.0
O83 O 0.35949 0.03063 0.78953 0.0
Co84 Co 0.60997 0.67173 0.5666 0.0
O85 O 0.62618 0.71461 0.56848 0.0
O86 O 0.58127 0.68075 0.59627 0.0
C87 C 0.62272 0.66865 0.48982 0.0
O88 O 0.58506 0.62595 0.56866 0.0
Co89 Co 0.65216 0.64506 0.55287 0.0
O90 O 0.61401 0.60584 0.5493 0.0
C91 C 0.65091 0.67139 0.64673 0.0
C92 C 0.60122 0.70894 0.58941 0.0
C93 C 0.58864 0.60334 0.5595 0.0
O94 O 0.62802 0.67318 0.63217 0.0
O95 O 0.66561 0.66332 0.61899 0.0
O96 O 0.59869 0.67029 0.49868 0.0
O97 O 0.63971 0.6723 0.52678 0.0
Co98 Co 0.93719 0.61099 0.89963 0.0
O99 O 0.9101 0.62655 0.90322 0.0
O100 O 0.90011 0.58189 0.93081 0.0
C101 C 0.95105 0.62378 0.8221 0.0
O102 O 0.95888 0.58687 0.90011 0.0
Co103 Co 0.00544 0.65376 0.88125 0.0
O104 O 0.00526 0.61542 0.86908 0.0
C105 C 0.98036 0.65188 0.97792 0.0
C106 C 0.89129 0.60143 0.92424 0.0
C107 C 0.98387 0.59016 0.88387 0.0
O108 O 0.95508 0.62934 0.96444 0.0
O109 O 0.00254 0.66652 0.94903 0.0
O110 O 0.92599 0.5993 0.83213 0.0
O111 O 0.96506 0.64093 0.85857 0.0
Co112 Co 0.33038 0.94167 0.23792 0.0
O113 O 0.28752 0.91546 0.24217 0.0
O114 O 0.32152 0.90543 0.27286 0.0
C115 C 0.3314 0.95317 0.1592 0.0
O116 O 0.37625 0.96217 0.23852 0.0
Co117 Co 0.35892 0.00958 0.2121 0.0
O118 O 0.3951 0.00616 0.19863 0.0
C119 C 0.33733 0.98905 0.31151 0.0
C120 C 0.29332 0.897 0.26566 0.0
C121 C 0.39817 0.98527 0.21789 0.0
O122 O 0.33044 0.96199 0.30035 0.0
O123 O 0.34803 0.01101 0.2815 0.0
O124 O 0.33025 0.92815 0.17169 0.0
O125 O 0.32925 0.96878 0.19405 0.0
Co126 Co 0.38793 0.32528 0.56908 0.0
O127 O 0.37135 0.2824 0.57232 0.0
O128 O 0.41652 0.31622 0.59942 0.0
C129 C 0.37502 0.32753 0.49202 0.0
O130 O 0.41304 0.37105 0.56966 0.0
Co131 Co 0.3456 0.35168 0.55399 0.0
O132 O 0.38379 0.3909 0.55077 0.0
C133 C 0.34762 0.32706 0.64883 0.0
C134 C 0.39633 0.28802 0.59319 0.0
C135 C 0.40934 0.39362 0.56057 0.0
O136 O 0.37043 0.32508 0.63455 0.0
O137 O 0.3324 0.33426 0.62062 0.0
O138 O 0.39896 0.32577 0.5013 0.0
O139 O 0.35813 0.32434 0.52882 0.0
Co140 Co 0.06381 0.39133 0.90112 0.0
O141 O 0.09109 0.376 0.90492 0.0
O142 O 0.10061 0.42039 0.93317 0.0
C143 C 0.05036 0.37899 0.82332 0.0
O144 O 0.04184 0.41517 0.90161 0.0
Co145 Co 0.99573 0.34827 0.88168 0.0
O146 O 0.99575 0.38653 0.86938 0.0
C147 C 0.02042 0.34999 0.97871 0.0
C148 C 0.10962 0.401 0.92661 0.0
C149 C 0.01691 0.41178 0.88475 0.0
O150 O 0.04571 0.37257 0.9655 0.0
O151 O 0.99832 0.3354 0.94958 0.0
O152 O 0.0753 0.40347 0.83393 0.0
O153 O 0.03626 0.36153 0.85939 0.0
Co154 Co 0.67596 0.06216 0.23401 0.0
O155 O 0.71863 0.0895 0.23756 0.0
O156 O 0.68384 0.09907 0.26579 0.0
C157 C 0.67444 0.04832 0.15628 0.0
O158 O 0.63012 0.04023 0.23482 0.0
Co159 Co 0.65077 0.99393 0.21543 0.0
O160 O 0.61215 0.99343 0.20527 0.0
C161 C 0.67431 0.01908 0.31199 0.0
C162 C 0.71223 0.10806 0.25927 0.0
C163 C 0.60827 0.01489 0.21971 0.0
O164 O 0.67686 0.04427 0.29854 0.0
O165 O 0.66668 0.99687 0.28305 0.0
O166 O 0.67514 0.07341 0.16666 0.0
O167 O 0.67792 0.03438 0.19251 0.0
C168 C 0.33315 0.34236 0.21907 0.0
C169 C 0.33583 0.37049 0.20985 0.0
C170 C 0.33983 0.33543 0.26492 0.0
C171 C 0.34978 0.35729 0.30223 0.0
C172 C 0.35282 0.38586 0.29301 0.0
C173 C 0.34562 0.39206 0.24691 0.0
C174 C 0.33603 0.30461 0.27355 0.0
C175 C 0.36374 0.40986 0.33179 0.0
C176 C 0.33998 0.33041 0.43256 0.0
C177 C 0.36866 0.335 0.44342 0.0
C178 C 0.33351 0.33751 0.38665 0.0
C179 C 0.35647 0.35001 0.35116 0.0
C180 C 0.3856 0.35504 0.36214 0.0
C181 C 0.39128 0.3472 0.40811 0.0
C182 C 0.30206 0.3314 0.37598 0.0
C183 C 0.41076 0.36878 0.32542 0.0
H184 H 0.32558 0.32562 0.19048 0.0
H185 H 0.34792 0.41391 0.23979 0.0
H186 H 0.35775 0.30679 0.28511 0.0
H187 H 0.31966 0.29312 0.30329 0.0
H188 H 0.32801 0.29015 0.24069 0.0
H189 H 0.36564 0.43117 0.31838 0.0
H190 H 0.34806 0.40172 0.36305 0.0
H191 H 0.38609 0.41469 0.3454 0.0
H192 H 0.32244 0.32091 0.45982 0.0
H193 H 0.41357 0.35102 0.41661 0.0
H194 H 0.2925 0.31573 0.34477 0.0
H195 H 0.30268 0.35261 0.36567 0.0
H196 H 0.28674 0.32142 0.40751 0.0
H197 H 0.40464 0.35415 0.29288 0.0
H198 H 0.43234 0.37201 0.34016 0.0
H199 H 0.41422 0.39094 0.31334 0.0
C200 C 0.99606 0.33926 0.54834 0.0
C201 C 0.96923 0.33957 0.54038 0.0
C202 C 0.01002 0.34633 0.59398 0.0
C203 C 0.99692 0.35411 0.63238 0.0
C204 C 0.97002 0.35485 0.62439 0.0
C205 C 0.9564 0.34742 0.57846 0.0
C206 C 0.03858 0.34511 0.60126 0.0
C207 C 0.95557 0.36332 0.66441 0.0
C208 C 0.01502 0.34346 0.76165 0.0
C209 C 0.03734 0.37272 0.77416 0.0
C210 C 0.0019 0.33705 0.71542 0.0
C211 C 0.0109 0.36064 0.6813 0.0
C212 C 0.03329 0.39032 0.69388 0.0
C213 C 0.04649 0.39596 0.74012 0.0
C214 C 0.97844 0.30503 0.70304 0.0
C215 C 0.04304 0.41612 0.65869 0.0
H216 H 0.00608 0.33323 0.51897 0.0
H217 H 0.93575 0.34786 0.57236 0.0
H218 H 0.05692 0.36727 0.61404 0.0
H219 H 0.03502 0.32832 0.62968 0.0
H220 H 0.04606 0.33899 0.56749 0.0
H221 H 0.93528 0.36388 0.65178 0.0
H222 H 0.94894 0.34692 0.69461 0.0
H223 H 0.97193 0.38579 0.67927 0.0
H224 H 0.00799 0.32545 0.78795 0.0
H225 H 0.06354 0.41868 0.74996 0.0
H226 H 0.98567 0.29734 0.67079 0.0
H227 H 0.95686 0.30389 0.69364 0.0
H228 H 0.97438 0.28921 0.73342 0.0
H229 H 0.0522 0.41164 0.6253 0.0
H230 H 0.06044 0.43793 0.67435 0.0
H231 H 0.02334 0.41821 0.64776 0.0
C232 C 0.61002 0.95627 0.90974 0.0
C233 C 0.632 0.96703 0.87334 0.0
C234 C 0.61626 0.96992 0.95564 0.0
C235 C 0.6453 0.99459 0.96541 0.0
C236 C 0.66756 0.00552 0.92874 0.0
C237 C 0.66056 0.99173 0.88299 0.0
C238 C 0.59184 0.95794 -0.00632 0.0
C239 C 0.69887 0.03154 0.93802 0.0
C240 C 0.65654 0.04657 0.07136 0.0
C241 C 0.66737 0.03503 0.10723 0.0
C242 C 0.64895 0.03343 0.02507 0.0
C243 C 0.65269 0.00848 0.01442 0.0
C244 C 0.66382 0.99691 0.05046 0.0
C245 C 0.67084 0.01022 0.09655 0.0
C246 C 0.63676 0.0461 0.98769 0.0
C247 C 0.66843 0.97054 0.04027 0.0
H248 H 0.58783 0.93733 0.90223 0.0
H249 H 0.6776 1.00009 0.85489 0.0
H250 H 0.59887 0.94954 0.02531 0.0
H251 H 0.58817 0.97629 0.00693 0.0
H252 H 0.57014 0.93933 0.9797 0.0
H253 H 0.71352 0.03744 0.90551 0.0
H254 H 0.69775 0.0517 0.94945 0.0
H255 H 0.70953 0.02581 0.96807 0.0
H256 H 0.65362 0.06562 0.07963 0.0
H257 H 0.67924 0.00126 0.12421 0.0
H258 H 0.61426 0.02825 0.97514 0.0
H259 H 0.65172 0.05393 0.95552 0.0
H260 H 0.6347 0.06524 0.00202 0.0
H261 H 0.64676 0.95059 0.02961 0.0
H262 H 0.67757 0.96447 0.07214 0.0
H263 H 0.68419 0.97594 0.00943 0.0
C264 C 0.67018 0.65805 0.21939 0.0
C265 C 0.6647 0.6292 0.20731 0.0
C266 C 0.66305 0.66412 0.26552 0.0
C267 C 0.64965 0.64061 0.30002 0.0
C268 C 0.64378 0.61133 0.28784 0.0
C269 C 0.65165 0.60602 0.24166 0.0
C270 C 0.67003 0.69573 0.27742 0.0
C271 C 0.62906 0.58562 0.32349 0.0
C272 C 0.65699 0.66276 0.43262 0.0
C273 C 0.62931 0.66113 0.4414 0.0
C274 C 0.6638 0.6559 0.38683 0.0
C275 C 0.64226 0.6469 0.34911 0.0
C276 C 0.61407 0.64477 0.35795 0.0
C277 C 0.60799 0.65208 0.40402 0.0
C278 C 0.69419 0.65867 0.37862 0.0
C279 C 0.59044 0.63491 0.3187 0.0
H280 H 0.68031 0.67601 0.19285 0.0
H281 H 0.64711 0.58361 0.23218 0.0
H282 H 0.64907 0.69566 0.28748 0.0
H283 H 0.6854 0.70439 0.30914 0.0
H284 H 0.6807 0.7115 0.24659 0.0
H285 H 0.62543 0.56405 0.30797 0.0
H286 H 0.64324 0.59085 0.35646 0.0
H287 H 0.60701 0.58258 0.33509 0.0
H288 H 0.67353 0.66973 0.46145 0.0
H289 H 0.58647 0.65059 0.41079 0.0
H290 H 0.70646 0.67549 0.34976 0.0
H291 H 0.69133 0.63684 0.36601 0.0
H292 H 0.70828 0.66561 0.41195 0.0
H293 H 0.59911 0.65116 0.28816 0.0
H294 H 0.56923 0.63326 0.33201 0.0
H295 H 0.58527 0.61266 0.30408 0.0
C296 C 0.98694 0.6597 0.76155 0.0
C297 C 0.9642 0.63045 0.77308 0.0
C298 C 1.00016 0.6665 0.71545 0.0
C299 C 0.99079 0.64331 0.68044 0.0
C300 C 0.96796 0.61365 0.69202 0.0
C301 C 0.95469 0.60762 0.73817 0.0
C302 C 0.02411 0.69849 0.70417 0.0
C303 C 0.95779 0.58827 0.65584 0.0
C304 C 0.0062 0.66614 0.54815 0.0
C305 C 0.03275 0.66534 0.53997 0.0
C306 C 0.99219 0.65884 0.59368 0.0
C307 C 0.0049 0.65024 0.63167 0.0
C308 C 0.0315 0.64901 0.62343 0.0
C309 C 0.04523 0.65676 0.57767 0.0
C310 C 0.96401 0.6607 0.6013 0.0
C311 C 0.04548 0.6396 0.66298 0.0
H312 H 0.99425 0.6774 0.78851 0.0
H313 H 0.93729 0.58492 0.74723 0.0
H314 H 0.0455 0.69928 0.69464 0.0
H315 H 0.01725 0.70687 0.6723 0.0
H316 H 0.0284 0.71399 0.73514 0.0
H317 H 0.94005 0.56641 0.67076 0.0
H318 H 0.94892 0.59347 0.62277 0.0
H319 H 0.97723 0.58584 0.64459 0.0
H320 H 0.99649 0.67276 0.51907 0.0
H321 H 0.06565 0.65592 0.57136 0.0
H322 H 0.96785 0.67719 0.63042 0.0
H323 H 0.9453 0.63855 0.61329 0.0
H324 H 0.9569 0.66757 0.56788 0.0
H325 H 0.05229 0.65561 0.69379 0.0
H326 H 0.06558 0.63877 0.65015 0.0
H327 H 0.02877 0.61705 0.67703 0.0
C328 C 0.34971 0.95354 0.07507 0.0
C329 C 0.33796 0.96502 0.10937 0.0
C330 C 0.3572 0.9659 0.02828 0.0
C331 C 0.35232 0.9899 0.01564 0.0
C332 C 0.34015 0.0013 0.05008 0.0
C333 C 0.33332 0.98885 0.09665 0.0
C334 C 0.37053 0.9535 -0.00746 0.0
C335 C 0.33423 0.0266 0.03772 0.0
C336 C 0.39304 0.04217 0.91043 0.0
C337 C 0.37084 0.03041 0.87432 0.0
C338 C 0.3877 0.02856 0.95626 0.0
C339 C 0.35936 0.00292 0.96616 0.0
C340 C 0.33701 0.9908 0.92962 0.0
C341 C 0.3431 0.00461 0.88401 0.0
C342 C 0.41217 0.04185 -0.00572 0.0
C343 C 0.3064 0.96371 0.93907 0.0
H344 H 0.35356 0.93528 0.08505 0.0
H345 H 0.32415 0.99771 0.12313 0.0
H346 H 0.35587 0.94468 0.96005 0.0
H347 H 0.39281 0.97176 0.9801 0.0
H348 H 0.37335 0.93513 0.00833 0.0
H349 H 0.32441 0.03265 0.06862 0.0
H350 H 0.35551 0.04691 0.02678 0.0
H351 H 0.31853 0.02001 0.00648 0.0
H352 H 0.41463 0.06194 0.90284 0.0
H353 H 0.3259 0.99543 0.8561 0.0
H354 H 0.41649 0.0242 0.00893 0.0
H355 H 0.4048 0.05054 0.02504 0.0
H356 H 0.43359 0.06056 0.97977 0.0
H357 H 0.30882 0.94457 0.95217 0.0
H358 H 0.29192 0.95641 0.90619 0.0
H359 H 0.29478 0.96907 0.96799 0.0
C360 C 0.1547 0.42725 0.98095 0.0
C361 C 0.13914 0.40633 0.94404 0.0
C362 C 0.18133 0.43014 0.00066 0.0
C363 C 0.19275 0.412 0.9824 0.0
C364 C 0.17783 0.39193 0.94353 0.0
C365 C 0.15109 0.38916 0.92514 0.0
C366 C 0.19643 0.45154 0.04241 0.0
C367 C 0.18949 0.3725 0.92249 0.0
C368 C 0.27217 0.42789 0.00892 0.0
C369 C 0.26659 0.40567 0.04354 0.0
C370 C 0.24848 0.43107 0.98979 0.0
C371 C 0.2187 0.41184 0.00627 0.0
C372 C 0.21326 0.39038 0.04294 0.0
C373 C 0.23722 0.38741 0.06083 0.0
C374 C 0.25511 0.45401 0.95042 0.0
C375 C 0.18191 0.36972 0.062 0.0
H376 H 0.14547 0.44052 -0.0043 0.0
H377 H 0.13929 0.37319 0.89623 0.0
H378 H 0.19426 0.43849 0.07576 0.0
H379 H 0.22083 0.46618 0.0352 0.0
H380 H 0.18641 0.46602 0.0494 0.0
H381 H 0.17679 0.36007 0.88965 0.0
H382 H 0.21363 0.38653 0.91284 0.0
H383 H 0.18772 0.35588 0.94997 0.0
H384 H 0.29485 0.44204 -0.00457 0.0
H385 H 0.23284 0.37041 0.08799 0.0
H386 H 0.24474 0.46791 0.9592 0.0
H387 H 0.24507 0.44223 0.91575 0.0
H388 H 0.27967 0.46914 0.94496 0.0
H389 H 0.17117 0.38295 0.07302 0.0
H390 H 0.1819 0.35623 0.09355 0.0
H391 H 0.1678 0.354 0.03292 0.0
C392 C 0.84651 0.27172 0.34069 0.0
C393 C 0.86306 0.26697 0.37659 0.0
C394 C 0.82009 0.24746 0.32138 0.0
C395 C 0.80984 0.21795 0.33905 0.0
C396 C 0.82574 0.21334 0.37695 0.0
C397 C 0.85229 0.23785 0.39492 0.0
C398 C 0.80396 0.25322 0.2806 0.0
C399 C 0.81533 0.18232 0.39736 0.0
C400 C 0.73074 0.15339 0.31297 0.0
C401 C 0.73642 0.13757 0.27697 0.0
C402 C 0.75429 0.18015 0.33275 0.0
C403 C 0.78404 0.19147 0.31549 0.0
C404 C 0.78959 0.17619 0.2777 0.0
C405 C 0.76577 0.14932 0.25922 0.0
C406 C 0.74755 0.1956 0.37339 0.0
C407 C 0.82089 0.18772 0.25776 0.0
H408 H 0.85483 0.29419 0.32631 0.0
H409 H 0.86487 0.23412 0.42301 0.0
H410 H 0.80602 0.24262 0.24683 0.0
H411 H 0.77961 0.24282 0.2888 0.0
H412 H 0.81326 0.27765 0.27382 0.0
H413 H 0.82864 0.18296 0.42962 0.0
H414 H 0.79124 0.17137 0.40772 0.0
H415 H 0.81745 0.168 0.36926 0.0
H416 H 0.70808 0.14433 0.3269 0.0
H417 H 0.77023 0.13731 0.23108 0.0
H418 H 0.75693 0.21983 0.36503 0.0
H419 H 0.75855 0.19423 0.40723 0.0
H420 H 0.72301 0.18527 0.38016 0.0
H421 H 0.83098 0.21171 0.24707 0.0
H422 H 0.821 0.17458 0.2258 0.0
H423 H 0.83552 0.18646 0.28623 0.0
C424 C 0.6146 0.84992 0.72598 0.0
C425 C 0.59702 0.86154 0.70752 0.0
C426 C 0.61206 0.82329 0.70739 0.0
C427 C 0.59185 0.80821 0.66872 0.0
C428 C 0.57342 0.81939 0.6508 0.0
C429 C 0.57604 0.84584 0.67075 0.0
C430 C 0.63174 0.81185 0.72813 0.0
C431 C 0.55193 0.80417 0.60917 0.0
C432 C 0.61519 0.76301 0.58939 0.0
C433 C 0.59662 0.73366 0.60658 0.0
C434 C 0.61288 0.78726 0.60784 0.0
C435 C 0.59182 0.78211 0.64502 0.0
C436 C 0.57242 0.75239 0.66162 0.0
C437 C 0.5749 0.72843 0.6419 0.0
C438 C 0.63368 0.81855 0.58862 0.0
C439 C 0.54996 0.74606 0.70162 0.0
H440 H 0.63067 0.86187 0.7547 0.0
H441 H 0.56251 0.85485 0.65626 0.0
H442 H 0.61789 0.78771 0.73801 0.0
H443 H 0.64821 0.81363 0.70041 0.0
H444 H 0.64434 0.82469 0.76077 0.0
H445 H 0.5376 0.81432 0.60188 0.0
H446 H 0.56487 0.80603 0.57587 0.0
H447 H 0.53716 0.77983 0.61678 0.0
H448 H 0.63186 0.76713 0.5618 0.0
H449 H 0.56057 0.70577 0.65542 0.0
H450 H 0.64954 0.83263 0.61757 0.0
H451 H 0.62058 0.82946 0.57769 0.0
H452 H 0.64699 0.81839 0.55697 0.0
H453 H 0.56211 0.75656 0.73583 0.0
H454 H 0.53501 0.72154 0.70789 0.0
H455 H 0.53584 0.75621 0.69288 0.0
C456 C 0.76283 0.6142 0.05592 0.0
C457 C 0.73355 0.5963 0.03789 0.0
C458 C 0.78682 0.6113 0.03807 0.0
C459 C 0.78151 0.5903 0.00067 0.0
C460 C 0.75182 0.57147 0.9833 0.0
C461 C 0.72809 0.57456 0.00241 0.0
C462 C 0.81805 0.63154 0.05807 0.0
C463 C 0.74535 0.54904 0.94312 0.0
C464 C 0.85003 0.61357 0.92182 0.0
C465 C 0.8616 0.59605 0.94072 0.0
C466 C 0.82308 0.61069 0.93932 0.0
C467 C 0.80755 0.59013 0.97728 0.0
C468 C 0.81857 0.57161 -0.00456 0.0
C469 C 0.84543 0.57464 0.97663 0.0
C470 C 0.81188 0.63055 0.91842 0.0
C471 C 0.8028 0.54966 0.03624 0.0
H472 H 0.76712 0.63083 0.08373 0.0
H473 H 0.70548 0.56071 0.98835 0.0
H474 H 0.82848 0.61799 0.06902 0.0
H475 H 0.83252 0.64746 0.02955 0.0
H476 H 0.81795 0.64479 0.08987 0.0
H477 H 0.72082 0.53424 0.93676 0.0
H478 H 0.75589 0.56125 0.90901 0.0
H479 H 0.75536 0.53476 0.95169 0.0
H480 H 0.86229 0.62992 0.89364 0.0
H481 H 0.85434 0.56107 -0.00865 0.0
H482 H 0.81357 0.64696 0.94625 0.0
H483 H 0.78782 0.61681 0.90803 0.0
H484 H 0.82497 0.64325 0.88608 0.0
H485 H 0.80471 0.56229 0.07 0.0
H486 H 0.81253 0.5349 0.04303 0.0
H487 H 0.77847 0.53533 0.02808 0.0
C488 C 0.14671 0.76908 0.38967 0.0
C489 C 0.13886 0.73944 0.37775 0.0
C490 C 0.17356 0.79366 0.37286 0.0
C491 C 0.19299 0.78855 0.343 0.0
C492 C 0.18562 0.75865 0.33187 0.0
C493 C 0.15865 0.7344 0.34955 0.0
C494 C 0.18068 0.82517 0.38593 0.0
C495 C 0.20569 0.75233 0.29991 0.0
C496 C 0.24099 0.8539 0.25935 0.0
C497 C 0.2687 0.86795 0.28362 0.0
C498 C 0.21663 0.82718 0.27707 0.0
C499 C 0.21983 0.81467 0.32093 0.0
C500 C 0.24799 0.82848 0.34516 0.0
C501 C 0.27227 0.85482 0.3258 0.0
C502 C 0.18722 0.8128 0.24953 0.0
C503 C 0.25209 0.8162 0.39252 0.0
H504 H 0.13164 0.77317 0.41173 0.0
H505 H 0.15271 0.71154 0.34024 0.0
H506 H 0.20365 0.83806 0.40157 0.0
H507 H 0.18027 0.83722 0.35276 0.0
H508 H 0.16438 0.82524 0.41236 0.0
H509 H 0.19787 0.72787 0.2974 0.0
H510 H 0.20624 0.76103 0.26285 0.0
H511 H 0.22911 0.76419 0.31392 0.0
H512 H 0.23831 0.86389 0.22641 0.0
H513 H 0.29368 0.86578 0.34472 0.0
H514 H 0.16982 0.8143 0.27125 0.0
H515 H 0.17915 0.78856 0.24329 0.0
H516 H 0.18924 0.82381 0.21393 0.0
H517 H 0.23787 0.81827 0.42083 0.0
H518 H 0.27586 0.82832 0.40509 0.0
H519 H 0.24462 0.79191 0.38887 0.0
C520 C 0.38221 0.14544 0.72681 0.0
C521 C 0.40054 0.13464 0.70859 0.0
C522 C 0.38446 0.17212 0.70901 0.0
C523 C 0.40514 0.1881 0.6714 0.0
C524 C 0.4242 0.17767 0.6536 0.0
C525 C 0.42185 0.15116 0.67274 0.0
C526 C 0.36408 0.18274 0.72955 0.0
C527 C 0.4462 0.19382 0.61303 0.0
C528 C 0.38249 0.23401 0.59231 0.0
C529 C 0.40072 0.26319 0.61052 0.0
C530 C 0.38463 0.20961 0.61051 0.0
C531 C 0.40512 0.2144 0.64854 0.0
C532 C 0.42411 0.24395 0.66637 0.0
C533 C 0.42186 0.26809 0.6468 0.0
C534 C 0.36434 0.17855 0.58989 0.0
C535 C 0.44593 0.24987 0.70733 0.0
H536 H 0.36588 0.13288 0.75482 0.0
H537 H 0.43598 0.14282 0.65843 0.0
H538 H 0.37747 0.20671 0.74066 0.0
H539 H 0.34796 0.18121 0.70129 0.0
H540 H 0.35108 0.1692 0.76136 0.0
H541 H 0.46081 0.18402 0.60555 0.0
H542 H 0.43367 0.19251 0.57943 0.0
H543 H 0.46069 0.21803 0.62198 0.0
H544 H 0.36628 0.23016 0.56396 0.0
H545 H 0.43591 0.29061 0.66112 0.0
H546 H 0.3482 0.16393 0.61804 0.0
H547 H 0.37781 0.16805 0.57897 0.0
H548 H 0.35136 0.17901 0.55794 0.0
H549 H 0.43326 0.23858 0.74075 0.0
H550 H 0.46043 0.2743 0.71495 0.0
H551 H 0.46053 0.24025 0.69872 0.0
C552 C 0.36334 0.3307 0.73521 0.0
C553 C 0.34049 0.32385 0.70116 0.0
C554 C 0.35827 0.33192 0.78485 0.0
C555 C 0.32941 0.32536 0.80093 0.0
C556 C 0.30573 0.31663 0.76701 0.0
C557 C 0.31167 0.3164 0.71736 0.0
C558 C 0.38426 0.34182 0.81979 0.0
C559 C 0.27445 0.30859 0.78298 0.0
C560 C 0.31848 0.3135 0.93679 0.0
C561 C 0.32479 0.34212 0.95246 0.0
C562 C 0.3181 0.30708 0.88722 0.0
C563 C 0.32493 0.33005 0.85273 0.0
C564 C 0.33014 0.3586 0.86825 0.0
C565 C 0.32966 0.36417 0.9179 0.0
C566 C 0.31155 0.2761 0.8719 0.0
C567 C 0.33792 0.38384 0.83263 0.0
H568 H 0.38571 0.33665 0.72289 0.0
H569 H 0.29386 0.31081 0.69117 0.0
H570 H 0.38932 0.36341 0.83708 0.0
H571 H 0.37821 0.32498 0.84913 0.0
H572 H 0.40497 0.34501 0.80164 0.0
H573 H 0.25777 0.29846 0.7531 0.0
H574 H 0.26706 0.29252 0.81376 0.0
H575 H 0.27452 0.32913 0.7958 0.0
H576 H 0.31433 0.29625 0.96333 0.0
H577 H 0.33462 0.38636 0.92973 0.0
H578 H 0.33248 0.27732 0.85831 0.0
H579 H 0.29494 0.26751 0.84181 0.0
H580 H 0.30273 0.25973 0.90233 0.0
H581 H 0.35967 0.39015 0.8148 0.0
H582 H 0.33984 0.40419 0.85035 0.0
H583 H 0.32058 0.37637 0.80376 0.0
C584 C 0.96598 0.33196 0.24838 0.0
C585 C 0.98231 0.32543 0.28226 0.0
C586 C 0.97165 0.33249 0.19859 0.0
C587 C 0.99366 0.32558 0.18223 0.0
C588 C 0.00879 0.317 0.21602 0.0
C589 C 0.00324 0.31744 0.26577 0.0
C590 C 0.95538 0.34223 0.16379 0.0
C591 C 0.03172 0.30859 0.1998 0.0
C592 C 0.99311 0.31374 0.04624 0.0
C593 C 0.01578 0.34224 0.03086 0.0
C594 C 0.98668 0.30735 0.09576 0.0
C595 C 0.00277 0.33027 0.13041 0.0
C596 C 0.02632 0.35875 0.11515 0.0
C597 C 0.03277 0.36425 0.06562 0.0
C598 C 0.96205 0.27645 0.11084 0.0
C599 C 0.04372 0.38396 0.15091 0.0
H600 H 0.94986 0.33827 0.2609 0.0
H601 H 0.01567 0.31204 0.29182 0.0
H602 H 0.97179 0.3639 0.14661 0.0
H603 H 0.94465 0.32542 0.13435 0.0
H604 H 0.93777 0.34525 0.18205 0.0
H605 H 0.03818 0.29833 0.22958 0.0
H606 H 0.02282 0.29251 0.16901 0.0
H607 H 0.05228 0.329 0.18692 0.0
H608 H 0.98011 0.29653 0.01954 0.0
H609 H 0.05024 0.38637 0.05401 0.0
H610 H 0.94243 0.27784 0.12441 0.0
H611 H 0.9699 0.26769 0.1409 0.0
H612 H 0.95442 0.26011 0.08032 0.0
H613 H 0.02821 0.39009 0.16902 0.0
H614 H 0.06203 0.40442 0.13329 0.0
H615 H 0.05375 0.37652 0.17955 0.0
C616 C 0.68892 1.00003 0.59935 0.0
C617 C 0.65936 0.98134 0.61558 0.0
C618 C 0.69522 0.00563 0.54966 0.0
C619 C 0.67124 0.99304 0.51582 0.0
C620 C 0.64148 0.97347 0.532 0.0
C621 C 0.63598 0.96752 0.58166 0.0
C622 C 0.72734 0.02578 0.53357 0.0
C623 C 0.61519 0.96009 0.49718 0.0
C624 C 0.67599 0.03374 0.39878 0.0
C625 C 0.67781 0.01466 0.36417 0.0
C626 C 0.67506 0.0276 0.44846 0.0
C627 C 0.67659 0.00208 0.46399 0.0
C628 C 0.68041 0.98383 0.42949 0.0
C629 C 0.68067 0.99016 0.37989 0.0
C630 C 0.67067 0.04745 0.4841 0.0
C631 C 0.68293 0.95691 0.44481 0.0
H632 H 0.70707 0.01052 0.62555 0.0
H633 H 0.61307 0.95323 0.59412 0.0
H634 H 0.73282 0.01536 0.50288 0.0
H635 H 0.73027 0.04755 0.52055 0.0
H636 H 0.74366 0.03041 0.56342 0.0
H637 H 0.5936 0.94453 0.51545 0.0
H638 H 0.61299 0.97841 0.47977 0.0
H639 H 0.61907 0.94759 0.46792 0.0
H640 H 0.6738 0.05274 0.38705 0.0
H641 H 0.68247 0.97551 0.35341 0.0
H642 H 0.68809 0.0554 0.51289 0.0
H643 H 0.64844 0.03426 0.50204 0.0
H644 H 0.67166 0.06739 0.46638 0.0
H645 H 0.69934 0.96305 0.47495 0.0
H646 H 0.69 0.94763 0.4144 0.0
H647 H 0.66082 0.93892 0.45833 0.0
C648 C 0.63996 0.6792 0.73226 0.0
C649 C 0.65905 0.67638 0.69889 0.0
C650 C 0.64488 0.67941 0.78232 0.0
C651 C 0.66968 0.6771 0.79941 0.0
C652 C 0.69028 0.67653 0.76596 0.0
C653 C 0.68464 0.67601 0.71607 0.0
C654 C 0.6223 0.67992 0.81683 0.0
C655 C 0.71733 0.67469 0.78283 0.0
C656 C 0.68617 0.68894 0.93464 0.0
C657 C 0.67237 0.65911 0.95105 0.0
C658 C 0.68655 0.69531 0.88497 0.0
C659 C 0.67173 0.67124 0.85162 0.0
C660 C 0.65778 0.6411 0.86827 0.0
C661 C 0.65875 0.63543 0.91769 0.0
C662 C 0.70255 0.72767 0.86824 0.0
C663 C 0.641 0.61479 0.83412 0.0
H664 H 0.62026 0.67977 0.71945 0.0
H665 H 0.6998 0.67428 0.69064 0.0
H666 H 0.6093 0.65759 0.8346 0.0
H667 H 0.63389 0.69684 0.84584 0.0
H668 H 0.60624 0.6851 0.79806 0.0
H669 H 0.73348 0.67904 0.75289 0.0
H670 H 0.72921 0.6911 0.81243 0.0
H671 H 0.70983 0.65187 0.79755 0.0
H672 H 0.6968 0.70722 0.9606 0.0
H673 H 0.64774 0.61236 0.93057 0.0
H674 H 0.68606 0.73334 0.8526 0.0
H675 H 0.71887 0.73097 0.83918 0.0
H676 H 0.71477 0.74364 0.89827 0.0
H677 H 0.62262 0.61649 0.81581 0.0
H678 H 0.63104 0.59275 0.85309 0.0
H679 H 0.65638 0.61524 0.80549 0.0
C680 C 0.03585 0.67186 0.24783 0.0
C681 C 0.01916 0.67798 0.28152 0.0
C682 C 0.02993 0.67083 0.19801 0.0
C683 C 0.00728 0.67679 0.18145 0.0
C684 C 0.99172 0.68491 0.21504 0.0
C685 C 0.99757 0.68502 0.26481 0.0
C686 C 0.04671 0.66162 0.16341 0.0
C687 C 0.96805 0.69227 0.19861 0.0
C688 C 0.00716 0.68834 0.04548 0.0
C689 C 0.98496 0.65959 0.03009 0.0
C690 C 0.01365 0.69482 0.09498 0.0
C691 C 0.99814 0.67177 0.12961 0.0
C692 C 0.97509 0.643 0.11434 0.0
C693 C 0.96854 0.63738 0.06481 0.0
C694 C 0.03773 0.72601 0.11006 0.0
C695 C 0.95834 0.61765 0.15008 0.0
H696 H 0.05248 0.66628 0.26052 0.0
H697 H 0.98483 0.69008 0.29072 0.0
H698 H 0.03071 0.63972 0.14639 0.0
H699 H 0.057 0.67838 0.13383 0.0
H700 H 0.06472 0.6593 0.1818 0.0
H701 H 0.96105 0.7021 0.22829 0.0
H702 H 0.97653 0.70836 0.16784 0.0
H703 H 0.94789 0.67147 0.18563 0.0
H704 H 0.01972 0.70567 0.01878 0.0
H705 H 0.95146 0.61508 0.05315 0.0
H706 H 0.05764 0.72524 0.12392 0.0
H707 H 0.02945 0.73447 0.13994 0.0
H708 H 0.04503 0.74227 0.07949 0.0
H709 H 0.97436 0.61219 0.16818 0.0
H710 H 0.9404 0.59691 0.13245 0.0
H711 H 0.94794 0.62463 0.17874 0.0
C712 C 0.30827 0.98094 0.3876 0.0
C713 C 0.3356 0.99572 0.36259 0.0
C714 C 0.30716 0.98576 0.43748 0.0
C715 C 0.33426 0.00459 0.4628 0.0
C716 C 0.36184 0.01989 0.43721 0.0
C717 C 0.36204 0.01569 0.38709 0.0
C718 C 0.27722 0.97007 0.46325 0.0
C719 C 0.39137 0.03928 0.46309 0.0
C720 C 0.33919 0.03357 0.59093 0.0
C721 C 0.34239 0.01208 0.61755 0.0
C722 C 0.3345 0.03041 0.54059 0.0
C723 C 0.3345 0.00601 0.5165 0.0
C724 C 0.33732 0.98407 0.54356 0.0
C725 C 0.34063 0.98709 0.59396 0.0
C726 C 0.3303 0.05351 0.51311 0.0
C727 C 0.33851 0.95831 0.51911 0.0
H728 H 0.28787 0.9656 0.36817 0.0
H729 H 0.38314 0.02682 0.36736 0.0
H730 H 0.27587 0.9517 0.48627 0.0
H731 H 0.27486 0.98606 0.48746 0.0
H732 H 0.25802 0.96018 0.43738 0.0
H733 H 0.41068 0.05009 0.43762 0.0
H734 H 0.39042 0.05717 0.48425 0.0
H735 H 0.3956 0.0253 0.48913 0.0
H736 H 0.34039 0.05279 0.60948 0.0
H737 H 0.34344 0.97069 0.61471 0.0
H738 H 0.31089 0.04221 0.48789 0.0
H739 H 0.35056 0.06773 0.49094 0.0
H740 H 0.32652 0.06843 0.53781 0.0
H741 H 0.31798 0.94486 0.49699 0.0
H742 H 0.34054 0.94307 0.54556 0.0
H743 H 0.35807 0.96732 0.49414 0.0
C744 C 0.45038 0.43512 0.11484 0.0
C745 C 0.42602 0.43787 0.09791 0.0
C746 C 0.47973 0.45992 0.11534 0.0
C747 C 0.48496 0.48817 0.09832 0.0
C748 C 0.46057 0.49118 0.08122 0.0
C749 C 0.43139 0.46603 0.08133 0.0
C750 C 0.50516 0.45588 0.13411 0.0
C751 C 0.46532 0.52093 0.06249 0.0
C752 C 0.55609 0.55917 0.13761 0.0
C753 C 0.5751 0.5642 0.09801 0.0
C754 C 0.52679 0.53426 0.1385 0.0
C755 C 0.51604 0.51454 0.09813 0.0
C756 C 0.53507 0.51985 0.0577 0.0
C757 C 0.56459 0.54438 0.05849 0.0
C758 C 0.50746 0.52888 0.18279 0.0
C759 C 0.52418 0.4998 0.01348 0.0
H760 H 0.44656 0.41354 0.12783 0.0
H761 H 0.41281 0.46846 0.06815 0.0
H762 H 0.52207 0.46125 0.1051 0.0
H763 H 0.51677 0.47172 0.1645 0.0
H764 H 0.49724 0.43256 0.14697 0.0
H765 H 0.44401 0.51948 0.05012 0.0
H766 H 0.47535 0.5383 0.09132 0.0
H767 H 0.48141 0.52871 0.03175 0.0
H768 H 0.56438 0.57443 0.16832 0.0
H769 H 0.57926 0.54849 0.02767 0.0
H770 H 0.50032 0.50623 0.19797 0.0
H771 H 0.48674 0.52929 0.17268 0.0
H772 H 0.51943 0.54598 0.21154 0.0
H773 H 0.51781 0.47641 0.02358 0.0
H774 H 0.54149 0.50758 0.98449 0.0
H775 H 0.50374 0.49913 -0.00139 0.0
C776 C 0.9885 0.55361 0.39738 0.0
C777 C 0.01354 0.57704 0.42072 0.0
C778 C 0.98421 0.52436 0.39616 0.0
C779 C 0.00487 0.51822 0.42047 0.0
C780 C 0.03008 0.54181 0.44455 0.0
C781 C 0.03441 0.57112 0.44361 0.0
C782 C 0.95764 0.50009 0.36868 0.0
C783 C 0.05208 0.53596 0.47215 0.0
C784 C 0.97601 0.43658 0.4557 0.0
C785 C 0.99023 0.42789 0.42134 0.0
C786 C 0.98107 0.46615 0.45648 0.0
C787 C 0.99995 0.48704 0.42093 0.0
C788 C 0.01386 0.47801 0.38553 0.0
C789 C 0.00925 0.44863 0.38675 0.0
C790 C 0.96658 0.47515 0.49568 0.0
C791 C 0.03332 0.49927 0.34612 0.0
H792 H 0.97249 0.55832 0.37937 0.0
H793 H 0.05362 0.58926 0.46204 0.0
H794 H 0.96548 0.48952 0.34161 0.0
H795 H 0.94234 0.48211 0.39398 0.0
H796 H 0.94461 0.50895 0.34957 0.0
H797 H 0.07007 0.5566 0.48994 0.0
H798 H 0.03997 0.51858 0.50035 0.0
H799 H 0.06276 0.52705 0.44731 0.0
H800 H 0.96155 0.42043 0.48268 0.0
H801 H 0.02013 0.44165 0.3602 0.0
H802 H 0.95114 0.48195 0.47923 0.0
H803 H 0.98409 0.49492 0.51587 0.0
H804 H 0.95362 0.45661 0.52183 0.0
H805 H 0.0204 0.50769 0.32557 0.0
H806 H 0.04156 0.48838 0.32031 0.0
H807 H 0.05304 0.51914 0.36238 0.0
C808 C 0.56314 0.00749 0.71946 0.0
C809 C 0.56562 0.98965 0.75548 0.0
C810 C 0.53824 0.01188 0.71815 0.0
C811 C 0.51597 0.99891 0.75473 0.0
C812 C 0.51879 0.98126 0.7917 0.0
C813 C 0.54342 0.97643 0.79115 0.0
C814 C 0.53556 0.03004 0.67732 0.0
C815 C 0.49597 0.96773 0.83204 0.0
C816 C 0.46589 0.03291 0.77577 0.0
C817 C 0.43879 0.01107 0.75489 0.0
C818 C 0.49118 0.02913 0.77641 0.0
C819 C 0.48951 0.00345 0.75403 0.0
C820 C 0.46237 0.98181 0.73158 0.0
C821 C 0.43714 0.98562 0.7331 0.0
C822 C 0.51942 0.05219 0.80203 0.0
C823 C 0.45997 0.95466 0.70595 0.0
H824 H 0.58044 0.01755 0.69187 0.0
H825 H 0.54568 0.96281 0.81911 0.0
H826 H 0.51401 0.01626 0.65768 0.0
H827 H 0.53524 0.04999 0.69209 0.0
H828 H 0.55438 0.03785 0.651 0.0
H829 H 0.50223 0.95581 0.85924 0.0
H830 H 0.4937 0.98566 0.85075 0.0
H831 H 0.47357 0.95152 0.81686 0.0
H832 H 0.46697 0.05244 0.79302 0.0
H833 H 0.41615 0.96886 0.71666 0.0
H834 H 0.53857 0.06219 0.7763 0.0
H835 H 0.52531 0.04113 0.83122 0.0
H836 H 0.51688 0.07062 0.81828 0.0
H837 H 0.478 0.96194 0.67832 0.0
H838 H 0.43783 0.94096 0.6878 0.0
H839 H 0.46318 0.94016 0.73228 0.0
C840 C 0.55942 0.55278 0.59718 0.0
C841 C 0.56218 0.57299 0.56076 0.0
C842 C 0.53441 0.52354 0.59852 0.0
C843 C 0.51228 0.51416 0.56158 0.0
C844 C 0.51531 0.53455 0.52434 0.0
C845 C 0.54007 0.56397 0.52483 0.0
C846 C 0.53156 0.50278 0.63956 0.0
C847 C 0.49264 0.52517 0.48365 0.0
C848 C 0.46305 0.42985 0.54088 0.0
C849 C 0.43582 0.4242 0.56165 0.0
C850 C 0.48804 0.45914 0.53996 0.0
C851 C 0.48596 0.48303 0.56191 0.0
C852 C 0.45864 0.4772 0.58398 0.0
C853 C 0.43371 0.44792 0.58278 0.0
C854 C 0.51646 0.46463 0.51476 0.0
C855 C 0.45582 0.50183 0.60913 0.0
H856 H 0.57668 0.56003 0.62492 0.0
H857 H 0.54257 0.57974 0.49652 0.0
H858 H 0.50976 0.49469 0.65846 0.0
H859 H 0.53172 0.48268 0.62507 0.0
H860 H 0.55008 0.51397 0.66645 0.0
H861 H 0.49881 0.54344 0.45667 0.0
H862 H 0.49078 0.50519 0.46475 0.0
H863 H 0.47009 0.51857 0.49846 0.0
H864 H 0.46452 0.41149 0.52414 0.0
H865 H 0.41266 0.44342 0.59917 0.0
H866 H 0.53545 0.47369 0.54089 0.0
H867 H 0.52247 0.48176 0.48584 0.0
H868 H 0.5141 0.44379 0.49824 0.0
H869 H 0.4735 0.51258 0.63738 0.0
H870 H 0.43345 0.49326 0.62645 0.0
H871 H 0.4593 0.5196 0.58271 0.0
C872 C 0.01057 0.56371 0.8537 0.0
C873 C 0.98833 0.56375 0.88326 0.0
C874 C 0.01528 0.539 0.85302 0.0
C875 C 0.99764 0.5139 0.88318 0.0
C876 C 0.97521 0.51379 0.91318 0.0
C877 C 0.97065 0.53861 0.91256 0.0
C878 C 0.03909 0.53974 0.81996 0.0
C879 C 0.95622 0.48759 0.94629 0.0
C880 C 0.99086 0.43846 0.85276 0.0
C881 C 0.01226 0.43806 0.88402 0.0
C882 C 0.98608 0.46312 0.85179 0.0
C883 C 0.00273 0.48775 0.88341 0.0
C884 C 0.02427 0.48743 0.91521 0.0
C885 C 0.02897 0.46271 0.91482 0.0
C886 C 0.96328 0.46287 0.81679 0.0
C887 C 0.04215 0.5131 0.94994 0.0
H888 H 0.02416 0.58294 0.83065 0.0
H889 H 0.95355 0.53853 0.93572 0.0
H890 H 0.0564 0.53806 0.8417 0.0
H891 H 0.02885 0.52009 0.79508 0.0
H892 H 0.05039 0.56066 0.79793 0.0
H893 H 0.93992 0.49113 0.96772 0.0
H894 H 0.94354 0.46664 0.92472 0.0
H895 H 0.97092 0.48402 0.97174 0.0
H896 H 0.97805 0.41961 0.82857 0.0
H897 H 0.0454 0.46246 0.93929 0.0
H898 H 0.97427 0.48286 0.79272 0.0
H899 H 0.94535 0.46428 0.83704 0.0
H900 H 0.95264 0.44226 0.79391 0.0
H901 H 0.05552 0.53437 0.92949 0.0
H902 H 0.05772 0.50919 0.97281 0.0
H903 H 0.02665 0.51629 0.97401 0.0
C904 C 0.57092 0.03072 0.243 0.0
C905 C 0.57725 0.01017 0.21971 0.0
C906 C 0.54161 0.02632 0.24352 0.0
C907 C 0.51809 1.00093 0.21978 0.0
C908 C 0.52431 0.98016 0.19611 0.0
C909 C 0.55375 0.98496 0.19651 0.0
C910 C 0.5358 0.04885 0.26947 0.0
C911 C 0.4999 0.95299 0.16997 0.0
C912 C 0.43691 0.97494 0.25412 0.0
C913 C 0.42848 0.98843 0.21781 0.0
C914 C 0.46609 0.97898 0.25543 0.0
C915 C 0.48707 0.99638 0.21897 0.0
C916 C 0.47845 0.00953 0.18169 0.0
C917 C 0.44937 0.00565 0.18183 0.0
C918 C 0.4746 0.965 0.29618 0.0
C919 C 0.49997 0.02774 0.14164 0.0
H920 H 0.58884 0.05019 0.26121 0.0
H921 H 0.55837 0.96899 0.17821 0.0
H922 H 0.52726 0.05933 0.24342 0.0
H923 H 0.51817 0.03728 0.29748 0.0
H924 H 0.55636 0.06699 0.28721 0.0
H925 H 0.50843 0.93896 0.15334 0.0
H926 H 0.48153 0.93879 0.19555 0.0
H927 H 0.48993 0.96032 0.14101 0.0
H928 H 0.42092 0.96181 0.2822 0.0
H929 H 0.44287 0.0159 0.15342 0.0
H930 H 0.49403 0.98281 0.31658 0.0
H931 H 0.48174 0.94946 0.28125 0.0
H932 H 0.45574 0.95228 0.32189 0.0
H933 H 0.52006 0.04757 0.15721 0.0
H934 H 0.48949 0.03577 0.11461 0.0
H935 H 0.50795 0.01398 0.12261 0.0
loop_
_geom_bond_atom_site_label_1
_geom_bond_atom_site_label_2
_geom_bond_distance
_geom_bond_site_symmetry_2
_ccdc_geom_bond_type
Co0 O1 2.216 . S
Co0 O2 2.091 . S
Co0 O4 2.004 . S
Co0 O10 2.021 . S
Co0 O12 2.137 . S
Co0 O13 2.244 . S
O1 Co0 2.216 . S
O1 C8 1.247 . S
O2 Co0 2.091 . S
O2 C8 1.261 . S
C3 O12 1.247 . S
C3 O13 1.272 . S
O4 Co0 2.004 . S
O4 C9 1.259 . S
Co5 O6 2.061 . S
Co5 O11 2.052 . S
Co5 O13 2.135 . S
O6 Co5 2.061 . S
O6 C9 1.235 . S
C7 O10 1.238 1_556 S
C7 O11 1.241 1_556 S
C8 O1 1.247 . S
C8 O2 1.261 . S
C9 O4 1.259 . S
C9 O6 1.235 . S
O10 Co0 2.021 . S
O10 C7 1.238 1_554 S
O11 Co5 2.052 . S
O11 C7 1.241 1_554 S
O12 Co0 2.137 . S
O12 C3 1.247 . S
O13 Co0 2.244 . S
O13 C3 1.272 . S
O13 Co5 2.135 . S
Co14 O15 2.216 . S
Co14 O16 2.091 . S
Co14 O18 2.004 . S
Co14 O24 2.021 . S
Co14 O26 2.137 . S
Co14 O27 2.244 . S
O15 Co14 2.216 . S
O15 C22 1.247 . S
O16 Co14 2.091 . S
O16 C22 1.261 . S
C17 O26 1.247 . S
C17 O27 1.272 . S
O18 Co14 2.004 . S
O18 C23 1.259 . S
Co19 O20 2.061 . S
Co19 O25 2.052 . S
Co19 O27 2.135 1_455 S
O20 Co19 2.061 . S
O20 C23 1.235 1_455 S
C21 O24 1.238 . S
C21 O25 1.241 1_655 S
C22 O15 1.247 . S
C22 O16 1.261 . S
C23 O18 1.259 . S
C23 O20 1.235 1_655 S
O24 Co14 2.021 . S
O24 C21 1.238 . S
O25 Co19 2.052 . S
O25 C21 1.241 1_455 S
O26 Co14 2.137 . S
O26 C17 1.247 . S
O27 Co14 2.244 . S
O27 C17 1.272 . S
O27 Co19 2.135 1_655 S
Co28 O29 2.216 . S
Co28 O30 2.091 . S
Co28 O32 2.004 . S
Co28 O38 2.021 . S
Co28 O40 2.137 . S
Co28 O41 2.244 . S
O29 Co28 2.216 . S
O29 C36 1.247 . S
O30 Co28 2.091 . S
O30 C36 1.261 . S
C31 O40 1.247 . S
C31 O41 1.272 . S
O32 Co28 2.004 . S
O32 C37 1.259 . S
Co33 O34 2.061 . S
Co33 O39 2.052 . S
Co33 O41 2.135 1_545 S
O34 Co33 2.061 . S
O34 C37 1.235 1_545 S
C35 O38 1.238 . S
C35 O39 1.241 1_565 S
C36 O29 1.247 . S
C36 O30 1.261 . S
C37 O32 1.259 . S
C37 O34 1.235 1_565 S
O38 Co28 2.021 . S
O38 C35 1.238 . S
O39 Co33 2.052 . S
O39 C35 1.241 1_545 S
O40 Co28 2.137 . S
O40 C31 1.247 . S
O41 Co28 2.244 . S
O41 C31 1.272 . S
O41 Co33 2.135 1_565 S
Co42 O43 2.216 . S
Co42 O44 2.091 . S
Co42 O46 2.004 . S
Co42 O52 2.021 . S
Co42 O54 2.137 . S
Co42 O55 2.244 . S
O43 Co42 2.216 . S
O43 C50 1.247 . S
O44 Co42 2.091 . S
O44 C50 1.261 . S
C45 O54 1.247 . S
C45 O55 1.272 . S
O46 Co42 2.004 . S
O46 C51 1.259 . S
Co47 O48 2.061 . S
Co47 O53 2.052 . S
Co47 O55 2.135 . S
O48 Co47 2.061 . S
O48 C51 1.235 . S
C49 O52 1.238 1_556 S
C49 O53 1.241 1_556 S
C50 O43 1.247 . S
C50 O44 1.261 . S
C51 O46 1.259 . S
C51 O48 1.235 . S
O52 Co42 2.021 . S
O52 C49 1.238 1_554 S
O53 Co47 2.052 . S
O53 C49 1.241 1_554 S
O54 Co42 2.137 . S
O54 C45 1.247 . S
O55 Co42 2.244 . S
O55 C45 1.272 . S
O55 Co47 2.135 . S
Co56 O57 2.216 . S
Co56 O58 2.091 . S
Co56 O60 2.004 . S
Co56 O66 2.021 . S
Co56 O68 2.137 . S
Co56 O69 2.244 . S
O57 Co56 2.216 . S
O57 C64 1.247 . S
O58 Co56 2.091 . S
O58 C64 1.261 . S
C59 O68 1.247 . S
C59 O69 1.272 . S
O60 Co56 2.004 . S
O60 C65 1.259 . S
Co61 O62 2.061 . S
Co61 O67 2.052 . S
Co61 O69 2.135 1_655 S
O62 Co61 2.061 . S
O62 C65 1.235 1_655 S
C63 O66 1.238 . S
C63 O67 1.241 1_455 S
C64 O57 1.247 . S
C64 O58 1.261 . S
C65 O60 1.259 . S
C65 O62 1.235 1_455 S
O66 Co56 2.021 . S
O66 C63 1.238 . S
O67 Co61 2.052 . S
O67 C63 1.241 1_655 S
O68 Co56 2.137 . S
O68 C59 1.247 . S
O69 Co56 2.244 . S
O69 C59 1.272 . S
O69 Co61 2.135 1_455 S
Co70 O71 2.216 . S
Co70 O72 2.091 . S
Co70 O74 2.004 . S
Co70 O80 2.021 . S
Co70 O82 2.137 . S
Co70 O83 2.244 . S
O71 Co70 2.216 . S
O71 C78 1.247 . S
O72 Co70 2.091 . S
O72 C78 1.261 . S
C73 O82 1.247 . S
C73 O83 1.272 . S
O74 Co70 2.004 . S
O74 C79 1.259 . S
Co75 O76 2.061 . S
Co75 O81 2.052 . S
Co75 O83 2.135 1_565 S
O76 Co75 2.061 . S
O76 C79 1.235 1_565 S
C77 O80 1.238 . S
C77 O81 1.241 1_545 S
C78 O71 1.247 . S
C78 O72 1.261 . S
C79 O74 1.259 . S
C79 O76 1.235 1_545 S
O80 Co70 2.021 . S
O80 C77 1.238 . S
O81 Co75 2.052 . S
O81 C77 1.241 1_565 S
O82 Co70 2.137 . S
O82 C73 1.247 . S
O83 Co70 2.244 . S
O83 C73 1.272 . S
O83 Co75 2.135 1_545 S
Co84 O85 2.216 . S
Co84 O86 2.091 . S
Co84 O88 2.004 . S
Co84 O94 2.021 . S
Co84 O96 2.137 . S
Co84 O97 2.244 . S
O85 Co84 2.216 . S
O85 C92 1.247 . S
O86 Co84 2.091 . S
O86 C92 1.261 . S
C87 O96 1.247 . S
C87 O97 1.272 . S
O88 Co84 2.004 . S
O88 C93 1.259 . S
Co89 O90 2.061 . S
Co89 O95 2.052 . S
Co89 O97 2.135 . S
O90 Co89 2.061 . S
O90 C93 1.235 . S
C91 O94 1.238 . S
C91 O95 1.241 . S
C92 O85 1.247 . S
C92 O86 1.261 . S
C93 O88 1.259 . S
C93 O90 1.235 . S
O94 Co84 2.021 . S
O94 C91 1.238 . S
O95 Co89 2.052 . S
O95 C91 1.241 . S
O96 Co84 2.137 . S
O96 C87 1.247 . S
O97 Co84 2.244 . S
O97 C87 1.272 . S
O97 Co89 2.135 . S
Co98 O99 2.216 . S
Co98 O100 2.091 . S
Co98 O102 2.004 . S
Co98 O108 2.021 . S
Co98 O110 2.137 . S
Co98 O111 2.244 . S
O99 Co98 2.216 . S
O99 C106 1.247 . S
O100 Co98 2.091 . S
O100 C106 1.261 . S
C101 O110 1.247 . S
C101 O111 1.272 . S
O102 Co98 2.004 . S
O102 C107 1.259 . S
Co103 O104 2.061 . S
Co103 O109 2.052 . S
Co103 O111 2.135 1_455 S
O104 Co103 2.061 . S
O104 C107 1.235 1_455 S
C105 O108 1.238 1_554 S
C105 O109 1.241 1_654 S
C106 O99 1.247 . S
C106 O100 1.261 . S
C107 O102 1.259 . S
C107 O104 1.235 1_655 S
O108 Co98 2.021 . S
O108 C105 1.238 1_556 S
O109 Co103 2.052 . S
O109 C105 1.241 1_456 S
O110 Co98 2.137 . S
O110 C101 1.247 . S
O111 Co98 2.244 . S
O111 C101 1.272 . S
O111 Co103 2.135 1_655 S
Co112 O113 2.216 . S
Co112 O114 2.091 . S
Co112 O116 2.004 . S
Co112 O122 2.021 . S
Co112 O124 2.137 . S
Co112 O125 2.244 . S
O113 Co112 2.216 . S
O113 C120 1.247 . S
O114 Co112 2.091 . S
O114 C120 1.261 . S
C115 O124 1.247 . S
C115 O125 1.272 . S
O116 Co112 2.004 . S
O116 C121 1.259 . S
Co117 O118 2.061 . S
Co117 O123 2.052 . S
Co117 O125 2.135 1_545 S
O118 Co117 2.061 . S
O118 C121 1.235 1_545 S
C119 O122 1.238 . S
C119 O123 1.241 1_565 S
C120 O113 1.247 . S
C120 O114 1.261 . S
C121 O116 1.259 . S
C121 O118 1.235 1_565 S
O122 Co112 2.021 . S
O122 C119 1.238 . S
O123 Co117 2.052 . S
O123 C119 1.241 1_545 S
O124 Co112 2.137 . S
O124 C115 1.247 . S
O125 Co112 2.244 . S
O125 C115 1.272 . S
O125 Co117 2.135 1_565 S
Co126 O127 2.216 . S
Co126 O128 2.091 . S
Co126 O130 2.004 . S
Co126 O136 2.021 . S
Co126 O138 2.137 . S
Co126 O139 2.244 . S
O127 Co126 2.216 . S
O127 C134 1.247 . S
O128 Co126 2.091 . S
O128 C134 1.261 . S
C129 O138 1.247 . S
C129 O139 1.272 . S
O130 Co126 2.004 . S
O130 C135 1.259 . S
Co131 O132 2.061 . S
Co131 O137 2.052 . S
Co131 O139 2.135 . S
O132 Co131 2.061 . S
O132 C135 1.235 . S
C133 O136 1.238 . S
C133 O137 1.241 . S
C134 O127 1.247 . S
C134 O128 1.261 . S
C135 O130 1.259 . S
C135 O132 1.235 . S
O136 Co126 2.021 . S
O136 C133 1.238 . S
O137 Co131 2.052 . S
O137 C133 1.241 . S
O138 Co126 2.137 . S
O138 C129 1.247 . S
O139 Co126 2.244 . S
O139 C129 1.272 . S
O139 Co131 2.135 . S
Co140 O141 2.216 . S
Co140 O142 2.091 . S
Co140 O144 2.004 . S
Co140 O150 2.021 . S
Co140 O152 2.137 . S
Co140 O153 2.244 . S
O141 Co140 2.216 . S
O141 C148 1.247 . S
O142 Co140 2.091 . S
O142 C148 1.261 . S
C143 O152 1.247 . S
C143 O153 1.272 . S
O144 Co140 2.004 . S
O144 C149 1.259 . S
Co145 O146 2.061 . S
Co145 O151 2.052 . S
Co145 O153 2.135 1_655 S
O146 Co145 2.061 . S
O146 C149 1.235 1_655 S
C147 O150 1.238 1_554 S
C147 O151 1.241 1_454 S
C148 O141 1.247 . S
C148 O142 1.261 . S
C149 O144 1.259 . S
C149 O146 1.235 1_455 S
O150 Co140 2.021 . S
O150 C147 1.238 1_556 S
O151 Co145 2.052 . S
O151 C147 1.241 1_656 S
O152 Co140 2.137 . S
O152 C143 1.247 . S
O153 Co140 2.244 . S
O153 C143 1.272 . S
O153 Co145 2.135 1_455 S
Co154 O155 2.216 . S
Co154 O156 2.091 . S
Co154 O158 2.004 . S
Co154 O164 2.021 . S
Co154 O166 2.137 . S
Co154 O167 2.244 . S
O155 Co154 2.216 . S
O155 C162 1.247 . S
O156 Co154 2.091 . S
O156 C162 1.261 . S
C157 O166 1.247 . S
C157 O167 1.272 . S
O158 Co154 2.004 . S
O158 C163 1.259 . S
Co159 O160 2.061 . S
Co159 O165 2.052 . S
Co159 O167 2.135 1_565 S
O160 Co159 2.061 . S
O160 C163 1.235 1_565 S
C161 O164 1.238 . S
C161 O165 1.241 1_545 S
C162 O155 1.247 . S
C162 O156 1.261 . S
C163 O158 1.259 . S
C163 O160 1.235 1_545 S
O164 Co154 2.021 . S
O164 C161 1.238 . S
O165 Co159 2.052 . S
O165 C161 1.241 1_565 S
O166 Co154 2.137 . S
O166 C157 1.247 . S
O167 Co154 2.244 . S
O167 C157 1.272 . S
O167 Co159 2.135 1_545 S
C168 C169 1.391 . S
C168 C170 1.394 . S
C168 H184 0.931 . S
C169 C168 1.391 . S
C169 C173 1.376 . S
C170 C168 1.394 . S
C170 C171 1.369 . S
C170 C174 1.531 . S
C171 C170 1.369 . S
C171 C172 1.410 . S
C171 C179 1.503 . S
C172 C171 1.410 . S
C172 C173 1.392 . S
C172 C175 1.511 . S
C173 C169 1.376 . S
C173 C172 1.392 . S
C173 H185 0.929 . S
C174 C170 1.531 . S
C174 H186 0.960 . S
C174 H187 0.962 . S
C174 H188 0.960 . S
C175 C172 1.511 . S
C175 H189 0.961 . S
C175 H190 0.961 . S
C175 H191 0.961 . S
C176 C177 1.370 . S
C176 C178 1.363 . S
C176 H192 0.931 . S
C177 C176 1.370 . S
C177 C181 1.408 . S
C178 C176 1.363 . S
C178 C179 1.370 . S
C178 C182 1.524 . S
C179 C171 1.503 . S
C179 C178 1.370 . S
C179 C180 1.403 . S
C180 C179 1.403 . S
C180 C181 1.404 . S
C180 C183 1.539 . S
C181 C177 1.408 . S
C181 C180 1.404 . S
C181 H193 0.930 . S
C182 C178 1.524 . S
C182 H194 0.956 . S
C182 H195 0.961 . S
C182 H196 0.961 . S
C183 C180 1.539 . S
C183 H197 0.958 . S
C183 H198 0.961 . S
C183 H199 0.960 . S
H184 C168 0.931 . S
H185 C173 0.929 . S
H186 C174 0.960 . S
H187 C174 0.962 . S
H188 C174 0.960 . S
H189 C175 0.961 . S
H190 C175 0.961 . S
H191 C175 0.961 . S
H192 C176 0.931 . S
H193 C181 0.930 . S
H194 C182 0.956 . S
H195 C182 0.961 . S
H196 C182 0.961 . S
H197 C183 0.958 . S
H198 C183 0.961 . S
H199 C183 0.960 . S
C200 C201 1.391 1_455 S
C200 C202 1.394 . S
C200 H216 0.931 . S
C201 C200 1.391 1_655 S
C201 C205 1.376 . S
C202 C200 1.394 . S
C202 C203 1.369 1_455 S
C202 C206 1.531 . S
C203 C202 1.369 1_655 S
C203 C204 1.410 . S
C203 C211 1.503 1_655 S
C204 C203 1.410 . S
C204 C205 1.392 . S
C204 C207 1.511 . S
C205 C201 1.376 . S
C205 C204 1.392 . S
C205 H217 0.929 . S
C206 C202 1.531 . S
C206 H218 0.960 . S
C206 H219 0.962 . S
C206 H220 0.960 . S
C207 C204 1.511 . S
C207 H221 0.961 . S
C207 H222 0.961 . S
C207 H223 0.961 . S
C208 C209 1.370 . S
C208 C210 1.363 . S
C208 H224 0.931 . S
C209 C208 1.370 . S
C209 C213 1.408 . S
C210 C208 1.363 . S
C210 C211 1.370 . S
C210 C214 1.524 . S
C211 C203 1.503 1_455 S
C211 C210 1.370 . S
C211 C212 1.403 1_455 S
C212 C211 1.403 1_655 S
C212 C213 1.404 1_655 S
C212 C215 1.539 . S
C213 C209 1.408 . S
C213 C212 1.404 1_455 S
C213 H225 0.914 1_455 S
C214 C210 1.524 . S
C214 H226 0.956 . S
C214 H227 0.961 1_455 S
C214 H228 0.961 . S
C215 C212 1.539 . S
C215 H229 0.958 1_655 S
C215 H230 0.961 . S
C215 H231 0.960 . S
H216 C200 0.931 . S
H217 C205 0.929 . S
H218 C206 0.960 . S
H219 C206 0.962 . S
H220 C206 0.960 . S
H221 C207 0.961 . S
H222 C207 0.961 . S
H223 C207 0.961 . S
H224 C208 0.931 . S
H225 C213 0.914 1_655 S
H226 C214 0.956 . S
H227 C214 0.961 1_655 S
H228 C214 0.961 . S
H229 C215 0.958 1_455 S
H230 C215 0.961 . S
H231 C215 0.960 . S
C232 C233 1.391 . S
C232 C234 1.394 . S
C232 H248 0.931 . S
C233 C232 1.391 . S
C233 C237 1.376 1_565 S
C234 C232 1.394 . S
C234 C235 1.369 . S
C234 C238 1.531 . S
C235 C234 1.369 . S
C235 C236 1.410 1_565 S
C235 C243 1.503 1_556 S
C236 C235 1.410 1_545 S
C236 C237 1.393 . S
C236 C239 1.511 . S
C237 C233 1.376 1_545 S
C237 C236 1.393 . S
C237 H249 0.928 . S
C238 C234 1.531 . S
C238 H250 0.960 1_556 S
C238 H251 0.962 . S
C238 H252 0.960 . S
C239 C236 1.511 . S
C239 H253 0.961 . S
C239 H254 0.961 . S
C239 H255 0.961 . S
C240 C241 1.370 . S
C240 C242 1.363 . S
C240 H256 0.931 . S
C241 C240 1.370 . S
C241 C245 1.408 1_545 S
C242 C240 1.363 . S
C242 C243 1.370 1_545 S
C242 C246 1.524 . S
C243 C235 1.503 1_554 S
C243 C242 1.370 1_565 S
C243 C244 1.403 . S
C244 C243 1.403 . S
C244 C245 1.404 . S
C244 C247 1.539 . S
C245 C241 1.408 1_565 S
C245 C244 1.404 . S
C245 H257 0.930 . S
C246 C242 1.524 . S
C246 H258 0.956 1_554 S
C246 H259 0.961 1_554 S
C246 H260 0.961 . S
C247 C244 1.539 . S
C247 H261 0.958 . S
C247 H262 0.961 . S
C247 H263 0.960 . S
H248 C232 0.931 . S
H249 C237 0.928 . S
H250 C238 0.960 1_554 S
H251 C238 0.962 . S
H252 C238 0.960 . S
H253 C239 0.961 . S
H254 C239 0.961 . S
H255 C239 0.961 . S
H256 C240 0.931 . S
H257 C245 0.930 . S
H258 C246 0.956 1_556 S
H259 C246 0.961 1_556 S
H260 C246 0.961 . S
H261 C247 0.958 . S
H262 C247 0.961 . S
H263 C247 0.960 . S
C264 C265 1.391 . S
C264 C266 1.394 . S
C264 H280 0.931 . S
C265 C264 1.391 . S
C265 C269 1.376 . S
C266 C264 1.394 . S
C266 C267 1.369 . S
C266 C270 1.531 . S
C267 C266 1.369 . S
C267 C268 1.410 . S
C267 C275 1.503 . S
C268 C267 1.410 . S
C268 C269 1.392 . S
C268 C271 1.511 . S
C269 C265 1.376 . S
C269 C268 1.392 . S
C269 H281 0.929 . S
C270 C266 1.531 . S
C270 H282 0.960 . S
C270 H283 0.962 . S
C270 H284 0.960 . S
C271 C268 1.511 . S
C271 H285 0.961 . S
C271 H286 0.961 . S
C271 H287 0.961 . S
C272 C273 1.370 . S
C272 C274 1.363 . S
C272 H288 0.931 . S
C273 C272 1.370 . S
C273 C277 1.408 . S
C274 C272 1.363 . S
C274 C275 1.370 . S
C274 C278 1.524 . S
C275 C267 1.503 . S
C275 C274 1.370 . S
C275 C276 1.403 . S
C276 C275 1.403 . S
C276 C277 1.404 . S
C276 C279 1.539 . S
C277 C273 1.408 . S
C277 C276 1.404 . S
C277 H289 0.930 . S
C278 C274 1.524 . S
C278 H290 0.956 . S
C278 H291 0.961 . S
C278 H292 0.961 . S
C279 C276 1.539 . S
C279 H293 0.958 . S
C279 H294 0.961 . S
C279 H295 0.960 . S
H280 C264 0.931 . S
H281 C269 0.929 . S
H282 C270 0.960 . S
H283 C270 0.962 . S
H284 C270 0.960 . S
H285 C271 0.961 . S
H286 C271 0.961 . S
H287 C271 0.961 . S
H288 C272 0.931 . S
H289 C277 0.930 . S
H290 C278 0.956 . S
H291 C278 0.961 . S
H292 C278 0.961 . S
H293 C279 0.958 . S
H294 C279 0.961 . S
H295 C279 0.960 . S
C296 C297 1.391 . S
C296 C298 1.394 . S
C296 H312 0.931 . S
C297 C296 1.391 . S
C297 C301 1.376 . S
C298 C296 1.394 . S
C298 C299 1.369 1_655 S
C298 C302 1.528 . S
C299 C298 1.369 1_455 S
C299 C300 1.410 . S
C299 C307 1.503 . S
C300 C299 1.410 . S
C300 C301 1.392 1_455 S
C300 C303 1.511 . S
C301 C297 1.376 . S
C301 C300 1.392 1_655 S
C301 H313 0.929 . S
C302 C298 1.528 . S
C302 H314 0.957 1_655 S
C302 H315 0.967 . S
C302 H316 0.961 1_655 S
C303 C300 1.511 . S
C303 H317 0.961 . S
C303 H318 0.961 . S
C303 H319 0.961 . S
C304 C305 1.370 1_655 S
C304 C306 1.363 . S
C304 H320 0.931 . S
C305 C304 1.370 1_455 S
C305 C309 1.408 . S
C306 C304 1.363 . S
C306 C307 1.370 1_655 S
C306 C310 1.524 . S
C307 C299 1.503 . S
C307 C306 1.370 1_455 S
C307 C308 1.403 . S
C308 C307 1.403 . S
C308 C309 1.404 . S
C308 C311 1.539 . S
C309 C305 1.408 . S
C309 C308 1.404 . S
C309 H321 0.930 . S
C310 C306 1.524 . S
C310 H322 0.956 . S
C310 H323 0.961 . S
C310 H324 0.961 . S
C311 C308 1.539 . S
C311 H325 0.958 . S
C311 H326 0.961 . S
C311 H327 0.960 . S
H312 C296 0.931 . S
H313 C301 0.929 . S
H314 C302 0.957 1_455 S
H315 C302 0.967 . S
H316 C302 0.961 1_455 S
H317 C303 0.961 . S
H318 C303 0.961 . S
H319 C303 0.961 . S
H320 C304 0.931 . S
H321 C309 0.930 . S
H322 C310 0.956 . S
H323 C310 0.961 . S
H324 C310 0.961 . S
H325 C311 0.958 . S
H326 C311 0.961 . S
H327 C311 0.960 . S
C328 C329 1.391 . S
C328 C330 1.394 . S
C328 H344 0.931 . S
C329 C328 1.391 . S
C329 C333 1.376 1_565 S
C330 C328 1.394 . S
C330 C331 1.369 . S
C330 C334 1.531 . S
C331 C330 1.369 . S
C331 C332 1.410 1_565 S
C331 C339 1.503 1_554 S
C332 C331 1.410 1_545 S
C332 C333 1.392 . S
C332 C335 1.511 . S
C333 C329 1.376 1_545 S
C333 C332 1.392 . S
C333 H345 0.929 . S
C334 C330 1.531 . S
C334 H346 0.960 1_554 S
C334 H347 0.962 . S
C334 H348 0.960 . S
C335 C332 1.511 . S
C335 H349 0.961 . S
C335 H350 0.961 . S
C335 H351 0.961 . S
C336 C337 1.370 . S
C336 C338 1.363 . S
C336 H352 0.931 . S
C337 C336 1.370 . S
C337 C341 1.408 1_545 S
C338 C336 1.363 . S
C338 C339 1.370 1_545 S
C338 C342 1.524 . S
C339 C331 1.503 1_556 S
C339 C338 1.370 1_565 S
C339 C340 1.403 . S
C340 C339 1.403 . S
C340 C341 1.404 . S
C340 C343 1.539 . S
C341 C337 1.408 1_565 S
C341 C340 1.404 . S
C341 H353 0.930 . S
C342 C338 1.524 . S
C342 H354 0.956 1_556 S
C342 H355 0.961 1_556 S
C342 H356 0.961 . S
C343 C340 1.539 . S
C343 H357 0.958 . S
C343 H358 0.961 . S
C343 H359 0.960 . S
H344 C328 0.931 . S
H345 C333 0.929 . S
H346 C334 0.960 1_556 S
H347 C334 0.962 . S
H348 C334 0.960 . S
H349 C335 0.961 . S
H350 C335 0.961 . S
H351 C335 0.961 . S
H352 C336 0.931 . S
H353 C341 0.930 . S
H354 C342 0.956 1_554 S
H355 C342 0.961 1_554 S
H356 C342 0.961 . S
H357 C343 0.958 . S
H358 C343 0.961 . S
H359 C343 0.960 . S
C360 C361 1.391 1_554 S
C360 C362 1.394 . S
C360 H376 0.931 . S
C361 C360 1.391 1_556 S
C361 C365 1.376 . S
C362 C360 1.394 . S
C362 C363 1.369 1_554 S
C362 C366 1.531 . S
C363 C362 1.369 1_556 S
C363 C364 1.410 . S
C363 C371 1.503 1_556 S
C364 C363 1.410 . S
C364 C365 1.392 . S
C364 C367 1.511 . S
C365 C361 1.376 . S
C365 C364 1.392 . S
C365 H377 0.929 . S
C366 C362 1.531 . S
C366 H378 0.960 . S
C366 H379 0.962 . S
C366 H380 0.960 . S
C367 C364 1.511 . S
C367 H381 0.961 . S
C367 H382 0.961 . S
C367 H383 0.961 . S
C368 C369 1.370 . S
C368 C370 1.363 1_554 S
C368 H384 0.939 . S
C369 C368 1.370 . S
C369 C373 1.408 . S
C370 C368 1.363 1_556 S
C370 C371 1.370 1_556 S
C370 C374 1.524 . S
C371 C363 1.503 1_554 S
C371 C370 1.370 1_554 S
C371 C372 1.403 . S
C372 C371 1.403 . S
C372 C373 1.404 . S
C372 C375 1.539 . S
C373 C369 1.408 . S
C373 C372 1.404 . S
C373 H385 0.930 . S
C374 C370 1.524 . S
C374 H386 0.956 . S
C374 H387 0.961 . S
C374 H388 0.961 . S
C375 C372 1.539 . S
C375 H389 0.958 . S
C375 H390 0.961 . S
C375 H391 0.960 . S
H376 C360 0.931 . S
H377 C365 0.929 . S
H378 C366 0.960 . S
H379 C366 0.962 . S
H380 C366 0.960 . S
H381 C367 0.961 . S
H382 C367 0.961 . S
H383 C367 0.961 . S
H384 C368 0.939 . S
H385 C373 0.930 . S
H386 C374 0.956 . S
H387 C374 0.961 . S
H388 C374 0.961 . S
H389 C375 0.958 . S
H390 C375 0.961 . S
H391 C375 0.960 . S
C392 C393 1.391 . S
C392 C394 1.394 . S
C392 H408 0.931 . S
C393 C392 1.391 . S
C393 C397 1.376 . S
C394 C392 1.394 . S
C394 C395 1.369 . S
C394 C398 1.531 . S
C395 C394 1.369 . S
C395 C396 1.410 . S
C395 C403 1.503 . S
C396 C395 1.410 . S
C396 C397 1.392 . S
C396 C399 1.511 . S
C397 C393 1.376 . S
C397 C396 1.392 . S
C397 H409 0.929 . S
C398 C394 1.531 . S
C398 H410 0.960 . S
C398 H411 0.962 . S
C398 H412 0.960 . S
C399 C396 1.511 . S
C399 H413 0.961 . S
C399 H414 0.961 . S
C399 H415 0.961 . S
C400 C401 1.370 . S
C400 C402 1.363 . S
C400 H416 0.931 . S
C401 C400 1.370 . S
C401 C405 1.408 . S
C402 C400 1.363 . S
C402 C403 1.370 . S
C402 C406 1.524 . S
C403 C395 1.503 . S
C403 C402 1.370 . S
C403 C404 1.403 . S
C404 C403 1.403 . S
C404 C405 1.404 . S
C404 C407 1.539 . S
C405 C401 1.408 . S
C405 C404 1.404 . S
C405 H417 0.930 . S
C406 C402 1.524 . S
C406 H418 0.956 . S
C406 H419 0.961 . S
C406 H420 0.961 . S
C407 C404 1.539 . S
C407 H421 0.958 . S
C407 H422 0.961 . S
C407 H423 0.960 . S
H408 C392 0.931 . S
H409 C397 0.929 . S
H410 C398 0.960 . S
H411 C398 0.962 . S
H412 C398 0.960 . S
H413 C399 0.961 . S
H414 C399 0.961 . S
H415 C399 0.961 . S
H416 C400 0.931 . S
H417 C405 0.930 . S
H418 C406 0.956 . S
H419 C406 0.961 . S
H420 C406 0.961 . S
H421 C407 0.958 . S
H422 C407 0.961 . S
H423 C407 0.960 . S
C424 C425 1.391 . S
C424 C426 1.394 . S
C424 H440 0.931 . S
C425 C424 1.391 . S
C425 C429 1.376 . S
C426 C424 1.394 . S
C426 C427 1.369 . S
C426 C430 1.531 . S
C427 C426 1.369 . S
C427 C428 1.410 . S
C427 C435 1.503 . S
C428 C427 1.410 . S
C428 C429 1.392 . S
C428 C431 1.511 . S
C429 C425 1.376 . S
C429 C428 1.392 . S
C429 H441 0.929 . S
C430 C426 1.531 . S
C430 H442 0.960 . S
C430 H443 0.962 . S
C430 H444 0.960 . S
C431 C428 1.511 . S
C431 H445 0.961 . S
C431 H446 0.961 . S
C431 H447 0.961 . S
C432 C433 1.370 . S
C432 C434 1.363 . S
C432 H448 0.931 . S
C433 C432 1.370 . S
C433 C437 1.408 . S
C434 C432 1.363 . S
C434 C435 1.370 . S
C434 C438 1.524 . S
C435 C427 1.503 . S
C435 C434 1.370 . S
C435 C436 1.403 . S
C436 C435 1.403 . S
C436 C437 1.404 . S
C436 C439 1.539 . S
C437 C433 1.408 . S
C437 C436 1.404 . S
C437 H449 0.930 . S
C438 C434 1.524 . S
C438 H450 0.956 . S
C438 H451 0.961 . S
C438 H452 0.961 . S
C439 C436 1.539 . S
C439 H453 0.958 . S
C439 H454 0.961 . S
C439 H455 0.960 . S
H440 C424 0.931 . S
H441 C429 0.929 . S
H442 C430 0.960 . S
H443 C430 0.962 . S
H444 C430 0.960 . S
H445 C431 0.961 . S
H446 C431 0.961 . S
H447 C431 0.961 . S
H448 C432 0.931 . S
H449 C437 0.930 . S
H450 C438 0.956 . S
H451 C438 0.961 . S
H452 C438 0.961 . S
H453 C439 0.958 . S
H454 C439 0.961 . S
H455 C439 0.960 . S
C456 C457 1.391 . S
C456 C458 1.394 . S
C456 H472 0.931 . S
C457 C456 1.391 . S
C457 C461 1.376 . S
C458 C456 1.394 . S
C458 C459 1.369 . S
C458 C462 1.531 . S
C459 C458 1.369 . S
C459 C460 1.410 1_554 S
C459 C467 1.503 1_554 S
C460 C459 1.410 1_556 S
C460 C461 1.392 1_556 S
C460 C463 1.511 . S
C461 C457 1.376 . S
C461 C460 1.392 1_554 S
C461 H473 0.929 . S
C462 C458 1.531 . S
C462 H474 0.960 . S
C462 H475 0.962 . S
C462 H476 0.960 . S
C463 C460 1.511 . S
C463 H477 0.961 . S
C463 H478 0.961 . S
C463 H479 0.961 . S
C464 C465 1.370 . S
C464 C466 1.363 . S
C464 H480 0.931 . S
C465 C464 1.370 . S
C465 C469 1.412 . S
C466 C464 1.363 . S
C466 C467 1.370 . S
C466 C470 1.524 . S
C467 C459 1.503 1_556 S
C467 C466 1.370 . S
C467 C468 1.403 1_556 S
C468 C467 1.403 1_554 S
C468 C469 1.402 1_554 S
C468 C471 1.539 . S
C469 C465 1.412 . S
C469 C468 1.402 1_556 S
C469 H481 0.928 1_556 S
C470 C466 1.524 . S
C470 H482 0.956 . S
C470 H483 0.961 . S
C470 H484 0.961 . S
C471 C468 1.539 . S
C471 H485 0.958 . S
C471 H486 0.961 . S
C471 H487 0.960 . S
H472 C456 0.931 . S
H473 C461 0.929 . S
H474 C462 0.960 . S
H475 C462 0.962 . S
H476 C462 0.960 . S
H477 C463 0.961 . S
H478 C463 0.961 . S
H479 C463 0.961 . S
H480 C464 0.931 . S
H481 C469 0.928 1_554 S
H482 C470 0.956 . S
H483 C470 0.961 . S
H484 C470 0.961 . S
H485 C471 0.958 . S
H486 C471 0.961 . S
H487 C471 0.960 . S
C488 C489 1.391 . S
C488 C490 1.394 . S
C488 H504 0.931 . S
C489 C488 1.391 . S
C489 C493 1.376 . S
C490 C488 1.394 . S
C490 C491 1.369 . S
C490 C494 1.531 . S
C491 C490 1.369 . S
C491 C492 1.410 . S
C491 C499 1.503 . S
C492 C491 1.410 . S
C492 C493 1.392 . S
C492 C495 1.511 . S
C493 C489 1.376 . S
C493 C492 1.392 . S
C493 H505 0.929 . S
C494 C490 1.531 . S
C494 H506 0.960 . S
C494 H507 0.962 . S
C494 H508 0.960 . S
C495 C492 1.511 . S
C495 H509 0.961 . S
C495 H510 0.961 . S
C495 H511 0.961 . S
C496 C497 1.370 . S
C496 C498 1.363 . S
C496 H512 0.931 . S
C497 C496 1.370 . S
C497 C501 1.408 . S
C498 C496 1.363 . S
C498 C499 1.370 . S
C498 C502 1.524 . S
C499 C491 1.503 . S
C499 C498 1.370 . S
C499 C500 1.403 . S
C500 C499 1.403 . S
C500 C501 1.404 . S
C500 C503 1.539 . S
C501 C497 1.408 . S
C501 C500 1.404 . S
C501 H513 0.930 . S
C502 C498 1.524 . S
C502 H514 0.956 . S
C502 H515 0.961 . S
C502 H516 0.961 . S
C503 C500 1.539 . S
C503 H517 0.958 . S
C503 H518 0.961 . S
C503 H519 0.960 . S
H504 C488 0.931 . S
H505 C493 0.929 . S
H506 C494 0.960 . S
H507 C494 0.962 . S
H508 C494 0.960 . S
H509 C495 0.961 . S
H510 C495 0.961 . S
H511 C495 0.961 . S
H512 C496 0.931 . S
H513 C501 0.930 . S
H514 C502 0.956 . S
H515 C502 0.961 . S
H516 C502 0.961 . S
H517 C503 0.958 . S
H518 C503 0.961 . S
H519 C503 0.960 . S
C520 C521 1.391 . S
C520 C522 1.394 . S
C520 H536 0.931 . S
C521 C520 1.391 . S
C521 C525 1.376 . S
C522 C520 1.394 . S
C522 C523 1.369 . S
C522 C526 1.531 . S
C523 C522 1.369 . S
C523 C524 1.410 . S
C523 C531 1.503 . S
C524 C523 1.410 . S
C524 C525 1.392 . S
C524 C527 1.511 . S
C525 C521 1.376 . S
C525 C524 1.392 . S
C525 H537 0.929 . S
C526 C522 1.531 . S
C526 H538 0.960 . S
C526 H539 0.962 . S
C526 H540 0.960 . S
C527 C524 1.511 . S
C527 H541 0.961 . S
C527 H542 0.961 . S
C527 H543 0.961 . S
C528 C529 1.370 . S
C528 C530 1.363 . S
C528 H544 0.931 . S
C529 C528 1.370 . S
C529 C533 1.408 . S
C530 C528 1.363 . S
C530 C531 1.370 . S
C530 C534 1.524 . S
C531 C523 1.503 . S
C531 C530 1.370 . S
C531 C532 1.403 . S
C532 C531 1.403 . S
C532 C533 1.404 . S
C532 C535 1.539 . S
C533 C529 1.408 . S
C533 C532 1.404 . S
C533 H545 0.930 . S
C534 C530 1.524 . S
C534 H546 0.956 . S
C534 H547 0.961 . S
C534 H548 0.961 . S
C535 C532 1.539 . S
C535 H549 0.958 . S
C535 H550 0.961 . S
C535 H551 0.960 . S
H536 C520 0.931 . S
H537 C525 0.929 . S
H538 C526 0.960 . S
H539 C526 0.962 . S
H540 C526 0.960 . S
H541 C527 0.961 . S
H542 C527 0.961 . S
H543 C527 0.961 . S
H544 C528 0.931 . S
H545 C533 0.930 . S
H546 C534 0.956 . S
H547 C534 0.961 . S
H548 C534 0.961 . S
H549 C535 0.958 . S
H550 C535 0.961 . S
H551 C535 0.960 . S
C552 C553 1.391 . S
C552 C554 1.394 . S
C552 H568 0.931 . S
C553 C552 1.391 . S
C553 C557 1.376 . S
C554 C552 1.394 . S
C554 C555 1.369 . S
C554 C558 1.531 . S
C555 C554 1.369 . S
C555 C556 1.410 . S
C555 C563 1.503 . S
C556 C555 1.410 . S
C556 C557 1.392 . S
C556 C559 1.511 . S
C557 C553 1.376 . S
C557 C556 1.392 . S
C557 H569 0.929 . S
C558 C554 1.531 . S
C558 H570 0.960 . S
C558 H571 0.962 . S
C558 H572 0.960 . S
C559 C556 1.511 . S
C559 H573 0.961 . S
C559 H574 0.961 . S
C559 H575 0.961 . S
C560 C561 1.370 . S
C560 C562 1.363 . S
C560 H576 0.931 . S
C561 C560 1.370 . S
C561 C565 1.408 . S
C562 C560 1.363 . S
C562 C563 1.370 . S
C562 C566 1.524 . S
C563 C555 1.503 . S
C563 C562 1.370 . S
C563 C564 1.403 . S
C564 C563 1.403 . S
C564 C565 1.404 . S
C564 C567 1.539 . S
C565 C561 1.408 . S
C565 C564 1.404 . S
C565 H577 0.930 . S
C566 C562 1.524 . S
C566 H578 0.956 . S
C566 H579 0.961 . S
C566 H580 0.961 . S
C567 C564 1.539 . S
C567 H581 0.958 . S
C567 H582 0.961 . S
C567 H583 0.960 . S
H568 C552 0.931 . S
H569 C557 0.929 . S
H570 C558 0.960 . S
H571 C558 0.962 . S
H572 C558 0.960 . S
H573 C559 0.961 . S
H574 C559 0.961 . S
H575 C559 0.961 . S
H576 C560 0.931 . S
H577 C565 0.930 . S
H578 C566 0.956 . S
H579 C566 0.961 . S
H580 C566 0.961 . S
H581 C567 0.958 . S
H582 C567 0.961 . S
H583 C567 0.960 . S
C584 C585 1.391 . S
C584 C586 1.394 . S
C584 H600 0.931 . S
C585 C584 1.391 . S
C585 C589 1.376 1_655 S
C586 C584 1.394 . S
C586 C587 1.369 1_655 S
C586 C590 1.531 . S
C587 C586 1.369 1_455 S
C587 C588 1.410 . S
C587 C595 1.503 . S
C588 C587 1.410 . S
C588 C589 1.392 . S
C588 C591 1.511 . S
C589 C585 1.376 1_455 S
C589 C588 1.392 . S
C589 H601 0.929 . S
C590 C586 1.531 . S
C590 H602 0.960 . S
C590 H603 0.962 . S
C590 H604 0.960 . S
C591 C588 1.511 . S
C591 H605 0.961 . S
C591 H606 0.961 . S
C591 H607 0.961 . S
C592 C593 1.370 1_655 S
C592 C594 1.363 . S
C592 H608 0.931 . S
C593 C592 1.370 1_455 S
C593 C597 1.408 . S
C594 C592 1.363 . S
C594 C595 1.370 1_655 S
C594 C598 1.524 . S
C595 C587 1.503 . S
C595 C594 1.370 1_455 S
C595 C596 1.403 . S
C596 C595 1.403 . S
C596 C597 1.404 . S
C596 C599 1.539 . S
C597 C593 1.408 . S
C597 C596 1.404 . S
C597 H609 0.930 . S
C598 C594 1.524 . S
C598 H610 0.956 . S
C598 H611 0.961 . S
C598 H612 0.961 . S
C599 C596 1.539 . S
C599 H613 0.958 . S
C599 H614 0.961 . S
C599 H615 0.960 . S
H600 C584 0.931 . S
H601 C589 0.929 . S
H602 C590 0.960 . S
H603 C590 0.962 . S
H604 C590 0.960 . S
H605 C591 0.961 . S
H606 C591 0.961 . S
H607 C591 0.961 . S
H608 C592 0.931 . S
H609 C597 0.930 . S
H610 C598 0.956 . S
H611 C598 0.961 . S
H612 C598 0.961 . S
H613 C599 0.958 . S
H614 C599 0.961 . S
H615 C599 0.960 . S
C616 C617 1.391 . S
C616 C618 1.394 . S
C616 H632 0.931 . S
C617 C616 1.391 . S
C617 C621 1.376 . S
C618 C616 1.394 . S
C618 C619 1.369 . S
C618 C622 1.531 . S
C619 C618 1.369 . S
C619 C620 1.410 . S
C619 C627 1.503 . S
C620 C619 1.410 . S
C620 C621 1.392 . S
C620 C623 1.511 . S
C621 C617 1.376 . S
C621 C620 1.392 . S
C621 H633 0.929 . S
C622 C618 1.531 . S
C622 H634 0.960 . S
C622 H635 0.962 1_565 S
C622 H636 0.960 . S
C623 C620 1.511 . S
C623 H637 0.961 . S
C623 H638 0.972 . S
C623 H639 0.961 . S
C624 C625 1.370 . S
C624 C626 1.363 . S
C624 H640 0.931 . S
C625 C624 1.370 . S
C625 C629 1.408 1_545 S
C626 C624 1.363 . S
C626 C627 1.370 1_545 S
C626 C630 1.524 . S
C627 C619 1.503 . S
C627 C626 1.370 1_565 S
C627 C628 1.403 . S
C628 C627 1.403 . S
C628 C629 1.404 . S
C628 C631 1.539 . S
C629 C625 1.408 1_565 S
C629 C628 1.404 . S
C629 H641 0.930 . S
C630 C626 1.524 . S
C630 H642 0.956 . S
C630 H643 0.961 . S
C630 H644 0.961 . S
C631 C628 1.539 . S
C631 H645 0.958 . S
C631 H646 0.961 . S
C631 H647 0.960 . S
H632 C616 0.931 . S
H633 C621 0.929 . S
H634 C622 0.960 . S
H635 C622 0.962 1_545 S
H636 C622 0.960 . S
H637 C623 0.961 . S
H638 C623 0.972 . S
H639 C623 0.961 . S
H640 C624 0.931 . S
H641 C629 0.930 . S
H642 C630 0.956 . S
H643 C630 0.961 . S
H644 C630 0.961 . S
H645 C631 0.958 . S
H646 C631 0.961 . S
H647 C631 0.960 . S
C648 C649 1.391 . S
C648 C650 1.394 . S
C648 H664 0.931 . S
C649 C648 1.391 . S
C649 C653 1.376 . S
C650 C648 1.394 . S
C650 C651 1.369 . S
C650 C654 1.531 . S
C651 C650 1.369 . S
C651 C652 1.410 . S
C651 C659 1.503 . S
C652 C651 1.410 . S
C652 C653 1.392 . S
C652 C655 1.511 . S
C653 C649 1.376 . S
C653 C652 1.392 . S
C653 H665 0.929 . S
C654 C650 1.531 . S
C654 H666 0.960 . S
C654 H667 0.962 . S
C654 H668 0.960 . S
C655 C652 1.511 . S
C655 H669 0.961 . S
C655 H670 0.961 . S
C655 H671 0.961 . S
C656 C657 1.370 . S
C656 C658 1.363 . S
C656 H672 0.931 . S
C657 C656 1.370 . S
C657 C661 1.408 . S
C658 C656 1.363 . S
C658 C659 1.370 . S
C658 C662 1.524 . S
C659 C651 1.503 . S
C659 C658 1.370 . S
C659 C660 1.403 . S
C660 C659 1.403 . S
C660 C661 1.404 . S
C660 C663 1.539 . S
C661 C657 1.408 . S
C661 C660 1.404 . S
C661 H673 0.930 . S
C662 C658 1.524 . S
C662 H674 0.956 . S
C662 H675 0.961 . S
C662 H676 0.961 . S
C663 C660 1.539 . S
C663 H677 0.958 . S
C663 H678 0.961 . S
C663 H679 0.960 . S
H664 C648 0.931 . S
H665 C653 0.929 . S
H666 C654 0.960 . S
H667 C654 0.962 . S
H668 C654 0.960 . S
H669 C655 0.961 . S
H670 C655 0.961 . S
H671 C655 0.961 . S
H672 C656 0.931 . S
H673 C661 0.930 . S
H674 C662 0.956 . S
H675 C662 0.961 . S
H676 C662 0.961 . S
H677 C663 0.958 . S
H678 C663 0.961 . S
H679 C663 0.960 . S
C680 C681 1.391 . S
C680 C682 1.394 . S
C680 H696 0.931 . S
C681 C680 1.391 . S
C681 C685 1.376 1_455 S
C682 C680 1.394 . S
C682 C683 1.369 1_455 S
C682 C686 1.531 . S
C683 C682 1.369 1_655 S
C683 C684 1.410 . S
C683 C691 1.503 . S
C684 C683 1.410 . S
C684 C685 1.392 . S
C684 C687 1.511 . S
C685 C681 1.376 1_655 S
C685 C684 1.392 . S
C685 H697 0.929 . S
C686 C682 1.531 . S
C686 H698 0.960 . S
C686 H699 0.962 . S
C686 H700 0.960 . S
C687 C684 1.511 . S
C687 H701 0.961 . S
C687 H702 0.961 . S
C687 H703 0.961 . S
C688 C689 1.370 1_455 S
C688 C690 1.363 . S
C688 H704 0.931 . S
C689 C688 1.370 1_655 S
C689 C693 1.408 . S
C690 C688 1.363 . S
C690 C691 1.370 1_455 S
C690 C694 1.524 . S
C691 C683 1.503 . S
C691 C690 1.370 1_655 S
C691 C692 1.403 . S
C692 C691 1.403 . S
C692 C693 1.404 . S
C692 C695 1.539 . S
C693 C689 1.408 . S
C693 C692 1.404 . S
C693 H705 0.930 . S
C694 C690 1.524 . S
C694 H706 0.956 . S
C694 H707 0.961 . S
C694 H708 0.961 . S
C695 C692 1.539 . S
C695 H709 0.958 . S
C695 H710 0.961 . S
C695 H711 0.960 . S
H696 C680 0.931 . S
H697 C685 0.929 . S
H698 C686 0.960 . S
H699 C686 0.962 . S
H700 C686 0.960 . S
H701 C687 0.961 . S
H702 C687 0.961 . S
H703 C687 0.961 . S
H704 C688 0.931 . S
H705 C693 0.930 . S
H706 C694 0.956 . S
H707 C694 0.961 . S
H708 C694 0.961 . S
H709 C695 0.958 . S
H710 C695 0.961 . S
H711 C695 0.960 . S
C712 C713 1.391 . S
C712 C714 1.394 . S
C712 H728 0.931 . S
C713 C712 1.391 . S
C713 C717 1.376 1_565 S
C714 C712 1.394 . S
C714 C715 1.369 . S
C714 C718 1.531 . S
C715 C714 1.369 . S
C715 C716 1.410 1_565 S
C715 C723 1.503 . S
C716 C715 1.410 1_545 S
C716 C717 1.392 . S
C716 C719 1.511 . S
C717 C713 1.376 1_545 S
C717 C716 1.392 . S
C717 H729 0.929 . S
C718 C714 1.531 . S
C718 H730 0.960 . S
C718 H731 0.962 . S
C718 H732 0.960 . S
C719 C716 1.511 . S
C719 H733 0.961 . S
C719 H734 0.961 . S
C719 H735 0.961 . S
C720 C721 1.370 . S
C720 C722 1.363 . S
C720 H736 0.931 . S
C721 C720 1.370 . S
C721 C725 1.408 1_545 S
C722 C720 1.363 . S
C722 C723 1.370 1_545 S
C722 C726 1.524 . S
C723 C715 1.503 . S
C723 C722 1.370 1_565 S
C723 C724 1.403 . S
C724 C723 1.403 . S
C724 C725 1.404 . S
C724 C727 1.539 . S
C725 C721 1.408 1_565 S
C725 C724 1.404 . S
C725 H737 0.930 . S
C726 C722 1.524 . S
C726 H738 0.956 . S
C726 H739 0.961 . S
C726 H740 0.961 . S
C727 C724 1.539 . S
C727 H741 0.958 . S
C727 H742 0.961 . S
C727 H743 0.960 . S
H728 C712 0.931 . S
H729 C717 0.929 . S
H730 C718 0.960 . S
H731 C718 0.962 . S
H732 C718 0.960 . S
H733 C719 0.961 . S
H734 C719 0.961 . S
H735 C719 0.961 . S
H736 C720 0.931 . S
H737 C725 0.930 . S
H738 C726 0.956 . S
H739 C726 0.961 . S
H740 C726 0.961 . S
H741 C727 0.958 . S
H742 C727 0.961 . S
H743 C727 0.960 . S
C744 C745 1.391 . S
C744 C746 1.394 . S
C744 H760 0.931 . S
C745 C744 1.391 . S
C745 C749 1.376 . S
C746 C744 1.394 . S
C746 C747 1.369 . S
C746 C750 1.531 . S
C747 C746 1.369 . S
C747 C748 1.410 . S
C747 C755 1.503 . S
C748 C747 1.410 . S
C748 C749 1.392 . S
C748 C751 1.511 . S
C749 C745 1.376 . S
C749 C748 1.392 . S
C749 H761 0.929 . S
C750 C746 1.531 . S
C750 H762 0.960 . S
C750 H763 0.962 . S
C750 H764 0.960 1_554 S
C751 C748 1.511 . S
C751 H765 0.961 . S
C751 H766 0.961 . S
C751 H767 0.961 . S
C752 C753 1.370 . S
C752 C754 1.363 . S
C752 H768 0.931 . S
C753 C752 1.370 . S
C753 C757 1.408 . S
C754 C752 1.363 . S
C754 C755 1.370 . S
C754 C758 1.524 . S
C755 C747 1.503 . S
C755 C754 1.370 . S
C755 C756 1.403 . S
C756 C755 1.403 . S
C756 C757 1.404 . S
C756 C759 1.539 1_554 S
C757 C753 1.408 . S
C757 C756 1.404 . S
C757 H769 0.930 . S
C758 C754 1.524 . S
C758 H770 0.956 . S
C758 H771 0.961 . S
C758 H772 0.961 . S
C759 C756 1.539 1_556 S
C759 H773 0.958 . S
C759 H774 0.961 . S
C759 H775 0.960 . S
H760 C744 0.931 . S
H761 C749 0.929 . S
H762 C750 0.960 . S
H763 C750 0.962 . S
H764 C750 0.960 1_556 S
H765 C751 0.961 . S
H766 C751 0.961 . S
H767 C751 0.961 . S
H768 C752 0.931 . S
H769 C757 0.930 . S
H770 C758 0.956 . S
H771 C758 0.961 . S
H772 C758 0.961 . S
H773 C759 0.958 . S
H774 C759 0.961 . S
H775 C759 0.960 . S
C776 C777 1.391 1_655 S
C776 C778 1.394 . S
C776 H792 0.931 . S
C777 C776 1.391 1_455 S
C777 C781 1.376 . S
C778 C776 1.394 . S
C778 C779 1.369 1_655 S
C778 C782 1.531 . S
C779 C778 1.369 1_455 S
C779 C780 1.410 . S
C779 C787 1.503 1_455 S
C780 C779 1.410 . S
C780 C781 1.392 . S
C780 C783 1.511 . S
C781 C777 1.376 . S
C781 C780 1.392 . S
C781 H793 0.929 . S
C782 C778 1.531 . S
C782 H794 0.960 . S
C782 H795 0.962 . S
C782 H796 0.960 . S
C783 C780 1.511 . S
C783 H797 0.961 . S
C783 H798 0.961 . S
C783 H799 0.961 . S
C784 C785 1.370 . S
C784 C786 1.363 . S
C784 H800 0.931 . S
C785 C784 1.370 . S
C785 C789 1.408 1_655 S
C786 C784 1.363 . S
C786 C787 1.370 . S
C786 C790 1.524 . S
C787 C779 1.503 1_655 S
C787 C786 1.370 . S
C787 C788 1.403 1_655 S
C788 C787 1.403 1_455 S
C788 C789 1.404 . S
C788 C791 1.539 . S
C789 C785 1.408 1_455 S
C789 C788 1.404 . S
C789 H801 0.930 . S
C790 C786 1.524 . S
C790 H802 0.956 . S
C790 H803 0.961 . S
C790 H804 0.961 . S
C791 C788 1.539 . S
C791 H805 0.958 . S
C791 H806 0.961 . S
C791 H807 0.960 . S
H792 C776 0.931 . S
H793 C781 0.929 . S
H794 C782 0.960 . S
H795 C782 0.962 . S
H796 C782 0.960 . S
H797 C783 0.961 . S
H798 C783 0.961 . S
H799 C783 0.961 . S
H800 C784 0.931 . S
H801 C789 0.930 . S
H802 C790 0.956 . S
H803 C790 0.961 . S
H804 C790 0.961 . S
H805 C791 0.958 . S
H806 C791 0.961 . S
H807 C791 0.960 . S
C808 C809 1.391 . S
C808 C810 1.394 1_565 S
C808 H824 0.931 1_565 S
C809 C808 1.391 . S
C809 C813 1.376 . S
C810 C808 1.394 1_545 S
C810 C811 1.369 1_545 S
C810 C814 1.531 . S
C811 C810 1.369 1_565 S
C811 C812 1.410 . S
C811 C819 1.507 1_565 S
C812 C811 1.410 . S
C812 C813 1.392 . S
C812 C815 1.511 . S
C813 C809 1.376 . S
C813 C812 1.392 . S
C813 H825 0.929 . S
C814 C810 1.531 . S
C814 H826 0.960 . S
C814 H827 0.962 . S
C814 H828 0.960 . S
C815 C812 1.511 . S
C815 H829 0.961 . S
C815 H830 0.961 . S
C815 H831 0.961 . S
C816 C817 1.370 . S
C816 C818 1.363 . S
C816 H832 0.931 . S
C817 C816 1.370 . S
C817 C821 1.408 1_545 S
C818 C816 1.363 . S
C818 C819 1.366 . S
C818 C822 1.524 . S
C819 C811 1.507 1_545 S
C819 C818 1.366 . S
C819 C820 1.403 1_545 S
C820 C819 1.403 1_565 S
C820 C821 1.404 . S
C820 C823 1.539 . S
C821 C817 1.408 1_565 S
C821 C820 1.404 . S
C821 H833 0.930 . S
C822 C818 1.524 . S
C822 H834 0.956 . S
C822 H835 0.961 . S
C822 H836 0.961 . S
C823 C820 1.539 . S
C823 H837 0.958 . S
C823 H838 0.961 . S
C823 H839 0.960 . S
H824 C808 0.931 1_545 S
H825 C813 0.929 . S
H826 C814 0.960 . S
H827 C814 0.962 . S
H828 C814 0.960 . S
H829 C815 0.961 . S
H830 C815 0.961 . S
H831 C815 0.961 . S
H832 C816 0.931 . S
H833 C821 0.930 . S
H834 C822 0.956 . S
H835 C822 0.961 . S
H836 C822 0.961 . S
H837 C823 0.958 . S
H838 C823 0.961 . S
H839 C823 0.960 . S
C840 C841 1.391 . S
C840 C842 1.394 . S
C840 H856 0.931 . S
C841 C840 1.391 . S
C841 C845 1.376 . S
C842 C840 1.394 . S
C842 C843 1.369 . S
C842 C846 1.531 . S
C843 C842 1.369 . S
C843 C844 1.410 . S
C843 C851 1.503 . S
C844 C843 1.410 . S
C844 C845 1.392 . S
C844 C847 1.511 . S
C845 C841 1.376 . S
C845 C844 1.392 . S
C845 H857 0.929 . S
C846 C842 1.531 . S
C846 H858 0.960 . S
C846 H859 0.962 . S
C846 H860 0.960 . S
C847 C844 1.511 . S
C847 H861 0.961 . S
C847 H862 0.961 . S
C847 H863 0.961 . S
C848 C849 1.370 . S
C848 C850 1.363 . S
C848 H864 0.931 . S
C849 C848 1.370 . S
C849 C853 1.408 . S
C850 C848 1.363 . S
C850 C851 1.370 . S
C850 C854 1.524 . S
C851 C843 1.503 . S
C851 C850 1.370 . S
C851 C852 1.403 . S
C852 C851 1.403 . S
C852 C853 1.404 . S
C852 C855 1.539 . S
C853 C849 1.408 . S
C853 C852 1.404 . S
C853 H865 0.930 . S
C854 C850 1.524 . S
C854 H866 0.956 . S
C854 H867 0.961 . S
C854 H868 0.961 . S
C855 C852 1.539 . S
C855 H869 0.958 . S
C855 H870 0.961 . S
C855 H871 0.960 . S
H856 C840 0.931 . S
H857 C845 0.929 . S
H858 C846 0.960 . S
H859 C846 0.962 . S
H860 C846 0.960 . S
H861 C847 0.961 . S
H862 C847 0.961 . S
H863 C847 0.961 . S
H864 C848 0.931 . S
H865 C853 0.930 . S
H866 C854 0.956 . S
H867 C854 0.961 . S
H868 C854 0.961 . S
H869 C855 0.958 . S
H870 C855 0.961 . S
H871 C855 0.960 . S
C872 C873 1.391 1_455 S
C872 C874 1.394 . S
C872 H888 0.931 . S
C873 C872 1.391 1_655 S
C873 C877 1.376 . S
C874 C872 1.394 . S
C874 C875 1.374 . S
C874 C878 1.531 . S
C875 C874 1.374 . S
C875 C876 1.378 1_455 S
C875 C883 1.528 . S
C876 C875 1.378 1_655 S
C876 C877 1.392 . S
C876 C879 1.511 . S
C877 C873 1.376 . S
C877 C876 1.392 . S
C877 H889 0.929 . S
C878 C874 1.531 . S
C878 H890 0.960 . S
C878 H891 0.962 . S
C878 H892 0.960 . S
C879 C876 1.511 . S
C879 H893 0.959 1_556 S
C879 H894 0.961 . S
C879 H895 0.961 1_556 S
C880 C881 1.355 1_655 S
C880 C882 1.377 . S
C880 H896 0.933 . S
C881 C880 1.355 1_455 S
C881 C885 1.408 . S
C882 C880 1.377 . S
C882 C883 1.370 1_655 S
C882 C886 1.524 . S
C883 C875 1.528 . S
C883 C882 1.370 1_455 S
C883 C884 1.403 . S
C884 C883 1.403 . S
C884 C885 1.404 . S
C884 C887 1.539 1_556 S
C885 C881 1.408 . S
C885 C884 1.404 . S
C885 H897 0.930 . S
C886 C882 1.524 . S
C886 H898 0.956 . S
C886 H899 0.961 . S
C886 H900 0.961 . S
C887 C884 1.539 1_554 S
C887 H901 0.958 1_554 S
C887 H902 0.961 . S
C887 H903 0.960 . S
H888 C872 0.931 . S
H889 C877 0.929 . S
H890 C878 0.960 . S
H891 C878 0.962 . S
H892 C878 0.960 . S
H893 C879 0.959 1_554 S
H894 C879 0.961 . S
H895 C879 0.961 1_554 S
H896 C880 0.933 . S
H897 C885 0.930 . S
H898 C886 0.956 . S
H899 C886 0.961 . S
H900 C886 0.961 . S
H901 C887 0.958 1_556 S
H902 C887 0.961 . S
H903 C887 0.960 . S
C904 C905 1.391 . S
C904 C906 1.394 . S
C904 H920 0.931 . S
C905 C904 1.391 . S
C905 C909 1.376 1_545 S
C906 C904 1.394 . S
C906 C907 1.369 . S
C906 C910 1.531 . S
C907 C906 1.369 . S
C907 C908 1.410 1_545 S
C907 C915 1.503 1_545 S
C908 C907 1.410 1_565 S
C908 C909 1.392 . S
C908 C911 1.511 . S
C909 C905 1.376 1_565 S
C909 C908 1.392 . S
C909 H921 0.929 . S
C910 C906 1.531 . S
C910 H922 0.960 . S
C910 H923 0.962 . S
C910 H924 0.960 . S
C911 C908 1.511 . S
C911 H925 0.961 . S
C911 H926 0.961 . S
C911 H927 0.961 . S
C912 C913 1.370 . S
C912 C914 1.363 . S
C912 H928 0.931 . S
C913 C912 1.370 . S
C913 C917 1.408 . S
C914 C912 1.363 . S
C914 C915 1.370 . S
C914 C918 1.524 1_565 S
C915 C907 1.503 1_565 S
C915 C914 1.370 . S
C915 C916 1.403 . S
C916 C915 1.403 . S
C916 C917 1.404 . S
C916 C919 1.539 . S
C917 C913 1.408 . S
C917 C916 1.404 . S
C917 H929 0.930 . S
C918 C914 1.524 1_545 S
C918 H930 0.956 . S
C918 H931 0.961 1_545 S
C918 H932 0.961 . S
C919 C916 1.539 . S
C919 H933 0.958 1_565 S
C919 H934 0.961 . S
C919 H935 0.960 . S
H920 C904 0.931 . S
H921 C909 0.929 . S
H922 C910 0.960 . S
H923 C910 0.962 . S
H924 C910 0.960 . S
H925 C911 0.961 . S
H926 C911 0.961 . S
H927 C911 0.961 . S
H928 C912 0.931 . S
H929 C917 0.930 . S
H930 C918 0.956 . S
H931 C918 0.961 1_565 S
H932 C918 0.961 . S
H933 C919 0.958 1_545 S
H934 C919 0.961 . S
H935 C919 0.960 . S
C169 C3 1.476 . S
C177 C129 1.486 . S
C201 C17 1.470 . S
C209 C143 1.490 . S
C233 C31 1.484 . S
C241 C157 1.502 . S
C265 C45 1.503 . S
C273 C87 1.485 . S
C297 C101 1.506 . S
C305 C59 1.486 . S
C329 C115 1.488 . S
C337 C73 1.502 . S
C361 C148 1.579 . S
C369 C8 1.588 . S
C393 C22 1.578 . S
C401 C162 1.588 . S
C425 C36 1.580 . S
C433 C92 1.581 . S
C457 C50 1.584 . S
C465 C106 1.579 . S
C489 C64 1.592 . S
C497 C120 1.581 . S
C521 C78 1.581 . S
C529 C134 1.580 . S
C553 C133 0.719 . S
C561 C7 0.729 . S
C585 C21 0.709 . S
C593 C147 0.725 . S
C617 C35 0.735 . S
C625 C161 0.733 . S
C649 C91 0.694 . S
C657 C49 0.717 . S
C681 C63 0.703 . S
C689 C105 0.722 . S
C713 C119 0.710 . S
C721 C77 0.723 . S
C745 C9 1.519 . S
C753 C51 1.510 . S
C777 C65 1.521 . S
C785 C23 1.508 . S
C809 C37 1.525 . S
C817 C79 1.507 . S
C841 C93 1.525 . S
C849 C135 1.507 . S
C873 C107 1.499 . S
C881 C149 1.518 . S
C905 C163 1.505 . S
C913 C121 1.515 . S
