# Generated by pormake.
# Topology lcy-e, (6)-cn, num edge types: 1
# Building blocks:
#     Node 0, Type 0, BuildingBlock: CUWYAW_clean_sbu_0, # of connection points: 6
#     Node 1, Type 0, BuildingBlock: CUWYAW_clean_sbu_0, # of connection points: 6
#     Node 2, Type 0, BuildingBlock: CUWYAW_clean_sbu_0, # of connection points: 6
#     Node 3, Type 0, BuildingBlock: CUWYAW_clean_sbu_0, # of connection points: 6
#     Node 4, Type 0, BuildingBlock: CUWYAW_clean_sbu_0, # of connection points: 6
#     Node 5, Type 0, BuildingBlock: CUWYAW_clean_sbu_0, # of connection points: 6
#     Node 6, Type 0, BuildingBlock: CUWYAW_clean_sbu_0, # of connection points: 6
#     Node 7, Type 0, BuildingBlock: CUWYAW_clean_sbu_0, # of connection points: 6
#     Node 8, Type 0, BuildingBlock: CUWYAW_clean_sbu_0, # of connection points: 6
#     Node 9, Type 0, BuildingBlock: CUWYAW_clean_sbu_0, # of connection points: 6
#     Node 10, Type 0, BuildingBlock: CUWYAW_clean_sbu_0, # of connection points: 6
#     Node 11, Type 0, BuildingBlock: CUWYAW_clean_sbu_0, # of connection points: 6
#     Edge 12, Type (0, 0), BuildingBlock: MIFKUJ_clean_linker_0, # of connection points: 2
#     Edge 13, Type (0, 0), BuildingBlock: MIFKUJ_clean_linker_0, # of connection points: 2
#     Edge 14, Type (0, 0), BuildingBlock: MIFKUJ_clean_linker_0, # of connection points: 2
#     Edge 15, Type (0, 0), BuildingBlock: MIFKUJ_clean_linker_0, # of connection points: 2
#     Edge 16, Type (0, 0), BuildingBlock: MIFKUJ_clean_linker_0, # of connection points: 2
#     Edge 17, Type (0, 0), BuildingBlock: MIFKUJ_clean_linker_0, # of connection points: 2
#     Edge 18, Type (0, 0), BuildingBlock: MIFKUJ_clean_linker_0, # of connection points: 2
#     Edge 19, Type (0, 0), BuildingBlock: MIFKUJ_clean_linker_0, # of connection points: 2
#     Edge 20, Type (0, 0), BuildingBlock: MIFKUJ_clean_linker_0, # of connection points: 2
#     Edge 21, Type (0, 0), BuildingBlock: MIFKUJ_clean_linker_0, # of connection points: 2
#     Edge 22, Type (0, 0), BuildingBlock: MIFKUJ_clean_linker_0, # of connection points: 2
#     Edge 23, Type (0, 0), BuildingBlock: MIFKUJ_clean_linker_0, # of connection points: 2
#     Edge 24, Type (0, 0), BuildingBlock: MIFKUJ_clean_linker_0, # of connection points: 2
#     Edge 25, Type (0, 0), BuildingBlock: MIFKUJ_clean_linker_0, # of connection points: 2
#     Edge 26, Type (0, 0), BuildingBlock: MIFKUJ_clean_linker_0, # of connection points: 2
#     Edge 27, Type (0, 0), BuildingBlock: MIFKUJ_clean_linker_0, # of connection points: 2
#     Edge 28, Type (0, 0), BuildingBlock: MIFKUJ_clean_linker_0, # of connection points: 2
#     Edge 29, Type (0, 0), BuildingBlock: MIFKUJ_clean_linker_0, # of connection points: 2
#     Edge 30, Type (0, 0), BuildingBlock: MIFKUJ_clean_linker_0, # of connection points: 2
#     Edge 31, Type (0, 0), BuildingBlock: MIFKUJ_clean_linker_0, # of connection points: 2
#     Edge 32, Type (0, 0), BuildingBlock: MIFKUJ_clean_linker_0, # of connection points: 2
#     Edge 33, Type (0, 0), BuildingBlock: MIFKUJ_clean_linker_0, # of connection points: 2
#     Edge 34, Type (0, 0), BuildingBlock: MIFKUJ_clean_linker_0, # of connection points: 2
#     Edge 35, Type (0, 0), BuildingBlock: MIFKUJ_clean_linker_0, # of connection points: 2
#     Edge 36, Type (0, 0), BuildingBlock: MIFKUJ_clean_linker_0, # of connection points: 2
#     Edge 37, Type (0, 0), BuildingBlock: MIFKUJ_clean_linker_0, # of connection points: 2
#     Edge 38, Type (0, 0), BuildingBlock: MIFKUJ_clean_linker_0, # of connection points: 2
#     Edge 39, Type (0, 0), BuildingBlock: MIFKUJ_clean_linker_0, # of connection points: 2
#     Edge 40, Type (0, 0), BuildingBlock: MIFKUJ_clean_linker_0, # of connection points: 2
#     Edge 41, Type (0, 0), BuildingBlock: MIFKUJ_clean_linker_0, # of connection points: 2
#     Edge 42, Type (0, 0), BuildingBlock: MIFKUJ_clean_linker_0, # of connection points: 2
#     Edge 43, Type (0, 0), BuildingBlock: MIFKUJ_clean_linker_0, # of connection points: 2
#     Edge 44, Type (0, 0), BuildingBlock: MIFKUJ_clean_linker_0, # of connection points: 2
#     Edge 45, Type (0, 0), BuildingBlock: MIFKUJ_clean_linker_0, # of connection points: 2
#     Edge 46, Type (0, 0), BuildingBlock: MIFKUJ_clean_linker_0, # of connection points: 2
#     Edge 47, Type (0, 0), BuildingBlock: MIFKUJ_clean_linker_0, # of connection points: 2
# Relax obj value: 0.181
# Max RMSD: 0.280
# Mean RMSD: 0.262
data_MOF--net-lcy-e--node1-CUWYAW_clean_sbu_0--edge1-MIFKUJ_clean_linker_0
_symmetry_space_group_name_H-M    P1
_symmetry_Int_Tables_number       1
_symmetry_cell_setting            triclinic
loop_
_symmetry_equiv_pos_as_xyz
'x, y, z'
_cell_length_a     52.213508
_cell_length_b     56.29895
_cell_length_c     56.288354
_cell_angle_alpha  91.017429
_cell_angle_beta   90.545741
_cell_angle_gamma 88.557772
loop_
_atom_site_label
_atom_site_type_symbol
_atom_site_fract_x
_atom_site_fract_y
_atom_site_fract_z
_atom_type_partial_charge
C0 C 0.11429 0.29699 0.46154 0.0
Eu1 Eu 0.12524 0.27928 0.50309 0.0
C2 C 0.12515 0.31192 0.44312 0.0
C3 C 0.10878 0.32172 0.42583 0.0
C4 C 0.11859 0.33504 0.40743 0.0
C5 C 0.14505 0.33883 0.40595 0.0
C6 C 0.1614 0.32927 0.42359 0.0
C7 C 0.15155 0.31591 0.44203 0.0
C8 C 0.10179 0.28887 0.5451 0.0
C9 C 0.16768 0.30034 0.53678 0.0
C10 C 0.15337 0.22628 0.58258 0.0
Eu11 Eu 0.14279 0.24788 0.54295 0.0
C12 C 0.14368 0.20475 0.59372 0.0
C13 C 0.16076 0.1892 0.60539 0.0
C14 C 0.15213 0.1681 0.61497 0.0
C15 C 0.12613 0.16209 0.61314 0.0
C16 C 0.109 0.17792 0.60162 0.0
C17 C 0.11768 0.19897 0.59196 0.0
C18 C 0.16696 0.23926 0.50085 0.0
C19 C 0.09718 0.22835 0.51072 0.0
O20 O 0.12523 0.27605 0.4645 0.0
O21 O 0.10793 0.30749 0.48162 0.0
O22 O 0.10748 0.30504 0.53002 0.0
O23 O 0.10706 0.26845 0.53664 0.0
O24 O 0.15913 0.30008 0.51467 0.0
O25 O 0.16217 0.28318 0.55164 0.0
O26 O 0.13736 0.24446 0.58107 0.0
O27 O 0.16658 0.22278 0.56318 0.0
O28 O 0.15931 0.22282 0.51476 0.0
O29 O 0.16181 0.25947 0.50984 0.0
O30 O 0.10936 0.226 0.53119 0.0
O31 O 0.10135 0.2464 0.49665 0.0
H32 H 0.08836 0.31876 0.42635 0.0
H33 H 0.10549 0.3419 0.39403 0.0
H34 H 0.18178 0.33221 0.42319 0.0
H35 H 0.16451 0.30853 0.45528 0.0
H36 H 0.18091 0.19322 0.6068 0.0
H37 H 0.16598 0.15625 0.62336 0.0
H38 H 0.08881 0.17412 0.60014 0.0
H39 H 0.10409 0.21061 0.58292 0.0
C40 C 0.09825 0.91309 0.78915 0.0
Eu41 Eu 0.05259 0.91288 0.76993 0.0
C42 C 0.1158 0.89739 0.80309 0.0
C43 C 0.11656 0.89945 0.828 0.0
C44 C 0.13444 0.88623 0.84123 0.0
C45 C 0.15219 0.87068 0.82993 0.0
C46 C 0.15116 0.86831 0.80501 0.0
C47 C 0.13318 0.88151 0.79174 0.0
C48 C 0.01001 0.93685 0.78482 0.0
C49 C 0.0117 0.87655 0.78569 0.0
C50 C 0.96157 0.90365 0.71596 0.0
Eu51 Eu 0.00607 0.90688 0.7373 0.0
C52 C 0.95115 0.90848 0.69207 0.0
C53 C 0.96631 0.91861 0.67465 0.0
C54 C 0.95604 0.92343 0.65211 0.0
C55 C 0.93041 0.91816 0.64655 0.0
C56 C 0.91537 0.90799 0.66415 0.0
C57 C 0.92567 0.90319 0.68665 0.0
C58 C 0.04875 0.8808 0.72453 0.0
C59 C 0.04499 0.94747 0.72365 0.0
O60 O 0.09393 0.9073 0.76687 0.0
O61 O 0.0777 0.9215 0.79981 0.0
O62 O 0.02716 0.92779 0.79906 0.0
O63 O 0.01714 0.9346 0.76347 0.0
O64 O 0.03665 0.87959 0.7846 0.0
O65 O 0.99563 0.88804 0.77131 0.0
O66 O 0.96852 0.92222 0.72846 0.0
O67 O 0.97809 0.8859 0.71758 0.0
O68 O 0.03271 0.89039 0.70955 0.0
O69 O 0.04065 0.88428 0.74532 0.0
O70 O 0.02227 0.93848 0.71922 0.0
O71 O 0.06001 0.93959 0.74106 0.0
H72 H 0.10371 0.91173 0.83732 0.0
H73 H 0.13492 0.88889 0.86033 0.0
H74 H 0.16439 0.85639 0.79572 0.0
H75 H 0.13326 0.87959 0.77256 0.0
H76 H 0.98608 0.9228 0.67852 0.0
H77 H 0.96827 0.93101 0.63894 0.0
H78 H 0.89549 0.90402 0.66066 0.0
H79 H 0.91365 0.89543 0.69985 0.0
C80 C 0.39162 0.73626 0.95566 0.0
Eu81 Eu 0.38788 0.75958 0.99601 0.0
C82 C 0.37806 0.72249 0.93707 0.0
C83 C 0.39005 0.7019 0.92766 0.0
C84 C 0.3798 0.69027 0.90773 0.0
C85 C 0.35727 0.69902 0.89669 0.0
C86 C 0.34471 0.71919 0.90671 0.0
C87 C 0.355 0.73083 0.92672 0.0
C88 C 0.41566 0.75266 0.03657 0.0
C89 C 0.34444 0.74021 0.03128 0.0
C90 C 0.369 0.81562 0.07799 0.0
Eu91 Eu 0.37105 0.79004 0.03894 0.0
C92 C 0.37946 0.8382 0.0875 0.0
C93 C 0.36533 0.85966 0.08543 0.0
C94 C 0.37462 0.88079 0.09525 0.0
C95 C 0.3982 0.88099 0.10755 0.0
C96 C 0.41244 0.85954 0.10946 0.0
C97 C 0.40315 0.8384 0.09963 0.0
C98 C 0.34044 0.79419 1.00025 0.0
C99 C 0.41853 0.80716 1.00588 0.0
O100 O 0.38618 0.75904 0.95747 0.0
O101 O 0.39604 0.72639 0.97623 0.0
O102 O 0.4257 0.75126 0.01554 0.0
O103 O 0.39195 0.75607 0.03476 0.0
O104 O 0.35225 0.74109 0.00894 0.0
O105 O 0.35208 0.75588 0.04747 0.0
O106 O 0.38526 0.79779 0.07469 0.0
O107 O 0.35177 0.81711 0.06098 0.0
O108 O 0.33219 0.79482 0.02195 0.0
O109 O 0.36466 0.79294 0.99988 0.0
O110 O 0.40506 0.81016 0.02553 0.0
O111 O 0.41438 0.78963 0.99062 0.0
H112 H 0.40798 0.6953 0.93518 0.0
H113 H 0.39021 0.67501 0.90038 0.0
H114 H 0.32714 0.72622 0.89888 0.0
H115 H 0.34533 0.74671 0.93362 0.0
H116 H 0.34694 0.86015 0.07636 0.0
H117 H 0.36329 0.89701 0.09317 0.0
H118 H 0.43049 0.85894 0.1191 0.0
H119 H 0.41442 0.82215 0.10182 0.0
C120 C 0.42888 0.12733 0.30117 0.0
Eu121 Eu 0.47087 0.12665 0.27632 0.0
C122 C 0.40991 0.1426 0.31428 0.0
C123 C 0.41526 0.15189 0.33712 0.0
C124 C 0.39591 0.16329 0.35057 0.0
C125 C 0.3707 0.16551 0.34159 0.0
C126 C 0.36568 0.15701 0.31839 0.0
C127 C 0.385 0.14569 0.30495 0.0
C128 C 0.51422 0.09935 0.28327 0.0
C129 C 0.50867 0.16903 0.2913 0.0
C130 C 0.56007 0.14019 0.22141 0.0
Eu131 Eu 0.51671 0.13635 0.24346 0.0
C132 C 0.57026 0.13433 0.19754 0.0
C133 C 0.55837 0.11758 0.18261 0.0
C134 C 0.56897 0.11128 0.16051 0.0
C135 C 0.5917 0.12162 0.15284 0.0
C136 C 0.60333 0.13861 0.16783 0.0
C137 C 0.59271 0.14488 0.18991 0.0
C138 C 0.47057 0.15583 0.22966 0.0
C139 C 0.47956 0.09351 0.23043 0.0
O140 O 0.42914 0.12864 0.27792 0.0
O141 O 0.45181 0.12404 0.31046 0.0
O142 O 0.49135 0.09121 0.28564 0.0
O143 O 0.51268 0.12094 0.27861 0.0
O144 O 0.48561 0.16015 0.29341 0.0
O145 O 0.52492 0.1615 0.27461 0.0
O146 O 0.55448 0.12199 0.23445 0.0
O147 O 0.54288 0.15754 0.22292 0.0
O148 O 0.48748 0.14697 0.21502 0.0
O149 O 0.47926 0.1545 0.25048 0.0
O150 O 0.50364 0.10024 0.23067 0.0
O151 O 0.46201 0.10454 0.24363 0.0
H152 H 0.43417 0.14969 0.34497 0.0
H153 H 0.40046 0.16943 0.36841 0.0
H154 H 0.34663 0.15872 0.31073 0.0
H155 H 0.38018 0.13863 0.28749 0.0
H156 H 0.54097 0.10923 0.18812 0.0
H157 H 0.55926 0.0984 0.14938 0.0
H158 H 0.62101 0.14671 0.16275 0.0
H159 H 0.6023 0.1577 0.20124 0.0
C160 C 0.64452 0.33473 0.50626 0.0
Eu161 Eu 0.64312 0.29525 0.52988 0.0
C162 C 0.63186 0.35193 0.49012 0.0
C163 C 0.64683 0.3626 0.47297 0.0
C164 C 0.63685 0.38126 0.4594 0.0
C165 C 0.61147 0.38974 0.46253 0.0
C166 C 0.59618 0.37849 0.47932 0.0
C167 C 0.60629 0.35981 0.49304 0.0
C168 C 0.66946 0.25351 0.52099 0.0
C169 C 0.59809 0.26029 0.51329 0.0
C170 C 0.63106 0.21388 0.58574 0.0
Eu171 Eu 0.63023 0.25307 0.56155 0.0
C172 C 0.6388 0.20495 0.60925 0.0
C173 C 0.64526 0.22043 0.62807 0.0
C174 C 0.65207 0.21139 0.65038 0.0
C175 C 0.65258 0.1867 0.65426 0.0
C176 C 0.64643 0.17135 0.63513 0.0
C177 C 0.63957 0.1804 0.61292 0.0
C178 C 0.60101 0.29264 0.56918 0.0
C179 C 0.67807 0.28767 0.57622 0.0
O180 O 0.63597 0.3334 0.52796 0.0
O181 O 0.65266 0.31421 0.49756 0.0
O182 O 0.67965 0.2742 0.51894 0.0
O183 O 0.64633 0.25621 0.52617 0.0
O184 O 0.60533 0.28267 0.51423 0.0
O185 O 0.60829 0.24425 0.52779 0.0
O186 O 0.64954 0.21989 0.57167 0.0
O187 O 0.6114 0.22876 0.58508 0.0
O188 O 0.59284 0.2712 0.57125 0.0
O189 O 0.62481 0.29232 0.56514 0.0
O190 O 0.66603 0.26758 0.57968 0.0
O191 O 0.67133 0.30236 0.55915 0.0
H192 H 0.66669 0.35706 0.47064 0.0
H193 H 0.64947 0.38963 0.4471 0.0
H194 H 0.57648 0.38428 0.48206 0.0
H195 H 0.59434 0.35193 0.50626 0.0
H196 H 0.64484 0.23947 0.62554 0.0
H197 H 0.65648 0.22376 0.6647 0.0
H198 H 0.64712 0.15226 0.63722 0.0
H199 H 0.63482 0.16817 0.59855 0.0
C200 C 0.04274 0.36965 0.87032 0.0
Eu201 Eu 0.02384 0.37523 0.82761 0.0
C202 C 0.05778 0.3811 0.88942 0.0
C203 C 0.06853 0.36682 0.90722 0.0
C204 C 0.08203 0.37695 0.92623 0.0
C205 C 0.08521 0.40169 0.92787 0.0
C206 C 0.07435 0.41603 0.90992 0.0
C207 C 0.06076 0.40581 0.89083 0.0
C208 C 0.0355 0.35097 0.78691 0.0
C209 C 0.04263 0.41342 0.79202 0.0
C210 C 0.96554 0.39247 0.74485 0.0
Eu211 Eu 0.98825 0.38601 0.78584 0.0
C212 C 0.94377 0.38243 0.73128 0.0
C213 C 0.9221 0.3969 0.7266 0.0
C214 C 0.90108 0.38786 0.71419 0.0
C215 C 0.90128 0.36411 0.70594 0.0
C216 C 0.92318 0.34969 0.71034 0.0
C217 C 0.9442 0.35874 0.72288 0.0
C218 C 0.97851 0.41178 0.82633 0.0
C219 C 0.97099 0.34508 0.81995 0.0
O220 O 0.01984 0.37866 0.86597 0.0
O221 O 0.05484 0.36281 0.85103 0.0
O222 O 0.05258 0.35806 0.80221 0.0
O223 O 0.01324 0.35528 0.79472 0.0
O224 O 0.04341 0.40729 0.81454 0.0
O225 O 0.02477 0.40546 0.77722 0.0
O226 O 0.98607 0.37897 0.74764 0.0
O227 O 0.95979 0.40478 0.76405 0.0
O228 O 0.96082 0.40335 0.81244 0.0
O229 O 1.00022 0.4067 0.8179 0.0
O230 O 0.96781 0.35403 0.79858 0.0
O231 O 0.98966 0.35201 0.83436 0.0
H232 H 0.06622 0.34774 0.90658 0.0
H233 H 0.08963 0.36536 0.93987 0.0
H234 H 0.07659 0.4351 0.91048 0.0
H235 H 0.0525 0.41716 0.87727 0.0
H236 H 0.92131 0.41525 0.73276 0.0
H237 H 0.88447 0.39942 0.71144 0.0
H238 H 0.92418 0.33145 0.70393 0.0
H239 H 0.96073 0.34716 0.72596 0.0
C240 C 0.88765 0.68384 1.00219 0.0
Eu241 Eu 0.88795 0.72801 0.01695 0.0
C242 C 0.89957 0.66571 0.98605 0.0
C243 C 0.88473 0.6555 0.9678 0.0
C244 C 0.89418 0.63603 0.95449 0.0
C245 C 0.91868 0.62615 0.95923 0.0
C246 C 0.93387 0.63686 0.97701 0.0
C247 C 0.92444 0.65641 0.99028 0.0
C248 C 0.8607 0.76692 1.00353 0.0
C249 C 0.92371 0.76875 0.99847 0.0
C250 C 0.88568 0.81794 0.06858 0.0
Eu251 Eu 0.89416 0.77616 0.0493 0.0
C252 C 0.88058 0.82769 0.09267 0.0
C253 C 0.89499 0.82022 0.11252 0.0
C254 C 0.88917 0.82917 0.13527 0.0
C255 C 0.86867 0.84555 0.13864 0.0
C256 C 0.85431 0.85296 0.11871 0.0
C257 C 0.86027 0.84417 0.09597 0.0
C258 C 0.93026 0.74181 0.05998 0.0
C259 C 0.85698 0.73551 0.06781 0.0
O260 O 0.9011 0.6913 0.0205 0.0
O261 O 0.87309 0.70062 0.99286 0.0
O262 O 0.86927 0.75079 0.98851 0.0
O263 O 0.86541 0.76078 0.02462 0.0
O264 O 0.921 0.74535 0.99925 0.0
O265 O 0.91258 0.78386 0.0139 0.0
O266 O 0.86757 0.805 0.05921 0.0
O267 O 0.90874 0.80918 0.06432 0.0
O268 O 0.92827 0.76191 0.07167 0.0
O269 O 0.91293 0.74173 0.04451 0.0
O270 O 0.86849 0.7557 0.07278 0.0
O271 O 0.86068 0.72306 0.04778 0.0
H272 H 0.86538 0.66205 0.96438 0.0
H273 H 0.88183 0.62809 0.94115 0.0
H274 H 0.95295 0.62991 0.98091 0.0
H275 H 0.93638 0.66376 1.00429 0.0
H276 H 0.91058 0.8073 0.11052 0.0
H277 H 0.90042 0.82294 0.15028 0.0
H278 H 0.83859 0.86574 0.12067 0.0
H279 H 0.84887 0.85013 0.08093 0.0
C280 C 0.60362 0.6197 0.26302 0.0
Eu281 Eu 0.55779 0.62859 0.27936 0.0
C282 C 0.6235 0.63115 0.24933 0.0
C283 C 0.64502 0.61765 0.24215 0.0
C284 C 0.66451 0.62811 0.22951 0.0
C285 C 0.66284 0.65233 0.22379 0.0
C286 C 0.64111 0.66584 0.23097 0.0
C287 C 0.62159 0.65533 0.24371 0.0
C288 C 0.51375 0.60601 0.26921 0.0
C289 C 0.5201 0.66655 0.25732 0.0
C290 C 0.47086 0.65471 0.33109 0.0
Eu291 Eu 0.51402 0.64391 0.31012 0.0
C292 C 0.45839 0.64658 0.35276 0.0
C293 C 0.44487 0.66299 0.36718 0.0
C294 C 0.43402 0.65583 0.38843 0.0
C295 C 0.43641 0.63204 0.39565 0.0
C296 C 0.44988 0.61561 0.38098 0.0
C297 C 0.46086 0.62283 0.35982 0.0
C298 C 0.55812 0.66784 0.31845 0.0
C299 C 0.5486 0.60086 0.32952 0.0
O300 O 0.59914 0.62869 0.28423 0.0
O301 O 0.58268 0.61407 0.2515 0.0
O302 O 0.53025 0.61145 0.25321 0.0
O303 O 0.52214 0.61095 0.28972 0.0
O304 O 0.54444 0.65983 0.25815 0.0
O305 O 0.50409 0.66047 0.27419 0.0
O306 O 0.4729 0.63931 0.31349 0.0
O307 O 0.49172 0.66666 0.33446 0.0
O308 O 0.54365 0.65992 0.33499 0.0
O309 O 0.54882 0.66252 0.29838 0.0
O310 O 0.52631 0.6122 0.33173 0.0
O311 O 0.5643 0.60561 0.31199 0.0
H312 H 0.64676 0.59897 0.24635 0.0
H313 H 0.68076 0.61712 0.22392 0.0
H314 H 0.63936 0.68457 0.22699 0.0
H315 H 0.60509 0.66603 0.24924 0.0
H316 H 0.44301 0.68145 0.36217 0.0
H317 H 0.42419 0.66907 0.39942 0.0
H318 H 0.45182 0.5971 0.38576 0.0
H319 H 0.47142 0.60985 0.34906 0.0
C320 C 0.18807 0.53604 0.16376 0.0
Eu321 Eu 0.229 0.50903 0.1681 0.0
C322 C 0.17158 0.55038 0.14758 0.0
C323 C 0.17302 0.57526 0.14839 0.0
C324 C 0.15482 0.58944 0.1366 0.0
C325 C 0.13447 0.57913 0.12392 0.0
C326 C 0.13374 0.55419 0.12206 0.0
C327 C 0.15207 0.53995 0.13383 0.0
C328 C 0.26968 0.51495 0.19836 0.0
C329 C 0.27248 0.51999 0.12981 0.0
C330 C 0.32086 0.44985 0.16755 0.0
Eu331 Eu 0.27765 0.47299 0.16155 0.0
C332 C 0.32992 0.42497 0.17009 0.0
C333 C 0.31991 0.40646 0.15607 0.0
C334 C 0.32851 0.38295 0.15933 0.0
C335 C 0.34715 0.37748 0.17679 0.0
C336 C 0.35691 0.39614 0.19088 0.0
C337 C 0.34842 0.4196 0.18751 0.0
C338 C 0.2377 0.46074 0.13216 0.0
C339 C 0.23303 0.46274 0.20076 0.0
O340 O 0.18782 0.51277 0.16181 0.0
O341 O 0.21071 0.54415 0.16938 0.0
O342 O 0.24621 0.52086 0.20375 0.0
O343 O 0.27052 0.50886 0.17682 0.0
O344 O 0.24761 0.52081 0.13425 0.0
O345 O 0.28872 0.50546 0.14105 0.0
O346 O 0.30711 0.45858 0.18515 0.0
O347 O 0.31215 0.45632 0.1466 0.0
O348 O 0.2595 0.44916 0.1328 0.0
O349 O 0.23871 0.47701 0.14758 0.0
O350 O 0.25684 0.45871 0.19336 0.0
O351 O 0.21763 0.47936 0.19171 0.0
H352 H 0.18766 0.58387 0.15897 0.0
H353 H 0.15627 0.60857 0.13802 0.0
H354 H 0.11824 0.54566 0.11257 0.0
H355 H 0.15024 0.52083 0.133 0.0
H356 H 0.30544 0.41012 0.14262 0.0
H357 H 0.32076 0.36911 0.14798 0.0
H358 H 0.37089 0.39263 0.2048 0.0
H359 H 0.35619 0.43359 0.1987 0.0
C360 C 0.67415 1.00187 0.89997 0.0
Eu361 Eu 0.72044 0.01822 0.90062 0.0
C362 C 0.6573 0.98568 0.91254 0.0
C363 C 0.64263 0.96972 0.89912 0.0
C364 C 0.62547 0.95493 0.9102 0.0
C365 C 0.62252 0.95582 0.93501 0.0
C366 C 0.63745 0.9717 0.94851 0.0
C367 C 0.65474 0.98647 0.93739 0.0
C368 C 0.76034 1.00561 0.87241 0.0
C369 C 0.76518 0.99641 0.93163 0.0
C370 C 0.81155 0.06866 0.91149 0.0
Eu371 Eu 0.76704 0.04871 0.90767 0.0
C372 C 0.82181 0.09177 0.9052 0.0
C373 C 0.80564 0.10995 0.89645 0.0
C374 C 0.81575 0.13165 0.8899 0.0
C375 C 0.84225 0.1355 0.89183 0.0
C376 C 0.85829 0.11712 0.90064 0.0
C377 C 0.84812 0.09554 0.90734 0.0
C378 C 0.72692 0.05963 0.93683 0.0
C379 C 0.72548 0.06749 0.87015 0.0
O380 O 0.68039 0.02169 0.91086 0.0
O381 O 0.69308 0.99209 0.88793 0.0
O382 O 0.7446 0.99048 0.88092 0.0
O383 O 0.75319 0.02663 0.8777 0.0
O384 O 0.73997 0.99746 0.9296 0.0
O385 O 0.77963 0.01268 0.92214 0.0
O386 O 0.80499 0.05495 0.8936 0.0
O387 O 0.79472 0.06889 0.92853 0.0
O388 O 0.74081 0.07533 0.92681 0.0
O389 O 0.73504 0.03901 0.9313 0.0
O390 O 0.74919 0.06977 0.87803 0.0
O391 O 0.71074 0.05034 0.8776 0.0
H392 H 0.64417 0.96894 0.87993 0.0
H393 H 0.61402 0.94322 0.89921 0.0
H394 H 0.63581 0.97266 0.96767 0.0
H395 H 0.66588 0.9986 0.94818 0.0
H396 H 0.78522 0.10732 0.89467 0.0
H397 H 0.80276 0.14546 0.8835 0.0
H398 H 0.87881 0.11922 0.90201 0.0
H399 H 0.86088 0.08175 0.91406 0.0
C400 C 0.84848 0.02402 0.39051 0.0
Eu401 Eu 0.80264 1.00656 0.39155 0.0
C402 C 0.86551 0.04028 0.40391 0.0
C403 C 0.87469 0.06034 0.39259 0.0
C404 C 0.89202 0.07528 0.40415 0.0
C405 C 0.90071 0.07051 0.42736 0.0
C406 C 0.89133 0.0505 0.43881 0.0
C407 C 0.87392 0.03555 0.42722 0.0
C408 C 0.76123 0.01816 0.36427 0.0
C409 C 0.76049 0.02816 0.42604 0.0
C410 C 0.71159 0.95514 0.40135 0.0
Eu411 Eu 0.75543 0.97637 0.39911 0.0
C412 C 0.70154 0.93191 0.39297 0.0
C413 C 0.71086 0.91031 0.40233 0.0
C414 C 0.70118 0.88858 0.39425 0.0
C415 C 0.68189 0.88782 0.37662 0.0
C416 C 0.67262 0.90947 0.36726 0.0
C417 C 0.68233 0.9312 0.37534 0.0
C418 C 0.79693 0.9654 0.42681 0.0
C419 C 0.79649 0.95693 0.3609 0.0
O420 O 0.84344 1.00357 0.39995 0.0
O421 O 0.82863 0.03361 0.37962 0.0
O422 O 0.77713 0.03367 0.3726 0.0
O423 O 0.76885 0.99746 0.36938 0.0
O424 O 0.7854 0.02638 0.42243 0.0
O425 O 0.74457 0.01239 0.41666 0.0
O426 O 0.71687 0.97045 0.38501 0.0
O427 O 0.72871 0.95485 0.41848 0.0
O428 O 0.78189 0.94973 0.41743 0.0
O429 O 0.78894 0.986 0.42174 0.0
O430 O 0.7726 0.9557 0.36823 0.0
O431 O 0.81202 0.97348 0.36911 0.0
H432 H 0.86879 0.06426 0.37454 0.0
H433 H 0.89912 0.09026 0.3946 0.0
H434 H 0.89742 0.0464 0.45675 0.0
H435 H 0.86733 0.02018 0.43645 0.0
H436 H 0.72564 0.91011 0.41596 0.0
H437 H 0.70854 0.87238 0.40218 0.0
H438 H 0.65802 0.90965 0.35347 0.0
H439 H 0.67487 0.9475 0.36768 0.0
C440 C 0.24142 0.60875 0.64051 0.0
Eu441 Eu 0.26472 0.5675 0.64514 0.0
C442 C 0.22494 0.62727 0.65206 0.0
C443 C 0.20394 0.63664 0.63928 0.0
C444 C 0.18948 0.65591 0.64835 0.0
C445 C 0.19564 0.66637 0.67051 0.0
C446 C 0.21638 0.65658 0.6836 0.0
C447 C 0.2309 0.63724 0.67446 0.0
C448 C 0.25611 0.52541 0.62319 0.0
C449 C 0.2512 0.53028 0.68394 0.0
C450 C 0.33381 0.48991 0.66177 0.0
Eu451 Eu 0.3058 0.52853 0.65557 0.0
C452 C 0.35903 0.47992 0.6548 0.0
C453 C 0.36683 0.45758 0.66315 0.0
C454 C 0.38938 0.44652 0.65488 0.0
C455 C 0.4046 0.45758 0.638 0.0
C456 C 0.39715 0.4804 0.63025 0.0
C457 C 0.37448 0.49145 0.63853 0.0
C458 C 0.31131 0.57058 0.6795 0.0
C459 C 0.31702 0.56321 0.61275 0.0
O460 O 0.26509 0.60608 0.64818 0.0
O461 O 0.231 0.58862 0.6343 0.0
O462 O 0.23793 0.54056 0.62887 0.0
O463 O 0.27786 0.53439 0.62649 0.0
O464 O 0.24794 0.55276 0.67801 0.0
O465 O 0.27049 0.5169 0.67556 0.0
O466 O 0.31724 0.49267 0.64448 0.0
O467 O 0.33344 0.50788 0.67682 0.0
O468 O 0.33038 0.55785 0.67112 0.0
O469 O 0.29067 0.56016 0.6754 0.0
O470 O 0.32408 0.54327 0.62321 0.0
O471 O 0.29627 0.57563 0.61917 0.0
H472 H 0.19915 0.62946 0.62185 0.0
H473 H 0.174 0.66313 0.63753 0.0
H474 H 0.22152 0.66397 0.70083 0.0
H475 H 0.24705 0.63044 0.6847 0.0
H476 H 0.35513 0.4484 0.67568 0.0
H477 H 0.39476 0.42914 0.66151 0.0
H478 H 0.40833 0.48934 0.61716 0.0
H479 H 0.36866 0.50867 0.63176 0.0
H480 H 0.168 0.34379 0.51663 0.0
H481 H 0.1877 0.37968 0.53162 0.0
H482 H 0.21972 0.34101 0.5909 0.0
H483 H 0.19854 0.30499 0.57651 0.0
H484 H 0.20321 0.38022 0.60687 0.0
H485 H 0.25697 0.36173 0.54176 0.0
H486 H 0.26859 0.35043 0.50066 0.0
H487 H 0.23242 0.41454 0.4752 0.0
H488 H 0.22025 0.42608 0.51611 0.0
H489 H 0.27223 0.48314 0.64168 0.0
H490 H 0.26322 0.44312 0.62684 0.0
H491 H 0.21685 0.47316 0.57049 0.0
H492 H 0.22721 0.5133 0.58474 0.0
H493 H 0.24648 0.43608 0.55423 0.0
H494 H 0.19208 0.45156 0.62363 0.0
H495 H 0.18433 0.46012 0.66613 0.0
H496 H 0.22876 0.39792 0.68493 0.0
H497 H 0.23722 0.38927 0.64261 0.0
C498 C 0.1795 0.34274 0.53271 0.0
C499 C 0.18187 0.32141 0.54527 0.0
C500 C 0.19096 0.36337 0.54122 0.0
C501 C 0.20583 0.36314 0.56215 0.0
C502 C 0.20849 0.34173 0.57464 0.0
C503 C 0.19646 0.32111 0.56637 0.0
C504 C 0.21717 0.3856 0.57152 0.0
C505 C 0.21313 0.39216 0.5954 0.0
C506 C 0.23009 0.40143 0.55669 0.0
C507 C 0.23754 0.39469 0.53202 0.0
C508 C 0.25135 0.37335 0.52739 0.0
C509 C 0.25805 0.36691 0.50412 0.0
C510 C 0.2512 0.38173 0.48533 0.0
C511 C 0.2377 0.40307 0.48978 0.0
C512 C 0.23093 0.40959 0.51301 0.0
C513 C 0.26116 0.48119 0.62553 0.0
C514 C 0.25144 0.50126 0.61371 0.0
C515 C 0.25541 0.45829 0.61738 0.0
C516 C 0.23924 0.45503 0.59756 0.0
C517 C 0.22948 0.47516 0.58573 0.0
C518 C 0.23535 0.49807 0.59387 0.0
C519 C 0.23197 0.43078 0.58934 0.0
C520 C 0.2368 0.42393 0.56566 0.0
C521 C 0.22051 0.41439 0.60455 0.0
C522 C 0.21548 0.4199 0.62996 0.0
C523 C 0.20039 0.43984 0.63684 0.0
C524 C 0.19584 0.44468 0.66091 0.0
C525 C 0.20606 0.42955 0.67821 0.0
C526 C 0.22089 0.40962 0.67151 0.0
C527 C 0.22557 0.40475 0.6475 0.0
H528 H 0.2025 0.43313 0.69682 0.0
H529 H 0.25639 0.3767 0.46733 0.0
H530 H 0.78092 0.96104 0.86621 0.0
H531 H 0.82266 0.94975 0.84939 0.0
H532 H 0.83678 0.02335 0.83558 0.0
H533 H 0.79471 0.03468 0.85187 0.0
H534 H 0.84555 0.95529 0.80576 0.0
H535 H 0.89972 0.0325 0.85273 0.0
H536 H 0.89663 0.05676 0.88961 0.0
H537 H 0.85538 1.00159 0.92298 0.0
H538 H 0.85857 0.97688 0.88651 0.0
H539 H 0.97179 0.9586 0.75858 0.0
H540 H 0.92874 0.97076 0.77212 0.0
H541 H 0.94813 0.94751 0.8428 0.0
H542 H 0.9908 0.93509 0.82932 0.0
H543 H 0.9224 0.98928 0.84473 0.0
H544 H 0.91272 0.91338 0.80874 0.0
H545 H 0.91685 0.88237 0.77748 0.0
H546 H 0.86999 0.92456 0.73048 0.0
H547 H 0.86587 0.95607 0.76141 0.0
C548 C 0.79278 0.97479 0.85931 0.0
C549 C 0.78473 0.9988 0.86064 0.0
C550 C 0.8166 0.96829 0.84965 0.0
C551 C 0.83292 0.9857 0.84138 0.0
C552 C 0.82459 0.00964 0.84206 0.0
C553 C 0.80063 0.01611 0.85149 0.0
C554 C 0.8592 0.97898 0.83329 0.0
C555 C 0.86234 0.9629 0.81411 0.0
C556 C 0.88116 0.98816 0.84477 0.0
C557 C 0.87915 1.00298 0.86677 0.0
C558 C 0.89003 0.02555 0.86795 0.0
C559 C 0.88827 0.03936 0.8888 0.0
C560 C 0.87577 0.03072 0.9086 0.0
C561 C 0.86497 0.00828 0.9076 0.0
C562 C 0.86672 0.99439 0.88684 0.0
C563 C 0.96677 0.956 0.77694 0.0
C564 C 0.98452 0.94565 0.79281 0.0
C565 C 0.94224 0.96302 0.7847 0.0
C566 C 0.93515 0.95993 0.80848 0.0
C567 C 0.95316 0.95017 0.82443 0.0
C568 C 0.97754 0.94304 0.81667 0.0
C569 C 0.90877 0.96618 0.81668 0.0
C570 C 0.90561 0.98204 0.83603 0.0
C571 C 0.88687 0.95602 0.80598 0.0
C572 C 0.88918 0.93718 0.78731 0.0
C573 C 0.90346 0.91615 0.79167 0.0
C574 C 0.90577 0.89847 0.77403 0.0
C575 C 0.89368 0.9015 0.75202 0.0
C576 C 0.87932 0.92226 0.74756 0.0
C577 C 0.87698 0.94003 0.76514 0.0
H578 H 0.89533 0.88769 0.73848 0.0
H579 H 0.87454 0.04134 0.92478 0.0
H580 H 0.33538 0.72758 0.07694 0.0
H581 H 0.32125 0.68926 0.09061 0.0
H582 H 0.3095 0.66585 0.01812 0.0
H583 H 0.32409 0.70419 1.00404 0.0
H584 H 0.26937 0.65389 0.05789 0.0
H585 H 0.36113 0.65009 0.0371 0.0
H586 H 0.40418 0.66693 0.04092 0.0
H587 H 0.40238 0.65832 0.11652 0.0
H588 H 0.35911 0.64189 0.11319 0.0
H589 H 0.25665 0.53399 0.08586 0.0
H590 H 0.26891 0.56996 0.06537 0.0
H591 H 0.32049 0.58699 0.12337 0.0
H592 H 0.30996 0.54997 0.14254 0.0
H593 H 0.34058 0.60267 0.08857 0.0
H594 H 0.25535 0.6119 0.11603 0.0
H595 H 0.21005 0.60241 0.12161 0.0
H596 H 0.19637 0.60761 0.04652 0.0
H597 H 0.24177 0.61702 0.04047 0.0
C598 C 0.32928 0.71456 0.06381 0.0
C599 C 0.33108 0.71892 0.03934 0.0
C600 C 0.32125 0.69264 0.07172 0.0
C601 C 0.31459 0.67475 0.05535 0.0
C602 C 0.31461 0.67951 0.03098 0.0
C603 C 0.32297 0.7014 0.02299 0.0
C604 C 0.31001 0.6505 0.06376 0.0
C605 C 0.28489 0.6424 0.06419 0.0
C606 C 0.3302 0.63623 0.07314 0.0
C607 C 0.3568 0.64491 0.0749 0.0
C608 C 0.36987 0.65188 0.05454 0.0
C609 C 0.39431 0.66137 0.05662 0.0
C610 C 0.40598 0.66377 0.07896 0.0
C611 C 0.39332 0.6565 0.09924 0.0
C612 C 0.36885 0.64707 0.09725 0.0
C613 C 0.27114 0.54517 0.09377 0.0
C614 C 0.28256 0.53925 0.11559 0.0
C615 C 0.27787 0.56592 0.08229 0.0
C616 C 0.29507 0.58178 0.09309 0.0
C617 C 0.30719 0.57523 0.11452 0.0
C618 C 0.30122 0.55403 0.1255 0.0
C619 C 0.29967 0.60555 0.08273 0.0
C620 C 0.32487 0.61376 0.08201 0.0
C621 C 0.27932 0.6205 0.07431 0.0
C622 C 0.25202 0.61487 0.07777 0.0
C623 C 0.24272 0.61086 0.10069 0.0
C624 C 0.21702 0.60551 0.10394 0.0
C625 C 0.20033 0.60427 0.08443 0.0
C626 C 0.20933 0.60851 0.06162 0.0
C627 C 0.23504 0.61389 0.05826 0.0
H628 H 0.18043 0.60011 0.08699 0.0
H629 H 0.42485 0.67122 0.08055 0.0
H630 H 0.55962 0.12017 0.29053 0.0
H631 H 0.60055 0.10186 0.30125 0.0
H632 H 0.56629 0.03288 0.30058 0.0
H633 H 0.52438 0.05159 0.29064 0.0
H634 H 0.59857 0.03612 0.33686 0.0
H635 H 0.60528 0.05048 0.25485 0.0
H636 H 0.6015 0.07284 0.21766 0.0
H637 H 0.65596 0.12285 0.24425 0.0
H638 H 0.6597 0.1011 0.28182 0.0
H639 H 0.72773 0.98754 0.34329 0.0
H640 H 0.68529 0.99713 0.32644 0.0
H641 H 0.69735 0.07165 0.34009 0.0
H642 H 0.73938 0.06209 0.35775 0.0
H643 H 0.67593 0.05921 0.29306 0.0
H644 H 0.66404 0.04458 0.37735 0.0
H645 H 0.66891 0.01924 0.41247 0.0
H646 H 0.62444 0.96539 0.37787 0.0
H647 H 0.61981 0.9902 0.34229 0.0
C648 C 0.56068 0.10106 0.29259 0.0
C649 C 0.5388 0.08727 0.28956 0.0
C650 C 0.58423 0.09057 0.29861 0.0
C651 C 0.5868 0.06588 0.30117 0.0
C652 C 0.56487 0.05196 0.29852 0.0
C653 C 0.54098 0.0626 0.29279 0.0
C654 C 0.6125 0.05513 0.30686 0.0
C655 C 0.61538 0.04079 0.32695 0.0
C656 C 0.6346 0.06112 0.29398 0.0
C657 C 0.63269 0.07417 0.27125 0.0
C658 C 0.61635 0.06632 0.25285 0.0
C659 C 0.61421 0.0789 0.23169 0.0
C660 C 0.6285 0.09923 0.2286 0.0
C661 C 0.64493 0.10707 0.24667 0.0
C662 C 0.64709 0.09461 0.2679 0.0
C663 C 0.72123 1.00594 0.34285 0.0
C664 C 0.73662 0.02403 0.35224 0.0
C665 C 0.69709 0.0114 0.33307 0.0
C666 C 0.68813 0.03508 0.33214 0.0
C667 C 0.70393 0.05326 0.34062 0.0
C668 C 0.7279 0.04778 0.35072 0.0
C669 C 0.66187 0.04097 0.32333 0.0
C670 C 0.65898 0.05433 0.30266 0.0
C671 C 0.6398 0.03364 0.33534 0.0
C672 C 0.6418 0.01914 0.35706 0.0
C673 C 0.65543 0.02727 0.37717 0.0
C674 C 0.65816 0.013 0.39716 0.0
C675 C 0.64704 0.99069 0.39738 0.0
C676 C 0.63304 0.98267 0.37766 0.0
C677 C 0.63039 0.99681 0.35757 0.0
H678 H 0.64924 0.97963 0.41283 0.0
H679 H 0.62691 0.10887 0.21217 0.0
H680 H 0.6463 0.21105 0.52139 0.0
H681 H 0.66268 0.17259 0.50749 0.0
H682 H 0.73444 0.20386 0.4897 0.0
H683 H 0.71771 0.24304 0.50338 0.0
H684 H 0.71863 0.17457 0.45459 0.0
H685 H 0.72933 0.16844 0.53834 0.0
H686 H 0.71688 0.17113 0.58046 0.0
H687 H 0.65938 0.11908 0.56791 0.0
H688 H 0.6712 0.11634 0.52559 0.0
H689 H 0.78793 0.06567 0.44245 0.0
H690 H 0.77208 0.10265 0.46053 0.0
H691 H 0.69512 0.07678 0.45836 0.0
H692 H 0.71078 0.03942 0.43954 0.0
H693 H 0.71426 0.10271 0.50414 0.0
H694 H 0.70368 0.11053 0.41936 0.0
H695 H 0.71861 0.10709 0.37799 0.0
H696 H 0.77846 0.15603 0.39379 0.0
H697 H 0.76418 0.15938 0.43542 0.0
C698 C 0.66566 0.20985 0.5147 0.0
C699 C 0.68077 0.23014 0.51359 0.0
C700 C 0.67506 0.18771 0.50682 0.0
C701 C 0.69995 0.18514 0.49783 0.0
C702 C 0.71519 0.20537 0.49666 0.0
C703 C 0.7057 0.22771 0.50456 0.0
C704 C 0.70945 0.16137 0.48911 0.0
C705 C 0.71799 0.15897 0.46559 0.0
C706 C 0.70818 0.1408 0.50324 0.0
C707 C 0.70104 0.14232 0.52872 0.0
C708 C 0.71389 0.1577 0.5445 0.0
C709 C 0.70697 0.15921 0.56843 0.0
C710 C 0.68735 0.14529 0.57685 0.0
C711 C 0.67459 0.12985 0.56135 0.0
C712 C 0.68141 0.12828 0.5374 0.0
C713 C 0.76762 0.06755 0.44596 0.0
C714 C 0.75061 0.04947 0.4394 0.0
C715 C 0.75862 0.08881 0.45634 0.0
C716 C 0.73246 0.09249 0.46069 0.0
C717 C 0.71543 0.07421 0.45516 0.0
C718 C 0.7244 0.05291 0.44438 0.0
C719 C 0.72312 0.11607 0.46971 0.0
C720 C 0.71476 0.11839 0.49325 0.0
C721 C 0.72472 0.1366 0.4557 0.0
C722 C 0.73302 0.13501 0.43057 0.0
C723 C 0.72016 0.1204 0.41407 0.0
C724 C 0.72848 0.11849 0.39057 0.0
C725 C 0.7495 0.1313 0.38328 0.0
C726 C 0.76219 0.1461 0.39947 0.0
C727 C 0.75399 0.14802 0.42303 0.0
H728 H 0.75593 0.12979 0.36508 0.0
H729 H 0.68212 0.1464 0.59539 0.0
H730 H 0.04595 0.43281 0.74791 0.0
H731 H 0.08165 0.45471 0.73209 0.0
H732 H 0.12128 0.44939 0.79949 0.0
H733 H 0.08543 0.42819 0.81565 0.0
H734 H 0.12887 0.49118 0.78167 0.0
H735 H 0.13411 0.41085 0.75328 0.0
H736 H 0.11833 0.3744 0.73384 0.0
H737 H 0.10953 0.41107 0.66792 0.0
H738 H 0.12481 0.4479 0.68709 0.0
H739 H 0.2507 0.48478 0.7005 0.0
H740 H 0.21642 0.46628 0.72233 0.0
H741 H 0.17262 0.53226 0.72182 0.0
H742 H 0.20703 0.55112 0.70082 0.0
H743 H 0.16851 0.45913 0.70775 0.0
H744 H 0.13457 0.53623 0.77035 0.0
H745 H 0.15283 0.57015 0.79245 0.0
H746 H 0.22616 0.53396 0.79482 0.0
H747 H 0.20827 0.49971 0.77305 0.0
C748 C 0.06212 0.43656 0.75946 0.0
C749 C 0.06293 0.42859 0.78298 0.0
C750 C 0.08255 0.449 0.75037 0.0
C751 C 0.10433 0.4533 0.76449 0.0
C752 C 0.1047 0.44623 0.78826 0.0
C753 C 0.08419 0.43403 0.79744 0.0
C754 C 0.12726 0.46408 0.75422 0.0
C755 C 0.13762 0.48414 0.76553 0.0
C756 C 0.13903 0.45451 0.73348 0.0
C757 C 0.1303 0.43225 0.72172 0.0
C758 C 0.12863 0.4112 0.73468 0.0
C759 C 0.11978 0.39046 0.72371 0.0
C760 C 0.11283 0.39043 0.69968 0.0
C761 C 0.11485 0.41113 0.68655 0.0
C762 C 0.1236 0.43196 0.69747 0.0
C763 C 0.23395 0.49547 0.70535 0.0
C764 C 0.23167 0.51946 0.69895 0.0
C765 C 0.21429 0.4848 0.71765 0.0
C766 C 0.19195 0.49786 0.72367 0.0
C767 C 0.18982 0.5219 0.71765 0.0
C768 C 0.20953 0.53264 0.70557 0.0
C769 C 0.17034 0.4861 0.73522 0.0
C770 C 0.16006 0.46597 0.72403 0.0
C771 C 0.15923 0.49509 0.75648 0.0
C772 C 0.17011 0.5155 0.76986 0.0
C773 C 0.15456 0.53547 0.77568 0.0
C774 C 0.16485 0.55476 0.78813 0.0
C775 C 0.19066 0.55424 0.79497 0.0
C776 C 0.2062 0.53439 0.78944 0.0
C777 C 0.196 0.51504 0.77701 0.0
H778 H 0.19859 0.5692 0.80459 0.0
H779 H 0.10595 0.37436 0.69122 0.0
H780 H 0.74541 0.96637 0.96405 0.0
H781 H 0.76455 0.9288 0.97796 0.0
H782 H 0.83141 0.94 0.93561 0.0
H783 H 0.81267 0.97773 0.922 0.0
H784 H 0.80666 0.89429 0.92891 0.0
H785 H 0.8397 0.94558 0.99058 0.0
H786 H 0.83658 0.97592 0.02262 0.0
H787 H 0.78748 0.93114 0.06186 0.0
H788 H 0.78998 0.90067 0.02986 0.0
H789 H 0.87713 0.79244 0.9664 0.0
H790 H 0.86376 0.83279 0.95556 0.0
H791 H 0.81079 0.83552 0.01412 0.0
H792 H 0.82555 0.79572 0.02581 0.0
H793 H 0.83002 0.87555 0.01223 0.0
H794 H 0.79337 0.82559 0.95155 0.0
H795 H 0.79242 0.79544 0.91924 0.0
H796 H 0.84319 0.83681 0.87811 0.0
H797 H 0.84474 0.86706 0.91031 0.0
C798 C 0.76436 0.96099 0.95802 0.0
C799 C 0.77762 0.97507 0.94209 0.0
C800 C 0.77526 0.93957 0.96598 0.0
C801 C 0.79939 0.93168 0.95782 0.0
C802 C 0.8128 0.94583 0.94215 0.0
C803 C 0.80214 0.96746 0.93455 0.0
C804 C 0.80998 0.90805 0.96465 0.0
C805 C 0.81215 0.8902 0.94705 0.0
C806 C 0.81633 0.90265 0.98844 0.0
C807 C 0.81481 0.92095 1.0077 0.0
C808 C 0.82802 0.9423 1.00592 0.0
C809 C 0.82641 0.9595 0.0241 0.0
C810 C 0.81178 0.95549 0.04423 0.0
C811 C 0.79877 0.93424 0.04624 0.0
C812 C 0.8003 0.91699 0.0281 0.0
C813 C 0.86254 0.80169 0.97683 0.0
C814 C 0.85209 0.79099 0.99674 0.0
C815 C 0.85479 0.82472 0.97058 0.0
C816 C 0.8357 0.83716 0.9836 0.0
C817 C 0.82546 0.82641 1.00368 0.0
C818 C 0.83378 0.80363 0.01032 0.0
C819 C 0.82652 0.86138 0.9765 0.0
C820 C 0.8246 0.87945 0.99403 0.0
C821 C 0.81989 0.86686 0.95267 0.0
C822 C 0.81933 0.8485 0.93343 0.0
C823 C 0.80449 0.82817 0.93569 0.0
C824 C 0.80379 0.81109 0.91737 0.0
C825 C 0.81767 0.81424 0.89661 0.0
C826 C 0.83236 0.83445 0.89416 0.0
C827 C 0.83318 0.85155 0.91245 0.0
H828 H 0.81713 0.80099 0.88246 0.0
H829 H 0.81057 0.96883 0.05829 0.0
H830 H 0.47914 0.58933 0.30066 0.0
H831 H 0.43693 0.57306 0.29165 0.0
H832 H 0.44846 0.58494 0.21704 0.0
H833 H 0.49071 0.60078 0.22593 0.0
H834 H 0.39437 0.59028 0.27311 0.0
H835 H 0.41967 0.54431 0.18338 0.0
H836 H 0.45704 0.52533 0.16355 0.0
H837 H 0.49011 0.50801 0.23139 0.0
H838 H 0.45281 0.52663 0.25161 0.0
H839 H 0.28211 0.561 0.20596 0.0
H840 H 0.32284 0.57592 0.22154 0.0
H841 H 0.3491 0.50393 0.23437 0.0
H842 H 0.3084 0.48918 0.21873 0.0
H843 H 0.38453 0.52648 0.21203 0.0
H844 H 0.33342 0.54329 0.28045 0.0
H845 H 0.29657 0.55976 0.30295 0.0
H846 H 0.31565 0.63031 0.28279 0.0
H847 H 0.35243 0.61423 0.25989 0.0
C848 C 0.47264 0.5884 0.28234 0.0
C849 C 0.48828 0.59611 0.26396 0.0
C850 C 0.44848 0.57919 0.27721 0.0
C851 C 0.43952 0.57749 0.25362 0.0
C852 C 0.45503 0.58564 0.23533 0.0
C853 C 0.4792 0.59471 0.24043 0.0
C854 C 0.41408 0.56711 0.24807 0.0
C855 C 0.39223 0.57631 0.25977 0.0
C856 C 0.4112 0.54858 0.23097 0.0
C857 C 0.43354 0.53702 0.21899 0.0
C858 C 0.43486 0.53634 0.19405 0.0
C859 C 0.45604 0.52568 0.18275 0.0
C860 C 0.47596 0.51552 0.1962 0.0
C861 C 0.47471 0.51594 0.22099 0.0
C862 C 0.45356 0.52657 0.23238 0.0
C863 C 0.29643 0.54848 0.21261 0.0
C864 C 0.29229 0.52396 0.21114 0.0
C865 C 0.31971 0.55698 0.22148 0.0
C866 C 0.33914 0.54108 0.22922 0.0
C867 C 0.33455 0.51657 0.22839 0.0
C868 C 0.31134 0.50811 0.21942 0.0
C869 C 0.36472 0.54983 0.23684 0.0
C870 C 0.38662 0.54039 0.22544 0.0
C871 C 0.36765 0.56779 0.25454 0.0
C872 C 0.34555 0.57753 0.26828 0.0
C873 C 0.32964 0.5623 0.28066 0.0
C874 C 0.30879 0.57157 0.29352 0.0
C875 C 0.30374 0.59606 0.29426 0.0
C876 C 0.31957 0.61134 0.28218 0.0
C877 C 0.34044 0.60216 0.26928 0.0
H878 H 0.28759 0.6032 0.30422 0.0
H879 H 0.49235 0.5073 0.18742 0.0
H880 H 0.479 0.19772 0.31987 0.0
H881 H 0.49221 0.21788 0.3567 0.0
H882 H 0.57062 0.19601 0.34395 0.0
H883 H 0.5577 0.1762 0.30677 0.0
H884 H 0.52619 0.1848 0.39255 0.0
H885 H 0.58538 0.23745 0.34677 0.0
H886 H 0.59064 0.26594 0.31445 0.0
H887 H 0.52768 0.30859 0.34143 0.0
H888 H 0.52188 0.2801 0.3737 0.0
H889 H 0.60006 0.21647 0.49242 0.0
H890 H 0.58211 0.20464 0.45417 0.0
H891 H 0.54469 0.27358 0.44804 0.0
H892 H 0.56414 0.28604 0.48594 0.0
H893 H 0.56418 0.26347 0.4083 0.0
H894 H 0.51152 0.21894 0.45881 0.0
H895 H 0.50114 0.19189 0.49113 0.0
H896 H 0.54343 0.13515 0.45628 0.0
H897 H 0.55435 0.16193 0.42389 0.0
C898 C 0.49918 0.19781 0.32452 0.0
C899 C 0.51734 0.1854 0.3104 0.0
C900 C 0.50666 0.20933 0.34556 0.0
C901 C 0.53237 0.20858 0.35288 0.0
C902 C 0.55075 0.19717 0.33832 0.0
C903 C 0.54333 0.18589 0.31707 0.0
C904 C 0.53937 0.21687 0.37709 0.0
C905 C 0.53477 0.20188 0.3961 0.0
C906 C 0.54943 0.23951 0.38164 0.0
C907 C 0.55299 0.25654 0.36236 0.0
C908 C 0.5725 0.25276 0.34561 0.0
C909 C 0.57562 0.26894 0.32736 0.0
C910 C 0.55944 0.28902 0.32583 0.0
C911 C 0.54015 0.293 0.34259 0.0
C912 C 0.53694 0.27685 0.36085 0.0
C913 C 0.58754 0.22898 0.48322 0.0
C914 C 0.5833 0.25213 0.4923 0.0
C915 C 0.57718 0.22215 0.46128 0.0
C916 C 0.56159 0.23802 0.44823 0.0
C917 C 0.55663 0.26096 0.45769 0.0
C918 C 0.56757 0.26802 0.47943 0.0
C919 C 0.55188 0.23103 0.42416 0.0
C920 C 0.55566 0.24633 0.40506 0.0
C921 C 0.54056 0.20873 0.4196 0.0
C922 C 0.53389 0.19251 0.43899 0.0
C923 C 0.51873 0.20073 0.4581 0.0
C924 C 0.51273 0.18544 0.47643 0.0
C925 C 0.52166 0.16183 0.47578 0.0
C926 C 0.53654 0.15345 0.45676 0.0
C927 C 0.5426 0.16866 0.4384 0.0
H928 H 0.51701 0.15003 0.49 0.0
H929 H 0.56189 0.30153 0.3117 0.0
H930 H 0.0984 0.33184 0.56792 0.0
H931 H 0.08541 0.34032 0.60889 0.0
H932 H 0.07042 0.26606 0.61828 0.0
H933 H 0.08402 0.25745 0.57736 0.0
H934 H 0.04291 0.33643 0.63333 0.0
H935 H 0.08363 0.25076 0.67451 0.0
H936 H 0.11677 0.2198 0.66598 0.0
H937 H 0.16141 0.27065 0.62968 0.0
H938 H 0.12866 0.30193 0.63817 0.0
H939 H 1.00246 0.33255 0.75371 0.0
H940 H 0.01222 0.31981 0.7128 0.0
H941 H 0.09179 0.3355 0.7247 0.0
H942 H 0.08211 0.34836 0.76549 0.0
H943 H 0.08651 0.29373 0.69931 0.0
H944 H 0.05407 0.37471 0.69582 0.0
H945 H 0.02223 0.40673 0.70444 0.0
H946 H 0.96482 0.36836 0.6657 0.0
H947 H 0.99631 0.33598 0.65703 0.0
C948 C 0.09222 0.31733 0.57868 0.0
C949 C 0.09243 0.29395 0.5695 0.0
C950 C 0.08471 0.32221 0.60211 0.0
C951 C 0.07718 0.30383 0.6169 0.0
C952 C 0.07657 0.28053 0.60745 0.0
C953 C 0.08429 0.27561 0.58404 0.0
C954 C 0.07083 0.3091 0.64232 0.0
C955 C 0.05238 0.32697 0.6477 0.0
C956 C 0.08331 0.29703 0.66125 0.0
C957 C 0.10362 0.27862 0.65687 0.0
C958 C 0.10061 0.25536 0.66486 0.0
C959 C 0.11929 0.23775 0.65999 0.0
C960 C 0.14117 0.24326 0.6473 0.0
C961 C 0.14445 0.2664 0.6395 0.0
C962 C 0.12583 0.28407 0.64432 0.0
C963 C 0.02203 0.33323 0.74759 0.0
C964 C 0.04147 0.34167 0.76273 0.0
C965 C 0.02761 0.32591 0.72423 0.0
C966 C 0.05274 0.32685 0.71557 0.0
C967 C 0.0723 0.33454 0.73095 0.0
C968 C 0.06671 0.34194 0.75426 0.0
C969 C 0.05851 0.3209 0.69022 0.0
C970 C 0.07689 0.30298 0.68489 0.0
C971 C 0.04624 0.33313 0.67134 0.0
C972 C 0.0275 0.35289 0.67587 0.0
C973 C 0.03465 0.3731 0.68916 0.0
C974 C 0.01667 0.39131 0.69404 0.0
C975 C 0.99153 0.3896 0.68556 0.0
C976 C 0.98433 0.36969 0.67217 0.0
C977 C 1.00224 0.35142 0.66724 0.0
H978 H 0.97762 0.40369 0.68941 0.0
H979 H 0.15559 0.22961 0.64353 0.0
H980 H 0.96345 0.87828 0.80426 0.0
H981 H 0.94898 0.85892 0.84015 0.0
H982 H 0.0226 0.82298 0.84688 0.0
H983 H 0.03741 0.8428 0.81146 0.0
H984 H 0.94254 0.81539 0.85506 0.0
H985 H 0.04041 0.82011 0.90409 0.0
H986 H 0.07919 0.84427 0.90344 0.0
H987 H 0.03472 0.90364 0.87735 0.0
H988 H 0.99565 0.87997 0.87816 0.0
H989 H 0.9397 0.74542 0.95786 0.0
H990 H 0.95547 0.76305 0.92161 0.0
H991 H 0.95257 0.83237 0.95541 0.0
H992 H 0.93672 0.81497 0.99175 0.0
H993 H 0.9959 0.8254 0.92786 0.0
H994 H 0.9054 0.81793 0.92113 0.0
H995 H 0.86455 0.79707 0.92233 0.0
H996 H 0.88945 0.75044 0.86552 0.0
H997 H 0.93082 0.77062 0.86436 0.0
C998 C 0.97642 0.86596 0.81317 0.0
C999 C 1.00165 0.8622 0.80514 0.0
C1000 C 0.96813 0.85491 0.83372 0.0
C1001 C 0.98486 0.83984 0.84652 0.0
C1002 C 0.00953 0.83496 0.83765 0.0
C1003 C 0.01794 0.84622 0.81732 0.0
C1004 C 0.97702 0.83019 0.86974 0.0
C1005 C 0.95427 0.81751 0.87093 0.0
C1006 C 0.99194 0.83348 0.89067 0.0
C1007 C 0.01516 0.84817 0.891 0.0
C1008 C 0.03889 0.83837 0.89838 0.0
C1009 C 0.06092 0.85197 0.89794 0.0
C1010 C 0.05944 0.87545 0.89029 0.0
C1011 C 0.03587 0.88544 0.88321 0.0
C1012 C 0.01378 0.87193 0.88365 0.0
C1013 C 0.94282 0.76436 0.95779 0.0
C1014 C 0.93683 0.77877 0.97776 0.0
C1015 C 0.95172 0.77442 0.93698 0.0
C1016 C 0.95492 0.79906 0.93573 0.0
C1017 C 0.95021 0.81333 0.95598 0.0
C1018 C 0.94111 0.80332 0.97674 0.0
C1019 C 0.96184 0.81007 0.91296 0.0
C1020 C 0.98431 0.82313 0.91192 0.0
C1021 C 0.94631 0.80768 0.89233 0.0
C1022 C 0.92136 0.79563 0.89283 0.0
C1023 C 0.90231 0.80308 0.90904 0.0
C1024 C 0.87904 0.79138 0.90972 0.0
C1025 C 0.87441 0.77243 0.89404 0.0
C1026 C 0.89307 0.76511 0.87767 0.0
C1027 C 0.91646 0.77665 0.87701 0.0
H1028 H 0.85634 0.76346 0.89456 0.0
H1029 H 0.07654 0.88591 0.88986 0.0
H1030 H 0.47052 0.68035 0.24679 0.0
H1031 H 0.45411 0.69659 0.20943 0.0
H1032 H 0.53085 0.6964 0.18172 0.0
H1033 H 0.54746 0.68071 0.21909 0.0
H1034 H 0.50542 0.73526 0.16818 0.0
H1035 H 0.4887 0.6517 0.16861 0.0
H1036 H 0.47131 0.61446 0.18338 0.0
H1037 H 0.39493 0.64418 0.17858 0.0
H1038 H 0.41188 0.68175 0.1642 0.0
H1039 H 0.46673 0.74266 0.04518 0.0
H1040 H 0.48622 0.72904 0.08271 0.0
H1041 H 0.41189 0.73191 0.11561 0.0
H1042 H 0.39253 0.74536 0.07857 0.0
H1043 H 0.43765 0.69095 0.12541 0.0
H1044 H 0.45408 0.7748 0.12712 0.0
H1045 H 0.47063 0.81158 0.11053 0.0
H1046 H 0.54674 0.78083 0.11006 0.0
H1047 H 0.53056 0.74372 0.12639 0.0
C1048 C 0.48396 0.68408 0.23289 0.0
C1049 C 0.5103 0.67907 0.23594 0.0
C1050 C 0.47452 0.69321 0.21145 0.0
C1051 C 0.49118 0.69728 0.19254 0.0
C1052 C 0.51759 0.69331 0.19596 0.0
C1053 C 0.52705 0.68428 0.21739 0.0
C1054 C 0.4811 0.70489 0.16896 0.0
C1055 C 0.49081 0.72539 0.15873 0.0
C1056 C 0.46179 0.69221 0.15665 0.0
C1057 C 0.45162 0.66967 0.16559 0.0
C1058 C 0.46822 0.6504 0.17095 0.0
C1059 C 0.45843 0.62921 0.17923 0.0
C1060 C 0.43204 0.62699 0.18199 0.0
C1061 C 0.41538 0.64594 0.1765 0.0
C1062 C 0.42507 0.66719 0.1683 0.0
C1063 C 0.45467 0.74045 0.06049 0.0
C1064 C 0.42817 0.74516 0.05897 0.0
C1065 C 0.46577 0.73271 0.08189 0.0
C1066 C 0.45049 0.72955 0.102 0.0
C1067 C 0.42405 0.73418 0.10036 0.0
C1068 C 0.41304 0.742 0.07916 0.0
C1069 C 0.46174 0.72138 0.12488 0.0
C1070 C 0.45229 0.70074 0.13491 0.0
C1071 C 0.4812 0.73392 0.13699 0.0
C1072 C 0.49108 0.75641 0.12776 0.0
C1073 C 0.47433 0.77584 0.12336 0.0
C1074 C 0.48364 0.79675 0.11402 0.0
C1075 C 0.50971 0.79851 0.10918 0.0
C1076 C 0.52654 0.77942 0.11379 0.0
C1077 C 0.51732 0.75845 0.12312 0.0
H1078 H 0.51689 0.81469 0.10188 0.0
H1079 H 0.42446 0.61055 0.18829 0.0
H1080 H 0.12586 0.37991 0.38644 0.0
H1081 H 0.14144 0.40039 0.35165 0.0
H1082 H 0.2032 0.34848 0.34471 0.0
H1083 H 0.18747 0.32774 0.37931 0.0
H1084 H 0.2196 0.39361 0.33786 0.0
H1085 H 0.15105 0.34508 0.30915 0.0
H1086 H 0.10714 0.32992 0.3086 0.0
H1087 H 0.07685 0.40012 0.29546 0.0
H1088 H 0.12057 0.41577 0.29628 0.0
H1089 H 0.25577 0.42351 0.22115 0.0
H1090 H 0.2413 0.40193 0.25562 0.0
H1091 H 0.17511 0.44906 0.26108 0.0
H1092 H 0.18905 0.47032 0.22628 0.0
H1093 H 0.16141 0.40554 0.26866 0.0
H1094 H 0.22908 0.45457 0.29799 0.0
H1095 H 0.27265 0.47052 0.29904 0.0
H1096 H 0.30426 0.40068 0.31164 0.0
H1097 H 0.26088 0.38425 0.31034 0.0
C1098 C 0.14274 0.37282 0.37749 0.0
C1099 C 0.15543 0.35215 0.38568 0.0
C1100 C 0.15164 0.38457 0.35761 0.0
C1101 C 0.17333 0.37583 0.34538 0.0
C1102 C 0.18645 0.35559 0.35388 0.0
C1103 C 0.17754 0.34381 0.37376 0.0
C1104 C 0.18196 0.38752 0.32343 0.0
C1105 C 0.207 0.39595 0.3226 0.0
C1106 C 0.16536 0.39104 0.3037 0.0
C1107 C 0.13907 0.38163 0.30299 0.0
C1108 C 0.13501 0.35731 0.30631 0.0
C1109 C 0.11016 0.34863 0.30593 0.0
C1110 C 0.08921 0.36405 0.30205 0.0
C1111 C 0.09309 0.3882 0.29849 0.0
C1112 C 0.1179 0.39698 0.29889 0.0
C1113 C 0.23806 0.42925 0.22959 0.0
C1114 C 0.22365 0.44876 0.22093 0.0
C1115 C 0.22987 0.41694 0.24942 0.0
C1116 C 0.20732 0.42409 0.26128 0.0
C1117 C 0.1926 0.4432 0.25232 0.0
C1118 C 0.20064 0.45538 0.23238 0.0
C1119 C 0.19906 0.41181 0.28307 0.0
C1120 C 0.17407 0.40322 0.28388 0.0
C1121 C 0.21568 0.40829 0.30284 0.0
C1122 C 0.24176 0.41815 0.30383 0.0
C1123 C 0.24534 0.44259 0.30083 0.0
C1124 C 0.26999 0.45172 0.30148 0.0
C1125 C 0.29121 0.43662 0.30534 0.0
C1126 C 0.28781 0.41236 0.30862 0.0
C1127 C 0.26319 0.40313 0.30794 0.0
H1128 H 0.31029 0.44371 0.30584 0.0
H1129 H 0.06999 0.3573 0.30177 0.0
H1130 H 0.89795 0.89075 0.61978 0.0
H1131 H 0.87881 0.89959 0.58109 0.0
H1132 H 0.91893 0.96558 0.57985 0.0
H1133 H 0.93755 0.95722 0.61899 0.0
H1134 H 0.86965 0.97186 0.56616 0.0
H1135 H 0.93866 0.91768 0.54565 0.0
H1136 H 0.96459 0.88057 0.54819 0.0
H1137 H 0.89915 0.84007 0.52765 0.0
H1138 H 0.87273 0.87691 0.5253 0.0
H1139 H 0.83081 0.99545 0.4479 0.0
H1140 H 0.85811 0.98796 0.4827 0.0
H1141 H 0.82898 0.91703 0.48657 0.0
H1142 H 0.80312 0.92401 0.45086 0.0
H1143 H 0.87614 0.91487 0.49812 0.0
H1144 H 0.80615 0.96762 0.52217 0.0
H1145 H 0.77915 1.00414 0.52003 0.0
H1146 H 0.84488 0.04653 0.53467 0.0
H1147 H 0.87231 0.01026 0.53662 0.0
C1148 C 0.90261 0.90723 0.61139 0.0
C1149 C 0.91932 0.92326 0.62258 0.0
C1150 C 0.89184 0.91215 0.58911 0.0
C1151 C 0.89765 0.93313 0.57737 0.0
C1152 C 0.91424 0.94923 0.58849 0.0
C1153 C 0.92504 0.94432 0.6108 0.0
C1154 C 0.88594 0.93844 0.55374 0.0
C1155 C 0.87141 0.95957 0.55116 0.0
C1156 C 0.88776 0.92222 0.53428 0.0
C1157 C 0.90368 0.90005 0.53547 0.0
C1158 C 0.92976 0.90085 0.54183 0.0
C1159 C 0.94455 0.87986 0.54321 0.0
C1160 C 0.93352 0.85797 0.53813 0.0
C1161 C 0.90767 0.85703 0.5316 0.0
C1162 C 0.89279 0.87796 0.5302 0.0
C1163 C 0.83065 0.97814 0.45596 0.0
C1164 C 0.81485 0.96033 0.4467 0.0
C1165 C 0.84602 0.97393 0.47604 0.0
C1166 C 0.84519 0.9521 0.48778 0.0
C1167 C 0.82999 0.93406 0.478 0.0
C1168 C 0.81512 0.93807 0.45758 0.0
C1169 C 0.85941 0.94814 0.51059 0.0
C1170 C 0.87447 0.92726 0.51304 0.0
C1171 C 0.85787 0.96449 0.53003 0.0
C1172 C 0.8413 0.98625 0.52933 0.0
C1173 C 0.81484 0.98474 0.52484 0.0
C1174 C 0.79947 1.00539 0.52366 0.0
C1175 C 0.8103 0.02764 0.52715 0.0
C1176 C 0.83652 0.02929 0.53194 0.0
C1177 C 0.85198 0.00869 0.53311 0.0
H1178 H 0.79838 0.04361 0.52619 0.0
H1179 H 0.945 0.84175 0.53923 0.0
H1180 H 0.27312 0.59487 0.7028 0.0
H1181 H 0.27718 0.62122 0.7376 0.0
H1182 H 0.35948 0.61288 0.73476 0.0
H1183 H 0.3555 0.58696 0.69962 0.0
H1184 H 0.29503 0.61071 0.77972 0.0
H1185 H 0.38801 0.66093 0.75893 0.0
H1186 H 0.40966 0.67718 0.72424 0.0
H1187 H 0.33758 0.68337 0.68722 0.0
H1188 H 0.31545 0.66748 0.72179 0.0
H1189 H 0.35604 0.65156 0.88475 0.0
H1190 H 0.34458 0.6336 0.84644 0.0
H1191 H 0.32537 0.70296 0.81913 0.0
H1192 H 0.33778 0.72117 0.85715 0.0
H1193 H 0.35318 0.67875 0.7879 0.0
H1194 H 0.27858 0.66336 0.83242 0.0
H1195 H 0.25352 0.64943 0.86613 0.0
H1196 H 0.28245 0.57823 0.85394 0.0
H1197 H 0.30799 0.59179 0.82036 0.0
C1198 C 0.2921 0.59903 0.70934 0.0
C1199 C 0.31401 0.58884 0.69852 0.0
C1200 C 0.29439 0.61399 0.72932 0.0
C1201 C 0.31863 0.6191 0.73886 0.0
C1202 C 0.34057 0.60951 0.72758 0.0
C1203 C 0.33829 0.59463 0.70752 0.0
C1204 C 0.32093 0.63315 0.76143 0.0
C1205 C 0.30767 0.62565 0.78145 0.0
C1206 C 0.33701 0.65296 0.76369 0.0
C1207 C 0.35012 0.66281 0.7429 0.0
C1208 C 0.37676 0.66586 0.74343 0.0
C1209 C 0.38912 0.67499 0.72378 0.0
C1210 C 0.37502 0.68124 0.70352 0.0
C1211 C 0.3485 0.67845 0.70289 0.0
C1212 C 0.33605 0.66934 0.7225 0.0
C1213 C 0.34939 0.66303 0.87061 0.0
C1214 C 0.3479 0.68785 0.87409 0.0
C1215 C 0.3426 0.6527 0.84875 0.0
C1216 C 0.3339 0.66688 0.82988 0.0
C1217 C 0.33199 0.69162 0.83339 0.0
C1218 C 0.33884 0.70199 0.85526 0.0
C1219 C 0.32779 0.65591 0.80629 0.0
C1220 C 0.34039 0.66393 0.7861 0.0
C1221 C 0.31067 0.63689 0.80376 0.0
C1222 C 0.29537 0.62865 0.82398 0.0
C1223 C 0.27976 0.64477 0.83704 0.0
C1224 C 0.26544 0.63693 0.85611 0.0
C1225 C 0.26643 0.61297 0.8622 0.0
C1226 C 0.28171 0.59679 0.84921 0.0
C1227 C 0.2961 0.60454 0.83014 0.0
H1228 H 0.25532 0.60694 0.87696 0.0
H1229 H 0.38462 0.68829 0.68832 0.0
H1230 H 0.59535 0.07706 0.13209 0.0
H1231 H 0.61513 0.06552 0.09428 0.0
H1232 H 0.63511 0.13829 0.08309 0.0
H1233 H 0.6146 0.15012 0.12049 0.0
H1234 H 0.61754 0.11849 0.04258 0.0
H1235 H 0.67949 0.09645 0.10283 0.0
H1236 H 0.69465 0.07622 0.13904 0.0
H1237 H 0.67736 0.00855 0.10719 0.0
H1238 H 0.66177 0.02842 0.0709 0.0
H1239 H 0.71438 0.10323 0.9558 0.0
H1240 H 0.68868 0.11234 0.99101 0.0
H1241 H 0.67428 0.03776 0.99877 0.0
H1242 H 0.70061 0.02853 0.96376 0.0
H1243 H 0.68681 0.05658 0.04036 0.0
H1244 H 0.62705 0.07797 0.97931 0.0
H1245 H 0.61178 0.09784 0.94296 0.0
H1246 H 0.62424 0.16602 0.97586 0.0
H1247 H 0.63994 0.14655 0.01231 0.0
C1248 C 0.60367 0.0907 0.12149 0.0
C1249 C 0.60341 0.11455 0.1295 0.0
C1250 C 0.61522 0.08401 0.09992 0.0
C1251 C 0.62696 0.10096 0.08588 0.0
C1252 C 0.6263 0.12484 0.09359 0.0
C1253 C 0.61475 0.13154 0.11514 0.0
C1254 C 0.64019 0.09384 0.06332 0.0
C1255 C 0.63287 0.10513 0.04215 0.0
C1256 C 0.65972 0.07591 0.0625 0.0
C1257 C 0.66922 0.06394 0.08426 0.0
C1258 C 0.67874 0.07727 0.10362 0.0
C1259 C 0.68744 0.06587 0.12414 0.0
C1260 C 0.6869 0.04112 0.12544 0.0
C1261 C 0.67773 0.02772 0.10618 0.0
C1262 C 0.66898 0.03904 0.08562 0.0
C1263 C 0.70554 0.08878 0.96487 0.0
C1264 C 0.70952 0.06516 0.95699 0.0
C1265 C 0.69073 0.09402 0.98499 0.0
C1266 C 0.67923 0.07579 0.99754 0.0
C1267 C 0.6829 0.05217 0.98946 0.0
C1268 C 0.69785 0.04691 0.96937 0.0
C1269 C 0.66434 0.08137 0.0196 0.0
C1270 C 0.67136 0.06982 0.0407 0.0
C1271 C 0.64446 0.099 0.02033 0.0
C1272 C 0.63488 0.11078 0.99848 0.0
C1273 C 0.62671 0.0972 0.97874 0.0
C1274 C 0.61795 0.10839 0.95812 0.0
C1275 C 0.61709 0.13317 0.95708 0.0
C1276 C 0.62493 0.14682 0.97668 0.0
C1277 C 0.63374 0.13572 0.99734 0.0
H1278 H 0.61031 0.1418 0.9411 0.0
H1279 H 0.69364 0.03232 0.14134 0.0
H1280 H 0.6893 0.20181 0.68615 0.0
H1281 H 0.70057 0.18499 0.72476 0.0
H1282 H 0.64296 0.13209 0.71469 0.0
H1283 H 0.63088 0.14936 0.6766 0.0
H1284 H 0.64227 0.14871 0.75925 0.0
H1285 H 0.70762 0.11967 0.70507 0.0
H1286 H 0.74192 0.12377 0.6757 0.0
H1287 H 0.78544 0.16455 0.72627 0.0
H1288 H 0.75122 0.16094 0.75584 0.0
H1289 H 0.68338 0.06155 0.84148 0.0
H1290 H 0.67044 0.0847 0.80698 0.0
H1291 H 0.73302 0.13194 0.8201 0.0
H1292 H 0.74663 0.10831 0.85423 0.0
H1293 H 0.73161 0.12115 0.77536 0.0
H1294 H 0.66782 0.14829 0.83057 0.0
H1295 H 0.63368 0.14441 0.86013 0.0
H1296 H 0.58731 0.1081 0.80836 0.0
H1297 H 0.62132 0.11147 0.77857 0.0
C1298 C 0.67879 0.18678 0.69226 0.0
C1299 C 0.65928 0.17687 0.67808 0.0
C1300 C 0.68544 0.17702 0.71427 0.0
C1301 C 0.67288 0.15702 0.72255 0.0
C1302 C 0.65303 0.14744 0.7087 0.0
C1303 C 0.64633 0.15721 0.68675 0.0
C1304 C 0.68055 0.14577 0.74543 0.0
C1305 C 0.66176 0.14249 0.7627 0.0
C1306 C 0.70612 0.13822 0.75029 0.0
C1307 C 0.72675 0.14025 0.73257 0.0
C1308 C 0.72443 0.12965 0.70986 0.0
C1309 C 0.74386 0.13187 0.69319 0.0
C1310 C 0.76581 0.14447 0.69909 0.0
C1311 C 0.76841 0.15482 0.72171 0.0
C1312 C 0.74901 0.15269 0.73843 0.0
C1313 C 0.69422 0.07705 0.83726 0.0
C1314 C 0.71604 0.08306 0.8507 0.0
C1315 C 0.68672 0.09038 0.8175 0.0
C1316 C 0.70052 0.11034 0.81098 0.0
C1317 C 0.72202 0.11665 0.82469 0.0
C1318 C 0.72973 0.10315 0.84429 0.0
C1319 C 0.69328 0.12386 0.78921 0.0
C1320 C 0.71215 0.12755 0.7721 0.0
C1321 C 0.66779 0.13187 0.78456 0.0
C1322 C 0.64722 0.12998 0.80239 0.0
C1323 C 0.65041 0.13935 0.82553 0.0
C1324 C 0.63108 0.13726 0.84232 0.0
C1325 C 0.60837 0.12598 0.83614 0.0
C1326 C 0.60492 0.11682 0.81313 0.0
C1327 C 0.62421 0.11884 0.79627 0.0
H1328 H 0.59343 0.12436 0.84917 0.0
H1329 H 0.78084 0.14617 0.68616 0.0
H1330 H 0.19745 0.49085 0.11966 0.0
H1331 H 0.16871 0.48652 0.08499 0.0
H1332 H 0.20618 0.41949 0.06703 0.0
H1333 H 0.23467 0.42379 0.10129 0.0
H1334 H 0.20278 0.44847 0.02911 0.0
H1335 H 0.14572 0.42253 0.0916 0.0
H1336 H 0.12208 0.42899 0.129 0.0
H1337 H 0.08265 0.48959 0.09939 0.0
H1338 H 0.10624 0.48358 0.06186 0.0
H1339 H 0.129 0.38398 0.94882 0.0
H1340 H 0.15181 0.39953 0.98337 0.0
H1341 H 0.09847 0.45917 0.98758 0.0
H1342 H 0.07467 0.44304 0.95336 0.0
H1343 H 0.10817 0.44284 0.03105 0.0
H1344 H 0.15942 0.46636 0.96721 0.0
H1345 H 0.1833 0.46241 0.92971 0.0
H1346 H 0.23436 0.41067 0.96119 0.0
H1347 H 0.21057 0.41404 0.99879 0.0
C1348 C 0.19914 0.47503 0.10853 0.0
C1349 C 0.2182 0.45761 0.1132 0.0
C1350 C 0.18281 0.4726 0.08868 0.0
C1351 C 0.18532 0.45268 0.07332 0.0
C1352 C 0.20396 0.43508 0.07847 0.0
C1353 C 0.22017 0.43751 0.09815 0.0
C1354 C 0.16945 0.45009 0.05134 0.0
C1355 C 0.1821 0.4471 0.02955 0.0
C1356 C 0.14237 0.44944 0.05169 0.0
C1357 C 0.12788 0.45273 0.07404 0.0
C1358 C 0.13209 0.43729 0.09312 0.0
C1359 C 0.11869 0.44086 0.11432 0.0
C1360 C 0.10092 0.45972 0.11659 0.0
C1361 C 0.09643 0.475 0.09761 0.0
C1362 C 0.10978 0.4715 0.07637 0.0
C1363 C 0.12191 0.40032 0.95713 0.0
C1364 C 0.09988 0.41217 0.94826 0.0
C1365 C 0.1352 0.40937 0.97679 0.0
C1366 C 0.12713 0.43074 0.98798 0.0
C1367 C 0.10516 0.44271 0.97922 0.0
C1368 C 0.09172 0.43358 0.9595 0.0
C1369 C 0.14167 0.44009 0.00895 0.0
C1370 C 0.1288 0.44451 0.03049 0.0
C1371 C 0.1686 0.44243 0.00836 0.0
C1372 C 0.18308 0.44036 0.98579 0.0
C1373 C 0.17563 0.45402 0.96609 0.0
C1374 C 0.18917 0.4519 0.94482 0.0
C1375 C 0.21031 0.43627 0.94306 0.0
C1376 C 0.21798 0.42277 0.96258 0.0
C1377 C 0.20449 0.4248 0.98389 0.0
H1378 H 0.22077 0.43466 0.92658 0.0
H1379 H 0.09059 0.46248 0.13303 0.0
H1380 H 0.84545 0.94956 0.3448 0.0
H1381 H 0.85902 0.92761 0.30908 0.0
H1382 H 0.78089 0.90791 0.29527 0.0
H1383 H 0.7673 0.92918 0.33138 0.0
H1384 H 0.81147 0.87219 0.28357 0.0
H1385 H 0.80882 0.95538 0.26711 0.0
H1386 H 0.81899 0.99759 0.27329 0.0
H1387 H 0.89899 0.9809 0.26385 0.0
H1388 H 0.88932 0.9385 0.25794 0.0
H1389 H 0.82117 0.85084 0.15849 0.0
H1390 H 0.81038 0.86699 0.19791 0.0
H1391 H 0.89051 0.87729 0.21296 0.0
H1392 H 0.90143 0.86135 0.17343 0.0
H1393 H 0.86014 0.91677 0.22442 0.0
H1394 H 0.86057 0.8327 0.23832 0.0
H1395 H 0.84813 0.79131 0.23053 0.0
H1396 H 0.76927 0.81085 0.24278 0.0
H1397 H 0.78121 0.85245 0.25032 0.0
C1398 C 0.83118 0.94032 0.33434 0.0
C1399 C 0.80524 0.94133 0.34088 0.0
C1400 C 0.83896 0.92786 0.31381 0.0
C1401 C 0.82091 0.91654 0.2991 0.0
C1402 C 0.79519 0.91658 0.30621 0.0
C1403 C 0.78743 0.92879 0.3269 0.0
C1404 C 0.8286 0.90558 0.27585 0.0
C1405 C 0.8219 0.88204 0.27057 0.0
C1406 C 0.8425 0.91825 0.25888 0.0
C1407 C 0.84837 0.94374 0.26234 0.0
C1408 C 0.8286 0.96069 0.26653 0.0
C1409 C 0.83427 0.98464 0.26996 0.0
C1410 C 0.85963 0.99191 0.26904 0.0
C1411 C 0.87936 0.97523 0.26461 0.0
C1412 C 0.8738 0.95124 0.2612 0.0
C1413 C 0.83649 0.8566 0.17017 0.0
C1414 C 0.86216 0.85483 0.16282 0.0
C1415 C 0.83031 0.86565 0.19276 0.0
C1416 C 0.84966 0.87317 0.20846 0.0
C1417 C 0.87529 0.8715 0.20117 0.0
C1418 C 0.88151 0.86227 0.17864 0.0
C1419 C 0.84306 0.88344 0.23222 0.0
C1420 C 0.84989 0.90689 0.23753 0.0
C1421 C 0.82896 0.8708 0.24901 0.0
C1422 C 0.82177 0.84574 0.24468 0.0
C1423 C 0.84055 0.82821 0.23918 0.0
C1424 C 0.83359 0.8047 0.23484 0.0
C1425 C 0.80792 0.79846 0.2361 0.0
C1426 C 0.78915 0.81571 0.24178 0.0
C1427 C 0.79601 0.83926 0.24612 0.0
H1428 H 0.80256 0.78025 0.23273 0.0
H1429 H 0.86398 0.01047 0.27169 0.0
H1430 H 0.36227 0.5446 0.59515 0.0
H1431 H 0.38425 0.55607 0.55902 0.0
H1432 H 0.3265 0.61071 0.54688 0.0
H1433 H 0.30443 0.59949 0.58284 0.0
H1434 H 0.33584 0.58248 0.5071 0.0
H1435 H 0.38441 0.6257 0.56625 0.0
H1436 H 0.41062 0.62979 0.6027 0.0
H1437 H 0.4676 0.58168 0.57339 0.0
H1438 H 0.44154 0.57704 0.53687 0.0
H1439 H 0.39063 0.6467 0.41524 0.0
H1440 H 0.37236 0.63474 0.45275 0.0
H1441 H 0.43733 0.58748 0.46476 0.0
H1442 H 0.45646 0.60033 0.42783 0.0
H1443 H 0.42535 0.60981 0.50462 0.0
H1444 H 0.3786 0.56659 0.44565 0.0
H1445 H 0.35282 0.56078 0.40917 0.0
H1446 H 0.29297 0.60611 0.43787 0.0
H1447 H 0.31855 0.61246 0.47441 0.0
C1448 C 0.35435 0.5592 0.58491 0.0
C1449 C 0.33154 0.57109 0.59191 0.0
C1450 C 0.36698 0.56575 0.5643 0.0
C1451 C 0.35701 0.58426 0.5503 0.0
C1452 C 0.33447 0.59634 0.55741 0.0
C1453 C 0.32195 0.58994 0.57806 0.0
C1454 C 0.36949 0.59061 0.52779 0.0
C1455 C 0.35531 0.58873 0.50657 0.0
C1456 C 0.39516 0.59797 0.52704 0.0
C1457 C 0.4109 0.60083 0.54894 0.0
C1458 C 0.40243 0.61584 0.56766 0.0
C1459 C 0.41728 0.61829 0.58831 0.0
C1460 C 0.44073 0.60595 0.59039 0.0
C1461 C 0.44941 0.59119 0.57177 0.0
C1462 C 0.43462 0.58866 0.55109 0.0
C1463 C 0.40123 0.63397 0.42595 0.0
C1464 C 0.42503 0.62445 0.4184 0.0
C1465 C 0.39058 0.62691 0.4473 0.0
C1466 C 0.40325 0.60989 0.46143 0.0
C1467 C 0.42712 0.60053 0.45411 0.0
C1468 C 0.4379 0.60773 0.43283 0.0
C1469 C 0.39158 0.602 0.48387 0.0
C1470 C 0.40591 0.6035 0.50509 0.0
C1471 C 0.3661 0.594 0.4846 0.0
C1472 C 0.35061 0.59017 0.46268 0.0
C1473 C 0.36002 0.57546 0.44411 0.0
C1474 C 0.34543 0.57205 0.42343 0.0
C1475 C 0.3213 0.58311 0.42118 0.0
C1476 C 0.31168 0.59757 0.43963 0.0
C1477 C 0.32621 0.60106 0.46034 0.0
H1478 H 0.31003 0.58045 0.40516 0.0
H1479 H 0.4522 0.60787 0.60639 0.0
H1480 H 0.20748 0.26655 0.4893 0.0
H1481 H 0.24233 0.25609 0.46201 0.0
H1482 H 0.20419 0.19139 0.44214 0.0
H1483 H 0.17053 0.20102 0.47093 0.0
H1484 H 0.24988 0.18038 0.44722 0.0
H1485 H 0.20998 0.24666 0.40572 0.0
H1486 H 0.19422 0.28802 0.40126 0.0
H1487 H 0.2696 0.31338 0.41651 0.0
H1488 H 0.28572 0.2722 0.4214 0.0
H1489 H 0.32203 0.14899 0.34538 0.0
H1490 H 0.28768 0.16379 0.37123 0.0
H1491 H 0.33669 0.21849 0.39876 0.0
H1492 H 0.37115 0.20404 0.37248 0.0
H1493 H 0.28753 0.23558 0.39027 0.0
H1494 H 0.32726 0.17005 0.43092 0.0
H1495 H 0.34382 0.12892 0.43511 0.0
H1496 H 0.26868 0.10245 0.42099 0.0
H1497 H 0.25173 0.14344 0.41638 0.0
C1498 C 0.20646 0.25024 0.47887 0.0
C1499 C 0.1863 0.2346 0.48216 0.0
C1500 C 0.22635 0.2443 0.46308 0.0
C1501 C 0.22596 0.22304 0.44948 0.0
C1502 C 0.20523 0.20784 0.45235 0.0
C1503 C 0.18585 0.2134 0.4687 0.0
C1504 C 0.24759 0.21583 0.43328 0.0
C1505 C 0.25766 0.19245 0.4345 0.0
C1506 C 0.25876 0.23162 0.41715 0.0
C1507 C 0.249 0.25635 0.41412 0.0
C1508 C 0.22314 0.26107 0.40826 0.0
C1509 C 0.21416 0.28449 0.40565 0.0
C1510 C 0.23091 0.30332 0.40864 0.0
C1511 C 0.25666 0.29878 0.41422 0.0
C1512 C 0.26573 0.27541 0.4169 0.0
C1513 C 0.32547 0.16438 0.35666 0.0
C1514 C 0.34945 0.1753 0.35679 0.0
C1515 C 0.30583 0.1727 0.37162 0.0
C1516 C 0.30963 0.1921 0.38718 0.0
C1517 C 0.3333 0.20344 0.38699 0.0
C1518 C 0.35306 0.19505 0.37207 0.0
C1519 C 0.28904 0.20014 0.40393 0.0
C1520 C 0.27942 0.22361 0.40291 0.0
C1521 C 0.27817 0.18446 0.42019 0.0
C1522 C 0.28828 0.15981 0.42309 0.0
C1523 C 0.31431 0.15545 0.42853 0.0
C1524 C 0.32376 0.13217 0.43101 0.0
C1525 C 0.30733 0.11308 0.42826 0.0
C1526 C 0.28139 0.11725 0.42309 0.0
C1527 C 0.27185 0.14051 0.42056 0.0
H1528 H 0.31468 0.09507 0.43019 0.0
H1529 H 0.22403 0.32145 0.40659 0.0
H1530 H 0.09023 0.13203 0.59415 0.0
H1531 H 0.0758 0.09462 0.61017 0.0
H1532 H 0.12727 0.10269 0.66996 0.0
H1533 H 0.14149 0.1403 0.65436 0.0
H1534 H 0.12948 0.05737 0.65053 0.0
H1535 H 0.06333 0.11444 0.67614 0.0
H1536 H 0.03077 0.1459 0.66825 0.0
H1537 H 0.99037 0.09845 0.6215 0.0
H1538 H 0.02282 0.06675 0.62899 0.0
H1539 H 0.08561 0.97602 0.73291 0.0
H1540 H 0.09833 0.01093 0.71148 0.0
H1541 H 0.03659 1.00065 0.66115 0.0
H1542 H 0.02316 0.96596 0.68309 0.0
H1543 H 0.03868 0.0456 0.67163 0.0
H1544 H 0.10088 0.98771 0.64702 0.0
H1545 H 0.13378 0.95582 0.65107 0.0
H1546 H 0.18185 1.00316 0.69086 0.0
H1547 H 0.14907 0.03526 0.68735 0.0
C1548 C 0.0983 0.12604 0.61086 0.0
C1549 C 0.11706 0.13931 0.62294 0.0
C1550 C 0.09008 0.10455 0.61995 0.0
C1551 C 0.10037 0.09587 0.64135 0.0
C1552 C 0.11916 0.10896 0.65336 0.0
C1553 C 0.12733 0.13047 0.64435 0.0
C1554 C 0.09156 0.0732 0.65137 0.0
C1555 C 0.10969 0.05486 0.6554 0.0
C1556 C 0.06556 0.06955 0.65681 0.0
C1557 C 0.04557 0.0883 0.653 0.0
C1558 C 0.04752 0.11074 0.66415 0.0
C1559 C 0.02909 0.12861 0.65975 0.0
C1560 C 0.00854 0.12419 0.64435 0.0
C1561 C 0.00629 0.10184 0.63343 0.0
C1562 C 0.02466 0.08391 0.63778 0.0
C1563 C 0.07479 0.98101 0.71719 0.0
C1564 C 0.05341 0.96803 0.7097 0.0
C1565 C 0.08218 1.00101 0.70484 0.0
C1566 C 0.06873 0.00833 0.68438 0.0
C1567 C 0.04736 0.9954 0.67682 0.0
C1568 C 0.03975 0.97548 0.68935 0.0
C1569 C 0.07675 0.02978 0.67137 0.0
C1570 C 0.05848 0.04793 0.66669 0.0
C1571 C 0.10259 0.03309 0.66492 0.0
C1572 C 0.1224 0.01384 0.66709 0.0
C1573 C 0.11838 0.99127 0.6568 0.0
C1574 C 0.13703 0.97316 0.65897 0.0
C1575 C 0.15987 0.97744 0.67126 0.0
C1576 C 0.16413 0.99986 0.68136 0.0
C1577 C 0.14554 0.01803 0.67927 0.0
H1578 H 0.17428 0.9634 0.67292 0.0
H1579 H 0.99434 0.13807 0.64089 0.0
H1580 H 0.20293 0.86298 0.8189 0.0
H1581 H 0.23689 0.84628 0.84433 0.0
H1582 H 0.18151 0.83391 0.8988 0.0
H1583 H 0.1474 0.85007 0.87337 0.0
H1584 H 0.22227 0.85897 0.91538 0.0
H1585 H 0.20834 0.78852 0.86788 0.0
H1586 H 0.20523 0.76497 0.83067 0.0
H1587 H 0.28374 0.77897 0.81524 0.0
H1588 H 0.2872 0.803 0.85216 0.0
H1589 H 0.28877 0.79378 0.9999 0.0
H1590 H 0.25951 0.80357 0.96738 0.0
H1591 H 0.32365 0.81317 0.92108 0.0
H1592 H 0.35335 0.80295 0.95386 0.0
H1593 H 0.28203 0.79107 0.898 0.0
H1594 H 0.29649 0.86085 0.94516 0.0
H1595 H 0.30012 0.88463 0.98219 0.0
H1596 H 0.22113 0.87265 0.99751 0.0
H1597 H 0.21713 0.84848 0.96073 0.0
C1598 C 0.19785 0.85619 0.83606 0.0
C1599 C 0.17241 0.85809 0.84415 0.0
C1600 C 0.21733 0.84671 0.85061 0.0
C1601 C 0.21176 0.83891 0.8735 0.0
C1602 C 0.18628 0.83998 0.88126 0.0
C1603 C 0.16681 0.84933 0.86673 0.0
C1604 C 0.23256 0.83127 0.89012 0.0
C1605 C 0.23513 0.84395 0.91165 0.0
C1606 C 0.25 0.81225 0.88487 0.0
C1607 C 0.24793 0.79783 0.86266 0.0
C1608 C 0.22487 0.78681 0.85643 0.0
C1609 C 0.22305 0.77332 0.83541 0.0
C1610 C 0.24425 0.77054 0.82057 0.0
C1611 C 0.26732 0.78119 0.82674 0.0
C1612 C 0.26922 0.79474 0.84771 0.0
C1613 C 0.29672 0.79778 0.98276 0.0
C1614 C 0.32335 0.79798 0.97951 0.0
C1615 C 0.27995 0.80337 0.96417 0.0
C1616 C 0.28938 0.80956 0.94193 0.0
C1617 C 0.31598 0.80858 0.93817 0.0
C1618 C 0.3329 0.80283 0.95688 0.0
C1619 C 0.27122 0.81845 0.92342 0.0
C1620 C 0.26924 0.80616 0.90158 0.0
C1621 C 0.25433 0.83798 0.92822 0.0
C1622 C 0.25657 0.8527 0.95027 0.0
C1623 C 0.27994 0.86315 0.95651 0.0
C1624 C 0.28206 0.87672 0.97744 0.0
C1625 C 0.26088 0.88011 0.99222 0.0
C1626 C 0.23752 0.86999 0.98605 0.0
C1627 C 0.23531 0.85638 0.96515 0.0
H1628 H 0.26256 0.89062 0.00842 0.0
H1629 H 0.24282 0.76007 0.80431 0.0
H1630 H 0.43147 0.07649 0.22324 0.0
H1631 H 0.41931 0.0409 0.20102 0.0
H1632 H 0.4983 0.02708 0.18247 0.0
H1633 H 0.51067 0.06305 0.20438 0.0
H1634 H 0.46703 0.01825 0.14507 0.0
H1635 H 0.47071 0.99669 0.22693 0.0
H1636 H 0.46102 1.00064 0.26962 0.0
H1637 H 0.38086 0.99321 0.25436 0.0
H1638 H 0.39004 0.98956 0.21151 0.0
H1639 H 0.44737 0.89733 0.10944 0.0
H1640 H 0.46251 0.93349 0.12919 0.0
H1641 H 0.38527 0.95161 0.15064 0.0
H1642 H 0.37015 0.91515 0.13172 0.0
H1643 H 0.41788 0.95752 0.18675 0.0
H1644 H 0.41443 0.97986 0.10457 0.0
H1645 H 0.42447 0.97576 0.06195 0.0
H1646 H 0.50471 0.98119 0.07793 0.0
H1647 H 0.49516 0.985 0.1207 0.0
C1648 C 0.44631 0.06599 0.21438 0.0
C1649 C 0.4721 0.07256 0.2158 0.0
C1650 C 0.43931 0.04555 0.20173 0.0
C1651 C 0.45794 0.03104 0.19042 0.0
C1652 C 0.48361 0.03793 0.19114 0.0
C1653 C 0.49064 0.05848 0.20373 0.0
C1654 C 0.45057 0.00847 0.17834 0.0
C1655 C 0.4566 1.00481 0.15426 0.0
C1656 C 0.43662 0.99105 0.19021 0.0
C1657 C 0.43105 0.99306 0.21599 0.0
C1658 C 0.451 0.99607 0.23266 0.0
C1659 C 0.4456 0.99823 0.25689 0.0
C1660 C 0.42033 0.99723 0.26469 0.0
C1661 C 0.40042 0.994 0.24828 0.0
C1662 C 0.40571 0.99187 0.22403 0.0
C1663 C 0.43362 0.90894 0.11848 0.0
C1664 C 0.40751 0.90332 0.11891 0.0
C1665 C 0.44228 0.92974 0.12956 0.0
C1666 C 0.425 0.94544 0.1412 0.0
C1667 C 0.39896 0.93984 0.14171 0.0
C1668 C 0.3903 0.91906 0.13067 0.0
C1669 C 0.434 0.96742 0.15337 0.0
C1670 C 0.42835 0.97093 0.17753 0.0
C1671 C 0.44834 0.98461 0.14158 0.0
C1672 C 0.4541 0.98247 0.11586 0.0
C1673 C 0.43423 0.97999 0.09901 0.0
C1674 C 0.43983 0.97775 0.07482 0.0
C1675 C 0.46522 0.97814 0.06724 0.0
C1676 C 0.48506 0.98085 0.08383 0.0
C1677 C 0.47956 0.98308 0.10805 0.0
H1678 H 0.46952 0.9764 0.04851 0.0
H1679 H 0.41619 0.99891 0.28346 0.0
H1680 H 0.88037 0.32002 0.70972 0.0
H1681 H 0.84228 0.30494 0.68942 0.0
H1682 H 0.83233 0.37139 0.65311 0.0
H1683 H 0.87056 0.38645 0.67296 0.0
H1684 H 0.78768 0.35712 0.6717 0.0
H1685 H 0.85552 0.32244 0.62426 0.0
H1686 H 0.89525 0.29893 0.61701 0.0
H1687 H 0.86018 0.23689 0.64408 0.0
H1688 H 0.82033 0.26013 0.65181 0.0
H1689 H 0.7033 0.32956 0.57776 0.0
H1690 H 0.7402 0.34002 0.60215 0.0
H1691 H 0.74002 0.27115 0.63445 0.0
H1692 H 0.70287 0.26035 0.60986 0.0
H1693 H 0.78859 0.28402 0.62112 0.0
H1694 H 0.71947 0.3184 0.66582 0.0
H1695 H 0.67973 0.34209 0.67236 0.0
H1696 H 0.71716 0.40489 0.65014 0.0
H1697 H 0.75705 0.38151 0.64313 0.0
C1698 C 0.87031 0.33133 0.69716 0.0
C1699 C 0.87858 0.3545 0.69303 0.0
C1700 C 0.84846 0.32269 0.68563 0.0
C1701 C 0.83447 0.33701 0.66968 0.0
C1702 C 0.84272 0.36007 0.66545 0.0
C1703 C 0.86457 0.36868 0.67689 0.0
C1704 C 0.81099 0.32819 0.65761 0.0
C1705 C 0.78794 0.34126 0.66047 0.0
C1706 C 0.81113 0.3071 0.64352 0.0
C1707 C 0.83505 0.29309 0.63888 0.0
C1708 C 0.85636 0.30383 0.62887 0.0
C1709 C 0.87888 0.29055 0.62464 0.0
C1710 C 0.88027 0.26645 0.63015 0.0
C1711 C 0.8591 0.25557 0.63986 0.0
C1712 C 0.83653 0.26879 0.64416 0.0
C1713 C 0.71095 0.31658 0.59007 0.0
C1714 C 0.70002 0.29409 0.59183 0.0
C1715 C 0.73205 0.32266 0.60411 0.0
C1716 C 0.74275 0.30647 0.6203 0.0
C1717 C 0.73202 0.28394 0.62211 0.0
C1718 C 0.71073 0.27784 0.60811 0.0
C1719 C 0.7654 0.31318 0.63492 0.0
C1720 C 0.78827 0.29974 0.63256 0.0
C1721 C 0.76513 0.33397 0.64946 0.0
C1722 C 0.74121 0.34815 0.65377 0.0
C1723 C 0.71918 0.33723 0.66216 0.0
C1724 C 0.69664 0.35061 0.66598 0.0
C1725 C 0.69591 0.37497 0.66162 0.0
C1726 C 0.71775 0.38602 0.65349 0.0
C1727 C 0.74035 0.37271 0.64962 0.0
H1728 H 0.67843 0.3853 0.66459 0.0
H1729 H 0.89772 0.25619 0.62685 0.0
H1730 H 0.01413 0.43835 0.84966 0.0
H1731 H 0.00649 0.47358 0.87501 0.0
H1732 H 0.92494 0.46503 0.86739 0.0
H1733 H 0.93249 0.42978 0.842 0.0
H1734 H 0.98225 0.51497 0.86297 0.0
H1735 H 0.89613 0.48563 0.91868 0.0
H1736 H 0.87971 0.44904 0.93585 0.0
H1737 H 0.95593 0.41864 0.93793 0.0
H1738 H 0.97285 0.45515 0.9211 0.0
H1739 H 0.91332 0.61451 0.91189 0.0
H1740 H 0.92585 0.57721 0.89174 0.0
H1741 H 0.95704 0.55044 0.95753 0.0
H1742 H 0.94399 0.58746 0.97793 0.0
H1743 H 0.92868 0.51747 0.93534 0.0
H1744 H 0.99648 0.5685 0.91421 0.0
H1745 H 0.01544 0.60464 0.89856 0.0
H1746 H 0.98094 0.59083 0.83031 0.0
H1747 H 0.96147 0.55476 0.84566 0.0
C1748 C 0.99457 0.44382 0.85362 0.0
C1749 C 0.97388 0.43138 0.84377 0.0
C1750 C 0.99024 0.46401 0.86802 0.0
C1751 C 0.96515 0.47198 0.8731 0.0
C1752 C 0.94446 0.45913 0.86388 0.0
C1753 C 0.94879 0.439 0.84936 0.0
C1754 C 0.96057 0.49431 0.88715 0.0
C1755 C 0.97057 0.5155 0.87882 0.0
C1756 C 0.94565 0.495 0.90802 0.0
C1757 C 0.9357 0.47306 0.91841 0.0
C1758 C 0.90939 0.47117 0.92289 0.0
C1759 C 0.9 0.45044 0.93255 0.0
C1760 C 0.91675 0.4315 0.9379 0.0
C1761 C 0.94295 0.43328 0.93369 0.0
C1762 C 0.95245 0.45398 0.92406 0.0
C1763 C 0.92281 0.60068 0.92209 0.0
C1764 C 0.92769 0.60405 0.94654 0.0
C1765 C 0.93014 0.57941 0.9105 0.0
C1766 C 0.94256 0.56104 0.92307 0.0
C1767 C 0.94752 0.56436 0.94745 0.0
C1768 C 0.94027 0.58565 0.95903 0.0
C1769 C 0.94993 0.53822 0.91088 0.0
C1770 C 0.94041 0.51694 0.91953 0.0
C1771 C 0.96558 0.5374 0.89047 0.0
C1772 C 0.97734 0.55903 0.88115 0.0
C1773 C 0.99278 0.57326 0.89592 0.0
C1774 C 1.00365 0.59372 0.88709 0.0
C1775 C 0.99935 0.60006 0.86347 0.0
C1776 C 0.98423 0.58591 0.84861 0.0
C1777 C 0.9733 0.56545 0.85736 0.0
H1778 H 0.00779 0.61591 0.85667 0.0
H1779 H 0.90944 0.41546 0.94536 0.0
H1780 H 0.84914 0.75158 0.11343 0.0
H1781 H 0.81766 0.7382 0.14171 0.0
H1782 H 0.79004 0.6876 0.08963 0.0
H1783 H 0.82196 0.70041 0.06146 0.0
H1784 H 0.76791 0.73928 0.14224 0.0
H1785 H 0.76854 0.63903 0.11601 0.0
H1786 H 0.79868 0.60826 0.10034 0.0
H1787 H 0.86213 0.64689 0.12896 0.0
H1788 H 0.83237 0.67771 0.14506 0.0
H1789 H 0.65811 0.68292 0.1866 0.0
H1790 H 0.69237 0.69831 0.16229 0.0
H1791 H 0.7487 0.66138 0.20547 0.0
H1792 H 0.71456 0.64595 0.22979 0.0
H1793 H 0.75876 0.65396 0.16018 0.0
H1794 H 0.74054 0.72139 0.20979 0.0
H1795 H 0.71324 0.75208 0.22942 0.0
H1796 H 0.69099 0.77966 0.16144 0.0
H1797 H 0.71787 0.74887 0.14137 0.0
C1798 C 0.83648 0.73751 0.10799 0.0
C1799 C 0.83823 0.72697 0.08518 0.0
C1800 C 0.81839 0.72994 0.12419 0.0
C1801 C 0.80159 0.71174 0.11794 0.0
C1802 C 0.8031 0.70137 0.09508 0.0
C1803 C 0.82136 0.70875 0.07894 0.0
C1804 C 0.78246 0.70367 0.13529 0.0
C1805 C 0.76594 0.72062 0.14616 0.0
C1806 C 0.78018 0.67939 0.14089 0.0
C1807 C 0.79822 0.66078 0.13153 0.0
C1808 C 0.78892 0.6409 0.11904 0.0
C1809 C 0.80594 0.62346 0.11007 0.0
C1810 C 0.8323 0.62566 0.11359 0.0
C1811 C 0.84171 0.64525 0.12617 0.0
C1812 C 0.82478 0.66273 0.13519 0.0
C1813 C 0.67781 0.67838 0.19112 0.0
C1814 C 0.68361 0.66313 0.21005 0.0
C1815 C 0.69739 0.68714 0.17719 0.0
C1816 C 0.72314 0.68104 0.18208 0.0
C1817 C 0.72898 0.66619 0.20125 0.0
C1818 C 0.70944 0.65737 0.21512 0.0
C1819 C 0.74396 0.68951 0.16677 0.0
C1820 C 0.76076 0.67262 0.15627 0.0
C1821 C 0.74696 0.71389 0.16208 0.0
C1822 C 0.73105 0.73268 0.17406 0.0
C1823 C 0.7297 0.7339 0.19901 0.0
C1824 C 0.71431 0.75132 0.21022 0.0
C1825 C 0.70034 0.76777 0.19668 0.0
C1826 C 0.70181 0.76689 0.1719 0.0
C1827 C 0.71713 0.74946 0.16059 0.0
H1828 H 0.68842 0.78124 0.20539 0.0
H1829 H 0.84545 0.61215 0.10661 0.0
H1830 H 0.57916 0.42625 0.47795 0.0
H1831 H 0.56647 0.46239 0.45684 0.0
H1832 H 0.60986 0.43808 0.39597 0.0
H1833 H 0.62185 0.40156 0.41645 0.0
H1834 H 0.62094 0.48472 0.41102 0.0
H1835 H 0.54697 0.4373 0.39329 0.0
H1836 H 0.51007 0.41316 0.40365 0.0
H1837 H 0.47744 0.47202 0.44351 0.0
H1838 H 0.51435 0.49642 0.43365 0.0
H1839 H 0.58521 0.56597 0.32272 0.0
H1840 H 0.59406 0.53121 0.34681 0.0
H1841 H 0.53602 0.55495 0.39651 0.0
H1842 H 0.5262 0.58941 0.3717 0.0
H1843 H 0.53192 0.51002 0.39044 0.0
H1844 H 0.60336 0.55824 0.40838 0.0
H1845 H 0.64026 0.58329 0.40037 0.0
H1846 H 0.67797 0.52481 0.36392 0.0
H1847 H 0.64114 0.49948 0.37143 0.0
C1848 C 0.58558 0.42827 0.45988 0.0
C1849 C 0.60175 0.4109 0.44906 0.0
C1850 C 0.57842 0.44908 0.44789 0.0
C1851 C 0.58733 0.45302 0.42485 0.0
C1852 C 0.60295 0.43554 0.41381 0.0
C1853 C 0.60988 0.41467 0.42565 0.0
C1854 C 0.58122 0.47567 0.41247 0.0
C1855 C 0.6015 0.49016 0.40628 0.0
C1856 C 0.5558 0.48322 0.40712 0.0
C1857 C 0.53356 0.4686 0.41295 0.0
C1858 C 0.53204 0.44503 0.40444 0.0
C1859 C 0.5111 0.43131 0.41018 0.0
C1860 C 0.49146 0.44103 0.42429 0.0
C1861 C 0.49269 0.4645 0.43262 0.0
C1862 C 0.5136 0.47829 0.42694 0.0
C1863 C 0.57445 0.56399 0.33889 0.0
C1864 C 0.55512 0.58066 0.34534 0.0
C1865 C 0.57964 0.54406 0.35278 0.0
C1866 C 0.56612 0.54052 0.37386 0.0
C1867 C 0.54683 0.55721 0.38041 0.0
C1868 C 0.54131 0.577 0.36626 0.0
C1869 C 0.57173 0.51908 0.38856 0.0
C1870 C 0.55138 0.50478 0.39527 0.0
C1871 C 0.59712 0.51188 0.39479 0.0
C1872 C 0.61938 0.52702 0.39031 0.0
C1873 C 0.61945 0.55076 0.39852 0.0
C1874 C 0.64037 0.56501 0.39409 0.0
C1875 C 0.66143 0.55566 0.3816 0.0
C1876 C 0.66164 0.53203 0.37358 0.0
C1877 C 0.64076 0.51771 0.37794 0.0
H1878 H 0.6776 0.56672 0.37819 0.0
H1879 H 0.47527 0.43038 0.42872 0.0
H1880 H 0.39611 0.36178 0.18694 0.0
H1881 H 0.41139 0.3212 0.19363 0.0
H1882 H 0.33533 0.2956 0.18032 0.0
H1883 H 0.31953 0.33646 0.17477 0.0
H1884 H 0.35602 0.27316 0.21677 0.0
H1885 H 0.3826 0.28891 0.13815 0.0
H1886 H 0.40251 0.31137 0.10627 0.0
H1887 H 0.47556 0.30516 0.1416 0.0
H1888 H 0.45603 0.28294 0.17387 0.0
H1889 H 0.4516 0.16481 0.18517 0.0
H1890 H 0.42386 0.19843 0.17333 0.0
H1891 H 0.41971 0.22223 0.24658 0.0
H1892 H 0.44609 0.18814 0.25847 0.0
H1893 H 0.43336 0.24217 0.1748 0.0
H1894 H 0.36928 0.25697 0.25817 0.0
H1895 H 0.3481 0.23273 0.28792 0.0
H1896 H 0.34561 0.17411 0.23819 0.0
H1897 H 0.36644 0.19809 0.20801 0.0
C1898 C 0.38249 0.34762 0.18569 0.0
C1899 C 0.35654 0.35251 0.1803 0.0
C1900 C 0.39136 0.32432 0.18924 0.0
C1901 C 0.37462 0.30524 0.18712 0.0
C1902 C 0.34866 0.31 0.18193 0.0
C1903 C 0.33971 0.33337 0.17852 0.0
C1904 C 0.38438 0.28042 0.19049 0.0
C1905 C 0.37283 0.26629 0.20749 0.0
C1906 C 0.4059 0.27115 0.17796 0.0
C1907 C 0.4178 0.28438 0.15851 0.0
C1908 C 0.40288 0.29246 0.13919 0.0
C1909 C 0.4141 0.30513 0.12105 0.0
C1910 C 0.44027 0.30972 0.12193 0.0
C1911 C 0.45529 0.3016 0.14094 0.0
C1912 C 0.44416 0.28893 0.15915 0.0
C1913 C 0.44418 0.17692 0.19875 0.0
C1914 C 0.45101 0.17389 0.2227 0.0
C1915 C 0.42845 0.19621 0.19198 0.0
C1916 C 0.41947 0.21292 0.20903 0.0
C1917 C 0.42576 0.20941 0.23307 0.0
C1918 C 0.44104 0.18993 0.23986 0.0
C1919 C 0.4055 0.23505 0.20162 0.0
C1920 C 0.4163 0.24877 0.18387 0.0
C1921 C 0.38294 0.24364 0.21307 0.0
C1922 C 0.36957 0.22933 0.23085 0.0
C1923 C 0.36403 0.23898 0.2535 0.0
C1924 C 0.35213 0.22526 0.27046 0.0
C1925 C 0.34557 0.20188 0.26496 0.0
C1926 C 0.35077 0.19221 0.24244 0.0
C1927 C 0.36263 0.20585 0.2254 0.0
H1928 H 0.33641 0.19129 0.27814 0.0
H1929 H 0.44892 0.31954 0.10786 0.0
H1930 H 0.97639 0.31838 0.85981 0.0
H1931 H 0.95194 0.28398 0.87074 0.0
H1932 H 0.90435 0.29233 0.80829 0.0
H1933 H 0.92887 0.32693 0.79702 0.0
H1934 H 0.87664 0.28158 0.84989 0.0
H1935 H 0.94866 0.25174 0.80585 0.0
H1936 H 0.99428 0.24758 0.79529 0.0
H1937 H 0.01189 0.22025 0.86445 0.0
H1938 H 0.96639 0.2246 0.87557 0.0
H1939 H 0.82817 0.16325 0.85392 0.0
H1940 H 0.84729 0.20018 0.84145 0.0
H1941 H 0.9008 0.19631 0.90014 0.0
H1942 H 0.88141 0.15981 0.91315 0.0
H1943 H 0.92436 0.20471 0.85775 0.0
H1944 H 0.85239 0.23566 0.9021 0.0
H1945 H 0.80678 0.2401 0.91267 0.0
H1946 H 0.78893 0.26514 0.84268 0.0
H1947 H 0.83441 0.26052 0.83157 0.0
C1948 C 0.96061 0.31311 0.84842 0.0
C1949 C 0.95473 0.32536 0.82742 0.0
C1950 C 0.94669 0.29337 0.85471 0.0
C1951 C 0.92653 0.28547 0.84019 0.0
C1952 C 0.9199 0.29814 0.81969 0.0
C1953 C 0.93398 0.31785 0.81326 0.0
C1954 C 0.91319 0.26341 0.84613 0.0
C1955 C 0.88694 0.26467 0.85125 0.0
C1956 C 0.92677 0.24147 0.84825 0.0
C1957 C 0.95414 0.23872 0.84162 0.0
C1958 C 0.96229 0.24504 0.81889 0.0
C1959 C 0.98812 0.24261 0.81279 0.0
C1960 C 0.00598 0.23371 0.82921 0.0
C1961 C 0.99803 0.22717 0.85175 0.0
C1962 C 0.97222 0.2296 0.85796 0.0
C1963 C 0.84372 0.17042 0.86443 0.0
C1964 C 0.85326 0.15843 0.88454 0.0
C1965 C 0.8547 0.19151 0.8572 0.0
C1966 C 0.87544 0.20101 0.86989 0.0
C1967 C 0.8849 0.18921 0.89001 0.0
C1968 C 0.87385 0.16825 0.89735 0.0
C1969 C 0.88784 0.22289 0.86188 0.0
C1970 C 0.91397 0.22157 0.8563 0.0
C1971 C 0.87411 0.24472 0.8593 0.0
C1972 C 0.84676 0.24748 0.86592 0.0
C1973 C 0.8387 0.2419 0.88888 0.0
C1974 C 0.81288 0.24449 0.89499 0.0
C1975 C 0.79496 0.25282 0.87833 0.0
C1976 C 0.80283 0.25864 0.85555 0.0
C1977 C 0.82863 0.25605 0.84934 0.0
H1978 H 0.77498 0.25483 0.8831 0.0
H1979 H 0.02598 0.23184 0.82445 0.0
H1980 H 0.11168 0.6177 0.1457 0.0
H1981 H 0.07565 0.64206 0.13162 0.0
H1982 H 0.07159 0.59921 0.0675 0.0
H1983 H 0.10837 0.5749 0.0813 0.0
H1984 H 0.06575 0.64732 0.05868 0.0
H1985 H 0.0288 0.59121 0.10968 0.0
H1986 H 0.02434 0.56807 0.14612 0.0
H1987 H 0.01144 0.63249 0.1867 0.0
H1988 H 0.0162 0.65606 0.15055 0.0
H1989 H 0.94575 0.70526 0.03034 0.0
H1990 H 0.97806 0.67401 0.03851 0.0
H1991 H 0.99164 0.70536 0.10789 0.0
H1992 H 0.95866 0.73591 0.10006 0.0
H1993 H 0.98996 0.65819 0.11065 0.0
H1994 H 0.03176 0.71414 0.06033 0.0
H1995 H 0.03636 0.73737 0.02394 0.0
H1996 H 0.03974 0.67293 0.98198 0.0
H1997 H 0.03485 0.64933 0.01813 0.0
C1998 C 0.10345 0.6136 0.12842 0.0
C1999 C 0.11303 0.59436 0.11459 0.0
C2000 C 0.08263 0.62742 0.12051 0.0
C2001 C 0.07068 0.62228 0.09865 0.0
C2002 C 0.08045 0.60342 0.08448 0.0
C2003 C 0.10135 0.58947 0.09245 0.0
C2004 C 0.04788 0.63665 0.09098 0.0
C2005 C 0.04895 0.64935 0.0698 0.0
C2006 C 0.02607 0.63952 0.10562 0.0
C2007 C 0.02304 0.62541 0.12741 0.0
C2008 C 0.0252 0.60046 0.1264 0.0
C2009 C 0.02259 0.58726 0.14701 0.0
C2010 C 0.01765 0.59881 0.16872 0.0
C2011 C 0.01527 0.62357 0.16986 0.0
C2012 C 0.01789 0.63686 0.14932 0.0
C2013 C 0.95516 0.70504 0.04753 0.0
C2014 C 0.94933 0.72264 0.06477 0.0
C2015 C 0.97392 0.68743 0.05206 0.0
C2016 C 0.98743 0.68738 0.0738 0.0
C2017 C 0.98144 0.70494 0.09104 0.0
C2018 C 0.96267 0.72244 0.08653 0.0
C2019 C 0.00811 0.6694 0.07868 0.0
C2020 C 0.0066 0.65595 0.09936 0.0
C2021 C 0.02946 0.66585 0.06356 0.0
C2022 C 0.03267 0.68 0.04188 0.0
C2023 C 0.03332 0.70494 0.04332 0.0
C2024 C 0.036 0.71817 0.02275 0.0
C2025 C 0.03827 0.70664 1.00065 0.0
C2026 C 0.03794 0.68184 0.9991 0.0
C2027 C 0.03524 0.66853 0.01963 0.0
H2028 H 0.04033 0.71691 0.98474 0.0
H2029 H 0.01564 0.58856 0.18465 0.0
H2030 H 0.63188 0.87763 0.36559 0.0
H2031 H 0.61432 0.83942 0.35355 0.0
H2032 H 0.68976 0.80674 0.3576 0.0
H2033 H 0.70768 0.84515 0.36882 0.0
H2034 H 0.66404 0.78922 0.31975 0.0
H2035 H 0.64757 0.80098 0.4027 0.0
H2036 H 0.63178 0.82252 0.43839 0.0
H2037 H 0.55528 0.82297 0.40969 0.0
H2038 H 0.57069 0.80171 0.37366 0.0
H2039 H 0.58163 0.68056 0.35998 0.0
H2040 H 0.60696 0.71581 0.36812 0.0
H2041 H 0.59813 0.73628 0.29488 0.0
H2042 H 0.57397 0.70037 0.2865 0.0
H2043 H 0.59345 0.75887 0.36814 0.0
H2044 H 0.64447 0.77484 0.27882 0.0
H2045 H 0.66259 0.7516 0.24513 0.0
H2046 H 0.67496 0.69158 0.29017 0.0
H2047 H 0.65738 0.71458 0.32425 0.0
C2048 C 0.64487 0.86245 0.36357 0.0
C2049 C 0.67124 0.86458 0.36838 0.0
C2050 C 0.63473 0.8405 0.35686 0.0
C2051 C 0.65062 0.82003 0.35495 0.0
C2052 C 0.67705 0.8222 0.35902 0.0
C2053 C 0.68723 0.84417 0.36571 0.0
C2054 C 0.63949 0.79627 0.34971 0.0
C2055 C 0.6486 0.78254 0.3303 0.0
C2056 C 0.61969 0.78725 0.36372 0.0
C2057 C 0.61033 0.79995 0.3854 0.0
C2058 C 0.62741 0.80583 0.40393 0.0
C2059 C 0.61852 0.81796 0.42423 0.0
C2060 C 0.59255 0.82416 0.42629 0.0
C2061 C 0.5754 0.81819 0.40806 0.0
C2062 C 0.58419 0.80608 0.38771 0.0
C2063 C 0.58556 0.69236 0.34554 0.0
C2064 C 0.57582 0.6877 0.32263 0.0
C2065 C 0.59993 0.71261 0.3502 0.0
C2066 C 0.60466 0.72888 0.33215 0.0
C2067 C 0.59533 0.72392 0.30909 0.0
C2068 C 0.58137 0.7034 0.30432 0.0
C2069 C 0.61775 0.75167 0.33796 0.0
C2070 C 0.60894 0.76535 0.35751 0.0
C2071 C 0.63817 0.76031 0.32431 0.0
C2072 C 0.64934 0.74641 0.30407 0.0
C2073 C 0.65119 0.75673 0.28159 0.0
C2074 C 0.66137 0.74359 0.26241 0.0
C2075 C 0.66986 0.72011 0.2655 0.0
C2076 C 0.66831 0.70975 0.2878 0.0
C2077 C 0.65824 0.72284 0.30705 0.0
H2078 H 0.67769 0.70996 0.25062 0.0
H2079 H 0.5857 0.83355 0.44202 0.0
H2080 H 0.54971 0.29365 0.5741 0.0
H2081 H 0.52125 0.3278 0.5812 0.0
H2082 H 0.58558 0.37435 0.57979 0.0
H2083 H 0.6146 0.33969 0.57294 0.0
H2084 H 0.5529 0.38502 0.61719 0.0
H2085 H 0.54497 0.37524 0.53409 0.0
H2086 H 0.54038 0.3533 0.49607 0.0
H2087 H 0.4661 0.33046 0.51672 0.0
H2088 H 0.47039 0.35192 0.55506 0.0
H2089 H 0.45223 0.47512 0.62884 0.0
H2090 H 0.48968 0.45332 0.61264 0.0
H2091 H 0.44593 0.38941 0.60816 0.0
H2092 H 0.40854 0.41104 0.62383 0.0
H2093 H 0.47412 0.39558 0.56809 0.0
H2094 H 0.48774 0.3998 0.65419 0.0
H2095 H 0.49361 0.42137 0.69231 0.0
H2096 H 0.55877 0.45617 0.66432 0.0
H2097 H 0.55307 0.43499 0.62592 0.0
C2098 C 0.5579 0.31113 0.5752 0.0
C2099 C 0.58438 0.31401 0.57285 0.0
C2100 C 0.54154 0.33069 0.57914 0.0
C2101 C 0.55118 0.35371 0.58068 0.0
C2102 C 0.57771 0.35675 0.57851 0.0
C2103 C 0.59422 0.33701 0.57448 0.0
C2104 C 0.53313 0.37411 0.58522 0.0
C2105 C 0.536 0.38779 0.60612 0.0
C2106 C 0.51103 0.37772 0.57082 0.0
C2107 C 0.50804 0.36517 0.54753 0.0
C2108 C 0.52769 0.36546 0.53059 0.0
C2109 C 0.52515 0.3531 0.50897 0.0
C2110 C 0.50297 0.34049 0.50399 0.0
C2111 C 0.48326 0.34027 0.5206 0.0
C2112 C 0.48572 0.35256 0.54227 0.0
C2113 C 0.45058 0.45647 0.62422 0.0
C2114 C 0.42745 0.44477 0.62786 0.0
C2115 C 0.47202 0.44401 0.61508 0.0
C2116 C 0.47068 0.41967 0.60932 0.0
C2117 C 0.44746 0.40815 0.61247 0.0
C2118 C 0.42615 0.42051 0.62168 0.0
C2119 C 0.49339 0.40572 0.60056 0.0
C2120 C 0.49135 0.39327 0.57881 0.0
C2121 C 0.51635 0.40347 0.61403 0.0
C2122 C 0.5198 0.41605 0.63713 0.0
C2123 C 0.50319 0.41219 0.65612 0.0
C2124 C 0.50651 0.42432 0.67778 0.0
C2125 C 0.52649 0.44019 0.68071 0.0
C2126 C 0.54326 0.44391 0.66201 0.0
C2127 C 0.54001 0.43185 0.64031 0.0
H2128 H 0.52903 0.44956 0.69749 0.0
H2129 H 0.50105 0.33091 0.48725 0.0
H2130 H 0.14394 0.67603 0.66694 0.0
H2131 H 0.12085 0.71294 0.67741 0.0
H2132 H 0.19077 0.74262 0.70464 0.0
H2133 H 0.21422 0.70585 0.69379 0.0
H2134 H 0.14845 0.75382 0.73338 0.0
H2135 H 0.17104 0.75749 0.651 0.0
H2136 H 0.17349 0.74274 0.60955 0.0
H2137 H 0.09137 0.74172 0.60523 0.0
H2138 H 0.08844 0.75614 0.6468 0.0
H2139 H 0.09796 0.87208 0.73925 0.0
H2140 H 0.12501 0.837 0.73067 0.0
H2141 H 0.06375 0.8072 0.68851 0.0
H2142 H 0.03755 0.8432 0.69574 0.0
H2143 H 0.10449 0.79661 0.6677 0.0
H2144 H 0.08138 0.79215 0.75056 0.0
H2145 H 0.07883 0.80731 0.79189 0.0
H2146 H 0.16091 0.80924 0.79606 0.0
H2147 H 0.16393 0.79458 0.75458 0.0
C2148 C 0.15449 0.69038 0.67511 0.0
C2149 C 0.18107 0.68796 0.67923 0.0
C2150 C 0.1412 0.71147 0.68119 0.0
C2151 C 0.15413 0.73069 0.69152 0.0
C2152 C 0.18039 0.72803 0.69668 0.0
C2153 C 0.19376 0.70693 0.69052 0.0
C2154 C 0.14039 0.75387 0.69582 0.0
C2155 C 0.13902 0.76335 0.71903 0.0
C2156 C 0.12782 0.76615 0.67715 0.0
C2157 C 0.12953 0.7577 0.65207 0.0
C2158 C 0.15351 0.75396 0.64126 0.0
C2159 C 0.15498 0.74568 0.61774 0.0
C2160 C 0.1326 0.74125 0.60478 0.0
C2161 C 0.10869 0.74514 0.6153 0.0
C2162 C 0.10711 0.75339 0.63883 0.0
C2163 C 0.09042 0.85813 0.72802 0.0
C2164 C 0.06572 0.86033 0.71818 0.0
C2165 C 0.1058 0.8379 0.72327 0.0
C2166 C 0.0963 0.81892 0.70945 0.0
C2167 C 0.07166 0.82142 0.69928 0.0
C2168 C 0.05665 0.842 0.7034 0.0
C2169 C 0.11182 0.79651 0.70547 0.0
C2170 C 0.11371 0.78716 0.68221 0.0
C2171 C 0.12468 0.78431 0.72419 0.0
C2172 C 0.12287 0.79247 0.74937 0.0
C2173 C 0.09888 0.7959 0.76025 0.0
C2174 C 0.09735 0.80444 0.7837 0.0
C2175 C 0.11969 0.80932 0.79655 0.0
C2176 C 0.14361 0.80553 0.78605 0.0
C2177 C 0.14525 0.79711 0.76257 0.0
H2178 H 0.11847 0.81601 0.81467 0.0
H2179 H 0.13378 0.73484 0.58657 0.0
H2180 H 0.45669 0.80156 0.97325 0.0
H2181 H 0.49202 0.82802 0.96608 0.0
H2182 H 0.4635 0.87658 0.0203 0.0
H2183 H 0.42805 0.85003 0.02782 0.0
H2184 H 0.47728 0.89888 0.97768 0.0
H2185 H 0.51351 0.84519 0.0338 0.0
H2186 H 0.52407 0.80608 0.05085 0.0
H2187 H 0.56822 0.78691 0.98913 0.0
H2188 H 0.5576 0.8258 0.97154 0.0
H2189 H 0.58921 0.96809 0.97087 0.0
H2190 H 0.55572 0.94387 0.98755 0.0
H2191 H 0.57845 0.88537 0.94125 0.0
H2192 H 0.61241 0.90919 0.92504 0.0
H2193 H 0.56753 0.86989 0.98495 0.0
H2194 H 0.52746 0.92213 0.92748 0.0
H2195 H 0.51607 0.96096 0.91016 0.0
H2196 H 0.47863 0.98276 0.97485 0.0
H2197 H 0.49011 0.94414 0.99266 0.0
C2198 C 0.45781 0.81789 0.98364 0.0
C2199 C 0.4395 0.82366 1.00111 0.0
C2200 C 0.47812 0.83294 0.97959 0.0
C2201 C 0.48049 0.85415 0.99279 0.0
C2202 C 0.46204 0.86024 0.00997 0.0
C2203 C 0.44183 0.84503 0.01425 0.0
C2204 C 0.50223 0.86991 0.98837 0.0
C2205 C 0.49703 0.89275 0.97971 0.0
C2206 C 0.52796 0.86173 0.9907 0.0
C2207 C 0.53457 0.83836 1.00126 0.0
C2208 C 0.5253 0.83257 0.02377 0.0
C2209 C 0.53133 0.81045 0.03355 0.0
C2210 C 0.54676 0.794 0.02106 0.0
C2211 C 0.55625 0.79966 0.99878 0.0
C2212 C 0.55026 0.82176 0.98891 0.0
C2213 C 0.58737 0.94994 0.96453 0.0
C2214 C 0.60338 0.94065 0.94647 0.0
C2215 C 0.56806 0.93618 0.97393 0.0
C2216 C 0.56431 0.9129 0.96541 0.0
C2217 C 0.58089 0.90331 0.94804 0.0
C2218 C 0.60016 0.91703 0.93864 0.0
C2219 C 0.5426 0.89875 0.97382 0.0
C2220 C 0.5478 0.87618 0.98321 0.0
C2221 C 0.51685 0.90719 0.97219 0.0
C2222 C 0.5099 0.93037 0.96148 0.0
C2223 C 0.51698 0.93528 0.93807 0.0
C2224 C 0.51047 0.95723 0.92815 0.0
C2225 C 0.4967 0.97435 0.94142 0.0
C2226 C 0.48934 0.96951 0.96461 0.0
C2227 C 0.49583 0.94759 0.97462 0.0
H2228 H 0.49168 0.99133 0.93371 0.0
H2229 H 0.55141 0.77688 0.02865 0.0
H2230 H 0.90292 0.1191 0.42669 0.0
H2231 H 0.93641 0.14425 0.44313 0.0
H2232 H 0.97576 0.08254 0.47133 0.0
H2233 H 0.94235 0.05715 0.45476 0.0
H2234 H 0.9769 0.12063 0.50282 0.0
H2235 H 0.99585 0.10561 0.42058 0.0
H2236 H 0.98644 0.104 0.37757 0.0
H2237 H 0.971 0.17928 0.37809 0.0
H2238 H 0.97996 0.18128 0.42118 0.0
H2239 H 0.09379 0.18194 0.52393 0.0
H2240 H 0.06131 0.15347 0.51166 0.0
H2241 H 0.02245 0.20796 0.47086 0.0
H2242 H 0.0557 0.23586 0.48187 0.0
H2243 H 0.02263 0.1706 0.44613 0.0
H2244 H 1.00234 0.18566 0.529 0.0
H2245 H 0.01181 0.18713 0.57203 0.0
H2246 H 0.02967 0.11226 0.57083 0.0
H2247 H 0.02062 0.1104 0.52772 0.0
C2248 C 0.9187 0.11082 0.43635 0.0
C2249 C 0.92004 0.08603 0.43914 0.0
C2250 C 0.93781 0.12526 0.44582 0.0
C2251 C 0.95884 0.11527 0.45818 0.0
C2252 C 0.95975 0.09066 0.46186 0.0
C2253 C 0.94058 0.07617 0.4524 0.0
C2254 C 0.98035 0.13045 0.46622 0.0
C2255 C 0.98711 0.1314 0.49043 0.0
C2256 C 0.99353 0.14468 0.45012 0.0
C2257 C 0.98837 0.14355 0.42415 0.0
C2258 C 0.99028 0.12179 0.41155 0.0
C2259 C 0.98505 0.12081 0.38715 0.0
C2260 C 0.97807 0.14152 0.37511 0.0
C2261 C 0.97638 0.16326 0.38744 0.0
C2262 C 0.98155 0.16433 0.41185 0.0
C2263 C 0.07828 0.18778 0.51234 0.0
C2264 C 0.07732 0.21112 0.50381 0.0
C2265 C 0.05956 0.17154 0.50548 0.0
C2266 C 0.03899 0.17854 0.49061 0.0
C2267 C 0.03804 0.20196 0.48228 0.0
C2268 C 0.05708 0.21797 0.48861 0.0
C2269 C 0.01883 0.16153 0.48297 0.0
C2270 C 0.01242 0.16001 0.45868 0.0
C2271 C 0.00598 0.14689 0.49908 0.0
C2272 C 0.01103 0.14795 0.52508 0.0
C2273 C 0.00841 0.16954 0.53789 0.0
C2274 C 0.0137 0.17043 0.56229 0.0
C2275 C 0.02141 0.14981 0.57414 0.0
C2276 C 0.02374 0.12822 0.56162 0.0
C2277 C 0.01851 0.12724 0.53721 0.0
H2278 H 0.02553 0.15054 0.59302 0.0
H2279 H 0.97403 0.14072 0.35623 0.0
loop_
_geom_bond_atom_site_label_1
_geom_bond_atom_site_label_2
_geom_bond_distance
_geom_bond_site_symmetry_2
_ccdc_geom_bond_type
C0 Eu1 2.835 . S
C0 C2 1.500 . S
C0 O20 1.257 . S
C0 O21 1.260 . S
Eu1 C0 2.835 . S
Eu1 O20 2.473 . S
Eu1 O21 2.480 . S
Eu1 O22 2.430 . S
Eu1 O23 2.670 . S
Eu1 O24 2.394 . S
Eu1 O29 2.355 . S
Eu1 O31 2.374 . S
C2 C0 1.500 . S
C2 C3 1.377 . S
C2 C7 1.377 . S
C3 C2 1.377 . S
C3 C4 1.395 . S
C3 H32 0.931 . S
C4 C3 1.395 . S
C4 C5 1.383 . S
C4 H33 0.931 . S
C5 C4 1.383 . S
C5 C6 1.394 . S
C6 C5 1.394 . S
C6 C7 1.378 . S
C6 H34 0.931 . S
C7 C2 1.377 . S
C7 C6 1.378 . S
C7 H35 0.931 . S
C8 O22 1.259 . S
C8 O23 1.270 . S
C9 O24 1.251 . S
C9 O25 1.251 . S
C10 Eu11 2.835 . S
C10 C12 1.500 . S
C10 O26 1.257 . S
C10 O27 1.260 . S
Eu11 C10 2.835 . S
Eu11 O23 2.355 . S
Eu11 O25 2.374 . S
Eu11 O26 2.473 . S
Eu11 O27 2.480 . S
Eu11 O28 2.430 . S
Eu11 O29 2.670 . S
Eu11 O30 2.394 . S
C12 C10 1.500 . S
C12 C13 1.377 . S
C12 C17 1.377 . S
C13 C12 1.377 . S
C13 C14 1.395 . S
C13 H36 0.931 . S
C14 C13 1.395 . S
C14 C15 1.383 . S
C14 H37 0.931 . S
C15 C14 1.383 . S
C15 C16 1.394 . S
C16 C15 1.394 . S
C16 C17 1.378 . S
C16 H38 0.931 . S
C17 C12 1.377 . S
C17 C16 1.378 . S
C17 H39 0.931 . S
C18 O28 1.259 . S
C18 O29 1.270 . S
C19 O30 1.251 . S
C19 O31 1.251 . S
O20 C0 1.257 . S
O20 Eu1 2.473 . S
O21 C0 1.260 . S
O21 Eu1 2.480 . S
O22 Eu1 2.430 . S
O22 C8 1.259 . S
O23 Eu1 2.670 . S
O23 C8 1.270 . S
O23 Eu11 2.355 . S
O24 Eu1 2.394 . S
O24 C9 1.251 . S
O25 C9 1.251 . S
O25 Eu11 2.374 . S
O26 C10 1.257 . S
O26 Eu11 2.473 . S
O27 C10 1.260 . S
O27 Eu11 2.480 . S
O28 Eu11 2.430 . S
O28 C18 1.259 . S
O29 Eu1 2.355 . S
O29 Eu11 2.670 . S
O29 C18 1.270 . S
O30 Eu11 2.394 . S
O30 C19 1.251 . S
O31 Eu1 2.374 . S
O31 C19 1.251 . S
H32 C3 0.931 . S
H33 C4 0.931 . S
H34 C6 0.931 . S
H35 C7 0.931 . S
H36 C13 0.931 . S
H37 C14 0.931 . S
H38 C16 0.931 . S
H39 C17 0.931 . S
C40 Eu41 2.835 . S
C40 C42 1.500 . S
C40 O60 1.257 . S
C40 O61 1.260 . S
Eu41 C40 2.835 . S
Eu41 O60 2.473 . S
Eu41 O61 2.480 . S
Eu41 O62 2.430 . S
Eu41 O63 2.670 1_455 S
Eu41 O64 2.394 . S
Eu41 O69 2.355 . S
Eu41 O71 2.374 . S
C42 C40 1.500 . S
C42 C43 1.377 . S
C42 C47 1.377 . S
C43 C42 1.377 . S
C43 C44 1.395 . S
C43 H72 0.931 . S
C44 C43 1.395 . S
C44 C45 1.383 . S
C44 H73 0.931 . S
C45 C44 1.383 . S
C45 C46 1.394 . S
C46 C45 1.394 . S
C46 C47 1.378 . S
C46 H74 0.931 . S
C47 C42 1.377 . S
C47 C46 1.378 . S
C47 H75 0.931 . S
C48 O62 1.259 1_655 S
C48 O63 1.270 . S
C49 O64 1.251 1_655 S
C49 O65 1.251 . S
C50 Eu51 2.835 . S
C50 C52 1.500 . S
C50 O66 1.257 . S
C50 O67 1.260 . S
Eu51 C50 2.835 . S
Eu51 O63 2.355 . S
Eu51 O65 2.374 . S
Eu51 O66 2.473 . S
Eu51 O67 2.480 . S
Eu51 O68 2.430 1_655 S
Eu51 O69 2.670 1_655 S
Eu51 O70 2.394 1_655 S
C52 C50 1.500 . S
C52 C53 1.377 . S
C52 C57 1.377 . S
C53 C52 1.377 . S
C53 C54 1.395 . S
C53 H76 0.931 . S
C54 C53 1.395 . S
C54 C55 1.383 . S
C54 H77 0.931 . S
C55 C54 1.383 . S
C55 C56 1.394 . S
C56 C55 1.394 . S
C56 C57 1.378 . S
C56 H78 0.931 . S
C57 C52 1.377 . S
C57 C56 1.378 . S
C57 H79 0.931 . S
C58 O68 1.259 . S
C58 O69 1.270 . S
C59 O70 1.251 . S
C59 O71 1.251 . S
O60 C40 1.257 . S
O60 Eu41 2.473 . S
O61 C40 1.260 . S
O61 Eu41 2.480 . S
O62 Eu41 2.430 . S
O62 C48 1.259 1_455 S
O63 Eu41 2.670 1_655 S
O63 C48 1.270 . S
O63 Eu51 2.355 . S
O64 Eu41 2.394 . S
O64 C49 1.251 1_455 S
O65 C49 1.251 . S
O65 Eu51 2.374 . S
O66 C50 1.257 . S
O66 Eu51 2.473 . S
O67 C50 1.260 . S
O67 Eu51 2.480 . S
O68 Eu51 2.430 1_455 S
O68 C58 1.259 . S
O69 Eu41 2.355 . S
O69 Eu51 2.670 1_455 S
O69 C58 1.270 . S
O70 Eu51 2.394 1_455 S
O70 C59 1.251 . S
O71 Eu41 2.374 . S
O71 C59 1.251 . S
H72 C43 0.931 . S
H73 C44 0.931 . S
H74 C46 0.931 . S
H75 C47 0.931 . S
H76 C53 0.931 . S
H77 C54 0.931 . S
H78 C56 0.931 . S
H79 C57 0.931 . S
C80 Eu81 2.835 . S
C80 C82 1.500 . S
C80 O100 1.257 . S
C80 O101 1.260 . S
Eu81 C80 2.835 . S
Eu81 O100 2.473 . S
Eu81 O101 2.480 . S
Eu81 O102 2.430 1_556 S
Eu81 O103 2.670 1_556 S
Eu81 O104 2.394 . S
Eu81 O109 2.355 . S
Eu81 O111 2.374 . S
C82 C80 1.500 . S
C82 C83 1.377 . S
C82 C87 1.377 . S
C83 C82 1.377 . S
C83 C84 1.395 . S
C83 H112 0.931 . S
C84 C83 1.395 . S
C84 C85 1.383 . S
C84 H113 0.931 . S
C85 C84 1.383 . S
C85 C86 1.394 . S
C86 C85 1.394 . S
C86 C87 1.378 . S
C86 H114 0.931 . S
C87 C82 1.377 . S
C87 C86 1.378 . S
C87 H115 0.931 . S
C88 O102 1.259 . S
C88 O103 1.270 . S
C89 O104 1.251 1_554 S
C89 O105 1.251 . S
C90 Eu91 2.835 . S
C90 C92 1.500 . S
C90 O106 1.257 . S
C90 O107 1.260 . S
Eu91 C90 2.835 . S
Eu91 O103 2.355 . S
Eu91 O105 2.374 . S
Eu91 O106 2.473 . S
Eu91 O107 2.480 . S
Eu91 O108 2.430 1_554 S
Eu91 O109 2.670 1_554 S
Eu91 O110 2.394 1_554 S
C92 C90 1.500 . S
C92 C93 1.377 . S
C92 C97 1.377 . S
C93 C92 1.377 . S
C93 C94 1.395 . S
C93 H116 0.931 . S
C94 C93 1.395 . S
C94 C95 1.383 . S
C94 H117 0.931 . S
C95 C94 1.383 . S
C95 C96 1.394 . S
C96 C95 1.394 . S
C96 C97 1.378 . S
C96 H118 0.931 . S
C97 C92 1.377 . S
C97 C96 1.378 . S
C97 H119 0.931 . S
C98 O108 1.259 . S
C98 O109 1.270 . S
C99 O110 1.251 . S
C99 O111 1.251 . S
O100 C80 1.257 . S
O100 Eu81 2.473 . S
O101 C80 1.260 . S
O101 Eu81 2.480 . S
O102 Eu81 2.430 1_554 S
O102 C88 1.259 . S
O103 Eu81 2.670 1_554 S
O103 C88 1.270 . S
O103 Eu91 2.355 . S
O104 Eu81 2.394 . S
O104 C89 1.251 1_556 S
O105 C89 1.251 . S
O105 Eu91 2.374 . S
O106 C90 1.257 . S
O106 Eu91 2.473 . S
O107 C90 1.260 . S
O107 Eu91 2.480 . S
O108 Eu91 2.430 1_556 S
O108 C98 1.259 . S
O109 Eu81 2.355 . S
O109 Eu91 2.670 1_556 S
O109 C98 1.270 . S
O110 Eu91 2.394 1_556 S
O110 C99 1.251 . S
O111 Eu81 2.374 . S
O111 C99 1.251 . S
H112 C83 0.931 . S
H113 C84 0.931 . S
H114 C86 0.931 . S
H115 C87 0.931 . S
H116 C93 0.931 . S
H117 C94 0.931 . S
H118 C96 0.931 . S
H119 C97 0.931 . S
C120 Eu121 2.835 . S
C120 C122 1.500 . S
C120 O140 1.257 . S
C120 O141 1.260 . S
Eu121 C120 2.835 . S
Eu121 O140 2.473 . S
Eu121 O141 2.480 . S
Eu121 O142 2.430 . S
Eu121 O143 2.670 . S
Eu121 O144 2.394 . S
Eu121 O149 2.355 . S
Eu121 O151 2.374 . S
C122 C120 1.500 . S
C122 C123 1.377 . S
C122 C127 1.377 . S
C123 C122 1.377 . S
C123 C124 1.395 . S
C123 H152 0.931 . S
C124 C123 1.395 . S
C124 C125 1.383 . S
C124 H153 0.931 . S
C125 C124 1.383 . S
C125 C126 1.394 . S
C126 C125 1.394 . S
C126 C127 1.378 . S
C126 H154 0.931 . S
C127 C122 1.377 . S
C127 C126 1.378 . S
C127 H155 0.931 . S
C128 O142 1.259 . S
C128 O143 1.270 . S
C129 O144 1.251 . S
C129 O145 1.251 . S
C130 Eu131 2.835 . S
C130 C132 1.500 . S
C130 O146 1.257 . S
C130 O147 1.260 . S
Eu131 C130 2.835 . S
Eu131 O143 2.355 . S
Eu131 O145 2.374 . S
Eu131 O146 2.473 . S
Eu131 O147 2.480 . S
Eu131 O148 2.430 . S
Eu131 O149 2.670 . S
Eu131 O150 2.394 . S
C132 C130 1.500 . S
C132 C133 1.377 . S
C132 C137 1.377 . S
C133 C132 1.377 . S
C133 C134 1.395 . S
C133 H156 0.931 . S
C134 C133 1.395 . S
C134 C135 1.383 . S
C134 H157 0.931 . S
C135 C134 1.383 . S
C135 C136 1.394 . S
C136 C135 1.394 . S
C136 C137 1.378 . S
C136 H158 0.931 . S
C137 C132 1.377 . S
C137 C136 1.378 . S
C137 H159 0.931 . S
C138 O148 1.259 . S
C138 O149 1.270 . S
C139 O150 1.251 . S
C139 O151 1.251 . S
O140 C120 1.257 . S
O140 Eu121 2.473 . S
O141 C120 1.260 . S
O141 Eu121 2.480 . S
O142 Eu121 2.430 . S
O142 C128 1.259 . S
O143 Eu121 2.670 . S
O143 C128 1.270 . S
O143 Eu131 2.355 . S
O144 Eu121 2.394 . S
O144 C129 1.251 . S
O145 C129 1.251 . S
O145 Eu131 2.374 . S
O146 C130 1.257 . S
O146 Eu131 2.473 . S
O147 C130 1.260 . S
O147 Eu131 2.480 . S
O148 Eu131 2.430 . S
O148 C138 1.259 . S
O149 Eu121 2.355 . S
O149 Eu131 2.670 . S
O149 C138 1.270 . S
O150 Eu131 2.394 . S
O150 C139 1.251 . S
O151 Eu121 2.374 . S
O151 C139 1.251 . S
H152 C123 0.931 . S
H153 C124 0.931 . S
H154 C126 0.931 . S
H155 C127 0.931 . S
H156 C133 0.931 . S
H157 C134 0.931 . S
H158 C136 0.931 . S
H159 C137 0.931 . S
C160 Eu161 2.835 . S
C160 C162 1.500 . S
C160 O180 1.257 . S
C160 O181 1.260 . S
Eu161 C160 2.835 . S
Eu161 O180 2.473 . S
Eu161 O181 2.480 . S
Eu161 O182 2.430 . S
Eu161 O183 2.670 . S
Eu161 O184 2.394 . S
Eu161 O189 2.355 . S
Eu161 O191 2.374 . S
C162 C160 1.500 . S
C162 C163 1.377 . S
C162 C167 1.377 . S
C163 C162 1.377 . S
C163 C164 1.395 . S
C163 H192 0.931 . S
C164 C163 1.395 . S
C164 C165 1.383 . S
C164 H193 0.931 . S
C165 C164 1.383 . S
C165 C166 1.394 . S
C166 C165 1.394 . S
C166 C167 1.378 . S
C166 H194 0.931 . S
C167 C162 1.377 . S
C167 C166 1.378 . S
C167 H195 0.931 . S
C168 O182 1.259 . S
C168 O183 1.270 . S
C169 O184 1.251 . S
C169 O185 1.251 . S
C170 Eu171 2.835 . S
C170 C172 1.500 . S
C170 O186 1.257 . S
C170 O187 1.260 . S
Eu171 C170 2.835 . S
Eu171 O183 2.355 . S
Eu171 O185 2.374 . S
Eu171 O186 2.473 . S
Eu171 O187 2.480 . S
Eu171 O188 2.430 . S
Eu171 O189 2.670 . S
Eu171 O190 2.394 . S
C172 C170 1.500 . S
C172 C173 1.377 . S
C172 C177 1.377 . S
C173 C172 1.377 . S
C173 C174 1.395 . S
C173 H196 0.931 . S
C174 C173 1.395 . S
C174 C175 1.383 . S
C174 H197 0.931 . S
C175 C174 1.383 . S
C175 C176 1.394 . S
C176 C175 1.394 . S
C176 C177 1.378 . S
C176 H198 0.931 . S
C177 C172 1.377 . S
C177 C176 1.378 . S
C177 H199 0.931 . S
C178 O188 1.259 . S
C178 O189 1.270 . S
C179 O190 1.251 . S
C179 O191 1.251 . S
O180 C160 1.257 . S
O180 Eu161 2.473 . S
O181 C160 1.260 . S
O181 Eu161 2.480 . S
O182 Eu161 2.430 . S
O182 C168 1.259 . S
O183 Eu161 2.670 . S
O183 C168 1.270 . S
O183 Eu171 2.355 . S
O184 Eu161 2.394 . S
O184 C169 1.251 . S
O185 C169 1.251 . S
O185 Eu171 2.374 . S
O186 C170 1.257 . S
O186 Eu171 2.473 . S
O187 C170 1.260 . S
O187 Eu171 2.480 . S
O188 Eu171 2.430 . S
O188 C178 1.259 . S
O189 Eu161 2.355 . S
O189 Eu171 2.670 . S
O189 C178 1.270 . S
O190 Eu171 2.394 . S
O190 C179 1.251 . S
O191 Eu161 2.374 . S
O191 C179 1.251 . S
H192 C163 0.931 . S
H193 C164 0.931 . S
H194 C166 0.931 . S
H195 C167 0.931 . S
H196 C173 0.931 . S
H197 C174 0.931 . S
H198 C176 0.931 . S
H199 C177 0.931 . S
C200 Eu201 2.835 . S
C200 C202 1.500 . S
C200 O220 1.257 . S
C200 O221 1.260 . S
Eu201 C200 2.835 . S
Eu201 O220 2.473 . S
Eu201 O221 2.480 . S
Eu201 O222 2.430 . S
Eu201 O223 2.670 . S
Eu201 O224 2.394 . S
Eu201 O229 2.355 1_455 S
Eu201 O231 2.374 1_455 S
C202 C200 1.500 . S
C202 C203 1.377 . S
C202 C207 1.377 . S
C203 C202 1.377 . S
C203 C204 1.395 . S
C203 H232 0.931 . S
C204 C203 1.395 . S
C204 C205 1.383 . S
C204 H233 0.931 . S
C205 C204 1.383 . S
C205 C206 1.394 . S
C206 C205 1.394 . S
C206 C207 1.378 . S
C206 H234 0.931 . S
C207 C202 1.377 . S
C207 C206 1.378 . S
C207 H235 0.931 . S
C208 O222 1.259 . S
C208 O223 1.270 . S
C209 O224 1.251 . S
C209 O225 1.251 . S
C210 Eu211 2.835 . S
C210 C212 1.500 . S
C210 O226 1.257 . S
C210 O227 1.260 . S
Eu211 C210 2.835 . S
Eu211 O223 2.355 1_655 S
Eu211 O225 2.374 1_655 S
Eu211 O226 2.473 . S
Eu211 O227 2.480 . S
Eu211 O228 2.430 . S
Eu211 O229 2.670 . S
Eu211 O230 2.394 . S
C212 C210 1.500 . S
C212 C213 1.377 . S
C212 C217 1.377 . S
C213 C212 1.377 . S
C213 C214 1.395 . S
C213 H236 0.931 . S
C214 C213 1.395 . S
C214 C215 1.383 . S
C214 H237 0.931 . S
C215 C214 1.383 . S
C215 C216 1.394 . S
C216 C215 1.394 . S
C216 C217 1.378 . S
C216 H238 0.931 . S
C217 C212 1.377 . S
C217 C216 1.378 . S
C217 H239 0.931 . S
C218 O228 1.259 . S
C218 O229 1.270 . S
C219 O230 1.251 . S
C219 O231 1.251 . S
O220 C200 1.257 . S
O220 Eu201 2.473 . S
O221 C200 1.260 . S
O221 Eu201 2.480 . S
O222 Eu201 2.430 . S
O222 C208 1.259 . S
O223 Eu201 2.670 . S
O223 C208 1.270 . S
O223 Eu211 2.355 1_455 S
O224 Eu201 2.394 . S
O224 C209 1.251 . S
O225 C209 1.251 . S
O225 Eu211 2.374 1_455 S
O226 C210 1.257 . S
O226 Eu211 2.473 . S
O227 C210 1.260 . S
O227 Eu211 2.480 . S
O228 Eu211 2.430 . S
O228 C218 1.259 . S
O229 Eu201 2.355 1_655 S
O229 Eu211 2.670 . S
O229 C218 1.270 . S
O230 Eu211 2.394 . S
O230 C219 1.251 . S
O231 Eu201 2.374 1_655 S
O231 C219 1.251 . S
H232 C203 0.931 . S
H233 C204 0.931 . S
H234 C206 0.931 . S
H235 C207 0.931 . S
H236 C213 0.931 . S
H237 C214 0.931 . S
H238 C216 0.931 . S
H239 C217 0.931 . S
C240 Eu241 2.835 1_556 S
C240 C242 1.500 . S
C240 O260 1.257 . S
C240 O261 1.260 . S
Eu241 C240 2.835 1_554 S
Eu241 O260 2.473 1_554 S
Eu241 O261 2.480 1_554 S
Eu241 O262 2.430 1_554 S
Eu241 O263 2.670 . S
Eu241 O264 2.394 1_554 S
Eu241 O269 2.355 . S
Eu241 O271 2.374 . S
C242 C240 1.500 . S
C242 C243 1.377 . S
C242 C247 1.377 . S
C243 C242 1.377 . S
C243 C244 1.395 . S
C243 H272 0.931 . S
C244 C243 1.395 . S
C244 C245 1.383 . S
C244 H273 0.931 . S
C245 C244 1.383 . S
C245 C246 1.394 . S
C246 C245 1.394 . S
C246 C247 1.378 . S
C246 H274 0.931 . S
C247 C242 1.377 . S
C247 C246 1.378 . S
C247 H275 0.931 . S
C248 O262 1.259 1_554 S
C248 O263 1.270 . S
C249 O264 1.251 . S
C249 O265 1.251 1_556 S
C250 Eu251 2.835 . S
C250 C252 1.500 . S
C250 O266 1.257 . S
C250 O267 1.260 . S
Eu251 C250 2.835 . S
Eu251 O263 2.355 . S
Eu251 O265 2.374 . S
Eu251 O266 2.473 . S
Eu251 O267 2.480 . S
Eu251 O268 2.430 . S
Eu251 O269 2.670 . S
Eu251 O270 2.394 . S
C252 C250 1.500 . S
C252 C253 1.377 . S
C252 C257 1.377 . S
C253 C252 1.377 . S
C253 C254 1.395 . S
C253 H276 0.931 . S
C254 C253 1.395 . S
C254 C255 1.383 . S
C254 H277 0.931 . S
C255 C254 1.383 . S
C255 C256 1.394 . S
C256 C255 1.394 . S
C256 C257 1.378 . S
C256 H278 0.931 . S
C257 C252 1.377 . S
C257 C256 1.378 . S
C257 H279 0.931 . S
C258 O268 1.259 . S
C258 O269 1.270 . S
C259 O270 1.251 . S
C259 O271 1.251 . S
O260 C240 1.257 . S
O260 Eu241 2.473 1_556 S
O261 C240 1.260 . S
O261 Eu241 2.480 1_556 S
O262 Eu241 2.430 1_556 S
O262 C248 1.259 1_556 S
O263 Eu241 2.670 . S
O263 C248 1.270 . S
O263 Eu251 2.355 . S
O264 Eu241 2.394 1_556 S
O264 C249 1.251 . S
O265 C249 1.251 1_554 S
O265 Eu251 2.374 . S
O266 C250 1.257 . S
O266 Eu251 2.473 . S
O267 C250 1.260 . S
O267 Eu251 2.480 . S
O268 Eu251 2.430 . S
O268 C258 1.259 . S
O269 Eu241 2.355 . S
O269 Eu251 2.670 . S
O269 C258 1.270 . S
O270 Eu251 2.394 . S
O270 C259 1.251 . S
O271 Eu241 2.374 . S
O271 C259 1.251 . S
H272 C243 0.931 . S
H273 C244 0.931 . S
H274 C246 0.931 . S
H275 C247 0.931 . S
H276 C253 0.931 . S
H277 C254 0.931 . S
H278 C256 0.931 . S
H279 C257 0.931 . S
C280 Eu281 2.835 . S
C280 C282 1.500 . S
C280 O300 1.257 . S
C280 O301 1.260 . S
Eu281 C280 2.835 . S
Eu281 O300 2.473 . S
Eu281 O301 2.480 . S
Eu281 O302 2.430 . S
Eu281 O303 2.670 . S
Eu281 O304 2.394 . S
Eu281 O309 2.355 . S
Eu281 O311 2.374 . S
C282 C280 1.500 . S
C282 C283 1.377 . S
C282 C287 1.377 . S
C283 C282 1.377 . S
C283 C284 1.395 . S
C283 H312 0.931 . S
C284 C283 1.395 . S
C284 C285 1.383 . S
C284 H313 0.931 . S
C285 C284 1.383 . S
C285 C286 1.394 . S
C286 C285 1.394 . S
C286 C287 1.378 . S
C286 H314 0.931 . S
C287 C282 1.377 . S
C287 C286 1.378 . S
C287 H315 0.931 . S
C288 O302 1.259 . S
C288 O303 1.270 . S
C289 O304 1.251 . S
C289 O305 1.251 . S
C290 Eu291 2.835 . S
C290 C292 1.500 . S
C290 O306 1.257 . S
C290 O307 1.260 . S
Eu291 C290 2.835 . S
Eu291 O303 2.355 . S
Eu291 O305 2.374 . S
Eu291 O306 2.473 . S
Eu291 O307 2.480 . S
Eu291 O308 2.430 . S
Eu291 O309 2.670 . S
Eu291 O310 2.394 . S
C292 C290 1.500 . S
C292 C293 1.377 . S
C292 C297 1.377 . S
C293 C292 1.377 . S
C293 C294 1.395 . S
C293 H316 0.931 . S
C294 C293 1.395 . S
C294 C295 1.383 . S
C294 H317 0.931 . S
C295 C294 1.383 . S
C295 C296 1.394 . S
C296 C295 1.394 . S
C296 C297 1.378 . S
C296 H318 0.931 . S
C297 C292 1.377 . S
C297 C296 1.378 . S
C297 H319 0.931 . S
C298 O308 1.259 . S
C298 O309 1.270 . S
C299 O310 1.251 . S
C299 O311 1.251 . S
O300 C280 1.257 . S
O300 Eu281 2.473 . S
O301 C280 1.260 . S
O301 Eu281 2.480 . S
O302 Eu281 2.430 . S
O302 C288 1.259 . S
O303 Eu281 2.670 . S
O303 C288 1.270 . S
O303 Eu291 2.355 . S
O304 Eu281 2.394 . S
O304 C289 1.251 . S
O305 C289 1.251 . S
O305 Eu291 2.374 . S
O306 C290 1.257 . S
O306 Eu291 2.473 . S
O307 C290 1.260 . S
O307 Eu291 2.480 . S
O308 Eu291 2.430 . S
O308 C298 1.259 . S
O309 Eu281 2.355 . S
O309 Eu291 2.670 . S
O309 C298 1.270 . S
O310 Eu291 2.394 . S
O310 C299 1.251 . S
O311 Eu281 2.374 . S
O311 C299 1.251 . S
H312 C283 0.931 . S
H313 C284 0.931 . S
H314 C286 0.931 . S
H315 C287 0.931 . S
H316 C293 0.931 . S
H317 C294 0.931 . S
H318 C296 0.931 . S
H319 C297 0.931 . S
C320 Eu321 2.835 . S
C320 C322 1.500 . S
C320 O340 1.257 . S
C320 O341 1.260 . S
Eu321 C320 2.835 . S
Eu321 O340 2.473 . S
Eu321 O341 2.480 . S
Eu321 O342 2.430 . S
Eu321 O343 2.670 . S
Eu321 O344 2.394 . S
Eu321 O349 2.355 . S
Eu321 O351 2.374 . S
C322 C320 1.500 . S
C322 C323 1.377 . S
C322 C327 1.377 . S
C323 C322 1.377 . S
C323 C324 1.395 . S
C323 H352 0.931 . S
C324 C323 1.395 . S
C324 C325 1.383 . S
C324 H353 0.931 . S
C325 C324 1.383 . S
C325 C326 1.394 . S
C326 C325 1.394 . S
C326 C327 1.378 . S
C326 H354 0.931 . S
C327 C322 1.377 . S
C327 C326 1.378 . S
C327 H355 0.931 . S
C328 O342 1.259 . S
C328 O343 1.270 . S
C329 O344 1.251 . S
C329 O345 1.251 . S
C330 Eu331 2.835 . S
C330 C332 1.500 . S
C330 O346 1.257 . S
C330 O347 1.260 . S
Eu331 C330 2.835 . S
Eu331 O343 2.355 . S
Eu331 O345 2.374 . S
Eu331 O346 2.473 . S
Eu331 O347 2.480 . S
Eu331 O348 2.430 . S
Eu331 O349 2.670 . S
Eu331 O350 2.394 . S
C332 C330 1.500 . S
C332 C333 1.377 . S
C332 C337 1.377 . S
C333 C332 1.377 . S
C333 C334 1.395 . S
C333 H356 0.931 . S
C334 C333 1.395 . S
C334 C335 1.383 . S
C334 H357 0.931 . S
C335 C334 1.383 . S
C335 C336 1.394 . S
C336 C335 1.394 . S
C336 C337 1.378 . S
C336 H358 0.931 . S
C337 C332 1.377 . S
C337 C336 1.378 . S
C337 H359 0.931 . S
C338 O348 1.259 . S
C338 O349 1.270 . S
C339 O350 1.251 . S
C339 O351 1.251 . S
O340 C320 1.257 . S
O340 Eu321 2.473 . S
O341 C320 1.260 . S
O341 Eu321 2.480 . S
O342 Eu321 2.430 . S
O342 C328 1.259 . S
O343 Eu321 2.670 . S
O343 C328 1.270 . S
O343 Eu331 2.355 . S
O344 Eu321 2.394 . S
O344 C329 1.251 . S
O345 C329 1.251 . S
O345 Eu331 2.374 . S
O346 C330 1.257 . S
O346 Eu331 2.473 . S
O347 C330 1.260 . S
O347 Eu331 2.480 . S
O348 Eu331 2.430 . S
O348 C338 1.259 . S
O349 Eu321 2.355 . S
O349 Eu331 2.670 . S
O349 C338 1.270 . S
O350 Eu331 2.394 . S
O350 C339 1.251 . S
O351 Eu321 2.374 . S
O351 C339 1.251 . S
H352 C323 0.931 . S
H353 C324 0.931 . S
H354 C326 0.931 . S
H355 C327 0.931 . S
H356 C333 0.931 . S
H357 C334 0.931 . S
H358 C336 0.931 . S
H359 C337 0.931 . S
C360 Eu361 2.835 1_565 S
C360 C362 1.500 . S
C360 O380 1.257 . S
C360 O381 1.260 . S
Eu361 C360 2.835 1_545 S
Eu361 O380 2.473 1_545 S
Eu361 O381 2.480 1_545 S
Eu361 O382 2.430 1_545 S
Eu361 O383 2.670 . S
Eu361 O384 2.394 1_545 S
Eu361 O389 2.355 . S
Eu361 O391 2.374 . S
C362 C360 1.500 . S
C362 C363 1.377 . S
C362 C367 1.377 . S
C363 C362 1.377 . S
C363 C364 1.395 . S
C363 H392 0.931 . S
C364 C363 1.395 . S
C364 C365 1.383 . S
C364 H393 0.931 . S
C365 C364 1.383 . S
C365 C366 1.394 . S
C366 C365 1.394 . S
C366 C367 1.378 . S
C366 H394 0.931 . S
C367 C362 1.377 . S
C367 C366 1.378 . S
C367 H395 0.931 . S
C368 O382 1.259 1_545 S
C368 O383 1.270 . S
C369 O384 1.251 . S
C369 O385 1.251 1_565 S
C370 Eu371 2.835 . S
C370 C372 1.500 . S
C370 O386 1.257 . S
C370 O387 1.260 . S
Eu371 C370 2.835 . S
Eu371 O383 2.355 . S
Eu371 O385 2.374 . S
Eu371 O386 2.473 . S
Eu371 O387 2.480 . S
Eu371 O388 2.430 . S
Eu371 O389 2.670 . S
Eu371 O390 2.394 . S
C372 C370 1.500 . S
C372 C373 1.377 . S
C372 C377 1.377 . S
C373 C372 1.377 . S
C373 C374 1.395 . S
C373 H396 0.931 . S
C374 C373 1.395 . S
C374 C375 1.383 . S
C374 H397 0.931 . S
C375 C374 1.383 . S
C375 C376 1.394 . S
C376 C375 1.394 . S
C376 C377 1.378 . S
C376 H398 0.931 . S
C377 C372 1.377 . S
C377 C376 1.378 . S
C377 H399 0.931 . S
C378 O388 1.259 . S
C378 O389 1.270 . S
C379 O390 1.251 . S
C379 O391 1.251 . S
O380 C360 1.257 . S
O380 Eu361 2.473 1_565 S
O381 C360 1.260 . S
O381 Eu361 2.480 1_565 S
O382 Eu361 2.430 1_565 S
O382 C368 1.259 1_565 S
O383 Eu361 2.670 . S
O383 C368 1.270 . S
O383 Eu371 2.355 . S
O384 Eu361 2.394 1_565 S
O384 C369 1.251 . S
O385 C369 1.251 1_545 S
O385 Eu371 2.374 . S
O386 C370 1.257 . S
O386 Eu371 2.473 . S
O387 C370 1.260 . S
O387 Eu371 2.480 . S
O388 Eu371 2.430 . S
O388 C378 1.259 . S
O389 Eu361 2.355 . S
O389 Eu371 2.670 . S
O389 C378 1.270 . S
O390 Eu371 2.394 . S
O390 C379 1.251 . S
O391 Eu361 2.374 . S
O391 C379 1.251 . S
H392 C363 0.931 . S
H393 C364 0.931 . S
H394 C366 0.931 . S
H395 C367 0.931 . S
H396 C373 0.931 . S
H397 C374 0.931 . S
H398 C376 0.931 . S
H399 C377 0.931 . S
C400 Eu401 2.835 . S
C400 C402 1.500 . S
C400 O420 1.257 . S
C400 O421 1.260 . S
Eu401 C400 2.835 . S
Eu401 O420 2.473 . S
Eu401 O421 2.480 . S
Eu401 O422 2.430 . S
Eu401 O423 2.670 1_545 S
Eu401 O424 2.394 . S
Eu401 O429 2.355 1_545 S
Eu401 O431 2.374 1_545 S
C402 C400 1.500 . S
C402 C403 1.377 . S
C402 C407 1.377 . S
C403 C402 1.377 . S
C403 C404 1.395 . S
C403 H432 0.931 . S
C404 C403 1.395 . S
C404 C405 1.383 . S
C404 H433 0.931 . S
C405 C404 1.383 . S
C405 C406 1.394 . S
C406 C405 1.394 . S
C406 C407 1.378 . S
C406 H434 0.931 . S
C407 C402 1.377 . S
C407 C406 1.378 . S
C407 H435 0.931 . S
C408 O422 1.259 . S
C408 O423 1.270 1_545 S
C409 O424 1.251 . S
C409 O425 1.294 . S
C410 Eu411 2.835 . S
C410 C412 1.500 . S
C410 O426 1.257 . S
C410 O427 1.260 . S
Eu411 C410 2.835 . S
Eu411 O423 2.355 . S
Eu411 O425 2.331 1_565 S
Eu411 O426 2.473 . S
Eu411 O427 2.480 . S
Eu411 O428 2.430 . S
Eu411 O429 2.670 . S
Eu411 O430 2.394 . S
C412 C410 1.500 . S
C412 C413 1.377 . S
C412 C417 1.377 . S
C413 C412 1.377 . S
C413 C414 1.395 . S
C413 H436 0.931 . S
C414 C413 1.395 . S
C414 C415 1.383 . S
C414 H437 0.931 . S
C415 C414 1.383 . S
C415 C416 1.394 . S
C416 C415 1.394 . S
C416 C417 1.378 . S
C416 H438 0.931 . S
C417 C412 1.377 . S
C417 C416 1.378 . S
C417 H439 0.931 . S
C418 O428 1.259 . S
C418 O429 1.270 . S
C419 O430 1.251 . S
C419 O431 1.251 . S
O420 C400 1.257 . S
O420 Eu401 2.473 . S
O421 C400 1.260 . S
O421 Eu401 2.480 . S
O422 Eu401 2.430 . S
O422 C408 1.259 . S
O423 Eu401 2.670 1_565 S
O423 C408 1.270 1_565 S
O423 Eu411 2.355 . S
O424 Eu401 2.394 . S
O424 C409 1.251 . S
O425 C409 1.294 . S
O425 Eu411 2.331 1_545 S
O426 C410 1.257 . S
O426 Eu411 2.473 . S
O427 C410 1.260 . S
O427 Eu411 2.480 . S
O428 Eu411 2.430 . S
O428 C418 1.259 . S
O429 Eu401 2.355 1_565 S
O429 Eu411 2.670 . S
O429 C418 1.270 . S
O430 Eu411 2.394 . S
O430 C419 1.251 . S
O431 Eu401 2.374 1_565 S
O431 C419 1.251 . S
H432 C403 0.931 . S
H433 C404 0.931 . S
H434 C406 0.931 . S
H435 C407 0.931 . S
H436 C413 0.931 . S
H437 C414 0.931 . S
H438 C416 0.931 . S
H439 C417 0.931 . S
C440 Eu441 2.835 . S
C440 C442 1.500 . S
C440 O460 1.257 . S
C440 O461 1.260 . S
Eu441 C440 2.835 . S
Eu441 O460 2.473 . S
Eu441 O461 2.480 . S
Eu441 O462 2.430 . S
Eu441 O463 2.670 . S
Eu441 O464 2.394 . S
Eu441 O469 2.355 . S
Eu441 O471 2.374 . S
C442 C440 1.500 . S
C442 C443 1.377 . S
C442 C447 1.377 . S
C443 C442 1.377 . S
C443 C444 1.395 . S
C443 H472 0.931 . S
C444 C443 1.395 . S
C444 C445 1.383 . S
C444 H473 0.931 . S
C445 C444 1.383 . S
C445 C446 1.394 . S
C446 C445 1.394 . S
C446 C447 1.378 . S
C446 H474 0.931 . S
C447 C442 1.377 . S
C447 C446 1.378 . S
C447 H475 0.931 . S
C448 O462 1.259 . S
C448 O463 1.270 . S
C449 O464 1.251 . S
C449 O465 1.251 . S
C450 Eu451 2.835 . S
C450 C452 1.500 . S
C450 O466 1.257 . S
C450 O467 1.260 . S
Eu451 C450 2.835 . S
Eu451 O463 2.355 . S
Eu451 O465 2.374 . S
Eu451 O466 2.473 . S
Eu451 O467 2.480 . S
Eu451 O468 2.430 . S
Eu451 O469 2.670 . S
Eu451 O470 2.394 . S
C452 C450 1.500 . S
C452 C453 1.377 . S
C452 C457 1.377 . S
C453 C452 1.377 . S
C453 C454 1.395 . S
C453 H476 0.931 . S
C454 C453 1.395 . S
C454 C455 1.383 . S
C454 H477 0.931 . S
C455 C454 1.383 . S
C455 C456 1.394 . S
C456 C455 1.394 . S
C456 C457 1.378 . S
C456 H478 0.931 . S
C457 C452 1.377 . S
C457 C456 1.378 . S
C457 H479 0.931 . S
C458 O468 1.259 . S
C458 O469 1.270 . S
C459 O470 1.251 . S
C459 O471 1.251 . S
O460 C440 1.257 . S
O460 Eu441 2.473 . S
O461 C440 1.260 . S
O461 Eu441 2.480 . S
O462 Eu441 2.430 . S
O462 C448 1.259 . S
O463 Eu441 2.670 . S
O463 C448 1.270 . S
O463 Eu451 2.355 . S
O464 Eu441 2.394 . S
O464 C449 1.251 . S
O465 C449 1.251 . S
O465 Eu451 2.374 . S
O466 C450 1.257 . S
O466 Eu451 2.473 . S
O467 C450 1.260 . S
O467 Eu451 2.480 . S
O468 Eu451 2.430 . S
O468 C458 1.259 . S
O469 Eu441 2.355 . S
O469 Eu451 2.670 . S
O469 C458 1.270 . S
O470 Eu451 2.394 . S
O470 C459 1.251 . S
O471 Eu441 2.374 . S
O471 C459 1.251 . S
H472 C443 0.931 . S
H473 C444 0.931 . S
H474 C446 0.931 . S
H475 C447 0.931 . S
H476 C453 0.931 . S
H477 C454 0.931 . S
H478 C456 0.931 . S
H479 C457 0.931 . S
H480 C498 0.951 . S
H481 C500 0.951 . S
H482 C502 0.950 . S
H483 C503 0.950 . S
H484 C505 0.950 . S
H485 C508 0.950 . S
H486 C509 0.950 . S
H487 C511 0.950 . S
H488 C512 0.950 . S
H489 C513 0.951 . S
H490 C515 0.951 . S
H491 C517 0.950 . S
H492 C518 0.950 . S
H493 C520 0.950 . S
H494 C523 0.950 . S
H495 C524 0.950 . S
H496 C526 0.950 . S
H497 C527 0.950 . S
C498 H480 0.951 . S
C498 C499 1.366 . S
C498 C500 1.388 . S
C499 C498 1.366 . S
C499 C503 1.385 . S
C500 H481 0.951 . S
C500 C498 1.388 . S
C500 C501 1.366 . S
C501 C500 1.366 . S
C501 C502 1.414 . S
C501 C504 1.499 . S
C502 H482 0.950 . S
C502 C501 1.414 . S
C502 C503 1.374 . S
C503 H483 0.950 . S
C503 C499 1.385 . S
C503 C502 1.374 . S
C504 C501 1.499 . S
C504 C505 1.373 . S
C504 C506 1.389 . S
C505 H484 0.950 . S
C505 C504 1.373 . S
C505 C521 1.377 . S
C506 C504 1.389 . S
C506 C507 1.524 . S
C506 C520 1.377 . S
C507 C506 1.524 . S
C507 C508 1.397 . S
C507 C512 1.363 . S
C508 H485 0.950 . S
C508 C507 1.397 . S
C508 C509 1.334 . S
C509 H486 0.950 . S
C509 C508 1.334 . S
C509 C510 1.287 . S
C510 C509 1.287 . S
C510 C511 1.524 . S
C510 H529 0.913 . S
C511 H487 0.950 . S
C511 C510 1.524 . S
C511 C512 1.415 . S
C512 H488 0.950 . S
C512 C507 1.363 . S
C512 C511 1.415 . S
C513 H489 0.951 . S
C513 C514 1.366 . S
C513 C515 1.388 . S
C514 C513 1.366 . S
C514 C518 1.385 . S
C515 H490 0.951 . S
C515 C513 1.388 . S
C515 C516 1.366 . S
C516 C515 1.366 . S
C516 C517 1.414 . S
C516 C519 1.499 . S
C517 H491 0.950 . S
C517 C516 1.414 . S
C517 C518 1.374 . S
C518 H492 0.950 . S
C518 C514 1.385 . S
C518 C517 1.374 . S
C519 C516 1.499 . S
C519 C520 1.373 . S
C519 C521 1.389 . S
C520 H493 0.950 . S
C520 C506 1.377 . S
C520 C519 1.373 . S
C521 C505 1.377 . S
C521 C519 1.389 . S
C521 C522 1.524 . S
C522 C521 1.524 . S
C522 C523 1.397 . S
C522 C527 1.363 . S
C523 H494 0.950 . S
C523 C522 1.397 . S
C523 C524 1.334 . S
C524 H495 0.950 . S
C524 C523 1.334 . S
C524 C525 1.287 . S
C525 C524 1.287 . S
C525 C526 1.524 . S
C525 H528 0.999 . S
C526 H496 0.950 . S
C526 C525 1.524 . S
C526 C527 1.415 . S
C527 H497 0.950 . S
C527 C522 1.363 . S
C527 C526 1.415 . S
H528 C525 0.999 . S
H529 C510 0.913 . S
H530 C548 0.951 . S
H531 C550 0.951 . S
H532 C552 0.950 . S
H533 C553 0.950 1_545 S
H534 C555 0.950 . S
H535 C558 0.950 . S
H536 C559 0.950 . S
H537 C561 0.952 . S
H538 C562 0.950 . S
H539 C563 0.951 . S
H540 C565 0.951 . S
H541 C567 0.950 . S
H542 C568 0.950 . S
H543 C570 0.950 . S
H544 C573 0.950 . S
H545 C574 0.950 . S
H546 C576 0.950 . S
H547 C577 0.950 . S
C548 H530 0.951 . S
C548 C549 1.366 . S
C548 C550 1.388 . S
C549 C548 1.366 . S
C549 C553 1.385 . S
C550 H531 0.951 . S
C550 C548 1.388 . S
C550 C551 1.366 . S
C551 C550 1.366 . S
C551 C552 1.414 . S
C551 C554 1.499 . S
C552 H532 0.950 . S
C552 C551 1.414 . S
C552 C553 1.374 . S
C553 H533 0.950 1_565 S
C553 C549 1.385 . S
C553 C552 1.374 . S
C554 C551 1.499 . S
C554 C555 1.373 . S
C554 C556 1.389 . S
C555 H534 0.950 . S
C555 C554 1.373 . S
C555 C571 1.377 . S
C556 C554 1.389 . S
C556 C557 1.524 . S
C556 C570 1.377 . S
C557 C556 1.524 . S
C557 C558 1.397 1_565 S
C557 C562 1.363 . S
C558 H535 0.950 . S
C558 C557 1.397 1_545 S
C558 C559 1.334 . S
C559 H536 0.950 . S
C559 C558 1.334 . S
C559 C560 1.287 . S
C560 C559 1.287 . S
C560 C561 1.511 1_545 S
C560 H579 0.913 . S
C561 H537 0.952 . S
C561 C560 1.511 1_565 S
C561 C562 1.425 . S
C562 H538 0.950 . S
C562 C557 1.363 . S
C562 C561 1.425 . S
C563 H539 0.951 . S
C563 C564 1.366 . S
C563 C565 1.388 . S
C564 C563 1.366 . S
C564 C568 1.385 . S
C565 H540 0.951 . S
C565 C563 1.388 . S
C565 C566 1.366 . S
C566 C565 1.366 . S
C566 C567 1.414 . S
C566 C569 1.499 . S
C567 H541 0.950 . S
C567 C566 1.414 . S
C567 C568 1.374 . S
C568 H542 0.950 . S
C568 C564 1.385 . S
C568 C567 1.374 . S
C569 C566 1.499 . S
C569 C570 1.373 . S
C569 C571 1.389 . S
C570 H543 0.950 . S
C570 C556 1.377 . S
C570 C569 1.373 . S
C571 C555 1.377 . S
C571 C569 1.389 . S
C571 C572 1.524 . S
C572 C571 1.524 . S
C572 C573 1.397 . S
C572 C577 1.363 . S
C573 H544 0.950 . S
C573 C572 1.397 . S
C573 C574 1.334 . S
C574 H545 0.950 . S
C574 C573 1.334 . S
C574 C575 1.287 . S
C575 C574 1.287 . S
C575 C576 1.524 . S
C575 H578 0.999 . S
C576 H546 0.950 . S
C576 C575 1.524 . S
C576 C577 1.415 . S
C577 H547 0.950 . S
C577 C572 1.363 . S
C577 C576 1.415 . S
H578 C575 0.999 . S
H579 C560 0.913 . S
H580 C598 0.951 . S
H581 C600 0.951 . S
H582 C602 0.973 . S
H583 C603 0.907 1_556 S
H584 C605 0.950 . S
H585 C608 0.950 . S
H586 C609 0.950 . S
H587 C611 0.950 . S
H588 C612 0.950 . S
H589 C613 0.951 . S
H590 C615 0.951 . S
H591 C617 0.950 . S
H592 C618 0.950 . S
H593 C620 0.950 . S
H594 C623 0.950 . S
H595 C624 0.950 . S
H596 C626 0.950 . S
H597 C627 0.941 1_556 S
C598 H580 0.951 . S
C598 C599 1.366 . S
C598 C600 1.388 . S
C599 C598 1.366 . S
C599 C603 1.410 . S
C600 H581 0.951 . S
C600 C598 1.388 . S
C600 C601 1.366 . S
C601 C600 1.366 . S
C601 C602 1.414 . S
C601 C604 1.499 . S
C602 H582 0.973 . S
C602 C601 1.414 . S
C602 C603 1.393 . S
C603 H583 0.907 1_554 S
C603 C599 1.410 . S
C603 C602 1.393 . S
C604 C601 1.499 . S
C604 C605 1.373 . S
C604 C606 1.389 . S
C605 H584 0.950 . S
C605 C604 1.373 . S
C605 C621 1.377 . S
C606 C604 1.389 . S
C606 C607 1.524 . S
C606 C620 1.377 . S
C607 C606 1.524 . S
C607 C608 1.397 . S
C607 C612 1.363 . S
C608 H585 0.950 . S
C608 C607 1.397 . S
C608 C609 1.334 . S
C609 H586 0.950 . S
C609 C608 1.334 . S
C609 C610 1.287 . S
C610 C609 1.287 . S
C610 C611 1.524 . S
C610 H629 0.913 . S
C611 H587 0.950 . S
C611 C610 1.524 . S
C611 C612 1.415 . S
C612 H588 0.950 . S
C612 C607 1.363 . S
C612 C611 1.415 . S
C613 H589 0.951 . S
C613 C614 1.366 . S
C613 C615 1.388 . S
C614 C613 1.366 . S
C614 C618 1.385 . S
C615 H590 0.951 . S
C615 C613 1.388 . S
C615 C616 1.366 . S
C616 C615 1.366 . S
C616 C617 1.414 . S
C616 C619 1.499 . S
C617 H591 0.950 . S
C617 C616 1.414 . S
C617 C618 1.374 . S
C618 H592 0.950 . S
C618 C614 1.385 . S
C618 C617 1.374 . S
C619 C616 1.499 . S
C619 C620 1.373 . S
C619 C621 1.389 . S
C620 H593 0.950 . S
C620 C606 1.377 . S
C620 C619 1.373 . S
C621 C605 1.377 . S
C621 C619 1.389 . S
C621 C622 1.524 . S
C622 C621 1.524 . S
C622 C623 1.397 . S
C622 C627 1.363 . S
C623 H594 0.950 . S
C623 C622 1.397 . S
C623 C624 1.334 . S
C624 H595 0.950 . S
C624 C623 1.334 . S
C624 C625 1.287 . S
C625 C624 1.287 . S
C625 C626 1.524 1_554 S
C625 H628 0.999 . S
C626 H596 0.950 . S
C626 C625 1.524 1_556 S
C626 C627 1.415 1_556 S
C627 H597 0.941 1_554 S
C627 C622 1.363 . S
C627 C626 1.415 1_554 S
H628 C625 0.999 . S
H629 C610 0.913 . S
H630 C648 0.951 . S
H631 C650 0.951 . S
H632 C652 0.950 . S
H633 C653 0.950 . S
H634 C655 0.950 . S
H635 C658 0.950 . S
H636 C659 0.950 . S
H637 C661 0.950 . S
H638 C662 0.950 . S
H639 C663 0.951 1_565 S
H640 C665 0.951 . S
H641 C667 0.950 . S
H642 C668 0.950 . S
H643 C670 0.950 . S
H644 C673 0.950 . S
H645 C674 0.950 . S
H646 C676 0.946 1_565 S
H647 C677 0.950 . S
C648 H630 0.951 . S
C648 C649 1.366 . S
C648 C650 1.388 . S
C649 C648 1.366 . S
C649 C653 1.385 . S
C650 H631 0.951 . S
C650 C648 1.388 . S
C650 C651 1.366 . S
C651 C650 1.366 . S
C651 C652 1.414 . S
C651 C654 1.499 . S
C652 H632 0.950 . S
C652 C651 1.414 . S
C652 C653 1.374 . S
C653 H633 0.950 . S
C653 C649 1.385 . S
C653 C652 1.374 . S
C654 C651 1.499 . S
C654 C655 1.373 . S
C654 C656 1.389 . S
C655 H634 0.950 . S
C655 C654 1.373 . S
C655 C671 1.377 . S
C656 C654 1.389 . S
C656 C657 1.524 . S
C656 C670 1.377 . S
C657 C656 1.524 . S
C657 C658 1.397 . S
C657 C662 1.363 . S
C658 H635 0.950 . S
C658 C657 1.397 . S
C658 C659 1.334 . S
C659 H636 0.950 . S
C659 C658 1.334 . S
C659 C660 1.287 . S
C660 C659 1.287 . S
C660 C661 1.524 . S
C660 H679 0.913 . S
C661 H637 0.950 . S
C661 C660 1.524 . S
C661 C662 1.415 . S
C662 H638 0.950 . S
C662 C657 1.363 . S
C662 C661 1.415 . S
C663 H639 0.951 1_545 S
C663 C664 1.366 . S
C663 C665 1.388 . S
C664 C663 1.366 . S
C664 C668 1.385 . S
C665 H640 0.951 . S
C665 C663 1.388 . S
C665 C666 1.366 . S
C666 C665 1.366 . S
C666 C667 1.414 . S
C666 C669 1.499 . S
C667 H641 0.950 . S
C667 C666 1.414 . S
C667 C668 1.374 . S
C668 H642 0.950 . S
C668 C664 1.385 . S
C668 C667 1.374 . S
C669 C666 1.499 . S
C669 C670 1.373 . S
C669 C671 1.389 . S
C670 H643 0.950 . S
C670 C656 1.377 . S
C670 C669 1.373 . S
C671 C655 1.377 . S
C671 C669 1.389 . S
C671 C672 1.524 . S
C672 C671 1.524 . S
C672 C673 1.397 . S
C672 C677 1.363 . S
C673 H644 0.950 . S
C673 C672 1.397 . S
C673 C674 1.334 . S
C674 H645 0.950 . S
C674 C673 1.334 . S
C674 C675 1.287 . S
C675 C674 1.287 . S
C675 C676 1.526 . S
C675 H678 0.999 . S
C676 H646 0.946 1_545 S
C676 C675 1.526 . S
C676 C677 1.417 . S
C677 H647 0.950 . S
C677 C672 1.363 . S
C677 C676 1.417 . S
H678 C675 0.999 . S
H679 C660 0.913 . S
H680 C698 0.951 . S
H681 C700 0.951 . S
H682 C702 0.950 . S
H683 C703 0.950 . S
H684 C705 0.950 . S
H685 C708 0.950 . S
H686 C709 0.950 . S
H687 C711 0.950 . S
H688 C712 0.950 . S
H689 C713 0.951 . S
H690 C715 0.951 . S
H691 C717 0.950 . S
H692 C718 0.950 . S
H693 C720 0.950 . S
H694 C723 0.950 . S
H695 C724 0.950 . S
H696 C726 0.950 . S
H697 C727 0.950 . S
C698 H680 0.951 . S
C698 C699 1.366 . S
C698 C700 1.388 . S
C699 C698 1.366 . S
C699 C703 1.385 . S
C700 H681 0.951 . S
C700 C698 1.388 . S
C700 C701 1.366 . S
C701 C700 1.366 . S
C701 C702 1.414 . S
C701 C704 1.499 . S
C702 H682 0.950 . S
C702 C701 1.414 . S
C702 C703 1.374 . S
C703 H683 0.950 . S
C703 C699 1.385 . S
C703 C702 1.374 . S
C704 C701 1.499 . S
C704 C705 1.373 . S
C704 C706 1.389 . S
C705 H684 0.950 . S
C705 C704 1.373 . S
C705 C721 1.377 . S
C706 C704 1.389 . S
C706 C707 1.524 . S
C706 C720 1.377 . S
C707 C706 1.524 . S
C707 C708 1.397 . S
C707 C712 1.363 . S
C708 H685 0.950 . S
C708 C707 1.397 . S
C708 C709 1.334 . S
C709 H686 0.950 . S
C709 C708 1.334 . S
C709 C710 1.287 . S
C710 C709 1.287 . S
C710 C711 1.524 . S
C710 H729 0.913 . S
C711 H687 0.950 . S
C711 C710 1.524 . S
C711 C712 1.415 . S
C712 H688 0.950 . S
C712 C707 1.363 . S
C712 C711 1.415 . S
C713 H689 0.951 . S
C713 C714 1.366 . S
C713 C715 1.388 . S
C714 C713 1.366 . S
C714 C718 1.385 . S
C715 H690 0.951 . S
C715 C713 1.388 . S
C715 C716 1.366 . S
C716 C715 1.366 . S
C716 C717 1.414 . S
C716 C719 1.499 . S
C717 H691 0.950 . S
C717 C716 1.414 . S
C717 C718 1.374 . S
C718 H692 0.950 . S
C718 C714 1.385 . S
C718 C717 1.374 . S
C719 C716 1.499 . S
C719 C720 1.373 . S
C719 C721 1.389 . S
C720 H693 0.950 . S
C720 C706 1.377 . S
C720 C719 1.373 . S
C721 C705 1.377 . S
C721 C719 1.389 . S
C721 C722 1.524 . S
C722 C721 1.524 . S
C722 C723 1.397 . S
C722 C727 1.363 . S
C723 H694 0.950 . S
C723 C722 1.397 . S
C723 C724 1.334 . S
C724 H695 0.950 . S
C724 C723 1.334 . S
C724 C725 1.287 . S
C725 C724 1.287 . S
C725 C726 1.524 . S
C725 H728 0.999 . S
C726 H696 0.950 . S
C726 C725 1.524 . S
C726 C727 1.415 . S
C727 H697 0.950 . S
C727 C722 1.363 . S
C727 C726 1.415 . S
H728 C725 0.999 . S
H729 C710 0.913 . S
H730 C748 0.951 . S
H731 C750 0.951 . S
H732 C752 0.950 . S
H733 C753 0.950 . S
H734 C755 0.950 . S
H735 C758 0.950 . S
H736 C759 0.950 . S
H737 C761 0.950 . S
H738 C762 0.950 . S
H739 C763 0.951 . S
H740 C765 0.951 . S
H741 C767 0.950 . S
H742 C768 0.950 . S
H743 C770 0.950 . S
H744 C773 0.950 . S
H745 C774 0.950 . S
H746 C776 0.950 . S
H747 C777 0.950 . S
C748 H730 0.951 . S
C748 C749 1.366 . S
C748 C750 1.388 . S
C749 C748 1.366 . S
C749 C753 1.385 . S
C750 H731 0.951 . S
C750 C748 1.388 . S
C750 C751 1.366 . S
C751 C750 1.366 . S
C751 C752 1.414 . S
C751 C754 1.499 . S
C752 H732 0.950 . S
C752 C751 1.414 . S
C752 C753 1.374 . S
C753 H733 0.950 . S
C753 C749 1.385 . S
C753 C752 1.374 . S
C754 C751 1.499 . S
C754 C755 1.373 . S
C754 C756 1.389 . S
C755 H734 0.950 . S
C755 C754 1.373 . S
C755 C771 1.377 . S
C756 C754 1.389 . S
C756 C757 1.524 . S
C756 C770 1.377 . S
C757 C756 1.524 . S
C757 C758 1.397 . S
C757 C762 1.363 . S
C758 H735 0.950 . S
C758 C757 1.397 . S
C758 C759 1.334 . S
C759 H736 0.950 . S
C759 C758 1.334 . S
C759 C760 1.287 . S
C760 C759 1.287 . S
C760 C761 1.524 . S
C760 H779 0.913 . S
C761 H737 0.950 . S
C761 C760 1.524 . S
C761 C762 1.415 . S
C762 H738 0.950 . S
C762 C757 1.363 . S
C762 C761 1.415 . S
C763 H739 0.951 . S
C763 C764 1.366 . S
C763 C765 1.388 . S
C764 C763 1.366 . S
C764 C768 1.385 . S
C765 H740 0.951 . S
C765 C763 1.388 . S
C765 C766 1.366 . S
C766 C765 1.366 . S
C766 C767 1.414 . S
C766 C769 1.499 . S
C767 H741 0.950 . S
C767 C766 1.414 . S
C767 C768 1.374 . S
C768 H742 0.950 . S
C768 C764 1.385 . S
C768 C767 1.374 . S
C769 C766 1.499 . S
C769 C770 1.373 . S
C769 C771 1.389 . S
C770 H743 0.950 . S
C770 C756 1.377 . S
C770 C769 1.373 . S
C771 C755 1.377 . S
C771 C769 1.389 . S
C771 C772 1.524 . S
C772 C771 1.524 . S
C772 C773 1.397 . S
C772 C777 1.363 . S
C773 H744 0.950 . S
C773 C772 1.397 . S
C773 C774 1.334 . S
C774 H745 0.950 . S
C774 C773 1.334 . S
C774 C775 1.287 . S
C775 C774 1.287 . S
C775 C776 1.524 . S
C775 H778 0.999 . S
C776 H746 0.950 . S
C776 C775 1.524 . S
C776 C777 1.415 . S
C777 H747 0.950 . S
C777 C772 1.363 . S
C777 C776 1.415 . S
H778 C775 0.999 . S
H779 C760 0.913 . S
H780 C798 0.951 . S
H781 C800 0.951 . S
H782 C802 0.950 . S
H783 C803 0.950 . S
H784 C805 0.950 . S
H785 C808 0.950 . S
H786 C809 0.950 . S
H787 C811 0.950 . S
H788 C812 0.950 . S
H789 C813 0.951 . S
H790 C815 0.951 . S
H791 C817 0.950 . S
H792 C818 0.950 . S
H793 C820 0.950 1_554 S
H794 C823 0.950 . S
H795 C824 0.950 . S
H796 C826 0.950 . S
H797 C827 0.950 . S
C798 H780 0.951 . S
C798 C799 1.366 . S
C798 C800 1.388 . S
C799 C798 1.366 . S
C799 C803 1.385 . S
C800 H781 0.951 . S
C800 C798 1.388 . S
C800 C801 1.366 . S
C801 C800 1.366 . S
C801 C802 1.414 . S
C801 C804 1.499 . S
C802 H782 0.950 . S
C802 C801 1.414 . S
C802 C803 1.374 . S
C803 H783 0.950 . S
C803 C799 1.385 . S
C803 C802 1.374 . S
C804 C801 1.499 . S
C804 C805 1.373 . S
C804 C806 1.389 . S
C805 H784 0.950 . S
C805 C804 1.373 . S
C805 C821 1.377 . S
C806 C804 1.389 . S
C806 C807 1.524 1_556 S
C806 C820 1.377 . S
C807 C806 1.524 1_554 S
C807 C808 1.397 1_554 S
C807 C812 1.363 . S
C808 H785 0.950 . S
C808 C807 1.397 1_556 S
C808 C809 1.334 1_556 S
C809 H786 0.950 . S
C809 C808 1.334 1_554 S
C809 C810 1.287 . S
C810 C809 1.287 . S
C810 C811 1.524 . S
C810 H829 0.913 . S
C811 H787 0.950 . S
C811 C810 1.524 . S
C811 C812 1.415 . S
C812 H788 0.950 . S
C812 C807 1.363 . S
C812 C811 1.415 . S
C813 H789 0.951 . S
C813 C814 1.366 . S
C813 C815 1.388 . S
C814 C813 1.366 . S
C814 C818 1.385 1_556 S
C815 H790 0.951 . S
C815 C813 1.388 . S
C815 C816 1.366 . S
C816 C815 1.366 . S
C816 C817 1.414 1_556 S
C816 C819 1.499 . S
C817 H791 0.950 . S
C817 C816 1.414 1_554 S
C817 C818 1.374 . S
C818 H792 0.950 . S
C818 C814 1.385 1_554 S
C818 C817 1.374 . S
C819 C816 1.499 . S
C819 C820 1.373 . S
C819 C821 1.389 . S
C820 H793 0.950 1_556 S
C820 C806 1.377 . S
C820 C819 1.373 . S
C821 C805 1.377 . S
C821 C819 1.389 . S
C821 C822 1.524 . S
C822 C821 1.524 . S
C822 C823 1.397 . S
C822 C827 1.363 . S
C823 H794 0.950 . S
C823 C822 1.397 . S
C823 C824 1.334 . S
C824 H795 0.950 . S
C824 C823 1.334 . S
C824 C825 1.287 . S
C825 C824 1.287 . S
C825 C826 1.524 . S
C825 H828 0.999 . S
C826 H796 0.950 . S
C826 C825 1.524 . S
C826 C827 1.415 . S
C827 H797 0.950 . S
C827 C822 1.363 . S
C827 C826 1.415 . S
H828 C825 0.999 . S
H829 C810 0.913 . S
H830 C848 0.951 . S
H831 C850 0.951 . S
H832 C852 0.950 . S
H833 C853 0.950 . S
H834 C855 0.950 . S
H835 C858 0.950 . S
H836 C859 0.950 . S
H837 C861 0.950 . S
H838 C862 0.950 . S
H839 C863 0.951 . S
H840 C865 0.951 . S
H841 C867 0.950 . S
H842 C868 0.950 . S
H843 C870 0.950 . S
H844 C873 0.950 . S
H845 C874 0.950 . S
H846 C876 0.950 . S
H847 C877 0.950 . S
C848 H830 0.951 . S
C848 C849 1.366 . S
C848 C850 1.388 . S
C849 C848 1.366 . S
C849 C853 1.385 . S
C850 H831 0.951 . S
C850 C848 1.388 . S
C850 C851 1.366 . S
C851 C850 1.366 . S
C851 C852 1.414 . S
C851 C854 1.499 . S
C852 H832 0.950 . S
C852 C851 1.414 . S
C852 C853 1.374 . S
C853 H833 0.950 . S
C853 C849 1.385 . S
C853 C852 1.374 . S
C854 C851 1.499 . S
C854 C855 1.373 . S
C854 C856 1.389 . S
C855 H834 0.950 . S
C855 C854 1.373 . S
C855 C871 1.377 . S
C856 C854 1.389 . S
C856 C857 1.524 . S
C856 C870 1.377 . S
C857 C856 1.524 . S
C857 C858 1.397 . S
C857 C862 1.363 . S
C858 H835 0.950 . S
C858 C857 1.397 . S
C858 C859 1.334 . S
C859 H836 0.950 . S
C859 C858 1.334 . S
C859 C860 1.287 . S
C860 C859 1.287 . S
C860 C861 1.524 . S
C860 H879 0.913 . S
C861 H837 0.950 . S
C861 C860 1.524 . S
C861 C862 1.415 . S
C862 H838 0.950 . S
C862 C857 1.363 . S
C862 C861 1.415 . S
C863 H839 0.951 . S
C863 C864 1.366 . S
C863 C865 1.388 . S
C864 C863 1.366 . S
C864 C868 1.385 . S
C865 H840 0.951 . S
C865 C863 1.388 . S
C865 C866 1.366 . S
C866 C865 1.366 . S
C866 C867 1.414 . S
C866 C869 1.499 . S
C867 H841 0.950 . S
C867 C866 1.414 . S
C867 C868 1.374 . S
C868 H842 0.950 . S
C868 C864 1.385 . S
C868 C867 1.374 . S
C869 C866 1.499 . S
C869 C870 1.373 . S
C869 C871 1.389 . S
C870 H843 0.950 . S
C870 C856 1.377 . S
C870 C869 1.373 . S
C871 C855 1.377 . S
C871 C869 1.389 . S
C871 C872 1.524 . S
C872 C871 1.524 . S
C872 C873 1.397 . S
C872 C877 1.363 . S
C873 H844 0.950 . S
C873 C872 1.397 . S
C873 C874 1.334 . S
C874 H845 0.950 . S
C874 C873 1.334 . S
C874 C875 1.287 . S
C875 C874 1.287 . S
C875 C876 1.524 . S
C875 H878 0.999 . S
C876 H846 0.950 . S
C876 C875 1.524 . S
C876 C877 1.415 . S
C877 H847 0.950 . S
C877 C872 1.363 . S
C877 C876 1.415 . S
H878 C875 0.999 . S
H879 C860 0.913 . S
H880 C898 0.951 . S
H881 C900 0.951 . S
H882 C902 0.950 . S
H883 C903 0.950 . S
H884 C905 0.950 . S
H885 C908 0.950 . S
H886 C909 0.950 . S
H887 C911 0.950 . S
H888 C912 0.950 . S
H889 C913 0.951 . S
H890 C915 0.951 . S
H891 C917 0.950 . S
H892 C918 0.950 . S
H893 C920 0.950 . S
H894 C923 0.950 . S
H895 C924 0.950 . S
H896 C926 0.950 . S
H897 C927 0.950 . S
C898 H880 0.951 . S
C898 C899 1.366 . S
C898 C900 1.388 . S
C899 C898 1.366 . S
C899 C903 1.385 . S
C900 H881 0.951 . S
C900 C898 1.388 . S
C900 C901 1.366 . S
C901 C900 1.366 . S
C901 C902 1.414 . S
C901 C904 1.499 . S
C902 H882 0.950 . S
C902 C901 1.414 . S
C902 C903 1.374 . S
C903 H883 0.950 . S
C903 C899 1.385 . S
C903 C902 1.374 . S
C904 C901 1.499 . S
C904 C905 1.373 . S
C904 C906 1.389 . S
C905 H884 0.950 . S
C905 C904 1.373 . S
C905 C921 1.377 . S
C906 C904 1.389 . S
C906 C907 1.524 . S
C906 C920 1.377 . S
C907 C906 1.524 . S
C907 C908 1.397 . S
C907 C912 1.363 . S
C908 H885 0.950 . S
C908 C907 1.397 . S
C908 C909 1.334 . S
C909 H886 0.950 . S
C909 C908 1.334 . S
C909 C910 1.287 . S
C910 C909 1.287 . S
C910 C911 1.524 . S
C910 H929 0.913 . S
C911 H887 0.950 . S
C911 C910 1.524 . S
C911 C912 1.415 . S
C912 H888 0.950 . S
C912 C907 1.363 . S
C912 C911 1.415 . S
C913 H889 0.951 . S
C913 C914 1.366 . S
C913 C915 1.388 . S
C914 C913 1.366 . S
C914 C918 1.385 . S
C915 H890 0.951 . S
C915 C913 1.388 . S
C915 C916 1.366 . S
C916 C915 1.366 . S
C916 C917 1.414 . S
C916 C919 1.499 . S
C917 H891 0.950 . S
C917 C916 1.414 . S
C917 C918 1.374 . S
C918 H892 0.950 . S
C918 C914 1.385 . S
C918 C917 1.374 . S
C919 C916 1.499 . S
C919 C920 1.373 . S
C919 C921 1.389 . S
C920 H893 0.950 . S
C920 C906 1.377 . S
C920 C919 1.373 . S
C921 C905 1.377 . S
C921 C919 1.389 . S
C921 C922 1.524 . S
C922 C921 1.524 . S
C922 C923 1.397 . S
C922 C927 1.363 . S
C923 H894 0.950 . S
C923 C922 1.397 . S
C923 C924 1.334 . S
C924 H895 0.950 . S
C924 C923 1.334 . S
C924 C925 1.287 . S
C925 C924 1.287 . S
C925 C926 1.524 . S
C925 H928 0.999 . S
C926 H896 0.950 . S
C926 C925 1.524 . S
C926 C927 1.415 . S
C927 H897 0.950 . S
C927 C922 1.363 . S
C927 C926 1.415 . S
H928 C925 0.999 . S
H929 C910 0.913 . S
H930 C948 0.951 . S
H931 C950 0.951 . S
H932 C952 0.950 . S
H933 C953 0.950 . S
H934 C955 0.950 . S
H935 C958 0.950 . S
H936 C959 0.950 . S
H937 C961 0.950 . S
H938 C962 0.950 . S
H939 C963 0.951 . S
H940 C965 0.951 . S
H941 C967 0.950 . S
H942 C968 0.950 . S
H943 C970 0.950 . S
H944 C973 0.950 . S
H945 C974 0.950 . S
H946 C976 0.950 . S
H947 C977 0.950 . S
C948 H930 0.951 . S
C948 C949 1.366 . S
C948 C950 1.388 . S
C949 C948 1.366 . S
C949 C953 1.385 . S
C950 H931 0.951 . S
C950 C948 1.388 . S
C950 C951 1.366 . S
C951 C950 1.366 . S
C951 C952 1.414 . S
C951 C954 1.499 . S
C952 H932 0.950 . S
C952 C951 1.414 . S
C952 C953 1.374 . S
C953 H933 0.950 . S
C953 C949 1.385 . S
C953 C952 1.374 . S
C954 C951 1.499 . S
C954 C955 1.373 . S
C954 C956 1.389 . S
C955 H934 0.950 . S
C955 C954 1.373 . S
C955 C971 1.377 . S
C956 C954 1.389 . S
C956 C957 1.524 . S
C956 C970 1.377 . S
C957 C956 1.524 . S
C957 C958 1.397 . S
C957 C962 1.363 . S
C958 H935 0.950 . S
C958 C957 1.397 . S
C958 C959 1.334 . S
C959 H936 0.950 . S
C959 C958 1.334 . S
C959 C960 1.287 . S
C960 C959 1.287 . S
C960 C961 1.524 . S
C960 H979 0.913 . S
C961 H937 0.950 . S
C961 C960 1.524 . S
C961 C962 1.415 . S
C962 H938 0.950 . S
C962 C957 1.363 . S
C962 C961 1.415 . S
C963 H939 0.951 . S
C963 C964 1.366 . S
C963 C965 1.388 . S
C964 C963 1.366 . S
C964 C968 1.385 . S
C965 H940 0.951 . S
C965 C963 1.388 . S
C965 C966 1.366 . S
C966 C965 1.366 . S
C966 C967 1.414 . S
C966 C969 1.499 . S
C967 H941 0.950 . S
C967 C966 1.414 . S
C967 C968 1.374 . S
C968 H942 0.950 . S
C968 C964 1.385 . S
C968 C967 1.374 . S
C969 C966 1.499 . S
C969 C970 1.373 . S
C969 C971 1.389 . S
C970 H943 0.950 . S
C970 C956 1.377 . S
C970 C969 1.373 . S
C971 C955 1.377 . S
C971 C969 1.389 . S
C971 C972 1.524 . S
C972 C971 1.524 . S
C972 C973 1.397 . S
C972 C977 1.363 . S
C973 H944 0.950 . S
C973 C972 1.397 . S
C973 C974 1.334 . S
C974 H945 0.950 . S
C974 C973 1.334 . S
C974 C975 1.287 . S
C975 C974 1.287 . S
C975 C976 1.524 . S
C975 H978 0.999 . S
C976 H946 0.950 . S
C976 C975 1.524 . S
C976 C977 1.415 . S
C977 H947 0.950 . S
C977 C972 1.363 . S
C977 C976 1.415 . S
H978 C975 0.999 . S
H979 C960 0.913 . S
H980 C998 0.951 . S
H981 C1000 0.951 . S
H982 C1002 0.950 . S
H983 C1003 0.950 1_455 S
H984 C1005 0.950 . S
H985 C1008 0.950 . S
H986 C1009 0.950 . S
H987 C1011 0.950 . S
H988 C1012 0.950 . S
H989 C1013 0.951 . S
H990 C1015 0.951 . S
H991 C1017 0.950 . S
H992 C1018 0.950 . S
H993 C1020 0.950 . S
H994 C1023 0.950 . S
H995 C1024 0.950 . S
H996 C1026 0.950 . S
H997 C1027 0.950 . S
C998 H980 0.951 . S
C998 C999 1.366 . S
C998 C1000 1.388 . S
C999 C998 1.366 . S
C999 C1003 1.385 . S
C1000 H981 0.951 . S
C1000 C998 1.388 . S
C1000 C1001 1.366 . S
C1001 C1000 1.366 . S
C1001 C1002 1.414 . S
C1001 C1004 1.499 . S
C1002 H982 0.950 . S
C1002 C1001 1.414 . S
C1002 C1003 1.374 . S
C1003 H983 0.950 1_655 S
C1003 C999 1.385 . S
C1003 C1002 1.374 . S
C1004 C1001 1.499 . S
C1004 C1005 1.373 . S
C1004 C1006 1.389 . S
C1005 H984 0.950 . S
C1005 C1004 1.373 . S
C1005 C1021 1.377 . S
C1006 C1004 1.389 . S
C1006 C1007 1.524 . S
C1006 C1020 1.377 . S
C1007 C1006 1.524 . S
C1007 C1008 1.397 1_655 S
C1007 C1012 1.363 . S
C1008 H985 0.950 . S
C1008 C1007 1.397 1_455 S
C1008 C1009 1.334 . S
C1009 H986 0.950 . S
C1009 C1008 1.334 . S
C1009 C1010 1.287 . S
C1010 C1009 1.287 . S
C1010 C1011 1.524 1_455 S
C1010 H1029 0.913 . S
C1011 H987 0.950 . S
C1011 C1010 1.524 1_655 S
C1011 C1012 1.415 . S
C1012 H988 0.950 . S
C1012 C1007 1.363 . S
C1012 C1011 1.415 . S
C1013 H989 0.951 . S
C1013 C1014 1.366 . S
C1013 C1015 1.388 . S
C1014 C1013 1.366 . S
C1014 C1018 1.385 . S
C1015 H990 0.951 . S
C1015 C1013 1.388 . S
C1015 C1016 1.366 . S
C1016 C1015 1.366 . S
C1016 C1017 1.414 . S
C1016 C1019 1.499 . S
C1017 H991 0.950 . S
C1017 C1016 1.414 . S
C1017 C1018 1.374 . S
C1018 H992 0.950 . S
C1018 C1014 1.385 . S
C1018 C1017 1.374 . S
C1019 C1016 1.499 . S
C1019 C1020 1.373 . S
C1019 C1021 1.389 . S
C1020 H993 0.950 . S
C1020 C1006 1.377 . S
C1020 C1019 1.373 . S
C1021 C1005 1.377 . S
C1021 C1019 1.389 . S
C1021 C1022 1.524 . S
C1022 C1021 1.524 . S
C1022 C1023 1.397 . S
C1022 C1027 1.363 . S
C1023 H994 0.950 . S
C1023 C1022 1.397 . S
C1023 C1024 1.334 . S
C1024 H995 0.950 . S
C1024 C1023 1.334 . S
C1024 C1025 1.287 . S
C1025 C1024 1.287 . S
C1025 C1026 1.524 . S
C1025 H1028 0.999 . S
C1026 H996 0.950 . S
C1026 C1025 1.524 . S
C1026 C1027 1.415 . S
C1027 H997 0.950 . S
C1027 C1022 1.363 . S
C1027 C1026 1.415 . S
H1028 C1025 0.999 . S
H1029 C1010 0.913 . S
H1030 C1048 0.951 . S
H1031 C1050 0.951 . S
H1032 C1052 0.950 . S
H1033 C1053 0.950 . S
H1034 C1055 0.950 . S
H1035 C1058 0.950 . S
H1036 C1059 0.950 . S
H1037 C1061 0.950 . S
H1038 C1062 0.950 . S
H1039 C1063 0.951 . S
H1040 C1065 0.951 . S
H1041 C1067 0.950 . S
H1042 C1068 0.950 . S
H1043 C1070 0.950 . S
H1044 C1073 0.950 . S
H1045 C1074 0.950 . S
H1046 C1076 0.950 . S
H1047 C1077 0.950 . S
C1048 H1030 0.951 . S
C1048 C1049 1.366 . S
C1048 C1050 1.388 . S
C1049 C1048 1.366 . S
C1049 C1053 1.385 . S
C1050 H1031 0.951 . S
C1050 C1048 1.388 . S
C1050 C1051 1.366 . S
C1051 C1050 1.366 . S
C1051 C1052 1.414 . S
C1051 C1054 1.499 . S
C1052 H1032 0.950 . S
C1052 C1051 1.414 . S
C1052 C1053 1.374 . S
C1053 H1033 0.950 . S
C1053 C1049 1.385 . S
C1053 C1052 1.374 . S
C1054 C1051 1.499 . S
C1054 C1055 1.373 . S
C1054 C1056 1.389 . S
C1055 H1034 0.950 . S
C1055 C1054 1.373 . S
C1055 C1071 1.377 . S
C1056 C1054 1.389 . S
C1056 C1057 1.524 . S
C1056 C1070 1.377 . S
C1057 C1056 1.524 . S
C1057 C1058 1.397 . S
C1057 C1062 1.363 . S
C1058 H1035 0.950 . S
C1058 C1057 1.397 . S
C1058 C1059 1.334 . S
C1059 H1036 0.950 . S
C1059 C1058 1.334 . S
C1059 C1060 1.287 . S
C1060 C1059 1.287 . S
C1060 C1061 1.524 . S
C1060 H1079 0.913 . S
C1061 H1037 0.950 . S
C1061 C1060 1.524 . S
C1061 C1062 1.415 . S
C1062 H1038 0.950 . S
C1062 C1057 1.363 . S
C1062 C1061 1.415 . S
C1063 H1039 0.951 . S
C1063 C1064 1.366 . S
C1063 C1065 1.388 . S
C1064 C1063 1.366 . S
C1064 C1068 1.385 . S
C1065 H1040 0.951 . S
C1065 C1063 1.388 . S
C1065 C1066 1.366 . S
C1066 C1065 1.366 . S
C1066 C1067 1.414 . S
C1066 C1069 1.499 . S
C1067 H1041 0.950 . S
C1067 C1066 1.414 . S
C1067 C1068 1.374 . S
C1068 H1042 0.950 . S
C1068 C1064 1.385 . S
C1068 C1067 1.374 . S
C1069 C1066 1.499 . S
C1069 C1070 1.373 . S
C1069 C1071 1.389 . S
C1070 H1043 0.950 . S
C1070 C1056 1.377 . S
C1070 C1069 1.373 . S
C1071 C1055 1.377 . S
C1071 C1069 1.389 . S
C1071 C1072 1.524 . S
C1072 C1071 1.524 . S
C1072 C1073 1.397 . S
C1072 C1077 1.363 . S
C1073 H1044 0.950 . S
C1073 C1072 1.397 . S
C1073 C1074 1.334 . S
C1074 H1045 0.950 . S
C1074 C1073 1.334 . S
C1074 C1075 1.287 . S
C1075 C1074 1.287 . S
C1075 C1076 1.524 . S
C1075 H1078 0.999 . S
C1076 H1046 0.950 . S
C1076 C1075 1.524 . S
C1076 C1077 1.415 . S
C1077 H1047 0.950 . S
C1077 C1072 1.363 . S
C1077 C1076 1.415 . S
H1078 C1075 0.999 . S
H1079 C1060 0.913 . S
H1080 C1098 0.951 . S
H1081 C1100 0.951 . S
H1082 C1102 0.950 . S
H1083 C1103 0.950 . S
H1084 C1105 0.950 . S
H1085 C1108 0.950 . S
H1086 C1109 0.950 . S
H1087 C1111 0.950 . S
H1088 C1112 0.950 . S
H1089 C1113 0.951 . S
H1090 C1115 0.951 . S
H1091 C1117 0.950 . S
H1092 C1118 0.950 . S
H1093 C1120 0.950 . S
H1094 C1123 0.950 . S
H1095 C1124 0.950 . S
H1096 C1126 0.950 . S
H1097 C1127 0.950 . S
C1098 H1080 0.951 . S
C1098 C1099 1.366 . S
C1098 C1100 1.388 . S
C1099 C1098 1.366 . S
C1099 C1103 1.385 . S
C1100 H1081 0.951 . S
C1100 C1098 1.388 . S
C1100 C1101 1.366 . S
C1101 C1100 1.366 . S
C1101 C1102 1.414 . S
C1101 C1104 1.499 . S
C1102 H1082 0.950 . S
C1102 C1101 1.414 . S
C1102 C1103 1.374 . S
C1103 H1083 0.950 . S
C1103 C1099 1.385 . S
C1103 C1102 1.374 . S
C1104 C1101 1.499 . S
C1104 C1105 1.373 . S
C1104 C1106 1.389 . S
C1105 H1084 0.950 . S
C1105 C1104 1.373 . S
C1105 C1121 1.377 . S
C1106 C1104 1.389 . S
C1106 C1107 1.524 . S
C1106 C1120 1.377 . S
C1107 C1106 1.524 . S
C1107 C1108 1.397 . S
C1107 C1112 1.363 . S
C1108 H1085 0.950 . S
C1108 C1107 1.397 . S
C1108 C1109 1.334 . S
C1109 H1086 0.950 . S
C1109 C1108 1.334 . S
C1109 C1110 1.287 . S
C1110 C1109 1.287 . S
C1110 C1111 1.524 . S
C1110 H1129 0.913 . S
C1111 H1087 0.950 . S
C1111 C1110 1.524 . S
C1111 C1112 1.415 . S
C1112 H1088 0.950 . S
C1112 C1107 1.363 . S
C1112 C1111 1.415 . S
C1113 H1089 0.951 . S
C1113 C1114 1.366 . S
C1113 C1115 1.388 . S
C1114 C1113 1.366 . S
C1114 C1118 1.385 . S
C1115 H1090 0.951 . S
C1115 C1113 1.388 . S
C1115 C1116 1.366 . S
C1116 C1115 1.366 . S
C1116 C1117 1.414 . S
C1116 C1119 1.499 . S
C1117 H1091 0.950 . S
C1117 C1116 1.414 . S
C1117 C1118 1.374 . S
C1118 H1092 0.950 . S
C1118 C1114 1.385 . S
C1118 C1117 1.374 . S
C1119 C1116 1.499 . S
C1119 C1120 1.373 . S
C1119 C1121 1.389 . S
C1120 H1093 0.950 . S
C1120 C1106 1.377 . S
C1120 C1119 1.373 . S
C1121 C1105 1.377 . S
C1121 C1119 1.389 . S
C1121 C1122 1.524 . S
C1122 C1121 1.524 . S
C1122 C1123 1.397 . S
C1122 C1127 1.363 . S
C1123 H1094 0.950 . S
C1123 C1122 1.397 . S
C1123 C1124 1.334 . S
C1124 H1095 0.950 . S
C1124 C1123 1.334 . S
C1124 C1125 1.287 . S
C1125 C1124 1.287 . S
C1125 C1126 1.524 . S
C1125 H1128 0.999 . S
C1126 H1096 0.950 . S
C1126 C1125 1.524 . S
C1126 C1127 1.415 . S
C1127 H1097 0.950 . S
C1127 C1122 1.363 . S
C1127 C1126 1.415 . S
H1128 C1125 0.999 . S
H1129 C1110 0.913 . S
H1130 C1148 0.951 . S
H1131 C1150 0.951 . S
H1132 C1152 0.950 . S
H1133 C1153 0.950 . S
H1134 C1155 0.950 . S
H1135 C1158 0.950 . S
H1136 C1159 0.950 . S
H1137 C1161 0.950 . S
H1138 C1162 0.950 . S
H1139 C1163 0.951 . S
H1140 C1165 0.951 . S
H1141 C1167 0.950 . S
H1142 C1168 0.950 . S
H1143 C1170 0.950 . S
H1144 C1173 0.950 . S
H1145 C1174 0.950 . S
H1146 C1176 0.950 . S
H1147 C1177 0.950 . S
C1148 H1130 0.951 . S
C1148 C1149 1.366 . S
C1148 C1150 1.388 . S
C1149 C1148 1.366 . S
C1149 C1153 1.385 . S
C1150 H1131 0.951 . S
C1150 C1148 1.388 . S
C1150 C1151 1.366 . S
C1151 C1150 1.366 . S
C1151 C1152 1.414 . S
C1151 C1154 1.499 . S
C1152 H1132 0.950 . S
C1152 C1151 1.414 . S
C1152 C1153 1.374 . S
C1153 H1133 0.950 . S
C1153 C1149 1.385 . S
C1153 C1152 1.374 . S
C1154 C1151 1.499 . S
C1154 C1155 1.373 . S
C1154 C1156 1.389 . S
C1155 H1134 0.950 . S
C1155 C1154 1.373 . S
C1155 C1171 1.377 . S
C1156 C1154 1.389 . S
C1156 C1157 1.524 . S
C1156 C1170 1.377 . S
C1157 C1156 1.524 . S
C1157 C1158 1.397 . S
C1157 C1162 1.363 . S
C1158 H1135 0.950 . S
C1158 C1157 1.397 . S
C1158 C1159 1.334 . S
C1159 H1136 0.950 . S
C1159 C1158 1.334 . S
C1159 C1160 1.287 . S
C1160 C1159 1.287 . S
C1160 C1161 1.524 . S
C1160 H1179 0.913 . S
C1161 H1137 0.950 . S
C1161 C1160 1.524 . S
C1161 C1162 1.415 . S
C1162 H1138 0.950 . S
C1162 C1157 1.363 . S
C1162 C1161 1.415 . S
C1163 H1139 0.951 . S
C1163 C1164 1.366 . S
C1163 C1165 1.388 . S
C1164 C1163 1.366 . S
C1164 C1168 1.385 . S
C1165 H1140 0.951 . S
C1165 C1163 1.388 . S
C1165 C1166 1.366 . S
C1166 C1165 1.366 . S
C1166 C1167 1.414 . S
C1166 C1169 1.499 . S
C1167 H1141 0.950 . S
C1167 C1166 1.414 . S
C1167 C1168 1.374 . S
C1168 H1142 0.950 . S
C1168 C1164 1.385 . S
C1168 C1167 1.374 . S
C1169 C1166 1.499 . S
C1169 C1170 1.373 . S
C1169 C1171 1.389 . S
C1170 H1143 0.950 . S
C1170 C1156 1.377 . S
C1170 C1169 1.373 . S
C1171 C1155 1.377 . S
C1171 C1169 1.389 . S
C1171 C1172 1.524 . S
C1172 C1171 1.524 . S
C1172 C1173 1.397 . S
C1172 C1177 1.363 . S
C1173 H1144 0.950 . S
C1173 C1172 1.397 . S
C1173 C1174 1.334 1_565 S
C1174 H1145 0.950 . S
C1174 C1173 1.334 1_545 S
C1174 C1175 1.287 . S
C1175 C1174 1.287 . S
C1175 C1176 1.524 . S
C1175 H1178 0.999 . S
C1176 H1146 0.950 . S
C1176 C1175 1.524 . S
C1176 C1177 1.415 1_545 S
C1177 H1147 0.950 . S
C1177 C1172 1.363 . S
C1177 C1176 1.415 1_565 S
H1178 C1175 0.999 . S
H1179 C1160 0.913 . S
H1180 C1198 0.951 . S
H1181 C1200 0.951 . S
H1182 C1202 0.950 . S
H1183 C1203 0.950 . S
H1184 C1205 0.950 . S
H1185 C1208 0.950 . S
H1186 C1209 0.950 . S
H1187 C1211 0.950 . S
H1188 C1212 0.950 . S
H1189 C1213 0.951 . S
H1190 C1215 0.951 . S
H1191 C1217 0.950 . S
H1192 C1218 0.950 . S
H1193 C1220 0.950 . S
H1194 C1223 0.950 . S
H1195 C1224 0.950 . S
H1196 C1226 0.950 . S
H1197 C1227 0.950 . S
C1198 H1180 0.951 . S
C1198 C1199 1.366 . S
C1198 C1200 1.388 . S
C1199 C1198 1.366 . S
C1199 C1203 1.385 . S
C1200 H1181 0.951 . S
C1200 C1198 1.388 . S
C1200 C1201 1.366 . S
C1201 C1200 1.366 . S
C1201 C1202 1.414 . S
C1201 C1204 1.499 . S
C1202 H1182 0.950 . S
C1202 C1201 1.414 . S
C1202 C1203 1.374 . S
C1203 H1183 0.950 . S
C1203 C1199 1.385 . S
C1203 C1202 1.374 . S
C1204 C1201 1.499 . S
C1204 C1205 1.373 . S
C1204 C1206 1.389 . S
C1205 H1184 0.950 . S
C1205 C1204 1.373 . S
C1205 C1221 1.377 . S
C1206 C1204 1.389 . S
C1206 C1207 1.524 . S
C1206 C1220 1.377 . S
C1207 C1206 1.524 . S
C1207 C1208 1.397 . S
C1207 C1212 1.363 . S
C1208 H1185 0.950 . S
C1208 C1207 1.397 . S
C1208 C1209 1.334 . S
C1209 H1186 0.950 . S
C1209 C1208 1.334 . S
C1209 C1210 1.287 . S
C1210 C1209 1.287 . S
C1210 C1211 1.524 . S
C1210 H1229 0.913 . S
C1211 H1187 0.950 . S
C1211 C1210 1.524 . S
C1211 C1212 1.415 . S
C1212 H1188 0.950 . S
C1212 C1207 1.363 . S
C1212 C1211 1.415 . S
C1213 H1189 0.951 . S
C1213 C1214 1.366 . S
C1213 C1215 1.388 . S
C1214 C1213 1.366 . S
C1214 C1218 1.385 . S
C1215 H1190 0.951 . S
C1215 C1213 1.388 . S
C1215 C1216 1.366 . S
C1216 C1215 1.366 . S
C1216 C1217 1.414 . S
C1216 C1219 1.499 . S
C1217 H1191 0.950 . S
C1217 C1216 1.414 . S
C1217 C1218 1.374 . S
C1218 H1192 0.950 . S
C1218 C1214 1.385 . S
C1218 C1217 1.374 . S
C1219 C1216 1.499 . S
C1219 C1220 1.373 . S
C1219 C1221 1.389 . S
C1220 H1193 0.950 . S
C1220 C1206 1.377 . S
C1220 C1219 1.373 . S
C1221 C1205 1.377 . S
C1221 C1219 1.389 . S
C1221 C1222 1.524 . S
C1222 C1221 1.524 . S
C1222 C1223 1.397 . S
C1222 C1227 1.363 . S
C1223 H1194 0.950 . S
C1223 C1222 1.397 . S
C1223 C1224 1.334 . S
C1224 H1195 0.950 . S
C1224 C1223 1.334 . S
C1224 C1225 1.287 . S
C1225 C1224 1.287 . S
C1225 C1226 1.524 . S
C1225 H1228 0.999 . S
C1226 H1196 0.950 . S
C1226 C1225 1.524 . S
C1226 C1227 1.415 . S
C1227 H1197 0.950 . S
C1227 C1222 1.363 . S
C1227 C1226 1.415 . S
H1228 C1225 0.999 . S
H1229 C1210 0.913 . S
H1230 C1248 0.951 . S
H1231 C1250 0.951 . S
H1232 C1252 0.950 . S
H1233 C1253 0.950 . S
H1234 C1255 0.950 . S
H1235 C1258 0.950 . S
H1236 C1259 0.950 . S
H1237 C1261 0.950 . S
H1238 C1262 0.950 . S
H1239 C1263 0.951 . S
H1240 C1265 0.951 . S
H1241 C1267 0.950 . S
H1242 C1268 0.950 . S
H1243 C1270 0.950 . S
H1244 C1273 0.950 . S
H1245 C1274 0.950 . S
H1246 C1276 0.950 . S
H1247 C1277 0.950 . S
C1248 H1230 0.951 . S
C1248 C1249 1.366 . S
C1248 C1250 1.388 . S
C1249 C1248 1.366 . S
C1249 C1253 1.385 . S
C1250 H1231 0.951 . S
C1250 C1248 1.388 . S
C1250 C1251 1.366 . S
C1251 C1250 1.366 . S
C1251 C1252 1.414 . S
C1251 C1254 1.499 . S
C1252 H1232 0.950 . S
C1252 C1251 1.414 . S
C1252 C1253 1.374 . S
C1253 H1233 0.950 . S
C1253 C1249 1.385 . S
C1253 C1252 1.374 . S
C1254 C1251 1.499 . S
C1254 C1255 1.373 . S
C1254 C1256 1.389 . S
C1255 H1234 0.950 . S
C1255 C1254 1.373 . S
C1255 C1271 1.377 . S
C1256 C1254 1.389 . S
C1256 C1257 1.524 . S
C1256 C1270 1.377 . S
C1257 C1256 1.524 . S
C1257 C1258 1.397 . S
C1257 C1262 1.363 . S
C1258 H1235 0.950 . S
C1258 C1257 1.397 . S
C1258 C1259 1.334 . S
C1259 H1236 0.950 . S
C1259 C1258 1.334 . S
C1259 C1260 1.287 . S
C1260 C1259 1.287 . S
C1260 C1261 1.524 . S
C1260 H1279 0.913 1_545 S
C1261 H1237 0.950 . S
C1261 C1260 1.524 . S
C1261 C1262 1.415 . S
C1262 H1238 0.950 . S
C1262 C1257 1.363 . S
C1262 C1261 1.415 . S
C1263 H1239 0.951 . S
C1263 C1264 1.366 . S
C1263 C1265 1.388 . S
C1264 C1263 1.366 . S
C1264 C1268 1.385 . S
C1265 H1240 0.951 . S
C1265 C1263 1.388 . S
C1265 C1266 1.366 . S
C1266 C1265 1.366 . S
C1266 C1267 1.414 . S
C1266 C1269 1.499 1_556 S
C1267 H1241 0.950 . S
C1267 C1266 1.414 . S
C1267 C1268 1.374 . S
C1268 H1242 0.950 . S
C1268 C1264 1.385 . S
C1268 C1267 1.374 . S
C1269 C1266 1.499 1_554 S
C1269 C1270 1.373 . S
C1269 C1271 1.389 . S
C1270 H1243 0.950 . S
C1270 C1256 1.377 . S
C1270 C1269 1.373 . S
C1271 C1255 1.377 . S
C1271 C1269 1.389 . S
C1271 C1272 1.524 . S
C1272 C1271 1.524 . S
C1272 C1273 1.397 1_554 S
C1272 C1277 1.363 . S
C1273 H1244 0.950 . S
C1273 C1272 1.397 1_556 S
C1273 C1274 1.334 . S
C1274 H1245 0.950 . S
C1274 C1273 1.334 . S
C1274 C1275 1.287 . S
C1275 C1274 1.287 . S
C1275 C1276 1.524 1_556 S
C1275 H1278 0.999 . S
C1276 H1246 0.950 . S
C1276 C1275 1.524 1_554 S
C1276 C1277 1.415 . S
C1277 H1247 0.950 . S
C1277 C1272 1.363 . S
C1277 C1276 1.415 . S
H1278 C1275 0.999 . S
H1279 C1260 0.913 1_565 S
H1280 C1298 0.951 . S
H1281 C1300 0.951 . S
H1282 C1302 0.950 . S
H1283 C1303 0.950 . S
H1284 C1305 0.950 . S
H1285 C1308 0.950 . S
H1286 C1309 0.950 . S
H1287 C1311 0.950 . S
H1288 C1312 0.950 . S
H1289 C1313 0.951 . S
H1290 C1315 0.951 . S
H1291 C1317 0.950 . S
H1292 C1318 0.950 . S
H1293 C1320 0.950 . S
H1294 C1323 0.950 . S
H1295 C1324 0.950 . S
H1296 C1326 0.950 . S
H1297 C1327 0.950 . S
C1298 H1280 0.951 . S
C1298 C1299 1.366 . S
C1298 C1300 1.388 . S
C1299 C1298 1.366 . S
C1299 C1303 1.385 . S
C1300 H1281 0.951 . S
C1300 C1298 1.388 . S
C1300 C1301 1.366 . S
C1301 C1300 1.366 . S
C1301 C1302 1.414 . S
C1301 C1304 1.499 . S
C1302 H1282 0.950 . S
C1302 C1301 1.414 . S
C1302 C1303 1.374 . S
C1303 H1283 0.950 . S
C1303 C1299 1.385 . S
C1303 C1302 1.374 . S
C1304 C1301 1.499 . S
C1304 C1305 1.373 . S
C1304 C1306 1.389 . S
C1305 H1284 0.950 . S
C1305 C1304 1.373 . S
C1305 C1321 1.377 . S
C1306 C1304 1.389 . S
C1306 C1307 1.524 . S
C1306 C1320 1.377 . S
C1307 C1306 1.524 . S
C1307 C1308 1.397 . S
C1307 C1312 1.363 . S
C1308 H1285 0.950 . S
C1308 C1307 1.397 . S
C1308 C1309 1.334 . S
C1309 H1286 0.950 . S
C1309 C1308 1.334 . S
C1309 C1310 1.287 . S
C1310 C1309 1.287 . S
C1310 C1311 1.524 . S
C1310 H1329 0.913 . S
C1311 H1287 0.950 . S
C1311 C1310 1.524 . S
C1311 C1312 1.415 . S
C1312 H1288 0.950 . S
C1312 C1307 1.363 . S
C1312 C1311 1.415 . S
C1313 H1289 0.951 . S
C1313 C1314 1.366 . S
C1313 C1315 1.388 . S
C1314 C1313 1.366 . S
C1314 C1318 1.385 . S
C1315 H1290 0.951 . S
C1315 C1313 1.388 . S
C1315 C1316 1.366 . S
C1316 C1315 1.366 . S
C1316 C1317 1.414 . S
C1316 C1319 1.499 . S
C1317 H1291 0.950 . S
C1317 C1316 1.414 . S
C1317 C1318 1.374 . S
C1318 H1292 0.950 . S
C1318 C1314 1.385 . S
C1318 C1317 1.374 . S
C1319 C1316 1.499 . S
C1319 C1320 1.373 . S
C1319 C1321 1.389 . S
C1320 H1293 0.950 . S
C1320 C1306 1.377 . S
C1320 C1319 1.373 . S
C1321 C1305 1.377 . S
C1321 C1319 1.389 . S
C1321 C1322 1.524 . S
C1322 C1321 1.524 . S
C1322 C1323 1.397 . S
C1322 C1327 1.363 . S
C1323 H1294 0.950 . S
C1323 C1322 1.397 . S
C1323 C1324 1.334 . S
C1324 H1295 0.950 . S
C1324 C1323 1.334 . S
C1324 C1325 1.287 . S
C1325 C1324 1.287 . S
C1325 C1326 1.524 . S
C1325 H1328 0.999 . S
C1326 H1296 0.950 . S
C1326 C1325 1.524 . S
C1326 C1327 1.415 . S
C1327 H1297 0.950 . S
C1327 C1322 1.363 . S
C1327 C1326 1.415 . S
H1328 C1325 0.999 . S
H1329 C1310 0.913 . S
H1330 C1348 0.951 . S
H1331 C1350 0.951 . S
H1332 C1352 0.950 . S
H1333 C1353 0.950 . S
H1334 C1355 0.954 . S
H1335 C1358 0.950 . S
H1336 C1359 0.950 . S
H1337 C1361 0.950 . S
H1338 C1362 0.950 . S
H1339 C1363 0.951 . S
H1340 C1365 0.951 . S
H1341 C1367 0.950 . S
H1342 C1368 0.950 . S
H1343 C1370 0.950 . S
H1344 C1373 0.950 . S
H1345 C1374 0.950 . S
H1346 C1376 0.950 . S
H1347 C1377 0.950 . S
C1348 H1330 0.951 . S
C1348 C1349 1.366 . S
C1348 C1350 1.388 . S
C1349 C1348 1.366 . S
C1349 C1353 1.385 . S
C1350 H1331 0.951 . S
C1350 C1348 1.388 . S
C1350 C1351 1.366 . S
C1351 C1350 1.366 . S
C1351 C1352 1.414 . S
C1351 C1354 1.499 . S
C1352 H1332 0.950 . S
C1352 C1351 1.414 . S
C1352 C1353 1.374 . S
C1353 H1333 0.950 . S
C1353 C1349 1.385 . S
C1353 C1352 1.374 . S
C1354 C1351 1.499 . S
C1354 C1355 1.388 . S
C1354 C1356 1.389 . S
C1355 H1334 0.954 . S
C1355 C1354 1.388 . S
C1355 C1371 1.357 1_554 S
C1356 C1354 1.389 . S
C1356 C1357 1.524 . S
C1356 C1370 1.377 1_554 S
C1357 C1356 1.524 . S
C1357 C1358 1.397 . S
C1357 C1362 1.363 . S
C1358 H1335 0.950 . S
C1358 C1357 1.397 . S
C1358 C1359 1.334 . S
C1359 H1336 0.950 . S
C1359 C1358 1.334 . S
C1359 C1360 1.287 . S
C1360 C1359 1.287 . S
C1360 C1361 1.524 . S
C1360 H1379 0.913 . S
C1361 H1337 0.950 . S
C1361 C1360 1.524 . S
C1361 C1362 1.415 . S
C1362 H1338 0.950 . S
C1362 C1357 1.363 . S
C1362 C1361 1.415 . S
C1363 H1339 0.951 . S
C1363 C1364 1.366 . S
C1363 C1365 1.388 . S
C1364 C1363 1.366 . S
C1364 C1368 1.385 . S
C1365 H1340 0.951 . S
C1365 C1363 1.388 . S
C1365 C1366 1.366 . S
C1366 C1365 1.366 . S
C1366 C1367 1.414 . S
C1366 C1369 1.499 . S
C1367 H1341 0.950 . S
C1367 C1366 1.414 . S
C1367 C1368 1.374 . S
C1368 H1342 0.950 . S
C1368 C1364 1.385 . S
C1368 C1367 1.374 . S
C1369 C1366 1.499 . S
C1369 C1370 1.373 . S
C1369 C1371 1.389 . S
C1370 H1343 0.950 . S
C1370 C1356 1.377 1_556 S
C1370 C1369 1.373 . S
C1371 C1355 1.357 1_556 S
C1371 C1369 1.389 . S
C1371 C1372 1.524 . S
C1372 C1371 1.524 . S
C1372 C1373 1.397 . S
C1372 C1377 1.363 . S
C1373 H1344 0.950 . S
C1373 C1372 1.397 . S
C1373 C1374 1.334 . S
C1374 H1345 0.950 . S
C1374 C1373 1.334 . S
C1374 C1375 1.287 . S
C1375 C1374 1.287 . S
C1375 C1376 1.524 . S
C1375 H1378 0.999 . S
C1376 H1346 0.950 . S
C1376 C1375 1.524 . S
C1376 C1377 1.415 . S
C1377 H1347 0.950 . S
C1377 C1372 1.363 . S
C1377 C1376 1.415 . S
H1378 C1375 0.999 . S
H1379 C1360 0.913 . S
H1380 C1398 0.951 . S
H1381 C1400 0.951 . S
H1382 C1402 0.950 . S
H1383 C1403 0.950 . S
H1384 C1405 0.950 . S
H1385 C1408 0.950 . S
H1386 C1409 0.950 . S
H1387 C1411 0.950 . S
H1388 C1412 0.950 . S
H1389 C1413 0.951 . S
H1390 C1415 0.951 . S
H1391 C1417 0.950 . S
H1392 C1418 0.950 . S
H1393 C1420 0.950 . S
H1394 C1423 0.950 . S
H1395 C1424 0.950 . S
H1396 C1426 0.950 . S
H1397 C1427 0.950 . S
C1398 H1380 0.951 . S
C1398 C1399 1.366 . S
C1398 C1400 1.388 . S
C1399 C1398 1.366 . S
C1399 C1403 1.385 . S
C1400 H1381 0.951 . S
C1400 C1398 1.388 . S
C1400 C1401 1.366 . S
C1401 C1400 1.366 . S
C1401 C1402 1.414 . S
C1401 C1404 1.499 . S
C1402 H1382 0.950 . S
C1402 C1401 1.414 . S
C1402 C1403 1.374 . S
C1403 H1383 0.950 . S
C1403 C1399 1.385 . S
C1403 C1402 1.374 . S
C1404 C1401 1.499 . S
C1404 C1405 1.373 . S
C1404 C1406 1.389 . S
C1405 H1384 0.950 . S
C1405 C1404 1.373 . S
C1405 C1421 1.377 . S
C1406 C1404 1.389 . S
C1406 C1407 1.524 . S
C1406 C1420 1.377 . S
C1407 C1406 1.524 . S
C1407 C1408 1.397 . S
C1407 C1412 1.363 . S
C1408 H1385 0.950 . S
C1408 C1407 1.397 . S
C1408 C1409 1.334 . S
C1409 H1386 0.950 . S
C1409 C1408 1.334 . S
C1409 C1410 1.287 . S
C1410 C1409 1.287 . S
C1410 C1411 1.524 . S
C1410 H1429 0.913 . S
C1411 H1387 0.950 . S
C1411 C1410 1.524 . S
C1411 C1412 1.415 . S
C1412 H1388 0.950 . S
C1412 C1407 1.363 . S
C1412 C1411 1.415 . S
C1413 H1389 0.951 . S
C1413 C1414 1.366 . S
C1413 C1415 1.388 . S
C1414 C1413 1.366 . S
C1414 C1418 1.385 . S
C1415 H1390 0.951 . S
C1415 C1413 1.388 . S
C1415 C1416 1.366 . S
C1416 C1415 1.366 . S
C1416 C1417 1.414 . S
C1416 C1419 1.499 . S
C1417 H1391 0.950 . S
C1417 C1416 1.414 . S
C1417 C1418 1.374 . S
C1418 H1392 0.950 . S
C1418 C1414 1.385 . S
C1418 C1417 1.374 . S
C1419 C1416 1.499 . S
C1419 C1420 1.373 . S
C1419 C1421 1.389 . S
C1420 H1393 0.950 . S
C1420 C1406 1.377 . S
C1420 C1419 1.373 . S
C1421 C1405 1.377 . S
C1421 C1419 1.389 . S
C1421 C1422 1.524 . S
C1422 C1421 1.524 . S
C1422 C1423 1.397 . S
C1422 C1427 1.363 . S
C1423 H1394 0.950 . S
C1423 C1422 1.397 . S
C1423 C1424 1.334 . S
C1424 H1395 0.950 . S
C1424 C1423 1.334 . S
C1424 C1425 1.287 . S
C1425 C1424 1.287 . S
C1425 C1426 1.524 . S
C1425 H1428 0.999 . S
C1426 H1396 0.950 . S
C1426 C1425 1.524 . S
C1426 C1427 1.415 . S
C1427 H1397 0.950 . S
C1427 C1422 1.363 . S
C1427 C1426 1.415 . S
H1428 C1425 0.999 . S
H1429 C1410 0.913 . S
H1430 C1448 0.951 . S
H1431 C1450 0.951 . S
H1432 C1452 0.950 . S
H1433 C1453 0.950 . S
H1434 C1455 0.950 . S
H1435 C1458 0.950 . S
H1436 C1459 0.950 . S
H1437 C1461 0.950 . S
H1438 C1462 0.950 . S
H1439 C1463 0.951 . S
H1440 C1465 0.951 . S
H1441 C1467 0.950 . S
H1442 C1468 0.950 . S
H1443 C1470 0.950 . S
H1444 C1473 0.950 . S
H1445 C1474 0.950 . S
H1446 C1476 0.950 . S
H1447 C1477 0.950 . S
C1448 H1430 0.951 . S
C1448 C1449 1.366 . S
C1448 C1450 1.388 . S
C1449 C1448 1.366 . S
C1449 C1453 1.385 . S
C1450 H1431 0.951 . S
C1450 C1448 1.388 . S
C1450 C1451 1.366 . S
C1451 C1450 1.366 . S
C1451 C1452 1.414 . S
C1451 C1454 1.499 . S
C1452 H1432 0.950 . S
C1452 C1451 1.414 . S
C1452 C1453 1.374 . S
C1453 H1433 0.950 . S
C1453 C1449 1.385 . S
C1453 C1452 1.374 . S
C1454 C1451 1.499 . S
C1454 C1455 1.373 . S
C1454 C1456 1.389 . S
C1455 H1434 0.950 . S
C1455 C1454 1.373 . S
C1455 C1471 1.377 . S
C1456 C1454 1.389 . S
C1456 C1457 1.524 . S
C1456 C1470 1.377 . S
C1457 C1456 1.524 . S
C1457 C1458 1.397 . S
C1457 C1462 1.363 . S
C1458 H1435 0.950 . S
C1458 C1457 1.397 . S
C1458 C1459 1.334 . S
C1459 H1436 0.950 . S
C1459 C1458 1.334 . S
C1459 C1460 1.287 . S
C1460 C1459 1.287 . S
C1460 C1461 1.524 . S
C1460 H1479 0.913 . S
C1461 H1437 0.950 . S
C1461 C1460 1.524 . S
C1461 C1462 1.415 . S
C1462 H1438 0.950 . S
C1462 C1457 1.363 . S
C1462 C1461 1.415 . S
C1463 H1439 0.951 . S
C1463 C1464 1.366 . S
C1463 C1465 1.388 . S
C1464 C1463 1.366 . S
C1464 C1468 1.385 . S
C1465 H1440 0.951 . S
C1465 C1463 1.388 . S
C1465 C1466 1.366 . S
C1466 C1465 1.366 . S
C1466 C1467 1.414 . S
C1466 C1469 1.499 . S
C1467 H1441 0.950 . S
C1467 C1466 1.414 . S
C1467 C1468 1.374 . S
C1468 H1442 0.950 . S
C1468 C1464 1.385 . S
C1468 C1467 1.374 . S
C1469 C1466 1.499 . S
C1469 C1470 1.373 . S
C1469 C1471 1.389 . S
C1470 H1443 0.950 . S
C1470 C1456 1.377 . S
C1470 C1469 1.373 . S
C1471 C1455 1.377 . S
C1471 C1469 1.389 . S
C1471 C1472 1.524 . S
C1472 C1471 1.524 . S
C1472 C1473 1.397 . S
C1472 C1477 1.363 . S
C1473 H1444 0.950 . S
C1473 C1472 1.397 . S
C1473 C1474 1.334 . S
C1474 H1445 0.950 . S
C1474 C1473 1.334 . S
C1474 C1475 1.287 . S
C1475 C1474 1.287 . S
C1475 C1476 1.524 . S
C1475 H1478 0.999 . S
C1476 H1446 0.950 . S
C1476 C1475 1.524 . S
C1476 C1477 1.415 . S
C1477 H1447 0.950 . S
C1477 C1472 1.363 . S
C1477 C1476 1.415 . S
H1478 C1475 0.999 . S
H1479 C1460 0.913 . S
H1480 C1498 0.951 . S
H1481 C1500 0.951 . S
H1482 C1502 0.950 . S
H1483 C1503 0.950 . S
H1484 C1505 0.950 . S
H1485 C1508 0.950 . S
H1486 C1509 0.950 . S
H1487 C1511 0.950 . S
H1488 C1512 0.950 . S
H1489 C1513 0.951 . S
H1490 C1515 0.951 . S
H1491 C1517 0.950 . S
H1492 C1518 0.950 . S
H1493 C1520 0.950 . S
H1494 C1523 0.950 . S
H1495 C1524 0.950 . S
H1496 C1526 0.950 . S
H1497 C1527 0.950 . S
C1498 H1480 0.951 . S
C1498 C1499 1.366 . S
C1498 C1500 1.388 . S
C1499 C1498 1.366 . S
C1499 C1503 1.385 . S
C1500 H1481 0.951 . S
C1500 C1498 1.388 . S
C1500 C1501 1.366 . S
C1501 C1500 1.366 . S
C1501 C1502 1.414 . S
C1501 C1504 1.499 . S
C1502 H1482 0.950 . S
C1502 C1501 1.414 . S
C1502 C1503 1.374 . S
C1503 H1483 0.950 . S
C1503 C1499 1.385 . S
C1503 C1502 1.374 . S
C1504 C1501 1.499 . S
C1504 C1505 1.373 . S
C1504 C1506 1.389 . S
C1505 H1484 0.950 . S
C1505 C1504 1.373 . S
C1505 C1521 1.377 . S
C1506 C1504 1.389 . S
C1506 C1507 1.524 . S
C1506 C1520 1.377 . S
C1507 C1506 1.524 . S
C1507 C1508 1.397 . S
C1507 C1512 1.363 . S
C1508 H1485 0.950 . S
C1508 C1507 1.397 . S
C1508 C1509 1.334 . S
C1509 H1486 0.950 . S
C1509 C1508 1.334 . S
C1509 C1510 1.287 . S
C1510 C1509 1.287 . S
C1510 C1511 1.524 . S
C1510 H1529 0.913 . S
C1511 H1487 0.950 . S
C1511 C1510 1.524 . S
C1511 C1512 1.415 . S
C1512 H1488 0.950 . S
C1512 C1507 1.363 . S
C1512 C1511 1.415 . S
C1513 H1489 0.951 . S
C1513 C1514 1.366 . S
C1513 C1515 1.388 . S
C1514 C1513 1.366 . S
C1514 C1518 1.385 . S
C1515 H1490 0.951 . S
C1515 C1513 1.388 . S
C1515 C1516 1.366 . S
C1516 C1515 1.366 . S
C1516 C1517 1.414 . S
C1516 C1519 1.499 . S
C1517 H1491 0.950 . S
C1517 C1516 1.414 . S
C1517 C1518 1.374 . S
C1518 H1492 0.950 . S
C1518 C1514 1.385 . S
C1518 C1517 1.374 . S
C1519 C1516 1.499 . S
C1519 C1520 1.373 . S
C1519 C1521 1.389 . S
C1520 H1493 0.950 . S
C1520 C1506 1.377 . S
C1520 C1519 1.373 . S
C1521 C1505 1.377 . S
C1521 C1519 1.389 . S
C1521 C1522 1.524 . S
C1522 C1521 1.524 . S
C1522 C1523 1.397 . S
C1522 C1527 1.363 . S
C1523 H1494 0.950 . S
C1523 C1522 1.397 . S
C1523 C1524 1.334 . S
C1524 H1495 0.950 . S
C1524 C1523 1.334 . S
C1524 C1525 1.287 . S
C1525 C1524 1.287 . S
C1525 C1526 1.524 . S
C1525 H1528 0.999 . S
C1526 H1496 0.950 . S
C1526 C1525 1.524 . S
C1526 C1527 1.415 . S
C1527 H1497 0.950 . S
C1527 C1522 1.363 . S
C1527 C1526 1.415 . S
H1528 C1525 0.999 . S
H1529 C1510 0.913 . S
H1530 C1548 0.951 . S
H1531 C1550 0.951 . S
H1532 C1552 0.950 . S
H1533 C1553 0.950 . S
H1534 C1555 0.950 . S
H1535 C1558 0.950 . S
H1536 C1559 0.950 . S
H1537 C1561 0.950 1_655 S
H1538 C1562 0.950 . S
H1539 C1563 0.951 . S
H1540 C1565 0.951 . S
H1541 C1567 0.950 . S
H1542 C1568 0.992 . S
H1543 C1570 0.950 . S
H1544 C1573 0.950 . S
H1545 C1574 0.950 . S
H1546 C1576 0.950 . S
H1547 C1577 0.950 . S
C1548 H1530 0.951 . S
C1548 C1549 1.366 . S
C1548 C1550 1.388 . S
C1549 C1548 1.366 . S
C1549 C1553 1.385 . S
C1550 H1531 0.951 . S
C1550 C1548 1.388 . S
C1550 C1551 1.366 . S
C1551 C1550 1.366 . S
C1551 C1552 1.414 . S
C1551 C1554 1.499 . S
C1552 H1532 0.950 . S
C1552 C1551 1.414 . S
C1552 C1553 1.374 . S
C1553 H1533 0.950 . S
C1553 C1549 1.385 . S
C1553 C1552 1.374 . S
C1554 C1551 1.499 . S
C1554 C1555 1.373 . S
C1554 C1556 1.389 . S
C1555 H1534 0.950 . S
C1555 C1554 1.373 . S
C1555 C1571 1.377 1_545 S
C1556 C1554 1.389 . S
C1556 C1557 1.524 . S
C1556 C1570 1.377 . S
C1557 C1556 1.524 . S
C1557 C1558 1.397 . S
C1557 C1562 1.363 . S
C1558 H1535 0.950 . S
C1558 C1557 1.397 . S
C1558 C1559 1.334 . S
C1559 H1536 0.950 . S
C1559 C1558 1.334 . S
C1559 C1560 1.287 . S
C1560 C1559 1.287 . S
C1560 C1561 1.524 . S
C1560 H1579 0.913 . S
C1561 H1537 0.950 1_455 S
C1561 C1560 1.524 . S
C1561 C1562 1.415 . S
C1562 H1538 0.950 . S
C1562 C1557 1.363 . S
C1562 C1561 1.415 . S
C1563 H1539 0.951 . S
C1563 C1564 1.366 . S
C1563 C1565 1.388 . S
C1564 C1563 1.366 . S
C1564 C1568 1.385 . S
C1565 H1540 0.951 . S
C1565 C1563 1.388 . S
C1565 C1566 1.366 . S
C1566 C1565 1.366 . S
C1566 C1567 1.414 . S
C1566 C1569 1.499 . S
C1567 H1541 0.950 . S
C1567 C1566 1.414 . S
C1567 C1568 1.374 . S
C1568 H1542 0.992 . S
C1568 C1564 1.385 . S
C1568 C1567 1.374 . S
C1569 C1566 1.499 . S
C1569 C1570 1.373 1_565 S
C1569 C1571 1.389 . S
C1570 H1543 0.950 . S
C1570 C1556 1.377 . S
C1570 C1569 1.373 1_545 S
C1571 C1555 1.377 1_565 S
C1571 C1569 1.389 . S
C1571 C1572 1.524 . S
C1572 C1571 1.524 . S
C1572 C1573 1.397 . S
C1572 C1577 1.363 . S
C1573 H1544 0.950 . S
C1573 C1572 1.397 . S
C1573 C1574 1.334 . S
C1574 H1545 0.950 . S
C1574 C1573 1.334 . S
C1574 C1575 1.287 . S
C1575 C1574 1.287 . S
C1575 C1576 1.524 . S
C1575 H1578 0.999 . S
C1576 H1546 0.950 . S
C1576 C1575 1.524 . S
C1576 C1577 1.415 . S
C1577 H1547 0.950 . S
C1577 C1572 1.363 . S
C1577 C1576 1.415 . S
H1578 C1575 0.999 . S
H1579 C1560 0.913 . S
H1580 C1598 0.951 . S
H1581 C1600 0.951 . S
H1582 C1602 0.950 . S
H1583 C1603 0.950 . S
H1584 C1605 0.950 . S
H1585 C1608 0.950 . S
H1586 C1609 0.950 . S
H1587 C1611 0.950 . S
H1588 C1612 0.950 . S
H1589 C1613 0.951 . S
H1590 C1615 0.951 . S
H1591 C1617 0.950 . S
H1592 C1618 0.950 . S
H1593 C1620 0.950 . S
H1594 C1623 0.950 . S
H1595 C1624 0.950 . S
H1596 C1626 0.950 . S
H1597 C1627 0.950 . S
C1598 H1580 0.951 . S
C1598 C1599 1.366 . S
C1598 C1600 1.388 . S
C1599 C1598 1.366 . S
C1599 C1603 1.385 . S
C1600 H1581 0.951 . S
C1600 C1598 1.388 . S
C1600 C1601 1.366 . S
C1601 C1600 1.366 . S
C1601 C1602 1.414 . S
C1601 C1604 1.499 . S
C1602 H1582 0.950 . S
C1602 C1601 1.414 . S
C1602 C1603 1.374 . S
C1603 H1583 0.950 . S
C1603 C1599 1.385 . S
C1603 C1602 1.374 . S
C1604 C1601 1.499 . S
C1604 C1605 1.373 . S
C1604 C1606 1.389 . S
C1605 H1584 0.950 . S
C1605 C1604 1.373 . S
C1605 C1621 1.377 . S
C1606 C1604 1.389 . S
C1606 C1607 1.524 . S
C1606 C1620 1.377 . S
C1607 C1606 1.524 . S
C1607 C1608 1.397 . S
C1607 C1612 1.363 . S
C1608 H1585 0.950 . S
C1608 C1607 1.397 . S
C1608 C1609 1.334 . S
C1609 H1586 0.950 . S
C1609 C1608 1.334 . S
C1609 C1610 1.287 . S
C1610 C1609 1.287 . S
C1610 C1611 1.524 . S
C1610 H1629 0.913 . S
C1611 H1587 0.950 . S
C1611 C1610 1.524 . S
C1611 C1612 1.415 . S
C1612 H1588 0.950 . S
C1612 C1607 1.363 . S
C1612 C1611 1.415 . S
C1613 H1589 0.951 . S
C1613 C1614 1.366 . S
C1613 C1615 1.388 . S
C1614 C1613 1.366 . S
C1614 C1618 1.385 . S
C1615 H1590 0.951 . S
C1615 C1613 1.388 . S
C1615 C1616 1.366 . S
C1616 C1615 1.366 . S
C1616 C1617 1.414 . S
C1616 C1619 1.499 . S
C1617 H1591 0.950 . S
C1617 C1616 1.414 . S
C1617 C1618 1.374 . S
C1618 H1592 0.950 . S
C1618 C1614 1.385 . S
C1618 C1617 1.374 . S
C1619 C1616 1.499 . S
C1619 C1620 1.373 . S
C1619 C1621 1.389 . S
C1620 H1593 0.950 . S
C1620 C1606 1.377 . S
C1620 C1619 1.373 . S
C1621 C1605 1.377 . S
C1621 C1619 1.389 . S
C1621 C1622 1.524 . S
C1622 C1621 1.524 . S
C1622 C1623 1.397 . S
C1622 C1627 1.363 . S
C1623 H1594 0.950 . S
C1623 C1622 1.397 . S
C1623 C1624 1.334 . S
C1624 H1595 0.950 . S
C1624 C1623 1.334 . S
C1624 C1625 1.287 1_556 S
C1625 C1624 1.287 1_554 S
C1625 C1626 1.524 . S
C1625 H1628 0.999 . S
C1626 H1596 0.950 . S
C1626 C1625 1.524 . S
C1626 C1627 1.415 1_554 S
C1627 H1597 0.950 . S
C1627 C1622 1.363 . S
C1627 C1626 1.415 1_556 S
H1628 C1625 0.999 . S
H1629 C1610 0.913 . S
H1630 C1648 0.951 . S
H1631 C1650 0.951 . S
H1632 C1652 0.950 . S
H1633 C1653 0.950 . S
H1634 C1655 0.950 . S
H1635 C1658 0.950 . S
H1636 C1659 0.950 . S
H1637 C1661 0.950 . S
H1638 C1662 0.950 . S
H1639 C1663 0.951 . S
H1640 C1665 0.951 . S
H1641 C1667 0.950 . S
H1642 C1668 0.950 . S
H1643 C1670 0.950 . S
H1644 C1673 0.950 . S
H1645 C1674 0.950 . S
H1646 C1676 0.950 . S
H1647 C1677 0.950 . S
C1648 H1630 0.951 . S
C1648 C1649 1.366 . S
C1648 C1650 1.388 . S
C1649 C1648 1.366 . S
C1649 C1653 1.385 . S
C1650 H1631 0.951 . S
C1650 C1648 1.388 . S
C1650 C1651 1.366 . S
C1651 C1650 1.366 . S
C1651 C1652 1.414 . S
C1651 C1654 1.499 . S
C1652 H1632 0.950 . S
C1652 C1651 1.414 . S
C1652 C1653 1.374 . S
C1653 H1633 0.950 . S
C1653 C1649 1.385 . S
C1653 C1652 1.374 . S
C1654 C1651 1.499 . S
C1654 C1655 1.373 . S
C1654 C1656 1.389 . S
C1655 H1634 0.950 . S
C1655 C1654 1.373 . S
C1655 C1671 1.377 1_545 S
C1656 C1654 1.389 . S
C1656 C1657 1.524 . S
C1656 C1670 1.377 1_545 S
C1657 C1656 1.524 . S
C1657 C1658 1.397 . S
C1657 C1662 1.363 . S
C1658 H1635 0.950 . S
C1658 C1657 1.397 . S
C1658 C1659 1.334 . S
C1659 H1636 0.950 . S
C1659 C1658 1.334 . S
C1659 C1660 1.287 . S
C1660 C1659 1.287 . S
C1660 C1661 1.524 . S
C1660 H1679 0.913 . S
C1661 H1637 0.950 . S
C1661 C1660 1.524 . S
C1661 C1662 1.415 . S
C1662 H1638 0.950 . S
C1662 C1657 1.363 . S
C1662 C1661 1.415 . S
C1663 H1639 0.951 . S
C1663 C1664 1.366 . S
C1663 C1665 1.388 . S
C1664 C1663 1.366 . S
C1664 C1668 1.385 . S
C1665 H1640 0.951 . S
C1665 C1663 1.388 . S
C1665 C1666 1.366 . S
C1666 C1665 1.366 . S
C1666 C1667 1.414 . S
C1666 C1669 1.499 . S
C1667 H1641 0.950 . S
C1667 C1666 1.414 . S
C1667 C1668 1.374 . S
C1668 H1642 0.950 . S
C1668 C1664 1.385 . S
C1668 C1667 1.374 . S
C1669 C1666 1.499 . S
C1669 C1670 1.373 . S
C1669 C1671 1.389 . S
C1670 H1643 0.950 . S
C1670 C1656 1.377 1_565 S
C1670 C1669 1.373 . S
C1671 C1655 1.377 1_565 S
C1671 C1669 1.389 . S
C1671 C1672 1.524 . S
C1672 C1671 1.524 . S
C1672 C1673 1.397 . S
C1672 C1677 1.363 . S
C1673 H1644 0.950 . S
C1673 C1672 1.397 . S
C1673 C1674 1.334 . S
C1674 H1645 0.950 . S
C1674 C1673 1.334 . S
C1674 C1675 1.287 . S
C1675 C1674 1.287 . S
C1675 C1676 1.524 . S
C1675 H1678 0.999 . S
C1676 H1646 0.950 . S
C1676 C1675 1.524 . S
C1676 C1677 1.415 . S
C1677 H1647 0.950 . S
C1677 C1672 1.363 . S
C1677 C1676 1.415 . S
H1678 C1675 0.999 . S
H1679 C1660 0.913 . S
H1680 C1698 0.951 . S
H1681 C1700 0.951 . S
H1682 C1702 0.950 . S
H1683 C1703 0.950 . S
H1684 C1705 0.950 . S
H1685 C1708 0.950 . S
H1686 C1709 0.950 . S
H1687 C1711 0.950 . S
H1688 C1712 0.950 . S
H1689 C1713 0.951 . S
H1690 C1715 0.951 . S
H1691 C1717 0.950 . S
H1692 C1718 0.950 . S
H1693 C1720 0.950 . S
H1694 C1723 0.950 . S
H1695 C1724 0.950 . S
H1696 C1726 0.950 . S
H1697 C1727 0.950 . S
C1698 H1680 0.951 . S
C1698 C1699 1.366 . S
C1698 C1700 1.388 . S
C1699 C1698 1.366 . S
C1699 C1703 1.385 . S
C1700 H1681 0.951 . S
C1700 C1698 1.388 . S
C1700 C1701 1.366 . S
C1701 C1700 1.366 . S
C1701 C1702 1.414 . S
C1701 C1704 1.499 . S
C1702 H1682 0.950 . S
C1702 C1701 1.414 . S
C1702 C1703 1.374 . S
C1703 H1683 0.950 . S
C1703 C1699 1.385 . S
C1703 C1702 1.374 . S
C1704 C1701 1.499 . S
C1704 C1705 1.373 . S
C1704 C1706 1.389 . S
C1705 H1684 0.950 . S
C1705 C1704 1.373 . S
C1705 C1721 1.377 . S
C1706 C1704 1.389 . S
C1706 C1707 1.524 . S
C1706 C1720 1.377 . S
C1707 C1706 1.524 . S
C1707 C1708 1.397 . S
C1707 C1712 1.363 . S
C1708 H1685 0.950 . S
C1708 C1707 1.397 . S
C1708 C1709 1.334 . S
C1709 H1686 0.950 . S
C1709 C1708 1.334 . S
C1709 C1710 1.287 . S
C1710 C1709 1.287 . S
C1710 C1711 1.524 . S
C1710 H1729 0.913 . S
C1711 H1687 0.950 . S
C1711 C1710 1.524 . S
C1711 C1712 1.415 . S
C1712 H1688 0.950 . S
C1712 C1707 1.363 . S
C1712 C1711 1.415 . S
C1713 H1689 0.951 . S
C1713 C1714 1.366 . S
C1713 C1715 1.388 . S
C1714 C1713 1.366 . S
C1714 C1718 1.385 . S
C1715 H1690 0.951 . S
C1715 C1713 1.388 . S
C1715 C1716 1.366 . S
C1716 C1715 1.366 . S
C1716 C1717 1.414 . S
C1716 C1719 1.499 . S
C1717 H1691 0.950 . S
C1717 C1716 1.414 . S
C1717 C1718 1.374 . S
C1718 H1692 0.950 . S
C1718 C1714 1.385 . S
C1718 C1717 1.374 . S
C1719 C1716 1.499 . S
C1719 C1720 1.373 . S
C1719 C1721 1.389 . S
C1720 H1693 0.950 . S
C1720 C1706 1.377 . S
C1720 C1719 1.373 . S
C1721 C1705 1.377 . S
C1721 C1719 1.389 . S
C1721 C1722 1.524 . S
C1722 C1721 1.524 . S
C1722 C1723 1.397 . S
C1722 C1727 1.363 . S
C1723 H1694 0.950 . S
C1723 C1722 1.397 . S
C1723 C1724 1.334 . S
C1724 H1695 0.950 . S
C1724 C1723 1.334 . S
C1724 C1725 1.287 . S
C1725 C1724 1.287 . S
C1725 C1726 1.524 . S
C1725 H1728 0.999 . S
C1726 H1696 0.950 . S
C1726 C1725 1.524 . S
C1726 C1727 1.415 . S
C1727 H1697 0.950 . S
C1727 C1722 1.363 . S
C1727 C1726 1.415 . S
H1728 C1725 0.999 . S
H1729 C1710 0.913 . S
H1730 C1748 0.951 . S
H1731 C1750 0.951 . S
H1732 C1752 0.950 . S
H1733 C1753 0.950 . S
H1734 C1755 0.950 . S
H1735 C1758 0.950 . S
H1736 C1759 0.950 . S
H1737 C1761 0.950 . S
H1738 C1762 0.950 . S
H1739 C1763 0.951 . S
H1740 C1765 0.951 . S
H1741 C1767 0.950 . S
H1742 C1768 0.950 . S
H1743 C1770 0.950 . S
H1744 C1773 0.950 . S
H1745 C1774 0.950 . S
H1746 C1776 0.950 . S
H1747 C1777 0.950 . S
C1748 H1730 0.951 . S
C1748 C1749 1.366 . S
C1748 C1750 1.388 . S
C1749 C1748 1.366 . S
C1749 C1753 1.385 . S
C1750 H1731 0.951 . S
C1750 C1748 1.388 . S
C1750 C1751 1.366 . S
C1751 C1750 1.366 . S
C1751 C1752 1.414 . S
C1751 C1754 1.499 . S
C1752 H1732 0.950 . S
C1752 C1751 1.414 . S
C1752 C1753 1.374 . S
C1753 H1733 0.950 . S
C1753 C1749 1.385 . S
C1753 C1752 1.374 . S
C1754 C1751 1.499 . S
C1754 C1755 1.373 . S
C1754 C1756 1.389 . S
C1755 H1734 0.950 . S
C1755 C1754 1.373 . S
C1755 C1771 1.377 . S
C1756 C1754 1.389 . S
C1756 C1757 1.524 . S
C1756 C1770 1.377 . S
C1757 C1756 1.524 . S
C1757 C1758 1.397 . S
C1757 C1762 1.363 . S
C1758 H1735 0.950 . S
C1758 C1757 1.397 . S
C1758 C1759 1.334 . S
C1759 H1736 0.950 . S
C1759 C1758 1.334 . S
C1759 C1760 1.287 . S
C1760 C1759 1.287 . S
C1760 C1761 1.524 . S
C1760 H1779 0.913 . S
C1761 H1737 0.950 . S
C1761 C1760 1.524 . S
C1761 C1762 1.415 . S
C1762 H1738 0.950 . S
C1762 C1757 1.363 . S
C1762 C1761 1.415 . S
C1763 H1739 0.951 . S
C1763 C1764 1.366 . S
C1763 C1765 1.388 . S
C1764 C1763 1.366 . S
C1764 C1768 1.385 . S
C1765 H1740 0.951 . S
C1765 C1763 1.388 . S
C1765 C1766 1.366 . S
C1766 C1765 1.366 . S
C1766 C1767 1.414 . S
C1766 C1769 1.499 . S
C1767 H1741 0.950 . S
C1767 C1766 1.414 . S
C1767 C1768 1.374 . S
C1768 H1742 0.950 . S
C1768 C1764 1.385 . S
C1768 C1767 1.374 . S
C1769 C1766 1.499 . S
C1769 C1770 1.373 . S
C1769 C1771 1.389 . S
C1770 H1743 0.950 . S
C1770 C1756 1.377 . S
C1770 C1769 1.373 . S
C1771 C1755 1.377 . S
C1771 C1769 1.389 . S
C1771 C1772 1.524 . S
C1772 C1771 1.524 . S
C1772 C1773 1.397 . S
C1772 C1777 1.363 . S
C1773 H1744 0.950 . S
C1773 C1772 1.397 . S
C1773 C1774 1.334 . S
C1774 H1745 0.950 . S
C1774 C1773 1.334 . S
C1774 C1775 1.287 . S
C1775 C1774 1.287 . S
C1775 C1776 1.524 . S
C1775 H1778 0.999 . S
C1776 H1746 0.950 . S
C1776 C1775 1.524 . S
C1776 C1777 1.415 . S
C1777 H1747 0.950 . S
C1777 C1772 1.363 . S
C1777 C1776 1.415 . S
H1778 C1775 0.999 . S
H1779 C1760 0.913 . S
H1780 C1798 0.951 . S
H1781 C1800 0.951 . S
H1782 C1802 0.950 . S
H1783 C1803 0.950 . S
H1784 C1805 0.950 . S
H1785 C1808 0.950 . S
H1786 C1809 0.950 . S
H1787 C1811 0.950 . S
H1788 C1812 0.950 . S
H1789 C1813 0.951 . S
H1790 C1815 0.951 . S
H1791 C1817 0.950 . S
H1792 C1818 0.950 . S
H1793 C1820 0.950 . S
H1794 C1823 0.950 . S
H1795 C1824 0.950 . S
H1796 C1826 0.950 . S
H1797 C1827 0.950 . S
C1798 H1780 0.951 . S
C1798 C1799 1.366 . S
C1798 C1800 1.388 . S
C1799 C1798 1.366 . S
C1799 C1803 1.385 . S
C1800 H1781 0.951 . S
C1800 C1798 1.388 . S
C1800 C1801 1.366 . S
C1801 C1800 1.366 . S
C1801 C1802 1.414 . S
C1801 C1804 1.499 . S
C1802 H1782 0.950 . S
C1802 C1801 1.414 . S
C1802 C1803 1.374 . S
C1803 H1783 0.950 . S
C1803 C1799 1.385 . S
C1803 C1802 1.374 . S
C1804 C1801 1.499 . S
C1804 C1805 1.373 . S
C1804 C1806 1.389 . S
C1805 H1784 0.950 . S
C1805 C1804 1.373 . S
C1805 C1821 1.377 . S
C1806 C1804 1.389 . S
C1806 C1807 1.524 . S
C1806 C1820 1.377 . S
C1807 C1806 1.524 . S
C1807 C1808 1.397 . S
C1807 C1812 1.363 . S
C1808 H1785 0.950 . S
C1808 C1807 1.397 . S
C1808 C1809 1.334 . S
C1809 H1786 0.950 . S
C1809 C1808 1.334 . S
C1809 C1810 1.287 . S
C1810 C1809 1.287 . S
C1810 C1811 1.524 . S
C1810 H1829 0.913 . S
C1811 H1787 0.950 . S
C1811 C1810 1.524 . S
C1811 C1812 1.415 . S
C1812 H1788 0.950 . S
C1812 C1807 1.363 . S
C1812 C1811 1.415 . S
C1813 H1789 0.951 . S
C1813 C1814 1.366 . S
C1813 C1815 1.388 . S
C1814 C1813 1.366 . S
C1814 C1818 1.385 . S
C1815 H1790 0.951 . S
C1815 C1813 1.388 . S
C1815 C1816 1.366 . S
C1816 C1815 1.366 . S
C1816 C1817 1.414 . S
C1816 C1819 1.499 . S
C1817 H1791 0.950 . S
C1817 C1816 1.414 . S
C1817 C1818 1.374 . S
C1818 H1792 0.950 . S
C1818 C1814 1.385 . S
C1818 C1817 1.374 . S
C1819 C1816 1.499 . S
C1819 C1820 1.373 . S
C1819 C1821 1.389 . S
C1820 H1793 0.950 . S
C1820 C1806 1.377 . S
C1820 C1819 1.373 . S
C1821 C1805 1.377 . S
C1821 C1819 1.389 . S
C1821 C1822 1.524 . S
C1822 C1821 1.524 . S
C1822 C1823 1.397 . S
C1822 C1827 1.363 . S
C1823 H1794 0.950 . S
C1823 C1822 1.397 . S
C1823 C1824 1.334 . S
C1824 H1795 0.950 . S
C1824 C1823 1.334 . S
C1824 C1825 1.287 . S
C1825 C1824 1.287 . S
C1825 C1826 1.524 . S
C1825 H1828 0.999 . S
C1826 H1796 0.950 . S
C1826 C1825 1.524 . S
C1826 C1827 1.415 . S
C1827 H1797 0.950 . S
C1827 C1822 1.363 . S
C1827 C1826 1.415 . S
H1828 C1825 0.999 . S
H1829 C1810 0.913 . S
H1830 C1848 0.951 . S
H1831 C1850 0.951 . S
H1832 C1852 0.950 . S
H1833 C1853 0.950 . S
H1834 C1855 0.950 . S
H1835 C1858 0.950 . S
H1836 C1859 0.950 . S
H1837 C1861 0.950 . S
H1838 C1862 0.950 . S
H1839 C1863 0.951 . S
H1840 C1865 0.951 . S
H1841 C1867 0.950 . S
H1842 C1868 0.950 . S
H1843 C1870 0.950 . S
H1844 C1873 0.950 . S
H1845 C1874 0.950 . S
H1846 C1876 0.950 . S
H1847 C1877 0.950 . S
C1848 H1830 0.951 . S
C1848 C1849 1.366 . S
C1848 C1850 1.388 . S
C1849 C1848 1.366 . S
C1849 C1853 1.385 . S
C1850 H1831 0.951 . S
C1850 C1848 1.388 . S
C1850 C1851 1.366 . S
C1851 C1850 1.366 . S
C1851 C1852 1.414 . S
C1851 C1854 1.499 . S
C1852 H1832 0.950 . S
C1852 C1851 1.414 . S
C1852 C1853 1.374 . S
C1853 H1833 0.950 . S
C1853 C1849 1.385 . S
C1853 C1852 1.374 . S
C1854 C1851 1.499 . S
C1854 C1855 1.373 . S
C1854 C1856 1.389 . S
C1855 H1834 0.950 . S
C1855 C1854 1.373 . S
C1855 C1871 1.377 . S
C1856 C1854 1.389 . S
C1856 C1857 1.524 . S
C1856 C1870 1.377 . S
C1857 C1856 1.524 . S
C1857 C1858 1.397 . S
C1857 C1862 1.363 . S
C1858 H1835 0.950 . S
C1858 C1857 1.397 . S
C1858 C1859 1.334 . S
C1859 H1836 0.950 . S
C1859 C1858 1.334 . S
C1859 C1860 1.287 . S
C1860 C1859 1.287 . S
C1860 C1861 1.524 . S
C1860 H1879 0.913 . S
C1861 H1837 0.950 . S
C1861 C1860 1.524 . S
C1861 C1862 1.415 . S
C1862 H1838 0.950 . S
C1862 C1857 1.363 . S
C1862 C1861 1.415 . S
C1863 H1839 0.951 . S
C1863 C1864 1.366 . S
C1863 C1865 1.388 . S
C1864 C1863 1.366 . S
C1864 C1868 1.385 . S
C1865 H1840 0.951 . S
C1865 C1863 1.388 . S
C1865 C1866 1.366 . S
C1866 C1865 1.366 . S
C1866 C1867 1.414 . S
C1866 C1869 1.499 . S
C1867 H1841 0.950 . S
C1867 C1866 1.414 . S
C1867 C1868 1.374 . S
C1868 H1842 0.950 . S
C1868 C1864 1.385 . S
C1868 C1867 1.374 . S
C1869 C1866 1.499 . S
C1869 C1870 1.373 . S
C1869 C1871 1.389 . S
C1870 H1843 0.950 . S
C1870 C1856 1.377 . S
C1870 C1869 1.373 . S
C1871 C1855 1.377 . S
C1871 C1869 1.389 . S
C1871 C1872 1.524 . S
C1872 C1871 1.524 . S
C1872 C1873 1.397 . S
C1872 C1877 1.363 . S
C1873 H1844 0.950 . S
C1873 C1872 1.397 . S
C1873 C1874 1.334 . S
C1874 H1845 0.950 . S
C1874 C1873 1.334 . S
C1874 C1875 1.287 . S
C1875 C1874 1.287 . S
C1875 C1876 1.524 . S
C1875 H1878 0.999 . S
C1876 H1846 0.950 . S
C1876 C1875 1.524 . S
C1876 C1877 1.415 . S
C1877 H1847 0.950 . S
C1877 C1872 1.363 . S
C1877 C1876 1.415 . S
H1878 C1875 0.999 . S
H1879 C1860 0.913 . S
H1880 C1898 0.951 . S
H1881 C1900 0.951 . S
H1882 C1902 0.950 . S
H1883 C1903 0.950 . S
H1884 C1905 0.950 . S
H1885 C1908 0.950 . S
H1886 C1909 0.950 . S
H1887 C1911 0.950 . S
H1888 C1912 0.950 . S
H1889 C1913 0.951 . S
H1890 C1915 0.951 . S
H1891 C1917 0.950 . S
H1892 C1918 0.950 . S
H1893 C1920 0.950 . S
H1894 C1923 0.950 . S
H1895 C1924 0.950 . S
H1896 C1926 0.950 . S
H1897 C1927 0.950 . S
C1898 H1880 0.951 . S
C1898 C1899 1.366 . S
C1898 C1900 1.388 . S
C1899 C1898 1.366 . S
C1899 C1903 1.385 . S
C1900 H1881 0.951 . S
C1900 C1898 1.388 . S
C1900 C1901 1.366 . S
C1901 C1900 1.366 . S
C1901 C1902 1.414 . S
C1901 C1904 1.499 . S
C1902 H1882 0.950 . S
C1902 C1901 1.414 . S
C1902 C1903 1.374 . S
C1903 H1883 0.950 . S
C1903 C1899 1.385 . S
C1903 C1902 1.374 . S
C1904 C1901 1.499 . S
C1904 C1905 1.373 . S
C1904 C1906 1.389 . S
C1905 H1884 0.950 . S
C1905 C1904 1.373 . S
C1905 C1921 1.377 . S
C1906 C1904 1.389 . S
C1906 C1907 1.524 . S
C1906 C1920 1.377 . S
C1907 C1906 1.524 . S
C1907 C1908 1.397 . S
C1907 C1912 1.363 . S
C1908 H1885 0.950 . S
C1908 C1907 1.397 . S
C1908 C1909 1.334 . S
C1909 H1886 0.950 . S
C1909 C1908 1.334 . S
C1909 C1910 1.287 . S
C1910 C1909 1.287 . S
C1910 C1911 1.524 . S
C1910 H1929 0.913 . S
C1911 H1887 0.950 . S
C1911 C1910 1.524 . S
C1911 C1912 1.415 . S
C1912 H1888 0.950 . S
C1912 C1907 1.363 . S
C1912 C1911 1.415 . S
C1913 H1889 0.951 . S
C1913 C1914 1.366 . S
C1913 C1915 1.388 . S
C1914 C1913 1.366 . S
C1914 C1918 1.385 . S
C1915 H1890 0.951 . S
C1915 C1913 1.388 . S
C1915 C1916 1.366 . S
C1916 C1915 1.366 . S
C1916 C1917 1.414 . S
C1916 C1919 1.499 . S
C1917 H1891 0.950 . S
C1917 C1916 1.414 . S
C1917 C1918 1.374 . S
C1918 H1892 0.950 . S
C1918 C1914 1.385 . S
C1918 C1917 1.374 . S
C1919 C1916 1.499 . S
C1919 C1920 1.373 . S
C1919 C1921 1.389 . S
C1920 H1893 0.950 . S
C1920 C1906 1.377 . S
C1920 C1919 1.373 . S
C1921 C1905 1.377 . S
C1921 C1919 1.389 . S
C1921 C1922 1.524 . S
C1922 C1921 1.524 . S
C1922 C1923 1.397 . S
C1922 C1927 1.363 . S
C1923 H1894 0.950 . S
C1923 C1922 1.397 . S
C1923 C1924 1.334 . S
C1924 H1895 0.950 . S
C1924 C1923 1.334 . S
C1924 C1925 1.287 . S
C1925 C1924 1.287 . S
C1925 C1926 1.524 . S
C1925 H1928 0.999 . S
C1926 H1896 0.950 . S
C1926 C1925 1.524 . S
C1926 C1927 1.415 . S
C1927 H1897 0.950 . S
C1927 C1922 1.363 . S
C1927 C1926 1.415 . S
H1928 C1925 0.999 . S
H1929 C1910 0.913 . S
H1930 C1948 0.951 . S
H1931 C1950 0.951 . S
H1932 C1952 0.950 . S
H1933 C1953 0.950 . S
H1934 C1955 0.950 . S
H1935 C1958 0.950 . S
H1936 C1959 0.950 . S
H1937 C1961 0.950 . S
H1938 C1962 0.950 . S
H1939 C1963 0.951 . S
H1940 C1965 0.951 . S
H1941 C1967 0.950 . S
H1942 C1968 0.950 . S
H1943 C1970 0.950 . S
H1944 C1973 0.950 . S
H1945 C1974 0.950 . S
H1946 C1976 0.950 . S
H1947 C1977 0.950 . S
C1948 H1930 0.951 . S
C1948 C1949 1.366 . S
C1948 C1950 1.388 . S
C1949 C1948 1.366 . S
C1949 C1953 1.385 . S
C1950 H1931 0.951 . S
C1950 C1948 1.388 . S
C1950 C1951 1.366 . S
C1951 C1950 1.366 . S
C1951 C1952 1.414 . S
C1951 C1954 1.499 . S
C1952 H1932 0.950 . S
C1952 C1951 1.414 . S
C1952 C1953 1.374 . S
C1953 H1933 0.950 . S
C1953 C1949 1.385 . S
C1953 C1952 1.374 . S
C1954 C1951 1.499 . S
C1954 C1955 1.373 . S
C1954 C1956 1.389 . S
C1955 H1934 0.950 . S
C1955 C1954 1.373 . S
C1955 C1971 1.377 . S
C1956 C1954 1.389 . S
C1956 C1957 1.524 . S
C1956 C1970 1.377 . S
C1957 C1956 1.524 . S
C1957 C1958 1.397 . S
C1957 C1962 1.363 . S
C1958 H1935 0.950 . S
C1958 C1957 1.397 . S
C1958 C1959 1.334 . S
C1959 H1936 0.950 . S
C1959 C1958 1.334 . S
C1959 C1960 1.287 . S
C1960 C1959 1.287 . S
C1960 C1961 1.524 . S
C1960 H1979 0.913 . S
C1961 H1937 0.950 . S
C1961 C1960 1.524 . S
C1961 C1962 1.415 . S
C1962 H1938 0.950 . S
C1962 C1957 1.363 . S
C1962 C1961 1.415 . S
C1963 H1939 0.951 . S
C1963 C1964 1.366 . S
C1963 C1965 1.388 . S
C1964 C1963 1.366 . S
C1964 C1968 1.385 . S
C1965 H1940 0.951 . S
C1965 C1963 1.388 . S
C1965 C1966 1.366 . S
C1966 C1965 1.366 . S
C1966 C1967 1.414 . S
C1966 C1969 1.499 . S
C1967 H1941 0.950 . S
C1967 C1966 1.414 . S
C1967 C1968 1.374 . S
C1968 H1942 0.950 . S
C1968 C1964 1.385 . S
C1968 C1967 1.374 . S
C1969 C1966 1.499 . S
C1969 C1970 1.373 . S
C1969 C1971 1.389 . S
C1970 H1943 0.950 . S
C1970 C1956 1.377 . S
C1970 C1969 1.373 . S
C1971 C1955 1.377 . S
C1971 C1969 1.389 . S
C1971 C1972 1.524 . S
C1972 C1971 1.524 . S
C1972 C1973 1.397 . S
C1972 C1977 1.363 . S
C1973 H1944 0.950 . S
C1973 C1972 1.397 . S
C1973 C1974 1.334 . S
C1974 H1945 0.950 . S
C1974 C1973 1.334 . S
C1974 C1975 1.287 . S
C1975 C1974 1.287 . S
C1975 C1976 1.524 . S
C1975 H1978 0.999 . S
C1976 H1946 0.950 . S
C1976 C1975 1.524 . S
C1976 C1977 1.415 . S
C1977 H1947 0.950 . S
C1977 C1972 1.363 . S
C1977 C1976 1.415 . S
H1978 C1975 0.999 . S
H1979 C1960 0.913 . S
H1980 C1998 0.951 . S
H1981 C2000 0.951 . S
H1982 C2002 0.950 . S
H1983 C2003 0.950 . S
H1984 C2005 0.950 . S
H1985 C2008 0.950 . S
H1986 C2009 0.950 . S
H1987 C2011 0.950 . S
H1988 C2012 0.950 . S
H1989 C2013 0.951 . S
H1990 C2015 0.951 . S
H1991 C2017 0.950 . S
H1992 C2018 0.950 . S
H1993 C2020 0.950 1_655 S
H1994 C2023 0.950 . S
H1995 C2024 0.950 . S
H1996 C2026 0.950 1_556 S
H1997 C2027 0.950 . S
C1998 H1980 0.951 . S
C1998 C1999 1.366 . S
C1998 C2000 1.388 . S
C1999 C1998 1.366 . S
C1999 C2003 1.385 . S
C2000 H1981 0.951 . S
C2000 C1998 1.388 . S
C2000 C2001 1.366 . S
C2001 C2000 1.366 . S
C2001 C2002 1.414 . S
C2001 C2004 1.499 . S
C2002 H1982 0.950 . S
C2002 C2001 1.414 . S
C2002 C2003 1.374 . S
C2003 H1983 0.950 . S
C2003 C1999 1.385 . S
C2003 C2002 1.374 . S
C2004 C2001 1.499 . S
C2004 C2005 1.373 . S
C2004 C2006 1.389 . S
C2005 H1984 0.950 . S
C2005 C2004 1.373 . S
C2005 C2021 1.377 . S
C2006 C2004 1.389 . S
C2006 C2007 1.524 . S
C2006 C2020 1.377 . S
C2007 C2006 1.524 . S
C2007 C2008 1.397 . S
C2007 C2012 1.363 . S
C2008 H1985 0.950 . S
C2008 C2007 1.397 . S
C2008 C2009 1.334 . S
C2009 H1986 0.950 . S
C2009 C2008 1.334 . S
C2009 C2010 1.287 . S
C2010 C2009 1.287 . S
C2010 C2011 1.524 . S
C2010 H2029 0.913 . S
C2011 H1987 0.950 . S
C2011 C2010 1.524 . S
C2011 C2012 1.415 . S
C2012 H1988 0.950 . S
C2012 C2007 1.363 . S
C2012 C2011 1.415 . S
C2013 H1989 0.951 . S
C2013 C2014 1.366 . S
C2013 C2015 1.388 . S
C2014 C2013 1.366 . S
C2014 C2018 1.385 . S
C2015 H1990 0.951 . S
C2015 C2013 1.388 . S
C2015 C2016 1.366 . S
C2016 C2015 1.366 . S
C2016 C2017 1.414 . S
C2016 C2019 1.499 1_655 S
C2017 H1991 0.950 . S
C2017 C2016 1.414 . S
C2017 C2018 1.374 . S
C2018 H1992 0.950 . S
C2018 C2014 1.385 . S
C2018 C2017 1.374 . S
C2019 C2016 1.499 1_455 S
C2019 C2020 1.373 . S
C2019 C2021 1.389 . S
C2020 H1993 0.950 1_455 S
C2020 C2006 1.377 . S
C2020 C2019 1.373 . S
C2021 C2005 1.377 . S
C2021 C2019 1.389 . S
C2021 C2022 1.524 . S
C2022 C2021 1.524 . S
C2022 C2023 1.397 . S
C2022 C2027 1.363 . S
C2023 H1994 0.950 . S
C2023 C2022 1.397 . S
C2023 C2024 1.334 . S
C2024 H1995 0.950 . S
C2024 C2023 1.334 . S
C2024 C2025 1.287 . S
C2025 C2024 1.287 . S
C2025 C2026 1.524 . S
C2025 H2028 0.999 . S
C2026 H1996 0.950 1_554 S
C2026 C2025 1.524 . S
C2026 C2027 1.415 . S
C2027 H1997 0.950 . S
C2027 C2022 1.363 . S
C2027 C2026 1.415 . S
H2028 C2025 0.999 . S
H2029 C2010 0.913 . S
H2030 C2048 0.951 . S
H2031 C2050 0.951 . S
H2032 C2052 0.950 . S
H2033 C2053 0.950 . S
H2034 C2055 0.950 . S
H2035 C2058 0.950 . S
H2036 C2059 0.950 . S
H2037 C2061 0.950 . S
H2038 C2062 0.950 . S
H2039 C2063 0.951 . S
H2040 C2065 0.951 . S
H2041 C2067 0.950 . S
H2042 C2068 0.950 . S
H2043 C2070 0.950 . S
H2044 C2073 0.950 . S
H2045 C2074 0.950 . S
H2046 C2076 0.950 . S
H2047 C2077 0.950 . S
C2048 H2030 0.951 . S
C2048 C2049 1.366 . S
C2048 C2050 1.388 . S
C2049 C2048 1.366 . S
C2049 C2053 1.385 . S
C2050 H2031 0.951 . S
C2050 C2048 1.388 . S
C2050 C2051 1.366 . S
C2051 C2050 1.366 . S
C2051 C2052 1.414 . S
C2051 C2054 1.499 . S
C2052 H2032 0.950 . S
C2052 C2051 1.414 . S
C2052 C2053 1.374 . S
C2053 H2033 0.950 . S
C2053 C2049 1.385 . S
C2053 C2052 1.374 . S
C2054 C2051 1.499 . S
C2054 C2055 1.373 . S
C2054 C2056 1.389 . S
C2055 H2034 0.950 . S
C2055 C2054 1.373 . S
C2055 C2071 1.377 . S
C2056 C2054 1.389 . S
C2056 C2057 1.524 . S
C2056 C2070 1.377 . S
C2057 C2056 1.524 . S
C2057 C2058 1.397 . S
C2057 C2062 1.363 . S
C2058 H2035 0.950 . S
C2058 C2057 1.397 . S
C2058 C2059 1.334 . S
C2059 H2036 0.950 . S
C2059 C2058 1.334 . S
C2059 C2060 1.287 . S
C2060 C2059 1.287 . S
C2060 C2061 1.524 . S
C2060 H2079 0.913 . S
C2061 H2037 0.950 . S
C2061 C2060 1.524 . S
C2061 C2062 1.415 . S
C2062 H2038 0.950 . S
C2062 C2057 1.363 . S
C2062 C2061 1.415 . S
C2063 H2039 0.951 . S
C2063 C2064 1.366 . S
C2063 C2065 1.388 . S
C2064 C2063 1.366 . S
C2064 C2068 1.385 . S
C2065 H2040 0.951 . S
C2065 C2063 1.388 . S
C2065 C2066 1.366 . S
C2066 C2065 1.366 . S
C2066 C2067 1.414 . S
C2066 C2069 1.499 . S
C2067 H2041 0.950 . S
C2067 C2066 1.414 . S
C2067 C2068 1.374 . S
C2068 H2042 0.950 . S
C2068 C2064 1.385 . S
C2068 C2067 1.374 . S
C2069 C2066 1.499 . S
C2069 C2070 1.373 . S
C2069 C2071 1.389 . S
C2070 H2043 0.950 . S
C2070 C2056 1.377 . S
C2070 C2069 1.373 . S
C2071 C2055 1.377 . S
C2071 C2069 1.389 . S
C2071 C2072 1.524 . S
C2072 C2071 1.524 . S
C2072 C2073 1.397 . S
C2072 C2077 1.363 . S
C2073 H2044 0.950 . S
C2073 C2072 1.397 . S
C2073 C2074 1.334 . S
C2074 H2045 0.950 . S
C2074 C2073 1.334 . S
C2074 C2075 1.287 . S
C2075 C2074 1.287 . S
C2075 C2076 1.524 . S
C2075 H2078 0.999 . S
C2076 H2046 0.950 . S
C2076 C2075 1.524 . S
C2076 C2077 1.415 . S
C2077 H2047 0.950 . S
C2077 C2072 1.363 . S
C2077 C2076 1.415 . S
H2078 C2075 0.999 . S
H2079 C2060 0.913 . S
H2080 C2098 0.951 . S
H2081 C2100 0.951 . S
H2082 C2102 0.950 . S
H2083 C2103 0.950 . S
H2084 C2105 0.950 . S
H2085 C2108 0.950 . S
H2086 C2109 0.950 . S
H2087 C2111 0.950 . S
H2088 C2112 0.950 . S
H2089 C2113 0.951 . S
H2090 C2115 0.951 . S
H2091 C2117 0.950 . S
H2092 C2118 0.950 . S
H2093 C2120 0.950 . S
H2094 C2123 0.950 . S
H2095 C2124 0.950 . S
H2096 C2126 0.950 . S
H2097 C2127 0.950 . S
C2098 H2080 0.951 . S
C2098 C2099 1.366 . S
C2098 C2100 1.388 . S
C2099 C2098 1.366 . S
C2099 C2103 1.385 . S
C2100 H2081 0.951 . S
C2100 C2098 1.388 . S
C2100 C2101 1.366 . S
C2101 C2100 1.366 . S
C2101 C2102 1.414 . S
C2101 C2104 1.499 . S
C2102 H2082 0.950 . S
C2102 C2101 1.414 . S
C2102 C2103 1.374 . S
C2103 H2083 0.950 . S
C2103 C2099 1.385 . S
C2103 C2102 1.374 . S
C2104 C2101 1.499 . S
C2104 C2105 1.373 . S
C2104 C2106 1.389 . S
C2105 H2084 0.950 . S
C2105 C2104 1.373 . S
C2105 C2121 1.377 . S
C2106 C2104 1.389 . S
C2106 C2107 1.524 . S
C2106 C2120 1.377 . S
C2107 C2106 1.524 . S
C2107 C2108 1.397 . S
C2107 C2112 1.363 . S
C2108 H2085 0.950 . S
C2108 C2107 1.397 . S
C2108 C2109 1.334 . S
C2109 H2086 0.950 . S
C2109 C2108 1.334 . S
C2109 C2110 1.287 . S
C2110 C2109 1.287 . S
C2110 C2111 1.524 . S
C2110 H2129 0.913 . S
C2111 H2087 0.950 . S
C2111 C2110 1.524 . S
C2111 C2112 1.415 . S
C2112 H2088 0.950 . S
C2112 C2107 1.363 . S
C2112 C2111 1.415 . S
C2113 H2089 0.951 . S
C2113 C2114 1.366 . S
C2113 C2115 1.388 . S
C2114 C2113 1.366 . S
C2114 C2118 1.385 . S
C2115 H2090 0.951 . S
C2115 C2113 1.388 . S
C2115 C2116 1.366 . S
C2116 C2115 1.366 . S
C2116 C2117 1.414 . S
C2116 C2119 1.499 . S
C2117 H2091 0.950 . S
C2117 C2116 1.414 . S
C2117 C2118 1.374 . S
C2118 H2092 0.950 . S
C2118 C2114 1.385 . S
C2118 C2117 1.374 . S
C2119 C2116 1.499 . S
C2119 C2120 1.373 . S
C2119 C2121 1.389 . S
C2120 H2093 0.950 . S
C2120 C2106 1.377 . S
C2120 C2119 1.373 . S
C2121 C2105 1.377 . S
C2121 C2119 1.389 . S
C2121 C2122 1.524 . S
C2122 C2121 1.524 . S
C2122 C2123 1.397 . S
C2122 C2127 1.363 . S
C2123 H2094 0.950 . S
C2123 C2122 1.397 . S
C2123 C2124 1.334 . S
C2124 H2095 0.950 . S
C2124 C2123 1.334 . S
C2124 C2125 1.287 . S
C2125 C2124 1.287 . S
C2125 C2126 1.524 . S
C2125 H2128 0.999 . S
C2126 H2096 0.950 . S
C2126 C2125 1.524 . S
C2126 C2127 1.415 . S
C2127 H2097 0.950 . S
C2127 C2122 1.363 . S
C2127 C2126 1.415 . S
H2128 C2125 0.999 . S
H2129 C2110 0.913 . S
H2130 C2148 0.951 . S
H2131 C2150 0.951 . S
H2132 C2152 0.950 . S
H2133 C2153 0.950 . S
H2134 C2155 0.950 . S
H2135 C2158 0.950 . S
H2136 C2159 0.950 . S
H2137 C2161 0.950 . S
H2138 C2162 0.950 . S
H2139 C2163 0.951 . S
H2140 C2165 0.951 . S
H2141 C2167 0.950 . S
H2142 C2168 0.950 . S
H2143 C2170 0.950 . S
H2144 C2173 0.950 . S
H2145 C2174 0.950 . S
H2146 C2176 0.950 . S
H2147 C2177 0.950 . S
C2148 H2130 0.951 . S
C2148 C2149 1.366 . S
C2148 C2150 1.388 . S
C2149 C2148 1.366 . S
C2149 C2153 1.385 . S
C2150 H2131 0.951 . S
C2150 C2148 1.388 . S
C2150 C2151 1.366 . S
C2151 C2150 1.366 . S
C2151 C2152 1.414 . S
C2151 C2154 1.499 . S
C2152 H2132 0.950 . S
C2152 C2151 1.414 . S
C2152 C2153 1.374 . S
C2153 H2133 0.950 . S
C2153 C2149 1.385 . S
C2153 C2152 1.374 . S
C2154 C2151 1.499 . S
C2154 C2155 1.373 . S
C2154 C2156 1.389 . S
C2155 H2134 0.950 . S
C2155 C2154 1.373 . S
C2155 C2171 1.377 . S
C2156 C2154 1.389 . S
C2156 C2157 1.524 . S
C2156 C2170 1.377 . S
C2157 C2156 1.524 . S
C2157 C2158 1.397 . S
C2157 C2162 1.363 . S
C2158 H2135 0.950 . S
C2158 C2157 1.397 . S
C2158 C2159 1.334 . S
C2159 H2136 0.950 . S
C2159 C2158 1.334 . S
C2159 C2160 1.287 . S
C2160 C2159 1.287 . S
C2160 C2161 1.524 . S
C2160 H2179 0.913 . S
C2161 H2137 0.950 . S
C2161 C2160 1.524 . S
C2161 C2162 1.415 . S
C2162 H2138 0.950 . S
C2162 C2157 1.363 . S
C2162 C2161 1.415 . S
C2163 H2139 0.951 . S
C2163 C2164 1.366 . S
C2163 C2165 1.388 . S
C2164 C2163 1.366 . S
C2164 C2168 1.385 . S
C2165 H2140 0.951 . S
C2165 C2163 1.388 . S
C2165 C2166 1.366 . S
C2166 C2165 1.366 . S
C2166 C2167 1.414 . S
C2166 C2169 1.499 . S
C2167 H2141 0.950 . S
C2167 C2166 1.414 . S
C2167 C2168 1.374 . S
C2168 H2142 0.950 . S
C2168 C2164 1.385 . S
C2168 C2167 1.374 . S
C2169 C2166 1.499 . S
C2169 C2170 1.373 . S
C2169 C2171 1.389 . S
C2170 H2143 0.950 . S
C2170 C2156 1.377 . S
C2170 C2169 1.373 . S
C2171 C2155 1.377 . S
C2171 C2169 1.389 . S
C2171 C2172 1.524 . S
C2172 C2171 1.524 . S
C2172 C2173 1.397 . S
C2172 C2177 1.363 . S
C2173 H2144 0.950 . S
C2173 C2172 1.397 . S
C2173 C2174 1.334 . S
C2174 H2145 0.950 . S
C2174 C2173 1.334 . S
C2174 C2175 1.287 . S
C2175 C2174 1.287 . S
C2175 C2176 1.524 . S
C2175 H2178 0.999 . S
C2176 H2146 0.950 . S
C2176 C2175 1.524 . S
C2176 C2177 1.415 . S
C2177 H2147 0.950 . S
C2177 C2172 1.363 . S
C2177 C2176 1.415 . S
H2178 C2175 0.999 . S
H2179 C2160 0.913 . S
H2180 C2198 0.951 . S
H2181 C2200 0.951 . S
H2182 C2202 0.950 . S
H2183 C2203 0.950 . S
H2184 C2205 0.950 . S
H2185 C2208 0.950 . S
H2186 C2209 0.950 . S
H2187 C2211 0.950 . S
H2188 C2212 0.950 . S
H2189 C2213 0.951 . S
H2190 C2215 0.951 . S
H2191 C2217 0.950 . S
H2192 C2218 0.950 . S
H2193 C2220 0.950 . S
H2194 C2223 0.950 . S
H2195 C2224 0.950 . S
H2196 C2226 0.950 . S
H2197 C2227 0.950 . S
C2198 H2180 0.951 . S
C2198 C2199 1.366 . S
C2198 C2200 1.388 . S
C2199 C2198 1.366 . S
C2199 C2203 1.385 . S
C2200 H2181 0.951 . S
C2200 C2198 1.388 . S
C2200 C2201 1.366 . S
C2201 C2200 1.366 . S
C2201 C2202 1.414 . S
C2201 C2204 1.499 . S
C2202 H2182 0.950 . S
C2202 C2201 1.414 . S
C2202 C2203 1.374 . S
C2203 H2183 0.950 . S
C2203 C2199 1.385 . S
C2203 C2202 1.374 . S
C2204 C2201 1.499 . S
C2204 C2205 1.373 . S
C2204 C2206 1.389 . S
C2205 H2184 0.950 . S
C2205 C2204 1.373 . S
C2205 C2221 1.377 . S
C2206 C2204 1.389 . S
C2206 C2207 1.524 . S
C2206 C2220 1.377 . S
C2207 C2206 1.524 . S
C2207 C2208 1.397 1_556 S
C2207 C2212 1.363 . S
C2208 H2185 0.950 . S
C2208 C2207 1.397 1_554 S
C2208 C2209 1.334 . S
C2209 H2186 0.950 . S
C2209 C2208 1.334 . S
C2209 C2210 1.287 . S
C2210 C2209 1.287 . S
C2210 C2211 1.524 1_554 S
C2210 H2229 0.913 . S
C2211 H2187 0.950 . S
C2211 C2210 1.524 1_556 S
C2211 C2212 1.415 . S
C2212 H2188 0.950 . S
C2212 C2207 1.363 . S
C2212 C2211 1.415 . S
C2213 H2189 0.951 . S
C2213 C2214 1.366 . S
C2213 C2215 1.388 . S
C2214 C2213 1.366 . S
C2214 C2218 1.385 . S
C2215 H2190 0.951 . S
C2215 C2213 1.388 . S
C2215 C2216 1.366 . S
C2216 C2215 1.366 . S
C2216 C2217 1.414 . S
C2216 C2219 1.499 . S
C2217 H2191 0.950 . S
C2217 C2216 1.414 . S
C2217 C2218 1.374 . S
C2218 H2192 0.950 . S
C2218 C2214 1.385 . S
C2218 C2217 1.374 . S
C2219 C2216 1.499 . S
C2219 C2220 1.373 . S
C2219 C2221 1.389 . S
C2220 H2193 0.950 . S
C2220 C2206 1.377 . S
C2220 C2219 1.373 . S
C2221 C2205 1.377 . S
C2221 C2219 1.389 . S
C2221 C2222 1.524 . S
C2222 C2221 1.524 . S
C2222 C2223 1.397 . S
C2222 C2227 1.363 . S
C2223 H2194 0.950 . S
C2223 C2222 1.397 . S
C2223 C2224 1.334 . S
C2224 H2195 0.950 . S
C2224 C2223 1.334 . S
C2224 C2225 1.287 . S
C2225 C2224 1.287 . S
C2225 C2226 1.524 . S
C2225 H2228 0.999 . S
C2226 H2196 0.950 . S
C2226 C2225 1.524 . S
C2226 C2227 1.415 . S
C2227 H2197 0.950 . S
C2227 C2222 1.363 . S
C2227 C2226 1.415 . S
H2228 C2225 0.999 . S
H2229 C2210 0.913 . S
H2230 C2248 0.951 . S
H2231 C2250 0.951 . S
H2232 C2252 0.950 . S
H2233 C2253 0.950 . S
H2234 C2255 0.950 . S
H2235 C2258 0.950 . S
H2236 C2259 0.950 . S
H2237 C2261 0.950 . S
H2238 C2262 0.950 . S
H2239 C2263 0.951 . S
H2240 C2265 0.951 . S
H2241 C2267 0.950 . S
H2242 C2268 0.950 . S
H2243 C2270 0.950 . S
H2244 C2273 0.950 . S
H2245 C2274 0.950 . S
H2246 C2276 0.950 . S
H2247 C2277 0.950 . S
C2248 H2230 0.951 . S
C2248 C2249 1.366 . S
C2248 C2250 1.388 . S
C2249 C2248 1.366 . S
C2249 C2253 1.385 . S
C2250 H2231 0.951 . S
C2250 C2248 1.388 . S
C2250 C2251 1.366 . S
C2251 C2250 1.366 . S
C2251 C2252 1.414 . S
C2251 C2254 1.499 . S
C2252 H2232 0.950 . S
C2252 C2251 1.414 . S
C2252 C2253 1.374 . S
C2253 H2233 0.950 . S
C2253 C2249 1.385 . S
C2253 C2252 1.374 . S
C2254 C2251 1.499 . S
C2254 C2255 1.373 . S
C2254 C2256 1.389 . S
C2255 H2234 0.950 . S
C2255 C2254 1.373 . S
C2255 C2271 1.377 . S
C2256 C2254 1.389 . S
C2256 C2257 1.524 . S
C2256 C2270 1.377 . S
C2257 C2256 1.524 . S
C2257 C2258 1.397 . S
C2257 C2262 1.363 . S
C2258 H2235 0.950 . S
C2258 C2257 1.397 . S
C2258 C2259 1.334 . S
C2259 H2236 0.950 . S
C2259 C2258 1.334 . S
C2259 C2260 1.287 . S
C2260 C2259 1.287 . S
C2260 C2261 1.524 . S
C2260 H2279 0.913 . S
C2261 H2237 0.950 . S
C2261 C2260 1.524 . S
C2261 C2262 1.415 . S
C2262 H2238 0.950 . S
C2262 C2257 1.363 . S
C2262 C2261 1.415 . S
C2263 H2239 0.951 . S
C2263 C2264 1.366 . S
C2263 C2265 1.388 . S
C2264 C2263 1.366 . S
C2264 C2268 1.385 . S
C2265 H2240 0.951 . S
C2265 C2263 1.388 . S
C2265 C2266 1.366 . S
C2266 C2265 1.366 . S
C2266 C2267 1.414 . S
C2266 C2269 1.514 . S
C2267 H2241 0.950 . S
C2267 C2266 1.414 . S
C2267 C2268 1.374 . S
C2268 H2242 0.950 . S
C2268 C2264 1.385 . S
C2268 C2267 1.374 . S
C2269 C2266 1.514 . S
C2269 C2270 1.360 1_455 S
C2269 C2271 1.387 1_455 S
C2270 H2243 0.950 . S
C2270 C2256 1.377 . S
C2270 C2269 1.360 1_655 S
C2271 C2255 1.377 . S
C2271 C2269 1.387 1_655 S
C2271 C2272 1.524 1_655 S
C2272 C2271 1.524 1_455 S
C2272 C2273 1.397 . S
C2272 C2277 1.363 . S
C2273 H2244 0.950 . S
C2273 C2272 1.397 . S
C2273 C2274 1.334 . S
C2274 H2245 0.950 . S
C2274 C2273 1.334 . S
C2274 C2275 1.287 . S
C2275 C2274 1.287 . S
C2275 C2276 1.524 . S
C2275 H2278 0.999 . S
C2276 H2246 0.950 . S
C2276 C2275 1.524 . S
C2276 C2277 1.415 . S
C2277 H2247 0.950 . S
C2277 C2272 1.363 . S
C2277 C2276 1.415 . S
H2278 C2275 0.999 . S
H2279 C2260 0.913 . S
C499 C9 1.541 . S
C514 C448 1.608 . S
C549 C368 1.586 1_565 S
C564 C48 1.588 . S
C599 C89 1.319 . S
C614 C329 1.324 . S
C649 C128 1.555 . S
C664 C408 1.554 . S
C699 C168 1.964 . S
C714 C409 1.888 . S
C749 C209 1.239 . S
C764 C449 1.235 . S
C799 C369 1.673 . S
C814 C248 1.746 1_556 S
C849 C288 1.224 . S
C864 C328 1.228 . S
C899 C129 1.838 . S
C914 C169 1.824 . S
C949 C8 1.658 . S
C964 C208 1.663 . S
C999 C49 1.375 . S
C1014 C249 1.383 . S
C1049 C289 1.628 . S
C1064 C88 1.680 . S
C1099 C5 2.533 . S
C1114 C339 2.585 . S
C1149 C55 0.985 . S
C1164 C418 0.949 . S
C1199 C458 1.411 . S
C1214 C85 1.490 . S
C1249 C135 1.323 . S
C1264 C378 1.257 . S
C1299 C175 1.440 . S
C1314 C379 1.431 . S
C1349 C338 1.513 . S
C1364 C205 1.592 . S
C1399 C419 1.923 . S
C1414 C255 1.934 . S
C1449 C459 1.753 . S
C1464 C295 1.764 . S
C1499 C18 1.384 . S
C1514 C125 1.454 . S
C1549 C15 2.223 . S
C1564 C59 2.205 . S
C1599 C45 1.861 . S
C1614 C98 1.775 . S
C1649 C139 1.899 . S
C1664 C95 1.908 . S
C1699 C215 0.927 . S
C1714 C179 0.920 . S
C1749 C218 1.473 . S
C1764 C245 1.555 . S
C1799 C259 1.125 . S
C1814 C285 1.118 . S
C1849 C165 1.596 . S
C1864 C299 1.624 . S
C1899 C335 1.110 . S
C1914 C138 1.053 . S
C1949 C219 1.625 . S
C1964 C375 1.638 . S
C1999 C325 1.773 . S
C2014 C258 1.686 . S
C2049 C415 1.540 . S
C2064 C298 1.445 . S
C2099 C178 0.636 . S
C2114 C455 0.598 . S
C2149 C445 1.373 . S
C2164 C58 1.313 . S
C2199 C99 1.200 . S
C2214 C365 1.192 . S
C2249 C405 1.735 . S
C2264 C19 1.756 . S
