# Generated by pormake.
# Topology umn, (4)-cn, num edge types: 1
# Building blocks:
#     Node 0, Type 0, BuildingBlock: CEKHIL_clean_sbu_0, # of connection points: 4
#     Node 1, Type 0, BuildingBlock: CEKHIL_clean_sbu_0, # of connection points: 4
#     Node 2, Type 0, BuildingBlock: CEKHIL_clean_sbu_0, # of connection points: 4
#     Node 3, Type 0, BuildingBlock: CEKHIL_clean_sbu_0, # of connection points: 4
#     Node 4, Type 0, BuildingBlock: CEKHIL_clean_sbu_0, # of connection points: 4
#     Node 5, Type 0, BuildingBlock: CEKHIL_clean_sbu_0, # of connection points: 4
#     Node 6, Type 0, BuildingBlock: CEKHIL_clean_sbu_0, # of connection points: 4
#     Node 7, Type 0, BuildingBlock: CEKHIL_clean_sbu_0, # of connection points: 4
#     Node 8, Type 0, BuildingBlock: CEKHIL_clean_sbu_0, # of connection points: 4
#     Node 9, Type 0, BuildingBlock: CEKHIL_clean_sbu_0, # of connection points: 4
#     Node 10, Type 0, BuildingBlock: CEKHIL_clean_sbu_0, # of connection points: 4
#     Node 11, Type 0, BuildingBlock: CEKHIL_clean_sbu_0, # of connection points: 4
#     Node 12, Type 0, BuildingBlock: CEKHIL_clean_sbu_0, # of connection points: 4
#     Node 13, Type 0, BuildingBlock: CEKHIL_clean_sbu_0, # of connection points: 4
#     Node 14, Type 0, BuildingBlock: CEKHIL_clean_sbu_0, # of connection points: 4
#     Node 15, Type 0, BuildingBlock: CEKHIL_clean_sbu_0, # of connection points: 4
#     Node 16, Type 0, BuildingBlock: CEKHIL_clean_sbu_0, # of connection points: 4
#     Node 17, Type 0, BuildingBlock: CEKHIL_clean_sbu_0, # of connection points: 4
#     Node 18, Type 0, BuildingBlock: CEKHIL_clean_sbu_0, # of connection points: 4
#     Node 19, Type 0, BuildingBlock: CEKHIL_clean_sbu_0, # of connection points: 4
#     Node 20, Type 0, BuildingBlock: CEKHIL_clean_sbu_0, # of connection points: 4
#     Node 21, Type 0, BuildingBlock: CEKHIL_clean_sbu_0, # of connection points: 4
#     Node 22, Type 0, BuildingBlock: CEKHIL_clean_sbu_0, # of connection points: 4
#     Node 23, Type 0, BuildingBlock: CEKHIL_clean_sbu_0, # of connection points: 4
#     Node 24, Type 0, BuildingBlock: CEKHIL_clean_sbu_0, # of connection points: 4
#     Node 25, Type 0, BuildingBlock: CEKHIL_clean_sbu_0, # of connection points: 4
#     Node 26, Type 0, BuildingBlock: CEKHIL_clean_sbu_0, # of connection points: 4
#     Node 27, Type 0, BuildingBlock: CEKHIL_clean_sbu_0, # of connection points: 4
#     Node 28, Type 0, BuildingBlock: CEKHIL_clean_sbu_0, # of connection points: 4
#     Node 29, Type 0, BuildingBlock: CEKHIL_clean_sbu_0, # of connection points: 4
#     Node 30, Type 0, BuildingBlock: CEKHIL_clean_sbu_0, # of connection points: 4
#     Node 31, Type 0, BuildingBlock: CEKHIL_clean_sbu_0, # of connection points: 4
#     Node 32, Type 0, BuildingBlock: CEKHIL_clean_sbu_0, # of connection points: 4
#     Node 33, Type 0, BuildingBlock: CEKHIL_clean_sbu_0, # of connection points: 4
#     Node 34, Type 0, BuildingBlock: CEKHIL_clean_sbu_0, # of connection points: 4
#     Node 35, Type 0, BuildingBlock: CEKHIL_clean_sbu_0, # of connection points: 4
#     Edge 36, Type (0, 0), BuildingBlock: XIVTED_clean_linker_0, # of connection points: 2
#     Edge 37, Type (0, 0), BuildingBlock: XIVTED_clean_linker_0, # of connection points: 2
#     Edge 38, Type (0, 0), BuildingBlock: XIVTED_clean_linker_0, # of connection points: 2
#     Edge 39, Type (0, 0), BuildingBlock: XIVTED_clean_linker_0, # of connection points: 2
#     Edge 40, Type (0, 0), BuildingBlock: XIVTED_clean_linker_0, # of connection points: 2
#     Edge 41, Type (0, 0), BuildingBlock: XIVTED_clean_linker_0, # of connection points: 2
#     Edge 42, Type (0, 0), BuildingBlock: XIVTED_clean_linker_0, # of connection points: 2
#     Edge 43, Type (0, 0), BuildingBlock: XIVTED_clean_linker_0, # of connection points: 2
#     Edge 44, Type (0, 0), BuildingBlock: XIVTED_clean_linker_0, # of connection points: 2
#     Edge 45, Type (0, 0), BuildingBlock: XIVTED_clean_linker_0, # of connection points: 2
#     Edge 46, Type (0, 0), BuildingBlock: XIVTED_clean_linker_0, # of connection points: 2
#     Edge 47, Type (0, 0), BuildingBlock: XIVTED_clean_linker_0, # of connection points: 2
#     Edge 48, Type (0, 0), BuildingBlock: XIVTED_clean_linker_0, # of connection points: 2
#     Edge 49, Type (0, 0), BuildingBlock: XIVTED_clean_linker_0, # of connection points: 2
#     Edge 50, Type (0, 0), BuildingBlock: XIVTED_clean_linker_0, # of connection points: 2
#     Edge 51, Type (0, 0), BuildingBlock: XIVTED_clean_linker_0, # of connection points: 2
#     Edge 52, Type (0, 0), BuildingBlock: XIVTED_clean_linker_0, # of connection points: 2
#     Edge 53, Type (0, 0), BuildingBlock: XIVTED_clean_linker_0, # of connection points: 2
#     Edge 54, Type (0, 0), BuildingBlock: XIVTED_clean_linker_0, # of connection points: 2
#     Edge 55, Type (0, 0), BuildingBlock: XIVTED_clean_linker_0, # of connection points: 2
#     Edge 56, Type (0, 0), BuildingBlock: XIVTED_clean_linker_0, # of connection points: 2
#     Edge 57, Type (0, 0), BuildingBlock: XIVTED_clean_linker_0, # of connection points: 2
#     Edge 58, Type (0, 0), BuildingBlock: XIVTED_clean_linker_0, # of connection points: 2
#     Edge 59, Type (0, 0), BuildingBlock: XIVTED_clean_linker_0, # of connection points: 2
#     Edge 60, Type (0, 0), BuildingBlock: XIVTED_clean_linker_0, # of connection points: 2
#     Edge 61, Type (0, 0), BuildingBlock: XIVTED_clean_linker_0, # of connection points: 2
#     Edge 62, Type (0, 0), BuildingBlock: XIVTED_clean_linker_0, # of connection points: 2
#     Edge 63, Type (0, 0), BuildingBlock: XIVTED_clean_linker_0, # of connection points: 2
#     Edge 64, Type (0, 0), BuildingBlock: XIVTED_clean_linker_0, # of connection points: 2
#     Edge 65, Type (0, 0), BuildingBlock: XIVTED_clean_linker_0, # of connection points: 2
#     Edge 66, Type (0, 0), BuildingBlock: XIVTED_clean_linker_0, # of connection points: 2
#     Edge 67, Type (0, 0), BuildingBlock: XIVTED_clean_linker_0, # of connection points: 2
#     Edge 68, Type (0, 0), BuildingBlock: XIVTED_clean_linker_0, # of connection points: 2
#     Edge 69, Type (0, 0), BuildingBlock: XIVTED_clean_linker_0, # of connection points: 2
#     Edge 70, Type (0, 0), BuildingBlock: XIVTED_clean_linker_0, # of connection points: 2
#     Edge 71, Type (0, 0), BuildingBlock: XIVTED_clean_linker_0, # of connection points: 2
#     Edge 72, Type (0, 0), BuildingBlock: XIVTED_clean_linker_0, # of connection points: 2
#     Edge 73, Type (0, 0), BuildingBlock: XIVTED_clean_linker_0, # of connection points: 2
#     Edge 74, Type (0, 0), BuildingBlock: XIVTED_clean_linker_0, # of connection points: 2
#     Edge 75, Type (0, 0), BuildingBlock: XIVTED_clean_linker_0, # of connection points: 2
#     Edge 76, Type (0, 0), BuildingBlock: XIVTED_clean_linker_0, # of connection points: 2
#     Edge 77, Type (0, 0), BuildingBlock: XIVTED_clean_linker_0, # of connection points: 2
#     Edge 78, Type (0, 0), BuildingBlock: XIVTED_clean_linker_0, # of connection points: 2
#     Edge 79, Type (0, 0), BuildingBlock: XIVTED_clean_linker_0, # of connection points: 2
#     Edge 80, Type (0, 0), BuildingBlock: XIVTED_clean_linker_0, # of connection points: 2
#     Edge 81, Type (0, 0), BuildingBlock: XIVTED_clean_linker_0, # of connection points: 2
#     Edge 82, Type (0, 0), BuildingBlock: XIVTED_clean_linker_0, # of connection points: 2
#     Edge 83, Type (0, 0), BuildingBlock: XIVTED_clean_linker_0, # of connection points: 2
#     Edge 84, Type (0, 0), BuildingBlock: XIVTED_clean_linker_0, # of connection points: 2
#     Edge 85, Type (0, 0), BuildingBlock: XIVTED_clean_linker_0, # of connection points: 2
#     Edge 86, Type (0, 0), BuildingBlock: XIVTED_clean_linker_0, # of connection points: 2
#     Edge 87, Type (0, 0), BuildingBlock: XIVTED_clean_linker_0, # of connection points: 2
#     Edge 88, Type (0, 0), BuildingBlock: XIVTED_clean_linker_0, # of connection points: 2
#     Edge 89, Type (0, 0), BuildingBlock: XIVTED_clean_linker_0, # of connection points: 2
#     Edge 90, Type (0, 0), BuildingBlock: XIVTED_clean_linker_0, # of connection points: 2
#     Edge 91, Type (0, 0), BuildingBlock: XIVTED_clean_linker_0, # of connection points: 2
#     Edge 92, Type (0, 0), BuildingBlock: XIVTED_clean_linker_0, # of connection points: 2
#     Edge 93, Type (0, 0), BuildingBlock: XIVTED_clean_linker_0, # of connection points: 2
#     Edge 94, Type (0, 0), BuildingBlock: XIVTED_clean_linker_0, # of connection points: 2
#     Edge 95, Type (0, 0), BuildingBlock: XIVTED_clean_linker_0, # of connection points: 2
#     Edge 96, Type (0, 0), BuildingBlock: XIVTED_clean_linker_0, # of connection points: 2
#     Edge 97, Type (0, 0), BuildingBlock: XIVTED_clean_linker_0, # of connection points: 2
#     Edge 98, Type (0, 0), BuildingBlock: XIVTED_clean_linker_0, # of connection points: 2
#     Edge 99, Type (0, 0), BuildingBlock: XIVTED_clean_linker_0, # of connection points: 2
#     Edge 100, Type (0, 0), BuildingBlock: XIVTED_clean_linker_0, # of connection points: 2
#     Edge 101, Type (0, 0), BuildingBlock: XIVTED_clean_linker_0, # of connection points: 2
#     Edge 102, Type (0, 0), BuildingBlock: XIVTED_clean_linker_0, # of connection points: 2
#     Edge 103, Type (0, 0), BuildingBlock: XIVTED_clean_linker_0, # of connection points: 2
#     Edge 104, Type (0, 0), BuildingBlock: XIVTED_clean_linker_0, # of connection points: 2
#     Edge 105, Type (0, 0), BuildingBlock: XIVTED_clean_linker_0, # of connection points: 2
#     Edge 106, Type (0, 0), BuildingBlock: XIVTED_clean_linker_0, # of connection points: 2
#     Edge 107, Type (0, 0), BuildingBlock: XIVTED_clean_linker_0, # of connection points: 2
# Relax obj value: 0.181
# Max RMSD: 0.212
# Mean RMSD: 0.212
data_MOF--net-umn--node1-CEKHIL_clean_sbu_0--edge1-XIVTED_clean_linker_0
_symmetry_space_group_name_H-M    P1
_symmetry_Int_Tables_number       1
_symmetry_cell_setting            triclinic
loop_
_symmetry_equiv_pos_as_xyz
'x, y, z'
_cell_length_a     81.784944
_cell_length_b     81.799479
_cell_length_c     36.190683
_cell_angle_alpha  89.992334
_cell_angle_beta   89.984593
_cell_angle_gamma 119.96723
loop_
_atom_site_label
_atom_site_type_symbol
_atom_site_fract_x
_atom_site_fract_y
_atom_site_fract_z
_atom_type_partial_charge
Co0 Co 0.36881 0.10167 0.22322 0.0
O1 O 0.37374 0.12688 0.21626 0.0
O2 O 0.34537 0.10125 0.21382 0.0
C3 C 0.39158 0.10368 0.18491 0.0
O4 O 0.35884 0.07355 0.22848 0.0
Co5 Co 0.39889 0.0964 0.26305 0.0
O6 O 0.3834 0.07015 0.24545 0.0
C7 C 0.37154 0.10089 0.30813 0.0
C8 C 0.35574 0.11952 0.21106 0.0
C9 C 0.36626 0.06326 0.23554 0.0
O10 O 0.36465 0.10297 0.2778 0.0
O11 O 0.38614 0.09895 0.30895 0.0
O12 O 0.37546 0.10061 0.17245 0.0
O13 O 0.39456 0.10795 0.21988 0.0
Co14 Co 0.88695 0.2658 0.2391 0.0
O15 O 0.86109 0.24603 0.23667 0.0
O16 O 0.88593 0.24196 0.23352 0.0
C17 C 0.88469 0.28526 0.19753 0.0
O18 O 0.91547 0.28275 0.23932 0.0
Co19 Co 0.89721 0.3044 0.27059 0.0
O20 O 0.92137 0.3125 0.24499 0.0
C21 C 0.89343 0.27466 0.32181 0.0
C22 C 0.8677 0.23465 0.23242 0.0
C23 C 0.92682 0.30067 0.23866 0.0
O24 O 0.88733 0.26308 0.29454 0.0
O25 O 0.89818 0.29207 0.31842 0.0
O26 O 0.88646 0.27107 0.18723 0.0
O27 O 0.88203 0.28612 0.23282 0.0
Co28 Co 0.72501 0.61969 0.23418 0.0
O29 O 0.7449 0.61383 0.22995 0.0
O30 O 0.74878 0.64269 0.22935 0.0
C31 C 0.7055 0.59856 0.19193 0.0
O32 O 0.70791 0.63107 0.23675 0.0
Co33 Co 0.68667 0.59059 0.26556 0.0
O34 O 0.67825 0.60724 0.24381 0.0
C35 C 0.71651 0.61606 0.31706 0.0
C36 C 0.7562 0.63189 0.22704 0.0
C37 C 0.69 0.62459 0.23799 0.0
O38 O 0.728 0.6219 0.28963 0.0
O39 O 0.69911 0.6034 0.31366 0.0
O40 O 0.71952 0.61474 0.18216 0.0
O41 O 0.70483 0.59449 0.22691 0.0
Co42 Co 0.10196 0.36539 0.29691 0.0
O43 O 0.12696 0.36971 0.30312 0.0
O44 O 0.101 0.34162 0.30578 0.0
C45 C 0.10479 0.38824 0.33604 0.0
O46 O 0.07394 0.35621 0.2924 0.0
Co47 Co 0.09775 0.3965 0.25842 0.0
O48 O 0.07161 0.38161 0.27705 0.0
C49 C 0.10142 0.36903 0.21209 0.0
C50 C 0.11931 0.35169 0.30841 0.0
C51 C 0.06418 0.36434 0.28647 0.0
O52 O 0.10291 0.36147 0.24206 0.0
O53 O 0.1002 0.38405 0.21202 0.0
O54 O 0.10133 0.37192 0.34801 0.0
O55 O 0.10893 0.39129 0.30104 0.0
Co56 Co 0.62831 0.73766 0.29489 0.0
O57 O 0.62438 0.75868 0.29964 0.0
O58 O 0.65218 0.76022 0.30421 0.0
C59 C 0.60481 0.71802 0.33326 0.0
O60 O 0.6371 0.71846 0.29223 0.0
Co61 Co 0.59739 0.70235 0.256 0.0
O62 O 0.61146 0.6908 0.2776 0.0
C63 C 0.62556 0.73319 0.21007 0.0
C64 C 0.64237 0.76878 0.30564 0.0
C65 C 0.62865 0.70047 0.28761 0.0
O66 O 0.63296 0.74224 0.24011 0.0
O67 O 0.61039 0.71709 0.20976 0.0
O68 O 0.62102 0.7308 0.34585 0.0
O69 O 0.6023 0.71904 0.29798 0.0
Co70 Co 0.25854 0.88706 0.28484 0.0
O71 O 0.23856 0.86129 0.28597 0.0
O72 O 0.23476 0.88627 0.29 0.0
C73 C 0.27749 0.88403 0.32654 0.0
O74 O 0.27583 0.91554 0.28584 0.0
Co75 Co 0.29728 0.89707 0.25419 0.0
O76 O 0.3054 0.92074 0.28166 0.0
C77 C 0.26817 0.89441 0.20251 0.0
C78 C 0.22727 0.868 0.29016 0.0
C79 C 0.2938 0.92652 0.28765 0.0
O80 O 0.25634 0.88814 0.22938 0.0
O81 O 0.28549 0.89885 0.20629 0.0
O82 O 0.26332 0.88586 0.33679 0.0
O83 O 0.27856 0.88174 0.29116 0.0
Co84 Co 0.62674 0.88775 0.78349 0.0
O85 O 0.62057 0.86184 0.78253 0.0
O86 O 0.64941 0.88646 0.78891 0.0
C87 C 0.60433 0.8842 0.82458 0.0
O88 O 0.63833 0.91621 0.78712 0.0
Co89 Co 0.59898 0.89924 0.75341 0.0
O90 O 0.61436 0.92205 0.78345 0.0
C91 C 0.62549 0.89672 0.70163 0.0
C92 C 0.63846 0.86824 0.78766 0.0
C93 C 0.63154 0.92732 0.79031 0.0
O94 O 0.63078 0.89003 0.72822 0.0
O95 O 0.6127 0.90127 0.70558 0.0
O96 O 0.62002 0.88545 0.8352 0.0
O97 O 0.60148 0.88278 0.78901 0.0
Co98 Co 0.10372 0.7361 0.79462 0.0
O99 O 0.12896 0.75626 0.80221 0.0
O100 O 0.10335 0.75904 0.80479 0.0
C101 C 0.10532 0.7149 0.83232 0.0
O102 O 0.07561 0.71828 0.78928 0.0
Co103 Co 0.0985 0.70111 0.75336 0.0
O104 O 0.07136 0.69197 0.76062 0.0
C105 C 0.10364 0.73344 0.70944 0.0
C106 C 0.12158 0.76685 0.80798 0.0
C107 C 0.06504 0.70184 0.77536 0.0
O108 O 0.1052 0.742 0.7401 0.0
O109 O 0.10195 0.71702 0.70809 0.0
O110 O 0.1024 0.72799 0.84511 0.0
O111 O 0.1098 0.7164 0.79743 0.0
Co112 Co 0.25915 0.36959 0.78822 0.0
O113 O 0.23921 0.37548 0.78893 0.0
O114 O 0.2353 0.34667 0.79301 0.0
C115 C 0.2779 0.39142 0.83031 0.0
O116 O 0.27634 0.35829 0.78968 0.0
Co117 Co 0.29816 0.39833 0.75852 0.0
O118 O 0.30601 0.38251 0.78589 0.0
C119 C 0.26925 0.37224 0.70606 0.0
C120 C 0.22787 0.3575 0.79314 0.0
C121 C 0.29429 0.36516 0.7918 0.0
O122 O 0.25728 0.36646 0.73272 0.0
O123 O 0.28652 0.38513 0.71026 0.0
O124 O 0.26365 0.37544 0.84026 0.0
O125 O 0.2792 0.39487 0.79495 0.0
Co126 Co 0.88776 0.62464 0.73157 0.0
O127 O 0.86257 0.61931 0.72227 0.0
O128 O 0.88801 0.64784 0.72078 0.0
C129 C 0.88692 0.6021 0.69415 0.0
O130 O 0.91584 0.63524 0.73861 0.0
Co131 Co 0.89306 0.59527 0.77359 0.0
O132 O 0.92025 0.61339 0.76762 0.0
C133 C 0.88677 0.62193 0.81673 0.0
C134 C 0.86986 0.63727 0.71643 0.0
C135 C 0.9265 0.62962 0.75314 0.0
O136 O 0.88536 0.62884 0.78583 0.0
O137 O 0.88885 0.60744 0.81846 0.0
O138 O 0.88999 0.61815 0.6814 0.0
O139 O 0.88193 0.59889 0.7288 0.0
Co140 Co 0.368 0.26328 0.72971 0.0
O141 O 0.37334 0.24324 0.72353 0.0
O142 O 0.34479 0.24004 0.72035 0.0
C143 C 0.39069 0.28399 0.6912 0.0
O144 O 0.35765 0.28117 0.73415 0.0
Co145 Co 0.39776 0.29903 0.76895 0.0
O146 O 0.38199 0.30936 0.75062 0.0
C147 C 0.37053 0.26734 0.81452 0.0
C148 C 0.35541 0.23239 0.71798 0.0
C149 C 0.36487 0.2989 0.74081 0.0
O150 O 0.36378 0.25812 0.78438 0.0
O151 O 0.385 0.28396 0.81505 0.0
O152 O 0.37467 0.27075 0.67883 0.0
O153 O 0.39364 0.28295 0.72627 0.0
Co154 Co 0.73019 0.10214 0.72578 0.0
O155 O 0.75016 0.12688 0.71434 0.0
O156 O 0.75308 0.10136 0.71629 0.0
C157 C 0.70872 0.10259 0.68704 0.0
O158 O 0.71216 0.07438 0.73606 0.0
Co159 Co 0.69586 0.09905 0.76603 0.0
O160 O 0.68487 0.07191 0.75526 0.0
C161 C 0.72851 0.10525 0.81041 0.0
C162 C 0.76076 0.11941 0.71019 0.0
C163 C 0.69479 0.06452 0.74615 0.0
O164 O 0.73688 0.10598 0.77993 0.0
O165 O 0.71203 0.10344 0.81136 0.0
O166 O 0.72134 0.0987 0.6754 0.0
O167 O 0.71076 0.10848 0.72107 0.0
Co168 Co 0.03063 0.43585 0.56123 0.0
O169 O 0.03527 0.46073 0.55174 0.0
O170 O 0.00697 0.43501 0.55135 0.0
C171 C 0.05316 0.43736 0.52273 0.0
O172 O 0.02102 0.40794 0.56929 0.0
Co173 Co 0.06149 0.43211 0.60141 0.0
O174 O 0.0459 0.40532 0.58731 0.0
C175 C 0.03425 0.43702 0.64608 0.0
C176 C 0.01726 0.45318 0.54665 0.0
C177 C 0.02864 0.398 0.57798 0.0
O178 O 0.027 0.43844 0.61563 0.0
O179 O 0.04897 0.43529 0.64698 0.0
O180 O 0.03675 0.43358 0.51068 0.0
O181 O 0.05651 0.44249 0.55725 0.0
Co182 Co 0.55338 0.59901 0.56645 0.0
O183 O 0.52767 0.57917 0.56171 0.0
O184 O 0.55267 0.5753 0.56088 0.0
C185 C 0.5519 0.61888 0.52483 0.0
O186 O 0.58183 0.61608 0.56953 0.0
Co187 Co 0.56241 0.63714 0.59891 0.0
O188 O 0.58762 0.64567 0.57771 0.0
C189 C 0.55826 0.60698 0.64946 0.0
C190 C 0.53445 0.5679 0.55841 0.0
C191 C 0.59325 0.63396 0.57162 0.0
O192 O 0.55249 0.59561 0.62183 0.0
O193 O 0.56297 0.62439 0.64648 0.0
O194 O 0.55408 0.60493 0.51458 0.0
O195 O 0.54836 0.61923 0.55983 0.0
Co196 Co 0.39603 0.95675 0.55961 0.0
O197 O 0.41619 0.95183 0.55114 0.0
O198 O 0.41899 0.98023 0.54979 0.0
C199 C 0.37507 0.9342 0.52119 0.0
O200 O 0.37786 0.96662 0.56637 0.0
Co201 Co 0.36107 0.92638 0.59973 0.0
O202 O 0.35005 0.94185 0.58335 0.0
C203 C 0.39325 0.95329 0.64455 0.0
C204 C 0.42678 0.96981 0.5458 0.0
C205 C 0.36016 0.95905 0.57376 0.0
O206 O 0.40194 0.96053 0.61411 0.0
O207 O 0.37675 0.93865 0.64543 0.0
O208 O 0.38793 0.95046 0.50897 0.0
O209 O 0.37661 0.93096 0.55591 0.0
Co210 Co 0.76829 0.69855 0.62154 0.0
O211 O 0.79383 0.70369 0.62214 0.0
O212 O 0.76844 0.67522 0.62656 0.0
C213 C 0.77212 0.72078 0.66333 0.0
O214 O 0.73993 0.68805 0.6231 0.0
Co215 Co 0.75914 0.72799 0.59131 0.0
O216 O 0.73547 0.7129 0.61914 0.0
C217 C 0.76107 0.70126 0.53927 0.0
C218 C 0.78675 0.68565 0.62644 0.0
C219 C 0.72933 0.69547 0.62523 0.0
O220 O 0.76692 0.69525 0.56611 0.0
O221 O 0.75719 0.71452 0.54319 0.0
O222 O 0.76987 0.70462 0.67349 0.0
O223 O 0.7743 0.7241 0.62793 0.0
Co224 Co 0.29359 0.06883 0.62355 0.0
O225 O 0.2885 0.0892 0.62602 0.0
O226 O 0.31678 0.09204 0.63272 0.0
C227 C 0.27015 0.04897 0.66176 0.0
O228 O 0.30361 0.05058 0.62345 0.0
Co229 Co 0.26424 0.03243 0.58526 0.0
O230 O 0.27894 0.02216 0.60923 0.0
C231 C 0.29212 0.06328 0.53901 0.0
C232 C 0.30636 0.09995 0.63258 0.0
C233 C 0.29593 0.0326 0.61984 0.0
O234 O 0.29875 0.07284 0.56883 0.0
O235 O 0.27743 0.0468 0.5388 0.0
O236 O 0.28595 0.06244 0.67447 0.0
O237 O 0.26786 0.04936 0.6262 0.0
Co238 Co 0.92519 0.22177 0.62494 0.0
O239 O 0.90565 0.19576 0.62427 0.0
O240 O 0.90108 0.22021 0.62979 0.0
C241 C 0.9442 0.21873 0.6665 0.0
O242 O 0.94176 0.25028 0.62804 0.0
Co243 Co 0.96465 0.23362 0.59542 0.0
O244 O 0.97173 0.25659 0.62468 0.0
C245 C 0.93562 0.23073 0.54317 0.0
C246 C 0.89399 0.20201 0.62875 0.0
C247 C 0.9596 0.26165 0.63102 0.0
O248 O 0.92353 0.22382 0.56956 0.0
O249 O 0.95301 0.23553 0.54743 0.0
O250 O 0.92959 0.21978 0.67683 0.0
O251 O 0.94569 0.21717 0.631 0.0
Co252 Co 0.29282 0.22233 0.13015 0.0
O253 O 0.28801 0.19695 0.13237 0.0
O254 O 0.31618 0.22255 0.13885 0.0
C255 C 0.26939 0.21854 0.16855 0.0
O256 O 0.30264 0.25053 0.1303 0.0
Co257 Co 0.26336 0.22935 0.09232 0.0
O258 O 0.27784 0.25421 0.11678 0.0
C259 C 0.29121 0.22655 0.04568 0.0
C260 C 0.30593 0.20422 0.1385 0.0
C261 C 0.29486 0.26078 0.12719 0.0
O262 O 0.2979 0.22359 0.0754 0.0
O263 O 0.2765 0.22831 0.04563 0.0
O264 O 0.28525 0.22093 0.18113 0.0
O265 O 0.26705 0.21591 0.13298 0.0
Co266 Co 0.77102 0.07233 0.12661 0.0
O267 O 0.79574 0.0934 0.13298 0.0
O268 O 0.76932 0.09466 0.13664 0.0
C269 C 0.77469 0.05247 0.16468 0.0
O270 O 0.74316 0.05291 0.12214 0.0
Co271 Co 0.7679 0.0378 0.08662 0.0
O272 O 0.74178 0.02574 0.10571 0.0
C273 C 0.77072 0.06899 0.04165 0.0
C274 C 0.78765 0.1033 0.13909 0.0
C275 C 0.73389 0.03505 0.11587 0.0
O276 O 0.77172 0.07759 0.07198 0.0
O277 O 0.77013 0.05305 0.0409 0.0
O278 O 0.77076 0.06489 0.17739 0.0
O279 O 0.77876 0.05395 0.12961 0.0
Co280 Co 0.92061 0.69691 0.13324 0.0
O281 O 0.89983 0.70088 0.14153 0.0
O282 O 0.89816 0.67297 0.14302 0.0
C283 C 0.94112 0.71993 0.17145 0.0
O284 O 0.9396 0.68804 0.12653 0.0
Co285 Co 0.95499 0.72818 0.09286 0.0
O286 O 0.96686 0.71351 0.10941 0.0
C287 C 0.92335 0.70019 0.04826 0.0
C288 C 0.88976 0.68284 0.14676 0.0
C289 C 0.95733 0.69625 0.11898 0.0
O290 O 0.91476 0.69286 0.07874 0.0
O291 O 0.93955 0.71523 0.04726 0.0
O292 O 0.92865 0.70354 0.18389 0.0
O293 O 0.93934 0.72291 0.1367 0.0
Co294 Co 0.55654 0.95169 0.06681 0.0
O295 O 0.53061 0.94534 0.06389 0.0
O296 O 0.55522 0.9744 0.06203 0.0
C297 C 0.55487 0.93054 0.02449 0.0
O298 O 0.58508 0.96354 0.06781 0.0
Co299 Co 0.56693 0.92319 0.09733 0.0
O300 O 0.59148 0.94001 0.0737 0.0
C301 C 0.56226 0.94828 0.1495 0.0
C302 C 0.53702 0.96332 0.06039 0.0
C303 C 0.5967 0.95726 0.06778 0.0
O304 O 0.55647 0.95415 0.12234 0.0
O305 O 0.56708 0.93568 0.14569 0.0
O306 O 0.55651 0.94652 0.01472 0.0
O307 O 0.55197 0.92664 0.05961 0.0
Co308 Co 0.03498 0.59725 0.06755 0.0
O309 O 0.04124 0.57757 0.06637 0.0
O310 O 0.01224 0.57327 0.063 0.0
C311 C 0.0565 0.61626 0.02521 0.0
O312 O 0.02324 0.61404 0.06663 0.0
Co313 Co 0.0632 0.63633 0.09718 0.0
O314 O 0.04698 0.64392 0.07056 0.0
C315 C 0.03759 0.60717 0.14979 0.0
C316 C 0.02326 0.56606 0.06253 0.0
C317 C 0.0297 0.63193 0.06483 0.0
O318 O 0.03205 0.59524 0.12309 0.0
O319 O 0.0502 0.62454 0.14556 0.0
O320 O 0.04057 0.60188 0.01547 0.0
O321 O 0.06013 0.61759 0.0605 0.0
Co322 Co 0.39734 0.43575 0.06034 0.0
O323 O 0.41779 0.46043 0.05028 0.0
O324 O 0.41982 0.43438 0.04984 0.0
C325 C 0.3763 0.43755 0.0225 0.0
O326 O 0.37876 0.40795 0.0688 0.0
Co327 Co 0.3633 0.43263 0.10159 0.0
O328 O 0.35155 0.40577 0.08761 0.0
C329 C 0.39569 0.4375 0.14525 0.0
C330 C 0.42795 0.45256 0.04491 0.0
C331 C 0.36123 0.39822 0.07778 0.0
O332 O 0.40397 0.43848 0.11452 0.0
O333 O 0.37936 0.43605 0.14669 0.0
O334 O 0.38864 0.43344 1.01007 0.0
O335 O 0.37838 0.44282 0.05697 0.0
Co336 Co 0.70103 0.76888 0.89438 0.0
O337 O 0.70571 0.7938 0.88523 0.0
O338 O 0.6774 0.76807 0.88447 0.0
C339 C 0.72357 0.77044 0.85596 0.0
O340 O 0.6914 0.74094 0.90197 0.0
Co341 Co 0.7318 0.76495 0.9346 0.0
O342 O 0.71624 0.73823 0.91995 0.0
C343 C 0.70473 0.77012 0.97924 0.0
C344 C 0.68771 0.78626 0.87996 0.0
C345 C 0.69903 0.73096 0.91033 0.0
O346 O 0.69734 0.77133 0.9488 0.0
O347 O 0.7195 0.76847 0.98014 0.0
O348 O 0.70722 0.76677 0.84381 0.0
O349 O 0.72689 0.77546 0.89054 0.0
Co350 Co 0.22381 0.93104 0.89721 0.0
O351 O 0.1982 0.91103 0.8927 0.0
O352 O 0.22332 0.90736 0.89267 0.0
C353 C 0.22207 0.95036 0.85454 0.0
O354 O 0.25221 0.94834 0.90029 0.0
Co355 Co 0.23243 0.96928 0.92807 0.0
O356 O 0.25777 0.97791 0.90746 0.0
C357 C 0.22826 0.93963 0.98005 0.0
C358 C 0.2051 0.89983 0.89004 0.0
C359 C 0.26353 0.96626 0.90196 0.0
O360 O 0.22284 0.9281 0.95271 0.0
O361 O 0.23273 0.95695 0.9764 0.0
O362 O 0.22454 0.93648 0.84511 0.0
O363 O 0.21849 0.95101 0.88942 0.0
Co364 Co 0.06496 0.29418 0.89487 0.0
O365 O 0.08541 0.2895 0.88801 0.0
O366 O 0.08786 0.31773 0.88528 0.0
C367 C 0.04448 0.27131 0.85636 0.0
O368 O 0.04652 0.30382 0.89983 0.0
Co369 Co 0.02959 0.26372 0.93418 0.0
O370 O 0.0186 0.27892 0.91591 0.0
C371 C 0.06129 0.29095 0.97974 0.0
C372 C 0.09587 0.30747 0.88231 0.0
C373 C 0.02871 0.29611 0.90617 0.0
O374 O 0.07026 0.29828 0.94958 0.0
O375 O 0.0449 0.27615 0.98018 0.0
O376 O 0.0574 0.28751 0.84402 0.0
O377 O 0.04573 0.26835 0.89135 0.0
Co378 Co 0.43763 0.02756 0.96323 0.0
O379 O 0.46267 0.03167 0.96739 0.0
O380 O 0.43659 0.0038 0.97264 0.0
C381 C 0.44154 0.05109 1.00158 0.0
O382 O 0.4096 0.01858 0.96123 0.0
Co383 Co 0.43267 0.05821 0.92461 0.0
O384 O 0.4073 0.04415 0.94728 0.0
C385 C 0.43523 0.03002 0.87848 0.0
C386 C 0.45495 0.01373 0.97372 0.0
C387 C 0.39995 0.02695 0.95719 0.0
O388 O 0.43725 0.02279 0.90842 0.0
O389 O 0.43412 0.0451 0.87828 0.0
O390 O 0.4383 0.03494 0.01419 0.0
O391 O 0.44484 0.05353 0.96621 0.0
Co392 Co 0.95955 0.40272 0.96429 0.0
O393 O 0.95515 0.42338 0.97011 0.0
O394 O 0.98321 0.42547 0.97396 0.0
C395 C 0.93633 0.38261 1.00262 0.0
O396 O 0.96885 0.38396 0.96053 0.0
Co397 Co 0.92916 0.36749 0.92485 0.0
O398 O 0.94361 0.35612 0.94534 0.0
C399 C 0.9569 0.39884 0.87936 0.0
C400 C 0.97311 0.43369 0.97614 0.0
C401 C 0.96078 0.36604 0.95527 0.0
O402 O 0.96406 0.40779 0.9096 0.0
O403 O 0.942 0.38253 0.87876 0.0
O404 O 0.95253 0.39545 0.01511 0.0
O405 O 0.93359 0.38374 0.96746 0.0
Co406 Co 0.59096 0.55418 0.95106 0.0
O407 O 0.57093 0.52842 0.95114 0.0
O408 O 0.56722 0.55341 0.95646 0.0
C409 C 0.60978 0.55068 0.99232 0.0
O410 O 0.60825 0.58262 0.95346 0.0
Co411 Co 0.62981 0.56455 0.92033 0.0
O412 O 0.63784 0.5879 0.94893 0.0
C413 C 0.60079 0.56227 0.86886 0.0
C414 C 0.55968 0.53515 0.95584 0.0
C415 C 0.62621 0.59355 0.95569 0.0
O416 O 0.58896 0.55594 0.89572 0.0
O417 O 0.61807 0.56656 0.87255 0.0
O418 O 0.59555 0.55234 1.00286 0.0
O419 O 0.61098 0.54881 0.95681 0.0
Co420 Co 0.9558 0.55517 0.45582 0.0
O421 O 0.94937 0.52918 0.45575 0.0
O422 O 0.97844 0.55367 0.45968 0.0
C423 C 0.93433 0.55237 0.49857 0.0
O424 O 0.96773 0.58371 0.45811 0.0
Co425 Co 0.92792 0.56674 0.42746 0.0
O426 O 0.94394 0.58986 0.45615 0.0
C427 C 0.95338 0.56348 0.37407 0.0
C428 C 0.96733 0.53546 0.45944 0.0
C429 C 0.96122 0.59504 0.46156 0.0
O430 O 0.95875 0.55667 0.40029 0.0
O431 O 0.94096 0.56847 0.37884 0.0
O432 O 0.9502 0.55366 0.50797 0.0
O433 O 0.93071 0.5505 0.46324 0.0
Co434 Co 0.43546 0.4038 0.46313 0.0
O435 O 0.46016 0.42461 0.47141 0.0
O436 O 0.4339 0.42628 0.47234 0.0
C437 C 0.438 0.38352 0.50196 0.0
O438 O 0.40763 0.38478 0.45634 0.0
Co439 Co 0.43249 0.36936 0.42358 0.0
O440 O 0.40588 0.3575 0.43957 0.0
C441 C 0.43625 0.40083 0.37826 0.0
C442 C 0.45216 0.4347 0.47624 0.0
C443 C 0.39812 0.36705 0.44886 0.0
O444 O 0.43741 0.40949 0.40857 0.0
O445 O 0.4351 0.38463 0.37762 0.0
O446 O 0.43393 0.39596 0.51392 0.0
O447 O 0.44284 0.38514 0.46727 0.0
Co448 Co 0.59027 0.03086 0.45504 0.0
O449 O 0.57049 0.03698 0.45425 0.0
O450 O 0.56631 0.00813 0.4602 0.0
C451 C 0.60903 0.05316 0.49639 0.0
O452 O 0.60723 0.01932 0.45832 0.0
Co453 Co 0.62956 0.05885 0.42536 0.0
O454 O 0.63695 0.04347 0.45554 0.0
C455 C 0.60069 0.03248 0.37322 0.0
C456 C 0.55901 0.01907 0.4591 0.0
C457 C 0.62512 0.0262 0.46182 0.0
O458 O 0.58862 0.02708 0.39969 0.0
O459 O 0.61801 0.04524 0.3774 0.0
O460 O 0.59463 0.0374 0.50687 0.0
O461 O 0.61047 0.0561 0.46085 0.0
Co462 Co 0.22104 0.28963 0.40037 0.0
O463 O 0.19511 0.28338 0.39865 0.0
O464 O 0.21979 0.31234 0.39479 0.0
C465 C 0.21863 0.26781 0.35895 0.0
O466 O 0.24958 0.30136 0.39978 0.0
Co467 Co 0.23184 0.2616 0.43158 0.0
O468 O 0.25567 0.2776 0.40487 0.0
C469 C 0.22797 0.28745 0.48296 0.0
C470 C 0.20156 0.30133 0.39425 0.0
C471 C 0.26098 0.29483 0.39848 0.0
O472 O 0.22177 0.29291 0.45579 0.0
O473 O 0.23279 0.27485 0.47946 0.0
O474 O 0.2202 0.28367 0.34852 0.0
O475 O 0.21626 0.26445 0.39433 0.0
Co476 Co 0.70737 0.93316 0.39787 0.0
O477 O 0.71337 0.91349 0.39148 0.0
O478 O 0.6844 0.90933 0.39308 0.0
C479 C 0.72793 0.95312 0.35526 0.0
O480 O 0.6958 0.95002 0.40311 0.0
Co481 Co 0.73685 0.97133 0.4294 0.0
O482 O 0.71931 0.97965 0.41234 0.0
C483 C 0.7117 0.94109 0.48077 0.0
C484 C 0.69531 0.90209 0.38916 0.0
C485 C 0.70196 0.96779 0.40688 0.0
O486 O 0.70586 0.92967 0.45324 0.0
O487 O 0.72423 0.95854 0.47741 0.0
O488 O 0.71161 0.93919 0.34589 0.0
O489 O 0.73245 0.95349 0.38987 0.0
Co490 Co 0.06435 0.76964 0.39339 0.0
O491 O 0.08452 0.7945 0.38332 0.0
O492 O 0.08704 0.76873 0.38266 0.0
C493 C 0.04294 0.771 0.35586 0.0
O494 O 0.04611 0.74175 0.40188 0.0
Co495 Co 0.03017 0.76608 0.43512 0.0
O496 O 0.01883 0.73925 0.42117 0.0
C497 C 0.0628 0.77127 0.47837 0.0
C498 C 0.09492 0.78689 0.37786 0.0
C499 C 0.02864 0.73187 0.41119 0.0
O500 O 0.07108 0.77241 0.44754 0.0
O501 O 0.04639 0.76961 0.48002 0.0
O502 O 0.05548 0.76724 0.34316 0.0
O503 O 0.04507 0.77624 0.39034 0.0
H504 H 0.27695 0.947 0.26756 0.0
H505 H 0.37751 0.03715 0.23908 0.0
H506 H 0.32898 0.95278 0.30965 0.0
H507 H 0.32748 0.04238 0.23916 0.0
H508 H 0.35839 0.00428 0.25672 0.0
H509 H 0.29367 0.98092 0.25355 0.0
C510 C 0.29173 0.95548 0.27486 0.0
C511 C 0.30172 0.94707 0.28922 0.0
C512 C 0.35155 0.01259 0.25283 0.0
C513 C 0.32081 0.98539 0.27232 0.0
C514 C 0.36243 0.03132 0.24236 0.0
C515 C 0.35412 0.04261 0.23812 0.0
C516 C 0.33215 0.00494 0.25891 0.0
C517 C 0.33445 0.03417 0.24224 0.0
C518 C 0.30126 0.97475 0.26649 0.0
C519 C 0.32083 0.95865 0.29798 0.0
N520 N 0.32407 0.01577 0.25269 0.0
N521 N 0.32982 0.97715 0.28882 0.0
H522 H 0.04176 0.32572 0.28111 0.0
H523 H 0.95399 0.33615 0.22015 0.0
H524 H 0.03938 0.37725 0.2868 0.0
H525 H 0.94626 0.28228 0.25532 0.0
H526 H 0.98755 0.3505 0.23289 0.0
H527 H 0.00805 0.30853 0.26498 0.0
C528 C 0.03411 0.33334 0.27971 0.0
C529 C 0.04343 0.35299 0.28486 0.0
C530 C 0.97855 0.3355 0.23759 0.0
C531 C 0.00537 0.33363 0.26545 0.0
C532 C 0.95943 0.32727 0.22998 0.0
C533 C 0.94731 0.30808 0.23729 0.0
C534 C 0.98565 0.32449 0.25265 0.0
C535 C 0.95516 0.29717 0.24949 0.0
C536 C 0.01498 0.32357 0.27015 0.0
C537 C 0.03287 0.36217 0.28253 0.0
N538 N 0.97391 0.3056 0.2573 0.0
N539 N 0.01449 0.35246 0.27257 0.0
H540 H 0.70976 0.66302 0.249 0.0
H541 H 0.61517 0.66312 0.29889 0.0
H542 H 0.65346 0.6161 0.23177 0.0
H543 H 0.66672 0.71525 0.2766 0.0
H544 H 0.63133 0.64572 0.28514 0.0
H545 H 0.69608 0.68284 0.26513 0.0
C546 C 0.69459 0.65699 0.24785 0.0
C547 C 0.6827 0.6378 0.23948 0.0
C548 C 0.63917 0.66098 0.28346 0.0
C549 C 0.66714 0.66013 0.25884 0.0
C550 C 0.63 0.67093 0.29165 0.0
C551 C 0.63956 0.69062 0.28831 0.0
C552 C 0.65805 0.67075 0.27181 0.0
C553 C 0.65885 0.70004 0.27937 0.0
C554 C 0.68683 0.66825 0.2574 0.0
C555 C 0.66316 0.63072 0.23856 0.0
N556 N 0.66748 0.68997 0.27095 0.0
N557 N 0.65601 0.64182 0.2486 0.0
H558 H 0.66853 0.94832 0.76895 0.0
H559 H 0.65859 0.03963 0.7659 0.0
H560 H 0.62328 0.95258 0.82082 0.0
H561 H 0.7118 0.04273 0.74137 0.0
H562 H 0.64571 0.00709 0.78426 0.0
H563 H 0.6858 0.98267 0.76041 0.0
C564 C 0.66252 0.95655 0.7796 0.0
C565 C 0.64434 0.94767 0.79504 0.0
C566 C 0.66023 0.01483 0.77496 0.0
C567 C 0.66367 0.98657 0.78458 0.0
C568 C 0.66758 0.03345 0.76406 0.0
C569 C 0.68637 0.04403 0.75214 0.0
C570 C 0.67161 0.00651 0.77367 0.0
C571 C 0.69722 0.03509 0.75029 0.0
C572 C 0.67228 0.97609 0.77438 0.0
C573 C 0.63713 0.95889 0.80819 0.0
N574 N 0.68966 0.01676 0.76095 0.0
N575 N 0.64669 0.97773 0.80214 0.0
H576 H 0.04097 0.69923 0.83042 0.0
H577 H 0.94979 0.65529 0.7019 0.0
H578 H 0.04343 0.68822 0.71461 0.0
H579 H 0.94884 0.63439 0.81182 0.0
H580 H 0.9841 0.67652 0.70795 0.0
H581 H 0.00636 0.68429 0.82538 0.0
C582 C 0.03419 0.69389 0.80396 0.0
C583 C 0.04475 0.69456 0.773 0.0
C584 C 0.97623 0.66737 0.73075 0.0
C585 C 0.00589 0.67822 0.76687 0.0
C586 C 0.95681 0.65533 0.7273 0.0
C587 C 0.94675 0.64295 0.75615 0.0
C588 C 0.9853 0.6673 0.76362 0.0
C589 C 0.9563 0.64352 0.78872 0.0
C590 C 0.01461 0.68543 0.8011 0.0
C591 C 0.03555 0.6876 0.73916 0.0
N592 N 0.97511 0.65555 0.79165 0.0
N593 N 0.01657 0.67969 0.73693 0.0
H594 H 0.32599 0.28064 0.74282 0.0
H595 H 0.32889 0.37359 0.81669 0.0
H596 H 0.37565 0.33609 0.74593 0.0
H597 H 0.27769 0.3281 0.77031 0.0
H598 H 0.34489 0.35589 0.80382 0.0
H599 H 0.30679 0.29482 0.76064 0.0
C600 C 0.33281 0.29578 0.74653 0.0
C601 C 0.3525 0.30718 0.74329 0.0
C602 C 0.3301 0.34967 0.79679 0.0
C603 C 0.33082 0.32317 0.76472 0.0
C604 C 0.32092 0.35968 0.80448 0.0
C605 C 0.30207 0.35242 0.79394 0.0
C606 C 0.32038 0.33231 0.77836 0.0
C607 C 0.2923 0.33421 0.77869 0.0
C608 C 0.32188 0.30379 0.75705 0.0
C609 C 0.36059 0.32669 0.74859 0.0
N610 N 0.30168 0.32481 0.77076 0.0
N611 N 0.34975 0.334 0.75947 0.0
H612 H 0.98978 0.3765 0.57701 0.0
H613 H 0.9932 0.28793 0.65969 0.0
H614 H 0.04021 0.37269 0.59199 0.0
H615 H 0.94272 0.28164 0.6085 0.0
H616 H 0.00883 0.32176 0.64834 0.0
H617 H 0.97082 0.34346 0.59693 0.0
C618 C -0.00315 0.3687 0.58391 0.0
C619 C 0.01664 0.37744 0.58305 0.0
C620 C 0.99425 0.31303 0.63998 0.0
C621 C 0.99518 0.34013 0.60685 0.0
C622 C 0.98528 0.29377 0.6468 0.0
C623 C 0.9668 0.28201 0.63441 0.0
C624 C 0.98471 0.32055 0.62041 0.0
C625 C 0.95705 0.29029 0.61829 0.0
C626 C 0.98604 0.34996 0.59562 0.0
C627 C 0.02504 0.36667 0.5925 0.0
N628 N 0.96627 0.30912 0.61108 0.0
N629 N 0.01428 0.34869 0.6043 0.0
H630 H 0.61181 0.61377 0.57863 0.0
H631 H 0.70389 0.70522 0.64888 0.0
H632 H 0.62134 0.67065 0.57207 0.0
H633 H 0.70794 0.65829 0.60496 0.0
H634 H 0.67027 0.68845 0.63519 0.0
H635 H 0.64492 0.62668 0.59722 0.0
C636 C 0.62089 0.62893 0.58037 0.0
C637 C 0.61372 0.64115 0.57425 0.0
C638 C 0.67848 0.68172 0.62894 0.0
C639 C 0.65105 0.65573 0.59659 0.0
C640 C 0.6976 0.69119 0.63709 0.0
C641 C 0.70873 0.68326 0.62736 0.0
C642 C 0.67042 0.66422 0.61097 0.0
C643 C 0.69982 0.66491 0.61266 0.0
C644 C 0.63967 0.63622 0.59132 0.0
C645 C 0.62612 0.66065 0.577 0.0
N646 N 0.68111 0.65604 0.6043 0.0
N647 N 0.64407 0.66729 0.58847 0.0
H648 H 0.33408 0.0487 0.6084 0.0
H649 H 0.32272 0.94744 0.57626 0.0
H650 H 0.28413 0.99589 0.6349 0.0
H651 H 0.37767 -0.00225 0.57866 0.0
H652 H 0.30843 0.96625 0.59246 0.0
H653 H 0.35097 0.03148 0.59638 0.0
C654 C 0.32683 0.03358 0.61267 0.0
C655 C 0.30762 0.02363 0.62215 0.0
C656 C 0.32362 0.97324 0.58942 0.0
C657 C 0.32658 0.00398 0.60757 0.0
C658 C 0.33179 0.96251 0.57981 0.0
C659 C 0.35144 0.971 0.57646 0.0
C660 C 0.33512 0.99267 0.59564 0.0
C661 C 0.36245 0.99065 0.58098 0.0
C662 C 0.33641 0.02376 0.60541 0.0
C663 C 0.29885 0.00406 0.62706 0.0
N664 N 0.35412 0.00086 0.5906 0.0
N665 N 0.30833 0.99486 0.61924 0.0
H666 H 0.37829 0.37651 0.07856 0.0
H667 H 0.28321 0.28555 0.14494 0.0
H668 H 0.32397 0.37303 0.08828 0.0
H669 H 0.33274 0.28283 0.11375 0.0
H670 H 0.30038 0.31938 0.13371 0.0
H671 H 0.36353 0.34321 0.09657 0.0
C672 C 0.36325 0.36871 0.08389 0.0
C673 C 0.35237 0.3776 0.0821 0.0
C674 C 0.3076 0.31146 0.12961 0.0
C675 C 0.33563 0.33987 0.10355 0.0
C676 C 0.29785 0.29218 0.13636 0.0
C677 C 0.30652 0.28141 0.12977 0.0
C678 C 0.32611 0.32002 0.11588 0.0
C679 C 0.32556 0.29069 0.11908 0.0
C680 C 0.35491 0.34979 0.09453 0.0
C681 C 0.33298 0.36685 0.08957 0.0
N682 N 0.3347 0.30952 0.11188 0.0
N683 N 0.3253 0.34862 0.10019 0.0
H684 H 0.62471 0.94956 0.05284 0.0
H685 H 0.71034 0.04992 0.10957 0.0
H686 H 0.61523 0.99525 0.08301 0.0
H687 H 0.71018 -0.00281 0.11863 0.0
H688 H 0.67656 0.03217 0.09414 0.0
H689 H 0.65805 0.9696 0.06642 0.0
C690 C 0.6297 0.96393 0.0618 0.0
C691 C 0.61715 0.97066 0.06738 0.0
C692 C 0.68397 0.02459 0.09994 0.0
C693 C 0.65528 0.99358 0.08364 0.0
C694 C 0.70314 0.03465 0.1091 0.0
C695 C 0.71311 0.025 0.11492 0.0
C696 C 0.67496 0.00489 0.09635 0.0
C697 C 0.70315 0.00523 0.11378 0.0
C698 C 0.64871 0.97531 0.06988 0.0
C699 C 0.62446 0.9895 0.07851 0.0
N700 N 0.68471 0.99587 0.10419 0.0
N701 N 0.64311 0.00032 0.08673 0.0
H702 H 0.94116 0.65756 0.11586 0.0
H703 H 0.03736 0.66684 0.04327 0.0
H704 H 0.99497 0.70928 0.11277 0.0
H705 H 0.99228 0.61378 0.0843 0.0
H706 H 0.01838 0.68141 0.05663 0.0
H707 H 0.9571 0.64014 0.09719 0.0
C708 C 0.95632 0.6652 0.11194 0.0
C709 C 0.96673 0.68494 0.11551 0.0
C710 C 0.01255 0.66653 0.06241 0.0
C711 C 0.98473 0.66528 0.09319 0.0
C712 C 0.0233 0.65817 0.05445 0.0
C713 C 0.0165 0.63918 0.0633 0.0
C714 C 0.99489 0.65586 0.07945 0.0
C715 C -0.00193 0.62852 0.07725 0.0
C716 C 0.96532 0.65528 0.10093 0.0
C717 C 0.9863 0.69412 0.1099 0.0
N718 N 0.98793 0.63709 0.08547 0.0
N719 N 0.9946 0.68424 0.09864 0.0
H720 H 0.60976 0.61449 0.93659 0.0
H721 H 0.71077 0.70548 0.91994 0.0
H722 H 0.66093 0.61919 0.98095 0.0
H723 H 0.6602 0.70948 0.91049 0.0
H724 H 0.69163 0.67261 0.93712 0.0
H725 H 0.62667 0.64869 0.92589 0.0
C726 C 0.62437 0.62278 0.9451 0.0
C727 C 0.6341 0.61403 0.95909 0.0
C728 C 0.68466 0.68063 0.93134 0.0
C729 C 0.65345 0.65273 0.94607 0.0
C730 C 0.69559 0.6994 0.92113 0.0
C731 C 0.6871 0.71033 0.91409 0.0
C732 C 0.66504 0.67256 0.93431 0.0
C733 C 0.66732 0.70155 0.91571 0.0
C734 C 0.63403 0.64223 0.93863 0.0
C735 C 0.65301 0.62536 0.96948 0.0
N736 N 0.65689 0.68311 0.92581 0.0
N737 N 0.66214 0.64409 0.96221 0.0
H738 H 0.37588 0.04001 0.97052 0.0
H739 H 0.28218 0.94639 0.91216 0.0
H740 H 0.37697 0.98908 0.9442 0.0
H741 H 0.29155 0.00296 0.89928 0.0
H742 H 0.31535 0.95978 0.93037 0.0
H743 H 0.3424 0.02397 0.95586 0.0
C744 C 0.36896 0.02531 0.96227 0.0
C745 C 0.37922 0.01593 0.95799 0.0
C746 C 0.31008 0.96916 0.92316 0.0
C747 C 0.34103 -0.00238 0.94038 0.0
C748 C 0.29125 0.96158 0.91241 0.0
C749 C 0.28402 0.97359 0.90461 0.0
C750 C 0.32153 0.98879 0.92639 0.0
C751 C 0.2964 0.99314 0.90553 0.0
C752 C 0.34991 0.01623 0.95354 0.0
C753 C 0.36952 0.99681 0.94773 0.0
N754 N 0.31446 0.0001 0.9167 0.0
N755 N 0.3509 0.98828 0.93875 0.0
H756 H 0.04589 0.33472 0.91193 0.0
H757 H 0.94821 0.32865 0.96373 0.0
H758 H 0.99119 0.28425 0.90537 0.0
H759 H -0.00098 0.38201 0.94525 0.0
H760 H 0.96551 0.31239 0.94994 0.0
H761 H 0.03027 0.35281 0.92745 0.0
C762 C 0.03062 0.32752 0.91302 0.0
C763 C 0.01981 0.30792 0.90773 0.0
C764 C 0.97295 0.32767 0.94906 0.0
C765 C 0.00205 0.32833 0.92631 0.0
C766 C 0.96311 0.33696 0.95727 0.0
C767 C 0.97216 0.35668 0.95519 0.0
C768 C 0.99199 0.33814 0.93859 0.0
C769 C 0.99154 0.36676 0.94712 0.0
C770 C 0.02176 0.33781 0.92224 0.0
C771 C 0.0001 0.29929 0.90969 0.0
N772 N 0.00083 0.35734 0.93867 0.0
N773 N 0.9919 0.30951 0.91916 0.0
H774 H 0.04577 0.71015 0.40845 0.0
H775 H 0.95391 0.62126 0.49068 0.0
H776 H 0.99184 0.70668 0.426 0.0
H777 H -0.00207 0.61516 0.43804 0.0
H778 H 0.97204 0.65512 0.47981 0.0
H779 H 0.03159 0.67693 0.42723 0.0
C780 C 0.03094 0.70239 0.41569 0.0
C781 C 0.02001 0.71127 0.41587 0.0
C782 C 0.97787 0.64642 0.47099 0.0
C783 C 0.00405 0.67374 0.43832 0.0
C784 C 0.96761 0.62714 0.47752 0.0
C785 C 0.97432 0.61543 0.46467 0.0
C786 C 0.99488 0.65403 0.45123 0.0
C787 C 0.99226 0.62376 0.44821 0.0
C788 C 0.02295 0.68354 0.42673 0.0
C789 C 0.0009 0.70056 0.42572 0.0
N790 N 0.00186 0.64263 0.44132 0.0
N791 N 0.99362 0.68245 0.43683 0.0
H792 H 0.28793 0.2869 0.37619 0.0
H793 H 0.37549 0.38315 0.44689 0.0
H794 H 0.28053 0.3323 0.41747 0.0
H795 H 0.37359 0.32946 0.44149 0.0
H796 H 0.34203 0.36725 0.42907 0.0
H797 H 0.32161 0.30582 0.38823 0.0
C798 C 0.29348 0.30102 0.38717 0.0
C799 C 0.28143 0.30794 0.39643 0.0
C800 C 0.34902 0.35904 0.43209 0.0
C801 C 0.31987 0.3295 0.4111 0.0
C802 C 0.36801 0.36803 0.4426 0.0
C803 C 0.3774 0.35764 0.44537 0.0
C804 C 0.3396 0.33967 0.42404 0.0
C805 C 0.36705 0.33811 0.43929 0.0
C806 C 0.31266 0.31174 0.39437 0.0
C807 C 0.28938 0.32643 0.4101 0.0
N808 N 0.3488 0.32982 0.42858 0.0
N809 N 0.30817 0.33655 0.41759 0.0
H810 H 0.66302 0.94699 0.40882 0.0
H811 H 0.65822 0.03413 0.49372 0.0
H812 H 0.70999 0.00394 0.41819 0.0
H813 H 0.61003 0.98987 0.4369 0.0
H814 H 0.67552 0.01756 0.48197 0.0
H815 H 0.64179 0.95835 0.42956 0.0
C816 C 0.66884 0.96186 0.41466 0.0
C817 C 0.68837 0.9745 0.412 0.0
C818 C 0.66105 0.01131 0.47258 0.0
C819 C 0.66439 0.98723 0.43687 0.0
C820 C 0.65113 0.02065 0.47962 0.0
C821 C 0.63285 0.0135 0.46563 0.0
C822 C 0.65266 0.99479 0.45125 0.0
C823 C 0.62418 0.99586 0.44793 0.0
C824 C 0.65675 0.96824 0.42681 0.0
C825 C 0.69511 0.9936 0.42006 0.0
N826 N 0.63433 0.9872 0.44052 0.0
N827 N 0.68318 -0.0007 0.43252 0.0
H828 H 0.32935 0.09029 0.53337 0.0
H829 H 0.33469 0.09211 0.31375 0.0
H830 H 0.28124 0.0536 0.46607 0.0
H831 H 0.38255 0.10278 0.38124 0.0
H832 H 0.31522 0.08405 0.3693 0.0
H833 H 0.34899 0.10086 0.47787 0.0
C834 C 0.32279 0.08462 0.50689 0.0
C835 C 0.30348 0.071 0.50456 0.0
C836 C 0.33001 0.08829 0.37195 0.0
C837 C 0.32611 0.08326 0.44067 0.0
C838 C 0.34125 0.09308 0.34027 0.0
C839 C 0.36043 0.09822 0.34262 0.0
C840 C 0.33795 0.08896 0.4066 0.0
C841 C 0.3679 0.09894 0.37796 0.0
C842 C 0.33412 0.0906 0.47525 0.0
C843 C 0.29599 0.0641 0.46932 0.0
N844 N 0.35668 0.09444 0.40854 0.0
N845 N 0.30728 0.07037 0.43877 0.0
H846 H 0.95706 0.25889 0.49397 0.0
H847 H 0.87551 0.23871 0.35044 0.0
H848 H 0.89997 0.21412 0.51305 0.0
H849 H 0.92117 0.29498 0.37247 0.0
H850 H 0.8855 0.22715 0.40366 0.0
H851 H 0.94588 0.26966 0.44157 0.0
C852 C 0.94224 0.25107 0.48671 0.0
C853 C 0.92947 0.23548 0.50794 0.0
C854 C 0.89319 0.24205 0.39701 0.0
C855 C 0.91657 0.24786 0.44796 0.0
C856 C 0.88746 0.24868 0.36676 0.0
C857 C 0.89738 0.26791 0.35714 0.0
C858 C 0.90931 0.2546 0.41717 0.0
C859 C 0.91291 0.28012 0.37912 0.0
C860 C 0.93584 0.25739 0.45708 0.0
C861 C 0.91034 0.22615 0.49747 0.0
N862 N 0.91854 0.27323 0.40771 0.0
N863 N 0.90449 0.23241 0.46816 0.0
H864 H 0.73369 0.69575 0.48912 0.0
H865 H 0.75241 0.63337 0.34581 0.0
H866 H 0.77702 0.68149 0.50973 0.0
H867 H 0.69641 0.6236 0.36802 0.0
H868 H 0.7642 0.65474 0.39926 0.0
H869 H 0.72274 0.67393 0.43648 0.0
C870 C 0.74118 0.68836 0.48212 0.0
C871 C 0.75639 0.69057 0.50384 0.0
C872 C 0.74931 0.64774 0.39261 0.0
C873 C 0.74381 0.66547 0.44365 0.0
C874 C 0.74254 0.63548 0.36225 0.0
C875 C 0.72333 0.62647 0.35263 0.0
C876 C 0.73691 0.65152 0.41283 0.0
C877 C 0.71126 0.62996 0.37471 0.0
C878 C 0.73475 0.67573 0.45237 0.0
C879 C 0.76528 0.68029 0.49374 0.0
N880 N 0.71828 0.6424 0.40338 0.0
N881 N 0.75894 0.66828 0.4643 0.0
H882 H 0.10428 0.38144 0.13992 0.0
H883 H 0.05219 0.27865 0.05204 0.0
H884 H 0.09149 0.33193 0.20399 0.0
H885 H 0.08872 0.32797 0.98735 0.0
H886 H 0.0639 0.2979 0.10835 0.0
H887 H 0.09623 0.36222 0.08346 0.0
C888 C 0.09999 0.36663 0.14216 0.0
C889 C 0.09869 0.3584 0.17692 0.0
C890 C 0.06946 0.30442 0.08179 0.0
C891 C 0.08896 0.3362 0.11244 0.0
C892 C 0.06279 0.29343 0.04963 0.0
C893 C 0.06951 0.3016 0.01476 0.0
C894 C 0.0826 0.32383 0.07909 0.0
C895 C 0.08319 0.32093 0.01352 0.0
C896 C 0.09538 0.35566 0.10993 0.0
C897 C 0.09289 0.33902 0.17794 0.0
N898 N 0.08908 0.33139 0.04504 0.0
N899 N 0.08803 0.32859 0.14637 0.0
H900 H 0.61356 0.72389 0.13767 0.0
H901 H 0.71677 0.77337 0.05176 0.0
H902 H 0.66288 0.75983 0.2028 0.0
H903 H 0.66792 0.76139 0.98626 0.0
H904 H 0.69733 0.76613 0.10777 0.0
H905 H 0.63313 0.73496 0.08164 0.0
C906 C 0.62841 0.73421 0.14023 0.0
C907 C 0.63648 0.74096 0.17514 0.0
C908 C 0.69097 0.76529 0.08109 0.0
C909 C 0.65907 0.75333 0.11117 0.0
C910 C 0.70207 0.76945 0.04911 0.0
C911 C 0.69408 0.76811 0.01408 0.0
C912 C 0.67162 0.75929 0.07806 0.0
C913 C 0.67483 0.76279 0.01253 0.0
C914 C 0.63958 0.74053 0.10824 0.0
C915 C 0.65592 0.7543 0.17659 0.0
N916 N 0.66425 0.75836 0.04389 0.0
N917 N 0.66655 0.75983 0.14525 0.0
H918 H 0.23259 0.87696 0.17217 0.0
H919 H 0.25465 0.96052 0.0325 0.0
H920 H 0.28914 0.92294 0.15377 0.0
H921 H 0.21111 0.90354 1.0081 0.0
H922 H 0.26434 0.94866 0.08551 0.0
H923 H 0.22176 0.88772 0.11895 0.0
C924 C 0.24278 0.88915 0.15665 0.0
C925 C 0.26187 0.89892 0.16724 0.0
C926 C 0.25254 0.9388 0.06873 0.0
C927 C 0.24938 0.91172 0.10731 0.0
C928 C 0.24682 0.94557 0.03876 0.0
C929 C 0.23195 0.93303 0.01584 0.0
C930 C 0.2431 0.91937 0.07646 0.0
C931 C 0.22261 0.91373 0.02503 0.0
C932 C 0.23656 0.89531 0.12641 0.0
C933 C 0.27437 0.91478 0.14632 0.0
N934 N 0.22827 0.90751 0.05468 0.0
N935 N 0.26787 0.92083 0.11774 0.0
H936 H 0.63225 0.92487 0.65242 0.0
H937 H 0.69375 0.90501 0.50888 0.0
H938 H 0.64465 0.88015 0.67184 0.0
H939 H 0.70475 0.9613 0.53238 0.0
H940 H 0.6722 0.89329 0.56213 0.0
H941 H 0.65438 0.93572 0.60028 0.0
C942 C 0.6393 0.91708 0.64528 0.0
C943 C 0.63647 0.90149 0.66652 0.0
C944 C 0.67953 0.90823 0.55581 0.0
C945 C 0.66193 0.91394 0.60687 0.0
C946 C 0.69189 0.91495 0.52558 0.0
C947 C 0.70129 0.93423 0.51634 0.0
C948 C 0.67603 0.92075 0.5763 0.0
C949 C 0.69809 0.9464 0.53874 0.0
C950 C 0.65212 0.92344 0.61581 0.0
C951 C 0.64634 0.89219 0.65623 0.0
N952 N 0.68555 0.93943 0.56726 0.0
N953 N 0.65854 0.89848 0.62706 0.0
H954 H 0.09113 0.76279 0.48376 0.0
H955 H 0.09449 0.76129 0.70386 0.0
H956 H 0.05464 0.77437 0.55153 0.0
H957 H 0.10625 0.72485 0.63641 0.0
H958 H 0.08622 0.77248 0.6482 0.0
H959 H 0.103 0.75532 0.53939 0.0
C960 C 0.0858 0.76411 0.51034 0.0
C961 C 0.07178 0.76927 0.51274 0.0
C962 C 0.09078 0.76217 0.64559 0.0
C963 C 0.08552 0.76068 0.57683 0.0
C964 C 0.09568 0.75585 0.67733 0.0
C965 C 0.10114 0.74204 0.67502 0.0
C966 C 0.09164 0.75499 0.61094 0.0
C967 C 0.10214 0.73546 0.63968 0.0
C968 C 0.09253 0.75966 0.54208 0.0
C969 C 0.0654 0.77047 0.54818 0.0
N970 N 0.09749 0.74202 0.60907 0.0
N971 N 0.07235 0.76626 0.57879 0.0
H972 H 0.20971 0.30504 0.5121 0.0
H973 H 0.29101 0.36662 0.65573 0.0
H974 H 0.25592 0.29511 0.53327 0.0
H975 H 0.23355 0.35283 0.67628 0.0
H976 H 0.28009 0.34507 0.60272 0.0
H977 H 0.21947 0.32635 0.56567 0.0
C978 C 0.22174 0.30713 0.5283 0.0
C979 C 0.23187 0.29807 0.51835 0.0
C980 C 0.26991 0.34691 0.61868 0.0
C981 C 0.24353 0.32303 0.57876 0.0
C982 C 0.27615 0.3594 0.64867 0.0
C983 C 0.26321 0.36166 0.67049 0.0
C984 C 0.25062 0.33685 0.60982 0.0
C985 C 0.24405 0.35158 0.66024 0.0
C986 C 0.22733 0.31934 0.55874 0.0
C987 C 0.2475 0.30152 0.54017 0.0
N988 N 0.23835 0.33971 0.63059 0.0
N989 N 0.25299 0.3139 0.56896 0.0
H990 H 0.8958 0.66314 0.04209 0.0
H991 H 0.89504 0.65867 0.82198 0.0
H992 H 0.93223 0.71163 0.97532 0.0
H993 H 0.8836 0.61069 0.88983 0.0
H994 H 0.90231 0.67799 0.87765 0.0
H995 H 0.88497 0.64386 0.98625 0.0
C996 C 0.90133 0.66988 0.01568 0.0
C997 C 0.91503 0.68918 0.01363 0.0
C998 C 0.89804 0.6632 0.88034 0.0
C999 C 0.90248 0.66692 0.94929 0.0
C1000 C 0.8937 0.65204 0.84859 0.0
C1001 C 0.88864 0.63289 0.85102 0.0
C1002 C 0.89698 0.65517 0.91511 0.0
C1003 C 0.88742 0.62532 0.88647 0.0
C1004 C 0.8952 0.65875 0.98381 0.0
C1005 C 0.9217 0.69689 0.97839 0.0
N1006 N 0.89151 0.63645 0.91707 0.0
N1007 N 0.91534 0.68576 0.94765 0.0
H1008 H 0.32842 0.23672 0.03989 0.0
H1009 H 0.33362 0.23949 0.82031 0.0
H1010 H 0.28026 0.22535 0.97274 0.0
H1011 H 0.38153 0.27678 0.8875 0.0
H1012 H 0.31412 0.22842 0.87591 0.0
H1013 H 0.34798 0.24559 0.98432 0.0
C1014 C 0.32183 0.2358 0.01342 0.0
C1015 C 0.30253 0.23018 1.01115 0.0
C1016 C 0.32893 0.23892 0.87849 0.0
C1017 C 0.32508 0.24034 0.94717 0.0
C1018 C 0.34018 0.24517 0.84679 0.0
C1019 C 0.35939 0.25912 0.84905 0.0
C1020 C 0.33689 0.24631 0.91306 0.0
C1021 C 0.36686 0.26603 0.8843 0.0
C1022 C 0.33312 0.24105 0.98174 0.0
C1023 C 0.29501 0.22957 0.97593 0.0
N1024 N 0.35563 0.25949 0.91491 0.0
N1025 N 0.30626 0.23448 0.94533 0.0
H1026 H 0.71953 0.10855 0.88278 0.0
H1027 H 0.77452 0.06058 0.96921 0.0
H1028 H 0.75743 0.09774 0.81787 0.0
H1029 H 0.75957 0.09531 0.03456 0.0
H1030 H 0.76625 0.07181 0.91315 0.0
H1031 H 0.73193 0.10175 0.93899 0.0
C1032 C 0.7306 0.10501 0.88029 0.0
C1033 C 0.73743 0.1038 0.84536 0.0
C1034 C 0.76498 0.0771 0.93981 0.0
C1035 C 0.75131 0.09549 0.90958 0.0
C1036 C 0.76971 0.07068 0.97182 0.0
C1037 C 0.76785 0.07702 1.0068 0.0
C1038 C 0.7579 0.08958 0.94276 0.0
C1039 C 0.7614 0.09009 1.0083 0.0
C1040 C 0.73765 0.10109 0.91239 0.0
C1041 C 0.75174 0.09899 0.84405 0.0
N1042 N 0.75644 0.09572 0.97691 0.0
N1043 N 0.75798 0.09477 0.87551 0.0
H1044 H -0.00261 0.42819 0.65269 0.0
H1045 H 0.99397 0.42627 0.87282 0.0
H1046 H 0.04593 0.43979 0.71884 0.0
H1047 H 0.9453 0.38981 0.80656 0.0
H1048 H 0.01305 0.43733 0.81668 0.0
H1049 H 0.97834 0.4203 0.70886 0.0
C1050 C 0.00419 0.42943 0.67903 0.0
C1051 C 0.02343 0.43474 0.68082 0.0
C1052 C -0.00183 0.42702 0.81443 0.0
C1053 C 0.00145 0.42565 0.74551 0.0
C1054 C 0.98716 0.42076 0.84646 0.0
C1055 C 0.96787 0.40703 0.84462 0.0
C1056 C 0.98988 0.41984 0.77996 0.0
C1057 C 0.96005 0.40037 0.80946 0.0
C1058 C 0.99319 0.42473 0.71108 0.0
C1059 C 0.03122 0.4358 0.71597 0.0
N1060 N 0.97105 0.40689 0.77855 0.0
N1061 N 0.02024 0.43135 0.74688 0.0
H1062 H 0.62217 0.59018 0.8192 0.0
H1063 H 0.54027 0.57088 0.67743 0.0
H1064 H 0.565 0.5459 0.83962 0.0
H1065 H 0.58592 0.62705 0.70031 0.0
H1066 H 0.55033 0.55905 0.73014 0.0
H1067 H 0.61084 0.6011 0.76725 0.0
C1068 C 0.6073 0.58248 0.8123 0.0
C1069 C 0.59454 0.56701 0.83377 0.0
C1070 C 0.55799 0.57398 0.7238 0.0
C1071 C 0.58148 0.57955 0.77436 0.0
C1072 C 0.55222 0.58077 0.69387 0.0
C1073 C 0.56212 0.60005 0.68464 0.0
C1074 C 0.57414 0.58644 0.74398 0.0
C1075 C 0.57767 0.61215 0.70669 0.0
C1076 C 0.60082 0.58889 0.78294 0.0
C1077 C 0.57535 0.55785 0.82381 0.0
N1078 N 0.58335 0.60512 0.73493 0.0
N1079 N 0.56941 0.56419 0.79475 0.0
H1080 H 0.42448 0.99267 0.87142 0.0
H1081 H 0.42167 0.98994 0.65129 0.0
H1082 H 0.43757 0.04184 0.80595 0.0
H1083 H 0.38435 0.94148 0.71728 0.0
H1084 H 0.43338 0.00873 0.7076 0.0
H1085 H 0.4156 0.97367 0.81509 0.0
C1086 C 0.42579 -0.00041 0.84518 0.0
C1087 C 0.43186 0.01901 0.84361 0.0
C1088 C 0.42274 0.99395 0.70976 0.0
C1089 C 0.42168 0.99711 0.77876 0.0
C1090 C 0.41611 0.9831 0.67762 0.0
C1091 C 0.40193 0.96396 0.67933 0.0
C1092 C 0.41548 0.98565 0.7442 0.0
C1093 C 0.39524 0.95612 0.71447 0.0
C1094 C 0.42054 0.98863 0.81305 0.0
C1095 C 0.43299 0.02699 0.80863 0.0
N1096 N 0.40211 0.96696 0.74548 0.0
N1097 N 0.42802 0.01603 0.77763 0.0
H1098 H 0.5887 0.95391 0.20202 0.0
H1099 H 0.56528 0.01431 0.34213 0.0
H1100 H 0.54478 0.96689 0.17771 0.0
H1101 H 0.622 0.02505 0.32508 0.0
H1102 H 0.55485 0.99296 0.28857 0.0
H1103 H 0.59801 0.97516 0.25542 0.0
C1104 C 0.58073 0.96088 0.20834 0.0
C1105 C 0.56585 0.95849 0.18534 0.0
C1106 C 0.5696 0.00015 0.29642 0.0
C1107 C 0.57656 0.98296 0.24643 0.0
C1108 C 0.57559 0.01238 0.32686 0.0
C1109 C 0.59461 0.02169 0.33793 0.0
C1110 C 0.58259 0.9967 0.27756 0.0
C1111 C 0.60728 0.01844 0.31728 0.0
C1112 C 0.58622 0.9732 0.23856 0.0
C1113 C 0.5563 0.96824 0.19467 0.0
N1114 N 0.60101 0.00605 0.28848 0.0
N1115 N 0.56175 0.97996 0.22454 0.0
H1116 H 0.9707 0.5455 0.34252 0.0
H1117 H 0.03166 0.62842 0.20088 0.0
H1118 H 0.96104 0.59218 0.32553 0.0
H1119 H 0.01865 0.57133 0.17903 0.0
H1120 H 0.01022 0.61699 0.25411 0.0
H1121 H 0.99185 0.55591 0.28868 0.0
C1122 C 0.9728 0.55777 0.32718 0.0
C1123 C 0.96387 0.56784 0.33841 0.0
C1124 C 0.0122 0.60701 0.23781 0.0
C1125 C 0.98866 0.58023 0.27761 0.0
C1126 C 0.02463 0.61355 0.20769 0.0
C1127 C 0.02709 0.60085 0.18545 0.0
C1128 C 0.00239 0.58766 0.24635 0.0
C1129 C 0.01725 0.58165 0.19538 0.0
C1130 C 0.98494 0.56374 0.29657 0.0
C1131 C 0.96735 0.5838 0.31763 0.0
N1132 N 0.00543 0.57566 0.22514 0.0
N1133 N 0.97964 0.58963 0.28863 0.0
H1134 H 0.42363 0.42851 0.1512 0.0
H1135 H 0.42715 0.42865 0.37132 0.0
H1136 H 0.38764 0.44112 0.21819 0.0
H1137 H 0.43874 0.39156 0.30557 0.0
H1138 H 0.41892 0.43943 0.31513 0.0
H1139 H 0.43538 0.42118 0.2072 0.0
C1140 C 0.41839 0.43007 0.17768 0.0
C1141 C 0.40455 0.4355 0.17977 0.0
C1142 C 0.42342 0.42906 0.31299 0.0
C1143 C 0.41815 0.42708 0.24426 0.0
C1144 C 0.4283 0.42296 0.34506 0.0
C1145 C 0.4337 0.40909 0.34341 0.0
C1146 C 0.42424 0.42159 0.27866 0.0
C1147 C 0.43467 0.40222 0.30834 0.0
C1148 C 0.42504 0.42571 0.20963 0.0
C1149 C 0.39826 0.43701 0.21508 0.0
N1150 N 0.43003 0.40856 0.27739 0.0
N1151 N 0.40514 0.43288 0.24589 0.0
H1152 H 0.3425 0.21478 0.15562 0.0
H1153 H 0.31912 0.10877 0.19353 0.0
H1154 H 0.28731 0.16583 0.14049 0.0
H1155 H 0.37454 0.15776 0.20549 0.0
H1156 H 0.30702 0.12943 0.17424 0.0
H1157 H 0.35463 0.19398 0.17329 0.0
C1158 C 0.33298 0.19966 0.15579 0.0
C1159 C 0.31389 0.192 0.1467 0.0
C1160 C 0.32183 0.13563 0.18113 0.0
C1161 C 0.32755 0.16817 0.16711 0.0
C1162 C 0.3287 0.12385 0.19225 0.0
C1163 C 0.34783 0.13158 0.20107 0.0
C1164 C 0.33422 0.15522 0.17892 0.0
C1165 C 0.35968 0.1512 0.19889 0.0
C1166 C 0.33987 0.18779 0.16597 0.0
C1167 C 0.30214 0.17233 0.14739 0.0
N1168 N 0.35268 0.16235 0.188 0.0
N1169 N 0.30915 0.16108 0.15757 0.0
H1170 H 0.8258 0.12409 0.14216 0.0
H1171 H 0.82924 0.21585 0.22641 0.0
H1172 H 0.77555 0.12731 0.16365 0.0
H1173 H 0.87761 0.20822 0.2162 0.0
H1174 H 0.8091 0.18376 0.20336 0.0
H1175 H 0.84486 0.15559 0.16721 0.0
C1176 C 0.81876 0.1315 0.15197 0.0
C1177 C 0.79905 0.12306 0.15095 0.0
C1178 C 0.8241 0.18908 0.20644 0.0
C1179 C 0.82087 0.1592 0.18007 0.0
C1180 C 0.83559 0.20734 0.21971 0.0
C1181 C 0.85513 0.2147 0.22303 0.0
C1182 C 0.83227 0.1782 0.19629 0.0
C1183 C 0.86263 0.20312 0.21398 0.0
C1184 C 0.82968 0.14948 0.16647 0.0
C1185 C 0.79072 0.13335 0.16392 0.0
N1186 N 0.85119 0.18548 0.20079 0.0
N1187 N 0.80171 0.15094 0.17811 0.0
H1188 H 0.78303 0.66877 0.21667 0.0
H1189 H 0.86463 0.64585 0.16419 0.0
H1190 H 0.77508 0.61247 0.21839 0.0
H1191 H 0.86988 0.70094 0.15588 0.0
H1192 H 0.83215 0.63318 0.18634 0.0
H1193 H 0.81572 0.68093 0.19784 0.0
C1194 C 0.78822 0.65899 0.21334 0.0
C1195 C 0.77635 0.6396 0.2189 0.0
C1196 C 0.84045 0.64803 0.17958 0.0
C1197 C 0.81365 0.65334 0.19705 0.0
C1198 C 0.85892 0.65522 0.16685 0.0
C1199 C 0.86992 0.67444 0.15821 0.0
C1200 C 0.83307 0.6602 0.18369 0.0
C1201 C 0.86191 0.68602 0.16223 0.0
C1202 C 0.80686 0.66591 0.20246 0.0
C1203 C 0.78378 0.62754 0.21426 0.0
N1204 N 0.84401 0.67873 0.17473 0.0
N1205 N 0.80197 0.6346 0.20342 0.0
H1206 H 0.15751 0.36991 0.31209 0.0
H1207 H 0.16308 0.28144 0.38934 0.0
H1208 H 0.10809 0.31539 0.33025 0.0
H1209 H 0.21102 0.33763 0.37869 0.0
H1210 H 0.14249 0.29323 0.36817 0.0
H1211 H 0.17719 0.35771 0.33515 0.0
C1212 C 0.15078 0.35529 0.32076 0.0
C1213 C 0.13112 0.34363 0.31935 0.0
C1214 C 0.1575 0.30298 0.3707 0.0
C1215 C 0.15364 0.32958 0.34616 0.0
C1216 C 0.16925 0.29629 0.3829 0.0
C1217 C 0.18879 0.30859 0.38561 0.0
C1218 C 0.16539 0.32206 0.36103 0.0
C1219 C 0.19604 0.32767 0.37693 0.0
C1220 C 0.16205 0.34835 0.3341 0.0
C1221 C 0.12321 0.32482 0.33086 0.0
N1222 N 0.18434 0.33379 0.36482 0.0
N1223 N 0.13453 0.31835 0.34392 0.0
H1224 H 0.71482 0.8833 0.38089 0.0
H1225 H 0.62458 0.78924 0.30933 0.0
H1226 H 0.65864 0.87554 0.37541 0.0
H1227 H 0.67893 0.79365 0.32601 0.0
H1228 H 0.63745 0.82144 0.33109 0.0
H1229 H 0.70238 0.85084 0.3599 0.0
C1230 C 0.69984 0.87471 0.37554 0.0
C1231 C 0.68772 0.8821 0.37978 0.0
C1232 C 0.64661 0.81542 0.32999 0.0
C1233 C 0.67348 0.8451 0.35545 0.0
C1234 C 0.63929 0.79704 0.31739 0.0
C1235 C 0.65072 0.78876 0.31597 0.0
C1236 C 0.66552 0.82567 0.34123 0.0
C1237 C 0.66966 0.79954 0.32669 0.0
C1238 C 0.69277 0.85621 0.36348 0.0
C1239 C 0.66846 0.87039 0.37249 0.0
N1240 N 0.6765 0.8175 0.33899 0.0
N1241 N 0.66195 0.85248 0.36049 0.0
H1242 H 0.11395 0.82482 0.36779 0.0
H1243 H 0.20834 0.82955 0.29501 0.0
H1244 H 0.12022 0.77562 0.3579 0.0
H1245 H 0.20052 0.87784 0.30415 0.0
H1246 H 0.17579 0.80922 0.3153 0.0
H1247 H 0.14554 0.84416 0.34319 0.0
C1248 C 0.12203 0.81807 0.36056 0.0
C1249 C 0.11447 0.79857 0.36492 0.0
C1250 C 0.18116 0.82424 0.31262 0.0
C1251 C 0.15073 0.82071 0.33644 0.0
C1252 C 0.1997 0.83585 0.30092 0.0
C1253 C 0.20713 0.85542 0.29813 0.0
C1254 C 0.17004 0.8323 0.32164 0.0
C1255 C 0.19536 0.86283 0.30606 0.0
C1256 C 0.14008 0.82915 0.34636 0.0
C1257 C 0.12557 0.79062 0.35506 0.0
N1258 N 0.17742 0.85126 0.31768 0.0
N1259 N 0.14321 0.80176 0.34121 0.0
H1260 H 0.61843 0.82975 0.7923 0.0
H1261 H 0.70655 0.82426 0.87172 0.0
H1262 H 0.67478 0.8775 0.80222 0.0
H1263 H 0.65142 0.77505 0.85794 0.0
H1264 H 0.69475 0.8437 0.84577 0.0
H1265 H 0.63007 0.80911 0.81401 0.0
C1266 C 0.6333 0.83585 0.7986 0.0
C1267 C 0.64567 0.85537 0.79573 0.0
C1268 C 0.68517 0.82867 0.84839 0.0
C1269 C 0.65895 0.83193 0.82091 0.0
C1270 C 0.69188 0.81753 0.86339 0.0
C1271 C 0.67992 0.798 0.86697 0.0
C1272 C 0.66632 0.82026 0.83686 0.0
C1273 C 0.66107 0.79009 0.85573 0.0
C1274 C 0.63989 0.82408 0.81114 0.0
C1275 C 0.66475 0.86255 0.80421 0.0
N1276 N 0.65481 0.80128 0.84107 0.0
N1277 N 0.67078 0.85083 0.81667 0.0
H1278 H 0.11057 0.79252 0.82543 0.0
H1279 H 0.21535 0.87318 0.87796 0.0
H1280 H 0.15965 0.78591 0.81752 0.0
H1281 H 0.16683 0.88083 0.88256 0.0
H1282 H 0.19479 0.84055 0.85851 0.0
H1283 H 0.13076 0.82473 0.84795 0.0
C1284 C 0.12559 0.79788 0.82826 0.0
C1285 C 0.13347 0.78658 0.8196 0.0
C1286 C 0.18863 0.84935 0.86393 0.0
C1287 C 0.15655 0.82321 0.84554 0.0
C1288 C 0.20035 0.86794 0.87518 0.0
C1289 C 0.19277 0.8797 0.8817 0.0
C1290 C 0.16923 0.84254 0.85917 0.0
C1291 C 0.17325 0.87223 0.87767 0.0
C1292 C 0.13709 0.81622 0.84123 0.0
C1293 C 0.15299 0.79416 0.82386 0.0
N1294 N 0.16215 0.85412 0.86649 0.0
N1295 N 0.16386 0.812 0.83659 0.0
H1296 H 0.11546 0.28885 0.8767 0.0
H1297 H 0.20894 0.37708 0.79704 0.0
H1298 H 0.12096 0.34366 0.86012 0.0
H1299 H 0.20124 0.32115 0.80917 0.0
H1300 H 0.17664 0.36523 0.81856 0.0
H1301 H 0.14707 0.3008 0.8522 0.0
C1302 C 0.12339 0.30347 0.86808 0.0
C1303 C 0.11559 0.3153 0.8704 0.0
C1304 C 0.18198 0.35553 0.81626 0.0
C1305 C 0.15181 0.32905 0.84196 0.0
C1306 C 0.20038 0.36225 0.80384 0.0
C1307 C 0.20778 0.35007 0.80151 0.0
C1308 C 0.17097 0.33652 0.82652 0.0
C1309 C 0.1961 0.33102 0.81063 0.0
C1310 C 0.14143 0.31027 0.85392 0.0
C1311 C 0.1265 0.3341 0.85886 0.0
N1312 N 0.1783 0.32486 0.82298 0.0
N1313 N 0.14411 0.34042 0.84501 0.0
H1314 H 0.88092 0.67363 0.6964 0.0
H1315 H 0.77627 0.64893 0.64129 0.0
H1316 H 0.83188 0.61806 0.70569 0.0
H1317 H 0.82515 0.70453 0.63064 0.0
H1318 H 0.79678 0.63703 0.66209 0.0
H1319 H 0.86089 0.68522 0.67087 0.0
C1320 C 0.86594 0.66392 0.69326 0.0
C1321 C 0.85802 0.6449 0.7032 0.0
C1322 C 0.80304 0.65181 0.65496 0.0
C1323 C 0.83512 0.65792 0.6738 0.0
C1324 C 0.79134 0.65858 0.64293 0.0
C1325 C 0.79903 0.67774 0.63448 0.0
C1326 C 0.82252 0.66434 0.65865 0.0
C1327 C 0.81863 0.68965 0.63706 0.0
C1328 C 0.85453 0.67049 0.67853 0.0
C1329 C 0.83856 0.63286 0.69842 0.0
N1330 N 0.82971 0.68277 0.64918 0.0
N1331 N 0.82778 0.63957 0.68403 0.0
H1332 H 0.37456 0.2132 0.71481 0.0
H1333 H 0.28752 0.11953 0.63292 0.0
H1334 H 0.31946 0.20668 0.69616 0.0
H1335 H 0.34223 0.12566 0.65455 0.0
H1336 H 0.29922 0.15172 0.65424 0.0
H1337 H 0.36297 0.18122 0.69246 0.0
C1338 C 0.35996 0.20498 0.70619 0.0
C1339 C 0.34793 0.21259 0.70726 0.0
C1340 C 0.3087 0.14607 0.65422 0.0
C1341 C 0.33463 0.176 0.68135 0.0
C1342 C 0.30206 0.12771 0.64191 0.0
C1343 C 0.31394 0.11992 0.64211 0.0
C1344 C 0.32734 0.15671 0.66685 0.0
C1345 C 0.33262 0.13114 0.65398 0.0
C1346 C 0.35337 0.18673 0.69333 0.0
C1347 C 0.32917 0.20132 0.69582 0.0
N1348 N 0.33874 0.14899 0.66605 0.0
N1349 N 0.32309 0.18356 0.68318 0.0
H1350 H 0.87582 0.16355 0.63468 0.0
H1351 H 0.77909 0.15702 0.69681 0.0
H1352 H 0.86636 0.21094 0.63908 0.0
H1353 H 0.78691 0.10858 0.69414 0.0
H1354 H 0.81086 0.17652 0.67344 0.0
H1355 H 0.84299 0.14269 0.65301 0.0
C1356 C 0.86678 0.16953 0.63911 0.0
C1357 C 0.87381 0.18901 0.6356 0.0
C1358 C 0.80571 0.16164 0.67792 0.0
C1359 C 0.83642 0.16531 0.65681 0.0
C1360 C 0.78754 0.15047 0.69141 0.0
C1361 C 0.78037 0.13114 0.69751 0.0
C1362 C 0.81691 0.1535 0.67046 0.0
C1363 C 0.79196 0.12345 0.68991 0.0
C1364 C 0.84808 0.15763 0.6497 0.0
C1365 C 0.86153 0.19602 0.64164 0.0
N1366 N 0.80974 0.1347 0.67675 0.0
N1367 N 0.84346 0.18418 0.65215 0.0
H1368 H 0.03624 0.49109 0.5369 0.0
H1369 H 0.94712 0.49701 0.46521 0.0
H1370 H 0.98069 0.44209 0.52676 0.0
H1371 H 0.00382 0.5445 0.47126 0.0
H1372 H 0.95892 0.47627 0.48536 0.0
H1373 H 0.02422 0.51057 0.51212 0.0
C1374 C 0.02144 0.48441 0.52959 0.0
C1375 C 0.00942 0.46493 0.53391 0.0
C1376 C 0.96878 0.4912 0.48198 0.0
C1377 C 0.99555 0.48724 0.50517 0.0
C1378 C 0.96209 0.50304 0.47035 0.0
C1379 C 0.97452 0.52252 0.46682 0.0
C1380 C 0.98801 0.49896 0.49019 0.0
C1381 C 0.99373 0.52958 0.47379 0.0
C1382 C 0.0146 0.49557 0.51526 0.0
C1383 C 0.9904 0.45708 0.52396 0.0
N1384 N -0.00013 0.51782 0.48539 0.0
N1385 N 0.98401 0.4683 0.50998 0.0
H1386 H 0.54459 0.54118 0.54707 0.0
H1387 H 0.44021 0.45976 0.49387 0.0
H1388 H 0.49619 0.54908 0.5494 0.0
H1389 H 0.49014 0.45467 0.4848 0.0
H1390 H 0.45997 0.4922 0.5162 0.0
H1391 H 0.52415 0.50864 0.52743 0.0
C1392 C 0.52963 0.53601 0.5437 0.0
C1393 C 0.52207 0.54782 0.54969 0.0
C1394 C 0.46655 0.48394 0.50921 0.0
C1395 C 0.49861 0.51069 0.5269 0.0
C1396 C 0.4553 0.4655 0.49638 0.0
C1397 C 0.46356 0.45456 0.48753 0.0
C1398 C 0.4861 0.49134 0.51321 0.0
C1399 C 0.48316 0.4626 0.49135 0.0
C1400 C 0.51796 0.51746 0.53234 0.0
C1401 C 0.50259 0.54042 0.54496 0.0
N1402 N 0.49373 0.48047 0.50397 0.0
N1403 N 0.49151 0.52231 0.53367 0.0
H1404 H 0.54044 0.03902 0.46263 0.0
H1405 H 0.44576 0.95071 0.53803 0.0
H1406 H 0.53194 0.98274 0.47375 0.0
H1407 H 0.4523 0.00614 0.52489 0.0
H1408 H 0.47733 0.96249 0.51368 0.0
H1409 H 0.50796 0.02734 0.48295 0.0
C1410 C 0.53167 0.02416 0.46894 0.0
C1411 C 0.53889 0.01182 0.46673 0.0
C1412 C 0.47194 0.97213 0.5161 0.0
C1413 C 0.5019 -0.00154 0.49033 0.0
C1414 C 0.4539 0.96543 0.53017 0.0
C1415 C 0.44642 0.97749 0.53349 0.0
C1416 C 0.48265 0.99107 0.50524 0.0
C1417 C 0.4576 0.99641 0.52286 0.0
C1418 C 0.51317 0.01753 0.48068 0.0
C1419 C 0.52695 0.99274 0.4752 0.0
N1420 N 0.47522 0.00265 0.50911 0.0
N1421 N 0.50907 0.98667 0.48686 0.0
H1422 H 0.4932 0.03165 0.97565 0.0
H1423 H 0.49858 0.94342 0.05485 0.0
H1424 H 0.44365 0.9776 0.99675 0.0
H1425 H 0.54653 -0.00035 0.04482 0.0
H1426 H 0.47806 0.9552 0.0332 0.0
H1427 H 0.51287 0.01942 0.99872 0.0
C1428 C 0.48644 0.01713 0.98494 0.0
C1429 C 0.46675 0.00561 0.9844 0.0
C1430 C 0.49305 0.96496 0.03597 0.0
C1431 C 0.48926 0.99155 1.01123 0.0
C1432 C 0.50476 0.95828 0.04844 0.0
C1433 C 0.52428 0.97059 0.05148 0.0
C1434 C 0.50097 0.98405 0.02633 0.0
C1435 C 0.53156 0.98967 0.04283 0.0
C1436 C 0.49771 0.01018 0.99831 0.0
C1437 C 0.4588 0.98692 0.99669 0.0
N1438 N 0.5199 0.99579 0.03043 0.0
N1439 N 0.47011 0.98045 1.00976 0.0
H1440 H 0.04316 0.54745 0.05786 0.0
H1441 H 0.95478 0.45358 0.98029 0.0
H1442 H 0.9869 0.53915 0.04778 0.0
H1443 H 0.00932 0.45867 0.99851 0.0
H1444 H 0.96686 0.48532 1.00394 0.0
H1445 H 0.03135 0.51506 0.0369 0.0
C1446 C 0.02828 0.53874 0.05162 0.0
C1447 C 0.01597 0.54598 0.05436 0.0
C1448 C 0.97624 0.47957 1.00278 0.0
C1449 C 0.00248 0.50911 0.03002 0.0
C1450 C 0.96937 0.46144 0.98909 0.0
C1451 C 0.98108 0.45349 0.9875 0.0
C1452 C 0.99499 0.48989 0.01499 0.0
C1453 C -0.00015 0.46433 0.99923 0.0
C1454 C 0.02158 0.52029 0.03953 0.0
C1455 C -0.00313 0.53413 0.04596 0.0
N1456 N 0.00625 0.48204 0.0126 0.0
N1457 N 0.99074 0.5163 0.03393 0.0
H1458 H 0.45282 0.4407 0.02495 0.0
H1459 H 0.53282 0.54501 0.96771 0.0
H1460 H 0.44735 0.49039 0.03416 0.0
H1461 H 0.54085 0.49675 0.96247 0.0
H1462 H 0.50043 0.52439 0.98798 0.0
H1463 H 0.48463 0.46039 0.99946 0.0
C1464 C 0.45834 0.45573 0.02181 0.0
C1465 C 0.44749 0.46395 0.03169 0.0
C1466 C 0.50923 0.51826 0.98221 0.0
C1467 C 0.48352 0.48639 1.00237 0.0
C1468 C 0.52769 0.53004 0.97048 0.0
C1469 C 0.53953 0.52258 0.96367 0.0
C1470 C 0.50259 0.49891 0.98731 0.0
C1471 C 0.53217 0.50307 0.96759 0.0
C1472 C 0.47641 0.46693 1.00713 0.0
C1473 C 0.45522 0.48345 0.02692 0.0
N1474 N 0.51417 0.49189 0.97944 0.0
N1475 N 0.47274 0.49398 0.01257 0.0
H1476 H 0.44896 0.0545 0.07477 0.0
H1477 H 0.39514 0.11105 0.11173 0.0
H1478 H 0.43122 0.07805 0.98752 0.0
H1479 H 0.41768 0.09225 0.19902 0.0
H1480 H 0.41192 0.10293 0.06635 0.0
H1481 H 0.44155 0.07183 0.12015 0.0
C1482 C 0.44377 0.06361 0.06508 0.0
C1483 C 0.44053 0.06469 0.02725 0.0
C1484 C 0.41351 0.10082 0.09538 0.0
C1485 C 0.43165 0.08442 0.07949 0.0
C1486 C 0.40393 0.10548 0.12142 0.0
C1487 C 0.40491 0.10219 0.15926 0.0
C1488 C 0.42399 0.09248 0.10703 0.0
C1489 C 0.41657 0.09506 0.17017 0.0
C1490 C 0.43952 0.0735 0.09113 0.0
C1491 C 0.43392 0.07679 0.01636 0.0
N1492 N 0.42542 0.09014 0.1441 0.0
N1493 N 0.4294 0.08596 0.04243 0.0
H1494 H 0.89479 0.32272 0.20777 0.0
H1495 H 0.91003 0.34502 0.98985 0.0
H1496 H 0.8799 0.28032 0.12351 0.0
H1497 H 0.93229 0.38749 0.07507 0.0
H1498 H 0.89306 0.32093 0.0377 0.0
H1499 H 0.90293 0.3465 0.15891 0.0
C1500 C 0.8929 0.31836 0.1791 0.0
C1501 C 0.88688 0.29957 0.16973 0.0
C1502 C 0.90142 0.33559 0.04581 0.0
C1503 C 0.89619 0.32659 0.1137 0.0
C1504 C 0.91096 0.34932 0.01843 0.0
C1505 C 0.92269 0.36822 0.02855 0.0
C1506 C 0.90359 0.34089 0.0834 0.0
C1507 C 0.92354 0.37302 0.0661 0.0
C1508 C 0.89763 0.33192 0.15117 0.0
C1509 C 0.88475 0.29471 0.13203 0.0
N1510 N 0.91431 0.35948 0.09209 0.0
N1511 N 0.88952 0.3081 0.1055 0.0
H1512 H 0.64757 0.56196 0.98243 0.0
H1513 H 0.668 0.57119 0.20135 0.0
H1514 H 0.60431 0.54411 0.06585 0.0
H1515 H 0.71095 0.59891 0.11809 0.0
H1516 H 0.64455 0.55549 0.1519 0.0
H1517 H 0.67113 0.56991 0.03166 0.0
C1518 C 0.64298 0.55938 1.01097 0.0
C1519 C 0.624 0.55259 0.02005 0.0
C1520 C 0.65918 0.56484 0.14454 0.0
C1521 C 0.65076 0.56163 0.07647 0.0
C1522 C 0.67254 0.57369 0.17278 0.0
C1523 C 0.69139 0.5865 0.16383 0.0
C1524 C 0.66478 0.56872 0.1072 0.0
C1525 C 0.69651 0.5893 0.12627 0.0
C1526 C 0.65642 0.564 0.0391 0.0
C1527 C 0.61885 0.54955 0.05758 0.0
N1528 N 0.68332 0.58062 0.09944 0.0
N1529 N 0.63211 0.5542 0.08432 0.0
H1530 H 0.11256 0.39142 0.40903 0.0
H1531 H 0.05632 0.44516 0.44977 0.0
H1532 H 0.09375 0.41475 0.32326 0.0
H1533 H 0.08016 0.42699 0.53569 0.0
H1534 H 0.07357 0.43807 0.40361 0.0
H1535 H 0.10476 0.40807 0.45533 0.0
C1536 C 0.10707 0.40037 0.39987 0.0
C1537 C 0.10366 0.40159 0.36219 0.0
C1538 C 0.07534 0.43589 0.43251 0.0
C1539 C 0.0943 0.4205 0.41546 0.0
C1540 C 0.06549 0.43995 0.45899 0.0
C1541 C 0.06671 0.43654 0.49667 0.0
C1542 C 0.08634 0.42801 0.44354 0.0
C1543 C 0.07887 0.42989 0.50698 0.0
C1544 C 0.10259 0.40986 0.42643 0.0
C1545 C 0.09663 0.41344 0.35196 0.0
N1546 N 0.08797 0.42554 0.48048 0.0
N1547 N 0.09188 0.42219 0.37853 0.0
H1548 H 0.56147 0.65609 0.53623 0.0
H1549 H 0.57813 0.68071 0.31925 0.0
H1550 H 0.5483 0.61473 0.4505 0.0
H1551 H 0.60103 0.7222 0.4062 0.0
H1552 H 0.56093 0.65618 0.36621 0.0
H1553 H 0.56999 0.68037 0.48823 0.0
C1554 C 0.56004 0.65206 0.5074 0.0
C1555 C 0.55438 0.63343 0.49738 0.0
C1556 C 0.56949 0.67073 0.3749 0.0
C1557 C 0.5641 0.661 0.44236 0.0
C1558 C 0.57918 0.68471 0.34804 0.0
C1559 C 0.59115 0.70345 0.35889 0.0
C1560 C 0.57171 0.67562 0.41269 0.0
C1561 C 0.5921 0.70786 0.39667 0.0
C1562 C 0.56499 0.6659 0.47998 0.0
C1563 C 0.55284 0.62899 0.45951 0.0
N1564 N 0.58268 0.69408 0.42214 0.0
N1565 N 0.55778 0.64264 0.43348 0.0
H1566 H 0.3374 0.90827 0.5341 0.0
H1567 H 0.31476 0.89346 0.31625 0.0
H1568 H 0.37973 0.9304 0.44856 0.0
H1569 H 0.27256 0.87948 0.40066 0.0
H1570 H 0.3385 0.90126 0.36501 0.0
H1571 H 0.31315 0.89167 0.48632 0.0
C1572 C 0.34163 0.90924 0.50546 0.0
C1573 C 0.36054 0.92081 0.49522 0.0
C1574 C 0.32397 0.89624 0.37281 0.0
C1575 C 0.33304 0.90214 0.4405 0.0
C1576 C 0.31043 0.89171 0.34494 0.0
C1577 C 0.29172 0.88604 0.35437 0.0
C1578 C 0.31871 0.89495 0.41029 0.0
C1579 C 0.2869 0.88405 0.39209 0.0
C1580 C 0.32781 0.89992 0.47813 0.0
C1581 C 0.36525 0.92175 0.45761 0.0
N1582 N 0.30028 0.88862 0.41857 0.0
N1583 N 0.35164 0.91272 0.43169 0.0
H1584 H 0.57781 0.89547 0.81478 0.0
H1585 H 0.56589 0.90381 0.03374 0.0
H1586 H 0.60316 0.87751 0.8981 0.0
H1587 H 0.54968 0.9308 0.95067 0.0
H1588 H 0.57421 0.88861 0.9842 0.0
H1589 H 0.56192 0.90307 0.86402 0.0
C1590 C 0.57976 0.89281 0.8433 0.0
C1591 C 0.592 0.88607 0.85235 0.0
C1592 C 0.56859 0.89769 0.97689 0.0
C1593 C 0.57397 0.89472 0.90879 0.0
C1594 C 0.56376 0.90625 1.00519 0.0
C1595 C 0.55727 0.91872 0.99633 0.0
C1596 C 0.56676 0.90152 0.93958 0.0
C1597 C 0.55485 0.92146 0.95879 0.0
C1598 C 0.57079 0.89723 0.87144 0.0
C1599 C 0.59403 0.88292 0.88986 0.0
N1600 N 0.55969 0.91307 0.93191 0.0
N1601 N 0.58526 0.88737 0.91661 0.0
H1602 H 0.05568 0.61063 0.9513 0.0
H1603 H 0.11627 0.71992 0.90361 0.0
H1604 H 0.08431 0.65372 0.03386 0.0
H1605 H 0.09091 0.67668 0.82038 0.0
H1606 H 0.10833 0.69573 0.95058 0.0
H1607 H 0.07162 0.63404 0.90295 0.0
C1608 C 0.06552 0.62504 0.95932 0.0
C1609 C 0.06852 0.63024 0.99681 0.0
C1610 C 0.10475 0.69144 0.92205 0.0
C1611 C 0.08679 0.65732 0.94111 0.0
C1612 C 0.10935 0.70526 0.89511 0.0
C1613 C 0.10421 0.70028 0.85802 0.0
C1614 C 0.0946 0.67234 0.9121 0.0
C1615 C 0.09526 0.68112 0.84859 0.0
C1616 C 0.07465 0.63841 0.93156 0.0
C1617 C 0.08155 0.64907 1.00538 0.0
N1618 N 0.09046 0.66781 0.87559 0.0
N1619 N 0.09002 0.66198 0.97773 0.0
H1620 H 0.27232 0.39129 0.90411 0.0
H1621 H 0.38172 0.44784 0.95083 0.0
H1622 H 0.31552 0.41866 0.82118 0.0
H1623 H 0.33851 0.42548 0.03461 0.0
H1624 H 0.35775 0.44096 0.90395 0.0
H1625 H 0.29594 0.40695 0.95224 0.0
C1626 C 0.2868 0.40082 0.89597 0.0
C1627 C 0.29198 0.40351 0.85846 0.0
C1628 C 0.35344 0.43782 0.93257 0.0
C1629 C 0.31928 0.42141 0.91387 0.0
C1630 C 0.36714 0.4418 0.95945 0.0
C1631 C 0.36208 0.43717 0.99668 0.0
C1632 C 0.33435 0.42876 0.94273 0.0
C1633 C 0.34302 0.42938 1.00628 0.0
C1634 C 0.30029 0.40978 0.92359 0.0
C1635 C 0.3109 0.41614 0.84968 0.0
N1636 N 0.32979 0.42512 0.97934 0.0
N1637 N 0.32391 0.4244 0.87721 0.0
H1638 H 0.87519 0.59598 0.62336 0.0
H1639 H 0.93529 0.54708 0.57227 0.0
H1640 H 0.90141 0.57826 0.70511 0.0
H1641 H 0.90666 0.56234 0.49109 0.0
H1642 H 0.91964 0.55447 0.62134 0.0
H1643 H 0.88274 0.57973 0.57575 0.0
C1644 C 0.88221 0.58827 0.63141 0.0
C1645 C 0.8877 0.58848 0.66827 0.0
C1646 C 0.91655 0.55601 0.59288 0.0
C1647 C 0.89688 0.57015 0.61343 0.0
C1648 C 0.92551 0.5518 0.5647 0.0
C1649 C 0.92244 0.55427 0.52738 0.0
C1650 C 0.90449 0.56298 0.58394 0.0
C1651 C 0.90948 0.56025 0.5194 0.0
C1652 C 0.88659 0.57905 0.60411 0.0
C1653 C 0.89678 0.57831 0.67711 0.0
N1654 N 0.90117 0.56465 0.54747 0.0
N1655 N 0.90136 0.56979 0.64975 0.0
H1656 H 0.41679 0.32149 0.70512 0.0
H1657 H 0.42944 0.34674 0.48832 0.0
H1658 H 0.39399 0.28013 0.61792 0.0
H1659 H 0.44437 0.38771 0.57546 0.0
H1660 H 0.42259 0.32239 0.53546 0.0
H1661 H 0.43325 0.34621 0.65815 0.0
C1662 C 0.41562 0.31757 0.67625 0.0
C1663 C 0.40388 0.2988 0.66537 0.0
C1664 C 0.42767 0.3368 0.54417 0.0
C1665 C 0.42242 0.32686 0.61153 0.0
C1666 C 0.4317 0.35068 0.51723 0.0
C1667 C 0.43728 0.36919 0.52803 0.0
C1668 C 0.42939 0.34156 0.58202 0.0
C1669 C 0.43985 0.37353 0.56594 0.0
C1670 C 0.42488 0.33166 0.64939 0.0
C1671 C 0.40273 0.2945 0.62749 0.0
N1672 N 0.43575 0.35985 0.59149 0.0
N1673 N 0.41169 0.30838 0.60201 0.0
H1674 H 0.60391 0.05351 0.57035 0.0
H1675 H 0.71355 0.11094 0.61441 0.0
H1676 H 0.64653 0.08039 0.4862 0.0
H1677 H 0.67095 0.09058 0.69939 0.0
H1678 H 0.68925 0.10305 0.56776 0.0
H1679 H 0.62781 0.06973 0.61778 0.0
C1680 C 0.61832 0.06304 0.56179 0.0
C1681 C 0.62326 0.06543 0.52415 0.0
C1682 C 0.68515 0.10056 0.59657 0.0
C1683 C 0.65087 0.08399 0.57874 0.0
C1684 C 0.69903 0.1051 0.6233 0.0
C1685 C 0.69424 0.10135 0.66085 0.0
C1686 C 0.66614 0.09181 0.6072 0.0
C1687 C 0.67525 0.0938 0.67079 0.0
C1688 C 0.63197 0.07233 0.58901 0.0
C1689 C 0.64209 0.07808 0.51482 0.0
N1690 N 0.66183 0.08898 0.64403 0.0
N1691 N 0.65527 0.08667 0.54195 0.0
H1692 H 0.77795 0.72084 0.73699 0.0
H1693 H 0.72839 0.78053 0.78418 0.0
H1694 H 0.76289 0.74886 0.6541 0.0
H1695 H 0.74852 0.75737 0.86773 0.0
H1696 H 0.74469 0.77274 0.73705 0.0
H1697 H 0.77103 0.73733 0.78511 0.0
C1698 C 0.77339 0.73069 0.72886 0.0
C1699 C 0.7708 0.73331 0.69137 0.0
C1700 C 0.74588 0.76962 0.76567 0.0
C1701 C 0.76259 0.75218 0.74677 0.0
C1702 C 0.73662 0.77412 0.79269 0.0
C1703 C 0.73706 0.76953 0.82994 0.0
C1704 C 0.75546 0.76009 0.77571 0.0
C1705 C 0.74792 0.76125 0.83939 0.0
C1706 C 0.76946 0.74012 0.75647 0.0
C1707 C 0.76505 0.74637 0.68259 0.0
N1708 N 0.75643 0.7565 0.81233 0.0
N1709 N 0.76086 0.75511 0.71012 0.0
H1710 H 0.2647 0.05386 0.73348 0.0
H1711 H 0.21806 0.94488 0.78054 0.0
H1712 H 0.24606 0.01073 0.64981 0.0
H1713 H 0.23028 0.98738 0.86332 0.0
H1714 H 0.22496 0.96822 0.73232 0.0
H1715 H 0.24878 0.0296 0.78043 0.0
C1716 C 0.25691 0.03923 0.72488 0.0
C1717 C 0.25684 0.0343 0.68765 0.0
C1718 C 0.22592 0.97247 0.76094 0.0
C1719 C 0.23884 0.00628 0.74172 0.0
C1720 C 0.22201 0.95914 0.78862 0.0
C1721 C 0.22376 0.96422 0.82613 0.0
C1722 C 0.23191 0.99122 0.7706 0.0
C1723 C 0.22876 0.98285 0.83481 0.0
C1724 C 0.24785 0.02536 0.75181 0.0
C1725 C 0.24648 0.01516 0.67813 0.0
N1726 N 0.23293 0.99574 0.80724 0.0
N1727 N 0.23817 0.00181 0.70512 0.0
H1728 H 0.9393 0.21381 0.74061 0.0
H1729 H 0.04915 0.2671 0.78392 0.0
H1730 H 0.98186 0.22955 0.65632 0.0
H1731 H 0.00669 0.24569 0.8692 0.0
H1732 H 0.02478 0.25028 0.73764 0.0
H1733 H 0.96337 0.22219 0.78799 0.0
C1734 C 0.95373 0.21884 0.73201 0.0
C1735 C 0.95859 0.22116 0.69433 0.0
C1736 C 0.02072 0.24895 0.76644 0.0
C1737 C 0.98641 0.23102 0.74887 0.0
C1738 C 0.03465 0.25854 0.79298 0.0
C1739 C 0.02992 0.25787 0.8305 0.0
C1740 C 0.00173 0.23879 0.77722 0.0
C1741 C 0.01095 0.24653 0.84063 0.0
C1742 C 0.96748 0.22361 0.7592 0.0
C1743 C 0.97747 0.22757 0.68497 0.0
N1744 N -0.00251 0.23767 0.81404 0.0
N1745 N 0.99074 0.23253 0.71206 0.0
H1746 H 0.26489 0.20932 0.2409 0.0
H1747 H 0.21345 0.26764 0.28501 0.0
H1748 H 0.24422 0.23138 0.1561 0.0
H1749 H 0.22896 0.24058 0.36917 0.0
H1750 H 0.22126 0.25153 0.23758 0.0
H1751 H 0.24845 0.21726 0.28742 0.0
C1752 C 0.25658 0.21557 0.23198 0.0
C1753 C 0.25606 0.21984 0.19453 0.0
C1754 C 0.22275 0.24887 0.26634 0.0
C1755 C 0.23741 0.22937 0.24811 0.0
C1756 C 0.21831 0.2581 0.29357 0.0
C1757 C 0.22072 0.2556 0.33122 0.0
C1758 C 0.22994 0.23716 0.2766 0.0
C1759 C 0.2269 0.24294 0.34054 0.0
C1760 C 0.24722 0.22014 0.25867 0.0
C1761 C 0.24501 0.22784 0.18461 0.0
N1762 N 0.23156 0.2344 0.31339 0.0
N1763 N 0.23637 0.23263 0.21134 0.0
H1764 H 0.7848 0.05745 0.23648 0.0
H1765 H 0.72651 0.94808 0.28114 0.0
H1766 H 0.76266 0.01475 0.15176 0.0
H1767 H 0.756 0.99036 0.36468 0.0
H1768 H 0.74233 0.97186 0.23334 0.0
H1769 H 0.77764 0.03317 0.28285 0.0
C1770 C 0.77875 0.04292 0.22754 0.0
C1771 C 0.77422 0.03809 0.1902 0.0
C1772 C 0.7456 0.97597 0.26203 0.0
C1773 C 0.7655 0.01002 0.24356 0.0
C1774 C 0.73653 0.96239 0.28946 0.0
C1775 C 0.73981 0.96728 0.32706 0.0
C1776 C 0.75792 0.99478 0.27206 0.0
C1777 C 0.75304 0.98598 0.33608 0.0
C1778 C 0.77462 0.02905 0.25413 0.0
C1779 C 0.76643 0.01909 0.1802 0.0
N1780 N 0.7614 -0.00088 0.30877 0.0
N1781 N 0.762 0.00569 0.20685 0.0
H1782 H 0.00596 0.76107 0.37158 0.0
H1783 H 0.97793 0.74751 0.15607 0.0
H1784 H 0.04601 0.77729 0.2823 0.0
H1785 H 0.93793 0.72263 0.24517 0.0
H1786 H 0.003 0.7648 0.20201 0.0
H1787 H 0.98077 0.75316 0.32581 0.0
C1788 C 0.00951 0.7634 0.3425 0.0
C1789 C 0.02802 0.76966 0.33068 0.0
C1790 C 0.98865 0.75578 0.21143 0.0
C1791 C -0.00055 0.76057 0.27824 0.0
C1792 C 0.97436 0.74604 0.18516 0.0
C1793 C 0.9559 0.7335 0.19685 0.0
C1794 C 0.98435 0.75301 0.24949 0.0
C1795 C 0.95205 0.732 0.23497 0.0
C1796 C 0.99515 0.75877 0.31633 0.0
C1797 C 0.03185 0.77227 0.29258 0.0
N1798 N 0.96612 0.74146 0.25985 0.0
N1799 N 0.01772 0.76759 0.26779 0.0
loop_
_geom_bond_atom_site_label_1
_geom_bond_atom_site_label_2
_geom_bond_distance
_geom_bond_site_symmetry_2
_ccdc_geom_bond_type
Co0 O1 2.216 . S
Co0 O2 2.091 . S
Co0 O4 2.004 . S
Co0 O10 2.021 . S
Co0 O12 2.137 . S
Co0 O13 2.244 . S
O1 Co0 2.216 . S
O1 C8 1.247 . S
O2 Co0 2.091 . S
O2 C8 1.261 . S
C3 O12 1.247 . S
C3 O13 1.272 . S
O4 Co0 2.004 . S
O4 C9 1.259 . S
Co5 O6 2.061 . S
Co5 O11 2.052 . S
Co5 O13 2.135 . S
O6 Co5 2.061 . S
O6 C9 1.235 . S
C7 O10 1.238 . S
C7 O11 1.241 . S
C8 O1 1.247 . S
C8 O2 1.261 . S
C9 O4 1.259 . S
C9 O6 1.235 . S
O10 Co0 2.021 . S
O10 C7 1.238 . S
O11 Co5 2.052 . S
O11 C7 1.241 . S
O12 Co0 2.137 . S
O12 C3 1.247 . S
O13 Co0 2.244 . S
O13 C3 1.272 . S
O13 Co5 2.135 . S
Co14 O15 2.216 . S
Co14 O16 2.091 . S
Co14 O18 2.004 . S
Co14 O24 2.021 . S
Co14 O26 2.137 . S
Co14 O27 2.244 . S
O15 Co14 2.216 . S
O15 C22 1.247 . S
O16 Co14 2.091 . S
O16 C22 1.261 . S
C17 O26 1.247 . S
C17 O27 1.272 . S
O18 Co14 2.004 . S
O18 C23 1.259 . S
Co19 O20 2.061 . S
Co19 O25 2.052 . S
Co19 O27 2.135 . S
O20 Co19 2.061 . S
O20 C23 1.235 . S
C21 O24 1.238 . S
C21 O25 1.241 . S
C22 O15 1.247 . S
C22 O16 1.261 . S
C23 O18 1.259 . S
C23 O20 1.235 . S
O24 Co14 2.021 . S
O24 C21 1.238 . S
O25 Co19 2.052 . S
O25 C21 1.241 . S
O26 Co14 2.137 . S
O26 C17 1.247 . S
O27 Co14 2.244 . S
O27 C17 1.272 . S
O27 Co19 2.135 . S
Co28 O29 2.216 . S
Co28 O30 2.091 . S
Co28 O32 2.004 . S
Co28 O38 2.021 . S
Co28 O40 2.137 . S
Co28 O41 2.244 . S
O29 Co28 2.216 . S
O29 C36 1.247 . S
O30 Co28 2.091 . S
O30 C36 1.261 . S
C31 O40 1.247 . S
C31 O41 1.272 . S
O32 Co28 2.004 . S
O32 C37 1.259 . S
Co33 O34 2.061 . S
Co33 O39 2.052 . S
Co33 O41 2.135 . S
O34 Co33 2.061 . S
O34 C37 1.235 . S
C35 O38 1.238 . S
C35 O39 1.241 . S
C36 O29 1.247 . S
C36 O30 1.261 . S
C37 O32 1.259 . S
C37 O34 1.235 . S
O38 Co28 2.021 . S
O38 C35 1.238 . S
O39 Co33 2.052 . S
O39 C35 1.241 . S
O40 Co28 2.137 . S
O40 C31 1.247 . S
O41 Co28 2.244 . S
O41 C31 1.272 . S
O41 Co33 2.135 . S
Co42 O43 2.216 . S
Co42 O44 2.091 . S
Co42 O46 2.004 . S
Co42 O52 2.021 . S
Co42 O54 2.137 . S
Co42 O55 2.244 . S
O43 Co42 2.216 . S
O43 C50 1.247 . S
O44 Co42 2.091 . S
O44 C50 1.261 . S
C45 O54 1.247 . S
C45 O55 1.272 . S
O46 Co42 2.004 . S
O46 C51 1.259 . S
Co47 O48 2.061 . S
Co47 O53 2.052 . S
Co47 O55 2.135 . S
O48 Co47 2.061 . S
O48 C51 1.235 . S
C49 O52 1.238 . S
C49 O53 1.241 . S
C50 O43 1.247 . S
C50 O44 1.261 . S
C51 O46 1.259 . S
C51 O48 1.235 . S
O52 Co42 2.021 . S
O52 C49 1.238 . S
O53 Co47 2.052 . S
O53 C49 1.241 . S
O54 Co42 2.137 . S
O54 C45 1.247 . S
O55 Co42 2.244 . S
O55 C45 1.272 . S
O55 Co47 2.135 . S
Co56 O57 2.216 . S
Co56 O58 2.091 . S
Co56 O60 2.004 . S
Co56 O66 2.021 . S
Co56 O68 2.137 . S
Co56 O69 2.244 . S
O57 Co56 2.216 . S
O57 C64 1.247 . S
O58 Co56 2.091 . S
O58 C64 1.261 . S
C59 O68 1.247 . S
C59 O69 1.272 . S
O60 Co56 2.004 . S
O60 C65 1.259 . S
Co61 O62 2.061 . S
Co61 O67 2.052 . S
Co61 O69 2.135 . S
O62 Co61 2.061 . S
O62 C65 1.235 . S
C63 O66 1.238 . S
C63 O67 1.241 . S
C64 O57 1.247 . S
C64 O58 1.261 . S
C65 O60 1.259 . S
C65 O62 1.235 . S
O66 Co56 2.021 . S
O66 C63 1.238 . S
O67 Co61 2.052 . S
O67 C63 1.241 . S
O68 Co56 2.137 . S
O68 C59 1.247 . S
O69 Co56 2.244 . S
O69 C59 1.272 . S
O69 Co61 2.135 . S
Co70 O71 2.216 . S
Co70 O72 2.091 . S
Co70 O74 2.004 . S
Co70 O80 2.021 . S
Co70 O82 2.137 . S
Co70 O83 2.244 . S
O71 Co70 2.216 . S
O71 C78 1.247 . S
O72 Co70 2.091 . S
O72 C78 1.261 . S
C73 O82 1.247 . S
C73 O83 1.272 . S
O74 Co70 2.004 . S
O74 C79 1.259 . S
Co75 O76 2.061 . S
Co75 O81 2.052 . S
Co75 O83 2.135 . S
O76 Co75 2.061 . S
O76 C79 1.235 . S
C77 O80 1.238 . S
C77 O81 1.241 . S
C78 O71 1.247 . S
C78 O72 1.261 . S
C79 O74 1.259 . S
C79 O76 1.235 . S
O80 Co70 2.021 . S
O80 C77 1.238 . S
O81 Co75 2.052 . S
O81 C77 1.241 . S
O82 Co70 2.137 . S
O82 C73 1.247 . S
O83 Co70 2.244 . S
O83 C73 1.272 . S
O83 Co75 2.135 . S
Co84 O85 2.216 . S
Co84 O86 2.091 . S
Co84 O88 2.004 . S
Co84 O94 2.021 . S
Co84 O96 2.137 . S
Co84 O97 2.244 . S
O85 Co84 2.216 . S
O85 C92 1.247 . S
O86 Co84 2.091 . S
O86 C92 1.261 . S
C87 O96 1.247 . S
C87 O97 1.272 . S
O88 Co84 2.004 . S
O88 C93 1.259 . S
Co89 O90 2.061 . S
Co89 O95 2.052 . S
Co89 O97 2.135 . S
O90 Co89 2.061 . S
O90 C93 1.235 . S
C91 O94 1.238 . S
C91 O95 1.241 . S
C92 O85 1.247 . S
C92 O86 1.261 . S
C93 O88 1.259 . S
C93 O90 1.235 . S
O94 Co84 2.021 . S
O94 C91 1.238 . S
O95 Co89 2.052 . S
O95 C91 1.241 . S
O96 Co84 2.137 . S
O96 C87 1.247 . S
O97 Co84 2.244 . S
O97 C87 1.272 . S
O97 Co89 2.135 . S
Co98 O99 2.216 . S
Co98 O100 2.091 . S
Co98 O102 2.004 . S
Co98 O108 2.021 . S
Co98 O110 2.137 . S
Co98 O111 2.244 . S
O99 Co98 2.216 . S
O99 C106 1.247 . S
O100 Co98 2.091 . S
O100 C106 1.261 . S
C101 O110 1.247 . S
C101 O111 1.272 . S
O102 Co98 2.004 . S
O102 C107 1.259 . S
Co103 O104 2.061 . S
Co103 O109 2.052 . S
Co103 O111 2.135 . S
O104 Co103 2.061 . S
O104 C107 1.235 . S
C105 O108 1.238 . S
C105 O109 1.241 . S
C106 O99 1.247 . S
C106 O100 1.261 . S
C107 O102 1.259 . S
C107 O104 1.235 . S
O108 Co98 2.021 . S
O108 C105 1.238 . S
O109 Co103 2.052 . S
O109 C105 1.241 . S
O110 Co98 2.137 . S
O110 C101 1.247 . S
O111 Co98 2.244 . S
O111 C101 1.272 . S
O111 Co103 2.135 . S
Co112 O113 2.216 . S
Co112 O114 2.091 . S
Co112 O116 2.004 . S
Co112 O122 2.021 . S
Co112 O124 2.137 . S
Co112 O125 2.244 . S
O113 Co112 2.216 . S
O113 C120 1.247 . S
O114 Co112 2.091 . S
O114 C120 1.261 . S
C115 O124 1.247 . S
C115 O125 1.272 . S
O116 Co112 2.004 . S
O116 C121 1.259 . S
Co117 O118 2.061 . S
Co117 O123 2.052 . S
Co117 O125 2.135 . S
O118 Co117 2.061 . S
O118 C121 1.235 . S
C119 O122 1.238 . S
C119 O123 1.241 . S
C120 O113 1.247 . S
C120 O114 1.261 . S
C121 O116 1.259 . S
C121 O118 1.235 . S
O122 Co112 2.021 . S
O122 C119 1.238 . S
O123 Co117 2.052 . S
O123 C119 1.241 . S
O124 Co112 2.137 . S
O124 C115 1.247 . S
O125 Co112 2.244 . S
O125 C115 1.272 . S
O125 Co117 2.135 . S
Co126 O127 2.216 . S
Co126 O128 2.091 . S
Co126 O130 2.004 . S
Co126 O136 2.021 . S
Co126 O138 2.137 . S
Co126 O139 2.244 . S
O127 Co126 2.216 . S
O127 C134 1.247 . S
O128 Co126 2.091 . S
O128 C134 1.261 . S
C129 O138 1.247 . S
C129 O139 1.272 . S
O130 Co126 2.004 . S
O130 C135 1.259 . S
Co131 O132 2.061 . S
Co131 O137 2.052 . S
Co131 O139 2.135 . S
O132 Co131 2.061 . S
O132 C135 1.235 . S
C133 O136 1.238 . S
C133 O137 1.241 . S
C134 O127 1.247 . S
C134 O128 1.261 . S
C135 O130 1.259 . S
C135 O132 1.235 . S
O136 Co126 2.021 . S
O136 C133 1.238 . S
O137 Co131 2.052 . S
O137 C133 1.241 . S
O138 Co126 2.137 . S
O138 C129 1.247 . S
O139 Co126 2.244 . S
O139 C129 1.272 . S
O139 Co131 2.135 . S
Co140 O141 2.216 . S
Co140 O142 2.091 . S
Co140 O144 2.004 . S
Co140 O150 2.021 . S
Co140 O152 2.137 . S
Co140 O153 2.244 . S
O141 Co140 2.216 . S
O141 C148 1.247 . S
O142 Co140 2.091 . S
O142 C148 1.261 . S
C143 O152 1.247 . S
C143 O153 1.272 . S
O144 Co140 2.004 . S
O144 C149 1.259 . S
Co145 O146 2.061 . S
Co145 O151 2.052 . S
Co145 O153 2.135 . S
O146 Co145 2.061 . S
O146 C149 1.235 . S
C147 O150 1.238 . S
C147 O151 1.241 . S
C148 O141 1.247 . S
C148 O142 1.261 . S
C149 O144 1.259 . S
C149 O146 1.235 . S
O150 Co140 2.021 . S
O150 C147 1.238 . S
O151 Co145 2.052 . S
O151 C147 1.241 . S
O152 Co140 2.137 . S
O152 C143 1.247 . S
O153 Co140 2.244 . S
O153 C143 1.272 . S
O153 Co145 2.135 . S
Co154 O155 2.216 . S
Co154 O156 2.091 . S
Co154 O158 2.004 . S
Co154 O164 2.021 . S
Co154 O166 2.137 . S
Co154 O167 2.244 . S
O155 Co154 2.216 . S
O155 C162 1.247 . S
O156 Co154 2.091 . S
O156 C162 1.261 . S
C157 O166 1.247 . S
C157 O167 1.272 . S
O158 Co154 2.004 . S
O158 C163 1.259 . S
Co159 O160 2.061 . S
Co159 O165 2.052 . S
Co159 O167 2.135 . S
O160 Co159 2.061 . S
O160 C163 1.235 . S
C161 O164 1.238 . S
C161 O165 1.241 . S
C162 O155 1.247 . S
C162 O156 1.261 . S
C163 O158 1.259 . S
C163 O160 1.235 . S
O164 Co154 2.021 . S
O164 C161 1.238 . S
O165 Co159 2.052 . S
O165 C161 1.241 . S
O166 Co154 2.137 . S
O166 C157 1.247 . S
O167 Co154 2.244 . S
O167 C157 1.272 . S
O167 Co159 2.135 . S
Co168 O169 2.216 . S
Co168 O170 2.091 . S
Co168 O172 2.004 . S
Co168 O178 2.021 . S
Co168 O180 2.137 . S
Co168 O181 2.244 . S
O169 Co168 2.216 . S
O169 C176 1.247 . S
O170 Co168 2.091 . S
O170 C176 1.261 . S
C171 O180 1.247 . S
C171 O181 1.272 . S
O172 Co168 2.004 . S
O172 C177 1.259 . S
Co173 O174 2.061 . S
Co173 O179 2.052 . S
Co173 O181 2.135 . S
O174 Co173 2.061 . S
O174 C177 1.235 . S
C175 O178 1.238 . S
C175 O179 1.241 . S
C176 O169 1.247 . S
C176 O170 1.261 . S
C177 O172 1.259 . S
C177 O174 1.235 . S
O178 Co168 2.021 . S
O178 C175 1.238 . S
O179 Co173 2.052 . S
O179 C175 1.241 . S
O180 Co168 2.137 . S
O180 C171 1.247 . S
O181 Co168 2.244 . S
O181 C171 1.272 . S
O181 Co173 2.135 . S
Co182 O183 2.216 . S
Co182 O184 2.091 . S
Co182 O186 2.004 . S
Co182 O192 2.021 . S
Co182 O194 2.137 . S
Co182 O195 2.244 . S
O183 Co182 2.216 . S
O183 C190 1.247 . S
O184 Co182 2.091 . S
O184 C190 1.261 . S
C185 O194 1.247 . S
C185 O195 1.272 . S
O186 Co182 2.004 . S
O186 C191 1.259 . S
Co187 O188 2.061 . S
Co187 O193 2.052 . S
Co187 O195 2.135 . S
O188 Co187 2.061 . S
O188 C191 1.235 . S
C189 O192 1.238 . S
C189 O193 1.241 . S
C190 O183 1.247 . S
C190 O184 1.261 . S
C191 O186 1.259 . S
C191 O188 1.235 . S
O192 Co182 2.021 . S
O192 C189 1.238 . S
O193 Co187 2.052 . S
O193 C189 1.241 . S
O194 Co182 2.137 . S
O194 C185 1.247 . S
O195 Co182 2.244 . S
O195 C185 1.272 . S
O195 Co187 2.135 . S
Co196 O197 2.216 . S
Co196 O198 2.091 . S
Co196 O200 2.004 . S
Co196 O206 2.021 . S
Co196 O208 2.137 . S
Co196 O209 2.244 . S
O197 Co196 2.216 . S
O197 C204 1.247 . S
O198 Co196 2.091 . S
O198 C204 1.261 . S
C199 O208 1.247 . S
C199 O209 1.272 . S
O200 Co196 2.004 . S
O200 C205 1.259 . S
Co201 O202 2.061 . S
Co201 O207 2.052 . S
Co201 O209 2.135 . S
O202 Co201 2.061 . S
O202 C205 1.235 . S
C203 O206 1.238 . S
C203 O207 1.241 . S
C204 O197 1.247 . S
C204 O198 1.261 . S
C205 O200 1.259 . S
C205 O202 1.235 . S
O206 Co196 2.021 . S
O206 C203 1.238 . S
O207 Co201 2.052 . S
O207 C203 1.241 . S
O208 Co196 2.137 . S
O208 C199 1.247 . S
O209 Co196 2.244 . S
O209 C199 1.272 . S
O209 Co201 2.135 . S
Co210 O211 2.216 . S
Co210 O212 2.091 . S
Co210 O214 2.004 . S
Co210 O220 2.021 . S
Co210 O222 2.137 . S
Co210 O223 2.244 . S
O211 Co210 2.216 . S
O211 C218 1.247 . S
O212 Co210 2.091 . S
O212 C218 1.261 . S
C213 O222 1.247 . S
C213 O223 1.272 . S
O214 Co210 2.004 . S
O214 C219 1.259 . S
Co215 O216 2.061 . S
Co215 O221 2.052 . S
Co215 O223 2.135 . S
O216 Co215 2.061 . S
O216 C219 1.235 . S
C217 O220 1.238 . S
C217 O221 1.241 . S
C218 O211 1.247 . S
C218 O212 1.261 . S
C219 O214 1.259 . S
C219 O216 1.235 . S
O220 Co210 2.021 . S
O220 C217 1.238 . S
O221 Co215 2.052 . S
O221 C217 1.241 . S
O222 Co210 2.137 . S
O222 C213 1.247 . S
O223 Co210 2.244 . S
O223 C213 1.272 . S
O223 Co215 2.135 . S
Co224 O225 2.216 . S
Co224 O226 2.091 . S
Co224 O228 2.004 . S
Co224 O234 2.021 . S
Co224 O236 2.137 . S
Co224 O237 2.244 . S
O225 Co224 2.216 . S
O225 C232 1.247 . S
O226 Co224 2.091 . S
O226 C232 1.261 . S
C227 O236 1.247 . S
C227 O237 1.272 . S
O228 Co224 2.004 . S
O228 C233 1.259 . S
Co229 O230 2.061 . S
Co229 O235 2.052 . S
Co229 O237 2.135 . S
O230 Co229 2.061 . S
O230 C233 1.235 . S
C231 O234 1.238 . S
C231 O235 1.241 . S
C232 O225 1.247 . S
C232 O226 1.261 . S
C233 O228 1.259 . S
C233 O230 1.235 . S
O234 Co224 2.021 . S
O234 C231 1.238 . S
O235 Co229 2.052 . S
O235 C231 1.241 . S
O236 Co224 2.137 . S
O236 C227 1.247 . S
O237 Co224 2.244 . S
O237 C227 1.272 . S
O237 Co229 2.135 . S
Co238 O239 2.216 . S
Co238 O240 2.091 . S
Co238 O242 2.004 . S
Co238 O248 2.021 . S
Co238 O250 2.137 . S
Co238 O251 2.244 . S
O239 Co238 2.216 . S
O239 C246 1.247 . S
O240 Co238 2.091 . S
O240 C246 1.261 . S
C241 O250 1.247 . S
C241 O251 1.272 . S
O242 Co238 2.004 . S
O242 C247 1.259 . S
Co243 O244 2.061 . S
Co243 O249 2.052 . S
Co243 O251 2.135 . S
O244 Co243 2.061 . S
O244 C247 1.235 . S
C245 O248 1.238 . S
C245 O249 1.241 . S
C246 O239 1.247 . S
C246 O240 1.261 . S
C247 O242 1.259 . S
C247 O244 1.235 . S
O248 Co238 2.021 . S
O248 C245 1.238 . S
O249 Co243 2.052 . S
O249 C245 1.241 . S
O250 Co238 2.137 . S
O250 C241 1.247 . S
O251 Co238 2.244 . S
O251 C241 1.272 . S
O251 Co243 2.135 . S
Co252 O253 2.216 . S
Co252 O254 2.091 . S
Co252 O256 2.004 . S
Co252 O262 2.021 . S
Co252 O264 2.137 . S
Co252 O265 2.244 . S
O253 Co252 2.216 . S
O253 C260 1.247 . S
O254 Co252 2.091 . S
O254 C260 1.261 . S
C255 O264 1.247 . S
C255 O265 1.272 . S
O256 Co252 2.004 . S
O256 C261 1.259 . S
Co257 O258 2.061 . S
Co257 O263 2.052 . S
Co257 O265 2.135 . S
O258 Co257 2.061 . S
O258 C261 1.235 . S
C259 O262 1.238 . S
C259 O263 1.241 . S
C260 O253 1.247 . S
C260 O254 1.261 . S
C261 O256 1.259 . S
C261 O258 1.235 . S
O262 Co252 2.021 . S
O262 C259 1.238 . S
O263 Co257 2.052 . S
O263 C259 1.241 . S
O264 Co252 2.137 . S
O264 C255 1.247 . S
O265 Co252 2.244 . S
O265 C255 1.272 . S
O265 Co257 2.135 . S
Co266 O267 2.216 . S
Co266 O268 2.091 . S
Co266 O270 2.004 . S
Co266 O276 2.021 . S
Co266 O278 2.137 . S
Co266 O279 2.244 . S
O267 Co266 2.216 . S
O267 C274 1.247 . S
O268 Co266 2.091 . S
O268 C274 1.261 . S
C269 O278 1.247 . S
C269 O279 1.272 . S
O270 Co266 2.004 . S
O270 C275 1.259 . S
Co271 O272 2.061 . S
Co271 O277 2.052 . S
Co271 O279 2.135 . S
O272 Co271 2.061 . S
O272 C275 1.235 . S
C273 O276 1.238 . S
C273 O277 1.241 . S
C274 O267 1.247 . S
C274 O268 1.261 . S
C275 O270 1.259 . S
C275 O272 1.235 . S
O276 Co266 2.021 . S
O276 C273 1.238 . S
O277 Co271 2.052 . S
O277 C273 1.241 . S
O278 Co266 2.137 . S
O278 C269 1.247 . S
O279 Co266 2.244 . S
O279 C269 1.272 . S
O279 Co271 2.135 . S
Co280 O281 2.216 . S
Co280 O282 2.091 . S
Co280 O284 2.004 . S
Co280 O290 2.021 . S
Co280 O292 2.137 . S
Co280 O293 2.244 . S
O281 Co280 2.216 . S
O281 C288 1.247 . S
O282 Co280 2.091 . S
O282 C288 1.261 . S
C283 O292 1.247 . S
C283 O293 1.272 . S
O284 Co280 2.004 . S
O284 C289 1.259 . S
Co285 O286 2.061 . S
Co285 O291 2.052 . S
Co285 O293 2.135 . S
O286 Co285 2.061 . S
O286 C289 1.235 . S
C287 O290 1.238 . S
C287 O291 1.241 . S
C288 O281 1.247 . S
C288 O282 1.261 . S
C289 O284 1.259 . S
C289 O286 1.235 . S
O290 Co280 2.021 . S
O290 C287 1.238 . S
O291 Co285 2.052 . S
O291 C287 1.241 . S
O292 Co280 2.137 . S
O292 C283 1.247 . S
O293 Co280 2.244 . S
O293 C283 1.272 . S
O293 Co285 2.135 . S
Co294 O295 2.216 . S
Co294 O296 2.091 . S
Co294 O298 2.004 . S
Co294 O304 2.021 . S
Co294 O306 2.137 . S
Co294 O307 2.244 . S
O295 Co294 2.216 . S
O295 C302 1.247 . S
O296 Co294 2.091 . S
O296 C302 1.261 . S
C297 O306 1.247 . S
C297 O307 1.272 . S
O298 Co294 2.004 . S
O298 C303 1.259 . S
Co299 O300 2.061 . S
Co299 O305 2.052 . S
Co299 O307 2.135 . S
O300 Co299 2.061 . S
O300 C303 1.235 . S
C301 O304 1.238 . S
C301 O305 1.241 . S
C302 O295 1.247 . S
C302 O296 1.261 . S
C303 O298 1.259 . S
C303 O300 1.235 . S
O304 Co294 2.021 . S
O304 C301 1.238 . S
O305 Co299 2.052 . S
O305 C301 1.241 . S
O306 Co294 2.137 . S
O306 C297 1.247 . S
O307 Co294 2.244 . S
O307 C297 1.272 . S
O307 Co299 2.135 . S
Co308 O309 2.216 . S
Co308 O310 2.091 . S
Co308 O312 2.004 . S
Co308 O318 2.021 . S
Co308 O320 2.137 . S
Co308 O321 2.244 . S
O309 Co308 2.216 . S
O309 C316 1.247 . S
O310 Co308 2.091 . S
O310 C316 1.261 . S
C311 O320 1.247 . S
C311 O321 1.272 . S
O312 Co308 2.004 . S
O312 C317 1.259 . S
Co313 O314 2.061 . S
Co313 O319 2.052 . S
Co313 O321 2.135 . S
O314 Co313 2.061 . S
O314 C317 1.235 . S
C315 O318 1.238 . S
C315 O319 1.241 . S
C316 O309 1.247 . S
C316 O310 1.261 . S
C317 O312 1.259 . S
C317 O314 1.235 . S
O318 Co308 2.021 . S
O318 C315 1.238 . S
O319 Co313 2.052 . S
O319 C315 1.241 . S
O320 Co308 2.137 . S
O320 C311 1.247 . S
O321 Co308 2.244 . S
O321 C311 1.272 . S
O321 Co313 2.135 . S
Co322 O323 2.216 . S
Co322 O324 2.091 . S
Co322 O326 2.004 . S
Co322 O332 2.021 . S
Co322 O334 2.137 . S
Co322 O335 2.244 . S
O323 Co322 2.216 . S
O323 C330 1.247 . S
O324 Co322 2.091 . S
O324 C330 1.261 . S
C325 O334 1.247 . S
C325 O335 1.272 . S
O326 Co322 2.004 . S
O326 C331 1.259 . S
Co327 O328 2.061 . S
Co327 O333 2.052 . S
Co327 O335 2.135 . S
O328 Co327 2.061 . S
O328 C331 1.235 . S
C329 O332 1.238 . S
C329 O333 1.241 . S
C330 O323 1.247 . S
C330 O324 1.261 . S
C331 O326 1.259 . S
C331 O328 1.235 . S
O332 Co322 2.021 . S
O332 C329 1.238 . S
O333 Co327 2.052 . S
O333 C329 1.241 . S
O334 Co322 2.137 . S
O334 C325 1.247 . S
O335 Co322 2.244 . S
O335 C325 1.272 . S
O335 Co327 2.135 . S
Co336 O337 2.216 . S
Co336 O338 2.091 . S
Co336 O340 2.004 . S
Co336 O346 2.021 . S
Co336 O348 2.137 . S
Co336 O349 2.244 . S
O337 Co336 2.216 . S
O337 C344 1.247 . S
O338 Co336 2.091 . S
O338 C344 1.261 . S
C339 O348 1.247 . S
C339 O349 1.272 . S
O340 Co336 2.004 . S
O340 C345 1.259 . S
Co341 O342 2.061 . S
Co341 O347 2.052 . S
Co341 O349 2.135 . S
O342 Co341 2.061 . S
O342 C345 1.235 . S
C343 O346 1.238 . S
C343 O347 1.241 . S
C344 O337 1.247 . S
C344 O338 1.261 . S
C345 O340 1.259 . S
C345 O342 1.235 . S
O346 Co336 2.021 . S
O346 C343 1.238 . S
O347 Co341 2.052 . S
O347 C343 1.241 . S
O348 Co336 2.137 . S
O348 C339 1.247 . S
O349 Co336 2.244 . S
O349 C339 1.272 . S
O349 Co341 2.135 . S
Co350 O351 2.216 . S
Co350 O352 2.091 . S
Co350 O354 2.004 . S
Co350 O360 2.021 . S
Co350 O362 2.137 . S
Co350 O363 2.244 . S
O351 Co350 2.216 . S
O351 C358 1.247 . S
O352 Co350 2.091 . S
O352 C358 1.261 . S
C353 O362 1.247 . S
C353 O363 1.272 . S
O354 Co350 2.004 . S
O354 C359 1.259 . S
Co355 O356 2.061 . S
Co355 O361 2.052 . S
Co355 O363 2.135 . S
O356 Co355 2.061 . S
O356 C359 1.235 . S
C357 O360 1.238 . S
C357 O361 1.241 . S
C358 O351 1.247 . S
C358 O352 1.261 . S
C359 O354 1.259 . S
C359 O356 1.235 . S
O360 Co350 2.021 . S
O360 C357 1.238 . S
O361 Co355 2.052 . S
O361 C357 1.241 . S
O362 Co350 2.137 . S
O362 C353 1.247 . S
O363 Co350 2.244 . S
O363 C353 1.272 . S
O363 Co355 2.135 . S
Co364 O365 2.216 . S
Co364 O366 2.091 . S
Co364 O368 2.004 . S
Co364 O374 2.021 . S
Co364 O376 2.137 . S
Co364 O377 2.244 . S
O365 Co364 2.216 . S
O365 C372 1.247 . S
O366 Co364 2.091 . S
O366 C372 1.261 . S
C367 O376 1.247 . S
C367 O377 1.272 . S
O368 Co364 2.004 . S
O368 C373 1.259 . S
Co369 O370 2.061 . S
Co369 O375 2.052 . S
Co369 O377 2.135 . S
O370 Co369 2.061 . S
O370 C373 1.235 . S
C371 O374 1.238 . S
C371 O375 1.241 . S
C372 O365 1.247 . S
C372 O366 1.261 . S
C373 O368 1.259 . S
C373 O370 1.235 . S
O374 Co364 2.021 . S
O374 C371 1.238 . S
O375 Co369 2.052 . S
O375 C371 1.241 . S
O376 Co364 2.137 . S
O376 C367 1.247 . S
O377 Co364 2.244 . S
O377 C367 1.272 . S
O377 Co369 2.135 . S
Co378 O379 2.216 . S
Co378 O380 2.091 . S
Co378 O382 2.004 . S
Co378 O388 2.021 . S
Co378 O390 2.137 . S
Co378 O391 2.244 . S
O379 Co378 2.216 . S
O379 C386 1.247 . S
O380 Co378 2.091 . S
O380 C386 1.261 . S
C381 O390 1.247 . S
C381 O391 1.272 . S
O382 Co378 2.004 . S
O382 C387 1.259 . S
Co383 O384 2.061 . S
Co383 O389 2.052 . S
Co383 O391 2.135 . S
O384 Co383 2.061 . S
O384 C387 1.235 . S
C385 O388 1.238 . S
C385 O389 1.241 . S
C386 O379 1.247 . S
C386 O380 1.261 . S
C387 O382 1.259 . S
C387 O384 1.235 . S
O388 Co378 2.021 . S
O388 C385 1.238 . S
O389 Co383 2.052 . S
O389 C385 1.241 . S
O390 Co378 2.137 . S
O390 C381 1.247 . S
O391 Co378 2.244 . S
O391 C381 1.272 . S
O391 Co383 2.135 . S
Co392 O393 2.216 . S
Co392 O394 2.091 . S
Co392 O396 2.004 . S
Co392 O402 2.021 . S
Co392 O404 2.137 . S
Co392 O405 2.244 . S
O393 Co392 2.216 . S
O393 C400 1.247 . S
O394 Co392 2.091 . S
O394 C400 1.261 . S
C395 O404 1.247 . S
C395 O405 1.272 . S
O396 Co392 2.004 . S
O396 C401 1.259 . S
Co397 O398 2.061 . S
Co397 O403 2.052 . S
Co397 O405 2.135 . S
O398 Co397 2.061 . S
O398 C401 1.235 . S
C399 O402 1.238 . S
C399 O403 1.241 . S
C400 O393 1.247 . S
C400 O394 1.261 . S
C401 O396 1.259 . S
C401 O398 1.235 . S
O402 Co392 2.021 . S
O402 C399 1.238 . S
O403 Co397 2.052 . S
O403 C399 1.241 . S
O404 Co392 2.137 . S
O404 C395 1.247 . S
O405 Co392 2.244 . S
O405 C395 1.272 . S
O405 Co397 2.135 . S
Co406 O407 2.216 . S
Co406 O408 2.091 . S
Co406 O410 2.004 . S
Co406 O416 2.021 . S
Co406 O418 2.137 . S
Co406 O419 2.244 . S
O407 Co406 2.216 . S
O407 C414 1.247 . S
O408 Co406 2.091 . S
O408 C414 1.261 . S
C409 O418 1.247 . S
C409 O419 1.272 . S
O410 Co406 2.004 . S
O410 C415 1.259 . S
Co411 O412 2.061 . S
Co411 O417 2.052 . S
Co411 O419 2.135 . S
O412 Co411 2.061 . S
O412 C415 1.235 . S
C413 O416 1.238 . S
C413 O417 1.241 . S
C414 O407 1.247 . S
C414 O408 1.261 . S
C415 O410 1.259 . S
C415 O412 1.235 . S
O416 Co406 2.021 . S
O416 C413 1.238 . S
O417 Co411 2.052 . S
O417 C413 1.241 . S
O418 Co406 2.137 . S
O418 C409 1.247 . S
O419 Co406 2.244 . S
O419 C409 1.272 . S
O419 Co411 2.135 . S
Co420 O421 2.216 . S
Co420 O422 2.091 . S
Co420 O424 2.004 . S
Co420 O430 2.021 . S
Co420 O432 2.137 . S
Co420 O433 2.244 . S
O421 Co420 2.216 . S
O421 C428 1.247 . S
O422 Co420 2.091 . S
O422 C428 1.261 . S
C423 O432 1.247 . S
C423 O433 1.272 . S
O424 Co420 2.004 . S
O424 C429 1.259 . S
Co425 O426 2.061 . S
Co425 O431 2.052 . S
Co425 O433 2.135 . S
O426 Co425 2.061 . S
O426 C429 1.235 . S
C427 O430 1.238 . S
C427 O431 1.241 . S
C428 O421 1.247 . S
C428 O422 1.261 . S
C429 O424 1.259 . S
C429 O426 1.235 . S
O430 Co420 2.021 . S
O430 C427 1.238 . S
O431 Co425 2.052 . S
O431 C427 1.241 . S
O432 Co420 2.137 . S
O432 C423 1.247 . S
O433 Co420 2.244 . S
O433 C423 1.272 . S
O433 Co425 2.135 . S
Co434 O435 2.216 . S
Co434 O436 2.091 . S
Co434 O438 2.004 . S
Co434 O444 2.021 . S
Co434 O446 2.137 . S
Co434 O447 2.244 . S
O435 Co434 2.216 . S
O435 C442 1.247 . S
O436 Co434 2.091 . S
O436 C442 1.261 . S
C437 O446 1.247 . S
C437 O447 1.272 . S
O438 Co434 2.004 . S
O438 C443 1.259 . S
Co439 O440 2.061 . S
Co439 O445 2.052 . S
Co439 O447 2.135 . S
O440 Co439 2.061 . S
O440 C443 1.235 . S
C441 O444 1.238 . S
C441 O445 1.241 . S
C442 O435 1.247 . S
C442 O436 1.261 . S
C443 O438 1.259 . S
C443 O440 1.235 . S
O444 Co434 2.021 . S
O444 C441 1.238 . S
O445 Co439 2.052 . S
O445 C441 1.241 . S
O446 Co434 2.137 . S
O446 C437 1.247 . S
O447 Co434 2.244 . S
O447 C437 1.272 . S
O447 Co439 2.135 . S
Co448 O449 2.216 . S
Co448 O450 2.091 . S
Co448 O452 2.004 . S
Co448 O458 2.021 . S
Co448 O460 2.137 . S
Co448 O461 2.244 . S
O449 Co448 2.216 . S
O449 C456 1.247 . S
O450 Co448 2.091 . S
O450 C456 1.261 . S
C451 O460 1.247 . S
C451 O461 1.272 . S
O452 Co448 2.004 . S
O452 C457 1.259 . S
Co453 O454 2.061 . S
Co453 O459 2.052 . S
Co453 O461 2.135 . S
O454 Co453 2.061 . S
O454 C457 1.235 . S
C455 O458 1.238 . S
C455 O459 1.241 . S
C456 O449 1.247 . S
C456 O450 1.261 . S
C457 O452 1.259 . S
C457 O454 1.235 . S
O458 Co448 2.021 . S
O458 C455 1.238 . S
O459 Co453 2.052 . S
O459 C455 1.241 . S
O460 Co448 2.137 . S
O460 C451 1.247 . S
O461 Co448 2.244 . S
O461 C451 1.272 . S
O461 Co453 2.135 . S
Co462 O463 2.216 . S
Co462 O464 2.091 . S
Co462 O466 2.004 . S
Co462 O472 2.021 . S
Co462 O474 2.137 . S
Co462 O475 2.244 . S
O463 Co462 2.216 . S
O463 C470 1.247 . S
O464 Co462 2.091 . S
O464 C470 1.261 . S
C465 O474 1.247 . S
C465 O475 1.272 . S
O466 Co462 2.004 . S
O466 C471 1.259 . S
Co467 O468 2.061 . S
Co467 O473 2.052 . S
Co467 O475 2.135 . S
O468 Co467 2.061 . S
O468 C471 1.235 . S
C469 O472 1.238 . S
C469 O473 1.241 . S
C470 O463 1.247 . S
C470 O464 1.261 . S
C471 O466 1.259 . S
C471 O468 1.235 . S
O472 Co462 2.021 . S
O472 C469 1.238 . S
O473 Co467 2.052 . S
O473 C469 1.241 . S
O474 Co462 2.137 . S
O474 C465 1.247 . S
O475 Co462 2.244 . S
O475 C465 1.272 . S
O475 Co467 2.135 . S
Co476 O477 2.216 . S
Co476 O478 2.091 . S
Co476 O480 2.004 . S
Co476 O486 2.021 . S
Co476 O488 2.137 . S
Co476 O489 2.244 . S
O477 Co476 2.216 . S
O477 C484 1.247 . S
O478 Co476 2.091 . S
O478 C484 1.261 . S
C479 O488 1.247 . S
C479 O489 1.272 . S
O480 Co476 2.004 . S
O480 C485 1.259 . S
Co481 O482 2.061 . S
Co481 O487 2.052 . S
Co481 O489 2.135 . S
O482 Co481 2.061 . S
O482 C485 1.235 . S
C483 O486 1.238 . S
C483 O487 1.241 . S
C484 O477 1.247 . S
C484 O478 1.261 . S
C485 O480 1.259 . S
C485 O482 1.235 . S
O486 Co476 2.021 . S
O486 C483 1.238 . S
O487 Co481 2.052 . S
O487 C483 1.241 . S
O488 Co476 2.137 . S
O488 C479 1.247 . S
O489 Co476 2.244 . S
O489 C479 1.272 . S
O489 Co481 2.135 . S
Co490 O491 2.216 . S
Co490 O492 2.091 . S
Co490 O494 2.004 . S
Co490 O500 2.021 . S
Co490 O502 2.137 . S
Co490 O503 2.244 . S
O491 Co490 2.216 . S
O491 C498 1.247 . S
O492 Co490 2.091 . S
O492 C498 1.261 . S
C493 O502 1.247 . S
C493 O503 1.272 . S
O494 Co490 2.004 . S
O494 C499 1.259 . S
Co495 O496 2.061 . S
Co495 O501 2.052 . S
Co495 O503 2.135 . S
O496 Co495 2.061 . S
O496 C499 1.235 . S
C497 O500 1.238 . S
C497 O501 1.241 . S
C498 O491 1.247 . S
C498 O492 1.261 . S
C499 O494 1.259 . S
C499 O496 1.235 . S
O500 Co490 2.021 . S
O500 C497 1.238 . S
O501 Co495 2.052 . S
O501 C497 1.241 . S
O502 Co490 2.137 . S
O502 C493 1.247 . S
O503 Co490 2.244 . S
O503 C493 1.272 . S
O503 Co495 2.135 . S
H504 C510 0.930 . S
H505 C514 0.930 . S
H506 C519 0.929 . S
H507 C517 0.929 . S
H508 C512 0.929 . S
H509 C518 0.929 . S
C510 H504 0.930 . S
C510 C511 1.367 . S
C510 C518 1.378 . S
C511 C510 1.367 . S
C511 C519 1.433 . S
C512 H508 0.929 . S
C512 C514 1.378 . S
C512 C516 1.350 . S
C513 C516 1.463 1_565 S
C513 C518 1.350 . S
C513 N521 1.427 . S
C514 H505 0.930 . S
C514 C512 1.378 . S
C514 C515 1.367 . S
C515 C514 1.367 . S
C515 C517 1.433 . S
C516 C512 1.350 . S
C516 C513 1.463 1_545 S
C516 N520 1.427 . S
C517 H507 0.929 . S
C517 C515 1.433 . S
C517 N520 1.384 . S
C518 H509 0.929 . S
C518 C510 1.378 . S
C518 C513 1.350 . S
C519 H506 0.929 . S
C519 C511 1.433 . S
C519 N521 1.384 . S
N520 C516 1.427 . S
N520 C517 1.384 . S
N521 C513 1.427 . S
N521 C519 1.384 . S
H522 C528 0.930 . S
H523 C532 0.930 . S
H524 C537 0.929 . S
H525 C535 0.929 . S
H526 C530 0.929 . S
H527 C536 0.929 . S
C528 H522 0.930 . S
C528 C529 1.367 . S
C528 C536 1.378 . S
C529 C528 1.367 . S
C529 C537 1.433 . S
C530 H526 0.929 . S
C530 C532 1.378 . S
C530 C534 1.350 . S
C531 C534 1.463 1_455 S
C531 C536 1.350 . S
C531 N539 1.427 . S
C532 H523 0.930 . S
C532 C530 1.378 . S
C532 C533 1.367 . S
C533 C532 1.367 . S
C533 C535 1.433 . S
C534 C530 1.350 . S
C534 C531 1.463 1_655 S
C534 N538 1.427 . S
C535 H525 0.929 . S
C535 C533 1.433 . S
C535 N538 1.384 . S
C536 H527 0.929 . S
C536 C528 1.378 . S
C536 C531 1.350 . S
C537 H524 0.929 . S
C537 C529 1.433 . S
C537 N539 1.384 . S
N538 C534 1.427 . S
N538 C535 1.384 . S
N539 C531 1.427 . S
N539 C537 1.384 . S
H540 C546 0.930 . S
H541 C550 0.930 . S
H542 C555 0.929 . S
H543 C553 0.929 . S
H544 C548 0.929 . S
H545 C554 0.929 . S
C546 H540 0.930 . S
C546 C547 1.367 . S
C546 C554 1.378 . S
C547 C546 1.367 . S
C547 C555 1.433 . S
C548 H544 0.929 . S
C548 C550 1.378 . S
C548 C552 1.350 . S
C549 C552 1.463 . S
C549 C554 1.350 . S
C549 N557 1.427 . S
C550 H541 0.930 . S
C550 C548 1.378 . S
C550 C551 1.367 . S
C551 C550 1.367 . S
C551 C553 1.433 . S
C552 C548 1.350 . S
C552 C549 1.463 . S
C552 N556 1.427 . S
C553 H543 0.929 . S
C553 C551 1.433 . S
C553 N556 1.384 . S
C554 H545 0.929 . S
C554 C546 1.378 . S
C554 C549 1.350 . S
C555 H542 0.929 . S
C555 C547 1.433 . S
C555 N557 1.384 . S
N556 C552 1.427 . S
N556 C553 1.384 . S
N557 C549 1.427 . S
N557 C555 1.384 . S
H558 C564 0.930 . S
H559 C568 0.930 . S
H560 C573 0.929 . S
H561 C571 0.929 . S
H562 C566 0.929 . S
H563 C572 0.929 . S
C564 H558 0.930 . S
C564 C565 1.367 . S
C564 C572 1.378 . S
C565 C564 1.367 . S
C565 C573 1.433 . S
C566 H562 0.929 . S
C566 C568 1.378 . S
C566 C570 1.350 . S
C567 C570 1.463 1_565 S
C567 C572 1.350 . S
C567 N575 1.427 . S
C568 H559 0.930 . S
C568 C566 1.378 . S
C568 C569 1.367 . S
C569 C568 1.367 . S
C569 C571 1.433 . S
C570 C566 1.350 . S
C570 C567 1.463 1_545 S
C570 N574 1.427 . S
C571 H561 0.929 . S
C571 C569 1.433 . S
C571 N574 1.384 . S
C572 H563 0.929 . S
C572 C564 1.378 . S
C572 C567 1.350 . S
C573 H560 0.929 . S
C573 C565 1.433 . S
C573 N575 1.384 . S
N574 C570 1.427 . S
N574 C571 1.384 . S
N575 C567 1.427 . S
N575 C573 1.384 . S
H576 C582 0.930 . S
H577 C586 0.930 . S
H578 C591 0.929 . S
H579 C589 0.929 . S
H580 C584 0.929 . S
H581 C590 0.929 . S
C582 H576 0.930 . S
C582 C583 1.367 . S
C582 C590 1.378 . S
C583 C582 1.367 . S
C583 C591 1.433 . S
C584 H580 0.929 . S
C584 C586 1.378 . S
C584 C588 1.350 . S
C585 C588 1.463 1_455 S
C585 C590 1.350 . S
C585 N593 1.427 . S
C586 H577 0.930 . S
C586 C584 1.378 . S
C586 C587 1.367 . S
C587 C586 1.367 . S
C587 C589 1.433 . S
C588 C584 1.350 . S
C588 C585 1.463 1_655 S
C588 N592 1.427 . S
C589 H579 0.929 . S
C589 C587 1.433 . S
C589 N592 1.384 . S
C590 H581 0.929 . S
C590 C582 1.378 . S
C590 C585 1.350 . S
C591 H578 0.929 . S
C591 C583 1.433 . S
C591 N593 1.384 . S
N592 C588 1.427 . S
N592 C589 1.384 . S
N593 C585 1.427 . S
N593 C591 1.384 . S
H594 C600 0.930 . S
H595 C604 0.930 . S
H596 C609 0.929 . S
H597 C607 0.929 . S
H598 C602 0.929 . S
H599 C608 0.929 . S
C600 H594 0.930 . S
C600 C601 1.367 . S
C600 C608 1.378 . S
C601 C600 1.367 . S
C601 C609 1.433 . S
C602 H598 0.929 . S
C602 C604 1.378 . S
C602 C606 1.350 . S
C603 C606 1.463 . S
C603 C608 1.350 . S
C603 N611 1.427 . S
C604 H595 0.930 . S
C604 C602 1.378 . S
C604 C605 1.367 . S
C605 C604 1.367 . S
C605 C607 1.433 . S
C606 C602 1.350 . S
C606 C603 1.463 . S
C606 N610 1.427 . S
C607 H597 0.929 . S
C607 C605 1.433 . S
C607 N610 1.384 . S
C608 H599 0.929 . S
C608 C600 1.378 . S
C608 C603 1.350 . S
C609 H596 0.929 . S
C609 C601 1.433 . S
C609 N611 1.384 . S
N610 C606 1.427 . S
N610 C607 1.384 . S
N611 C603 1.427 . S
N611 C609 1.384 . S
H612 C618 0.930 . S
H613 C622 0.930 . S
H614 C627 0.929 . S
H615 C625 0.929 . S
H616 C620 0.929 1_455 S
H617 C626 0.929 . S
C618 H612 0.930 . S
C618 C619 1.367 1_655 S
C618 C626 1.378 . S
C619 C618 1.367 1_455 S
C619 C627 1.433 . S
C620 H616 0.929 1_655 S
C620 C622 1.378 . S
C620 C624 1.350 . S
C621 C624 1.463 . S
C621 C626 1.350 . S
C621 N629 1.427 1_655 S
C622 H613 0.930 . S
C622 C620 1.378 . S
C622 C623 1.367 . S
C623 C622 1.367 . S
C623 C625 1.433 . S
C624 C620 1.350 . S
C624 C621 1.463 . S
C624 N628 1.427 . S
C625 H615 0.929 . S
C625 C623 1.433 . S
C625 N628 1.384 . S
C626 H617 0.929 . S
C626 C618 1.378 . S
C626 C621 1.350 . S
C627 H614 0.929 . S
C627 C619 1.433 . S
C627 N629 1.384 . S
N628 C624 1.427 . S
N628 C625 1.384 . S
N629 C621 1.427 1_455 S
N629 C627 1.384 . S
H630 C636 0.930 . S
H631 C640 0.930 . S
H632 C645 0.929 . S
H633 C643 0.929 . S
H634 C638 0.929 . S
H635 C644 0.929 . S
C636 H630 0.930 . S
C636 C637 1.367 . S
C636 C644 1.378 . S
C637 C636 1.367 . S
C637 C645 1.433 . S
C638 H634 0.929 . S
C638 C640 1.378 . S
C638 C642 1.350 . S
C639 C642 1.463 . S
C639 C644 1.350 . S
C639 N647 1.427 . S
C640 H631 0.930 . S
C640 C638 1.378 . S
C640 C641 1.367 . S
C641 C640 1.367 . S
C641 C643 1.433 . S
C642 C638 1.350 . S
C642 C639 1.463 . S
C642 N646 1.427 . S
C643 H633 0.929 . S
C643 C641 1.433 . S
C643 N646 1.384 . S
C644 H635 0.929 . S
C644 C636 1.378 . S
C644 C639 1.350 . S
C645 H632 0.929 . S
C645 C637 1.433 . S
C645 N647 1.384 . S
N646 C642 1.427 . S
N646 C643 1.384 . S
N647 C639 1.427 . S
N647 C645 1.384 . S
H648 C654 0.930 . S
H649 C658 0.930 . S
H650 C663 0.929 . S
H651 C661 0.929 . S
H652 C656 0.931 1_565 S
H653 C662 0.929 . S
C654 H648 0.930 . S
C654 C655 1.367 . S
C654 C662 1.378 . S
C655 C654 1.367 . S
C655 C663 1.433 . S
C656 H652 0.931 1_545 S
C656 C658 1.379 1_545 S
C656 C660 1.349 . S
C657 C660 1.463 . S
C657 C662 1.350 . S
C657 N665 1.427 . S
C658 H649 0.930 . S
C658 C656 1.379 1_565 S
C658 C659 1.367 . S
C659 C658 1.367 . S
C659 C661 1.433 1_565 S
C660 C656 1.349 . S
C660 C657 1.463 . S
C660 N664 1.427 . S
C661 H651 0.929 . S
C661 C659 1.433 1_545 S
C661 N664 1.384 . S
C662 H653 0.929 . S
C662 C654 1.378 . S
C662 C657 1.350 . S
C663 H650 0.929 . S
C663 C655 1.433 . S
C663 N665 1.384 . S
N664 C660 1.427 . S
N664 C661 1.384 . S
N665 C657 1.427 . S
N665 C663 1.384 . S
H666 C672 0.930 . S
H667 C676 0.930 . S
H668 C681 0.929 . S
H669 C679 0.929 . S
H670 C674 0.929 . S
H671 C680 0.929 . S
C672 H666 0.930 . S
C672 C673 1.367 . S
C672 C680 1.378 . S
C673 C672 1.367 . S
C673 C681 1.433 . S
C674 H670 0.929 . S
C674 C676 1.378 . S
C674 C678 1.350 . S
C675 C678 1.463 . S
C675 C680 1.350 . S
C675 N683 1.427 . S
C676 H667 0.930 . S
C676 C674 1.378 . S
C676 C677 1.367 . S
C677 C676 1.367 . S
C677 C679 1.433 . S
C678 C674 1.350 . S
C678 C675 1.463 . S
C678 N682 1.427 . S
C679 H669 0.929 . S
C679 C677 1.433 . S
C679 N682 1.384 . S
C680 H671 0.929 . S
C680 C672 1.378 . S
C680 C675 1.350 . S
C681 H668 0.929 . S
C681 C673 1.433 . S
C681 N683 1.384 . S
N682 C678 1.427 . S
N682 C679 1.384 . S
N683 C675 1.427 . S
N683 C681 1.384 . S
H684 C690 0.930 . S
H685 C694 0.930 . S
H686 C699 0.929 . S
H687 C697 0.929 . S
H688 C692 0.929 . S
H689 C698 0.929 . S
C690 H684 0.930 . S
C690 C691 1.367 . S
C690 C698 1.378 . S
C691 C690 1.367 . S
C691 C699 1.433 1_565 S
C692 H688 0.929 . S
C692 C694 1.378 . S
C692 C696 1.350 . S
C693 C696 1.463 . S
C693 C698 1.350 1_545 S
C693 N701 1.427 . S
C694 H685 0.930 . S
C694 C692 1.378 . S
C694 C695 1.367 . S
C695 C694 1.367 . S
C695 C697 1.433 . S
C696 C692 1.350 . S
C696 C693 1.463 . S
C696 N700 1.427 . S
C697 H687 0.929 . S
C697 C695 1.433 . S
C697 N700 1.384 . S
C698 H689 0.929 . S
C698 C690 1.378 . S
C698 C693 1.350 1_565 S
C699 H686 0.929 . S
C699 C691 1.433 1_545 S
C699 N701 1.384 . S
N700 C696 1.427 . S
N700 C697 1.384 . S
N701 C693 1.427 . S
N701 C699 1.384 . S
H702 C708 0.930 . S
H703 C712 0.930 . S
H704 C717 0.929 . S
H705 C715 0.929 . S
H706 C710 0.929 . S
H707 C716 0.929 . S
C708 H702 0.930 . S
C708 C709 1.367 . S
C708 C716 1.378 . S
C709 C708 1.367 . S
C709 C717 1.433 . S
C710 H706 0.929 . S
C710 C712 1.378 . S
C710 C714 1.350 1_455 S
C711 C714 1.463 . S
C711 C716 1.350 . S
C711 N719 1.427 . S
C712 H703 0.930 . S
C712 C710 1.378 . S
C712 C713 1.367 . S
C713 C712 1.367 . S
C713 C715 1.433 1_455 S
C714 C710 1.350 1_655 S
C714 C711 1.463 . S
C714 N718 1.427 . S
C715 H705 0.929 . S
C715 C713 1.433 1_655 S
C715 N718 1.384 . S
C716 H707 0.929 . S
C716 C708 1.378 . S
C716 C711 1.350 . S
C717 H704 0.929 . S
C717 C709 1.433 . S
C717 N719 1.384 . S
N718 C714 1.427 . S
N718 C715 1.384 . S
N719 C711 1.427 . S
N719 C717 1.384 . S
H720 C726 0.930 . S
H721 C730 0.930 . S
H722 C735 0.929 . S
H723 C733 0.929 . S
H724 C728 0.929 . S
H725 C734 0.929 . S
C726 H720 0.930 . S
C726 C727 1.367 . S
C726 C734 1.378 . S
C727 C726 1.367 . S
C727 C735 1.433 . S
C728 H724 0.929 . S
C728 C730 1.378 . S
C728 C732 1.350 . S
C729 C732 1.463 . S
C729 C734 1.350 . S
C729 N737 1.427 . S
C730 H721 0.930 . S
C730 C728 1.378 . S
C730 C731 1.367 . S
C731 C730 1.367 . S
C731 C733 1.433 . S
C732 C728 1.350 . S
C732 C729 1.463 . S
C732 N736 1.427 . S
C733 H723 0.929 . S
C733 C731 1.433 . S
C733 N736 1.384 . S
C734 H725 0.929 . S
C734 C726 1.378 . S
C734 C729 1.350 . S
C735 H722 0.929 . S
C735 C727 1.433 . S
C735 N737 1.384 . S
N736 C732 1.427 . S
N736 C733 1.384 . S
N737 C729 1.427 . S
N737 C735 1.384 . S
H738 C744 0.930 . S
H739 C748 0.930 . S
H740 C753 0.926 . S
H741 C751 0.929 . S
H742 C746 0.929 . S
H743 C752 0.929 . S
C744 H738 0.930 . S
C744 C745 1.367 . S
C744 C752 1.378 1_545 S
C745 C744 1.367 . S
C745 C753 1.436 . S
C746 H742 0.929 . S
C746 C748 1.378 . S
C746 C750 1.350 . S
C747 C750 1.463 . S
C747 C752 1.350 . S
C747 N755 1.427 . S
C748 H739 0.930 . S
C748 C746 1.378 . S
C748 C749 1.367 . S
C749 C748 1.367 . S
C749 C751 1.433 . S
C750 C746 1.350 . S
C750 C747 1.463 . S
C750 N754 1.427 . S
C751 H741 0.929 . S
C751 C749 1.433 . S
C751 N754 1.384 . S
C752 H743 0.929 . S
C752 C744 1.378 1_565 S
C752 C747 1.350 . S
C753 H740 0.926 . S
C753 C745 1.436 . S
C753 N755 1.384 1_545 S
N754 C750 1.427 . S
N754 C751 1.384 . S
N755 C747 1.427 . S
N755 C753 1.384 1_565 S
H756 C762 0.930 . S
H757 C766 0.930 . S
H758 C771 0.929 . S
H759 C769 0.929 . S
H760 C764 0.929 . S
H761 C770 0.929 . S
C762 H756 0.930 . S
C762 C763 1.367 . S
C762 C770 1.378 . S
C763 C762 1.367 . S
C763 C771 1.433 . S
C764 H760 0.929 . S
C764 C766 1.378 . S
C764 C768 1.350 1_655 S
C765 C768 1.463 . S
C765 C770 1.350 . S
C765 N773 1.427 . S
C766 H757 0.930 . S
C766 C764 1.378 . S
C766 C767 1.367 . S
C767 C766 1.367 . S
C767 C769 1.433 1_655 S
C768 C764 1.350 1_455 S
C768 C765 1.463 . S
C768 N772 1.427 . S
C769 H759 0.929 . S
C769 C767 1.433 1_455 S
C769 N772 1.384 . S
C770 H761 0.929 . S
C770 C762 1.378 . S
C770 C765 1.350 . S
C771 H758 0.929 . S
C771 C763 1.433 . S
C771 N773 1.384 . S
N772 C768 1.427 . S
N772 C769 1.384 . S
N773 C765 1.427 . S
N773 C771 1.384 . S
H774 C780 0.930 . S
H775 C784 0.930 . S
H776 C789 0.929 . S
H777 C787 0.929 . S
H778 C782 0.929 . S
H779 C788 0.929 . S
C780 H774 0.930 . S
C780 C781 1.367 . S
C780 C788 1.378 . S
C781 C780 1.367 . S
C781 C789 1.433 . S
C782 H778 0.929 . S
C782 C784 1.378 . S
C782 C786 1.350 1_655 S
C783 C786 1.463 . S
C783 C788 1.350 . S
C783 N791 1.427 . S
C784 H775 0.930 . S
C784 C782 1.378 . S
C784 C785 1.367 . S
C785 C784 1.367 . S
C785 C787 1.433 1_655 S
C786 C782 1.350 1_455 S
C786 C783 1.463 . S
C786 N790 1.427 . S
C787 H777 0.929 . S
C787 C785 1.433 1_455 S
C787 N790 1.384 . S
C788 H779 0.929 . S
C788 C780 1.378 . S
C788 C783 1.350 . S
C789 H776 0.929 . S
C789 C781 1.433 . S
C789 N791 1.384 . S
N790 C786 1.427 . S
N790 C787 1.384 . S
N791 C783 1.427 . S
N791 C789 1.384 . S
H792 C798 0.930 . S
H793 C802 0.930 . S
H794 C807 0.929 . S
H795 C805 0.929 . S
H796 C800 0.929 . S
H797 C806 0.929 . S
C798 H792 0.930 . S
C798 C799 1.367 . S
C798 C806 1.378 . S
C799 C798 1.367 . S
C799 C807 1.433 . S
C800 H796 0.929 . S
C800 C802 1.378 . S
C800 C804 1.350 . S
C801 C804 1.463 . S
C801 C806 1.350 . S
C801 N809 1.427 . S
C802 H793 0.930 . S
C802 C800 1.378 . S
C802 C803 1.367 . S
C803 C802 1.367 . S
C803 C805 1.433 . S
C804 C800 1.350 . S
C804 C801 1.463 . S
C804 N808 1.427 . S
C805 H795 0.929 . S
C805 C803 1.433 . S
C805 N808 1.384 . S
C806 H797 0.929 . S
C806 C798 1.378 . S
C806 C801 1.350 . S
C807 H794 0.929 . S
C807 C799 1.433 . S
C807 N809 1.384 . S
N808 C804 1.427 . S
N808 C805 1.384 . S
N809 C801 1.427 . S
N809 C807 1.384 . S
H810 C816 0.930 . S
H811 C820 0.930 . S
H812 C825 0.929 . S
H813 C823 0.938 . S
H814 C818 0.929 . S
H815 C824 0.929 . S
C816 H810 0.930 . S
C816 C817 1.367 . S
C816 C824 1.378 . S
C817 C816 1.367 . S
C817 C825 1.433 . S
C818 H814 0.929 . S
C818 C820 1.378 1_565 S
C818 C822 1.350 . S
C819 C822 1.463 . S
C819 C824 1.350 . S
C819 N827 1.427 . S
C820 H811 0.930 . S
C820 C818 1.378 1_545 S
C820 C821 1.367 . S
C821 C820 1.367 . S
C821 C823 1.444 . S
C822 C818 1.350 . S
C822 C819 1.463 . S
C822 N826 1.427 . S
C823 H813 0.938 . S
C823 C821 1.444 . S
C823 N826 1.364 1_545 S
C824 H815 0.929 . S
C824 C816 1.378 . S
C824 C819 1.350 . S
C825 H812 0.929 . S
C825 C817 1.433 . S
C825 N827 1.384 . S
N826 C822 1.427 . S
N826 C823 1.364 1_565 S
N827 C819 1.427 . S
N827 C825 1.384 . S
H828 C834 0.930 . S
H829 C838 0.930 . S
H830 C843 0.929 . S
H831 C841 0.929 . S
H832 C836 0.929 . S
H833 C842 0.929 . S
C834 H828 0.930 . S
C834 C835 1.367 . S
C834 C842 1.378 . S
C835 C834 1.367 . S
C835 C843 1.433 . S
C836 H832 0.929 . S
C836 C838 1.378 . S
C836 C840 1.350 . S
C837 C840 1.463 . S
C837 C842 1.350 . S
C837 N845 1.427 . S
C838 H829 0.930 . S
C838 C836 1.378 . S
C838 C839 1.367 . S
C839 C838 1.367 . S
C839 C841 1.433 . S
C840 C836 1.350 . S
C840 C837 1.463 . S
C840 N844 1.427 . S
C841 H831 0.929 . S
C841 C839 1.433 . S
C841 N844 1.384 . S
C842 H833 0.929 . S
C842 C834 1.378 . S
C842 C837 1.350 . S
C843 H830 0.929 . S
C843 C835 1.433 . S
C843 N845 1.384 . S
N844 C840 1.427 . S
N844 C841 1.384 . S
N845 C837 1.427 . S
N845 C843 1.384 . S
H846 C852 0.930 . S
H847 C856 0.930 . S
H848 C861 0.929 . S
H849 C859 0.929 . S
H850 C854 0.929 . S
H851 C860 0.929 . S
C852 H846 0.930 . S
C852 C853 1.367 . S
C852 C860 1.378 . S
C853 C852 1.367 . S
C853 C861 1.433 . S
C854 H850 0.929 . S
C854 C856 1.378 . S
C854 C858 1.350 . S
C855 C858 1.463 . S
C855 C860 1.350 . S
C855 N863 1.427 . S
C856 H847 0.930 . S
C856 C854 1.378 . S
C856 C857 1.367 . S
C857 C856 1.367 . S
C857 C859 1.433 . S
C858 C854 1.350 . S
C858 C855 1.463 . S
C858 N862 1.427 . S
C859 H849 0.929 . S
C859 C857 1.433 . S
C859 N862 1.384 . S
C860 H851 0.929 . S
C860 C852 1.378 . S
C860 C855 1.350 . S
C861 H848 0.929 . S
C861 C853 1.433 . S
C861 N863 1.384 . S
N862 C858 1.427 . S
N862 C859 1.384 . S
N863 C855 1.427 . S
N863 C861 1.384 . S
H864 C870 0.930 . S
H865 C874 0.930 . S
H866 C879 0.929 . S
H867 C877 0.929 . S
H868 C872 0.929 . S
H869 C878 0.929 . S
C870 H864 0.930 . S
C870 C871 1.367 . S
C870 C878 1.378 . S
C871 C870 1.367 . S
C871 C879 1.433 . S
C872 H868 0.929 . S
C872 C874 1.378 . S
C872 C876 1.350 . S
C873 C876 1.463 . S
C873 C878 1.350 . S
C873 N881 1.427 . S
C874 H865 0.930 . S
C874 C872 1.378 . S
C874 C875 1.367 . S
C875 C874 1.367 . S
C875 C877 1.433 . S
C876 C872 1.350 . S
C876 C873 1.463 . S
C876 N880 1.427 . S
C877 H867 0.929 . S
C877 C875 1.433 . S
C877 N880 1.384 . S
C878 H869 0.929 . S
C878 C870 1.378 . S
C878 C873 1.350 . S
C879 H866 0.929 . S
C879 C871 1.433 . S
C879 N881 1.384 . S
N880 C876 1.427 . S
N880 C877 1.384 . S
N881 C873 1.427 . S
N881 C879 1.384 . S
H882 C888 0.930 . S
H883 C892 0.930 . S
H884 C897 0.929 . S
H885 C895 0.929 1_556 S
H886 C890 0.929 . S
H887 C896 0.929 . S
C888 H882 0.930 . S
C888 C889 1.367 . S
C888 C896 1.378 . S
C889 C888 1.367 . S
C889 C897 1.433 . S
C890 H886 0.929 . S
C890 C892 1.378 . S
C890 C894 1.350 . S
C891 C894 1.463 . S
C891 C896 1.350 . S
C891 N899 1.427 . S
C892 H883 0.930 . S
C892 C890 1.378 . S
C892 C893 1.367 . S
C893 C892 1.367 . S
C893 C895 1.433 . S
C894 C890 1.350 . S
C894 C891 1.463 . S
C894 N898 1.427 . S
C895 H885 0.929 1_554 S
C895 C893 1.433 . S
C895 N898 1.384 . S
C896 H887 0.929 . S
C896 C888 1.378 . S
C896 C891 1.350 . S
C897 H884 0.929 . S
C897 C889 1.433 . S
C897 N899 1.384 . S
N898 C894 1.427 . S
N898 C895 1.384 . S
N899 C891 1.427 . S
N899 C897 1.384 . S
H900 C906 0.930 . S
H901 C910 0.930 . S
H902 C915 0.929 . S
H903 C913 0.929 1_556 S
H904 C908 0.929 . S
H905 C914 0.929 . S
C906 H900 0.930 . S
C906 C907 1.367 . S
C906 C914 1.378 . S
C907 C906 1.367 . S
C907 C915 1.433 . S
C908 H904 0.929 . S
C908 C910 1.378 . S
C908 C912 1.350 . S
C909 C912 1.463 . S
C909 C914 1.350 . S
C909 N917 1.427 . S
C910 H901 0.930 . S
C910 C908 1.378 . S
C910 C911 1.367 . S
C911 C910 1.367 . S
C911 C913 1.433 . S
C912 C908 1.350 . S
C912 C909 1.463 . S
C912 N916 1.427 . S
C913 H903 0.929 1_554 S
C913 C911 1.433 . S
C913 N916 1.384 . S
C914 H905 0.929 . S
C914 C906 1.378 . S
C914 C909 1.350 . S
C915 H902 0.929 . S
C915 C907 1.433 . S
C915 N917 1.384 . S
N916 C912 1.427 . S
N916 C913 1.384 . S
N917 C909 1.427 . S
N917 C915 1.384 . S
H918 C924 0.930 . S
H919 C928 0.930 . S
H920 C933 0.929 . S
H921 C931 0.929 . S
H922 C926 0.929 . S
H923 C932 0.929 . S
C924 H918 0.930 . S
C924 C925 1.367 . S
C924 C932 1.378 . S
C925 C924 1.367 . S
C925 C933 1.433 . S
C926 H922 0.929 . S
C926 C928 1.378 . S
C926 C930 1.350 . S
C927 C930 1.463 . S
C927 C932 1.350 . S
C927 N935 1.427 . S
C928 H919 0.930 . S
C928 C926 1.378 . S
C928 C929 1.367 . S
C929 C928 1.367 . S
C929 C931 1.433 . S
C930 C926 1.350 . S
C930 C927 1.463 . S
C930 N934 1.427 . S
C931 H921 0.929 . S
C931 C929 1.433 . S
C931 N934 1.384 . S
C932 H923 0.929 . S
C932 C924 1.378 . S
C932 C927 1.350 . S
C933 H920 0.929 . S
C933 C925 1.433 . S
C933 N935 1.384 . S
N934 C930 1.427 . S
N934 C931 1.384 . S
N935 C927 1.427 . S
N935 C933 1.384 . S
H936 C942 0.930 . S
H937 C946 0.930 . S
H938 C951 0.929 . S
H939 C949 0.929 . S
H940 C944 0.929 . S
H941 C950 0.929 . S
C942 H936 0.930 . S
C942 C943 1.367 . S
C942 C950 1.378 . S
C943 C942 1.367 . S
C943 C951 1.433 . S
C944 H940 0.929 . S
C944 C946 1.378 . S
C944 C948 1.350 . S
C945 C948 1.463 . S
C945 C950 1.350 . S
C945 N953 1.427 . S
C946 H937 0.930 . S
C946 C944 1.378 . S
C946 C947 1.367 . S
C947 C946 1.367 . S
C947 C949 1.433 . S
C948 C944 1.350 . S
C948 C945 1.463 . S
C948 N952 1.427 . S
C949 H939 0.929 . S
C949 C947 1.433 . S
C949 N952 1.384 . S
C950 H941 0.929 . S
C950 C942 1.378 . S
C950 C945 1.350 . S
C951 H938 0.929 . S
C951 C943 1.433 . S
C951 N953 1.384 . S
N952 C948 1.427 . S
N952 C949 1.384 . S
N953 C945 1.427 . S
N953 C951 1.384 . S
H954 C960 0.930 . S
H955 C964 0.930 . S
H956 C969 0.929 . S
H957 C967 0.929 . S
H958 C962 0.929 . S
H959 C968 0.929 . S
C960 H954 0.930 . S
C960 C961 1.367 . S
C960 C968 1.378 . S
C961 C960 1.367 . S
C961 C969 1.433 . S
C962 H958 0.929 . S
C962 C964 1.378 . S
C962 C966 1.350 . S
C963 C966 1.463 . S
C963 C968 1.350 . S
C963 N971 1.427 . S
C964 H955 0.930 . S
C964 C962 1.378 . S
C964 C965 1.367 . S
C965 C964 1.367 . S
C965 C967 1.433 . S
C966 C962 1.350 . S
C966 C963 1.463 . S
C966 N970 1.427 . S
C967 H957 0.929 . S
C967 C965 1.433 . S
C967 N970 1.384 . S
C968 H959 0.929 . S
C968 C960 1.378 . S
C968 C963 1.350 . S
C969 H956 0.929 . S
C969 C961 1.433 . S
C969 N971 1.384 . S
N970 C966 1.427 . S
N970 C967 1.384 . S
N971 C963 1.427 . S
N971 C969 1.384 . S
H972 C978 0.930 . S
H973 C982 0.930 . S
H974 C987 0.929 . S
H975 C985 0.929 . S
H976 C980 0.929 . S
H977 C986 0.929 . S
C978 H972 0.930 . S
C978 C979 1.367 . S
C978 C986 1.378 . S
C979 C978 1.367 . S
C979 C987 1.433 . S
C980 H976 0.929 . S
C980 C982 1.378 . S
C980 C984 1.350 . S
C981 C984 1.463 . S
C981 C986 1.350 . S
C981 N989 1.427 . S
C982 H973 0.930 . S
C982 C980 1.378 . S
C982 C983 1.367 . S
C983 C982 1.367 . S
C983 C985 1.433 . S
C984 C980 1.350 . S
C984 C981 1.463 . S
C984 N988 1.427 . S
C985 H975 0.929 . S
C985 C983 1.433 . S
C985 N988 1.384 . S
C986 H977 0.929 . S
C986 C978 1.378 . S
C986 C981 1.350 . S
C987 H974 0.929 . S
C987 C979 1.433 . S
C987 N989 1.384 . S
N988 C984 1.427 . S
N988 C985 1.384 . S
N989 C981 1.427 . S
N989 C987 1.384 . S
H990 C996 0.930 1_554 S
H991 C1000 0.930 . S
H992 C1005 0.929 . S
H993 C1003 0.929 . S
H994 C998 0.929 . S
H995 C1004 0.929 . S
C996 H990 0.930 1_556 S
C996 C997 1.367 . S
C996 C1004 1.378 . S
C997 C996 1.367 . S
C997 C1005 1.433 . S
C998 H994 0.929 . S
C998 C1000 1.378 . S
C998 C1002 1.350 . S
C999 C1002 1.463 . S
C999 C1004 1.350 . S
C999 N1007 1.427 . S
C1000 H991 0.930 . S
C1000 C998 1.378 . S
C1000 C1001 1.367 . S
C1001 C1000 1.367 . S
C1001 C1003 1.433 . S
C1002 C998 1.350 . S
C1002 C999 1.463 . S
C1002 N1006 1.427 . S
C1003 H993 0.929 . S
C1003 C1001 1.433 . S
C1003 N1006 1.384 . S
C1004 H995 0.929 . S
C1004 C996 1.378 . S
C1004 C999 1.350 . S
C1005 H992 0.929 . S
C1005 C997 1.433 . S
C1005 N1007 1.384 . S
N1006 C1002 1.427 . S
N1006 C1003 1.384 . S
N1007 C999 1.427 . S
N1007 C1005 1.384 . S
H1008 C1014 0.930 1_554 S
H1009 C1018 0.930 . S
H1010 C1023 0.929 . S
H1011 C1021 0.929 . S
H1012 C1016 0.929 . S
H1013 C1022 0.929 . S
C1014 H1008 0.930 1_556 S
C1014 C1015 1.367 . S
C1014 C1022 1.378 . S
C1015 C1014 1.367 . S
C1015 C1023 1.433 . S
C1016 H1012 0.929 . S
C1016 C1018 1.378 . S
C1016 C1020 1.350 . S
C1017 C1020 1.463 . S
C1017 C1022 1.350 . S
C1017 N1025 1.427 . S
C1018 H1009 0.930 . S
C1018 C1016 1.378 . S
C1018 C1019 1.367 . S
C1019 C1018 1.367 . S
C1019 C1021 1.433 . S
C1020 C1016 1.350 . S
C1020 C1017 1.463 . S
C1020 N1024 1.427 . S
C1021 H1011 0.929 . S
C1021 C1019 1.433 . S
C1021 N1024 1.384 . S
C1022 H1013 0.929 . S
C1022 C1014 1.378 . S
C1022 C1017 1.350 . S
C1023 H1010 0.929 . S
C1023 C1015 1.433 . S
C1023 N1025 1.384 . S
N1024 C1020 1.427 . S
N1024 C1021 1.384 . S
N1025 C1017 1.427 . S
N1025 C1023 1.384 . S
H1026 C1032 0.930 . S
H1027 C1036 0.930 . S
H1028 C1041 0.929 . S
H1029 C1039 0.929 1_554 S
H1030 C1034 0.929 . S
H1031 C1040 0.929 . S
C1032 H1026 0.930 . S
C1032 C1033 1.367 . S
C1032 C1040 1.378 . S
C1033 C1032 1.367 . S
C1033 C1041 1.433 . S
C1034 H1030 0.929 . S
C1034 C1036 1.378 . S
C1034 C1038 1.350 . S
C1035 C1038 1.463 . S
C1035 C1040 1.350 . S
C1035 N1043 1.427 . S
C1036 H1027 0.930 . S
C1036 C1034 1.378 . S
C1036 C1037 1.367 . S
C1037 C1036 1.367 . S
C1037 C1039 1.433 . S
C1038 C1034 1.350 . S
C1038 C1035 1.463 . S
C1038 N1042 1.427 . S
C1039 H1029 0.929 1_556 S
C1039 C1037 1.433 . S
C1039 N1042 1.384 . S
C1040 H1031 0.929 . S
C1040 C1032 1.378 . S
C1040 C1035 1.350 . S
C1041 H1028 0.929 . S
C1041 C1033 1.433 . S
C1041 N1043 1.384 . S
N1042 C1038 1.427 . S
N1042 C1039 1.384 . S
N1043 C1035 1.427 . S
N1043 C1041 1.384 . S
H1044 C1050 0.930 . S
H1045 C1054 0.930 . S
H1046 C1059 0.929 . S
H1047 C1057 0.929 . S
H1048 C1052 0.938 . S
H1049 C1058 0.942 . S
C1050 H1044 0.930 . S
C1050 C1051 1.367 . S
C1050 C1058 1.367 1_455 S
C1051 C1050 1.367 . S
C1051 C1059 1.433 . S
C1052 H1048 0.938 . S
C1052 C1054 1.370 1_455 S
C1052 C1056 1.348 1_455 S
C1053 C1056 1.463 1_455 S
C1053 C1058 1.347 1_455 S
C1053 N1061 1.427 . S
C1054 H1045 0.930 . S
C1054 C1052 1.370 1_655 S
C1054 C1055 1.367 . S
C1055 C1054 1.367 . S
C1055 C1057 1.433 . S
C1056 C1052 1.348 1_655 S
C1056 C1053 1.463 1_655 S
C1056 N1060 1.427 . S
C1057 H1047 0.929 . S
C1057 C1055 1.433 . S
C1057 N1060 1.384 . S
C1058 H1049 0.942 . S
C1058 C1050 1.367 1_655 S
C1058 C1053 1.347 1_655 S
C1059 H1046 0.929 . S
C1059 C1051 1.433 . S
C1059 N1061 1.384 . S
N1060 C1056 1.427 . S
N1060 C1057 1.384 . S
N1061 C1053 1.427 . S
N1061 C1059 1.384 . S
H1062 C1068 0.930 . S
H1063 C1072 0.930 . S
H1064 C1077 0.929 . S
H1065 C1075 0.929 . S
H1066 C1070 0.929 . S
H1067 C1076 0.929 . S
C1068 H1062 0.930 . S
C1068 C1069 1.367 . S
C1068 C1076 1.378 . S
C1069 C1068 1.367 . S
C1069 C1077 1.433 . S
C1070 H1066 0.929 . S
C1070 C1072 1.378 . S
C1070 C1074 1.350 . S
C1071 C1074 1.463 . S
C1071 C1076 1.350 . S
C1071 N1079 1.427 . S
C1072 H1063 0.930 . S
C1072 C1070 1.378 . S
C1072 C1073 1.367 . S
C1073 C1072 1.367 . S
C1073 C1075 1.433 . S
C1074 C1070 1.350 . S
C1074 C1071 1.463 . S
C1074 N1078 1.427 . S
C1075 H1065 0.929 . S
C1075 C1073 1.433 . S
C1075 N1078 1.384 . S
C1076 H1067 0.929 . S
C1076 C1068 1.378 . S
C1076 C1071 1.350 . S
C1077 H1064 0.929 . S
C1077 C1069 1.433 . S
C1077 N1079 1.384 . S
N1078 C1074 1.427 . S
N1078 C1075 1.384 . S
N1079 C1071 1.427 . S
N1079 C1077 1.384 . S
H1080 C1086 0.930 . S
H1081 C1090 0.930 . S
H1082 C1095 0.929 . S
H1083 C1093 0.929 . S
H1084 C1088 0.929 1_545 S
H1085 C1094 0.929 1_565 S
C1086 H1080 0.930 . S
C1086 C1087 1.367 . S
C1086 C1094 1.378 . S
C1087 C1086 1.367 . S
C1087 C1095 1.433 . S
C1088 H1084 0.929 1_565 S
C1088 C1090 1.378 . S
C1088 C1092 1.350 . S
C1089 C1092 1.463 1_545 S
C1089 C1094 1.350 . S
C1089 N1097 1.427 . S
C1090 H1081 0.930 . S
C1090 C1088 1.378 . S
C1090 C1091 1.367 . S
C1091 C1090 1.367 . S
C1091 C1093 1.433 . S
C1092 C1088 1.350 . S
C1092 C1089 1.463 1_565 S
C1092 N1096 1.427 . S
C1093 H1083 0.929 . S
C1093 C1091 1.433 . S
C1093 N1096 1.384 . S
C1094 H1085 0.929 1_545 S
C1094 C1086 1.378 . S
C1094 C1089 1.350 . S
C1095 H1082 0.929 . S
C1095 C1087 1.433 . S
C1095 N1097 1.384 . S
N1096 C1092 1.427 . S
N1096 C1093 1.384 . S
N1097 C1089 1.427 . S
N1097 C1095 1.384 . S
H1098 C1104 0.930 . S
H1099 C1108 0.930 . S
H1100 C1113 0.929 . S
H1101 C1111 0.929 . S
H1102 C1106 0.931 . S
H1103 C1112 0.931 . S
C1104 H1098 0.930 . S
C1104 C1105 1.367 . S
C1104 C1112 1.378 . S
C1105 C1104 1.367 . S
C1105 C1113 1.433 . S
C1106 H1102 0.931 . S
C1106 C1108 1.378 . S
C1106 C1110 1.350 . S
C1107 C1110 1.463 1_565 S
C1107 C1112 1.350 . S
C1107 N1115 1.427 . S
C1108 H1099 0.930 . S
C1108 C1106 1.378 . S
C1108 C1109 1.367 . S
C1109 C1108 1.367 . S
C1109 C1111 1.433 . S
C1110 C1106 1.350 . S
C1110 C1107 1.463 1_545 S
C1110 N1114 1.427 . S
C1111 H1101 0.929 . S
C1111 C1109 1.433 . S
C1111 N1114 1.384 . S
C1112 H1103 0.931 . S
C1112 C1104 1.378 . S
C1112 C1107 1.350 . S
C1113 H1100 0.929 . S
C1113 C1105 1.433 . S
C1113 N1115 1.384 . S
N1114 C1110 1.427 . S
N1114 C1111 1.384 . S
N1115 C1107 1.427 . S
N1115 C1113 1.384 . S
H1116 C1122 0.930 . S
H1117 C1126 0.930 . S
H1118 C1131 0.929 . S
H1119 C1129 0.929 . S
H1120 C1124 0.929 . S
H1121 C1130 0.929 . S
C1122 H1116 0.930 . S
C1122 C1123 1.367 . S
C1122 C1130 1.378 . S
C1123 C1122 1.367 . S
C1123 C1131 1.433 . S
C1124 H1120 0.929 . S
C1124 C1126 1.378 . S
C1124 C1128 1.350 . S
C1125 C1128 1.463 1_655 S
C1125 C1130 1.350 . S
C1125 N1133 1.427 . S
C1126 H1117 0.930 . S
C1126 C1124 1.378 . S
C1126 C1127 1.367 . S
C1127 C1126 1.367 . S
C1127 C1129 1.433 . S
C1128 C1124 1.350 . S
C1128 C1125 1.463 1_455 S
C1128 N1132 1.427 . S
C1129 H1119 0.929 . S
C1129 C1127 1.433 . S
C1129 N1132 1.384 . S
C1130 H1121 0.929 . S
C1130 C1122 1.378 . S
C1130 C1125 1.350 . S
C1131 H1118 0.929 . S
C1131 C1123 1.433 . S
C1131 N1133 1.384 . S
N1132 C1128 1.427 . S
N1132 C1129 1.384 . S
N1133 C1125 1.427 . S
N1133 C1131 1.384 . S
H1134 C1140 0.930 . S
H1135 C1144 0.930 . S
H1136 C1149 0.929 . S
H1137 C1147 0.929 . S
H1138 C1142 0.929 . S
H1139 C1148 0.929 . S
C1140 H1134 0.930 . S
C1140 C1141 1.367 . S
C1140 C1148 1.378 . S
C1141 C1140 1.367 . S
C1141 C1149 1.433 . S
C1142 H1138 0.929 . S
C1142 C1144 1.378 . S
C1142 C1146 1.350 . S
C1143 C1146 1.463 . S
C1143 C1148 1.350 . S
C1143 N1151 1.427 . S
C1144 H1135 0.930 . S
C1144 C1142 1.378 . S
C1144 C1145 1.367 . S
C1145 C1144 1.367 . S
C1145 C1147 1.433 . S
C1146 C1142 1.350 . S
C1146 C1143 1.463 . S
C1146 N1150 1.427 . S
C1147 H1137 0.929 . S
C1147 C1145 1.433 . S
C1147 N1150 1.384 . S
C1148 H1139 0.929 . S
C1148 C1140 1.378 . S
C1148 C1143 1.350 . S
C1149 H1136 0.929 . S
C1149 C1141 1.433 . S
C1149 N1151 1.384 . S
N1150 C1146 1.427 . S
N1150 C1147 1.384 . S
N1151 C1143 1.427 . S
N1151 C1149 1.384 . S
H1152 C1158 0.930 . S
H1153 C1162 0.930 . S
H1154 C1167 0.929 . S
H1155 C1165 0.929 . S
H1156 C1160 0.929 . S
H1157 C1166 0.929 . S
C1158 H1152 0.930 . S
C1158 C1159 1.367 . S
C1158 C1166 1.378 . S
C1159 C1158 1.367 . S
C1159 C1167 1.433 . S
C1160 H1156 0.929 . S
C1160 C1162 1.378 . S
C1160 C1164 1.350 . S
C1161 C1164 1.463 . S
C1161 C1166 1.350 . S
C1161 N1169 1.427 . S
C1162 H1153 0.930 . S
C1162 C1160 1.378 . S
C1162 C1163 1.367 . S
C1163 C1162 1.367 . S
C1163 C1165 1.433 . S
C1164 C1160 1.350 . S
C1164 C1161 1.463 . S
C1164 N1168 1.427 . S
C1165 H1155 0.929 . S
C1165 C1163 1.433 . S
C1165 N1168 1.384 . S
C1166 H1157 0.929 . S
C1166 C1158 1.378 . S
C1166 C1161 1.350 . S
C1167 H1154 0.929 . S
C1167 C1159 1.433 . S
C1167 N1169 1.384 . S
N1168 C1164 1.427 . S
N1168 C1165 1.384 . S
N1169 C1161 1.427 . S
N1169 C1167 1.384 . S
H1170 C1176 0.930 . S
H1171 C1180 0.930 . S
H1172 C1185 0.929 . S
H1173 C1183 0.929 . S
H1174 C1178 0.929 . S
H1175 C1184 0.929 . S
C1176 H1170 0.930 . S
C1176 C1177 1.367 . S
C1176 C1184 1.378 . S
C1177 C1176 1.367 . S
C1177 C1185 1.433 . S
C1178 H1174 0.929 . S
C1178 C1180 1.378 . S
C1178 C1182 1.350 . S
C1179 C1182 1.463 . S
C1179 C1184 1.350 . S
C1179 N1187 1.427 . S
C1180 H1171 0.930 . S
C1180 C1178 1.378 . S
C1180 C1181 1.367 . S
C1181 C1180 1.367 . S
C1181 C1183 1.433 . S
C1182 C1178 1.350 . S
C1182 C1179 1.463 . S
C1182 N1186 1.427 . S
C1183 H1173 0.929 . S
C1183 C1181 1.433 . S
C1183 N1186 1.384 . S
C1184 H1175 0.929 . S
C1184 C1176 1.378 . S
C1184 C1179 1.350 . S
C1185 H1172 0.929 . S
C1185 C1177 1.433 . S
C1185 N1187 1.384 . S
N1186 C1182 1.427 . S
N1186 C1183 1.384 . S
N1187 C1179 1.427 . S
N1187 C1185 1.384 . S
H1188 C1194 0.930 . S
H1189 C1198 0.930 . S
H1190 C1203 0.929 . S
H1191 C1201 0.929 . S
H1192 C1196 0.929 . S
H1193 C1202 0.929 . S
C1194 H1188 0.930 . S
C1194 C1195 1.367 . S
C1194 C1202 1.378 . S
C1195 C1194 1.367 . S
C1195 C1203 1.433 . S
C1196 H1192 0.929 . S
C1196 C1198 1.378 . S
C1196 C1200 1.350 . S
C1197 C1200 1.463 . S
C1197 C1202 1.350 . S
C1197 N1205 1.427 . S
C1198 H1189 0.930 . S
C1198 C1196 1.378 . S
C1198 C1199 1.367 . S
C1199 C1198 1.367 . S
C1199 C1201 1.433 . S
C1200 C1196 1.350 . S
C1200 C1197 1.463 . S
C1200 N1204 1.427 . S
C1201 H1191 0.929 . S
C1201 C1199 1.433 . S
C1201 N1204 1.384 . S
C1202 H1193 0.929 . S
C1202 C1194 1.378 . S
C1202 C1197 1.350 . S
C1203 H1190 0.929 . S
C1203 C1195 1.433 . S
C1203 N1205 1.384 . S
N1204 C1200 1.427 . S
N1204 C1201 1.384 . S
N1205 C1197 1.427 . S
N1205 C1203 1.384 . S
H1206 C1212 0.930 . S
H1207 C1216 0.930 . S
H1208 C1221 0.929 . S
H1209 C1219 0.929 . S
H1210 C1214 0.929 . S
H1211 C1220 0.929 . S
C1212 H1206 0.930 . S
C1212 C1213 1.367 . S
C1212 C1220 1.378 . S
C1213 C1212 1.367 . S
C1213 C1221 1.433 . S
C1214 H1210 0.929 . S
C1214 C1216 1.378 . S
C1214 C1218 1.350 . S
C1215 C1218 1.463 . S
C1215 C1220 1.350 . S
C1215 N1223 1.427 . S
C1216 H1207 0.930 . S
C1216 C1214 1.378 . S
C1216 C1217 1.367 . S
C1217 C1216 1.367 . S
C1217 C1219 1.433 . S
C1218 C1214 1.350 . S
C1218 C1215 1.463 . S
C1218 N1222 1.427 . S
C1219 H1209 0.929 . S
C1219 C1217 1.433 . S
C1219 N1222 1.384 . S
C1220 H1211 0.929 . S
C1220 C1212 1.378 . S
C1220 C1215 1.350 . S
C1221 H1208 0.929 . S
C1221 C1213 1.433 . S
C1221 N1223 1.384 . S
N1222 C1218 1.427 . S
N1222 C1219 1.384 . S
N1223 C1215 1.427 . S
N1223 C1221 1.384 . S
H1224 C1230 0.930 . S
H1225 C1234 0.930 . S
H1226 C1239 0.929 . S
H1227 C1237 0.929 . S
H1228 C1232 0.929 . S
H1229 C1238 0.929 . S
C1230 H1224 0.930 . S
C1230 C1231 1.367 . S
C1230 C1238 1.378 . S
C1231 C1230 1.367 . S
C1231 C1239 1.433 . S
C1232 H1228 0.929 . S
C1232 C1234 1.378 . S
C1232 C1236 1.350 . S
C1233 C1236 1.463 . S
C1233 C1238 1.350 . S
C1233 N1241 1.427 . S
C1234 H1225 0.930 . S
C1234 C1232 1.378 . S
C1234 C1235 1.367 . S
C1235 C1234 1.367 . S
C1235 C1237 1.433 . S
C1236 C1232 1.350 . S
C1236 C1233 1.463 . S
C1236 N1240 1.427 . S
C1237 H1227 0.929 . S
C1237 C1235 1.433 . S
C1237 N1240 1.384 . S
C1238 H1229 0.929 . S
C1238 C1230 1.378 . S
C1238 C1233 1.350 . S
C1239 H1226 0.929 . S
C1239 C1231 1.433 . S
C1239 N1241 1.384 . S
N1240 C1236 1.427 . S
N1240 C1237 1.384 . S
N1241 C1233 1.427 . S
N1241 C1239 1.384 . S
H1242 C1248 0.930 . S
H1243 C1252 0.930 . S
H1244 C1257 0.929 . S
H1245 C1255 0.929 . S
H1246 C1250 0.929 . S
H1247 C1256 0.929 . S
C1248 H1242 0.930 . S
C1248 C1249 1.367 . S
C1248 C1256 1.378 . S
C1249 C1248 1.367 . S
C1249 C1257 1.433 . S
C1250 H1246 0.929 . S
C1250 C1252 1.378 . S
C1250 C1254 1.350 . S
C1251 C1254 1.463 . S
C1251 C1256 1.350 . S
C1251 N1259 1.427 . S
C1252 H1243 0.930 . S
C1252 C1250 1.378 . S
C1252 C1253 1.367 . S
C1253 C1252 1.367 . S
C1253 C1255 1.433 . S
C1254 C1250 1.350 . S
C1254 C1251 1.463 . S
C1254 N1258 1.427 . S
C1255 H1245 0.929 . S
C1255 C1253 1.433 . S
C1255 N1258 1.384 . S
C1256 H1247 0.929 . S
C1256 C1248 1.378 . S
C1256 C1251 1.350 . S
C1257 H1244 0.929 . S
C1257 C1249 1.433 . S
C1257 N1259 1.384 . S
N1258 C1254 1.427 . S
N1258 C1255 1.384 . S
N1259 C1251 1.427 . S
N1259 C1257 1.384 . S
H1260 C1266 0.930 . S
H1261 C1270 0.930 . S
H1262 C1275 0.929 . S
H1263 C1273 0.929 . S
H1264 C1268 0.929 . S
H1265 C1274 0.929 . S
C1266 H1260 0.930 . S
C1266 C1267 1.367 . S
C1266 C1274 1.378 . S
C1267 C1266 1.367 . S
C1267 C1275 1.433 . S
C1268 H1264 0.929 . S
C1268 C1270 1.378 . S
C1268 C1272 1.350 . S
C1269 C1272 1.463 . S
C1269 C1274 1.350 . S
C1269 N1277 1.427 . S
C1270 H1261 0.930 . S
C1270 C1268 1.378 . S
C1270 C1271 1.367 . S
C1271 C1270 1.367 . S
C1271 C1273 1.433 . S
C1272 C1268 1.350 . S
C1272 C1269 1.463 . S
C1272 N1276 1.427 . S
C1273 H1263 0.929 . S
C1273 C1271 1.433 . S
C1273 N1276 1.384 . S
C1274 H1265 0.929 . S
C1274 C1266 1.378 . S
C1274 C1269 1.350 . S
C1275 H1262 0.929 . S
C1275 C1267 1.433 . S
C1275 N1277 1.384 . S
N1276 C1272 1.427 . S
N1276 C1273 1.384 . S
N1277 C1269 1.427 . S
N1277 C1275 1.384 . S
H1278 C1284 0.930 . S
H1279 C1288 0.930 . S
H1280 C1293 0.929 . S
H1281 C1291 0.929 . S
H1282 C1286 0.929 . S
H1283 C1292 0.929 . S
C1284 H1278 0.930 . S
C1284 C1285 1.367 . S
C1284 C1292 1.378 . S
C1285 C1284 1.367 . S
C1285 C1293 1.433 . S
C1286 H1282 0.929 . S
C1286 C1288 1.378 . S
C1286 C1290 1.350 . S
C1287 C1290 1.463 . S
C1287 C1292 1.350 . S
C1287 N1295 1.427 . S
C1288 H1279 0.930 . S
C1288 C1286 1.378 . S
C1288 C1289 1.367 . S
C1289 C1288 1.367 . S
C1289 C1291 1.433 . S
C1290 C1286 1.350 . S
C1290 C1287 1.463 . S
C1290 N1294 1.427 . S
C1291 H1281 0.929 . S
C1291 C1289 1.433 . S
C1291 N1294 1.384 . S
C1292 H1283 0.929 . S
C1292 C1284 1.378 . S
C1292 C1287 1.350 . S
C1293 H1280 0.929 . S
C1293 C1285 1.433 . S
C1293 N1295 1.384 . S
N1294 C1290 1.427 . S
N1294 C1291 1.384 . S
N1295 C1287 1.427 . S
N1295 C1293 1.384 . S
H1296 C1302 0.930 . S
H1297 C1306 0.930 . S
H1298 C1311 0.929 . S
H1299 C1309 0.929 . S
H1300 C1304 0.929 . S
H1301 C1310 0.929 . S
C1302 H1296 0.930 . S
C1302 C1303 1.367 . S
C1302 C1310 1.378 . S
C1303 C1302 1.367 . S
C1303 C1311 1.433 . S
C1304 H1300 0.929 . S
C1304 C1306 1.378 . S
C1304 C1308 1.350 . S
C1305 C1308 1.463 . S
C1305 C1310 1.350 . S
C1305 N1313 1.427 . S
C1306 H1297 0.930 . S
C1306 C1304 1.378 . S
C1306 C1307 1.367 . S
C1307 C1306 1.367 . S
C1307 C1309 1.433 . S
C1308 C1304 1.350 . S
C1308 C1305 1.463 . S
C1308 N1312 1.427 . S
C1309 H1299 0.929 . S
C1309 C1307 1.433 . S
C1309 N1312 1.384 . S
C1310 H1301 0.929 . S
C1310 C1302 1.378 . S
C1310 C1305 1.350 . S
C1311 H1298 0.929 . S
C1311 C1303 1.433 . S
C1311 N1313 1.384 . S
N1312 C1308 1.427 . S
N1312 C1309 1.384 . S
N1313 C1305 1.427 . S
N1313 C1311 1.384 . S
H1314 C1320 0.930 . S
H1315 C1324 0.930 . S
H1316 C1329 0.929 . S
H1317 C1327 0.929 . S
H1318 C1322 0.929 . S
H1319 C1328 0.929 . S
C1320 H1314 0.930 . S
C1320 C1321 1.367 . S
C1320 C1328 1.378 . S
C1321 C1320 1.367 . S
C1321 C1329 1.433 . S
C1322 H1318 0.929 . S
C1322 C1324 1.378 . S
C1322 C1326 1.350 . S
C1323 C1326 1.463 . S
C1323 C1328 1.350 . S
C1323 N1331 1.427 . S
C1324 H1315 0.930 . S
C1324 C1322 1.378 . S
C1324 C1325 1.367 . S
C1325 C1324 1.367 . S
C1325 C1327 1.433 . S
C1326 C1322 1.350 . S
C1326 C1323 1.463 . S
C1326 N1330 1.427 . S
C1327 H1317 0.929 . S
C1327 C1325 1.433 . S
C1327 N1330 1.384 . S
C1328 H1319 0.929 . S
C1328 C1320 1.378 . S
C1328 C1323 1.350 . S
C1329 H1316 0.929 . S
C1329 C1321 1.433 . S
C1329 N1331 1.384 . S
N1330 C1326 1.427 . S
N1330 C1327 1.384 . S
N1331 C1323 1.427 . S
N1331 C1329 1.384 . S
H1332 C1338 0.930 . S
H1333 C1342 0.930 . S
H1334 C1347 0.929 . S
H1335 C1345 0.929 . S
H1336 C1340 0.929 . S
H1337 C1346 0.929 . S
C1338 H1332 0.930 . S
C1338 C1339 1.367 . S
C1338 C1346 1.378 . S
C1339 C1338 1.367 . S
C1339 C1347 1.433 . S
C1340 H1336 0.929 . S
C1340 C1342 1.378 . S
C1340 C1344 1.350 . S
C1341 C1344 1.463 . S
C1341 C1346 1.350 . S
C1341 N1349 1.427 . S
C1342 H1333 0.930 . S
C1342 C1340 1.378 . S
C1342 C1343 1.367 . S
C1343 C1342 1.367 . S
C1343 C1345 1.433 . S
C1344 C1340 1.350 . S
C1344 C1341 1.463 . S
C1344 N1348 1.427 . S
C1345 H1335 0.929 . S
C1345 C1343 1.433 . S
C1345 N1348 1.384 . S
C1346 H1337 0.929 . S
C1346 C1338 1.378 . S
C1346 C1341 1.350 . S
C1347 H1334 0.929 . S
C1347 C1339 1.433 . S
C1347 N1349 1.384 . S
N1348 C1344 1.427 . S
N1348 C1345 1.384 . S
N1349 C1341 1.427 . S
N1349 C1347 1.384 . S
H1350 C1356 0.930 . S
H1351 C1360 0.930 . S
H1352 C1365 0.929 . S
H1353 C1363 0.929 . S
H1354 C1358 0.929 . S
H1355 C1364 0.929 . S
C1356 H1350 0.930 . S
C1356 C1357 1.367 . S
C1356 C1364 1.378 . S
C1357 C1356 1.367 . S
C1357 C1365 1.433 . S
C1358 H1354 0.929 . S
C1358 C1360 1.378 . S
C1358 C1362 1.350 . S
C1359 C1362 1.463 . S
C1359 C1364 1.350 . S
C1359 N1367 1.427 . S
C1360 H1351 0.930 . S
C1360 C1358 1.378 . S
C1360 C1361 1.367 . S
C1361 C1360 1.367 . S
C1361 C1363 1.433 . S
C1362 C1358 1.350 . S
C1362 C1359 1.463 . S
C1362 N1366 1.427 . S
C1363 H1353 0.929 . S
C1363 C1361 1.433 . S
C1363 N1366 1.384 . S
C1364 H1355 0.929 . S
C1364 C1356 1.378 . S
C1364 C1359 1.350 . S
C1365 H1352 0.929 . S
C1365 C1357 1.433 . S
C1365 N1367 1.384 . S
N1366 C1362 1.427 . S
N1366 C1363 1.384 . S
N1367 C1359 1.427 . S
N1367 C1365 1.384 . S
H1368 C1374 0.930 . S
H1369 C1378 0.930 . S
H1370 C1383 0.929 1_655 S
H1371 C1381 0.929 1_455 S
H1372 C1376 0.929 . S
H1373 C1382 0.929 . S
C1374 H1368 0.930 . S
C1374 C1375 1.367 . S
C1374 C1382 1.378 . S
C1375 C1374 1.367 . S
C1375 C1383 1.433 . S
C1376 H1372 0.929 . S
C1376 C1378 1.378 . S
C1376 C1380 1.350 . S
C1377 C1380 1.463 1_455 S
C1377 C1382 1.350 . S
C1377 N1385 1.427 1_455 S
C1378 H1369 0.930 . S
C1378 C1376 1.378 . S
C1378 C1379 1.367 . S
C1379 C1378 1.367 . S
C1379 C1381 1.433 . S
C1380 C1376 1.350 . S
C1380 C1377 1.463 1_655 S
C1380 N1384 1.427 1_655 S
C1381 H1371 0.929 1_655 S
C1381 C1379 1.433 . S
C1381 N1384 1.384 1_655 S
C1382 H1373 0.929 . S
C1382 C1374 1.378 . S
C1382 C1377 1.350 . S
C1383 H1370 0.929 1_455 S
C1383 C1375 1.433 . S
C1383 N1385 1.384 1_455 S
N1384 C1380 1.427 1_455 S
N1384 C1381 1.384 1_455 S
N1385 C1377 1.427 1_655 S
N1385 C1383 1.384 1_655 S
H1386 C1392 0.930 . S
H1387 C1396 0.930 . S
H1388 C1401 0.929 . S
H1389 C1399 0.929 . S
H1390 C1394 0.929 . S
H1391 C1400 0.929 . S
C1392 H1386 0.930 . S
C1392 C1393 1.367 . S
C1392 C1400 1.378 . S
C1393 C1392 1.367 . S
C1393 C1401 1.433 . S
C1394 H1390 0.929 . S
C1394 C1396 1.378 . S
C1394 C1398 1.350 . S
C1395 C1398 1.463 . S
C1395 C1400 1.350 . S
C1395 N1403 1.427 . S
C1396 H1387 0.930 . S
C1396 C1394 1.378 . S
C1396 C1397 1.367 . S
C1397 C1396 1.367 . S
C1397 C1399 1.433 . S
C1398 C1394 1.350 . S
C1398 C1395 1.463 . S
C1398 N1402 1.427 . S
C1399 H1389 0.929 . S
C1399 C1397 1.433 . S
C1399 N1402 1.384 . S
C1400 H1391 0.929 . S
C1400 C1392 1.378 . S
C1400 C1395 1.350 . S
C1401 H1388 0.929 . S
C1401 C1393 1.433 . S
C1401 N1403 1.384 . S
N1402 C1398 1.427 . S
N1402 C1399 1.384 . S
N1403 C1395 1.427 . S
N1403 C1401 1.384 . S
H1404 C1410 0.930 . S
H1405 C1414 0.930 . S
H1406 C1419 0.929 . S
H1407 C1417 0.929 . S
H1408 C1412 0.929 . S
H1409 C1418 0.929 . S
C1410 H1404 0.930 . S
C1410 C1411 1.367 . S
C1410 C1418 1.378 . S
C1411 C1410 1.367 . S
C1411 C1419 1.433 . S
C1412 H1408 0.929 . S
C1412 C1414 1.378 . S
C1412 C1416 1.350 . S
C1413 C1416 1.463 1_545 S
C1413 C1418 1.350 . S
C1413 N1421 1.427 1_545 S
C1414 H1405 0.930 . S
C1414 C1412 1.378 . S
C1414 C1415 1.367 . S
C1415 C1414 1.367 . S
C1415 C1417 1.433 . S
C1416 C1412 1.350 . S
C1416 C1413 1.463 1_565 S
C1416 N1420 1.427 1_565 S
C1417 H1407 0.929 . S
C1417 C1415 1.433 . S
C1417 N1420 1.384 1_565 S
C1418 H1409 0.929 . S
C1418 C1410 1.378 . S
C1418 C1413 1.350 . S
C1419 H1406 0.929 . S
C1419 C1411 1.433 . S
C1419 N1421 1.384 1_545 S
N1420 C1416 1.427 1_545 S
N1420 C1417 1.384 1_545 S
N1421 C1413 1.427 1_565 S
N1421 C1419 1.384 1_565 S
H1422 C1428 0.930 . S
H1423 C1432 0.930 . S
H1424 C1437 0.929 1_565 S
H1425 C1435 0.929 1_545 S
H1426 C1430 0.929 . S
H1427 C1436 0.929 . S
C1428 H1422 0.930 . S
C1428 C1429 1.367 . S
C1428 C1436 1.378 1_556 S
C1429 C1428 1.367 . S
C1429 C1437 1.433 . S
C1430 H1426 0.929 . S
C1430 C1432 1.378 1_556 S
C1430 C1434 1.350 1_556 S
C1431 C1434 1.463 1_546 S
C1431 C1436 1.350 1_556 S
C1431 N1439 1.427 1_545 S
C1432 H1423 0.930 . S
C1432 C1430 1.378 1_554 S
C1432 C1433 1.367 . S
C1433 C1432 1.367 . S
C1433 C1435 1.433 . S
C1434 C1430 1.350 1_554 S
C1434 C1431 1.463 1_564 S
C1434 N1438 1.427 1_565 S
C1435 H1425 0.929 1_565 S
C1435 C1433 1.433 . S
C1435 N1438 1.384 1_565 S
C1436 H1427 0.929 . S
C1436 C1428 1.378 1_554 S
C1436 C1431 1.350 1_554 S
C1437 H1424 0.929 1_545 S
C1437 C1429 1.433 . S
C1437 N1439 1.384 1_545 S
N1438 C1434 1.427 1_545 S
N1438 C1435 1.384 1_545 S
N1439 C1431 1.427 1_565 S
N1439 C1437 1.384 1_565 S
H1440 C1446 0.934 . S
H1441 C1450 0.934 . S
H1442 C1455 0.955 . S
H1443 C1453 0.955 . S
H1444 C1448 0.929 . S
H1445 C1454 0.929 . S
C1446 H1440 0.934 . S
C1446 C1447 1.360 1_556 S
C1446 C1454 1.380 . S
C1447 C1446 1.360 1_554 S
C1447 C1455 1.433 . S
C1448 H1444 0.929 . S
C1448 C1450 1.380 . S
C1448 C1452 1.350 1_554 S
C1449 C1452 1.463 1_454 S
C1449 C1454 1.350 1_554 S
C1449 N1457 1.427 1_455 S
C1450 H1441 0.934 . S
C1450 C1448 1.380 . S
C1450 C1451 1.360 1_554 S
C1451 C1450 1.360 1_556 S
C1451 C1453 1.433 . S
C1452 C1448 1.350 1_556 S
C1452 C1449 1.463 1_656 S
C1452 N1456 1.427 1_655 S
C1453 H1443 0.955 . S
C1453 C1451 1.433 . S
C1453 N1456 1.384 1_655 S
C1454 H1445 0.929 . S
C1454 C1446 1.380 . S
C1454 C1449 1.350 1_556 S
C1455 H1442 0.955 . S
C1455 C1447 1.433 . S
C1455 N1457 1.384 1_455 S
N1456 C1452 1.427 1_455 S
N1456 C1453 1.384 1_455 S
N1457 C1449 1.427 1_655 S
N1457 C1455 1.384 1_655 S
H1458 C1464 0.930 . S
H1459 C1468 0.930 . S
H1460 C1473 0.929 . S
H1461 C1471 0.929 . S
H1462 C1466 0.929 . S
H1463 C1472 0.929 . S
C1464 H1458 0.930 . S
C1464 C1465 1.367 . S
C1464 C1472 1.378 . S
C1465 C1464 1.367 . S
C1465 C1473 1.433 . S
C1466 H1462 0.929 . S
C1466 C1468 1.378 . S
C1466 C1470 1.350 . S
C1467 C1470 1.463 1_554 S
C1467 C1472 1.350 . S
C1467 N1475 1.427 1_554 S
C1468 H1459 0.930 . S
C1468 C1466 1.378 . S
C1468 C1469 1.367 . S
C1469 C1468 1.367 . S
C1469 C1471 1.433 . S
C1470 C1466 1.350 . S
C1470 C1467 1.463 1_556 S
C1470 N1474 1.427 1_556 S
C1471 H1461 0.929 . S
C1471 C1469 1.433 . S
C1471 N1474 1.383 1_556 S
C1472 H1463 0.929 . S
C1472 C1464 1.378 . S
C1472 C1467 1.350 . S
C1473 H1460 0.929 . S
C1473 C1465 1.433 . S
C1473 N1475 1.383 1_554 S
N1474 C1470 1.427 1_554 S
N1474 C1471 1.383 1_554 S
N1475 C1467 1.427 1_556 S
N1475 C1473 1.383 1_556 S
H1476 C1482 0.930 . S
H1477 C1486 0.930 . S
H1478 C1491 0.929 1_556 S
H1479 C1489 0.929 . S
H1480 C1484 0.929 . S
H1481 C1490 0.929 . S
C1482 H1476 0.930 . S
C1482 C1483 1.367 . S
C1482 C1490 1.378 . S
C1483 C1482 1.367 . S
C1483 C1491 1.433 . S
C1484 H1480 0.929 . S
C1484 C1486 1.378 . S
C1484 C1488 1.350 . S
C1485 C1488 1.463 . S
C1485 C1490 1.350 . S
C1485 N1493 1.427 . S
C1486 H1477 0.930 . S
C1486 C1484 1.378 . S
C1486 C1487 1.367 . S
C1487 C1486 1.367 . S
C1487 C1489 1.433 . S
C1488 C1484 1.350 . S
C1488 C1485 1.463 . S
C1488 N1492 1.427 . S
C1489 H1479 0.929 . S
C1489 C1487 1.433 . S
C1489 N1492 1.384 . S
C1490 H1481 0.929 . S
C1490 C1482 1.378 . S
C1490 C1485 1.350 . S
C1491 H1478 0.929 1_554 S
C1491 C1483 1.433 . S
C1491 N1493 1.384 . S
N1492 C1488 1.427 . S
N1492 C1489 1.384 . S
N1493 C1485 1.427 . S
N1493 C1491 1.384 . S
H1494 C1500 0.930 . S
H1495 C1504 0.930 1_556 S
H1496 C1509 0.929 . S
H1497 C1507 0.929 . S
H1498 C1502 0.929 . S
H1499 C1508 0.929 . S
C1500 H1494 0.930 . S
C1500 C1501 1.367 . S
C1500 C1508 1.378 . S
C1501 C1500 1.367 . S
C1501 C1509 1.433 . S
C1502 H1498 0.929 . S
C1502 C1504 1.378 . S
C1502 C1506 1.350 . S
C1503 C1506 1.463 . S
C1503 C1508 1.350 . S
C1503 N1511 1.427 . S
C1504 H1495 0.930 1_554 S
C1504 C1502 1.378 . S
C1504 C1505 1.367 . S
C1505 C1504 1.367 . S
C1505 C1507 1.433 . S
C1506 C1502 1.350 . S
C1506 C1503 1.463 . S
C1506 N1510 1.427 . S
C1507 H1497 0.929 . S
C1507 C1505 1.433 . S
C1507 N1510 1.384 . S
C1508 H1499 0.929 . S
C1508 C1500 1.378 . S
C1508 C1503 1.350 . S
C1509 H1496 0.929 . S
C1509 C1501 1.433 . S
C1509 N1511 1.384 . S
N1510 C1506 1.427 . S
N1510 C1507 1.384 . S
N1511 C1503 1.427 . S
N1511 C1509 1.384 . S
H1512 C1518 0.930 . S
H1513 C1522 0.930 . S
H1514 C1527 0.929 . S
H1515 C1525 0.929 . S
H1516 C1520 0.929 . S
H1517 C1526 0.929 . S
C1518 H1512 0.930 . S
C1518 C1519 1.367 . S
C1518 C1526 1.378 . S
C1519 C1518 1.367 . S
C1519 C1527 1.433 . S
C1520 H1516 0.929 . S
C1520 C1522 1.378 . S
C1520 C1524 1.350 . S
C1521 C1524 1.463 . S
C1521 C1526 1.350 . S
C1521 N1529 1.427 . S
C1522 H1513 0.930 . S
C1522 C1520 1.378 . S
C1522 C1523 1.367 . S
C1523 C1522 1.367 . S
C1523 C1525 1.433 . S
C1524 C1520 1.350 . S
C1524 C1521 1.463 . S
C1524 N1528 1.427 . S
C1525 H1515 0.929 . S
C1525 C1523 1.433 . S
C1525 N1528 1.384 . S
C1526 H1517 0.929 . S
C1526 C1518 1.378 . S
C1526 C1521 1.350 . S
C1527 H1514 0.929 . S
C1527 C1519 1.433 . S
C1527 N1529 1.384 . S
N1528 C1524 1.427 . S
N1528 C1525 1.384 . S
N1529 C1521 1.427 . S
N1529 C1527 1.384 . S
H1530 C1536 0.930 . S
H1531 C1540 0.930 . S
H1532 C1545 0.929 . S
H1533 C1543 0.929 . S
H1534 C1538 0.929 . S
H1535 C1544 0.929 . S
C1536 H1530 0.930 . S
C1536 C1537 1.367 . S
C1536 C1544 1.378 . S
C1537 C1536 1.367 . S
C1537 C1545 1.433 . S
C1538 H1534 0.929 . S
C1538 C1540 1.378 . S
C1538 C1542 1.350 . S
C1539 C1542 1.463 . S
C1539 C1544 1.350 . S
C1539 N1547 1.427 . S
C1540 H1531 0.930 . S
C1540 C1538 1.378 . S
C1540 C1541 1.367 . S
C1541 C1540 1.367 . S
C1541 C1543 1.433 . S
C1542 C1538 1.350 . S
C1542 C1539 1.463 . S
C1542 N1546 1.427 . S
C1543 H1533 0.929 . S
C1543 C1541 1.433 . S
C1543 N1546 1.384 . S
C1544 H1535 0.929 . S
C1544 C1536 1.378 . S
C1544 C1539 1.350 . S
C1545 H1532 0.929 . S
C1545 C1537 1.433 . S
C1545 N1547 1.384 . S
N1546 C1542 1.427 . S
N1546 C1543 1.384 . S
N1547 C1539 1.427 . S
N1547 C1545 1.384 . S
H1548 C1554 0.930 . S
H1549 C1558 0.930 . S
H1550 C1563 0.929 . S
H1551 C1561 0.929 . S
H1552 C1556 0.929 . S
H1553 C1562 0.929 . S
C1554 H1548 0.930 . S
C1554 C1555 1.367 . S
C1554 C1562 1.378 . S
C1555 C1554 1.367 . S
C1555 C1563 1.433 . S
C1556 H1552 0.929 . S
C1556 C1558 1.378 . S
C1556 C1560 1.350 . S
C1557 C1560 1.463 . S
C1557 C1562 1.350 . S
C1557 N1565 1.427 . S
C1558 H1549 0.930 . S
C1558 C1556 1.378 . S
C1558 C1559 1.367 . S
C1559 C1558 1.367 . S
C1559 C1561 1.433 . S
C1560 C1556 1.350 . S
C1560 C1557 1.463 . S
C1560 N1564 1.427 . S
C1561 H1551 0.929 . S
C1561 C1559 1.433 . S
C1561 N1564 1.384 . S
C1562 H1553 0.929 . S
C1562 C1554 1.378 . S
C1562 C1557 1.350 . S
C1563 H1550 0.929 . S
C1563 C1555 1.433 . S
C1563 N1565 1.384 . S
N1564 C1560 1.427 . S
N1564 C1561 1.384 . S
N1565 C1557 1.427 . S
N1565 C1563 1.384 . S
H1566 C1572 0.930 . S
H1567 C1576 0.930 . S
H1568 C1581 0.929 . S
H1569 C1579 0.929 . S
H1570 C1574 0.929 . S
H1571 C1580 0.929 . S
C1572 H1566 0.930 . S
C1572 C1573 1.367 . S
C1572 C1580 1.378 . S
C1573 C1572 1.367 . S
C1573 C1581 1.433 . S
C1574 H1570 0.929 . S
C1574 C1576 1.378 . S
C1574 C1578 1.350 . S
C1575 C1578 1.463 . S
C1575 C1580 1.350 . S
C1575 N1583 1.427 . S
C1576 H1567 0.930 . S
C1576 C1574 1.378 . S
C1576 C1577 1.367 . S
C1577 C1576 1.367 . S
C1577 C1579 1.433 . S
C1578 C1574 1.350 . S
C1578 C1575 1.463 . S
C1578 N1582 1.427 . S
C1579 H1569 0.929 . S
C1579 C1577 1.433 . S
C1579 N1582 1.384 . S
C1580 H1571 0.929 . S
C1580 C1572 1.378 . S
C1580 C1575 1.350 . S
C1581 H1568 0.929 . S
C1581 C1573 1.433 . S
C1581 N1583 1.384 . S
N1582 C1578 1.427 . S
N1582 C1579 1.384 . S
N1583 C1575 1.427 . S
N1583 C1581 1.384 . S
H1584 C1590 0.930 . S
H1585 C1594 0.930 1_554 S
H1586 C1599 0.929 . S
H1587 C1597 0.929 . S
H1588 C1592 0.929 . S
H1589 C1598 0.929 . S
C1590 H1584 0.930 . S
C1590 C1591 1.367 . S
C1590 C1598 1.378 . S
C1591 C1590 1.367 . S
C1591 C1599 1.433 . S
C1592 H1588 0.929 . S
C1592 C1594 1.378 . S
C1592 C1596 1.350 . S
C1593 C1596 1.463 . S
C1593 C1598 1.350 . S
C1593 N1601 1.427 . S
C1594 H1585 0.930 1_556 S
C1594 C1592 1.378 . S
C1594 C1595 1.367 . S
C1595 C1594 1.367 . S
C1595 C1597 1.433 . S
C1596 C1592 1.350 . S
C1596 C1593 1.463 . S
C1596 N1600 1.427 . S
C1597 H1587 0.929 . S
C1597 C1595 1.433 . S
C1597 N1600 1.384 . S
C1598 H1589 0.929 . S
C1598 C1590 1.378 . S
C1598 C1593 1.350 . S
C1599 H1586 0.929 . S
C1599 C1591 1.433 . S
C1599 N1601 1.384 . S
N1600 C1596 1.427 . S
N1600 C1597 1.384 . S
N1601 C1593 1.427 . S
N1601 C1599 1.384 . S
H1602 C1608 0.930 . S
H1603 C1612 0.930 . S
H1604 C1617 0.929 1_554 S
H1605 C1615 0.929 . S
H1606 C1610 0.929 . S
H1607 C1616 0.929 . S
C1608 H1602 0.930 . S
C1608 C1609 1.367 . S
C1608 C1616 1.378 . S
C1609 C1608 1.367 . S
C1609 C1617 1.433 . S
C1610 H1606 0.929 . S
C1610 C1612 1.378 . S
C1610 C1614 1.350 . S
C1611 C1614 1.463 . S
C1611 C1616 1.350 . S
C1611 N1619 1.427 . S
C1612 H1603 0.930 . S
C1612 C1610 1.378 . S
C1612 C1613 1.367 . S
C1613 C1612 1.367 . S
C1613 C1615 1.433 . S
C1614 C1610 1.350 . S
C1614 C1611 1.463 . S
C1614 N1618 1.427 . S
C1615 H1605 0.929 . S
C1615 C1613 1.433 . S
C1615 N1618 1.384 . S
C1616 H1607 0.929 . S
C1616 C1608 1.378 . S
C1616 C1611 1.350 . S
C1617 H1604 0.929 1_556 S
C1617 C1609 1.433 . S
C1617 N1619 1.384 . S
N1618 C1614 1.427 . S
N1618 C1615 1.384 . S
N1619 C1611 1.427 . S
N1619 C1617 1.384 . S
H1620 C1626 0.930 . S
H1621 C1630 0.930 . S
H1622 C1635 0.929 . S
H1623 C1633 0.929 . S
H1624 C1628 0.929 . S
H1625 C1634 0.929 . S
C1626 H1620 0.930 . S
C1626 C1627 1.367 . S
C1626 C1634 1.378 . S
C1627 C1626 1.367 . S
C1627 C1635 1.433 . S
C1628 H1624 0.929 . S
C1628 C1630 1.378 . S
C1628 C1632 1.350 . S
C1629 C1632 1.463 . S
C1629 C1634 1.350 . S
C1629 N1637 1.427 . S
C1630 H1621 0.930 . S
C1630 C1628 1.378 . S
C1630 C1631 1.367 . S
C1631 C1630 1.367 . S
C1631 C1633 1.433 . S
C1632 C1628 1.350 . S
C1632 C1629 1.463 . S
C1632 N1636 1.427 . S
C1633 H1623 0.929 . S
C1633 C1631 1.433 . S
C1633 N1636 1.384 . S
C1634 H1625 0.929 . S
C1634 C1626 1.378 . S
C1634 C1629 1.350 . S
C1635 H1622 0.929 . S
C1635 C1627 1.433 . S
C1635 N1637 1.384 . S
N1636 C1632 1.427 . S
N1636 C1633 1.384 . S
N1637 C1629 1.427 . S
N1637 C1635 1.384 . S
H1638 C1644 0.930 . S
H1639 C1648 0.930 . S
H1640 C1653 0.929 . S
H1641 C1651 0.929 . S
H1642 C1646 0.929 . S
H1643 C1652 0.929 . S
C1644 H1638 0.930 . S
C1644 C1645 1.367 . S
C1644 C1652 1.378 . S
C1645 C1644 1.367 . S
C1645 C1653 1.433 . S
C1646 H1642 0.929 . S
C1646 C1648 1.378 . S
C1646 C1650 1.350 . S
C1647 C1650 1.463 . S
C1647 C1652 1.350 . S
C1647 N1655 1.427 . S
C1648 H1639 0.930 . S
C1648 C1646 1.378 . S
C1648 C1649 1.367 . S
C1649 C1648 1.367 . S
C1649 C1651 1.433 . S
C1650 C1646 1.350 . S
C1650 C1647 1.463 . S
C1650 N1654 1.427 . S
C1651 H1641 0.929 . S
C1651 C1649 1.433 . S
C1651 N1654 1.384 . S
C1652 H1643 0.929 . S
C1652 C1644 1.378 . S
C1652 C1647 1.350 . S
C1653 H1640 0.929 . S
C1653 C1645 1.433 . S
C1653 N1655 1.384 . S
N1654 C1650 1.427 . S
N1654 C1651 1.384 . S
N1655 C1647 1.427 . S
N1655 C1653 1.384 . S
H1656 C1662 0.930 . S
H1657 C1666 0.930 . S
H1658 C1671 0.929 . S
H1659 C1669 0.929 . S
H1660 C1664 0.929 . S
H1661 C1670 0.929 . S
C1662 H1656 0.930 . S
C1662 C1663 1.367 . S
C1662 C1670 1.378 . S
C1663 C1662 1.367 . S
C1663 C1671 1.433 . S
C1664 H1660 0.929 . S
C1664 C1666 1.378 . S
C1664 C1668 1.350 . S
C1665 C1668 1.463 . S
C1665 C1670 1.350 . S
C1665 N1673 1.427 . S
C1666 H1657 0.930 . S
C1666 C1664 1.378 . S
C1666 C1667 1.367 . S
C1667 C1666 1.367 . S
C1667 C1669 1.433 . S
C1668 C1664 1.350 . S
C1668 C1665 1.463 . S
C1668 N1672 1.427 . S
C1669 H1659 0.929 . S
C1669 C1667 1.433 . S
C1669 N1672 1.384 . S
C1670 H1661 0.929 . S
C1670 C1662 1.378 . S
C1670 C1665 1.350 . S
C1671 H1658 0.929 . S
C1671 C1663 1.433 . S
C1671 N1673 1.384 . S
N1672 C1668 1.427 . S
N1672 C1669 1.384 . S
N1673 C1665 1.427 . S
N1673 C1671 1.384 . S
H1674 C1680 0.930 . S
H1675 C1684 0.930 . S
H1676 C1689 0.929 . S
H1677 C1687 0.929 . S
H1678 C1682 0.929 . S
H1679 C1688 0.929 . S
C1680 H1674 0.930 . S
C1680 C1681 1.367 . S
C1680 C1688 1.378 . S
C1681 C1680 1.367 . S
C1681 C1689 1.433 . S
C1682 H1678 0.929 . S
C1682 C1684 1.378 . S
C1682 C1686 1.350 . S
C1683 C1686 1.463 . S
C1683 C1688 1.350 . S
C1683 N1691 1.427 . S
C1684 H1675 0.930 . S
C1684 C1682 1.378 . S
C1684 C1685 1.367 . S
C1685 C1684 1.367 . S
C1685 C1687 1.433 . S
C1686 C1682 1.350 . S
C1686 C1683 1.463 . S
C1686 N1690 1.427 . S
C1687 H1677 0.929 . S
C1687 C1685 1.433 . S
C1687 N1690 1.384 . S
C1688 H1679 0.929 . S
C1688 C1680 1.378 . S
C1688 C1683 1.350 . S
C1689 H1676 0.929 . S
C1689 C1681 1.433 . S
C1689 N1691 1.384 . S
N1690 C1686 1.427 . S
N1690 C1687 1.384 . S
N1691 C1683 1.427 . S
N1691 C1689 1.384 . S
H1692 C1698 0.930 . S
H1693 C1702 0.930 . S
H1694 C1707 0.929 . S
H1695 C1705 0.929 . S
H1696 C1700 0.929 . S
H1697 C1706 0.929 . S
C1698 H1692 0.930 . S
C1698 C1699 1.367 . S
C1698 C1706 1.378 . S
C1699 C1698 1.367 . S
C1699 C1707 1.433 . S
C1700 H1696 0.929 . S
C1700 C1702 1.378 . S
C1700 C1704 1.350 . S
C1701 C1704 1.463 . S
C1701 C1706 1.350 . S
C1701 N1709 1.427 . S
C1702 H1693 0.930 . S
C1702 C1700 1.378 . S
C1702 C1703 1.367 . S
C1703 C1702 1.367 . S
C1703 C1705 1.433 . S
C1704 C1700 1.350 . S
C1704 C1701 1.463 . S
C1704 N1708 1.427 . S
C1705 H1695 0.929 . S
C1705 C1703 1.433 . S
C1705 N1708 1.384 . S
C1706 H1697 0.929 . S
C1706 C1698 1.378 . S
C1706 C1701 1.350 . S
C1707 H1694 0.929 . S
C1707 C1699 1.433 . S
C1707 N1709 1.384 . S
N1708 C1704 1.427 . S
N1708 C1705 1.384 . S
N1709 C1701 1.427 . S
N1709 C1707 1.384 . S
H1710 C1716 0.930 . S
H1711 C1720 0.930 . S
H1712 C1725 0.929 . S
H1713 C1723 0.929 . S
H1714 C1718 0.929 . S
H1715 C1724 0.929 . S
C1716 H1710 0.930 . S
C1716 C1717 1.367 . S
C1716 C1724 1.378 . S
C1717 C1716 1.367 . S
C1717 C1725 1.433 . S
C1718 H1714 0.929 . S
C1718 C1720 1.378 . S
C1718 C1722 1.350 . S
C1719 C1722 1.463 1_545 S
C1719 C1724 1.350 . S
C1719 N1727 1.462 . S
C1720 H1711 0.930 . S
C1720 C1718 1.378 . S
C1720 C1721 1.367 . S
C1721 C1720 1.367 . S
C1721 C1723 1.433 . S
C1722 C1718 1.350 . S
C1722 C1719 1.463 1_565 S
C1722 N1726 1.463 . S
C1723 H1713 0.929 . S
C1723 C1721 1.433 . S
C1723 N1726 1.416 . S
C1724 H1715 0.929 . S
C1724 C1716 1.378 . S
C1724 C1719 1.350 . S
C1725 H1712 0.929 . S
C1725 C1717 1.433 . S
C1725 N1727 1.415 . S
N1726 C1722 1.463 . S
N1726 C1723 1.416 . S
N1727 C1719 1.462 . S
N1727 C1725 1.415 . S
H1728 C1734 0.930 . S
H1729 C1738 0.930 . S
H1730 C1743 0.929 . S
H1731 C1741 0.929 . S
H1732 C1736 0.929 . S
H1733 C1742 0.929 . S
C1734 H1728 0.930 . S
C1734 C1735 1.367 . S
C1734 C1742 1.378 . S
C1735 C1734 1.367 . S
C1735 C1743 1.433 . S
C1736 H1732 0.929 . S
C1736 C1738 1.378 . S
C1736 C1740 1.350 . S
C1737 C1740 1.463 1_655 S
C1737 C1742 1.350 . S
C1737 N1745 1.427 1_655 S
C1738 H1729 0.930 . S
C1738 C1736 1.378 . S
C1738 C1739 1.367 . S
C1739 C1738 1.367 . S
C1739 C1741 1.433 . S
C1740 C1736 1.350 . S
C1740 C1737 1.463 1_455 S
C1740 N1744 1.427 1_455 S
C1741 H1731 0.929 . S
C1741 C1739 1.433 . S
C1741 N1744 1.375 1_455 S
C1742 H1733 0.929 . S
C1742 C1734 1.378 . S
C1742 C1737 1.350 . S
C1743 H1730 0.929 . S
C1743 C1735 1.433 . S
C1743 N1745 1.376 1_655 S
N1744 C1740 1.427 1_655 S
N1744 C1741 1.375 1_655 S
N1745 C1737 1.427 1_455 S
N1745 C1743 1.376 1_455 S
H1746 C1752 0.930 . S
H1747 C1756 0.930 . S
H1748 C1761 0.929 . S
H1749 C1759 0.929 . S
H1750 C1754 0.929 . S
H1751 C1760 0.929 . S
C1752 H1746 0.930 . S
C1752 C1753 1.367 . S
C1752 C1760 1.378 . S
C1753 C1752 1.367 . S
C1753 C1761 1.433 . S
C1754 H1750 0.929 . S
C1754 C1756 1.378 . S
C1754 C1758 1.350 . S
C1755 C1758 1.463 . S
C1755 C1760 1.350 . S
C1755 N1763 1.427 . S
C1756 H1747 0.930 . S
C1756 C1754 1.378 . S
C1756 C1757 1.367 . S
C1757 C1756 1.367 . S
C1757 C1759 1.433 . S
C1758 C1754 1.350 . S
C1758 C1755 1.463 . S
C1758 N1762 1.427 . S
C1759 H1749 0.929 . S
C1759 C1757 1.433 . S
C1759 N1762 1.384 . S
C1760 H1751 0.929 . S
C1760 C1752 1.378 . S
C1760 C1755 1.350 . S
C1761 H1748 0.929 . S
C1761 C1753 1.433 . S
C1761 N1763 1.384 . S
N1762 C1758 1.427 . S
N1762 C1759 1.384 . S
N1763 C1755 1.427 . S
N1763 C1761 1.384 . S
H1764 C1770 0.930 . S
H1765 C1774 0.930 . S
H1766 C1779 0.929 . S
H1767 C1777 0.929 . S
H1768 C1772 0.929 . S
H1769 C1778 0.929 . S
C1770 H1764 0.930 . S
C1770 C1771 1.367 . S
C1770 C1778 1.378 . S
C1771 C1770 1.367 . S
C1771 C1779 1.433 . S
C1772 H1768 0.929 . S
C1772 C1774 1.378 . S
C1772 C1776 1.350 . S
C1773 C1776 1.463 1_545 S
C1773 C1778 1.350 . S
C1773 N1781 1.427 1_545 S
C1774 H1765 0.930 . S
C1774 C1772 1.378 . S
C1774 C1775 1.367 . S
C1775 C1774 1.367 . S
C1775 C1777 1.433 . S
C1776 C1772 1.350 . S
C1776 C1773 1.463 1_565 S
C1776 N1780 1.427 1_565 S
C1777 H1767 0.929 . S
C1777 C1775 1.433 . S
C1777 N1780 1.384 1_565 S
C1778 H1769 0.929 . S
C1778 C1770 1.378 . S
C1778 C1773 1.350 . S
C1779 H1766 0.929 . S
C1779 C1771 1.433 . S
C1779 N1781 1.384 1_545 S
N1780 C1776 1.427 1_545 S
N1780 C1777 1.384 1_545 S
N1781 C1773 1.427 1_565 S
N1781 C1779 1.384 1_565 S
H1782 C1788 0.930 . S
H1783 C1792 0.930 . S
H1784 C1797 0.929 . S
H1785 C1795 0.929 . S
H1786 C1790 0.929 . S
H1787 C1796 0.929 . S
C1788 H1782 0.930 . S
C1788 C1789 1.367 . S
C1788 C1796 1.378 1_455 S
C1789 C1788 1.367 . S
C1789 C1797 1.433 . S
C1790 H1786 0.929 . S
C1790 C1792 1.378 1_455 S
C1790 C1794 1.350 1_455 S
C1791 C1794 1.463 1_455 S
C1791 C1796 1.350 1_455 S
C1791 N1799 1.427 . S
C1792 H1783 0.930 . S
C1792 C1790 1.378 1_655 S
C1792 C1793 1.367 . S
C1793 C1792 1.367 . S
C1793 C1795 1.433 . S
C1794 C1790 1.350 1_655 S
C1794 C1791 1.463 1_655 S
C1794 N1798 1.427 . S
C1795 H1785 0.929 . S
C1795 C1793 1.433 . S
C1795 N1798 1.384 . S
C1796 H1787 0.929 . S
C1796 C1788 1.378 1_655 S
C1796 C1791 1.350 1_655 S
C1797 H1784 0.929 . S
C1797 C1789 1.433 . S
C1797 N1799 1.384 . S
N1798 C1794 1.427 . S
N1798 C1795 1.384 . S
N1799 C1791 1.427 . S
N1799 C1797 1.384 . S
C511 C79 0.806 . S
C515 C9 0.797 . S
C529 C51 0.810 . S
C533 C23 0.796 . S
C547 C37 0.812 . S
C551 C65 0.796 . S
C565 C93 0.797 . S
C569 C163 0.805 . S
C583 C107 0.809 . S
C587 C135 0.806 . S
C601 C149 0.812 . S
C605 C121 0.796 . S
C619 C177 0.811 . S
C623 C247 0.796 . S
C637 C191 0.812 . S
C641 C219 0.797 . S
C655 C233 0.803 . S
C659 C205 0.798 . S
C673 C331 0.811 . S
C677 C261 0.803 . S
C691 C303 0.797 . S
C695 C275 0.806 . S
C709 C289 0.812 . S
C713 C317 0.796 . S
C727 C415 0.805 . S
C731 C345 0.797 . S
C745 C387 0.805 . S
C749 C359 0.810 . S
C763 C373 0.806 . S
C767 C401 0.796 . S
C781 C499 0.811 . S
C785 C429 0.796 . S
C799 C471 0.797 . S
C803 C443 0.813 . S
C817 C485 0.809 . S
C821 C457 0.805 . S
C835 C231 1.619 . S
C839 C7 1.611 . S
C853 C245 1.618 . S
C857 C21 1.629 . S
C871 C217 1.611 . S
C875 C35 1.622 . S
C889 C49 1.629 . S
C893 C371 1.621 1_554 S
C907 C63 1.628 . S
C911 C343 1.623 1_554 S
C925 C77 1.628 . S
C929 C357 1.615 1_554 S
C943 C91 1.611 . S
C947 C483 1.621 . S
C961 C497 1.616 . S
C965 C105 1.612 . S
C979 C469 1.622 . S
C983 C119 1.611 . S
C997 C287 1.620 1_556 S
C1001 C133 1.611 . S
C1015 C259 1.616 1_556 S
C1019 C147 1.612 . S
C1033 C161 1.629 . S
C1037 C273 1.621 1_556 S
C1051 C175 1.612 . S
C1055 C399 1.616 . S
C1069 C413 1.618 . S
C1073 C189 1.629 . S
C1087 C385 1.611 . S
C1091 C203 1.620 . S
C1105 C301 1.612 . S
C1109 C455 1.624 . S
C1123 C427 1.629 . S
C1127 C315 1.617 . S
C1141 C329 1.615 . S
C1145 C441 1.613 . S
C1159 C260 1.606 . S
C1163 C8 1.606 . S
C1177 C274 1.614 . S
C1181 C22 1.614 . S
C1195 C36 1.610 . S
C1199 C288 1.610 . S
C1213 C50 1.611 . S
C1217 C470 1.611 . S
C1231 C484 1.614 . S
C1235 C64 1.614 . S
C1249 C498 1.614 . S
C1253 C78 1.614 . S
C1267 C92 1.610 . S
C1271 C344 1.610 . S
C1285 C106 1.609 . S
C1289 C358 1.609 . S
C1303 C372 1.611 . S
C1307 C120 1.611 . S
C1321 C134 1.606 . S
C1325 C218 1.606 . S
C1339 C148 1.610 . S
C1343 C232 1.610 . S
C1357 C246 1.614 . S
C1361 C162 1.614 . S
C1375 C176 1.610 . S
C1379 C428 1.610 . S
C1393 C190 1.608 . S
C1397 C442 1.608 . S
C1411 C456 1.611 . S
C1415 C204 1.611 . S
C1429 C386 1.612 . S
C1433 C302 1.612 . S
C1447 C316 1.612 . S
C1451 C400 1.612 . S
C1465 C330 1.609 . S
C1469 C414 1.609 . S
C1483 C381 1.633 1_554 S
C1487 C3 1.637 . S
C1501 C17 1.638 . S
C1505 C395 1.644 1_554 S
C1519 C409 1.644 1_554 S
C1523 C31 1.632 . S
C1537 C45 1.632 . S
C1541 C171 1.637 . S
C1555 C185 1.637 . S
C1559 C59 1.645 . S
C1573 C199 1.644 . S
C1577 C73 1.639 . S
C1591 C87 1.642 . S
C1595 C297 1.639 1_556 S
C1609 C311 1.633 1_556 S
C1613 C101 1.638 . S
C1627 C115 1.632 . S
C1631 C325 1.644 1_556 S
C1645 C129 1.637 . S
C1649 C423 1.632 . S
C1663 C143 1.643 . S
C1667 C437 1.641 . S
C1681 C451 1.632 . S
C1685 C157 1.645 . S
C1699 C213 1.630 . S
C1703 C339 1.642 . S
C1717 C227 1.641 . S
C1721 C353 1.632 . S
C1735 C241 1.640 . S
C1739 C367 1.632 . S
C1753 C255 1.632 . S
C1757 C465 1.637 . S
C1771 C269 1.633 . S
C1775 C479 1.639 . S
C1789 C493 1.642 . S
C1793 C283 1.641 . S
