# Generated by pormake.
# Topology uou, (4)-cn, num edge types: 1
# Building blocks:
#     Node 0, Type 0, BuildingBlock: NAHDIM_clean_sbu_0, # of connection points: 4
#     Node 1, Type 0, BuildingBlock: NAHDIM_clean_sbu_0, # of connection points: 4
#     Node 2, Type 0, BuildingBlock: NAHDIM_clean_sbu_0, # of connection points: 4
#     Node 3, Type 0, BuildingBlock: NAHDIM_clean_sbu_0, # of connection points: 4
#     Node 4, Type 0, BuildingBlock: NAHDIM_clean_sbu_0, # of connection points: 4
#     Node 5, Type 0, BuildingBlock: NAHDIM_clean_sbu_0, # of connection points: 4
#     Node 6, Type 0, BuildingBlock: NAHDIM_clean_sbu_0, # of connection points: 4
#     Node 7, Type 0, BuildingBlock: NAHDIM_clean_sbu_0, # of connection points: 4
#     Node 8, Type 0, BuildingBlock: NAHDIM_clean_sbu_0, # of connection points: 4
#     Node 9, Type 0, BuildingBlock: NAHDIM_clean_sbu_0, # of connection points: 4
#     Node 10, Type 0, BuildingBlock: NAHDIM_clean_sbu_0, # of connection points: 4
#     Node 11, Type 0, BuildingBlock: NAHDIM_clean_sbu_0, # of connection points: 4
#     Node 12, Type 0, BuildingBlock: NAHDIM_clean_sbu_0, # of connection points: 4
#     Node 13, Type 0, BuildingBlock: NAHDIM_clean_sbu_0, # of connection points: 4
#     Node 14, Type 0, BuildingBlock: NAHDIM_clean_sbu_0, # of connection points: 4
#     Node 15, Type 0, BuildingBlock: NAHDIM_clean_sbu_0, # of connection points: 4
#     Edge 16, Type (0, 0), BuildingBlock: OJICUG_clean_linker_0, # of connection points: 2
#     Edge 17, Type (0, 0), BuildingBlock: OJICUG_clean_linker_0, # of connection points: 2
#     Edge 18, Type (0, 0), BuildingBlock: OJICUG_clean_linker_0, # of connection points: 2
#     Edge 19, Type (0, 0), BuildingBlock: OJICUG_clean_linker_0, # of connection points: 2
#     Edge 20, Type (0, 0), BuildingBlock: OJICUG_clean_linker_0, # of connection points: 2
#     Edge 21, Type (0, 0), BuildingBlock: OJICUG_clean_linker_0, # of connection points: 2
#     Edge 22, Type (0, 0), BuildingBlock: OJICUG_clean_linker_0, # of connection points: 2
#     Edge 23, Type (0, 0), BuildingBlock: OJICUG_clean_linker_0, # of connection points: 2
#     Edge 24, Type (0, 0), BuildingBlock: OJICUG_clean_linker_0, # of connection points: 2
#     Edge 25, Type (0, 0), BuildingBlock: OJICUG_clean_linker_0, # of connection points: 2
#     Edge 26, Type (0, 0), BuildingBlock: OJICUG_clean_linker_0, # of connection points: 2
#     Edge 27, Type (0, 0), BuildingBlock: OJICUG_clean_linker_0, # of connection points: 2
#     Edge 28, Type (0, 0), BuildingBlock: OJICUG_clean_linker_0, # of connection points: 2
#     Edge 29, Type (0, 0), BuildingBlock: OJICUG_clean_linker_0, # of connection points: 2
#     Edge 30, Type (0, 0), BuildingBlock: OJICUG_clean_linker_0, # of connection points: 2
#     Edge 31, Type (0, 0), BuildingBlock: OJICUG_clean_linker_0, # of connection points: 2
#     Edge 32, Type (0, 0), BuildingBlock: OJICUG_clean_linker_0, # of connection points: 2
#     Edge 33, Type (0, 0), BuildingBlock: OJICUG_clean_linker_0, # of connection points: 2
#     Edge 34, Type (0, 0), BuildingBlock: OJICUG_clean_linker_0, # of connection points: 2
#     Edge 35, Type (0, 0), BuildingBlock: OJICUG_clean_linker_0, # of connection points: 2
#     Edge 36, Type (0, 0), BuildingBlock: OJICUG_clean_linker_0, # of connection points: 2
#     Edge 37, Type (0, 0), BuildingBlock: OJICUG_clean_linker_0, # of connection points: 2
#     Edge 38, Type (0, 0), BuildingBlock: OJICUG_clean_linker_0, # of connection points: 2
#     Edge 39, Type (0, 0), BuildingBlock: OJICUG_clean_linker_0, # of connection points: 2
#     Edge 40, Type (0, 0), BuildingBlock: OJICUG_clean_linker_0, # of connection points: 2
#     Edge 41, Type (0, 0), BuildingBlock: OJICUG_clean_linker_0, # of connection points: 2
#     Edge 42, Type (0, 0), BuildingBlock: OJICUG_clean_linker_0, # of connection points: 2
#     Edge 43, Type (0, 0), BuildingBlock: OJICUG_clean_linker_0, # of connection points: 2
#     Edge 44, Type (0, 0), BuildingBlock: OJICUG_clean_linker_0, # of connection points: 2
#     Edge 45, Type (0, 0), BuildingBlock: OJICUG_clean_linker_0, # of connection points: 2
#     Edge 46, Type (0, 0), BuildingBlock: OJICUG_clean_linker_0, # of connection points: 2
#     Edge 47, Type (0, 0), BuildingBlock: OJICUG_clean_linker_0, # of connection points: 2
# Relax obj value: 0.104
# Max RMSD: 0.144
# Mean RMSD: 0.144
data_MOF--net-uou--node1-NAHDIM_clean_sbu_0--edge1-OJICUG_clean_linker_0
_symmetry_space_group_name_H-M    P1
_symmetry_Int_Tables_number       1
_symmetry_cell_setting            triclinic
loop_
_symmetry_equiv_pos_as_xyz
'x, y, z'
_cell_length_a     30.07912
_cell_length_b     28.961891
_cell_length_c     37.803569
_cell_angle_alpha  89.940827
_cell_angle_beta   90.189267
_cell_angle_gamma 90.087385
loop_
_atom_site_label
_atom_site_type_symbol
_atom_site_fract_x
_atom_site_fract_y
_atom_site_fract_z
_atom_type_partial_charge
C0 C 0.12564 0.01615 0.10886 0.0
O1 O 0.09587 0.98294 0.10751 0.0
O2 O 0.02077 0.04597 0.15957 0.0
Zn3 Zn 0.04638 0.06849 0.11366 0.0
O4 O 0.01803 0.03479 0.07326 0.0
C5 C 0.02616 0.15986 0.13745 0.0
O6 O 0.03685 0.1411 0.16796 0.0
O7 O 0.11251 0.05765 0.11212 0.0
C8 C 0.02902 0.04624 0.04206 0.0
O9 O 0.05847 0.07928 0.03761 0.0
C10 C 0.97869 0.04728 0.16216 0.0
O11 O 0.95514 0.05849 0.13411 0.0
O12 O 0.0302 0.13606 0.10939 0.0
C13 C 0.31293 0.97319 0.09697 0.0
O14 O 0.34258 0.00656 0.0974 0.0
O15 O 0.41961 0.95008 0.13866 0.0
Zn16 Zn 0.39274 0.9219 0.09481 0.0
O17 O 0.4174 0.94977 0.05037 0.0
C18 C 0.45173 0.84699 0.0971 0.0
O19 O 0.47902 0.88232 0.09942 0.0
O20 O 0.32631 0.93159 0.09535 0.0
C21 C 0.45325 0.97291 0.04925 0.0
O22 O 0.475 0.98137 0.07874 0.0
C23 C 0.39759 0.94759 0.16724 0.0
O24 O 0.35763 0.92925 0.16654 0.0
O25 O 0.41014 0.85463 0.0949 0.0
C26 C 0.62967 0.99198 0.35618 0.0
O27 O 0.59926 0.02441 0.35793 0.0
O28 O 0.52521 0.96147 0.30466 0.0
Zn29 Zn 0.55142 0.93788 0.35014 0.0
O30 O 0.52245 0.97011 0.39073 0.0
C31 C 0.53095 0.84673 0.3251 0.0
O32 O 0.53958 0.86657 0.29462 0.0
O33 O 0.61734 0.95026 0.35219 0.0
C34 C 0.53146 0.95702 0.42199 0.0
O35 O 0.55978 0.92304 0.42671 0.0
C36 C 0.48304 0.96239 0.30278 0.0
O37 O 0.45989 0.95201 0.33113 0.0
O38 O 0.53622 0.86983 0.35342 0.0
C39 C 0.81617 0.03915 0.36911 0.0
O40 O 0.84641 0.00648 0.36807 0.0
O41 O 0.92122 0.06476 0.32735 0.0
Zn42 Zn 0.89522 0.0915 0.37195 0.0
O43 O 0.92041 0.06162 0.4156 0.0
C44 C 0.95379 0.16724 0.37305 0.0
O45 O 0.98157 0.13228 0.37278 0.0
O46 O 0.82884 0.08099 0.37143 0.0
C47 C 0.95462 0.03599 0.41564 0.0
O48 O 0.97476 0.02713 0.38562 0.0
C49 C 0.89858 0.06823 0.29902 0.0
O50 O 0.85903 0.08731 0.30033 0.0
O51 O 0.9122 0.15898 0.37296 0.0
C52 C 0.85304 0.98533 0.85463 0.0
O53 O 0.8828 0.01854 0.85598 0.0
O54 O 0.95791 0.95553 0.80392 0.0
Zn55 Zn 0.93231 0.933 0.84983 0.0
O56 O 0.96065 0.96671 0.89023 0.0
C57 C 0.95255 0.84163 0.82604 0.0
O58 O 0.94186 0.86039 0.79552 0.0
O59 O 0.86618 0.94383 0.85136 0.0
C60 C 0.94966 0.95526 0.92143 0.0
O61 O 0.92021 0.92222 0.92588 0.0
C62 C -1e-05 0.95424 0.80133 0.0
O63 O 0.02355 0.94303 0.82938 0.0
O64 O 0.94851 0.86543 0.85409 0.0
C65 C 0.66574 0.02825 0.86651 0.0
O66 O 0.6361 0.99487 0.86608 0.0
O67 O 0.55906 0.05134 0.82481 0.0
Zn68 Zn 0.58592 0.07952 0.86867 0.0
O69 O 0.56127 0.05164 0.9131 0.0
C70 C 0.52692 0.15442 0.86637 0.0
O71 O 0.49964 0.11909 0.86406 0.0
O72 O 0.65235 0.06984 0.86813 0.0
C73 C 0.52541 0.0285 0.91422 0.0
O74 O 0.50366 0.02004 0.88473 0.0
C75 C 0.58108 0.05382 0.79624 0.0
O76 O 0.62104 0.07216 0.79694 0.0
O77 O 0.56852 0.14679 0.86857 0.0
C78 C 0.349 0.00949 0.60729 0.0
O79 O 0.37941 0.97705 0.60554 0.0
O80 O 0.45347 0.03997 0.6588 0.0
Zn81 Zn 0.42727 0.06358 0.61333 0.0
O82 O 0.45623 0.03135 0.57273 0.0
C83 C 0.44775 0.15472 0.63837 0.0
O84 O 0.43912 0.13487 0.66885 0.0
O85 O 0.36135 0.05121 0.61127 0.0
C86 C 0.44722 0.04444 0.54148 0.0
O87 O 0.41891 0.07842 0.53676 0.0
C88 C 0.49564 0.03905 0.66069 0.0
O89 O 0.51879 0.04942 0.63234 0.0
O90 O 0.44247 0.13163 0.61006 0.0
C91 C 0.1625 0.96234 0.59436 0.0
O92 O 0.13227 0.99503 0.5954 0.0
O93 O 0.05745 0.93676 0.63613 0.0
Zn94 Zn 0.08344 0.91001 0.59154 0.0
O95 O 0.05826 0.93988 0.54789 0.0
C96 C 0.02486 0.83428 0.59044 0.0
O97 O -0.00291 0.86924 0.59071 0.0
O98 O 0.14982 0.92051 0.59204 0.0
C99 C 0.02404 0.96551 0.54785 0.0
O100 O 0.0039 0.97438 0.57786 0.0
C101 C 0.08009 0.9333 0.66446 0.0
O102 O 0.11965 0.91422 0.66315 0.0
O103 O 0.06645 0.84253 0.59052 0.0
C104 C 0.66008 0.53426 0.09648 0.0
O105 O 0.62956 0.50173 0.09654 0.0
O106 O 0.55501 0.5588 0.13873 0.0
Zn107 Zn 0.58149 0.58654 0.09466 0.0
O108 O 0.55698 0.55807 0.05036 0.0
C109 C 0.52253 0.66128 0.09581 0.0
O110 O 0.49527 0.62584 0.09711 0.0
O111 O 0.64778 0.57625 0.09525 0.0
C112 C 0.52248 0.53283 0.04921 0.0
O113 O 0.50133 0.52312 0.07865 0.0
C114 C 0.5777 0.56137 0.16709 0.0
O115 O 0.61772 0.57949 0.16591 0.0
O116 O 0.56419 0.65378 0.09445 0.0
C117 C 0.84612 0.48528 0.10716 0.0
O118 O 0.87683 0.51757 0.10607 0.0
O119 O 0.95208 0.45427 0.15455 0.0
Zn120 Zn 0.92388 0.4308 0.11014 0.0
O121 O 0.95184 0.46455 0.07009 0.0
C122 C 0.94338 0.34017 0.13523 0.0
O123 O 0.93319 0.36019 0.1653 0.0
O124 O 0.85809 0.44329 0.1096 0.0
C125 C 0.94671 0.45108 0.03845 0.0
O126 O 0.92228 0.41435 0.03206 0.0
C127 C -0.0057 0.45296 0.15531 0.0
O128 O 0.01572 0.43977 0.12682 0.0
O129 O 0.93921 0.36296 0.10664 0.0
C130 C 0.16162 0.48109 0.36451 0.0
O131 O 0.13222 0.51412 0.36004 0.0
O132 O 0.05936 0.44989 0.31789 0.0
Zn133 Zn 0.08183 0.42912 0.36502 0.0
O134 O 0.05042 0.46637 0.40165 0.0
C135 C 0.02249 0.35402 0.36829 0.0
O136 O -0.00492 0.3888 0.36363 0.0
O137 O 0.14799 0.43974 0.36805 0.0
C138 C 0.04363 0.45023 0.43238 0.0
O139 O 0.0593 0.40925 0.44058 0.0
C140 C 0.08252 0.44647 0.29003 0.0
O141 O 0.12324 0.43037 0.29225 0.0
O142 O 0.06403 0.3622 0.37026 0.0
C143 C 0.34973 0.5229 0.35839 0.0
O144 O 0.3791 0.48951 0.36099 0.0
O145 O 0.45407 0.55023 0.30619 0.0
Zn146 Zn 0.42966 0.57418 0.35198 0.0
O147 O 0.45848 0.54011 0.39202 0.0
C148 C 0.45082 0.66475 0.32666 0.0
O149 O 0.43988 0.64512 0.29654 0.0
O150 O 0.36339 0.56409 0.35399 0.0
C151 C 0.44778 0.54935 0.42368 0.0
O152 O 0.41771 0.58127 0.42959 0.0
C153 C 0.49613 0.5482 0.30377 0.0
O154 O 0.52034 0.55783 0.33181 0.0
O155 O 0.44685 0.64173 0.35516 0.0
C156 C 0.31858 0.46716 0.86701 0.0
O157 O 0.3491 0.49968 0.86694 0.0
O158 O 0.42364 0.44262 0.82476 0.0
Zn159 Zn 0.39716 0.41487 0.86882 0.0
O160 O 0.42167 0.44334 0.91312 0.0
C161 C 0.45611 0.34013 0.86767 0.0
O162 O 0.48337 0.37557 0.86637 0.0
O163 O 0.33087 0.42517 0.86823 0.0
C164 C 0.45617 0.46858 0.91427 0.0
O165 O 0.47732 0.47829 0.88483 0.0
C166 C 0.40095 0.44004 0.7964 0.0
O167 O 0.36093 0.4219 0.79757 0.0
O168 O 0.41445 0.34763 0.86904 0.0
C169 C 0.13255 0.51619 0.85633 0.0
O170 O 0.10183 0.48391 0.85742 0.0
O171 O 0.02659 0.54723 0.80895 0.0
Zn172 Zn 0.0548 0.57069 0.85336 0.0
O173 O 0.02683 0.53695 0.89341 0.0
C174 C 0.03533 0.66132 0.82827 0.0
O175 O 0.04552 0.6413 0.7982 0.0
O176 O 0.12059 0.55819 0.85389 0.0
C177 C 0.03197 0.55042 0.92505 0.0
O178 O 0.0564 0.58714 0.93144 0.0
C179 C 0.98437 0.54856 0.80819 0.0
O180 O 0.96296 0.56175 0.83668 0.0
O181 O 0.03948 0.63853 0.85686 0.0
C182 C 0.81704 0.52042 0.599 0.0
O183 O 0.84644 0.48739 0.60347 0.0
O184 O 0.91929 0.55163 0.64561 0.0
Zn185 Zn 0.89682 0.57239 0.59849 0.0
O186 O 0.92823 0.53515 0.56186 0.0
C187 C 0.95615 0.64749 0.59522 0.0
O188 O 0.98357 0.61271 0.59988 0.0
O189 O 0.83066 0.56177 0.59545 0.0
C190 C 0.93502 0.55129 0.53113 0.0
O191 O 0.91935 0.59226 0.52293 0.0
C192 C 0.89614 0.55506 0.67348 0.0
O193 O 0.85541 0.57116 0.67126 0.0
O194 O 0.91461 0.63931 0.59324 0.0
C195 C 0.62893 0.47858 0.60511 0.0
O196 O 0.59956 0.51196 0.60251 0.0
O197 O 0.52459 0.45122 0.6573 0.0
Zn198 Zn 0.54901 0.42728 0.61151 0.0
O199 O 0.52018 0.46136 0.57147 0.0
C200 C 0.52787 0.33671 0.63682 0.0
O201 O 0.53881 0.35633 0.66694 0.0
O202 O 0.61528 0.43739 0.60951 0.0
C203 C 0.53089 0.45211 0.53981 0.0
O204 O 0.56096 0.4202 0.5339 0.0
C205 C 0.48253 0.45323 0.65972 0.0
O206 O 0.45832 0.44359 0.63168 0.0
O207 O 0.53183 0.35973 0.60832 0.0
C208 C 0.25078 0.03013 0.10286 0.0
C209 C 0.26497 0.98407 0.09966 0.0
H210 H 0.19582 0.07642 0.10838 0.0
C211 C 0.23295 0.9487 0.09958 0.0
H212 H 0.27457 0.05824 0.10307 0.0
C213 C 0.18776 0.95917 0.10264 0.0
C214 C 0.17358 0.00522 0.1059 0.0
H215 H 0.24275 0.91287 0.0972 0.0
H216 H 0.16396 0.93107 0.10246 0.0
C217 C 0.2056 0.04059 0.10597 0.0
C218 C 0.69069 0.0503 0.36351 0.0
C219 C 0.6774 0.00401 0.35945 0.0
H220 H 0.74481 0.09777 0.3698 0.0
C221 C 0.71011 0.96945 0.35887 0.0
H222 H 0.66634 0.0778 0.36411 0.0
C223 C 0.75509 0.98092 0.36223 0.0
C224 C 0.7684 0.02721 0.36621 0.0
H225 H 0.70102 0.93346 0.35585 0.0
H226 H 0.77942 0.95341 0.36159 0.0
C227 C 0.73569 0.06178 0.36683 0.0
C228 C 0.79091 0.0423 0.86085 0.0
C229 C 0.8051 0.99624 0.85758 0.0
H230 H 0.7359 0.08858 0.86628 0.0
C231 C 0.77308 0.96087 0.85752 0.0
H232 H 0.8147 0.0704 0.86103 0.0
C233 C 0.7279 0.97132 0.86062 0.0
C234 C 0.7137 0.01737 0.86382 0.0
H235 H 0.78288 0.92504 0.85511 0.0
H236 H 0.70412 0.9432 0.86041 0.0
C237 C 0.74571 0.05275 0.8639 0.0
C238 C 0.24298 0.9397 0.59664 0.0
C239 C 0.21028 0.97428 0.59726 0.0
H240 H 0.31232 0.92368 0.59936 0.0
C241 C 0.22359 0.02057 0.60123 0.0
H242 H 0.23385 0.90372 0.59367 0.0
C243 C 0.26857 0.03203 0.60459 0.0
C244 C 0.30128 0.99747 0.60401 0.0
H245 H 0.19927 0.04808 0.60187 0.0
H246 H 0.27766 0.06802 0.60761 0.0
C247 C 0.28798 0.95118 0.59995 0.0
C248 C 0.76549 0.46343 0.10441 0.0
C249 C 0.7985 0.49779 0.10469 0.0
H250 H 0.69604 0.44798 0.10148 0.0
C251 C 0.78562 0.54435 0.10214 0.0
H252 H 0.77427 0.42725 0.10629 0.0
C253 C 0.74071 0.55628 0.09935 0.0
C254 C 0.70772 0.5219 0.09903 0.0
H255 H 0.81021 0.5717 0.10225 0.0
H256 H 0.7319 0.59245 0.09748 0.0
C257 C 0.72061 0.47535 0.10159 0.0
C258 C 0.26985 0.54775 0.35753 0.0
C259 C 0.3016 0.51241 0.36051 0.0
H260 H 0.20087 0.56561 0.35656 0.0
C261 C 0.28692 0.46673 0.36546 0.0
H262 H 0.28002 0.5833 0.35376 0.0
C263 C 0.24152 0.45656 0.36711 0.0
C264 C 0.20976 0.49185 0.36384 0.0
H265 H 0.31048 0.43866 0.36793 0.0
H266 H 0.23135 0.42097 0.37072 0.0
C267 C 0.22445 0.53757 0.35917 0.0
C268 C 0.19304 0.4571 0.86135 0.0
C269 C 0.18017 0.50367 0.8588 0.0
H270 H 0.24674 0.40899 0.866 0.0
C271 C 0.21318 0.53802 0.85907 0.0
H272 H 0.16844 0.42976 0.86124 0.0
C273 C 0.25806 0.52608 0.86189 0.0
C274 C 0.27094 0.47953 0.86446 0.0
H275 H 0.20441 0.5742 0.8572 0.0
H276 H 0.28264 0.55345 0.86201 0.0
C277 C 0.23794 0.44516 0.86413 0.0
C278 C 0.70881 0.45375 0.60598 0.0
C279 C 0.67706 0.48908 0.60299 0.0
H280 H 0.7778 0.43589 0.60695 0.0
C281 C 0.69174 0.53476 0.59804 0.0
H282 H 0.69865 0.41819 0.60974 0.0
C283 C 0.73714 0.54494 0.5964 0.0
C284 C 0.76889 0.50966 0.59967 0.0
H285 H 0.66816 0.56283 0.59557 0.0
H286 H 0.7473 0.58053 0.59279 0.0
C287 C 0.75422 0.46393 0.60434 0.0
C288 C 0.96349 0.04525 0.26151 0.0
C289 C 0.91809 0.05595 0.26446 0.0
H290 H 0.01838 0.03371 0.22671 0.0
C291 C 0.89202 0.05831 0.23361 0.0
H292 H 0.98443 0.04295 0.28481 0.0
C293 C 0.91138 0.05282 0.20039 0.0
C294 C 0.95728 0.04502 0.19728 0.0
H295 H 0.85683 0.066 0.235 0.0
H296 H 0.89059 0.05664 0.17713 0.0
C297 C 0.98293 0.03991 0.2282 0.0
C298 C 0.39349 0.95743 0.23273 0.0
C299 C 0.41862 0.95905 0.20151 0.0
H300 H 0.39406 0.95798 0.28924 0.0
C301 C 0.46456 0.96755 0.20381 0.0
H302 H 0.35795 0.95143 0.23184 0.0
C303 C 0.48536 0.97121 0.23682 0.0
C304 C 0.46055 0.96661 0.2681 0.0
H305 H 0.48481 0.96921 0.1802 0.0
H306 H 0.52111 0.97561 0.23779 0.0
C307 C 0.41421 0.96127 0.26568 0.0
C308 C 0.08666 0.94322 0.72987 0.0
C309 C 0.06058 0.94558 0.69902 0.0
H310 H 0.0881 0.9449 0.78635 0.0
C311 C 0.01518 0.95627 0.70198 0.0
H312 H 0.12185 0.93554 0.72848 0.0
C313 C -0.00426 0.9616 0.73528 0.0
C314 C 0.0214 0.95649 0.76621 0.0
H315 H -0.00576 0.95856 0.67868 0.0
H316 H 0.9603 0.96779 0.73678 0.0
C317 C 0.06731 0.94871 0.76309 0.0
C318 C 0.56446 0.04015 0.6978 0.0
C319 C 0.51812 0.03482 0.69537 0.0
H320 H 0.62073 0.04998 0.73163 0.0
C321 C 0.49331 0.03022 0.72664 0.0
H322 H 0.58461 0.04343 0.67423 0.0
C323 C 0.51411 0.03387 0.75966 0.0
C324 C 0.56005 0.04237 0.76197 0.0
H325 H 0.45756 0.02583 0.72567 0.0
H326 H 0.49385 0.03222 0.78327 0.0
C327 C 0.58519 0.04398 0.73074 0.0
C328 C 0.58359 0.55133 0.23249 0.0
C329 C 0.55749 0.55025 0.20163 0.0
H330 H 0.58473 0.55076 0.28899 0.0
C331 C 0.51149 0.54266 0.20457 0.0
H332 H 0.61921 0.55661 0.23109 0.0
C333 C 0.49163 0.53942 0.23788 0.0
C334 C 0.51747 0.54351 0.26879 0.0
H335 H 0.4905 0.54145 0.18125 0.0
H336 H 0.45584 0.53576 0.23935 0.0
C337 C 0.56381 0.54789 0.26572 0.0
C338 C 0.01654 0.46711 0.25298 0.0
C339 C 0.06169 0.4549 0.25522 0.0
H340 H 0.95984 0.47648 0.21952 0.0
C341 C 0.0856 0.44732 0.22393 0.0
H342 H -0.00275 0.47356 0.2766 0.0
C343 C 0.06413 0.44916 0.19116 0.0
C344 C 0.01835 0.45848 0.18912 0.0
H345 H 0.12051 0.43824 0.22477 0.0
H346 H 0.08307 0.44133 0.1676 0.0
C347 C -0.00493 0.46882 0.22025 0.0
C348 C 0.41484 0.45351 0.69777 0.0
C349 C 0.46118 0.45791 0.6947 0.0
H350 H 0.35945 0.44477 0.73239 0.0
C351 C 0.48702 0.46201 0.72561 0.0
H352 H 0.39393 0.45063 0.67449 0.0
C353 C 0.46716 0.45877 0.75891 0.0
C354 C 0.42116 0.45116 0.76186 0.0
H355 H 0.5228 0.46569 0.72413 0.0
H356 H 0.48814 0.45999 0.78224 0.0
C357 C 0.39506 0.45006 0.73099 0.0
C358 C 0.91453 0.55238 0.77235 0.0
C359 C 0.96032 0.54304 0.77439 0.0
H360 H 0.85816 0.56331 0.73874 0.0
C361 C 0.98359 0.53269 0.74326 0.0
H362 H 0.8956 0.56021 0.7959 0.0
C363 C 0.96211 0.5344 0.71053 0.0
C364 C 0.91697 0.54663 0.70829 0.0
H365 H 0.01882 0.52502 0.74398 0.0
H366 H 0.9814 0.52794 0.68691 0.0
C367 C 0.89306 0.55422 0.73958 0.0
C368 C -0.00501 0.22774 0.10406 0.0
C369 C 0.00577 0.20637 0.13639 0.0
H370 H 0.96663 0.28678 0.07823 0.0
C371 C -0.00483 0.22906 0.16809 0.0
H372 H 0.00256 0.21107 0.07917 0.0
C373 C 0.97422 0.27201 0.16756 0.0
C374 C 0.96357 0.29356 0.13531 0.0
H375 H 0.00272 0.21351 0.19348 0.0
H376 H 0.96675 0.28848 0.19255 0.0
C377 C 0.97423 0.271 0.10352 0.0
C378 C 0.51589 0.79198 0.0972 0.0
C379 C 0.46966 0.79941 0.0968 0.0
H380 H 0.56889 0.74269 0.09711 0.0
C381 C 0.44107 0.76106 0.09602 0.0
H382 H 0.53889 0.82078 0.09777 0.0
C383 C 0.45834 0.71627 0.09572 0.0
C384 C 0.50457 0.70885 0.09606 0.0
H385 H 0.40533 0.76558 0.09571 0.0
H386 H 0.43534 0.68747 0.09515 0.0
C387 C 0.53315 0.7472 0.09678 0.0
C388 C 0.48205 0.73382 0.35862 0.0
C389 C 0.47078 0.71157 0.32677 0.0
H390 H 0.51008 0.79396 0.38318 0.0
C391 C 0.48022 0.73383 0.2946 0.0
H392 H 0.47538 0.71753 0.38386 0.0
C393 C 0.50042 0.77724 0.29421 0.0
C394 C 0.51151 0.79969 0.32598 0.0
H395 H 0.47225 0.71763 0.26955 0.0
H396 H 0.50696 0.79335 0.26888 0.0
C397 C 0.5021 0.77753 0.35823 0.0
C398 C 0.03395 0.26844 0.37308 0.0
C399 C 0.00497 0.30627 0.37046 0.0
H400 H 0.04053 0.19503 0.37594 0.0
C401 C 0.95886 0.29806 0.36936 0.0
H402 H 0.06961 0.27355 0.374 0.0
C403 C 0.94211 0.253 0.37054 0.0
C404 C 0.97112 0.21515 0.37275 0.0
H405 H 0.93557 0.32644 0.36741 0.0
H406 H 0.90646 0.24787 0.36942 0.0
C407 C 0.01721 0.2234 0.37416 0.0
C408 C 0.00447 0.73049 0.85997 0.0
C409 C 0.01514 0.70794 0.82819 0.0
H410 H 0.97614 0.79042 0.88432 0.0
C411 C 0.0045 0.72949 0.79594 0.0
H412 H 0.01206 0.71472 0.88527 0.0
C413 C 0.98355 0.77244 0.7954 0.0
C414 C 0.97294 0.79513 0.8271 0.0
H415 H 0.01198 0.71302 0.77095 0.0
H416 H 0.97602 0.78799 0.77001 0.0
C417 C 0.98371 0.77376 0.85943 0.0
C418 C 0.44549 0.25421 0.8667 0.0
C419 C 0.47408 0.29256 0.86741 0.0
H420 H 0.43976 0.18063 0.86571 0.0
C421 C 0.52031 0.28514 0.86776 0.0
H422 H 0.40975 0.25872 0.86637 0.0
C423 C 0.53758 0.24035 0.86746 0.0
C424 C 0.50899 0.202 0.86668 0.0
H425 H 0.5433 0.31395 0.86833 0.0
H426 H 0.57332 0.23583 0.86777 0.0
C427 C 0.46276 0.20943 0.86628 0.0
C428 C 0.4766 0.22393 0.60525 0.0
C429 C 0.46719 0.20176 0.6375 0.0
H430 H 0.5033 0.28393 0.57962 0.0
C431 C 0.47829 0.2242 0.66927 0.0
H432 H 0.4686 0.2075 0.58029 0.0
C433 C 0.49849 0.26762 0.66888 0.0
C434 C 0.50792 0.28988 0.63671 0.0
H435 H 0.47176 0.20809 0.6946 0.0
H436 H 0.50647 0.28382 0.69393 0.0
C437 C 0.49664 0.26763 0.60486 0.0
C438 C 0.03654 0.74851 0.59295 0.0
C439 C 0.00753 0.78636 0.59075 0.0
H440 H 0.04308 0.67508 0.59609 0.0
C441 C 0.96144 0.77811 0.58934 0.0
H442 H 0.07219 0.75364 0.59407 0.0
C443 C 0.9447 0.73307 0.59042 0.0
C444 C 0.97368 0.69524 0.59304 0.0
H445 H 0.93812 0.80649 0.58756 0.0
H446 H 0.90904 0.72797 0.58951 0.0
C447 C 0.01979 0.70346 0.59414 0.0
C448 C 0.00164 0.0137 0.94751 0.0
C449 C 0.96991 0.97859 0.95228 0.0
H450 H 0.04521 0.06257 0.97211 0.0
C451 C 0.95781 0.96587 -0.01319 0.0
H452 H 0.01169 0.0243 0.92124 0.0
C453 C 0.97705 0.9878 0.01597 0.0
C454 C 0.00877 0.02291 0.01121 0.0
H455 H 0.93347 0.93893 -0.00862 0.0
H456 H 0.96699 0.9772 0.04225 0.0
C457 C 0.02087 0.03564 0.97668 0.0
C458 C 0.46644 0.99014 0.9505 0.0
C459 C 0.50721 0.0137 0.9487 0.0
H460 H 0.41729 0.95905 -0.01638 0.0
C461 C 0.52992 0.02413 0.98029 0.0
H462 H 0.44805 0.98171 0.92668 0.0
C463 C 0.51222 0.01127 0.01297 0.0
C464 C 0.47146 0.98771 0.01477 0.0
H465 H 0.56138 0.04236 0.97985 0.0
H466 H 0.53061 0.0197 0.03679 0.0
C467 C 0.44875 0.97728 -0.01682 0.0
C468 C 0.45899 0.03658 0.47628 0.0
C469 C 0.46867 0.02201 0.5109 0.0
H470 H 0.47125 0.02754 0.42104 0.0
C471 C 0.49923 0.98593 0.51606 0.0
H472 H 0.43561 0.0643 0.47142 0.0
C473 C 0.51969 0.96487 0.48718 0.0
C474 C 0.51001 0.97945 0.45256 0.0
H475 H 0.50743 0.97391 0.54243 0.0
H476 H 0.54307 0.93716 0.49205 0.0
C477 C 0.47945 0.01552 0.4474 0.0
C478 C 0.02768 0.97361 0.48195 0.0
C479 C 0.00642 0.98384 0.51408 0.0
H480 H 0.02797 0.98189 0.42569 0.0
C481 C 0.9679 0.01116 0.51353 0.0
H482 H 0.05742 0.95259 0.48143 0.0
C483 C 0.95098 0.02789 0.48154 0.0
C484 C 0.97224 0.01767 0.44941 0.0
H485 H 0.95069 0.01961 0.53779 0.0
H486 H 0.92124 0.04892 0.48205 0.0
C487 C 0.01077 0.99034 0.44996 0.0
C488 C 0.46674 0.48933 0.01286 0.0
C489 C 0.50565 0.51604 0.01475 0.0
H490 H 0.42049 0.45355 0.97967 0.0
C491 C 0.52808 0.52726 -0.01671 0.0
H492 H 0.44864 0.48017 0.03658 0.0
C493 C 0.51191 0.51208 0.95063 0.0
C494 C 0.473 0.48536 0.94873 0.0
H495 H 0.55816 0.54786 -0.01619 0.0
H496 H 0.53001 0.52124 0.9269 0.0
C497 C 0.45057 0.47415 0.9802 0.0
C498 C -0.00558 0.51575 0.01663 0.0
C499 C 0.9684 0.47647 0.00939 0.0
H500 H 0.03495 0.56993 -0.00434 0.0
C501 C 0.96352 0.46171 0.97425 0.0
H502 H -0.00116 0.52801 0.04347 0.0
C503 C 0.98425 0.48575 0.94687 0.0
C504 C 0.01027 0.52503 0.95411 0.0
H505 H 0.94372 0.43157 0.96784 0.0
H506 H 0.97983 0.47349 0.92003 0.0
C507 C 0.01516 0.53979 -0.01075 0.0
C508 C 0.98008 0.48198 0.51498 0.0
C509 C 0.96232 0.52522 0.50568 0.0
H510 H 0.01989 0.42449 0.49922 0.0
C511 C 0.97183 0.54374 0.47221 0.0
H512 H 0.97345 0.46679 0.54063 0.0
C513 C -0.00143 0.51954 0.44852 0.0
C514 C 0.01633 0.4763 0.45783 0.0
H515 H 0.95875 0.57702 0.46429 0.0
H516 H 0.0052 0.53472 0.42288 0.0
C517 C 0.00682 0.45778 0.4913 0.0
C518 C 0.52141 0.46699 0.475 0.0
C519 C 0.50967 0.47699 0.51009 0.0
H520 H 0.51109 0.48196 0.42019 0.0
C521 C 0.47738 0.51098 0.51655 0.0
H522 H 0.54616 0.44099 0.46914 0.0
C523 C 0.45726 0.53448 0.48849 0.0
C524 C 0.469 0.52448 0.45339 0.0
H525 H 0.46758 0.5195 0.5433 0.0
H526 H 0.43251 0.56047 0.49435 0.0
C527 C 0.50128 0.49048 0.44694 0.0
loop_
_geom_bond_atom_site_label_1
_geom_bond_atom_site_label_2
_geom_bond_distance
_geom_bond_site_symmetry_2
_ccdc_geom_bond_type
C0 O1 1.160 . S
C0 O7 1.185 . S
O1 C0 1.160 . S
O2 Zn3 1.899 . S
O2 C10 1.284 . S
Zn3 O2 1.899 . S
Zn3 O4 2.032 . S
Zn3 O7 2.086 . S
Zn3 O12 1.977 . S
O4 Zn3 2.032 . S
O4 C8 1.278 . S
C5 O6 1.203 . S
C5 O12 1.267 . S
O6 C5 1.203 . S
O7 C0 1.185 . S
O7 Zn3 2.086 . S
C8 O4 1.278 . S
C8 O9 1.211 1_455 S
O9 C8 1.211 1_655 S
C10 O2 1.284 . S
C10 O11 1.273 1_455 S
O11 C10 1.273 1_655 S
O12 Zn3 1.977 . S
O12 C5 1.267 . S
C13 O14 1.160 . S
C13 O20 1.185 . S
O14 C13 1.160 . S
O15 Zn16 1.899 . S
O15 C23 1.284 . S
Zn16 O15 1.899 . S
Zn16 O17 2.032 . S
Zn16 O20 2.086 . S
Zn16 O25 1.977 . S
O17 Zn16 2.032 . S
O17 C21 1.278 . S
C18 O19 1.203 . S
C18 O25 1.267 . S
O19 C18 1.203 . S
O20 C13 1.185 . S
O20 Zn16 2.086 . S
C21 O17 1.278 . S
C21 O22 1.211 . S
O22 C21 1.211 . S
C23 O15 1.284 . S
C23 O24 1.273 . S
O24 C23 1.273 . S
O25 Zn16 1.977 . S
O25 C18 1.267 . S
C26 O27 1.160 . S
C26 O33 1.185 . S
O27 C26 1.160 . S
O28 Zn29 1.899 . S
O28 C36 1.284 . S
Zn29 O28 1.899 . S
Zn29 O30 2.032 . S
Zn29 O33 2.086 . S
Zn29 O38 1.977 . S
O30 Zn29 2.032 . S
O30 C34 1.278 . S
C31 O32 1.203 . S
C31 O38 1.267 . S
O32 C31 1.203 . S
O33 C26 1.185 . S
O33 Zn29 2.086 . S
C34 O30 1.278 . S
C34 O35 1.211 . S
O35 C34 1.211 . S
C36 O28 1.284 . S
C36 O37 1.273 . S
O37 C36 1.273 . S
O38 Zn29 1.977 . S
O38 C31 1.267 . S
C39 O40 1.160 . S
C39 O46 1.185 . S
O40 C39 1.160 . S
O41 Zn42 1.899 . S
O41 C49 1.284 . S
Zn42 O41 1.899 . S
Zn42 O43 2.032 . S
Zn42 O46 2.086 . S
Zn42 O51 1.977 . S
O43 Zn42 2.032 . S
O43 C47 1.278 . S
C44 O45 1.203 . S
C44 O51 1.267 . S
O45 C44 1.203 . S
O46 C39 1.185 . S
O46 Zn42 2.086 . S
C47 O43 1.278 . S
C47 O48 1.211 1_655 S
O48 C47 1.211 1_455 S
C49 O41 1.284 . S
C49 O50 1.273 1_655 S
O50 C49 1.273 1_455 S
O51 Zn42 1.977 . S
O51 C44 1.267 . S
C52 O53 1.160 . S
C52 O59 1.185 . S
O53 C52 1.160 . S
O54 Zn55 1.899 . S
O54 C62 1.284 . S
Zn55 O54 1.899 . S
Zn55 O56 2.032 . S
Zn55 O59 2.086 . S
Zn55 O64 1.977 . S
O56 Zn55 2.032 . S
O56 C60 1.278 . S
C57 O58 1.203 . S
C57 O64 1.267 . S
O58 C57 1.203 . S
O59 C52 1.185 . S
O59 Zn55 2.086 . S
C60 O56 1.278 . S
C60 O61 1.211 1_655 S
O61 C60 1.211 1_455 S
C62 O54 1.284 . S
C62 O63 1.273 1_655 S
O63 C62 1.273 1_455 S
O64 Zn55 1.977 . S
O64 C57 1.267 . S
C65 O66 1.160 . S
C65 O72 1.185 . S
O66 C65 1.160 . S
O67 Zn68 1.899 . S
O67 C75 1.284 . S
Zn68 O67 1.899 . S
Zn68 O69 2.032 . S
Zn68 O72 2.086 . S
Zn68 O77 1.977 . S
O69 Zn68 2.032 . S
O69 C73 1.278 . S
C70 O71 1.203 . S
C70 O77 1.267 . S
O71 C70 1.203 . S
O72 C65 1.185 . S
O72 Zn68 2.086 . S
C73 O69 1.278 . S
C73 O74 1.211 . S
O74 C73 1.211 . S
C75 O67 1.284 . S
C75 O76 1.273 . S
O76 C75 1.273 . S
O77 Zn68 1.977 . S
O77 C70 1.267 . S
C78 O79 1.160 . S
C78 O85 1.185 . S
O79 C78 1.160 . S
O80 Zn81 1.899 . S
O80 C88 1.284 . S
Zn81 O80 1.899 . S
Zn81 O82 2.032 . S
Zn81 O85 2.086 . S
Zn81 O90 1.977 . S
O82 Zn81 2.032 . S
O82 C86 1.278 . S
C83 O84 1.203 . S
C83 O90 1.267 . S
O84 C83 1.203 . S
O85 C78 1.185 . S
O85 Zn81 2.086 . S
C86 O82 1.278 . S
C86 O87 1.211 . S
O87 C86 1.211 . S
C88 O80 1.284 . S
C88 O89 1.273 . S
O89 C88 1.273 . S
O90 Zn81 1.977 . S
O90 C83 1.267 . S
C91 O92 1.160 . S
C91 O98 1.185 . S
O92 C91 1.160 . S
O93 Zn94 1.899 . S
O93 C101 1.284 . S
Zn94 O93 1.899 . S
Zn94 O95 2.032 . S
Zn94 O98 2.086 . S
Zn94 O103 1.977 . S
O95 Zn94 2.032 . S
O95 C99 1.278 . S
C96 O97 1.203 . S
C96 O103 1.267 . S
O97 C96 1.203 . S
O98 C91 1.185 . S
O98 Zn94 2.086 . S
C99 O95 1.278 . S
C99 O100 1.211 1_455 S
O100 C99 1.211 1_655 S
C101 O93 1.284 . S
C101 O102 1.273 1_455 S
O102 C101 1.273 1_655 S
O103 Zn94 1.977 . S
O103 C96 1.267 . S
C104 O105 1.160 . S
C104 O111 1.185 . S
O105 C104 1.160 . S
O106 Zn107 1.899 . S
O106 C114 1.284 . S
Zn107 O106 1.899 . S
Zn107 O108 2.032 . S
Zn107 O111 2.086 . S
Zn107 O116 1.977 . S
O108 Zn107 2.032 . S
O108 C112 1.278 . S
C109 O110 1.203 . S
C109 O116 1.267 . S
O110 C109 1.203 . S
O111 C104 1.185 . S
O111 Zn107 2.086 . S
C112 O108 1.278 . S
C112 O113 1.211 . S
O113 C112 1.211 . S
C114 O106 1.284 . S
C114 O115 1.273 . S
O115 C114 1.273 . S
O116 Zn107 1.977 . S
O116 C109 1.267 . S
C117 O118 1.160 . S
C117 O124 1.185 . S
O118 C117 1.160 . S
O119 Zn120 1.899 . S
O119 C127 1.284 . S
Zn120 O119 1.899 . S
Zn120 O121 2.032 . S
Zn120 O124 2.086 . S
Zn120 O129 1.977 . S
O121 Zn120 2.032 . S
O121 C125 1.278 . S
C122 O123 1.203 . S
C122 O129 1.267 . S
O123 C122 1.203 . S
O124 C117 1.185 . S
O124 Zn120 2.086 . S
C125 O121 1.278 . S
C125 O126 1.211 1_655 S
O126 C125 1.211 1_455 S
C127 O119 1.284 . S
C127 O128 1.273 1_655 S
O128 C127 1.273 1_455 S
O129 Zn120 1.977 . S
O129 C122 1.267 . S
C130 O131 1.160 . S
C130 O137 1.185 . S
O131 C130 1.160 . S
O132 Zn133 1.899 . S
O132 C140 1.284 . S
Zn133 O132 1.899 . S
Zn133 O134 2.032 . S
Zn133 O137 2.086 . S
Zn133 O142 1.977 . S
O134 Zn133 2.032 . S
O134 C138 1.278 . S
C135 O136 1.203 . S
C135 O142 1.267 . S
O136 C135 1.203 . S
O137 C130 1.185 . S
O137 Zn133 2.086 . S
C138 O134 1.278 . S
C138 O139 1.211 1_455 S
O139 C138 1.211 1_655 S
C140 O132 1.284 . S
C140 O141 1.273 1_455 S
O141 C140 1.273 1_655 S
O142 Zn133 1.977 . S
O142 C135 1.267 . S
C143 O144 1.160 . S
C143 O150 1.185 . S
O144 C143 1.160 . S
O145 Zn146 1.899 . S
O145 C153 1.284 . S
Zn146 O145 1.899 . S
Zn146 O147 2.032 . S
Zn146 O150 2.086 . S
Zn146 O155 1.977 . S
O147 Zn146 2.032 . S
O147 C151 1.278 . S
C148 O149 1.203 . S
C148 O155 1.267 . S
O149 C148 1.203 . S
O150 C143 1.185 . S
O150 Zn146 2.086 . S
C151 O147 1.278 . S
C151 O152 1.211 . S
O152 C151 1.211 . S
C153 O145 1.284 . S
C153 O154 1.273 . S
O154 C153 1.273 . S
O155 Zn146 1.977 . S
O155 C148 1.267 . S
C156 O157 1.160 . S
C156 O163 1.185 . S
O157 C156 1.160 . S
O158 Zn159 1.899 . S
O158 C166 1.284 . S
Zn159 O158 1.899 . S
Zn159 O160 2.032 . S
Zn159 O163 2.086 . S
Zn159 O168 1.977 . S
O160 Zn159 2.032 . S
O160 C164 1.278 . S
C161 O162 1.203 . S
C161 O168 1.267 . S
O162 C161 1.203 . S
O163 C156 1.185 . S
O163 Zn159 2.086 . S
C164 O160 1.278 . S
C164 O165 1.211 . S
O165 C164 1.211 . S
C166 O158 1.284 . S
C166 O167 1.273 . S
O167 C166 1.273 . S
O168 Zn159 1.977 . S
O168 C161 1.267 . S
C169 O170 1.160 . S
C169 O176 1.185 . S
O170 C169 1.160 . S
O171 Zn172 1.899 . S
O171 C179 1.284 . S
Zn172 O171 1.899 . S
Zn172 O173 2.032 . S
Zn172 O176 2.086 . S
Zn172 O181 1.977 . S
O173 Zn172 2.032 . S
O173 C177 1.278 . S
C174 O175 1.203 . S
C174 O181 1.267 . S
O175 C174 1.203 . S
O176 C169 1.185 . S
O176 Zn172 2.086 . S
C177 O173 1.278 . S
C177 O178 1.211 1_455 S
O178 C177 1.211 1_655 S
C179 O171 1.284 . S
C179 O180 1.273 1_455 S
O180 C179 1.273 1_655 S
O181 Zn172 1.977 . S
O181 C174 1.267 . S
C182 O183 1.160 . S
C182 O189 1.185 . S
O183 C182 1.160 . S
O184 Zn185 1.899 . S
O184 C192 1.284 . S
Zn185 O184 1.899 . S
Zn185 O186 2.032 . S
Zn185 O189 2.086 . S
Zn185 O194 1.977 . S
O186 Zn185 2.032 . S
O186 C190 1.278 . S
C187 O188 1.203 . S
C187 O194 1.267 . S
O188 C187 1.203 . S
O189 C182 1.185 . S
O189 Zn185 2.086 . S
C190 O186 1.278 . S
C190 O191 1.211 1_655 S
O191 C190 1.211 1_455 S
C192 O184 1.284 . S
C192 O193 1.273 1_655 S
O193 C192 1.273 1_455 S
O194 Zn185 1.977 . S
O194 C187 1.267 . S
C195 O196 1.160 . S
C195 O202 1.185 . S
O196 C195 1.160 . S
O197 Zn198 1.899 . S
O197 C205 1.284 . S
Zn198 O197 1.899 . S
Zn198 O199 2.032 . S
Zn198 O202 2.086 . S
Zn198 O207 1.977 . S
O199 Zn198 2.032 . S
O199 C203 1.278 . S
C200 O201 1.203 . S
C200 O207 1.267 . S
O201 C200 1.203 . S
O202 C195 1.185 . S
O202 Zn198 2.086 . S
C203 O199 1.278 . S
C203 O204 1.211 . S
O204 C203 1.211 . S
C205 O197 1.284 . S
C205 O206 1.273 . S
O206 C205 1.273 . S
O207 Zn198 1.977 . S
O207 C200 1.267 . S
C208 C209 1.387 . S
C208 H212 0.950 . S
C208 C217 1.390 1_565 S
C209 C208 1.387 . S
C209 C211 1.387 . S
H210 C217 0.950 . S
C211 C209 1.387 . S
C211 C213 1.390 1_565 S
C211 H215 0.950 . S
H212 C208 0.950 . S
C213 C211 1.390 1_545 S
C213 C214 1.387 . S
C213 H216 0.950 . S
C214 C213 1.387 . S
C214 C217 1.387 . S
H215 C211 0.950 . S
H216 C213 0.950 . S
C217 C208 1.390 1_545 S
C217 H210 0.950 . S
C217 C214 1.387 . S
C218 C219 1.387 . S
C218 H222 0.950 . S
C218 C227 1.390 1_565 S
C219 C218 1.387 . S
C219 C221 1.387 . S
H220 C227 0.950 . S
C221 C219 1.387 . S
C221 C223 1.390 1_565 S
C221 H225 0.950 . S
H222 C218 0.950 . S
C223 C221 1.390 1_545 S
C223 C224 1.387 . S
C223 H226 0.950 . S
C224 C223 1.387 . S
C224 C227 1.387 . S
H225 C221 0.950 . S
H226 C223 0.950 . S
C227 C218 1.390 1_545 S
C227 H220 0.950 . S
C227 C224 1.387 . S
C228 C229 1.387 . S
C228 H232 0.950 . S
C228 C237 1.390 1_565 S
C229 C228 1.387 . S
C229 C231 1.387 . S
H230 C237 0.950 . S
C231 C229 1.387 . S
C231 C233 1.390 1_565 S
C231 H235 0.950 . S
H232 C228 0.950 . S
C233 C231 1.390 1_545 S
C233 C234 1.387 . S
C233 H236 0.950 . S
C234 C233 1.387 . S
C234 C237 1.387 . S
H235 C231 0.950 . S
H236 C233 0.950 . S
C237 C228 1.390 1_545 S
C237 H230 0.950 . S
C237 C234 1.387 . S
C238 C239 1.387 . S
C238 H242 0.950 . S
C238 C247 1.390 1_565 S
C239 C238 1.387 . S
C239 C241 1.387 . S
H240 C247 0.950 . S
C241 C239 1.387 . S
C241 C243 1.390 1_565 S
C241 H245 0.950 . S
H242 C238 0.950 . S
C243 C241 1.390 1_545 S
C243 C244 1.387 . S
C243 H246 0.950 . S
C244 C243 1.387 . S
C244 C247 1.387 . S
H245 C241 0.950 . S
H246 C243 0.950 . S
C247 C238 1.390 1_545 S
C247 H240 0.950 . S
C247 C244 1.387 . S
C248 C249 1.387 . S
C248 H252 0.950 . S
C248 C257 1.390 . S
C249 C248 1.387 . S
C249 C251 1.387 . S
H250 C257 0.950 . S
C251 C249 1.387 . S
C251 C253 1.390 . S
C251 H255 0.950 . S
H252 C248 0.950 . S
C253 C251 1.390 . S
C253 C254 1.387 . S
C253 H256 0.950 . S
C254 C253 1.387 . S
C254 C257 1.387 . S
H255 C251 0.950 . S
H256 C253 0.950 . S
C257 C248 1.390 . S
C257 H250 0.950 . S
C257 C254 1.387 . S
C258 C259 1.387 . S
C258 H262 0.950 . S
C258 C267 1.390 . S
C259 C258 1.387 . S
C259 C261 1.387 . S
H260 C267 0.950 . S
C261 C259 1.387 . S
C261 C263 1.390 . S
C261 H265 0.950 . S
H262 C258 0.950 . S
C263 C261 1.390 . S
C263 C264 1.387 . S
C263 H266 0.950 . S
C264 C263 1.387 . S
C264 C267 1.387 . S
H265 C261 0.950 . S
H266 C263 0.950 . S
C267 C258 1.390 . S
C267 H260 0.950 . S
C267 C264 1.387 . S
C268 C269 1.387 . S
C268 H272 0.950 . S
C268 C277 1.390 . S
C269 C268 1.387 . S
C269 C271 1.387 . S
H270 C277 0.950 . S
C271 C269 1.387 . S
C271 C273 1.390 . S
C271 H275 0.950 . S
H272 C268 0.950 . S
C273 C271 1.390 . S
C273 C274 1.387 . S
C273 H276 0.950 . S
C274 C273 1.387 . S
C274 C277 1.387 . S
H275 C271 0.950 . S
H276 C273 0.950 . S
C277 C268 1.390 . S
C277 H270 0.950 . S
C277 C274 1.387 . S
C278 C279 1.387 . S
C278 H282 0.950 . S
C278 C287 1.390 . S
C279 C278 1.387 . S
C279 C281 1.387 . S
H280 C287 0.950 . S
C281 C279 1.387 . S
C281 C283 1.390 . S
C281 H285 0.950 . S
H282 C278 0.950 . S
C283 C281 1.390 . S
C283 C284 1.387 . S
C283 H286 0.950 . S
C284 C283 1.387 . S
C284 C287 1.387 . S
H285 C281 0.950 . S
H286 C283 0.950 . S
C287 C278 1.390 . S
C287 H280 0.950 . S
C287 C284 1.387 . S
C288 C289 1.387 . S
C288 H292 0.950 . S
C288 C297 1.390 1_655 S
C289 C288 1.387 . S
C289 C291 1.387 1_545 S
H290 C297 0.950 . S
C291 C289 1.387 1_565 S
C291 C293 1.390 1_655 S
C291 H295 0.950 . S
H292 C288 0.950 . S
C293 C291 1.390 1_455 S
C293 C294 1.387 1_565 S
C293 H296 0.950 . S
C294 C293 1.387 1_545 S
C294 C297 1.387 . S
H295 C291 0.950 . S
H296 C293 0.950 . S
C297 C288 1.390 1_455 S
C297 H290 0.950 . S
C297 C294 1.387 . S
C298 C299 1.387 1_545 S
C298 H302 0.950 . S
C298 C307 1.390 . S
C299 C298 1.387 1_565 S
C299 C301 1.387 . S
H300 C307 0.950 . S
C301 C299 1.387 . S
C301 C303 1.390 . S
C301 H305 0.950 . S
H302 C298 0.950 . S
C303 C301 1.390 . S
C303 C304 1.387 . S
C303 H306 0.950 . S
C304 C303 1.387 . S
C304 C307 1.387 1_565 S
H305 C301 0.950 . S
H306 C303 0.950 . S
C307 C298 1.390 . S
C307 H300 0.950 . S
C307 C304 1.387 1_545 S
C308 C309 1.387 1_545 S
C308 H312 0.950 . S
C308 C317 1.390 1_455 S
C309 C308 1.387 1_565 S
C309 C311 1.387 . S
H310 C317 0.950 . S
C311 C309 1.387 . S
C311 C313 1.390 1_455 S
C311 H315 0.950 . S
H312 C308 0.950 . S
C313 C311 1.390 1_655 S
C313 C314 1.387 . S
C313 H316 0.950 . S
C314 C313 1.387 . S
C314 C317 1.387 1_565 S
H315 C311 0.950 . S
H316 C313 0.950 . S
C317 C308 1.390 1_655 S
C317 H310 0.950 . S
C317 C314 1.387 1_545 S
C318 C319 1.387 1_565 S
C318 H322 0.950 . S
C318 C327 1.390 . S
C319 C318 1.387 1_545 S
C319 C321 1.387 . S
H320 C327 0.950 . S
C321 C319 1.387 . S
C321 C323 1.390 . S
C321 H325 0.950 . S
H322 C318 0.950 . S
C323 C321 1.390 . S
C323 C324 1.387 . S
C323 H326 0.950 . S
C324 C323 1.387 . S
C324 C327 1.387 1_545 S
H325 C321 0.950 . S
H326 C323 0.950 . S
C327 C318 1.390 . S
C327 H320 0.950 . S
C327 C324 1.387 1_565 S
C328 C329 1.387 . S
C328 H332 0.950 . S
C328 C337 1.390 . S
C329 C328 1.387 . S
C329 C331 1.387 . S
H330 C337 0.950 . S
C331 C329 1.387 . S
C331 C333 1.390 . S
C331 H335 0.950 . S
H332 C328 0.950 . S
C333 C331 1.390 . S
C333 C334 1.387 . S
C333 H336 0.950 . S
C334 C333 1.387 . S
C334 C337 1.387 . S
H335 C331 0.950 . S
H336 C333 0.950 . S
C337 C328 1.390 . S
C337 H330 0.950 . S
C337 C334 1.387 . S
C338 C339 1.387 . S
C338 H342 0.950 . S
C338 C347 1.390 1_455 S
C339 C338 1.387 . S
C339 C341 1.387 . S
H340 C347 0.950 . S
C341 C339 1.387 . S
C341 C343 1.390 1_455 S
C341 H345 0.950 . S
H342 C338 0.950 . S
C343 C341 1.390 1_655 S
C343 C344 1.387 . S
C343 H346 0.950 . S
C344 C343 1.387 . S
C344 C347 1.387 . S
H345 C341 0.950 . S
H346 C343 0.950 . S
C347 C338 1.390 1_655 S
C347 H340 0.950 . S
C347 C344 1.387 . S
C348 C349 1.387 . S
C348 H352 0.950 . S
C348 C357 1.390 . S
C349 C348 1.387 . S
C349 C351 1.387 . S
H350 C357 0.950 . S
C351 C349 1.387 . S
C351 C353 1.390 . S
C351 H355 0.950 . S
H352 C348 0.950 . S
C353 C351 1.390 . S
C353 C354 1.387 . S
C353 H356 0.950 . S
C354 C353 1.387 . S
C354 C357 1.387 . S
H355 C351 0.950 . S
H356 C353 0.950 . S
C357 C348 1.390 . S
C357 H350 0.950 . S
C357 C354 1.387 . S
C358 C359 1.387 . S
C358 H362 0.950 . S
C358 C367 1.390 1_455 S
C359 C358 1.387 . S
C359 C361 1.387 . S
H360 C367 0.950 . S
C361 C359 1.387 . S
C361 C363 1.390 1_455 S
C361 H365 0.950 . S
H362 C358 0.950 . S
C363 C361 1.390 1_655 S
C363 C364 1.387 . S
C363 H366 0.950 . S
C364 C363 1.387 . S
C364 C367 1.387 . S
H365 C361 0.950 . S
H366 C363 0.950 . S
C367 C358 1.390 1_655 S
C367 H360 0.950 . S
C367 C364 1.387 . S
C368 C369 1.387 . S
C368 H372 0.950 . S
C368 C377 1.390 1_455 S
C369 C368 1.387 . S
C369 C371 1.387 . S
H370 C377 0.950 . S
C371 C369 1.387 . S
C371 C373 1.390 1_455 S
C371 H375 0.950 . S
H372 C368 0.950 . S
C373 C371 1.390 1_655 S
C373 C374 1.387 . S
C373 H376 0.950 . S
C374 C373 1.387 . S
C374 C377 1.387 . S
H375 C371 0.950 . S
H376 C373 0.950 . S
C377 C368 1.390 1_655 S
C377 H370 0.950 . S
C377 C374 1.387 . S
C378 C379 1.387 . S
C378 H382 0.950 . S
C378 C387 1.390 . S
C379 C378 1.387 . S
C379 C381 1.387 . S
H380 C387 0.950 . S
C381 C379 1.387 . S
C381 C383 1.390 . S
C381 H385 0.950 . S
H382 C378 0.950 . S
C383 C381 1.390 . S
C383 C384 1.387 . S
C383 H386 0.950 . S
C384 C383 1.387 . S
C384 C387 1.387 . S
H385 C381 0.950 . S
H386 C383 0.950 . S
C387 C378 1.390 . S
C387 H380 0.950 . S
C387 C384 1.387 . S
C388 C389 1.387 . S
C388 H392 0.950 . S
C388 C397 1.390 . S
C389 C388 1.387 . S
C389 C391 1.387 . S
H390 C397 0.950 . S
C391 C389 1.387 . S
C391 C393 1.390 . S
C391 H395 0.950 . S
H392 C388 0.950 . S
C393 C391 1.390 . S
C393 C394 1.387 . S
C393 H396 0.950 . S
C394 C393 1.387 . S
C394 C397 1.387 . S
H395 C391 0.950 . S
H396 C393 0.950 . S
C397 C388 1.390 . S
C397 H390 0.950 . S
C397 C394 1.387 . S
C398 C399 1.387 . S
C398 H402 0.950 . S
C398 C407 1.390 1_455 S
C399 C398 1.387 . S
C399 C401 1.387 . S
H400 C407 0.950 . S
C401 C399 1.387 . S
C401 C403 1.390 1_455 S
C401 H405 0.950 . S
H402 C398 0.950 . S
C403 C401 1.390 1_655 S
C403 C404 1.387 . S
C403 H406 0.950 . S
C404 C403 1.387 . S
C404 C407 1.387 . S
H405 C401 0.950 . S
H406 C403 0.950 . S
C407 C398 1.390 1_655 S
C407 H400 0.950 . S
C407 C404 1.387 . S
C408 C409 1.387 . S
C408 H412 0.950 . S
C408 C417 1.390 1_455 S
C409 C408 1.387 . S
C409 C411 1.387 . S
H410 C417 0.950 . S
C411 C409 1.387 . S
C411 C413 1.390 1_455 S
C411 H415 0.950 . S
H412 C408 0.950 . S
C413 C411 1.390 1_655 S
C413 C414 1.387 . S
C413 H416 0.950 . S
C414 C413 1.387 . S
C414 C417 1.387 . S
H415 C411 0.950 . S
H416 C413 0.950 . S
C417 C408 1.390 1_655 S
C417 H410 0.950 . S
C417 C414 1.387 . S
C418 C419 1.387 . S
C418 H422 0.950 . S
C418 C427 1.390 . S
C419 C418 1.387 . S
C419 C421 1.387 . S
H420 C427 0.950 . S
C421 C419 1.387 . S
C421 C423 1.390 . S
C421 H425 0.950 . S
H422 C418 0.950 . S
C423 C421 1.390 . S
C423 C424 1.387 . S
C423 H426 0.950 . S
C424 C423 1.387 . S
C424 C427 1.387 . S
H425 C421 0.950 . S
H426 C423 0.950 . S
C427 C418 1.390 . S
C427 H420 0.950 . S
C427 C424 1.387 . S
C428 C429 1.387 . S
C428 H432 0.950 . S
C428 C437 1.390 . S
C429 C428 1.387 . S
C429 C431 1.387 . S
H430 C437 0.950 . S
C431 C429 1.387 . S
C431 C433 1.390 . S
C431 H435 0.950 . S
H432 C428 0.950 . S
C433 C431 1.390 . S
C433 C434 1.387 . S
C433 H436 0.950 . S
C434 C433 1.387 . S
C434 C437 1.387 . S
H435 C431 0.950 . S
H436 C433 0.950 . S
C437 C428 1.390 . S
C437 H430 0.950 . S
C437 C434 1.387 . S
C438 C439 1.387 . S
C438 H442 0.950 . S
C438 C447 1.390 1_455 S
C439 C438 1.387 . S
C439 C441 1.387 . S
H440 C447 0.950 . S
C441 C439 1.387 . S
C441 C443 1.390 1_455 S
C441 H445 0.950 . S
H442 C438 0.950 . S
C443 C441 1.390 1_655 S
C443 C444 1.387 . S
C443 H446 0.950 . S
C444 C443 1.387 . S
C444 C447 1.387 . S
H445 C441 0.950 . S
H446 C443 0.950 . S
C447 C438 1.390 1_655 S
C447 H440 0.950 . S
C447 C444 1.387 . S
C448 C449 1.387 1_545 S
C448 H452 0.950 . S
C448 C457 1.390 1_556 S
C449 C448 1.387 1_565 S
C449 C451 1.387 1_655 S
H450 C457 0.950 . S
C451 C449 1.387 1_455 S
C451 C453 1.390 1_556 S
C451 H455 0.950 . S
H452 C448 0.950 . S
C453 C451 1.390 1_554 S
C453 C454 1.387 1_565 S
C453 H456 0.950 . S
C454 C453 1.387 1_545 S
C454 C457 1.387 1_455 S
H455 C451 0.950 . S
H456 C453 0.950 . S
C457 C448 1.390 1_554 S
C457 H450 0.950 . S
C457 C454 1.387 1_655 S
C458 C459 1.387 . S
C458 H462 0.950 . S
C458 C467 1.390 1_546 S
C459 C458 1.387 . S
C459 C461 1.387 . S
H460 C467 0.950 . S
C461 C459 1.387 . S
C461 C463 1.390 1_546 S
C461 H465 0.950 . S
H462 C458 0.950 . S
C463 C461 1.390 1_564 S
C463 C464 1.387 . S
C463 H466 0.950 . S
C464 C463 1.387 . S
C464 C467 1.387 . S
H465 C461 0.950 . S
H466 C463 0.950 . S
C467 C458 1.390 1_564 S
C467 H460 0.950 . S
C467 C464 1.387 . S
C468 C469 1.387 . S
C468 H472 0.950 . S
C468 C477 1.390 . S
C469 C468 1.387 . S
C469 C471 1.387 1_545 S
H470 C477 0.950 . S
C471 C469 1.387 1_565 S
C471 C473 1.390 . S
C471 H475 0.950 . S
H472 C468 0.950 . S
C473 C471 1.390 . S
C473 C474 1.387 . S
C473 H476 0.950 . S
C474 C473 1.387 . S
C474 C477 1.387 1_565 S
H475 C471 0.950 . S
H476 C473 0.950 . S
C477 C468 1.390 . S
C477 H470 0.950 . S
C477 C474 1.387 1_545 S
C478 C479 1.387 . S
C478 H482 0.950 . S
C478 C487 1.390 . S
C479 C478 1.387 . S
C479 C481 1.387 1_465 S
H480 C487 0.950 . S
C481 C479 1.387 1_645 S
C481 C483 1.390 . S
C481 H485 0.950 . S
H482 C478 0.950 . S
C483 C481 1.390 . S
C483 C484 1.387 . S
C483 H486 0.950 . S
C484 C483 1.387 . S
C484 C487 1.387 1_645 S
H485 C481 0.950 . S
H486 C483 0.950 . S
C487 C478 1.390 . S
C487 H480 0.950 . S
C487 C484 1.387 1_465 S
C488 C489 1.387 . S
C488 H492 0.950 . S
C488 C497 1.390 1_554 S
C489 C488 1.387 . S
C489 C491 1.387 . S
H490 C497 0.950 . S
C491 C489 1.387 . S
C491 C493 1.390 1_554 S
C491 H495 0.950 . S
H492 C488 0.950 . S
C493 C491 1.390 1_556 S
C493 C494 1.387 . S
C493 H496 0.950 . S
C494 C493 1.387 . S
C494 C497 1.387 . S
H495 C491 0.950 . S
H496 C493 0.950 . S
C497 C488 1.390 1_556 S
C497 H490 0.950 . S
C497 C494 1.387 . S
C498 C499 1.387 . S
C498 H502 0.950 . S
C498 C507 1.390 1_554 S
C499 C498 1.387 . S
C499 C501 1.387 1_655 S
H500 C507 0.950 . S
C501 C499 1.387 1_455 S
C501 C503 1.390 1_554 S
C501 H505 0.950 . S
H502 C498 0.950 . S
C503 C501 1.390 1_556 S
C503 C504 1.387 . S
C503 H506 0.950 . S
C504 C503 1.387 . S
C504 C507 1.387 1_455 S
H505 C501 0.950 . S
H506 C503 0.950 . S
C507 C498 1.390 1_556 S
C507 H500 0.950 . S
C507 C504 1.387 1_655 S
C508 C509 1.387 . S
C508 H512 0.950 . S
C508 C517 1.390 . S
C509 C508 1.387 . S
C509 C511 1.387 1_655 S
H510 C517 0.950 . S
C511 C509 1.387 1_455 S
C511 C513 1.390 . S
C511 H515 0.950 . S
H512 C508 0.950 . S
C513 C511 1.390 . S
C513 C514 1.387 . S
C513 H516 0.950 . S
C514 C513 1.387 . S
C514 C517 1.387 1_455 S
H515 C511 0.950 . S
H516 C513 0.950 . S
C517 C508 1.390 . S
C517 H510 0.950 . S
C517 C514 1.387 1_655 S
C518 C519 1.387 . S
C518 H522 0.950 . S
C518 C527 1.390 . S
C519 C518 1.387 . S
C519 C521 1.387 . S
H520 C527 0.950 . S
C521 C519 1.387 . S
C521 C523 1.390 . S
C521 H525 0.950 . S
H522 C518 0.950 . S
C523 C521 1.390 . S
C523 C524 1.387 . S
C523 H526 0.950 . S
C524 C523 1.387 . S
C524 C527 1.387 . S
H525 C521 0.950 . S
H526 C523 0.950 . S
C527 C518 1.390 . S
C527 H520 0.950 . S
C527 C524 1.387 . S
C209 C13 1.458 . S
C214 C0 1.458 . S
C219 C26 1.459 . S
C224 C39 1.459 . S
C229 C52 1.458 . S
C234 C65 1.458 . S
C239 C91 1.458 . S
C244 C78 1.458 . S
C249 C117 1.458 . S
C254 C104 1.458 . S
C259 C143 1.458 . S
C264 C130 1.458 . S
C269 C169 1.458 . S
C274 C156 1.458 . S
C279 C195 1.459 . S
C284 C182 1.459 . S
C289 C49 1.342 . S
C294 C10 1.342 . S
C299 C23 1.342 . S
C304 C36 1.342 . S
C309 C101 1.342 . S
C314 C62 1.342 . S
C319 C88 1.342 . S
C324 C75 1.342 . S
C329 C114 1.342 . S
C334 C153 1.342 . S
C339 C140 1.342 . S
C344 C127 1.342 . S
C349 C205 1.342 . S
C354 C166 1.342 . S
C359 C179 1.342 . S
C364 C192 1.342 . S
C369 C5 1.463 . S
C374 C122 1.463 . S
C379 C18 1.460 . S
C384 C109 1.460 . S
C389 C148 1.463 . S
C394 C31 1.463 . S
C399 C135 1.463 . S
C404 C44 1.463 . S
C409 C174 1.460 . S
C414 C57 1.460 . S
C419 C161 1.463 . S
C424 C70 1.463 . S
C429 C83 1.460 . S
C434 C200 1.460 . S
C439 C96 1.463 . S
C444 C187 1.463 . S
C449 C60 1.177 . S
C454 C8 1.177 . S
C459 C73 1.173 . S
C464 C21 1.173 . S
C469 C86 1.174 . S
C474 C34 1.174 . S
C479 C99 1.177 . S
C484 C47 1.177 . S
C489 C112 1.177 . S
C494 C164 1.177 . S
C499 C125 1.175 . S
C504 C177 1.175 . S
C509 C190 1.177 . S
C514 C138 1.177 . S
C519 C203 1.175 . S
C524 C151 1.175 . S
