# Generated by pormake.
# Topology uos, (4)-cn, num edge types: 1
# Building blocks:
#     Node 0, Type 0, BuildingBlock: CEKHIL_clean_sbu_0, # of connection points: 4
#     Node 1, Type 0, BuildingBlock: CEKHIL_clean_sbu_0, # of connection points: 4
#     Node 2, Type 0, BuildingBlock: CEKHIL_clean_sbu_0, # of connection points: 4
#     Node 3, Type 0, BuildingBlock: CEKHIL_clean_sbu_0, # of connection points: 4
#     Node 4, Type 0, BuildingBlock: CEKHIL_clean_sbu_0, # of connection points: 4
#     Node 5, Type 0, BuildingBlock: CEKHIL_clean_sbu_0, # of connection points: 4
#     Node 6, Type 0, BuildingBlock: CEKHIL_clean_sbu_0, # of connection points: 4
#     Node 7, Type 0, BuildingBlock: CEKHIL_clean_sbu_0, # of connection points: 4
#     Node 8, Type 0, BuildingBlock: CEKHIL_clean_sbu_0, # of connection points: 4
#     Node 9, Type 0, BuildingBlock: CEKHIL_clean_sbu_0, # of connection points: 4
#     Node 10, Type 0, BuildingBlock: CEKHIL_clean_sbu_0, # of connection points: 4
#     Node 11, Type 0, BuildingBlock: CEKHIL_clean_sbu_0, # of connection points: 4
#     Node 12, Type 0, BuildingBlock: CEKHIL_clean_sbu_0, # of connection points: 4
#     Node 13, Type 0, BuildingBlock: CEKHIL_clean_sbu_0, # of connection points: 4
#     Node 14, Type 0, BuildingBlock: CEKHIL_clean_sbu_0, # of connection points: 4
#     Node 15, Type 0, BuildingBlock: CEKHIL_clean_sbu_0, # of connection points: 4
#     Node 16, Type 0, BuildingBlock: CEKHIL_clean_sbu_0, # of connection points: 4
#     Node 17, Type 0, BuildingBlock: CEKHIL_clean_sbu_0, # of connection points: 4
#     Node 18, Type 0, BuildingBlock: CEKHIL_clean_sbu_0, # of connection points: 4
#     Node 19, Type 0, BuildingBlock: CEKHIL_clean_sbu_0, # of connection points: 4
#     Node 20, Type 0, BuildingBlock: CEKHIL_clean_sbu_0, # of connection points: 4
#     Node 21, Type 0, BuildingBlock: CEKHIL_clean_sbu_0, # of connection points: 4
#     Node 22, Type 0, BuildingBlock: CEKHIL_clean_sbu_0, # of connection points: 4
#     Node 23, Type 0, BuildingBlock: CEKHIL_clean_sbu_0, # of connection points: 4
#     Node 24, Type 0, BuildingBlock: CEKHIL_clean_sbu_0, # of connection points: 4
#     Node 25, Type 0, BuildingBlock: CEKHIL_clean_sbu_0, # of connection points: 4
#     Node 26, Type 0, BuildingBlock: CEKHIL_clean_sbu_0, # of connection points: 4
#     Node 27, Type 0, BuildingBlock: CEKHIL_clean_sbu_0, # of connection points: 4
#     Node 28, Type 0, BuildingBlock: CEKHIL_clean_sbu_0, # of connection points: 4
#     Node 29, Type 0, BuildingBlock: CEKHIL_clean_sbu_0, # of connection points: 4
#     Node 30, Type 0, BuildingBlock: CEKHIL_clean_sbu_0, # of connection points: 4
#     Node 31, Type 0, BuildingBlock: CEKHIL_clean_sbu_0, # of connection points: 4
#     Edge 32, Type (0, 0), BuildingBlock: CIFDUS_clean_linker_0, # of connection points: 2
#     Edge 33, Type (0, 0), BuildingBlock: CIFDUS_clean_linker_0, # of connection points: 2
#     Edge 34, Type (0, 0), BuildingBlock: CIFDUS_clean_linker_0, # of connection points: 2
#     Edge 35, Type (0, 0), BuildingBlock: CIFDUS_clean_linker_0, # of connection points: 2
#     Edge 36, Type (0, 0), BuildingBlock: CIFDUS_clean_linker_0, # of connection points: 2
#     Edge 37, Type (0, 0), BuildingBlock: CIFDUS_clean_linker_0, # of connection points: 2
#     Edge 38, Type (0, 0), BuildingBlock: CIFDUS_clean_linker_0, # of connection points: 2
#     Edge 39, Type (0, 0), BuildingBlock: CIFDUS_clean_linker_0, # of connection points: 2
#     Edge 40, Type (0, 0), BuildingBlock: CIFDUS_clean_linker_0, # of connection points: 2
#     Edge 41, Type (0, 0), BuildingBlock: CIFDUS_clean_linker_0, # of connection points: 2
#     Edge 42, Type (0, 0), BuildingBlock: CIFDUS_clean_linker_0, # of connection points: 2
#     Edge 43, Type (0, 0), BuildingBlock: CIFDUS_clean_linker_0, # of connection points: 2
#     Edge 44, Type (0, 0), BuildingBlock: CIFDUS_clean_linker_0, # of connection points: 2
#     Edge 45, Type (0, 0), BuildingBlock: CIFDUS_clean_linker_0, # of connection points: 2
#     Edge 46, Type (0, 0), BuildingBlock: CIFDUS_clean_linker_0, # of connection points: 2
#     Edge 47, Type (0, 0), BuildingBlock: CIFDUS_clean_linker_0, # of connection points: 2
#     Edge 48, Type (0, 0), BuildingBlock: CIFDUS_clean_linker_0, # of connection points: 2
#     Edge 49, Type (0, 0), BuildingBlock: CIFDUS_clean_linker_0, # of connection points: 2
#     Edge 50, Type (0, 0), BuildingBlock: CIFDUS_clean_linker_0, # of connection points: 2
#     Edge 51, Type (0, 0), BuildingBlock: CIFDUS_clean_linker_0, # of connection points: 2
#     Edge 52, Type (0, 0), BuildingBlock: CIFDUS_clean_linker_0, # of connection points: 2
#     Edge 53, Type (0, 0), BuildingBlock: CIFDUS_clean_linker_0, # of connection points: 2
#     Edge 54, Type (0, 0), BuildingBlock: CIFDUS_clean_linker_0, # of connection points: 2
#     Edge 55, Type (0, 0), BuildingBlock: CIFDUS_clean_linker_0, # of connection points: 2
#     Edge 56, Type (0, 0), BuildingBlock: CIFDUS_clean_linker_0, # of connection points: 2
#     Edge 57, Type (0, 0), BuildingBlock: CIFDUS_clean_linker_0, # of connection points: 2
#     Edge 58, Type (0, 0), BuildingBlock: CIFDUS_clean_linker_0, # of connection points: 2
#     Edge 59, Type (0, 0), BuildingBlock: CIFDUS_clean_linker_0, # of connection points: 2
#     Edge 60, Type (0, 0), BuildingBlock: CIFDUS_clean_linker_0, # of connection points: 2
#     Edge 61, Type (0, 0), BuildingBlock: CIFDUS_clean_linker_0, # of connection points: 2
#     Edge 62, Type (0, 0), BuildingBlock: CIFDUS_clean_linker_0, # of connection points: 2
#     Edge 63, Type (0, 0), BuildingBlock: CIFDUS_clean_linker_0, # of connection points: 2
#     Edge 64, Type (0, 0), BuildingBlock: CIFDUS_clean_linker_0, # of connection points: 2
#     Edge 65, Type (0, 0), BuildingBlock: CIFDUS_clean_linker_0, # of connection points: 2
#     Edge 66, Type (0, 0), BuildingBlock: CIFDUS_clean_linker_0, # of connection points: 2
#     Edge 67, Type (0, 0), BuildingBlock: CIFDUS_clean_linker_0, # of connection points: 2
#     Edge 68, Type (0, 0), BuildingBlock: CIFDUS_clean_linker_0, # of connection points: 2
#     Edge 69, Type (0, 0), BuildingBlock: CIFDUS_clean_linker_0, # of connection points: 2
#     Edge 70, Type (0, 0), BuildingBlock: CIFDUS_clean_linker_0, # of connection points: 2
#     Edge 71, Type (0, 0), BuildingBlock: CIFDUS_clean_linker_0, # of connection points: 2
#     Edge 72, Type (0, 0), BuildingBlock: CIFDUS_clean_linker_0, # of connection points: 2
#     Edge 73, Type (0, 0), BuildingBlock: CIFDUS_clean_linker_0, # of connection points: 2
#     Edge 74, Type (0, 0), BuildingBlock: CIFDUS_clean_linker_0, # of connection points: 2
#     Edge 75, Type (0, 0), BuildingBlock: CIFDUS_clean_linker_0, # of connection points: 2
#     Edge 76, Type (0, 0), BuildingBlock: CIFDUS_clean_linker_0, # of connection points: 2
#     Edge 77, Type (0, 0), BuildingBlock: CIFDUS_clean_linker_0, # of connection points: 2
#     Edge 78, Type (0, 0), BuildingBlock: CIFDUS_clean_linker_0, # of connection points: 2
#     Edge 79, Type (0, 0), BuildingBlock: CIFDUS_clean_linker_0, # of connection points: 2
#     Edge 80, Type (0, 0), BuildingBlock: CIFDUS_clean_linker_0, # of connection points: 2
#     Edge 81, Type (0, 0), BuildingBlock: CIFDUS_clean_linker_0, # of connection points: 2
#     Edge 82, Type (0, 0), BuildingBlock: CIFDUS_clean_linker_0, # of connection points: 2
#     Edge 83, Type (0, 0), BuildingBlock: CIFDUS_clean_linker_0, # of connection points: 2
#     Edge 84, Type (0, 0), BuildingBlock: CIFDUS_clean_linker_0, # of connection points: 2
#     Edge 85, Type (0, 0), BuildingBlock: CIFDUS_clean_linker_0, # of connection points: 2
#     Edge 86, Type (0, 0), BuildingBlock: CIFDUS_clean_linker_0, # of connection points: 2
#     Edge 87, Type (0, 0), BuildingBlock: CIFDUS_clean_linker_0, # of connection points: 2
#     Edge 88, Type (0, 0), BuildingBlock: CIFDUS_clean_linker_0, # of connection points: 2
#     Edge 89, Type (0, 0), BuildingBlock: CIFDUS_clean_linker_0, # of connection points: 2
#     Edge 90, Type (0, 0), BuildingBlock: CIFDUS_clean_linker_0, # of connection points: 2
#     Edge 91, Type (0, 0), BuildingBlock: CIFDUS_clean_linker_0, # of connection points: 2
#     Edge 92, Type (0, 0), BuildingBlock: CIFDUS_clean_linker_0, # of connection points: 2
#     Edge 93, Type (0, 0), BuildingBlock: CIFDUS_clean_linker_0, # of connection points: 2
#     Edge 94, Type (0, 0), BuildingBlock: CIFDUS_clean_linker_0, # of connection points: 2
#     Edge 95, Type (0, 0), BuildingBlock: CIFDUS_clean_linker_0, # of connection points: 2
# Relax obj value: 0.048
# Max RMSD: 0.071
# Mean RMSD: 0.071
data_MOF--net-uos--node1-CEKHIL_clean_sbu_0--edge1-CIFDUS_clean_linker_0
_symmetry_space_group_name_H-M    P1
_symmetry_Int_Tables_number       1
_symmetry_cell_setting            triclinic
loop_
_symmetry_equiv_pos_as_xyz
'x, y, z'
_cell_length_a     74.279067
_cell_length_b     74.235405
_cell_length_c     19.933546
_cell_angle_alpha  90.071345
_cell_angle_beta   89.96879
_cell_angle_gamma 90.029268
loop_
_atom_site_label
_atom_site_type_symbol
_atom_site_fract_x
_atom_site_fract_y
_atom_site_fract_z
_atom_type_partial_charge
Co0 Co 0.17511 0.17024 0.09537 0.0
O1 O 0.15453 0.16578 0.03828 0.0
O2 O 0.17925 0.14933 0.03807 0.0
C3 C 0.17603 0.2005 0.0781 0.0
O4 O 0.19939 0.17098 0.14466 0.0
Co5 Co 0.17253 0.19545 0.22104 0.0
O6 O 0.19857 0.19083 0.23034 0.0
C7 C 0.15822 0.15831 0.22751 0.0
C8 C 0.16331 0.15222 0.01328 0.0
C9 C 0.20684 0.17931 0.19438 0.0
O10 O 0.16425 0.15455 0.16835 0.0
O11 O 0.15917 0.17396 0.25419 0.0
O12 O 0.18334 0.18963 0.03468 0.0
O13 O 0.16759 0.19275 0.12648 0.0
Co14 Co 0.08796 0.92132 0.36611 0.0
O15 O 0.08932 0.89974 0.31303 0.0
O16 O 0.10884 0.92195 0.30538 0.0
C17 C 0.05797 0.92546 0.34869 0.0
O18 O 0.09002 0.94593 0.41373 0.0
Co19 Co 0.06294 0.9207 0.49284 0.0
O20 O 0.07045 0.94609 0.50072 0.0
C21 C 0.09952 0.90522 0.50067 0.0
C22 C 0.10349 0.90622 0.28409 0.0
C23 C 0.08254 0.95361 0.46502 0.0
O24 O 0.10289 0.90981 0.43952 0.0
O25 O 0.08421 0.90741 0.52894 0.0
O26 O 0.06959 0.93113 0.30481 0.0
O27 O 0.06475 0.91648 0.39779 0.0
Co28 Co 0.34081 0.84243 0.62282 0.0
O29 O 0.36264 0.84923 0.57533 0.0
O30 O 0.33646 0.86268 0.56235 0.0
C31 C 0.34413 0.81226 0.60615 0.0
O32 O 0.31518 0.83884 0.65889 0.0
Co33 Co 0.34112 0.81636 0.74725 0.0
O34 O 0.31466 0.81798 0.74114 0.0
C35 C 0.34918 0.85537 0.76487 0.0
C36 C 0.35322 0.86132 0.5441 0.0
C37 C 0.30677 0.82912 0.70253 0.0
O38 O 0.34667 0.85904 0.70194 0.0
O39 O 0.34865 0.83943 0.78906 0.0
O40 O 0.33715 0.82219 0.55918 0.0
O41 O 0.34968 0.8209 0.65791 0.0
Co42 Co 0.42016 0.09031 0.88843 0.0
O43 O 0.41304 0.11183 0.83966 0.0
O44 O 0.39997 0.08538 0.8282 0.0
C45 C 0.45025 0.09411 0.87145 0.0
O46 O 0.42401 0.06483 0.92587 0.0
Co47 Co 0.44609 0.09116 0.0129 0.0
O48 O 0.44459 0.06465 1.00901 0.0
C49 C 0.40707 0.09906 0.02981 0.0
C50 C 0.40107 0.10209 0.80904 0.0
C51 C 0.43358 0.05658 0.97034 0.0
O52 O 0.4035 0.09634 0.96695 0.0
O53 O 0.42295 0.0986 0.05451 0.0
O54 O 0.44041 0.08671 0.82502 0.0
O55 O 0.44159 0.09964 0.92327 0.0
Co56 Co 0.17092 0.83974 0.90566 0.0
O57 O 0.14984 0.84514 0.95934 0.0
O58 O 0.17573 0.85955 0.96719 0.0
C59 C 0.16935 0.80932 0.91687 0.0
O60 O 0.19591 0.83775 0.8624 0.0
Co61 Co 0.16924 0.81624 0.77523 0.0
O62 O 0.19571 0.8185 0.77486 0.0
C63 C 0.15684 0.85411 0.77266 0.0
C64 C 0.15926 0.85768 0.98826 0.0
C65 C 0.20391 0.82911 0.8147 0.0
O66 O 0.16234 0.85698 0.83325 0.0
O67 O 0.15735 0.83871 0.7439 0.0
O68 O 0.17668 0.81898 0.96408 0.0
O69 O 0.16238 0.81833 0.86839 0.0
Co70 Co 0.42338 0.91757 0.14719 0.0
O71 O 0.41771 0.89465 0.18816 0.0
O72 O 0.40391 0.91996 0.21351 0.0
C73 C 0.45375 0.9143 0.15814 0.0
O74 O 0.42615 0.94395 0.11747 0.0
Co75 Co 0.44802 0.91965 0.01848 0.0
O76 O 0.44591 0.94589 0.03152 0.0
C77 C 0.4089 0.91144 1.00568 0.0
C78 C 0.40602 0.90285 0.22557 0.0
C79 C 0.43519 0.95307 0.07363 0.0
O80 O 0.40592 0.91298 0.06958 0.0
O81 O 0.42455 0.91243 0.97912 0.0
O82 O 0.4443 0.92022 0.20841 0.0
O83 O 0.44458 0.90975 0.10634 0.0
Co84 Co 0.34152 0.17084 0.41577 0.0
O85 O 0.36444 0.16706 0.4593 0.0
O86 O 0.34071 0.15 0.47674 0.0
C87 C 0.34074 0.20112 0.43523 0.0
O88 O 0.3154 0.1713 0.38125 0.0
Co89 Co 0.33899 0.19738 0.2925 0.0
O90 O 0.31304 0.1921 0.29879 0.0
C91 C 0.35105 0.1596 0.27234 0.0
C92 C 0.35731 0.15385 0.49234 0.0
C93 C 0.30626 0.18009 0.33678 0.0
O94 O 0.34884 0.15542 0.33499 0.0
O95 O 0.34918 0.17556 0.2493 0.0
O96 O 0.33568 0.18998 0.48178 0.0
O97 O 0.34724 0.19365 0.38242 0.0
Co98 Co 0.09046 0.09014 0.63625 0.0
O99 O 0.09225 0.11165 0.6895 0.0
O100 O 0.11163 0.08929 0.69547 0.0
C101 C 0.06055 0.08619 0.65562 0.0
O102 O 0.09208 0.06556 0.58819 0.0
Co103 Co 0.06488 0.09104 0.51118 0.0
O104 O 0.07212 0.0656 0.50251 0.0
C105 C 0.10134 0.10674 0.50176 0.0
C106 C 0.10653 0.10506 0.71724 0.0
C107 C 0.08428 0.05796 0.53742 0.0
O108 O 0.10508 0.10173 0.56211 0.0
O109 O 0.08587 0.1047 0.47459 0.0
O110 O 0.07232 0.0804 0.69867 0.0
O111 O 0.06716 0.09517 0.60617 0.0
Co112 Co 0.84279 0.83621 0.90173 0.0
O113 O 0.86536 0.83948 0.94824 0.0
O114 O 0.84071 0.85479 0.97126 0.0
C115 C 0.84323 0.8056 0.90374 0.0
O116 O 0.81683 0.83588 0.86591 0.0
Co117 Co 0.84174 0.8154 0.76417 0.0
O118 O 0.81549 0.81851 0.77284 0.0
C119 C 0.85312 0.85361 0.76845 0.0
C120 C 0.85754 0.85158 0.98504 0.0
C121 C 0.80809 0.82842 0.81718 0.0
O122 O 0.84989 0.85484 0.83199 0.0
O123 O 0.85183 0.83894 0.73503 0.0
O124 O 0.8376 0.81452 0.9559 0.0
O125 O 0.84961 0.81534 0.85609 0.0
Co126 Co 0.9227 0.093 0.65158 0.0
O127 O 0.91953 0.11554 0.69864 0.0
O128 O 0.90419 0.09086 0.72126 0.0
C129 C 0.95329 0.09344 0.65327 0.0
O130 O 0.92296 0.06707 0.61514 0.0
Co131 Co 0.94339 0.09201 0.51386 0.0
O132 O 0.94044 0.06572 0.52248 0.0
C133 C 0.90528 0.1036 0.51876 0.0
C134 C 0.90745 0.10768 0.73537 0.0
C135 C 0.93048 0.0583 0.56652 0.0
O136 O 0.90405 0.10024 0.58219 0.0
O137 O 0.9199 0.10229 0.48523 0.0
O138 O 0.94444 0.08772 0.7054 0.0
O139 O 0.9435 0.09986 0.60587 0.0
Co140 Co 0.66817 0.17227 0.42046 0.0
O141 O 0.64613 0.17013 0.47043 0.0
O142 O 0.66906 0.15152 0.48112 0.0
C143 C 0.67139 0.20236 0.43727 0.0
O144 O 0.69345 0.17104 0.37846 0.0
Co145 Co 0.66908 0.1965 0.29255 0.0
O146 O 0.69503 0.19088 0.29288 0.0
C147 C 0.65291 0.16026 0.28477 0.0
C148 C 0.65294 0.15621 0.50016 0.0
C149 C 0.70216 0.17913 0.33104 0.0
O150 O 0.65767 0.15688 0.34574 0.0
O151 O 0.65527 0.17553 0.25642 0.0
O152 O 0.67671 0.191 0.48265 0.0
O153 O 0.66313 0.19528 0.38681 0.0
Co154 Co 0.59095 0.91808 0.14152 0.0
O155 O 0.59568 0.89522 0.18344 0.0
O156 O 0.61287 0.91906 0.19704 0.0
C157 C 0.56129 0.91824 0.17039 0.0
O158 O 0.58943 0.94421 0.10678 0.0
Co159 Co 0.56215 0.92015 0.02662 0.0
O160 O 0.56429 0.94623 0.04392 0.0
C161 C 0.59941 0.90805 0.99582 0.0
C162 C 0.60938 0.90241 0.21327 0.0
C163 C 0.57778 0.95346 0.07292 0.0
O164 O 0.60471 0.91058 0.05708 0.0
O165 O 0.58309 0.91009 0.97666 0.0
O166 O 0.57331 0.92381 0.21287 0.0
O167 O 0.56764 0.91188 0.11526 0.0
Co168 Co 0.83713 0.17036 0.11624 0.0
O169 O 0.85878 0.16549 0.06475 0.0
O170 O 0.83313 0.15093 0.05205 0.0
C171 C 0.83869 0.20089 0.10793 0.0
O172 O 0.81178 0.17185 0.15733 0.0
Co173 Co 0.83798 0.19311 0.249 0.0
O174 O 0.81162 0.18986 0.24858 0.0
C175 C 0.84921 0.15483 0.25025 0.0
C176 C 0.84977 0.1531 0.03332 0.0
C177 C 0.80364 0.17961 0.20684 0.0
O178 O 0.84489 0.1526 0.18801 0.0
O179 O 0.84854 0.17 0.28056 0.0
O180 O 0.83184 0.1915 0.05904 0.0
O181 O 0.84528 0.19159 0.15635 0.0
Co182 Co 0.58749 0.08843 0.87729 0.0
O183 O 0.59308 0.10898 0.82218 0.0
O184 O 0.60903 0.08394 0.82329 0.0
C185 C 0.55765 0.08827 0.85289 0.0
O186 O 0.585 0.06405 0.92579 0.0
Co187 Co 0.56085 0.09244 0.99744 0.0
O188 O 0.56012 0.06591 0.99031 0.0
C189 C 0.59846 0.10476 0.0124 0.0
C190 C 0.60659 0.09998 0.79842 0.0
C191 C 0.57272 0.05684 0.96306 0.0
O192 O 0.60246 0.09878 0.95337 0.0
O193 O 0.58257 0.10424 0.03715 0.0
O194 O 0.56907 0.08067 0.81236 0.0
O195 O 0.56472 0.0967 0.90297 0.0
Co196 Co 0.67307 0.84073 0.60969 0.0
O197 O 0.6519 0.84644 0.55688 0.0
O198 O 0.67713 0.86208 0.55458 0.0
C199 C 0.67283 0.81065 0.58659 0.0
O200 O 0.69803 0.83864 0.65291 0.0
Co201 Co 0.672 0.81356 0.73001 0.0
O202 O 0.69833 0.81715 0.73276 0.0
C203 C 0.66053 0.85148 0.75036 0.0
C204 C 0.66098 0.85967 0.53098 0.0
C205 C 0.70619 0.82918 0.69788 0.0
O206 O 0.66416 0.85583 0.68889 0.0
O207 O 0.66183 0.83546 0.77336 0.0
O208 O 0.67976 0.82192 0.54386 0.0
O209 O 0.66534 0.81795 0.63806 0.0
Co210 Co 0.92001 0.92181 0.36657 0.0
O211 O 0.91512 0.90018 0.31492 0.0
O212 O 0.9008 0.92594 0.30177 0.0
C213 C 0.95051 0.92018 0.35958 0.0
O214 O 0.92164 0.94716 0.40757 0.0
Co215 Co 0.94235 0.92088 0.50015 0.0
O216 O 0.93998 0.94734 0.49772 0.0
C217 C 0.90399 0.90994 0.50015 0.0
C218 C 0.90288 0.90927 0.28312 0.0
C219 C 0.92975 0.95535 0.45616 0.0
O220 O 0.90198 0.91418 0.43776 0.0
O221 O 0.91907 0.91058 0.53101 0.0
O222 O 0.94132 0.92701 0.31018 0.0
O223 O 0.94102 0.91356 0.40748 0.0
Co224 Co 0.66908 0.67294 0.64011 0.0
O225 O 0.64904 0.6677 0.5814 0.0
O226 O 0.6745 0.65248 0.58139 0.0
C227 C 0.66827 0.70334 0.62459 0.0
O228 O 0.69295 0.67488 0.69259 0.0
Co229 Co 0.66348 0.69763 0.76625 0.0
O230 O 0.68993 0.69616 0.77255 0.0
C231 C 0.65264 0.65926 0.77099 0.0
C232 C 0.6585 0.6547 0.556 0.0
C233 C 0.69939 0.68463 0.74086 0.0
O234 O 0.6588 0.65628 0.71138 0.0
O235 O 0.65239 0.67481 0.79876 0.0
O236 O 0.67654 0.69316 0.58127 0.0
O237 O 0.65998 0.69479 0.67131 0.0
Co238 Co 0.58672 0.42078 0.87186 0.0
O239 O 0.58901 0.39832 0.8238 0.0
O240 O 0.60629 0.42194 0.80578 0.0
C241 C 0.55622 0.42225 0.86306 0.0
O242 O 0.58766 0.44647 0.91103 0.0
Co243 Co 0.56429 0.42195 1.00533 0.0
O244 O 0.5698 0.44792 1.00273 0.0
C245 C 0.60165 0.40818 1.00671 0.0
C246 C 0.60203 0.40546 0.78974 0.0
C247 C 0.58057 0.45513 0.96087 0.0
O248 O 0.60384 0.41195 0.944 0.0
O249 O 0.5867 0.41007 0.03782 0.0
O250 O 0.56632 0.42773 0.81385 0.0
O251 O 0.56476 0.415 0.91224 0.0
Co252 Co 0.8389 0.33848 0.10592 0.0
O253 O 0.86038 0.34248 0.05306 0.0
O254 O 0.83626 0.3598 0.04987 0.0
C255 C 0.83689 0.30849 0.0853 0.0
O256 O 0.81391 0.33818 0.14999 0.0
Co257 Co 0.83921 0.31292 0.23003 0.0
O258 O 0.81305 0.31754 0.23286 0.0
C259 C 0.85434 0.34954 0.24235 0.0
C260 C 0.85236 0.35638 0.02738 0.0
C261 C 0.80551 0.32942 0.19643 0.0
O262 O 0.84922 0.35347 0.1822 0.0
O263 O 0.85259 0.33389 0.26826 0.0
O264 O 0.83078 0.32001 0.04184 0.0
O265 O 0.84516 0.31543 0.13599 0.0
Co266 Co 0.92 0.58462 0.34926 0.0
O267 O 0.91537 0.60559 0.29428 0.0
O268 O 0.89907 0.58074 0.29237 0.0
C269 C 0.95016 0.58369 0.33102 0.0
O270 O 0.92097 0.55989 0.39513 0.0
Co271 Co 0.94496 0.58625 0.47499 0.0
O272 O 0.94116 0.55995 0.47949 0.0
C273 C 0.90797 0.60063 0.48336 0.0
C274 C 0.90188 0.59683 0.26876 0.0
C275 C 0.92969 0.55192 0.4426 0.0
O276 O 0.90434 0.5949 0.42369 0.0
O277 O 0.92357 0.59948 0.51018 0.0
O278 O 0.93914 0.57689 0.28711 0.0
O279 O 0.94263 0.59191 0.38065 0.0
Co280 Co 0.67039 0.34045 0.40923 0.0
O281 O 0.649 0.34566 0.46176 0.0
O282 O 0.67492 0.35983 0.47298 0.0
C283 C 0.66858 0.30995 0.41739 0.0
O284 O 0.69562 0.33856 0.36749 0.0
Co285 Co 0.66901 0.31781 0.2764 0.0
O286 O 0.69546 0.32021 0.27723 0.0
C287 C 0.6577 0.35603 0.27603 0.0
C288 C 0.65831 0.35796 0.49254 0.0
C289 C 0.70363 0.33039 0.31865 0.0
O290 O 0.66252 0.35828 0.33776 0.0
O291 O 0.65815 0.34085 0.24571 0.0
O292 O 0.67562 0.31926 0.46615 0.0
O293 O 0.6619 0.31932 0.36934 0.0
Co294 Co 0.92641 0.41539 0.64842 0.0
O295 O 0.92385 0.39308 0.69701 0.0
O296 O 0.90683 0.41701 0.71367 0.0
C297 C 0.9569 0.41679 0.65722 0.0
O298 O 0.92565 0.44106 0.60992 0.0
Co299 Co 0.9486 0.41679 0.51505 0.0
O300 O 0.9438 0.4429 0.51931 0.0
C301 C 0.91168 0.40197 0.514 0.0
C302 C 0.91082 0.40053 0.73029 0.0
C303 C 0.93306 0.44998 0.56158 0.0
O304 O 0.90931 0.40629 0.5762 0.0
O305 O 0.92662 0.40398 0.48297 0.0
O306 O 0.94683 0.42236 0.70643 0.0
O307 O 0.94834 0.40952 0.60799 0.0
Co308 Co 0.83893 0.66826 0.8918 0.0
O309 O 0.86124 0.66649 0.94045 0.0
O310 O 0.83864 0.64752 0.95258 0.0
C311 C 0.83551 0.69827 0.90934 0.0
O312 O 0.81349 0.66657 0.85121 0.0
Co313 Co 0.83697 0.69257 0.76438 0.0
O314 O 0.81104 0.68691 0.76743 0.0
C315 C 0.85364 0.65656 0.75503 0.0
C316 C 0.85474 0.65251 0.97081 0.0
C317 C 0.80439 0.67482 0.80527 0.0
O318 O 0.84929 0.65309 0.81637 0.0
O319 O 0.85088 0.67181 0.72698 0.0
O320 O 0.83043 0.68679 0.95471 0.0
O321 O 0.84355 0.69135 0.85804 0.0
Co322 Co 0.58703 0.59003 0.18071 0.0
O323 O 0.589 0.61236 0.22945 0.0
O324 O 0.60756 0.58955 0.24289 0.0
C325 C 0.55681 0.58709 0.19571 0.0
O326 O 0.58846 0.56456 0.13974 0.0
Co327 Co 0.56296 0.58861 0.05169 0.0
O328 O 0.56928 0.56281 0.05199 0.0
C329 C 0.59946 0.60428 0.04436 0.0
C330 C 0.60281 0.60578 0.2605 0.0
C331 C 0.58089 0.55582 0.0911 0.0
O332 O 0.60268 0.60004 0.106 0.0
O333 O 0.58422 0.6019 0.01584 0.0
O334 O 0.56788 0.58187 0.24227 0.0
O335 O 0.56425 0.59498 0.14534 0.0
Co336 Co 0.34144 0.33819 0.37177 0.0
O337 O 0.36329 0.34079 0.42279 0.0
O338 O 0.33945 0.35804 0.43654 0.0
C339 C 0.34008 0.30772 0.38225 0.0
O340 O 0.31624 0.33875 0.32835 0.0
Co341 Co 0.34223 0.31517 0.23954 0.0
O342 O 0.31623 0.32039 0.23774 0.0
C343 C 0.35576 0.35262 0.23844 0.0
C344 C 0.35576 0.35392 0.45506 0.0
C345 C 0.30835 0.33128 0.27751 0.0
O346 O 0.35108 0.35508 0.30018 0.0
O347 O 0.35441 0.33753 0.20786 0.0
O348 O 0.33395 0.31797 0.42996 0.0
O349 O 0.34782 0.31612 0.33375 0.0
Co350 Co 0.41919 0.59142 0.14949 0.0
O351 O 0.41421 0.61237 0.20457 0.0
O352 O 0.39913 0.58681 0.21007 0.0
C353 C 0.44963 0.59201 0.16164 0.0
O354 O 0.42063 0.56661 0.10409 0.0
Co355 Co 0.4429 0.59353 0.01967 0.0
O356 O 0.43972 0.56715 0.0161 0.0
C357 C 0.40522 0.60633 0.01692 0.0
C358 C 0.40136 0.60314 0.23236 0.0
C359 C 0.42897 0.55886 0.05507 0.0
O360 O 0.40227 0.60072 0.07728 0.0
O361 O 0.42062 0.60573 0.98829 0.0
O362 O 0.43964 0.58482 0.20813 0.0
O363 O 0.44094 0.59958 0.1136 0.0
Co364 Co 0.17297 0.67184 0.91347 0.0
O365 O 0.15309 0.66744 0.9736 0.0
O366 O 0.17706 0.65011 0.96741 0.0
C367 C 0.17496 0.70182 0.93639 0.0
O368 O 0.19629 0.67286 0.85698 0.0
Co369 Co 0.16706 0.69884 0.79428 0.0
O370 O 0.19288 0.69444 0.77812 0.0
C371 C 0.1546 0.66114 0.78203 0.0
C372 C 0.16152 0.65337 0.99535 0.0
C373 C 0.20217 0.68222 0.80667 0.0
O374 O 0.16091 0.65713 0.84045 0.0
O375 O 0.15484 0.67704 0.75735 0.0
O376 O 0.18272 0.6902 0.97563 0.0
O377 O 0.16535 0.69489 0.88934 0.0
Co378 Co 0.09397 0.42302 0.67497 0.0
O379 O 0.09966 0.4012 0.72449 0.0
O380 O 0.11534 0.42628 0.73121 0.0
C381 C 0.06389 0.42247 0.69799 0.0
O382 O 0.09194 0.4485 0.63504 0.0
Co383 Co 0.06646 0.42314 0.55501 0.0
O384 O 0.07063 0.44937 0.5544 0.0
C385 C 0.10437 0.41194 0.53238 0.0
C386 C 0.11288 0.40987 0.7522 0.0
C387 C 0.08266 0.45694 0.59013 0.0
O388 O 0.10894 0.41496 0.59415 0.0
O389 O 0.08826 0.41334 0.51043 0.0
O390 O 0.07512 0.42895 0.74184 0.0
O391 O 0.07122 0.41561 0.6455 0.0
Co392 Co 0.33786 0.67487 0.60985 0.0
O393 O 0.35956 0.67323 0.55752 0.0
O394 O 0.33706 0.6541 0.54839 0.0
C395 C 0.33453 0.70501 0.59295 0.0
O396 O 0.3131 0.67305 0.65644 0.0
Co397 Co 0.33822 0.6997 0.73708 0.0
O398 O 0.31281 0.69229 0.74458 0.0
C399 C 0.35352 0.66298 0.74452 0.0
C400 C 0.35293 0.65922 0.52791 0.0
C401 C 0.30533 0.68042 0.70776 0.0
O402 O 0.34897 0.65964 0.68327 0.0
O403 O 0.35137 0.67831 0.77284 0.0
O404 O 0.32857 0.69359 0.54877 0.0
O405 O 0.34309 0.69791 0.64244 0.0
Co406 Co 0.08778 0.59224 0.37276 0.0
O407 O 0.09036 0.61443 0.32339 0.0
O408 O 0.10748 0.5906 0.30735 0.0
C409 C 0.05724 0.59085 0.36436 0.0
O410 O 0.08854 0.56669 0.4129 0.0
Co411 Co 0.06521 0.59133 0.50607 0.0
O412 O 0.07032 0.56528 0.50358 0.0
C413 C 0.10217 0.60613 0.50655 0.0
C414 C 0.10352 0.60707 0.29051 0.0
C415 C 0.08116 0.55802 0.46208 0.0
O416 O 0.10477 0.60157 0.44473 0.0
O417 O 0.08713 0.60429 0.53708 0.0
O418 O 0.06724 0.58511 0.31519 0.0
O419 O 0.06589 0.59822 0.41298 0.0
Co420 Co 0.16873 0.33764 0.14593 0.0
O421 O 0.14652 0.34215 0.09853 0.0
O422 O 0.17094 0.35841 0.08466 0.0
C423 C 0.1683 0.30727 0.12669 0.0
O424 O 0.19428 0.33635 0.18611 0.0
Co425 Co 0.16835 0.31091 0.26926 0.0
O426 O 0.1945 0.31552 0.26884 0.0
C427 C 0.15808 0.34937 0.28746 0.0
C428 C 0.15438 0.35514 0.06669 0.0
C429 C 0.20232 0.32742 0.23314 0.0
O430 O 0.16096 0.35339 0.22506 0.0
O431 O 0.15908 0.33338 0.31097 0.0
O432 O 0.17468 0.31807 0.08129 0.0
O433 O 0.16158 0.31516 0.17815 0.0
Co434 Co 0.4193 0.42477 0.83136 0.0
O435 O 0.41476 0.4034 0.77818 0.0
O436 O 0.39849 0.42821 0.77324 0.0
C437 C 0.44952 0.42558 0.81436 0.0
O438 O 0.42026 0.44977 0.87556 0.0
Co439 Co 0.44421 0.42362 0.95797 0.0
O440 O 0.44031 0.44989 0.96055 0.0
C441 C 0.40694 0.40994 0.96671 0.0
C442 C 0.40132 0.41194 0.75135 0.0
C443 C 0.42893 0.45782 0.92309 0.0
O444 O 0.40346 0.41512 0.90626 0.0
O445 O 0.42251 0.41109 0.99368 0.0
O446 O 0.43866 0.43206 0.76927 0.0
O447 O 0.44179 0.41766 0.86407 0.0
H448 H 0.29103 0.17226 0.21842 0.0
H449 H 0.27871 0.17924 0.42804 0.0
H450 H 0.24635 0.17854 0.40235 0.0
H451 H 0.22192 0.17918 0.31825 0.0
H452 H 0.23444 0.17117 0.10899 0.0
H453 H 0.2665 0.16887 0.13639 0.0
C454 C 0.2812 0.17326 0.25856 0.0
C455 C 0.28711 0.1759 0.32495 0.0
C456 C 0.26277 0.17287 0.24325 0.0
C457 C 0.2744 0.17709 0.37675 0.0
C458 C 0.25595 0.17685 0.36188 0.0
C459 C 0.23167 0.17676 0.27875 0.0
C460 C 0.22589 0.17564 0.21147 0.0
C461 C 0.25002 0.17528 0.29506 0.0
C462 C 0.23858 0.17214 0.16097 0.0
C463 C 0.25689 0.1709 0.17664 0.0
H464 H 0.08929 0.98354 0.38865 0.0
H465 H 0.08781 0.96446 0.59266 0.0
H466 H 0.09108 0.99514 0.63464 0.0
H467 H 0.08997 0.02788 0.61377 0.0
H468 H 0.08951 0.04703 0.40983 0.0
H469 H 0.0917 0.01623 0.3678 0.0
C470 C 0.09016 0.98612 0.44212 0.0
C471 C 0.08815 0.9718 0.48738 0.0
C472 C 0.0915 1.00396 0.4662 0.0
C473 C 0.08913 0.97533 0.55674 0.0
C474 C 0.09098 0.99289 0.58091 0.0
C475 C 0.09085 0.02527 0.56031 0.0
C476 C 0.08947 0.03965 0.51505 0.0
C477 C 0.09152 0.0074 0.53624 0.0
C478 C 0.09041 0.03611 0.44571 0.0
C479 C 0.09161 0.01849 0.42153 0.0
H480 H 0.2219 0.83064 0.69666 0.0
H481 H 0.22976 0.83265 0.91087 0.0
H482 H 0.26246 0.83328 0.89459 0.0
H483 H 0.28873 0.83143 0.81944 0.0
H484 H 0.28101 0.83161 0.60517 0.0
H485 H 0.24823 0.83208 0.62116 0.0
C486 C 0.23081 0.83133 0.7397 0.0
C487 C 0.22351 0.83137 0.80494 0.0
C488 C 0.24953 0.83203 0.72983 0.0
C489 C 0.23511 0.8326 0.86028 0.0
C490 C 0.25377 0.83288 0.85096 0.0
C491 C 0.27982 0.83169 0.77631 0.0
C492 C 0.28715 0.83125 0.7112 0.0
C493 C 0.26111 0.83231 0.78602 0.0
C494 C 0.2756 0.83192 0.65564 0.0
C495 C 0.25691 0.83211 0.66485 0.0
H496 H 0.43408 0.03793 0.08698 0.0
H497 H 0.42843 0.03118 0.8731 0.0
H498 H 0.42767 0.9984 0.88712 0.0
H499 H 0.43047 0.97176 0.95966 0.0
H500 H 0.43418 0.97829 0.17406 0.0
H501 H 0.43365 0.01119 0.16077 0.0
C502 C 0.43261 0.02925 0.04352 0.0
C503 C 0.43158 0.03689 0.97892 0.0
C504 C 0.43184 0.01047 0.0522 0.0
C505 C 0.4293 0.02558 0.92315 0.0
C506 C 0.42892 0.00687 0.9312 0.0
C507 C 0.43101 0.98043 1.00349 0.0
C508 C 0.43258 0.97272 0.06774 0.0
C509 C 0.43045 0.99919 0.99535 0.0
C510 C 0.43296 0.98398 0.12425 0.0
C511 C 0.43276 1.00274 0.11653 0.0
H512 H 0.79065 0.83609 0.70267 0.0
H513 H 0.78192 0.82731 0.91388 0.0
H514 H 0.74922 0.8275 0.89565 0.0
H515 H 0.7234 0.82755 0.81753 0.0
H516 H 0.73229 0.83781 0.60717 0.0
H517 H 0.76478 0.83977 0.62702 0.0
C518 C 0.78154 0.83446 0.74482 0.0
C519 C 0.78858 0.83151 0.80943 0.0
C520 C 0.76289 0.8347 0.73387 0.0
C521 C 0.77675 0.82965 0.86384 0.0
C522 C 0.7581 0.82963 0.85326 0.0
C523 C 0.73247 0.83034 0.77616 0.0
C524 C 0.72555 0.83225 0.71073 0.0
C525 C 0.75106 0.83171 0.78822 0.0
C526 C 0.73734 0.83623 0.6578 0.0
C527 C 0.75589 0.83729 0.66915 0.0
H528 H 0.9287 0.97349 0.57403 0.0
H529 H 0.92483 0.98109 0.36001 0.0
H530 H 0.92361 0.01379 0.3762 0.0
H531 H 0.92593 0.04011 0.45073 0.0
H532 H 0.92842 0.03266 0.665 0.0
H533 H 0.92767 0.99986 0.64943 0.0
C534 C 0.92748 0.98233 0.53096 0.0
C535 C 0.92713 0.97494 0.46576 0.0
C536 C 0.92656 1.00105 0.54081 0.0
C537 C 0.92517 0.98647 0.41053 0.0
C538 C 0.92455 1.00514 0.41982 0.0
C539 C 0.92614 0.03128 0.49406 0.0
C540 C 0.92746 0.03872 0.55894 0.0
C541 C 0.92557 0.01256 0.48461 0.0
C542 C 0.9274 0.02722 0.6147 0.0
C543 C 0.92708 0.0085 0.6057 0.0
H544 H 0.71893 0.17641 0.21133 0.0
H545 H 0.72854 0.17346 0.42431 0.0
H546 H 0.76111 0.1724 0.40397 0.0
H547 H 0.78672 0.17529 0.32579 0.0
H548 H 0.77706 0.17686 0.11261 0.0
H549 H 0.7445 0.17538 0.13262 0.0
C550 C 0.72818 0.17527 0.25323 0.0
C551 C 0.72142 0.17521 0.31931 0.0
C552 C 0.74679 0.17459 0.24102 0.0
C553 C 0.73345 0.17348 0.37313 0.0
C554 C 0.75205 0.17302 0.36145 0.0
C555 C 0.77746 0.17514 0.28373 0.0
C556 C 0.7842 0.17647 0.21779 0.0
C557 C 0.75885 0.17405 0.2957 0.0
C558 C 0.77215 0.17591 0.16367 0.0
C559 C 0.75357 0.17513 0.17518 0.0
H560 H 0.59986 0.0345 1.00731 0.0
H561 H 0.54402 0.0355 0.94804 0.0
H562 H 0.54057 1.0041 0.98068 0.0
H563 H 0.55281 0.97682 0.02798 0.0
H564 H 0.60844 0.97437 0.08926 0.0
H565 H 0.61249 0.006 0.05582 0.0
C566 C 0.5871 0.02765 1.00051 0.0
C567 C 0.57225 0.03719 0.9745 0.0
C568 C 0.58506 0.00952 0.02109 0.0
C569 C 0.55564 0.02836 0.96741 0.0
C570 C 0.55362 0.01046 0.98649 0.0
C571 C 0.56589 0.9831 0.03429 0.0
C572 C 0.58031 0.97312 0.06107 0.0
C573 C 0.56814 1.001 0.01401 0.0
C574 C 0.59705 0.98171 0.06935 0.0
C575 C 0.5994 0.99976 0.04956 0.0
H576 H 0.72725 0.66584 0.68102 0.0
H577 H 0.71407 0.69758 0.85617 0.0
H578 H 0.74469 0.69492 0.89656 0.0
H579 H 0.77607 0.68591 0.87873 0.0
H580 H 0.79028 0.65576 0.70211 0.0
H581 H 0.75865 0.6551 0.66676 0.0
C582 C 0.73106 0.67207 0.72814 0.0
C583 C 0.71827 0.68211 0.7646 0.0
C584 C 0.74897 0.67064 0.75145 0.0
C585 C 0.72355 0.69001 0.82596 0.0
C586 C 0.74112 0.68843 0.84966 0.0
C587 C 0.77208 0.67871 0.83373 0.0
C588 C 0.78528 0.67051 0.79389 0.0
C589 C 0.75402 0.67904 0.81248 0.0
C590 C 0.78017 0.66177 0.73431 0.0
C591 C 0.76214 0.6616 0.71371 0.0
H592 H 0.58616 0.47139 0.08019 0.0
H593 H 0.58427 0.48198 0.86768 0.0
H594 H 0.58595 0.51447 0.88985 0.0
H595 H 0.58444 0.53967 0.97038 0.0
H596 H 0.58707 0.52908 0.18279 0.0
H597 H 0.58889 0.49663 0.16009 0.0
C598 C 0.58638 0.48083 0.03868 0.0
C599 C 0.58483 0.47437 0.97234 0.0
C600 C 0.58738 0.49939 0.05195 0.0
C601 C 0.58544 0.48665 0.919 0.0
C602 C 0.58628 0.5052 0.93178 0.0
C603 C 0.58569 0.53025 0.01168 0.0
C604 C 0.58538 0.53669 0.07829 0.0
C605 C 0.58673 0.5117 0.99811 0.0
C606 C 0.58729 0.52443 0.13126 0.0
C607 C 0.5882 0.5059 0.11821 0.0
H608 H 0.7209 0.33493 0.20066 0.0
H609 H 0.73009 0.33128 0.41371 0.0
H610 H 0.76273 0.33155 0.39462 0.0
H611 H 0.78846 0.33045 0.31634 0.0
H612 H 0.77927 0.33596 0.1038 0.0
H613 H 0.74673 0.33755 0.1235 0.0
C614 C 0.73009 0.33437 0.2429 0.0
C615 C 0.72319 0.33285 0.30847 0.0
C616 C 0.74875 0.33482 0.23149 0.0
C617 C 0.73514 0.33244 0.3629 0.0
C618 C 0.75376 0.33251 0.35191 0.0
C619 C 0.77931 0.33219 0.27445 0.0
C620 C 0.78618 0.33288 0.2086 0.0
C621 C 0.76069 0.33333 0.28633 0.0
C622 C 0.77427 0.33542 0.15482 0.0
C623 C 0.75569 0.33622 0.16609 0.0
H624 H 0.92633 0.46719 0.44533 0.0
H625 H 0.93138 0.47612 0.65816 0.0
H626 H 0.92981 0.5088 0.64024 0.0
H627 H 0.9298 0.5347 0.56249 0.0
H628 H 0.92316 0.52558 0.35021 0.0
H629 H 0.92238 0.493 0.3693 0.0
C630 C 0.92684 0.47632 0.48783 0.0
C631 C 0.92916 0.46936 0.55292 0.0
C632 C 0.92576 0.49498 0.47706 0.0
C633 C 0.92955 0.48122 0.60772 0.0
C634 C 0.92878 0.49987 0.59736 0.0
C635 C 0.92799 0.52555 0.52054 0.0
C636 C 0.92678 0.53248 0.45488 0.0
C637 C 0.92733 0.50689 0.53208 0.0
C638 C 0.92414 0.52056 0.40109 0.0
C639 C 0.92378 0.50195 0.41199 0.0
H640 H 0.27958 0.33268 0.36263 0.0
H641 H 0.29461 0.33835 0.15498 0.0
H642 H 0.26297 0.33978 0.12218 0.0
H643 H 0.23083 0.33592 0.1511 0.0
H644 H 0.21611 0.32808 0.35829 0.0
H645 H 0.24743 0.33112 0.39242 0.0
C646 C 0.27587 0.33466 0.31054 0.0
C647 C 0.28936 0.3354 0.26138 0.0
C648 C 0.25758 0.33482 0.29163 0.0
C649 C 0.2844 0.33768 0.19375 0.0
C650 C 0.26631 0.33844 0.17486 0.0
C651 C 0.2345 0.33518 0.20368 0.0
C652 C 0.2212 0.33157 0.25185 0.0
C653 C 0.25273 0.33647 0.22308 0.0
C654 C 0.22616 0.33057 0.31996 0.0
C655 C 0.24409 0.33235 0.33971 0.0
H656 H 0.42578 0.54254 0.93436 0.0
H657 H 0.42588 0.53178 0.14685 0.0
H658 H 0.42494 0.4993 0.12437 0.0
H659 H 0.42649 0.4741 0.04393 0.0
H660 H 0.42456 0.48482 0.83155 0.0
H661 H 0.4236 0.5173 0.8541 0.0
C662 C 0.42542 0.53305 0.97569 0.0
C663 C 0.42614 0.53946 0.04218 0.0
C664 C 0.42461 0.51449 0.96229 0.0
C665 C 0.42535 0.52712 0.09535 0.0
C666 C 0.4249 0.50859 0.08246 0.0
C667 C 0.42567 0.48358 1.00266 0.0
C668 C 0.42581 0.47717 0.93613 0.0
C669 C 0.42489 0.50214 0.01613 0.0
C670 C 0.42445 0.48949 0.88307 0.0
C671 C 0.42401 0.50802 0.896 0.0
H672 H 0.27394 0.68171 0.63721 0.0
H673 H 0.29622 0.6675 0.82927 0.0
H674 H 0.266 0.66469 0.87689 0.0
H675 H 0.23323 0.67015 0.86762 0.0
H676 H 0.21138 0.68616 0.67627 0.0
H677 H 0.24104 0.68428 0.6252 0.0
C678 C 0.27208 0.67746 0.68881 0.0
C679 C 0.2872 0.67467 0.72954 0.0
C680 C 0.25464 0.67654 0.71662 0.0
C681 C 0.28469 0.66959 0.79689 0.0
C682 C 0.26742 0.66811 0.82431 0.0
C683 C 0.23495 0.67292 0.8146 0.0
C684 C 0.22011 0.67857 0.77634 0.0
C685 C 0.25227 0.67216 0.78533 0.0
C686 C 0.22261 0.68211 0.70746 0.0
C687 C 0.2396 0.68099 0.6779 0.0
H688 H 0.08386 0.47337 0.46942 0.0
H689 H 0.089 0.48374 0.68141 0.0
H690 H 0.09042 0.51623 0.65939 0.0
H691 H 0.08728 0.54159 0.58046 0.0
H692 H 0.08353 0.53124 0.36809 0.0
H693 H 0.08475 0.49869 0.38931 0.0
C694 C 0.08548 0.48277 0.51071 0.0
C695 C 0.08605 0.47626 0.57709 0.0
C696 C 0.0865 0.50133 0.49747 0.0
C697 C 0.0885 0.48847 0.63005 0.0
C698 C 0.08922 0.50701 0.61742 0.0
C699 C 0.087 0.53218 0.53878 0.0
C700 C 0.08512 0.53872 0.4728 0.0
C701 C 0.08781 0.51359 0.55148 0.0
C702 C 0.08502 0.52648 0.41915 0.0
C703 C 0.08558 0.50791 0.4314 0.0
H704 H 0.13227 0.15821 0.94573 0.0
H705 H 0.17659 0.1209 0.95746 0.0
H706 H 0.16321 0.10272 0.86738 0.0
H707 H 0.1385 0.09746 0.78422 0.0
H708 H 0.09497 0.13595 0.77446 0.0
H709 H 0.10843 0.15341 0.86404 0.0
C710 C 0.13905 0.14609 0.92882 0.0
C711 C 0.15541 0.14095 0.95867 0.0
C712 C 0.13137 0.13582 0.87683 0.0
C713 C 0.16398 0.12521 0.93552 0.0
C714 C 0.15631 0.11479 0.88392 0.0
C715 C 0.13201 0.10967 0.80175 0.0
C716 C 0.11568 0.11528 0.77211 0.0
C717 C 0.13995 0.11995 0.85398 0.0
C718 C 0.10752 0.1312 0.79569 0.0
C719 C 0.1152 0.14128 0.84728 0.0
H720 H 0.12713 0.85339 0.05107 0.0
H721 H 0.17408 0.88752 0.04908 0.0
H722 H 0.16118 0.90593 0.1394 0.0
H723 H 0.13625 0.91224 0.22041 0.0
H724 H 0.09008 0.87686 0.22144 0.0
H725 H 0.10294 0.85925 0.13085 0.0
C726 C 0.13457 0.86487 0.07017 0.0
C727 C 0.15155 0.86904 0.04299 0.0
C728 C 0.12717 0.87526 0.12246 0.0
C729 C 0.16098 0.88395 0.06894 0.0
C730 C 0.15359 0.89451 0.12068 0.0
C731 C 0.12904 0.9007 0.20069 0.0
C732 C 0.11217 0.89598 0.22823 0.0
C733 C 0.13666 0.8903 0.1481 0.0
C734 C 0.10308 0.88088 0.20191 0.0
C735 C 0.11041 0.87073 0.14973 0.0
H736 H 0.37701 0.91336 0.30484 0.0
H737 H 0.41547 0.87043 0.27662 0.0
H738 H 0.40326 0.85455 0.37293 0.0
H739 H 0.38189 0.85248 0.46618 0.0
H740 H 0.3417 0.89372 0.49232 0.0
H741 H 0.35427 0.91048 0.39697 0.0
C742 C 0.38264 0.9005 0.31963 0.0
C743 C 0.39723 0.89321 0.28295 0.0
C744 C 0.37529 0.89109 0.37532 0.0
C745 C 0.40424 0.87644 0.30313 0.0
C746 C 0.3973 0.8673 0.35868 0.0
C747 C 0.37592 0.8652 0.45138 0.0
C748 C 0.36098 0.8719 0.48712 0.0
C749 C 0.38289 0.87449 0.39535 0.0
C750 C 0.35325 0.88825 0.4661 0.0
C751 C 0.36044 0.89785 0.41139 0.0
H752 H 0.40867 0.13131 0.73207 0.0
H753 H 0.36932 0.08916 0.75611 0.0
H754 H 0.35214 0.10108 0.66075 0.0
H755 H 0.34827 0.12389 0.56942 0.0
H756 H 0.38928 0.16457 0.54407 0.0
H757 H 0.40567 0.15281 0.63975 0.0
C758 C 0.39627 0.12476 0.71681 0.0
C759 C 0.39023 0.10945 0.75199 0.0
C760 C 0.38673 0.13141 0.66087 0.0
C761 C 0.37428 0.101 0.73037 0.0
C762 C 0.36445 0.10782 0.67562 0.0
C763 C 0.36084 0.13009 0.58463 0.0
C764 C 0.36741 0.14519 0.54895 0.0
C765 C 0.37054 0.12305 0.64018 0.0
C766 C 0.38379 0.15296 0.5698 0.0
C767 C 0.39323 0.14627 0.62502 0.0
H768 H 0.84926 0.883 0.05325 0.0
H769 H 0.8885 0.84023 0.04284 0.0
H770 H 0.90553 0.85392 0.13385 0.0
H771 H 0.90967 0.87799 0.21661 0.0
H772 H 0.87177 0.92187 0.2252 0.0
H773 H 0.854 0.90793 0.13539 0.0
C774 C 0.86151 0.87668 0.07106 0.0
C775 C 0.8675 0.86053 0.041 0.0
C776 C 0.87157 0.88486 0.1233 0.0
C777 C 0.88353 0.85265 0.06455 0.0
C778 C 0.89332 0.86047 0.11688 0.0
C779 C 0.8975 0.88452 0.19902 0.0
C780 C 0.89206 0.90094 0.22807 0.0
C781 C 0.88751 0.87657 0.14663 0.0
C782 C 0.87632 0.90924 0.2039 0.0
C783 C 0.86612 0.90124 0.15249 0.0
H784 H 0.88109 0.15984 0.96722 0.0
H785 H 0.83722 0.12189 0.97548 0.0
H786 H 0.85118 0.10408 0.88577 0.0
H787 H 0.87608 0.09936 0.80362 0.0
H788 H 0.91886 0.13863 0.7936 0.0
H789 H 0.90519 0.15567 0.88468 0.0
C790 C 0.87457 0.14765 0.94959 0.0
C791 C 0.85814 0.14221 0.97849 0.0
C792 C 0.88253 0.13764 0.89725 0.0
C793 C 0.84985 0.12644 0.95429 0.0
C794 C 0.85787 0.11622 0.90293 0.0
C795 C 0.8824 0.11162 0.82154 0.0
C796 C 0.89855 0.11762 0.79153 0.0
C797 C 0.87424 0.12168 0.87383 0.0
C798 C 0.90644 0.13365 0.81525 0.0
C799 C 0.89863 0.14345 0.86762 0.0
H800 H 0.59964 0.12985 0.72616 0.0
H801 H 0.6389 0.0875 0.74716 0.0
H802 H 0.65698 0.10094 0.65672 0.0
H803 H 0.66155 0.1252 0.57113 0.0
H804 H 0.62094 0.16653 0.55188 0.0
H805 H 0.6036 0.15299 0.64161 0.0
C806 C 0.61218 0.12351 0.71132 0.0
C807 C 0.61793 0.10773 0.74388 0.0
C808 C 0.62231 0.13117 0.65911 0.0
C809 C 0.63415 0.09968 0.72313 0.0
C810 C 0.64449 0.10738 0.67136 0.0
C811 C 0.6489 0.13119 0.58659 0.0
C812 C 0.64267 0.14695 0.55444 0.0
C813 C 0.63871 0.12318 0.63883 0.0
C814 C 0.62618 0.15445 0.57522 0.0
C815 C 0.61618 0.14672 0.62686 0.0
H816 H 0.63453 0.84995 0.44481 0.0
H817 H 0.67132 0.89336 0.48736 0.0
H818 H 0.65923 0.91051 0.39211 0.0
H819 H 0.63749 0.91329 0.29658 0.0
H820 H 0.60233 0.86836 0.25361 0.0
H821 H 0.61457 0.85184 0.34787 0.0
C822 C 0.63988 0.86322 0.43358 0.0
C823 C 0.65366 0.87043 0.47392 0.0
C824 C 0.63319 0.87276 0.37787 0.0
C825 C 0.66063 0.8875 0.45751 0.0
C826 C 0.65372 0.89731 0.40287 0.0
C827 C 0.63266 0.89983 0.30749 0.0
C828 C 0.61887 0.89223 0.26758 0.0
C829 C 0.63994 0.89009 0.36248 0.0
C830 C 0.61285 0.87471 0.28291 0.0
C831 C 0.61982 0.86517 0.33728 0.0
H832 H 0.62809 0.66054 0.48464 0.0
H833 H 0.67216 0.62313 0.50273 0.0
H834 H 0.65906 0.60441 0.41339 0.0
H835 H 0.63452 0.59859 0.32984 0.0
H836 H 0.59134 0.6373 0.31328 0.0
H837 H 0.60463 0.65539 0.40167 0.0
C838 C 0.63489 0.64829 0.46925 0.0
C839 C 0.65108 0.64326 0.50081 0.0
C840 C 0.62738 0.63773 0.4177 0.0
C841 C 0.65969 0.62737 0.47946 0.0
C842 C 0.65217 0.61664 0.42834 0.0
C843 C 0.62806 0.61099 0.34562 0.0
C844 C 0.61186 0.61645 0.31451 0.0
C845 C 0.63594 0.62165 0.39701 0.0
C846 C 0.60378 0.63264 0.33572 0.0
C847 C 0.61136 0.64308 0.3866 0.0
H848 H 0.63393 0.41253 0.72252 0.0
H849 H 0.58963 0.37495 0.73129 0.0
H850 H 0.60276 0.35742 0.64062 0.0
H851 H 0.62674 0.35234 0.55846 0.0
H852 H 0.672 0.38863 0.5507 0.0
H853 H 0.6587 0.40689 0.64054 0.0
C854 C 0.62717 0.40052 0.70447 0.0
C855 C 0.61075 0.39516 0.73404 0.0
C856 C 0.63499 0.39018 0.65221 0.0
C857 C 0.60227 0.37946 0.71004 0.0
C858 C 0.60977 0.36937 0.65786 0.0
C859 C 0.63371 0.36426 0.57623 0.0
C860 C 0.65034 0.3691 0.54745 0.0
C861 C 0.62611 0.37455 0.62856 0.0
C862 C 0.6592 0.38454 0.5718 0.0
C863 C 0.65157 0.39503 0.62325 0.0
H864 H 0.88023 0.40999 0.80089 0.0
H865 H 0.92073 0.36852 0.78411 0.0
H866 H 0.9066 0.35171 0.87453 0.0
H867 H 0.88281 0.34839 0.95835 0.0
H868 H 0.84139 0.38882 0.97484 0.0
H869 H 0.85575 0.40632 0.88522 0.0
C870 C 0.88594 0.39728 0.81709 0.0
C871 C 0.90158 0.39059 0.78543 0.0
C872 C 0.87758 0.38744 0.86932 0.0
C873 C 0.90872 0.37404 0.8071 0.0
C874 C 0.90065 0.36437 0.85908 0.0
C875 C 0.87692 0.36107 0.94263 0.0
C876 C 0.86106 0.36729 0.97366 0.0
C877 C 0.8851 0.37091 0.89056 0.0
C878 C 0.85359 0.38369 0.95198 0.0
C879 C 0.86181 0.39371 0.90064 0.0
H880 H 0.9085 0.62728 0.19786 0.0
H881 H 0.87002 0.5841 0.21669 0.0
H882 H 0.85184 0.59727 0.12655 0.0
H883 H 0.84688 0.62138 0.04151 0.0
H884 H 0.88646 0.66373 0.02307 0.0
H885 H 0.90404 0.65057 0.11315 0.0
C886 C 0.89611 0.62074 0.18248 0.0
C887 C 0.89063 0.60475 0.21438 0.0
C888 C 0.88586 0.62826 0.13018 0.0
C889 C 0.87459 0.59643 0.19316 0.0
C890 C 0.86417 0.60396 0.14152 0.0
C891 C 0.85936 0.62768 0.05718 0.0
C892 C 0.86525 0.64358 0.02516 0.0
C893 C 0.86967 0.61991 0.10945 0.0
C894 C 0.88152 0.6515 0.04629 0.0
C895 C 0.89164 0.644 0.09813 0.0
H896 H 0.34743 0.38559 0.52237 0.0
H897 H 0.38638 0.34247 0.51454 0.0
H898 H 0.40334 0.35622 0.60517 0.0
H899 H 0.40769 0.38046 0.68632 0.0
H900 H 0.36994 0.42449 0.69457 0.0
H901 H 0.3521 0.41051 0.60493 0.0
C902 C 0.3596 0.37923 0.54065 0.0
C903 C 0.36555 0.36297 0.5112 0.0
C904 C 0.3696 0.38739 0.59311 0.0
C905 C 0.38143 0.35499 0.53561 0.0
C906 C 0.3912 0.36283 0.58777 0.0
C907 C 0.39553 0.38702 0.66879 0.0
C908 C 0.39019 0.40351 0.69748 0.0
C909 C 0.38548 0.37903 0.61679 0.0
C910 C 0.37442 0.4118 0.67353 0.0
C911 C 0.36419 0.40379 0.62216 0.0
H912 H 0.3465 0.62669 0.46275 0.0
H913 H 0.38279 0.67215 0.46733 0.0
H914 H 0.40046 0.65913 0.37729 0.0
H915 H 0.40612 0.635 0.29689 0.0
H916 H 0.37105 0.58876 0.29127 0.0
H917 H 0.35261 0.6018 0.38116 0.0
C918 C 0.35826 0.63371 0.44393 0.0
C919 C 0.36321 0.65043 0.47231 0.0
C920 C 0.36869 0.626 0.39163 0.0
C921 C 0.37858 0.65927 0.44713 0.0
C922 C 0.38877 0.65184 0.39527 0.0
C923 C 0.39443 0.62774 0.31512 0.0
C924 C 0.39001 0.61092 0.28701 0.0
C925 C 0.38401 0.63523 0.36715 0.0
C926 C 0.37482 0.60173 0.31184 0.0
C927 C 0.36424 0.60921 0.36335 0.0
H928 H 0.1317 0.66077 0.06808 0.0
H929 H 0.1731 0.62055 0.04548 0.0
H930 H 0.15894 0.60238 0.13414 0.0
H931 H 0.13433 0.59797 0.21874 0.0
H932 H 0.09385 0.63937 0.23936 0.0
H933 H 0.10809 0.65684 0.15127 0.0
C934 C 0.1377 0.64802 0.08226 0.0
C935 C 0.15346 0.64206 0.0497 0.0
C936 C 0.12958 0.63777 0.13332 0.0
C937 C 0.161 0.62552 0.0695 0.0
C938 C 0.15287 0.6151 0.12025 0.0
C939 C 0.12865 0.61081 0.20385 0.0
C940 C 0.11294 0.61724 0.23608 0.0
C941 C 0.13708 0.62108 0.15264 0.0
C942 C 0.10587 0.63398 0.21603 0.0
C943 C 0.11402 0.64405 0.16536 0.0
H944 H 0.10423 0.38066 0.82758 0.0
H945 H 0.14538 0.42111 0.80491 0.0
H946 H 0.16211 0.40808 0.89946 0.0
H947 H 0.16494 0.38487 0.99025 0.0
H948 H 0.12223 0.34585 0.01317 0.0
H949 H 0.10642 0.35863 0.91813 0.0
C950 C 0.11692 0.38661 0.84288 0.0
C951 C 0.12356 0.40178 0.80839 0.0
C952 C 0.12623 0.3793 0.89822 0.0
C953 C 0.13993 0.40939 0.83009 0.0
C954 C 0.1495 0.40194 0.8844 0.0
C955 C 0.15215 0.37923 0.97458 0.0
C956 C 0.14491 0.36431 1.00958 0.0
C957 C 0.14278 0.38687 0.91924 0.0
C958 C 0.12825 0.3573 0.98806 0.0
C959 C 0.11912 0.36458 0.9332 0.0
H960 H 0.18403 0.28499 0.03102 0.0
H961 H 0.15409 0.2845 0.21709 0.0
H962 H 0.15442 0.252 0.21825 0.0
H963 H 0.16247 0.2237 0.16779 0.0
H964 H 0.19215 0.22216 0.98198 0.0
H965 H 0.19268 0.25533 0.97944 0.0
C966 C 0.17762 0.27771 0.07165 0.0
C967 C 0.16909 0.28731 0.12395 0.0
C968 C 0.17778 0.25864 0.07223 0.0
C969 C 0.16084 0.27763 0.17627 0.0
C970 C 0.16098 0.25894 0.17711 0.0
C971 C 0.16916 0.23051 0.12661 0.0
C972 C 0.17726 0.22044 0.07519 0.0
C973 C 0.16933 0.24934 0.12551 0.0
C974 C 0.18582 0.22961 0.02233 0.0
C975 C 0.18608 0.24857 0.02087 0.0
H976 H 0.97551 0.93491 0.27242 0.0
H977 H 0.97032 0.90676 0.4611 0.0
H978 H 1.00264 0.90696 0.47542 0.0
H979 H 0.03247 0.91408 0.43452 0.0
H980 H 0.03918 0.94153 0.2457 0.0
H981 H 0.00635 0.94278 0.23168 0.0
C982 C 0.9815 0.92887 0.31656 0.0
C983 C 0.9704 0.92085 0.36549 0.0
C984 C 1.00041 0.9289 0.32471 0.0
C985 C 0.97841 0.91308 0.42253 0.0
C986 C 0.99697 0.91316 0.43097 0.0
C987 C 0.02681 0.92046 0.39037 0.0
C988 C 0.03825 0.92767 0.34124 0.0
C989 C 0.00809 0.92092 0.38238 0.0
C990 C 0.03064 0.93588 0.2844 0.0
C991 C 0.01187 0.93654 0.27626 0.0
H992 H 0.32621 0.78818 0.52289 0.0
H993 H 0.36235 0.79138 0.69235 0.0
H994 H 0.36183 0.75898 0.70409 0.0
H995 H 0.35122 0.72975 0.66878 0.0
H996 H 0.31592 0.72475 0.49823 0.0
H997 H 0.31589 0.75769 0.48476 0.0
C998 C 0.33404 0.78172 0.56189 0.0
C999 C 0.34421 0.79229 0.60684 0.0
C1000 C 0.33374 0.76274 0.56871 0.0
C1001 C 0.35427 0.78368 0.65727 0.0
C1002 C 0.35401 0.76508 0.66424 0.0
C1003 C 0.34341 0.7358 0.62872 0.0
C1004 C 0.3335 0.72482 0.58489 0.0
C1005 C 0.34372 0.75452 0.62075 0.0
C1006 C 0.32362 0.73293 0.53291 0.0
C1007 C 0.32365 0.75176 0.5251 0.0
H1008 H 0.47459 0.07648 0.78888 0.0
H1009 H 0.47072 0.1144 0.95285 0.0
H1010 H 0.50321 0.11582 0.96089 0.0
H1011 H 0.53273 0.10605 0.92473 0.0
H1012 H 0.53813 0.06837 0.76131 0.0
H1013 H 0.50521 0.06708 0.74978 0.0
C1014 C 0.48092 0.08512 0.82586 0.0
C1015 C 0.47017 0.09523 0.87038 0.0
C1016 C 0.49991 0.08586 0.83075 0.0
C1017 C 0.47859 0.10635 0.91823 0.0
C1018 C 0.49723 0.1072 0.92301 0.0
C1019 C 0.52676 0.09752 0.8865 0.0
C1020 C 0.53786 0.08727 0.84419 0.0
C1021 C 0.508 0.09692 0.88013 0.0
C1022 C 0.52986 0.07639 0.79465 0.0
C1023 C 0.51104 0.07566 0.78805 0.0
H1024 H 0.18597 0.78499 1.00227 0.0
H1025 H 0.15276 0.78866 0.82477 0.0
H1026 H 0.15212 0.75621 0.8152 0.0
H1027 H 0.16034 0.72681 0.85611 0.0
H1028 H 0.19334 0.72136 0.03273 0.0
H1029 H 0.19474 0.75436 0.04358 0.0
C1030 C 0.17861 0.77863 0.96168 0.0
C1031 C 0.16945 0.78935 0.91436 0.0
C1032 C 0.17825 0.75963 0.95609 0.0
C1033 C 0.16 0.78087 0.86191 0.0
C1034 C 0.15958 0.76224 0.85623 0.0
C1035 C 0.16793 0.73275 0.89701 0.0
C1036 C 0.17672 0.72163 0.94349 0.0
C1037 C 0.1686 0.75151 0.90289 0.0
C1038 C 0.18646 0.72964 0.99614 0.0
C1039 C 0.18723 0.7485 1.00239 0.0
H1040 H 0.47876 0.92781 0.24873 0.0
H1041 H 0.47364 0.89913 0.06081 0.0
H1042 H 0.50598 0.89811 0.04894 0.0
H1043 H 0.53566 0.90525 0.08939 0.0
H1044 H 0.54268 0.93358 0.27643 0.0
H1045 H 0.50979 0.93483 0.29117 0.0
C1046 C 0.48479 0.92131 0.2055 0.0
C1047 C 0.47369 0.91365 0.15564 0.0
C1048 C 0.50375 0.92072 0.19856 0.0
C1049 C 0.48173 0.90527 0.09983 0.0
C1050 C 0.5003 0.90463 0.09282 0.0
C1051 C 0.53009 0.91177 0.13349 0.0
C1052 C 0.5416 0.91937 0.18156 0.0
C1053 C 0.5114 0.91235 0.14151 0.0
C1054 C 0.53407 0.92764 0.23855 0.0
C1055 C 0.51528 0.92834 0.24695 0.0
H1056 H 0.34708 0.22457 0.33571 0.0
H1057 H 0.32872 0.22224 0.54074 0.0
H1058 H 0.32589 0.25528 0.54242 0.0
H1059 H 0.3299 0.28503 0.4852 0.0
H1060 H 0.34818 0.28556 0.27936 0.0
H1061 H 0.34944 0.25298 0.27829 0.0
C1062 C 0.34229 0.23115 0.38085 0.0
C1063 C 0.33815 0.22092 0.43804 0.0
C1064 C 0.34064 0.2499 0.38117 0.0
C1065 C 0.33202 0.22982 0.49599 0.0
C1066 C 0.33041 0.2487 0.4969 0.0
C1067 C 0.33397 0.27795 0.44006 0.0
C1068 C 0.33902 0.2878 0.38253 0.0
C1069 C 0.33483 0.25893 0.43975 0.0
C1070 C 0.34429 0.27843 0.32445 0.0
C1071 C 0.34507 0.25974 0.3237 0.0
H1072 H 0.97849 0.07925 0.7402 0.0
H1073 H 0.97258 0.10453 0.54632 0.0
H1074 H 1.00481 0.10335 0.5289 0.0
H1075 H 0.03479 0.09644 0.569 0.0
H1076 H 0.04211 0.0717 0.7626 0.0
H1077 H 0.00935 0.0712 0.77946 0.0
C1078 C 0.98431 0.08443 0.6942 0.0
C1079 C 0.97306 0.092 0.64482 0.0
C1080 C 1.00313 0.08381 0.68426 0.0
C1081 C 0.98081 0.09862 0.58533 0.0
C1082 C 0.99931 0.09798 0.57513 0.0
C1083 C 0.02927 0.0908 0.6148 0.0
C1084 C 0.04086 0.08418 0.66453 0.0
C1085 C 0.01059 0.09077 0.62433 0.0
C1086 C 0.03344 0.07688 0.72344 0.0
C1087 C 0.01472 0.07666 0.7332 0.0
H1088 H 0.84545 0.72383 0.82089 0.0
H1089 H 0.82193 0.71705 0.01702 0.0
H1090 H 0.82167 0.74983 0.033 0.0
H1091 H 0.82951 0.78056 0.99222 0.0
H1092 H 0.85363 0.7861 0.79604 0.0
H1093 H 0.85225 0.7538 0.77942 0.0
C1094 C 0.84014 0.72949 0.86704 0.0
C1095 C 0.83379 0.71802 0.91773 0.0
C1096 C 0.84024 0.74821 0.87609 0.0
C1097 C 0.82691 0.7256 0.97713 0.0
C1098 C 0.82682 0.74434 0.98638 0.0
C1099 C 0.83439 0.77466 0.94589 0.0
C1100 C 0.84169 0.78581 0.89563 0.0
C1101 C 0.83368 0.75581 0.93646 0.0
C1102 C 0.84794 0.77794 0.83574 0.0
C1103 C 0.84718 0.7594 0.826 0.0
H1104 H 0.66104 0.22757 0.34826 0.0
H1105 H 0.68675 0.22154 0.54074 0.0
H1106 H 0.68868 0.25442 0.55214 0.0
H1107 H 0.68202 0.28514 0.50786 0.0
H1108 H 0.65567 0.2898 0.31544 0.0
H1109 H 0.65509 0.25735 0.30389 0.0
C1110 C 0.66716 0.23339 0.39267 0.0
C1111 C 0.6737 0.22212 0.44357 0.0
C1112 C 0.66806 0.25217 0.39906 0.0
C1113 C 0.68161 0.22994 0.50072 0.0
C1114 C 0.68267 0.24875 0.50732 0.0
C1115 C 0.67622 0.27901 0.46347 0.0
C1116 C 0.66892 0.29 0.41271 0.0
C1117 C 0.67578 0.26005 0.45697 0.0
C1118 C 0.66143 0.2818 0.35543 0.0
C1119 C 0.66106 0.26317 0.34858 0.0
H1120 H 0.84731 0.28328 0.17393 0.0
H1121 H 0.82157 0.28927 0.98149 0.0
H1122 H 0.81936 0.25636 0.97083 0.0
H1123 H 0.82561 0.22562 0.01626 0.0
H1124 H 0.85172 0.22115 0.20923 0.0
H1125 H 0.85283 0.2536 0.21936 0.0
C1126 C 0.84114 0.27746 0.12962 0.0
C1127 C 0.83466 0.28872 0.07856 0.0
C1128 C 0.84 0.25869 0.12385 0.0
C1129 C 0.82668 0.28088 0.02161 0.0
C1130 C 0.82544 0.26206 0.01547 0.0
C1131 C 0.83147 0.2318 0.06047 0.0
C1132 C 0.83856 0.22085 0.11181 0.0
C1133 C 0.83218 0.25078 0.06621 0.0
C1134 C 0.84612 0.22911 0.16883 0.0
C1135 C 0.8468 0.24775 0.17484 0.0
H1136 H 0.68374 0.72676 0.53257 0.0
H1137 H 0.65305 0.72507 0.7168 0.0
H1138 H 0.65209 0.75757 0.72049 0.0
H1139 H 0.65923 0.78647 0.67257 0.0
H1140 H 0.68958 0.79005 0.4887 0.0
H1141 H 0.69131 0.75696 0.48356 0.0
C1142 C 0.67692 0.73356 0.57346 0.0
C1143 C 0.66854 0.72335 0.62439 0.0
C1144 C 0.67626 0.75262 0.57536 0.0
C1145 C 0.6597 0.73241 0.67695 0.0
C1146 C 0.65908 0.7511 0.67922 0.0
C1147 C 0.6663 0.78012 0.63124 0.0
C1148 C 0.67428 0.79075 0.58117 0.0
C1149 C 0.66722 0.76131 0.62878 0.0
C1150 C 0.68331 0.78217 0.52797 0.0
C1151 C 0.6843 0.76325 0.5251 0.0
H1152 H 0.53348 0.43418 0.7633 0.0
H1153 H 0.53416 0.41314 0.96527 0.0
H1154 H 0.50153 0.41295 0.96789 0.0
H1155 H 0.47288 0.41729 0.91259 0.0
H1156 H 0.47077 0.4384 0.71135 0.0
H1157 H 0.50382 0.44004 0.70868 0.0
C1158 C 0.52644 0.42971 0.80793 0.0
C1159 C 0.53632 0.42361 0.86387 0.0
C1160 C 0.50743 0.42953 0.8092 0.0
C1161 C 0.52699 0.41785 0.92138 0.0
C1162 C 0.50827 0.4177 0.92302 0.0
C1163 C 0.47956 0.42237 0.86808 0.0
C1164 C 0.46936 0.42763 0.81214 0.0
C1165 C 0.49838 0.42328 0.86708 0.0
C1166 C 0.47832 0.43423 0.75511 0.0
C1167 C 0.49722 0.43514 0.75358 0.0
H1168 H 0.97423 0.59367 0.42476 0.0
H1169 H 0.97077 0.57048 0.22681 0.0
H1170 H 1.0038 0.56995 0.21934 0.0
H1171 H 0.03385 0.57732 0.26875 0.0
H1172 H 0.03578 0.60066 0.46734 0.0
H1173 H 1.00328 0.59976 0.4747 0.0
C1174 C 0.98063 0.5884 0.37994 0.0
C1175 C 0.97004 0.5822 0.32634 0.0
C1176 C 0.99945 0.58819 0.37606 0.0
C1177 C 0.97863 0.57535 0.26885 0.0
C1178 C 0.99752 0.57508 0.26454 0.0
C1179 C 0.02712 0.58209 0.31364 0.0
C1180 C 0.03735 0.58909 0.36727 0.0
C1181 C 0.00811 0.58164 0.31773 0.0
C1182 C 0.02838 0.59521 0.42515 0.0
C1183 C 0.00971 0.59474 0.42956 0.0
H1184 H 0.9799 0.42931 0.75595 0.0
H1185 H 0.97876 0.40738 0.55503 0.0
H1186 H 0.01133 0.40764 0.55074 0.0
H1187 H 0.04002 0.41281 0.60361 0.0
H1188 H 0.04294 0.43499 0.80332 0.0
H1189 H 0.00983 0.43584 0.80864 0.0
C1190 C 0.98683 0.42472 0.71122 0.0
C1191 C 0.97681 0.41827 0.65599 0.0
C1192 C 0.00587 0.42482 0.70891 0.0
C1193 C 0.98601 0.41237 0.59837 0.0
C1194 C 1.00471 0.41248 0.59577 0.0
C1195 C 0.03354 0.41798 0.6484 0.0
C1196 C 0.04399 0.42382 0.70301 0.0
C1197 C 0.01473 0.41848 0.65078 0.0
C1198 C 0.03522 0.4304 0.76052 0.0
C1199 C 0.01629 0.43087 0.76351 0.0
H1200 H 0.47323 0.5783 0.25615 0.0
H1201 H 0.47102 0.60358 0.06113 0.0
H1202 H 0.50351 0.60326 0.0538 0.0
H1203 H 0.53262 0.59706 0.10269 0.0
H1204 H 0.53642 0.57262 0.29821 0.0
H1205 H 0.50341 0.57128 0.3052 0.0
C1206 C 0.4799 0.58364 0.21208 0.0
C1207 C 0.46958 0.59094 0.15934 0.0
C1208 C 0.49892 0.58362 0.20815 0.0
C1209 C 0.47848 0.59784 0.10258 0.0
C1210 C 0.49715 0.59771 0.09817 0.0
C1211 C 0.5263 0.59132 0.14684 0.0
C1212 C 0.53698 0.58499 0.19986 0.0
C1213 C 0.50749 0.5908 0.15071 0.0
C1214 C 0.52849 0.57759 0.2566 0.0
C1215 C 0.50961 0.57687 0.26065 0.0
H1216 H 0.16013 0.15448 0.36145 0.0
H1217 H 0.13618 0.13107 0.18461 0.0
H1218 H 0.11707 0.11192 0.2553 0.0
H1219 H 0.10505 0.10451 0.36707 0.0
H1220 H 0.1294 0.12772 0.54369 0.0
H1221 H 0.15067 0.14435 0.47315 0.0
C1222 C 0.15088 0.14499 0.33842 0.0
C1223 C 0.14931 0.14431 0.26808 0.0
C1224 C 0.13995 0.13422 0.37923 0.0
C1225 C 0.13758 0.13178 0.23864 0.0
C1226 C 0.12658 0.12098 0.27905 0.0
C1227 C 0.1151 0.11314 0.3901 0.0
C1228 C 0.11547 0.11521 0.46036 0.0
C1229 C 0.12728 0.12253 0.34931 0.0
C1230 C 0.1288 0.12603 0.48974 0.0
C1231 C 0.14091 0.13556 0.44944 0.0
H1232 H 0.10341 0.90757 0.63539 0.0
H1233 H 0.12818 0.88511 0.45815 0.0
H1234 H 0.15008 0.86923 0.52817 0.0
H1235 H 0.15975 0.85914 0.63954 0.0
H1236 H 0.135 0.88135 0.81703 0.0
H1237 H 0.11572 0.90042 0.7469 0.0
C1238 C 0.11368 0.89927 0.61207 0.0
C1239 C 0.11396 0.89716 0.54178 0.0
C1240 C 0.1262 0.89027 0.65259 0.0
C1241 C 0.1276 0.88679 0.5121 0.0
C1242 C 0.14009 0.87771 0.55211 0.0
C1243 C 0.15036 0.86843 0.66287 0.0
C1244 C 0.14857 0.86872 0.7332 0.0
C1245 C 0.13918 0.87899 0.62235 0.0
C1246 C 0.13661 0.88095 0.76302 0.0
C1247 C 0.12547 0.89168 0.72291 0.0
H1248 H 0.37772 0.89211 0.02386 0.0
H1249 H 0.40722 0.92304 0.87742 0.0
H1250 H 0.38892 0.91068 0.78743 0.0
H1251 H 0.36881 0.8864 0.74836 0.0
H1252 H 0.33887 0.85591 0.89479 0.0
H1253 H 0.35259 0.87295 0.98559 0.0
C1254 C 0.37971 0.89658 0.97259 0.0
C1255 C 0.39416 0.90799 0.95727 0.0
C1256 C 0.36921 0.88924 0.92036 0.0
C1257 C 0.39646 0.91382 0.89044 0.0
C1258 C 0.38601 0.90675 0.83866 0.0
C1259 C 0.36485 0.88395 0.79993 0.0
C1260 C 0.3533 0.86957 0.81478 0.0
C1261 C 0.373 0.89369 0.85255 0.0
C1262 C 0.34815 0.86665 0.88205 0.0
C1263 C 0.35601 0.87636 0.93427 0.0
H1264 H 0.37773 0.12072 0.01216 0.0
H1265 H 0.40499 0.08791 0.15849 0.0
H1266 H 0.38807 0.10209 0.24895 0.0
H1267 H 0.36968 0.12778 0.28789 0.0
H1268 H 0.3425 0.1605 0.14058 0.0
H1269 H 0.35489 0.14239 0.05035 0.0
C1270 C 0.37945 0.11625 0.06355 0.0
C1271 C 0.3928 0.10359 0.0787 0.0
C1272 C 0.36996 0.12478 0.11586 0.0
C1273 C 0.39494 0.09791 0.1457 0.0
C1274 C 0.38535 0.10607 0.19766 0.0
C1275 C 0.36615 0.13064 0.2362 0.0
C1276 C 0.3557 0.14583 0.22119 0.0
C1277 C 0.37348 0.12019 0.18371 0.0
C1278 C 0.35103 0.14921 0.15371 0.0
C1279 C 0.35806 0.13882 0.10172 0.0
H1280 H 0.89879 0.91386 0.63307 0.0
H1281 H 0.87507 0.89033 0.45588 0.0
H1282 H 0.85456 0.87269 0.52627 0.0
H1283 H 0.84754 0.86023 0.63717 0.0
H1284 H 0.87262 0.88248 0.81411 0.0
H1285 H 0.88834 0.9047 0.74465 0.0
C1286 C 0.88889 0.90511 0.60981 0.0
C1287 C 0.88867 0.90302 0.53953 0.0
C1288 C 0.87761 0.89469 0.65053 0.0
C1289 C 0.87554 0.89204 0.50984 0.0
C1290 C 0.86395 0.88186 0.55011 0.0
C1291 C 0.85624 0.87014 0.66068 0.0
C1292 C 0.85932 0.86948 0.73042 0.0
C1293 C 0.86551 0.88247 0.62037 0.0
C1294 C 0.87019 0.88265 0.76053 0.0
C1295 C 0.87925 0.89525 0.72077 0.0
H1296 H 0.84574 0.15016 0.38367 0.0
H1297 H 0.86845 0.1256 0.2065 0.0
H1298 H 0.88588 0.10497 0.27698 0.0
H1299 H 0.89835 0.0979 0.38778 0.0
H1300 H 0.87687 0.12369 0.56466 0.0
H1301 H 0.8549 0.13976 0.4953 0.0
C1302 C 0.85428 0.14006 0.36044 0.0
C1303 C 0.85618 0.13962 0.29009 0.0
C1304 C 0.86455 0.12868 0.40118 0.0
C1305 C 0.86688 0.12624 0.26049 0.0
C1306 C 0.87694 0.11458 0.3008 0.0
C1307 C 0.88865 0.10683 0.4113 0.0
C1308 C 0.88945 0.10999 0.48097 0.0
C1309 C 0.87647 0.11629 0.37104 0.0
C1310 C 0.87657 0.12117 0.51112 0.0
C1311 C 0.86412 0.13044 0.47141 0.0
H1312 H 0.65563 0.15492 0.15091 0.0
H1313 H 0.62989 0.13406 0.32863 0.0
H1314 H 0.61164 0.11378 0.25939 0.0
H1315 H 0.60099 0.10435 0.14781 0.0
H1316 H 0.62736 0.12454 0.97029 0.0
H1317 H 0.64762 0.14263 0.04013 0.0
C1318 C 0.64615 0.14579 0.17449 0.0
C1319 C 0.64387 0.14615 0.24465 0.0
C1320 C 0.63581 0.13416 0.13444 0.0
C1321 C 0.63183 0.13403 0.27476 0.0
C1322 C 0.62134 0.12253 0.23515 0.0
C1323 C 0.61133 0.11255 0.12447 0.0
C1324 C 0.61254 0.11334 0.05401 0.0
C1325 C 0.62291 0.12283 0.1649 0.0
C1326 C 0.62617 0.12374 0.02438 0.0
C1327 C 0.63766 0.13416 0.06428 0.0
H1328 H 0.63651 0.87903 0.73323 0.0
H1329 H 0.67102 0.85395 0.87952 0.0
H1330 H 0.65669 0.87097 0.96949 0.0
H1331 H 0.63132 0.88962 1.00869 0.0
H1332 H 0.59625 0.91401 0.86212 0.0
H1333 H 0.61377 0.90094 0.77136 0.0
C1334 C 0.64119 0.87774 0.78453 0.0
C1335 C 0.65463 0.86514 0.79977 0.0
C1336 C 0.63253 0.88723 0.83664 0.0
C1337 C 0.66052 0.86346 0.86665 0.0
C1338 C 0.65229 0.87314 0.91829 0.0
C1339 C 0.62775 0.89235 0.95693 0.0
C1340 C 0.61225 0.90243 0.94259 0.0
C1341 C 0.63778 0.88453 0.90431 0.0
C1342 C 0.60789 0.90592 0.87494 0.0
C1343 C 0.61793 0.89849 0.82266 0.0
H1344 H 0.60379 0.60159 0.91 0.0
H1345 H 0.62705 0.62589 0.08665 0.0
H1346 H 0.64739 0.64362 0.01603 0.0
H1347 H 0.65568 0.65481 0.90437 0.0
H1348 H 0.6325 0.63063 0.72754 0.0
H1349 H 0.61511 0.60989 0.79815 0.0
C1350 C 0.61346 0.61063 0.93307 0.0
C1351 C 0.61371 0.61274 1.00336 0.0
C1352 C 0.62501 0.62078 0.8922 0.0
C1353 C 0.62655 0.62414 0.03272 0.0
C1354 C 0.6381 0.63432 0.99235 0.0
C1355 C 0.64701 0.6448 0.8813 0.0
C1356 C 0.64507 0.64438 0.81104 0.0
C1357 C 0.63702 0.63314 0.92211 0.0
C1358 C 0.63413 0.63118 0.78151 0.0
C1359 C 0.62412 0.61946 0.82189 0.0
H1360 H 0.66125 0.36135 0.14314 0.0
H1361 H 0.63732 0.38433 0.32092 0.0
H1362 H 0.61921 0.40455 0.25107 0.0
H1363 H 0.607 0.412 0.14 0.0
H1364 H 0.63028 0.38821 0.96234 0.0
H1365 H 0.65208 0.372 0.03185 0.0
C1366 C 0.65231 0.37104 0.16663 0.0
C1367 C 0.65032 0.37118 0.23693 0.0
C1368 C 0.64171 0.38222 0.12623 0.0
C1369 C 0.63902 0.38398 0.26694 0.0
C1370 C 0.62856 0.39539 0.22698 0.0
C1371 C 0.61699 0.40342 0.1164 0.0
C1372 C 0.6168 0.40093 0.04627 0.0
C1373 C 0.62926 0.39404 0.15665 0.0
C1374 C 0.63008 0.3902 0.01618 0.0
C1375 C 0.64247 0.38089 0.05594 0.0
H1376 H 0.90531 0.40586 0.38151 0.0
H1377 H 0.88496 0.37956 0.5589 0.0
H1378 H 0.86404 0.36198 0.48975 0.0
H1379 H 0.8542 0.35181 0.37802 0.0
H1380 H 0.87443 0.37837 0.20086 0.0
H1381 H 0.8927 0.39836 0.27105 0.0
C1382 C 0.89612 0.39643 0.40513 0.0
C1383 C 0.89684 0.39377 0.47507 0.0
C1384 C 0.88428 0.38638 0.36511 0.0
C1385 C 0.88466 0.38181 0.50521 0.0
C1386 C 0.87281 0.37168 0.46562 0.0
C1387 C 0.86247 0.3621 0.35478 0.0
C1388 C 0.86322 0.36342 0.28426 0.0
C1389 C 0.87292 0.37348 0.3954 0.0
C1390 C 0.87368 0.37704 0.25492 0.0
C1391 C 0.88419 0.3884 0.29502 0.0
H1392 H 0.8518 0.65222 0.62019 0.0
H1393 H 0.87565 0.6295 0.79836 0.0
H1394 H 0.89351 0.60892 0.72913 0.0
H1395 H 0.90435 0.59956 0.61802 0.0
H1396 H 0.88012 0.62171 0.43969 0.0
H1397 H 0.86011 0.64024 0.5091 0.0
C1398 C 0.86081 0.64265 0.64388 0.0
C1399 C 0.86265 0.64256 0.71424 0.0
C1400 C 0.87093 0.63084 0.6038 0.0
C1401 C 0.87406 0.62986 0.74435 0.0
C1402 C 0.88431 0.61816 0.70478 0.0
C1403 C 0.89453 0.6083 0.59435 0.0
C1404 C 0.89385 0.6095 0.52389 0.0
C1405 C 0.88316 0.61886 0.63449 0.0
C1406 C 0.88088 0.62059 0.49379 0.0
C1407 C 0.86955 0.63126 0.53348 0.0
H1408 H 0.35155 0.35855 0.10602 0.0
H1409 H 0.37701 0.3803 0.28294 0.0
H1410 H 0.39371 0.40179 0.21332 0.0
H1411 H 0.40375 0.41146 0.10151 0.0
H1412 H 0.37838 0.38956 0.92459 0.0
H1413 H 0.35861 0.37115 0.99518 0.0
C1414 C 0.3606 0.36817 0.1294 0.0
C1415 C 0.36337 0.36767 0.19928 0.0
C1416 C 0.37017 0.38031 0.08912 0.0
C1417 C 0.37476 0.38041 0.22925 0.0
C1418 C 0.38436 0.39259 0.18942 0.0
C1419 C 0.39371 0.40283 0.07842 0.0
C1420 C 0.39271 0.40157 1.00797 0.0
C1421 C 0.38259 0.39222 0.11921 0.0
C1422 C 0.37942 0.39068 0.97864 0.0
C1423 C 0.36823 0.38009 0.01898 0.0
H1424 H 0.40027 0.60338 0.88377 0.0
H1425 H 0.37791 0.62811 0.06108 0.0
H1426 H 0.35855 0.64707 0.99081 0.0
H1427 H 0.35113 0.65911 0.87918 0.0
H1428 H 0.37373 0.63437 0.70211 0.0
H1429 H 0.38993 0.61274 0.77234 0.0
C1430 C 0.39091 0.61272 0.90704 0.0
C1431 C 0.39064 0.61459 0.97734 0.0
C1432 C 0.38015 0.62368 0.86643 0.0
C1433 C 0.3783 0.62645 1.00709 0.0
C1434 C 0.3674 0.63739 0.9669 0.0
C1435 C 0.35952 0.64889 0.85594 0.0
C1436 C 0.36159 0.64855 0.78564 0.0
C1437 C 0.36873 0.63656 0.89657 0.0
C1438 C 0.37207 0.63498 0.75607 0.0
C1439 C 0.38135 0.62266 0.7962 0.0
H1440 H 0.15561 0.65921 0.64689 0.0
H1441 H 0.13629 0.63101 0.82187 0.0
H1442 H 0.12007 0.60973 0.74978 0.0
H1443 H 0.10868 0.60161 0.63819 0.0
H1444 H 0.12794 0.62976 0.46311 0.0
H1445 H 0.14736 0.64849 0.53421 0.0
C1446 C 0.14795 0.64831 0.6692 0.0
C1447 C 0.14677 0.64686 0.73954 0.0
C1448 C 0.13875 0.6362 0.62754 0.0
C1449 C 0.13724 0.63244 0.7679 0.0
C1450 C 0.12796 0.62034 0.72673 0.0
C1451 C 0.11738 0.61166 0.61553 0.0
C1452 C 0.11674 0.61456 0.54576 0.0
C1453 C 0.12822 0.62244 0.65668 0.0
C1454 C 0.12824 0.62733 0.51669 0.0
C1455 C 0.13918 0.63812 0.55739 0.0
H1456 H 0.13915 0.38093 0.27151 0.0
H1457 H 0.16773 0.34919 0.41797 0.0
H1458 H 0.15597 0.36775 0.50833 0.0
H1459 H 0.13352 0.38974 0.54755 0.0
H1460 H 0.10476 0.42143 0.40164 0.0
H1461 H 0.1208 0.40661 0.31048 0.0
C1462 C 0.14313 0.37841 0.32299 0.0
C1463 C 0.15384 0.36341 0.33796 0.0
C1464 C 0.1361 0.38905 0.37549 0.0
C1465 C 0.15904 0.36039 0.4051 0.0
C1466 C 0.15236 0.37101 0.45709 0.0
C1467 C 0.13121 0.39376 0.49597 0.0
C1468 C 0.11773 0.40634 0.4814 0.0
C1469 C 0.14024 0.38489 0.44325 0.0
C1470 C 0.11488 0.41146 0.41412 0.0
C1471 C 0.124 0.40297 0.36176 0.0
loop_
_geom_bond_atom_site_label_1
_geom_bond_atom_site_label_2
_geom_bond_distance
_geom_bond_site_symmetry_2
_ccdc_geom_bond_type
Co0 O1 2.216 . S
Co0 O2 2.091 . S
Co0 O4 2.004 . S
Co0 O10 2.021 . S
Co0 O12 2.137 . S
Co0 O13 2.244 . S
O1 Co0 2.216 . S
O1 C8 1.247 . S
O2 Co0 2.091 . S
O2 C8 1.261 . S
C3 O12 1.247 . S
C3 O13 1.272 . S
O4 Co0 2.004 . S
O4 C9 1.259 . S
Co5 O6 2.061 . S
Co5 O11 2.052 . S
Co5 O13 2.135 . S
O6 Co5 2.061 . S
O6 C9 1.235 . S
C7 O10 1.238 . S
C7 O11 1.241 . S
C8 O1 1.247 . S
C8 O2 1.261 . S
C9 O4 1.259 . S
C9 O6 1.235 . S
O10 Co0 2.021 . S
O10 C7 1.238 . S
O11 Co5 2.052 . S
O11 C7 1.241 . S
O12 Co0 2.137 . S
O12 C3 1.247 . S
O13 Co0 2.244 . S
O13 C3 1.272 . S
O13 Co5 2.135 . S
Co14 O15 2.216 . S
Co14 O16 2.091 . S
Co14 O18 2.004 . S
Co14 O24 2.021 . S
Co14 O26 2.137 . S
Co14 O27 2.244 . S
O15 Co14 2.216 . S
O15 C22 1.247 . S
O16 Co14 2.091 . S
O16 C22 1.261 . S
C17 O26 1.247 . S
C17 O27 1.272 . S
O18 Co14 2.004 . S
O18 C23 1.259 . S
Co19 O20 2.061 . S
Co19 O25 2.052 . S
Co19 O27 2.135 . S
O20 Co19 2.061 . S
O20 C23 1.235 . S
C21 O24 1.238 . S
C21 O25 1.241 . S
C22 O15 1.247 . S
C22 O16 1.261 . S
C23 O18 1.259 . S
C23 O20 1.235 . S
O24 Co14 2.021 . S
O24 C21 1.238 . S
O25 Co19 2.052 . S
O25 C21 1.241 . S
O26 Co14 2.137 . S
O26 C17 1.247 . S
O27 Co14 2.244 . S
O27 C17 1.272 . S
O27 Co19 2.135 . S
Co28 O29 2.216 . S
Co28 O30 2.091 . S
Co28 O32 2.004 . S
Co28 O38 2.021 . S
Co28 O40 2.137 . S
Co28 O41 2.244 . S
O29 Co28 2.216 . S
O29 C36 1.247 . S
O30 Co28 2.091 . S
O30 C36 1.261 . S
C31 O40 1.247 . S
C31 O41 1.272 . S
O32 Co28 2.004 . S
O32 C37 1.259 . S
Co33 O34 2.061 . S
Co33 O39 2.052 . S
Co33 O41 2.135 . S
O34 Co33 2.061 . S
O34 C37 1.235 . S
C35 O38 1.238 . S
C35 O39 1.241 . S
C36 O29 1.247 . S
C36 O30 1.261 . S
C37 O32 1.259 . S
C37 O34 1.235 . S
O38 Co28 2.021 . S
O38 C35 1.238 . S
O39 Co33 2.052 . S
O39 C35 1.241 . S
O40 Co28 2.137 . S
O40 C31 1.247 . S
O41 Co28 2.244 . S
O41 C31 1.272 . S
O41 Co33 2.135 . S
Co42 O43 2.216 . S
Co42 O44 2.091 . S
Co42 O46 2.004 . S
Co42 O52 2.021 . S
Co42 O54 2.137 . S
Co42 O55 2.244 . S
O43 Co42 2.216 . S
O43 C50 1.247 . S
O44 Co42 2.091 . S
O44 C50 1.261 . S
C45 O54 1.247 . S
C45 O55 1.272 . S
O46 Co42 2.004 . S
O46 C51 1.259 . S
Co47 O48 2.061 1_554 S
Co47 O53 2.052 . S
Co47 O55 2.135 1_554 S
O48 Co47 2.061 1_556 S
O48 C51 1.235 . S
C49 O52 1.238 . S
C49 O53 1.241 1_556 S
C50 O43 1.247 . S
C50 O44 1.261 . S
C51 O46 1.259 . S
C51 O48 1.235 . S
O52 Co42 2.021 . S
O52 C49 1.238 . S
O53 Co47 2.052 . S
O53 C49 1.241 1_554 S
O54 Co42 2.137 . S
O54 C45 1.247 . S
O55 Co42 2.244 . S
O55 C45 1.272 . S
O55 Co47 2.135 1_556 S
Co56 O57 2.216 . S
Co56 O58 2.091 . S
Co56 O60 2.004 . S
Co56 O66 2.021 . S
Co56 O68 2.137 . S
Co56 O69 2.244 . S
O57 Co56 2.216 . S
O57 C64 1.247 . S
O58 Co56 2.091 . S
O58 C64 1.261 . S
C59 O68 1.247 . S
C59 O69 1.272 . S
O60 Co56 2.004 . S
O60 C65 1.259 . S
Co61 O62 2.061 . S
Co61 O67 2.052 . S
Co61 O69 2.135 . S
O62 Co61 2.061 . S
O62 C65 1.235 . S
C63 O66 1.238 . S
C63 O67 1.241 . S
C64 O57 1.247 . S
C64 O58 1.261 . S
C65 O60 1.259 . S
C65 O62 1.235 . S
O66 Co56 2.021 . S
O66 C63 1.238 . S
O67 Co61 2.052 . S
O67 C63 1.241 . S
O68 Co56 2.137 . S
O68 C59 1.247 . S
O69 Co56 2.244 . S
O69 C59 1.272 . S
O69 Co61 2.135 . S
Co70 O71 2.216 . S
Co70 O72 2.091 . S
Co70 O74 2.004 . S
Co70 O80 2.021 . S
Co70 O82 2.137 . S
Co70 O83 2.244 . S
O71 Co70 2.216 . S
O71 C78 1.247 . S
O72 Co70 2.091 . S
O72 C78 1.261 . S
C73 O82 1.247 . S
C73 O83 1.272 . S
O74 Co70 2.004 . S
O74 C79 1.259 . S
Co75 O76 2.061 1_556 S
Co75 O81 2.052 . S
Co75 O83 2.135 1_556 S
O76 Co75 2.061 1_554 S
O76 C79 1.235 . S
C77 O80 1.238 . S
C77 O81 1.241 1_554 S
C78 O71 1.247 . S
C78 O72 1.261 . S
C79 O74 1.259 . S
C79 O76 1.235 . S
O80 Co70 2.021 . S
O80 C77 1.238 . S
O81 Co75 2.052 . S
O81 C77 1.241 1_556 S
O82 Co70 2.137 . S
O82 C73 1.247 . S
O83 Co70 2.244 . S
O83 C73 1.272 . S
O83 Co75 2.135 1_554 S
Co84 O85 2.216 . S
Co84 O86 2.091 . S
Co84 O88 2.004 . S
Co84 O94 2.021 . S
Co84 O96 2.137 . S
Co84 O97 2.244 . S
O85 Co84 2.216 . S
O85 C92 1.247 . S
O86 Co84 2.091 . S
O86 C92 1.261 . S
C87 O96 1.247 . S
C87 O97 1.272 . S
O88 Co84 2.004 . S
O88 C93 1.259 . S
Co89 O90 2.061 . S
Co89 O95 2.052 . S
Co89 O97 2.135 . S
O90 Co89 2.061 . S
O90 C93 1.235 . S
C91 O94 1.238 . S
C91 O95 1.241 . S
C92 O85 1.247 . S
C92 O86 1.261 . S
C93 O88 1.259 . S
C93 O90 1.235 . S
O94 Co84 2.021 . S
O94 C91 1.238 . S
O95 Co89 2.052 . S
O95 C91 1.241 . S
O96 Co84 2.137 . S
O96 C87 1.247 . S
O97 Co84 2.244 . S
O97 C87 1.272 . S
O97 Co89 2.135 . S
Co98 O99 2.216 . S
Co98 O100 2.091 . S
Co98 O102 2.004 . S
Co98 O108 2.021 . S
Co98 O110 2.137 . S
Co98 O111 2.244 . S
O99 Co98 2.216 . S
O99 C106 1.247 . S
O100 Co98 2.091 . S
O100 C106 1.261 . S
C101 O110 1.247 . S
C101 O111 1.272 . S
O102 Co98 2.004 . S
O102 C107 1.259 . S
Co103 O104 2.061 . S
Co103 O109 2.052 . S
Co103 O111 2.135 . S
O104 Co103 2.061 . S
O104 C107 1.235 . S
C105 O108 1.238 . S
C105 O109 1.241 . S
C106 O99 1.247 . S
C106 O100 1.261 . S
C107 O102 1.259 . S
C107 O104 1.235 . S
O108 Co98 2.021 . S
O108 C105 1.238 . S
O109 Co103 2.052 . S
O109 C105 1.241 . S
O110 Co98 2.137 . S
O110 C101 1.247 . S
O111 Co98 2.244 . S
O111 C101 1.272 . S
O111 Co103 2.135 . S
Co112 O113 2.216 . S
Co112 O114 2.091 . S
Co112 O116 2.004 . S
Co112 O122 2.021 . S
Co112 O124 2.137 . S
Co112 O125 2.244 . S
O113 Co112 2.216 . S
O113 C120 1.247 . S
O114 Co112 2.091 . S
O114 C120 1.261 . S
C115 O124 1.247 . S
C115 O125 1.272 . S
O116 Co112 2.004 . S
O116 C121 1.259 . S
Co117 O118 2.061 . S
Co117 O123 2.052 . S
Co117 O125 2.135 . S
O118 Co117 2.061 . S
O118 C121 1.235 . S
C119 O122 1.238 . S
C119 O123 1.241 . S
C120 O113 1.247 . S
C120 O114 1.261 . S
C121 O116 1.259 . S
C121 O118 1.235 . S
O122 Co112 2.021 . S
O122 C119 1.238 . S
O123 Co117 2.052 . S
O123 C119 1.241 . S
O124 Co112 2.137 . S
O124 C115 1.247 . S
O125 Co112 2.244 . S
O125 C115 1.272 . S
O125 Co117 2.135 . S
Co126 O127 2.216 . S
Co126 O128 2.091 . S
Co126 O130 2.004 . S
Co126 O136 2.021 . S
Co126 O138 2.137 . S
Co126 O139 2.244 . S
O127 Co126 2.216 . S
O127 C134 1.247 . S
O128 Co126 2.091 . S
O128 C134 1.261 . S
C129 O138 1.247 . S
C129 O139 1.272 . S
O130 Co126 2.004 . S
O130 C135 1.259 . S
Co131 O132 2.061 . S
Co131 O137 2.052 . S
Co131 O139 2.135 . S
O132 Co131 2.061 . S
O132 C135 1.235 . S
C133 O136 1.238 . S
C133 O137 1.241 . S
C134 O127 1.247 . S
C134 O128 1.261 . S
C135 O130 1.259 . S
C135 O132 1.235 . S
O136 Co126 2.021 . S
O136 C133 1.238 . S
O137 Co131 2.052 . S
O137 C133 1.241 . S
O138 Co126 2.137 . S
O138 C129 1.247 . S
O139 Co126 2.244 . S
O139 C129 1.272 . S
O139 Co131 2.135 . S
Co140 O141 2.216 . S
Co140 O142 2.091 . S
Co140 O144 2.004 . S
Co140 O150 2.021 . S
Co140 O152 2.137 . S
Co140 O153 2.244 . S
O141 Co140 2.216 . S
O141 C148 1.247 . S
O142 Co140 2.091 . S
O142 C148 1.261 . S
C143 O152 1.247 . S
C143 O153 1.272 . S
O144 Co140 2.004 . S
O144 C149 1.259 . S
Co145 O146 2.061 . S
Co145 O151 2.052 . S
Co145 O153 2.135 . S
O146 Co145 2.061 . S
O146 C149 1.235 . S
C147 O150 1.238 . S
C147 O151 1.241 . S
C148 O141 1.247 . S
C148 O142 1.261 . S
C149 O144 1.259 . S
C149 O146 1.235 . S
O150 Co140 2.021 . S
O150 C147 1.238 . S
O151 Co145 2.052 . S
O151 C147 1.241 . S
O152 Co140 2.137 . S
O152 C143 1.247 . S
O153 Co140 2.244 . S
O153 C143 1.272 . S
O153 Co145 2.135 . S
Co154 O155 2.216 . S
Co154 O156 2.091 . S
Co154 O158 2.004 . S
Co154 O164 2.021 . S
Co154 O166 2.137 . S
Co154 O167 2.244 . S
O155 Co154 2.216 . S
O155 C162 1.247 . S
O156 Co154 2.091 . S
O156 C162 1.261 . S
C157 O166 1.247 . S
C157 O167 1.272 . S
O158 Co154 2.004 . S
O158 C163 1.259 . S
Co159 O160 2.061 1_556 S
Co159 O165 2.052 . S
Co159 O167 2.135 1_556 S
O160 Co159 2.061 1_554 S
O160 C163 1.235 . S
C161 O164 1.238 . S
C161 O165 1.241 1_554 S
C162 O155 1.247 . S
C162 O156 1.261 . S
C163 O158 1.259 . S
C163 O160 1.235 . S
O164 Co154 2.021 . S
O164 C161 1.238 . S
O165 Co159 2.052 . S
O165 C161 1.241 1_556 S
O166 Co154 2.137 . S
O166 C157 1.247 . S
O167 Co154 2.244 . S
O167 C157 1.272 . S
O167 Co159 2.135 1_554 S
Co168 O169 2.216 . S
Co168 O170 2.091 . S
Co168 O172 2.004 . S
Co168 O178 2.021 . S
Co168 O180 2.137 . S
Co168 O181 2.244 . S
O169 Co168 2.216 . S
O169 C176 1.247 . S
O170 Co168 2.091 . S
O170 C176 1.261 . S
C171 O180 1.247 . S
C171 O181 1.272 . S
O172 Co168 2.004 . S
O172 C177 1.259 . S
Co173 O174 2.061 . S
Co173 O179 2.052 . S
Co173 O181 2.135 . S
O174 Co173 2.061 . S
O174 C177 1.235 . S
C175 O178 1.238 . S
C175 O179 1.241 . S
C176 O169 1.247 . S
C176 O170 1.261 . S
C177 O172 1.259 . S
C177 O174 1.235 . S
O178 Co168 2.021 . S
O178 C175 1.238 . S
O179 Co173 2.052 . S
O179 C175 1.241 . S
O180 Co168 2.137 . S
O180 C171 1.247 . S
O181 Co168 2.244 . S
O181 C171 1.272 . S
O181 Co173 2.135 . S
Co182 O183 2.216 . S
Co182 O184 2.091 . S
Co182 O186 2.004 . S
Co182 O192 2.021 . S
Co182 O194 2.137 . S
Co182 O195 2.244 . S
O183 Co182 2.216 . S
O183 C190 1.247 . S
O184 Co182 2.091 . S
O184 C190 1.261 . S
C185 O194 1.247 . S
C185 O195 1.272 . S
O186 Co182 2.004 . S
O186 C191 1.259 . S
Co187 O188 2.061 1_554 S
Co187 O193 2.052 . S
Co187 O195 2.135 1_554 S
O188 Co187 2.061 1_556 S
O188 C191 1.235 . S
C189 O192 1.238 . S
C189 O193 1.241 1_556 S
C190 O183 1.247 . S
C190 O184 1.261 . S
C191 O186 1.259 . S
C191 O188 1.235 . S
O192 Co182 2.021 . S
O192 C189 1.238 . S
O193 Co187 2.052 . S
O193 C189 1.241 1_554 S
O194 Co182 2.137 . S
O194 C185 1.247 . S
O195 Co182 2.244 . S
O195 C185 1.272 . S
O195 Co187 2.135 1_556 S
Co196 O197 2.216 . S
Co196 O198 2.091 . S
Co196 O200 2.004 . S
Co196 O206 2.021 . S
Co196 O208 2.137 . S
Co196 O209 2.244 . S
O197 Co196 2.216 . S
O197 C204 1.247 . S
O198 Co196 2.091 . S
O198 C204 1.261 . S
C199 O208 1.247 . S
C199 O209 1.272 . S
O200 Co196 2.004 . S
O200 C205 1.259 . S
Co201 O202 2.061 . S
Co201 O207 2.052 . S
Co201 O209 2.135 . S
O202 Co201 2.061 . S
O202 C205 1.235 . S
C203 O206 1.238 . S
C203 O207 1.241 . S
C204 O197 1.247 . S
C204 O198 1.261 . S
C205 O200 1.259 . S
C205 O202 1.235 . S
O206 Co196 2.021 . S
O206 C203 1.238 . S
O207 Co201 2.052 . S
O207 C203 1.241 . S
O208 Co196 2.137 . S
O208 C199 1.247 . S
O209 Co196 2.244 . S
O209 C199 1.272 . S
O209 Co201 2.135 . S
Co210 O211 2.216 . S
Co210 O212 2.091 . S
Co210 O214 2.004 . S
Co210 O220 2.021 . S
Co210 O222 2.137 . S
Co210 O223 2.244 . S
O211 Co210 2.216 . S
O211 C218 1.247 . S
O212 Co210 2.091 . S
O212 C218 1.261 . S
C213 O222 1.247 . S
C213 O223 1.272 . S
O214 Co210 2.004 . S
O214 C219 1.259 . S
Co215 O216 2.061 . S
Co215 O221 2.052 . S
Co215 O223 2.135 . S
O216 Co215 2.061 . S
O216 C219 1.235 . S
C217 O220 1.238 . S
C217 O221 1.241 . S
C218 O211 1.247 . S
C218 O212 1.261 . S
C219 O214 1.259 . S
C219 O216 1.235 . S
O220 Co210 2.021 . S
O220 C217 1.238 . S
O221 Co215 2.052 . S
O221 C217 1.241 . S
O222 Co210 2.137 . S
O222 C213 1.247 . S
O223 Co210 2.244 . S
O223 C213 1.272 . S
O223 Co215 2.135 . S
Co224 O225 2.216 . S
Co224 O226 2.091 . S
Co224 O228 2.004 . S
Co224 O234 2.021 . S
Co224 O236 2.137 . S
Co224 O237 2.244 . S
O225 Co224 2.216 . S
O225 C232 1.247 . S
O226 Co224 2.091 . S
O226 C232 1.261 . S
C227 O236 1.247 . S
C227 O237 1.272 . S
O228 Co224 2.004 . S
O228 C233 1.259 . S
Co229 O230 2.061 . S
Co229 O235 2.052 . S
Co229 O237 2.135 . S
O230 Co229 2.061 . S
O230 C233 1.235 . S
C231 O234 1.238 . S
C231 O235 1.241 . S
C232 O225 1.247 . S
C232 O226 1.261 . S
C233 O228 1.259 . S
C233 O230 1.235 . S
O234 Co224 2.021 . S
O234 C231 1.238 . S
O235 Co229 2.052 . S
O235 C231 1.241 . S
O236 Co224 2.137 . S
O236 C227 1.247 . S
O237 Co224 2.244 . S
O237 C227 1.272 . S
O237 Co229 2.135 . S
Co238 O239 2.216 . S
Co238 O240 2.091 . S
Co238 O242 2.004 . S
Co238 O248 2.021 . S
Co238 O250 2.137 . S
Co238 O251 2.244 . S
O239 Co238 2.216 . S
O239 C246 1.247 . S
O240 Co238 2.091 . S
O240 C246 1.261 . S
C241 O250 1.247 . S
C241 O251 1.272 . S
O242 Co238 2.004 . S
O242 C247 1.259 . S
Co243 O244 2.061 1_554 S
Co243 O249 2.052 . S
Co243 O251 2.135 1_554 S
O244 Co243 2.061 1_556 S
O244 C247 1.235 . S
C245 O248 1.238 . S
C245 O249 1.241 1_556 S
C246 O239 1.247 . S
C246 O240 1.261 . S
C247 O242 1.259 . S
C247 O244 1.235 . S
O248 Co238 2.021 . S
O248 C245 1.238 . S
O249 Co243 2.052 . S
O249 C245 1.241 1_554 S
O250 Co238 2.137 . S
O250 C241 1.247 . S
O251 Co238 2.244 . S
O251 C241 1.272 . S
O251 Co243 2.135 1_556 S
Co252 O253 2.216 . S
Co252 O254 2.091 . S
Co252 O256 2.004 . S
Co252 O262 2.021 . S
Co252 O264 2.137 . S
Co252 O265 2.244 . S
O253 Co252 2.216 . S
O253 C260 1.247 . S
O254 Co252 2.091 . S
O254 C260 1.261 . S
C255 O264 1.247 . S
C255 O265 1.272 . S
O256 Co252 2.004 . S
O256 C261 1.259 . S
Co257 O258 2.061 . S
Co257 O263 2.052 . S
Co257 O265 2.135 . S
O258 Co257 2.061 . S
O258 C261 1.235 . S
C259 O262 1.238 . S
C259 O263 1.241 . S
C260 O253 1.247 . S
C260 O254 1.261 . S
C261 O256 1.259 . S
C261 O258 1.235 . S
O262 Co252 2.021 . S
O262 C259 1.238 . S
O263 Co257 2.052 . S
O263 C259 1.241 . S
O264 Co252 2.137 . S
O264 C255 1.247 . S
O265 Co252 2.244 . S
O265 C255 1.272 . S
O265 Co257 2.135 . S
Co266 O267 2.216 . S
Co266 O268 2.091 . S
Co266 O270 2.004 . S
Co266 O276 2.021 . S
Co266 O278 2.137 . S
Co266 O279 2.244 . S
O267 Co266 2.216 . S
O267 C274 1.247 . S
O268 Co266 2.091 . S
O268 C274 1.261 . S
C269 O278 1.247 . S
C269 O279 1.272 . S
O270 Co266 2.004 . S
O270 C275 1.259 . S
Co271 O272 2.061 . S
Co271 O277 2.052 . S
Co271 O279 2.135 . S
O272 Co271 2.061 . S
O272 C275 1.235 . S
C273 O276 1.238 . S
C273 O277 1.241 . S
C274 O267 1.247 . S
C274 O268 1.261 . S
C275 O270 1.259 . S
C275 O272 1.235 . S
O276 Co266 2.021 . S
O276 C273 1.238 . S
O277 Co271 2.052 . S
O277 C273 1.241 . S
O278 Co266 2.137 . S
O278 C269 1.247 . S
O279 Co266 2.244 . S
O279 C269 1.272 . S
O279 Co271 2.135 . S
Co280 O281 2.216 . S
Co280 O282 2.091 . S
Co280 O284 2.004 . S
Co280 O290 2.021 . S
Co280 O292 2.137 . S
Co280 O293 2.244 . S
O281 Co280 2.216 . S
O281 C288 1.247 . S
O282 Co280 2.091 . S
O282 C288 1.261 . S
C283 O292 1.247 . S
C283 O293 1.272 . S
O284 Co280 2.004 . S
O284 C289 1.259 . S
Co285 O286 2.061 . S
Co285 O291 2.052 . S
Co285 O293 2.135 . S
O286 Co285 2.061 . S
O286 C289 1.235 . S
C287 O290 1.238 . S
C287 O291 1.241 . S
C288 O281 1.247 . S
C288 O282 1.261 . S
C289 O284 1.259 . S
C289 O286 1.235 . S
O290 Co280 2.021 . S
O290 C287 1.238 . S
O291 Co285 2.052 . S
O291 C287 1.241 . S
O292 Co280 2.137 . S
O292 C283 1.247 . S
O293 Co280 2.244 . S
O293 C283 1.272 . S
O293 Co285 2.135 . S
Co294 O295 2.216 . S
Co294 O296 2.091 . S
Co294 O298 2.004 . S
Co294 O304 2.021 . S
Co294 O306 2.137 . S
Co294 O307 2.244 . S
O295 Co294 2.216 . S
O295 C302 1.247 . S
O296 Co294 2.091 . S
O296 C302 1.261 . S
C297 O306 1.247 . S
C297 O307 1.272 . S
O298 Co294 2.004 . S
O298 C303 1.259 . S
Co299 O300 2.061 . S
Co299 O305 2.052 . S
Co299 O307 2.135 . S
O300 Co299 2.061 . S
O300 C303 1.235 . S
C301 O304 1.238 . S
C301 O305 1.241 . S
C302 O295 1.247 . S
C302 O296 1.261 . S
C303 O298 1.259 . S
C303 O300 1.235 . S
O304 Co294 2.021 . S
O304 C301 1.238 . S
O305 Co299 2.052 . S
O305 C301 1.241 . S
O306 Co294 2.137 . S
O306 C297 1.247 . S
O307 Co294 2.244 . S
O307 C297 1.272 . S
O307 Co299 2.135 . S
Co308 O309 2.216 . S
Co308 O310 2.091 . S
Co308 O312 2.004 . S
Co308 O318 2.021 . S
Co308 O320 2.137 . S
Co308 O321 2.244 . S
O309 Co308 2.216 . S
O309 C316 1.247 . S
O310 Co308 2.091 . S
O310 C316 1.261 . S
C311 O320 1.247 . S
C311 O321 1.272 . S
O312 Co308 2.004 . S
O312 C317 1.259 . S
Co313 O314 2.061 . S
Co313 O319 2.052 . S
Co313 O321 2.135 . S
O314 Co313 2.061 . S
O314 C317 1.235 . S
C315 O318 1.238 . S
C315 O319 1.241 . S
C316 O309 1.247 . S
C316 O310 1.261 . S
C317 O312 1.259 . S
C317 O314 1.235 . S
O318 Co308 2.021 . S
O318 C315 1.238 . S
O319 Co313 2.052 . S
O319 C315 1.241 . S
O320 Co308 2.137 . S
O320 C311 1.247 . S
O321 Co308 2.244 . S
O321 C311 1.272 . S
O321 Co313 2.135 . S
Co322 O323 2.216 . S
Co322 O324 2.091 . S
Co322 O326 2.004 . S
Co322 O332 2.021 . S
Co322 O334 2.137 . S
Co322 O335 2.244 . S
O323 Co322 2.216 . S
O323 C330 1.247 . S
O324 Co322 2.091 . S
O324 C330 1.261 . S
C325 O334 1.247 . S
C325 O335 1.272 . S
O326 Co322 2.004 . S
O326 C331 1.259 . S
Co327 O328 2.061 1_556 S
Co327 O333 2.052 . S
Co327 O335 2.135 1_556 S
O328 Co327 2.061 1_554 S
O328 C331 1.235 . S
C329 O332 1.238 . S
C329 O333 1.241 1_554 S
C330 O323 1.247 . S
C330 O324 1.261 . S
C331 O326 1.259 . S
C331 O328 1.235 . S
O332 Co322 2.021 . S
O332 C329 1.238 . S
O333 Co327 2.052 . S
O333 C329 1.241 1_556 S
O334 Co322 2.137 . S
O334 C325 1.247 . S
O335 Co322 2.244 . S
O335 C325 1.272 . S
O335 Co327 2.135 1_554 S
Co336 O337 2.216 . S
Co336 O338 2.091 . S
Co336 O340 2.004 . S
Co336 O346 2.021 . S
Co336 O348 2.137 . S
Co336 O349 2.244 . S
O337 Co336 2.216 . S
O337 C344 1.247 . S
O338 Co336 2.091 . S
O338 C344 1.261 . S
C339 O348 1.247 . S
C339 O349 1.272 . S
O340 Co336 2.004 . S
O340 C345 1.259 . S
Co341 O342 2.061 . S
Co341 O347 2.052 . S
Co341 O349 2.135 . S
O342 Co341 2.061 . S
O342 C345 1.235 . S
C343 O346 1.238 . S
C343 O347 1.241 . S
C344 O337 1.247 . S
C344 O338 1.261 . S
C345 O340 1.259 . S
C345 O342 1.235 . S
O346 Co336 2.021 . S
O346 C343 1.238 . S
O347 Co341 2.052 . S
O347 C343 1.241 . S
O348 Co336 2.137 . S
O348 C339 1.247 . S
O349 Co336 2.244 . S
O349 C339 1.272 . S
O349 Co341 2.135 . S
Co350 O351 2.216 . S
Co350 O352 2.091 . S
Co350 O354 2.004 . S
Co350 O360 2.021 . S
Co350 O362 2.137 . S
Co350 O363 2.244 . S
O351 Co350 2.216 . S
O351 C358 1.247 . S
O352 Co350 2.091 . S
O352 C358 1.261 . S
C353 O362 1.247 . S
C353 O363 1.272 . S
O354 Co350 2.004 . S
O354 C359 1.259 . S
Co355 O356 2.061 1_556 S
Co355 O361 2.052 . S
Co355 O363 2.135 1_556 S
O356 Co355 2.061 1_554 S
O356 C359 1.235 . S
C357 O360 1.238 . S
C357 O361 1.241 1_554 S
C358 O351 1.247 . S
C358 O352 1.261 . S
C359 O354 1.259 . S
C359 O356 1.235 . S
O360 Co350 2.021 . S
O360 C357 1.238 . S
O361 Co355 2.052 . S
O361 C357 1.241 1_556 S
O362 Co350 2.137 . S
O362 C353 1.247 . S
O363 Co350 2.244 . S
O363 C353 1.272 . S
O363 Co355 2.135 1_554 S
Co364 O365 2.216 . S
Co364 O366 2.091 . S
Co364 O368 2.004 . S
Co364 O374 2.021 . S
Co364 O376 2.137 . S
Co364 O377 2.244 . S
O365 Co364 2.216 . S
O365 C372 1.247 . S
O366 Co364 2.091 . S
O366 C372 1.261 . S
C367 O376 1.247 . S
C367 O377 1.272 . S
O368 Co364 2.004 . S
O368 C373 1.259 . S
Co369 O370 2.061 . S
Co369 O375 2.052 . S
Co369 O377 2.135 . S
O370 Co369 2.061 . S
O370 C373 1.235 . S
C371 O374 1.238 . S
C371 O375 1.241 . S
C372 O365 1.247 . S
C372 O366 1.261 . S
C373 O368 1.259 . S
C373 O370 1.235 . S
O374 Co364 2.021 . S
O374 C371 1.238 . S
O375 Co369 2.052 . S
O375 C371 1.241 . S
O376 Co364 2.137 . S
O376 C367 1.247 . S
O377 Co364 2.244 . S
O377 C367 1.272 . S
O377 Co369 2.135 . S
Co378 O379 2.216 . S
Co378 O380 2.091 . S
Co378 O382 2.004 . S
Co378 O388 2.021 . S
Co378 O390 2.137 . S
Co378 O391 2.244 . S
O379 Co378 2.216 . S
O379 C386 1.247 . S
O380 Co378 2.091 . S
O380 C386 1.261 . S
C381 O390 1.247 . S
C381 O391 1.272 . S
O382 Co378 2.004 . S
O382 C387 1.259 . S
Co383 O384 2.061 . S
Co383 O389 2.052 . S
Co383 O391 2.135 . S
O384 Co383 2.061 . S
O384 C387 1.235 . S
C385 O388 1.238 . S
C385 O389 1.241 . S
C386 O379 1.247 . S
C386 O380 1.261 . S
C387 O382 1.259 . S
C387 O384 1.235 . S
O388 Co378 2.021 . S
O388 C385 1.238 . S
O389 Co383 2.052 . S
O389 C385 1.241 . S
O390 Co378 2.137 . S
O390 C381 1.247 . S
O391 Co378 2.244 . S
O391 C381 1.272 . S
O391 Co383 2.135 . S
Co392 O393 2.216 . S
Co392 O394 2.091 . S
Co392 O396 2.004 . S
Co392 O402 2.021 . S
Co392 O404 2.137 . S
Co392 O405 2.244 . S
O393 Co392 2.216 . S
O393 C400 1.247 . S
O394 Co392 2.091 . S
O394 C400 1.261 . S
C395 O404 1.247 . S
C395 O405 1.272 . S
O396 Co392 2.004 . S
O396 C401 1.259 . S
Co397 O398 2.061 . S
Co397 O403 2.052 . S
Co397 O405 2.135 . S
O398 Co397 2.061 . S
O398 C401 1.235 . S
C399 O402 1.238 . S
C399 O403 1.241 . S
C400 O393 1.247 . S
C400 O394 1.261 . S
C401 O396 1.259 . S
C401 O398 1.235 . S
O402 Co392 2.021 . S
O402 C399 1.238 . S
O403 Co397 2.052 . S
O403 C399 1.241 . S
O404 Co392 2.137 . S
O404 C395 1.247 . S
O405 Co392 2.244 . S
O405 C395 1.272 . S
O405 Co397 2.135 . S
Co406 O407 2.216 . S
Co406 O408 2.091 . S
Co406 O410 2.004 . S
Co406 O416 2.021 . S
Co406 O418 2.137 . S
Co406 O419 2.244 . S
O407 Co406 2.216 . S
O407 C414 1.247 . S
O408 Co406 2.091 . S
O408 C414 1.261 . S
C409 O418 1.247 . S
C409 O419 1.272 . S
O410 Co406 2.004 . S
O410 C415 1.259 . S
Co411 O412 2.061 . S
Co411 O417 2.052 . S
Co411 O419 2.135 . S
O412 Co411 2.061 . S
O412 C415 1.235 . S
C413 O416 1.238 . S
C413 O417 1.241 . S
C414 O407 1.247 . S
C414 O408 1.261 . S
C415 O410 1.259 . S
C415 O412 1.235 . S
O416 Co406 2.021 . S
O416 C413 1.238 . S
O417 Co411 2.052 . S
O417 C413 1.241 . S
O418 Co406 2.137 . S
O418 C409 1.247 . S
O419 Co406 2.244 . S
O419 C409 1.272 . S
O419 Co411 2.135 . S
Co420 O421 2.216 . S
Co420 O422 2.091 . S
Co420 O424 2.004 . S
Co420 O430 2.021 . S
Co420 O432 2.137 . S
Co420 O433 2.244 . S
O421 Co420 2.216 . S
O421 C428 1.247 . S
O422 Co420 2.091 . S
O422 C428 1.261 . S
C423 O432 1.247 . S
C423 O433 1.272 . S
O424 Co420 2.004 . S
O424 C429 1.259 . S
Co425 O426 2.061 . S
Co425 O431 2.052 . S
Co425 O433 2.135 . S
O426 Co425 2.061 . S
O426 C429 1.235 . S
C427 O430 1.238 . S
C427 O431 1.241 . S
C428 O421 1.247 . S
C428 O422 1.261 . S
C429 O424 1.259 . S
C429 O426 1.235 . S
O430 Co420 2.021 . S
O430 C427 1.238 . S
O431 Co425 2.052 . S
O431 C427 1.241 . S
O432 Co420 2.137 . S
O432 C423 1.247 . S
O433 Co420 2.244 . S
O433 C423 1.272 . S
O433 Co425 2.135 . S
Co434 O435 2.216 . S
Co434 O436 2.091 . S
Co434 O438 2.004 . S
Co434 O444 2.021 . S
Co434 O446 2.137 . S
Co434 O447 2.244 . S
O435 Co434 2.216 . S
O435 C442 1.247 . S
O436 Co434 2.091 . S
O436 C442 1.261 . S
C437 O446 1.247 . S
C437 O447 1.272 . S
O438 Co434 2.004 . S
O438 C443 1.259 . S
Co439 O440 2.061 1_554 S
Co439 O445 2.052 . S
Co439 O447 2.135 1_554 S
O440 Co439 2.061 1_556 S
O440 C443 1.235 . S
C441 O444 1.238 . S
C441 O445 1.241 1_556 S
C442 O435 1.247 . S
C442 O436 1.261 . S
C443 O438 1.259 . S
C443 O440 1.235 . S
O444 Co434 2.021 . S
O444 C441 1.238 . S
O445 Co439 2.052 . S
O445 C441 1.241 1_554 S
O446 Co434 2.137 . S
O446 C437 1.247 . S
O447 Co434 2.244 . S
O447 C437 1.272 . S
O447 Co439 2.135 1_556 S
H448 C454 0.930 . S
H449 C457 0.930 . S
H450 C458 0.930 . S
H451 C459 0.930 . S
H452 C462 0.930 . S
H453 C463 0.930 . S
C454 H448 0.930 . S
C454 C455 1.355 . S
C454 C456 1.415 . S
C455 C454 1.355 . S
C455 C457 1.419 . S
C456 C454 1.415 . S
C456 C461 1.425 . S
C456 C463 1.409 . S
C457 H449 0.930 . S
C457 C455 1.419 . S
C457 C458 1.362 . S
C458 H450 0.930 . S
C458 C457 1.362 . S
C458 C461 1.409 . S
C459 H451 0.930 . S
C459 C460 1.355 . S
C459 C461 1.415 . S
C460 C459 1.355 . S
C460 C462 1.419 . S
C461 C456 1.425 . S
C461 C458 1.409 . S
C461 C459 1.415 . S
C462 H452 0.930 . S
C462 C460 1.419 . S
C462 C463 1.362 . S
C463 H453 0.930 . S
C463 C456 1.409 . S
C463 C462 1.362 . S
H464 C470 0.930 . S
H465 C473 0.930 . S
H466 C474 0.930 . S
H467 C475 0.930 . S
H468 C478 0.930 . S
H469 C479 0.930 . S
C470 H464 0.930 . S
C470 C471 1.355 . S
C470 C472 1.412 1_565 S
C471 C470 1.355 . S
C471 C473 1.419 . S
C472 C470 1.412 1_545 S
C472 C477 1.425 1_545 S
C472 C479 1.412 . S
C473 H465 0.930 . S
C473 C471 1.419 . S
C473 C474 1.362 . S
C474 H466 0.930 . S
C474 C473 1.362 . S
C474 C477 1.412 . S
C475 H467 0.930 . S
C475 C476 1.355 . S
C475 C477 1.412 1_545 S
C476 C475 1.355 . S
C476 C478 1.419 . S
C477 C472 1.425 1_565 S
C477 C474 1.412 . S
C477 C475 1.412 1_565 S
C478 H468 0.930 . S
C478 C476 1.419 . S
C478 C479 1.362 . S
C479 H469 0.930 . S
C479 C472 1.412 . S
C479 C478 1.362 . S
H480 C486 0.930 . S
H481 C489 0.930 . S
H482 C490 0.930 . S
H483 C491 0.930 . S
H484 C494 0.930 . S
H485 C495 0.930 . S
C486 H480 0.930 . S
C486 C487 1.355 . S
C486 C488 1.415 . S
C487 C486 1.355 . S
C487 C489 1.419 . S
C488 C486 1.415 . S
C488 C493 1.425 . S
C488 C495 1.409 . S
C489 H481 0.930 . S
C489 C487 1.419 . S
C489 C490 1.362 . S
C490 H482 0.930 . S
C490 C489 1.362 . S
C490 C493 1.409 . S
C491 H483 0.930 . S
C491 C492 1.355 . S
C491 C493 1.415 . S
C492 C491 1.355 . S
C492 C494 1.419 . S
C493 C488 1.425 . S
C493 C490 1.409 . S
C493 C491 1.415 . S
C494 H484 0.930 . S
C494 C492 1.419 . S
C494 C495 1.362 . S
C495 H485 0.930 . S
C495 C488 1.409 . S
C495 C494 1.362 . S
H496 C502 0.930 . S
H497 C505 0.929 1_554 S
H498 C506 0.930 . S
H499 C507 0.930 . S
H500 C510 0.929 1_556 S
H501 C511 0.930 . S
C502 H496 0.930 . S
C502 C503 1.355 . S
C502 C504 1.415 . S
C503 C502 1.355 . S
C503 C505 1.422 . S
C504 C502 1.415 . S
C504 C509 1.425 1_546 S
C504 C511 1.409 1_545 S
C505 H497 0.929 1_556 S
C505 C503 1.422 . S
C505 C506 1.360 1_556 S
C506 H498 0.930 . S
C506 C505 1.360 1_554 S
C506 C509 1.409 1_545 S
C507 H499 0.930 . S
C507 C508 1.355 . S
C507 C509 1.415 . S
C508 C507 1.355 . S
C508 C510 1.422 . S
C509 C504 1.425 1_564 S
C509 C506 1.409 1_565 S
C509 C507 1.415 . S
C510 H500 0.929 1_554 S
C510 C508 1.422 . S
C510 C511 1.360 1_554 S
C511 H501 0.930 . S
C511 C504 1.409 1_565 S
C511 C510 1.360 1_556 S
H512 C518 0.930 . S
H513 C521 0.930 . S
H514 C522 0.930 . S
H515 C523 0.930 . S
H516 C526 0.930 . S
H517 C527 0.930 . S
C518 H512 0.930 . S
C518 C519 1.355 . S
C518 C520 1.415 . S
C519 C518 1.355 . S
C519 C521 1.419 . S
C520 C518 1.415 . S
C520 C525 1.425 . S
C520 C527 1.409 . S
C521 H513 0.930 . S
C521 C519 1.419 . S
C521 C522 1.362 . S
C522 H514 0.930 . S
C522 C521 1.362 . S
C522 C525 1.409 . S
C523 H515 0.930 . S
C523 C524 1.355 . S
C523 C525 1.415 . S
C524 C523 1.355 . S
C524 C526 1.419 . S
C525 C520 1.425 . S
C525 C522 1.409 . S
C525 C523 1.415 . S
C526 H516 0.930 . S
C526 C524 1.419 . S
C526 C527 1.362 . S
C527 H517 0.930 . S
C527 C520 1.409 . S
C527 C526 1.362 . S
H528 C534 0.930 . S
H529 C537 0.930 . S
H530 C538 0.906 1_545 S
H531 C539 0.930 . S
H532 C542 0.930 . S
H533 C543 0.906 1_565 S
C534 H528 0.930 . S
C534 C535 1.355 . S
C534 C536 1.415 . S
C535 C534 1.355 . S
C535 C537 1.419 . S
C536 C534 1.415 . S
C536 C541 1.425 1_565 S
C536 C543 1.395 1_565 S
C537 H529 0.930 . S
C537 C535 1.419 . S
C537 C538 1.401 . S
C538 H530 0.906 1_565 S
C538 C537 1.401 . S
C538 C541 1.395 1_565 S
C539 H531 0.930 . S
C539 C540 1.355 . S
C539 C541 1.415 . S
C540 C539 1.355 . S
C540 C542 1.419 . S
C541 C536 1.425 1_545 S
C541 C538 1.395 1_545 S
C541 C539 1.415 . S
C542 H532 0.930 . S
C542 C540 1.419 . S
C542 C543 1.401 . S
C543 H533 0.906 1_545 S
C543 C536 1.395 1_545 S
C543 C542 1.401 . S
H544 C550 0.930 . S
H545 C553 0.930 . S
H546 C554 0.930 . S
H547 C555 0.930 . S
H548 C558 0.930 . S
H549 C559 0.930 . S
C550 H544 0.930 . S
C550 C551 1.355 . S
C550 C552 1.415 . S
C551 C550 1.355 . S
C551 C553 1.419 . S
C552 C550 1.415 . S
C552 C557 1.425 . S
C552 C559 1.409 . S
C553 H545 0.930 . S
C553 C551 1.419 . S
C553 C554 1.362 . S
C554 H546 0.930 . S
C554 C553 1.362 . S
C554 C557 1.409 . S
C555 H547 0.930 . S
C555 C556 1.355 . S
C555 C557 1.415 . S
C556 C555 1.355 . S
C556 C558 1.419 . S
C557 C552 1.425 . S
C557 C554 1.409 . S
C557 C555 1.415 . S
C558 H548 0.930 . S
C558 C556 1.419 . S
C558 C559 1.362 . S
C559 H549 0.930 . S
C559 C552 1.409 . S
C559 C558 1.362 . S
H560 C566 0.930 . S
H561 C569 0.930 . S
H562 C570 0.930 . S
H563 C571 0.930 . S
H564 C574 0.930 . S
H565 C575 0.930 . S
C566 H560 0.930 . S
C566 C567 1.355 . S
C566 C568 1.422 . S
C567 C566 1.355 . S
C567 C569 1.419 1_556 S
C568 C566 1.422 . S
C568 C573 1.425 1_546 S
C568 C575 1.402 1_545 S
C569 H561 0.930 . S
C569 C567 1.419 1_554 S
C569 C570 1.362 . S
C570 H562 0.930 . S
C570 C569 1.362 . S
C570 C573 1.402 1_545 S
C571 H563 0.930 . S
C571 C572 1.355 . S
C571 C573 1.422 . S
C572 C571 1.355 . S
C572 C574 1.419 1_554 S
C573 C568 1.425 1_564 S
C573 C570 1.402 1_565 S
C573 C571 1.422 . S
C574 H564 0.930 . S
C574 C572 1.419 1_556 S
C574 C575 1.362 . S
C575 H565 0.930 . S
C575 C568 1.402 1_565 S
C575 C574 1.362 . S
H576 C582 0.930 . S
H577 C585 0.930 . S
H578 C586 0.930 . S
H579 C587 0.930 . S
H580 C590 0.930 . S
H581 C591 0.930 . S
C582 H576 0.930 . S
C582 C583 1.355 . S
C582 C584 1.415 . S
C583 C582 1.355 . S
C583 C585 1.419 . S
C584 C582 1.415 . S
C584 C589 1.425 . S
C584 C591 1.409 . S
C585 H577 0.930 . S
C585 C583 1.419 . S
C585 C586 1.362 . S
C586 H578 0.930 . S
C586 C585 1.362 . S
C586 C589 1.409 . S
C587 H579 0.930 . S
C587 C588 1.355 . S
C587 C589 1.415 . S
C588 C587 1.355 . S
C588 C590 1.419 . S
C589 C584 1.425 . S
C589 C586 1.409 . S
C589 C587 1.415 . S
C590 H580 0.930 . S
C590 C588 1.419 . S
C590 C591 1.362 . S
C591 H581 0.930 . S
C591 C584 1.409 . S
C591 C590 1.362 . S
H592 C598 0.930 . S
H593 C601 0.930 . S
H594 C602 0.930 . S
H595 C603 0.930 . S
H596 C606 0.930 . S
H597 C607 0.930 . S
C598 H592 0.930 . S
C598 C599 1.355 . S
C598 C600 1.415 1_556 S
C599 C598 1.355 . S
C599 C601 1.419 . S
C600 C598 1.415 1_554 S
C600 C605 1.425 1_554 S
C600 C607 1.409 . S
C601 H593 0.930 . S
C601 C599 1.419 . S
C601 C602 1.362 . S
C602 H594 0.930 . S
C602 C601 1.362 . S
C602 C605 1.409 . S
C603 H595 0.930 . S
C603 C604 1.355 . S
C603 C605 1.415 1_554 S
C604 C603 1.355 . S
C604 C606 1.419 . S
C605 C600 1.425 1_556 S
C605 C602 1.409 . S
C605 C603 1.415 1_556 S
C606 H596 0.930 . S
C606 C604 1.419 . S
C606 C607 1.362 . S
C607 H597 0.930 . S
C607 C600 1.409 . S
C607 C606 1.362 . S
H608 C614 0.930 . S
H609 C617 0.930 . S
H610 C618 0.930 . S
H611 C619 0.930 . S
H612 C622 0.930 . S
H613 C623 0.930 . S
C614 H608 0.930 . S
C614 C615 1.355 . S
C614 C616 1.415 . S
C615 C614 1.355 . S
C615 C617 1.419 . S
C616 C614 1.415 . S
C616 C621 1.425 . S
C616 C623 1.409 . S
C617 H609 0.930 . S
C617 C615 1.419 . S
C617 C618 1.362 . S
C618 H610 0.930 . S
C618 C617 1.362 . S
C618 C621 1.409 . S
C619 H611 0.930 . S
C619 C620 1.355 . S
C619 C621 1.415 . S
C620 C619 1.355 . S
C620 C622 1.419 . S
C621 C616 1.425 . S
C621 C618 1.409 . S
C621 C619 1.415 . S
C622 H612 0.930 . S
C622 C620 1.419 . S
C622 C623 1.362 . S
C623 H613 0.930 . S
C623 C616 1.409 . S
C623 C622 1.362 . S
H624 C630 0.930 . S
H625 C633 0.930 . S
H626 C634 0.930 . S
H627 C635 0.930 . S
H628 C638 0.930 . S
H629 C639 0.930 . S
C630 H624 0.930 . S
C630 C631 1.355 . S
C630 C632 1.415 . S
C631 C630 1.355 . S
C631 C633 1.419 . S
C632 C630 1.415 . S
C632 C637 1.425 . S
C632 C639 1.409 . S
C633 H625 0.930 . S
C633 C631 1.419 . S
C633 C634 1.362 . S
C634 H626 0.930 . S
C634 C633 1.362 . S
C634 C637 1.409 . S
C635 H627 0.930 . S
C635 C636 1.355 . S
C635 C637 1.415 . S
C636 C635 1.355 . S
C636 C638 1.419 . S
C637 C632 1.425 . S
C637 C634 1.409 . S
C637 C635 1.415 . S
C638 H628 0.930 . S
C638 C636 1.419 . S
C638 C639 1.362 . S
C639 H629 0.930 . S
C639 C632 1.409 . S
C639 C638 1.362 . S
H640 C646 0.930 . S
H641 C649 0.930 . S
H642 C650 0.930 . S
H643 C651 0.930 . S
H644 C654 0.930 . S
H645 C655 0.930 . S
C646 H640 0.930 . S
C646 C647 1.355 . S
C646 C648 1.415 . S
C647 C646 1.355 . S
C647 C649 1.419 . S
C648 C646 1.415 . S
C648 C653 1.425 . S
C648 C655 1.409 . S
C649 H641 0.930 . S
C649 C647 1.419 . S
C649 C650 1.362 . S
C650 H642 0.930 . S
C650 C649 1.362 . S
C650 C653 1.409 . S
C651 H643 0.930 . S
C651 C652 1.355 . S
C651 C653 1.415 . S
C652 C651 1.355 . S
C652 C654 1.419 . S
C653 C648 1.425 . S
C653 C650 1.409 . S
C653 C651 1.415 . S
C654 H644 0.930 . S
C654 C652 1.419 . S
C654 C655 1.362 . S
C655 H645 0.930 . S
C655 C648 1.409 . S
C655 C654 1.362 . S
H656 C662 0.930 . S
H657 C665 0.930 . S
H658 C666 0.930 . S
H659 C667 0.930 . S
H660 C670 0.930 . S
H661 C671 0.930 . S
C662 H656 0.930 . S
C662 C663 1.355 . S
C662 C664 1.415 . S
C663 C662 1.355 . S
C663 C665 1.419 1_554 S
C664 C662 1.415 . S
C664 C669 1.425 1_554 S
C664 C671 1.409 . S
C665 H657 0.930 . S
C665 C663 1.419 1_556 S
C665 C666 1.362 . S
C666 H658 0.930 . S
C666 C665 1.362 . S
C666 C669 1.409 . S
C667 H659 0.930 . S
C667 C668 1.355 . S
C667 C669 1.415 . S
C668 C667 1.355 . S
C668 C670 1.419 1_556 S
C669 C664 1.425 1_556 S
C669 C666 1.409 . S
C669 C667 1.415 . S
C670 H660 0.930 . S
C670 C668 1.419 1_554 S
C670 C671 1.362 . S
C671 H661 0.930 . S
C671 C664 1.409 . S
C671 C670 1.362 . S
H672 C678 0.930 . S
H673 C681 0.930 . S
H674 C682 0.930 . S
H675 C683 0.930 . S
H676 C686 0.930 . S
H677 C687 0.930 . S
C678 H672 0.930 . S
C678 C679 1.355 . S
C678 C680 1.415 . S
C679 C678 1.355 . S
C679 C681 1.419 . S
C680 C678 1.415 . S
C680 C685 1.425 . S
C680 C687 1.409 . S
C681 H673 0.930 . S
C681 C679 1.419 . S
C681 C682 1.362 . S
C682 H674 0.930 . S
C682 C681 1.362 . S
C682 C685 1.409 . S
C683 H675 0.930 . S
C683 C684 1.355 . S
C683 C685 1.415 . S
C684 C683 1.355 . S
C684 C686 1.419 . S
C685 C680 1.425 . S
C685 C682 1.409 . S
C685 C683 1.415 . S
C686 H676 0.930 . S
C686 C684 1.419 . S
C686 C687 1.362 . S
C687 H677 0.930 . S
C687 C680 1.409 . S
C687 C686 1.362 . S
H688 C694 0.930 . S
H689 C697 0.930 . S
H690 C698 0.930 . S
H691 C699 0.930 . S
H692 C702 0.930 . S
H693 C703 0.930 . S
C694 H688 0.930 . S
C694 C695 1.355 . S
C694 C696 1.415 . S
C695 C694 1.355 . S
C695 C697 1.419 . S
C696 C694 1.415 . S
C696 C701 1.425 . S
C696 C703 1.409 . S
C697 H689 0.930 . S
C697 C695 1.419 . S
C697 C698 1.362 . S
C698 H690 0.930 . S
C698 C697 1.362 . S
C698 C701 1.409 . S
C699 H691 0.930 . S
C699 C700 1.355 . S
C699 C701 1.415 . S
C700 C699 1.355 . S
C700 C702 1.419 . S
C701 C696 1.425 . S
C701 C698 1.409 . S
C701 C699 1.415 . S
C702 H692 0.930 . S
C702 C700 1.419 . S
C702 C703 1.362 . S
C703 H693 0.930 . S
C703 C696 1.409 . S
C703 C702 1.362 . S
H704 C710 0.930 . S
H705 C713 0.930 . S
H706 C714 0.930 . S
H707 C715 0.930 . S
H708 C718 0.930 . S
H709 C719 0.930 . S
C710 H704 0.930 . S
C710 C711 1.355 . S
C710 C712 1.415 . S
C711 C710 1.355 . S
C711 C713 1.419 . S
C712 C710 1.415 . S
C712 C717 1.425 . S
C712 C719 1.409 . S
C713 H705 0.930 . S
C713 C711 1.419 . S
C713 C714 1.362 . S
C714 H706 0.930 . S
C714 C713 1.362 . S
C714 C717 1.409 . S
C715 H707 0.930 . S
C715 C716 1.355 . S
C715 C717 1.415 . S
C716 C715 1.355 . S
C716 C718 1.419 . S
C717 C712 1.425 . S
C717 C714 1.409 . S
C717 C715 1.415 . S
C718 H708 0.930 . S
C718 C716 1.419 . S
C718 C719 1.362 . S
C719 H709 0.930 . S
C719 C712 1.409 . S
C719 C718 1.362 . S
H720 C726 0.930 . S
H721 C729 0.930 1_556 S
H722 C730 0.930 . S
H723 C731 0.930 . S
H724 C734 0.930 . S
H725 C735 0.930 . S
C726 H720 0.930 . S
C726 C727 1.355 . S
C726 C728 1.415 . S
C727 C726 1.355 . S
C727 C729 1.419 . S
C728 C726 1.415 . S
C728 C733 1.425 . S
C728 C735 1.409 . S
C729 H721 0.930 1_554 S
C729 C727 1.419 . S
C729 C730 1.362 . S
C730 H722 0.930 . S
C730 C729 1.362 . S
C730 C733 1.409 . S
C731 H723 0.930 . S
C731 C732 1.355 . S
C731 C733 1.415 . S
C732 C731 1.355 . S
C732 C734 1.419 . S
C733 C728 1.425 . S
C733 C730 1.409 . S
C733 C731 1.415 . S
C734 H724 0.930 . S
C734 C732 1.419 . S
C734 C735 1.362 . S
C735 H725 0.930 . S
C735 C728 1.409 . S
C735 C734 1.362 . S
H736 C742 0.930 . S
H737 C745 0.930 . S
H738 C746 0.930 . S
H739 C747 0.930 . S
H740 C750 0.930 . S
H741 C751 0.930 . S
C742 H736 0.930 . S
C742 C743 1.355 . S
C742 C744 1.415 . S
C743 C742 1.355 . S
C743 C745 1.419 . S
C744 C742 1.415 . S
C744 C749 1.425 . S
C744 C751 1.409 . S
C745 H737 0.930 . S
C745 C743 1.419 . S
C745 C746 1.362 . S
C746 H738 0.930 . S
C746 C745 1.362 . S
C746 C749 1.409 . S
C747 H739 0.930 . S
C747 C748 1.355 . S
C747 C749 1.415 . S
C748 C747 1.355 . S
C748 C750 1.419 . S
C749 C744 1.425 . S
C749 C746 1.409 . S
C749 C747 1.415 . S
C750 H740 0.930 . S
C750 C748 1.419 . S
C750 C751 1.362 . S
C751 H741 0.930 . S
C751 C744 1.409 . S
C751 C750 1.362 . S
H752 C758 0.930 . S
H753 C761 0.930 . S
H754 C762 0.930 . S
H755 C763 0.930 . S
H756 C766 0.930 . S
H757 C767 0.930 . S
C758 H752 0.930 . S
C758 C759 1.355 . S
C758 C760 1.415 . S
C759 C758 1.355 . S
C759 C761 1.419 . S
C760 C758 1.415 . S
C760 C765 1.425 . S
C760 C767 1.409 . S
C761 H753 0.930 . S
C761 C759 1.419 . S
C761 C762 1.362 . S
C762 H754 0.930 . S
C762 C761 1.362 . S
C762 C765 1.409 . S
C763 H755 0.930 . S
C763 C764 1.355 . S
C763 C765 1.415 . S
C764 C763 1.355 . S
C764 C766 1.419 . S
C765 C760 1.425 . S
C765 C762 1.409 . S
C765 C763 1.415 . S
C766 H756 0.930 . S
C766 C764 1.419 . S
C766 C767 1.362 . S
C767 H757 0.930 . S
C767 C760 1.409 . S
C767 C766 1.362 . S
H768 C774 0.930 . S
H769 C777 0.930 . S
H770 C778 0.930 . S
H771 C779 0.930 . S
H772 C782 0.930 . S
H773 C783 0.930 . S
C774 H768 0.930 . S
C774 C775 1.355 . S
C774 C776 1.415 . S
C775 C774 1.355 . S
C775 C777 1.419 . S
C776 C774 1.415 . S
C776 C781 1.425 . S
C776 C783 1.409 . S
C777 H769 0.930 . S
C777 C775 1.419 . S
C777 C778 1.362 . S
C778 H770 0.930 . S
C778 C777 1.362 . S
C778 C781 1.409 . S
C779 H771 0.930 . S
C779 C780 1.355 . S
C779 C781 1.415 . S
C780 C779 1.355 . S
C780 C782 1.419 . S
C781 C776 1.425 . S
C781 C778 1.409 . S
C781 C779 1.415 . S
C782 H772 0.930 . S
C782 C780 1.419 . S
C782 C783 1.362 . S
C783 H773 0.930 . S
C783 C776 1.409 . S
C783 C782 1.362 . S
H784 C790 0.930 . S
H785 C793 0.930 . S
H786 C794 0.930 . S
H787 C795 0.930 . S
H788 C798 0.930 . S
H789 C799 0.930 . S
C790 H784 0.930 . S
C790 C791 1.355 . S
C790 C792 1.415 . S
C791 C790 1.355 . S
C791 C793 1.419 . S
C792 C790 1.415 . S
C792 C797 1.425 . S
C792 C799 1.409 . S
C793 H785 0.930 . S
C793 C791 1.419 . S
C793 C794 1.362 . S
C794 H786 0.930 . S
C794 C793 1.362 . S
C794 C797 1.409 . S
C795 H787 0.930 . S
C795 C796 1.355 . S
C795 C797 1.415 . S
C796 C795 1.355 . S
C796 C798 1.419 . S
C797 C792 1.425 . S
C797 C794 1.409 . S
C797 C795 1.415 . S
C798 H788 0.930 . S
C798 C796 1.419 . S
C798 C799 1.362 . S
C799 H789 0.930 . S
C799 C792 1.409 . S
C799 C798 1.362 . S
H800 C806 0.930 . S
H801 C809 0.930 . S
H802 C810 0.930 . S
H803 C811 0.930 . S
H804 C814 0.930 . S
H805 C815 0.930 . S
C806 H800 0.930 . S
C806 C807 1.355 . S
C806 C808 1.415 . S
C807 C806 1.355 . S
C807 C809 1.419 . S
C808 C806 1.415 . S
C808 C813 1.425 . S
C808 C815 1.409 . S
C809 H801 0.930 . S
C809 C807 1.419 . S
C809 C810 1.362 . S
C810 H802 0.930 . S
C810 C809 1.362 . S
C810 C813 1.409 . S
C811 H803 0.930 . S
C811 C812 1.355 . S
C811 C813 1.415 . S
C812 C811 1.355 . S
C812 C814 1.419 . S
C813 C808 1.425 . S
C813 C810 1.409 . S
C813 C811 1.415 . S
C814 H804 0.930 . S
C814 C812 1.419 . S
C814 C815 1.362 . S
C815 H805 0.930 . S
C815 C808 1.409 . S
C815 C814 1.362 . S
H816 C822 0.930 . S
H817 C825 0.930 . S
H818 C826 0.930 . S
H819 C827 0.930 . S
H820 C830 0.930 . S
H821 C831 0.930 . S
C822 H816 0.930 . S
C822 C823 1.355 . S
C822 C824 1.415 . S
C823 C822 1.355 . S
C823 C825 1.419 . S
C824 C822 1.415 . S
C824 C829 1.425 . S
C824 C831 1.409 . S
C825 H817 0.930 . S
C825 C823 1.419 . S
C825 C826 1.362 . S
C826 H818 0.930 . S
C826 C825 1.362 . S
C826 C829 1.409 . S
C827 H819 0.930 . S
C827 C828 1.355 . S
C827 C829 1.415 . S
C828 C827 1.355 . S
C828 C830 1.419 . S
C829 C824 1.425 . S
C829 C826 1.409 . S
C829 C827 1.415 . S
C830 H820 0.930 . S
C830 C828 1.419 . S
C830 C831 1.362 . S
C831 H821 0.930 . S
C831 C824 1.409 . S
C831 C830 1.362 . S
H832 C838 0.930 . S
H833 C841 0.930 . S
H834 C842 0.930 . S
H835 C843 0.930 . S
H836 C846 0.930 . S
H837 C847 0.930 . S
C838 H832 0.930 . S
C838 C839 1.355 . S
C838 C840 1.415 . S
C839 C838 1.355 . S
C839 C841 1.419 . S
C840 C838 1.415 . S
C840 C845 1.425 . S
C840 C847 1.409 . S
C841 H833 0.930 . S
C841 C839 1.419 . S
C841 C842 1.362 . S
C842 H834 0.930 . S
C842 C841 1.362 . S
C842 C845 1.409 . S
C843 H835 0.930 . S
C843 C844 1.355 . S
C843 C845 1.415 . S
C844 C843 1.355 . S
C844 C846 1.419 . S
C845 C840 1.425 . S
C845 C842 1.409 . S
C845 C843 1.415 . S
C846 H836 0.930 . S
C846 C844 1.419 . S
C846 C847 1.362 . S
C847 H837 0.930 . S
C847 C840 1.409 . S
C847 C846 1.362 . S
H848 C854 0.930 . S
H849 C857 0.930 . S
H850 C858 0.930 . S
H851 C859 0.930 . S
H852 C862 0.930 . S
H853 C863 0.930 . S
C854 H848 0.930 . S
C854 C855 1.355 . S
C854 C856 1.415 . S
C855 C854 1.355 . S
C855 C857 1.419 . S
C856 C854 1.415 . S
C856 C861 1.425 . S
C856 C863 1.409 . S
C857 H849 0.930 . S
C857 C855 1.419 . S
C857 C858 1.362 . S
C858 H850 0.930 . S
C858 C857 1.362 . S
C858 C861 1.409 . S
C859 H851 0.930 . S
C859 C860 1.355 . S
C859 C861 1.415 . S
C860 C859 1.355 . S
C860 C862 1.419 . S
C861 C856 1.425 . S
C861 C858 1.409 . S
C861 C859 1.415 . S
C862 H852 0.930 . S
C862 C860 1.419 . S
C862 C863 1.362 . S
C863 H853 0.930 . S
C863 C856 1.409 . S
C863 C862 1.362 . S
H864 C870 0.930 . S
H865 C873 0.930 . S
H866 C874 0.930 . S
H867 C875 0.930 . S
H868 C878 0.930 . S
H869 C879 0.930 . S
C870 H864 0.930 . S
C870 C871 1.355 . S
C870 C872 1.415 . S
C871 C870 1.355 . S
C871 C873 1.419 . S
C872 C870 1.415 . S
C872 C877 1.425 . S
C872 C879 1.409 . S
C873 H865 0.930 . S
C873 C871 1.419 . S
C873 C874 1.362 . S
C874 H866 0.930 . S
C874 C873 1.362 . S
C874 C877 1.409 . S
C875 H867 0.930 . S
C875 C876 1.355 . S
C875 C877 1.415 . S
C876 C875 1.355 . S
C876 C878 1.419 . S
C877 C872 1.425 . S
C877 C874 1.409 . S
C877 C875 1.415 . S
C878 H868 0.930 . S
C878 C876 1.419 . S
C878 C879 1.362 . S
C879 H869 0.930 . S
C879 C872 1.409 . S
C879 C878 1.362 . S
H880 C886 0.930 . S
H881 C889 0.930 . S
H882 C890 0.930 . S
H883 C891 0.930 . S
H884 C894 0.930 . S
H885 C895 0.930 . S
C886 H880 0.930 . S
C886 C887 1.355 . S
C886 C888 1.415 . S
C887 C886 1.355 . S
C887 C889 1.419 . S
C888 C886 1.415 . S
C888 C893 1.425 . S
C888 C895 1.409 . S
C889 H881 0.930 . S
C889 C887 1.419 . S
C889 C890 1.362 . S
C890 H882 0.930 . S
C890 C889 1.362 . S
C890 C893 1.409 . S
C891 H883 0.930 . S
C891 C892 1.355 . S
C891 C893 1.415 . S
C892 C891 1.355 . S
C892 C894 1.419 . S
C893 C888 1.425 . S
C893 C890 1.409 . S
C893 C891 1.415 . S
C894 H884 0.930 . S
C894 C892 1.419 . S
C894 C895 1.362 . S
C895 H885 0.930 . S
C895 C888 1.409 . S
C895 C894 1.362 . S
H896 C902 0.930 . S
H897 C905 0.930 . S
H898 C906 0.930 . S
H899 C907 0.930 . S
H900 C910 0.930 . S
H901 C911 0.930 . S
C902 H896 0.930 . S
C902 C903 1.355 . S
C902 C904 1.415 . S
C903 C902 1.355 . S
C903 C905 1.419 . S
C904 C902 1.415 . S
C904 C909 1.425 . S
C904 C911 1.409 . S
C905 H897 0.930 . S
C905 C903 1.419 . S
C905 C906 1.362 . S
C906 H898 0.930 . S
C906 C905 1.362 . S
C906 C909 1.409 . S
C907 H899 0.930 . S
C907 C908 1.355 . S
C907 C909 1.415 . S
C908 C907 1.355 . S
C908 C910 1.419 . S
C909 C904 1.425 . S
C909 C906 1.409 . S
C909 C907 1.415 . S
C910 H900 0.930 . S
C910 C908 1.419 . S
C910 C911 1.362 . S
C911 H901 0.930 . S
C911 C904 1.409 . S
C911 C910 1.362 . S
H912 C918 0.930 . S
H913 C921 0.930 . S
H914 C922 0.930 . S
H915 C923 0.930 . S
H916 C926 0.930 . S
H917 C927 0.930 . S
C918 H912 0.930 . S
C918 C919 1.355 . S
C918 C920 1.415 . S
C919 C918 1.355 . S
C919 C921 1.419 . S
C920 C918 1.415 . S
C920 C925 1.425 . S
C920 C927 1.409 . S
C921 H913 0.930 . S
C921 C919 1.419 . S
C921 C922 1.362 . S
C922 H914 0.930 . S
C922 C921 1.362 . S
C922 C925 1.409 . S
C923 H915 0.930 . S
C923 C924 1.355 . S
C923 C925 1.415 . S
C924 C923 1.355 . S
C924 C926 1.419 . S
C925 C920 1.425 . S
C925 C922 1.409 . S
C925 C923 1.415 . S
C926 H916 0.930 . S
C926 C924 1.419 . S
C926 C927 1.362 . S
C927 H917 0.930 . S
C927 C920 1.409 . S
C927 C926 1.362 . S
H928 C934 0.930 . S
H929 C937 0.918 1_556 S
H930 C938 0.930 . S
H931 C939 0.930 . S
H932 C942 0.930 . S
H933 C943 0.930 . S
C934 H928 0.930 . S
C934 C935 1.355 . S
C934 C936 1.415 . S
C935 C934 1.355 . S
C935 C937 1.419 . S
C936 C934 1.415 . S
C936 C941 1.425 . S
C936 C943 1.409 . S
C937 H929 0.918 1_554 S
C937 C935 1.419 . S
C937 C938 1.362 . S
C938 H930 0.930 . S
C938 C937 1.362 . S
C938 C941 1.409 . S
C939 H931 0.930 . S
C939 C940 1.355 . S
C939 C941 1.415 . S
C940 C939 1.355 . S
C940 C942 1.419 . S
C941 C936 1.425 . S
C941 C938 1.409 . S
C941 C939 1.415 . S
C942 H932 0.930 . S
C942 C940 1.419 . S
C942 C943 1.362 . S
C943 H933 0.930 . S
C943 C936 1.409 . S
C943 C942 1.362 . S
H944 C950 0.930 . S
H945 C953 0.930 . S
H946 C954 0.930 . S
H947 C955 0.930 . S
H948 C958 0.930 1_554 S
H949 C959 0.930 . S
C950 H944 0.930 . S
C950 C951 1.355 . S
C950 C952 1.415 . S
C951 C950 1.355 . S
C951 C953 1.419 . S
C952 C950 1.415 . S
C952 C957 1.425 . S
C952 C959 1.409 . S
C953 H945 0.930 . S
C953 C951 1.419 . S
C953 C954 1.362 . S
C954 H946 0.930 . S
C954 C953 1.362 . S
C954 C957 1.409 . S
C955 H947 0.930 . S
C955 C956 1.355 . S
C955 C957 1.415 . S
C956 C955 1.355 . S
C956 C958 1.419 . S
C957 C952 1.425 . S
C957 C954 1.409 . S
C957 C955 1.415 . S
C958 H948 0.930 1_556 S
C958 C956 1.419 . S
C958 C959 1.362 . S
C959 H949 0.930 . S
C959 C952 1.409 . S
C959 C958 1.362 . S
H960 C966 0.930 . S
H961 C969 0.930 . S
H962 C970 0.930 . S
H963 C971 0.930 . S
H964 C974 0.930 . S
H965 C975 0.930 . S
C966 H960 0.930 . S
C966 C967 1.355 . S
C966 C968 1.415 . S
C967 C966 1.355 . S
C967 C969 1.419 . S
C968 C966 1.415 . S
C968 C973 1.425 . S
C968 C975 1.409 . S
C969 H961 0.930 . S
C969 C967 1.419 . S
C969 C970 1.362 . S
C970 H962 0.930 . S
C970 C969 1.362 . S
C970 C973 1.409 . S
C971 H963 0.930 . S
C971 C972 1.355 . S
C971 C973 1.415 . S
C972 C971 1.355 . S
C972 C974 1.419 . S
C973 C968 1.425 . S
C973 C970 1.409 . S
C973 C971 1.415 . S
C974 H964 0.930 . S
C974 C972 1.419 . S
C974 C975 1.362 . S
C975 H965 0.930 . S
C975 C968 1.409 . S
C975 C974 1.362 . S
H976 C982 0.930 . S
H977 C985 0.930 . S
H978 C986 0.930 . S
H979 C987 0.930 . S
H980 C990 0.930 . S
H981 C991 0.930 . S
C982 H976 0.930 . S
C982 C983 1.355 . S
C982 C984 1.415 . S
C983 C982 1.355 . S
C983 C985 1.419 . S
C984 C982 1.415 . S
C984 C989 1.425 1_655 S
C984 C991 1.409 1_655 S
C985 H977 0.930 . S
C985 C983 1.419 . S
C985 C986 1.362 . S
C986 H978 0.930 . S
C986 C985 1.362 . S
C986 C989 1.409 1_655 S
C987 H979 0.930 . S
C987 C988 1.355 . S
C987 C989 1.415 . S
C988 C987 1.355 . S
C988 C990 1.419 . S
C989 C984 1.425 1_455 S
C989 C986 1.409 1_455 S
C989 C987 1.415 . S
C990 H980 0.930 . S
C990 C988 1.419 . S
C990 C991 1.362 . S
C991 H981 0.930 . S
C991 C984 1.409 1_455 S
C991 C990 1.362 . S
H992 C998 0.930 . S
H993 C1001 0.930 . S
H994 C1002 0.930 . S
H995 C1003 0.930 . S
H996 C1006 0.930 . S
H997 C1007 0.930 . S
C998 H992 0.930 . S
C998 C999 1.355 . S
C998 C1000 1.415 . S
C999 C998 1.355 . S
C999 C1001 1.419 . S
C1000 C998 1.415 . S
C1000 C1005 1.425 . S
C1000 C1007 1.409 . S
C1001 H993 0.930 . S
C1001 C999 1.419 . S
C1001 C1002 1.362 . S
C1002 H994 0.930 . S
C1002 C1001 1.362 . S
C1002 C1005 1.409 . S
C1003 H995 0.930 . S
C1003 C1004 1.355 . S
C1003 C1005 1.415 . S
C1004 C1003 1.355 . S
C1004 C1006 1.419 . S
C1005 C1000 1.425 . S
C1005 C1002 1.409 . S
C1005 C1003 1.415 . S
C1006 H996 0.930 . S
C1006 C1004 1.419 . S
C1006 C1007 1.362 . S
C1007 H997 0.930 . S
C1007 C1000 1.409 . S
C1007 C1006 1.362 . S
H1008 C1014 0.930 . S
H1009 C1017 0.930 . S
H1010 C1018 0.930 . S
H1011 C1019 0.930 . S
H1012 C1022 0.930 . S
H1013 C1023 0.930 . S
C1014 H1008 0.930 . S
C1014 C1015 1.355 . S
C1014 C1016 1.415 . S
C1015 C1014 1.355 . S
C1015 C1017 1.419 . S
C1016 C1014 1.415 . S
C1016 C1021 1.425 . S
C1016 C1023 1.409 . S
C1017 H1009 0.930 . S
C1017 C1015 1.419 . S
C1017 C1018 1.362 . S
C1018 H1010 0.930 . S
C1018 C1017 1.362 . S
C1018 C1021 1.409 . S
C1019 H1011 0.930 . S
C1019 C1020 1.355 . S
C1019 C1021 1.415 . S
C1020 C1019 1.355 . S
C1020 C1022 1.419 . S
C1021 C1016 1.425 . S
C1021 C1018 1.409 . S
C1021 C1019 1.415 . S
C1022 H1012 0.930 . S
C1022 C1020 1.419 . S
C1022 C1023 1.362 . S
C1023 H1013 0.930 . S
C1023 C1016 1.409 . S
C1023 C1022 1.362 . S
H1024 C1030 0.930 . S
H1025 C1033 0.930 . S
H1026 C1034 0.930 . S
H1027 C1035 0.930 . S
H1028 C1038 0.930 . S
H1029 C1039 0.930 . S
C1030 H1024 0.930 . S
C1030 C1031 1.355 . S
C1030 C1032 1.415 . S
C1031 C1030 1.355 . S
C1031 C1033 1.419 . S
C1032 C1030 1.415 . S
C1032 C1037 1.425 . S
C1032 C1039 1.409 . S
C1033 H1025 0.930 . S
C1033 C1031 1.419 . S
C1033 C1034 1.362 . S
C1034 H1026 0.930 . S
C1034 C1033 1.362 . S
C1034 C1037 1.409 . S
C1035 H1027 0.930 . S
C1035 C1036 1.355 . S
C1035 C1037 1.415 . S
C1036 C1035 1.355 . S
C1036 C1038 1.419 . S
C1037 C1032 1.425 . S
C1037 C1034 1.409 . S
C1037 C1035 1.415 . S
C1038 H1028 0.930 . S
C1038 C1036 1.419 . S
C1038 C1039 1.362 . S
C1039 H1029 0.930 . S
C1039 C1032 1.409 . S
C1039 C1038 1.362 . S
H1040 C1046 0.930 . S
H1041 C1049 0.930 . S
H1042 C1050 0.930 . S
H1043 C1051 0.930 . S
H1044 C1054 0.930 . S
H1045 C1055 0.930 . S
C1046 H1040 0.930 . S
C1046 C1047 1.355 . S
C1046 C1048 1.415 . S
C1047 C1046 1.355 . S
C1047 C1049 1.419 . S
C1048 C1046 1.415 . S
C1048 C1053 1.425 . S
C1048 C1055 1.409 . S
C1049 H1041 0.930 . S
C1049 C1047 1.419 . S
C1049 C1050 1.362 . S
C1050 H1042 0.930 . S
C1050 C1049 1.362 . S
C1050 C1053 1.409 . S
C1051 H1043 0.930 . S
C1051 C1052 1.355 . S
C1051 C1053 1.415 . S
C1052 C1051 1.355 . S
C1052 C1054 1.419 . S
C1053 C1048 1.425 . S
C1053 C1050 1.409 . S
C1053 C1051 1.415 . S
C1054 H1044 0.930 . S
C1054 C1052 1.419 . S
C1054 C1055 1.362 . S
C1055 H1045 0.930 . S
C1055 C1048 1.409 . S
C1055 C1054 1.362 . S
H1056 C1062 0.930 . S
H1057 C1065 0.930 . S
H1058 C1066 0.930 . S
H1059 C1067 0.930 . S
H1060 C1070 0.930 . S
H1061 C1071 0.930 . S
C1062 H1056 0.930 . S
C1062 C1063 1.355 . S
C1062 C1064 1.415 . S
C1063 C1062 1.355 . S
C1063 C1065 1.419 . S
C1064 C1062 1.415 . S
C1064 C1069 1.425 . S
C1064 C1071 1.409 . S
C1065 H1057 0.930 . S
C1065 C1063 1.419 . S
C1065 C1066 1.362 . S
C1066 H1058 0.930 . S
C1066 C1065 1.362 . S
C1066 C1069 1.409 . S
C1067 H1059 0.930 . S
C1067 C1068 1.355 . S
C1067 C1069 1.415 . S
C1068 C1067 1.355 . S
C1068 C1070 1.419 . S
C1069 C1064 1.425 . S
C1069 C1066 1.409 . S
C1069 C1067 1.415 . S
C1070 H1060 0.930 . S
C1070 C1068 1.419 . S
C1070 C1071 1.362 . S
C1071 H1061 0.930 . S
C1071 C1064 1.409 . S
C1071 C1070 1.362 . S
H1072 C1078 0.930 . S
H1073 C1081 0.930 . S
H1074 C1082 0.930 . S
H1075 C1083 0.930 . S
H1076 C1086 0.930 . S
H1077 C1087 0.930 . S
C1078 H1072 0.930 . S
C1078 C1079 1.355 . S
C1078 C1080 1.415 . S
C1079 C1078 1.355 . S
C1079 C1081 1.419 . S
C1080 C1078 1.415 . S
C1080 C1085 1.425 1_655 S
C1080 C1087 1.409 1_655 S
C1081 H1073 0.930 . S
C1081 C1079 1.419 . S
C1081 C1082 1.362 . S
C1082 H1074 0.930 . S
C1082 C1081 1.362 . S
C1082 C1085 1.409 1_655 S
C1083 H1075 0.930 . S
C1083 C1084 1.355 . S
C1083 C1085 1.415 . S
C1084 C1083 1.355 . S
C1084 C1086 1.419 . S
C1085 C1080 1.425 1_455 S
C1085 C1082 1.409 1_455 S
C1085 C1083 1.415 . S
C1086 H1076 0.930 . S
C1086 C1084 1.419 . S
C1086 C1087 1.362 . S
C1087 H1077 0.930 . S
C1087 C1080 1.409 1_455 S
C1087 C1086 1.362 . S
H1088 C1094 0.930 . S
H1089 C1097 0.930 . S
H1090 C1098 0.930 1_554 S
H1091 C1099 0.930 . S
H1092 C1102 0.930 . S
H1093 C1103 0.930 . S
C1094 H1088 0.930 . S
C1094 C1095 1.355 . S
C1094 C1096 1.415 . S
C1095 C1094 1.355 . S
C1095 C1097 1.419 . S
C1096 C1094 1.415 . S
C1096 C1101 1.425 . S
C1096 C1103 1.409 . S
C1097 H1089 0.930 . S
C1097 C1095 1.419 . S
C1097 C1098 1.362 . S
C1098 H1090 0.930 1_556 S
C1098 C1097 1.362 . S
C1098 C1101 1.409 . S
C1099 H1091 0.930 . S
C1099 C1100 1.355 . S
C1099 C1101 1.415 . S
C1100 C1099 1.355 . S
C1100 C1102 1.419 . S
C1101 C1096 1.425 . S
C1101 C1098 1.409 . S
C1101 C1099 1.415 . S
C1102 H1092 0.930 . S
C1102 C1100 1.419 . S
C1102 C1103 1.362 . S
C1103 H1093 0.930 . S
C1103 C1096 1.409 . S
C1103 C1102 1.362 . S
H1104 C1110 0.930 . S
H1105 C1113 0.930 . S
H1106 C1114 0.930 . S
H1107 C1115 0.930 . S
H1108 C1118 0.930 . S
H1109 C1119 0.930 . S
C1110 H1104 0.930 . S
C1110 C1111 1.355 . S
C1110 C1112 1.415 . S
C1111 C1110 1.355 . S
C1111 C1113 1.419 . S
C1112 C1110 1.415 . S
C1112 C1117 1.425 . S
C1112 C1119 1.409 . S
C1113 H1105 0.930 . S
C1113 C1111 1.419 . S
C1113 C1114 1.362 . S
C1114 H1106 0.930 . S
C1114 C1113 1.362 . S
C1114 C1117 1.409 . S
C1115 H1107 0.930 . S
C1115 C1116 1.355 . S
C1115 C1117 1.415 . S
C1116 C1115 1.355 . S
C1116 C1118 1.419 . S
C1117 C1112 1.425 . S
C1117 C1114 1.409 . S
C1117 C1115 1.415 . S
C1118 H1108 0.930 . S
C1118 C1116 1.419 . S
C1118 C1119 1.362 . S
C1119 H1109 0.930 . S
C1119 C1112 1.409 . S
C1119 C1118 1.362 . S
H1120 C1126 0.930 . S
H1121 C1129 0.930 . S
H1122 C1130 0.930 . S
H1123 C1131 0.930 . S
H1124 C1134 0.930 . S
H1125 C1135 0.930 . S
C1126 H1120 0.930 . S
C1126 C1127 1.355 . S
C1126 C1128 1.415 . S
C1127 C1126 1.355 . S
C1127 C1129 1.419 . S
C1128 C1126 1.415 . S
C1128 C1133 1.425 . S
C1128 C1135 1.409 . S
C1129 H1121 0.930 . S
C1129 C1127 1.419 . S
C1129 C1130 1.362 . S
C1130 H1122 0.930 . S
C1130 C1129 1.362 . S
C1130 C1133 1.409 . S
C1131 H1123 0.930 . S
C1131 C1132 1.355 . S
C1131 C1133 1.415 . S
C1132 C1131 1.355 . S
C1132 C1134 1.419 . S
C1133 C1128 1.425 . S
C1133 C1130 1.409 . S
C1133 C1131 1.415 . S
C1134 H1124 0.930 . S
C1134 C1132 1.419 . S
C1134 C1135 1.362 . S
C1135 H1125 0.930 . S
C1135 C1128 1.409 . S
C1135 C1134 1.362 . S
H1136 C1142 0.930 . S
H1137 C1145 0.930 . S
H1138 C1146 0.930 . S
H1139 C1147 0.930 . S
H1140 C1150 0.930 . S
H1141 C1151 0.930 . S
C1142 H1136 0.930 . S
C1142 C1143 1.355 . S
C1142 C1144 1.415 . S
C1143 C1142 1.355 . S
C1143 C1145 1.419 . S
C1144 C1142 1.415 . S
C1144 C1149 1.425 . S
C1144 C1151 1.409 . S
C1145 H1137 0.930 . S
C1145 C1143 1.419 . S
C1145 C1146 1.362 . S
C1146 H1138 0.930 . S
C1146 C1145 1.362 . S
C1146 C1149 1.409 . S
C1147 H1139 0.930 . S
C1147 C1148 1.355 . S
C1147 C1149 1.415 . S
C1148 C1147 1.355 . S
C1148 C1150 1.419 . S
C1149 C1144 1.425 . S
C1149 C1146 1.409 . S
C1149 C1147 1.415 . S
C1150 H1140 0.930 . S
C1150 C1148 1.419 . S
C1150 C1151 1.362 . S
C1151 H1141 0.930 . S
C1151 C1144 1.409 . S
C1151 C1150 1.362 . S
H1152 C1158 0.930 . S
H1153 C1161 0.930 . S
H1154 C1162 0.930 . S
H1155 C1163 0.930 . S
H1156 C1166 0.930 . S
H1157 C1167 0.930 . S
C1158 H1152 0.930 . S
C1158 C1159 1.355 . S
C1158 C1160 1.415 . S
C1159 C1158 1.355 . S
C1159 C1161 1.419 . S
C1160 C1158 1.415 . S
C1160 C1165 1.425 . S
C1160 C1167 1.409 . S
C1161 H1153 0.930 . S
C1161 C1159 1.419 . S
C1161 C1162 1.362 . S
C1162 H1154 0.930 . S
C1162 C1161 1.362 . S
C1162 C1165 1.409 . S
C1163 H1155 0.930 . S
C1163 C1164 1.355 . S
C1163 C1165 1.415 . S
C1164 C1163 1.355 . S
C1164 C1166 1.419 . S
C1165 C1160 1.425 . S
C1165 C1162 1.409 . S
C1165 C1163 1.415 . S
C1166 H1156 0.930 . S
C1166 C1164 1.419 . S
C1166 C1167 1.362 . S
C1167 H1157 0.930 . S
C1167 C1160 1.409 . S
C1167 C1166 1.362 . S
H1168 C1174 0.930 . S
H1169 C1177 0.930 . S
H1170 C1178 0.930 . S
H1171 C1179 0.930 . S
H1172 C1182 0.930 . S
H1173 C1183 0.930 . S
C1174 H1168 0.930 . S
C1174 C1175 1.355 . S
C1174 C1176 1.415 . S
C1175 C1174 1.355 . S
C1175 C1177 1.419 . S
C1176 C1174 1.415 . S
C1176 C1181 1.425 1_655 S
C1176 C1183 1.409 1_655 S
C1177 H1169 0.930 . S
C1177 C1175 1.419 . S
C1177 C1178 1.362 . S
C1178 H1170 0.930 . S
C1178 C1177 1.362 . S
C1178 C1181 1.409 1_655 S
C1179 H1171 0.930 . S
C1179 C1180 1.355 . S
C1179 C1181 1.415 . S
C1180 C1179 1.355 . S
C1180 C1182 1.419 . S
C1181 C1176 1.425 1_455 S
C1181 C1178 1.409 1_455 S
C1181 C1179 1.415 . S
C1182 H1172 0.930 . S
C1182 C1180 1.419 . S
C1182 C1183 1.362 . S
C1183 H1173 0.930 . S
C1183 C1176 1.409 1_455 S
C1183 C1182 1.362 . S
H1184 C1190 0.930 . S
H1185 C1193 0.930 . S
H1186 C1194 0.930 . S
H1187 C1195 0.930 . S
H1188 C1198 0.930 . S
H1189 C1199 0.930 . S
C1190 H1184 0.930 . S
C1190 C1191 1.355 . S
C1190 C1192 1.415 . S
C1191 C1190 1.355 . S
C1191 C1193 1.419 . S
C1192 C1190 1.415 . S
C1192 C1197 1.425 1_655 S
C1192 C1199 1.409 1_655 S
C1193 H1185 0.930 . S
C1193 C1191 1.419 . S
C1193 C1194 1.362 . S
C1194 H1186 0.930 . S
C1194 C1193 1.362 . S
C1194 C1197 1.409 1_655 S
C1195 H1187 0.930 . S
C1195 C1196 1.355 . S
C1195 C1197 1.415 . S
C1196 C1195 1.355 . S
C1196 C1198 1.419 . S
C1197 C1192 1.425 1_455 S
C1197 C1194 1.409 1_455 S
C1197 C1195 1.415 . S
C1198 H1188 0.930 . S
C1198 C1196 1.419 . S
C1198 C1199 1.362 . S
C1199 H1189 0.930 . S
C1199 C1192 1.409 1_455 S
C1199 C1198 1.362 . S
H1200 C1206 0.930 . S
H1201 C1209 0.930 . S
H1202 C1210 0.930 . S
H1203 C1211 0.930 . S
H1204 C1214 0.930 . S
H1205 C1215 0.930 . S
C1206 H1200 0.930 . S
C1206 C1207 1.355 . S
C1206 C1208 1.415 . S
C1207 C1206 1.355 . S
C1207 C1209 1.419 . S
C1208 C1206 1.415 . S
C1208 C1213 1.425 . S
C1208 C1215 1.409 . S
C1209 H1201 0.930 . S
C1209 C1207 1.419 . S
C1209 C1210 1.362 . S
C1210 H1202 0.930 . S
C1210 C1209 1.362 . S
C1210 C1213 1.409 . S
C1211 H1203 0.930 . S
C1211 C1212 1.355 . S
C1211 C1213 1.415 . S
C1212 C1211 1.355 . S
C1212 C1214 1.419 . S
C1213 C1208 1.425 . S
C1213 C1210 1.409 . S
C1213 C1211 1.415 . S
C1214 H1204 0.930 . S
C1214 C1212 1.419 . S
C1214 C1215 1.362 . S
C1215 H1205 0.930 . S
C1215 C1208 1.409 . S
C1215 C1214 1.362 . S
H1216 C1222 0.930 . S
H1217 C1225 0.930 . S
H1218 C1226 0.930 . S
H1219 C1227 0.930 . S
H1220 C1230 0.930 . S
H1221 C1231 0.930 . S
C1222 H1216 0.930 . S
C1222 C1223 1.355 . S
C1222 C1224 1.415 . S
C1223 C1222 1.355 . S
C1223 C1225 1.419 . S
C1224 C1222 1.415 . S
C1224 C1229 1.425 . S
C1224 C1231 1.409 . S
C1225 H1217 0.930 . S
C1225 C1223 1.419 . S
C1225 C1226 1.362 . S
C1226 H1218 0.930 . S
C1226 C1225 1.362 . S
C1226 C1229 1.409 . S
C1227 H1219 0.930 . S
C1227 C1228 1.355 . S
C1227 C1229 1.415 . S
C1228 C1227 1.355 . S
C1228 C1230 1.419 . S
C1229 C1224 1.425 . S
C1229 C1226 1.409 . S
C1229 C1227 1.415 . S
C1230 H1220 0.930 . S
C1230 C1228 1.419 . S
C1230 C1231 1.362 . S
C1231 H1221 0.930 . S
C1231 C1224 1.409 . S
C1231 C1230 1.362 . S
H1232 C1238 0.930 . S
H1233 C1241 0.930 . S
H1234 C1242 0.930 . S
H1235 C1243 0.930 . S
H1236 C1246 0.930 . S
H1237 C1247 0.930 . S
C1238 H1232 0.930 . S
C1238 C1239 1.355 . S
C1238 C1240 1.415 . S
C1239 C1238 1.355 . S
C1239 C1241 1.419 . S
C1240 C1238 1.415 . S
C1240 C1245 1.425 . S
C1240 C1247 1.409 . S
C1241 H1233 0.930 . S
C1241 C1239 1.419 . S
C1241 C1242 1.362 . S
C1242 H1234 0.930 . S
C1242 C1241 1.362 . S
C1242 C1245 1.409 . S
C1243 H1235 0.930 . S
C1243 C1244 1.355 . S
C1243 C1245 1.415 . S
C1244 C1243 1.355 . S
C1244 C1246 1.419 . S
C1245 C1240 1.425 . S
C1245 C1242 1.409 . S
C1245 C1243 1.415 . S
C1246 H1236 0.930 . S
C1246 C1244 1.419 . S
C1246 C1247 1.362 . S
C1247 H1237 0.930 . S
C1247 C1240 1.409 . S
C1247 C1246 1.362 . S
H1248 C1254 0.918 1_554 S
H1249 C1257 0.930 . S
H1250 C1258 0.930 . S
H1251 C1259 0.930 . S
H1252 C1262 0.930 . S
H1253 C1263 0.930 . S
C1254 H1248 0.918 1_556 S
C1254 C1255 1.355 . S
C1254 C1256 1.415 . S
C1255 C1254 1.355 . S
C1255 C1257 1.419 . S
C1256 C1254 1.415 . S
C1256 C1261 1.425 . S
C1256 C1263 1.409 . S
C1257 H1249 0.930 . S
C1257 C1255 1.419 . S
C1257 C1258 1.362 . S
C1258 H1250 0.930 . S
C1258 C1257 1.362 . S
C1258 C1261 1.409 . S
C1259 H1251 0.930 . S
C1259 C1260 1.355 . S
C1259 C1261 1.415 . S
C1260 C1259 1.355 . S
C1260 C1262 1.419 . S
C1261 C1256 1.425 . S
C1261 C1258 1.409 . S
C1261 C1259 1.415 . S
C1262 H1252 0.930 . S
C1262 C1260 1.419 . S
C1262 C1263 1.362 . S
C1263 H1253 0.930 . S
C1263 C1256 1.409 . S
C1263 C1262 1.362 . S
H1264 C1270 0.930 . S
H1265 C1273 0.930 . S
H1266 C1274 0.930 . S
H1267 C1275 0.930 . S
H1268 C1278 0.930 . S
H1269 C1279 0.930 . S
C1270 H1264 0.930 . S
C1270 C1271 1.355 . S
C1270 C1272 1.415 . S
C1271 C1270 1.355 . S
C1271 C1273 1.419 . S
C1272 C1270 1.415 . S
C1272 C1277 1.425 . S
C1272 C1279 1.409 . S
C1273 H1265 0.930 . S
C1273 C1271 1.419 . S
C1273 C1274 1.362 . S
C1274 H1266 0.930 . S
C1274 C1273 1.362 . S
C1274 C1277 1.409 . S
C1275 H1267 0.930 . S
C1275 C1276 1.355 . S
C1275 C1277 1.415 . S
C1276 C1275 1.355 . S
C1276 C1278 1.419 . S
C1277 C1272 1.425 . S
C1277 C1274 1.409 . S
C1277 C1275 1.415 . S
C1278 H1268 0.930 . S
C1278 C1276 1.419 . S
C1278 C1279 1.362 . S
C1279 H1269 0.930 . S
C1279 C1272 1.409 . S
C1279 C1278 1.362 . S
H1280 C1286 0.930 . S
H1281 C1289 0.930 . S
H1282 C1290 0.930 . S
H1283 C1291 0.930 . S
H1284 C1294 0.930 . S
H1285 C1295 0.930 . S
C1286 H1280 0.930 . S
C1286 C1287 1.355 . S
C1286 C1288 1.415 . S
C1287 C1286 1.355 . S
C1287 C1289 1.419 . S
C1288 C1286 1.415 . S
C1288 C1293 1.425 . S
C1288 C1295 1.409 . S
C1289 H1281 0.930 . S
C1289 C1287 1.419 . S
C1289 C1290 1.362 . S
C1290 H1282 0.930 . S
C1290 C1289 1.362 . S
C1290 C1293 1.409 . S
C1291 H1283 0.930 . S
C1291 C1292 1.355 . S
C1291 C1293 1.415 . S
C1292 C1291 1.355 . S
C1292 C1294 1.419 . S
C1293 C1288 1.425 . S
C1293 C1290 1.409 . S
C1293 C1291 1.415 . S
C1294 H1284 0.930 . S
C1294 C1292 1.419 . S
C1294 C1295 1.362 . S
C1295 H1285 0.930 . S
C1295 C1288 1.409 . S
C1295 C1294 1.362 . S
H1296 C1302 0.930 . S
H1297 C1305 0.930 . S
H1298 C1306 0.930 . S
H1299 C1307 0.930 . S
H1300 C1310 0.930 . S
H1301 C1311 0.930 . S
C1302 H1296 0.930 . S
C1302 C1303 1.355 . S
C1302 C1304 1.415 . S
C1303 C1302 1.355 . S
C1303 C1305 1.419 . S
C1304 C1302 1.415 . S
C1304 C1309 1.425 . S
C1304 C1311 1.409 . S
C1305 H1297 0.930 . S
C1305 C1303 1.419 . S
C1305 C1306 1.362 . S
C1306 H1298 0.930 . S
C1306 C1305 1.362 . S
C1306 C1309 1.409 . S
C1307 H1299 0.930 . S
C1307 C1308 1.355 . S
C1307 C1309 1.415 . S
C1308 C1307 1.355 . S
C1308 C1310 1.419 . S
C1309 C1304 1.425 . S
C1309 C1306 1.409 . S
C1309 C1307 1.415 . S
C1310 H1300 0.930 . S
C1310 C1308 1.419 . S
C1310 C1311 1.362 . S
C1311 H1301 0.930 . S
C1311 C1304 1.409 . S
C1311 C1310 1.362 . S
H1312 C1318 0.930 . S
H1313 C1321 0.930 . S
H1314 C1322 0.930 . S
H1315 C1323 0.930 . S
H1316 C1326 0.930 1_556 S
H1317 C1327 0.930 . S
C1318 H1312 0.930 . S
C1318 C1319 1.355 . S
C1318 C1320 1.415 . S
C1319 C1318 1.355 . S
C1319 C1321 1.419 . S
C1320 C1318 1.415 . S
C1320 C1325 1.425 . S
C1320 C1327 1.409 . S
C1321 H1313 0.930 . S
C1321 C1319 1.419 . S
C1321 C1322 1.362 . S
C1322 H1314 0.930 . S
C1322 C1321 1.362 . S
C1322 C1325 1.409 . S
C1323 H1315 0.930 . S
C1323 C1324 1.355 . S
C1323 C1325 1.415 . S
C1324 C1323 1.355 . S
C1324 C1326 1.419 . S
C1325 C1320 1.425 . S
C1325 C1322 1.409 . S
C1325 C1323 1.415 . S
C1326 H1316 0.930 1_554 S
C1326 C1324 1.419 . S
C1326 C1327 1.362 . S
C1327 H1317 0.930 . S
C1327 C1320 1.409 . S
C1327 C1326 1.362 . S
H1328 C1334 0.930 . S
H1329 C1337 0.930 . S
H1330 C1338 0.930 . S
H1331 C1339 0.930 1_554 S
H1332 C1342 0.930 . S
H1333 C1343 0.930 . S
C1334 H1328 0.930 . S
C1334 C1335 1.355 . S
C1334 C1336 1.415 . S
C1335 C1334 1.355 . S
C1335 C1337 1.419 . S
C1336 C1334 1.415 . S
C1336 C1341 1.425 . S
C1336 C1343 1.409 . S
C1337 H1329 0.930 . S
C1337 C1335 1.419 . S
C1337 C1338 1.362 . S
C1338 H1330 0.930 . S
C1338 C1337 1.362 . S
C1338 C1341 1.409 . S
C1339 H1331 0.930 1_556 S
C1339 C1340 1.355 . S
C1339 C1341 1.415 . S
C1340 C1339 1.355 . S
C1340 C1342 1.419 . S
C1341 C1336 1.425 . S
C1341 C1338 1.409 . S
C1341 C1339 1.415 . S
C1342 H1332 0.930 . S
C1342 C1340 1.419 . S
C1342 C1343 1.362 . S
C1343 H1333 0.930 . S
C1343 C1336 1.409 . S
C1343 C1342 1.362 . S
H1344 C1350 0.930 . S
H1345 C1353 0.930 . S
H1346 C1354 0.930 . S
H1347 C1355 0.930 . S
H1348 C1358 0.930 . S
H1349 C1359 0.930 . S
C1350 H1344 0.930 . S
C1350 C1351 1.355 . S
C1350 C1352 1.415 . S
C1351 C1350 1.355 . S
C1351 C1353 1.419 . S
C1352 C1350 1.415 . S
C1352 C1357 1.425 . S
C1352 C1359 1.409 . S
C1353 H1345 0.930 . S
C1353 C1351 1.419 . S
C1353 C1354 1.362 . S
C1354 H1346 0.930 . S
C1354 C1353 1.362 . S
C1354 C1357 1.409 . S
C1355 H1347 0.930 . S
C1355 C1356 1.355 . S
C1355 C1357 1.415 . S
C1356 C1355 1.355 . S
C1356 C1358 1.419 . S
C1357 C1352 1.425 . S
C1357 C1354 1.409 . S
C1357 C1355 1.415 . S
C1358 H1348 0.930 . S
C1358 C1356 1.419 . S
C1358 C1359 1.362 . S
C1359 H1349 0.930 . S
C1359 C1352 1.409 . S
C1359 C1358 1.362 . S
H1360 C1366 0.930 . S
H1361 C1369 0.930 . S
H1362 C1370 0.930 . S
H1363 C1371 0.930 . S
H1364 C1374 0.930 . S
H1365 C1375 0.930 . S
C1366 H1360 0.930 . S
C1366 C1367 1.355 . S
C1366 C1368 1.415 . S
C1367 C1366 1.355 . S
C1367 C1369 1.419 . S
C1368 C1366 1.415 . S
C1368 C1373 1.425 . S
C1368 C1375 1.409 . S
C1369 H1361 0.930 . S
C1369 C1367 1.419 . S
C1369 C1370 1.362 . S
C1370 H1362 0.930 . S
C1370 C1369 1.362 . S
C1370 C1373 1.409 . S
C1371 H1363 0.930 . S
C1371 C1372 1.355 . S
C1371 C1373 1.415 . S
C1372 C1371 1.355 . S
C1372 C1374 1.419 . S
C1373 C1368 1.425 . S
C1373 C1370 1.409 . S
C1373 C1371 1.415 . S
C1374 H1364 0.930 . S
C1374 C1372 1.419 . S
C1374 C1375 1.362 . S
C1375 H1365 0.930 . S
C1375 C1368 1.409 . S
C1375 C1374 1.362 . S
H1376 C1382 0.930 . S
H1377 C1385 0.930 . S
H1378 C1386 0.930 . S
H1379 C1387 0.930 . S
H1380 C1390 0.930 . S
H1381 C1391 0.930 . S
C1382 H1376 0.930 . S
C1382 C1383 1.355 . S
C1382 C1384 1.415 . S
C1383 C1382 1.355 . S
C1383 C1385 1.419 . S
C1384 C1382 1.415 . S
C1384 C1389 1.425 . S
C1384 C1391 1.409 . S
C1385 H1377 0.930 . S
C1385 C1383 1.419 . S
C1385 C1386 1.362 . S
C1386 H1378 0.930 . S
C1386 C1385 1.362 . S
C1386 C1389 1.409 . S
C1387 H1379 0.930 . S
C1387 C1388 1.355 . S
C1387 C1389 1.415 . S
C1388 C1387 1.355 . S
C1388 C1390 1.419 . S
C1389 C1384 1.425 . S
C1389 C1386 1.409 . S
C1389 C1387 1.415 . S
C1390 H1380 0.930 . S
C1390 C1388 1.419 . S
C1390 C1391 1.362 . S
C1391 H1381 0.930 . S
C1391 C1384 1.409 . S
C1391 C1390 1.362 . S
H1392 C1398 0.930 . S
H1393 C1401 0.930 . S
H1394 C1402 0.930 . S
H1395 C1403 0.930 . S
H1396 C1406 0.930 . S
H1397 C1407 0.930 . S
C1398 H1392 0.930 . S
C1398 C1399 1.355 . S
C1398 C1400 1.415 . S
C1399 C1398 1.355 . S
C1399 C1401 1.419 . S
C1400 C1398 1.415 . S
C1400 C1405 1.425 . S
C1400 C1407 1.409 . S
C1401 H1393 0.930 . S
C1401 C1399 1.419 . S
C1401 C1402 1.362 . S
C1402 H1394 0.930 . S
C1402 C1401 1.362 . S
C1402 C1405 1.409 . S
C1403 H1395 0.930 . S
C1403 C1404 1.355 . S
C1403 C1405 1.415 . S
C1404 C1403 1.355 . S
C1404 C1406 1.419 . S
C1405 C1400 1.425 . S
C1405 C1402 1.409 . S
C1405 C1403 1.415 . S
C1406 H1396 0.930 . S
C1406 C1404 1.419 . S
C1406 C1407 1.362 . S
C1407 H1397 0.930 . S
C1407 C1400 1.409 . S
C1407 C1406 1.362 . S
H1408 C1414 0.930 . S
H1409 C1417 0.930 . S
H1410 C1418 0.930 . S
H1411 C1419 0.930 . S
H1412 C1422 0.930 1_556 S
H1413 C1423 0.930 . S
C1414 H1408 0.930 . S
C1414 C1415 1.355 . S
C1414 C1416 1.415 . S
C1415 C1414 1.355 . S
C1415 C1417 1.419 . S
C1416 C1414 1.415 . S
C1416 C1421 1.425 . S
C1416 C1423 1.409 . S
C1417 H1409 0.930 . S
C1417 C1415 1.419 . S
C1417 C1418 1.362 . S
C1418 H1410 0.930 . S
C1418 C1417 1.362 . S
C1418 C1421 1.409 . S
C1419 H1411 0.930 . S
C1419 C1420 1.355 . S
C1419 C1421 1.415 . S
C1420 C1419 1.355 . S
C1420 C1422 1.419 . S
C1421 C1416 1.425 . S
C1421 C1418 1.409 . S
C1421 C1419 1.415 . S
C1422 H1412 0.930 1_554 S
C1422 C1420 1.419 . S
C1422 C1423 1.362 . S
C1423 H1413 0.930 . S
C1423 C1416 1.409 . S
C1423 C1422 1.362 . S
H1424 C1430 0.930 . S
H1425 C1433 0.930 . S
H1426 C1434 0.930 . S
H1427 C1435 0.930 . S
H1428 C1438 0.930 . S
H1429 C1439 0.930 . S
C1430 H1424 0.930 . S
C1430 C1431 1.355 . S
C1430 C1432 1.415 . S
C1431 C1430 1.355 . S
C1431 C1433 1.419 . S
C1432 C1430 1.415 . S
C1432 C1437 1.425 . S
C1432 C1439 1.409 . S
C1433 H1425 0.930 . S
C1433 C1431 1.419 . S
C1433 C1434 1.362 . S
C1434 H1426 0.930 . S
C1434 C1433 1.362 . S
C1434 C1437 1.409 . S
C1435 H1427 0.930 . S
C1435 C1436 1.355 . S
C1435 C1437 1.415 . S
C1436 C1435 1.355 . S
C1436 C1438 1.419 . S
C1437 C1432 1.425 . S
C1437 C1434 1.409 . S
C1437 C1435 1.415 . S
C1438 H1428 0.930 . S
C1438 C1436 1.419 . S
C1438 C1439 1.362 . S
C1439 H1429 0.930 . S
C1439 C1432 1.409 . S
C1439 C1438 1.362 . S
H1440 C1446 0.930 . S
H1441 C1449 0.930 . S
H1442 C1450 0.930 . S
H1443 C1451 0.930 . S
H1444 C1454 0.930 . S
H1445 C1455 0.930 . S
C1446 H1440 0.930 . S
C1446 C1447 1.355 . S
C1446 C1448 1.415 . S
C1447 C1446 1.355 . S
C1447 C1449 1.419 . S
C1448 C1446 1.415 . S
C1448 C1453 1.425 . S
C1448 C1455 1.409 . S
C1449 H1441 0.930 . S
C1449 C1447 1.419 . S
C1449 C1450 1.362 . S
C1450 H1442 0.930 . S
C1450 C1449 1.362 . S
C1450 C1453 1.409 . S
C1451 H1443 0.930 . S
C1451 C1452 1.355 . S
C1451 C1453 1.415 . S
C1452 C1451 1.355 . S
C1452 C1454 1.419 . S
C1453 C1448 1.425 . S
C1453 C1450 1.409 . S
C1453 C1451 1.415 . S
C1454 H1444 0.930 . S
C1454 C1452 1.419 . S
C1454 C1455 1.362 . S
C1455 H1445 0.930 . S
C1455 C1448 1.409 . S
C1455 C1454 1.362 . S
H1456 C1462 0.930 . S
H1457 C1465 0.930 . S
H1458 C1466 0.930 . S
H1459 C1467 0.930 . S
H1460 C1470 0.930 . S
H1461 C1471 0.930 . S
C1462 H1456 0.930 . S
C1462 C1463 1.355 . S
C1462 C1464 1.415 . S
C1463 C1462 1.355 . S
C1463 C1465 1.419 . S
C1464 C1462 1.415 . S
C1464 C1469 1.425 . S
C1464 C1471 1.409 . S
C1465 H1457 0.930 . S
C1465 C1463 1.419 . S
C1465 C1466 1.362 . S
C1466 H1458 0.930 . S
C1466 C1465 1.362 . S
C1466 C1469 1.409 . S
C1467 H1459 0.930 . S
C1467 C1468 1.355 . S
C1467 C1469 1.415 . S
C1468 C1467 1.355 . S
C1468 C1470 1.419 . S
C1469 C1464 1.425 . S
C1469 C1466 1.409 . S
C1469 C1467 1.415 . S
C1470 H1460 0.930 . S
C1470 C1468 1.419 . S
C1470 C1471 1.362 . S
C1471 H1461 0.930 . S
C1471 C1464 1.409 . S
C1471 C1470 1.362 . S
C455 C93 1.486 . S
C460 C9 1.503 . S
C471 C23 1.466 . S
C476 C107 1.464 . S
C487 C65 1.503 . S
C492 C37 1.482 . S
C503 C51 1.492 . S
C508 C79 1.462 . S
C519 C121 1.498 . S
C524 C205 1.496 . S
C535 C219 1.502 . S
C540 C135 1.489 . S
C551 C149 1.479 . S
C556 C177 1.458 . S
C567 C191 1.458 . S
C572 C163 1.483 . S
C583 C233 1.463 . S
C588 C317 1.467 . S
C599 C247 1.465 . S
C604 C331 1.497 . S
C615 C289 1.460 . S
C620 C261 1.488 . S
C631 C303 1.464 . S
C636 C275 1.495 . S
C647 C345 1.458 . S
C652 C429 1.482 . S
C663 C359 1.460 . S
C668 C443 1.489 . S
C679 C401 1.468 . S
C684 C373 1.462 . S
C695 C387 1.503 . S
C700 C415 1.476 . S
C711 C8 1.480 1_556 S
C716 C106 1.490 . S
C727 C64 1.481 1_554 S
C732 C22 1.488 . S
C743 C78 1.486 . S
C748 C36 1.488 . S
C759 C50 1.480 . S
C764 C92 1.489 . S
C775 C120 1.491 1_554 S
C780 C218 1.479 . S
C791 C176 1.486 1_556 S
C796 C134 1.488 . S
C807 C190 1.484 . S
C812 C148 1.489 . S
C823 C204 1.485 . S
C828 C162 1.488 . S
C839 C232 1.481 . S
C844 C330 1.491 . S
C855 C246 1.488 . S
C860 C288 1.486 . S
C871 C302 1.489 . S
C876 C260 1.484 1_556 S
C887 C274 1.479 . S
C892 C316 1.490 1_554 S
C903 C344 1.491 . S
C908 C442 1.481 . S
C919 C400 1.484 . S
C924 C358 1.484 . S
C935 C372 1.479 1_554 S
C940 C414 1.491 . S
C951 C386 1.479 . S
C956 C428 1.491 1_556 S
C967 C423 1.489 . S
C972 C3 1.481 . S
C983 C213 1.491 . S
C988 C17 1.479 . S
C999 C31 1.489 . S
C1004 C395 1.481 . S
C1015 C45 1.489 . S
C1020 C185 1.481 . S
C1031 C59 1.485 . S
C1036 C367 1.485 . S
C1047 C73 1.491 . S
C1052 C157 1.479 . S
C1063 C87 1.492 . S
C1068 C339 1.478 . S
C1079 C129 1.492 . S
C1084 C101 1.478 . S
C1095 C311 1.489 . S
C1100 C115 1.481 . S
C1111 C143 1.486 . S
C1116 C283 1.484 . S
C1127 C255 1.487 . S
C1132 C171 1.483 . S
C1143 C227 1.479 . S
C1148 C199 1.491 . S
C1159 C241 1.490 . S
C1164 C437 1.480 . S
C1175 C269 1.490 . S
C1180 C409 1.480 . S
C1191 C297 1.478 . S
C1196 C381 1.492 . S
C1207 C353 1.491 . S
C1212 C325 1.479 . S
C1223 C7 1.461 . S
C1228 C105 1.469 . S
C1239 C21 1.408 . S
C1244 C63 1.424 . S
C1255 C77 1.399 1_556 S
C1260 C35 1.399 . S
C1271 C49 1.405 1_554 S
C1276 C91 1.420 . S
C1287 C217 1.399 . S
C1292 C119 1.407 . S
C1303 C175 1.450 . S
C1308 C133 1.463 . S
C1319 C147 1.464 . S
C1324 C189 1.451 1_554 S
C1335 C203 1.400 . S
C1340 C161 1.398 1_556 S
C1351 C329 1.437 1_556 S
C1356 C231 1.455 . S
C1367 C287 1.442 . S
C1372 C245 1.458 1_554 S
C1383 C301 1.414 . S
C1388 C259 1.402 . S
C1399 C315 1.434 . S
C1404 C273 1.452 . S
C1415 C343 1.456 . S
C1420 C441 1.467 1_554 S
C1431 C357 1.425 1_556 S
C1436 C399 1.443 . S
C1447 C371 1.430 . S
C1452 C413 1.448 . S
C1463 C427 1.401 . S
C1468 C385 1.398 . S
