# Generated by pormake.
# Topology fcn, (5)-cn, num edge types: 1
# Building blocks:
#     Node 0, Type 0, BuildingBlock: BEQFEK_clean_sbu_0, # of connection points: 5
#     Node 1, Type 0, BuildingBlock: BEQFEK_clean_sbu_0, # of connection points: 5
#     Node 2, Type 0, BuildingBlock: BEQFEK_clean_sbu_0, # of connection points: 5
#     Node 3, Type 0, BuildingBlock: BEQFEK_clean_sbu_0, # of connection points: 5
#     Node 4, Type 0, BuildingBlock: BEQFEK_clean_sbu_0, # of connection points: 5
#     Node 5, Type 0, BuildingBlock: BEQFEK_clean_sbu_0, # of connection points: 5
#     Node 6, Type 0, BuildingBlock: BEQFEK_clean_sbu_0, # of connection points: 5
#     Node 7, Type 0, BuildingBlock: BEQFEK_clean_sbu_0, # of connection points: 5
#     Node 8, Type 0, BuildingBlock: BEQFEK_clean_sbu_0, # of connection points: 5
#     Node 9, Type 0, BuildingBlock: BEQFEK_clean_sbu_0, # of connection points: 5
#     Node 10, Type 0, BuildingBlock: BEQFEK_clean_sbu_0, # of connection points: 5
#     Node 11, Type 0, BuildingBlock: BEQFEK_clean_sbu_0, # of connection points: 5
#     Node 12, Type 0, BuildingBlock: BEQFEK_clean_sbu_0, # of connection points: 5
#     Node 13, Type 0, BuildingBlock: BEQFEK_clean_sbu_0, # of connection points: 5
#     Node 14, Type 0, BuildingBlock: BEQFEK_clean_sbu_0, # of connection points: 5
#     Node 15, Type 0, BuildingBlock: BEQFEK_clean_sbu_0, # of connection points: 5
#     Node 16, Type 0, BuildingBlock: BEQFEK_clean_sbu_0, # of connection points: 5
#     Node 17, Type 0, BuildingBlock: BEQFEK_clean_sbu_0, # of connection points: 5
#     Node 18, Type 0, BuildingBlock: BEQFEK_clean_sbu_0, # of connection points: 5
#     Node 19, Type 0, BuildingBlock: BEQFEK_clean_sbu_0, # of connection points: 5
#     Node 20, Type 0, BuildingBlock: BEQFEK_clean_sbu_0, # of connection points: 5
#     Node 21, Type 0, BuildingBlock: BEQFEK_clean_sbu_0, # of connection points: 5
#     Node 22, Type 0, BuildingBlock: BEQFEK_clean_sbu_0, # of connection points: 5
#     Node 23, Type 0, BuildingBlock: BEQFEK_clean_sbu_0, # of connection points: 5
#     Node 24, Type 0, BuildingBlock: BEQFEK_clean_sbu_0, # of connection points: 5
#     Node 25, Type 0, BuildingBlock: BEQFEK_clean_sbu_0, # of connection points: 5
#     Node 26, Type 0, BuildingBlock: BEQFEK_clean_sbu_0, # of connection points: 5
#     Node 27, Type 0, BuildingBlock: BEQFEK_clean_sbu_0, # of connection points: 5
#     Node 28, Type 0, BuildingBlock: BEQFEK_clean_sbu_0, # of connection points: 5
#     Node 29, Type 0, BuildingBlock: BEQFEK_clean_sbu_0, # of connection points: 5
#     Node 30, Type 0, BuildingBlock: BEQFEK_clean_sbu_0, # of connection points: 5
#     Node 31, Type 0, BuildingBlock: BEQFEK_clean_sbu_0, # of connection points: 5
#     Node 32, Type 0, BuildingBlock: BEQFEK_clean_sbu_0, # of connection points: 5
#     Node 33, Type 0, BuildingBlock: BEQFEK_clean_sbu_0, # of connection points: 5
#     Node 34, Type 0, BuildingBlock: BEQFEK_clean_sbu_0, # of connection points: 5
#     Node 35, Type 0, BuildingBlock: BEQFEK_clean_sbu_0, # of connection points: 5
#     Node 36, Type 0, BuildingBlock: BEQFEK_clean_sbu_0, # of connection points: 5
#     Node 37, Type 0, BuildingBlock: BEQFEK_clean_sbu_0, # of connection points: 5
#     Node 38, Type 0, BuildingBlock: BEQFEK_clean_sbu_0, # of connection points: 5
#     Node 39, Type 0, BuildingBlock: BEQFEK_clean_sbu_0, # of connection points: 5
#     Node 40, Type 0, BuildingBlock: BEQFEK_clean_sbu_0, # of connection points: 5
#     Node 41, Type 0, BuildingBlock: BEQFEK_clean_sbu_0, # of connection points: 5
#     Node 42, Type 0, BuildingBlock: BEQFEK_clean_sbu_0, # of connection points: 5
#     Node 43, Type 0, BuildingBlock: BEQFEK_clean_sbu_0, # of connection points: 5
#     Node 44, Type 0, BuildingBlock: BEQFEK_clean_sbu_0, # of connection points: 5
#     Node 45, Type 0, BuildingBlock: BEQFEK_clean_sbu_0, # of connection points: 5
#     Node 46, Type 0, BuildingBlock: BEQFEK_clean_sbu_0, # of connection points: 5
#     Node 47, Type 0, BuildingBlock: BEQFEK_clean_sbu_0, # of connection points: 5
#     Edge 48, Type (0, 0), BuildingBlock: AJUNOK_clean_linker_0, # of connection points: 2
#     Edge 49, Type (0, 0), BuildingBlock: AJUNOK_clean_linker_0, # of connection points: 2
#     Edge 50, Type (0, 0), BuildingBlock: AJUNOK_clean_linker_0, # of connection points: 2
#     Edge 51, Type (0, 0), BuildingBlock: AJUNOK_clean_linker_0, # of connection points: 2
#     Edge 52, Type (0, 0), BuildingBlock: AJUNOK_clean_linker_0, # of connection points: 2
#     Edge 53, Type (0, 0), BuildingBlock: AJUNOK_clean_linker_0, # of connection points: 2
#     Edge 54, Type (0, 0), BuildingBlock: AJUNOK_clean_linker_0, # of connection points: 2
#     Edge 55, Type (0, 0), BuildingBlock: AJUNOK_clean_linker_0, # of connection points: 2
#     Edge 56, Type (0, 0), BuildingBlock: AJUNOK_clean_linker_0, # of connection points: 2
#     Edge 57, Type (0, 0), BuildingBlock: AJUNOK_clean_linker_0, # of connection points: 2
#     Edge 58, Type (0, 0), BuildingBlock: AJUNOK_clean_linker_0, # of connection points: 2
#     Edge 59, Type (0, 0), BuildingBlock: AJUNOK_clean_linker_0, # of connection points: 2
#     Edge 60, Type (0, 0), BuildingBlock: AJUNOK_clean_linker_0, # of connection points: 2
#     Edge 61, Type (0, 0), BuildingBlock: AJUNOK_clean_linker_0, # of connection points: 2
#     Edge 62, Type (0, 0), BuildingBlock: AJUNOK_clean_linker_0, # of connection points: 2
#     Edge 63, Type (0, 0), BuildingBlock: AJUNOK_clean_linker_0, # of connection points: 2
#     Edge 64, Type (0, 0), BuildingBlock: AJUNOK_clean_linker_0, # of connection points: 2
#     Edge 65, Type (0, 0), BuildingBlock: AJUNOK_clean_linker_0, # of connection points: 2
#     Edge 66, Type (0, 0), BuildingBlock: AJUNOK_clean_linker_0, # of connection points: 2
#     Edge 67, Type (0, 0), BuildingBlock: AJUNOK_clean_linker_0, # of connection points: 2
#     Edge 68, Type (0, 0), BuildingBlock: AJUNOK_clean_linker_0, # of connection points: 2
#     Edge 69, Type (0, 0), BuildingBlock: AJUNOK_clean_linker_0, # of connection points: 2
#     Edge 70, Type (0, 0), BuildingBlock: AJUNOK_clean_linker_0, # of connection points: 2
#     Edge 71, Type (0, 0), BuildingBlock: AJUNOK_clean_linker_0, # of connection points: 2
#     Edge 72, Type (0, 0), BuildingBlock: AJUNOK_clean_linker_0, # of connection points: 2
#     Edge 73, Type (0, 0), BuildingBlock: AJUNOK_clean_linker_0, # of connection points: 2
#     Edge 74, Type (0, 0), BuildingBlock: AJUNOK_clean_linker_0, # of connection points: 2
#     Edge 75, Type (0, 0), BuildingBlock: AJUNOK_clean_linker_0, # of connection points: 2
#     Edge 76, Type (0, 0), BuildingBlock: AJUNOK_clean_linker_0, # of connection points: 2
#     Edge 77, Type (0, 0), BuildingBlock: AJUNOK_clean_linker_0, # of connection points: 2
#     Edge 78, Type (0, 0), BuildingBlock: AJUNOK_clean_linker_0, # of connection points: 2
#     Edge 79, Type (0, 0), BuildingBlock: AJUNOK_clean_linker_0, # of connection points: 2
#     Edge 80, Type (0, 0), BuildingBlock: AJUNOK_clean_linker_0, # of connection points: 2
#     Edge 81, Type (0, 0), BuildingBlock: AJUNOK_clean_linker_0, # of connection points: 2
#     Edge 82, Type (0, 0), BuildingBlock: AJUNOK_clean_linker_0, # of connection points: 2
#     Edge 83, Type (0, 0), BuildingBlock: AJUNOK_clean_linker_0, # of connection points: 2
#     Edge 84, Type (0, 0), BuildingBlock: AJUNOK_clean_linker_0, # of connection points: 2
#     Edge 85, Type (0, 0), BuildingBlock: AJUNOK_clean_linker_0, # of connection points: 2
#     Edge 86, Type (0, 0), BuildingBlock: AJUNOK_clean_linker_0, # of connection points: 2
#     Edge 87, Type (0, 0), BuildingBlock: AJUNOK_clean_linker_0, # of connection points: 2
#     Edge 88, Type (0, 0), BuildingBlock: AJUNOK_clean_linker_0, # of connection points: 2
#     Edge 89, Type (0, 0), BuildingBlock: AJUNOK_clean_linker_0, # of connection points: 2
#     Edge 90, Type (0, 0), BuildingBlock: AJUNOK_clean_linker_0, # of connection points: 2
#     Edge 91, Type (0, 0), BuildingBlock: AJUNOK_clean_linker_0, # of connection points: 2
#     Edge 92, Type (0, 0), BuildingBlock: AJUNOK_clean_linker_0, # of connection points: 2
#     Edge 93, Type (0, 0), BuildingBlock: AJUNOK_clean_linker_0, # of connection points: 2
#     Edge 94, Type (0, 0), BuildingBlock: AJUNOK_clean_linker_0, # of connection points: 2
#     Edge 95, Type (0, 0), BuildingBlock: AJUNOK_clean_linker_0, # of connection points: 2
#     Edge 96, Type (0, 0), BuildingBlock: AJUNOK_clean_linker_0, # of connection points: 2
#     Edge 97, Type (0, 0), BuildingBlock: AJUNOK_clean_linker_0, # of connection points: 2
#     Edge 98, Type (0, 0), BuildingBlock: AJUNOK_clean_linker_0, # of connection points: 2
#     Edge 99, Type (0, 0), BuildingBlock: AJUNOK_clean_linker_0, # of connection points: 2
#     Edge 100, Type (0, 0), BuildingBlock: AJUNOK_clean_linker_0, # of connection points: 2
#     Edge 101, Type (0, 0), BuildingBlock: AJUNOK_clean_linker_0, # of connection points: 2
#     Edge 102, Type (0, 0), BuildingBlock: AJUNOK_clean_linker_0, # of connection points: 2
#     Edge 103, Type (0, 0), BuildingBlock: AJUNOK_clean_linker_0, # of connection points: 2
#     Edge 104, Type (0, 0), BuildingBlock: AJUNOK_clean_linker_0, # of connection points: 2
#     Edge 105, Type (0, 0), BuildingBlock: AJUNOK_clean_linker_0, # of connection points: 2
#     Edge 106, Type (0, 0), BuildingBlock: AJUNOK_clean_linker_0, # of connection points: 2
#     Edge 107, Type (0, 0), BuildingBlock: AJUNOK_clean_linker_0, # of connection points: 2
#     Edge 108, Type (0, 0), BuildingBlock: AJUNOK_clean_linker_0, # of connection points: 2
#     Edge 109, Type (0, 0), BuildingBlock: AJUNOK_clean_linker_0, # of connection points: 2
#     Edge 110, Type (0, 0), BuildingBlock: AJUNOK_clean_linker_0, # of connection points: 2
#     Edge 111, Type (0, 0), BuildingBlock: AJUNOK_clean_linker_0, # of connection points: 2
#     Edge 112, Type (0, 0), BuildingBlock: AJUNOK_clean_linker_0, # of connection points: 2
#     Edge 113, Type (0, 0), BuildingBlock: AJUNOK_clean_linker_0, # of connection points: 2
#     Edge 114, Type (0, 0), BuildingBlock: AJUNOK_clean_linker_0, # of connection points: 2
#     Edge 115, Type (0, 0), BuildingBlock: AJUNOK_clean_linker_0, # of connection points: 2
#     Edge 116, Type (0, 0), BuildingBlock: AJUNOK_clean_linker_0, # of connection points: 2
#     Edge 117, Type (0, 0), BuildingBlock: AJUNOK_clean_linker_0, # of connection points: 2
#     Edge 118, Type (0, 0), BuildingBlock: AJUNOK_clean_linker_0, # of connection points: 2
#     Edge 119, Type (0, 0), BuildingBlock: AJUNOK_clean_linker_0, # of connection points: 2
#     Edge 120, Type (0, 0), BuildingBlock: AJUNOK_clean_linker_0, # of connection points: 2
#     Edge 121, Type (0, 0), BuildingBlock: AJUNOK_clean_linker_0, # of connection points: 2
#     Edge 122, Type (0, 0), BuildingBlock: AJUNOK_clean_linker_0, # of connection points: 2
#     Edge 123, Type (0, 0), BuildingBlock: AJUNOK_clean_linker_0, # of connection points: 2
#     Edge 124, Type (0, 0), BuildingBlock: AJUNOK_clean_linker_0, # of connection points: 2
#     Edge 125, Type (0, 0), BuildingBlock: AJUNOK_clean_linker_0, # of connection points: 2
#     Edge 126, Type (0, 0), BuildingBlock: AJUNOK_clean_linker_0, # of connection points: 2
#     Edge 127, Type (0, 0), BuildingBlock: AJUNOK_clean_linker_0, # of connection points: 2
#     Edge 128, Type (0, 0), BuildingBlock: AJUNOK_clean_linker_0, # of connection points: 2
#     Edge 129, Type (0, 0), BuildingBlock: AJUNOK_clean_linker_0, # of connection points: 2
#     Edge 130, Type (0, 0), BuildingBlock: AJUNOK_clean_linker_0, # of connection points: 2
#     Edge 131, Type (0, 0), BuildingBlock: AJUNOK_clean_linker_0, # of connection points: 2
#     Edge 132, Type (0, 0), BuildingBlock: AJUNOK_clean_linker_0, # of connection points: 2
#     Edge 133, Type (0, 0), BuildingBlock: AJUNOK_clean_linker_0, # of connection points: 2
#     Edge 134, Type (0, 0), BuildingBlock: AJUNOK_clean_linker_0, # of connection points: 2
#     Edge 135, Type (0, 0), BuildingBlock: AJUNOK_clean_linker_0, # of connection points: 2
#     Edge 136, Type (0, 0), BuildingBlock: AJUNOK_clean_linker_0, # of connection points: 2
#     Edge 137, Type (0, 0), BuildingBlock: AJUNOK_clean_linker_0, # of connection points: 2
#     Edge 138, Type (0, 0), BuildingBlock: AJUNOK_clean_linker_0, # of connection points: 2
#     Edge 139, Type (0, 0), BuildingBlock: AJUNOK_clean_linker_0, # of connection points: 2
#     Edge 140, Type (0, 0), BuildingBlock: AJUNOK_clean_linker_0, # of connection points: 2
#     Edge 141, Type (0, 0), BuildingBlock: AJUNOK_clean_linker_0, # of connection points: 2
#     Edge 142, Type (0, 0), BuildingBlock: AJUNOK_clean_linker_0, # of connection points: 2
#     Edge 143, Type (0, 0), BuildingBlock: AJUNOK_clean_linker_0, # of connection points: 2
#     Edge 144, Type (0, 0), BuildingBlock: AJUNOK_clean_linker_0, # of connection points: 2
#     Edge 145, Type (0, 0), BuildingBlock: AJUNOK_clean_linker_0, # of connection points: 2
#     Edge 146, Type (0, 0), BuildingBlock: AJUNOK_clean_linker_0, # of connection points: 2
#     Edge 147, Type (0, 0), BuildingBlock: AJUNOK_clean_linker_0, # of connection points: 2
#     Edge 148, Type (0, 0), BuildingBlock: AJUNOK_clean_linker_0, # of connection points: 2
#     Edge 149, Type (0, 0), BuildingBlock: AJUNOK_clean_linker_0, # of connection points: 2
#     Edge 150, Type (0, 0), BuildingBlock: AJUNOK_clean_linker_0, # of connection points: 2
#     Edge 151, Type (0, 0), BuildingBlock: AJUNOK_clean_linker_0, # of connection points: 2
#     Edge 152, Type (0, 0), BuildingBlock: AJUNOK_clean_linker_0, # of connection points: 2
#     Edge 153, Type (0, 0), BuildingBlock: AJUNOK_clean_linker_0, # of connection points: 2
#     Edge 154, Type (0, 0), BuildingBlock: AJUNOK_clean_linker_0, # of connection points: 2
#     Edge 155, Type (0, 0), BuildingBlock: AJUNOK_clean_linker_0, # of connection points: 2
#     Edge 156, Type (0, 0), BuildingBlock: AJUNOK_clean_linker_0, # of connection points: 2
#     Edge 157, Type (0, 0), BuildingBlock: AJUNOK_clean_linker_0, # of connection points: 2
#     Edge 158, Type (0, 0), BuildingBlock: AJUNOK_clean_linker_0, # of connection points: 2
#     Edge 159, Type (0, 0), BuildingBlock: AJUNOK_clean_linker_0, # of connection points: 2
#     Edge 160, Type (0, 0), BuildingBlock: AJUNOK_clean_linker_0, # of connection points: 2
#     Edge 161, Type (0, 0), BuildingBlock: AJUNOK_clean_linker_0, # of connection points: 2
#     Edge 162, Type (0, 0), BuildingBlock: AJUNOK_clean_linker_0, # of connection points: 2
#     Edge 163, Type (0, 0), BuildingBlock: AJUNOK_clean_linker_0, # of connection points: 2
#     Edge 164, Type (0, 0), BuildingBlock: AJUNOK_clean_linker_0, # of connection points: 2
#     Edge 165, Type (0, 0), BuildingBlock: AJUNOK_clean_linker_0, # of connection points: 2
#     Edge 166, Type (0, 0), BuildingBlock: AJUNOK_clean_linker_0, # of connection points: 2
#     Edge 167, Type (0, 0), BuildingBlock: AJUNOK_clean_linker_0, # of connection points: 2
# Relax obj value: 0.523
# Max RMSD: 0.188
# Mean RMSD: 0.188
data_MOF--net-fcn--node1-BEQFEK_clean_sbu_0--edge1-AJUNOK_clean_linker_0
_symmetry_space_group_name_H-M    P1
_symmetry_Int_Tables_number       1
_symmetry_cell_setting            triclinic
loop_
_symmetry_equiv_pos_as_xyz
'x, y, z'
_cell_length_a     56.015346
_cell_length_b     56.009944
_cell_length_c     55.985582
_cell_angle_alpha  90.010051
_cell_angle_beta   90.005198
_cell_angle_gamma 89.986601
loop_
_atom_site_label
_atom_site_type_symbol
_atom_site_fract_x
_atom_site_fract_y
_atom_site_fract_z
_atom_type_partial_charge
Co0 Co 0.0712 0.18475 0.31023 0.0
Co1 Co 0.10827 0.15119 0.28478 0.0
C2 C 0.10525 0.15293 0.33798 0.0
O3 O 0.08826 0.16823 0.33839 0.0
O4 O 0.11347 0.14503 0.31846 0.0
C5 C 0.03072 0.20877 0.33298 0.0
O6 O 0.0244 0.18707 0.33924 0.0
C7 C 0.15566 0.13235 0.27348 0.0
C8 C 0.14915 0.11236 0.24012 0.0
C9 C 0.16697 0.11909 0.25591 0.0
N10 N 0.13232 0.13377 0.26809 0.0
N11 N 0.12847 0.12144 0.24834 0.0
C12 C 0.16648 0.14287 0.29555 0.0
H13 H 0.16144 0.16198 0.29702 0.0
H14 H 0.18617 0.14088 0.29587 0.0
H15 H 0.15907 0.1335 0.31133 0.0
C16 C 0.09116 0.21745 0.27362 0.0
N17 N 0.0934 0.19786 0.28752 0.0
N18 N 0.11031 0.18419 0.27856 0.0
C19 C 0.12003 0.19511 0.2595 0.0
C20 C 0.10784 0.21625 0.25521 0.0
C21 C 0.07018 0.23395 0.27491 0.0
H22 H 0.05345 0.22335 0.2755 0.0
H23 H 0.07133 0.24447 0.29165 0.0
H24 H 0.06948 0.24637 0.2595 0.0
O25 O 0.04977 0.16314 0.29125 0.0
O26 O 0.07665 0.14079 0.2725 0.0
H27 H 0.12965 0.16883 0.23344 0.0
H28 H 0.14526 0.19687 0.23025 0.0
C29 C 0.13804 0.18381 0.24329 0.0
H30 H 0.15304 0.17678 0.25403 0.0
H31 H 0.11183 0.11968 0.24016 0.0
O32 O 0.05028 0.21168 0.32174 0.0
C33 C 0.05506 0.14724 0.27581 0.0
Co34 Co 0.07429 0.82313 0.56365 0.0
Co35 Co 0.10931 0.8577 0.53611 0.0
C36 C 0.10694 0.85691 0.58982 0.0
O37 O 0.09136 0.84026 0.59093 0.0
O38 O 0.11511 0.86419 0.56997 0.0
C39 C 0.05089 0.78139 0.58323 0.0
O40 O 0.07297 0.77358 0.58457 0.0
C41 C 0.12739 0.90445 0.51969 0.0
C42 C 0.15261 0.89361 0.4914 0.0
C43 C 0.14317 0.91346 0.50279 0.0
N44 N 0.12743 0.88046 0.51818 0.0
N45 N 0.14272 0.87413 0.50136 0.0
C46 C 0.113 0.91822 0.5375 0.0
H47 H 0.09606 0.92419 0.52918 0.0
H48 H 0.12295 0.93423 0.5436 0.0
H49 H 0.1084 0.90677 0.55292 0.0
C50 C 0.04034 0.84648 0.53003 0.0
N51 N 0.06168 0.84587 0.54117 0.0
N52 N 0.07649 0.8601 0.52968 0.0
C53 C 0.06523 0.86984 0.51083 0.0
C54 C 0.04186 0.8617 0.51051 0.0
C55 C 0.01999 0.83031 0.53593 0.0
H56 H 0.01506 0.83298 0.55492 0.0
H57 H 1.00422 0.83396 0.52449 0.0
H58 H 0.02564 0.81147 0.53356 0.0
O59 O 0.09519 0.80065 0.54477 0.0
O60 O 0.119 0.82564 0.52525 0.0
H61 H 0.09426 0.87161 0.48589 0.0
H62 H 0.06669 0.88337 0.47434 0.0
C63 C 0.07797 0.88184 0.49054 0.0
H64 H 0.08331 0.90005 0.49603 0.0
H65 H 0.14619 0.85648 0.49647 0.0
O66 O 0.04731 0.80268 0.57602 0.0
C67 C 0.11162 0.80456 0.52949 0.0
Co68 Co 0.4379 0.82781 0.81031 0.0
Co69 Co 0.3994 0.86001 0.78544 0.0
C70 C 0.40257 0.85778 0.83865 0.0
O71 O 0.4202 0.84322 0.83867 0.0
O72 O 0.39395 0.8657 0.81929 0.0
C73 C 0.45551 0.78303 0.83174 0.0
O74 O 0.43299 0.77862 0.83656 0.0
C75 C 0.35185 0.87942 0.77441 0.0
C76 C 0.35818 0.89763 0.74002 0.0
C77 C 0.34057 0.89232 0.75654 0.0
N78 N 0.37499 0.87687 0.76851 0.0
N79 N 0.37871 0.88811 0.74809 0.0
C80 C 0.34134 0.87078 0.79738 0.0
H81 H 0.35001 0.88044 0.81233 0.0
H82 H 0.34518 0.85147 0.7996 0.0
H83 H 0.32186 0.87412 0.79841 0.0
C84 C 0.41923 0.79484 0.77278 0.0
N85 N 0.41635 0.81394 0.78729 0.0
N86 N 0.39849 0.82691 0.77913 0.0
C87 C 0.38864 0.81583 0.76024 0.0
C88 C 0.40178 0.79549 0.75504 0.0
C89 C 0.44122 0.77962 0.7726 0.0
H90 H 0.45707 0.7905 0.77732 0.0
H91 H 0.43921 0.76525 0.78608 0.0
H92 H 0.44418 0.77119 0.75492 0.0
O93 O 0.45834 0.85038 0.7917 0.0
O94 O 0.43065 0.87152 0.77285 0.0
H95 H 0.3763 0.84102 0.73426 0.0
H96 H 0.36126 0.81256 0.7332 0.0
C97 C 0.36909 0.82622 0.74525 0.0
H98 H 0.35481 0.83333 0.75694 0.0
H99 H 0.39517 0.88894 0.73944 0.0
O100 O 0.46087 0.80273 0.82178 0.0
C101 C 0.45248 0.86593 0.77616 0.0
Co102 Co 0.43224 0.19094 0.06119 0.0
Co103 Co 0.40028 0.15319 0.03478 0.0
C104 C 0.40206 0.15573 0.08848 0.0
O105 O 0.41657 0.17336 0.08918 0.0
O106 O 0.39449 0.1475 0.06878 0.0
C107 C 0.47454 0.21513 0.0847 0.0
O108 O 0.48196 0.19461 0.0933 0.0
C109 C 0.38448 0.1049 0.02099 0.0
C110 C 0.35813 0.11306 0.99282 0.0
C111 C 0.36843 0.09431 0.00528 0.0
N112 N 0.38361 0.1287 0.01789 0.0
N113 N 0.36775 0.13344 1.00109 0.0
C114 C 0.39992 0.09288 0.03916 0.0
H115 H 0.40569 0.10582 0.0529 0.0
H116 H 0.41623 0.08587 0.0304 0.0
H117 H 0.39027 0.07773 0.04753 0.0
C118 C 0.46756 0.17076 0.02645 0.0
N119 N 0.44692 0.16911 0.03884 0.0
N120 N 0.43328 0.15298 0.02841 0.0
C121 C 0.44468 0.14395 0.00928 0.0
C122 C 0.46682 0.15479 0.00742 0.0
C123 C 0.48587 0.18981 0.03032 0.0
H124 H 0.4771 0.20757 0.03048 0.0
H125 H 0.49452 0.18698 0.04788 0.0
H126 H 0.49989 0.18946 0.01632 0.0
O127 O 0.40979 0.21091 0.04178 0.0
O128 O 0.38843 0.18388 0.02224 0.0
H129 H 0.41577 0.13937 0.98464 0.0
H130 H 0.44364 0.12754 0.97395 0.0
C131 C 0.43235 0.12999 0.99002 0.0
H132 H 0.42752 0.11214 0.99696 0.0
H133 H 0.36346 0.15062 0.99526 0.0
O134 O 0.45552 0.21584 0.07231 0.0
C135 C 0.3943 0.20549 0.02605 0.0
Co136 Co 0.06885 0.82744 0.19842 0.0
Co137 Co 0.10653 0.85885 0.22566 0.0
C138 C 0.10422 0.85845 0.17203 0.0
O139 O 0.08673 0.84379 0.17092 0.0
O140 O 0.11236 0.86559 0.19192 0.0
C141 C 0.04643 0.78491 0.17441 0.0
O142 O 0.06759 0.77852 0.16658 0.0
C143 C 0.15443 0.87608 0.23824 0.0
C144 C 0.14741 0.89619 0.27144 0.0
C145 C 0.1655 0.88941 0.25596 0.0
N146 N 0.13097 0.8749 0.24316 0.0
N147 N 0.12685 0.88719 0.26288 0.0
C148 C 0.16541 0.8657 0.2162 0.0
H149 H 0.16021 0.84665 0.21449 0.0
H150 H 0.1851 0.8675 0.21599 0.0
H151 H 0.15819 0.8753 0.20046 0.0
C152 C 0.08881 0.79153 0.23288 0.0
N153 N 0.09043 0.81235 0.22075 0.0
N154 N 0.10698 0.8256 0.23099 0.0
C155 C 0.11668 0.81357 0.24939 0.0
C156 C 0.10542 0.79164 0.25139 0.0
C157 C 0.06937 0.77356 0.22929 0.0
H158 H 0.05183 0.78273 0.22848 0.0
H159 H 0.07234 0.7642 0.21212 0.0
H160 H 0.06913 0.76001 0.24375 0.0
O161 O 0.04875 0.84984 0.21773 0.0
O162 O 0.07561 0.8705 0.23821 0.0
H163 H 0.12271 0.84006 0.27624 0.0
H164 H 0.13782 0.81234 0.28206 0.0
C165 C 0.13238 0.82496 0.26784 0.0
H166 H 0.14871 0.83193 0.25914 0.0
H167 H 0.11004 0.88916 0.27069 0.0
O168 O 0.04436 0.80402 0.18654 0.0
C169 C 0.05398 0.86509 0.23377 0.0
Co170 Co 0.42949 0.81651 0.44742 0.0
Co171 Co 0.39431 0.85051 0.47521 0.0
C172 C 0.39857 0.85167 0.42131 0.0
O173 O 0.41401 0.83488 0.41996 0.0
O174 O 0.38993 0.85818 0.44126 0.0
C175 C 0.47239 0.79237 0.42371 0.0
O176 O 0.47926 0.81213 0.41311 0.0
C177 C 0.37802 0.89805 0.48992 0.0
C178 C 0.35486 0.89003 0.5208 0.0
C179 C 0.36424 0.90869 0.50754 0.0
N180 N 0.3772 0.87424 0.4929 0.0
N181 N 0.36306 0.86955 0.51121 0.0
C182 C 0.39081 0.90996 0.46974 0.0
H183 H 0.40984 0.90443 0.4697 0.0
H184 H 0.38933 0.92968 0.47054 0.0
H185 H 0.38274 0.90385 0.45276 0.0
C186 C 0.4636 0.83813 0.48234 0.0
N187 N 0.44233 0.83771 0.47098 0.0
N188 N 0.42734 0.8517 0.48257 0.0
C189 C 0.43859 0.86152 0.5014 0.0
C190 C 0.46196 0.85342 0.50182 0.0
C191 C 0.48399 0.82186 0.47664 0.0
H192 H 0.47787 0.80304 0.47745 0.0
H193 H 0.49025 0.82554 0.45823 0.0
H194 H 0.4991 0.82444 0.48919 0.0
O195 O 0.40734 0.79522 0.46515 0.0
O196 O 0.38211 0.8185 0.4849 0.0
H197 H 0.40978 0.86469 0.52637 0.0
H198 H 0.43747 0.87696 0.5371 0.0
C199 C 0.42606 0.87462 0.5211 0.0
H200 H 0.42072 0.8925 0.5146 0.0
H201 H 0.35943 0.85239 0.51749 0.0
O202 O 0.45386 0.79252 0.43681 0.0
C203 C 0.39013 0.79786 0.47973 0.0
Co204 Co 0.43605 0.1834 0.69497 0.0
Co205 Co 0.4021 0.1481 0.72244 0.0
C206 C 0.40358 0.15019 0.66843 0.0
O207 O 0.41983 0.16621 0.66721 0.0
O208 O 0.3964 0.14211 0.68838 0.0
C209 C 0.47321 0.21131 0.6687 0.0
O210 O 0.47593 0.19316 0.65409 0.0
C211 C 0.35491 0.13102 0.73738 0.0
C212 C 0.36393 0.10676 0.76714 0.0
C213 C 0.34486 0.11651 0.75477 0.0
N214 N 0.37878 0.13024 0.73972 0.0
N215 N 0.38407 0.11544 0.75732 0.0
C216 C 0.3423 0.14493 0.71835 0.0
H217 H 0.34408 0.1643 0.72205 0.0
H218 H 0.32313 0.14006 0.71727 0.0
H219 H 0.35089 0.14145 0.70087 0.0
C220 C 0.41072 0.21765 0.72717 0.0
N221 N 0.41256 0.19598 0.71676 0.0
N222 N 0.39899 0.18088 0.72864 0.0
C223 C 0.3888 0.19219 0.74724 0.0
C224 C 0.39577 0.21593 0.74688 0.0
C225 C 0.4256 0.2388 0.72069 0.0
H226 H 0.42666 0.2406 0.701 0.0
H227 H 0.4181 0.25541 0.72851 0.0
H228 H 0.44381 0.23614 0.72787 0.0
O229 O 0.4584 0.16268 0.7142 0.0
O230 O 0.43393 0.1388 0.73428 0.0
H231 H 0.38792 0.16329 0.77239 0.0
H232 H 0.37613 0.19084 0.78402 0.0
C233 C 0.37743 0.17945 0.76788 0.0
H234 H 0.35917 0.17392 0.7628 0.0
H235 H 0.40142 0.1117 0.76301 0.0
O236 O 0.45711 0.21051 0.68473 0.0
C237 C 0.45485 0.14646 0.72978 0.0
Co238 Co 0.07456 0.18778 0.94766 0.0
Co239 Co 0.11238 0.15622 0.97524 0.0
C240 C 0.1083 0.15578 0.92133 0.0
O241 O 0.09167 0.1714 0.91998 0.0
O242 O 0.11718 0.14956 0.94125 0.0
C243 C 0.0462 0.22498 0.92263 0.0
O244 O 0.0651 0.22907 0.90937 0.0
C245 C 0.12942 0.10915 0.99048 0.0
C246 C 0.15457 0.11803 0.01952 0.0
C247 C 0.14409 0.09896 0.0077 0.0
N248 N 0.13077 0.13306 0.99244 0.0
N249 N 0.1461 0.13825 0.00962 0.0
C250 C 0.11482 0.09662 0.97193 0.0
H251 H 0.09559 0.09849 0.97631 0.0
H252 H 0.11957 0.07743 0.97067 0.0
H253 H 0.11773 0.10514 0.95433 0.0
C254 C 0.0422 0.1617 0.98069 0.0
N255 N 0.06369 0.16459 0.97022 0.0
N256 N 0.07975 0.15273 0.98265 0.0
C257 C 0.06918 0.14263 1.0017 0.0
C258 C 0.04501 0.14784 1.00103 0.0
C259 C 0.01995 0.17438 0.97327 0.0
H260 H 0.01862 0.1748 0.95351 0.0
H261 H 1.00393 0.16554 0.98088 0.0
H262 H 0.02066 0.19292 0.98002 0.0
O263 O 0.09497 0.21078 0.96611 0.0
O264 O 0.12235 0.18885 0.98472 0.0
H265 H 0.09898 0.14329 0.02584 0.0
H266 H 0.07174 0.13263 0.03917 0.0
C267 C 0.08261 0.13266 0.02262 0.0
H268 H 0.08782 0.11401 0.01867 0.0
H269 H 0.1503 0.15559 0.01499 0.0
O270 O 0.04657 0.20792 0.93767 0.0
C271 C 0.11284 0.209 0.98012 0.0
Co272 Co 0.31374 0.07161 0.183 0.0
Co273 Co 0.28646 0.10729 0.14941 0.0
C274 C 0.34007 0.10649 0.15146 0.0
O275 O 0.34133 0.08922 0.1664 0.0
O276 O 0.32011 0.11402 0.14389 0.0
C277 C 0.33903 0.05073 0.22578 0.0
O278 O 0.34945 0.07138 0.22966 0.0
C279 C 0.27049 0.15487 0.13414 0.0
C280 C 0.24268 0.14594 0.10761 0.0
C281 C 0.25382 0.16494 0.11884 0.0
N282 N 0.26898 0.13098 0.13229 0.0
N283 N 0.2525 0.12577 0.11621 0.0
C284 C 0.2883 0.16754 0.14951 0.0
H285 H 0.28279 0.1663 0.1685 0.0
H286 H 0.28997 0.18661 0.14439 0.0
H287 H 0.30589 0.1587 0.14793 0.0
C288 C 0.27991 0.09377 0.21818 0.0
N289 N 0.29117 0.09369 0.19682 0.0
N290 N 0.27973 0.1083 0.18232 0.0
C291 C 0.26085 0.11778 0.19373 0.0
C292 C 0.26058 0.1093 0.21697 0.0
C293 C 0.28552 0.07707 0.23824 0.0
H294 H 0.28483 0.05838 0.23171 0.0
H295 H 0.30384 0.08071 0.24476 0.0
H296 H 0.2729 0.07925 0.25336 0.0
O297 O 0.29445 0.05026 0.16145 0.0
O298 O 0.2755 0.07597 0.13804 0.0
H299 H 0.23696 0.12079 0.16385 0.0
H300 H 0.2237 0.12923 0.19174 0.0
C301 C 0.24041 0.12974 0.18115 0.0
H302 H 0.24494 0.14867 0.17779 0.0
H303 H 0.24772 0.10843 0.11135 0.0
O304 O 0.32507 0.0485 0.20799 0.0
C305 C 0.27919 0.05472 0.14516 0.0
Co306 Co 0.1917 0.0606 0.42575 0.0
Co307 Co 0.15549 0.03419 0.39194 0.0
C308 C 0.15538 0.08777 0.39663 0.0
O309 O 0.17306 0.08871 0.41112 0.0
O310 O 0.14808 0.06799 0.3884 0.0
C311 C 0.21514 0.08356 0.46907 0.0
O312 O 0.19456 0.0923 0.47613 0.0
C313 C 0.10783 0.01897 0.37555 0.0
C314 C 0.11725 0.99479 0.34585 0.0
C315 C 0.09791 1.00441 0.35797 0.0
N316 N 0.13176 0.0179 0.3737 0.0
N317 N 0.13724 1.00365 0.35572 0.0
C318 C 0.09522 0.03258 0.39479 0.0
H319 H 0.10746 0.03615 0.40996 0.0
H320 H 0.0793 0.02263 0.40112 0.0
H321 H 0.08938 0.05008 0.38759 0.0
C322 C 0.17084 0.02486 0.46008 0.0
N323 N 0.1704 0.03685 0.43913 0.0
N324 N 0.15542 0.02587 0.4246 0.0
C325 C 0.14614 0.00667 0.43566 0.0
C326 C 0.15534 0.00551 0.45859 0.0
C327 C 0.18766 0.03018 0.48013 0.0
H328 H 0.20626 0.03039 0.47333 0.0
H329 H 0.1835 0.04807 0.48746 0.0
H330 H 0.1861 0.01691 0.49476 0.0
O331 O 0.2126 0.04296 0.40246 0.0
O332 O 0.1867 0.02408 0.37929 0.0
H333 H 0.14028 0.98444 0.40493 0.0
H334 H 0.1335 0.97008 0.43288 0.0
C335 C 0.13274 0.98723 0.42301 0.0
H336 H 0.11376 0.99248 0.42121 0.0
H337 H 0.15465 0.99974 0.35036 0.0
O338 O 0.21615 0.07132 0.44993 0.0
C339 C 0.20809 0.02825 0.38569 0.0
Co340 Co 0.19488 0.94297 0.6824 0.0
Co341 Co 0.22263 0.90555 0.65112 0.0
C342 C 0.16909 0.9066 0.6522 0.0
O343 O 0.16769 0.92445 0.66643 0.0
O344 O 0.1891 0.89868 0.64519 0.0
C345 C 0.17039 0.96528 0.72447 0.0
O346 O 0.16264 0.94405 0.73075 0.0
C347 C 0.23745 0.85738 0.63688 0.0
C348 C 0.26752 0.86486 0.61246 0.0
C349 C 0.25459 0.84647 0.62274 0.0
N350 N 0.24031 0.88115 0.63523 0.0
N351 N 0.25815 0.88551 0.62041 0.0
C352 C 0.21777 0.84573 0.65067 0.0
H353 H 0.21515 0.85505 0.66797 0.0
H354 H 0.22119 0.82646 0.65361 0.0
H355 H 0.20101 0.84748 0.6403 0.0
C356 C 0.22867 0.92252 0.71913 0.0
N357 N 0.21756 0.92181 0.69768 0.0
N358 N 0.22847 0.90583 0.68424 0.0
C359 C 0.24649 0.89588 0.69657 0.0
C360 C 0.24706 0.90582 0.71922 0.0
C361 C 0.22386 0.94079 0.73803 0.0
H362 H 0.22272 0.95879 0.72984 0.0
H363 H 0.20655 0.93671 0.74665 0.0
H364 H 0.23787 0.94075 0.75204 0.0
O365 O 0.21362 0.96318 0.65965 0.0
O366 O 0.23396 0.93645 0.63866 0.0
H367 H 0.2715 0.88949 0.66828 0.0
H368 H 0.28179 0.87931 0.69679 0.0
C369 C 0.26581 0.88114 0.68528 0.0
H370 H 0.25878 0.86307 0.6815 0.0
H371 H 0.26415 0.90259 0.61599 0.0
O372 O 0.18272 0.96751 0.70553 0.0
C373 C 0.22929 0.95804 0.644 0.0
Co374 Co 0.31908 0.94651 0.93322 0.0
Co375 Co 0.35485 0.97399 0.89933 0.0
C376 C 0.35425 0.92012 0.90192 0.0
O377 O 0.33711 0.91891 0.91704 0.0
O378 O 0.36159 0.94008 0.89408 0.0
C379 C 0.29635 0.92326 0.97657 0.0
O380 O 0.31714 0.91448 0.98296 0.0
C381 C 0.40274 0.98901 0.88323 0.0
C382 C 0.39413 0.01916 0.85933 0.0
C383 C 0.41306 0.00646 0.86894 0.0
N384 N 0.37886 0.99164 0.88245 0.0
N385 N 0.37386 0.00953 0.8679 0.0
C386 C 0.41508 0.96943 0.89654 0.0
H387 H 0.40586 0.95236 0.89299 0.0
H388 H 0.41392 0.9729 0.91602 0.0
H389 H 0.43406 0.96773 0.89113 0.0
C390 C 0.34077 0.98104 0.96815 0.0
N391 N 0.34077 0.96954 0.94691 0.0
N392 N 0.35558 0.98074 0.9324 0.0
C393 C 0.36534 0.99948 0.94382 0.0
C394 C 0.35646 1.00024 0.96689 0.0
C395 C 0.32393 0.97575 0.98819 0.0
H396 H 0.30534 0.9754 0.98138 0.0
H397 H 0.32822 0.95796 0.99567 0.0
H398 H 0.3254 0.9891 1.00276 0.0
O399 O 0.29833 0.96509 0.91085 0.0
O400 O 0.32332 0.9846 0.88722 0.0
H401 H 0.3691 0.0242 0.91484 0.0
H402 H 0.38062 0.03528 0.94262 0.0
C403 C 0.37866 0.01912 0.93139 0.0
H404 H 0.39674 0.01271 0.92658 0.0
H405 H 0.35659 0.01542 0.86411 0.0
O406 O 0.29473 0.93541 0.95743 0.0
C407 C 0.30214 0.98003 0.89412 0.0
Co408 Co 0.31368 0.93715 0.32457 0.0
Co409 Co 0.28584 0.90314 0.35987 0.0
C410 C 0.33952 0.9038 0.35799 0.0
O411 O 0.34088 0.91995 0.34188 0.0
O412 O 0.31956 0.89697 0.36624 0.0
C413 C 0.33353 0.97868 0.3011 0.0
O414 O 0.33521 0.98633 0.32323 0.0
C415 C 0.27208 0.85659 0.37949 0.0
C416 C 0.23885 0.86512 0.39892 0.0
C417 C 0.25366 0.84636 0.39252 0.0
N418 N 0.26802 0.8802 0.3778 0.0
N419 N 0.24834 0.88524 0.38981 0.0
C420 C 0.29376 0.84455 0.36959 0.0
H421 H 0.30982 0.85268 0.3778 0.0
H422 H 0.29474 0.84766 0.35004 0.0
H423 H 0.29396 0.82515 0.37351 0.0
C424 C 0.27978 0.91369 0.29081 0.0
N425 N 0.29108 0.91444 0.31208 0.0
N426 N 0.27996 0.89997 0.32693 0.0
C427 C 0.26147 0.88959 0.31563 0.0
C428 C 0.26063 0.89797 0.29234 0.0
C429 C 0.28517 0.93011 0.27051 0.0
H430 H 0.30402 0.92749 0.26509 0.0
H431 H 0.27337 0.92664 0.25496 0.0
H432 H 0.28296 0.94888 0.27646 0.0
O433 O 0.29487 0.95986 0.3452 0.0
O434 O 0.27449 0.93534 0.36882 0.0
H435 H 0.23485 0.88734 0.34294 0.0
H436 H 0.22716 0.87124 0.31623 0.0
C437 C 0.24205 0.87619 0.32826 0.0
H438 H 0.24955 0.85962 0.33598 0.0
H439 H 0.24102 0.90233 0.39121 0.0
O440 O 0.32607 0.95747 0.29749 0.0
C441 C 0.27916 0.95629 0.3613 0.0
Co442 Co 0.31859 0.05962 0.57722 0.0
Co443 Co 0.35353 0.03396 0.61302 0.0
C444 C 0.3539 0.08723 0.60708 0.0
O445 O 0.33675 0.08784 0.59197 0.0
O446 O 0.36095 0.06771 0.61607 0.0
C447 C 0.298 0.08176 0.53246 0.0
O448 O 0.31936 0.08927 0.52638 0.0
C449 C 0.40047 0.01838 0.63097 0.0
C450 C 0.39 0.99523 0.66113 0.0
C451 C 0.40973 1.00406 0.64906 0.0
N452 N 0.3765 0.01796 0.63246 0.0
N453 N 0.3704 1.00436 0.65073 0.0
C454 C 0.41376 0.03099 0.61153 0.0
H455 H 0.40182 0.03472 0.59617 0.0
H456 H 0.42933 0.02025 0.60559 0.0
H457 H 0.4203 0.04835 0.61841 0.0
C458 C 0.34013 0.02244 0.5448 0.0
N459 N 0.34013 0.03528 0.56526 0.0
N460 N 0.35452 0.02469 0.58066 0.0
C461 C 0.36377 0.00488 0.57071 0.0
C462 C 0.35534 1.00296 0.54752 0.0
C463 C 0.32393 0.02715 0.52409 0.0
H464 H 0.32876 0.04451 0.51596 0.0
H465 H 0.32544 0.01314 0.51018 0.0
H466 H 0.30519 0.02825 0.53042 0.0
O467 O 0.29682 0.04274 0.60017 0.0
O468 O 0.32191 0.0245 0.62479 0.0
H469 H 0.37459 0.96792 0.5758 0.0
H470 H 0.39512 0.98999 0.58673 0.0
C471 C 0.37595 0.98554 0.58472 0.0
H472 H 0.36782 0.98401 0.60268 0.0
H473 H 0.35281 1.00098 0.65586 0.0
O474 O 0.29525 0.07036 0.55192 0.0
C475 C 0.30079 0.02856 0.61752 0.0
Co476 Co 0.19771 0.06959 0.83057 0.0
Co477 Co 0.22515 0.10297 0.86652 0.0
C478 C 0.17149 0.10434 0.86172 0.0
O479 O 0.17026 0.0877 0.84614 0.0
O480 O 0.19132 0.11072 0.8706 0.0
C481 C 0.17311 0.04829 0.78711 0.0
O482 O 0.16485 0.06926 0.78063 0.0
C483 C 0.241 0.15004 0.88394 0.0
C484 C 0.26519 0.13996 0.91339 0.0
C485 C 0.2557 0.15957 0.9016 0.0
N486 N 0.24178 0.12607 0.88544 0.0
N487 N 0.25605 0.12019 0.90328 0.0
C488 C 0.22765 0.16315 0.86487 0.0
H489 H 0.22357 0.15115 0.84965 0.0
H490 H 0.23802 0.17882 0.85859 0.0
H491 H 0.21047 0.16951 0.8723 0.0
C492 C 0.23335 0.09153 0.79725 0.0
N493 N 0.22162 0.09099 0.81832 0.0
N494 N 0.2332 0.10459 0.83371 0.0
C495 C 0.25255 0.11399 0.82304 0.0
C496 C 0.2531 0.10638 0.79949 0.0
C497 C 0.2274 0.076 0.77635 0.0
H498 H 0.22719 0.05703 0.78204 0.0
H499 H 0.20934 0.08067 0.76978 0.0
H500 H 0.24031 0.07834 0.76151 0.0
O501 O 0.21536 0.04756 0.85228 0.0
O502 O 0.23498 0.07081 0.87766 0.0
H503 H 0.28975 0.1244 0.82653 0.0
H504 H 0.26841 0.14499 0.83875 0.0
C505 C 0.2726 0.1258 0.83631 0.0
H506 H 0.27483 0.11747 0.85412 0.0
H507 H 0.2598 0.10267 0.90835 0.0
O508 O 0.18594 0.0465 0.80578 0.0
C509 C 0.22991 0.05021 0.86953 0.0
Co510 Co 0.19028 0.9504 0.08271 0.0
Co511 Co 0.15463 0.97649 0.11747 0.0
C512 C 0.15448 0.92314 0.11265 0.0
O513 O 0.172 0.9223 0.09795 0.0
O514 O 0.14716 0.94286 0.12096 0.0
C515 C 0.21272 0.92707 0.03893 0.0
O516 O 0.19179 0.91924 0.03181 0.0
C517 C 0.10735 0.99203 0.13472 0.0
C518 C 0.11741 0.01562 0.1647 0.0
C519 C 0.09781 0.00642 0.15266 0.0
N520 N 0.13131 0.99277 0.13631 0.0
N521 N 0.13717 0.00666 0.15444 0.0
C522 C 0.09434 0.97895 0.11539 0.0
H523 H 0.1063 0.97566 0.09994 0.0
H524 H 0.07837 0.98914 0.10954 0.0
H525 H 0.08852 0.96132 0.12228 0.0
C526 C 0.1689 0.98664 0.04915 0.0
N527 N 0.1687 0.97426 0.06989 0.0
N528 N 0.15413 0.98516 0.08489 0.0
C529 C 0.14496 0.00473 0.07441 0.0
C530 C 0.15362 0.00615 0.05126 0.0
C531 C 0.18532 0.98143 0.02874 0.0
H532 H 0.18094 0.96364 0.02132 0.0
H533 H 0.1836 0.99485 0.01427 0.0
H534 H 0.20403 0.98099 0.03523 0.0
O535 O 0.21162 0.96851 0.10525 0.0
O536 O 0.18601 0.98623 0.12966 0.0
H537 H 0.13388 0.04172 0.07856 0.0
H538 H 0.11339 0.01976 0.08984 0.0
C539 C 0.13254 0.0243 0.08787 0.0
H540 H 0.1405 0.02626 0.10588 0.0
H541 H 0.15468 0.01026 0.15966 0.0
O542 O 0.21424 0.93914 0.05815 0.0
C543 C 0.20723 0.9829 0.12232 0.0
Co544 Co 0.17981 0.31199 0.06915 0.0
Co545 Co 0.14245 0.28542 0.1017 0.0
C546 C 0.14909 0.33898 0.10365 0.0
O547 O 0.16493 0.34003 0.08722 0.0
O548 O 0.13957 0.31932 0.1096 0.0
C549 C 0.22392 0.33491 0.04685 0.0
O550 O 0.22954 0.34563 0.06695 0.0
C551 C 0.12626 0.27011 0.14913 0.0
C552 C 0.09543 0.2472 0.14036 0.0
C553 C 0.10859 0.25599 0.15944 0.0
N554 N 0.12351 0.26962 0.12526 0.0
N555 N 0.10484 0.25616 0.12015 0.0
C556 C 0.14649 0.2826 0.16133 0.0
H557 H 0.16114 0.28641 0.14859 0.0
H558 H 0.15332 0.27179 0.17647 0.0
H559 H 0.14006 0.29995 0.1683 0.0
C560 C 0.21208 0.27626 0.09238 0.0
N561 N 0.19104 0.2879 0.09074 0.0
N562 N 0.17497 0.27622 0.1034 0.0
C563 C 0.18514 0.25677 0.11314 0.0
C564 C 0.20907 0.25636 0.1069 0.0
C565 C 0.23391 0.28266 0.07841 0.0
H566 H 0.22994 0.2814 0.05904 0.0
H567 H 0.23896 0.30134 0.08248 0.0
H568 H 0.24915 0.27078 0.08281 0.0
O569 O 0.15758 0.29479 0.04722 0.0
O570 O 0.13047 0.27643 0.06952 0.0
H571 H 0.15332 0.23542 0.11612 0.0
H572 H 0.18056 0.21928 0.12164 0.0
C573 C 0.17135 0.23663 0.12417 0.0
H574 H 0.16952 0.23982 0.14363 0.0
H575 H 0.09879 0.25275 0.10287 0.0
O576 O 0.20532 0.32192 0.04588 0.0
C577 C 0.13957 0.28106 0.0492 0.0
Co578 Co 0.68431 0.19539 0.93711 0.0
Co579 Co 0.65166 0.22279 0.90064 0.0
C580 C 0.65237 0.16948 0.9017 0.0
O581 O 0.66747 0.16815 0.91884 0.0
O582 O 0.64498 0.18947 0.89414 0.0
C583 C 0.70674 0.1754 0.97934 0.0
O584 O 0.68455 0.17386 0.98676 0.0
C585 C 0.63356 0.23618 0.85361 0.0
C586 C 0.61348 0.26925 0.86121 0.0
C587 C 0.62033 0.2541 0.84289 0.0
N588 N 0.63475 0.24066 0.87715 0.0
N589 N 0.62241 0.26026 0.88166 0.0
C590 C 0.64426 0.21464 0.84199 0.0
H591 H 0.66214 0.21094 0.84971 0.0
H592 H 0.64547 0.21662 0.82233 0.0
H593 H 0.63267 0.19907 0.84587 0.0
C594 C 0.71789 0.23215 0.91864 0.0
N595 N 0.69808 0.21866 0.91588 0.0
N596 N 0.68477 0.22829 0.89904 0.0
C597 C 0.69617 0.24729 0.88983 0.0
C598 C 0.71722 0.25092 0.90235 0.0
C599 C 0.73425 0.23002 0.93966 0.0
H600 H 0.72357 0.22904 0.95633 0.0
H601 H 0.74457 0.2132 0.93802 0.0
H602 H 0.74687 0.24523 0.94083 0.0
O603 O 0.66267 0.21383 0.95885 0.0
O604 O 0.64119 0.23428 0.93251 0.0
H605 H 0.67046 0.27396 0.88036 0.0
H606 H 0.6988 0.27705 0.86526 0.0
C607 C 0.68543 0.26407 0.872 0.0
H608 H 0.67853 0.25375 0.85665 0.0
H609 H 0.62053 0.2678 0.89861 0.0
O610 O 0.71067 0.18282 0.95818 0.0
C611 C 0.64714 0.22976 0.95403 0.0
Co612 Co 0.06222 0.43056 0.19249 0.0
Co613 Co 0.03507 0.39973 0.15428 0.0
C614 C 0.08854 0.40031 0.15626 0.0
O615 O 0.08973 0.41451 0.17416 0.0
O616 O 0.06862 0.39341 0.14806 0.0
C617 C 0.08613 0.47294 0.21533 0.0
O618 O 0.09378 0.47963 0.19419 0.0
C619 C 0.02008 0.38477 0.106 0.0
C620 C 0.99112 0.3594 0.1145 0.0
C621 C 1.00349 0.36956 0.09565 0.0
N622 N 0.01753 0.38369 0.12988 0.0
N623 N 1.0003 0.36835 0.13481 0.0
C624 C 0.03855 0.3995 0.09351 0.0
H625 H 0.05265 0.40522 0.10615 0.0
H626 H 0.03015 0.41575 0.08596 0.0
H627 H 0.0465 0.38922 0.07853 0.0
C628 C 0.02779 0.46682 0.17299 0.0
N629 N 0.03984 0.44597 0.17111 0.0
N630 N 0.02938 0.43286 0.15454 0.0
C631 C 0.0108 0.44491 0.14528 0.0
C632 C 0.00922 0.46689 0.15649 0.0
C633 C 0.03121 0.48442 0.19281 0.0
H634 H 0.03246 0.47489 0.21013 0.0
H635 H 0.0481 0.49427 0.18983 0.0
H636 H 0.01642 0.49758 0.19356 0.0
O637 O 0.04268 0.40814 0.21245 0.0
O638 O 0.02296 0.38754 0.18498 0.0
H639 H 0.98532 0.41695 0.13951 0.0
H640 H 0.976 0.44535 0.12777 0.0
C641 C 0.99157 0.43346 0.13056 0.0
H642 H 0.99885 0.42869 0.11283 0.0
H643 H 0.99469 0.36408 0.15206 0.0
O644 O 0.07416 0.45372 0.21723 0.0
C645 C 0.02683 0.39289 0.20672 0.0
Co646 Co 0.82945 0.80963 0.43929 0.0
Co647 Co 0.86578 0.78297 0.40552 0.0
C648 C 0.86093 0.8365 0.40496 0.0
O649 O 0.84546 0.83744 0.42174 0.0
O650 O 0.86974 0.81679 0.39815 0.0
C651 C 0.80547 0.82894 0.48083 0.0
O652 O 0.82755 0.83131 0.48839 0.0
C653 C 0.88379 0.7668 0.35888 0.0
C654 C 0.91414 0.74405 0.36948 0.0
C655 C 0.90192 0.75242 0.34959 0.0
N656 N 0.88527 0.76652 0.38286 0.0
N657 N 0.90361 0.75309 0.38906 0.0
C658 C 0.8647 0.78 0.34564 0.0
H659 H 0.85031 0.78577 0.35796 0.0
H660 H 0.8571 0.76864 0.33129 0.0
H661 H 0.87253 0.7962 0.33741 0.0
C662 C 0.79661 0.77494 0.4155 0.0
N663 N 0.81784 0.78624 0.41684 0.0
N664 N 0.83328 0.77477 0.40326 0.0
C665 C 0.82257 0.7557 0.39333 0.0
C666 C 0.79885 0.75537 0.40041 0.0
C667 C 0.77537 0.78128 0.43032 0.0
H668 H 0.77152 0.80058 0.42818 0.0
H669 H 0.75942 0.77077 0.42504 0.0
H670 H 0.77947 0.77787 0.44941 0.0
O671 O 0.85093 0.79175 0.4621 0.0
O672 O 0.87605 0.77314 0.4377 0.0
H673 H 0.82618 0.71837 0.38347 0.0
H674 H 0.83784 0.73942 0.36231 0.0
C675 C 0.83582 0.73557 0.38162 0.0
H676 H 0.85377 0.73356 0.38968 0.0
H677 H 0.90885 0.74997 0.40667 0.0
O678 O 0.80201 0.82117 0.45969 0.0
C679 C 0.86811 0.77721 0.45862 0.0
Co680 Co 0.94766 0.08122 0.19263 0.0
Co681 Co 0.97384 0.11052 0.15323 0.0
C682 C 0.92078 0.11024 0.15523 0.0
O683 O 0.91999 0.09651 0.17352 0.0
O684 O 0.94055 0.11714 0.14671 0.0
C685 C 0.92686 0.03723 0.21328 0.0
O686 O 0.92454 0.02963 0.19121 0.0
C687 C 0.98727 0.12616 0.1052 0.0
C688 C 0.01959 0.1476 0.1124 0.0
C689 C 0.00478 0.13973 0.09423 0.0
N690 N 0.99161 0.12592 0.1288 0.0
N691 N 0.01081 0.13896 0.13302 0.0
C692 C 0.96601 0.11466 0.09382 0.0
H693 H 0.95941 0.09973 0.10506 0.0
H694 H 0.97014 0.10808 0.07563 0.0
H695 H 0.95163 0.12818 0.09221 0.0
C696 C 0.98463 0.04604 0.17579 0.0
N697 N 0.97062 0.06541 0.17215 0.0
N698 N 0.97905 0.07726 0.15364 0.0
C699 C 0.99744 0.06514 0.1441 0.0
C700 C 1.0021 0.04529 0.15809 0.0
C701 C 0.98481 0.03186 0.19846 0.0
H702 H 0.97931 0.04321 0.21372 0.0
H703 H 0.97204 0.01683 0.19675 0.0
H704 H 1.00274 0.02424 0.2021 0.0
O705 O 0.96662 0.10415 0.21246 0.0
O706 O 0.98642 0.12304 0.18391 0.0
H707 H 0.02347 0.0898 0.1308 0.0
H708 H 0.02538 0.06037 0.1178 0.0
C709 C 0.01293 0.07434 0.12433 0.0
H710 H 1.00162 0.08011 0.1092 0.0
H711 H 0.01805 0.14182 0.14995 0.0
O712 O 0.93499 0.05813 0.21692 0.0
C713 C 0.98274 0.11878 0.20595 0.0
Co714 Co 0.32384 0.69807 0.57371 0.0
Co715 Co 0.36312 0.72462 0.60398 0.0
C716 C 0.35709 0.67124 0.60632 0.0
O717 O 0.34033 0.67024 0.59082 0.0
O718 O 0.36676 0.6909 0.61197 0.0
C719 C 0.29827 0.67716 0.53438 0.0
O720 O 0.3201 0.67221 0.52736 0.0
C721 C 0.38192 0.74031 0.65011 0.0
C722 C 0.4109 0.76487 0.63964 0.0
C723 C 0.39932 0.7554 0.65941 0.0
N724 N 0.38327 0.74092 0.62613 0.0
N725 N 0.40089 0.75533 0.61998 0.0
C726 C 0.36299 0.72694 0.66342 0.0
H727 H 0.34774 0.72266 0.65156 0.0
H728 H 0.35668 0.73738 0.67905 0.0
H729 H 0.37051 0.7098 0.66985 0.0
C730 C 0.29321 0.73371 0.59855 0.0
N731 N 0.31414 0.72206 0.59597 0.0
N732 N 0.33083 0.73384 0.60765 0.0
C733 C 0.32118 0.75343 0.61768 0.0
C734 C 0.29694 0.75384 0.6126 0.0
C735 C 0.27083 0.72725 0.58551 0.0
H736 H 0.27303 0.73158 0.56629 0.0
H737 H 0.26761 0.70777 0.58707 0.0
H738 H 0.25523 0.73716 0.59267 0.0
O739 O 0.34431 0.71521 0.54981 0.0
O740 O 0.37301 0.73273 0.57093 0.0
H741 H 0.35292 0.77505 0.61826 0.0
H742 H 0.32612 0.79097 0.62598 0.0
C743 C 0.3356 0.77366 0.6277 0.0
H744 H 0.33901 0.77038 0.64692 0.0
H745 H 0.40565 0.75913 0.60237 0.0
O746 O 0.29538 0.68716 0.55462 0.0
C747 C 0.36285 0.72836 0.55104 0.0
Co748 Co 0.06221 0.57937 0.32053 0.0
Co749 Co 0.035 0.60862 0.35957 0.0
C750 C 0.08801 0.61006 0.35746 0.0
O751 O 0.08924 0.59588 0.33953 0.0
O752 O 0.06805 0.61663 0.36583 0.0
C753 C 0.08284 0.53508 0.29907 0.0
O754 O 0.08333 0.52593 0.32067 0.0
C755 C 0.02126 0.62739 0.40667 0.0
C756 C 0.98596 0.6432 0.3989 0.0
C757 C 1.00233 0.63953 0.41707 0.0
N758 N 0.01619 0.62395 0.38344 0.0
N759 N 0.99518 0.63366 0.37888 0.0
C760 C 0.04451 0.62055 0.4179 0.0
H761 H 0.04943 0.60214 0.41246 0.0
H762 H 0.0441 0.62202 0.43762 0.0
H763 H 0.05854 0.63277 0.41115 0.0
C764 C 0.02538 0.54419 0.33754 0.0
N765 N 0.0395 0.56346 0.34119 0.0
N766 N 0.03132 0.57517 0.35991 0.0
C767 C 0.01325 0.56285 0.36975 0.0
C768 C 0.00826 0.54321 0.35557 0.0
C769 C 0.02456 0.53053 0.31456 0.0
H770 H 0.03103 0.54176 0.29959 0.0
H771 H 0.03618 0.51458 0.3161 0.0
H772 H 0.00618 0.52428 0.31056 0.0
O773 O 0.0429 0.60149 0.30035 0.0
O774 O 0.02196 0.61977 0.32851 0.0
H775 H 0.98589 0.58573 0.38355 0.0
H776 H 0.98755 0.55701 0.3979 0.0
C777 C 0.99827 0.57172 0.39005 0.0
H778 H 0.00988 0.57938 0.40411 0.0
H779 H 0.98701 0.63358 0.36212 0.0
O780 O 0.07566 0.55646 0.29628 0.0
C781 C 0.02609 0.61545 0.30657 0.0
Co782 Co 0.44804 0.42966 0.81768 0.0
Co783 Co 0.47623 0.39366 0.85046 0.0
C784 C 0.4226 0.39827 0.85322 0.0
O785 O 0.42096 0.4138 0.83652 0.0
O786 O 0.44263 0.38954 0.85921 0.0
C787 C 0.42431 0.47395 0.79661 0.0
O788 O 0.41695 0.481 0.81774 0.0
C789 C 0.49439 0.37609 0.89677 0.0
C790 C 0.51657 0.34565 0.88531 0.0
C791 C 0.50915 0.35793 0.90554 0.0
N792 N 0.49365 0.37454 0.87278 0.0
N793 N 0.50677 0.35613 0.86609 0.0
C794 C 0.48155 0.39514 0.91042 0.0
H795 H 0.47488 0.40923 0.89819 0.0
H796 H 0.49352 0.40319 0.924 0.0
H797 H 0.46595 0.38716 0.91962 0.0
C798 C 0.48448 0.46287 0.83861 0.0
N799 N 0.47261 0.44186 0.83848 0.0
N800 N 0.48444 0.4265 0.85191 0.0
C801 C 0.504 0.4372 0.86089 0.0
C802 C 0.50449 0.46066 0.85311 0.0
C803 C 0.47883 0.48347 0.82259 0.0
H804 H 0.47722 0.47712 0.80389 0.0
H805 H 0.46151 0.49132 0.82804 0.0
H806 H 0.49271 0.49756 0.82359 0.0
O807 O 0.465 0.4079 0.79515 0.0
O808 O 0.48482 0.38229 0.81794 0.0
H809 H 0.54135 0.434 0.87087 0.0
H810 H 0.52039 0.42179 0.89174 0.0
C811 C 0.52428 0.42409 0.87248 0.0
H812 H 0.52649 0.40625 0.86422 0.0
H813 H 0.50908 0.35079 0.84842 0.0
O814 O 0.43612 0.45464 0.7947 0.0
C815 C 0.47928 0.39039 0.79745 0.0
Co816 Co 0.56989 0.68537 0.81327 0.0
Co817 Co 0.60484 0.65147 0.78539 0.0
C818 C 0.60489 0.6533 0.839 0.0
O819 O 0.58786 0.6685 0.84045 0.0
O820 O 0.6121 0.64563 0.81895 0.0
C821 C 0.52738 0.70727 0.83205 0.0
O822 O 0.52044 0.6849 0.83309 0.0
C823 C 0.6516 0.63406 0.77024 0.0
C824 C 0.64243 0.61035 0.74006 0.0
C825 C 0.66152 0.61925 0.75305 0.0
N826 N 0.62779 0.63404 0.7674 0.0
N827 N 0.62238 0.61965 0.74951 0.0
C828 C 0.6641 0.64714 0.78991 0.0
H829 H 0.65953 0.63847 0.8071 0.0
H830 H 0.65756 0.66582 0.79077 0.0
H831 H 0.68377 0.64681 0.78786 0.0
C832 C 0.59113 0.71985 0.77858 0.0
N833 N 0.5916 0.69871 0.79017 0.0
N834 N 0.60647 0.68436 0.77892 0.0
C835 C 0.61595 0.69583 0.76005 0.0
C836 C 0.60661 0.71874 0.75917 0.0
C837 C 0.57368 0.73934 0.78388 0.0
H838 H 0.57528 0.74457 0.80293 0.0
H839 H 0.57682 0.7552 0.77241 0.0
H840 H 0.55527 0.73263 0.78094 0.0
O841 O 0.54772 0.66391 0.79492 0.0
O842 O 0.57297 0.6408 0.77495 0.0
H843 H 0.61942 0.66745 0.73462 0.0
H844 H 0.63233 0.69513 0.72472 0.0
C845 C 0.62943 0.6835 0.74046 0.0
H846 H 0.64708 0.67777 0.74729 0.0
H847 H 0.60502 0.61644 0.74351 0.0
O848 O 0.54872 0.71171 0.82552 0.0
C849 C 0.55178 0.6476 0.77957 0.0
Co850 Co 0.58185 0.31752 0.05788 0.0
Co851 Co 0.61456 0.35409 0.0311 0.0
C852 C 0.61117 0.3544 0.08438 0.0
O853 O 0.59669 0.33675 0.0854 0.0
O854 O 0.61922 0.36174 0.06456 0.0
C855 C 0.5372 0.29816 0.07959 0.0
O856 O 0.53006 0.32029 0.08268 0.0
C857 C 0.63275 0.40105 0.01601 0.0
C858 C 0.65927 0.3906 0.98876 0.0
C859 C 0.64949 0.41035 1.0001 0.0
N860 N 0.63277 0.37712 0.01392 0.0
N861 N 0.64891 0.37099 0.99788 0.0
C862 C 0.61577 0.41432 0.03182 0.0
H863 H 0.60042 0.40279 0.03675 0.0
H864 H 0.60928 0.43077 0.02288 0.0
H865 H 0.62507 0.41937 0.04856 0.0
C866 C 0.54845 0.33511 0.01969 0.0
N867 N 0.56808 0.33794 0.03349 0.0
N868 N 0.5817 0.35448 0.02367 0.0
C869 C 0.5709 0.36314 1.00404 0.0
C870 C 0.54956 0.35107 1.00069 0.0
C871 C 0.53177 0.31431 0.02158 0.0
H872 H 0.5418 0.29798 0.02654 0.0
H873 H 0.51839 0.31803 0.03568 0.0
H874 H 0.52208 0.31115 1.00458 0.0
O875 O 0.60479 0.29611 0.04075 0.0
O876 O 0.62637 0.32248 0.02064 0.0
H877 H 0.59929 0.3703 0.97939 0.0
H878 H 0.571 0.38333 0.97088 0.0
C879 C 0.58287 0.37907 0.98616 0.0
H880 H 0.58795 0.39606 0.99483 0.0
H881 H 0.65263 0.35343 0.9929 0.0
O882 O 0.55765 0.29425 0.07051 0.0
C883 C 0.62073 0.30097 0.02529 0.0
Co884 Co 0.93833 0.32742 0.31076 0.0
Co885 Co 0.90167 0.36131 0.28506 0.0
C886 C 0.90462 0.35866 0.33869 0.0
O887 O 0.92175 0.34351 0.33927 0.0
O888 O 0.89653 0.36649 0.31906 0.0
C889 C 0.96051 0.28613 0.33704 0.0
O890 O 0.94186 0.28571 0.35125 0.0
C891 C 0.85314 0.37619 0.27207 0.0
C892 C 0.86007 0.40346 0.24446 0.0
C893 C 0.8418 0.39189 0.25653 0.0
N894 N 0.87687 0.37834 0.26911 0.0
N895 N 0.88089 0.39483 0.25274 0.0
C896 C 0.84185 0.35984 0.28995 0.0
H897 H 0.85433 0.3561 0.30481 0.0
H898 H 0.83757 0.34256 0.28128 0.0
H899 H 0.82509 0.36771 0.29702 0.0
C900 C 0.91502 0.2927 0.27749 0.0
N901 N 0.91543 0.31395 0.28889 0.0
N902 N 0.90053 0.32854 0.27798 0.0
C903 C 0.89063 0.31734 0.25918 0.0
C904 C 0.89916 0.2941 0.25841 0.0
C905 C 0.93164 0.2725 0.28286 0.0
H906 H 0.95031 0.27831 0.27967 0.0
H907 H 0.9299 0.26751 0.30193 0.0
H908 H 0.92769 0.25663 0.27166 0.0
O909 O 0.95884 0.34965 0.29119 0.0
O910 O 0.93252 0.37311 0.27317 0.0
H911 H 0.88684 0.34765 0.23599 0.0
H912 H 0.87827 0.32001 0.22235 0.0
C913 C 0.87808 0.33024 0.23929 0.0
H914 H 0.85925 0.33345 0.24441 0.0
H915 H 0.89785 0.40005 0.24706 0.0
O916 O 0.96155 0.30185 0.32066 0.0
C917 C 0.95394 0.36621 0.27632 0.0
Co918 Co 0.93169 0.68991 0.56449 0.0
Co919 Co 0.89847 0.65346 0.53754 0.0
C920 C 0.90084 0.65466 0.59113 0.0
O921 O 0.91571 0.67199 0.59205 0.0
O922 O 0.89288 0.6469 0.57137 0.0
C923 C 0.97502 0.70999 0.58893 0.0
O924 O 0.97927 0.68881 0.59808 0.0
C925 C 0.87985 0.6064 0.52276 0.0
C926 C 0.85868 0.61601 0.49089 0.0
C927 C 0.86575 0.59678 0.50475 0.0
N928 N 0.88119 0.63016 0.51949 0.0
N929 N 0.86825 0.6358 0.50057 0.0
C930 C 0.89102 0.59368 0.54342 0.0
H931 H 0.91054 0.59702 0.54355 0.0
H932 H 0.88742 0.57422 0.54306 0.0
H933 H 0.88362 0.60112 0.56021 0.0
C934 C 0.96658 0.66842 0.53002 0.0
N935 N 0.9455 0.66803 0.54174 0.0
N936 N 0.93149 0.65224 0.5313 0.0
C937 C 0.94321 0.64194 0.51304 0.0
C938 C 0.96584 0.65181 0.51158 0.0
C939 C 0.98567 0.68667 0.53401 0.0
H940 H 0.97766 0.70478 0.53437 0.0
H941 H 0.99427 0.68328 0.5515 0.0
H942 H 0.99962 0.68588 0.51996 0.0
O943 O 0.90949 0.71123 0.54613 0.0
O944 O 0.88736 0.68505 0.52633 0.0
H945 H 0.91592 0.63683 0.48676 0.0
H946 H 0.94356 0.62213 0.47953 0.0
C947 C 0.93132 0.62694 0.49432 0.0
H948 H 0.92468 0.61025 0.50256 0.0
H949 H 0.86629 0.65313 0.49401 0.0
O950 O 0.95668 0.71295 0.57587 0.0
C951 C 0.89347 0.7065 0.5307 0.0
Co952 Co 0.57161 0.32518 0.69566 0.0
Co953 Co 0.60386 0.36186 0.72314 0.0
C954 C 0.60483 0.35756 0.66925 0.0
O955 O 0.58886 0.34127 0.66782 0.0
O956 O 0.6109 0.36639 0.68922 0.0
C957 C 0.54207 0.28993 0.66661 0.0
O958 O 0.54839 0.29975 0.64627 0.0
C959 C 0.65107 0.37724 0.73901 0.0
C960 C 0.64254 0.40557 0.76508 0.0
C961 C 0.66142 0.39319 0.7549 0.0
N962 N 0.62724 0.37992 0.73998 0.0
N963 N 0.62225 0.39705 0.75542 0.0
C964 C 0.66351 0.3601 0.72268 0.0
H965 H 0.66716 0.34319 0.73228 0.0
H966 H 0.68079 0.36764 0.71656 0.0
H967 H 0.6521 0.3558 0.70711 0.0
C968 C 0.59555 0.29224 0.72999 0.0
N969 N 0.5938 0.31361 0.71896 0.0
N970 N 0.60646 0.32933 0.73103 0.0
C971 C 0.61619 0.31869 0.75025 0.0
C972 C 0.60997 0.29476 0.75 0.0
C973 C 0.58131 0.27067 0.72336 0.0
H974 H 0.58171 0.26811 0.70372 0.0
H975 H 0.58835 0.25445 0.73232 0.0
H976 H 0.56252 0.2734 0.72893 0.0
O977 O 0.54891 0.34665 0.71325 0.0
O978 O 0.57161 0.37262 0.73271 0.0
H979 H 0.62437 0.32195 0.78805 0.0
H980 H 0.64577 0.33502 0.7682 0.0
C981 C 0.62645 0.33203 0.77113 0.0
H982 H 0.61744 0.34951 0.77319 0.0
H983 H 0.60499 0.40263 0.75966 0.0
O984 O 0.55055 0.29798 0.68609 0.0
C985 C 0.55112 0.36404 0.7278 0.0
Co986 Co 0.93005 0.3214 0.94903 0.0
Co987 Co 0.89381 0.35484 0.97584 0.0
C988 C 0.89845 0.35493 0.92199 0.0
O989 O 0.91424 0.33844 0.92092 0.0
O990 O 0.88968 0.36164 0.94179 0.0
C991 C 0.96712 0.29347 0.92031 0.0
O992 O 0.95946 0.30212 0.89989 0.0
C993 C 0.87574 0.40133 0.99285 0.0
C994 C 0.84541 0.39001 0.0153 0.0
C995 C 0.85769 0.41014 0.00764 0.0
N996 N 0.87422 0.37736 0.99233 0.0
N997 N 0.85587 0.37076 0.00554 0.0
C998 C 0.89477 0.415 0.98001 0.0
H999 H 0.9091 0.40287 0.97372 0.0
H1000 H 0.90245 0.42893 0.99183 0.0
H1001 H 0.88686 0.42382 0.96414 0.0
C1002 C 0.96312 0.34556 0.98306 0.0
N1003 N 0.94174 0.34411 0.97205 0.0
N1004 N 0.92632 0.35741 0.98386 0.0
C1005 C 0.93715 0.36709 1.00301 0.0
C1006 C 0.9609 0.36013 1.00302 0.0
C1007 C 0.9845 0.33108 0.97628 0.0
H1008 H 0.98129 0.31215 0.98104 0.0
H1009 H 0.98736 0.33215 0.9567 0.0
H1010 H 1.00074 0.33743 0.98572 0.0
O1011 O 0.90849 0.29864 0.9668 0.0
O1012 O 0.88384 0.32279 0.98626 0.0
H1013 H 0.90604 0.37033 0.02534 0.0
H1014 H 0.93375 0.37605 0.04058 0.0
C1015 C 0.92402 0.37833 0.02348 0.0
H1016 H 0.92209 0.39773 0.0201 0.0
H1017 H 0.85064 0.35307 0.00812 0.0
O1018 O 0.95731 0.30014 0.93969 0.0
C1019 C 0.89162 0.30194 0.98172 0.0
Co1020 Co 0.94127 0.67902 0.19932 0.0
Co1021 Co 0.90123 0.65147 0.22696 0.0
C1022 C 0.90364 0.64913 0.17382 0.0
O1023 O 0.92206 0.66262 0.17247 0.0
O1024 O 0.8949 0.64329 0.19386 0.0
C1025 C 0.96324 0.72223 0.17758 0.0
O1026 O 0.94159 0.73117 0.17636 0.0
C1027 C 0.85353 0.63333 0.23967 0.0
C1028 C 0.85985 0.6189 0.27584 0.0
C1029 C 0.84245 0.62163 0.25848 0.0
N1030 N 0.87646 0.63726 0.24565 0.0
N1031 N 0.8801 0.62849 0.26725 0.0
C1032 C 0.84326 0.63917 0.21573 0.0
H1033 H 0.84897 0.65733 0.21025 0.0
H1034 H 0.82354 0.63783 0.21544 0.0
H1035 H 0.85042 0.62625 0.20253 0.0
C1036 C 0.92547 0.71537 0.23522 0.0
N1037 N 0.92107 0.69594 0.22158 0.0
N1038 N 0.90211 0.68499 0.23023 0.0
C1039 C 0.89287 0.69804 0.24813 0.0
C1040 C 0.90766 0.71738 0.25245 0.0
C1041 C 0.94895 0.72818 0.23564 0.0
H1042 H 0.96354 0.71601 0.23005 0.0
H1043 H 0.94818 0.74346 0.22308 0.0
H1044 H 0.95296 0.73536 0.25368 0.0
O1045 O 0.96055 0.6566 0.21916 0.0
O1046 O 0.93198 0.63907 0.24009 0.0
H1047 H 0.88052 0.67616 0.27691 0.0
H1048 H 0.86587 0.70467 0.27483 0.0
C1049 C 0.87332 0.68961 0.26429 0.0
H1050 H 0.85883 0.6814 0.25361 0.0
H1051 H 0.89638 0.62919 0.27623 0.0
O1052 O 0.96604 0.70114 0.18558 0.0
C1053 C 0.95406 0.64274 0.23597 0.0
Co1054 Co 0.58075 0.69112 0.4508 0.0
Co1055 Co 0.61485 0.65534 0.47745 0.0
C1056 C 0.61158 0.65516 0.42424 0.0
O1057 O 0.59634 0.67219 0.42346 0.0
O1058 O 0.62022 0.64803 0.44392 0.0
C1059 C 0.53515 0.70945 0.43047 0.0
O1060 O 0.52775 0.68722 0.42947 0.0
C1061 C 0.63618 0.60917 0.4909 0.0
C1062 C 0.6515 0.61731 0.52631 0.0
C1063 C 0.6482 0.59894 0.51005 0.0
N1064 N 0.63223 0.63235 0.49585 0.0
N1065 N 0.64182 0.63718 0.51687 0.0
C1066 C 0.62942 0.59763 0.46776 0.0
H1067 H 0.60997 0.59983 0.46466 0.0
H1068 H 0.63437 0.57849 0.46711 0.0
H1069 H 0.63895 0.60683 0.45306 0.0
C1070 C 0.54792 0.67215 0.48873 0.0
N1071 N 0.56764 0.67042 0.47488 0.0
N1072 N 0.58158 0.65368 0.48381 0.0
C1073 C 0.57045 0.64311 0.50225 0.0
C1074 C 0.54907 0.65481 0.50653 0.0
C1075 C 0.53132 0.69311 0.48841 0.0
H1076 H 0.54063 0.70919 0.48162 0.0
H1077 H 0.51599 0.68905 0.47655 0.0
H1078 H 0.52419 0.69694 0.50651 0.0
O1079 O 0.60271 0.71263 0.46839 0.0
O1080 O 0.62641 0.68754 0.48783 0.0
H1081 H 0.59516 0.6315 0.52901 0.0
H1082 H 0.56747 0.61509 0.52864 0.0
C1083 C 0.58119 0.6238 0.5173 0.0
H1084 H 0.58941 0.61009 0.50566 0.0
H1085 H 0.64119 0.65391 0.52506 0.0
O1086 O 0.55616 0.71383 0.43789 0.0
C1087 C 0.61945 0.70872 0.48324 0.0
Co1088 Co 0.80948 0.57116 0.68241 0.0
Co1089 Co 0.78457 0.60531 0.64569 0.0
C1090 C 0.83792 0.60467 0.65174 0.0
O1091 O 0.83835 0.58775 0.66713 0.0
O1092 O 0.81845 0.61192 0.64279 0.0
C1093 C 0.83738 0.54059 0.71751 0.0
O1094 O 0.85764 0.54581 0.70692 0.0
C1095 C 0.76865 0.65215 0.62848 0.0
C1096 C 0.74745 0.64214 0.5968 0.0
C1097 C 0.75468 0.66172 0.61019 0.0
N1098 N 0.7691 0.62828 0.62604 0.0
N1099 N 0.75668 0.62244 0.60688 0.0
C1100 C 0.78077 0.66493 0.6486 0.0
H1101 H 0.78654 0.65218 0.66259 0.0
H1102 H 0.76867 0.6785 0.65649 0.0
H1103 H 0.79694 0.67405 0.64172 0.0
C1104 C 0.77479 0.59547 0.71463 0.0
N1105 N 0.78663 0.59419 0.69367 0.0
N1106 N 0.77531 0.60745 0.67786 0.0
C1107 C 0.75565 0.61687 0.68795 0.0
C1108 C 0.7548 0.60984 0.71166 0.0
C1109 C 0.78077 0.58092 0.73619 0.0
H1110 H 0.80028 0.58149 0.73949 0.0
H1111 H 0.77111 0.58755 0.75219 0.0
H1112 H 0.77555 0.56212 0.73292 0.0
O1113 O 0.79103 0.54898 0.6607 0.0
O1114 O 0.77458 0.57376 0.63459 0.0
H1115 H 0.73461 0.61995 0.65591 0.0
H1116 H 0.7181 0.62509 0.68301 0.0
C1117 C 0.73554 0.62783 0.67404 0.0
H1118 H 0.73858 0.64731 0.67244 0.0
H1119 H 0.75423 0.60498 0.60087 0.0
O1120 O 0.81808 0.54989 0.70993 0.0
C1121 C 0.77716 0.55286 0.64304 0.0
Co1122 Co 0.69113 0.56252 0.92986 0.0
Co1123 Co 0.65288 0.53655 0.89816 0.0
C1124 C 0.65431 0.58958 0.90005 0.0
O1125 O 0.67206 0.59006 0.9145 0.0
O1126 O 0.64608 0.57004 0.89212 0.0
C1127 C 0.71067 0.58106 0.97573 0.0
O1128 O 0.68852 0.582 0.98337 0.0
C1129 C 0.60628 0.52173 0.87827 0.0
C1130 C 0.61596 0.48783 0.86055 0.0
C1131 C 0.59689 0.50287 0.86518 0.0
N1132 N 0.62979 0.51785 0.88135 0.0
N1133 N 0.63547 0.4977 0.87046 0.0
C1134 C 0.59366 0.54373 0.88667 0.0
H1135 H 0.59995 0.55911 0.8759 0.0
H1136 H 0.59837 0.54741 0.90556 0.0
H1137 H 0.57403 0.54231 0.88463 0.0
C1138 C 0.67359 0.52396 0.96288 0.0
N1139 N 0.6705 0.53866 0.94394 0.0
N1140 N 0.65221 0.53081 0.93137 0.0
C1141 C 0.64211 0.51227 0.94275 0.0
C1142 C 0.65567 0.50671 0.96269 0.0
C1143 C 0.69603 0.52295 0.97739 0.0
H1144 H 0.71136 0.52979 0.9669 0.0
H1145 H 0.69379 0.53415 0.99358 0.0
H1146 H 0.69996 0.50445 0.98331 0.0
O1147 O 0.71195 0.54514 0.90683 0.0
O1148 O 0.6845 0.52505 0.88662 0.0
H1149 H 0.62819 0.4864 0.91823 0.0
H1150 H 0.61387 0.48632 0.94706 0.0
C1151 C 0.62177 0.49788 0.93303 0.0
H1152 H 0.60774 0.50995 0.92614 0.0
H1153 H 0.65264 0.49046 0.87014 0.0
O1154 O 0.71463 0.57468 0.95427 0.0
C1155 C 0.70631 0.52941 0.89143 0.0
Co1156 Co 0.69494 0.43685 0.18468 0.0
Co1157 Co 0.72286 0.40241 0.14995 0.0
C1158 C 0.66918 0.40459 0.15034 0.0
O1159 O 0.66777 0.42066 0.16651 0.0
O1160 O 0.68916 0.39725 0.14267 0.0
C1161 C 0.67565 0.47878 0.20792 0.0
O1162 O 0.67516 0.48679 0.18586 0.0
C1163 C 0.7361 0.35503 0.1324 0.0
C1164 C 0.76799 0.3626 0.11048 0.0
C1165 C 0.75369 0.34418 0.11875 0.0
N1166 N 0.74012 0.37869 0.13257 0.0
N1167 N 0.759 0.38315 0.11915 0.0
C1168 C 0.71525 0.34345 0.14443 0.0
H1169 H 0.69859 0.35174 0.13774 0.0
H1170 H 0.71617 0.34677 0.16395 0.0
H1171 H 0.71448 0.324 0.14083 0.0
C1172 C 0.72751 0.41291 0.21914 0.0
N1173 N 0.71655 0.41356 0.19769 0.0
N1174 N 0.72809 0.39928 0.18297 0.0
C1175 C 0.74676 0.38939 0.19443 0.0
C1176 C 0.74706 0.39767 0.21777 0.0
C1177 C 0.72146 0.42913 0.23943 0.0
H1178 H 0.70237 0.42667 0.24406 0.0
H1179 H 0.7326 0.42532 0.25539 0.0
H1180 H 0.72411 0.44795 0.23386 0.0
O1181 O 0.71518 0.45899 0.16472 0.0
O1182 O 0.73535 0.43415 0.14115 0.0
H1183 H 0.77274 0.38806 0.16638 0.0
H1184 H 0.78254 0.374 0.19353 0.0
C1185 C 0.76692 0.37709 0.1818 0.0
H1186 H 0.76067 0.35959 0.17507 0.0
H1187 H 0.76608 0.40016 0.11637 0.0
O1188 O 0.68224 0.45729 0.21151 0.0
C1189 C 0.73109 0.45512 0.14888 0.0
Co1190 Co 0.81911 0.44882 0.42954 0.0
Co1191 Co 0.8551 0.47551 0.39572 0.0
C1192 C 0.85515 0.42193 0.39992 0.0
O1193 O 0.83752 0.42098 0.41444 0.0
O1194 O 0.86254 0.44169 0.39171 0.0
C1195 C 0.79735 0.42504 0.47281 0.0
O1196 O 0.8184 0.41657 0.47873 0.0
C1197 C 0.90244 0.49114 0.37874 0.0
C1198 C 0.89246 0.51536 0.34926 0.0
C1199 C 0.91202 0.50573 0.36102 0.0
N1200 N 0.87848 0.49213 0.37729 0.0
N1201 N 0.87267 0.50642 0.35946 0.0
C1202 C 0.91543 0.47759 0.39774 0.0
H1203 H 0.90341 0.47366 0.41299 0.0
H1204 H 0.93126 0.48774 0.404 0.0
H1205 H 0.92151 0.46031 0.39029 0.0
C1206 C 0.84 0.48443 0.46392 0.0
N1207 N 0.84051 0.47246 0.44296 0.0
N1208 N 0.85548 0.48349 0.42847 0.0
C1209 C 0.86468 0.50272 0.43957 0.0
C1210 C 0.85542 0.50384 0.46249 0.0
C1211 C 0.82296 0.4792 0.48383 0.0
H1212 H 0.82722 0.46146 0.49146 0.0
H1213 H 0.82419 0.49269 0.49829 0.0
H1214 H 0.80446 0.47868 0.47679 0.0
O1215 O 0.7979 0.46656 0.40666 0.0
O1216 O 0.82368 0.48575 0.38359 0.0
H1217 H 0.87733 0.53934 0.43697 0.0
H1218 H 0.89679 0.51703 0.42467 0.0
C1219 C 0.87786 0.52229 0.42691 0.0
H1220 H 0.86998 0.52528 0.409 0.0
H1221 H 0.85516 0.51027 0.35438 0.0
O1222 O 0.79521 0.43751 0.45393 0.0
C1223 C 0.80233 0.48144 0.39005 0.0
Co1224 Co 0.80924 0.4374 0.82742 0.0
Co1225 Co 0.78341 0.4041 0.86451 0.0
C1226 C 0.83713 0.40509 0.85947 0.0
O1227 O 0.83785 0.42128 0.84336 0.0
O1228 O 0.8175 0.39819 0.86835 0.0
C1229 C 0.83539 0.47304 0.79742 0.0
O1230 O 0.85159 0.4746 0.81431 0.0
C1231 C 0.76949 0.3568 0.88221 0.0
C1232 C 0.74701 0.36601 0.91326 0.0
C1233 C 0.75605 0.34673 0.90056 0.0
N1234 N 0.76836 0.38072 0.88417 0.0
N1235 N 0.75518 0.3861 0.90296 0.0
C1236 C 0.78208 0.34431 0.86219 0.0
H1237 H 0.78488 0.35655 0.84692 0.0
H1238 H 0.77182 0.32843 0.85626 0.0
H1239 H 0.79996 0.33849 0.86841 0.0
C1240 C 0.77487 0.41248 0.79528 0.0
N1241 N 0.78649 0.41407 0.81633 0.0
N1242 N 0.77492 0.40114 0.83222 0.0
C1243 C 0.75527 0.39174 0.82211 0.0
C1244 C 0.7546 0.3985 0.7983 0.0
C1245 C 0.78138 0.42631 0.77342 0.0
H1246 H 0.801 0.4259 0.77077 0.0
H1247 H 0.77232 0.41897 0.75738 0.0
H1248 H 0.77576 0.44508 0.77586 0.0
O1249 O 0.79099 0.45998 0.84882 0.0
O1250 O 0.77245 0.43599 0.87442 0.0
H1251 H 0.71778 0.38292 0.82672 0.0
H1252 H 0.7386 0.36166 0.83869 0.0
C1253 C 0.73512 0.38097 0.83609 0.0
H1254 H 0.73376 0.38959 0.85386 0.0
H1255 H 0.75146 0.40348 0.90853 0.0
O1256 O 0.81838 0.45812 0.79958 0.0
C1257 C 0.77636 0.45675 0.866 0.0
Co1258 Co 0.81622 0.55951 0.08318 0.0
Co1259 Co 0.85589 0.53299 0.11285 0.0
C1260 C 0.85387 0.58627 0.11189 0.0
O1261 O 0.83544 0.587 0.09833 0.0
O1262 O 0.86251 0.56657 0.11894 0.0
C1263 C 0.79337 0.58075 0.03958 0.0
O1264 O 0.81486 0.58444 0.03092 0.0
C1265 C 0.90322 0.52003 0.13254 0.0
C1266 C 0.89621 0.48379 0.14637 0.0
C1267 C 0.91393 0.50088 0.14412 0.0
N1268 N 0.88027 0.51443 0.12812 0.0
N1269 N 0.8762 0.49281 0.13665 0.0
C1270 C 0.91405 0.54373 0.12679 0.0
H1271 H 0.90415 0.55783 0.13652 0.0
H1272 H 0.91218 0.54724 0.10737 0.0
H1273 H 0.93307 0.54482 0.13212 0.0
C1274 C 0.83333 0.52306 0.04783 0.0
N1275 N 0.83665 0.53655 0.06759 0.0
N1276 N 0.855 0.52785 0.0795 0.0
C1277 C 0.86482 0.5099 0.06696 0.0
C1278 C 0.85114 0.50577 0.04677 0.0
C1279 C 0.81088 0.52323 0.03331 0.0
H1280 H 0.79534 0.52762 0.04478 0.0
H1281 H 0.81243 0.53701 0.01918 0.0
H1282 H 0.80781 0.50576 0.02447 0.0
O1283 O 0.79686 0.54105 0.10668 0.0
O1284 O 0.82498 0.52126 0.12612 0.0
H1285 H 0.87686 0.48161 0.08962 0.0
H1286 H 0.89218 0.4833 0.06142 0.0
C1287 C 0.88428 0.49402 0.07612 0.0
H1288 H 0.89847 0.50494 0.08452 0.0
H1289 H 0.85984 0.48401 0.13543 0.0
O1290 O 0.79123 0.5717 0.06032 0.0
C1291 C 0.80299 0.52537 0.12197 0.0
Co1292 Co 0.69551 0.56909 0.32741 0.0
Co1293 Co 0.72334 0.60536 0.35992 0.0
C1294 C 0.66981 0.60416 0.35934 0.0
O1295 O 0.66839 0.587 0.34429 0.0
O1296 O 0.68982 0.61177 0.36672 0.0
C1297 C 0.67055 0.54968 0.28427 0.0
O1298 O 0.66242 0.57126 0.27998 0.0
C1299 C 0.73781 0.65275 0.37689 0.0
C1300 C 0.76993 0.64447 0.39823 0.0
C1301 C 0.75581 0.66316 0.39032 0.0
N1302 N 0.74135 0.62902 0.37658 0.0
N1303 N 0.76039 0.62415 0.38965 0.0
C1304 C 0.71697 0.66479 0.36535 0.0
H1305 H 0.70061 0.65986 0.37534 0.0
H1306 H 0.71483 0.65822 0.34677 0.0
H1307 H 0.71869 0.68451 0.36557 0.0
C1308 C 0.72934 0.59036 0.29167 0.0
N1309 N 0.7179 0.59089 0.31293 0.0
N1310 N 0.72855 0.60676 0.3267 0.0
C1311 C 0.74657 0.61703 0.31462 0.0
C1312 C 0.74769 0.60707 0.292 0.0
C1313 C 0.72544 0.57171 0.27293 0.0
H1314 H 0.72451 0.5538 0.28135 0.0
H1315 H 0.70828 0.57527 0.26377 0.0
H1316 H 0.73984 0.57186 0.25932 0.0
O1317 O 0.71461 0.54779 0.34902 0.0
O1318 O 0.73521 0.57387 0.37057 0.0
H1319 H 0.77308 0.62224 0.34169 0.0
H1320 H 0.78034 0.63641 0.3138 0.0
C1321 C 0.76556 0.63195 0.32616 0.0
H1322 H 0.75754 0.64884 0.33249 0.0
H1323 H 0.76717 0.60699 0.3923 0.0
O1324 O 0.68331 0.54613 0.30273 0.0
C1325 C 0.73063 0.55245 0.36449 0.0
Co1326 Co 0.69138 0.44756 0.57892 0.0
Co1327 Co 0.65324 0.47406 0.61091 0.0
C1328 C 0.65483 0.42057 0.60821 0.0
O1329 O 0.6728 0.41993 0.5941 0.0
O1330 O 0.64654 0.4402 0.6159 0.0
C1331 C 0.71404 0.42505 0.53549 0.0
O1332 O 0.69274 0.41942 0.52746 0.0
C1333 C 0.60528 0.48981 0.62737 0.0
C1334 C 0.61506 0.5184 0.6527 0.0
C1335 C 0.59563 0.50652 0.64304 0.0
N1336 N 0.62924 0.49187 0.62776 0.0
N1337 N 0.63491 0.5089 0.64308 0.0
C1338 C 0.59209 0.47173 0.6128 0.0
H1339 H 0.60412 0.45694 0.60762 0.0
H1340 H 0.58541 0.48018 0.59619 0.0
H1341 H 0.57654 0.46473 0.6229 0.0
C1342 C 0.67293 0.48409 0.54439 0.0
N1343 N 0.67046 0.47101 0.56454 0.0
N1344 N 0.6539 0.4811 0.57795 0.0
C1345 C 0.64517 0.50045 0.56671 0.0
C1346 C 0.65681 0.50297 0.54504 0.0
C1347 C 0.69291 0.48113 0.52689 0.0
H1348 H 0.68949 0.46507 0.51586 0.0
H1349 H 0.69441 0.4967 0.51475 0.0
H1350 H 0.71 0.4786 0.53657 0.0
O1351 O 0.71157 0.46572 0.60205 0.0
O1352 O 0.68438 0.48494 0.62352 0.0
H1353 H 0.6396 0.52524 0.5953 0.0
H1354 H 0.62726 0.53501 0.56727 0.0
C1355 C 0.63041 0.51924 0.57881 0.0
H1356 H 0.61289 0.51161 0.58375 0.0
H1357 H 0.65237 0.51416 0.6469 0.0
O1358 O 0.71598 0.4357 0.55548 0.0
C1359 C 0.70608 0.48095 0.618 0.0
Co1360 Co 0.68461 0.8131 0.57186 0.0
Co1361 Co 0.6496 0.7863 0.60687 0.0
C1362 C 0.65209 0.83982 0.60573 0.0
O1363 O 0.66802 0.84076 0.58935 0.0
O1364 O 0.64365 0.82007 0.61286 0.0
C1365 C 0.72978 0.83513 0.55269 0.0
O1366 O 0.73512 0.84233 0.57438 0.0
C1367 C 0.62968 0.77387 0.65381 0.0
C1368 C 0.60993 0.74069 0.64597 0.0
C1369 C 0.61599 0.75611 0.66437 0.0
N1370 N 0.63181 0.76899 0.63037 0.0
N1371 N 0.61968 0.7493 0.62575 0.0
C1372 C 0.63973 0.7958 0.66527 0.0
H1373 H 0.65905 0.79723 0.66111 0.0
H1374 H 0.63685 0.79612 0.68484 0.0
H1375 H 0.63074 0.81163 0.6575 0.0
C1376 C 0.71701 0.77612 0.59172 0.0
N1377 N 0.6972 0.78978 0.59351 0.0
N1378 N 0.68279 0.78007 0.6094 0.0
C1379 C 0.69352 0.76089 0.61908 0.0
C1380 C 0.71526 0.75733 0.60781 0.0
C1381 C 0.73434 0.77767 0.57141 0.0
H1382 H 0.72456 0.78025 0.55438 0.0
H1383 H 0.74623 0.79321 0.57428 0.0
H1384 H 0.74559 0.76142 0.57005 0.0
O1385 O 0.6634 0.79466 0.55031 0.0
O1386 O 0.63909 0.7749 0.57465 0.0
H1387 H 0.66663 0.7346 0.62596 0.0
H1388 H 0.6941 0.72984 0.64215 0.0
C1389 C 0.68145 0.74359 0.63552 0.0
H1390 H 0.67405 0.75332 0.65106 0.0
H1391 H 0.61847 0.74146 0.60887 0.0
O1392 O 0.71018 0.8242 0.54922 0.0
C1393 C 0.64676 0.77959 0.55374 0.0
Co1394 Co 0.17906 0.70056 0.44301 0.0
Co1395 Co 0.14548 0.72639 0.40591 0.0
C1396 C 0.14938 0.67277 0.40758 0.0
O1397 O 0.16408 0.67229 0.4251 0.0
O1398 O 0.14103 0.69231 0.39972 0.0
C1399 C 0.22089 0.67488 0.46415 0.0
O1400 O 0.22211 0.66239 0.44433 0.0
C1401 C 0.12645 0.73861 0.35834 0.0
C1402 C 0.10731 0.77227 0.36574 0.0
C1403 C 0.11331 0.75665 0.34748 0.0
N1404 N 0.12836 0.74358 0.38178 0.0
N1405 N 0.11657 0.76354 0.38613 0.0
C1406 C 0.13594 0.71628 0.34719 0.0
H1407 H 0.12805 0.70073 0.3565 0.0
H1408 H 0.15559 0.7155 0.34963 0.0
H1409 H 0.13133 0.71484 0.328 0.0
C1410 C 0.21364 0.73494 0.42092 0.0
N1411 N 0.1925 0.72333 0.42098 0.0
N1412 N 0.17835 0.73353 0.40518 0.0
C1413 C 0.18997 0.75163 0.3945 0.0
C1414 C 0.21278 0.75315 0.40404 0.0
C1415 C 0.23327 0.73045 0.43847 0.0
H1416 H 0.22623 0.73226 0.45691 0.0
H1417 H 0.23987 0.71193 0.43619 0.0
H1418 H 0.24841 0.74296 0.4359 0.0
O1419 O 0.15591 0.71858 0.46372 0.0
O1420 O 0.13339 0.73748 0.43717 0.0
H1421 H 0.16249 0.77753 0.38896 0.0
H1422 H 0.18983 0.78473 0.37394 0.0
C1423 C 0.17786 0.76989 0.37912 0.0
H1424 H 0.17111 0.76116 0.36269 0.0
H1425 H 0.11528 0.77149 0.40294 0.0
O1426 O 0.20442 0.69037 0.46636 0.0
C1427 C 0.13939 0.73342 0.45873 0.0
Co1428 Co 0.55947 0.9297 0.69078 0.0
Co1429 Co 0.53335 0.8988 0.6522 0.0
C1430 C 0.58644 0.89937 0.65442 0.0
O1431 O 0.58703 0.91374 0.67222 0.0
O1432 O 0.56677 0.89204 0.64596 0.0
C1433 C 0.57914 0.97489 0.7101 0.0
O1434 O 0.57998 0.98241 0.68789 0.0
C1435 C 0.51984 0.87984 0.60503 0.0
C1436 C 0.48623 0.86099 0.61342 0.0
C1437 C 0.5017 0.86635 0.59489 0.0
N1438 N 0.5152 0.88239 0.62847 0.0
N1439 N 0.49521 0.87088 0.63338 0.0
C1440 C 0.54205 0.88889 0.59328 0.0
H1441 H 0.54681 0.90669 0.60059 0.0
H1442 H 0.54027 0.88978 0.5736 0.0
H1443 H 0.55688 0.87647 0.59753 0.0
C1444 C 0.52219 0.96386 0.67268 0.0
N1445 N 0.53643 0.94455 0.6697 0.0
N1446 N 0.52826 0.93209 0.65145 0.0
C1447 C 0.50992 0.94381 0.64137 0.0
C1448 C 0.50496 0.964 0.65475 0.0
C1449 C 0.52138 0.97843 0.69511 0.0
H1450 H 0.52797 0.96785 0.71049 0.0
H1451 H 0.53285 0.9944 0.69285 0.0
H1452 H 0.50298 0.9847 0.69895 0.0
O1453 O 0.54064 0.90749 0.71137 0.0
O1454 O 0.52076 0.88764 0.68349 0.0
H1455 H 0.48353 0.91932 0.6285 0.0
H1456 H 0.4831 0.94801 0.61388 0.0
C1457 C 0.49484 0.934 0.62157 0.0
H1458 H 0.50645 0.92693 0.60722 0.0
H1459 H 0.48756 0.86992 0.65034 0.0
O1460 O 0.57228 0.95365 0.71431 0.0
C1461 C 0.52446 0.8927 0.70536 0.0
Co1462 Co 0.32948 0.31042 0.94049 0.0
Co1463 Co 0.35863 0.28408 0.90074 0.0
C1464 C 0.35943 0.33709 0.90364 0.0
O1465 O 0.34555 0.33788 0.92181 0.0
O1466 O 0.36588 0.31736 0.89469 0.0
C1467 C 0.28546 0.33044 0.96271 0.0
O1468 O 0.27616 0.33096 0.94117 0.0
C1469 C 0.37488 0.27183 0.85242 0.0
C1470 C 0.394 0.23789 0.85865 0.0
C1471 C 0.38767 0.25398 0.84097 0.0
N1472 N 0.37365 0.26644 0.8758 0.0
N1473 N 0.3853 0.24625 0.87942 0.0
C1474 C 0.36505 0.29431 0.84184 0.0
H1475 H 0.34749 0.29853 0.85 0.0
H1476 H 0.3634 0.29318 0.82216 0.0
H1477 H 0.37738 0.30921 0.84614 0.0
C1478 C 0.29454 0.27314 0.92394 0.0
N1479 N 0.31359 0.28751 0.92002 0.0
N1480 N 0.32524 0.27934 0.90126 0.0
C1481 C 0.31315 0.26092 0.89175 0.0
C1482 C 0.29367 0.2558 0.9061 0.0
C1483 C 0.28105 0.27235 0.94703 0.0
H1484 H 0.29239 0.27886 0.9619 0.0
H1485 H 0.26508 0.28397 0.94558 0.0
H1486 H 0.27484 0.25399 0.95112 0.0
O1487 O 0.35243 0.29142 0.95985 0.0
O1488 O 0.37139 0.27135 0.93154 0.0
H1489 H 0.33709 0.23455 0.8778 0.0
H1490 H 0.30777 0.23405 0.86453 0.0
C1491 C 0.32208 0.24584 0.87154 0.0
H1492 H 0.32841 0.25744 0.85685 0.0
H1493 H 0.38709 0.23802 0.896 0.0
O1494 O 0.30691 0.3234 0.96532 0.0
C1495 C 0.36722 0.27534 0.95357 0.0
Co1496 Co 0.44762 0.58118 0.69273 0.0
Co1497 Co 0.47376 0.6153 0.65674 0.0
C1498 C 0.4203 0.611 0.65709 0.0
O1499 O 0.41956 0.59636 0.67464 0.0
O1500 O 0.43998 0.61915 0.64945 0.0
C1501 C 0.42418 0.53768 0.71413 0.0
O1502 O 0.41578 0.53197 0.69298 0.0
C1503 C 0.49016 0.63212 0.60958 0.0
C1504 C 0.51397 0.66176 0.62008 0.0
C1505 C 0.50523 0.64962 0.60033 0.0
N1506 N 0.49023 0.63395 0.63354 0.0
N1507 N 0.50419 0.65194 0.63964 0.0
C1508 C 0.47704 0.61298 0.59634 0.0
H1509 H 0.47269 0.5979 0.60843 0.0
H1510 H 0.48772 0.6065 0.58095 0.0
H1511 H 0.45993 0.62033 0.58959 0.0
C1512 C 0.48338 0.54704 0.6713 0.0
N1513 N 0.47132 0.56797 0.67111 0.0
N1514 N 0.48223 0.58267 0.65626 0.0
C1515 C 0.50152 0.57179 0.6469 0.0
C1516 C 0.50274 0.54874 0.6558 0.0
C1517 C 0.47811 0.52679 0.68789 0.0
H1518 H 0.47764 0.53341 0.70656 0.0
H1519 H 0.46035 0.51932 0.68349 0.0
H1520 H 0.49155 0.51232 0.68631 0.0
O1521 O 0.46524 0.60408 0.71403 0.0
O1522 O 0.48378 0.6275 0.68809 0.0
H1523 H 0.52345 0.60281 0.64142 0.0
H1524 H 0.53837 0.57507 0.63516 0.0
C1525 C 0.52109 0.58466 0.63391 0.0
H1526 H 0.51632 0.58622 0.61477 0.0
H1527 H 0.50742 0.65722 0.65723 0.0
O1528 O 0.43653 0.55659 0.71652 0.0
C1529 C 0.47976 0.62098 0.70946 0.0
Co1530 Co 0.82654 0.19734 0.0696 0.0
Co1531 Co 0.86085 0.22356 0.10559 0.0
C1532 C 0.85713 0.16995 0.10449 0.0
O1533 O 0.84207 0.16922 0.0873 0.0
O1534 O 0.86551 0.18961 0.11199 0.0
C1535 C 0.78389 0.17197 0.04969 0.0
O1536 O 0.78224 0.16046 0.07006 0.0
C1537 C 0.8773 0.23653 0.15348 0.0
C1538 C 0.90043 0.26765 0.14644 0.0
C1539 C 0.89112 0.25375 0.16466 0.0
N1540 N 0.87804 0.24036 0.12979 0.0
N1541 N 0.89219 0.25878 0.12566 0.0
C1542 C 0.86461 0.21591 0.16472 0.0
H1543 H 0.8725 0.19918 0.15775 0.0
H1544 H 0.8455 0.2162 0.1595 0.0
H1545 H 0.86641 0.21587 0.18444 0.0
C1546 C 0.79222 0.23174 0.0922 0.0
N1547 N 0.81339 0.22017 0.09175 0.0
N1548 N 0.82805 0.2309 0.10673 0.0
C1549 C 0.81684 0.24949 0.11701 0.0
C1550 C 0.79365 0.25055 0.10838 0.0
C1551 C 0.77196 0.22664 0.07556 0.0
H1552 H 0.77826 0.22796 0.05682 0.0
H1553 H 0.76556 0.20817 0.07864 0.0
H1554 H 0.75684 0.23913 0.07836 0.0
O1555 O 0.84912 0.21568 0.0484 0.0
O1556 O 0.87262 0.23445 0.0742 0.0
H1557 H 0.84611 0.27374 0.12112 0.0
H1558 H 0.81862 0.28498 0.13301 0.0
C1559 C 0.82957 0.26868 0.13068 0.0
H1560 H 0.83441 0.26178 0.14857 0.0
H1561 H 0.89576 0.26564 0.1087 0.0
O1562 O 0.80088 0.18677 0.04676 0.0
C1563 C 0.86588 0.23046 0.05283 0.0
Co1564 Co 0.55894 0.08108 0.81691 0.0
Co1565 Co 0.53363 0.11528 0.8536 0.0
C1566 C 0.58726 0.11045 0.85205 0.0
O1567 O 0.58742 0.09565 0.83462 0.0
O1568 O 0.56788 0.11923 0.85989 0.0
C1569 C 0.58217 0.03828 0.79288 0.0
O1570 O 0.59243 0.03179 0.81296 0.0
C1571 C 0.52108 0.13414 0.90115 0.0
C1572 C 0.48842 0.15473 0.89322 0.0
C1573 C 0.50329 0.14781 0.91176 0.0
N1574 N 0.51667 0.1328 0.87757 0.0
N1575 N 0.49732 0.14547 0.87291 0.0
C1576 C 0.5427 0.12355 0.9127 0.0
H1577 H 0.55878 0.13051 0.90355 0.0
H1578 H 0.54246 0.10387 0.91041 0.0
H1579 H 0.54408 0.12823 0.93188 0.0
C1580 C 0.5243 0.04681 0.83952 0.0
N1581 N 0.53605 0.06787 0.83902 0.0
N1582 N 0.52589 0.08245 0.85448 0.0
C1583 C 0.5076 0.07123 0.86527 0.0
C1584 C 0.50601 0.04817 0.85633 0.0
C1585 C 0.52888 0.02671 0.82254 0.0
H1586 H 0.54726 0.01997 0.82535 0.0
H1587 H 0.51617 0.01176 0.82523 0.0
H1588 H 0.52754 0.03333 0.80391 0.0
O1589 O 0.54099 0.10425 0.7963 0.0
O1590 O 0.52255 0.12754 0.8224 0.0
H1591 H 0.4736 0.0726 0.8843 0.0
H1592 H 0.49753 0.08984 0.89708 0.0
C1593 C 0.48925 0.0839 0.88011 0.0
H1594 H 0.48281 0.09983 0.87032 0.0
H1595 H 0.48985 0.14733 0.85593 0.0
O1596 O 0.56901 0.05679 0.7925 0.0
C1597 C 0.5264 0.12106 0.80095 0.0
Co1598 Co 0.9477 0.93051 0.3185 0.0
Co1599 Co 0.97445 0.90064 0.35724 0.0
C1600 C 0.92133 0.90013 0.35484 0.0
O1601 O 0.92032 0.91448 0.33706 0.0
O1602 O 0.94117 0.89327 0.36325 0.0
C1603 C 0.92662 0.9743 0.29637 0.0
O1604 O 0.92396 0.98317 0.31794 0.0
C1605 C 0.98695 0.88311 0.40488 0.0
C1606 C 0.02122 0.86479 0.39809 0.0
C1607 C 0.00502 0.87034 0.41595 0.0
N1608 N 0.99231 0.88511 0.38157 0.0
N1609 N 0.01268 0.8739 0.37757 0.0
C1610 C 0.96424 0.89216 0.41568 0.0
H1611 H 0.96013 0.91021 0.40862 0.0
H1612 H 0.96495 0.89251 0.43545 0.0
H1613 H 0.94948 0.88011 0.41029 0.0
C1614 C 0.98441 0.96559 0.3359 0.0
N1615 N 0.97051 0.9461 0.33921 0.0
N1616 N 0.97896 0.93402 0.35755 0.0
C1617 C 0.99715 0.94616 0.36741 0.0
C1618 C 1.00182 0.9662 0.35368 0.0
C1619 C 0.98459 0.98001 0.31338 0.0
H1620 H 0.97934 0.96874 0.29796 0.0
H1621 H 0.97157 0.99483 0.31512 0.0
H1622 H 1.00243 0.98791 0.30995 0.0
O1623 O 0.96644 0.90778 0.29861 0.0
O1624 O 0.98728 0.88872 0.3263 0.0
H1625 H 0.02392 0.92217 0.38046 0.0
H1626 H 0.02412 0.95109 0.39461 0.0
C1627 C 0.01249 0.93683 0.38724 0.0
H1628 H 1.00107 0.92987 0.4018 0.0
H1629 H 0.0209 0.87273 0.36087 0.0
O1630 O 0.93512 0.95338 0.29399 0.0
C1631 C 0.98276 0.8931 0.30443 0.0
C1632 C 0.01219 0.13807 0.26463 0.0
C1633 C 0.03657 0.13915 0.25843 0.0
C1634 C 0.99464 0.13172 0.24765 0.0
C1635 C 1.00076 0.1271 0.22367 0.0
H1636 H 0.00665 0.14196 0.28276 0.0
H1637 H 0.97618 0.1306 0.25329 0.0
S1638 S 0.06201 0.12788 0.19812 0.0
N1639 N 0.0657 0.13517 0.22642 0.0
N1640 N 0.03307 0.12367 0.19483 0.0
C1641 C 0.02505 0.12835 0.21728 0.0
C1642 C 0.04284 0.13427 0.23455 0.0
C1643 C 0.12644 0.77401 0.47111 0.0
C1644 C 0.13063 0.75007 0.47749 0.0
C1645 C 0.12092 0.79129 0.48826 0.0
C1646 C 0.11875 0.78541 0.51259 0.0
H1647 H 0.12817 0.77972 0.4527 0.0
H1648 H 0.118 0.80945 0.48227 0.0
S1649 S 0.1268 0.72516 0.53878 0.0
N1650 N 0.13199 0.72127 0.50996 0.0
N1651 N 0.12033 0.75376 0.54221 0.0
C1652 C 0.12218 0.76145 0.51929 0.0
C1653 C 0.12851 0.74382 0.50177 0.0
C1654 C 0.5127 0.88075 0.74735 0.0
C1655 C 0.50642 0.88521 0.72339 0.0
C1656 C 0.49522 0.87496 0.76456 0.0
C1657 C 0.47074 0.87427 0.75864 0.0
H1658 H 0.53126 0.88146 0.75275 0.0
H1659 H 0.50091 0.87102 0.78262 0.0
S1660 S 0.44491 0.88583 0.69854 0.0
N1661 N 0.47391 0.8893 0.6949 0.0
N1662 N 0.44135 0.87882 0.72693 0.0
C1663 C 0.46431 0.87922 0.73481 0.0
C1664 C 0.48204 0.88458 0.7173 0.0
C1665 C 0.38 0.24661 0.01427 0.0
C1666 C 0.38763 0.22356 0.00791 0.0
C1667 C 0.37419 0.26362 0.99663 0.0
C1668 C 0.37656 0.25845 0.97203 0.0
H1669 H 0.37801 0.25132 0.03293 0.0
H1670 H 0.36751 0.28085 1.00235 0.0
S1671 S 0.39887 0.2013 0.9465 0.0
N1672 N 0.39907 0.19696 0.97563 0.0
N1673 N 0.38889 0.22875 0.94269 0.0
C1674 C 0.38535 0.23572 0.96567 0.0
C1675 C 0.39068 0.21835 0.98354 0.0
C1676 C 0.04116 0.87562 0.27503 0.0
C1677 C 0.03521 0.87309 0.25074 0.0
C1678 C 0.02381 0.88097 0.29223 0.0
C1679 C 0.99976 0.88454 0.28589 0.0
H1680 H 0.05938 0.87296 0.28099 0.0
H1681 H 0.02952 0.88294 0.31061 0.0
S1682 S 0.97474 0.88007 0.22466 0.0
N1683 N 1.00344 0.87413 0.22121 0.0
N1684 N 0.97087 0.88523 0.25346 0.0
C1685 C 0.9935 0.88221 0.26163 0.0
C1686 C 0.01118 0.87618 0.2441 0.0
C1687 C 0.35256 0.75547 0.51716 0.0
C1688 C 0.37002 0.74253 0.52988 0.0
C1689 C 0.35899 0.77287 0.50021 0.0
C1690 C 0.38308 0.77725 0.49476 0.0
H1691 H 0.33382 0.75322 0.52141 0.0
H1692 H 0.3451 0.78335 0.49177 0.0
S1693 S 0.43552 0.74719 0.52204 0.0
N1694 N 0.41229 0.7349 0.53542 0.0
N1695 N 0.42442 0.76657 0.50277 0.0
C1696 C 0.40063 0.76352 0.50646 0.0
C1697 C 0.3941 0.74642 0.52423 0.0
C1698 C 0.46911 0.14145 0.77138 0.0
C1699 C 0.47416 0.1403 0.74682 0.0
C1700 C 0.48659 0.13655 0.78854 0.0
C1701 C 0.50987 0.12969 0.78196 0.0
H1702 H 0.45141 0.14638 0.77748 0.0
H1703 H 0.48144 0.1373 0.80718 0.0
S1704 S 0.53246 0.12452 0.71982 0.0
N1705 N 0.50433 0.13288 0.71659 0.0
N1706 N 0.53714 0.12242 0.7489 0.0
C1707 C 0.5153 0.12867 0.75738 0.0
C1708 C 0.4975 0.13434 0.73981 0.0
C1709 C 0.1028 0.24458 0.00526 0.0
C1710 C 0.12027 0.23007 0.99435 0.0
C1711 C 0.10905 0.26183 0.02245 0.0
C1712 C 0.13304 0.26578 0.02861 0.0
H1713 H 0.08404 0.24159 1.00157 0.0
H1714 H 0.09502 0.2717 0.03139 0.0
S1715 S 0.18557 0.23341 1.00435 0.0
N1716 N 0.16251 0.22121 0.99061 0.0
N1717 N 0.17438 0.2543 0.02192 0.0
C1718 C 0.15072 0.2522 0.01695 0.0
C1719 C 0.14431 0.23418 1.00007 0.0
C1720 C 0.26767 0.01196 0.13575 0.0
C1721 C 0.26139 0.03617 0.1386 0.0
C1722 C 0.25017 0.99448 0.13076 0.0
C1723 C 0.22576 1.00051 0.12954 0.0
H1724 H 0.28619 0.00658 0.13707 0.0
H1725 H 0.25574 0.97617 0.12799 0.0
S1726 S 0.20001 0.06131 0.13658 0.0
N1727 N 0.22898 0.06505 0.1402 0.0
N1728 N 0.19642 0.03253 0.13154 0.0
C1729 C 0.21936 0.02461 0.13282 0.0
C1730 C 0.23707 0.04233 0.13719 0.0
C1731 C 0.22052 0.98793 0.37187 0.0
C1732 C 0.22706 0.01157 0.37742 0.0
C1733 C 0.23767 0.97037 0.3673 0.0
C1734 C 0.26219 0.97567 0.36745 0.0
H1735 H 0.20193 0.98258 0.3719 0.0
H1736 H 0.23156 0.95244 0.36332 0.0
S1737 S 0.28903 0.03491 0.37968 0.0
N1738 N 0.25999 0.03942 0.38249 0.0
N1739 N 0.2923 0.00645 0.37255 0.0
C1740 C 0.26914 0.99934 0.37214 0.0
C1741 C 0.25158 0.01723 0.37752 0.0
C1742 C 0.2879 0.98803 0.62971 0.0
C1743 C 0.28169 0.01199 0.62538 0.0
C1744 C 0.27059 0.9708 0.63465 0.0
C1745 C 0.24625 0.97675 0.63608 0.0
H1746 H 0.30635 0.9823 0.62867 0.0
H1747 H 0.2765 0.95267 0.63798 0.0
S1748 S 0.22039 0.03696 0.6266 0.0
N1749 N 0.24937 0.0408 0.62248 0.0
N1750 N 0.21671 0.00841 0.63313 0.0
C1751 C 0.23967 1.00069 0.63216 0.0
C1752 C 0.25738 0.01826 0.6264 0.0
C1753 C 0.24376 0.01515 0.89407 0.0
C1754 C 0.24669 0.03054 0.87454 0.0
C1755 C 0.26111 0.99772 0.89937 0.0
C1756 C 0.28209 0.99532 0.88549 0.0
H1757 H 0.22833 0.01696 0.90558 0.0
H1758 H 0.25852 0.98681 0.91513 0.0
S1759 S 0.29691 0.03084 0.83144 0.0
N1760 N 0.27108 0.04174 0.84056 0.0
N1761 N 0.30369 0.00933 0.85044 0.0
C1762 C 0.28458 0.01021 0.86538 0.0
C1763 C 0.26689 0.02775 0.85997 0.0
C1764 C 0.63054 0.28803 0.98402 0.0
C1765 C 0.62863 0.28211 0.00838 0.0
C1766 C 0.63553 0.27071 0.96674 0.0
C1767 C 0.6394 0.24667 0.97299 0.0
H1768 H 0.62754 0.3062 0.97807 0.0
H1769 H 0.63692 0.27642 0.9483 0.0
S1770 S 0.63669 0.22174 0.03433 0.0
N1771 N 0.6306 0.2504 0.03792 0.0
N1772 N 0.64121 0.21784 0.00541 0.0
C1773 C 0.63782 0.24044 0.99732 0.0
C1774 C 0.63207 0.25812 0.01498 0.0
C1775 C 0.01489 0.37887 0.248 0.0
C1776 C 0.00867 0.38581 0.22466 0.0
C1777 C 0.99718 0.37295 0.26493 0.0
C1778 C 0.97266 0.37463 0.25934 0.0
H1779 H 0.03351 0.37763 0.25306 0.0
H1780 H 1.00271 0.36699 0.28248 0.0
S1781 S 0.94726 0.39374 0.20096 0.0
N1782 N 0.97641 0.39506 0.19715 0.0
N1783 N 0.94339 0.38456 0.22868 0.0
C1784 C 0.96638 0.3823 0.23618 0.0
C1785 C 0.9843 0.38773 0.21894 0.0
C1786 C 0.88397 0.71922 0.48934 0.0
C1787 C 0.88583 0.72533 0.51363 0.0
C1788 C 0.87912 0.73641 0.47191 0.0
C1789 C 0.87531 0.76051 0.47795 0.0
H1790 H 0.88689 0.70098 0.48354 0.0
H1791 H 0.87783 0.73057 0.4535 0.0
S1792 S 0.87772 0.78595 0.53905 0.0
N1793 N 0.88378 0.75731 0.54291 0.0
N1794 N 0.8733 0.78962 0.51007 0.0
C1795 C 0.8767 0.76694 0.50221 0.0
C1796 C 0.88238 0.7494 0.52003 0.0
C1797 C 0.0144 0.62905 0.26513 0.0
C1798 C 0.00796 0.6227 0.28858 0.0
C1799 C 0.99691 0.63489 0.24796 0.0
C1800 C 0.9723 0.63388 0.25337 0.0
H1801 H 0.03306 0.62985 0.26013 0.0
H1802 H 1.00276 0.64039 0.23036 0.0
S1803 S 0.94624 0.61586 0.31179 0.0
N1804 N 0.97534 0.6143 0.31591 0.0
N1805 N 0.94272 0.62472 0.28392 0.0
C1806 C 0.96577 0.62669 0.27662 0.0
C1807 C 0.9835 0.62127 0.29412 0.0
C1808 C 0.51447 0.39951 0.77244 0.0
C1809 C 0.49498 0.38444 0.77714 0.0
C1810 C 0.53177 0.39345 0.7554 0.0
C1811 C 0.53018 0.37211 0.74217 0.0
H1812 H 0.51688 0.41573 0.78275 0.0
H1813 H 0.54696 0.40521 0.75322 0.0
S1814 S 0.48115 0.32751 0.74663 0.0
N1815 N 0.4741 0.34808 0.76659 0.0
N1816 N 0.50628 0.33658 0.7341 0.0
C1817 C 0.50995 0.35747 0.7459 0.0
C1818 C 0.49247 0.3636 0.76356 0.0
C1819 C 0.52082 0.63187 0.72174 0.0
C1820 C 0.49671 0.62903 0.72817 0.0
C1821 C 0.53831 0.63701 0.73875 0.0
C1822 C 0.53251 0.64011 0.76299 0.0
H1823 H 0.52645 0.62948 0.70337 0.0
H1824 H 0.55656 0.63905 0.73266 0.0
S1825 S 0.47193 0.63525 0.78927 0.0
N1826 N 0.46785 0.62955 0.76058 0.0
N1827 N 0.50078 0.64055 0.79261 0.0
C1828 C 0.50841 0.6378 0.76976 0.0
C1829 C 0.49054 0.63184 0.75238 0.0
C1830 C 0.88152 0.27014 0.04032 0.0
C1831 C 0.87434 0.24696 0.03373 0.0
C1832 C 0.88657 0.28758 0.02319 0.0
C1833 C 0.88524 0.28261 0.99862 0.0
H1834 H 0.88248 0.27526 0.05896 0.0
H1835 H 0.89178 0.30519 0.02931 0.0
S1836 S 0.86869 0.22457 0.97155 0.0
N1837 N 0.86662 0.21985 1.00063 0.0
N1838 N 0.87734 0.25261 0.96834 0.0
C1839 C 0.87896 0.25937 0.99158 0.0
C1840 C 0.87314 0.2416 0.00914 0.0
C1841 C 0.61106 0.74564 0.50703 0.0
C1842 C 0.62773 0.72863 0.49869 0.0
C1843 C 0.61723 0.76247 0.52465 0.0
C1844 C 0.64046 0.76334 0.53394 0.0
H1845 H 0.59277 0.74519 0.50076 0.0
H1846 H 0.6037 0.77463 0.53124 0.0
S1847 S 0.69099 0.7238 0.51753 0.0
N1848 N 0.66854 0.71416 0.50097 0.0
N1849 N 0.68039 0.74644 0.53319 0.0
C1850 C 0.65749 0.74709 0.52517 0.0
C1851 C 0.65107 0.72957 0.50777 0.0
C1852 C 0.74765 0.49217 0.63179 0.0
C1853 C 0.72424 0.49875 0.62537 0.0
C1854 C 0.76499 0.50963 0.6373 0.0
C1855 C 0.75974 0.5342 0.63555 0.0
H1856 H 0.75248 0.47348 0.63281 0.0
H1857 H 0.78262 0.50389 0.6428 0.0
S1858 S 0.70122 0.56051 0.6182 0.0
N1859 N 0.69695 0.53141 0.61696 0.0
N1860 N 0.72923 0.56394 0.62659 0.0
C1861 C 0.73644 0.54083 0.62862 0.0
C1862 C 0.7188 0.52319 0.62369 0.0
C1863 C 0.73546 0.4704 0.87632 0.0
C1864 C 0.75965 0.4762 0.87277 0.0
C1865 C 0.71839 0.48798 0.88109 0.0
C1866 C 0.72473 0.5122 0.88312 0.0
H1867 H 0.7295 0.45203 0.875 0.0
H1868 H 0.70011 0.48235 0.88399 0.0
S1869 S 0.78562 0.53703 0.87518 0.0
N1870 N 0.78904 0.50803 0.87082 0.0
N1871 N 0.757 0.54116 0.88109 0.0
C1872 C 0.74887 0.51837 0.87966 0.0
C1873 C 0.76627 0.50039 0.87409 0.0
C1874 C 0.74235 0.4961 0.13375 0.0
C1875 C 0.74885 0.47396 0.14356 0.0
C1876 C 0.75987 0.51319 0.12779 0.0
C1877 C 0.78442 0.50897 0.132 0.0
H1878 H 0.72378 0.49989 0.12993 0.0
H1879 H 0.75414 0.52958 0.11927 0.0
S1880 S 0.80984 0.45459 0.16052 0.0
N1881 N 0.7809 0.44933 0.15911 0.0
N1882 N 0.81359 0.48136 0.14881 0.0
C1883 C 0.79074 0.4873 0.14319 0.0
C1884 C 0.77303 0.46983 0.14871 0.0
C1885 C 0.78945 0.52218 0.37813 0.0
C1886 C 0.7833 0.49814 0.38206 0.0
C1887 C 0.77209 0.53947 0.37333 0.0
C1888 C 0.74775 0.53351 0.37168 0.0
H1889 H 0.80787 0.52796 0.37944 0.0
H1890 H 0.77794 0.55769 0.37043 0.0
S1891 S 0.72208 0.47301 0.37969 0.0
N1892 N 0.75103 0.46919 0.38401 0.0
N1893 N 0.71835 0.50167 0.37371 0.0
C1894 C 0.74126 0.50946 0.37503 0.0
C1895 C 0.75901 0.49183 0.38061 0.0
C1896 C 0.10139 0.22317 0.18836 0.0
C1897 C 0.1065 0.24743 0.18445 0.0
C1898 C 0.101 0.2136 0.21139 0.0
C1899 C 0.10603 0.2278 0.23147 0.0
H1900 H 0.0983 0.21123 0.17345 0.0
H1901 H 0.09722 0.19474 0.21344 0.0
S1902 S 0.11614 0.29308 0.2316 0.0
N1903 N 0.11287 0.28622 0.20308 0.0
N1904 N 0.11369 0.2677 0.24643 0.0
C1905 C 0.10985 0.25229 0.2281 0.0
C1906 C 0.1098 0.26223 0.20456 0.0
C1907 C 0.00851 0.88581 0.45757 0.0
C1908 C 0.00913 0.86637 0.44166 0.0
C1909 C 0.01711 0.88355 0.48096 0.0
C1910 C 0.0266 0.86183 0.48909 0.0
H1911 H 1.00301 0.9033 0.45142 0.0
H1912 H 0.01793 0.89929 0.49219 0.0
S1913 S 0.03119 0.80542 0.45485 0.0
N1914 N 0.01885 0.82449 0.43602 0.0
N1915 N 0.03529 0.82034 0.47996 0.0
C1916 C 0.02618 0.84198 0.47381 0.0
C1917 C 0.01748 0.84427 0.45002 0.0
C1918 C 0.40503 0.78893 0.68787 0.0
C1919 C 0.40196 0.76429 0.68424 0.0
C1920 C 0.40568 0.79862 0.71085 0.0
C1921 C 0.40301 0.78411 0.73117 0.0
H1922 H 0.4063 0.801 0.6728 0.0
H1923 H 0.40796 0.81773 0.7127 0.0
S1924 S 0.39874 0.71817 0.73175 0.0
N1925 N 0.39984 0.72519 0.70311 0.0
N1926 N 0.3998 0.74373 0.74647 0.0
C1927 C 0.40127 0.75935 0.72798 0.0
C1928 C 0.40095 0.74936 0.70446 0.0
C1929 C 0.49225 0.13452 0.97725 0.0
C1930 C 0.481 0.15545 0.98521 0.0
C1931 C 0.50057 0.13254 0.95373 0.0
C1932 C 0.4982 0.15157 0.93746 0.0
H1933 H 0.49317 0.11904 0.98882 0.0
H1934 H 0.50741 0.11543 0.94791 0.0
S1935 S 0.47036 0.21038 0.94992 0.0
N1936 N 0.46796 0.19558 0.97531 0.0
N1937 N 0.48438 0.19227 0.93131 0.0
C1938 C 0.48778 0.17293 0.94558 0.0
C1939 C 0.4791 0.17483 0.96945 0.0
C1940 C 0.12766 0.75778 0.30507 0.0
C1941 C 0.10911 0.76115 0.32172 0.0
C1942 C 0.12541 0.76568 0.28141 0.0
C1943 C 0.10474 0.77759 0.27373 0.0
H1944 H 0.14467 0.7505 0.31066 0.0
H1945 H 0.14059 0.76403 0.26953 0.0
S1946 S 0.05089 0.79042 0.30996 0.0
N1947 N 0.06897 0.77621 0.32843 0.0
N1948 N 0.06522 0.79196 0.28423 0.0
C1949 C 0.08576 0.78032 0.28986 0.0
C1950 C 0.0879 0.77201 0.31384 0.0
C1951 C 0.48694 0.87693 0.52991 0.0
C1952 C 0.47772 0.85471 0.52286 0.0
C1953 C 0.49636 0.88022 0.55288 0.0
C1954 C 0.49683 0.86136 0.56946 0.0
H1955 H 0.48535 0.89223 0.51817 0.0
H1956 H 0.50161 0.89805 0.55821 0.0
S1957 S 0.4758 0.79947 0.55914 0.0
N1958 N 0.47041 0.8134 0.5337 0.0
N1959 N 0.48833 0.81947 0.57684 0.0
C1960 C 0.4887 0.83879 0.56216 0.0
C1961 C 0.47917 0.83545 0.53879 0.0
C1962 C 0.37148 0.24954 0.7997 0.0
C1963 C 0.39125 0.24993 0.81519 0.0
C1964 C 0.37355 0.24048 0.77644 0.0
C1965 C 0.39544 0.23162 0.76802 0.0
H1966 H 0.35393 0.25451 0.80614 0.0
H1967 H 0.35762 0.23883 0.76558 0.0
S1968 S 0.45269 0.22988 0.80112 0.0
N1969 N 0.43357 0.24193 0.82008 0.0
N1970 N 0.4374 0.22468 0.77644 0.0
C1971 C 0.41558 0.23314 0.78285 0.0
C1972 C 0.41347 0.24228 0.80649 0.0
C1973 C 0.02238 0.12442 0.03106 0.0
C1974 C 0.02909 0.14676 0.02191 0.0
C1975 C 0.01282 0.12239 0.05408 0.0
C1976 C 0.00972 0.14266 0.06858 0.0
H1977 H 0.02605 0.10832 0.02098 0.0
H1978 H 0.00954 0.1047 0.06117 0.0
S1979 S 0.02373 0.20522 0.05243 0.0
N1980 N 0.03136 0.18955 0.02863 0.0
N1981 N 0.01311 0.18575 0.07187 0.0
C1982 C 0.01535 0.16517 0.05918 0.0
C1983 C 0.02502 0.16725 0.03577 0.0
C1984 C 0.22506 0.09101 0.2364 0.0
C1985 C 0.23983 0.11101 0.23311 0.0
C1986 C 0.20181 0.09359 0.24533 0.0
C1987 C 0.19276 0.1162 0.25142 0.0
H1988 H 0.23083 0.07356 0.23034 0.0
H1989 H 0.19043 0.07798 0.24636 0.0
S1990 S 0.22474 0.17396 0.2464 0.0
N1991 N 0.24431 0.15385 0.23733 0.0
N1992 N 0.20052 0.15885 0.25376 0.0
C1993 C 0.20782 0.13615 0.24929 0.0
C1994 C 0.23145 0.13349 0.24028 0.0
C1995 C 0.12841 0.95476 0.49371 0.0
C1996 C 0.14755 0.93857 0.49562 0.0
C1997 C 0.13152 0.97727 0.48322 0.0
C1998 C 0.15384 0.9844 0.47434 0.0
H1999 H 0.11056 0.94953 0.49883 0.0
H2000 H 0.11608 0.98869 0.48085 0.0
S2001 S 0.20982 0.94921 0.47569 0.0
N2002 N 0.18986 0.93178 0.48862 0.0
N2003 N 0.19549 0.97396 0.46851 0.0
C2004 C 0.17331 0.96886 0.47692 0.0
C2005 C 0.17019 0.94595 0.4876 0.0
C2006 C 0.30719 0.91945 0.74539 0.0
C2007 C 0.31485 0.89675 0.75289 0.0
C2008 C 0.28392 0.92305 0.7369 0.0
C2009 C 0.26766 0.90401 0.73557 0.0
H2010 H 0.31968 0.93421 0.74483 0.0
H2011 H 0.27928 0.94033 0.72952 0.0
S2012 S 0.27862 0.84133 0.75338 0.0
N2013 N 0.30413 0.85509 0.75876 0.0
N2014 N 0.26021 0.86211 0.74344 0.0
C2015 C 0.27459 0.88163 0.74443 0.0
C2016 C 0.2983 0.87789 0.75286 0.0
C2017 C 0.383 0.05225 0.99997 0.0
C2018 C 0.36396 0.06865 1.00046 0.0
C2019 C 0.37983 0.02903 0.99119 0.0
C2020 C 0.35759 0.02149 0.98245 0.0
H2021 H 0.40089 0.05773 1.00462 0.0
H2022 H 0.39527 0.01748 0.98957 0.0
S2023 S 0.30166 0.05676 0.98125 0.0
N2024 N 0.32162 0.07496 0.99308 0.0
N2025 N 0.31598 0.03157 0.9758 0.0
C2026 C 0.33813 0.03716 0.98398 0.0
C2027 C 0.34127 0.06073 0.99309 0.0
C2028 C 0.23073 0.87618 0.26776 0.0
C2029 C 0.23886 0.8978 0.2775 0.0
C2030 C 0.20725 0.87392 0.25936 0.0
C2031 C 0.19125 0.89328 0.26031 0.0
H2032 H 0.24205 0.8605 0.2682 0.0
H2033 H 0.20117 0.85647 0.25369 0.0
S2034 S 0.20442 0.954 0.28314 0.0
N2035 N 0.22958 0.93909 0.2869 0.0
N2036 N 0.1856 0.93504 0.27064 0.0
C2037 C 0.19961 0.9153 0.26894 0.0
C2038 C 0.22345 0.91756 0.27754 0.0
C2039 C 0.33717 0.96711 0.5282 0.0
C2040 C 0.35739 0.98133 0.53251 0.0
C2041 C 0.33948 0.94391 0.51901 0.0
C2042 C 0.36206 0.93426 0.51375 0.0
H2043 H 0.3196 0.9734 0.53328 0.0
H2044 H 0.32357 0.93314 0.51679 0.0
S2045 S 0.42045 0.96434 0.52228 0.0
N2046 N 0.40052 0.98444 0.53055 0.0
N2047 N 0.405 0.94065 0.51396 0.0
C2048 C 0.38234 0.94858 0.5174 0.0
C2049 C 0.37995 0.9722 0.52658 0.0
C2050 C 0.28788 0.08872 0.77802 0.0
C2051 C 0.27379 0.10879 0.78335 0.0
C2052 C 0.31046 0.09134 0.76752 0.0
C2053 C 0.31956 0.11406 0.76189 0.0
H2054 H 0.28204 0.07106 0.78331 0.0
H2055 H 0.32127 0.07555 0.76464 0.0
S2056 S 0.28935 0.17207 0.77247 0.0
N2057 N 0.27007 0.15188 0.78192 0.0
N2058 N 0.31264 0.15694 0.76258 0.0
C2059 C 0.30523 0.13417 0.76642 0.0
C2060 C 0.28228 0.13147 0.77706 0.0
C2061 C 0.1715 0.04147 0.03062 0.0
C2062 C 0.1514 0.0273 0.03556 0.0
C2063 C 0.169 0.06427 0.0205 0.0
C2064 C 0.14635 0.0736 0.01491 0.0
H2065 H 0.18913 0.03549 0.03588 0.0
H2066 H 0.18486 0.07501 0.0178 0.0
S2067 S 0.08819 0.04341 0.0248 0.0
N2068 N 0.10829 0.02381 0.03381 0.0
N2069 N 0.10344 0.06686 0.01553 0.0
C2070 C 0.12618 0.05927 0.0192 0.0
C2071 C 0.12877 0.03604 0.02933 0.0
C2072 C 0.24292 0.19975 0.09343 0.0
C2073 C 0.24663 0.19017 0.11635 0.0
C2074 C 0.23247 0.2223 0.09043 0.0
C2075 C 0.22522 0.23582 0.11027 0.0
H2076 H 0.2473 0.18935 0.07771 0.0
H2077 H 0.22869 0.22851 0.07249 0.0
S2078 S 0.23098 0.21892 0.17395 0.0
N2079 N 0.24234 0.19607 0.15918 0.0
N2080 N 0.22302 0.23858 0.15346 0.0
C2081 C 0.22966 0.22688 0.13325 0.0
C2082 C 0.24029 0.20398 0.13633 0.0
C2083 C 0.71467 0.29445 0.91043 0.0
C2084 C 0.72886 0.27451 0.90488 0.0
C2085 C 0.724 0.31754 0.90964 0.0
C2086 C 0.74801 0.32165 0.90362 0.0
H2087 H 0.69592 0.29224 0.91463 0.0
H2088 H 0.71197 0.33233 0.91295 0.0
S2089 S 0.79383 0.27489 0.89306 0.0
N2090 N 0.76866 0.25984 0.89627 0.0
N2091 N 0.78681 0.30336 0.89636 0.0
C2092 C 0.76293 0.30168 0.90013 0.0
C2093 C 0.75322 0.27806 0.90047 0.0
C2094 C 0.98077 0.4944 0.13656 0.0
C2095 C 0.98721 0.48132 0.15696 0.0
C2096 C 0.95721 0.50213 0.13317 0.0
C2097 C 0.93936 0.49706 0.15013 0.0
H2098 H 0.99362 0.49709 0.12234 0.0
H2099 H 0.95264 0.51051 0.11635 0.0
S2100 S 0.94759 0.46429 0.20708 0.0
N2101 N 0.97434 0.46433 0.19469 0.0
N2102 N 0.93009 0.47921 0.1886 0.0
C2103 C 0.94594 0.48503 0.17116 0.0
C2104 C 0.96989 0.47717 0.17457 0.0
C2105 C 0.76692 0.6981 0.41548 0.0
C2106 C 0.76199 0.68864 0.39276 0.0
C2107 C 0.77696 0.7209 0.41803 0.0
C2108 C 0.78268 0.73472 0.39789 0.0
H2109 H 0.76391 0.6874 0.43132 0.0
H2110 H 0.78176 0.72704 0.43574 0.0
S2111 S 0.77313 0.71823 0.33458 0.0
N2112 N 0.76323 0.69502 0.34983 0.0
N2113 N 0.78202 0.73788 0.35469 0.0
C2114 C 0.77692 0.72589 0.37517 0.0
C2115 C 0.76663 0.70279 0.37256 0.0
C2116 C 0.04603 0.04835 0.16308 0.0
C2117 C 0.02586 0.03384 0.15972 0.0
C2118 C 0.06906 0.03902 0.16124 0.0
C2119 C 0.0729 0.01472 0.1562 0.0
H2120 H 0.04399 0.06731 0.1664 0.0
H2121 H 0.08399 0.05119 0.16303 0.0
S2122 S 0.0258 0.96839 0.15083 0.0
N2123 N 0.01086 0.99364 0.15405 0.0
N2124 N 0.05439 0.97563 0.15175 0.0
C2125 C 0.05283 0.99963 0.15464 0.0
C2126 C 0.02923 0.0093 0.15623 0.0
C2127 C 0.27317 0.78751 0.5958 0.0
C2128 C 0.28116 0.77471 0.61586 0.0
C2129 C 0.26328 0.81038 0.5983 0.0
C2130 C 0.26081 0.82097 0.62093 0.0
H2131 H 0.27603 0.7805 0.57799 0.0
H2132 H 0.25843 0.82025 0.58238 0.0
S2133 S 0.27852 0.79442 0.67894 0.0
N2134 N 0.28524 0.77375 0.65899 0.0
N2135 N 0.26688 0.81683 0.66371 0.0
C2136 C 0.26779 0.8079 0.64117 0.0
C2137 C 0.27788 0.78468 0.63861 0.0
C2138 C 0.94118 0.53804 0.35287 0.0
C2139 C 0.93702 0.51372 0.35747 0.0
C2140 C 0.96434 0.54705 0.35106 0.0
C2141 C 0.98432 0.53217 0.35404 0.0
H2142 H 0.92643 0.55047 0.35139 0.0
H2143 H 0.96664 0.56602 0.34801 0.0
S2144 S 0.98345 0.46656 0.36156 0.0
N2145 N 0.95497 0.47426 0.36096 0.0
N2146 N 0.99875 0.49164 0.35878 0.0
C2147 C 0.9806 0.50762 0.35705 0.0
C2148 C 0.95687 0.49829 0.35859 0.0
C2149 C 0.53241 0.48631 0.87619 0.0
C2150 C 0.52561 0.47633 0.85421 0.0
C2151 C 0.55506 0.49653 0.87919 0.0
C2152 C 0.57167 0.49686 0.86034 0.0
H2153 H 0.52063 0.48501 0.89148 0.0
H2154 H 0.56015 0.50271 0.89681 0.0
S2155 S 0.56211 0.47345 0.79915 0.0
N2156 N 0.53677 0.46791 0.81318 0.0
N2157 N 0.57944 0.48705 0.81879 0.0
C2158 C 0.5647 0.48768 0.83805 0.0
C2159 C 0.54159 0.47747 0.83497 0.0
C2160 C 0.62831 0.74392 0.72977 0.0
C2161 C 0.60672 0.73385 0.73755 0.0
C2162 C 0.63081 0.75249 0.70637 0.0
C2163 C 0.61173 0.75142 0.69005 0.0
H2164 H 0.64384 0.74359 0.74131 0.0
H2165 H 0.64829 0.75841 0.70061 0.0
S2166 S 0.55116 0.72769 0.70219 0.0
N2167 N 0.56572 0.72398 0.72758 0.0
N2168 N 0.57022 0.74054 0.68372 0.0
C2169 C 0.58971 0.74243 0.69804 0.0
C2170 C 0.58721 0.73365 0.72183 0.0
C2171 C 0.51478 0.35905 0.97378 0.0
C2172 C 0.53734 0.34889 0.9774 0.0
C2173 C 0.50509 0.36091 0.95069 0.0
C2174 C 0.51797 0.35332 0.93036 0.0
H2175 H 0.50491 0.36627 0.98877 0.0
H2176 H 0.48751 0.36854 0.94904 0.0
S2177 S 0.57675 0.32221 0.93152 0.0
N2178 N 0.57103 0.32826 0.95978 0.0
N2179 N 0.55375 0.33268 0.91634 0.0
C2180 C 0.54 0.34163 0.93425 0.0
C2181 C 0.54948 0.33928 0.95775 0.0
C2182 C 0.91775 0.274 0.22331 0.0
C2183 C 0.8974 0.27824 0.23738 0.0
C2184 C 0.91563 0.26472 0.20014 0.0
C2185 C 0.89315 0.25929 0.19038 0.0
H2186 H 0.93522 0.27941 0.22959 0.0
H2187 H 0.9316 0.26277 0.18939 0.0
S2188 S 0.83455 0.26701 0.22031 0.0
N2189 N 0.85431 0.27558 0.24046 0.0
N2190 N 0.85018 0.25882 0.19669 0.0
C2191 C 0.87278 0.26255 0.20469 0.0
C2192 C 0.87497 0.2718 0.2283 0.0
C2193 C 0.99204 0.63007 0.48313 0.0
C2194 C 0.98061 0.65136 0.4898 0.0
C2195 C 1.00054 0.62686 0.4598 0.0
C2196 C 0.99796 0.64491 0.44251 0.0
H2197 H 0.99288 0.61524 0.49552 0.0
H2198 H 0.00757 0.60953 0.45488 0.0
S2199 S 0.97036 0.70437 0.45159 0.0
N2200 N 0.96788 0.69101 0.47778 0.0
N2201 N 0.98429 0.68519 0.43402 0.0
C2202 C 0.98762 0.6667 0.44938 0.0
C2203 C 0.97893 0.66992 0.47307 0.0
C2204 C 0.59497 0.26379 0.80765 0.0
C2205 C 0.61773 0.25942 0.81726 0.0
C2206 C 0.59235 0.27306 0.78452 0.0
C2207 C 0.61246 0.27853 0.77056 0.0
H2208 H 0.57918 0.26103 0.81848 0.0
H2209 H 0.57463 0.27762 0.77826 0.0
S2210 S 0.6758 0.27011 0.78734 0.0
N2211 N 0.66063 0.26078 0.81085 0.0
N2212 N 0.65562 0.27817 0.7674 0.0
C2213 C 0.6352 0.2732 0.77953 0.0
C2214 C 0.63788 0.2637 0.80295 0.0
C2215 C 0.98392 0.38393 0.0326 0.0
C2216 C 0.97686 0.36148 0.02394 0.0
C2217 C 0.99415 0.38631 0.05533 0.0
C2218 C 0.99745 0.36631 0.07016 0.0
H2219 H 0.98022 0.39987 0.02228 0.0
H2220 H 0.9978 0.4041 0.06189 0.0
S2221 S 0.98289 0.30349 0.05519 0.0
N2222 N 0.97462 0.31884 0.03141 0.0
N2223 N 0.99404 0.32324 0.07406 0.0
C2224 C 0.99144 0.34366 0.06121 0.0
C2225 C 0.98114 0.34124 0.03806 0.0
C2226 C 0.90166 0.75103 0.28125 0.0
C2227 C 0.91032 0.72808 0.27641 0.0
C2228 C 0.90004 0.75938 0.30487 0.0
C2229 C 0.90634 0.74476 0.32443 0.0
H2230 H 0.89542 0.76227 0.26679 0.0
H2231 H 0.89357 0.77732 0.30759 0.0
S2232 S 0.93262 0.68388 0.32024 0.0
N2233 N 0.92771 0.69176 0.29228 0.0
N2234 N 0.92373 0.70672 0.33663 0.0
C2235 C 0.91637 0.72219 0.31942 0.0
C2236 C 0.91847 0.714 0.29543 0.0
C2237 C 0.55008 0.65801 0.55077 0.0
C2238 C 0.53657 0.65506 0.52983 0.0
C2239 C 0.53952 0.65647 0.57327 0.0
C2240 C 0.51492 0.65224 0.57584 0.0
H2241 H 0.56911 0.66127 0.54979 0.0
H2242 H 0.55093 0.65812 0.58881 0.0
S2243 S 0.471 0.64769 0.52639 0.0
N2244 N 0.49705 0.65021 0.51278 0.0
N2245 N 0.47676 0.64854 0.55533 0.0
C2246 C 0.50088 0.65081 0.55501 0.0
C2247 C 0.51181 0.65205 0.53194 0.0
C2248 C 0.7016 0.63603 0.74335 0.0
C2249 C 0.68688 0.61597 0.74673 0.0
C2250 C 0.72449 0.63366 0.73356 0.0
C2251 C 0.73337 0.61119 0.72689 0.0
H2252 H 0.69488 0.65381 0.7469 0.0
H2253 H 0.73483 0.64962 0.72999 0.0
S2254 S 0.70205 0.55318 0.73239 0.0
N2255 N 0.68299 0.57292 0.74323 0.0
N2256 N 0.72596 0.56852 0.72451 0.0
C2257 C 0.71918 0.59093 0.73089 0.0
C2258 C 0.69588 0.59333 0.74081 0.0
C2259 C 0.65829 0.46266 0.95855 0.0
C2260 C 0.65664 0.48266 0.9736 0.0
C2261 C 0.65639 0.43954 0.96757 0.0
C2262 C 0.6532 0.43536 0.99213 0.0
H2263 H 0.66052 0.46489 0.93946 0.0
H2264 H 0.65677 0.42485 0.95499 0.0
S2265 S 0.65328 0.4817 0.03959 0.0
N2266 N 0.65476 0.49702 0.01442 0.0
N2267 N 0.65271 0.45324 0.0318 0.0
C2268 C 0.65353 0.45517 0.00766 0.0
C2269 C 0.65502 0.47891 0.9983 0.0
C2270 C 0.80082 0.37458 0.25079 0.0
C2271 C 0.81598 0.39464 0.25123 0.0
C2272 C 0.77748 0.37619 0.24193 0.0
C2273 C 0.76857 0.39784 0.23299 0.0
H2274 H 0.8074 0.35711 0.25566 0.0
H2275 H 0.7669 0.36006 0.24048 0.0
S2276 S 0.80035 0.45581 0.23107 0.0
N2277 N 0.8197 0.43718 0.24324 0.0
N2278 N 0.77613 0.43989 0.22576 0.0
C2279 C 0.78304 0.41824 0.23427 0.0
C2280 C 0.80671 0.41668 0.24349 0.0
C2281 C 0.88093 0.55539 0.49755 0.0
C2282 C 0.86162 0.57145 0.49845 0.0
C2283 C 0.8783 0.53262 0.48745 0.0
C2284 C 0.85631 0.52518 0.47798 0.0
H2285 H 0.89855 0.56096 0.50323 0.0
H2286 H 0.89388 0.52126 0.48581 0.0
S2287 S 0.80018 0.56013 0.47658 0.0
N2288 N 0.81961 0.57796 0.48979 0.0
N2289 N 0.81482 0.53527 0.47052 0.0
C2290 C 0.83667 0.54065 0.47958 0.0
C2291 C 0.83933 0.56381 0.48982 0.0
C2292 C 0.70043 0.37446 0.76625 0.0
C2293 C 0.68673 0.39516 0.76226 0.0
C2294 C 0.72321 0.37582 0.77653 0.0
C2295 C 0.73305 0.3979 0.78311 0.0
H2296 H 0.69305 0.35696 0.76283 0.0
H2297 H 0.73272 0.35943 0.78043 0.0
S2298 S 0.7048 0.45734 0.77609 0.0
N2299 N 0.68505 0.43844 0.76504 0.0
N2300 N 0.72765 0.4409 0.78484 0.0
C2301 C 0.71992 0.41877 0.7786 0.0
C2302 C 0.69676 0.4174 0.76812 0.0
C2303 C 0.85961 0.45511 1.00271 0.0
C2304 C 0.85348 0.43491 0.0165 0.0
C2305 C 0.85782 0.47833 0.01207 0.0
C2306 C 0.84927 0.48212 0.03528 0.0
H2307 H 0.86599 0.45316 0.98463 0.0
H2308 H 0.86375 0.49331 1.00137 0.0
S2309 S 0.82761 0.4363 0.07773 0.0
N2310 N 0.83652 0.42098 0.05417 0.0
N2311 N 0.83223 0.46459 0.071 0.0
C2312 C 0.84143 0.46245 0.04861 0.0
C2313 C 0.84366 0.43887 0.03938 0.0
C2314 C 0.77572 0.62873 0.26541 0.0
C2315 C 0.76937 0.60749 0.27712 0.0
C2316 C 0.79924 0.63262 0.25781 0.0
C2317 C 0.81705 0.61531 0.26158 0.0
H2318 H 0.76291 0.64315 0.26391 0.0
H2319 H 0.80384 0.65 0.25069 0.0
S2320 S 0.80894 0.55608 0.28993 0.0
N2321 N 0.78223 0.56852 0.29105 0.0
N2322 N 0.82637 0.57559 0.27633 0.0
C2323 C 0.81052 0.59345 0.27196 0.0
C2324 C 0.78663 0.58953 0.27973 0.0
C2325 C 0.63744 0.53266 0.51845 0.0
C2326 C 0.65765 0.52548 0.53139 0.0
C2327 C 0.63503 0.55625 0.51046 0.0
C2328 C 0.65287 0.57338 0.51496 0.0
H2329 H 0.62274 0.52037 0.51586 0.0
H2330 H 0.61837 0.56139 0.50212 0.0
S2331 S 0.70941 0.56318 0.5479 0.0
N2332 N 0.69585 0.537 0.5483 0.0
N2333 N 0.69169 0.58124 0.53272 0.0
C2334 C 0.67355 0.56611 0.52719 0.0
C2335 C 0.67592 0.54213 0.53545 0.0
C2336 C 0.75921 0.70646 0.61497 0.0
C2337 C 0.74591 0.68663 0.60691 0.0
C2338 C 0.74966 0.72964 0.61447 0.0
C2339 C 0.72676 0.73377 0.60532 0.0
H2340 H 0.77706 0.70428 0.62189 0.0
H2341 H 0.75996 0.74427 0.6218 0.0
S2342 S 0.68616 0.68933 0.57794 0.0
N2343 N 0.70938 0.67361 0.587 0.0
N2344 N 0.69225 0.71726 0.58505 0.0
C2345 C 0.7141 0.71464 0.59533 0.0
C2346 C 0.7235 0.69106 0.59626 0.0
C2347 C 0.23056 0.78996 0.42153 0.0
C2348 C 0.22851 0.77424 0.40207 0.0
C2349 C 0.24007 0.81293 0.41853 0.0
C2350 C 0.24793 0.82084 0.39603 0.0
H2351 H 0.22337 0.78505 0.43881 0.0
H2352 H 0.24032 0.82495 0.43369 0.0
S2353 S 0.24656 0.78606 0.33961 0.0
N2354 N 0.23585 0.76758 0.35993 0.0
N2355 N 0.25301 0.81098 0.354 0.0
C2356 C 0.24684 0.80487 0.37666 0.0
C2357 C 0.23736 0.78145 0.37979 0.0
C2358 C 0.46089 0.96126 0.65874 0.0
C2359 C 0.48125 0.97559 0.65573 0.0
C2360 C 0.43798 0.97091 0.65702 0.0
C2361 C 0.43448 0.99534 0.65246 0.0
H2362 H 0.46268 0.94225 0.66189 0.0
H2363 H 0.42288 0.95893 0.6586 0.0
S2364 S 0.48212 0.04118 0.64795 0.0
N2365 N 0.49675 0.01571 0.65082 0.0
N2366 N 0.45345 0.03427 0.64865 0.0
C2367 C 0.45473 0.0102 0.65115 0.0
C2368 C 0.47819 1.00023 0.65265 0.0
C2369 C 0.29748 0.21179 0.91038 0.0
C2370 C 0.28261 0.23183 0.90777 0.0
C2371 C 0.28835 0.18864 0.90888 0.0
C2372 C 0.26391 0.18455 0.9049 0.0
H2373 H 0.31652 0.21403 0.91297 0.0
H2374 H 0.30073 0.17383 0.9101 0.0
S2375 S 0.21685 0.23114 0.90167 0.0
N2376 N 0.24202 0.24637 0.90389 0.0
N2377 N 0.22446 0.20263 0.90217 0.0
C2378 C 0.24854 0.20446 0.90404 0.0
C2379 C 0.25799 0.22818 0.90532 0.0
C2380 C 0.55407 0.51472 0.62838 0.0
C2381 C 0.57029 0.51287 0.6475 0.0
C2382 C 0.53133 0.52473 0.63165 0.0
C2383 C 0.52399 0.53313 0.65412 0.0
H2384 H 0.55943 0.50999 0.61045 0.0
H2385 H 0.51991 0.52717 0.61622 0.0
S2386 S 0.55914 0.53146 0.71014 0.0
N2387 N 0.57684 0.51923 0.68997 0.0
N2388 N 0.53427 0.5384 0.6959 0.0
C2389 C 0.53956 0.53048 0.67357 0.0
C2390 C 0.56269 0.52032 0.67028 0.0
C2391 C 0.76521 0.30959 0.09327 0.0
C2392 C 0.75909 0.31851 0.11593 0.0
C2393 C 0.77439 0.28645 0.09056 0.0
C2394 C 0.77787 0.27158 0.11047 0.0
H2395 H 0.76386 0.32095 0.07766 0.0
H2396 H 0.78033 0.28079 0.07303 0.0
S2397 S 0.76466 0.28627 0.17356 0.0
N2398 N 0.75712 0.31054 0.1586 0.0
N2399 N 0.77376 0.26685 0.15332 0.0
C2400 C 0.77072 0.27982 0.13303 0.0
C2401 C 0.76155 0.30339 0.13584 0.0
C2402 C 0.44684 0.01897 0.84281 0.0
C2403 C 0.43856 0.01266 0.86568 0.0
C2404 C 0.4697 0.02864 0.83954 0.0
C2405 C 0.48503 0.03235 0.85905 0.0
H2406 H 0.43519 0.01733 0.82745 0.0
H2407 H 0.47481 0.03465 0.82186 0.0
S2408 S 0.47221 0.01874 0.92247 0.0
N2409 N 0.44765 0.01094 0.90815 0.0
N2410 N 0.49096 0.02814 0.90174 0.0
C2411 C 0.47749 0.02501 0.88179 0.0
C2412 C 0.45412 0.01546 0.8852 0.0
C2413 C 0.04571 0.96279 0.34866 0.0
C2414 C 0.02566 0.97747 0.35208 0.0
C2415 C 0.06882 0.97196 0.35019 0.0
C2416 C 0.07288 0.99628 0.35491 0.0
H2417 H 0.04352 0.94384 0.34544 0.0
H2418 H 0.08363 0.95966 0.34834 0.0
S2419 S 0.02614 0.043 0.36031 0.0
N2420 N 0.01099 0.01783 0.35751 0.0
N2421 N 0.05467 0.03555 0.35916 0.0
C2422 C 0.05292 0.01153 0.35656 0.0
C2423 C 0.02924 1.00202 0.35532 0.0
C2424 C 0.11716 0.10805 0.38606 0.0
C2425 C 0.14224 0.10939 0.38848 0.0
C2426 C 0.10436 0.12455 0.37211 0.0
C2427 C 0.11617 0.14297 0.35993 0.0
H2428 H 0.10755 0.09304 0.39358 0.0
H2429 H 0.08552 0.12145 0.36897 0.0
S2430 S 0.18102 0.15622 0.36262 0.0
N2431 N 0.17791 0.13222 0.37951 0.0
N2432 N 0.15395 0.16312 0.35313 0.0
C2433 C 0.14088 0.14576 0.3639 0.0
C2434 C 0.1539 0.12904 0.37826 0.0
C2435 C 0.14757 0.86912 0.64183 0.0
C2436 C 0.14768 0.89432 0.64265 0.0
C2437 C 0.13211 0.85655 0.62656 0.0
C2438 C 0.11631 0.86881 0.61149 0.0
H2439 H 0.16072 0.85911 0.65186 0.0
H2440 H 0.13406 0.83737 0.625 0.0
S2441 S 0.1071 0.93437 0.60926 0.0
N2442 N 0.12869 0.93077 0.62907 0.0
N2443 N 0.09959 0.90725 0.60038 0.0
C2444 C 0.11471 0.89382 0.61376 0.0
C2445 C 0.13036 0.90658 0.6294 0.0
C2446 C 0.40393 0.88295 0.87543 0.0
C2447 C 0.39143 0.86678 0.86095 0.0
C2448 C 0.39166 0.89852 0.89088 0.0
C2449 C 0.36649 0.89855 0.8924 0.0
H2450 H 0.42302 0.88512 0.87323 0.0
H2451 H 0.40188 0.91177 0.90053 0.0
S2452 S 0.32596 0.85664 0.86129 0.0
N2453 N 0.35285 0.84929 0.85164 0.0
N2454 N 0.3299 0.87877 0.88042 0.0
C2455 C 0.35405 0.88079 0.87989 0.0
C2456 C 0.36653 0.86492 0.86417 0.0
C2457 C 0.37691 0.15644 0.12529 0.0
C2458 C 0.39285 0.1441 0.11042 0.0
C2459 C 0.36148 0.14397 0.1407 0.0
C2460 C 0.36152 0.11878 0.1419 0.0
H2461 H 0.37479 0.17557 0.12343 0.0
H2462 H 0.34824 0.15406 0.15052 0.0
S2463 S 0.40265 0.07857 0.10941 0.0
N2464 N 0.40998 0.1056 0.10014 0.0
N2465 N 0.38089 0.08229 0.12899 0.0
C2466 C 0.379 0.10647 0.12892 0.0
C2467 C 0.39464 0.11913 0.11315 0.0
C2468 C 0.10369 0.88644 0.13747 0.0
C2469 C 0.11562 0.86861 0.1504 0.0
C2470 C 0.11644 0.90263 0.12313 0.0
C2471 C 0.14155 0.90151 0.12102 0.0
H2472 H 0.08476 0.88933 0.14021 0.0
H2473 H 0.10673 0.91729 0.11504 0.0
S2474 S 0.18062 0.85596 0.14869 0.0
N2475 N 0.15354 0.84905 0.15815 0.0
N2476 N 0.17741 0.87943 0.13109 0.0
C2477 C 0.15336 0.88238 0.13204 0.0
C2478 C 0.14039 0.86599 0.1468 0.0
C2479 C 0.37516 0.90315 0.38465 0.0
C2480 C 0.36089 0.89158 0.36763 0.0
C2481 C 0.38952 0.88994 0.40047 0.0
C2482 C 0.39003 0.86475 0.3999 0.0
H2483 H 0.37365 0.92228 0.38715 0.0
H2484 H 0.39911 0.89945 0.4143 0.0
S2485 S 0.35863 0.82637 0.35624 0.0
N2486 N 0.35042 0.8538 0.34909 0.0
N2487 N 0.37719 0.82907 0.37903 0.0
C2488 C 0.37764 0.85319 0.38149 0.0
C2489 C 0.36305 0.86661 0.36536 0.0
C2490 C 0.35404 0.1254 0.63011 0.0
C2491 C 0.36626 0.10903 0.61559 0.0
C2492 C 0.36661 0.14071 0.64559 0.0
C2493 C 0.39178 0.14039 0.64685 0.0
H2494 H 0.33475 0.12479 0.63124 0.0
H2495 H 0.3565 0.15165 0.65793 0.0
S2496 S 0.43202 0.10301 0.61016 0.0
N2497 N 0.40491 0.0951 0.60164 0.0
N2498 N 0.42836 0.12409 0.63049 0.0
C2499 C 0.40417 0.12573 0.63082 0.0
C2500 C 0.39142 0.10997 0.61526 0.0
C2501 C 0.11741 0.11845 0.89911 0.0
C2502 C 0.11802 0.14362 0.89998 0.0
C2503 C 0.13306 0.10546 0.88435 0.0
C2504 C 0.15004 0.11726 0.87021 0.0
H2505 H 0.10599 0.10868 0.91129 0.0
H2506 H 0.13333 0.08616 0.8857 0.0
S2507 S 0.15696 0.18284 0.86385 0.0
N2508 N 0.13528 0.17975 0.88361 0.0
N2509 N 0.16482 0.15549 0.85601 0.0
C2510 C 0.14945 0.1424 0.86945 0.0
C2511 C 0.13337 0.15558 0.88429 0.0
C2512 C 0.12571 0.37686 0.10527 0.0
C2513 C 0.14073 0.36042 0.11673 0.0
C2514 C 0.11055 0.39183 0.11857 0.0
C2515 C 0.11002 0.39108 0.14379 0.0
H2516 H 0.12398 0.37657 0.08599 0.0
H2517 H 0.0978 0.40279 0.109 0.0
S2518 S 0.14834 0.35339 0.18221 0.0
N2519 N 0.15604 0.346 0.15468 0.0
N2520 N 0.12771 0.37433 0.17957 0.0
C2521 C 0.12658 0.37637 0.15542 0.0
C2522 C 0.14185 0.36095 0.14189 0.0
C2523 C 0.62543 0.1335 0.85169 0.0
C2524 C 0.60954 0.1185 0.86392 0.0
C2525 C 0.64158 0.14806 0.86428 0.0
C2526 C 0.64243 0.14815 0.8895 0.0
H2527 H 0.6239 0.13564 0.83252 0.0
H2528 H 0.6522 0.16073 0.85427 0.0
S2529 S 0.60743 0.10888 0.92947 0.0
N2530 N 0.59804 0.10196 0.90235 0.0
N2531 N 0.62812 0.12961 0.92591 0.0
C2532 C 0.62839 0.13144 0.90172 0.0
C2533 C 0.61194 0.1166 0.88892 0.0
C2534 C 0.89828 0.89085 0.39172 0.0
C2535 C 0.89973 0.89025 0.36653 0.0
C2536 C 0.8833 0.87515 0.4044 0.0
C2537 C 0.86946 0.85813 0.39229 0.0
H2538 H 0.91019 0.90231 0.40177 0.0
H2539 H 0.88428 0.87486 0.42372 0.0
S2540 S 0.86445 0.85128 0.32654 0.0
N2541 N 0.88406 0.87303 0.33006 0.0
N2542 N 0.85611 0.84337 0.35373 0.0
C2543 C 0.86921 0.85879 0.36712 0.0
C2544 C 0.88426 0.87493 0.35424 0.0
C2545 C 0.88342 0.13413 0.10444 0.0
C2546 C 0.86639 0.14814 0.11629 0.0
C2547 C 0.89942 0.11972 0.11735 0.0
C2548 C 0.89904 0.1188 0.14257 0.0
H2549 H 0.88591 0.13603 0.08534 0.0
H2550 H 0.91337 0.11057 0.10759 0.0
S2551 S 0.85509 0.14901 0.1816 0.0
N2552 N 0.84781 0.15766 0.15433 0.0
N2553 N 0.87808 0.13076 0.17853 0.0
C2554 C 0.88052 0.13077 0.1544 0.0
C2555 C 0.8642 0.14546 0.14125 0.0
C2556 C 0.38216 0.63447 0.60676 0.0
C2557 C 0.36631 0.64976 0.61872 0.0
C2558 C 0.39807 0.61984 0.61959 0.0
C2559 C 0.3985 0.61975 0.64481 0.0
H2560 H 0.38389 0.63549 0.58751 0.0
H2561 H 0.41141 0.6099 0.6097 0.0
S2562 S 0.35885 0.65482 0.68437 0.0
N2563 N 0.35068 0.66258 0.65709 0.0
N2564 N 0.38025 0.63477 0.68108 0.0
C2565 C 0.38132 0.63338 0.65688 0.0
C2566 C 0.36534 0.6485 0.64384 0.0
C2567 C 0.12484 0.63563 0.40778 0.0
C2568 C 0.14071 0.65075 0.3957 0.0
C2569 C 0.10952 0.62032 0.39505 0.0
C2570 C 0.10948 0.6196 0.36982 0.0
H2571 H 0.12265 0.63721 0.42694 0.0
H2572 H 0.09636 0.61024 0.40499 0.0
S2573 S 0.15076 0.65262 0.3302 0.0
N2574 N 0.158 0.66155 0.35739 0.0
N2575 N 0.12897 0.63302 0.33356 0.0
C2576 C 0.12698 0.63276 0.35774 0.0
C2577 C 0.1426 0.64835 0.37069 0.0
C2578 C 0.36821 0.36098 0.86712 0.0
C2579 C 0.36943 0.35882 0.89223 0.0
C2580 C 0.38379 0.37609 0.85441 0.0
C2581 C 0.4014 0.3893 0.86638 0.0
H2582 H 0.35629 0.34953 0.85707 0.0
H2583 H 0.38345 0.37572 0.83507 0.0
S2584 S 0.4103 0.39216 0.93202 0.0
N2585 N 0.38807 0.37308 0.92859 0.0
N2586 N 0.41757 0.40116 0.90487 0.0
C2587 C 0.40152 0.38875 0.89157 0.0
C2588 C 0.38545 0.37363 0.90448 0.0
C2589 C 0.65483 0.62704 0.87583 0.0
C2590 C 0.64253 0.61162 0.89127 0.0
C2591 C 0.64231 0.64263 0.86059 0.0
C2592 C 0.61712 0.64348 0.86037 0.0
H2593 H 0.67401 0.6255 0.8739 0.0
H2594 H 0.65238 0.65288 0.84765 0.0
S2595 S 0.5769 0.60924 0.90004 0.0
N2596 N 0.60397 0.60018 0.9075 0.0
N2597 N 0.5806 0.62949 0.8789 0.0
C2598 C 0.6048 0.62986 0.87736 0.0
C2599 C 0.6175 0.61388 0.89276 0.0
C2600 C 0.63577 0.40529 0.12115 0.0
C2601 C 0.64778 0.39342 0.13964 0.0
C2602 C 0.62187 0.39253 0.10461 0.0
C2603 C 0.61942 0.36747 0.10595 0.0
H2604 H 0.63886 0.42415 0.11815 0.0
H2605 H 0.61433 0.40217 0.08962 0.0
S2606 S 0.64493 0.32861 0.15294 0.0
N2607 N 0.65442 0.35567 0.1599 0.0
N2608 N 0.62822 0.33174 0.12881 0.0
C2609 C 0.62955 0.35574 0.12562 0.0
C2610 C 0.64382 0.36873 0.14242 0.0
C2611 C 0.8679 0.36788 0.36196 0.0
C2612 C 0.89308 0.36817 0.36055 0.0
C2613 C 0.85538 0.3835 0.37716 0.0
C2614 C 0.86763 0.40021 0.39124 0.0
H2615 H 0.85773 0.35677 0.34981 0.0
H2616 H 0.83607 0.38404 0.37613 0.0
S2617 S 0.93342 0.40613 0.39652 0.0
N2618 N 0.9297 0.38473 0.37655 0.0
N2619 N 0.90633 0.41425 0.40493 0.0
C2620 C 0.89279 0.39922 0.39155 0.0
C2621 C 0.9055 0.38313 0.37628 0.0
C2622 C 0.85934 0.64231 0.64225 0.0
C2623 C 0.85973 0.61712 0.64341 0.0
C2624 C 0.87506 0.65501 0.62736 0.0
C2625 C 0.89157 0.64291 0.61293 0.0
H2626 H 0.84543 0.65216 0.65142 0.0
H2627 H 0.87267 0.6741 0.62541 0.0
S2628 S 0.90205 0.57752 0.61171 0.0
N2629 N 0.87984 0.58091 0.63084 0.0
N2630 N 0.90932 0.60467 0.60274 0.0
C2631 C 0.8936 0.61797 0.61557 0.0
C2632 C 0.87772 0.60506 0.63089 0.0
C2633 C 0.65526 0.3838 0.63331 0.0
C2634 C 0.64313 0.39859 0.61713 0.0
C2635 C 0.64261 0.3684 0.64858 0.0
C2636 C 0.61745 0.36701 0.648 0.0
H2637 H 0.67434 0.38578 0.63578 0.0
H2638 H 0.65248 0.35882 0.66219 0.0
S2639 S 0.57775 0.39964 0.60649 0.0
N2640 N 0.60486 0.409 0.59957 0.0
N2641 N 0.58122 0.37991 0.62816 0.0
C2642 C 0.60537 0.37999 0.63036 0.0
C2643 C 0.6182 0.39586 0.61498 0.0
C2644 C 0.87507 0.35533 0.88397 0.0
C2645 C 0.88959 0.36744 0.90042 0.0
C2646 C 0.85981 0.36803 0.86855 0.0
C2647 C 0.85886 0.39322 0.86876 0.0
H2648 H 0.87379 0.33604 0.88458 0.0
H2649 H 0.84727 0.35803 0.85772 0.0
S2650 S 0.8954 0.43314 0.90664 0.0
N2651 N 0.90364 0.40595 0.91459 0.0
N2652 N 0.87532 0.42965 0.8853 0.0
C2653 C 0.87485 0.40547 0.88359 0.0
C2654 C 0.89011 0.39258 0.89952 0.0
C2655 C 0.85356 0.62336 0.13667 0.0
C2656 C 0.86576 0.60815 0.12095 0.0
C2657 C 0.86617 0.63867 0.15208 0.0
C2658 C 0.89139 0.63931 0.15239 0.0
H2659 H 0.83437 0.6219 0.13861 0.0
H2660 H 0.85613 0.64893 0.16503 0.0
S2661 S 0.93131 0.60626 0.11141 0.0
N2662 N 0.90419 0.59733 0.10397 0.0
N2663 N 0.92778 0.62584 0.13321 0.0
C2664 C 0.9036 0.62609 0.13502 0.0
C2665 C 0.89078 0.61051 0.1193 0.0
C2666 C 0.62066 0.61716 0.40297 0.0
C2667 C 0.61974 0.64235 0.4025 0.0
C2668 C 0.63475 0.60421 0.3867 0.0
C2669 C 0.64844 0.61605 0.36939 0.0
H2670 H 0.61175 0.60746 0.41713 0.0
H2671 H 0.63664 0.58512 0.38913 0.0
S2672 S 0.64943 0.68133 0.3582 0.0
N2673 N 0.63148 0.67829 0.38143 0.0
N2674 N 0.65789 0.65405 0.35076 0.0
C2675 C 0.64586 0.641 0.36729 0.0
C2676 C 0.63146 0.65416 0.38382 0.0
C2677 C 0.62509 0.8751 0.60472 0.0
C2678 C 0.64207 0.8615 0.61712 0.0
C2679 C 0.60857 0.8894 0.61709 0.0
C2680 C 0.60838 0.89064 0.64229 0.0
H2681 H 0.62311 0.87298 0.58558 0.0
H2682 H 0.59473 0.89827 0.60691 0.0
S2683 S 0.65158 0.86119 0.68272 0.0
N2684 N 0.65966 0.85239 0.65572 0.0
N2685 N 0.62852 0.87921 0.67889 0.0
C2686 C 0.62673 0.87898 0.6547 0.0
C2687 C 0.64354 0.86436 0.64211 0.0
C2688 C 0.99903 0.26809 0.32265 0.0
C2689 C 0.9792 0.26707 0.33814 0.0
C2690 C 0.016 0.24965 0.32179 0.0
C2691 C 0.01387 0.22918 0.33621 0.0
H2692 H 1.00131 0.28309 0.31065 0.0
H2693 H 0.03048 0.25118 0.30909 0.0
S2694 S 0.96652 0.21835 0.38137 0.0
N2695 N 0.9594 0.24436 0.36946 0.0
N2696 N 0.99113 0.20968 0.36763 0.0
C2697 C 0.9946 0.22822 0.35237 0.0
C2698 C 0.97737 0.24713 0.35339 0.0
C2699 C 0.03535 0.74087 0.59474 0.0
C2700 C 0.03062 0.76449 0.58739 0.0
C2701 C 0.01714 0.72368 0.59625 0.0
C2702 C 0.99337 0.72925 0.59027 0.0
H2703 H 0.05343 0.73532 0.59878 0.0
H2704 H 0.02196 0.70563 0.60126 0.0
S2705 S 0.97082 0.78901 0.57237 0.0
N2706 N 0.99978 0.79291 0.57608 0.0
N2707 N 0.96577 0.76062 0.57844 0.0
C2708 C 0.98817 0.75303 0.58389 0.0
C2709 C 0.00669 0.77061 0.5826 0.0
C2710 C 0.51509 0.75024 0.82722 0.0
C2711 C 0.50962 0.72696 0.83499 0.0
C2712 C 0.49774 0.76838 0.82702 0.0
C2713 C 0.47413 0.76412 0.83467 0.0
H2714 H 0.53271 0.75438 0.82044 0.0
H2715 H 0.50281 0.78572 0.82014 0.0
S2716 S 0.45115 0.70688 0.85908 0.0
N2717 N 0.47923 0.70116 0.85226 0.0
N2718 N 0.44678 0.73513 0.85195 0.0
C2719 C 0.46871 0.74121 0.84354 0.0
C2720 C 0.48638 0.7227 0.84367 0.0
C2721 C 0.52986 0.25457 0.08712 0.0
C2722 C 0.52065 0.27772 0.08357 0.0
C2723 C 0.51477 0.23457 0.08862 0.0
C2724 C 0.48987 0.23682 0.08616 0.0
H2725 H 0.54896 0.2518 0.08835 0.0
H2726 H 0.52281 0.21711 0.09076 0.0
S2727 S 0.45655 0.29351 0.07756 0.0
N2728 N 0.48483 0.30175 0.07863 0.0
N2729 N 0.45659 0.26424 0.081 0.0
C2730 C 0.48037 0.25993 0.08322 0.0
C2731 C 0.4957 0.28034 0.08207 0.0
C2732 C 0.98213 0.76282 0.17539 0.0
C2733 C 0.98447 0.73784 0.17376 0.0
C2734 C 1.00218 0.77787 0.17484 0.0
C2735 C 0.02545 0.76867 0.17223 0.0
H2736 H 0.96474 0.77085 0.17807 0.0
H2737 H 0.99943 0.79691 0.17694 0.0
S2738 S 0.04128 0.70463 0.16559 0.0
N2739 N 0.01193 0.70465 0.16831 0.0
N2740 N 0.0495 0.73291 0.16692 0.0
C2741 C 0.02798 0.7438 0.16956 0.0
C2742 C 0.00756 0.72842 0.17045 0.0
C2743 C 0.52722 0.75224 0.41966 0.0
C2744 C 0.51838 0.72965 0.42632 0.0
C2745 C 0.5121 0.7722 0.41781 0.0
C2746 C 0.48758 0.77051 0.42304 0.0
H2747 H 0.5461 0.75461 0.41616 0.0
H2748 H 0.5199 0.78926 0.41311 0.0
S2749 S 0.45534 0.71532 0.44087 0.0
N2750 N 0.48331 0.70668 0.43752 0.0
N2751 N 0.45503 0.74409 0.4345 0.0
C2752 C 0.47842 0.74789 0.42926 0.0
C2753 C 0.49375 0.72751 0.43076 0.0
C2754 C 0.51852 0.25719 0.64643 0.0
C2755 C 0.52432 0.27007 0.66728 0.0
C2756 C 0.502 0.23823 0.64694 0.0
C2757 C 0.49038 0.23162 0.66824 0.0
H2758 H 0.52696 0.26162 0.6296 0.0
H2759 H 0.4982 0.22878 0.63049 0.0
S2760 S 0.49944 0.2592 0.72791 0.0
N2761 N 0.51686 0.27467 0.70991 0.0
N2762 N 0.48658 0.23893 0.71085 0.0
C2763 C 0.49608 0.24429 0.68918 0.0
C2764 C 0.51283 0.26351 0.68871 0.0
C2765 C 0.01977 0.25436 0.90107 0.0
C2766 C 0.02558 0.24179 0.92206 0.0
C2767 C 1.00074 0.27081 0.90052 0.0
C2768 C 0.98696 0.27562 0.92104 0.0
H2769 H 0.02995 0.25139 0.88488 0.0
H2770 H 0.997 0.27999 0.88391 0.0
S2771 S 0.99572 0.24821 0.98094 0.0
N2772 N 0.01664 0.23609 0.96412 0.0
N2773 N 0.98082 0.26632 0.96312 0.0
C2774 C 0.99273 0.26318 0.94219 0.0
C2775 C 0.01202 0.24647 0.94269 0.0
C2776 C 0.34716 0.0364 0.26756 0.0
C2777 C 0.34031 0.03127 0.24392 0.0
C2778 C 0.34571 0.01904 0.28564 0.0
C2779 C 0.33758 0.99568 0.28089 0.0
H2780 H 0.35282 0.05424 0.27241 0.0
H2781 H 0.35046 0.02427 0.30365 0.0
S2782 S 0.32003 0.97231 0.22129 0.0
N2783 N 0.32674 1.00057 0.21636 0.0
N2784 N 0.32451 0.96796 0.2501 0.0
C2785 C 0.33188 0.98999 0.25704 0.0
C2786 C 0.33309 0.00774 0.23867 0.0
C2787 C 0.23407 0.08696 0.50965 0.0
C2788 C 0.23664 0.08521 0.48469 0.0
C2789 C 0.25402 0.08619 0.52491 0.0
C2790 C 0.2774 0.08427 0.51583 0.0
H2791 H 0.21646 0.08808 0.51756 0.0
H2792 H 0.25108 0.08695 0.54402 0.0
S2793 S 0.29397 0.07995 0.4518 0.0
N2794 N 0.26455 0.08184 0.45159 0.0
N2795 N 0.30193 0.08108 0.48018 0.0
C2796 C 0.28027 0.08323 0.49089 0.0
C2797 C 0.25994 0.0835 0.47537 0.0
C2798 C 0.1679 0.00945 0.73156 0.0
C2799 C 0.16817 0.98606 0.74085 0.0
C2800 C 0.16837 0.02952 0.74665 0.0
C2801 C 0.16976 0.02698 0.77162 0.0
H2802 H 0.1677 0.01227 0.71242 0.0
H2803 H 0.16864 0.04712 0.73864 0.0
S2804 S 0.17028 0.96974 0.80505 0.0
N2805 N 0.16899 0.96164 0.77673 0.0
N2806 N 0.17054 0.99922 0.80499 0.0
C2807 C 0.16956 1.00372 0.78116 0.0
C2808 C 0.16856 0.98331 0.76582 0.0
C2809 C 0.25203 0.92203 0.98351 0.0
C2810 C 0.27537 0.92198 0.9929 0.0
C2811 C 0.23188 0.92273 0.99851 0.0
C2812 C 0.23424 0.92408 0.02352 0.0
H2813 H 0.24929 0.92172 0.96435 0.0
H2814 H 0.21433 0.92307 0.99038 0.0
S2815 S 0.29135 0.92431 0.05719 0.0
N2816 N 0.29958 0.92282 0.02891 0.0
N2817 N 0.26188 0.92484 0.057 0.0
C2818 C 0.25747 0.9238 0.03315 0.0
C2819 C 0.27797 0.92255 0.01789 0.0
C2820 C 0.2452 0.3309 0.98235 0.0
C2821 C 0.27006 0.33415 0.98412 0.0
C2822 C 0.23047 0.33167 1.00265 0.0
C2823 C 0.23986 0.33618 0.02556 0.0
H2824 H 0.23707 0.32685 0.96527 0.0
H2825 H 0.21155 0.32842 1.00035 0.0
S2826 S 0.30363 0.34723 0.03981 0.0
N2827 N 0.30332 0.34288 0.01064 0.0
N2828 N 0.2756 0.34478 0.04864 0.0
C2829 C 0.26457 0.34032 0.02749 0.0
C2830 C 0.27965 0.33916 0.00685 0.0
C2831 C 0.7679 0.18103 0.00871 0.0
C2832 C 0.7647 0.1702 0.03121 0.0
C2833 C 0.74947 0.18166 0.99168 0.0
C2834 C 0.72687 0.17176 0.99646 0.0
H2835 H 0.78468 0.18957 1.00428 0.0
H2836 H 0.75281 0.19075 0.97496 0.0
S2837 S 0.70959 0.1396 0.05185 0.0
N2838 N 0.73743 0.14794 0.05668 0.0
N2839 N 0.70284 0.14937 0.02486 0.0
C2840 C 0.72366 0.16011 0.01854 0.0
C2841 C 0.74252 0.15925 0.03582 0.0
C2842 C 0.08515 0.47967 0.25967 0.0
C2843 C 0.08827 0.48899 0.2365 0.0
C2844 C 0.08455 0.49458 0.27986 0.0
C2845 C 0.08668 0.51954 0.27775 0.0
H2846 H 0.08267 0.46066 0.26225 0.0
H2847 H 0.08146 0.48647 0.29714 0.0
S2848 S 0.09638 0.55302 0.22132 0.0
N2849 N 0.09464 0.52484 0.21284 0.0
N2850 N 0.0932 0.55283 0.25063 0.0
C2851 C 0.09053 0.52907 0.25477 0.0
C2852 C 0.09144 0.51384 0.23422 0.0
C2853 C 0.77171 0.84271 0.53842 0.0
C2854 C 0.74803 0.83605 0.53321 0.0
C2855 C 0.78985 0.84111 0.52115 0.0
C2856 C 0.7852 0.83289 0.49779 0.0
H2857 H 0.77653 0.84851 0.55623 0.0
H2858 H 0.80784 0.84583 0.52645 0.0
S2859 S 0.72576 0.81524 0.47421 0.0
N2860 N 0.72065 0.8223 0.50236 0.0
N2861 N 0.75459 0.81959 0.47001 0.0
C2862 C 0.76139 0.8272 0.49202 0.0
C2863 C 0.7429 0.82869 0.50966 0.0
C2864 C 0.92286 0.02988 0.25736 0.0
C2865 C 0.92372 0.0207 0.23393 0.0
C2866 C 0.92266 0.01476 0.27738 0.0
C2867 C 0.92358 0.98976 0.27489 0.0
H2868 H 0.92291 0.04899 0.26034 0.0
H2869 H 0.92272 0.02283 0.29496 0.0
S2870 S 0.92448 0.95644 0.21749 0.0
N2871 N 0.9242 0.98479 0.20946 0.0
N2872 N 0.92399 0.95646 0.24696 0.0
C2873 C 0.92355 0.98029 0.25155 0.0
C2874 C 0.92355 0.9957 0.23114 0.0
C2875 C 0.25645 0.68686 0.52112 0.0
C2876 C 0.2778 0.67408 0.51756 0.0
C2877 C 0.23799 0.68647 0.5041 0.0
C2878 C 0.23993 0.67312 0.48281 0.0
H2879 H 0.25422 0.69795 0.53681 0.0
H2880 H 0.22226 0.69718 0.50751 0.0
S2881 S 0.2913 0.63469 0.46588 0.0
N2882 N 0.29915 0.64639 0.49178 0.0
N2883 N 0.26453 0.64551 0.45999 0.0
C2884 C 0.26079 0.65944 0.47951 0.0
C2885 C 0.27966 0.65997 0.49679 0.0
C2886 C 0.42141 0.51476 0.77817 0.0
C2887 C 0.4218 0.48978 0.77538 0.0
C2888 C 0.4217 0.53008 0.75827 0.0
C2889 C 0.4218 0.52108 0.73476 0.0
H2890 H 0.4218 0.52257 0.79586 0.0
H2891 H 0.42212 0.54918 0.76133 0.0
S2892 S 0.42174 0.45706 0.71768 0.0
N2893 N 0.42168 0.45676 0.74718 0.0
N2894 N 0.4216 0.4855 0.70991 0.0
C2895 C 0.42135 0.49615 0.73172 0.0
C2896 C 0.42154 0.48054 0.75197 0.0
C2897 C 0.85769 0.51663 0.74987 0.0
C2898 C 0.83663 0.52322 0.73775 0.0
C2899 C 0.85721 0.50044 0.76912 0.0
C2900 C 0.83571 0.48993 0.77684 0.0
H2901 H 0.87469 0.52418 0.74461 0.0
H2902 H 0.87386 0.496 0.77792 0.0
S2903 S 0.77547 0.50135 0.75151 0.0
N2904 N 0.7936 0.51766 0.73501 0.0
N2905 N 0.79271 0.48802 0.77132 0.0
C2906 C 0.81455 0.49643 0.76493 0.0
C2907 C 0.815 0.51285 0.74539 0.0
C2908 C 0.77451 0.58571 0.99908 0.0
C2909 C 0.77187 0.58356 0.02401 0.0
C2910 C 0.75463 0.58567 0.98375 0.0
C2911 C 0.73116 0.58375 0.99263 0.0
H2912 H 0.79213 0.5866 0.99118 0.0
H2913 H 0.75777 0.58667 0.96468 0.0
S2914 S 0.71427 0.57934 0.05666 0.0
N2915 N 0.7437 0.58066 0.05696 0.0
N2916 N 0.70647 0.58078 0.02827 0.0
C2917 C 0.72819 0.58256 0.0176 0.0
C2918 C 0.74847 0.58239 0.03322 0.0
C2919 C 0.66393 0.53668 0.24183 0.0
C2920 C 0.66878 0.53063 0.26574 0.0
C2921 C 0.66531 0.5196 0.22349 0.0
C2922 C 0.67141 0.49563 0.22822 0.0
H2923 H 0.65998 0.55499 0.23701 0.0
H2924 H 0.66222 0.52551 0.20533 0.0
S2925 S 0.68291 0.46989 0.28831 0.0
N2926 N 0.67802 0.49849 0.29344 0.0
N2927 N 0.68014 0.46641 0.25917 0.0
C2928 C 0.67497 0.48907 0.25226 0.0
C2929 C 0.67381 0.50653 0.27092 0.0
C2930 C 0.75311 0.42332 0.47983 0.0
C2931 C 0.77648 0.42256 0.48912 0.0
C2932 C 0.73303 0.42301 0.49489 0.0
C2933 C 0.73547 0.42247 0.51991 0.0
H2934 H 0.7503 0.42446 0.46072 0.0
H2935 H 0.71548 0.42413 0.48684 0.0
S2936 S 0.79266 0.41978 0.55335 0.0
N2937 N 0.80081 0.42047 0.52501 0.0
N2938 N 0.76318 0.42045 0.55328 0.0
C2939 C 0.75872 0.42128 0.52943 0.0
C2940 C 0.77917 0.42114 0.51407 0.0
C2941 C 0.58777 0.98309 0.7534 0.0
C2942 C 0.58239 0.99181 0.7304 0.0
C2943 C 0.58863 0.99835 0.77334 0.0
C2944 C 0.58368 0.0229 0.7712 0.0
H2945 H 0.59099 0.96421 0.75611 0.0
H2946 H 0.59236 0.99065 0.79069 0.0
S2947 S 0.56939 0.05497 0.71489 0.0
N2948 N 0.5729 0.0269 0.70662 0.0
N2949 N 0.57407 0.05538 0.744 0.0
C2950 C 0.5788 0.03195 0.74822 0.0
C2951 C 0.5783 0.01649 0.72787 0.0
loop_
_geom_bond_atom_site_label_1
_geom_bond_atom_site_label_2
_geom_bond_distance
_geom_bond_site_symmetry_2
_ccdc_geom_bond_type
Co0 O3 1.970 . S
Co0 N17 1.989 . S
Co0 O25 1.967 . S
Co0 O32 1.920 . S
Co1 O4 1.966 . S
Co1 N10 2.022 . S
Co1 N18 1.993 . S
Co1 O26 1.941 . S
C2 O3 1.258 . S
C2 O4 1.263 . S
O3 Co0 1.970 . S
O3 C2 1.258 . S
O4 Co1 1.966 . S
O4 C2 1.263 . S
C5 O6 1.235 . S
C5 O32 1.289 . S
O6 C5 1.235 . S
C7 C9 1.400 . S
C7 N10 1.351 . S
C7 C12 1.501 . S
C8 C9 1.387 . S
C8 N11 1.341 . S
C9 C7 1.400 . S
C9 C8 1.387 . S
N10 Co1 2.022 . S
N10 C7 1.351 . S
N10 N11 1.365 . S
N11 C8 1.341 . S
N11 N10 1.365 . S
N11 H31 0.862 . S
C12 C7 1.501 . S
C12 H13 0.961 . S
C12 H14 0.961 . S
C12 H15 0.960 . S
H13 C12 0.961 . S
H14 C12 0.961 . S
H15 C12 0.960 . S
C16 N17 1.342 . S
C16 C20 1.401 . S
C16 C21 1.499 . S
N17 Co0 1.989 . S
N17 C16 1.342 . S
N17 N18 1.388 . S
N18 Co1 1.993 . S
N18 N17 1.388 . S
N18 C19 1.346 . S
C19 N18 1.346 . S
C19 C20 1.396 . S
C19 C29 1.510 . S
C20 C16 1.401 . S
C20 C19 1.396 . S
C21 C16 1.499 . S
C21 H22 0.959 . S
C21 H23 0.960 . S
C21 H24 0.961 . S
H22 C21 0.959 . S
H23 C21 0.960 . S
H24 C21 0.961 . S
O25 Co0 1.967 . S
O25 C33 1.258 . S
O26 Co1 1.941 . S
O26 C33 1.266 . S
H27 C29 0.959 . S
H28 C29 0.961 . S
C29 C19 1.510 . S
C29 H27 0.959 . S
C29 H28 0.961 . S
C29 H30 0.960 . S
H30 C29 0.960 . S
H31 N11 0.862 . S
O32 Co0 1.920 . S
O32 C5 1.289 . S
C33 O25 1.258 . S
C33 O26 1.266 . S
Co34 O37 1.970 . S
Co34 N51 1.989 . S
Co34 O59 1.967 . S
Co34 O66 1.920 . S
Co35 O38 1.966 . S
Co35 N44 2.022 . S
Co35 N52 1.993 . S
Co35 O60 1.941 . S
C36 O37 1.258 . S
C36 O38 1.263 . S
O37 Co34 1.970 . S
O37 C36 1.258 . S
O38 Co35 1.966 . S
O38 C36 1.263 . S
C39 O40 1.235 . S
C39 O66 1.289 . S
O40 C39 1.235 . S
C41 C43 1.400 . S
C41 N44 1.351 . S
C41 C46 1.501 . S
C42 C43 1.387 . S
C42 N45 1.341 . S
C43 C41 1.400 . S
C43 C42 1.387 . S
N44 Co35 2.022 . S
N44 C41 1.351 . S
N44 N45 1.365 . S
N45 C42 1.341 . S
N45 N44 1.365 . S
N45 H65 0.862 . S
C46 C41 1.501 . S
C46 H47 0.961 . S
C46 H48 0.961 . S
C46 H49 0.960 . S
H47 C46 0.961 . S
H48 C46 0.961 . S
H49 C46 0.960 . S
C50 N51 1.342 . S
C50 C54 1.401 . S
C50 C55 1.499 . S
N51 Co34 1.989 . S
N51 C50 1.342 . S
N51 N52 1.388 . S
N52 Co35 1.993 . S
N52 N51 1.388 . S
N52 C53 1.346 . S
C53 N52 1.346 . S
C53 C54 1.396 . S
C53 C63 1.510 . S
C54 C50 1.401 . S
C54 C53 1.396 . S
C55 C50 1.499 . S
C55 H56 0.959 . S
C55 H57 0.960 1_455 S
C55 H58 0.961 1_455 S
H56 C55 0.959 . S
H57 C55 0.960 1_655 S
H58 C55 0.961 1_655 S
O59 Co34 1.967 . S
O59 C67 1.258 . S
O60 Co35 1.941 . S
O60 C67 1.266 . S
H61 C63 0.959 . S
H62 C63 0.961 . S
C63 C53 1.510 . S
C63 H61 0.959 . S
C63 H62 0.961 . S
C63 H64 0.960 . S
H64 C63 0.960 . S
H65 N45 0.862 . S
O66 Co34 1.920 . S
O66 C39 1.289 . S
C67 O59 1.258 . S
C67 O60 1.266 . S
Co68 O71 1.970 . S
Co68 N85 1.989 . S
Co68 O93 1.967 . S
Co68 O100 1.920 . S
Co69 O72 1.966 . S
Co69 N78 2.022 . S
Co69 N86 1.993 . S
Co69 O94 1.941 . S
C70 O71 1.258 . S
C70 O72 1.263 . S
O71 Co68 1.970 . S
O71 C70 1.258 . S
O72 Co69 1.966 . S
O72 C70 1.263 . S
C73 O74 1.235 . S
C73 O100 1.289 . S
O74 C73 1.235 . S
C75 C77 1.400 . S
C75 N78 1.351 . S
C75 C80 1.501 . S
C76 C77 1.387 . S
C76 N79 1.341 . S
C77 C75 1.400 . S
C77 C76 1.387 . S
N78 Co69 2.022 . S
N78 C75 1.351 . S
N78 N79 1.365 . S
N79 C76 1.341 . S
N79 N78 1.365 . S
N79 H99 0.862 . S
C80 C75 1.501 . S
C80 H81 0.961 . S
C80 H82 0.961 . S
C80 H83 0.960 . S
H81 C80 0.961 . S
H82 C80 0.961 . S
H83 C80 0.960 . S
C84 N85 1.342 . S
C84 C88 1.401 . S
C84 C89 1.499 . S
N85 Co68 1.989 . S
N85 C84 1.342 . S
N85 N86 1.388 . S
N86 Co69 1.993 . S
N86 N85 1.388 . S
N86 C87 1.346 . S
C87 N86 1.346 . S
C87 C88 1.396 . S
C87 C97 1.510 . S
C88 C84 1.401 . S
C88 C87 1.396 . S
C89 C84 1.499 . S
C89 H90 0.959 . S
C89 H91 0.960 . S
C89 H92 0.961 . S
H90 C89 0.959 . S
H91 C89 0.960 . S
H92 C89 0.961 . S
O93 Co68 1.967 . S
O93 C101 1.258 . S
O94 Co69 1.941 . S
O94 C101 1.266 . S
H95 C97 0.959 . S
H96 C97 0.961 . S
C97 C87 1.510 . S
C97 H95 0.959 . S
C97 H96 0.961 . S
C97 H98 0.960 . S
H98 C97 0.960 . S
H99 N79 0.862 . S
O100 Co68 1.920 . S
O100 C73 1.289 . S
C101 O93 1.258 . S
C101 O94 1.266 . S
Co102 O105 1.970 . S
Co102 N119 1.989 . S
Co102 O127 1.967 . S
Co102 O134 1.920 . S
Co103 O106 1.966 . S
Co103 N112 2.022 . S
Co103 N120 1.993 . S
Co103 O128 1.941 . S
C104 O105 1.258 . S
C104 O106 1.263 . S
O105 Co102 1.970 . S
O105 C104 1.258 . S
O106 Co103 1.966 . S
O106 C104 1.263 . S
C107 O108 1.235 . S
C107 O134 1.289 . S
O108 C107 1.235 . S
C109 C111 1.400 . S
C109 N112 1.351 . S
C109 C114 1.501 . S
C110 C111 1.387 1_556 S
C110 N113 1.343 . S
C111 C109 1.400 . S
C111 C110 1.387 1_554 S
N112 Co103 2.022 . S
N112 C109 1.351 . S
N112 N113 1.352 1_554 S
N113 C110 1.343 . S
N113 N112 1.352 1_556 S
N113 H133 0.872 . S
C114 C109 1.501 . S
C114 H115 0.961 . S
C114 H116 0.961 . S
C114 H117 0.960 . S
H115 C114 0.961 . S
H116 C114 0.961 . S
H117 C114 0.960 . S
C118 N119 1.342 . S
C118 C122 1.401 . S
C118 C123 1.499 . S
N119 Co102 1.989 . S
N119 C118 1.342 . S
N119 N120 1.388 . S
N120 Co103 1.993 . S
N120 N119 1.388 . S
N120 C121 1.346 . S
C121 N120 1.346 . S
C121 C122 1.396 . S
C121 C131 1.510 . S
C122 C118 1.401 . S
C122 C121 1.396 . S
C123 C118 1.499 . S
C123 H124 0.959 . S
C123 H125 0.960 . S
C123 H126 0.961 . S
H124 C123 0.959 . S
H125 C123 0.960 . S
H126 C123 0.961 . S
O127 Co102 1.967 . S
O127 C135 1.258 . S
O128 Co103 1.941 . S
O128 C135 1.266 . S
H129 C131 0.959 1_556 S
H130 C131 0.961 . S
C131 C121 1.510 . S
C131 H129 0.959 1_554 S
C131 H130 0.961 . S
C131 H132 0.960 . S
H132 C131 0.960 . S
H133 N113 0.872 . S
O134 Co102 1.920 . S
O134 C107 1.289 . S
C135 O127 1.258 . S
C135 O128 1.266 . S
Co136 O139 1.970 . S
Co136 N153 1.989 . S
Co136 O161 1.967 . S
Co136 O168 1.920 . S
Co137 O140 1.966 . S
Co137 N146 2.022 . S
Co137 N154 1.993 . S
Co137 O162 1.941 . S
C138 O139 1.258 . S
C138 O140 1.263 . S
O139 Co136 1.970 . S
O139 C138 1.258 . S
O140 Co137 1.966 . S
O140 C138 1.263 . S
C141 O142 1.235 . S
C141 O168 1.289 . S
O142 C141 1.235 . S
C143 C145 1.400 . S
C143 N146 1.351 . S
C143 C148 1.501 . S
C144 C145 1.387 . S
C144 N147 1.341 . S
C145 C143 1.400 . S
C145 C144 1.387 . S
N146 Co137 2.022 . S
N146 C143 1.351 . S
N146 N147 1.365 . S
N147 C144 1.341 . S
N147 N146 1.365 . S
N147 H167 0.862 . S
C148 C143 1.501 . S
C148 H149 0.961 . S
C148 H150 0.961 . S
C148 H151 0.960 . S
H149 C148 0.961 . S
H150 C148 0.961 . S
H151 C148 0.960 . S
C152 N153 1.342 . S
C152 C156 1.401 . S
C152 C157 1.499 . S
N153 Co136 1.989 . S
N153 C152 1.342 . S
N153 N154 1.388 . S
N154 Co137 1.993 . S
N154 N153 1.388 . S
N154 C155 1.346 . S
C155 N154 1.346 . S
C155 C156 1.396 . S
C155 C165 1.510 . S
C156 C152 1.401 . S
C156 C155 1.396 . S
C157 C152 1.499 . S
C157 H158 0.959 . S
C157 H159 0.960 . S
C157 H160 0.961 . S
H158 C157 0.959 . S
H159 C157 0.960 . S
H160 C157 0.961 . S
O161 Co136 1.967 . S
O161 C169 1.258 . S
O162 Co137 1.941 . S
O162 C169 1.266 . S
H163 C165 0.959 . S
H164 C165 0.961 . S
C165 C155 1.510 . S
C165 H163 0.959 . S
C165 H164 0.961 . S
C165 H166 0.960 . S
H166 C165 0.960 . S
H167 N147 0.862 . S
O168 Co136 1.920 . S
O168 C141 1.289 . S
C169 O161 1.258 . S
C169 O162 1.266 . S
Co170 O173 1.970 . S
Co170 N187 1.989 . S
Co170 O195 1.967 . S
Co170 O202 1.920 . S
Co171 O174 1.966 . S
Co171 N180 2.022 . S
Co171 N188 1.993 . S
Co171 O196 1.941 . S
C172 O173 1.258 . S
C172 O174 1.263 . S
O173 Co170 1.970 . S
O173 C172 1.258 . S
O174 Co171 1.966 . S
O174 C172 1.263 . S
C175 O176 1.235 . S
C175 O202 1.289 . S
O176 C175 1.235 . S
C177 C179 1.400 . S
C177 N180 1.351 . S
C177 C182 1.501 . S
C178 C179 1.387 . S
C178 N181 1.341 . S
C179 C177 1.400 . S
C179 C178 1.387 . S
N180 Co171 2.022 . S
N180 C177 1.351 . S
N180 N181 1.365 . S
N181 C178 1.341 . S
N181 N180 1.365 . S
N181 H201 0.862 . S
C182 C177 1.501 . S
C182 H183 0.961 . S
C182 H184 0.961 . S
C182 H185 0.960 . S
H183 C182 0.961 . S
H184 C182 0.961 . S
H185 C182 0.960 . S
C186 N187 1.342 . S
C186 C190 1.401 . S
C186 C191 1.499 . S
N187 Co170 1.989 . S
N187 C186 1.342 . S
N187 N188 1.388 . S
N188 Co171 1.993 . S
N188 N187 1.388 . S
N188 C189 1.346 . S
C189 N188 1.346 . S
C189 C190 1.396 . S
C189 C199 1.510 . S
C190 C186 1.401 . S
C190 C189 1.396 . S
C191 C186 1.499 . S
C191 H192 0.959 . S
C191 H193 0.960 . S
C191 H194 0.961 . S
H192 C191 0.959 . S
H193 C191 0.960 . S
H194 C191 0.961 . S
O195 Co170 1.967 . S
O195 C203 1.258 . S
O196 Co171 1.941 . S
O196 C203 1.266 . S
H197 C199 0.959 . S
H198 C199 0.961 . S
C199 C189 1.510 . S
C199 H197 0.959 . S
C199 H198 0.961 . S
C199 H200 0.960 . S
H200 C199 0.960 . S
H201 N181 0.862 . S
O202 Co170 1.920 . S
O202 C175 1.289 . S
C203 O195 1.258 . S
C203 O196 1.266 . S
Co204 O207 1.970 . S
Co204 N221 1.989 . S
Co204 O229 1.967 . S
Co204 O236 1.920 . S
Co205 O208 1.966 . S
Co205 N214 2.022 . S
Co205 N222 1.993 . S
Co205 O230 1.941 . S
C206 O207 1.258 . S
C206 O208 1.263 . S
O207 Co204 1.970 . S
O207 C206 1.258 . S
O208 Co205 1.966 . S
O208 C206 1.263 . S
C209 O210 1.235 . S
C209 O236 1.289 . S
O210 C209 1.235 . S
C211 C213 1.400 . S
C211 N214 1.351 . S
C211 C216 1.501 . S
C212 C213 1.387 . S
C212 N215 1.341 . S
C213 C211 1.400 . S
C213 C212 1.387 . S
N214 Co205 2.022 . S
N214 C211 1.351 . S
N214 N215 1.365 . S
N215 C212 1.341 . S
N215 N214 1.365 . S
N215 H235 0.862 . S
C216 C211 1.501 . S
C216 H217 0.961 . S
C216 H218 0.961 . S
C216 H219 0.960 . S
H217 C216 0.961 . S
H218 C216 0.961 . S
H219 C216 0.960 . S
C220 N221 1.342 . S
C220 C224 1.401 . S
C220 C225 1.499 . S
N221 Co204 1.989 . S
N221 C220 1.342 . S
N221 N222 1.388 . S
N222 Co205 1.993 . S
N222 N221 1.388 . S
N222 C223 1.346 . S
C223 N222 1.346 . S
C223 C224 1.396 . S
C223 C233 1.510 . S
C224 C220 1.401 . S
C224 C223 1.396 . S
C225 C220 1.499 . S
C225 H226 0.959 . S
C225 H227 0.960 . S
C225 H228 0.961 . S
H226 C225 0.959 . S
H227 C225 0.960 . S
H228 C225 0.961 . S
O229 Co204 1.967 . S
O229 C237 1.258 . S
O230 Co205 1.941 . S
O230 C237 1.266 . S
H231 C233 0.959 . S
H232 C233 0.961 . S
C233 C223 1.510 . S
C233 H231 0.959 . S
C233 H232 0.961 . S
C233 H234 0.960 . S
H234 C233 0.960 . S
H235 N215 0.862 . S
O236 Co204 1.920 . S
O236 C209 1.289 . S
C237 O229 1.258 . S
C237 O230 1.266 . S
Co238 O241 1.970 . S
Co238 N255 1.989 . S
Co238 O263 1.967 . S
Co238 O270 1.920 . S
Co239 O242 1.966 . S
Co239 N248 2.022 . S
Co239 N256 1.993 . S
Co239 O264 1.941 . S
C240 O241 1.258 . S
C240 O242 1.263 . S
O241 Co238 1.970 . S
O241 C240 1.258 . S
O242 Co239 1.966 . S
O242 C240 1.263 . S
C243 O244 1.235 . S
C243 O270 1.289 . S
O244 C243 1.235 . S
C245 C247 1.400 . S
C245 N248 1.351 . S
C245 C250 1.501 . S
C246 C247 1.387 1_554 S
C246 N249 1.343 . S
C247 C245 1.400 . S
C247 C246 1.387 1_556 S
N248 Co239 2.022 . S
N248 C245 1.351 . S
N248 N249 1.352 1_556 S
N249 C246 1.343 . S
N249 N248 1.352 1_554 S
N249 H269 0.872 . S
C250 C245 1.501 . S
C250 H251 0.961 . S
C250 H252 0.961 . S
C250 H253 0.960 . S
H251 C250 0.961 . S
H252 C250 0.961 . S
H253 C250 0.960 . S
C254 N255 1.342 . S
C254 C258 1.401 . S
C254 C259 1.499 . S
N255 Co238 1.989 . S
N255 C254 1.342 . S
N255 N256 1.388 . S
N256 Co239 1.993 . S
N256 N255 1.388 . S
N256 C257 1.346 . S
C257 N256 1.346 . S
C257 C258 1.396 . S
C257 C267 1.510 . S
C258 C254 1.401 . S
C258 C257 1.396 . S
C259 C254 1.499 . S
C259 H260 0.959 . S
C259 H261 0.960 1_455 S
C259 H262 0.961 1_455 S
H260 C259 0.959 . S
H261 C259 0.960 1_655 S
H262 C259 0.961 1_655 S
O263 Co238 1.967 . S
O263 C271 1.258 . S
O264 Co239 1.941 . S
O264 C271 1.266 . S
H265 C267 0.959 1_554 S
H266 C267 0.961 . S
C267 C257 1.510 . S
C267 H265 0.959 1_556 S
C267 H266 0.961 . S
C267 H268 0.960 . S
H268 C267 0.960 . S
H269 N249 0.872 . S
O270 Co238 1.920 . S
O270 C243 1.289 . S
C271 O263 1.258 . S
C271 O264 1.266 . S
Co272 O275 1.970 . S
Co272 N289 1.989 . S
Co272 O297 1.967 . S
Co272 O304 1.920 . S
Co273 O276 1.966 . S
Co273 N282 2.022 . S
Co273 N290 1.993 . S
Co273 O298 1.941 . S
C274 O275 1.258 . S
C274 O276 1.263 . S
O275 Co272 1.970 . S
O275 C274 1.258 . S
O276 Co273 1.966 . S
O276 C274 1.263 . S
C277 O278 1.235 . S
C277 O304 1.289 . S
O278 C277 1.235 . S
C279 C281 1.400 . S
C279 N282 1.351 . S
C279 C284 1.501 . S
C280 C281 1.387 . S
C280 N283 1.341 . S
C281 C279 1.400 . S
C281 C280 1.387 . S
N282 Co273 2.022 . S
N282 C279 1.351 . S
N282 N283 1.365 . S
N283 C280 1.341 . S
N283 N282 1.365 . S
N283 H303 0.862 . S
C284 C279 1.501 . S
C284 H285 0.961 . S
C284 H286 0.961 . S
C284 H287 0.960 . S
H285 C284 0.961 . S
H286 C284 0.961 . S
H287 C284 0.960 . S
C288 N289 1.342 . S
C288 C292 1.401 . S
C288 C293 1.499 . S
N289 Co272 1.989 . S
N289 C288 1.342 . S
N289 N290 1.388 . S
N290 Co273 1.993 . S
N290 N289 1.388 . S
N290 C291 1.346 . S
C291 N290 1.346 . S
C291 C292 1.396 . S
C291 C301 1.510 . S
C292 C288 1.401 . S
C292 C291 1.396 . S
C293 C288 1.499 . S
C293 H294 0.959 . S
C293 H295 0.960 . S
C293 H296 0.961 . S
H294 C293 0.959 . S
H295 C293 0.960 . S
H296 C293 0.961 . S
O297 Co272 1.967 . S
O297 C305 1.258 . S
O298 Co273 1.941 . S
O298 C305 1.266 . S
H299 C301 0.959 . S
H300 C301 0.961 . S
C301 C291 1.510 . S
C301 H299 0.959 . S
C301 H300 0.961 . S
C301 H302 0.960 . S
H302 C301 0.960 . S
H303 N283 0.862 . S
O304 Co272 1.920 . S
O304 C277 1.289 . S
C305 O297 1.258 . S
C305 O298 1.266 . S
Co306 O309 1.970 . S
Co306 N323 1.989 . S
Co306 O331 1.967 . S
Co306 O338 1.920 . S
Co307 O310 1.966 . S
Co307 N316 2.022 . S
Co307 N324 1.993 . S
Co307 O332 1.941 . S
C308 O309 1.258 . S
C308 O310 1.263 . S
O309 Co306 1.970 . S
O309 C308 1.258 . S
O310 Co307 1.966 . S
O310 C308 1.263 . S
C311 O312 1.235 . S
C311 O338 1.289 . S
O312 C311 1.235 . S
C313 C315 1.400 . S
C313 N316 1.351 . S
C313 C318 1.501 . S
C314 C315 1.387 1_565 S
C314 N317 1.343 . S
C315 C313 1.400 . S
C315 C314 1.387 1_545 S
N316 Co307 2.022 . S
N316 C313 1.351 . S
N316 N317 1.352 1_545 S
N317 C314 1.343 . S
N317 N316 1.352 1_565 S
N317 H337 0.872 . S
C318 C313 1.501 . S
C318 H319 0.961 . S
C318 H320 0.961 . S
C318 H321 0.960 . S
H319 C318 0.961 . S
H320 C318 0.961 . S
H321 C318 0.960 . S
C322 N323 1.342 . S
C322 C326 1.401 . S
C322 C327 1.499 . S
N323 Co306 1.989 . S
N323 C322 1.342 . S
N323 N324 1.388 . S
N324 Co307 1.993 . S
N324 N323 1.388 . S
N324 C325 1.346 . S
C325 N324 1.346 . S
C325 C326 1.396 . S
C325 C335 1.510 . S
C326 C322 1.401 . S
C326 C325 1.396 . S
C327 C322 1.499 . S
C327 H328 0.959 . S
C327 H329 0.960 . S
C327 H330 0.961 . S
H328 C327 0.959 . S
H329 C327 0.960 . S
H330 C327 0.961 . S
O331 Co306 1.967 . S
O331 C339 1.258 . S
O332 Co307 1.941 . S
O332 C339 1.266 . S
H333 C335 0.959 1_565 S
H334 C335 0.961 . S
C335 C325 1.510 . S
C335 H333 0.959 1_545 S
C335 H334 0.961 . S
C335 H336 0.960 . S
H336 C335 0.960 . S
H337 N317 0.872 . S
O338 Co306 1.920 . S
O338 C311 1.289 . S
C339 O331 1.258 . S
C339 O332 1.266 . S
Co340 O343 1.970 . S
Co340 N357 1.989 . S
Co340 O365 1.967 . S
Co340 O372 1.920 . S
Co341 O344 1.966 . S
Co341 N350 2.022 . S
Co341 N358 1.993 . S
Co341 O366 1.941 . S
C342 O343 1.258 . S
C342 O344 1.263 . S
O343 Co340 1.970 . S
O343 C342 1.258 . S
O344 Co341 1.966 . S
O344 C342 1.263 . S
C345 O346 1.235 . S
C345 O372 1.289 . S
O346 C345 1.235 . S
C347 C349 1.400 . S
C347 N350 1.351 . S
C347 C352 1.501 . S
C348 C349 1.387 . S
C348 N351 1.341 . S
C349 C347 1.400 . S
C349 C348 1.387 . S
N350 Co341 2.022 . S
N350 C347 1.351 . S
N350 N351 1.365 . S
N351 C348 1.341 . S
N351 N350 1.365 . S
N351 H371 0.862 . S
C352 C347 1.501 . S
C352 H353 0.961 . S
C352 H354 0.961 . S
C352 H355 0.960 . S
H353 C352 0.961 . S
H354 C352 0.961 . S
H355 C352 0.960 . S
C356 N357 1.342 . S
C356 C360 1.401 . S
C356 C361 1.499 . S
N357 Co340 1.989 . S
N357 C356 1.342 . S
N357 N358 1.388 . S
N358 Co341 1.993 . S
N358 N357 1.388 . S
N358 C359 1.346 . S
C359 N358 1.346 . S
C359 C360 1.396 . S
C359 C369 1.510 . S
C360 C356 1.401 . S
C360 C359 1.396 . S
C361 C356 1.499 . S
C361 H362 0.959 . S
C361 H363 0.960 . S
C361 H364 0.961 . S
H362 C361 0.959 . S
H363 C361 0.960 . S
H364 C361 0.961 . S
O365 Co340 1.967 . S
O365 C373 1.258 . S
O366 Co341 1.941 . S
O366 C373 1.266 . S
H367 C369 0.959 . S
H368 C369 0.961 . S
C369 C359 1.510 . S
C369 H367 0.959 . S
C369 H368 0.961 . S
C369 H370 0.960 . S
H370 C369 0.960 . S
H371 N351 0.862 . S
O372 Co340 1.920 . S
O372 C345 1.289 . S
C373 O365 1.258 . S
C373 O366 1.266 . S
Co374 O377 1.970 . S
Co374 N391 1.989 . S
Co374 O399 1.967 . S
Co374 O406 1.920 . S
Co375 O378 1.966 . S
Co375 N384 2.022 . S
Co375 N392 1.993 . S
Co375 O400 1.941 . S
C376 O377 1.258 . S
C376 O378 1.263 . S
O377 Co374 1.970 . S
O377 C376 1.258 . S
O378 Co375 1.966 . S
O378 C376 1.263 . S
C379 O380 1.235 . S
C379 O406 1.289 . S
O380 C379 1.235 . S
C381 C383 1.400 . S
C381 N384 1.351 . S
C381 C386 1.501 . S
C382 C383 1.387 1_545 S
C382 N385 1.343 . S
C383 C381 1.400 . S
C383 C382 1.387 1_565 S
N384 Co375 2.022 . S
N384 C381 1.351 . S
N384 N385 1.352 1_565 S
N385 C382 1.343 . S
N385 N384 1.352 1_545 S
N385 H405 0.872 . S
C386 C381 1.501 . S
C386 H387 0.961 . S
C386 H388 0.961 . S
C386 H389 0.960 . S
H387 C386 0.961 . S
H388 C386 0.961 . S
H389 C386 0.960 . S
C390 N391 1.342 . S
C390 C394 1.401 . S
C390 C395 1.499 . S
N391 Co374 1.989 . S
N391 C390 1.342 . S
N391 N392 1.388 . S
N392 Co375 1.993 . S
N392 N391 1.388 . S
N392 C393 1.346 . S
C393 N392 1.346 . S
C393 C394 1.396 . S
C393 C403 1.510 . S
C394 C390 1.401 . S
C394 C393 1.396 . S
C395 C390 1.499 . S
C395 H396 0.959 . S
C395 H397 0.960 1_556 S
C395 H398 0.961 1_556 S
H396 C395 0.959 . S
H397 C395 0.960 1_554 S
H398 C395 0.961 1_554 S
O399 Co374 1.967 . S
O399 C407 1.258 . S
O400 Co375 1.941 . S
O400 C407 1.266 . S
H401 C403 0.959 1_545 S
H402 C403 0.961 . S
C403 C393 1.510 . S
C403 H401 0.959 1_565 S
C403 H402 0.961 . S
C403 H404 0.960 . S
H404 C403 0.960 . S
H405 N385 0.872 . S
O406 Co374 1.920 . S
O406 C379 1.289 . S
C407 O399 1.258 . S
C407 O400 1.266 . S
Co408 O411 1.970 . S
Co408 N425 1.989 . S
Co408 O433 1.967 . S
Co408 O440 1.920 . S
Co409 O412 1.966 . S
Co409 N418 2.022 . S
Co409 N426 1.993 . S
Co409 O434 1.941 . S
C410 O411 1.258 . S
C410 O412 1.263 . S
O411 Co408 1.970 . S
O411 C410 1.258 . S
O412 Co409 1.966 . S
O412 C410 1.263 . S
C413 O414 1.235 . S
C413 O440 1.289 . S
O414 C413 1.235 . S
C415 C417 1.400 . S
C415 N418 1.351 . S
C415 C420 1.501 . S
C416 C417 1.387 . S
C416 N419 1.341 . S
C417 C415 1.400 . S
C417 C416 1.387 . S
N418 Co409 2.022 . S
N418 C415 1.351 . S
N418 N419 1.365 . S
N419 C416 1.341 . S
N419 N418 1.365 . S
N419 H439 0.862 . S
C420 C415 1.501 . S
C420 H421 0.961 . S
C420 H422 0.961 . S
C420 H423 0.960 . S
H421 C420 0.961 . S
H422 C420 0.961 . S
H423 C420 0.960 . S
C424 N425 1.342 . S
C424 C428 1.401 . S
C424 C429 1.499 . S
N425 Co408 1.989 . S
N425 C424 1.342 . S
N425 N426 1.388 . S
N426 Co409 1.993 . S
N426 N425 1.388 . S
N426 C427 1.346 . S
C427 N426 1.346 . S
C427 C428 1.396 . S
C427 C437 1.510 . S
C428 C424 1.401 . S
C428 C427 1.396 . S
C429 C424 1.499 . S
C429 H430 0.959 . S
C429 H431 0.960 . S
C429 H432 0.961 . S
H430 C429 0.959 . S
H431 C429 0.960 . S
H432 C429 0.961 . S
O433 Co408 1.967 . S
O433 C441 1.258 . S
O434 Co409 1.941 . S
O434 C441 1.266 . S
H435 C437 0.959 . S
H436 C437 0.961 . S
C437 C427 1.510 . S
C437 H435 0.959 . S
C437 H436 0.961 . S
C437 H438 0.960 . S
H438 C437 0.960 . S
H439 N419 0.862 . S
O440 Co408 1.920 . S
O440 C413 1.289 . S
C441 O433 1.258 . S
C441 O434 1.266 . S
Co442 O445 1.970 . S
Co442 N459 1.989 . S
Co442 O467 1.967 . S
Co442 O474 1.920 . S
Co443 O446 1.966 . S
Co443 N452 2.022 . S
Co443 N460 1.993 . S
Co443 O468 1.941 . S
C444 O445 1.258 . S
C444 O446 1.263 . S
O445 Co442 1.970 . S
O445 C444 1.258 . S
O446 Co443 1.966 . S
O446 C444 1.263 . S
C447 O448 1.235 . S
C447 O474 1.289 . S
O448 C447 1.235 . S
C449 C451 1.400 . S
C449 N452 1.351 . S
C449 C454 1.501 . S
C450 C451 1.387 1_565 S
C450 N453 1.343 . S
C451 C449 1.400 . S
C451 C450 1.387 1_545 S
N452 Co443 2.022 . S
N452 C449 1.351 . S
N452 N453 1.352 1_545 S
N453 C450 1.343 . S
N453 N452 1.352 1_565 S
N453 H473 0.872 . S
C454 C449 1.501 . S
C454 H455 0.961 . S
C454 H456 0.961 . S
C454 H457 0.960 . S
H455 C454 0.961 . S
H456 C454 0.961 . S
H457 C454 0.960 . S
C458 N459 1.342 . S
C458 C462 1.401 . S
C458 C463 1.499 . S
N459 Co442 1.989 . S
N459 C458 1.342 . S
N459 N460 1.388 . S
N460 Co443 1.993 . S
N460 N459 1.388 . S
N460 C461 1.346 . S
C461 N460 1.346 . S
C461 C462 1.396 . S
C461 C471 1.510 . S
C462 C458 1.401 . S
C462 C461 1.396 . S
C463 C458 1.499 . S
C463 H464 0.959 . S
C463 H465 0.960 . S
C463 H466 0.961 . S
H464 C463 0.959 . S
H465 C463 0.960 . S
H466 C463 0.961 . S
O467 Co442 1.967 . S
O467 C475 1.258 . S
O468 Co443 1.941 . S
O468 C475 1.266 . S
H469 C471 0.959 1_565 S
H470 C471 0.961 . S
C471 C461 1.510 . S
C471 H469 0.959 1_545 S
C471 H470 0.961 . S
C471 H472 0.960 . S
H472 C471 0.960 . S
H473 N453 0.872 . S
O474 Co442 1.920 . S
O474 C447 1.289 . S
C475 O467 1.258 . S
C475 O468 1.266 . S
Co476 O479 1.970 . S
Co476 N493 1.989 . S
Co476 O501 1.967 . S
Co476 O508 1.920 . S
Co477 O480 1.966 . S
Co477 N486 2.022 . S
Co477 N494 1.993 . S
Co477 O502 1.941 . S
C478 O479 1.258 . S
C478 O480 1.263 . S
O479 Co476 1.970 . S
O479 C478 1.258 . S
O480 Co477 1.966 . S
O480 C478 1.263 . S
C481 O482 1.235 . S
C481 O508 1.289 . S
O482 C481 1.235 . S
C483 C485 1.400 . S
C483 N486 1.351 . S
C483 C488 1.501 . S
C484 C485 1.387 . S
C484 N487 1.341 . S
C485 C483 1.400 . S
C485 C484 1.387 . S
N486 Co477 2.022 . S
N486 C483 1.351 . S
N486 N487 1.365 . S
N487 C484 1.341 . S
N487 N486 1.365 . S
N487 H507 0.862 . S
C488 C483 1.501 . S
C488 H489 0.961 . S
C488 H490 0.961 . S
C488 H491 0.960 . S
H489 C488 0.961 . S
H490 C488 0.961 . S
H491 C488 0.960 . S
C492 N493 1.342 . S
C492 C496 1.401 . S
C492 C497 1.499 . S
N493 Co476 1.989 . S
N493 C492 1.342 . S
N493 N494 1.388 . S
N494 Co477 1.993 . S
N494 N493 1.388 . S
N494 C495 1.346 . S
C495 N494 1.346 . S
C495 C496 1.396 . S
C495 C505 1.510 . S
C496 C492 1.401 . S
C496 C495 1.396 . S
C497 C492 1.499 . S
C497 H498 0.959 . S
C497 H499 0.960 . S
C497 H500 0.961 . S
H498 C497 0.959 . S
H499 C497 0.960 . S
H500 C497 0.961 . S
O501 Co476 1.967 . S
O501 C509 1.258 . S
O502 Co477 1.941 . S
O502 C509 1.266 . S
H503 C505 0.959 . S
H504 C505 0.961 . S
C505 C495 1.510 . S
C505 H503 0.959 . S
C505 H504 0.961 . S
C505 H506 0.960 . S
H506 C505 0.960 . S
H507 N487 0.862 . S
O508 Co476 1.920 . S
O508 C481 1.289 . S
C509 O501 1.258 . S
C509 O502 1.266 . S
Co510 O513 1.970 . S
Co510 N527 1.989 . S
Co510 O535 1.967 . S
Co510 O542 1.920 . S
Co511 O514 1.966 . S
Co511 N520 2.022 . S
Co511 N528 1.993 . S
Co511 O536 1.941 . S
C512 O513 1.258 . S
C512 O514 1.263 . S
O513 Co510 1.970 . S
O513 C512 1.258 . S
O514 Co511 1.966 . S
O514 C512 1.263 . S
C515 O516 1.235 . S
C515 O542 1.289 . S
O516 C515 1.235 . S
C517 C519 1.400 . S
C517 N520 1.351 . S
C517 C522 1.501 . S
C518 C519 1.387 1_545 S
C518 N521 1.343 . S
C519 C517 1.400 . S
C519 C518 1.387 1_565 S
N520 Co511 2.022 . S
N520 C517 1.351 . S
N520 N521 1.352 1_565 S
N521 C518 1.343 . S
N521 N520 1.352 1_545 S
N521 H541 0.872 . S
C522 C517 1.501 . S
C522 H523 0.961 . S
C522 H524 0.961 . S
C522 H525 0.960 . S
H523 C522 0.961 . S
H524 C522 0.961 . S
H525 C522 0.960 . S
C526 N527 1.342 . S
C526 C530 1.401 . S
C526 C531 1.499 . S
N527 Co510 1.989 . S
N527 C526 1.342 . S
N527 N528 1.388 . S
N528 Co511 1.993 . S
N528 N527 1.388 . S
N528 C529 1.346 . S
C529 N528 1.346 . S
C529 C530 1.396 . S
C529 C539 1.510 . S
C530 C526 1.401 . S
C530 C529 1.396 . S
C531 C526 1.499 . S
C531 H532 0.959 . S
C531 H533 0.960 1_554 S
C531 H534 0.961 1_554 S
H532 C531 0.959 . S
H533 C531 0.960 1_556 S
H534 C531 0.961 1_556 S
O535 Co510 1.967 . S
O535 C543 1.258 . S
O536 Co511 1.941 . S
O536 C543 1.266 . S
H537 C539 0.959 1_545 S
H538 C539 0.961 . S
C539 C529 1.510 . S
C539 H537 0.959 1_565 S
C539 H538 0.961 . S
C539 H540 0.960 . S
H540 C539 0.960 . S
H541 N521 0.872 . S
O542 Co510 1.920 . S
O542 C515 1.289 . S
C543 O535 1.258 . S
C543 O536 1.266 . S
Co544 O547 1.970 . S
Co544 N561 1.989 . S
Co544 O569 1.967 . S
Co544 O576 1.920 . S
Co545 O548 1.966 . S
Co545 N554 2.022 . S
Co545 N562 1.993 . S
Co545 O570 1.941 . S
C546 O547 1.258 . S
C546 O548 1.263 . S
O547 Co544 1.970 . S
O547 C546 1.258 . S
O548 Co545 1.966 . S
O548 C546 1.263 . S
C549 O550 1.235 . S
C549 O576 1.289 . S
O550 C549 1.235 . S
C551 C553 1.400 . S
C551 N554 1.351 . S
C551 C556 1.501 . S
C552 C553 1.387 . S
C552 N555 1.341 . S
C553 C551 1.400 . S
C553 C552 1.387 . S
N554 Co545 2.022 . S
N554 C551 1.351 . S
N554 N555 1.365 . S
N555 C552 1.341 . S
N555 N554 1.365 . S
N555 H575 0.862 . S
C556 C551 1.501 . S
C556 H557 0.961 . S
C556 H558 0.961 . S
C556 H559 0.960 . S
H557 C556 0.961 . S
H558 C556 0.961 . S
H559 C556 0.960 . S
C560 N561 1.342 . S
C560 C564 1.401 . S
C560 C565 1.499 . S
N561 Co544 1.989 . S
N561 C560 1.342 . S
N561 N562 1.388 . S
N562 Co545 1.993 . S
N562 N561 1.388 . S
N562 C563 1.346 . S
C563 N562 1.346 . S
C563 C564 1.396 . S
C563 C573 1.510 . S
C564 C560 1.401 . S
C564 C563 1.396 . S
C565 C560 1.499 . S
C565 H566 0.959 . S
C565 H567 0.960 . S
C565 H568 0.961 . S
H566 C565 0.959 . S
H567 C565 0.960 . S
H568 C565 0.961 . S
O569 Co544 1.967 . S
O569 C577 1.258 . S
O570 Co545 1.941 . S
O570 C577 1.266 . S
H571 C573 0.959 . S
H572 C573 0.961 . S
C573 C563 1.510 . S
C573 H571 0.959 . S
C573 H572 0.961 . S
C573 H574 0.960 . S
H574 C573 0.960 . S
H575 N555 0.862 . S
O576 Co544 1.920 . S
O576 C549 1.289 . S
C577 O569 1.258 . S
C577 O570 1.266 . S
Co578 O581 1.970 . S
Co578 N595 1.989 . S
Co578 O603 1.967 . S
Co578 O610 1.920 . S
Co579 O582 1.966 . S
Co579 N588 2.022 . S
Co579 N596 1.993 . S
Co579 O604 1.941 . S
C580 O581 1.258 . S
C580 O582 1.263 . S
O581 Co578 1.970 . S
O581 C580 1.258 . S
O582 Co579 1.966 . S
O582 C580 1.263 . S
C583 O584 1.235 . S
C583 O610 1.289 . S
O584 C583 1.235 . S
C585 C587 1.400 . S
C585 N588 1.351 . S
C585 C590 1.501 . S
C586 C587 1.387 . S
C586 N589 1.341 . S
C587 C585 1.400 . S
C587 C586 1.387 . S
N588 Co579 2.022 . S
N588 C585 1.351 . S
N588 N589 1.365 . S
N589 C586 1.341 . S
N589 N588 1.365 . S
N589 H609 0.862 . S
C590 C585 1.501 . S
C590 H591 0.961 . S
C590 H592 0.961 . S
C590 H593 0.960 . S
H591 C590 0.961 . S
H592 C590 0.961 . S
H593 C590 0.960 . S
C594 N595 1.342 . S
C594 C598 1.401 . S
C594 C599 1.499 . S
N595 Co578 1.989 . S
N595 C594 1.342 . S
N595 N596 1.388 . S
N596 Co579 1.993 . S
N596 N595 1.388 . S
N596 C597 1.346 . S
C597 N596 1.346 . S
C597 C598 1.396 . S
C597 C607 1.510 . S
C598 C594 1.401 . S
C598 C597 1.396 . S
C599 C594 1.499 . S
C599 H600 0.959 . S
C599 H601 0.960 . S
C599 H602 0.961 . S
H600 C599 0.959 . S
H601 C599 0.960 . S
H602 C599 0.961 . S
O603 Co578 1.967 . S
O603 C611 1.258 . S
O604 Co579 1.941 . S
O604 C611 1.266 . S
H605 C607 0.959 . S
H606 C607 0.961 . S
C607 C597 1.510 . S
C607 H605 0.959 . S
C607 H606 0.961 . S
C607 H608 0.960 . S
H608 C607 0.960 . S
H609 N589 0.862 . S
O610 Co578 1.920 . S
O610 C583 1.289 . S
C611 O603 1.258 . S
C611 O604 1.266 . S
Co612 O615 1.970 . S
Co612 N629 1.989 . S
Co612 O637 1.967 . S
Co612 O644 1.920 . S
Co613 O616 1.966 . S
Co613 N622 2.022 . S
Co613 N630 1.993 . S
Co613 O638 1.941 . S
C614 O615 1.258 . S
C614 O616 1.263 . S
O615 Co612 1.970 . S
O615 C614 1.258 . S
O616 Co613 1.966 . S
O616 C614 1.263 . S
C617 O618 1.235 . S
C617 O644 1.289 . S
O618 C617 1.235 . S
C619 C621 1.400 . S
C619 N622 1.351 . S
C619 C624 1.501 . S
C620 C621 1.387 1_655 S
C620 N623 1.343 . S
C621 C619 1.400 . S
C621 C620 1.387 1_455 S
N622 Co613 2.022 . S
N622 C619 1.351 . S
N622 N623 1.352 1_455 S
N623 C620 1.343 . S
N623 N622 1.352 1_655 S
N623 H643 0.872 . S
C624 C619 1.501 . S
C624 H625 0.961 . S
C624 H626 0.961 . S
C624 H627 0.960 . S
H625 C624 0.961 . S
H626 C624 0.961 . S
H627 C624 0.960 . S
C628 N629 1.342 . S
C628 C632 1.401 . S
C628 C633 1.499 . S
N629 Co612 1.989 . S
N629 C628 1.342 . S
N629 N630 1.388 . S
N630 Co613 1.993 . S
N630 N629 1.388 . S
N630 C631 1.346 . S
C631 N630 1.346 . S
C631 C632 1.396 . S
C631 C641 1.510 . S
C632 C628 1.401 . S
C632 C631 1.396 . S
C633 C628 1.499 . S
C633 H634 0.959 . S
C633 H635 0.960 . S
C633 H636 0.961 . S
H634 C633 0.959 . S
H635 C633 0.960 . S
H636 C633 0.961 . S
O637 Co612 1.967 . S
O637 C645 1.258 . S
O638 Co613 1.941 . S
O638 C645 1.266 . S
H639 C641 0.959 1_655 S
H640 C641 0.961 . S
C641 C631 1.510 . S
C641 H639 0.959 1_455 S
C641 H640 0.961 . S
C641 H642 0.960 . S
H642 C641 0.960 . S
H643 N623 0.872 . S
O644 Co612 1.920 . S
O644 C617 1.289 . S
C645 O637 1.258 . S
C645 O638 1.266 . S
Co646 O649 1.970 . S
Co646 N663 1.989 . S
Co646 O671 1.967 . S
Co646 O678 1.920 . S
Co647 O650 1.966 . S
Co647 N656 2.022 . S
Co647 N664 1.993 . S
Co647 O672 1.941 . S
C648 O649 1.258 . S
C648 O650 1.263 . S
O649 Co646 1.970 . S
O649 C648 1.258 . S
O650 Co647 1.966 . S
O650 C648 1.263 . S
C651 O652 1.235 . S
C651 O678 1.289 . S
O652 C651 1.235 . S
C653 C655 1.400 . S
C653 N656 1.351 . S
C653 C658 1.501 . S
C654 C655 1.387 . S
C654 N657 1.341 . S
C655 C653 1.400 . S
C655 C654 1.387 . S
N656 Co647 2.022 . S
N656 C653 1.351 . S
N656 N657 1.365 . S
N657 C654 1.341 . S
N657 N656 1.365 . S
N657 H677 0.862 . S
C658 C653 1.501 . S
C658 H659 0.961 . S
C658 H660 0.961 . S
C658 H661 0.960 . S
H659 C658 0.961 . S
H660 C658 0.961 . S
H661 C658 0.960 . S
C662 N663 1.342 . S
C662 C666 1.401 . S
C662 C667 1.499 . S
N663 Co646 1.989 . S
N663 C662 1.342 . S
N663 N664 1.388 . S
N664 Co647 1.993 . S
N664 N663 1.388 . S
N664 C665 1.346 . S
C665 N664 1.346 . S
C665 C666 1.396 . S
C665 C675 1.510 . S
C666 C662 1.401 . S
C666 C665 1.396 . S
C667 C662 1.499 . S
C667 H668 0.959 . S
C667 H669 0.960 . S
C667 H670 0.961 . S
H668 C667 0.959 . S
H669 C667 0.960 . S
H670 C667 0.961 . S
O671 Co646 1.967 . S
O671 C679 1.258 . S
O672 Co647 1.941 . S
O672 C679 1.266 . S
H673 C675 0.959 . S
H674 C675 0.961 . S
C675 C665 1.510 . S
C675 H673 0.959 . S
C675 H674 0.961 . S
C675 H676 0.960 . S
H676 C675 0.960 . S
H677 N657 0.862 . S
O678 Co646 1.920 . S
O678 C651 1.289 . S
C679 O671 1.258 . S
C679 O672 1.266 . S
Co680 O683 1.970 . S
Co680 N697 1.989 . S
Co680 O705 1.967 . S
Co680 O712 1.920 . S
Co681 O684 1.966 . S
Co681 N690 2.022 . S
Co681 N698 1.993 . S
Co681 O706 1.941 . S
C682 O683 1.258 . S
C682 O684 1.263 . S
O683 Co680 1.970 . S
O683 C682 1.258 . S
O684 Co681 1.966 . S
O684 C682 1.263 . S
C685 O686 1.235 . S
C685 O712 1.289 . S
O686 C685 1.235 . S
C687 C689 1.400 . S
C687 N690 1.351 . S
C687 C692 1.501 . S
C688 C689 1.387 1_455 S
C688 N691 1.343 . S
C689 C687 1.400 . S
C689 C688 1.387 1_655 S
N690 Co681 2.022 . S
N690 C687 1.351 . S
N690 N691 1.352 1_655 S
N691 C688 1.343 . S
N691 N690 1.352 1_455 S
N691 H711 0.872 . S
C692 C687 1.501 . S
C692 H693 0.961 . S
C692 H694 0.961 . S
C692 H695 0.960 . S
H693 C692 0.961 . S
H694 C692 0.961 . S
H695 C692 0.960 . S
C696 N697 1.342 . S
C696 C700 1.401 . S
C696 C701 1.499 . S
N697 Co680 1.989 . S
N697 C696 1.342 . S
N697 N698 1.388 . S
N698 Co681 1.993 . S
N698 N697 1.388 . S
N698 C699 1.346 . S
C699 N698 1.346 . S
C699 C700 1.396 . S
C699 C709 1.510 . S
C700 C696 1.401 . S
C700 C699 1.396 . S
C701 C696 1.499 . S
C701 H702 0.959 . S
C701 H703 0.960 1_545 S
C701 H704 0.961 1_545 S
H702 C701 0.959 . S
H703 C701 0.960 1_565 S
H704 C701 0.961 1_565 S
O705 Co680 1.967 . S
O705 C713 1.258 . S
O706 Co681 1.941 . S
O706 C713 1.266 . S
H707 C709 0.959 1_455 S
H708 C709 0.961 . S
C709 C699 1.510 . S
C709 H707 0.959 1_655 S
C709 H708 0.961 . S
C709 H710 0.960 . S
H710 C709 0.960 . S
H711 N691 0.872 . S
O712 Co680 1.920 . S
O712 C685 1.289 . S
C713 O705 1.258 . S
C713 O706 1.266 . S
Co714 O717 1.970 . S
Co714 N731 1.989 . S
Co714 O739 1.967 . S
Co714 O746 1.920 . S
Co715 O718 1.966 . S
Co715 N724 2.022 . S
Co715 N732 1.993 . S
Co715 O740 1.941 . S
C716 O717 1.258 . S
C716 O718 1.263 . S
O717 Co714 1.970 . S
O717 C716 1.258 . S
O718 Co715 1.966 . S
O718 C716 1.263 . S
C719 O720 1.235 . S
C719 O746 1.289 . S
O720 C719 1.235 . S
C721 C723 1.400 . S
C721 N724 1.351 . S
C721 C726 1.501 . S
C722 C723 1.387 . S
C722 N725 1.341 . S
C723 C721 1.400 . S
C723 C722 1.387 . S
N724 Co715 2.022 . S
N724 C721 1.351 . S
N724 N725 1.365 . S
N725 C722 1.341 . S
N725 N724 1.365 . S
N725 H745 0.862 . S
C726 C721 1.501 . S
C726 H727 0.961 . S
C726 H728 0.961 . S
C726 H729 0.960 . S
H727 C726 0.961 . S
H728 C726 0.961 . S
H729 C726 0.960 . S
C730 N731 1.342 . S
C730 C734 1.401 . S
C730 C735 1.499 . S
N731 Co714 1.989 . S
N731 C730 1.342 . S
N731 N732 1.388 . S
N732 Co715 1.993 . S
N732 N731 1.388 . S
N732 C733 1.346 . S
C733 N732 1.346 . S
C733 C734 1.396 . S
C733 C743 1.510 . S
C734 C730 1.401 . S
C734 C733 1.396 . S
C735 C730 1.499 . S
C735 H736 0.959 . S
C735 H737 0.960 . S
C735 H738 0.961 . S
H736 C735 0.959 . S
H737 C735 0.960 . S
H738 C735 0.961 . S
O739 Co714 1.967 . S
O739 C747 1.258 . S
O740 Co715 1.941 . S
O740 C747 1.266 . S
H741 C743 0.959 . S
H742 C743 0.961 . S
C743 C733 1.510 . S
C743 H741 0.959 . S
C743 H742 0.961 . S
C743 H744 0.960 . S
H744 C743 0.960 . S
H745 N725 0.862 . S
O746 Co714 1.920 . S
O746 C719 1.289 . S
C747 O739 1.258 . S
C747 O740 1.266 . S
Co748 O751 1.970 . S
Co748 N765 1.989 . S
Co748 O773 1.967 . S
Co748 O780 1.920 . S
Co749 O752 1.966 . S
Co749 N758 2.022 . S
Co749 N766 1.993 . S
Co749 O774 1.941 . S
C750 O751 1.258 . S
C750 O752 1.263 . S
O751 Co748 1.970 . S
O751 C750 1.258 . S
O752 Co749 1.966 . S
O752 C750 1.263 . S
C753 O754 1.235 . S
C753 O780 1.289 . S
O754 C753 1.235 . S
C755 C757 1.400 . S
C755 N758 1.351 . S
C755 C760 1.501 . S
C756 C757 1.387 1_655 S
C756 N759 1.343 . S
C757 C755 1.400 . S
C757 C756 1.387 1_455 S
N758 Co749 2.022 . S
N758 C755 1.351 . S
N758 N759 1.352 1_455 S
N759 C756 1.343 . S
N759 N758 1.352 1_655 S
N759 H779 0.872 . S
C760 C755 1.501 . S
C760 H761 0.961 . S
C760 H762 0.961 . S
C760 H763 0.960 . S
H761 C760 0.961 . S
H762 C760 0.961 . S
H763 C760 0.960 . S
C764 N765 1.342 . S
C764 C768 1.401 . S
C764 C769 1.499 . S
N765 Co748 1.989 . S
N765 C764 1.342 . S
N765 N766 1.388 . S
N766 Co749 1.993 . S
N766 N765 1.388 . S
N766 C767 1.346 . S
C767 N766 1.346 . S
C767 C768 1.396 . S
C767 C777 1.510 . S
C768 C764 1.401 . S
C768 C767 1.396 . S
C769 C764 1.499 . S
C769 H770 0.959 . S
C769 H771 0.960 . S
C769 H772 0.961 . S
H770 C769 0.959 . S
H771 C769 0.960 . S
H772 C769 0.961 . S
O773 Co748 1.967 . S
O773 C781 1.258 . S
O774 Co749 1.941 . S
O774 C781 1.266 . S
H775 C777 0.959 1_655 S
H776 C777 0.961 . S
C777 C767 1.510 . S
C777 H775 0.959 1_455 S
C777 H776 0.961 . S
C777 H778 0.960 . S
H778 C777 0.960 . S
H779 N759 0.872 . S
O780 Co748 1.920 . S
O780 C753 1.289 . S
C781 O773 1.258 . S
C781 O774 1.266 . S
Co782 O785 1.970 . S
Co782 N799 1.989 . S
Co782 O807 1.967 . S
Co782 O814 1.920 . S
Co783 O786 1.966 . S
Co783 N792 2.022 . S
Co783 N800 1.993 . S
Co783 O808 1.941 . S
C784 O785 1.258 . S
C784 O786 1.263 . S
O785 Co782 1.970 . S
O785 C784 1.258 . S
O786 Co783 1.966 . S
O786 C784 1.263 . S
C787 O788 1.235 . S
C787 O814 1.289 . S
O788 C787 1.235 . S
C789 C791 1.400 . S
C789 N792 1.351 . S
C789 C794 1.501 . S
C790 C791 1.387 . S
C790 N793 1.341 . S
C791 C789 1.400 . S
C791 C790 1.387 . S
N792 Co783 2.022 . S
N792 C789 1.351 . S
N792 N793 1.365 . S
N793 C790 1.341 . S
N793 N792 1.365 . S
N793 H813 0.862 . S
C794 C789 1.501 . S
C794 H795 0.961 . S
C794 H796 0.961 . S
C794 H797 0.960 . S
H795 C794 0.961 . S
H796 C794 0.961 . S
H797 C794 0.960 . S
C798 N799 1.342 . S
C798 C802 1.401 . S
C798 C803 1.499 . S
N799 Co782 1.989 . S
N799 C798 1.342 . S
N799 N800 1.388 . S
N800 Co783 1.993 . S
N800 N799 1.388 . S
N800 C801 1.346 . S
C801 N800 1.346 . S
C801 C802 1.396 . S
C801 C811 1.510 . S
C802 C798 1.401 . S
C802 C801 1.396 . S
C803 C798 1.499 . S
C803 H804 0.959 . S
C803 H805 0.960 . S
C803 H806 0.961 . S
H804 C803 0.959 . S
H805 C803 0.960 . S
H806 C803 0.961 . S
O807 Co782 1.967 . S
O807 C815 1.258 . S
O808 Co783 1.941 . S
O808 C815 1.266 . S
H809 C811 0.959 . S
H810 C811 0.961 . S
C811 C801 1.510 . S
C811 H809 0.959 . S
C811 H810 0.961 . S
C811 H812 0.960 . S
H812 C811 0.960 . S
H813 N793 0.862 . S
O814 Co782 1.920 . S
O814 C787 1.289 . S
C815 O807 1.258 . S
C815 O808 1.266 . S
Co816 O819 1.970 . S
Co816 N833 1.989 . S
Co816 O841 1.967 . S
Co816 O848 1.920 . S
Co817 O820 1.966 . S
Co817 N826 2.022 . S
Co817 N834 1.993 . S
Co817 O842 1.941 . S
C818 O819 1.258 . S
C818 O820 1.263 . S
O819 Co816 1.970 . S
O819 C818 1.258 . S
O820 Co817 1.966 . S
O820 C818 1.263 . S
C821 O822 1.235 . S
C821 O848 1.289 . S
O822 C821 1.235 . S
C823 C825 1.400 . S
C823 N826 1.351 . S
C823 C828 1.501 . S
C824 C825 1.387 . S
C824 N827 1.341 . S
C825 C823 1.400 . S
C825 C824 1.387 . S
N826 Co817 2.022 . S
N826 C823 1.351 . S
N826 N827 1.365 . S
N827 C824 1.341 . S
N827 N826 1.365 . S
N827 H847 0.862 . S
C828 C823 1.501 . S
C828 H829 0.961 . S
C828 H830 0.961 . S
C828 H831 0.960 . S
H829 C828 0.961 . S
H830 C828 0.961 . S
H831 C828 0.960 . S
C832 N833 1.342 . S
C832 C836 1.401 . S
C832 C837 1.499 . S
N833 Co816 1.989 . S
N833 C832 1.342 . S
N833 N834 1.388 . S
N834 Co817 1.993 . S
N834 N833 1.388 . S
N834 C835 1.346 . S
C835 N834 1.346 . S
C835 C836 1.396 . S
C835 C845 1.510 . S
C836 C832 1.401 . S
C836 C835 1.396 . S
C837 C832 1.499 . S
C837 H838 0.959 . S
C837 H839 0.960 . S
C837 H840 0.961 . S
H838 C837 0.959 . S
H839 C837 0.960 . S
H840 C837 0.961 . S
O841 Co816 1.967 . S
O841 C849 1.258 . S
O842 Co817 1.941 . S
O842 C849 1.266 . S
H843 C845 0.959 . S
H844 C845 0.961 . S
C845 C835 1.510 . S
C845 H843 0.959 . S
C845 H844 0.961 . S
C845 H846 0.960 . S
H846 C845 0.960 . S
H847 N827 0.862 . S
O848 Co816 1.920 . S
O848 C821 1.289 . S
C849 O841 1.258 . S
C849 O842 1.266 . S
Co850 O853 1.970 . S
Co850 N867 1.989 . S
Co850 O875 1.967 . S
Co850 O882 1.920 . S
Co851 O854 1.966 . S
Co851 N860 2.022 . S
Co851 N868 1.993 . S
Co851 O876 1.941 . S
C852 O853 1.258 . S
C852 O854 1.263 . S
O853 Co850 1.970 . S
O853 C852 1.258 . S
O854 Co851 1.966 . S
O854 C852 1.263 . S
C855 O856 1.235 . S
C855 O882 1.289 . S
O856 C855 1.235 . S
C857 C859 1.400 . S
C857 N860 1.351 . S
C857 C862 1.501 . S
C858 C859 1.387 1_556 S
C858 N861 1.343 . S
C859 C857 1.400 . S
C859 C858 1.387 1_554 S
N860 Co851 2.022 . S
N860 C857 1.351 . S
N860 N861 1.352 1_554 S
N861 C858 1.343 . S
N861 N860 1.352 1_556 S
N861 H881 0.872 . S
C862 C857 1.501 . S
C862 H863 0.961 . S
C862 H864 0.961 . S
C862 H865 0.960 . S
H863 C862 0.961 . S
H864 C862 0.961 . S
H865 C862 0.960 . S
C866 N867 1.342 . S
C866 C870 1.401 . S
C866 C871 1.499 . S
N867 Co850 1.989 . S
N867 C866 1.342 . S
N867 N868 1.388 . S
N868 Co851 1.993 . S
N868 N867 1.388 . S
N868 C869 1.346 . S
C869 N868 1.346 . S
C869 C870 1.396 . S
C869 C879 1.510 . S
C870 C866 1.401 . S
C870 C869 1.396 . S
C871 C866 1.499 . S
C871 H872 0.959 . S
C871 H873 0.960 . S
C871 H874 0.961 . S
H872 C871 0.959 . S
H873 C871 0.960 . S
H874 C871 0.961 . S
O875 Co850 1.967 . S
O875 C883 1.258 . S
O876 Co851 1.941 . S
O876 C883 1.266 . S
H877 C879 0.959 1_556 S
H878 C879 0.961 . S
C879 C869 1.510 . S
C879 H877 0.959 1_554 S
C879 H878 0.961 . S
C879 H880 0.960 . S
H880 C879 0.960 . S
H881 N861 0.872 . S
O882 Co850 1.920 . S
O882 C855 1.289 . S
C883 O875 1.258 . S
C883 O876 1.266 . S
Co884 O887 1.970 . S
Co884 N901 1.989 . S
Co884 O909 1.967 . S
Co884 O916 1.920 . S
Co885 O888 1.966 . S
Co885 N894 2.022 . S
Co885 N902 1.993 . S
Co885 O910 1.941 . S
C886 O887 1.258 . S
C886 O888 1.263 . S
O887 Co884 1.970 . S
O887 C886 1.258 . S
O888 Co885 1.966 . S
O888 C886 1.263 . S
C889 O890 1.235 . S
C889 O916 1.289 . S
O890 C889 1.235 . S
C891 C893 1.400 . S
C891 N894 1.351 . S
C891 C896 1.501 . S
C892 C893 1.387 . S
C892 N895 1.341 . S
C893 C891 1.400 . S
C893 C892 1.387 . S
N894 Co885 2.022 . S
N894 C891 1.351 . S
N894 N895 1.365 . S
N895 C892 1.341 . S
N895 N894 1.365 . S
N895 H915 0.862 . S
C896 C891 1.501 . S
C896 H897 0.961 . S
C896 H898 0.961 . S
C896 H899 0.960 . S
H897 C896 0.961 . S
H898 C896 0.961 . S
H899 C896 0.960 . S
C900 N901 1.342 . S
C900 C904 1.401 . S
C900 C905 1.499 . S
N901 Co884 1.989 . S
N901 C900 1.342 . S
N901 N902 1.388 . S
N902 Co885 1.993 . S
N902 N901 1.388 . S
N902 C903 1.346 . S
C903 N902 1.346 . S
C903 C904 1.396 . S
C903 C913 1.510 . S
C904 C900 1.401 . S
C904 C903 1.396 . S
C905 C900 1.499 . S
C905 H906 0.959 . S
C905 H907 0.960 . S
C905 H908 0.961 . S
H906 C905 0.959 . S
H907 C905 0.960 . S
H908 C905 0.961 . S
O909 Co884 1.967 . S
O909 C917 1.258 . S
O910 Co885 1.941 . S
O910 C917 1.266 . S
H911 C913 0.959 . S
H912 C913 0.961 . S
C913 C903 1.510 . S
C913 H911 0.959 . S
C913 H912 0.961 . S
C913 H914 0.960 . S
H914 C913 0.960 . S
H915 N895 0.862 . S
O916 Co884 1.920 . S
O916 C889 1.289 . S
C917 O909 1.258 . S
C917 O910 1.266 . S
Co918 O921 1.970 . S
Co918 N935 1.989 . S
Co918 O943 1.967 . S
Co918 O950 1.920 . S
Co919 O922 1.966 . S
Co919 N928 2.022 . S
Co919 N936 1.993 . S
Co919 O944 1.941 . S
C920 O921 1.258 . S
C920 O922 1.263 . S
O921 Co918 1.970 . S
O921 C920 1.258 . S
O922 Co919 1.966 . S
O922 C920 1.263 . S
C923 O924 1.235 . S
C923 O950 1.289 . S
O924 C923 1.235 . S
C925 C927 1.400 . S
C925 N928 1.351 . S
C925 C930 1.501 . S
C926 C927 1.387 . S
C926 N929 1.341 . S
C927 C925 1.400 . S
C927 C926 1.387 . S
N928 Co919 2.022 . S
N928 C925 1.351 . S
N928 N929 1.365 . S
N929 C926 1.341 . S
N929 N928 1.365 . S
N929 H949 0.862 . S
C930 C925 1.501 . S
C930 H931 0.961 . S
C930 H932 0.961 . S
C930 H933 0.960 . S
H931 C930 0.961 . S
H932 C930 0.961 . S
H933 C930 0.960 . S
C934 N935 1.342 . S
C934 C938 1.401 . S
C934 C939 1.499 . S
N935 Co918 1.989 . S
N935 C934 1.342 . S
N935 N936 1.388 . S
N936 Co919 1.993 . S
N936 N935 1.388 . S
N936 C937 1.346 . S
C937 N936 1.346 . S
C937 C938 1.396 . S
C937 C947 1.510 . S
C938 C934 1.401 . S
C938 C937 1.396 . S
C939 C934 1.499 . S
C939 H940 0.959 . S
C939 H941 0.960 1_655 S
C939 H942 0.961 1_655 S
H940 C939 0.959 . S
H941 C939 0.960 1_455 S
H942 C939 0.961 1_455 S
O943 Co918 1.967 . S
O943 C951 1.258 . S
O944 Co919 1.941 . S
O944 C951 1.266 . S
H945 C947 0.959 . S
H946 C947 0.961 . S
C947 C937 1.510 . S
C947 H945 0.959 . S
C947 H946 0.961 . S
C947 H948 0.960 . S
H948 C947 0.960 . S
H949 N929 0.862 . S
O950 Co918 1.920 . S
O950 C923 1.289 . S
C951 O943 1.258 . S
C951 O944 1.266 . S
Co952 O955 1.970 . S
Co952 N969 1.989 . S
Co952 O977 1.967 . S
Co952 O984 1.920 . S
Co953 O956 1.966 . S
Co953 N962 2.022 . S
Co953 N970 1.993 . S
Co953 O978 1.941 . S
C954 O955 1.258 . S
C954 O956 1.263 . S
O955 Co952 1.970 . S
O955 C954 1.258 . S
O956 Co953 1.966 . S
O956 C954 1.263 . S
C957 O958 1.235 . S
C957 O984 1.289 . S
O958 C957 1.235 . S
C959 C961 1.400 . S
C959 N962 1.351 . S
C959 C964 1.501 . S
C960 C961 1.387 . S
C960 N963 1.341 . S
C961 C959 1.400 . S
C961 C960 1.387 . S
N962 Co953 2.022 . S
N962 C959 1.351 . S
N962 N963 1.365 . S
N963 C960 1.341 . S
N963 N962 1.365 . S
N963 H983 0.862 . S
C964 C959 1.501 . S
C964 H965 0.961 . S
C964 H966 0.961 . S
C964 H967 0.960 . S
H965 C964 0.961 . S
H966 C964 0.961 . S
H967 C964 0.960 . S
C968 N969 1.342 . S
C968 C972 1.401 . S
C968 C973 1.499 . S
N969 Co952 1.989 . S
N969 C968 1.342 . S
N969 N970 1.388 . S
N970 Co953 1.993 . S
N970 N969 1.388 . S
N970 C971 1.346 . S
C971 N970 1.346 . S
C971 C972 1.396 . S
C971 C981 1.510 . S
C972 C968 1.401 . S
C972 C971 1.396 . S
C973 C968 1.499 . S
C973 H974 0.959 . S
C973 H975 0.960 . S
C973 H976 0.961 . S
H974 C973 0.959 . S
H975 C973 0.960 . S
H976 C973 0.961 . S
O977 Co952 1.967 . S
O977 C985 1.258 . S
O978 Co953 1.941 . S
O978 C985 1.266 . S
H979 C981 0.959 . S
H980 C981 0.961 . S
C981 C971 1.510 . S
C981 H979 0.959 . S
C981 H980 0.961 . S
C981 H982 0.960 . S
H982 C981 0.960 . S
H983 N963 0.862 . S
O984 Co952 1.920 . S
O984 C957 1.289 . S
C985 O977 1.258 . S
C985 O978 1.266 . S
Co986 O989 1.970 . S
Co986 N1003 1.989 . S
Co986 O1011 1.967 . S
Co986 O1018 1.920 . S
Co987 O990 1.966 . S
Co987 N996 2.022 . S
Co987 N1004 1.993 . S
Co987 O1012 1.941 . S
C988 O989 1.258 . S
C988 O990 1.263 . S
O989 Co986 1.970 . S
O989 C988 1.258 . S
O990 Co987 1.966 . S
O990 C988 1.263 . S
C991 O992 1.235 . S
C991 O1018 1.289 . S
O992 C991 1.235 . S
C993 C995 1.400 . S
C993 N996 1.351 . S
C993 C998 1.501 . S
C994 C995 1.387 1_554 S
C994 N997 1.343 . S
C995 C993 1.400 . S
C995 C994 1.387 1_556 S
N996 Co987 2.022 . S
N996 C993 1.351 . S
N996 N997 1.352 1_556 S
N997 C994 1.343 . S
N997 N996 1.352 1_554 S
N997 H1017 0.872 . S
C998 C993 1.501 . S
C998 H999 0.961 . S
C998 H1000 0.961 . S
C998 H1001 0.960 . S
H999 C998 0.961 . S
H1000 C998 0.961 . S
H1001 C998 0.960 . S
C1002 N1003 1.342 . S
C1002 C1006 1.401 . S
C1002 C1007 1.499 . S
N1003 Co986 1.989 . S
N1003 C1002 1.342 . S
N1003 N1004 1.388 . S
N1004 Co987 1.993 . S
N1004 N1003 1.388 . S
N1004 C1005 1.346 . S
C1005 N1004 1.346 . S
C1005 C1006 1.396 . S
C1005 C1015 1.510 . S
C1006 C1002 1.401 . S
C1006 C1005 1.396 . S
C1007 C1002 1.499 . S
C1007 H1008 0.959 . S
C1007 H1009 0.960 1_655 S
C1007 H1010 0.961 1_655 S
H1008 C1007 0.959 . S
H1009 C1007 0.960 1_455 S
H1010 C1007 0.961 1_455 S
O1011 Co986 1.967 . S
O1011 C1019 1.258 . S
O1012 Co987 1.941 . S
O1012 C1019 1.266 . S
H1013 C1015 0.959 1_554 S
H1014 C1015 0.961 . S
C1015 C1005 1.510 . S
C1015 H1013 0.959 1_556 S
C1015 H1014 0.961 . S
C1015 H1016 0.960 . S
H1016 C1015 0.960 . S
H1017 N997 0.872 . S
O1018 Co986 1.920 . S
O1018 C991 1.289 . S
C1019 O1011 1.258 . S
C1019 O1012 1.266 . S
Co1020 O1023 1.970 . S
Co1020 N1037 1.989 . S
Co1020 O1045 1.967 . S
Co1020 O1052 1.920 . S
Co1021 O1024 1.966 . S
Co1021 N1030 2.022 . S
Co1021 N1038 1.993 . S
Co1021 O1046 1.941 . S
C1022 O1023 1.258 . S
C1022 O1024 1.263 . S
O1023 Co1020 1.970 . S
O1023 C1022 1.258 . S
O1024 Co1021 1.966 . S
O1024 C1022 1.263 . S
C1025 O1026 1.235 . S
C1025 O1052 1.289 . S
O1026 C1025 1.235 . S
C1027 C1029 1.400 . S
C1027 N1030 1.351 . S
C1027 C1032 1.501 . S
C1028 C1029 1.387 . S
C1028 N1031 1.341 . S
C1029 C1027 1.400 . S
C1029 C1028 1.387 . S
N1030 Co1021 2.022 . S
N1030 C1027 1.351 . S
N1030 N1031 1.365 . S
N1031 C1028 1.341 . S
N1031 N1030 1.365 . S
N1031 H1051 0.862 . S
C1032 C1027 1.501 . S
C1032 H1033 0.961 . S
C1032 H1034 0.961 . S
C1032 H1035 0.960 . S
H1033 C1032 0.961 . S
H1034 C1032 0.961 . S
H1035 C1032 0.960 . S
C1036 N1037 1.342 . S
C1036 C1040 1.401 . S
C1036 C1041 1.499 . S
N1037 Co1020 1.989 . S
N1037 C1036 1.342 . S
N1037 N1038 1.388 . S
N1038 Co1021 1.993 . S
N1038 N1037 1.388 . S
N1038 C1039 1.346 . S
C1039 N1038 1.346 . S
C1039 C1040 1.396 . S
C1039 C1049 1.510 . S
C1040 C1036 1.401 . S
C1040 C1039 1.396 . S
C1041 C1036 1.499 . S
C1041 H1042 0.959 . S
C1041 H1043 0.960 . S
C1041 H1044 0.961 . S
H1042 C1041 0.959 . S
H1043 C1041 0.960 . S
H1044 C1041 0.961 . S
O1045 Co1020 1.967 . S
O1045 C1053 1.258 . S
O1046 Co1021 1.941 . S
O1046 C1053 1.266 . S
H1047 C1049 0.959 . S
H1048 C1049 0.961 . S
C1049 C1039 1.510 . S
C1049 H1047 0.959 . S
C1049 H1048 0.961 . S
C1049 H1050 0.960 . S
H1050 C1049 0.960 . S
H1051 N1031 0.862 . S
O1052 Co1020 1.920 . S
O1052 C1025 1.289 . S
C1053 O1045 1.258 . S
C1053 O1046 1.266 . S
Co1054 O1057 1.970 . S
Co1054 N1071 1.989 . S
Co1054 O1079 1.967 . S
Co1054 O1086 1.920 . S
Co1055 O1058 1.966 . S
Co1055 N1064 2.022 . S
Co1055 N1072 1.993 . S
Co1055 O1080 1.941 . S
C1056 O1057 1.258 . S
C1056 O1058 1.263 . S
O1057 Co1054 1.970 . S
O1057 C1056 1.258 . S
O1058 Co1055 1.966 . S
O1058 C1056 1.263 . S
C1059 O1060 1.235 . S
C1059 O1086 1.289 . S
O1060 C1059 1.235 . S
C1061 C1063 1.400 . S
C1061 N1064 1.351 . S
C1061 C1066 1.501 . S
C1062 C1063 1.387 . S
C1062 N1065 1.341 . S
C1063 C1061 1.400 . S
C1063 C1062 1.387 . S
N1064 Co1055 2.022 . S
N1064 C1061 1.351 . S
N1064 N1065 1.365 . S
N1065 C1062 1.341 . S
N1065 N1064 1.365 . S
N1065 H1085 0.862 . S
C1066 C1061 1.501 . S
C1066 H1067 0.961 . S
C1066 H1068 0.961 . S
C1066 H1069 0.960 . S
H1067 C1066 0.961 . S
H1068 C1066 0.961 . S
H1069 C1066 0.960 . S
C1070 N1071 1.342 . S
C1070 C1074 1.401 . S
C1070 C1075 1.499 . S
N1071 Co1054 1.989 . S
N1071 C1070 1.342 . S
N1071 N1072 1.388 . S
N1072 Co1055 1.993 . S
N1072 N1071 1.388 . S
N1072 C1073 1.346 . S
C1073 N1072 1.346 . S
C1073 C1074 1.396 . S
C1073 C1083 1.510 . S
C1074 C1070 1.401 . S
C1074 C1073 1.396 . S
C1075 C1070 1.499 . S
C1075 H1076 0.959 . S
C1075 H1077 0.960 . S
C1075 H1078 0.961 . S
H1076 C1075 0.959 . S
H1077 C1075 0.960 . S
H1078 C1075 0.961 . S
O1079 Co1054 1.967 . S
O1079 C1087 1.258 . S
O1080 Co1055 1.941 . S
O1080 C1087 1.266 . S
H1081 C1083 0.959 . S
H1082 C1083 0.961 . S
C1083 C1073 1.510 . S
C1083 H1081 0.959 . S
C1083 H1082 0.961 . S
C1083 H1084 0.960 . S
H1084 C1083 0.960 . S
H1085 N1065 0.862 . S
O1086 Co1054 1.920 . S
O1086 C1059 1.289 . S
C1087 O1079 1.258 . S
C1087 O1080 1.266 . S
Co1088 O1091 1.970 . S
Co1088 N1105 1.989 . S
Co1088 O1113 1.967 . S
Co1088 O1120 1.920 . S
Co1089 O1092 1.966 . S
Co1089 N1098 2.022 . S
Co1089 N1106 1.993 . S
Co1089 O1114 1.941 . S
C1090 O1091 1.258 . S
C1090 O1092 1.263 . S
O1091 Co1088 1.970 . S
O1091 C1090 1.258 . S
O1092 Co1089 1.966 . S
O1092 C1090 1.263 . S
C1093 O1094 1.235 . S
C1093 O1120 1.289 . S
O1094 C1093 1.235 . S
C1095 C1097 1.400 . S
C1095 N1098 1.351 . S
C1095 C1100 1.501 . S
C1096 C1097 1.387 . S
C1096 N1099 1.341 . S
C1097 C1095 1.400 . S
C1097 C1096 1.387 . S
N1098 Co1089 2.022 . S
N1098 C1095 1.351 . S
N1098 N1099 1.365 . S
N1099 C1096 1.341 . S
N1099 N1098 1.365 . S
N1099 H1119 0.862 . S
C1100 C1095 1.501 . S
C1100 H1101 0.961 . S
C1100 H1102 0.961 . S
C1100 H1103 0.960 . S
H1101 C1100 0.961 . S
H1102 C1100 0.961 . S
H1103 C1100 0.960 . S
C1104 N1105 1.342 . S
C1104 C1108 1.401 . S
C1104 C1109 1.499 . S
N1105 Co1088 1.989 . S
N1105 C1104 1.342 . S
N1105 N1106 1.388 . S
N1106 Co1089 1.993 . S
N1106 N1105 1.388 . S
N1106 C1107 1.346 . S
C1107 N1106 1.346 . S
C1107 C1108 1.396 . S
C1107 C1117 1.510 . S
C1108 C1104 1.401 . S
C1108 C1107 1.396 . S
C1109 C1104 1.499 . S
C1109 H1110 0.959 . S
C1109 H1111 0.960 . S
C1109 H1112 0.961 . S
H1110 C1109 0.959 . S
H1111 C1109 0.960 . S
H1112 C1109 0.961 . S
O1113 Co1088 1.967 . S
O1113 C1121 1.258 . S
O1114 Co1089 1.941 . S
O1114 C1121 1.266 . S
H1115 C1117 0.959 . S
H1116 C1117 0.961 . S
C1117 C1107 1.510 . S
C1117 H1115 0.959 . S
C1117 H1116 0.961 . S
C1117 H1118 0.960 . S
H1118 C1117 0.960 . S
H1119 N1099 0.862 . S
O1120 Co1088 1.920 . S
O1120 C1093 1.289 . S
C1121 O1113 1.258 . S
C1121 O1114 1.266 . S
Co1122 O1125 1.970 . S
Co1122 N1139 1.989 . S
Co1122 O1147 1.967 . S
Co1122 O1154 1.920 . S
Co1123 O1126 1.966 . S
Co1123 N1132 2.022 . S
Co1123 N1140 1.993 . S
Co1123 O1148 1.941 . S
C1124 O1125 1.258 . S
C1124 O1126 1.263 . S
O1125 Co1122 1.970 . S
O1125 C1124 1.258 . S
O1126 Co1123 1.966 . S
O1126 C1124 1.263 . S
C1127 O1128 1.235 . S
C1127 O1154 1.289 . S
O1128 C1127 1.235 . S
C1129 C1131 1.400 . S
C1129 N1132 1.351 . S
C1129 C1134 1.501 . S
C1130 C1131 1.387 . S
C1130 N1133 1.341 . S
C1131 C1129 1.400 . S
C1131 C1130 1.387 . S
N1132 Co1123 2.022 . S
N1132 C1129 1.351 . S
N1132 N1133 1.365 . S
N1133 C1130 1.341 . S
N1133 N1132 1.365 . S
N1133 H1153 0.862 . S
C1134 C1129 1.501 . S
C1134 H1135 0.961 . S
C1134 H1136 0.961 . S
C1134 H1137 0.960 . S
H1135 C1134 0.961 . S
H1136 C1134 0.961 . S
H1137 C1134 0.960 . S
C1138 N1139 1.342 . S
C1138 C1142 1.401 . S
C1138 C1143 1.499 . S
N1139 Co1122 1.989 . S
N1139 C1138 1.342 . S
N1139 N1140 1.388 . S
N1140 Co1123 1.993 . S
N1140 N1139 1.388 . S
N1140 C1141 1.346 . S
C1141 N1140 1.346 . S
C1141 C1142 1.396 . S
C1141 C1151 1.510 . S
C1142 C1138 1.401 . S
C1142 C1141 1.396 . S
C1143 C1138 1.499 . S
C1143 H1144 0.959 . S
C1143 H1145 0.960 1_556 S
C1143 H1146 0.961 1_556 S
H1144 C1143 0.959 . S
H1145 C1143 0.960 1_554 S
H1146 C1143 0.961 1_554 S
O1147 Co1122 1.967 . S
O1147 C1155 1.258 . S
O1148 Co1123 1.941 . S
O1148 C1155 1.266 . S
H1149 C1151 0.959 . S
H1150 C1151 0.961 . S
C1151 C1141 1.510 . S
C1151 H1149 0.959 . S
C1151 H1150 0.961 . S
C1151 H1152 0.960 . S
H1152 C1151 0.960 . S
H1153 N1133 0.862 . S
O1154 Co1122 1.920 . S
O1154 C1127 1.289 . S
C1155 O1147 1.258 . S
C1155 O1148 1.266 . S
Co1156 O1159 1.970 . S
Co1156 N1173 1.989 . S
Co1156 O1181 1.967 . S
Co1156 O1188 1.920 . S
Co1157 O1160 1.966 . S
Co1157 N1166 2.022 . S
Co1157 N1174 1.993 . S
Co1157 O1182 1.941 . S
C1158 O1159 1.258 . S
C1158 O1160 1.263 . S
O1159 Co1156 1.970 . S
O1159 C1158 1.258 . S
O1160 Co1157 1.966 . S
O1160 C1158 1.263 . S
C1161 O1162 1.235 . S
C1161 O1188 1.289 . S
O1162 C1161 1.235 . S
C1163 C1165 1.400 . S
C1163 N1166 1.351 . S
C1163 C1168 1.501 . S
C1164 C1165 1.387 . S
C1164 N1167 1.341 . S
C1165 C1163 1.400 . S
C1165 C1164 1.387 . S
N1166 Co1157 2.022 . S
N1166 C1163 1.351 . S
N1166 N1167 1.365 . S
N1167 C1164 1.341 . S
N1167 N1166 1.365 . S
N1167 H1187 0.862 . S
C1168 C1163 1.501 . S
C1168 H1169 0.961 . S
C1168 H1170 0.961 . S
C1168 H1171 0.960 . S
H1169 C1168 0.961 . S
H1170 C1168 0.961 . S
H1171 C1168 0.960 . S
C1172 N1173 1.342 . S
C1172 C1176 1.401 . S
C1172 C1177 1.499 . S
N1173 Co1156 1.989 . S
N1173 C1172 1.342 . S
N1173 N1174 1.388 . S
N1174 Co1157 1.993 . S
N1174 N1173 1.388 . S
N1174 C1175 1.346 . S
C1175 N1174 1.346 . S
C1175 C1176 1.396 . S
C1175 C1185 1.510 . S
C1176 C1172 1.401 . S
C1176 C1175 1.396 . S
C1177 C1172 1.499 . S
C1177 H1178 0.959 . S
C1177 H1179 0.960 . S
C1177 H1180 0.961 . S
H1178 C1177 0.959 . S
H1179 C1177 0.960 . S
H1180 C1177 0.961 . S
O1181 Co1156 1.967 . S
O1181 C1189 1.258 . S
O1182 Co1157 1.941 . S
O1182 C1189 1.266 . S
H1183 C1185 0.959 . S
H1184 C1185 0.961 . S
C1185 C1175 1.510 . S
C1185 H1183 0.959 . S
C1185 H1184 0.961 . S
C1185 H1186 0.960 . S
H1186 C1185 0.960 . S
H1187 N1167 0.862 . S
O1188 Co1156 1.920 . S
O1188 C1161 1.289 . S
C1189 O1181 1.258 . S
C1189 O1182 1.266 . S
Co1190 O1193 1.970 . S
Co1190 N1207 1.989 . S
Co1190 O1215 1.967 . S
Co1190 O1222 1.920 . S
Co1191 O1194 1.966 . S
Co1191 N1200 2.022 . S
Co1191 N1208 1.993 . S
Co1191 O1216 1.941 . S
C1192 O1193 1.258 . S
C1192 O1194 1.263 . S
O1193 Co1190 1.970 . S
O1193 C1192 1.258 . S
O1194 Co1191 1.966 . S
O1194 C1192 1.263 . S
C1195 O1196 1.235 . S
C1195 O1222 1.289 . S
O1196 C1195 1.235 . S
C1197 C1199 1.400 . S
C1197 N1200 1.351 . S
C1197 C1202 1.501 . S
C1198 C1199 1.387 . S
C1198 N1201 1.341 . S
C1199 C1197 1.400 . S
C1199 C1198 1.387 . S
N1200 Co1191 2.022 . S
N1200 C1197 1.351 . S
N1200 N1201 1.365 . S
N1201 C1198 1.341 . S
N1201 N1200 1.365 . S
N1201 H1221 0.862 . S
C1202 C1197 1.501 . S
C1202 H1203 0.961 . S
C1202 H1204 0.961 . S
C1202 H1205 0.960 . S
H1203 C1202 0.961 . S
H1204 C1202 0.961 . S
H1205 C1202 0.960 . S
C1206 N1207 1.342 . S
C1206 C1210 1.401 . S
C1206 C1211 1.499 . S
N1207 Co1190 1.989 . S
N1207 C1206 1.342 . S
N1207 N1208 1.388 . S
N1208 Co1191 1.993 . S
N1208 N1207 1.388 . S
N1208 C1209 1.346 . S
C1209 N1208 1.346 . S
C1209 C1210 1.396 . S
C1209 C1219 1.510 . S
C1210 C1206 1.401 . S
C1210 C1209 1.396 . S
C1211 C1206 1.499 . S
C1211 H1212 0.959 . S
C1211 H1213 0.960 . S
C1211 H1214 0.961 . S
H1212 C1211 0.959 . S
H1213 C1211 0.960 . S
H1214 C1211 0.961 . S
O1215 Co1190 1.967 . S
O1215 C1223 1.258 . S
O1216 Co1191 1.941 . S
O1216 C1223 1.266 . S
H1217 C1219 0.959 . S
H1218 C1219 0.961 . S
C1219 C1209 1.510 . S
C1219 H1217 0.959 . S
C1219 H1218 0.961 . S
C1219 H1220 0.960 . S
H1220 C1219 0.960 . S
H1221 N1201 0.862 . S
O1222 Co1190 1.920 . S
O1222 C1195 1.289 . S
C1223 O1215 1.258 . S
C1223 O1216 1.266 . S
Co1224 O1227 1.970 . S
Co1224 N1241 1.989 . S
Co1224 O1249 1.967 . S
Co1224 O1256 1.920 . S
Co1225 O1228 1.966 . S
Co1225 N1234 2.022 . S
Co1225 N1242 1.993 . S
Co1225 O1250 1.941 . S
C1226 O1227 1.258 . S
C1226 O1228 1.263 . S
O1227 Co1224 1.970 . S
O1227 C1226 1.258 . S
O1228 Co1225 1.966 . S
O1228 C1226 1.263 . S
C1229 O1230 1.235 . S
C1229 O1256 1.289 . S
O1230 C1229 1.235 . S
C1231 C1233 1.400 . S
C1231 N1234 1.351 . S
C1231 C1236 1.501 . S
C1232 C1233 1.387 . S
C1232 N1235 1.341 . S
C1233 C1231 1.400 . S
C1233 C1232 1.387 . S
N1234 Co1225 2.022 . S
N1234 C1231 1.351 . S
N1234 N1235 1.365 . S
N1235 C1232 1.341 . S
N1235 N1234 1.365 . S
N1235 H1255 0.862 . S
C1236 C1231 1.501 . S
C1236 H1237 0.961 . S
C1236 H1238 0.961 . S
C1236 H1239 0.960 . S
H1237 C1236 0.961 . S
H1238 C1236 0.961 . S
H1239 C1236 0.960 . S
C1240 N1241 1.342 . S
C1240 C1244 1.401 . S
C1240 C1245 1.499 . S
N1241 Co1224 1.989 . S
N1241 C1240 1.342 . S
N1241 N1242 1.388 . S
N1242 Co1225 1.993 . S
N1242 N1241 1.388 . S
N1242 C1243 1.346 . S
C1243 N1242 1.346 . S
C1243 C1244 1.396 . S
C1243 C1253 1.510 . S
C1244 C1240 1.401 . S
C1244 C1243 1.396 . S
C1245 C1240 1.499 . S
C1245 H1246 0.959 . S
C1245 H1247 0.960 . S
C1245 H1248 0.961 . S
H1246 C1245 0.959 . S
H1247 C1245 0.960 . S
H1248 C1245 0.961 . S
O1249 Co1224 1.967 . S
O1249 C1257 1.258 . S
O1250 Co1225 1.941 . S
O1250 C1257 1.266 . S
H1251 C1253 0.959 . S
H1252 C1253 0.961 . S
C1253 C1243 1.510 . S
C1253 H1251 0.959 . S
C1253 H1252 0.961 . S
C1253 H1254 0.960 . S
H1254 C1253 0.960 . S
H1255 N1235 0.862 . S
O1256 Co1224 1.920 . S
O1256 C1229 1.289 . S
C1257 O1249 1.258 . S
C1257 O1250 1.266 . S
Co1258 O1261 1.970 . S
Co1258 N1275 1.989 . S
Co1258 O1283 1.967 . S
Co1258 O1290 1.920 . S
Co1259 O1262 1.966 . S
Co1259 N1268 2.022 . S
Co1259 N1276 1.993 . S
Co1259 O1284 1.941 . S
C1260 O1261 1.258 . S
C1260 O1262 1.263 . S
O1261 Co1258 1.970 . S
O1261 C1260 1.258 . S
O1262 Co1259 1.966 . S
O1262 C1260 1.263 . S
C1263 O1264 1.235 . S
C1263 O1290 1.289 . S
O1264 C1263 1.235 . S
C1265 C1267 1.400 . S
C1265 N1268 1.351 . S
C1265 C1270 1.501 . S
C1266 C1267 1.387 . S
C1266 N1269 1.341 . S
C1267 C1265 1.400 . S
C1267 C1266 1.387 . S
N1268 Co1259 2.022 . S
N1268 C1265 1.351 . S
N1268 N1269 1.365 . S
N1269 C1266 1.341 . S
N1269 N1268 1.365 . S
N1269 H1289 0.862 . S
C1270 C1265 1.501 . S
C1270 H1271 0.961 . S
C1270 H1272 0.961 . S
C1270 H1273 0.960 . S
H1271 C1270 0.961 . S
H1272 C1270 0.961 . S
H1273 C1270 0.960 . S
C1274 N1275 1.342 . S
C1274 C1278 1.401 . S
C1274 C1279 1.499 . S
N1275 Co1258 1.989 . S
N1275 C1274 1.342 . S
N1275 N1276 1.388 . S
N1276 Co1259 1.993 . S
N1276 N1275 1.388 . S
N1276 C1277 1.346 . S
C1277 N1276 1.346 . S
C1277 C1278 1.396 . S
C1277 C1287 1.510 . S
C1278 C1274 1.401 . S
C1278 C1277 1.396 . S
C1279 C1274 1.499 . S
C1279 H1280 0.959 . S
C1279 H1281 0.960 1_554 S
C1279 H1282 0.961 1_554 S
H1280 C1279 0.959 . S
H1281 C1279 0.960 1_556 S
H1282 C1279 0.961 1_556 S
O1283 Co1258 1.967 . S
O1283 C1291 1.258 . S
O1284 Co1259 1.941 . S
O1284 C1291 1.266 . S
H1285 C1287 0.959 . S
H1286 C1287 0.961 . S
C1287 C1277 1.510 . S
C1287 H1285 0.959 . S
C1287 H1286 0.961 . S
C1287 H1288 0.960 . S
H1288 C1287 0.960 . S
H1289 N1269 0.862 . S
O1290 Co1258 1.920 . S
O1290 C1263 1.289 . S
C1291 O1283 1.258 . S
C1291 O1284 1.266 . S
Co1292 O1295 1.970 . S
Co1292 N1309 1.989 . S
Co1292 O1317 1.967 . S
Co1292 O1324 1.920 . S
Co1293 O1296 1.966 . S
Co1293 N1302 2.022 . S
Co1293 N1310 1.993 . S
Co1293 O1318 1.941 . S
C1294 O1295 1.258 . S
C1294 O1296 1.263 . S
O1295 Co1292 1.970 . S
O1295 C1294 1.258 . S
O1296 Co1293 1.966 . S
O1296 C1294 1.263 . S
C1297 O1298 1.235 . S
C1297 O1324 1.289 . S
O1298 C1297 1.235 . S
C1299 C1301 1.400 . S
C1299 N1302 1.351 . S
C1299 C1304 1.501 . S
C1300 C1301 1.387 . S
C1300 N1303 1.341 . S
C1301 C1299 1.400 . S
C1301 C1300 1.387 . S
N1302 Co1293 2.022 . S
N1302 C1299 1.351 . S
N1302 N1303 1.365 . S
N1303 C1300 1.341 . S
N1303 N1302 1.365 . S
N1303 H1323 0.862 . S
C1304 C1299 1.501 . S
C1304 H1305 0.961 . S
C1304 H1306 0.961 . S
C1304 H1307 0.960 . S
H1305 C1304 0.961 . S
H1306 C1304 0.961 . S
H1307 C1304 0.960 . S
C1308 N1309 1.342 . S
C1308 C1312 1.401 . S
C1308 C1313 1.499 . S
N1309 Co1292 1.989 . S
N1309 C1308 1.342 . S
N1309 N1310 1.388 . S
N1310 Co1293 1.993 . S
N1310 N1309 1.388 . S
N1310 C1311 1.346 . S
C1311 N1310 1.346 . S
C1311 C1312 1.396 . S
C1311 C1321 1.510 . S
C1312 C1308 1.401 . S
C1312 C1311 1.396 . S
C1313 C1308 1.499 . S
C1313 H1314 0.959 . S
C1313 H1315 0.960 . S
C1313 H1316 0.961 . S
H1314 C1313 0.959 . S
H1315 C1313 0.960 . S
H1316 C1313 0.961 . S
O1317 Co1292 1.967 . S
O1317 C1325 1.258 . S
O1318 Co1293 1.941 . S
O1318 C1325 1.266 . S
H1319 C1321 0.959 . S
H1320 C1321 0.961 . S
C1321 C1311 1.510 . S
C1321 H1319 0.959 . S
C1321 H1320 0.961 . S
C1321 H1322 0.960 . S
H1322 C1321 0.960 . S
H1323 N1303 0.862 . S
O1324 Co1292 1.920 . S
O1324 C1297 1.289 . S
C1325 O1317 1.258 . S
C1325 O1318 1.266 . S
Co1326 O1329 1.970 . S
Co1326 N1343 1.989 . S
Co1326 O1351 1.967 . S
Co1326 O1358 1.920 . S
Co1327 O1330 1.966 . S
Co1327 N1336 2.022 . S
Co1327 N1344 1.993 . S
Co1327 O1352 1.941 . S
C1328 O1329 1.258 . S
C1328 O1330 1.263 . S
O1329 Co1326 1.970 . S
O1329 C1328 1.258 . S
O1330 Co1327 1.966 . S
O1330 C1328 1.263 . S
C1331 O1332 1.235 . S
C1331 O1358 1.289 . S
O1332 C1331 1.235 . S
C1333 C1335 1.400 . S
C1333 N1336 1.351 . S
C1333 C1338 1.501 . S
C1334 C1335 1.387 . S
C1334 N1337 1.341 . S
C1335 C1333 1.400 . S
C1335 C1334 1.387 . S
N1336 Co1327 2.022 . S
N1336 C1333 1.351 . S
N1336 N1337 1.365 . S
N1337 C1334 1.341 . S
N1337 N1336 1.365 . S
N1337 H1357 0.862 . S
C1338 C1333 1.501 . S
C1338 H1339 0.961 . S
C1338 H1340 0.961 . S
C1338 H1341 0.960 . S
H1339 C1338 0.961 . S
H1340 C1338 0.961 . S
H1341 C1338 0.960 . S
C1342 N1343 1.342 . S
C1342 C1346 1.401 . S
C1342 C1347 1.499 . S
N1343 Co1326 1.989 . S
N1343 C1342 1.342 . S
N1343 N1344 1.388 . S
N1344 Co1327 1.993 . S
N1344 N1343 1.388 . S
N1344 C1345 1.346 . S
C1345 N1344 1.346 . S
C1345 C1346 1.396 . S
C1345 C1355 1.510 . S
C1346 C1342 1.401 . S
C1346 C1345 1.396 . S
C1347 C1342 1.499 . S
C1347 H1348 0.959 . S
C1347 H1349 0.960 . S
C1347 H1350 0.961 . S
H1348 C1347 0.959 . S
H1349 C1347 0.960 . S
H1350 C1347 0.961 . S
O1351 Co1326 1.967 . S
O1351 C1359 1.258 . S
O1352 Co1327 1.941 . S
O1352 C1359 1.266 . S
H1353 C1355 0.959 . S
H1354 C1355 0.961 . S
C1355 C1345 1.510 . S
C1355 H1353 0.959 . S
C1355 H1354 0.961 . S
C1355 H1356 0.960 . S
H1356 C1355 0.960 . S
H1357 N1337 0.862 . S
O1358 Co1326 1.920 . S
O1358 C1331 1.289 . S
C1359 O1351 1.258 . S
C1359 O1352 1.266 . S
Co1360 O1363 1.970 . S
Co1360 N1377 1.989 . S
Co1360 O1385 1.967 . S
Co1360 O1392 1.920 . S
Co1361 O1364 1.966 . S
Co1361 N1370 2.022 . S
Co1361 N1378 1.993 . S
Co1361 O1386 1.941 . S
C1362 O1363 1.258 . S
C1362 O1364 1.263 . S
O1363 Co1360 1.970 . S
O1363 C1362 1.258 . S
O1364 Co1361 1.966 . S
O1364 C1362 1.263 . S
C1365 O1366 1.235 . S
C1365 O1392 1.289 . S
O1366 C1365 1.235 . S
C1367 C1369 1.400 . S
C1367 N1370 1.351 . S
C1367 C1372 1.501 . S
C1368 C1369 1.387 . S
C1368 N1371 1.341 . S
C1369 C1367 1.400 . S
C1369 C1368 1.387 . S
N1370 Co1361 2.022 . S
N1370 C1367 1.351 . S
N1370 N1371 1.365 . S
N1371 C1368 1.341 . S
N1371 N1370 1.365 . S
N1371 H1391 0.862 . S
C1372 C1367 1.501 . S
C1372 H1373 0.961 . S
C1372 H1374 0.961 . S
C1372 H1375 0.960 . S
H1373 C1372 0.961 . S
H1374 C1372 0.961 . S
H1375 C1372 0.960 . S
C1376 N1377 1.342 . S
C1376 C1380 1.401 . S
C1376 C1381 1.499 . S
N1377 Co1360 1.989 . S
N1377 C1376 1.342 . S
N1377 N1378 1.388 . S
N1378 Co1361 1.993 . S
N1378 N1377 1.388 . S
N1378 C1379 1.346 . S
C1379 N1378 1.346 . S
C1379 C1380 1.396 . S
C1379 C1389 1.510 . S
C1380 C1376 1.401 . S
C1380 C1379 1.396 . S
C1381 C1376 1.499 . S
C1381 H1382 0.959 . S
C1381 H1383 0.960 . S
C1381 H1384 0.961 . S
H1382 C1381 0.959 . S
H1383 C1381 0.960 . S
H1384 C1381 0.961 . S
O1385 Co1360 1.967 . S
O1385 C1393 1.258 . S
O1386 Co1361 1.941 . S
O1386 C1393 1.266 . S
H1387 C1389 0.959 . S
H1388 C1389 0.961 . S
C1389 C1379 1.510 . S
C1389 H1387 0.959 . S
C1389 H1388 0.961 . S
C1389 H1390 0.960 . S
H1390 C1389 0.960 . S
H1391 N1371 0.862 . S
O1392 Co1360 1.920 . S
O1392 C1365 1.289 . S
C1393 O1385 1.258 . S
C1393 O1386 1.266 . S
Co1394 O1397 1.970 . S
Co1394 N1411 1.989 . S
Co1394 O1419 1.967 . S
Co1394 O1426 1.920 . S
Co1395 O1398 1.966 . S
Co1395 N1404 2.022 . S
Co1395 N1412 1.993 . S
Co1395 O1420 1.941 . S
C1396 O1397 1.258 . S
C1396 O1398 1.263 . S
O1397 Co1394 1.970 . S
O1397 C1396 1.258 . S
O1398 Co1395 1.966 . S
O1398 C1396 1.263 . S
C1399 O1400 1.235 . S
C1399 O1426 1.289 . S
O1400 C1399 1.235 . S
C1401 C1403 1.400 . S
C1401 N1404 1.351 . S
C1401 C1406 1.501 . S
C1402 C1403 1.387 . S
C1402 N1405 1.341 . S
C1403 C1401 1.400 . S
C1403 C1402 1.387 . S
N1404 Co1395 2.022 . S
N1404 C1401 1.351 . S
N1404 N1405 1.365 . S
N1405 C1402 1.341 . S
N1405 N1404 1.365 . S
N1405 H1425 0.862 . S
C1406 C1401 1.501 . S
C1406 H1407 0.961 . S
C1406 H1408 0.961 . S
C1406 H1409 0.960 . S
H1407 C1406 0.961 . S
H1408 C1406 0.961 . S
H1409 C1406 0.960 . S
C1410 N1411 1.342 . S
C1410 C1414 1.401 . S
C1410 C1415 1.499 . S
N1411 Co1394 1.989 . S
N1411 C1410 1.342 . S
N1411 N1412 1.388 . S
N1412 Co1395 1.993 . S
N1412 N1411 1.388 . S
N1412 C1413 1.346 . S
C1413 N1412 1.346 . S
C1413 C1414 1.396 . S
C1413 C1423 1.510 . S
C1414 C1410 1.401 . S
C1414 C1413 1.396 . S
C1415 C1410 1.499 . S
C1415 H1416 0.959 . S
C1415 H1417 0.960 . S
C1415 H1418 0.961 . S
H1416 C1415 0.959 . S
H1417 C1415 0.960 . S
H1418 C1415 0.961 . S
O1419 Co1394 1.967 . S
O1419 C1427 1.258 . S
O1420 Co1395 1.941 . S
O1420 C1427 1.266 . S
H1421 C1423 0.959 . S
H1422 C1423 0.961 . S
C1423 C1413 1.510 . S
C1423 H1421 0.959 . S
C1423 H1422 0.961 . S
C1423 H1424 0.960 . S
H1424 C1423 0.960 . S
H1425 N1405 0.862 . S
O1426 Co1394 1.920 . S
O1426 C1399 1.289 . S
C1427 O1419 1.258 . S
C1427 O1420 1.266 . S
Co1428 O1431 1.970 . S
Co1428 N1445 1.989 . S
Co1428 O1453 1.967 . S
Co1428 O1460 1.920 . S
Co1429 O1432 1.966 . S
Co1429 N1438 2.022 . S
Co1429 N1446 1.993 . S
Co1429 O1454 1.941 . S
C1430 O1431 1.258 . S
C1430 O1432 1.263 . S
O1431 Co1428 1.970 . S
O1431 C1430 1.258 . S
O1432 Co1429 1.966 . S
O1432 C1430 1.263 . S
C1433 O1434 1.235 . S
C1433 O1460 1.289 . S
O1434 C1433 1.235 . S
C1435 C1437 1.400 . S
C1435 N1438 1.351 . S
C1435 C1440 1.501 . S
C1436 C1437 1.387 . S
C1436 N1439 1.341 . S
C1437 C1435 1.400 . S
C1437 C1436 1.387 . S
N1438 Co1429 2.022 . S
N1438 C1435 1.351 . S
N1438 N1439 1.365 . S
N1439 C1436 1.341 . S
N1439 N1438 1.365 . S
N1439 H1459 0.862 . S
C1440 C1435 1.501 . S
C1440 H1441 0.961 . S
C1440 H1442 0.961 . S
C1440 H1443 0.960 . S
H1441 C1440 0.961 . S
H1442 C1440 0.961 . S
H1443 C1440 0.960 . S
C1444 N1445 1.342 . S
C1444 C1448 1.401 . S
C1444 C1449 1.499 . S
N1445 Co1428 1.989 . S
N1445 C1444 1.342 . S
N1445 N1446 1.388 . S
N1446 Co1429 1.993 . S
N1446 N1445 1.388 . S
N1446 C1447 1.346 . S
C1447 N1446 1.346 . S
C1447 C1448 1.396 . S
C1447 C1457 1.510 . S
C1448 C1444 1.401 . S
C1448 C1447 1.396 . S
C1449 C1444 1.499 . S
C1449 H1450 0.959 . S
C1449 H1451 0.960 1_565 S
C1449 H1452 0.961 1_565 S
H1450 C1449 0.959 . S
H1451 C1449 0.960 1_545 S
H1452 C1449 0.961 1_545 S
O1453 Co1428 1.967 . S
O1453 C1461 1.258 . S
O1454 Co1429 1.941 . S
O1454 C1461 1.266 . S
H1455 C1457 0.959 . S
H1456 C1457 0.961 . S
C1457 C1447 1.510 . S
C1457 H1455 0.959 . S
C1457 H1456 0.961 . S
C1457 H1458 0.960 . S
H1458 C1457 0.960 . S
H1459 N1439 0.862 . S
O1460 Co1428 1.920 . S
O1460 C1433 1.289 . S
C1461 O1453 1.258 . S
C1461 O1454 1.266 . S
Co1462 O1465 1.970 . S
Co1462 N1479 1.989 . S
Co1462 O1487 1.967 . S
Co1462 O1494 1.920 . S
Co1463 O1466 1.966 . S
Co1463 N1472 2.022 . S
Co1463 N1480 1.993 . S
Co1463 O1488 1.941 . S
C1464 O1465 1.258 . S
C1464 O1466 1.263 . S
O1465 Co1462 1.970 . S
O1465 C1464 1.258 . S
O1466 Co1463 1.966 . S
O1466 C1464 1.263 . S
C1467 O1468 1.235 . S
C1467 O1494 1.289 . S
O1468 C1467 1.235 . S
C1469 C1471 1.400 . S
C1469 N1472 1.351 . S
C1469 C1474 1.501 . S
C1470 C1471 1.387 . S
C1470 N1473 1.341 . S
C1471 C1469 1.400 . S
C1471 C1470 1.387 . S
N1472 Co1463 2.022 . S
N1472 C1469 1.351 . S
N1472 N1473 1.365 . S
N1473 C1470 1.341 . S
N1473 N1472 1.365 . S
N1473 H1493 0.862 . S
C1474 C1469 1.501 . S
C1474 H1475 0.961 . S
C1474 H1476 0.961 . S
C1474 H1477 0.960 . S
H1475 C1474 0.961 . S
H1476 C1474 0.961 . S
H1477 C1474 0.960 . S
C1478 N1479 1.342 . S
C1478 C1482 1.401 . S
C1478 C1483 1.499 . S
N1479 Co1462 1.989 . S
N1479 C1478 1.342 . S
N1479 N1480 1.388 . S
N1480 Co1463 1.993 . S
N1480 N1479 1.388 . S
N1480 C1481 1.346 . S
C1481 N1480 1.346 . S
C1481 C1482 1.396 . S
C1481 C1491 1.510 . S
C1482 C1478 1.401 . S
C1482 C1481 1.396 . S
C1483 C1478 1.499 . S
C1483 H1484 0.959 . S
C1483 H1485 0.960 . S
C1483 H1486 0.961 . S
H1484 C1483 0.959 . S
H1485 C1483 0.960 . S
H1486 C1483 0.961 . S
O1487 Co1462 1.967 . S
O1487 C1495 1.258 . S
O1488 Co1463 1.941 . S
O1488 C1495 1.266 . S
H1489 C1491 0.959 . S
H1490 C1491 0.961 . S
C1491 C1481 1.510 . S
C1491 H1489 0.959 . S
C1491 H1490 0.961 . S
C1491 H1492 0.960 . S
H1492 C1491 0.960 . S
H1493 N1473 0.862 . S
O1494 Co1462 1.920 . S
O1494 C1467 1.289 . S
C1495 O1487 1.258 . S
C1495 O1488 1.266 . S
Co1496 O1499 1.970 . S
Co1496 N1513 1.989 . S
Co1496 O1521 1.967 . S
Co1496 O1528 1.920 . S
Co1497 O1500 1.966 . S
Co1497 N1506 2.022 . S
Co1497 N1514 1.993 . S
Co1497 O1522 1.941 . S
C1498 O1499 1.258 . S
C1498 O1500 1.263 . S
O1499 Co1496 1.970 . S
O1499 C1498 1.258 . S
O1500 Co1497 1.966 . S
O1500 C1498 1.263 . S
C1501 O1502 1.235 . S
C1501 O1528 1.289 . S
O1502 C1501 1.235 . S
C1503 C1505 1.400 . S
C1503 N1506 1.351 . S
C1503 C1508 1.501 . S
C1504 C1505 1.387 . S
C1504 N1507 1.341 . S
C1505 C1503 1.400 . S
C1505 C1504 1.387 . S
N1506 Co1497 2.022 . S
N1506 C1503 1.351 . S
N1506 N1507 1.365 . S
N1507 C1504 1.341 . S
N1507 N1506 1.365 . S
N1507 H1527 0.862 . S
C1508 C1503 1.501 . S
C1508 H1509 0.961 . S
C1508 H1510 0.961 . S
C1508 H1511 0.960 . S
H1509 C1508 0.961 . S
H1510 C1508 0.961 . S
H1511 C1508 0.960 . S
C1512 N1513 1.342 . S
C1512 C1516 1.401 . S
C1512 C1517 1.499 . S
N1513 Co1496 1.989 . S
N1513 C1512 1.342 . S
N1513 N1514 1.388 . S
N1514 Co1497 1.993 . S
N1514 N1513 1.388 . S
N1514 C1515 1.346 . S
C1515 N1514 1.346 . S
C1515 C1516 1.396 . S
C1515 C1525 1.510 . S
C1516 C1512 1.401 . S
C1516 C1515 1.396 . S
C1517 C1512 1.499 . S
C1517 H1518 0.959 . S
C1517 H1519 0.960 . S
C1517 H1520 0.961 . S
H1518 C1517 0.959 . S
H1519 C1517 0.960 . S
H1520 C1517 0.961 . S
O1521 Co1496 1.967 . S
O1521 C1529 1.258 . S
O1522 Co1497 1.941 . S
O1522 C1529 1.266 . S
H1523 C1525 0.959 . S
H1524 C1525 0.961 . S
C1525 C1515 1.510 . S
C1525 H1523 0.959 . S
C1525 H1524 0.961 . S
C1525 H1526 0.960 . S
H1526 C1525 0.960 . S
H1527 N1507 0.862 . S
O1528 Co1496 1.920 . S
O1528 C1501 1.289 . S
C1529 O1521 1.258 . S
C1529 O1522 1.266 . S
Co1530 O1533 1.970 . S
Co1530 N1547 1.989 . S
Co1530 O1555 1.967 . S
Co1530 O1562 1.920 . S
Co1531 O1534 1.966 . S
Co1531 N1540 2.022 . S
Co1531 N1548 1.993 . S
Co1531 O1556 1.941 . S
C1532 O1533 1.258 . S
C1532 O1534 1.263 . S
O1533 Co1530 1.970 . S
O1533 C1532 1.258 . S
O1534 Co1531 1.966 . S
O1534 C1532 1.263 . S
C1535 O1536 1.235 . S
C1535 O1562 1.289 . S
O1536 C1535 1.235 . S
C1537 C1539 1.400 . S
C1537 N1540 1.351 . S
C1537 C1542 1.501 . S
C1538 C1539 1.387 . S
C1538 N1541 1.341 . S
C1539 C1537 1.400 . S
C1539 C1538 1.387 . S
N1540 Co1531 2.022 . S
N1540 C1537 1.351 . S
N1540 N1541 1.365 . S
N1541 C1538 1.341 . S
N1541 N1540 1.365 . S
N1541 H1561 0.862 . S
C1542 C1537 1.501 . S
C1542 H1543 0.961 . S
C1542 H1544 0.961 . S
C1542 H1545 0.960 . S
H1543 C1542 0.961 . S
H1544 C1542 0.961 . S
H1545 C1542 0.960 . S
C1546 N1547 1.342 . S
C1546 C1550 1.401 . S
C1546 C1551 1.499 . S
N1547 Co1530 1.989 . S
N1547 C1546 1.342 . S
N1547 N1548 1.388 . S
N1548 Co1531 1.993 . S
N1548 N1547 1.388 . S
N1548 C1549 1.346 . S
C1549 N1548 1.346 . S
C1549 C1550 1.396 . S
C1549 C1559 1.510 . S
C1550 C1546 1.401 . S
C1550 C1549 1.396 . S
C1551 C1546 1.499 . S
C1551 H1552 0.959 . S
C1551 H1553 0.960 . S
C1551 H1554 0.961 . S
H1552 C1551 0.959 . S
H1553 C1551 0.960 . S
H1554 C1551 0.961 . S
O1555 Co1530 1.967 . S
O1555 C1563 1.258 . S
O1556 Co1531 1.941 . S
O1556 C1563 1.266 . S
H1557 C1559 0.959 . S
H1558 C1559 0.961 . S
C1559 C1549 1.510 . S
C1559 H1557 0.959 . S
C1559 H1558 0.961 . S
C1559 H1560 0.960 . S
H1560 C1559 0.960 . S
H1561 N1541 0.862 . S
O1562 Co1530 1.920 . S
O1562 C1535 1.289 . S
C1563 O1555 1.258 . S
C1563 O1556 1.266 . S
Co1564 O1567 1.970 . S
Co1564 N1581 1.989 . S
Co1564 O1589 1.967 . S
Co1564 O1596 1.920 . S
Co1565 O1568 1.966 . S
Co1565 N1574 2.022 . S
Co1565 N1582 1.993 . S
Co1565 O1590 1.941 . S
C1566 O1567 1.258 . S
C1566 O1568 1.263 . S
O1567 Co1564 1.970 . S
O1567 C1566 1.258 . S
O1568 Co1565 1.966 . S
O1568 C1566 1.263 . S
C1569 O1570 1.235 . S
C1569 O1596 1.289 . S
O1570 C1569 1.235 . S
C1571 C1573 1.400 . S
C1571 N1574 1.351 . S
C1571 C1576 1.501 . S
C1572 C1573 1.387 . S
C1572 N1575 1.341 . S
C1573 C1571 1.400 . S
C1573 C1572 1.387 . S
N1574 Co1565 2.022 . S
N1574 C1571 1.351 . S
N1574 N1575 1.365 . S
N1575 C1572 1.341 . S
N1575 N1574 1.365 . S
N1575 H1595 0.862 . S
C1576 C1571 1.501 . S
C1576 H1577 0.961 . S
C1576 H1578 0.961 . S
C1576 H1579 0.960 . S
H1577 C1576 0.961 . S
H1578 C1576 0.961 . S
H1579 C1576 0.960 . S
C1580 N1581 1.342 . S
C1580 C1584 1.401 . S
C1580 C1585 1.499 . S
N1581 Co1564 1.989 . S
N1581 C1580 1.342 . S
N1581 N1582 1.388 . S
N1582 Co1565 1.993 . S
N1582 N1581 1.388 . S
N1582 C1583 1.346 . S
C1583 N1582 1.346 . S
C1583 C1584 1.396 . S
C1583 C1593 1.510 . S
C1584 C1580 1.401 . S
C1584 C1583 1.396 . S
C1585 C1580 1.499 . S
C1585 H1586 0.959 . S
C1585 H1587 0.960 1_545 S
C1585 H1588 0.961 1_545 S
H1586 C1585 0.959 . S
H1587 C1585 0.960 1_565 S
H1588 C1585 0.961 1_565 S
O1589 Co1564 1.967 . S
O1589 C1597 1.258 . S
O1590 Co1565 1.941 . S
O1590 C1597 1.266 . S
H1591 C1593 0.959 . S
H1592 C1593 0.961 . S
C1593 C1583 1.510 . S
C1593 H1591 0.959 . S
C1593 H1592 0.961 . S
C1593 H1594 0.960 . S
H1594 C1593 0.960 . S
H1595 N1575 0.862 . S
O1596 Co1564 1.920 . S
O1596 C1569 1.289 . S
C1597 O1589 1.258 . S
C1597 O1590 1.266 . S
Co1598 O1601 1.970 . S
Co1598 N1615 1.989 . S
Co1598 O1623 1.967 . S
Co1598 O1630 1.920 . S
Co1599 O1602 1.966 . S
Co1599 N1608 2.022 . S
Co1599 N1616 1.993 . S
Co1599 O1624 1.941 . S
C1600 O1601 1.258 . S
C1600 O1602 1.263 . S
O1601 Co1598 1.970 . S
O1601 C1600 1.258 . S
O1602 Co1599 1.966 . S
O1602 C1600 1.263 . S
C1603 O1604 1.235 . S
C1603 O1630 1.289 . S
O1604 C1603 1.235 . S
C1605 C1607 1.400 . S
C1605 N1608 1.351 . S
C1605 C1610 1.501 . S
C1606 C1607 1.387 1_455 S
C1606 N1609 1.343 . S
C1607 C1605 1.400 . S
C1607 C1606 1.387 1_655 S
N1608 Co1599 2.022 . S
N1608 C1605 1.351 . S
N1608 N1609 1.352 1_655 S
N1609 C1606 1.343 . S
N1609 N1608 1.352 1_455 S
N1609 H1629 0.872 . S
C1610 C1605 1.501 . S
C1610 H1611 0.961 . S
C1610 H1612 0.961 . S
C1610 H1613 0.960 . S
H1611 C1610 0.961 . S
H1612 C1610 0.961 . S
H1613 C1610 0.960 . S
C1614 N1615 1.342 . S
C1614 C1618 1.401 . S
C1614 C1619 1.499 . S
N1615 Co1598 1.989 . S
N1615 C1614 1.342 . S
N1615 N1616 1.388 . S
N1616 Co1599 1.993 . S
N1616 N1615 1.388 . S
N1616 C1617 1.346 . S
C1617 N1616 1.346 . S
C1617 C1618 1.396 . S
C1617 C1627 1.510 . S
C1618 C1614 1.401 . S
C1618 C1617 1.396 . S
C1619 C1614 1.499 . S
C1619 H1620 0.959 . S
C1619 H1621 0.960 1_565 S
C1619 H1622 0.961 1_565 S
H1620 C1619 0.959 . S
H1621 C1619 0.960 1_545 S
H1622 C1619 0.961 1_545 S
O1623 Co1598 1.967 . S
O1623 C1631 1.258 . S
O1624 Co1599 1.941 . S
O1624 C1631 1.266 . S
H1625 C1627 0.959 1_455 S
H1626 C1627 0.961 . S
C1627 C1617 1.510 . S
C1627 H1625 0.959 1_655 S
C1627 H1626 0.961 . S
C1627 H1628 0.960 . S
H1628 C1627 0.960 . S
H1629 N1609 0.872 . S
O1630 Co1598 1.920 . S
O1630 C1603 1.289 . S
C1631 O1623 1.258 . S
C1631 O1624 1.266 . S
C1632 C1633 1.369 . S
C1632 C1634 1.403 1_455 S
C1632 H1636 0.930 . S
C1633 C1632 1.369 . S
C1633 C1642 1.429 . S
C1634 C1632 1.403 1_655 S
C1634 C1635 1.362 1_655 S
C1634 H1637 0.947 . S
C1635 C1634 1.362 1_455 S
C1635 C1641 1.446 . S
H1636 C1632 0.930 . S
H1637 C1634 0.947 . S
S1638 N1639 1.613 . S
S1638 N1640 1.610 . S
N1639 S1638 1.613 . S
N1639 C1642 1.350 . S
N1640 S1638 1.610 . S
N1640 C1641 1.351 . S
C1641 C1635 1.446 . S
C1641 N1640 1.351 . S
C1641 C1642 1.434 . S
C1642 C1633 1.429 . S
C1642 N1639 1.350 . S
C1642 C1641 1.434 . S
C1643 C1644 1.369 . S
C1643 C1645 1.419 . S
C1643 H1647 0.930 . S
C1644 C1643 1.369 . S
C1644 C1653 1.429 . S
C1645 C1643 1.419 . S
C1645 C1646 1.363 . S
C1645 H1648 0.929 . S
C1646 C1645 1.363 . S
C1646 C1652 1.428 . S
H1647 C1643 0.930 . S
H1648 C1645 0.929 . S
S1649 N1650 1.613 . S
S1649 N1651 1.610 . S
N1650 S1649 1.613 . S
N1650 C1653 1.350 . S
N1651 S1649 1.610 . S
N1651 C1652 1.351 . S
C1652 C1646 1.428 . S
C1652 N1651 1.351 . S
C1652 C1653 1.434 . S
C1653 C1644 1.429 . S
C1653 N1650 1.350 . S
C1653 C1652 1.434 . S
C1654 C1655 1.369 . S
C1654 C1656 1.419 . S
C1654 H1658 0.930 . S
C1655 C1654 1.369 . S
C1655 C1664 1.429 . S
C1656 C1654 1.419 . S
C1656 C1657 1.363 . S
C1656 H1659 0.929 . S
C1657 C1656 1.363 . S
C1657 C1663 1.428 . S
H1658 C1654 0.930 . S
H1659 C1656 0.929 . S
S1660 N1661 1.613 . S
S1660 N1662 1.610 . S
N1661 S1660 1.613 . S
N1661 C1664 1.350 . S
N1662 S1660 1.610 . S
N1662 C1663 1.351 . S
C1663 C1657 1.428 . S
C1663 N1662 1.351 . S
C1663 C1664 1.434 . S
C1664 C1655 1.429 . S
C1664 N1661 1.350 . S
C1664 C1663 1.434 . S
C1665 C1666 1.363 1_554 S
C1665 C1667 1.419 1_554 S
C1665 H1669 0.930 . S
C1666 C1665 1.363 1_556 S
C1666 C1675 1.457 . S
C1667 C1665 1.419 1_556 S
C1667 C1668 1.363 . S
C1667 H1670 0.929 . S
C1668 C1667 1.363 . S
C1668 C1674 1.428 . S
H1669 C1665 0.930 . S
H1670 C1667 0.929 . S
S1671 N1672 1.613 . S
S1671 N1673 1.610 . S
N1672 S1671 1.613 . S
N1672 C1675 1.350 . S
N1673 S1671 1.610 . S
N1673 C1674 1.351 . S
C1674 C1668 1.428 . S
C1674 N1673 1.351 . S
C1674 C1675 1.434 . S
C1675 C1666 1.457 . S
C1675 N1672 1.350 . S
C1675 C1674 1.434 . S
C1676 C1677 1.369 . S
C1676 C1678 1.419 . S
C1676 H1680 0.930 . S
C1677 C1676 1.369 . S
C1677 C1686 1.429 . S
C1678 C1676 1.419 . S
C1678 C1679 1.375 . S
C1678 H1681 0.929 . S
C1679 C1678 1.375 . S
C1679 C1685 1.427 1_455 S
H1680 C1676 0.930 . S
H1681 C1678 0.929 . S
S1682 N1683 1.613 1_655 S
S1682 N1684 1.610 . S
N1683 S1682 1.613 1_455 S
N1683 C1686 1.350 . S
N1684 S1682 1.610 . S
N1684 C1685 1.351 . S
C1685 C1679 1.427 1_655 S
C1685 N1684 1.351 . S
C1685 C1686 1.434 1_655 S
C1686 C1677 1.429 . S
C1686 N1683 1.350 . S
C1686 C1685 1.434 1_455 S
C1687 C1688 1.369 . S
C1687 C1689 1.419 . S
C1687 H1691 0.930 . S
C1688 C1687 1.369 . S
C1688 C1697 1.429 . S
C1689 C1687 1.419 . S
C1689 C1690 1.363 . S
C1689 H1692 0.929 . S
C1690 C1689 1.363 . S
C1690 C1696 1.428 . S
H1691 C1687 0.930 . S
H1692 C1689 0.929 . S
S1693 N1694 1.613 . S
S1693 N1695 1.610 . S
N1694 S1693 1.613 . S
N1694 C1697 1.350 . S
N1695 S1693 1.610 . S
N1695 C1696 1.351 . S
C1696 C1690 1.428 . S
C1696 N1695 1.351 . S
C1696 C1697 1.434 . S
C1697 C1688 1.429 . S
C1697 N1694 1.350 . S
C1697 C1696 1.434 . S
C1698 C1699 1.369 . S
C1698 C1700 1.419 . S
C1698 H1702 0.930 . S
C1699 C1698 1.369 . S
C1699 C1708 1.429 . S
C1700 C1698 1.419 . S
C1700 C1701 1.363 . S
C1700 H1703 0.929 . S
C1701 C1700 1.363 . S
C1701 C1707 1.428 . S
H1702 C1698 0.930 . S
H1703 C1700 0.929 . S
S1704 N1705 1.613 . S
S1704 N1706 1.610 . S
N1705 S1704 1.613 . S
N1705 C1708 1.350 . S
N1706 S1704 1.610 . S
N1706 C1707 1.351 . S
C1707 C1701 1.428 . S
C1707 N1706 1.351 . S
C1707 C1708 1.434 . S
C1708 C1699 1.429 . S
C1708 N1705 1.350 . S
C1708 C1707 1.434 . S
C1709 C1710 1.376 . S
C1709 C1711 1.419 . S
C1709 H1713 0.918 1_554 S
C1710 C1709 1.376 . S
C1710 C1719 1.441 . S
C1711 C1709 1.419 . S
C1711 C1712 1.363 . S
C1711 H1714 0.929 . S
C1712 C1711 1.363 . S
C1712 C1718 1.428 . S
H1713 C1709 0.918 1_556 S
H1714 C1711 0.929 . S
S1715 N1716 1.613 . S
S1715 N1717 1.610 . S
N1716 S1715 1.613 . S
N1716 C1719 1.350 . S
N1717 S1715 1.610 . S
N1717 C1718 1.351 . S
C1718 C1712 1.428 . S
C1718 N1717 1.351 . S
C1718 C1719 1.434 . S
C1719 C1710 1.441 . S
C1719 N1716 1.350 . S
C1719 C1718 1.434 . S
C1720 C1721 1.369 . S
C1720 C1722 1.419 1_545 S
C1720 H1724 0.930 . S
C1721 C1720 1.369 . S
C1721 C1730 1.429 . S
C1722 C1720 1.419 1_565 S
C1722 C1723 1.357 1_565 S
C1722 H1725 0.929 . S
C1723 C1722 1.357 1_545 S
C1723 C1729 1.455 . S
H1724 C1720 0.930 . S
H1725 C1722 0.929 . S
S1726 N1727 1.613 . S
S1726 N1728 1.610 . S
N1727 S1726 1.613 . S
N1727 C1730 1.350 . S
N1728 S1726 1.610 . S
N1728 C1729 1.351 . S
C1729 C1723 1.455 . S
C1729 N1728 1.351 . S
C1729 C1730 1.434 . S
C1730 C1721 1.429 . S
C1730 N1727 1.350 . S
C1730 C1729 1.434 . S
C1731 C1732 1.379 . S
C1731 C1733 1.419 . S
C1731 H1735 0.930 . S
C1732 C1731 1.379 . S
C1732 C1741 1.426 1_565 S
C1733 C1731 1.419 . S
C1733 C1734 1.363 . S
C1733 H1736 0.929 . S
C1734 C1733 1.363 . S
C1734 C1740 1.428 . S
H1735 C1731 0.930 . S
H1736 C1733 0.929 . S
S1737 N1738 1.613 . S
S1737 N1739 1.610 1_545 S
N1738 S1737 1.613 . S
N1738 C1741 1.350 . S
N1739 S1737 1.610 1_565 S
N1739 C1740 1.351 . S
C1740 C1734 1.428 . S
C1740 N1739 1.351 . S
C1740 C1741 1.434 1_565 S
C1741 C1732 1.426 1_545 S
C1741 N1738 1.350 . S
C1741 C1740 1.434 1_545 S
C1742 C1743 1.376 . S
C1742 C1744 1.419 . S
C1742 H1746 0.930 . S
C1743 C1742 1.376 . S
C1743 C1752 1.427 1_565 S
C1744 C1742 1.419 . S
C1744 C1745 1.363 . S
C1744 H1747 0.929 . S
C1745 C1744 1.363 . S
C1745 C1751 1.428 . S
H1746 C1742 0.930 . S
H1747 C1744 0.929 . S
S1748 N1749 1.613 . S
S1748 N1750 1.610 1_545 S
N1749 S1748 1.613 . S
N1749 C1752 1.350 . S
N1750 S1748 1.610 1_565 S
N1750 C1751 1.351 . S
C1751 C1745 1.428 . S
C1751 N1750 1.351 . S
C1751 C1752 1.434 1_565 S
C1752 C1743 1.427 1_545 S
C1752 N1749 1.350 . S
C1752 C1751 1.434 1_545 S
C1753 C1754 1.369 . S
C1753 C1755 1.419 . S
C1753 H1757 0.930 . S
C1754 C1753 1.369 . S
C1754 C1763 1.429 . S
C1755 C1753 1.419 . S
C1755 C1756 1.367 . S
C1755 H1758 0.929 1_545 S
C1756 C1755 1.367 . S
C1756 C1762 1.438 . S
H1757 C1753 0.930 . S
H1758 C1755 0.929 1_565 S
S1759 N1760 1.613 . S
S1759 N1761 1.610 . S
N1760 S1759 1.613 . S
N1760 C1763 1.350 . S
N1761 S1759 1.610 . S
N1761 C1762 1.351 . S
C1762 C1756 1.438 . S
C1762 N1761 1.351 . S
C1762 C1763 1.434 . S
C1763 C1754 1.429 . S
C1763 N1760 1.350 . S
C1763 C1762 1.434 . S
C1764 C1765 1.375 . S
C1764 C1766 1.419 . S
C1764 H1768 0.930 . S
C1765 C1764 1.375 . S
C1765 C1774 1.433 . S
C1766 C1764 1.419 . S
C1766 C1767 1.363 . S
C1766 H1769 0.929 . S
C1767 C1766 1.363 . S
C1767 C1773 1.428 . S
H1768 C1764 0.930 . S
H1769 C1766 0.929 . S
S1770 N1771 1.616 . S
S1770 N1772 1.610 . S
N1771 S1770 1.616 . S
N1771 C1774 1.352 . S
N1772 S1770 1.610 . S
N1772 C1773 1.351 . S
C1773 C1767 1.428 . S
C1773 N1772 1.351 . S
C1773 C1774 1.434 . S
C1774 C1765 1.433 . S
C1774 N1771 1.352 . S
C1774 C1773 1.434 . S
C1775 C1776 1.366 1_455 S
C1775 C1777 1.419 1_455 S
C1775 H1779 0.930 . S
C1776 C1775 1.366 1_655 S
C1776 C1785 1.456 . S
C1777 C1775 1.419 1_655 S
C1777 C1778 1.363 . S
C1777 H1780 0.929 . S
C1778 C1777 1.363 . S
C1778 C1784 1.428 . S
H1779 C1775 0.930 . S
H1780 C1777 0.929 . S
S1781 N1782 1.613 . S
S1781 N1783 1.610 . S
N1782 S1781 1.613 . S
N1782 C1785 1.350 . S
N1783 S1781 1.610 . S
N1783 C1784 1.351 . S
C1784 C1778 1.428 . S
C1784 N1783 1.351 . S
C1784 C1785 1.434 . S
C1785 C1776 1.456 . S
C1785 N1782 1.350 . S
C1785 C1784 1.434 . S
C1786 C1787 1.369 . S
C1786 C1788 1.419 . S
C1786 H1790 0.930 . S
C1787 C1786 1.369 . S
C1787 C1796 1.429 . S
C1788 C1786 1.419 . S
C1788 C1789 1.363 . S
C1788 H1791 0.929 . S
C1789 C1788 1.363 . S
C1789 C1795 1.428 . S
H1790 C1786 0.930 . S
H1791 C1788 0.929 . S
S1792 N1793 1.613 . S
S1792 N1794 1.610 . S
N1793 S1792 1.613 . S
N1793 C1796 1.350 . S
N1794 S1792 1.610 . S
N1794 C1795 1.351 . S
C1795 C1789 1.428 . S
C1795 N1794 1.351 . S
C1795 C1796 1.434 . S
C1796 C1787 1.429 . S
C1796 N1793 1.350 . S
C1796 C1795 1.434 . S
C1797 C1798 1.365 1_455 S
C1797 C1799 1.419 1_455 S
C1797 H1801 0.930 . S
C1798 C1797 1.365 1_655 S
C1798 C1807 1.453 . S
C1799 C1797 1.419 1_655 S
C1799 C1800 1.363 . S
C1799 H1802 0.929 . S
C1800 C1799 1.363 . S
C1800 C1806 1.428 . S
H1801 C1797 0.930 . S
H1802 C1799 0.929 . S
S1803 N1804 1.613 . S
S1803 N1805 1.610 . S
N1804 S1803 1.613 . S
N1804 C1807 1.350 . S
N1805 S1803 1.610 . S
N1805 C1806 1.351 . S
C1806 C1800 1.428 . S
C1806 N1805 1.351 . S
C1806 C1807 1.434 . S
C1807 C1798 1.453 . S
C1807 N1804 1.350 . S
C1807 C1806 1.434 . S
C1808 C1809 1.369 . S
C1808 C1810 1.419 . S
C1808 H1812 0.930 . S
C1809 C1808 1.369 . S
C1809 C1818 1.429 . S
C1810 C1808 1.419 . S
C1810 C1811 1.363 . S
C1810 H1813 0.929 . S
C1811 C1810 1.363 . S
C1811 C1817 1.428 . S
H1812 C1808 0.930 . S
H1813 C1810 0.929 . S
S1814 N1815 1.613 . S
S1814 N1816 1.610 . S
N1815 S1814 1.613 . S
N1815 C1818 1.350 . S
N1816 S1814 1.610 . S
N1816 C1817 1.351 . S
C1817 C1811 1.428 . S
C1817 N1816 1.351 . S
C1817 C1818 1.434 . S
C1818 C1809 1.429 . S
C1818 N1815 1.350 . S
C1818 C1817 1.434 . S
C1819 C1820 1.369 . S
C1819 C1821 1.419 . S
C1819 H1823 0.930 . S
C1820 C1819 1.369 . S
C1820 C1829 1.429 . S
C1821 C1819 1.419 . S
C1821 C1822 1.363 . S
C1821 H1824 0.929 . S
C1822 C1821 1.363 . S
C1822 C1828 1.428 . S
H1823 C1819 0.930 . S
H1824 C1821 0.929 . S
S1825 N1826 1.613 . S
S1825 N1827 1.610 . S
N1826 S1825 1.613 . S
N1826 C1829 1.350 . S
N1827 S1825 1.610 . S
N1827 C1828 1.351 . S
C1828 C1822 1.428 . S
C1828 N1827 1.351 . S
C1828 C1829 1.434 . S
C1829 C1820 1.429 . S
C1829 N1826 1.350 . S
C1829 C1828 1.434 . S
C1830 C1831 1.369 . S
C1830 C1832 1.419 . S
C1830 H1834 0.930 . S
C1831 C1830 1.369 . S
C1831 C1840 1.429 . S
C1832 C1830 1.419 . S
C1832 C1833 1.371 . S
C1832 H1835 0.929 . S
C1833 C1832 1.371 . S
C1833 C1839 1.427 1_554 S
H1834 C1830 0.930 . S
H1835 C1832 0.929 . S
S1836 N1837 1.613 1_556 S
S1836 N1838 1.610 . S
N1837 S1836 1.613 1_554 S
N1837 C1840 1.350 . S
N1838 S1836 1.610 . S
N1838 C1839 1.384 . S
C1839 C1833 1.427 1_556 S
C1839 N1838 1.384 . S
C1839 C1840 1.404 1_556 S
C1840 C1831 1.429 . S
C1840 N1837 1.350 . S
C1840 C1839 1.404 1_554 S
C1841 C1842 1.369 . S
C1841 C1843 1.419 . S
C1841 H1845 0.930 . S
C1842 C1841 1.369 . S
C1842 C1851 1.429 . S
C1843 C1841 1.419 . S
C1843 C1844 1.363 . S
C1843 H1846 0.929 . S
C1844 C1843 1.363 . S
C1844 C1850 1.428 . S
H1845 C1841 0.930 . S
H1846 C1843 0.929 . S
S1847 N1848 1.613 . S
S1847 N1849 1.610 . S
N1848 S1847 1.613 . S
N1848 C1851 1.350 . S
N1849 S1847 1.610 . S
N1849 C1850 1.351 . S
C1850 C1844 1.428 . S
C1850 N1849 1.351 . S
C1850 C1851 1.434 . S
C1851 C1842 1.429 . S
C1851 N1848 1.350 . S
C1851 C1850 1.434 . S
C1852 C1853 1.369 . S
C1852 C1854 1.419 . S
C1852 H1856 0.930 . S
C1853 C1852 1.369 . S
C1853 C1862 1.429 . S
C1854 C1852 1.419 . S
C1854 C1855 1.363 . S
C1854 H1857 0.929 . S
C1855 C1854 1.363 . S
C1855 C1861 1.428 . S
H1856 C1852 0.930 . S
H1857 C1854 0.929 . S
S1858 N1859 1.613 . S
S1858 N1860 1.610 . S
N1859 S1858 1.613 . S
N1859 C1862 1.350 . S
N1860 S1858 1.610 . S
N1860 C1861 1.351 . S
C1861 C1855 1.428 . S
C1861 N1860 1.351 . S
C1861 C1862 1.434 . S
C1862 C1853 1.429 . S
C1862 N1859 1.350 . S
C1862 C1861 1.434 . S
C1863 C1864 1.369 . S
C1863 C1865 1.419 . S
C1863 H1867 0.930 . S
C1864 C1863 1.369 . S
C1864 C1873 1.429 . S
C1865 C1863 1.419 . S
C1865 C1866 1.363 . S
C1865 H1868 0.929 . S
C1866 C1865 1.363 . S
C1866 C1872 1.428 . S
H1867 C1863 0.930 . S
H1868 C1865 0.929 . S
S1869 N1870 1.613 . S
S1869 N1871 1.610 . S
N1870 S1869 1.613 . S
N1870 C1873 1.350 . S
N1871 S1869 1.610 . S
N1871 C1872 1.351 . S
C1872 C1866 1.428 . S
C1872 N1871 1.351 . S
C1872 C1873 1.434 . S
C1873 C1864 1.429 . S
C1873 N1870 1.350 . S
C1873 C1872 1.434 . S
C1874 C1875 1.369 . S
C1874 C1876 1.419 . S
C1874 H1878 0.930 . S
C1875 C1874 1.369 . S
C1875 C1884 1.429 . S
C1876 C1874 1.419 . S
C1876 C1877 1.363 . S
C1876 H1879 0.929 . S
C1877 C1876 1.363 . S
C1877 C1883 1.428 . S
H1878 C1874 0.930 . S
H1879 C1876 0.929 . S
S1880 N1881 1.613 . S
S1880 N1882 1.610 . S
N1881 S1880 1.613 . S
N1881 C1884 1.350 . S
N1882 S1880 1.610 . S
N1882 C1883 1.351 . S
C1883 C1877 1.428 . S
C1883 N1882 1.351 . S
C1883 C1884 1.434 . S
C1884 C1875 1.429 . S
C1884 N1881 1.350 . S
C1884 C1883 1.434 . S
C1885 C1886 1.369 . S
C1885 C1887 1.419 . S
C1885 H1889 0.930 . S
C1886 C1885 1.369 . S
C1886 C1895 1.429 . S
C1887 C1885 1.419 . S
C1887 C1888 1.363 . S
C1887 H1890 0.929 . S
C1888 C1887 1.363 . S
C1888 C1894 1.428 . S
H1889 C1885 0.930 . S
H1890 C1887 0.929 . S
S1891 N1892 1.613 . S
S1891 N1893 1.610 . S
N1892 S1891 1.613 . S
N1892 C1895 1.350 . S
N1893 S1891 1.610 . S
N1893 C1894 1.351 . S
C1894 C1888 1.428 . S
C1894 N1893 1.351 . S
C1894 C1895 1.434 . S
C1895 C1886 1.429 . S
C1895 N1892 1.350 . S
C1895 C1894 1.434 . S
C1896 C1897 1.369 . S
C1896 C1898 1.419 . S
C1896 H1900 0.930 . S
C1897 C1896 1.369 . S
C1897 C1906 1.429 . S
C1898 C1896 1.419 . S
C1898 C1899 1.363 . S
C1898 H1901 0.929 . S
C1899 C1898 1.363 . S
C1899 C1905 1.428 . S
H1900 C1896 0.930 . S
H1901 C1898 0.929 . S
S1902 N1903 1.613 . S
S1902 N1904 1.610 . S
N1903 S1902 1.613 . S
N1903 C1906 1.350 . S
N1904 S1902 1.610 . S
N1904 C1905 1.351 . S
C1905 C1899 1.428 . S
C1905 N1904 1.351 . S
C1905 C1906 1.434 . S
C1906 C1897 1.429 . S
C1906 N1903 1.350 . S
C1906 C1905 1.434 . S
C1907 C1908 1.369 . S
C1907 C1909 1.419 . S
C1907 H1911 0.930 . S
C1908 C1907 1.369 . S
C1908 C1917 1.429 . S
C1909 C1907 1.419 . S
C1909 C1910 1.363 1_655 S
C1909 H1912 0.929 . S
C1910 C1909 1.363 1_455 S
C1910 C1916 1.428 . S
H1911 C1907 0.930 . S
H1912 C1909 0.929 . S
S1913 N1914 1.613 1_455 S
S1913 N1915 1.610 . S
N1914 S1913 1.613 1_655 S
N1914 C1917 1.350 . S
N1915 S1913 1.610 . S
N1915 C1916 1.351 . S
C1916 C1910 1.428 . S
C1916 N1915 1.351 . S
C1916 C1917 1.434 1_455 S
C1917 C1908 1.429 . S
C1917 N1914 1.350 . S
C1917 C1916 1.434 1_655 S
C1918 C1919 1.369 . S
C1918 C1920 1.419 . S
C1918 H1922 0.930 . S
C1919 C1918 1.369 . S
C1919 C1928 1.429 . S
C1920 C1918 1.419 . S
C1920 C1921 1.363 . S
C1920 H1923 0.929 . S
C1921 C1920 1.363 . S
C1921 C1927 1.428 . S
H1922 C1918 0.930 . S
H1923 C1920 0.929 . S
S1924 N1925 1.613 . S
S1924 N1926 1.610 . S
N1925 S1924 1.613 . S
N1925 C1928 1.350 . S
N1926 S1924 1.610 . S
N1926 C1927 1.351 . S
C1927 C1921 1.428 . S
C1927 N1926 1.351 . S
C1927 C1928 1.434 . S
C1928 C1919 1.429 . S
C1928 N1925 1.350 . S
C1928 C1927 1.434 . S
C1929 C1930 1.369 . S
C1929 C1931 1.419 . S
C1929 H1933 0.927 1_556 S
C1930 C1929 1.369 . S
C1930 C1939 1.429 . S
C1931 C1929 1.419 . S
C1931 C1932 1.363 . S
C1931 H1934 0.929 . S
C1932 C1931 1.363 . S
C1932 C1938 1.428 . S
H1933 C1929 0.927 1_554 S
H1934 C1931 0.929 . S
S1935 N1936 1.613 . S
S1935 N1937 1.610 . S
N1936 S1935 1.613 . S
N1936 C1939 1.350 . S
N1937 S1935 1.610 . S
N1937 C1938 1.351 . S
C1938 C1932 1.428 . S
C1938 N1937 1.351 . S
C1938 C1939 1.434 . S
C1939 C1930 1.429 . S
C1939 N1936 1.350 . S
C1939 C1938 1.434 . S
C1940 C1941 1.369 . S
C1940 C1942 1.419 . S
C1940 H1944 0.930 . S
C1941 C1940 1.369 . S
C1941 C1950 1.429 . S
C1942 C1940 1.419 . S
C1942 C1943 1.363 . S
C1942 H1945 0.929 . S
C1943 C1942 1.363 . S
C1943 C1949 1.428 . S
H1944 C1940 0.930 . S
H1945 C1942 0.929 . S
S1946 N1947 1.613 . S
S1946 N1948 1.610 . S
N1947 S1946 1.613 . S
N1947 C1950 1.350 . S
N1948 S1946 1.610 . S
N1948 C1949 1.351 . S
C1949 C1943 1.428 . S
C1949 N1948 1.351 . S
C1949 C1950 1.434 . S
C1950 C1941 1.429 . S
C1950 N1947 1.350 . S
C1950 C1949 1.434 . S
C1951 C1952 1.369 . S
C1951 C1953 1.419 . S
C1951 H1955 0.930 . S
C1952 C1951 1.369 . S
C1952 C1961 1.429 . S
C1953 C1951 1.419 . S
C1953 C1954 1.363 . S
C1953 H1956 0.929 . S
C1954 C1953 1.363 . S
C1954 C1960 1.428 . S
H1955 C1951 0.930 . S
H1956 C1953 0.929 . S
S1957 N1958 1.613 . S
S1957 N1959 1.610 . S
N1958 S1957 1.613 . S
N1958 C1961 1.350 . S
N1959 S1957 1.610 . S
N1959 C1960 1.351 . S
C1960 C1954 1.428 . S
C1960 N1959 1.351 . S
C1960 C1961 1.434 . S
C1961 C1952 1.429 . S
C1961 N1958 1.350 . S
C1961 C1960 1.434 . S
C1962 C1963 1.369 . S
C1962 C1964 1.419 . S
C1962 H1966 0.930 . S
C1963 C1962 1.369 . S
C1963 C1972 1.429 . S
C1964 C1962 1.419 . S
C1964 C1965 1.363 . S
C1964 H1967 0.929 . S
C1965 C1964 1.363 . S
C1965 C1971 1.428 . S
H1966 C1962 0.930 . S
H1967 C1964 0.929 . S
S1968 N1969 1.613 . S
S1968 N1970 1.610 . S
N1969 S1968 1.613 . S
N1969 C1972 1.350 . S
N1970 S1968 1.610 . S
N1970 C1971 1.351 . S
C1971 C1965 1.428 . S
C1971 N1970 1.351 . S
C1971 C1972 1.434 . S
C1972 C1963 1.429 . S
C1972 N1969 1.350 . S
C1972 C1971 1.434 . S
C1973 C1974 1.369 . S
C1973 C1975 1.419 . S
C1973 H1977 0.930 . S
C1974 C1973 1.369 . S
C1974 C1983 1.429 1_455 S
C1975 C1973 1.419 . S
C1975 C1976 1.363 1_455 S
C1975 H1978 0.929 . S
C1976 C1975 1.363 1_655 S
C1976 C1982 1.428 . S
H1977 C1973 0.930 . S
H1978 C1975 0.929 . S
S1979 N1980 1.613 1_554 S
S1979 N1981 1.610 . S
N1980 S1979 1.613 1_556 S
N1980 C1983 1.350 1_556 S
N1981 S1979 1.610 . S
N1981 C1982 1.351 . S
C1982 C1976 1.428 . S
C1982 N1981 1.351 . S
C1982 C1983 1.434 . S
C1983 C1974 1.429 1_655 S
C1983 N1980 1.350 1_554 S
C1983 C1982 1.434 . S
C1984 C1985 1.369 . S
C1984 C1986 1.419 . S
C1984 H1988 0.930 . S
C1985 C1984 1.369 . S
C1985 C1994 1.429 . S
C1986 C1984 1.419 . S
C1986 C1987 1.363 . S
C1986 H1989 0.929 . S
C1987 C1986 1.363 . S
C1987 C1993 1.428 . S
H1988 C1984 0.930 . S
H1989 C1986 0.929 . S
S1990 N1991 1.613 . S
S1990 N1992 1.610 . S
N1991 S1990 1.613 . S
N1991 C1994 1.350 . S
N1992 S1990 1.610 . S
N1992 C1993 1.351 . S
C1993 C1987 1.428 . S
C1993 N1992 1.351 . S
C1993 C1994 1.434 . S
C1994 C1985 1.429 . S
C1994 N1991 1.350 . S
C1994 C1993 1.434 . S
C1995 C1996 1.369 . S
C1995 C1997 1.419 . S
C1995 H1999 0.930 . S
C1996 C1995 1.369 . S
C1996 C2005 1.429 . S
C1997 C1995 1.419 . S
C1997 C1998 1.363 . S
C1997 H2000 0.929 1_565 S
C1998 C1997 1.363 . S
C1998 C2004 1.428 . S
H1999 C1995 0.930 . S
H2000 C1997 0.929 1_545 S
S2001 N2002 1.613 . S
S2001 N2003 1.610 . S
N2002 S2001 1.613 . S
N2002 C2005 1.350 . S
N2003 S2001 1.610 . S
N2003 C2004 1.351 . S
C2004 C1998 1.428 . S
C2004 N2003 1.351 . S
C2004 C2005 1.434 . S
C2005 C1996 1.429 . S
C2005 N2002 1.350 . S
C2005 C2004 1.434 . S
C2006 C2007 1.369 . S
C2006 C2008 1.419 . S
C2006 H2010 0.930 . S
C2007 C2006 1.369 . S
C2007 C2016 1.429 . S
C2008 C2006 1.419 . S
C2008 C2009 1.363 . S
C2008 H2011 0.929 . S
C2009 C2008 1.363 . S
C2009 C2015 1.428 . S
H2010 C2006 0.930 . S
H2011 C2008 0.929 . S
S2012 N2013 1.613 . S
S2012 N2014 1.610 . S
N2013 S2012 1.613 . S
N2013 C2016 1.350 . S
N2014 S2012 1.610 . S
N2014 C2015 1.351 . S
C2015 C2009 1.428 . S
C2015 N2014 1.351 . S
C2015 C2016 1.434 . S
C2016 C2007 1.429 . S
C2016 N2013 1.350 . S
C2016 C2015 1.434 . S
C2017 C2018 1.369 . S
C2017 C2019 1.419 . S
C2017 H2021 0.930 . S
C2018 C2017 1.369 . S
C2018 C2027 1.429 1_554 S
C2019 C2017 1.419 . S
C2019 C2020 1.363 1_554 S
C2019 H2022 0.929 1_545 S
C2020 C2019 1.363 1_556 S
C2020 C2026 1.428 . S
H2021 C2017 0.930 . S
H2022 C2019 0.929 1_565 S
S2023 N2024 1.613 . S
S2023 N2025 1.610 . S
N2024 S2023 1.613 . S
N2024 C2027 1.350 . S
N2025 S2023 1.610 . S
N2025 C2026 1.351 . S
C2026 C2020 1.428 . S
C2026 N2025 1.351 . S
C2026 C2027 1.434 . S
C2027 C2018 1.429 1_556 S
C2027 N2024 1.350 . S
C2027 C2026 1.434 . S
C2028 C2029 1.369 . S
C2028 C2030 1.419 . S
C2028 H2032 0.930 . S
C2029 C2028 1.369 . S
C2029 C2038 1.429 . S
C2030 C2028 1.419 . S
C2030 C2031 1.363 . S
C2030 H2033 0.929 . S
C2031 C2030 1.363 . S
C2031 C2037 1.428 . S
H2032 C2028 0.930 . S
H2033 C2030 0.929 . S
S2034 N2035 1.613 . S
S2034 N2036 1.610 . S
N2035 S2034 1.613 . S
N2035 C2038 1.350 . S
N2036 S2034 1.610 . S
N2036 C2037 1.351 . S
C2037 C2031 1.428 . S
C2037 N2036 1.351 . S
C2037 C2038 1.434 . S
C2038 C2029 1.429 . S
C2038 N2035 1.350 . S
C2038 C2037 1.434 . S
C2039 C2040 1.369 . S
C2039 C2041 1.419 . S
C2039 H2043 0.930 . S
C2040 C2039 1.369 . S
C2040 C2049 1.429 . S
C2041 C2039 1.419 . S
C2041 C2042 1.363 . S
C2041 H2044 0.929 . S
C2042 C2041 1.363 . S
C2042 C2048 1.428 . S
H2043 C2039 0.930 . S
H2044 C2041 0.929 . S
S2045 N2046 1.613 . S
S2045 N2047 1.610 . S
N2046 S2045 1.613 . S
N2046 C2049 1.350 . S
N2047 S2045 1.610 . S
N2047 C2048 1.351 . S
C2048 C2042 1.428 . S
C2048 N2047 1.351 . S
C2048 C2049 1.434 . S
C2049 C2040 1.429 . S
C2049 N2046 1.350 . S
C2049 C2048 1.434 . S
C2050 C2051 1.369 . S
C2050 C2052 1.419 . S
C2050 H2054 0.930 . S
C2051 C2050 1.369 . S
C2051 C2060 1.429 . S
C2052 C2050 1.419 . S
C2052 C2053 1.363 . S
C2052 H2055 0.929 . S
C2053 C2052 1.363 . S
C2053 C2059 1.428 . S
H2054 C2050 0.930 . S
H2055 C2052 0.929 . S
S2056 N2057 1.613 . S
S2056 N2058 1.610 . S
N2057 S2056 1.613 . S
N2057 C2060 1.350 . S
N2058 S2056 1.610 . S
N2058 C2059 1.351 . S
C2059 C2053 1.428 . S
C2059 N2058 1.351 . S
C2059 C2060 1.434 . S
C2060 C2051 1.429 . S
C2060 N2057 1.350 . S
C2060 C2059 1.434 . S
C2061 C2062 1.381 . S
C2061 C2063 1.396 1_554 S
C2061 H2065 0.944 . S
C2062 C2061 1.381 . S
C2062 C2071 1.424 1_554 S
C2063 C2061 1.396 1_556 S
C2063 C2064 1.363 . S
C2063 H2066 0.929 . S
C2064 C2063 1.363 . S
C2064 C2070 1.428 . S
H2065 C2061 0.944 . S
H2066 C2063 0.929 . S
S2067 N2068 1.613 1_546 S
S2067 N2069 1.610 . S
N2068 S2067 1.613 1_564 S
N2068 C2071 1.348 1_564 S
N2069 S2067 1.610 . S
N2069 C2070 1.351 . S
C2070 C2064 1.428 . S
C2070 N2069 1.351 . S
C2070 C2071 1.442 . S
C2071 C2062 1.424 1_556 S
C2071 N2068 1.348 1_546 S
C2071 C2070 1.442 . S
C2072 C2073 1.369 . S
C2072 C2074 1.419 . S
C2072 H2076 0.930 . S
C2073 C2072 1.369 . S
C2073 C2082 1.429 . S
C2074 C2072 1.419 . S
C2074 C2075 1.363 . S
C2074 H2077 0.929 . S
C2075 C2074 1.363 . S
C2075 C2081 1.428 . S
H2076 C2072 0.930 . S
H2077 C2074 0.929 . S
S2078 N2079 1.613 . S
S2078 N2080 1.610 . S
N2079 S2078 1.613 . S
N2079 C2082 1.350 . S
N2080 S2078 1.610 . S
N2080 C2081 1.351 . S
C2081 C2075 1.428 . S
C2081 N2080 1.351 . S
C2081 C2082 1.434 . S
C2082 C2073 1.429 . S
C2082 N2079 1.350 . S
C2082 C2081 1.434 . S
C2083 C2084 1.369 . S
C2083 C2085 1.419 . S
C2083 H2087 0.930 . S
C2084 C2083 1.369 . S
C2084 C2093 1.429 . S
C2085 C2083 1.419 . S
C2085 C2086 1.363 . S
C2085 H2088 0.929 . S
C2086 C2085 1.363 . S
C2086 C2092 1.428 . S
H2087 C2083 0.930 . S
H2088 C2085 0.929 . S
S2089 N2090 1.613 . S
S2089 N2091 1.610 . S
N2090 S2089 1.613 . S
N2090 C2093 1.350 . S
N2091 S2089 1.610 . S
N2091 C2092 1.351 . S
C2092 C2086 1.428 . S
C2092 N2091 1.351 . S
C2092 C2093 1.434 . S
C2093 C2084 1.429 . S
C2093 N2090 1.350 . S
C2093 C2092 1.434 . S
C2094 C2095 1.369 . S
C2094 C2096 1.419 . S
C2094 H2098 0.930 1_655 S
C2095 C2094 1.369 . S
C2095 C2104 1.429 . S
C2096 C2094 1.419 . S
C2096 C2097 1.363 . S
C2096 H2099 0.929 . S
C2097 C2096 1.363 . S
C2097 C2103 1.428 . S
H2098 C2094 0.930 1_455 S
H2099 C2096 0.929 . S
S2100 N2101 1.613 . S
S2100 N2102 1.610 . S
N2101 S2100 1.613 . S
N2101 C2104 1.350 . S
N2102 S2100 1.610 . S
N2102 C2103 1.351 . S
C2103 C2097 1.428 . S
C2103 N2102 1.351 . S
C2103 C2104 1.434 . S
C2104 C2095 1.429 . S
C2104 N2101 1.350 . S
C2104 C2103 1.434 . S
C2105 C2106 1.369 . S
C2105 C2107 1.419 . S
C2105 H2109 0.930 . S
C2106 C2105 1.369 . S
C2106 C2115 1.429 . S
C2107 C2105 1.419 . S
C2107 C2108 1.363 . S
C2107 H2110 0.929 . S
C2108 C2107 1.363 . S
C2108 C2114 1.428 . S
H2109 C2105 0.930 . S
H2110 C2107 0.929 . S
S2111 N2112 1.613 . S
S2111 N2113 1.610 . S
N2112 S2111 1.613 . S
N2112 C2115 1.350 . S
N2113 S2111 1.610 . S
N2113 C2114 1.351 . S
C2114 C2108 1.428 . S
C2114 N2113 1.351 . S
C2114 C2115 1.434 . S
C2115 C2106 1.429 . S
C2115 N2112 1.350 . S
C2115 C2114 1.434 . S
C2116 C2117 1.369 . S
C2116 C2118 1.419 . S
C2116 H2120 0.930 . S
C2117 C2116 1.369 . S
C2117 C2126 1.429 1_545 S
C2118 C2116 1.419 . S
C2118 C2119 1.363 1_545 S
C2118 H2121 0.929 . S
C2119 C2118 1.363 1_565 S
C2119 C2125 1.428 . S
H2120 C2116 0.930 . S
H2121 C2118 0.929 . S
S2122 N2123 1.613 1_455 S
S2122 N2124 1.610 . S
N2123 S2122 1.613 1_655 S
N2123 C2126 1.350 1_655 S
N2124 S2122 1.610 . S
N2124 C2125 1.351 . S
C2125 C2119 1.428 . S
C2125 N2124 1.351 . S
C2125 C2126 1.434 . S
C2126 C2117 1.429 1_565 S
C2126 N2123 1.350 1_455 S
C2126 C2125 1.434 . S
C2127 C2128 1.369 . S
C2127 C2129 1.419 . S
C2127 H2131 0.930 . S
C2128 C2127 1.369 . S
C2128 C2137 1.429 . S
C2129 C2127 1.419 . S
C2129 C2130 1.363 . S
C2129 H2132 0.929 . S
C2130 C2129 1.363 . S
C2130 C2136 1.428 . S
H2131 C2127 0.930 . S
H2132 C2129 0.929 . S
S2133 N2134 1.613 . S
S2133 N2135 1.610 . S
N2134 S2133 1.613 . S
N2134 C2137 1.350 . S
N2135 S2133 1.610 . S
N2135 C2136 1.351 . S
C2136 C2130 1.428 . S
C2136 N2135 1.351 . S
C2136 C2137 1.434 . S
C2137 C2128 1.429 . S
C2137 N2134 1.350 . S
C2137 C2136 1.434 . S
C2138 C2139 1.369 . S
C2138 C2140 1.419 . S
C2138 H2142 0.930 . S
C2139 C2138 1.369 . S
C2139 C2148 1.429 . S
C2140 C2138 1.419 . S
C2140 C2141 1.363 . S
C2140 H2143 0.929 . S
C2141 C2140 1.363 . S
C2141 C2147 1.428 . S
H2142 C2138 0.930 . S
H2143 C2140 0.929 . S
S2144 N2145 1.613 . S
S2144 N2146 1.610 1_655 S
N2145 S2144 1.613 . S
N2145 C2148 1.350 . S
N2146 S2144 1.610 1_455 S
N2146 C2147 1.351 1_455 S
C2147 C2141 1.428 . S
C2147 N2146 1.351 1_655 S
C2147 C2148 1.434 . S
C2148 C2139 1.429 . S
C2148 N2145 1.350 . S
C2148 C2147 1.434 . S
C2149 C2150 1.369 . S
C2149 C2151 1.419 . S
C2149 H2153 0.930 . S
C2150 C2149 1.369 . S
C2150 C2159 1.429 . S
C2151 C2149 1.419 . S
C2151 C2152 1.363 . S
C2151 H2154 0.929 . S
C2152 C2151 1.363 . S
C2152 C2158 1.428 . S
H2153 C2149 0.930 . S
H2154 C2151 0.929 . S
S2155 N2156 1.613 . S
S2155 N2157 1.610 . S
N2156 S2155 1.613 . S
N2156 C2159 1.350 . S
N2157 S2155 1.610 . S
N2157 C2158 1.351 . S
C2158 C2152 1.428 . S
C2158 N2157 1.351 . S
C2158 C2159 1.434 . S
C2159 C2150 1.429 . S
C2159 N2156 1.350 . S
C2159 C2158 1.434 . S
C2160 C2161 1.369 . S
C2160 C2162 1.419 . S
C2160 H2164 0.930 . S
C2161 C2160 1.369 . S
C2161 C2170 1.429 . S
C2162 C2160 1.419 . S
C2162 C2163 1.363 . S
C2162 H2165 0.929 . S
C2163 C2162 1.363 . S
C2163 C2169 1.428 . S
H2164 C2160 0.930 . S
H2165 C2162 0.929 . S
S2166 N2167 1.613 . S
S2166 N2168 1.610 . S
N2167 S2166 1.613 . S
N2167 C2170 1.350 . S
N2168 S2166 1.610 . S
N2168 C2169 1.351 . S
C2169 C2163 1.428 . S
C2169 N2168 1.351 . S
C2169 C2170 1.434 . S
C2170 C2161 1.429 . S
C2170 N2167 1.350 . S
C2170 C2169 1.434 . S
C2171 C2172 1.369 . S
C2171 C2173 1.419 . S
C2171 H2175 0.930 1_556 S
C2172 C2171 1.369 . S
C2172 C2181 1.429 . S
C2173 C2171 1.419 . S
C2173 C2174 1.363 . S
C2173 H2176 0.929 . S
C2174 C2173 1.363 . S
C2174 C2180 1.428 . S
H2175 C2171 0.930 1_554 S
H2176 C2173 0.929 . S
S2177 N2178 1.613 . S
S2177 N2179 1.610 . S
N2178 S2177 1.613 . S
N2178 C2181 1.350 . S
N2179 S2177 1.610 . S
N2179 C2180 1.351 . S
C2180 C2174 1.428 . S
C2180 N2179 1.351 . S
C2180 C2181 1.434 . S
C2181 C2172 1.429 . S
C2181 N2178 1.350 . S
C2181 C2180 1.434 . S
C2182 C2183 1.369 . S
C2182 C2184 1.419 . S
C2182 H2186 0.930 . S
C2183 C2182 1.369 . S
C2183 C2192 1.429 . S
C2184 C2182 1.419 . S
C2184 C2185 1.363 . S
C2184 H2187 0.929 . S
C2185 C2184 1.363 . S
C2185 C2191 1.428 . S
H2186 C2182 0.930 . S
H2187 C2184 0.929 . S
S2188 N2189 1.613 . S
S2188 N2190 1.610 . S
N2189 S2188 1.613 . S
N2189 C2192 1.350 . S
N2190 S2188 1.610 . S
N2190 C2191 1.351 . S
C2191 C2185 1.428 . S
C2191 N2190 1.351 . S
C2191 C2192 1.434 . S
C2192 C2183 1.429 . S
C2192 N2189 1.350 . S
C2192 C2191 1.434 . S
C2193 C2194 1.369 1_455 S
C2193 C2195 1.419 . S
C2193 H2197 0.930 . S
C2194 C2193 1.369 1_655 S
C2194 C2203 1.429 . S
C2195 C2193 1.419 . S
C2195 C2196 1.363 . S
C2195 H2198 0.929 . S
C2196 C2195 1.363 . S
C2196 C2202 1.392 1_455 S
H2197 C2193 0.930 . S
H2198 C2195 0.929 . S
S2199 N2200 1.613 . S
S2199 N2201 1.610 . S
N2200 S2199 1.613 . S
N2200 C2203 1.350 . S
N2201 S2199 1.610 . S
N2201 C2202 1.370 . S
C2202 C2196 1.392 1_655 S
C2202 N2201 1.370 . S
C2202 C2203 1.459 . S
C2203 C2194 1.429 . S
C2203 N2200 1.350 . S
C2203 C2202 1.459 . S
C2204 C2205 1.369 . S
C2204 C2206 1.419 . S
C2204 H2208 0.930 . S
C2205 C2204 1.369 . S
C2205 C2214 1.429 . S
C2206 C2204 1.419 . S
C2206 C2207 1.363 . S
C2206 H2209 0.929 . S
C2207 C2206 1.363 . S
C2207 C2213 1.428 . S
H2208 C2204 0.930 . S
H2209 C2206 0.929 . S
S2210 N2211 1.613 . S
S2210 N2212 1.610 . S
N2211 S2210 1.613 . S
N2211 C2214 1.350 . S
N2212 S2210 1.610 . S
N2212 C2213 1.351 . S
C2213 C2207 1.428 . S
C2213 N2212 1.351 . S
C2213 C2214 1.434 . S
C2214 C2205 1.429 . S
C2214 N2211 1.350 . S
C2214 C2213 1.434 . S
C2215 C2216 1.369 1_455 S
C2215 C2217 1.419 . S
C2215 H2219 0.930 1_554 S
C2216 C2215 1.369 1_655 S
C2216 C2225 1.429 . S
C2217 C2215 1.419 . S
C2217 C2218 1.363 . S
C2217 H2220 0.929 . S
C2218 C2217 1.363 . S
C2218 C2224 1.452 . S
H2219 C2215 0.930 1_556 S
H2220 C2217 0.929 . S
S2221 N2222 1.613 . S
S2221 N2223 1.610 . S
N2222 S2221 1.613 . S
N2222 C2225 1.350 . S
N2223 S2221 1.610 . S
N2223 C2224 1.341 1_655 S
C2224 C2218 1.452 . S
C2224 N2223 1.341 1_455 S
C2224 C2225 1.417 1_455 S
C2225 C2216 1.429 . S
C2225 N2222 1.350 . S
C2225 C2224 1.417 1_655 S
C2226 C2227 1.369 . S
C2226 C2228 1.419 . S
C2226 H2230 0.930 . S
C2227 C2226 1.369 . S
C2227 C2236 1.429 . S
C2228 C2226 1.419 . S
C2228 C2229 1.363 . S
C2228 H2231 0.929 . S
C2229 C2228 1.363 . S
C2229 C2235 1.428 . S
H2230 C2226 0.930 . S
H2231 C2228 0.929 . S
S2232 N2233 1.613 . S
S2232 N2234 1.610 . S
N2233 S2232 1.613 . S
N2233 C2236 1.350 . S
N2234 S2232 1.610 . S
N2234 C2235 1.351 . S
C2235 C2229 1.428 . S
C2235 N2234 1.351 . S
C2235 C2236 1.434 . S
C2236 C2227 1.429 . S
C2236 N2233 1.350 . S
C2236 C2235 1.434 . S
C2237 C2238 1.369 . S
C2237 C2239 1.419 . S
C2237 H2241 0.930 . S
C2238 C2237 1.369 . S
C2238 C2247 1.429 . S
C2239 C2237 1.419 . S
C2239 C2240 1.363 . S
C2239 H2242 0.929 . S
C2240 C2239 1.363 . S
C2240 C2246 1.428 . S
H2241 C2237 0.930 . S
H2242 C2239 0.929 . S
S2243 N2244 1.613 . S
S2243 N2245 1.610 . S
N2244 S2243 1.613 . S
N2244 C2247 1.350 . S
N2245 S2243 1.610 . S
N2245 C2246 1.351 . S
C2246 C2240 1.428 . S
C2246 N2245 1.351 . S
C2246 C2247 1.434 . S
C2247 C2238 1.429 . S
C2247 N2244 1.350 . S
C2247 C2246 1.434 . S
C2248 C2249 1.369 . S
C2248 C2250 1.419 . S
C2248 H2252 0.930 . S
C2249 C2248 1.369 . S
C2249 C2258 1.429 . S
C2250 C2248 1.419 . S
C2250 C2251 1.363 . S
C2250 H2253 0.929 . S
C2251 C2250 1.363 . S
C2251 C2257 1.428 . S
H2252 C2248 0.930 . S
H2253 C2250 0.929 . S
S2254 N2255 1.613 . S
S2254 N2256 1.610 . S
N2255 S2254 1.613 . S
N2255 C2258 1.350 . S
N2256 S2254 1.610 . S
N2256 C2257 1.351 . S
C2257 C2251 1.428 . S
C2257 N2256 1.351 . S
C2257 C2258 1.434 . S
C2258 C2249 1.429 . S
C2258 N2255 1.350 . S
C2258 C2257 1.434 . S
C2259 C2260 1.369 . S
C2259 C2261 1.419 . S
C2259 H2263 0.930 . S
C2260 C2259 1.369 . S
C2260 C2269 1.429 1_556 S
C2261 C2259 1.419 . S
C2261 C2262 1.363 1_556 S
C2261 H2264 0.929 . S
C2262 C2261 1.363 1_554 S
C2262 C2268 1.428 . S
H2263 C2259 0.930 . S
H2264 C2261 0.929 . S
S2265 N2266 1.613 . S
S2265 N2267 1.610 . S
N2266 S2265 1.613 . S
N2266 C2269 1.350 . S
N2267 S2265 1.610 . S
N2267 C2268 1.351 . S
C2268 C2262 1.428 . S
C2268 N2267 1.351 . S
C2268 C2269 1.434 . S
C2269 C2260 1.429 1_554 S
C2269 N2266 1.350 . S
C2269 C2268 1.434 . S
C2270 C2271 1.369 . S
C2270 C2272 1.419 . S
C2270 H2274 0.930 . S
C2271 C2270 1.369 . S
C2271 C2280 1.429 . S
C2272 C2270 1.419 . S
C2272 C2273 1.363 . S
C2272 H2275 0.929 . S
C2273 C2272 1.363 . S
C2273 C2279 1.428 . S
H2274 C2270 0.930 . S
H2275 C2272 0.929 . S
S2276 N2277 1.613 . S
S2276 N2278 1.610 . S
N2277 S2276 1.613 . S
N2277 C2280 1.350 . S
N2278 S2276 1.610 . S
N2278 C2279 1.351 . S
C2279 C2273 1.428 . S
C2279 N2278 1.351 . S
C2279 C2280 1.434 . S
C2280 C2271 1.429 . S
C2280 N2277 1.350 . S
C2280 C2279 1.434 . S
C2281 C2282 1.369 . S
C2281 C2283 1.419 . S
C2281 H2285 0.930 . S
C2282 C2281 1.369 . S
C2282 C2291 1.429 . S
C2283 C2281 1.419 . S
C2283 C2284 1.363 . S
C2283 H2286 0.929 . S
C2284 C2283 1.363 . S
C2284 C2290 1.428 . S
H2285 C2281 0.930 . S
H2286 C2283 0.929 . S
S2287 N2288 1.613 . S
S2287 N2289 1.610 . S
N2288 S2287 1.613 . S
N2288 C2291 1.350 . S
N2289 S2287 1.610 . S
N2289 C2290 1.351 . S
C2290 C2284 1.428 . S
C2290 N2289 1.351 . S
C2290 C2291 1.434 . S
C2291 C2282 1.429 . S
C2291 N2288 1.350 . S
C2291 C2290 1.434 . S
C2292 C2293 1.369 . S
C2292 C2294 1.419 . S
C2292 H2296 0.930 . S
C2293 C2292 1.369 . S
C2293 C2302 1.429 . S
C2294 C2292 1.419 . S
C2294 C2295 1.363 . S
C2294 H2297 0.929 . S
C2295 C2294 1.363 . S
C2295 C2301 1.428 . S
H2296 C2292 0.930 . S
H2297 C2294 0.929 . S
S2298 N2299 1.613 . S
S2298 N2300 1.610 . S
N2299 S2298 1.613 . S
N2299 C2302 1.350 . S
N2300 S2298 1.610 . S
N2300 C2301 1.351 . S
C2301 C2295 1.428 . S
C2301 N2300 1.351 . S
C2301 C2302 1.434 . S
C2302 C2293 1.429 . S
C2302 N2299 1.350 . S
C2302 C2301 1.434 . S
C2303 C2304 1.369 . S
C2303 C2305 1.419 . S
C2303 H2307 0.930 . S
C2304 C2303 1.369 . S
C2304 C2313 1.429 1_556 S
C2305 C2303 1.419 . S
C2305 C2306 1.363 1_556 S
C2305 H2308 0.929 . S
C2306 C2305 1.363 1_554 S
C2306 C2312 1.428 . S
H2307 C2303 0.930 . S
H2308 C2305 0.929 . S
S2309 N2310 1.613 . S
S2309 N2311 1.610 . S
N2310 S2309 1.613 . S
N2310 C2313 1.350 . S
N2311 S2309 1.610 . S
N2311 C2312 1.351 . S
C2312 C2306 1.428 . S
C2312 N2311 1.351 . S
C2312 C2313 1.434 . S
C2313 C2304 1.429 1_554 S
C2313 N2310 1.350 . S
C2313 C2312 1.434 . S
C2314 C2315 1.369 . S
C2314 C2316 1.419 . S
C2314 H2318 0.930 . S
C2315 C2314 1.369 . S
C2315 C2324 1.429 . S
C2316 C2314 1.419 . S
C2316 C2317 1.363 . S
C2316 H2319 0.929 . S
C2317 C2316 1.363 . S
C2317 C2323 1.428 . S
H2318 C2314 0.930 . S
H2319 C2316 0.929 . S
S2320 N2321 1.613 . S
S2320 N2322 1.610 . S
N2321 S2320 1.613 . S
N2321 C2324 1.350 . S
N2322 S2320 1.610 . S
N2322 C2323 1.351 . S
C2323 C2317 1.428 . S
C2323 N2322 1.351 . S
C2323 C2324 1.434 . S
C2324 C2315 1.429 . S
C2324 N2321 1.350 . S
C2324 C2323 1.434 . S
C2325 C2326 1.369 . S
C2325 C2327 1.419 . S
C2325 H2329 0.930 . S
C2326 C2325 1.369 . S
C2326 C2335 1.429 . S
C2327 C2325 1.419 . S
C2327 C2328 1.363 . S
C2327 H2330 0.929 . S
C2328 C2327 1.363 . S
C2328 C2334 1.428 . S
H2329 C2325 0.930 . S
H2330 C2327 0.929 . S
S2331 N2332 1.613 . S
S2331 N2333 1.610 . S
N2332 S2331 1.613 . S
N2332 C2335 1.350 . S
N2333 S2331 1.610 . S
N2333 C2334 1.351 . S
C2334 C2328 1.428 . S
C2334 N2333 1.351 . S
C2334 C2335 1.434 . S
C2335 C2326 1.429 . S
C2335 N2332 1.350 . S
C2335 C2334 1.434 . S
C2336 C2337 1.369 . S
C2336 C2338 1.419 . S
C2336 H2340 0.930 . S
C2337 C2336 1.369 . S
C2337 C2346 1.429 . S
C2338 C2336 1.419 . S
C2338 C2339 1.363 . S
C2338 H2341 0.929 . S
C2339 C2338 1.363 . S
C2339 C2345 1.428 . S
H2340 C2336 0.930 . S
H2341 C2338 0.929 . S
S2342 N2343 1.613 . S
S2342 N2344 1.610 . S
N2343 S2342 1.613 . S
N2343 C2346 1.350 . S
N2344 S2342 1.610 . S
N2344 C2345 1.351 . S
C2345 C2339 1.428 . S
C2345 N2344 1.351 . S
C2345 C2346 1.434 . S
C2346 C2337 1.429 . S
C2346 N2343 1.350 . S
C2346 C2345 1.434 . S
C2347 C2348 1.369 . S
C2347 C2349 1.419 . S
C2347 H2351 0.930 . S
C2348 C2347 1.369 . S
C2348 C2357 1.429 . S
C2349 C2347 1.419 . S
C2349 C2350 1.363 . S
C2349 H2352 0.929 . S
C2350 C2349 1.363 . S
C2350 C2356 1.428 . S
H2351 C2347 0.930 . S
H2352 C2349 0.929 . S
S2353 N2354 1.613 . S
S2353 N2355 1.610 . S
N2354 S2353 1.613 . S
N2354 C2357 1.350 . S
N2355 S2353 1.610 . S
N2355 C2356 1.351 . S
C2356 C2350 1.428 . S
C2356 N2355 1.351 . S
C2356 C2357 1.434 . S
C2357 C2348 1.429 . S
C2357 N2354 1.350 . S
C2357 C2356 1.434 . S
C2358 C2359 1.369 . S
C2358 C2360 1.419 . S
C2358 H2362 0.930 . S
C2359 C2358 1.369 . S
C2359 C2368 1.429 1_565 S
C2360 C2358 1.419 . S
C2360 C2361 1.363 1_565 S
C2360 H2363 0.929 . S
C2361 C2360 1.363 1_545 S
C2361 C2367 1.428 . S
H2362 C2358 0.930 . S
H2363 C2360 0.929 . S
S2364 N2365 1.613 . S
S2364 N2366 1.610 . S
N2365 S2364 1.613 . S
N2365 C2368 1.350 . S
N2366 S2364 1.610 . S
N2366 C2367 1.351 . S
C2367 C2361 1.428 . S
C2367 N2366 1.351 . S
C2367 C2368 1.434 . S
C2368 C2359 1.429 1_545 S
C2368 N2365 1.350 . S
C2368 C2367 1.434 . S
C2369 C2370 1.369 . S
C2369 C2371 1.419 . S
C2369 H2373 0.930 . S
C2370 C2369 1.369 . S
C2370 C2379 1.429 . S
C2371 C2369 1.419 . S
C2371 C2372 1.363 . S
C2371 H2374 0.929 . S
C2372 C2371 1.363 . S
C2372 C2378 1.428 . S
H2373 C2369 0.930 . S
H2374 C2371 0.929 . S
S2375 N2376 1.613 . S
S2375 N2377 1.610 . S
N2376 S2375 1.613 . S
N2376 C2379 1.350 . S
N2377 S2375 1.610 . S
N2377 C2378 1.351 . S
C2378 C2372 1.428 . S
C2378 N2377 1.351 . S
C2378 C2379 1.434 . S
C2379 C2370 1.429 . S
C2379 N2376 1.350 . S
C2379 C2378 1.434 . S
C2380 C2381 1.369 . S
C2380 C2382 1.419 . S
C2380 H2384 0.930 . S
C2381 C2380 1.369 . S
C2381 C2390 1.429 . S
C2382 C2380 1.419 . S
C2382 C2383 1.363 . S
C2382 H2385 0.929 . S
C2383 C2382 1.363 . S
C2383 C2389 1.428 . S
H2384 C2380 0.930 . S
H2385 C2382 0.929 . S
S2386 N2387 1.613 . S
S2386 N2388 1.610 . S
N2387 S2386 1.613 . S
N2387 C2390 1.350 . S
N2388 S2386 1.610 . S
N2388 C2389 1.351 . S
C2389 C2383 1.428 . S
C2389 N2388 1.351 . S
C2389 C2390 1.434 . S
C2390 C2381 1.429 . S
C2390 N2387 1.350 . S
C2390 C2389 1.434 . S
C2391 C2392 1.369 . S
C2391 C2393 1.419 . S
C2391 H2395 0.930 . S
C2392 C2391 1.369 . S
C2392 C2401 1.429 . S
C2393 C2391 1.419 . S
C2393 C2394 1.363 . S
C2393 H2396 0.929 . S
C2394 C2393 1.363 . S
C2394 C2400 1.428 . S
H2395 C2391 0.930 . S
H2396 C2393 0.929 . S
S2397 N2398 1.613 . S
S2397 N2399 1.610 . S
N2398 S2397 1.613 . S
N2398 C2401 1.350 . S
N2399 S2397 1.610 . S
N2399 C2400 1.351 . S
C2400 C2394 1.428 . S
C2400 N2399 1.351 . S
C2400 C2401 1.434 . S
C2401 C2392 1.429 . S
C2401 N2398 1.350 . S
C2401 C2400 1.434 . S
C2402 C2403 1.369 . S
C2402 C2404 1.419 . S
C2402 H2406 0.930 . S
C2403 C2402 1.369 . S
C2403 C2412 1.429 . S
C2404 C2402 1.419 . S
C2404 C2405 1.363 1_565 S
C2404 H2407 0.929 . S
C2405 C2404 1.363 1_545 S
C2405 C2411 1.428 . S
H2406 C2402 0.930 . S
H2407 C2404 0.929 . S
S2408 N2409 1.613 1_545 S
S2408 N2410 1.610 . S
N2409 S2408 1.613 1_565 S
N2409 C2412 1.350 . S
N2410 S2408 1.610 . S
N2410 C2411 1.351 . S
C2411 C2405 1.428 . S
C2411 N2410 1.351 . S
C2411 C2412 1.434 1_545 S
C2412 C2403 1.429 . S
C2412 N2409 1.350 . S
C2412 C2411 1.434 1_565 S
C2413 C2414 1.369 . S
C2413 C2415 1.419 . S
C2413 H2417 0.930 . S
C2414 C2413 1.369 . S
C2414 C2423 1.429 1_565 S
C2415 C2413 1.419 . S
C2415 C2416 1.363 1_565 S
C2415 H2418 0.929 . S
C2416 C2415 1.363 1_545 S
C2416 C2422 1.428 . S
H2417 C2413 0.930 . S
H2418 C2415 0.929 . S
S2419 N2420 1.613 . S
S2419 N2421 1.610 1_655 S
N2420 S2419 1.613 . S
N2420 C2423 1.350 1_655 S
N2421 S2419 1.610 1_455 S
N2421 C2422 1.351 . S
C2422 C2416 1.428 . S
C2422 N2421 1.351 . S
C2422 C2423 1.434 . S
C2423 C2414 1.429 1_545 S
C2423 N2420 1.350 1_455 S
C2423 C2422 1.434 . S
C2424 C2425 1.369 . S
C2424 C2426 1.419 . S
C2424 H2428 0.930 . S
C2425 C2424 1.369 . S
C2425 C2434 1.429 . S
C2426 C2424 1.419 . S
C2426 C2427 1.363 . S
C2426 H2429 0.929 . S
C2427 C2426 1.363 . S
C2427 C2433 1.428 . S
H2428 C2424 0.930 . S
H2429 C2426 0.929 . S
S2430 N2431 1.613 . S
S2430 N2432 1.610 . S
N2431 S2430 1.613 . S
N2431 C2434 1.350 . S
N2432 S2430 1.610 . S
N2432 C2433 1.351 . S
C2433 C2427 1.428 . S
C2433 N2432 1.351 . S
C2433 C2434 1.434 . S
C2434 C2425 1.429 . S
C2434 N2431 1.350 . S
C2434 C2433 1.434 . S
C2435 C2436 1.369 . S
C2435 C2437 1.419 . S
C2435 H2439 0.930 . S
C2436 C2435 1.369 . S
C2436 C2445 1.429 . S
C2437 C2435 1.419 . S
C2437 C2438 1.363 . S
C2437 H2440 0.929 . S
C2438 C2437 1.363 . S
C2438 C2444 1.428 . S
H2439 C2435 0.930 . S
H2440 C2437 0.929 . S
S2441 N2442 1.613 . S
S2441 N2443 1.610 . S
N2442 S2441 1.613 . S
N2442 C2445 1.350 . S
N2443 S2441 1.610 . S
N2443 C2444 1.351 . S
C2444 C2438 1.428 . S
C2444 N2443 1.351 . S
C2444 C2445 1.434 . S
C2445 C2436 1.429 . S
C2445 N2442 1.350 . S
C2445 C2444 1.434 . S
C2446 C2447 1.369 . S
C2446 C2448 1.419 . S
C2446 H2450 0.930 . S
C2447 C2446 1.369 . S
C2447 C2456 1.429 . S
C2448 C2446 1.419 . S
C2448 C2449 1.363 . S
C2448 H2451 0.929 . S
C2449 C2448 1.363 . S
C2449 C2455 1.428 . S
H2450 C2446 0.930 . S
H2451 C2448 0.929 . S
S2452 N2453 1.613 . S
S2452 N2454 1.610 . S
N2453 S2452 1.613 . S
N2453 C2456 1.350 . S
N2454 S2452 1.610 . S
N2454 C2455 1.351 . S
C2455 C2449 1.428 . S
C2455 N2454 1.351 . S
C2455 C2456 1.434 . S
C2456 C2447 1.429 . S
C2456 N2453 1.350 . S
C2456 C2455 1.434 . S
C2457 C2458 1.369 . S
C2457 C2459 1.419 . S
C2457 H2461 0.930 . S
C2458 C2457 1.369 . S
C2458 C2467 1.429 . S
C2459 C2457 1.419 . S
C2459 C2460 1.363 . S
C2459 H2462 0.929 . S
C2460 C2459 1.363 . S
C2460 C2466 1.428 . S
H2461 C2457 0.930 . S
H2462 C2459 0.929 . S
S2463 N2464 1.613 . S
S2463 N2465 1.610 . S
N2464 S2463 1.613 . S
N2464 C2467 1.350 . S
N2465 S2463 1.610 . S
N2465 C2466 1.351 . S
C2466 C2460 1.428 . S
C2466 N2465 1.351 . S
C2466 C2467 1.434 . S
C2467 C2458 1.429 . S
C2467 N2464 1.350 . S
C2467 C2466 1.434 . S
C2468 C2469 1.369 . S
C2468 C2470 1.419 . S
C2468 H2472 0.930 . S
C2469 C2468 1.369 . S
C2469 C2478 1.429 . S
C2470 C2468 1.419 . S
C2470 C2471 1.363 . S
C2470 H2473 0.929 . S
C2471 C2470 1.363 . S
C2471 C2477 1.428 . S
H2472 C2468 0.930 . S
H2473 C2470 0.929 . S
S2474 N2475 1.613 . S
S2474 N2476 1.610 . S
N2475 S2474 1.613 . S
N2475 C2478 1.350 . S
N2476 S2474 1.610 . S
N2476 C2477 1.351 . S
C2477 C2471 1.428 . S
C2477 N2476 1.351 . S
C2477 C2478 1.434 . S
C2478 C2469 1.429 . S
C2478 N2475 1.350 . S
C2478 C2477 1.434 . S
C2479 C2480 1.369 . S
C2479 C2481 1.419 . S
C2479 H2483 0.930 . S
C2480 C2479 1.369 . S
C2480 C2489 1.429 . S
C2481 C2479 1.419 . S
C2481 C2482 1.363 . S
C2481 H2484 0.929 . S
C2482 C2481 1.363 . S
C2482 C2488 1.428 . S
H2483 C2479 0.930 . S
H2484 C2481 0.929 . S
S2485 N2486 1.613 . S
S2485 N2487 1.610 . S
N2486 S2485 1.613 . S
N2486 C2489 1.350 . S
N2487 S2485 1.610 . S
N2487 C2488 1.351 . S
C2488 C2482 1.428 . S
C2488 N2487 1.351 . S
C2488 C2489 1.434 . S
C2489 C2480 1.429 . S
C2489 N2486 1.350 . S
C2489 C2488 1.434 . S
C2490 C2491 1.369 . S
C2490 C2492 1.419 . S
C2490 H2494 0.930 . S
C2491 C2490 1.369 . S
C2491 C2500 1.429 . S
C2492 C2490 1.419 . S
C2492 C2493 1.363 . S
C2492 H2495 0.929 . S
C2493 C2492 1.363 . S
C2493 C2499 1.428 . S
H2494 C2490 0.930 . S
H2495 C2492 0.929 . S
S2496 N2497 1.613 . S
S2496 N2498 1.610 . S
N2497 S2496 1.613 . S
N2497 C2500 1.350 . S
N2498 S2496 1.610 . S
N2498 C2499 1.351 . S
C2499 C2493 1.428 . S
C2499 N2498 1.351 . S
C2499 C2500 1.434 . S
C2500 C2491 1.429 . S
C2500 N2497 1.350 . S
C2500 C2499 1.434 . S
C2501 C2502 1.369 . S
C2501 C2503 1.419 . S
C2501 H2505 0.930 . S
C2502 C2501 1.369 . S
C2502 C2511 1.429 . S
C2503 C2501 1.419 . S
C2503 C2504 1.363 . S
C2503 H2506 0.929 . S
C2504 C2503 1.363 . S
C2504 C2510 1.428 . S
H2505 C2501 0.930 . S
H2506 C2503 0.929 . S
S2507 N2508 1.613 . S
S2507 N2509 1.610 . S
N2508 S2507 1.613 . S
N2508 C2511 1.350 . S
N2509 S2507 1.610 . S
N2509 C2510 1.351 . S
C2510 C2504 1.428 . S
C2510 N2509 1.351 . S
C2510 C2511 1.434 . S
C2511 C2502 1.429 . S
C2511 N2508 1.350 . S
C2511 C2510 1.434 . S
C2512 C2513 1.369 . S
C2512 C2514 1.419 . S
C2512 H2516 0.930 . S
C2513 C2512 1.369 . S
C2513 C2522 1.429 . S
C2514 C2512 1.419 . S
C2514 C2515 1.363 . S
C2514 H2517 0.929 . S
C2515 C2514 1.363 . S
C2515 C2521 1.428 . S
H2516 C2512 0.930 . S
H2517 C2514 0.929 . S
S2518 N2519 1.613 . S
S2518 N2520 1.610 . S
N2519 S2518 1.613 . S
N2519 C2522 1.350 . S
N2520 S2518 1.610 . S
N2520 C2521 1.351 . S
C2521 C2515 1.428 . S
C2521 N2520 1.351 . S
C2521 C2522 1.434 . S
C2522 C2513 1.429 . S
C2522 N2519 1.350 . S
C2522 C2521 1.434 . S
C2523 C2524 1.369 . S
C2523 C2525 1.419 . S
C2523 H2527 0.930 . S
C2524 C2523 1.369 . S
C2524 C2533 1.429 . S
C2525 C2523 1.419 . S
C2525 C2526 1.363 . S
C2525 H2528 0.929 . S
C2526 C2525 1.363 . S
C2526 C2532 1.428 . S
H2527 C2523 0.930 . S
H2528 C2525 0.929 . S
S2529 N2530 1.613 . S
S2529 N2531 1.610 . S
N2530 S2529 1.613 . S
N2530 C2533 1.350 . S
N2531 S2529 1.610 . S
N2531 C2532 1.351 . S
C2532 C2526 1.428 . S
C2532 N2531 1.351 . S
C2532 C2533 1.434 . S
C2533 C2524 1.429 . S
C2533 N2530 1.350 . S
C2533 C2532 1.434 . S
C2534 C2535 1.369 . S
C2534 C2536 1.419 . S
C2534 H2538 0.930 . S
C2535 C2534 1.369 . S
C2535 C2544 1.429 . S
C2536 C2534 1.419 . S
C2536 C2537 1.363 . S
C2536 H2539 0.929 . S
C2537 C2536 1.363 . S
C2537 C2543 1.428 . S
H2538 C2534 0.930 . S
H2539 C2536 0.929 . S
S2540 N2541 1.613 . S
S2540 N2542 1.610 . S
N2541 S2540 1.613 . S
N2541 C2544 1.350 . S
N2542 S2540 1.610 . S
N2542 C2543 1.351 . S
C2543 C2537 1.428 . S
C2543 N2542 1.351 . S
C2543 C2544 1.434 . S
C2544 C2535 1.429 . S
C2544 N2541 1.350 . S
C2544 C2543 1.434 . S
C2545 C2546 1.369 . S
C2545 C2547 1.419 . S
C2545 H2549 0.930 . S
C2546 C2545 1.369 . S
C2546 C2555 1.429 . S
C2547 C2545 1.419 . S
C2547 C2548 1.363 . S
C2547 H2550 0.929 . S
C2548 C2547 1.363 . S
C2548 C2554 1.428 . S
H2549 C2545 0.930 . S
H2550 C2547 0.929 . S
S2551 N2552 1.613 . S
S2551 N2553 1.610 . S
N2552 S2551 1.613 . S
N2552 C2555 1.350 . S
N2553 S2551 1.610 . S
N2553 C2554 1.351 . S
C2554 C2548 1.428 . S
C2554 N2553 1.351 . S
C2554 C2555 1.434 . S
C2555 C2546 1.429 . S
C2555 N2552 1.350 . S
C2555 C2554 1.434 . S
C2556 C2557 1.369 . S
C2556 C2558 1.419 . S
C2556 H2560 0.930 . S
C2557 C2556 1.369 . S
C2557 C2566 1.429 . S
C2558 C2556 1.419 . S
C2558 C2559 1.363 . S
C2558 H2561 0.929 . S
C2559 C2558 1.363 . S
C2559 C2565 1.428 . S
H2560 C2556 0.930 . S
H2561 C2558 0.929 . S
S2562 N2563 1.613 . S
S2562 N2564 1.610 . S
N2563 S2562 1.613 . S
N2563 C2566 1.350 . S
N2564 S2562 1.610 . S
N2564 C2565 1.351 . S
C2565 C2559 1.428 . S
C2565 N2564 1.351 . S
C2565 C2566 1.434 . S
C2566 C2557 1.429 . S
C2566 N2563 1.350 . S
C2566 C2565 1.434 . S
C2567 C2568 1.369 . S
C2567 C2569 1.419 . S
C2567 H2571 0.930 . S
C2568 C2567 1.369 . S
C2568 C2577 1.429 . S
C2569 C2567 1.419 . S
C2569 C2570 1.363 . S
C2569 H2572 0.929 . S
C2570 C2569 1.363 . S
C2570 C2576 1.428 . S
H2571 C2567 0.930 . S
H2572 C2569 0.929 . S
S2573 N2574 1.613 . S
S2573 N2575 1.610 . S
N2574 S2573 1.613 . S
N2574 C2577 1.350 . S
N2575 S2573 1.610 . S
N2575 C2576 1.351 . S
C2576 C2570 1.428 . S
C2576 N2575 1.351 . S
C2576 C2577 1.434 . S
C2577 C2568 1.429 . S
C2577 N2574 1.350 . S
C2577 C2576 1.434 . S
C2578 C2579 1.369 . S
C2578 C2580 1.419 . S
C2578 H2582 0.930 . S
C2579 C2578 1.369 . S
C2579 C2588 1.429 . S
C2580 C2578 1.419 . S
C2580 C2581 1.363 . S
C2580 H2583 0.929 . S
C2581 C2580 1.363 . S
C2581 C2587 1.428 . S
H2582 C2578 0.930 . S
H2583 C2580 0.929 . S
S2584 N2585 1.613 . S
S2584 N2586 1.610 . S
N2585 S2584 1.613 . S
N2585 C2588 1.350 . S
N2586 S2584 1.610 . S
N2586 C2587 1.351 . S
C2587 C2581 1.428 . S
C2587 N2586 1.351 . S
C2587 C2588 1.434 . S
C2588 C2579 1.429 . S
C2588 N2585 1.350 . S
C2588 C2587 1.434 . S
C2589 C2590 1.369 . S
C2589 C2591 1.419 . S
C2589 H2593 0.930 . S
C2590 C2589 1.369 . S
C2590 C2599 1.429 . S
C2591 C2589 1.419 . S
C2591 C2592 1.363 . S
C2591 H2594 0.929 . S
C2592 C2591 1.363 . S
C2592 C2598 1.428 . S
H2593 C2589 0.930 . S
H2594 C2591 0.929 . S
S2595 N2596 1.613 . S
S2595 N2597 1.610 . S
N2596 S2595 1.613 . S
N2596 C2599 1.350 . S
N2597 S2595 1.610 . S
N2597 C2598 1.351 . S
C2598 C2592 1.428 . S
C2598 N2597 1.351 . S
C2598 C2599 1.434 . S
C2599 C2590 1.429 . S
C2599 N2596 1.350 . S
C2599 C2598 1.434 . S
C2600 C2601 1.369 . S
C2600 C2602 1.419 . S
C2600 H2604 0.930 . S
C2601 C2600 1.369 . S
C2601 C2610 1.429 . S
C2602 C2600 1.419 . S
C2602 C2603 1.363 . S
C2602 H2605 0.929 . S
C2603 C2602 1.363 . S
C2603 C2609 1.428 . S
H2604 C2600 0.930 . S
H2605 C2602 0.929 . S
S2606 N2607 1.613 . S
S2606 N2608 1.610 . S
N2607 S2606 1.613 . S
N2607 C2610 1.350 . S
N2608 S2606 1.610 . S
N2608 C2609 1.351 . S
C2609 C2603 1.428 . S
C2609 N2608 1.351 . S
C2609 C2610 1.434 . S
C2610 C2601 1.429 . S
C2610 N2607 1.350 . S
C2610 C2609 1.434 . S
C2611 C2612 1.369 . S
C2611 C2613 1.419 . S
C2611 H2615 0.930 . S
C2612 C2611 1.369 . S
C2612 C2621 1.429 . S
C2613 C2611 1.419 . S
C2613 C2614 1.363 . S
C2613 H2616 0.929 . S
C2614 C2613 1.363 . S
C2614 C2620 1.428 . S
H2615 C2611 0.930 . S
H2616 C2613 0.929 . S
S2617 N2618 1.613 . S
S2617 N2619 1.610 . S
N2618 S2617 1.613 . S
N2618 C2621 1.350 . S
N2619 S2617 1.610 . S
N2619 C2620 1.351 . S
C2620 C2614 1.428 . S
C2620 N2619 1.351 . S
C2620 C2621 1.434 . S
C2621 C2612 1.429 . S
C2621 N2618 1.350 . S
C2621 C2620 1.434 . S
C2622 C2623 1.369 . S
C2622 C2624 1.419 . S
C2622 H2626 0.930 . S
C2623 C2622 1.369 . S
C2623 C2632 1.429 . S
C2624 C2622 1.419 . S
C2624 C2625 1.363 . S
C2624 H2627 0.929 . S
C2625 C2624 1.363 . S
C2625 C2631 1.428 . S
H2626 C2622 0.930 . S
H2627 C2624 0.929 . S
S2628 N2629 1.613 . S
S2628 N2630 1.610 . S
N2629 S2628 1.613 . S
N2629 C2632 1.350 . S
N2630 S2628 1.610 . S
N2630 C2631 1.351 . S
C2631 C2625 1.428 . S
C2631 N2630 1.351 . S
C2631 C2632 1.434 . S
C2632 C2623 1.429 . S
C2632 N2629 1.350 . S
C2632 C2631 1.434 . S
C2633 C2634 1.369 . S
C2633 C2635 1.419 . S
C2633 H2637 0.930 . S
C2634 C2633 1.369 . S
C2634 C2643 1.429 . S
C2635 C2633 1.419 . S
C2635 C2636 1.363 . S
C2635 H2638 0.929 . S
C2636 C2635 1.363 . S
C2636 C2642 1.428 . S
H2637 C2633 0.930 . S
H2638 C2635 0.929 . S
S2639 N2640 1.613 . S
S2639 N2641 1.610 . S
N2640 S2639 1.613 . S
N2640 C2643 1.350 . S
N2641 S2639 1.610 . S
N2641 C2642 1.351 . S
C2642 C2636 1.428 . S
C2642 N2641 1.351 . S
C2642 C2643 1.434 . S
C2643 C2634 1.429 . S
C2643 N2640 1.350 . S
C2643 C2642 1.434 . S
C2644 C2645 1.369 . S
C2644 C2646 1.419 . S
C2644 H2648 0.930 . S
C2645 C2644 1.369 . S
C2645 C2654 1.429 . S
C2646 C2644 1.419 . S
C2646 C2647 1.363 . S
C2646 H2649 0.929 . S
C2647 C2646 1.363 . S
C2647 C2653 1.428 . S
H2648 C2644 0.930 . S
H2649 C2646 0.929 . S
S2650 N2651 1.613 . S
S2650 N2652 1.610 . S
N2651 S2650 1.613 . S
N2651 C2654 1.350 . S
N2652 S2650 1.610 . S
N2652 C2653 1.351 . S
C2653 C2647 1.428 . S
C2653 N2652 1.351 . S
C2653 C2654 1.434 . S
C2654 C2645 1.429 . S
C2654 N2651 1.350 . S
C2654 C2653 1.434 . S
C2655 C2656 1.369 . S
C2655 C2657 1.419 . S
C2655 H2659 0.930 . S
C2656 C2655 1.369 . S
C2656 C2665 1.429 . S
C2657 C2655 1.419 . S
C2657 C2658 1.363 . S
C2657 H2660 0.929 . S
C2658 C2657 1.363 . S
C2658 C2664 1.428 . S
H2659 C2655 0.930 . S
H2660 C2657 0.929 . S
S2661 N2662 1.613 . S
S2661 N2663 1.610 . S
N2662 S2661 1.613 . S
N2662 C2665 1.350 . S
N2663 S2661 1.610 . S
N2663 C2664 1.351 . S
C2664 C2658 1.428 . S
C2664 N2663 1.351 . S
C2664 C2665 1.434 . S
C2665 C2656 1.429 . S
C2665 N2662 1.350 . S
C2665 C2664 1.434 . S
C2666 C2667 1.369 . S
C2666 C2668 1.419 . S
C2666 H2670 0.930 . S
C2667 C2666 1.369 . S
C2667 C2676 1.429 . S
C2668 C2666 1.419 . S
C2668 C2669 1.363 . S
C2668 H2671 0.929 . S
C2669 C2668 1.363 . S
C2669 C2675 1.428 . S
H2670 C2666 0.930 . S
H2671 C2668 0.929 . S
S2672 N2673 1.613 . S
S2672 N2674 1.610 . S
N2673 S2672 1.613 . S
N2673 C2676 1.350 . S
N2674 S2672 1.610 . S
N2674 C2675 1.351 . S
C2675 C2669 1.428 . S
C2675 N2674 1.351 . S
C2675 C2676 1.434 . S
C2676 C2667 1.429 . S
C2676 N2673 1.350 . S
C2676 C2675 1.434 . S
C2677 C2678 1.369 . S
C2677 C2679 1.419 . S
C2677 H2681 0.930 . S
C2678 C2677 1.369 . S
C2678 C2687 1.429 . S
C2679 C2677 1.419 . S
C2679 C2680 1.363 . S
C2679 H2682 0.929 . S
C2680 C2679 1.363 . S
C2680 C2686 1.428 . S
H2681 C2677 0.930 . S
H2682 C2679 0.929 . S
S2683 N2684 1.613 . S
S2683 N2685 1.610 . S
N2684 S2683 1.613 . S
N2684 C2687 1.350 . S
N2685 S2683 1.610 . S
N2685 C2686 1.351 . S
C2686 C2680 1.428 . S
C2686 N2685 1.351 . S
C2686 C2687 1.434 . S
C2687 C2678 1.429 . S
C2687 N2684 1.350 . S
C2687 C2686 1.434 . S
C2688 C2689 1.369 . S
C2688 C2690 1.419 1_655 S
C2688 H2692 0.930 . S
C2689 C2688 1.369 . S
C2689 C2698 1.429 . S
C2690 C2688 1.419 1_455 S
C2690 C2691 1.363 . S
C2690 H2693 0.929 . S
C2691 C2690 1.363 . S
C2691 C2697 1.428 . S
H2692 C2688 0.930 . S
H2693 C2690 0.929 . S
S2694 N2695 1.612 1_455 S
S2694 N2696 1.611 . S
N2695 S2694 1.612 1_655 S
N2695 C2698 1.350 . S
N2696 S2694 1.611 . S
N2696 C2697 1.351 . S
C2697 C2691 1.428 . S
C2697 N2696 1.351 . S
C2697 C2698 1.434 1_455 S
C2698 C2689 1.429 . S
C2698 N2695 1.350 . S
C2698 C2697 1.434 1_655 S
C2699 C2700 1.369 . S
C2699 C2701 1.419 . S
C2699 H2703 0.930 . S
C2700 C2699 1.369 . S
C2700 C2709 1.429 1_455 S
C2701 C2699 1.419 . S
C2701 C2702 1.363 1_455 S
C2701 H2704 0.929 . S
C2702 C2701 1.363 1_655 S
C2702 C2708 1.428 . S
H2703 C2699 0.930 . S
H2704 C2701 0.929 . S
S2705 N2706 1.613 . S
S2705 N2707 1.610 . S
N2706 S2705 1.613 . S
N2706 C2709 1.350 . S
N2707 S2705 1.610 . S
N2707 C2708 1.351 . S
C2708 C2702 1.428 . S
C2708 N2707 1.351 . S
C2708 C2709 1.434 . S
C2709 C2700 1.429 1_655 S
C2709 N2706 1.350 . S
C2709 C2708 1.434 . S
C2710 C2711 1.369 . S
C2710 C2712 1.419 . S
C2710 H2714 0.930 . S
C2711 C2710 1.369 . S
C2711 C2720 1.429 . S
C2712 C2710 1.419 . S
C2712 C2713 1.363 . S
C2712 H2715 0.929 . S
C2713 C2712 1.363 . S
C2713 C2719 1.428 . S
H2714 C2710 0.930 . S
H2715 C2712 0.929 . S
S2716 N2717 1.613 . S
S2716 N2718 1.610 . S
N2717 S2716 1.613 . S
N2717 C2720 1.350 . S
N2718 S2716 1.610 . S
N2718 C2719 1.351 . S
C2719 C2713 1.428 . S
C2719 N2718 1.351 . S
C2719 C2720 1.434 . S
C2720 C2711 1.429 . S
C2720 N2717 1.350 . S
C2720 C2719 1.434 . S
C2721 C2722 1.369 . S
C2721 C2723 1.419 . S
C2721 H2725 0.930 . S
C2722 C2721 1.369 . S
C2722 C2731 1.429 . S
C2723 C2721 1.419 . S
C2723 C2724 1.363 . S
C2723 H2726 0.929 . S
C2724 C2723 1.363 . S
C2724 C2730 1.428 . S
H2725 C2721 0.930 . S
H2726 C2723 0.929 . S
S2727 N2728 1.613 . S
S2727 N2729 1.610 . S
N2728 S2727 1.613 . S
N2728 C2731 1.350 . S
N2729 S2727 1.610 . S
N2729 C2730 1.351 . S
C2730 C2724 1.428 . S
C2730 N2729 1.351 . S
C2730 C2731 1.434 . S
C2731 C2722 1.429 . S
C2731 N2728 1.350 . S
C2731 C2730 1.434 . S
C2732 C2733 1.369 . S
C2732 C2734 1.419 1_655 S
C2732 H2736 0.930 . S
C2733 C2732 1.369 . S
C2733 C2742 1.429 . S
C2734 C2732 1.419 1_455 S
C2734 C2735 1.363 . S
C2734 H2737 0.929 . S
C2735 C2734 1.363 . S
C2735 C2741 1.428 . S
H2736 C2732 0.930 . S
H2737 C2734 0.929 . S
S2738 N2739 1.613 1_455 S
S2738 N2740 1.610 . S
N2739 S2738 1.613 1_655 S
N2739 C2742 1.350 . S
N2740 S2738 1.610 . S
N2740 C2741 1.351 . S
C2741 C2735 1.428 . S
C2741 N2740 1.351 . S
C2741 C2742 1.434 1_455 S
C2742 C2733 1.429 . S
C2742 N2739 1.350 . S
C2742 C2741 1.434 1_655 S
C2743 C2744 1.369 . S
C2743 C2745 1.419 . S
C2743 H2747 0.930 . S
C2744 C2743 1.369 . S
C2744 C2753 1.429 . S
C2745 C2743 1.419 . S
C2745 C2746 1.363 . S
C2745 H2748 0.929 . S
C2746 C2745 1.363 . S
C2746 C2752 1.428 . S
H2747 C2743 0.930 . S
H2748 C2745 0.929 . S
S2749 N2750 1.613 . S
S2749 N2751 1.610 . S
N2750 S2749 1.613 . S
N2750 C2753 1.350 . S
N2751 S2749 1.610 . S
N2751 C2752 1.351 . S
C2752 C2746 1.428 . S
C2752 N2751 1.351 . S
C2752 C2753 1.434 . S
C2753 C2744 1.429 . S
C2753 N2750 1.350 . S
C2753 C2752 1.434 . S
C2754 C2755 1.369 . S
C2754 C2756 1.419 . S
C2754 H2758 0.930 . S
C2755 C2754 1.369 . S
C2755 C2764 1.429 . S
C2756 C2754 1.419 . S
C2756 C2757 1.363 . S
C2756 H2759 0.929 . S
C2757 C2756 1.363 . S
C2757 C2763 1.428 . S
H2758 C2754 0.930 . S
H2759 C2756 0.929 . S
S2760 N2761 1.613 . S
S2760 N2762 1.610 . S
N2761 S2760 1.613 . S
N2761 C2764 1.350 . S
N2762 S2760 1.610 . S
N2762 C2763 1.351 . S
C2763 C2757 1.428 . S
C2763 N2762 1.351 . S
C2763 C2764 1.434 . S
C2764 C2755 1.429 . S
C2764 N2761 1.350 . S
C2764 C2763 1.434 . S
C2765 C2766 1.369 . S
C2765 C2767 1.419 . S
C2765 H2769 0.930 . S
C2766 C2765 1.369 . S
C2766 C2775 1.429 1_455 S
C2767 C2765 1.419 . S
C2767 C2768 1.363 1_455 S
C2767 H2770 0.929 . S
C2768 C2767 1.363 1_655 S
C2768 C2774 1.428 . S
H2769 C2765 0.930 . S
H2770 C2767 0.929 . S
S2771 N2772 1.613 . S
S2771 N2773 1.610 . S
N2772 S2771 1.613 . S
N2772 C2775 1.350 . S
N2773 S2771 1.610 . S
N2773 C2774 1.351 . S
C2774 C2768 1.428 . S
C2774 N2773 1.351 . S
C2774 C2775 1.434 . S
C2775 C2766 1.429 1_655 S
C2775 N2772 1.350 . S
C2775 C2774 1.434 . S
C2776 C2777 1.369 . S
C2776 C2778 1.419 1_545 S
C2776 H2780 0.930 . S
C2777 C2776 1.369 . S
C2777 C2786 1.429 . S
C2778 C2776 1.419 1_565 S
C2778 C2779 1.363 . S
C2778 H2781 0.929 . S
C2779 C2778 1.363 . S
C2779 C2785 1.428 . S
H2780 C2776 0.930 . S
H2781 C2778 0.929 . S
S2782 N2783 1.613 1_565 S
S2782 N2784 1.610 . S
N2783 S2782 1.613 1_545 S
N2783 C2786 1.350 . S
N2784 S2782 1.610 . S
N2784 C2785 1.351 . S
C2785 C2779 1.428 . S
C2785 N2784 1.351 . S
C2785 C2786 1.434 1_565 S
C2786 C2777 1.429 . S
C2786 N2783 1.350 . S
C2786 C2785 1.434 1_545 S
C2787 C2788 1.369 . S
C2787 C2789 1.419 . S
C2787 H2791 0.930 . S
C2788 C2787 1.369 . S
C2788 C2797 1.429 . S
C2789 C2787 1.419 . S
C2789 C2790 1.363 . S
C2789 H2792 0.929 . S
C2790 C2789 1.363 . S
C2790 C2796 1.428 . S
H2791 C2787 0.930 . S
H2792 C2789 0.929 . S
S2793 N2794 1.613 . S
S2793 N2795 1.610 . S
N2794 S2793 1.613 . S
N2794 C2797 1.350 . S
N2795 S2793 1.610 . S
N2795 C2796 1.351 . S
C2796 C2790 1.428 . S
C2796 N2795 1.351 . S
C2796 C2797 1.434 . S
C2797 C2788 1.429 . S
C2797 N2794 1.350 . S
C2797 C2796 1.434 . S
C2798 C2799 1.369 . S
C2798 C2800 1.419 1_565 S
C2798 H2802 0.930 . S
C2799 C2798 1.369 . S
C2799 C2808 1.429 . S
C2800 C2798 1.419 1_545 S
C2800 C2801 1.363 . S
C2800 H2803 0.929 . S
C2801 C2800 1.363 . S
C2801 C2807 1.428 . S
H2802 C2798 0.930 . S
H2803 C2800 0.929 . S
S2804 N2805 1.613 . S
S2804 N2806 1.610 1_565 S
N2805 S2804 1.613 . S
N2805 C2808 1.350 . S
N2806 S2804 1.610 1_545 S
N2806 C2807 1.351 . S
C2807 C2801 1.428 . S
C2807 N2806 1.351 . S
C2807 C2808 1.434 1_545 S
C2808 C2799 1.429 . S
C2808 N2805 1.350 . S
C2808 C2807 1.434 1_565 S
C2809 C2810 1.369 . S
C2809 C2811 1.419 . S
C2809 H2813 0.930 . S
C2810 C2809 1.369 . S
C2810 C2819 1.429 1_556 S
C2811 C2809 1.419 . S
C2811 C2812 1.363 1_556 S
C2811 H2814 0.929 . S
C2812 C2811 1.363 1_554 S
C2812 C2818 1.428 . S
H2813 C2809 0.930 . S
H2814 C2811 0.929 . S
S2815 N2816 1.613 . S
S2815 N2817 1.610 . S
N2816 S2815 1.613 . S
N2816 C2819 1.350 . S
N2817 S2815 1.610 . S
N2817 C2818 1.351 . S
C2818 C2812 1.428 . S
C2818 N2817 1.351 . S
C2818 C2819 1.434 . S
C2819 C2810 1.429 1_554 S
C2819 N2816 1.350 . S
C2819 C2818 1.434 . S
C2820 C2821 1.369 . S
C2820 C2822 1.419 1_556 S
C2820 H2824 0.930 . S
C2821 C2820 1.369 . S
C2821 C2830 1.429 . S
C2822 C2820 1.419 1_554 S
C2822 C2823 1.363 . S
C2822 H2825 0.929 . S
C2823 C2822 1.363 . S
C2823 C2829 1.428 . S
H2824 C2820 0.930 . S
H2825 C2822 0.929 . S
S2826 N2827 1.613 1_554 S
S2826 N2828 1.610 . S
N2827 S2826 1.613 1_556 S
N2827 C2830 1.350 . S
N2828 S2826 1.610 . S
N2828 C2829 1.351 . S
C2829 C2823 1.428 . S
C2829 N2828 1.351 . S
C2829 C2830 1.434 1_554 S
C2830 C2821 1.429 . S
C2830 N2827 1.350 . S
C2830 C2829 1.434 1_556 S
C2831 C2832 1.369 . S
C2831 C2833 1.419 1_554 S
C2831 H2835 0.930 . S
C2832 C2831 1.369 . S
C2832 C2841 1.429 . S
C2833 C2831 1.419 1_556 S
C2833 C2834 1.363 . S
C2833 H2836 0.929 . S
C2834 C2833 1.363 . S
C2834 C2840 1.428 . S
H2835 C2831 0.930 . S
H2836 C2833 0.929 . S
S2837 N2838 1.613 . S
S2837 N2839 1.610 1_554 S
N2838 S2837 1.613 . S
N2838 C2841 1.350 . S
N2839 S2837 1.610 1_556 S
N2839 C2840 1.351 . S
C2840 C2834 1.428 . S
C2840 N2839 1.351 . S
C2840 C2841 1.434 1_556 S
C2841 C2832 1.429 . S
C2841 N2838 1.350 . S
C2841 C2840 1.434 1_554 S
C2842 C2843 1.369 . S
C2842 C2844 1.419 . S
C2842 H2846 0.930 . S
C2843 C2842 1.369 . S
C2843 C2852 1.429 . S
C2844 C2842 1.419 . S
C2844 C2845 1.363 . S
C2844 H2847 0.929 . S
C2845 C2844 1.363 . S
C2845 C2851 1.428 . S
H2846 C2842 0.930 . S
H2847 C2844 0.929 . S
S2848 N2849 1.613 . S
S2848 N2850 1.610 . S
N2849 S2848 1.613 . S
N2849 C2852 1.350 . S
N2850 S2848 1.610 . S
N2850 C2851 1.351 . S
C2851 C2845 1.428 . S
C2851 N2850 1.351 . S
C2851 C2852 1.434 . S
C2852 C2843 1.429 . S
C2852 N2849 1.350 . S
C2852 C2851 1.434 . S
C2853 C2854 1.369 . S
C2853 C2855 1.419 . S
C2853 H2857 0.930 . S
C2854 C2853 1.369 . S
C2854 C2863 1.429 . S
C2855 C2853 1.419 . S
C2855 C2856 1.363 . S
C2855 H2858 0.929 . S
C2856 C2855 1.363 . S
C2856 C2862 1.428 . S
H2857 C2853 0.930 . S
H2858 C2855 0.929 . S
S2859 N2860 1.613 . S
S2859 N2861 1.610 . S
N2860 S2859 1.613 . S
N2860 C2863 1.350 . S
N2861 S2859 1.610 . S
N2861 C2862 1.351 . S
C2862 C2856 1.428 . S
C2862 N2861 1.351 . S
C2862 C2863 1.434 . S
C2863 C2854 1.429 . S
C2863 N2860 1.350 . S
C2863 C2862 1.434 . S
C2864 C2865 1.369 . S
C2864 C2866 1.419 . S
C2864 H2868 0.930 . S
C2865 C2864 1.369 . S
C2865 C2874 1.429 1_545 S
C2866 C2864 1.419 . S
C2866 C2867 1.363 1_545 S
C2866 H2869 0.929 . S
C2867 C2866 1.363 1_565 S
C2867 C2873 1.428 . S
H2868 C2864 0.930 . S
H2869 C2866 0.929 . S
S2870 N2871 1.613 . S
S2870 N2872 1.610 . S
N2871 S2870 1.613 . S
N2871 C2874 1.350 . S
N2872 S2870 1.610 . S
N2872 C2873 1.351 . S
C2873 C2867 1.428 . S
C2873 N2872 1.351 . S
C2873 C2874 1.434 . S
C2874 C2865 1.429 1_565 S
C2874 N2871 1.350 . S
C2874 C2873 1.434 . S
C2875 C2876 1.369 . S
C2875 C2877 1.419 . S
C2875 H2879 0.930 . S
C2876 C2875 1.369 . S
C2876 C2885 1.429 . S
C2877 C2875 1.419 . S
C2877 C2878 1.363 . S
C2877 H2880 0.929 . S
C2878 C2877 1.363 . S
C2878 C2884 1.428 . S
H2879 C2875 0.930 . S
H2880 C2877 0.929 . S
S2881 N2882 1.613 . S
S2881 N2883 1.610 . S
N2882 S2881 1.613 . S
N2882 C2885 1.350 . S
N2883 S2881 1.610 . S
N2883 C2884 1.351 . S
C2884 C2878 1.428 . S
C2884 N2883 1.351 . S
C2884 C2885 1.434 . S
C2885 C2876 1.429 . S
C2885 N2882 1.350 . S
C2885 C2884 1.434 . S
C2886 C2887 1.369 . S
C2886 C2888 1.419 . S
C2886 H2890 0.930 . S
C2887 C2886 1.369 . S
C2887 C2896 1.429 . S
C2888 C2886 1.419 . S
C2888 C2889 1.363 . S
C2888 H2891 0.929 . S
C2889 C2888 1.363 . S
C2889 C2895 1.428 . S
H2890 C2886 0.930 . S
H2891 C2888 0.929 . S
S2892 N2893 1.613 . S
S2892 N2894 1.610 . S
N2893 S2892 1.613 . S
N2893 C2896 1.350 . S
N2894 S2892 1.610 . S
N2894 C2895 1.351 . S
C2895 C2889 1.428 . S
C2895 N2894 1.351 . S
C2895 C2896 1.434 . S
C2896 C2887 1.429 . S
C2896 N2893 1.350 . S
C2896 C2895 1.434 . S
C2897 C2898 1.369 . S
C2897 C2899 1.419 . S
C2897 H2901 0.930 . S
C2898 C2897 1.369 . S
C2898 C2907 1.429 . S
C2899 C2897 1.419 . S
C2899 C2900 1.363 . S
C2899 H2902 0.929 . S
C2900 C2899 1.363 . S
C2900 C2906 1.428 . S
H2901 C2897 0.930 . S
H2902 C2899 0.929 . S
S2903 N2904 1.613 . S
S2903 N2905 1.610 . S
N2904 S2903 1.613 . S
N2904 C2907 1.350 . S
N2905 S2903 1.610 . S
N2905 C2906 1.351 . S
C2906 C2900 1.428 . S
C2906 N2905 1.351 . S
C2906 C2907 1.434 . S
C2907 C2898 1.429 . S
C2907 N2904 1.350 . S
C2907 C2906 1.434 . S
C2908 C2909 1.369 1_556 S
C2908 C2910 1.419 . S
C2908 H2912 0.930 . S
C2909 C2908 1.369 1_554 S
C2909 C2918 1.429 . S
C2910 C2908 1.419 . S
C2910 C2911 1.363 . S
C2910 H2913 0.929 . S
C2911 C2910 1.363 . S
C2911 C2917 1.428 1_556 S
H2912 C2908 0.930 . S
H2913 C2910 0.929 . S
S2914 N2915 1.613 . S
S2914 N2916 1.610 . S
N2915 S2914 1.613 . S
N2915 C2918 1.350 . S
N2916 S2914 1.610 . S
N2916 C2917 1.351 . S
C2917 C2911 1.428 1_554 S
C2917 N2916 1.351 . S
C2917 C2918 1.434 . S
C2918 C2909 1.429 . S
C2918 N2915 1.350 . S
C2918 C2917 1.434 . S
C2919 C2920 1.369 . S
C2919 C2921 1.419 . S
C2919 H2923 0.930 . S
C2920 C2919 1.369 . S
C2920 C2929 1.429 . S
C2921 C2919 1.419 . S
C2921 C2922 1.363 . S
C2921 H2924 0.929 . S
C2922 C2921 1.363 . S
C2922 C2928 1.428 . S
H2923 C2919 0.930 . S
H2924 C2921 0.929 . S
S2925 N2926 1.613 . S
S2925 N2927 1.610 . S
N2926 S2925 1.613 . S
N2926 C2929 1.350 . S
N2927 S2925 1.610 . S
N2927 C2928 1.351 . S
C2928 C2922 1.428 . S
C2928 N2927 1.351 . S
C2928 C2929 1.434 . S
C2929 C2920 1.429 . S
C2929 N2926 1.350 . S
C2929 C2928 1.434 . S
C2930 C2931 1.369 . S
C2930 C2932 1.419 . S
C2930 H2934 0.930 . S
C2931 C2930 1.369 . S
C2931 C2940 1.429 . S
C2932 C2930 1.419 . S
C2932 C2933 1.363 . S
C2932 H2935 0.929 . S
C2933 C2932 1.363 . S
C2933 C2939 1.428 . S
H2934 C2930 0.930 . S
H2935 C2932 0.929 . S
S2936 N2937 1.613 . S
S2936 N2938 1.610 . S
N2937 S2936 1.613 . S
N2937 C2940 1.350 . S
N2938 S2936 1.610 . S
N2938 C2939 1.351 . S
C2939 C2933 1.428 . S
C2939 N2938 1.351 . S
C2939 C2940 1.434 . S
C2940 C2931 1.429 . S
C2940 N2937 1.350 . S
C2940 C2939 1.434 . S
C2941 C2942 1.369 . S
C2941 C2943 1.419 . S
C2941 H2945 0.930 . S
C2942 C2941 1.369 . S
C2942 C2951 1.429 1_565 S
C2943 C2941 1.419 . S
C2943 C2944 1.363 1_565 S
C2943 H2946 0.929 . S
C2944 C2943 1.363 1_545 S
C2944 C2950 1.428 . S
H2945 C2941 0.930 . S
H2946 C2943 0.929 . S
S2947 N2948 1.613 . S
S2947 N2949 1.610 . S
N2948 S2947 1.613 . S
N2948 C2951 1.350 . S
N2949 S2947 1.610 . S
N2949 C2950 1.351 . S
C2950 C2944 1.428 . S
C2950 N2949 1.351 . S
C2950 C2951 1.434 . S
C2951 C2942 1.429 1_545 S
C2951 N2948 1.350 . S
C2951 C2950 1.434 . S
C1633 C33 2.498 . S
C1635 C713 2.487 1_455 S
C1644 C1427 2.501 . S
C1646 C67 2.502 . S
C1655 C1461 2.498 . S
C1657 C101 2.501 . S
C1666 C135 2.480 1_556 S
C1668 C1495 2.501 . S
C1677 C169 2.503 . S
C1679 C1631 2.491 1_455 S
C1688 C747 2.502 . S
C1690 C203 2.499 . S
C1699 C237 2.501 . S
C1701 C1597 2.502 . S
C1710 C271 2.485 1_554 S
C1712 C577 2.499 . S
C1721 C305 2.499 . S
C1723 C543 2.483 1_545 S
C1732 C339 2.496 1_565 S
C1734 C441 2.500 . S
C1743 C475 2.498 1_565 S
C1745 C373 2.501 . S
C1754 C509 2.499 . S
C1756 C407 2.490 1_545 S
C1765 C883 2.492 1_556 S
C1767 C611 2.502 . S
C1776 C645 2.480 1_655 S
C1778 C917 2.500 . S
C1787 C951 2.503 . S
C1789 C679 2.500 . S
C1798 C781 2.482 1_655 S
C1800 C1053 2.501 . S
C1809 C815 2.502 . S
C1811 C985 2.499 . S
C1820 C1529 2.503 . S
C1822 C849 2.500 . S
C1831 C1563 2.500 . S
C1833 C1019 2.496 1_554 S
C1842 C1087 2.501 . S
C1844 C1393 2.499 . S
C1853 C1359 2.498 . S
C1855 C1121 2.501 . S
C1864 C1257 2.502 . S
C1866 C1155 2.499 . S
C1875 C1189 2.499 . S
C1877 C1291 2.502 . S
C1886 C1223 2.502 . S
C1888 C1325 2.502 . S
C1897 C553 1.097 . S
C1899 C20 1.145 . S
C1908 C1607 1.090 . S
C1910 C54 1.141 . S
C1919 C723 1.096 . S
C1921 C88 1.144 . S
C1930 C122 1.139 1_556 S
C1932 C1573 1.086 . S
C1941 C1403 1.086 . S
C1943 C156 1.140 . S
C1952 C190 1.138 . S
C1954 C1437 1.084 . S
C1963 C1471 1.088 . S
C1965 C224 1.140 . S
C1974 C258 1.142 1_554 S
C1976 C689 1.091 . S
C1985 C292 1.146 . S
C1987 C9 1.093 . S
C1996 C43 1.085 . S
C1998 C326 1.140 1_565 S
C2007 C77 1.096 . S
C2009 C360 1.146 . S
C2018 C111 1.085 . S
C2020 C394 1.140 1_545 S
C2029 C428 1.138 . S
C2031 C145 1.083 . S
C2040 C462 1.145 1_565 S
C2042 C179 1.089 . S
C2051 C496 1.147 . S
C2053 C213 1.094 . S
C2062 C530 1.146 1_545 S
C2064 C247 1.091 . S
C2073 C281 1.091 . S
C2075 C564 1.145 . S
C2084 C598 1.143 . S
C2086 C1233 1.093 . S
C2095 C632 1.140 1_655 S
C2097 C1267 1.083 . S
C2106 C1301 1.095 . S
C2108 C666 1.146 . S
C2117 C700 1.142 1_455 S
C2119 C519 1.092 . S
C2128 C734 1.146 . S
C2130 C349 1.095 . S
C2139 C1199 1.097 . S
C2141 C768 1.145 1_655 S
C2150 C802 1.139 . S
C2152 C1131 1.087 . S
C2161 C836 1.139 . S
C2163 C1369 1.088 . S
C2172 C870 1.141 1_556 S
C2174 C791 1.084 . S
C2183 C904 1.145 . S
C2185 C1539 1.095 . S
C2194 C938 1.138 . S
C2196 C757 1.083 . S
C2205 C587 1.082 . S
C2207 C972 1.141 . S
C2216 C1006 1.138 1_554 S
C2218 C621 1.084 . S
C2227 C1040 1.141 . S
C2229 C655 1.084 . S
C2238 C1074 1.142 . S
C2240 C1505 1.091 . S
C2249 C825 1.083 . S
C2251 C1108 1.139 . S
C2260 C1142 1.143 . S
C2262 C859 1.093 . S
C2271 C893 1.094 . S
C2273 C1176 1.143 . S
C2282 C927 1.096 . S
C2284 C1210 1.144 . S
C2293 C961 1.089 . S
C2295 C1244 1.141 . S
C2304 C995 1.081 . S
C2306 C1278 1.140 . S
C2315 C1312 1.138 . S
C2317 C1029 1.084 . S
C2326 C1346 1.140 . S
C2328 C1063 1.088 . S
C2337 C1097 1.081 . S
C2339 C1380 1.140 . S
C2348 C1414 1.145 . S
C2350 C417 1.095 . S
C2359 C1448 1.143 . S
C2361 C451 1.093 . S
C2370 C1482 1.144 . S
C2372 C485 1.094 . S
C2381 C1335 1.083 . S
C2383 C1516 1.139 . S
C2392 C1165 1.092 . S
C2394 C1550 1.145 . S
C2403 C383 1.084 . S
C2405 C1584 1.142 . S
C2414 C1618 1.145 1_455 S
C2416 C315 1.095 . S
C2425 C308 1.894 . S
C2427 C2 1.894 . S
C2436 C342 1.894 . S
C2438 C36 1.893 . S
C2447 C70 1.890 . S
C2449 C376 1.894 . S
C2458 C104 1.889 . S
C2460 C274 1.891 . S
C2469 C138 1.892 . S
C2471 C512 1.894 . S
C2480 C410 1.889 . S
C2482 C172 1.894 . S
C2491 C444 1.889 . S
C2493 C206 1.891 . S
C2502 C240 1.893 . S
C2504 C478 1.889 . S
C2513 C546 1.891 . S
C2515 C614 1.895 . S
C2524 C1566 1.889 . S
C2526 C580 1.894 . S
C2535 C1600 1.894 . S
C2537 C648 1.890 . S
C2546 C1532 1.889 . S
C2548 C682 1.894 . S
C2557 C716 1.890 . S
C2559 C1498 1.891 . S
C2568 C1396 1.889 . S
C2570 C750 1.893 . S
C2579 C1464 1.892 . S
C2581 C784 1.889 . S
C2590 C1124 1.889 . S
C2592 C818 1.893 . S
C2601 C1158 1.890 . S
C2603 C852 1.894 . S
C2612 C886 1.894 . S
C2614 C1192 1.894 . S
C2623 C1090 1.895 . S
C2625 C920 1.891 . S
C2634 C1328 1.890 . S
C2636 C954 1.890 . S
C2645 C988 1.890 . S
C2647 C1226 1.894 . S
C2656 C1260 1.889 . S
C2658 C1022 1.893 . S
C2667 C1056 1.895 . S
C2669 C1294 1.891 . S
C2678 C1362 1.891 . S
C2680 C1430 1.894 . S
C2689 C889 1.458 . S
C2691 C5 1.458 . S
C2700 C39 1.456 . S
C2702 C923 1.455 . S
C2711 C821 1.457 . S
C2713 C73 1.458 . S
C2722 C855 1.458 . S
C2724 C107 1.457 . S
C2733 C1025 1.455 . S
C2735 C141 1.456 . S
C2744 C1059 1.457 . S
C2746 C175 1.456 . S
C2755 C957 1.455 . S
C2757 C209 1.455 . S
C2766 C243 1.456 . S
C2768 C991 1.455 . S
C2777 C277 1.455 . S
C2779 C413 1.455 . S
C2788 C311 1.455 . S
C2790 C447 1.456 . S
C2799 C345 1.457 . S
C2801 C481 1.456 . S
C2810 C379 1.456 . S
C2812 C515 1.455 . S
C2821 C1467 1.455 . S
C2823 C549 1.455 . S
C2832 C1535 1.458 . S
C2834 C583 1.457 . S
C2843 C617 1.457 . S
C2845 C753 1.456 . S
C2854 C1365 1.455 . S
C2856 C651 1.455 . S
C2865 C685 1.457 . S
C2867 C1603 1.456 . S
C2876 C719 1.457 . S
C2878 C1399 1.458 . S
C2887 C787 1.456 . S
C2889 C1501 1.457 . S
C2898 C1093 1.455 . S
C2900 C1229 1.455 . S
C2909 C1263 1.455 . S
C2911 C1127 1.456 . S
C2920 C1297 1.455 . S
C2922 C1161 1.456 . S
C2931 C1195 1.458 . S
C2933 C1331 1.457 . S
C2942 C1433 1.456 . S
C2944 C1569 1.455 . S
