# Generated by pormake.
# Topology ukf, (4)-cn, num edge types: 1
# Building blocks:
#     Node 0, Type 0, BuildingBlock: UXUYUI_clean_sbu_0, # of connection points: 4
#     Node 1, Type 0, BuildingBlock: UXUYUI_clean_sbu_0, # of connection points: 4
#     Node 2, Type 0, BuildingBlock: UXUYUI_clean_sbu_0, # of connection points: 4
#     Node 3, Type 0, BuildingBlock: UXUYUI_clean_sbu_0, # of connection points: 4
#     Node 4, Type 0, BuildingBlock: UXUYUI_clean_sbu_0, # of connection points: 4
#     Node 5, Type 0, BuildingBlock: UXUYUI_clean_sbu_0, # of connection points: 4
#     Node 6, Type 0, BuildingBlock: UXUYUI_clean_sbu_0, # of connection points: 4
#     Node 7, Type 0, BuildingBlock: UXUYUI_clean_sbu_0, # of connection points: 4
#     Node 8, Type 0, BuildingBlock: UXUYUI_clean_sbu_0, # of connection points: 4
#     Node 9, Type 0, BuildingBlock: UXUYUI_clean_sbu_0, # of connection points: 4
#     Node 10, Type 0, BuildingBlock: UXUYUI_clean_sbu_0, # of connection points: 4
#     Node 11, Type 0, BuildingBlock: UXUYUI_clean_sbu_0, # of connection points: 4
#     Edge 12, Type (0, 0), BuildingBlock: CIFDUS_clean_linker_0, # of connection points: 2
#     Edge 13, Type (0, 0), BuildingBlock: CIFDUS_clean_linker_0, # of connection points: 2
#     Edge 14, Type (0, 0), BuildingBlock: CIFDUS_clean_linker_0, # of connection points: 2
#     Edge 15, Type (0, 0), BuildingBlock: CIFDUS_clean_linker_0, # of connection points: 2
#     Edge 16, Type (0, 0), BuildingBlock: CIFDUS_clean_linker_0, # of connection points: 2
#     Edge 17, Type (0, 0), BuildingBlock: CIFDUS_clean_linker_0, # of connection points: 2
#     Edge 18, Type (0, 0), BuildingBlock: CIFDUS_clean_linker_0, # of connection points: 2
#     Edge 19, Type (0, 0), BuildingBlock: CIFDUS_clean_linker_0, # of connection points: 2
#     Edge 20, Type (0, 0), BuildingBlock: CIFDUS_clean_linker_0, # of connection points: 2
#     Edge 21, Type (0, 0), BuildingBlock: CIFDUS_clean_linker_0, # of connection points: 2
#     Edge 22, Type (0, 0), BuildingBlock: CIFDUS_clean_linker_0, # of connection points: 2
#     Edge 23, Type (0, 0), BuildingBlock: CIFDUS_clean_linker_0, # of connection points: 2
#     Edge 24, Type (0, 0), BuildingBlock: CIFDUS_clean_linker_0, # of connection points: 2
#     Edge 25, Type (0, 0), BuildingBlock: CIFDUS_clean_linker_0, # of connection points: 2
#     Edge 26, Type (0, 0), BuildingBlock: CIFDUS_clean_linker_0, # of connection points: 2
#     Edge 27, Type (0, 0), BuildingBlock: CIFDUS_clean_linker_0, # of connection points: 2
#     Edge 28, Type (0, 0), BuildingBlock: CIFDUS_clean_linker_0, # of connection points: 2
#     Edge 29, Type (0, 0), BuildingBlock: CIFDUS_clean_linker_0, # of connection points: 2
#     Edge 30, Type (0, 0), BuildingBlock: CIFDUS_clean_linker_0, # of connection points: 2
#     Edge 31, Type (0, 0), BuildingBlock: CIFDUS_clean_linker_0, # of connection points: 2
#     Edge 32, Type (0, 0), BuildingBlock: CIFDUS_clean_linker_0, # of connection points: 2
#     Edge 33, Type (0, 0), BuildingBlock: CIFDUS_clean_linker_0, # of connection points: 2
#     Edge 34, Type (0, 0), BuildingBlock: CIFDUS_clean_linker_0, # of connection points: 2
#     Edge 35, Type (0, 0), BuildingBlock: CIFDUS_clean_linker_0, # of connection points: 2
# Relax obj value: 0.271
# Max RMSD: 0.213
# Mean RMSD: 0.213
data_MOF--net-ukf--node1-UXUYUI_clean_sbu_0--edge1-CIFDUS_clean_linker_0
_symmetry_space_group_name_H-M    P1
_symmetry_Int_Tables_number       1
_symmetry_cell_setting            triclinic
loop_
_symmetry_equiv_pos_as_xyz
'x, y, z'
_cell_length_a     42.607237
_cell_length_b     42.618987
_cell_length_c     84.951148
_cell_angle_alpha  90.002433
_cell_angle_beta   90.000337
_cell_angle_gamma 120.02935
loop_
_atom_site_label
_atom_site_type_symbol
_atom_site_fract_x
_atom_site_fract_y
_atom_site_fract_z
_atom_type_partial_charge
Li0 Li 0.38869 0.21496 0.06661 0.0
Li1 Li 0.35954 0.19628 0.04145 0.0
Li2 Li 0.42449 0.2227 0.04349 0.0
Li3 Li 0.39738 0.25995 0.04733 0.0
C4 C 0.36275 0.14277 0.05833 0.0
N5 N 0.31386 0.07418 0.06915 0.0
C6 C 0.33193 0.1368 0.06666 0.0
C7 C 0.36871 0.11387 0.05552 0.0
C8 C 0.30754 0.10193 0.07202 0.0
C9 C 0.34368 0.07939 0.06108 0.0
C10 C 0.32423 0.23135 0.05297 0.0
C11 C 0.29255 0.2429 0.03228 0.0
N12 N 0.2702 0.24478 0.04319 0.0
C13 C 0.30093 0.23337 0.06398 0.0
C14 C 0.32002 0.23612 0.03698 0.0
C15 C 0.27378 0.24019 0.0588 0.0
C16 C 0.37716 0.22786 0.09765 0.0
N17 N 0.38539 0.20654 0.08871 0.0
C18 C 0.39271 0.1785 0.1117 0.0
C19 C 0.39295 0.18203 0.09534 0.0
C20 C 0.38488 0.20061 0.12127 0.0
C21 C 0.37672 0.22532 0.11404 0.0
H22 H 0.3715 0.24726 0.09202 0.0
H23 H 0.39993 0.16574 0.08798 0.0
C24 C 0.32898 0.1478 0.01705 0.0
N25 N 0.31955 0.15885 0.03032 0.0
C26 C 0.30355 0.11675 0.00913 0.0
C27 C 0.25871 0.10932 0.02848 0.0
C28 C 0.28509 0.14079 0.03601 0.0
C29 C 0.26802 0.09657 0.01499 0.0
H30 H 0.3568 0.16227 0.01303 0.0
H31 H 0.27848 0.14986 0.04674 0.0
C32 C 0.46235 0.26104 0.06986 0.0
N33 N 0.51768 0.26673 0.08884 0.0
C34 C 0.48689 0.29427 0.07669 0.0
C35 C 0.46611 0.23074 0.07263 0.0
C36 C 0.51464 0.29659 0.08626 0.0
C37 C 0.4942 0.23415 0.08228 0.0
C38 C 0.42014 0.25712 0.01658 0.0
C39 C 0.45215 0.2884 0.02093 0.0
C40 C 0.4117 0.2494 0.00064 0.0
C41 C 0.47522 0.31146 0.00925 0.0
C42 C 0.43548 0.27313 0.9893 0.0
N43 N 0.46648 0.30341 0.9938 0.0
C44 C 0.45841 0.19004 0.02763 0.0
C45 C 0.49828 0.25106 0.03501 0.0
C46 C 0.48671 0.18813 0.02028 0.0
N47 N 0.46467 0.2212 0.03473 0.0
C48 C 0.52727 0.25048 0.02769 0.0
C49 C 0.5217 0.21875 0.02013 0.0
H50 H 0.43131 0.16679 0.02756 0.0
H51 H 0.50251 0.27558 0.04068 0.0
C52 C 0.42485 0.33068 0.05733 0.0
N53 N 0.40676 0.30842 0.04508 0.0
C54 C 0.43908 0.36799 0.056 0.0
C55 C 0.41383 0.35868 0.0298 0.0
C56 C 0.40026 0.32142 0.03159 0.0
C57 C 0.43441 0.38252 0.04196 0.0
H58 H 0.42935 0.31951 0.06795 0.0
H59 H 0.38606 0.30316 0.02196 0.0
O60 O 0.38684 0.17653 0.05272 0.0
O61 O 0.35088 0.22471 0.05798 0.0
O62 O 0.43505 0.25851 0.06047 0.0
O63 O 0.39703 0.23399 0.02776 0.0
H64 H 0.32675 0.15876 0.06892 0.0
H65 H 0.39241 0.11804 0.04907 0.0
H66 H 0.28355 0.09692 0.07846 0.0
H67 H 0.34794 0.05676 0.05898 0.0
H68 H 0.289 0.24665 0.01995 0.0
H69 H 0.30383 0.22971 0.0764 0.0
H70 H 0.3376 0.23454 0.02825 0.0
H71 H 0.25557 0.24184 0.0672 0.0
H72 H 0.39962 0.15945 0.11679 0.0
H73 H 0.37017 0.2426 0.12097 0.0
H74 H 0.31221 0.10765 0.99899 0.0
H75 H 0.23162 0.09469 0.03335 0.0
H76 H 0.48461 0.3181 0.0746 0.0
H77 H 0.44766 0.20483 0.06739 0.0
H78 H 0.53379 0.32214 0.09163 0.0
H79 H 0.49735 0.21089 0.08453 0.0
H80 H 0.45912 0.29491 0.0332 0.0
H81 H 0.387 0.2253 0.99708 0.0
H82 H 0.50006 0.33576 0.01246 0.0
H83 H 0.42928 0.26748 0.97692 0.0
H84 H 0.48122 0.16294 0.0148 0.0
H85 H 0.55356 0.27492 0.02767 0.0
H86 H 0.45422 0.38538 0.06576 0.0
H87 H 0.40974 0.36885 0.01876 0.0
Li88 Li 0.14751 0.42095 0.37986 0.0
Li89 Li 0.21204 0.44368 0.37676 0.0
Li90 Li 0.17019 0.37835 0.37403 0.0
Li91 Li 0.18315 0.40798 0.40004 0.0
C92 C 0.14867 0.40549 0.34843 0.0
N93 N 0.09958 0.37821 0.32388 0.0
C94 C 0.15742 0.42281 0.33379 0.0
C95 C 0.11502 0.3742 0.35054 0.0
C96 C 0.13222 0.40862 0.32154 0.0
C97 C 0.09056 0.36085 0.33801 0.0
C98 C 0.20884 0.49176 0.39439 0.0
C99 C 0.25923 0.54571 0.40531 0.0
N100 N 0.25331 0.56616 0.39473 0.0
C101 C 0.20311 0.51331 0.3837 0.0
C102 C 0.237 0.50805 0.40534 0.0
C103 C 0.22594 0.55088 0.38403 0.0
C104 C 0.09119 0.43055 0.39102 0.0
N105 N 0.11106 0.43399 0.37795 0.0
C106 C 0.08658 0.46643 0.36468 0.0
C107 C 0.10888 0.45112 0.36484 0.0
C108 C 0.06686 0.46461 0.37823 0.0
C109 C 0.06878 0.44574 0.39142 0.0
H110 H 0.09403 0.41738 0.40137 0.0
H111 H 0.12589 0.45469 0.3548 0.0
C112 C 0.28828 0.49346 0.37413 0.0
N113 N 0.25492 0.4831 0.36813 0.0
C114 C 0.31927 0.52118 0.36699 0.0
C115 C 0.281 0.52742 0.34773 0.0
C116 C 0.25077 0.49968 0.35529 0.0
C117 C 0.3159 0.53829 0.35348 0.0
H118 H 0.291 0.48011 0.38436 0.0
H119 H 0.2239 0.49108 0.35085 0.0
C120 C 0.10793 0.34075 0.39489 0.0
N121 N 0.05306 0.27312 0.40405 0.0
C122 C 0.11588 0.31813 0.40384 0.0
C123 C 0.072 0.32919 0.39076 0.0
C124 C 0.08779 0.28397 0.40831 0.0
C125 C 0.04466 0.29485 0.39546 0.0
C126 C 0.24218 0.39984 0.39382 0.0
C127 C 0.24712 0.37023 0.39118 0.0
C128 C 0.26294 0.42538 0.4053 0.0
C129 C 0.27263 0.36657 0.40012 0.0
C130 C 0.28815 0.42076 0.41401 0.0
N131 N 0.29243 0.39168 0.41126 0.0
C132 C 0.17604 0.34354 0.34728 0.0
C133 C 0.16225 0.30752 0.37025 0.0
C134 C 0.18432 0.3203 0.33912 0.0
N135 N 0.16613 0.33744 0.36269 0.0
C136 C 0.17104 0.28382 0.36256 0.0
C137 C 0.18393 0.29117 0.347 0.0
H138 H 0.18063 0.36807 0.3416 0.0
H139 H 0.15583 0.30385 0.38263 0.0
C140 C 0.18238 0.42642 0.43137 0.0
N141 N 0.18744 0.40326 0.42217 0.0
C142 C 0.18711 0.42689 0.44763 0.0
C143 C 0.20123 0.37888 0.44476 0.0
C144 C 0.19608 0.37925 0.42853 0.0
C145 C 0.19718 0.40326 0.45452 0.0
H146 H 0.17507 0.44491 0.42603 0.0
H147 H 0.19989 0.361 0.42099 0.0
O148 O 0.17306 0.41923 0.36057 0.0
O149 O 0.18738 0.45488 0.39394 0.0
O150 O 0.13493 0.37451 0.39057 0.0
O151 O 0.21692 0.40353 0.38531 0.0
H152 H 0.18341 0.44694 0.33189 0.0
H153 H 0.10794 0.36021 0.36168 0.0
H154 H 0.13863 0.42178 0.31016 0.0
H155 H 0.06443 0.33665 0.3395 0.0
H156 H 0.2812 0.55867 0.41368 0.0
H157 H 0.18162 0.50113 0.37507 0.0
H158 H 0.24168 0.49182 0.41377 0.0
H159 H 0.22198 0.56787 0.37575 0.0
H160 H 0.0863 0.48122 0.35436 0.0
H161 H 0.05382 0.44355 0.40206 0.0
H162 H 0.34558 0.5291 0.37199 0.0
H163 H 0.27707 0.53959 0.33727 0.0
H164 H 0.14347 0.32671 0.40719 0.0
H165 H 0.06529 0.34661 0.38404 0.0
H166 H 0.09362 0.26609 0.41516 0.0
H167 H 0.01675 0.28551 0.3923 0.0
H168 H 0.23163 0.35038 0.38226 0.0
H169 H 0.25921 0.44822 0.40763 0.0
H170 H 0.2767 0.34376 0.39819 0.0
H171 H 0.3042 0.44022 0.42299 0.0
H172 H 0.19366 0.32675 0.32706 0.0
H173 H 0.17076 0.26194 0.36916 0.0
H174 H 0.18296 0.44562 0.45472 0.0
H175 H 0.20926 0.36039 0.44954 0.0
Li176 Li 0.772 0.20841 0.71326 0.0
Li177 Li 0.7336 0.14342 0.71507 0.0
Li178 Li 0.78011 0.17941 0.73646 0.0
Li179 Li 0.79841 0.17152 0.71008 0.0
C180 C 0.72085 0.1974 0.73803 0.0
N181 N 0.6893 0.23009 0.75478 0.0
C182 C 0.68565 0.18969 0.73444 0.0
C183 C 0.73982 0.2215 0.75025 0.0
C184 C 0.67024 0.20658 0.743 0.0
C185 C 0.72345 0.2378 0.75855 0.0
C186 C 0.73717 0.17149 0.68554 0.0
C187 C 0.71488 0.16375 0.65891 0.0
N188 N 0.68833 0.17033 0.66381 0.0
C189 C 0.70974 0.17828 0.6903 0.0
C190 C 0.73986 0.16425 0.66971 0.0
C191 C 0.68528 0.17754 0.67916 0.0
C192 C 0.78949 0.26206 0.69058 0.0
N193 N 0.77433 0.25168 0.70511 0.0
C194 C 0.76493 0.30242 0.70636 0.0
C195 C 0.76227 0.27129 0.71306 0.0
C196 C 0.7805 0.31381 0.69138 0.0
C197 C 0.79303 0.2932 0.6835 0.0
H198 H 0.7992 0.24623 0.68453 0.0
H199 H 0.75063 0.26308 0.72459 0.0
C200 C 0.66279 0.09921 0.72485 0.0
N201 N 0.68487 0.10512 0.71232 0.0
C202 C 0.62541 0.07658 0.72345 0.0
C203 C 0.6342 0.06449 0.6965 0.0
C204 C 0.67155 0.08773 0.69839 0.0
C205 C 0.61042 0.05928 0.70904 0.0
H206 H 0.67413 0.11344 0.73577 0.0
H207 H 0.6897 0.09285 0.6886 0.0
C208 C 0.83996 0.25203 0.71987 0.0
N209 N 0.88234 0.32506 0.71326 0.0
C210 C 0.86115 0.26339 0.70623 0.0
C211 C 0.84042 0.27785 0.73017 0.0
C212 C 0.8824 0.30043 0.70311 0.0
C213 C 0.86197 0.31463 0.72661 0.0
C214 C 0.78387 0.11163 0.7236 0.0
C215 C 0.81244 0.11596 0.73317 0.0
C216 C 0.77196 0.08668 0.71123 0.0
C217 C 0.82885 0.09526 0.73012 0.0
C218 C 0.7891 0.06651 0.70857 0.0
N219 N 0.81696 0.07119 0.71799 0.0
C220 C 0.76534 0.1543 0.7676 0.0
C221 C 0.82049 0.20976 0.7643 0.0
C222 C 0.77104 0.15524 0.78382 0.0
N223 N 0.78984 0.18143 0.75827 0.0
C224 C 0.827 0.21208 0.78048 0.0
C225 C 0.80204 0.18461 0.79043 0.0
H226 H 0.74124 0.13212 0.76241 0.0
H227 H 0.83969 0.2307 0.75656 0.0
C228 C 0.83309 0.15673 0.6846 0.0
N229 N 0.83656 0.16871 0.69967 0.0
C230 C 0.8636 0.16173 0.67628 0.0
C231 C 0.90011 0.18971 0.69939 0.0
C232 C 0.86892 0.18384 0.70729 0.0
C233 C 0.898 0.17972 0.68348 0.0
H234 H 0.80699 0.14483 0.67884 0.0
H235 H 0.87088 0.19343 0.71924 0.0
O236 O 0.73621 0.18068 0.72993 0.0
O237 O 0.7614 0.17188 0.69623 0.0
O238 O 0.81823 0.21585 0.72293 0.0
O239 O 0.7682 0.1324 0.72608 0.0
H240 H 0.67029 0.17085 0.72515 0.0
H241 H 0.76704 0.22796 0.7532 0.0
H242 H 0.64308 0.20093 0.74031 0.0
H243 H 0.73793 0.25665 0.76797 0.0
H244 H 0.71661 0.15812 0.64662 0.0
H245 H 0.70741 0.18415 0.70245 0.0
H246 H 0.76099 0.15901 0.66582 0.0
H247 H 0.66391 0.18271 0.6827 0.0
H248 H 0.75445 0.31712 0.71281 0.0
H249 H 0.80582 0.3012 0.67206 0.0
H250 H 0.60842 0.07403 0.7334 0.0
H251 H 0.62405 0.0513 0.68526 0.0
H252 H 0.86074 0.24386 0.69799 0.0
H253 H 0.82394 0.26961 0.74069 0.0
H254 H 0.89876 0.30958 0.69255 0.0
H255 H 0.8624 0.33488 0.73442 0.0
H256 H 0.82203 0.13536 0.74273 0.0
H257 H 0.74999 0.08326 0.70368 0.0
H258 H 0.85112 0.0984 0.73737 0.0
H259 H 0.78032 0.04721 0.699 0.0
H260 H 0.75109 0.13368 0.79115 0.0
H261 H 0.85138 0.23495 0.78516 0.0
H262 H 0.86046 0.15294 0.66413 0.0
H263 H 0.92589 0.2041 0.70543 0.0
Li264 Li 0.63421 0.78706 0.03668 0.0
Li265 Li 0.60443 0.76826 0.06206 0.0
Li266 Li 0.59573 0.7222 0.04104 0.0
Li267 Li 0.56776 0.76073 0.03797 0.0
C268 C 0.6775 0.77391 0.05368 0.0
N269 N 0.75232 0.81041 0.05467 0.0
C270 C 0.69613 0.80326 0.06388 0.0
C271 C 0.69683 0.76284 0.0441 0.0
C272 C 0.73399 0.82145 0.06417 0.0
C273 C 0.73468 0.78172 0.04475 0.0
C274 C 0.59337 0.82643 0.05513 0.0
C275 C 0.5463 0.8298 0.06948 0.0
N276 N 0.56715 0.86654 0.06982 0.0
C277 C 0.61424 0.86424 0.05552 0.0
C278 C 0.55906 0.80909 0.06208 0.0
C279 C 0.60055 0.88403 0.06304 0.0
C280 C 0.68395 0.82454 0.01143 0.0
N281 N 0.67586 0.82596 0.0268 0.0
C282 C 0.71785 0.88969 0.02766 0.0
C283 C 0.69307 0.85743 0.03508 0.0
C284 C 0.72487 0.88958 0.0115 0.0
C285 C 0.7087 0.85615 0.00355 0.0
H286 H 0.66967 0.79947 0.00498 0.0
H287 H 0.68575 0.85791 0.04723 0.0
C288 C 0.59684 0.7461 0.09341 0.0
N289 N 0.60762 0.77581 0.0842 0.0
C290 C 0.59676 0.74905 0.10977 0.0
C291 C 0.61993 0.81337 0.10689 0.0
C292 C 0.61975 0.80919 0.09058 0.0
C293 C 0.60797 0.78297 0.11674 0.0
H294 H 0.58782 0.71997 0.088 0.0
H295 H 0.62904 0.83258 0.08304 0.0
C296 C 0.597 0.73561 0.00859 0.0
N297 N 0.59721 0.70297 0.98053 0.0
C298 C 0.5702 0.72787 0.99732 0.0
C299 C 0.62385 0.72667 0.00562 0.0
C300 C 0.5708 0.71139 0.98319 0.0
C301 C 0.62351 0.71021 0.99136 0.0
C302 C 0.52582 0.70149 0.0605 0.0
C303 C 0.50401 0.66825 0.05304 0.0
C304 C 0.5134 0.70974 0.07427 0.0
C305 C 0.46997 0.64412 0.05929 0.0
C306 C 0.4792 0.68488 0.08017 0.0
N307 N 0.45836 0.65286 0.07262 0.0
C308 C 0.59369 0.6581 0.05039 0.0
C309 C 0.56356 0.65268 0.02624 0.0
C310 C 0.58051 0.62076 0.05069 0.0
N311 N 0.58462 0.67317 0.0384 0.0
C312 C 0.55002 0.61533 0.02601 0.0
C313 C 0.55767 0.59868 0.03854 0.0
H314 H 0.60972 0.67488 0.06011 0.0
H315 H 0.55543 0.66482 0.01715 0.0
C316 C 0.52974 0.79337 0.02496 0.0
N317 N 0.52719 0.76127 0.02894 0.0
C318 C 0.50053 0.79401 0.01784 0.0
C319 C 0.46704 0.72853 0.01862 0.0
C320 C 0.49687 0.72919 0.02573 0.0
C321 C 0.46862 0.76125 0.01458 0.0
H322 H 0.55461 0.8185 0.02711 0.0
H323 H 0.49603 0.70407 0.02843 0.0
O324 O 0.6405 0.75622 0.05303 0.0
O325 O 0.60658 0.80668 0.04793 0.0
O326 O 0.59641 0.75119 0.02257 0.0
O327 O 0.55961 0.72519 0.05471 0.0
H328 H 0.68152 0.81216 0.07135 0.0
H329 H 0.68277 0.73988 0.03629 0.0
H330 H 0.74879 0.84439 0.07192 0.0
H331 H 0.75003 0.77354 0.03737 0.0
H332 H 0.51976 0.81667 0.0749 0.0
H333 H 0.64077 0.87819 0.05011 0.0
H334 H 0.54229 0.78001 0.06158 0.0
H335 H 0.61646 0.91329 0.06348 0.0
H336 H 0.72922 0.91477 0.03425 0.0
H337 H 0.71364 0.8547 0.99113 0.0
H338 H 0.58805 0.72499 0.11688 0.0
H339 H 0.62861 0.84002 0.11169 0.0
H340 H 0.54914 0.7345 0.99948 0.0
H341 H 0.64461 0.73228 0.01427 0.0
H342 H 0.55023 0.70525 0.97436 0.0
H343 H 0.64411 0.70313 0.9889 0.0
H344 H 0.513 0.66131 0.0424 0.0
H345 H 0.52995 0.73499 0.08041 0.0
H346 H 0.45278 0.61844 0.05355 0.0
H347 H 0.46928 0.691 0.09078 0.0
H348 H 0.58673 0.60915 0.06072 0.0
H349 H 0.53288 0.59954 0.01631 0.0
H350 H 0.5032 0.81982 0.01462 0.0
H351 H 0.44297 0.70266 0.01635 0.0
Li352 Li 0.82831 0.62933 0.37004 0.0
Li353 Li 0.82142 0.59871 0.39615 0.0
Li354 Li 0.85878 0.59425 0.37453 0.0
Li355 Li 0.79371 0.56373 0.37228 0.0
C356 C 0.89681 0.67142 0.38492 0.0
N357 N 0.95773 0.73925 0.38243 0.0
C358 C 0.90365 0.69801 0.39617 0.0
C359 C 0.92121 0.6791 0.37255 0.0
C360 C 0.93453 0.73221 0.39467 0.0
C361 C 0.95178 0.71361 0.37145 0.0
C362 C 0.74699 0.58063 0.38278 0.0
C363 C 0.69065 0.53291 0.39332 0.0
N364 N 0.67234 0.53885 0.38167 0.0
C365 C 0.72764 0.58637 0.37095 0.0
C366 C 0.72841 0.55378 0.3941 0.0
C367 C 0.68989 0.56492 0.37058 0.0
C368 C 0.80817 0.65913 0.34606 0.0
N369 N 0.82779 0.66859 0.35959 0.0
C370 C 0.83744 0.72883 0.35784 0.0
C371 C 0.84253 0.70268 0.36556 0.0
C372 C 0.81663 0.71959 0.34397 0.0
C373 C 0.80224 0.6842 0.33805 0.0
H374 H 0.79608 0.63159 0.34178 0.0
H375 H 0.85734 0.70937 0.37651 0.0
C376 C 0.83874 0.59276 0.42719 0.0
N377 N 0.81761 0.60111 0.41818 0.0
C378 C 0.83581 0.59209 0.44356 0.0
C379 C 0.78966 0.609 0.44104 0.0
C380 C 0.79363 0.60951 0.4247 0.0
C381 C 0.81071 0.59988 0.4507 0.0
H382 H 0.85761 0.58625 0.42161 0.0
H383 H 0.77713 0.61597 0.41719 0.0
C384 C 0.84399 0.59723 0.34158 0.0
N385 N 0.87371 0.60613 0.31187 0.0
C386 C 0.83359 0.56721 0.33181 0.0
C387 C 0.8691 0.63185 0.33613 0.0
C388 C 0.84906 0.57225 0.31686 0.0
C389 C 0.88391 0.63576 0.3211 0.0
C390 C 0.8217 0.52332 0.38689 0.0
C391 C 0.82457 0.511 0.37201 0.0
C392 C 0.81943 0.50316 0.40024 0.0
C393 C 0.82513 0.47861 0.37073 0.0
C394 C 0.82003 0.47087 0.39847 0.0
N395 N 0.82286 0.45938 0.38388 0.0
C396 C 0.90928 0.57671 0.38503 0.0
C397 C 0.91399 0.58684 0.35751 0.0
C398 C 0.93285 0.56296 0.38429 0.0
N399 N 0.89936 0.58712 0.3717 0.0
C400 C 0.93822 0.57386 0.35626 0.0
C401 C 0.94707 0.56053 0.36969 0.0
H402 H 0.89708 0.57701 0.39615 0.0
H403 H 0.90601 0.59536 0.34704 0.0
C404 C 0.74021 0.5243 0.34973 0.0
N405 N 0.75257 0.5218 0.36416 0.0
C406 C 0.71091 0.49398 0.34294 0.0
C407 C 0.7077 0.45916 0.36599 0.0
C408 C 0.73662 0.49029 0.37246 0.0
C409 C 0.69472 0.46083 0.35101 0.0
H410 H 0.75336 0.54983 0.34348 0.0
H411 H 0.7465 0.48925 0.38405 0.0
O412 O 0.86673 0.63784 0.38625 0.0
O413 O 0.78401 0.60046 0.38305 0.0
O414 O 0.82889 0.59275 0.3562 0.0
O415 O 0.82175 0.55529 0.38847 0.0
H416 H 0.88513 0.69233 0.40589 0.0
H417 H 0.91674 0.6586 0.36395 0.0
H418 H 0.94006 0.75315 0.40323 0.0
H419 H 0.97083 0.71998 0.36191 0.0
H420 H 0.67592 0.51187 0.40194 0.0
H421 H 0.74163 0.60694 0.36207 0.0
H422 H 0.74306 0.54871 0.40322 0.0
H423 H 0.67456 0.56894 0.36144 0.0
H424 H 0.84921 0.75578 0.36281 0.0
H425 H 0.78528 0.6754 0.32764 0.0
H426 H 0.85303 0.58553 0.45053 0.0
H427 H 0.7697 0.6148 0.446 0.0
H428 H 0.81375 0.54028 0.33571 0.0
H429 H 0.877 0.65548 0.34338 0.0
H430 H 0.84139 0.54924 0.30921 0.0
H431 H 0.90346 0.66237 0.31677 0.0
H432 H 0.82658 0.5264 0.36159 0.0
H433 H 0.81733 0.51244 0.41185 0.0
H434 H 0.82742 0.46881 0.35929 0.0
H435 H 0.81832 0.45498 0.40871 0.0
H436 H 0.93826 0.55264 0.39497 0.0
H437 H 0.94911 0.57338 0.3448 0.0
H438 H 0.70158 0.49616 0.33134 0.0
H439 H 0.6955 0.43408 0.37261 0.0
Li440 Li 0.20361 0.83365 0.71078 0.0
Li441 Li 0.22333 0.82172 0.73573 0.0
Li442 Li 0.26973 0.8608 0.71577 0.0
Li443 Li 0.2326 0.7949 0.71239 0.0
C444 C 0.23493 0.90235 0.72535 0.0
N445 N 0.23791 0.96821 0.72156 0.0
C446 C 0.21689 0.91305 0.73591 0.0
C447 C 0.25499 0.92545 0.71303 0.0
C448 C 0.21857 0.94636 0.73375 0.0
C449 C 0.25603 0.95854 0.71127 0.0
C450 C 0.15843 0.76571 0.7315 0.0
C451 C 0.12969 0.71689 0.75025 0.0
N452 N 0.10391 0.72617 0.75294 0.0
C453 C 0.13153 0.77463 0.73437 0.0
C454 C 0.15741 0.73647 0.73942 0.0
C455 C 0.10423 0.75435 0.74527 0.0
C456 C 0.15058 0.81123 0.68816 0.0
N457 N 0.16472 0.83504 0.7003 0.0
C458 C 0.1159 0.84748 0.69879 0.0
C459 C 0.14845 0.85356 0.70556 0.0
C460 C 0.0999 0.82193 0.68659 0.0
C461 C 0.11819 0.80429 0.68109 0.0
H462 H 0.16368 0.79629 0.68447 0.0
H463 H 0.15964 0.87168 0.71547 0.0
C464 C 0.22857 0.80164 0.76706 0.0
N465 N 0.21237 0.81519 0.75766 0.0
C466 C 0.2208 0.79674 0.78312 0.0
C467 C 0.18002 0.82015 0.77962 0.0
C468 C 0.18848 0.82443 0.76359 0.0
C469 C 0.19636 0.80623 0.78965 0.0
H470 H 0.24765 0.79473 0.76211 0.0
H471 H 0.17598 0.83514 0.75585 0.0
C472 C 0.2509 0.84803 0.68234 0.0
N473 N 0.26917 0.87676 0.65234 0.0
C474 C 0.26821 0.83612 0.67195 0.0
C475 C 0.24223 0.87403 0.67734 0.0
C476 C 0.27743 0.85114 0.65688 0.0
C477 C 0.25186 0.88836 0.66217 0.0
C478 C 0.2871 0.80429 0.73121 0.0
C479 C 0.32393 0.8215 0.72735 0.0
C480 C 0.26979 0.76865 0.73679 0.0
C481 C 0.34268 0.80258 0.72895 0.0
C482 C 0.28947 0.75063 0.7382 0.0
N483 N 0.3252 0.76782 0.73428 0.0
C484 C 0.33415 0.92124 0.72594 0.0
C485 C 0.33867 0.89998 0.70074 0.0
C486 C 0.3717 0.94418 0.72652 0.0
N487 N 0.31857 0.8992 0.71333 0.0
C488 C 0.37631 0.92262 0.7008 0.0
C489 C 0.39341 0.94426 0.71404 0.0
H490 H 0.3176 0.91949 0.73593 0.0
H491 H 0.32592 0.88134 0.69111 0.0
C492 C 0.20308 0.72191 0.7024 0.0
N493 N 0.23375 0.75485 0.70327 0.0
C494 C 0.20417 0.69254 0.69568 0.0
C495 C 0.26832 0.73167 0.69095 0.0
C496 C 0.26587 0.76031 0.69752 0.0
C497 C 0.23721 0.69728 0.68999 0.0
H498 H 0.17782 0.71849 0.70691 0.0
H499 H 0.28966 0.78698 0.69808 0.0
O500 O 0.23371 0.8699 0.72739 0.0
O501 O 0.18583 0.78576 0.72113 0.0
O502 O 0.24128 0.83322 0.69708 0.0
O503 O 0.26814 0.82221 0.72948 0.0
H504 H 0.20157 0.89575 0.74562 0.0
H505 H 0.26982 0.91809 0.70497 0.0
H506 H 0.20452 0.95485 0.74177 0.0
H507 H 0.27135 0.97659 0.70174 0.0
H508 H 0.12867 0.69431 0.75652 0.0
H509 H 0.13195 0.79724 0.72841 0.0
H510 H 0.17785 0.72905 0.73727 0.0
H511 H 0.08337 0.7611 0.74768 0.0
H512 H 0.10292 0.86188 0.70335 0.0
H513 H 0.10669 0.78384 0.67198 0.0
H514 H 0.23367 0.78543 0.79033 0.0
H515 H 0.16137 0.82826 0.78412 0.0
H516 H 0.2747 0.81568 0.67552 0.0
H517 H 0.22787 0.88283 0.68499 0.0
H518 H 0.2911 0.84237 0.64878 0.0
H519 H 0.24541 0.90858 0.65818 0.0
H520 H 0.33793 0.84913 0.72315 0.0
H521 H 0.24134 0.75487 0.7398 0.0
H522 H 0.37115 0.81554 0.72595 0.0
H523 H 0.2763 0.72294 0.74238 0.0
H524 H 0.38374 0.9607 0.73689 0.0
H525 H 0.392 0.92143 0.69102 0.0
H526 H 0.17964 0.66634 0.69514 0.0
H527 H 0.29415 0.73644 0.68647 0.0
Li528 Li 0.77509 0.60562 0.59802 0.0
Li529 Li 0.79955 0.63626 0.6232 0.0
Li530 Li 0.77512 0.57066 0.62036 0.0
Li531 Li 0.73471 0.5958 0.62041 0.0
C532 C 0.8427 0.60017 0.61075 0.0
N533 N 0.89242 0.57698 0.61412 0.0
C534 C 0.87228 0.61843 0.62089 0.0
C535 C 0.83857 0.57024 0.60224 0.0
C536 C 0.8971 0.60628 0.62244 0.0
C537 C 0.86393 0.55888 0.60414 0.0
C538 C 0.77739 0.67743 0.60868 0.0
C539 C 0.78539 0.73126 0.62166 0.0
N540 N 0.80395 0.75131 0.60892 0.0
C541 C 0.79633 0.69849 0.59567 0.0
C542 C 0.77163 0.69384 0.62174 0.0
C543 C 0.80962 0.73583 0.59604 0.0
C544 C 0.75705 0.61781 0.56738 0.0
N545 N 0.77993 0.61066 0.57577 0.0
C546 C 0.80951 0.60864 0.55224 0.0
C547 C 0.8061 0.6065 0.56858 0.0
C548 C 0.78591 0.61539 0.54321 0.0
C549 C 0.75957 0.62031 0.55098 0.0
H550 H 0.73661 0.62121 0.57344 0.0
H551 H 0.82431 0.60145 0.57553 0.0
C552 C 0.84708 0.67769 0.64781 0.0
N553 N 0.83931 0.67822 0.63233 0.0
C554 C 0.88113 0.70305 0.65375 0.0
C555 C 0.8974 0.73056 0.62798 0.0
C556 C 0.86335 0.70435 0.62248 0.0
C557 C 0.90737 0.72922 0.64364 0.0
H558 H 0.82793 0.65591 0.65526 0.0
H559 H 0.85716 0.70336 0.61011 0.0
C560 C 0.71719 0.54346 0.59241 0.0
N561 N 0.68368 0.51477 0.56395 0.0
C562 C 0.68806 0.54742 0.58748 0.0
C563 C 0.72918 0.5248 0.5829 0.0
C564 C 0.67147 0.53269 0.57305 0.0
C565 C 0.71193 0.51056 0.56853 0.0
C566 C 0.7455 0.58833 0.65048 0.0
C567 C 0.72666 0.55245 0.65573 0.0
C568 C 0.74118 0.61479 0.65827 0.0
C569 C 0.70335 0.54354 0.66862 0.0
C570 C 0.7176 0.60479 0.67111 0.0
N571 N 0.69931 0.56967 0.67597 0.0
C572 C 0.80391 0.53634 0.63895 0.0
C573 C 0.75545 0.49696 0.62227 0.0
C574 C 0.80606 0.50717 0.64516 0.0
N575 N 0.77902 0.53074 0.62767 0.0
C576 C 0.75637 0.46695 0.62827 0.0
C577 C 0.7818 0.47179 0.63995 0.0
H578 H 0.82186 0.56348 0.64323 0.0
H579 H 0.73535 0.49324 0.61358 0.0
C580 C 0.67302 0.60571 0.62427 0.0
N581 N 0.68624 0.58271 0.62581 0.0
C582 C 0.63581 0.59271 0.62592 0.0
C583 C 0.62696 0.53308 0.63119 0.0
C584 C 0.66415 0.54713 0.62936 0.0
C585 C 0.61215 0.55575 0.62914 0.0
H586 H 0.69108 0.63372 0.62113 0.0
H587 H 0.67527 0.52926 0.63004 0.0
O588 O 0.81784 0.61139 0.60921 0.0
O589 O 0.76432 0.64089 0.60858 0.0
O590 O 0.73445 0.55853 0.60629 0.0
O591 O 0.76796 0.5975 0.63773 0.0
H592 H 0.87605 0.64164 0.62756 0.0
H593 H 0.81569 0.55554 0.59446 0.0
H594 H 0.92004 0.6201 0.63028 0.0
H595 H 0.86088 0.53559 0.59772 0.0
H596 H 0.78129 0.74436 0.63172 0.0
H597 H 0.80101 0.68619 0.58547 0.0
H598 H 0.75681 0.67785 0.63184 0.0
H599 H 0.82451 0.75251 0.58609 0.0
H600 H 0.8306 0.60532 0.54674 0.0
H601 H 0.74073 0.62537 0.54444 0.0
H602 H 0.88758 0.70044 0.66583 0.0
H603 H 0.91638 0.75046 0.61978 0.0
H604 H 0.67864 0.56211 0.59459 0.0
H605 H 0.75184 0.52169 0.58649 0.0
H606 H 0.649 0.53569 0.56905 0.0
H607 H 0.72108 0.49625 0.56101 0.0
H608 H 0.7297 0.53164 0.64982 0.0
H609 H 0.75583 0.64272 0.65443 0.0
H610 H 0.6884 0.51584 0.67276 0.0
H611 H 0.71386 0.62495 0.67722 0.0
H612 H 0.82637 0.5123 0.654 0.0
H613 H 0.73664 0.44019 0.62412 0.0
H614 H 0.62554 0.61116 0.6243 0.0
H615 H 0.60978 0.50434 0.63336 0.0
Li616 Li 0.19815 0.77446 0.96252 0.0
Li617 Li 0.13412 0.73129 0.95842 0.0
Li618 Li 0.16704 0.77818 0.93806 0.0
Li619 Li 0.15208 0.79267 0.96341 0.0
C620 C 0.19979 0.73567 0.93589 0.0
N621 N 0.24842 0.73024 0.91617 0.0
C622 C 0.19091 0.70238 0.92909 0.0
C623 C 0.23341 0.76621 0.93267 0.0
C624 C 0.21587 0.70019 0.91915 0.0
C625 C 0.25761 0.76291 0.92267 0.0
C626 C 0.13657 0.73554 0.98887 0.0
C627 C 0.08123 0.70734 0.00397 0.0
N628 N 0.09142 0.68477 0.01062 0.0
C629 C 0.14666 0.71232 0.99595 0.0
C630 C 0.10374 0.73326 0.99298 0.0
C631 C 0.1234 0.68674 0.00688 0.0
C632 C 0.27193 0.8117 0.97243 0.0
N633 N 0.2415 0.77886 0.97065 0.0
C634 C 0.27163 0.74869 0.98081 0.0
C635 C 0.24089 0.74763 0.97451 0.0
C636 C 0.30331 0.78226 0.9831 0.0
C637 C 0.30329 0.81406 0.97875 0.0
H638 H 0.27193 0.83601 0.96887 0.0
H639 H 0.21642 0.72189 0.9727 0.0
C640 C 0.06429 0.6664 0.95941 0.0
N641 N 0.1007 0.68099 0.96104 0.0
C642 C 0.04143 0.62878 0.96007 0.0
C643 C 0.09395 0.62225 0.96443 0.0
C644 C 0.11573 0.65985 0.96361 0.0
C645 C 0.05629 0.60616 0.96243 0.0
H646 H 0.05312 0.68386 0.95724 0.0
H647 H 0.14485 0.67226 0.96468 0.0
C648 C 0.21001 0.85309 0.95339 0.0
N649 N 0.22772 0.92472 0.95629 0.0
C650 C 0.20037 0.86955 0.94158 0.0
C651 C 0.22853 0.87307 0.96671 0.0
C652 C 0.20967 0.90581 0.94324 0.0
C653 C 0.23721 0.90923 0.96796 0.0
C654 C 0.09396 0.7729 0.94434 0.0
C655 C 0.09798 0.7948 0.93137 0.0
C656 C 0.06507 0.76296 0.95473 0.0
C657 C 0.07325 0.80687 0.92915 0.0
C658 C 0.04098 0.77567 0.95213 0.0
N659 N 0.04554 0.79718 0.9395 0.0
C660 C 0.14876 0.76189 0.90604 0.0
C661 C 0.20552 0.8147 0.91064 0.0
C662 C 0.15451 0.76568 0.88979 0.0
N663 N 0.17415 0.78625 0.91604 0.0
C664 C 0.2123 0.81965 0.8945 0.0
C665 C 0.18677 0.79478 0.88381 0.0
H666 H 0.12435 0.73916 0.91073 0.0
H667 H 0.22556 0.83325 0.91888 0.0
C668 C 0.15505 0.8333 0.98968 0.0
N669 N 0.14354 0.82725 0.97448 0.0
C670 C 0.16025 0.86428 0.99757 0.0
C671 C 0.13891 0.88095 0.97448 0.0
C672 C 0.13434 0.84973 0.96699 0.0
C673 C 0.15357 0.88941 0.98975 0.0
H674 H 0.16316 0.81569 0.99528 0.0
H675 H 0.12644 0.84536 0.95479 0.0
O676 O 0.17546 0.73822 0.94552 0.0
O677 O 0.15844 0.76008 0.97781 0.0
O678 O 0.20067 0.81743 0.95206 0.0
O679 O 0.11759 0.76043 0.94659 0.0
H680 H 0.16495 0.67851 0.93146 0.0
H681 H 0.24071 0.79223 0.93778 0.0
H682 H 0.20935 0.6746 0.9138 0.0
H683 H 0.28369 0.78633 0.92005 0.0
H684 H 0.05565 0.70516 0.00721 0.0
H685 H 0.17203 0.71381 0.99295 0.0
H686 H 0.09573 0.75129 0.98772 0.0
H687 H 0.13074 0.66841 0.01237 0.0
H688 H 0.2704 0.72355 0.98409 0.0
H689 H 0.32736 0.84042 0.98006 0.0
H690 H 0.0125 0.6175 0.95859 0.0
H691 H 0.10664 0.60592 0.96603 0.0
H692 H 0.18535 0.85437 0.93135 0.0
H693 H 0.23541 0.86059 0.97616 0.0
H694 H 0.20225 0.91882 0.93422 0.0
H695 H 0.25124 0.9249 0.97827 0.0
H696 H 0.12007 0.80264 0.92317 0.0
H697 H 0.06124 0.74561 0.96469 0.0
H698 H 0.07614 0.82399 0.91922 0.0
H699 H 0.0186 0.76835 0.96012 0.0
H700 H 0.13434 0.7455 0.88203 0.0
H701 H 0.23736 0.84269 0.89046 0.0
H702 H 0.1721 0.86979 0.00923 0.0
H703 H 0.13303 0.89932 0.96803 0.0
Li704 Li 0.39604 0.12725 0.29068 0.0
Li705 Li 0.4233 0.19104 0.29183 0.0
Li706 Li 0.35855 0.15387 0.29397 0.0
Li707 Li 0.38849 0.15762 0.26834 0.0
C708 C 0.37873 0.13508 0.32143 0.0
N709 N 0.34399 0.09193 0.34718 0.0
C710 C 0.39157 0.14739 0.33662 0.0
C711 C 0.34811 0.10087 0.31933 0.0
C712 C 0.37366 0.12515 0.34949 0.0
C713 C 0.33097 0.07945 0.3325 0.0
C714 C 0.46163 0.1557 0.27734 0.0
C715 C 0.49606 0.13057 0.26589 0.0
N716 N 0.51458 0.13655 0.27964 0.0
C717 C 0.48118 0.16183 0.29132 0.0
C718 C 0.46924 0.14015 0.26448 0.0
C719 C 0.50779 0.1519 0.29226 0.0
C720 C 0.4033 0.06747 0.2831 0.0
N721 N 0.40552 0.08895 0.29537 0.0
C722 C 0.43517 0.06515 0.3112 0.0
C723 C 0.42042 0.08772 0.30937 0.0
C724 C 0.43528 0.04443 0.29839 0.0
C725 C 0.41838 0.04508 0.28431 0.0
H726 H 0.39204 0.06966 0.27201 0.0
H727 H 0.42316 0.10598 0.31876 0.0
C728 C 0.45617 0.25222 0.31114 0.0
N729 N 0.46283 0.23524 0.29915 0.0
C730 C 0.48395 0.28491 0.31707 0.0
C731 C 0.52506 0.28167 0.29837 0.0
C732 C 0.49629 0.24941 0.29257 0.0
C733 C 0.51893 0.2997 0.31076 0.0
H734 H 0.42921 0.2403 0.31607 0.0
H735 H 0.50065 0.23564 0.28286 0.0
C736 C 0.3178 0.10046 0.27152 0.0
N737 N 0.2531 0.07492 0.25548 0.0
C738 C 0.3083 0.12475 0.26506 0.0
C739 C 0.29439 0.06321 0.26981 0.0
C740 C 0.27549 0.1113 0.25698 0.0
C741 C 0.26179 0.05082 0.26167 0.0
C742 C 0.40345 0.23278 0.27749 0.0
C743 C 0.3937 0.25502 0.28571 0.0
C744 C 0.43251 0.24821 0.26694 0.0
C745 C 0.41342 0.29246 0.28332 0.0
C746 C 0.45156 0.28577 0.26488 0.0
N747 N 0.44172 0.30693 0.27305 0.0
C748 C 0.33307 0.18358 0.31471 0.0
C749 C 0.28347 0.13436 0.30189 0.0
C750 C 0.31009 0.1936 0.32189 0.0
N751 N 0.31976 0.1553 0.3045 0.0
C752 C 0.25928 0.14354 0.30885 0.0
C753 C 0.27286 0.17438 0.31852 0.0
H754 H 0.36197 0.19943 0.3167 0.0
H755 H 0.27331 0.11149 0.29398 0.0
C756 C 0.38874 0.1341 0.23731 0.0
N757 N 0.38433 0.15829 0.24607 0.0
C758 C 0.38633 0.13427 0.22091 0.0
C759 C 0.37385 0.18355 0.22293 0.0
C760 C 0.37662 0.1825 0.23926 0.0
C761 C 0.37904 0.15943 0.21349 0.0
H762 H 0.39421 0.11473 0.24308 0.0
H763 H 0.37242 0.20091 0.24651 0.0
O764 O 0.39599 0.15686 0.30879 0.0
O765 O 0.43455 0.16404 0.2764 0.0
O766 O 0.35003 0.11272 0.27926 0.0
O767 O 0.38527 0.19617 0.28003 0.0
H768 H 0.41514 0.17388 0.33843 0.0
H769 H 0.33764 0.09084 0.3077 0.0
H770 H 0.38333 0.13432 0.36131 0.0
H771 H 0.30729 0.05291 0.33105 0.0
H772 H 0.50205 0.11826 0.25608 0.0
H773 H 0.47533 0.17345 0.30145 0.0
H774 H 0.45443 0.13525 0.25357 0.0
H775 H 0.52288 0.15617 0.30305 0.0
H776 H 0.44838 0.06563 0.32216 0.0
H777 H 0.41796 0.02938 0.27421 0.0
H778 H 0.47838 0.29807 0.3267 0.0
H779 H 0.55173 0.29257 0.29317 0.0
H780 H 0.32579 0.15364 0.26635 0.0
H781 H 0.30142 0.04406 0.2747 0.0
H782 H 0.26779 0.12979 0.25195 0.0
H783 H 0.24342 0.02205 0.26026 0.0
H784 H 0.37124 0.24356 0.29389 0.0
H785 H 0.44061 0.23138 0.2606 0.0
H786 H 0.40627 0.31003 0.28964 0.0
H787 H 0.47426 0.2981 0.25683 0.0
H788 H 0.32156 0.2171 0.32953 0.0
H789 H 0.23068 0.12794 0.30604 0.0
H790 H 0.39072 0.1153 0.21412 0.0
H791 H 0.36737 0.20286 0.21776 0.0
Li792 Li 0.23625 0.43205 0.62375 0.0
Li793 Li 0.27405 0.40139 0.62454 0.0
Li794 Li 0.23195 0.39273 0.60155 0.0
Li795 Li 0.2082 0.36742 0.62684 0.0
C796 C 0.2981 0.47327 0.60541 0.0
N797 N 0.34436 0.54536 0.59814 0.0
C798 C 0.33153 0.49275 0.61305 0.0
C799 C 0.28838 0.49044 0.59397 0.0
C800 C 0.35449 0.52916 0.60924 0.0
C801 C 0.31207 0.52691 0.5905 0.0
C802 C 0.22952 0.38992 0.65526 0.0
C803 C 0.22135 0.34779 0.67596 0.0
N804 N 0.1968 0.35483 0.68294 0.0
C805 C 0.20437 0.3969 0.66267 0.0
C806 C 0.23821 0.36527 0.66195 0.0
C807 C 0.18806 0.37881 0.67665 0.0
C808 C 0.20038 0.46909 0.63284 0.0
N809 N 0.23386 0.47329 0.63057 0.0
C810 C 0.26192 0.5339 0.64037 0.0
C811 C 0.26436 0.50476 0.63434 0.0
C812 C 0.22768 0.53035 0.64295 0.0
C813 C 0.19663 0.49739 0.63901 0.0
H814 H 0.17652 0.44336 0.63024 0.0
H815 H 0.29059 0.50705 0.63304 0.0
C816 C 0.34264 0.41368 0.61675 0.0
N817 N 0.32159 0.41099 0.62927 0.0
C818 C 0.37994 0.42832 0.61863 0.0
C819 C 0.37295 0.4353 0.64644 0.0
C820 C 0.33575 0.4209 0.64398 0.0
C821 C 0.39565 0.44011 0.63356 0.0
H822 H 0.33069 0.4063 0.60514 0.0
H823 H 0.31853 0.41942 0.65365 0.0
C824 C 0.17105 0.39766 0.60231 0.0
N825 N 0.1273 0.40393 0.58 0.0
C826 C 0.13833 0.36728 0.59789 0.0
C827 C 0.1813 0.43128 0.59551 0.0
C828 C 0.11664 0.37098 0.58656 0.0
C829 C 0.15888 0.43389 0.58423 0.0
C830 C 0.22793 0.32059 0.61581 0.0
C831 C 0.1964 0.2938 0.60856 0.0
C832 C 0.24775 0.31071 0.6257 0.0
C833 C 0.18496 0.25737 0.61148 0.0
C834 C 0.23545 0.27398 0.62829 0.0
N835 N 0.20456 0.2483 0.6212 0.0
C836 C 0.25396 0.41016 0.56983 0.0
C837 C 0.1956 0.35881 0.57323 0.0
C838 C 0.2499 0.40754 0.55349 0.0
N839 N 0.22667 0.38649 0.57932 0.0
C840 C 0.19029 0.35523 0.55697 0.0
C841 C 0.21747 0.38012 0.54685 0.0
H842 H 0.27887 0.43122 0.57493 0.0
H843 H 0.17467 0.33979 0.58101 0.0
C844 C 0.13822 0.33629 0.63766 0.0
N845 N 0.16586 0.32906 0.63718 0.0
C846 C 0.10502 0.31173 0.64431 0.0
C847 C 0.12931 0.27287 0.65074 0.0
C848 C 0.16229 0.29836 0.64385 0.0
C849 C 0.09995 0.27924 0.65078 0.0
H850 H 0.14198 0.36149 0.63299 0.0
H851 H 0.18491 0.29362 0.64395 0.0
O852 O 0.27532 0.43749 0.60893 0.0
O853 O 0.24488 0.40644 0.64132 0.0
O854 O 0.19278 0.39442 0.61329 0.0
O855 O 0.23986 0.35636 0.61296 0.0
H856 H 0.33953 0.48011 0.622 0.0
H857 H 0.26296 0.47573 0.58773 0.0
H858 H 0.38034 0.54458 0.61513 0.0
H859 H 0.30484 0.54051 0.58168 0.0
H860 H 0.22764 0.32848 0.68123 0.0
H861 H 0.19723 0.41577 0.65757 0.0
H862 H 0.25741 0.35936 0.65627 0.0
H863 H 0.16836 0.38376 0.68247 0.0
H864 H 0.28663 0.55883 0.64311 0.0
H865 H 0.16968 0.49306 0.6411 0.0
H866 H 0.39649 0.43131 0.60844 0.0
H867 H 0.38409 0.44438 0.6581 0.0
H868 H 0.12997 0.34101 0.60303 0.0
H869 H 0.2062 0.45516 0.59897 0.0
H870 H 0.09138 0.34765 0.58295 0.0
H871 H 0.16655 0.45976 0.57885 0.0
H872 H 0.1808 0.30106 0.60087 0.0
H873 H 0.27235 0.33119 0.63131 0.0
H874 H 0.1605 0.2363 0.60603 0.0
H875 H 0.25044 0.26589 0.63595 0.0
H876 H 0.27193 0.42678 0.54615 0.0
H877 H 0.16481 0.33375 0.5524 0.0
H878 H 0.08363 0.31843 0.64457 0.0
H879 H 0.12669 0.24836 0.65581 0.0
Li880 Li 0.86895 0.26876 0.96016 0.0
Li881 Li 0.8028 0.23483 0.96198 0.0
Li882 Li 0.83675 0.20306 0.96248 0.0
Li883 Li 0.83306 0.2298 0.93801 0.0
C884 C 0.859 0.24024 0.99065 0.0
N885 N 0.90042 0.24252 0.01612 0.0
C886 C 0.84592 0.23775 0.00595 0.0
C887 C 0.89311 0.2438 0.98829 0.0
C888 C 0.86729 0.239 0.01868 0.0
C889 C 0.91364 0.24491 0.00132 0.0
C890 C 0.8298 0.3016 0.94286 0.0
C891 C 0.81188 0.33305 0.92455 0.0
N892 N 0.82405 0.36136 0.93476 0.0
C893 C 0.84222 0.33107 0.95313 0.0
C894 C 0.81463 0.30265 0.92841 0.0
C895 C 0.83904 0.36099 0.94884 0.0
C896 C 0.92656 0.33554 0.95137 0.0
N897 N 0.90898 0.31583 0.96432 0.0
C898 C 0.93935 0.36844 0.98065 0.0
C899 C 0.91523 0.33133 0.97884 0.0
C900 C 0.95647 0.38979 0.96735 0.0
C901 C 0.95048 0.37278 0.95261 0.0
H902 H 0.92033 0.32265 0.93993 0.0
H903 H 0.89994 0.31551 0.98887 0.0
C904 C 0.7303 0.20419 0.97269 0.0
N905 N 0.76224 0.23574 0.97093 0.0
C906 C 0.70088 0.20405 0.97997 0.0
C907 C 0.7381 0.26861 0.98409 0.0
C908 C 0.7667 0.26754 0.9766 0.0
C909 C 0.70466 0.23655 0.98584 0.0
H910 H 0.72779 0.17894 0.96876 0.0
H911 H 0.79269 0.29194 0.97567 0.0
C912 C 0.88737 0.21234 0.93952 0.0
N913 N 0.90686 0.16934 0.92261 0.0
C914 C 0.86095 0.1776 0.93475 0.0
C915 C 0.92369 0.22519 0.93569 0.0
C916 C 0.87135 0.15629 0.92621 0.0
C917 C 0.93301 0.20304 0.92714 0.0
C918 C 0.76075 0.17603 0.94171 0.0
C919 C 0.73958 0.13854 0.93967 0.0
C920 C 0.74952 0.19879 0.93506 0.0
C921 C 0.70751 0.12444 0.93098 0.0
C922 C 0.71728 0.18365 0.92645 0.0
N923 N 0.69712 0.1471 0.9246 0.0
C924 C 0.79933 0.13451 0.9745 0.0
C925 C 0.86245 0.15554 0.97419 0.0
C926 C 0.79204 0.1009 0.98018 0.0
N927 N 0.83393 0.16078 0.97143 0.0
C928 C 0.85638 0.12223 0.98012 0.0
C929 C 0.82067 0.09429 0.98293 0.0
H930 H 0.77726 0.13961 0.97238 0.0
H931 H 0.88974 0.17692 0.97161 0.0
C932 C 0.85378 0.25714 0.90736 0.0
N933 N 0.83159 0.22663 0.91561 0.0
C934 C 0.85338 0.25667 0.89091 0.0
C935 C 0.80766 0.19324 0.89179 0.0
C936 C 0.80931 0.19485 0.90819 0.0
C937 C 0.82978 0.22446 0.88287 0.0
H938 H 0.87168 0.28192 0.91359 0.0
H939 H 0.79265 0.17065 0.91494 0.0
O940 O 0.83814 0.23865 0.97811 0.0
O941 O 0.83355 0.27239 0.94663 0.0
O942 O 0.87801 0.23387 0.94788 0.0
O943 O 0.7924 0.19014 0.95007 0.0
H944 H 0.81951 0.23487 0.00796 0.0
H945 H 0.90371 0.24575 0.97655 0.0
H946 H 0.85753 0.23713 0.03059 0.0
H947 H 0.94008 0.24768 0.99967 0.0
H948 H 0.80014 0.33417 0.91342 0.0
H949 H 0.85395 0.33079 0.96438 0.0
H950 H 0.8051 0.28027 0.92023 0.0
H951 H 0.8485 0.38393 0.95671 0.0
H952 H 0.94289 0.38065 0.99217 0.0
H953 H 0.96331 0.3883 0.94209 0.0
H954 H 0.67578 0.17861 0.98141 0.0
H955 H 0.74212 0.29421 0.9885 0.0
H956 H 0.83272 0.16708 0.93762 0.0
H957 H 0.94445 0.25203 0.93931 0.0
H958 H 0.85119 0.12936 0.92245 0.0
H959 H 0.96102 0.21265 0.92409 0.0
H960 H 0.74797 0.12054 0.94468 0.0
H961 H 0.76534 0.22776 0.93662 0.0
H962 H 0.69091 0.09549 0.92928 0.0
H963 H 0.70826 0.20097 0.92126 0.0
H964 H 0.7642 0.08026 0.98246 0.0
H965 H 0.87913 0.11806 0.98214 0.0
H966 H 0.8715 0.28125 0.8846 0.0
H967 H 0.78873 0.16786 0.88622 0.0
Li968 Li 0.57522 0.80521 0.28508 0.0
Li969 Li 0.59975 0.87046 0.28327 0.0
Li970 Li 0.61243 0.83749 0.26289 0.0
Li971 Li 0.64027 0.84732 0.28895 0.0
C972 C 0.55117 0.83245 0.25471 0.0
N973 N 0.52661 0.83474 0.22487 0.0
C974 C 0.55592 0.86506 0.24869 0.0
C975 C 0.53382 0.80097 0.24559 0.0
C976 C 0.54329 0.86565 0.23357 0.0
C977 C 0.52167 0.80271 0.23051 0.0
C978 C 0.59029 0.85608 0.31399 0.0
C979 C 0.60619 0.9026 0.33357 0.0
N980 N 0.57092 0.88629 0.33819 0.0
C981 C 0.55425 0.83959 0.31901 0.0
C982 C 0.61655 0.88768 0.32139 0.0
C983 C 0.54498 0.85536 0.33123 0.0
C984 C 0.53859 0.74732 0.30621 0.0
N985 N 0.53454 0.76287 0.29298 0.0
C986 C 0.47062 0.72229 0.29304 0.0
C987 C 0.50153 0.75093 0.28628 0.0
C988 C 0.47382 0.70601 0.30687 0.0
C989 C 0.50843 0.71852 0.31334 0.0
H990 H 0.56513 0.75805 0.31146 0.0
H991 H 0.49906 0.76433 0.27595 0.0
C992 C 0.60732 0.94169 0.28531 0.0
N993 N 0.5853 0.90532 0.287 0.0
C994 C 0.59303 0.96486 0.2867 0.0
C995 C 0.53416 0.91268 0.29187 0.0
C996 C 0.54942 0.89063 0.29021 0.0
C997 C 0.55589 0.95027 0.28992 0.0
H998 H 0.63564 0.95258 0.28246 0.0
H999 H 0.5324 0.86152 0.29103 0.0
C1000 C 0.60555 0.76651 0.27915 0.0
N1001 N 0.58092 0.69444 0.28592 0.0
C1002 C 0.62253 0.7571 0.2908 0.0
C1003 C 0.57621 0.73924 0.27086 0.0
C1004 C 0.60965 0.72052 0.29406 0.0
C1005 C 0.56409 0.70297 0.27449 0.0
C1006 C 0.68252 0.90949 0.27344 0.0
C1007 C 0.70545 0.91033 0.26148 0.0
C1008 C 0.69681 0.93392 0.28596 0.0
C1009 C 0.74251 0.93541 0.26237 0.0
C1010 C 0.73402 0.95855 0.28643 0.0
N1011 N 0.75592 0.95876 0.27473 0.0
C1012 C 0.62907 0.86463 0.23179 0.0
C1013 C 0.61401 0.80332 0.23465 0.0
C1014 C 0.6325 0.86275 0.21551 0.0
N1015 N 0.61965 0.83505 0.24093 0.0
C1016 C 0.61691 0.80015 0.21845 0.0
C1017 C 0.62601 0.83004 0.20865 0.0
H1018 H 0.63335 0.88951 0.23713 0.0
H1019 H 0.60689 0.78036 0.2422 0.0
C1020 C 0.67664 0.84394 0.31586 0.0
N1021 N 0.68093 0.85184 0.30023 0.0
C1022 C 0.70129 0.83716 0.32385 0.0
C1023 C 0.73587 0.84961 0.29982 0.0
C1024 C 0.71013 0.85538 0.29222 0.0
C1025 C 0.73081 0.83871 0.31569 0.0
H1026 H 0.65256 0.8401 0.32183 0.0
H1027 H 0.71225 0.86028 0.27969 0.0
O1028 O 0.56431 0.83151 0.26929 0.0
O1029 O 0.59983 0.8414 0.30188 0.0
O1030 O 0.6174 0.80221 0.27594 0.0
O1031 O 0.6462 0.88512 0.2728 0.0
H1032 H 0.56963 0.88977 0.2555 0.0
H1033 H 0.53024 0.77558 0.25 0.0
H1034 H 0.54692 0.89073 0.22873 0.0
H1035 H 0.50844 0.77862 0.22328 0.0
H1036 H 0.6262 0.92715 0.33936 0.0
H1037 H 0.53357 0.81512 0.31341 0.0
H1038 H 0.64461 0.90053 0.31775 0.0
H1039 H 0.51715 0.84304 0.33517 0.0
H1040 H 0.44446 0.71328 0.28763 0.0
H1041 H 0.51201 0.7071 0.32412 0.0
H1042 H 0.61065 0.99375 0.28509 0.0
H1043 H 0.50531 0.90024 0.29402 0.0
H1044 H 0.64534 0.77772 0.29729 0.0
H1045 H 0.56246 0.74598 0.26194 0.0
H1046 H 0.62248 0.71286 0.30307 0.0
H1047 H 0.54122 0.68162 0.26827 0.0
H1048 H 0.69481 0.89159 0.2517 0.0
H1049 H 0.67936 0.93381 0.29523 0.0
H1050 H 0.76063 0.93624 0.25324 0.0
H1051 H 0.74549 0.97752 0.29609 0.0
H1052 H 0.63931 0.88632 0.20834 0.0
H1053 H 0.61219 0.77461 0.21364 0.0
H1054 H 0.69567 0.82825 0.33597 0.0
H1055 H 0.75844 0.85184 0.29307 0.0
H1056 H 0.18662 0.95433 0.97455 0.0
H1057 H 0.15043 0.90705 0.0206 0.0
H1058 H 0.18026 0.96746 0.03239 0.0
H1059 H 0.22164 0.03322 0.02984 0.0
H1060 H 0.25674 0.08006 0.98365 0.0
H1061 H 0.22177 0.02021 0.9717 0.0
C1062 C 0.18429 0.95712 0.98712 0.0
C1063 C 0.16641 0.92601 0.99666 0.0
C1064 C 0.20164 0.9919 0.99383 0.0
C1065 C 0.16443 0.93042 0.01298 0.0
C1066 C 0.18143 0.96499 0.01974 0.0
C1067 C 0.22093 0.03049 0.01713 0.0
C1068 C 0.24216 0.06111 0.00768 0.0
C1069 C 0.20088 0.99589 0.01031 0.0
C1070 C 0.2412 0.0569 0.99123 0.0
C1071 C 0.22113 0.02268 0.98438 0.0
H1072 H 0.16318 0.21865 0.34741 0.0
H1073 H 0.24748 0.32319 0.33103 0.0
H1074 H 0.28082 0.29581 0.32028 0.0
H1075 H 0.28772 0.24327 0.31622 0.0
H1076 H 0.20563 0.13815 0.33263 0.0
H1077 H 0.16965 0.16451 0.34256 0.0
C1078 C 0.18877 0.23531 0.34144 0.0
C1079 C 0.20245 0.27289 0.33987 0.0
C1080 C 0.20831 0.21936 0.33534 0.0
C1081 C 0.23572 0.29412 0.33209 0.0
C1082 C 0.25509 0.27856 0.32604 0.0
C1083 C 0.26203 0.22611 0.32207 0.0
C1084 C 0.2496 0.18899 0.32394 0.0
C1085 C 0.24183 0.24138 0.32771 0.0
C1086 C 0.2158 0.16688 0.33112 0.0
C1087 C 0.19534 0.18198 0.33683 0.0
H1088 H 0.96194 0.18412 0.69268 0.0
H1089 H 0.91066 0.20421 0.65311 0.0
H1090 H 0.96776 0.23258 0.63888 0.0
H1091 H 0.03341 0.25776 0.63865 0.0
H1092 H 0.08636 0.24222 0.67869 0.0
H1093 H 0.0276 0.206 0.69168 0.0
C1094 C 0.96318 0.19457 0.68092 0.0
C1095 C 0.9318 0.19206 0.67409 0.0
C1096 C 0.99656 0.21202 0.67291 0.0
C1097 C 0.93397 0.20514 0.65868 0.0
C1098 C 0.96683 0.22183 0.65055 0.0
C1099 C 0.03209 0.24632 0.6502 0.0
C1100 C 0.06426 0.25313 0.65779 0.0
C1101 C 0.99843 0.22632 0.65771 0.0
C1102 C 0.06202 0.23737 0.67258 0.0
C1103 C 0.02844 0.21688 0.68006 0.0
H1104 H 0.78574 0.95266 0.02033 0.0
H1105 H 0.70708 0.90503 0.9829 0.0
H1106 H 0.73255 0.9636 0.96996 0.0
H1107 H 0.77255 0.02935 0.97063 0.0
H1108 H 0.8503 0.07838 0.00813 0.0
H1109 H 0.82999 0.01842 0.01965 0.0
C1110 C 0.77441 0.95507 0.00927 0.0
C1111 C 0.74441 0.92435 0.00267 0.0
C1112 C 0.78881 0.98918 0.00197 0.0
C1113 C 0.73042 0.92793 0.9882 0.0
C1114 C 0.74473 0.96157 0.98084 0.0
C1115 C 0.78525 0.02681 0.98125 0.0
C1116 C 0.8125 0.05812 0.98866 0.0
C1117 C 0.77322 0.99248 0.98782 0.0
C1118 C 0.82926 0.05457 0.00224 0.0
C1119 C 0.81749 0.02035 0.00886 0.0
H1120 H 0.75925 0.80097 0.30157 0.0
H1121 H 0.75231 0.84398 0.34666 0.0
H1122 H 0.78034 0.81265 0.3593 0.0
H1123 H 0.80154 0.76855 0.35782 0.0
H1124 H 0.81169 0.72902 0.31238 0.0
H1125 H 0.78823 0.76423 0.29962 0.0
C1126 C 0.76476 0.80458 0.31409 0.0
C1127 C 0.75316 0.82466 0.32311 0.0
C1128 C 0.7812 0.7868 0.32128 0.0
C1129 C 0.76011 0.82812 0.33941 0.0
C1130 C 0.77633 0.81032 0.34666 0.0
C1131 C 0.7995 0.76827 0.3451 0.0
C1132 C 0.80778 0.7455 0.33614 0.0
C1133 C 0.78618 0.78886 0.33776 0.0
C1134 C 0.80464 0.74545 0.31964 0.0
C1135 C 0.79137 0.76575 0.3123 0.0
H1136 H 0.93339 0.76009 0.67261 0.0
H1137 H 0.96852 0.74834 0.62637 0.0
H1138 H 0.03117 0.77974 0.63511 0.0
H1139 H 0.0758 0.80594 0.6563 0.0
H1140 H 0.0408 0.81332 0.70314 0.0
H1141 H 0.97875 0.78872 0.6937 0.0
C1142 C 0.95472 0.76442 0.66442 0.0
C1143 C 0.94589 0.75177 0.64881 0.0
C1144 C 0.99093 0.7817 0.66964 0.0
C1145 C 0.97418 0.75825 0.63836 0.0
C1146 C 0.01019 0.77593 0.64339 0.0
C1147 C 0.05464 0.80221 0.66447 0.0
C1148 C 0.0631 0.81127 0.68044 0.0
C1149 C 0.0188 0.78708 0.65907 0.0
C1150 C 0.03534 0.80699 0.69075 0.0
C1151 C 0.99968 0.79255 0.68539 0.0
H1152 H 0.63405 0.20337 0.97686 0.0
H1153 H 0.70712 0.27014 0.0135 0.0
H1154 H 0.65691 0.27 0.02746 0.0
H1155 H 0.59229 0.25029 0.02941 0.0
H1156 H 0.5195 0.18542 0.99224 0.0
H1157 H 0.56941 0.18456 0.97858 0.0
C1158 C 0.63889 0.21771 0.98795 0.0
C1159 C 0.67419 0.23675 0.99414 0.0
C1160 C 0.60994 0.21759 0.99588 0.0
C1161 C 0.68022 0.25562 0.00841 0.0
C1162 C 0.65151 0.25538 0.01644 0.0
C1163 C 0.58734 0.23628 0.01824 0.0
C1164 C 0.55208 0.21789 0.01191 0.0
C1165 C 0.61628 0.23648 0.01027 0.0
C1166 C 0.54617 0.1993 0.99755 0.0
C1167 C 0.57478 0.19903 0.98965 0.0
H1168 H 0.32543 0.6008 0.3404 0.0
H1169 H 0.3798 0.5396 0.34801 0.0
H1170 H 0.43339 0.58605 0.33437 0.0
H1171 H 0.46454 0.64363 0.31991 0.0
H1172 H 0.40977 0.70428 0.31199 0.0
H1173 H 0.35622 0.6579 0.3257 0.0
C1174 C 0.34885 0.59742 0.33895 0.0
C1175 C 0.34856 0.56677 0.34527 0.0
C1176 C 0.37941 0.62398 0.33091 0.0
C1177 C 0.37944 0.56318 0.34349 0.0
C1178 C 0.41003 0.58959 0.33558 0.0
C1179 C 0.44094 0.64675 0.32126 0.0
C1180 C 0.4411 0.67729 0.3149 0.0
C1181 C 0.41031 0.62009 0.32923 0.0
C1182 C 0.41015 0.68077 0.31657 0.0
C1183 C 0.37961 0.65439 0.32451 0.0
H1184 H 0.77092 0.3242 0.66046 0.0
H1185 H 0.79664 0.37779 0.70566 0.0
H1186 H 0.79917 0.43106 0.69376 0.0
H1187 H 0.79289 0.46191 0.67069 0.0
H1188 H 0.77099 0.40995 0.62519 0.0
H1189 H 0.76835 0.35658 0.63709 0.0
C1190 C 0.77765 0.3477 0.6677 0.0
C1191 C 0.78337 0.34677 0.68398 0.0
C1192 C 0.77963 0.37851 0.66074 0.0
C1193 C 0.79141 0.37737 0.69317 0.0
C1194 C 0.79313 0.40799 0.68635 0.0
C1195 C 0.78816 0.43922 0.6633 0.0
C1196 C 0.78204 0.44002 0.64706 0.0
C1197 C 0.78713 0.40879 0.67017 0.0
C1198 C 0.77522 0.40993 0.63776 0.0
C1199 C 0.77391 0.37944 0.64454 0.0
H1200 H 0.3319 0.73934 0.9764 0.0
H1201 H 0.34808 0.82912 0.00558 0.0
H1202 H 0.40104 0.83103 0.01767 0.0
H1203 H 0.44158 0.80595 0.02052 0.0
H1204 H 0.4254 0.71628 0.99123 0.0
H1205 H 0.37309 0.71505 0.97888 0.0
C1206 C 0.34689 0.75918 0.98548 0.0
C1207 C 0.33602 0.78398 0.99011 0.0
C1208 C 0.37713 0.75997 0.99244 0.0
C1209 C 0.35611 0.80995 0.00169 0.0
C1210 C 0.38625 0.81092 0.00867 0.0
C1211 C 0.42684 0.78639 0.01131 0.0
C1212 C 0.43731 0.76115 0.00687 0.0
C1213 C 0.39692 0.78597 0.00419 0.0
C1214 C 0.41759 0.73565 0.99507 0.0
C1215 C 0.3878 0.73506 0.98792 0.0
H1216 H 0.5824 0.30929 0.32197 0.0
H1217 H 0.52234 0.36473 0.31466 0.0
H1218 H 0.57203 0.42014 0.32616 0.0
H1219 H 0.63237 0.45243 0.3386 0.0
H1220 H 0.69071 0.39567 0.34722 0.0
H1221 H 0.64192 0.34102 0.33494 0.0
C1222 C 0.58044 0.33365 0.32282 0.0
C1223 C 0.54912 0.33326 0.31742 0.0
C1224 C 0.60867 0.36498 0.32973 0.0
C1225 C 0.54636 0.36462 0.31878 0.0
C1226 C 0.57469 0.3962 0.32532 0.0
C1227 C 0.63432 0.42807 0.3377 0.0
C1228 C 0.66494 0.4279 0.34372 0.0
C1229 C 0.60593 0.39666 0.33088 0.0
C1230 C 0.66718 0.39619 0.34272 0.0
C1231 C 0.63941 0.36506 0.33567 0.0
H1232 H 0.26901 0.57579 0.66642 0.0
H1233 H 0.17865 0.55216 0.63597 0.0
H1234 H 0.17254 0.60053 0.64834 0.0
H1235 H 0.19373 0.65052 0.66747 0.0
H1236 H 0.28597 0.67587 0.69686 0.0
H1237 H 0.29095 0.62626 0.685 0.0
C1238 C 0.24829 0.58149 0.66229 0.0
C1239 C 0.22438 0.5603 0.65024 0.0
C1240 C 0.24531 0.60972 0.66926 0.0
C1241 C 0.19716 0.56766 0.64535 0.0
C1242 C 0.19376 0.59548 0.65236 0.0
C1243 C 0.21472 0.64492 0.67132 0.0
C1244 C 0.23941 0.66665 0.68301 0.0
C1245 C 0.21769 0.61669 0.66431 0.0
C1246 C 0.26681 0.65956 0.6878 0.0
C1247 C 0.26961 0.6312 0.68106 0.0
H1248 H 0.35845 0.1402 0.13966 0.0
H1249 H 0.4149 0.25702 0.142 0.0
H1250 H 0.41789 0.25452 0.17062 0.0
H1251 H 0.40547 0.21935 0.19492 0.0
H1252 H 0.34833 0.10249 0.19279 0.0
H1253 H 0.34549 0.10487 0.16412 0.0
C1254 C 0.3716 0.1651 0.14643 0.0
C1255 C 0.38632 0.19873 0.13869 0.0
C1256 C 0.37334 0.16349 0.16291 0.0
C1257 C 0.40288 0.23075 0.14767 0.0
C1258 C 0.40482 0.22937 0.16403 0.0
C1259 C 0.39201 0.19436 0.18822 0.0
C1260 C 0.37712 0.1608 0.19604 0.0
C1261 C 0.39013 0.1959 0.17177 0.0
C1262 C 0.36043 0.12872 0.18709 0.0
C1263 C 0.35858 0.13004 0.1707 0.0
H1264 H 0.17838 0.34662 0.47467 0.0
H1265 H 0.23207 0.46344 0.47307 0.0
H1266 H 0.24289 0.46645 0.50134 0.0
H1267 H 0.23659 0.43611 0.52656 0.0
H1268 H 0.185 0.31947 0.52822 0.0
H1269 H 0.17394 0.31625 0.49989 0.0
C1270 C 0.19278 0.37275 0.48047 0.0
C1271 C 0.20417 0.40473 0.47173 0.0
C1272 C 0.19923 0.37435 0.49676 0.0
C1273 C 0.22239 0.43835 0.47952 0.0
C1274 C 0.22883 0.44013 0.49569 0.0
C1275 C 0.22338 0.40998 0.52071 0.0
C1276 C 0.2117 0.3781 0.52954 0.0
C1277 C 0.2173 0.40833 0.50442 0.0
C1278 C 0.19392 0.34444 0.52177 0.0
C1279 C 0.18774 0.34257 0.50555 0.0
H1280 H 0.81912 0.16907 0.86329 0.0
H1281 H 0.83548 0.27764 0.86289 0.0
H1282 H 0.83046 0.27553 0.83429 0.0
H1283 H 0.81876 0.24198 0.80941 0.0
H1284 H 0.79812 0.13209 0.80999 0.0
H1285 H 0.80652 0.13526 0.83857 0.0
C1286 C 0.8212 0.19218 0.85702 0.0
C1287 C 0.82769 0.22346 0.86535 0.0
C1288 C 0.81723 0.19046 0.84058 0.0
C1289 C 0.83111 0.25339 0.85686 0.0
C1290 C 0.82791 0.25212 0.84048 0.0
C1291 C 0.81642 0.21888 0.81582 0.0
C1292 C 0.80794 0.18689 0.80767 0.0
C1293 C 0.82072 0.22073 0.83224 0.0
C1294 C 0.80442 0.15691 0.81607 0.0
C1295 C 0.80932 0.15877 0.83237 0.0
H1296 H 0.65666 0.83776 0.13558 0.0
H1297 H 0.55567 0.73604 0.13703 0.0
H1298 H 0.55288 0.74134 0.16549 0.0
H1299 H 0.57836 0.77525 0.18994 0.0
H1300 H 0.67823 0.87778 0.18855 0.0
H1301 H 0.68167 0.87223 0.16003 0.0
C1302 C 0.63384 0.8169 0.14208 0.0
C1303 C 0.60653 0.78645 0.13412 0.0
C1304 C 0.63206 0.82036 0.15845 0.0
C1305 C 0.57745 0.75945 0.14283 0.0
C1306 C 0.57565 0.76257 0.15912 0.0
C1307 C 0.60103 0.79623 0.1834 0.0
C1308 C 0.62807 0.82679 0.19134 0.0
C1309 C 0.60278 0.79289 0.16704 0.0
C1310 C 0.65694 0.8541 0.18269 0.0
C1311 C 0.659 0.85086 0.1664 0.0
H1312 H 0.79498 0.56984 0.52391 0.0
H1313 H 0.78313 0.6646 0.52342 0.0
H1314 H 0.78937 0.66802 0.49476 0.0
H1315 H 0.79992 0.64501 0.46993 0.0
H1316 H 0.81069 0.54951 0.4706 0.0
H1317 H 0.80407 0.54607 0.49914 0.0
C1318 C 0.79402 0.5914 0.51754 0.0
C1319 C 0.78879 0.61703 0.52578 0.0
C1320 C 0.79773 0.59326 0.50111 0.0
C1321 C 0.78687 0.64437 0.51733 0.0
C1322 C 0.79063 0.64646 0.50096 0.0
C1323 C 0.80045 0.62322 0.47629 0.0
C1324 C 0.80607 0.59773 0.46809 0.0
C1325 C 0.79621 0.62112 0.49273 0.0
C1326 C 0.80712 0.56993 0.47659 0.0
C1327 C 0.80306 0.56775 0.49292 0.0
H1328 H 0.1392 0.78248 0.85984 0.0
H1329 H 0.25128 0.81571 0.86901 0.0
H1330 H 0.2641 0.82288 0.84088 0.0
H1331 H 0.24374 0.81985 0.8137 0.0
H1332 H 0.13108 0.78346 0.80428 0.0
H1333 H 0.11834 0.77746 0.83249 0.0
C1334 C 0.16635 0.79093 0.85569 0.0
C1335 C 0.19423 0.79873 0.86659 0.0
C1336 C 0.17351 0.79454 0.83945 0.0
C1337 C 0.22939 0.81016 0.86096 0.0
C1338 C 0.23674 0.81403 0.84484 0.0
C1339 C 0.21627 0.81014 0.81777 0.0
C1340 C 0.18845 0.80212 0.80683 0.0
C1341 C 0.20902 0.80629 0.83399 0.0
C1342 C 0.15317 0.79032 0.81241 0.0
C1343 C 0.14579 0.78664 0.82855 0.0
H1344 H 0.48842 0.54833 0.03041 0.0
H1345 H 0.58751 0.55841 0.04885 0.0
H1346 H 0.55795 0.49268 0.05165 0.0
H1347 H 0.50394 0.43238 0.04903 0.0
H1348 H 0.4054 0.422 0.02992 0.0
H1349 H 0.4351 0.48787 0.02683 0.0
C1350 C 0.50381 0.5362 0.0348 0.0
C1351 C 0.54022 0.55846 0.03943 0.0
C1352 C 0.48675 0.49833 0.03624 0.0
C1353 C 0.55937 0.5421 0.04539 0.0
C1354 C 0.54254 0.50447 0.04693 0.0
C1355 C 0.48891 0.44459 0.04429 0.0
C1356 C 0.45243 0.4224 0.03984 0.0
C1357 C 0.50619 0.48236 0.0425 0.0
C1358 C 0.43352 0.4385 0.03339 0.0
C1359 C 0.45046 0.47614 0.03168 0.0
H1360 H 0.99586 0.56141 0.3909 0.0
H1361 H 0.94712 0.51738 0.34572 0.0
H1362 H 0.98031 0.48469 0.34421 0.0
H1363 H 0.02152 0.46657 0.35613 0.0
H1364 H 0.06733 0.50788 0.40193 0.0
H1365 H 0.03586 0.54248 0.40301 0.0
C1366 C 0.99213 0.54443 0.38077 0.0
C1367 C 0.96896 0.54214 0.36844 0.0
C1368 C 0.01041 0.5247 0.38017 0.0
C1369 C 0.96525 0.52044 0.35527 0.0
C1370 C 0.98393 0.50131 0.35446 0.0
C1371 C 0.02464 0.48323 0.36632 0.0
C1372 C 0.04656 0.4845 0.37896 0.0
C1373 C 0.00637 0.50301 0.36689 0.0
C1374 C 0.05015 0.50598 0.39215 0.0
C1375 C 0.0324 0.52601 0.39272 0.0
H1376 H 0.55972 0.01542 0.73059 0.0
H1377 H 0.5703 0.05469 0.68292 0.0
H1378 H 0.50448 0.02227 0.68013 0.0
H1379 H 0.44356 0.9846 0.69158 0.0
H1380 H 0.43362 0.9478 0.73961 0.0
H1381 H 0.49942 0.97855 0.74204 0.0
C1382 C 0.54776 0.01726 0.71961 0.0
C1383 C 0.57024 0.03763 0.70701 0.0
C1384 C 0.50985 0.99938 0.71821 0.0
C1385 C 0.55393 0.03882 0.69277 0.0
C1386 C 0.51618 0.02057 0.6912 0.0
C1387 C 0.45584 0.98327 0.70255 0.0
C1388 C 0.43362 0.96418 0.71543 0.0
C1389 C 0.49384 0.00102 0.70389 0.0
C1390 C 0.44999 0.96288 0.72961 0.0
C1391 C 0.48766 0.98019 0.73097 0.0
H1392 H 0.56212 0.50517 0.64912 0.0
H1393 H 0.57208 0.5705 0.60855 0.0
H1394 H 0.50622 0.54097 0.60656 0.0
H1395 H 0.44575 0.49476 0.61556 0.0
H1396 H 0.4352 0.42906 0.65601 0.0
H1397 H 0.50129 0.46036 0.65877 0.0
C1398 C 0.54985 0.51297 0.63986 0.0
C1399 C 0.5721 0.54003 0.62899 0.0
C1400 C 0.51186 0.49559 0.63867 0.0
C1401 C 0.55572 0.55016 0.6172 0.0
C1402 C 0.51802 0.53303 0.61595 0.0
C1403 C 0.45796 0.48715 0.62492 0.0
C1404 C 0.43568 0.45934 0.63545 0.0
C1405 C 0.49585 0.50539 0.62649 0.0
C1406 C 0.4518 0.45036 0.64775 0.0
C1407 C 0.48956 0.4682 0.64931 0.0
H1408 H 0.05949 0.55651 0.98165 0.0
H1409 H 0.00132 0.56558 0.94195 0.0
H1410 H 0.96556 0.49966 0.93997 0.0
H1411 H 0.95169 0.43939 0.94911 0.0
H1412 H 0.0095 0.42989 0.98879 0.0
H1413 H 0.04476 0.49601 0.99112 0.0
C1414 C 0.03904 0.54404 0.97254 0.0
C1415 C 0.03314 0.56601 0.96196 0.0
C1416 C 0.0187 0.50606 0.9714 0.0
C1417 C 0.00614 0.54939 0.95037 0.0
C1418 C 0.98587 0.51167 0.94915 0.0
C1419 C 0.97227 0.45184 0.95816 0.0
C1420 C 0.97831 0.42986 0.96865 0.0
C1421 C 0.99213 0.48976 0.95951 0.0
C1422 C 0.00441 0.44629 0.98058 0.0
C1423 C 0.02457 0.48405 0.9819 0.0
H1424 H 0.50734 0.94858 0.31118 0.0
H1425 H 0.56616 0.00348 0.26919 0.0
H1426 H 0.53391 0.03741 0.26811 0.0
H1427 H 0.48712 0.04959 0.27848 0.0
H1428 H 0.42901 0.9956 0.32069 0.0
H1429 H 0.46254 0.96283 0.32225 0.0
C1430 C 0.51313 0.96805 0.30182 0.0
C1431 C 0.539 0.97343 0.29025 0.0
C1432 C 0.49434 0.98728 0.30123 0.0
C1433 C 0.54664 0.99912 0.27832 0.0
C1434 C 0.52798 0.01827 0.27762 0.0
C1435 C 0.48171 0.03044 0.28795 0.0
C1436 C 0.45535 0.02449 0.29933 0.0
C1437 C 0.50144 0.0122 0.28888 0.0
C1438 C 0.44909 0.00036 0.31177 0.0
C1439 C 0.46824 0.9817 0.31265 0.0
loop_
_geom_bond_atom_site_label_1
_geom_bond_atom_site_label_2
_geom_bond_distance
_geom_bond_site_symmetry_2
_ccdc_geom_bond_type
Li0 N17 1.990 . S
Li0 O60 1.956 . S
Li0 O61 1.970 . S
Li0 O62 1.961 . S
Li1 N25 1.990 . S
Li1 O60 1.970 . S
Li1 O61 1.956 . S
Li1 O63 1.961 . S
Li2 N47 1.990 . S
Li2 O60 1.961 . S
Li2 O62 1.956 . S
Li2 O63 1.970 . S
Li3 N53 1.990 . S
Li3 O61 1.961 . S
Li3 O62 1.970 . S
Li3 O63 1.956 . S
C4 C6 1.348 . S
C4 C7 1.356 . S
C4 O60 1.325 . S
N5 C8 1.314 . S
N5 C9 1.279 . S
C6 C4 1.348 . S
C6 C8 1.353 . S
C6 H64 0.929 . S
C7 C4 1.356 . S
C7 C9 1.358 . S
C7 H65 0.930 . S
C8 N5 1.314 . S
C8 C6 1.353 . S
C8 H66 0.930 . S
C9 N5 1.279 . S
C9 C7 1.358 . S
C9 H67 0.930 . S
C10 C13 1.348 . S
C10 C14 1.356 . S
C10 O61 1.325 . S
C11 N12 1.279 . S
C11 C14 1.358 . S
C11 H68 0.930 . S
N12 C11 1.279 . S
N12 C15 1.314 . S
C13 C10 1.348 . S
C13 C15 1.353 . S
C13 H69 0.929 . S
C14 C10 1.356 . S
C14 C11 1.358 . S
C14 H70 0.930 . S
C15 N12 1.314 . S
C15 C13 1.353 . S
C15 H71 0.930 . S
C16 N17 1.314 . S
C16 C21 1.353 . S
C16 H22 0.930 . S
N17 Li0 1.990 . S
N17 C16 1.314 . S
N17 C19 1.279 . S
C18 C19 1.358 . S
C18 C20 1.356 . S
C18 H72 0.930 . S
C19 N17 1.279 . S
C19 C18 1.358 . S
C19 H23 0.930 . S
C20 C18 1.356 . S
C20 C21 1.348 . S
C21 C16 1.353 . S
C21 C20 1.348 . S
C21 H73 0.929 . S
H22 C16 0.930 . S
H23 C19 0.930 . S
C24 N25 1.314 . S
C24 C26 1.353 . S
C24 H30 0.930 . S
N25 Li1 1.990 . S
N25 C24 1.314 . S
N25 C28 1.279 . S
C26 C24 1.353 . S
C26 C29 1.348 . S
C26 H74 0.929 1_554 S
C27 C28 1.358 . S
C27 C29 1.356 . S
C27 H75 0.930 . S
C28 N25 1.279 . S
C28 C27 1.358 . S
C28 H31 0.930 . S
C29 C26 1.348 . S
C29 C27 1.356 . S
H30 C24 0.930 . S
H31 C28 0.930 . S
C32 C34 1.348 . S
C32 C35 1.356 . S
C32 O62 1.325 . S
N33 C36 1.314 . S
N33 C37 1.279 . S
C34 C32 1.348 . S
C34 C36 1.353 . S
C34 H76 0.929 . S
C35 C32 1.356 . S
C35 C37 1.358 . S
C35 H77 0.930 . S
C36 N33 1.314 . S
C36 C34 1.353 . S
C36 H78 0.930 . S
C37 N33 1.279 . S
C37 C35 1.358 . S
C37 H79 0.930 . S
C38 C39 1.341 1_554 S
C38 C40 1.325 1_554 S
C38 O63 1.325 . S
C39 C38 1.341 1_556 S
C39 C41 1.365 . S
C39 H80 0.924 1_556 S
C40 C38 1.325 1_556 S
C40 C42 1.417 . S
C40 H81 0.905 1_556 S
C41 C39 1.365 . S
C41 N43 1.314 . S
C41 H82 0.930 . S
C42 C40 1.417 . S
C42 N43 1.279 . S
C42 H83 0.930 . S
N43 C41 1.314 . S
N43 C42 1.279 . S
C44 C46 1.353 . S
C44 N47 1.314 . S
C44 H50 0.930 . S
C45 N47 1.279 . S
C45 C48 1.358 . S
C45 H51 0.930 . S
C46 C44 1.353 . S
C46 C49 1.348 . S
C46 H84 0.929 . S
N47 Li2 1.990 . S
N47 C44 1.314 . S
N47 C45 1.279 . S
C48 C45 1.358 . S
C48 C49 1.356 . S
C48 H85 0.930 . S
C49 C46 1.348 . S
C49 C48 1.356 . S
H50 C44 0.930 . S
H51 C45 0.930 . S
C52 N53 1.314 . S
C52 C54 1.353 . S
C52 H58 0.930 . S
N53 Li3 1.990 . S
N53 C52 1.314 . S
N53 C56 1.279 . S
C54 C52 1.353 . S
C54 C57 1.348 . S
C54 H86 0.929 . S
C55 C56 1.358 . S
C55 C57 1.356 . S
C55 H87 0.930 . S
C56 N53 1.279 . S
C56 C55 1.358 . S
C56 H59 0.930 . S
C57 C54 1.348 . S
C57 C55 1.356 . S
H58 C52 0.930 . S
H59 C56 0.930 . S
O60 Li0 1.956 . S
O60 Li1 1.970 . S
O60 Li2 1.961 . S
O60 C4 1.325 . S
O61 Li0 1.970 . S
O61 Li1 1.956 . S
O61 Li3 1.961 . S
O61 C10 1.325 . S
O62 Li0 1.961 . S
O62 Li2 1.956 . S
O62 Li3 1.970 . S
O62 C32 1.325 . S
O63 Li1 1.961 . S
O63 Li2 1.970 . S
O63 Li3 1.956 . S
O63 C38 1.325 . S
H64 C6 0.929 . S
H65 C7 0.930 . S
H66 C8 0.930 . S
H67 C9 0.930 . S
H68 C11 0.930 . S
H69 C13 0.929 . S
H70 C14 0.930 . S
H71 C15 0.930 . S
H72 C18 0.930 . S
H73 C21 0.929 . S
H74 C26 0.929 1_556 S
H75 C27 0.930 . S
H76 C34 0.929 . S
H77 C35 0.930 . S
H78 C36 0.930 . S
H79 C37 0.930 . S
H80 C39 0.924 1_554 S
H81 C40 0.905 1_554 S
H82 C41 0.930 . S
H83 C42 0.930 . S
H84 C46 0.929 . S
H85 C48 0.930 . S
H86 C54 0.929 . S
H87 C55 0.930 . S
Li88 N105 1.990 . S
Li88 O148 1.956 . S
Li88 O149 1.970 . S
Li88 O150 1.961 . S
Li89 N113 1.990 . S
Li89 O148 1.970 . S
Li89 O149 1.956 . S
Li89 O151 1.961 . S
Li90 N135 1.990 . S
Li90 O148 1.961 . S
Li90 O150 1.956 . S
Li90 O151 1.970 . S
Li91 N141 1.990 . S
Li91 O149 1.961 . S
Li91 O150 1.970 . S
Li91 O151 1.956 . S
C92 C94 1.348 . S
C92 C95 1.356 . S
C92 O148 1.325 . S
N93 C96 1.314 . S
N93 C97 1.279 . S
C94 C92 1.348 . S
C94 C96 1.353 . S
C94 H152 0.929 . S
C95 C92 1.356 . S
C95 C97 1.358 . S
C95 H153 0.930 . S
C96 N93 1.314 . S
C96 C94 1.353 . S
C96 H154 0.930 . S
C97 N93 1.279 . S
C97 C95 1.358 . S
C97 H155 0.930 . S
C98 C101 1.348 . S
C98 C102 1.356 . S
C98 O149 1.325 . S
C99 N100 1.279 . S
C99 C102 1.358 . S
C99 H156 0.930 . S
N100 C99 1.279 . S
N100 C103 1.314 . S
C101 C98 1.348 . S
C101 C103 1.353 . S
C101 H157 0.929 . S
C102 C98 1.356 . S
C102 C99 1.358 . S
C102 H158 0.930 . S
C103 N100 1.314 . S
C103 C101 1.353 . S
C103 H159 0.930 . S
C104 N105 1.314 . S
C104 C109 1.353 . S
C104 H110 0.930 . S
N105 Li88 1.990 . S
N105 C104 1.314 . S
N105 C107 1.279 . S
C106 C107 1.358 . S
C106 C108 1.356 . S
C106 H160 0.930 . S
C107 N105 1.279 . S
C107 C106 1.358 . S
C107 H111 0.930 . S
C108 C106 1.356 . S
C108 C109 1.348 . S
C109 C104 1.353 . S
C109 C108 1.348 . S
C109 H161 0.929 . S
H110 C104 0.930 . S
H111 C107 0.930 . S
C112 N113 1.314 . S
C112 C114 1.353 . S
C112 H118 0.930 . S
N113 Li89 1.990 . S
N113 C112 1.314 . S
N113 C116 1.279 . S
C114 C112 1.353 . S
C114 C117 1.348 . S
C114 H162 0.929 . S
C115 C116 1.358 . S
C115 C117 1.356 . S
C115 H163 0.930 . S
C116 N113 1.279 . S
C116 C115 1.358 . S
C116 H119 0.930 . S
C117 C114 1.348 . S
C117 C115 1.356 . S
H118 C112 0.930 . S
H119 C116 0.930 . S
C120 C122 1.348 . S
C120 C123 1.356 . S
C120 O150 1.325 . S
N121 C124 1.314 . S
N121 C125 1.279 . S
C122 C120 1.348 . S
C122 C124 1.353 . S
C122 H164 0.929 . S
C123 C120 1.356 . S
C123 C125 1.358 . S
C123 H165 0.930 . S
C124 N121 1.314 . S
C124 C122 1.353 . S
C124 H166 0.930 . S
C125 N121 1.279 . S
C125 C123 1.358 . S
C125 H167 0.930 . S
C126 C127 1.348 . S
C126 C128 1.356 . S
C126 O151 1.325 . S
C127 C126 1.348 . S
C127 C129 1.353 . S
C127 H168 0.929 . S
C128 C126 1.356 . S
C128 C130 1.358 . S
C128 H169 0.930 . S
C129 C127 1.353 . S
C129 N131 1.314 . S
C129 H170 0.930 . S
C130 C128 1.358 . S
C130 N131 1.279 . S
C130 H171 0.930 . S
N131 C129 1.314 . S
N131 C130 1.279 . S
C132 C134 1.353 . S
C132 N135 1.314 . S
C132 H138 0.930 . S
C133 N135 1.279 . S
C133 C136 1.358 . S
C133 H139 0.930 . S
C134 C132 1.353 . S
C134 C137 1.348 . S
C134 H172 0.929 . S
N135 Li90 1.990 . S
N135 C132 1.314 . S
N135 C133 1.279 . S
C136 C133 1.358 . S
C136 C137 1.356 . S
C136 H173 0.930 . S
C137 C134 1.348 . S
C137 C136 1.356 . S
H138 C132 0.930 . S
H139 C133 0.930 . S
C140 N141 1.314 . S
C140 C142 1.353 . S
C140 H146 0.930 . S
N141 Li91 1.990 . S
N141 C140 1.314 . S
N141 C144 1.279 . S
C142 C140 1.353 . S
C142 C145 1.348 . S
C142 H174 0.929 . S
C143 C144 1.358 . S
C143 C145 1.356 . S
C143 H175 0.930 . S
C144 N141 1.279 . S
C144 C143 1.358 . S
C144 H147 0.930 . S
C145 C142 1.348 . S
C145 C143 1.356 . S
H146 C140 0.930 . S
H147 C144 0.930 . S
O148 Li88 1.956 . S
O148 Li89 1.970 . S
O148 Li90 1.961 . S
O148 C92 1.325 . S
O149 Li88 1.970 . S
O149 Li89 1.956 . S
O149 Li91 1.961 . S
O149 C98 1.325 . S
O150 Li88 1.961 . S
O150 Li90 1.956 . S
O150 Li91 1.970 . S
O150 C120 1.325 . S
O151 Li89 1.961 . S
O151 Li90 1.970 . S
O151 Li91 1.956 . S
O151 C126 1.325 . S
H152 C94 0.929 . S
H153 C95 0.930 . S
H154 C96 0.930 . S
H155 C97 0.930 . S
H156 C99 0.930 . S
H157 C101 0.929 . S
H158 C102 0.930 . S
H159 C103 0.930 . S
H160 C106 0.930 . S
H161 C109 0.929 . S
H162 C114 0.929 . S
H163 C115 0.930 . S
H164 C122 0.929 . S
H165 C123 0.930 . S
H166 C124 0.930 . S
H167 C125 0.930 . S
H168 C127 0.929 . S
H169 C128 0.930 . S
H170 C129 0.930 . S
H171 C130 0.930 . S
H172 C134 0.929 . S
H173 C136 0.930 . S
H174 C142 0.929 . S
H175 C143 0.930 . S
Li176 N193 1.990 . S
Li176 O236 1.956 . S
Li176 O237 1.970 . S
Li176 O238 1.961 . S
Li177 N201 1.990 . S
Li177 O236 1.970 . S
Li177 O237 1.956 . S
Li177 O239 1.961 . S
Li178 N223 1.990 . S
Li178 O236 1.961 . S
Li178 O238 1.956 . S
Li178 O239 1.970 . S
Li179 N229 1.990 . S
Li179 O237 1.961 . S
Li179 O238 1.970 . S
Li179 O239 1.956 . S
C180 C182 1.348 . S
C180 C183 1.356 . S
C180 O236 1.325 . S
N181 C184 1.314 . S
N181 C185 1.279 . S
C182 C180 1.348 . S
C182 C184 1.353 . S
C182 H240 0.929 . S
C183 C180 1.356 . S
C183 C185 1.358 . S
C183 H241 0.930 . S
C184 N181 1.314 . S
C184 C182 1.353 . S
C184 H242 0.930 . S
C185 N181 1.279 . S
C185 C183 1.358 . S
C185 H243 0.930 . S
C186 C189 1.348 . S
C186 C190 1.356 . S
C186 O237 1.325 . S
C187 N188 1.279 . S
C187 C190 1.358 . S
C187 H244 0.930 . S
N188 C187 1.279 . S
N188 C191 1.314 . S
C189 C186 1.348 . S
C189 C191 1.353 . S
C189 H245 0.929 . S
C190 C186 1.356 . S
C190 C187 1.358 . S
C190 H246 0.930 . S
C191 N188 1.314 . S
C191 C189 1.353 . S
C191 H247 0.930 . S
C192 N193 1.314 . S
C192 C197 1.353 . S
C192 H198 0.930 . S
N193 Li176 1.990 . S
N193 C192 1.314 . S
N193 C195 1.279 . S
C194 C195 1.358 . S
C194 C196 1.356 . S
C194 H248 0.930 . S
C195 N193 1.279 . S
C195 C194 1.358 . S
C195 H199 0.930 . S
C196 C194 1.356 . S
C196 C197 1.348 . S
C197 C192 1.353 . S
C197 C196 1.348 . S
C197 H249 0.929 . S
H198 C192 0.930 . S
H199 C195 0.930 . S
C200 N201 1.314 . S
C200 C202 1.353 . S
C200 H206 0.930 . S
N201 Li177 1.990 . S
N201 C200 1.314 . S
N201 C204 1.279 . S
C202 C200 1.353 . S
C202 C205 1.348 . S
C202 H250 0.929 . S
C203 C204 1.358 . S
C203 C205 1.356 . S
C203 H251 0.930 . S
C204 N201 1.279 . S
C204 C203 1.358 . S
C204 H207 0.930 . S
C205 C202 1.348 . S
C205 C203 1.356 . S
H206 C200 0.930 . S
H207 C204 0.930 . S
C208 C210 1.348 . S
C208 C211 1.356 . S
C208 O238 1.325 . S
N209 C212 1.314 . S
N209 C213 1.279 . S
C210 C208 1.348 . S
C210 C212 1.353 . S
C210 H252 0.929 . S
C211 C208 1.356 . S
C211 C213 1.358 . S
C211 H253 0.930 . S
C212 N209 1.314 . S
C212 C210 1.353 . S
C212 H254 0.930 . S
C213 N209 1.279 . S
C213 C211 1.358 . S
C213 H255 0.930 . S
C214 C215 1.348 . S
C214 C216 1.356 . S
C214 O239 1.325 . S
C215 C214 1.348 . S
C215 C217 1.353 . S
C215 H256 0.929 . S
C216 C214 1.356 . S
C216 C218 1.358 . S
C216 H257 0.930 . S
C217 C215 1.353 . S
C217 N219 1.314 . S
C217 H258 0.930 . S
C218 C216 1.358 . S
C218 N219 1.279 . S
C218 H259 0.930 . S
N219 C217 1.314 . S
N219 C218 1.279 . S
C220 C222 1.353 . S
C220 N223 1.314 . S
C220 H226 0.930 . S
C221 N223 1.279 . S
C221 C224 1.358 . S
C221 H227 0.930 . S
C222 C220 1.353 . S
C222 C225 1.348 . S
C222 H260 0.929 . S
N223 Li178 1.990 . S
N223 C220 1.314 . S
N223 C221 1.279 . S
C224 C221 1.358 . S
C224 C225 1.356 . S
C224 H261 0.930 . S
C225 C222 1.348 . S
C225 C224 1.356 . S
H226 C220 0.930 . S
H227 C221 0.930 . S
C228 N229 1.314 . S
C228 C230 1.353 . S
C228 H234 0.930 . S
N229 Li179 1.990 . S
N229 C228 1.314 . S
N229 C232 1.279 . S
C230 C228 1.353 . S
C230 C233 1.348 . S
C230 H262 0.929 . S
C231 C232 1.358 . S
C231 C233 1.356 . S
C231 H263 0.930 . S
C232 N229 1.279 . S
C232 C231 1.358 . S
C232 H235 0.930 . S
C233 C230 1.348 . S
C233 C231 1.356 . S
H234 C228 0.930 . S
H235 C232 0.930 . S
O236 Li176 1.956 . S
O236 Li177 1.970 . S
O236 Li178 1.961 . S
O236 C180 1.325 . S
O237 Li176 1.970 . S
O237 Li177 1.956 . S
O237 Li179 1.961 . S
O237 C186 1.325 . S
O238 Li176 1.961 . S
O238 Li178 1.956 . S
O238 Li179 1.970 . S
O238 C208 1.325 . S
O239 Li177 1.961 . S
O239 Li178 1.970 . S
O239 Li179 1.956 . S
O239 C214 1.325 . S
H240 C182 0.929 . S
H241 C183 0.930 . S
H242 C184 0.930 . S
H243 C185 0.930 . S
H244 C187 0.930 . S
H245 C189 0.929 . S
H246 C190 0.930 . S
H247 C191 0.930 . S
H248 C194 0.930 . S
H249 C197 0.929 . S
H250 C202 0.929 . S
H251 C203 0.930 . S
H252 C210 0.929 . S
H253 C211 0.930 . S
H254 C212 0.930 . S
H255 C213 0.930 . S
H256 C215 0.929 . S
H257 C216 0.930 . S
H258 C217 0.930 . S
H259 C218 0.930 . S
H260 C222 0.929 . S
H261 C224 0.930 . S
H262 C230 0.929 . S
H263 C231 0.930 . S
Li264 N281 1.990 . S
Li264 O324 1.956 . S
Li264 O325 1.970 . S
Li264 O326 1.961 . S
Li265 N289 1.990 . S
Li265 O324 1.970 . S
Li265 O325 1.956 . S
Li265 O327 1.961 . S
Li266 N311 1.990 . S
Li266 O324 1.961 . S
Li266 O326 1.956 . S
Li266 O327 1.970 . S
Li267 N317 1.990 . S
Li267 O325 1.961 . S
Li267 O326 1.970 . S
Li267 O327 1.956 . S
C268 C270 1.348 . S
C268 C271 1.356 . S
C268 O324 1.325 . S
N269 C272 1.314 . S
N269 C273 1.279 . S
C270 C268 1.348 . S
C270 C272 1.353 . S
C270 H328 0.929 . S
C271 C268 1.356 . S
C271 C273 1.358 . S
C271 H329 0.930 . S
C272 N269 1.314 . S
C272 C270 1.353 . S
C272 H330 0.930 . S
C273 N269 1.279 . S
C273 C271 1.358 . S
C273 H331 0.930 . S
C274 C277 1.348 . S
C274 C278 1.356 . S
C274 O325 1.325 . S
C275 N276 1.279 . S
C275 C278 1.358 . S
C275 H332 0.930 . S
N276 C275 1.279 . S
N276 C279 1.314 . S
C277 C274 1.348 . S
C277 C279 1.353 . S
C277 H333 0.929 . S
C278 C274 1.356 . S
C278 C275 1.358 . S
C278 H334 0.930 . S
C279 N276 1.314 . S
C279 C277 1.353 . S
C279 H335 0.930 . S
C280 N281 1.314 . S
C280 C285 1.353 . S
C280 H286 0.930 . S
N281 Li264 1.990 . S
N281 C280 1.314 . S
N281 C283 1.279 . S
C282 C283 1.358 . S
C282 C284 1.356 . S
C282 H336 0.930 . S
C283 N281 1.279 . S
C283 C282 1.358 . S
C283 H287 0.930 . S
C284 C282 1.356 . S
C284 C285 1.348 . S
C285 C280 1.353 . S
C285 C284 1.348 . S
C285 H337 0.929 1_554 S
H286 C280 0.930 . S
H287 C283 0.930 . S
C288 N289 1.314 . S
C288 C290 1.353 . S
C288 H294 0.930 . S
N289 Li265 1.990 . S
N289 C288 1.314 . S
N289 C292 1.279 . S
C290 C288 1.353 . S
C290 C293 1.348 . S
C290 H338 0.929 . S
C291 C292 1.358 . S
C291 C293 1.356 . S
C291 H339 0.930 . S
C292 N289 1.279 . S
C292 C291 1.358 . S
C292 H295 0.930 . S
C293 C290 1.348 . S
C293 C291 1.356 . S
H294 C288 0.930 . S
H295 C292 0.930 . S
C296 C298 1.341 1_554 S
C296 C299 1.325 1_554 S
C296 O326 1.325 . S
N297 C300 1.314 . S
N297 C301 1.279 . S
C298 C296 1.341 1_556 S
C298 C300 1.366 . S
C298 H340 0.924 1_556 S
C299 C296 1.325 1_556 S
C299 C301 1.417 . S
C299 H341 0.905 1_556 S
C300 N297 1.314 . S
C300 C298 1.366 . S
C300 H342 0.930 . S
C301 N297 1.279 . S
C301 C299 1.417 . S
C301 H343 0.930 . S
C302 C303 1.348 . S
C302 C304 1.356 . S
C302 O327 1.325 . S
C303 C302 1.348 . S
C303 C305 1.353 . S
C303 H344 0.929 . S
C304 C302 1.356 . S
C304 C306 1.358 . S
C304 H345 0.930 . S
C305 C303 1.353 . S
C305 N307 1.314 . S
C305 H346 0.930 . S
C306 C304 1.358 . S
C306 N307 1.279 . S
C306 H347 0.930 . S
N307 C305 1.314 . S
N307 C306 1.279 . S
C308 C310 1.353 . S
C308 N311 1.314 . S
C308 H314 0.930 . S
C309 N311 1.279 . S
C309 C312 1.358 . S
C309 H315 0.930 . S
C310 C308 1.353 . S
C310 C313 1.348 . S
C310 H348 0.929 . S
N311 Li266 1.990 . S
N311 C308 1.314 . S
N311 C309 1.279 . S
C312 C309 1.358 . S
C312 C313 1.356 . S
C312 H349 0.930 . S
C313 C310 1.348 . S
C313 C312 1.356 . S
H314 C308 0.930 . S
H315 C309 0.930 . S
C316 N317 1.314 . S
C316 C318 1.353 . S
C316 H322 0.930 . S
N317 Li267 1.990 . S
N317 C316 1.314 . S
N317 C320 1.279 . S
C318 C316 1.353 . S
C318 C321 1.348 . S
C318 H350 0.929 . S
C319 C320 1.358 . S
C319 C321 1.356 . S
C319 H351 0.930 . S
C320 N317 1.279 . S
C320 C319 1.358 . S
C320 H323 0.930 . S
C321 C318 1.348 . S
C321 C319 1.356 . S
H322 C316 0.930 . S
H323 C320 0.930 . S
O324 Li264 1.956 . S
O324 Li265 1.970 . S
O324 Li266 1.961 . S
O324 C268 1.325 . S
O325 Li264 1.970 . S
O325 Li265 1.956 . S
O325 Li267 1.961 . S
O325 C274 1.325 . S
O326 Li264 1.961 . S
O326 Li266 1.956 . S
O326 Li267 1.970 . S
O326 C296 1.325 . S
O327 Li265 1.961 . S
O327 Li266 1.970 . S
O327 Li267 1.956 . S
O327 C302 1.325 . S
H328 C270 0.929 . S
H329 C271 0.930 . S
H330 C272 0.930 . S
H331 C273 0.930 . S
H332 C275 0.930 . S
H333 C277 0.929 . S
H334 C278 0.930 . S
H335 C279 0.930 . S
H336 C282 0.930 . S
H337 C285 0.929 1_556 S
H338 C290 0.929 . S
H339 C291 0.930 . S
H340 C298 0.924 1_554 S
H341 C299 0.905 1_554 S
H342 C300 0.930 . S
H343 C301 0.930 . S
H344 C303 0.929 . S
H345 C304 0.930 . S
H346 C305 0.930 . S
H347 C306 0.930 . S
H348 C310 0.929 . S
H349 C312 0.930 . S
H350 C318 0.929 . S
H351 C319 0.930 . S
Li352 N369 1.990 . S
Li352 O412 1.956 . S
Li352 O413 1.970 . S
Li352 O414 1.961 . S
Li353 N377 1.990 . S
Li353 O412 1.970 . S
Li353 O413 1.956 . S
Li353 O415 1.961 . S
Li354 N399 1.990 . S
Li354 O412 1.961 . S
Li354 O414 1.956 . S
Li354 O415 1.970 . S
Li355 N405 1.990 . S
Li355 O413 1.961 . S
Li355 O414 1.970 . S
Li355 O415 1.956 . S
C356 C358 1.348 . S
C356 C359 1.356 . S
C356 O412 1.325 . S
N357 C360 1.314 . S
N357 C361 1.279 . S
C358 C356 1.348 . S
C358 C360 1.353 . S
C358 H416 0.929 . S
C359 C356 1.356 . S
C359 C361 1.358 . S
C359 H417 0.930 . S
C360 N357 1.314 . S
C360 C358 1.353 . S
C360 H418 0.930 . S
C361 N357 1.279 . S
C361 C359 1.358 . S
C361 H419 0.930 . S
C362 C365 1.348 . S
C362 C366 1.356 . S
C362 O413 1.325 . S
C363 N364 1.279 . S
C363 C366 1.358 . S
C363 H420 0.930 . S
N364 C363 1.279 . S
N364 C367 1.314 . S
C365 C362 1.348 . S
C365 C367 1.353 . S
C365 H421 0.929 . S
C366 C362 1.356 . S
C366 C363 1.358 . S
C366 H422 0.930 . S
C367 N364 1.314 . S
C367 C365 1.353 . S
C367 H423 0.930 . S
C368 N369 1.314 . S
C368 C373 1.353 . S
C368 H374 0.930 . S
N369 Li352 1.990 . S
N369 C368 1.314 . S
N369 C371 1.279 . S
C370 C371 1.358 . S
C370 C372 1.356 . S
C370 H424 0.930 . S
C371 N369 1.279 . S
C371 C370 1.358 . S
C371 H375 0.930 . S
C372 C370 1.356 . S
C372 C373 1.348 . S
C373 C368 1.353 . S
C373 C372 1.348 . S
C373 H425 0.929 . S
H374 C368 0.930 . S
H375 C371 0.930 . S
C376 N377 1.314 . S
C376 C378 1.353 . S
C376 H382 0.930 . S
N377 Li353 1.990 . S
N377 C376 1.314 . S
N377 C380 1.279 . S
C378 C376 1.353 . S
C378 C381 1.348 . S
C378 H426 0.929 . S
C379 C380 1.358 . S
C379 C381 1.356 . S
C379 H427 0.930 . S
C380 N377 1.279 . S
C380 C379 1.358 . S
C380 H383 0.930 . S
C381 C378 1.348 . S
C381 C379 1.356 . S
H382 C376 0.930 . S
H383 C380 0.930 . S
C384 C386 1.348 . S
C384 C387 1.356 . S
C384 O414 1.325 . S
N385 C388 1.314 . S
N385 C389 1.279 . S
C386 C384 1.348 . S
C386 C388 1.353 . S
C386 H428 0.929 . S
C387 C384 1.356 . S
C387 C389 1.358 . S
C387 H429 0.930 . S
C388 N385 1.314 . S
C388 C386 1.353 . S
C388 H430 0.930 . S
C389 N385 1.279 . S
C389 C387 1.358 . S
C389 H431 0.930 . S
C390 C391 1.348 . S
C390 C392 1.356 . S
C390 O415 1.325 . S
C391 C390 1.348 . S
C391 C393 1.353 . S
C391 H432 0.929 . S
C392 C390 1.356 . S
C392 C394 1.358 . S
C392 H433 0.930 . S
C393 C391 1.353 . S
C393 N395 1.314 . S
C393 H434 0.930 . S
C394 C392 1.358 . S
C394 N395 1.279 . S
C394 H435 0.930 . S
N395 C393 1.314 . S
N395 C394 1.279 . S
C396 C398 1.353 . S
C396 N399 1.314 . S
C396 H402 0.930 . S
C397 N399 1.279 . S
C397 C400 1.358 . S
C397 H403 0.930 . S
C398 C396 1.353 . S
C398 C401 1.348 . S
C398 H436 0.929 . S
N399 Li354 1.990 . S
N399 C396 1.314 . S
N399 C397 1.279 . S
C400 C397 1.358 . S
C400 C401 1.356 . S
C400 H437 0.930 . S
C401 C398 1.348 . S
C401 C400 1.356 . S
H402 C396 0.930 . S
H403 C397 0.930 . S
C404 N405 1.314 . S
C404 C406 1.353 . S
C404 H410 0.930 . S
N405 Li355 1.990 . S
N405 C404 1.314 . S
N405 C408 1.279 . S
C406 C404 1.353 . S
C406 C409 1.348 . S
C406 H438 0.929 . S
C407 C408 1.358 . S
C407 C409 1.356 . S
C407 H439 0.930 . S
C408 N405 1.279 . S
C408 C407 1.358 . S
C408 H411 0.930 . S
C409 C406 1.348 . S
C409 C407 1.356 . S
H410 C404 0.930 . S
H411 C408 0.930 . S
O412 Li352 1.956 . S
O412 Li353 1.970 . S
O412 Li354 1.961 . S
O412 C356 1.325 . S
O413 Li352 1.970 . S
O413 Li353 1.956 . S
O413 Li355 1.961 . S
O413 C362 1.325 . S
O414 Li352 1.961 . S
O414 Li354 1.956 . S
O414 Li355 1.970 . S
O414 C384 1.325 . S
O415 Li353 1.961 . S
O415 Li354 1.970 . S
O415 Li355 1.956 . S
O415 C390 1.325 . S
H416 C358 0.929 . S
H417 C359 0.930 . S
H418 C360 0.930 . S
H419 C361 0.930 . S
H420 C363 0.930 . S
H421 C365 0.929 . S
H422 C366 0.930 . S
H423 C367 0.930 . S
H424 C370 0.930 . S
H425 C373 0.929 . S
H426 C378 0.929 . S
H427 C379 0.930 . S
H428 C386 0.929 . S
H429 C387 0.930 . S
H430 C388 0.930 . S
H431 C389 0.930 . S
H432 C391 0.929 . S
H433 C392 0.930 . S
H434 C393 0.930 . S
H435 C394 0.930 . S
H436 C398 0.929 . S
H437 C400 0.930 . S
H438 C406 0.929 . S
H439 C407 0.930 . S
Li440 N457 1.990 . S
Li440 O500 1.956 . S
Li440 O501 1.970 . S
Li440 O502 1.961 . S
Li441 N465 1.990 . S
Li441 O500 1.970 . S
Li441 O501 1.956 . S
Li441 O503 1.961 . S
Li442 N487 1.990 . S
Li442 O500 1.961 . S
Li442 O502 1.956 . S
Li442 O503 1.970 . S
Li443 N493 1.990 . S
Li443 O501 1.961 . S
Li443 O502 1.970 . S
Li443 O503 1.956 . S
C444 C446 1.348 . S
C444 C447 1.356 . S
C444 O500 1.325 . S
N445 C448 1.314 . S
N445 C449 1.279 . S
C446 C444 1.348 . S
C446 C448 1.353 . S
C446 H504 0.929 . S
C447 C444 1.356 . S
C447 C449 1.358 . S
C447 H505 0.930 . S
C448 N445 1.314 . S
C448 C446 1.353 . S
C448 H506 0.930 . S
C449 N445 1.279 . S
C449 C447 1.358 . S
C449 H507 0.930 . S
C450 C453 1.348 . S
C450 C454 1.356 . S
C450 O501 1.325 . S
C451 N452 1.279 . S
C451 C454 1.358 . S
C451 H508 0.930 . S
N452 C451 1.279 . S
N452 C455 1.314 . S
C453 C450 1.348 . S
C453 C455 1.353 . S
C453 H509 0.929 . S
C454 C450 1.356 . S
C454 C451 1.358 . S
C454 H510 0.930 . S
C455 N452 1.314 . S
C455 C453 1.353 . S
C455 H511 0.930 . S
C456 N457 1.314 . S
C456 C461 1.353 . S
C456 H462 0.930 . S
N457 Li440 1.990 . S
N457 C456 1.314 . S
N457 C459 1.279 . S
C458 C459 1.358 . S
C458 C460 1.356 . S
C458 H512 0.930 . S
C459 N457 1.279 . S
C459 C458 1.358 . S
C459 H463 0.930 . S
C460 C458 1.356 . S
C460 C461 1.348 . S
C461 C456 1.353 . S
C461 C460 1.348 . S
C461 H513 0.929 . S
H462 C456 0.930 . S
H463 C459 0.930 . S
C464 N465 1.314 . S
C464 C466 1.353 . S
C464 H470 0.930 . S
N465 Li441 1.990 . S
N465 C464 1.314 . S
N465 C468 1.279 . S
C466 C464 1.353 . S
C466 C469 1.348 . S
C466 H514 0.929 . S
C467 C468 1.358 . S
C467 C469 1.356 . S
C467 H515 0.930 . S
C468 N465 1.279 . S
C468 C467 1.358 . S
C468 H471 0.930 . S
C469 C466 1.348 . S
C469 C467 1.356 . S
H470 C464 0.930 . S
H471 C468 0.930 . S
C472 C474 1.348 . S
C472 C475 1.356 . S
C472 O502 1.325 . S
N473 C476 1.314 . S
N473 C477 1.279 . S
C474 C472 1.348 . S
C474 C476 1.353 . S
C474 H516 0.929 . S
C475 C472 1.356 . S
C475 C477 1.358 . S
C475 H517 0.930 . S
C476 N473 1.314 . S
C476 C474 1.353 . S
C476 H518 0.930 . S
C477 N473 1.279 . S
C477 C475 1.358 . S
C477 H519 0.930 . S
C478 C479 1.348 . S
C478 C480 1.356 . S
C478 O503 1.325 . S
C479 C478 1.348 . S
C479 C481 1.353 . S
C479 H520 0.929 . S
C480 C478 1.356 . S
C480 C482 1.358 . S
C480 H521 0.930 . S
C481 C479 1.353 . S
C481 N483 1.314 . S
C481 H522 0.930 . S
C482 C480 1.358 . S
C482 N483 1.279 . S
C482 H523 0.930 . S
N483 C481 1.314 . S
N483 C482 1.279 . S
C484 C486 1.353 . S
C484 N487 1.314 . S
C484 H490 0.930 . S
C485 N487 1.279 . S
C485 C488 1.358 . S
C485 H491 0.930 . S
C486 C484 1.353 . S
C486 C489 1.348 . S
C486 H524 0.929 . S
N487 Li442 1.990 . S
N487 C484 1.314 . S
N487 C485 1.279 . S
C488 C485 1.358 . S
C488 C489 1.356 . S
C488 H525 0.930 . S
C489 C486 1.348 . S
C489 C488 1.356 . S
H490 C484 0.930 . S
H491 C485 0.930 . S
C492 N493 1.314 . S
C492 C494 1.353 . S
C492 H498 0.930 . S
N493 Li443 1.990 . S
N493 C492 1.314 . S
N493 C496 1.279 . S
C494 C492 1.353 . S
C494 C497 1.348 . S
C494 H526 0.929 . S
C495 C496 1.358 . S
C495 C497 1.356 . S
C495 H527 0.930 . S
C496 N493 1.279 . S
C496 C495 1.358 . S
C496 H499 0.930 . S
C497 C494 1.348 . S
C497 C495 1.356 . S
H498 C492 0.930 . S
H499 C496 0.930 . S
O500 Li440 1.956 . S
O500 Li441 1.970 . S
O500 Li442 1.961 . S
O500 C444 1.325 . S
O501 Li440 1.970 . S
O501 Li441 1.956 . S
O501 Li443 1.961 . S
O501 C450 1.325 . S
O502 Li440 1.961 . S
O502 Li442 1.956 . S
O502 Li443 1.970 . S
O502 C472 1.325 . S
O503 Li441 1.961 . S
O503 Li442 1.970 . S
O503 Li443 1.956 . S
O503 C478 1.325 . S
H504 C446 0.929 . S
H505 C447 0.930 . S
H506 C448 0.930 . S
H507 C449 0.930 . S
H508 C451 0.930 . S
H509 C453 0.929 . S
H510 C454 0.930 . S
H511 C455 0.930 . S
H512 C458 0.930 . S
H513 C461 0.929 . S
H514 C466 0.929 . S
H515 C467 0.930 . S
H516 C474 0.929 . S
H517 C475 0.930 . S
H518 C476 0.930 . S
H519 C477 0.930 . S
H520 C479 0.929 . S
H521 C480 0.930 . S
H522 C481 0.930 . S
H523 C482 0.930 . S
H524 C486 0.929 . S
H525 C488 0.930 . S
H526 C494 0.929 . S
H527 C495 0.930 . S
Li528 N545 1.990 . S
Li528 O588 1.956 . S
Li528 O589 1.970 . S
Li528 O590 1.961 . S
Li529 N553 1.990 . S
Li529 O588 1.970 . S
Li529 O589 1.956 . S
Li529 O591 1.961 . S
Li530 N575 1.990 . S
Li530 O588 1.961 . S
Li530 O590 1.956 . S
Li530 O591 1.970 . S
Li531 N581 1.990 . S
Li531 O589 1.961 . S
Li531 O590 1.970 . S
Li531 O591 1.956 . S
C532 C534 1.348 . S
C532 C535 1.356 . S
C532 O588 1.325 . S
N533 C536 1.314 . S
N533 C537 1.279 . S
C534 C532 1.348 . S
C534 C536 1.353 . S
C534 H592 0.929 . S
C535 C532 1.356 . S
C535 C537 1.358 . S
C535 H593 0.930 . S
C536 N533 1.314 . S
C536 C534 1.353 . S
C536 H594 0.930 . S
C537 N533 1.279 . S
C537 C535 1.358 . S
C537 H595 0.930 . S
C538 C541 1.348 . S
C538 C542 1.356 . S
C538 O589 1.325 . S
C539 N540 1.279 . S
C539 C542 1.358 . S
C539 H596 0.930 . S
N540 C539 1.279 . S
N540 C543 1.314 . S
C541 C538 1.348 . S
C541 C543 1.353 . S
C541 H597 0.929 . S
C542 C538 1.356 . S
C542 C539 1.358 . S
C542 H598 0.930 . S
C543 N540 1.314 . S
C543 C541 1.353 . S
C543 H599 0.930 . S
C544 N545 1.314 . S
C544 C549 1.353 . S
C544 H550 0.930 . S
N545 Li528 1.990 . S
N545 C544 1.314 . S
N545 C547 1.279 . S
C546 C547 1.358 . S
C546 C548 1.356 . S
C546 H600 0.930 . S
C547 N545 1.279 . S
C547 C546 1.358 . S
C547 H551 0.930 . S
C548 C546 1.356 . S
C548 C549 1.348 . S
C549 C544 1.353 . S
C549 C548 1.348 . S
C549 H601 0.929 . S
H550 C544 0.930 . S
H551 C547 0.930 . S
C552 N553 1.314 . S
C552 C554 1.353 . S
C552 H558 0.930 . S
N553 Li529 1.990 . S
N553 C552 1.314 . S
N553 C556 1.279 . S
C554 C552 1.353 . S
C554 C557 1.348 . S
C554 H602 0.929 . S
C555 C556 1.358 . S
C555 C557 1.356 . S
C555 H603 0.930 . S
C556 N553 1.279 . S
C556 C555 1.358 . S
C556 H559 0.930 . S
C557 C554 1.348 . S
C557 C555 1.356 . S
H558 C552 0.930 . S
H559 C556 0.930 . S
C560 C562 1.348 . S
C560 C563 1.356 . S
C560 O590 1.325 . S
N561 C564 1.314 . S
N561 C565 1.279 . S
C562 C560 1.348 . S
C562 C564 1.353 . S
C562 H604 0.929 . S
C563 C560 1.356 . S
C563 C565 1.358 . S
C563 H605 0.930 . S
C564 N561 1.314 . S
C564 C562 1.353 . S
C564 H606 0.930 . S
C565 N561 1.279 . S
C565 C563 1.358 . S
C565 H607 0.930 . S
C566 C567 1.348 . S
C566 C568 1.356 . S
C566 O591 1.325 . S
C567 C566 1.348 . S
C567 C569 1.353 . S
C567 H608 0.929 . S
C568 C566 1.356 . S
C568 C570 1.358 . S
C568 H609 0.930 . S
C569 C567 1.353 . S
C569 N571 1.314 . S
C569 H610 0.930 . S
C570 C568 1.358 . S
C570 N571 1.279 . S
C570 H611 0.930 . S
N571 C569 1.314 . S
N571 C570 1.279 . S
C572 C574 1.353 . S
C572 N575 1.314 . S
C572 H578 0.930 . S
C573 N575 1.279 . S
C573 C576 1.358 . S
C573 H579 0.930 . S
C574 C572 1.353 . S
C574 C577 1.348 . S
C574 H612 0.929 . S
N575 Li530 1.990 . S
N575 C572 1.314 . S
N575 C573 1.279 . S
C576 C573 1.358 . S
C576 C577 1.356 . S
C576 H613 0.930 . S
C577 C574 1.348 . S
C577 C576 1.356 . S
H578 C572 0.930 . S
H579 C573 0.930 . S
C580 N581 1.314 . S
C580 C582 1.353 . S
C580 H586 0.930 . S
N581 Li531 1.990 . S
N581 C580 1.314 . S
N581 C584 1.279 . S
C582 C580 1.353 . S
C582 C585 1.348 . S
C582 H614 0.929 . S
C583 C584 1.358 . S
C583 C585 1.356 . S
C583 H615 0.930 . S
C584 N581 1.279 . S
C584 C583 1.358 . S
C584 H587 0.930 . S
C585 C582 1.348 . S
C585 C583 1.356 . S
H586 C580 0.930 . S
H587 C584 0.930 . S
O588 Li528 1.956 . S
O588 Li529 1.970 . S
O588 Li530 1.961 . S
O588 C532 1.325 . S
O589 Li528 1.970 . S
O589 Li529 1.956 . S
O589 Li531 1.961 . S
O589 C538 1.325 . S
O590 Li528 1.961 . S
O590 Li530 1.956 . S
O590 Li531 1.970 . S
O590 C560 1.325 . S
O591 Li529 1.961 . S
O591 Li530 1.970 . S
O591 Li531 1.956 . S
O591 C566 1.325 . S
H592 C534 0.929 . S
H593 C535 0.930 . S
H594 C536 0.930 . S
H595 C537 0.930 . S
H596 C539 0.930 . S
H597 C541 0.929 . S
H598 C542 0.930 . S
H599 C543 0.930 . S
H600 C546 0.930 . S
H601 C549 0.929 . S
H602 C554 0.929 . S
H603 C555 0.930 . S
H604 C562 0.929 . S
H605 C563 0.930 . S
H606 C564 0.930 . S
H607 C565 0.930 . S
H608 C567 0.929 . S
H609 C568 0.930 . S
H610 C569 0.930 . S
H611 C570 0.930 . S
H612 C574 0.929 . S
H613 C576 0.930 . S
H614 C582 0.929 . S
H615 C583 0.930 . S
Li616 N633 1.990 . S
Li616 O676 1.956 . S
Li616 O677 1.970 . S
Li616 O678 1.961 . S
Li617 N641 1.990 . S
Li617 O676 1.970 . S
Li617 O677 1.956 . S
Li617 O679 1.961 . S
Li618 N663 1.990 . S
Li618 O676 1.961 . S
Li618 O678 1.956 . S
Li618 O679 1.970 . S
Li619 N669 1.990 . S
Li619 O677 1.961 . S
Li619 O678 1.970 . S
Li619 O679 1.956 . S
C620 C622 1.348 . S
C620 C623 1.356 . S
C620 O676 1.325 . S
N621 C624 1.314 . S
N621 C625 1.279 . S
C622 C620 1.348 . S
C622 C624 1.353 . S
C622 H680 0.929 . S
C623 C620 1.356 . S
C623 C625 1.358 . S
C623 H681 0.930 . S
C624 N621 1.314 . S
C624 C622 1.353 . S
C624 H682 0.930 . S
C625 N621 1.279 . S
C625 C623 1.358 . S
C625 H683 0.930 . S
C626 C629 1.341 1_556 S
C626 C630 1.325 1_556 S
C626 O677 1.325 . S
C627 N628 1.279 . S
C627 C630 1.417 . S
C627 H684 0.930 . S
N628 C627 1.279 . S
N628 C631 1.314 . S
C629 C626 1.341 1_554 S
C629 C631 1.365 . S
C629 H685 0.924 1_554 S
C630 C626 1.325 1_554 S
C630 C627 1.417 . S
C630 H686 0.905 1_554 S
C631 N628 1.314 . S
C631 C629 1.365 . S
C631 H687 0.930 . S
C632 N633 1.314 . S
C632 C637 1.353 . S
C632 H638 0.930 . S
N633 Li616 1.990 . S
N633 C632 1.314 . S
N633 C635 1.279 . S
C634 C635 1.358 . S
C634 C636 1.356 . S
C634 H688 0.930 . S
C635 N633 1.279 . S
C635 C634 1.358 . S
C635 H639 0.930 . S
C636 C634 1.356 . S
C636 C637 1.348 . S
C637 C632 1.353 . S
C637 C636 1.348 . S
C637 H689 0.929 . S
H638 C632 0.930 . S
H639 C635 0.930 . S
C640 N641 1.314 . S
C640 C642 1.353 . S
C640 H646 0.930 . S
N641 Li617 1.990 . S
N641 C640 1.314 . S
N641 C644 1.279 . S
C642 C640 1.353 . S
C642 C645 1.348 . S
C642 H690 0.929 . S
C643 C644 1.358 . S
C643 C645 1.356 . S
C643 H691 0.930 . S
C644 N641 1.279 . S
C644 C643 1.358 . S
C644 H647 0.930 . S
C645 C642 1.348 . S
C645 C643 1.356 . S
H646 C640 0.930 . S
H647 C644 0.930 . S
C648 C650 1.348 . S
C648 C651 1.356 . S
C648 O678 1.325 . S
N649 C652 1.314 . S
N649 C653 1.279 . S
C650 C648 1.348 . S
C650 C652 1.353 . S
C650 H692 0.929 . S
C651 C648 1.356 . S
C651 C653 1.358 . S
C651 H693 0.930 . S
C652 N649 1.314 . S
C652 C650 1.353 . S
C652 H694 0.930 . S
C653 N649 1.279 . S
C653 C651 1.358 . S
C653 H695 0.930 . S
C654 C655 1.348 . S
C654 C656 1.356 . S
C654 O679 1.325 . S
C655 C654 1.348 . S
C655 C657 1.353 . S
C655 H696 0.929 . S
C656 C654 1.356 . S
C656 C658 1.358 . S
C656 H697 0.930 . S
C657 C655 1.353 . S
C657 N659 1.314 . S
C657 H698 0.930 . S
C658 C656 1.358 . S
C658 N659 1.279 . S
C658 H699 0.930 . S
N659 C657 1.314 . S
N659 C658 1.279 . S
C660 C662 1.353 . S
C660 N663 1.314 . S
C660 H666 0.930 . S
C661 N663 1.279 . S
C661 C664 1.358 . S
C661 H667 0.930 . S
C662 C660 1.353 . S
C662 C665 1.348 . S
C662 H700 0.929 . S
N663 Li618 1.990 . S
N663 C660 1.314 . S
N663 C661 1.279 . S
C664 C661 1.358 . S
C664 C665 1.356 . S
C664 H701 0.930 . S
C665 C662 1.348 . S
C665 C664 1.356 . S
H666 C660 0.930 . S
H667 C661 0.930 . S
C668 N669 1.314 . S
C668 C670 1.353 . S
C668 H674 0.930 . S
N669 Li619 1.990 . S
N669 C668 1.314 . S
N669 C672 1.279 . S
C670 C668 1.353 . S
C670 C673 1.348 . S
C670 H702 0.929 1_556 S
C671 C672 1.358 . S
C671 C673 1.356 . S
C671 H703 0.930 . S
C672 N669 1.279 . S
C672 C671 1.358 . S
C672 H675 0.930 . S
C673 C670 1.348 . S
C673 C671 1.356 . S
H674 C668 0.930 . S
H675 C672 0.930 . S
O676 Li616 1.956 . S
O676 Li617 1.970 . S
O676 Li618 1.961 . S
O676 C620 1.325 . S
O677 Li616 1.970 . S
O677 Li617 1.956 . S
O677 Li619 1.961 . S
O677 C626 1.325 . S
O678 Li616 1.961 . S
O678 Li618 1.956 . S
O678 Li619 1.970 . S
O678 C648 1.325 . S
O679 Li617 1.961 . S
O679 Li618 1.970 . S
O679 Li619 1.956 . S
O679 C654 1.325 . S
H680 C622 0.929 . S
H681 C623 0.930 . S
H682 C624 0.930 . S
H683 C625 0.930 . S
H684 C627 0.930 . S
H685 C629 0.924 1_556 S
H686 C630 0.905 1_556 S
H687 C631 0.930 . S
H688 C634 0.930 . S
H689 C637 0.929 . S
H690 C642 0.929 . S
H691 C643 0.930 . S
H692 C650 0.929 . S
H693 C651 0.930 . S
H694 C652 0.930 . S
H695 C653 0.930 . S
H696 C655 0.929 . S
H697 C656 0.930 . S
H698 C657 0.930 . S
H699 C658 0.930 . S
H700 C662 0.929 . S
H701 C664 0.930 . S
H702 C670 0.929 1_554 S
H703 C671 0.930 . S
Li704 N721 1.990 . S
Li704 O764 1.956 . S
Li704 O765 1.970 . S
Li704 O766 1.961 . S
Li705 N729 1.990 . S
Li705 O764 1.970 . S
Li705 O765 1.956 . S
Li705 O767 1.961 . S
Li706 N751 1.990 . S
Li706 O764 1.961 . S
Li706 O766 1.956 . S
Li706 O767 1.970 . S
Li707 N757 1.990 . S
Li707 O765 1.961 . S
Li707 O766 1.970 . S
Li707 O767 1.956 . S
C708 C710 1.348 . S
C708 C711 1.356 . S
C708 O764 1.325 . S
N709 C712 1.314 . S
N709 C713 1.279 . S
C710 C708 1.348 . S
C710 C712 1.353 . S
C710 H768 0.929 . S
C711 C708 1.356 . S
C711 C713 1.358 . S
C711 H769 0.930 . S
C712 N709 1.314 . S
C712 C710 1.353 . S
C712 H770 0.930 . S
C713 N709 1.279 . S
C713 C711 1.358 . S
C713 H771 0.930 . S
C714 C717 1.348 . S
C714 C718 1.356 . S
C714 O765 1.325 . S
C715 N716 1.279 . S
C715 C718 1.358 . S
C715 H772 0.930 . S
N716 C715 1.279 . S
N716 C719 1.314 . S
C717 C714 1.348 . S
C717 C719 1.353 . S
C717 H773 0.929 . S
C718 C714 1.356 . S
C718 C715 1.358 . S
C718 H774 0.930 . S
C719 N716 1.314 . S
C719 C717 1.353 . S
C719 H775 0.930 . S
C720 N721 1.314 . S
C720 C725 1.353 . S
C720 H726 0.930 . S
N721 Li704 1.990 . S
N721 C720 1.314 . S
N721 C723 1.279 . S
C722 C723 1.358 . S
C722 C724 1.356 . S
C722 H776 0.930 . S
C723 N721 1.279 . S
C723 C722 1.358 . S
C723 H727 0.930 . S
C724 C722 1.356 . S
C724 C725 1.348 . S
C725 C720 1.353 . S
C725 C724 1.348 . S
C725 H777 0.929 . S
H726 C720 0.930 . S
H727 C723 0.930 . S
C728 N729 1.314 . S
C728 C730 1.353 . S
C728 H734 0.930 . S
N729 Li705 1.990 . S
N729 C728 1.314 . S
N729 C732 1.279 . S
C730 C728 1.353 . S
C730 C733 1.348 . S
C730 H778 0.929 . S
C731 C732 1.358 . S
C731 C733 1.356 . S
C731 H779 0.930 . S
C732 N729 1.279 . S
C732 C731 1.358 . S
C732 H735 0.930 . S
C733 C730 1.348 . S
C733 C731 1.356 . S
H734 C728 0.930 . S
H735 C732 0.930 . S
C736 C738 1.348 . S
C736 C739 1.356 . S
C736 O766 1.325 . S
N737 C740 1.314 . S
N737 C741 1.279 . S
C738 C736 1.348 . S
C738 C740 1.353 . S
C738 H780 0.929 . S
C739 C736 1.356 . S
C739 C741 1.358 . S
C739 H781 0.930 . S
C740 N737 1.314 . S
C740 C738 1.353 . S
C740 H782 0.930 . S
C741 N737 1.279 . S
C741 C739 1.358 . S
C741 H783 0.930 . S
C742 C743 1.348 . S
C742 C744 1.356 . S
C742 O767 1.325 . S
C743 C742 1.348 . S
C743 C745 1.353 . S
C743 H784 0.929 . S
C744 C742 1.356 . S
C744 C746 1.358 . S
C744 H785 0.930 . S
C745 C743 1.353 . S
C745 N747 1.314 . S
C745 H786 0.930 . S
C746 C744 1.358 . S
C746 N747 1.279 . S
C746 H787 0.930 . S
N747 C745 1.314 . S
N747 C746 1.279 . S
C748 C750 1.353 . S
C748 N751 1.314 . S
C748 H754 0.930 . S
C749 N751 1.279 . S
C749 C752 1.358 . S
C749 H755 0.930 . S
C750 C748 1.353 . S
C750 C753 1.348 . S
C750 H788 0.929 . S
N751 Li706 1.990 . S
N751 C748 1.314 . S
N751 C749 1.279 . S
C752 C749 1.358 . S
C752 C753 1.356 . S
C752 H789 0.930 . S
C753 C750 1.348 . S
C753 C752 1.356 . S
H754 C748 0.930 . S
H755 C749 0.930 . S
C756 N757 1.314 . S
C756 C758 1.353 . S
C756 H762 0.930 . S
N757 Li707 1.990 . S
N757 C756 1.314 . S
N757 C760 1.279 . S
C758 C756 1.353 . S
C758 C761 1.348 . S
C758 H790 0.929 . S
C759 C760 1.358 . S
C759 C761 1.356 . S
C759 H791 0.930 . S
C760 N757 1.279 . S
C760 C759 1.358 . S
C760 H763 0.930 . S
C761 C758 1.348 . S
C761 C759 1.356 . S
H762 C756 0.930 . S
H763 C760 0.930 . S
O764 Li704 1.956 . S
O764 Li705 1.970 . S
O764 Li706 1.961 . S
O764 C708 1.325 . S
O765 Li704 1.970 . S
O765 Li705 1.956 . S
O765 Li707 1.961 . S
O765 C714 1.325 . S
O766 Li704 1.961 . S
O766 Li706 1.956 . S
O766 Li707 1.970 . S
O766 C736 1.325 . S
O767 Li705 1.961 . S
O767 Li706 1.970 . S
O767 Li707 1.956 . S
O767 C742 1.325 . S
H768 C710 0.929 . S
H769 C711 0.930 . S
H770 C712 0.930 . S
H771 C713 0.930 . S
H772 C715 0.930 . S
H773 C717 0.929 . S
H774 C718 0.930 . S
H775 C719 0.930 . S
H776 C722 0.930 . S
H777 C725 0.929 . S
H778 C730 0.929 . S
H779 C731 0.930 . S
H780 C738 0.929 . S
H781 C739 0.930 . S
H782 C740 0.930 . S
H783 C741 0.930 . S
H784 C743 0.929 . S
H785 C744 0.930 . S
H786 C745 0.930 . S
H787 C746 0.930 . S
H788 C750 0.929 . S
H789 C752 0.930 . S
H790 C758 0.929 . S
H791 C759 0.930 . S
Li792 N809 1.990 . S
Li792 O852 1.956 . S
Li792 O853 1.970 . S
Li792 O854 1.961 . S
Li793 N817 1.990 . S
Li793 O852 1.970 . S
Li793 O853 1.956 . S
Li793 O855 1.961 . S
Li794 N839 1.990 . S
Li794 O852 1.961 . S
Li794 O854 1.956 . S
Li794 O855 1.970 . S
Li795 N845 1.990 . S
Li795 O853 1.961 . S
Li795 O854 1.970 . S
Li795 O855 1.956 . S
C796 C798 1.348 . S
C796 C799 1.356 . S
C796 O852 1.325 . S
N797 C800 1.314 . S
N797 C801 1.279 . S
C798 C796 1.348 . S
C798 C800 1.353 . S
C798 H856 0.929 . S
C799 C796 1.356 . S
C799 C801 1.358 . S
C799 H857 0.930 . S
C800 N797 1.314 . S
C800 C798 1.353 . S
C800 H858 0.930 . S
C801 N797 1.279 . S
C801 C799 1.358 . S
C801 H859 0.930 . S
C802 C805 1.348 . S
C802 C806 1.356 . S
C802 O853 1.325 . S
C803 N804 1.279 . S
C803 C806 1.358 . S
C803 H860 0.930 . S
N804 C803 1.279 . S
N804 C807 1.314 . S
C805 C802 1.348 . S
C805 C807 1.353 . S
C805 H861 0.929 . S
C806 C802 1.356 . S
C806 C803 1.358 . S
C806 H862 0.930 . S
C807 N804 1.314 . S
C807 C805 1.353 . S
C807 H863 0.930 . S
C808 N809 1.314 . S
C808 C813 1.353 . S
C808 H814 0.930 . S
N809 Li792 1.990 . S
N809 C808 1.314 . S
N809 C811 1.279 . S
C810 C811 1.358 . S
C810 C812 1.356 . S
C810 H864 0.930 . S
C811 N809 1.279 . S
C811 C810 1.358 . S
C811 H815 0.930 . S
C812 C810 1.356 . S
C812 C813 1.348 . S
C813 C808 1.353 . S
C813 C812 1.348 . S
C813 H865 0.929 . S
H814 C808 0.930 . S
H815 C811 0.930 . S
C816 N817 1.314 . S
C816 C818 1.353 . S
C816 H822 0.930 . S
N817 Li793 1.990 . S
N817 C816 1.314 . S
N817 C820 1.279 . S
C818 C816 1.353 . S
C818 C821 1.348 . S
C818 H866 0.929 . S
C819 C820 1.358 . S
C819 C821 1.356 . S
C819 H867 0.930 . S
C820 N817 1.279 . S
C820 C819 1.358 . S
C820 H823 0.930 . S
C821 C818 1.348 . S
C821 C819 1.356 . S
H822 C816 0.930 . S
H823 C820 0.930 . S
C824 C826 1.348 . S
C824 C827 1.356 . S
C824 O854 1.325 . S
N825 C828 1.314 . S
N825 C829 1.279 . S
C826 C824 1.348 . S
C826 C828 1.353 . S
C826 H868 0.929 . S
C827 C824 1.356 . S
C827 C829 1.358 . S
C827 H869 0.930 . S
C828 N825 1.314 . S
C828 C826 1.353 . S
C828 H870 0.930 . S
C829 N825 1.279 . S
C829 C827 1.358 . S
C829 H871 0.930 . S
C830 C831 1.348 . S
C830 C832 1.356 . S
C830 O855 1.325 . S
C831 C830 1.348 . S
C831 C833 1.353 . S
C831 H872 0.929 . S
C832 C830 1.356 . S
C832 C834 1.358 . S
C832 H873 0.930 . S
C833 C831 1.353 . S
C833 N835 1.314 . S
C833 H874 0.930 . S
C834 C832 1.358 . S
C834 N835 1.279 . S
C834 H875 0.930 . S
N835 C833 1.314 . S
N835 C834 1.279 . S
C836 C838 1.353 . S
C836 N839 1.314 . S
C836 H842 0.930 . S
C837 N839 1.279 . S
C837 C840 1.358 . S
C837 H843 0.930 . S
C838 C836 1.353 . S
C838 C841 1.348 . S
C838 H876 0.929 . S
N839 Li794 1.990 . S
N839 C836 1.314 . S
N839 C837 1.279 . S
C840 C837 1.358 . S
C840 C841 1.356 . S
C840 H877 0.930 . S
C841 C838 1.348 . S
C841 C840 1.356 . S
H842 C836 0.930 . S
H843 C837 0.930 . S
C844 N845 1.314 . S
C844 C846 1.353 . S
C844 H850 0.930 . S
N845 Li795 1.990 . S
N845 C844 1.314 . S
N845 C848 1.279 . S
C846 C844 1.353 . S
C846 C849 1.348 . S
C846 H878 0.929 . S
C847 C848 1.358 . S
C847 C849 1.356 . S
C847 H879 0.930 . S
C848 N845 1.279 . S
C848 C847 1.358 . S
C848 H851 0.930 . S
C849 C846 1.348 . S
C849 C847 1.356 . S
H850 C844 0.930 . S
H851 C848 0.930 . S
O852 Li792 1.956 . S
O852 Li793 1.970 . S
O852 Li794 1.961 . S
O852 C796 1.325 . S
O853 Li792 1.970 . S
O853 Li793 1.956 . S
O853 Li795 1.961 . S
O853 C802 1.325 . S
O854 Li792 1.961 . S
O854 Li794 1.956 . S
O854 Li795 1.970 . S
O854 C824 1.325 . S
O855 Li793 1.961 . S
O855 Li794 1.970 . S
O855 Li795 1.956 . S
O855 C830 1.325 . S
H856 C798 0.929 . S
H857 C799 0.930 . S
H858 C800 0.930 . S
H859 C801 0.930 . S
H860 C803 0.930 . S
H861 C805 0.929 . S
H862 C806 0.930 . S
H863 C807 0.930 . S
H864 C810 0.930 . S
H865 C813 0.929 . S
H866 C818 0.929 . S
H867 C819 0.930 . S
H868 C826 0.929 . S
H869 C827 0.930 . S
H870 C828 0.930 . S
H871 C829 0.930 . S
H872 C831 0.929 . S
H873 C832 0.930 . S
H874 C833 0.930 . S
H875 C834 0.930 . S
H876 C838 0.929 . S
H877 C840 0.930 . S
H878 C846 0.929 . S
H879 C847 0.930 . S
Li880 N897 1.990 . S
Li880 O940 1.956 . S
Li880 O941 1.970 . S
Li880 O942 1.961 . S
Li881 N905 1.990 . S
Li881 O940 1.970 . S
Li881 O941 1.956 . S
Li881 O943 1.961 . S
Li882 N927 1.990 . S
Li882 O940 1.961 . S
Li882 O942 1.956 . S
Li882 O943 1.970 . S
Li883 N933 1.990 . S
Li883 O941 1.961 . S
Li883 O942 1.970 . S
Li883 O943 1.956 . S
C884 C886 1.341 1_556 S
C884 C887 1.325 1_556 S
C884 O940 1.325 . S
N885 C888 1.314 . S
N885 C889 1.279 . S
C886 C884 1.341 1_554 S
C886 C888 1.365 . S
C886 H944 0.924 1_554 S
C887 C884 1.325 1_554 S
C887 C889 1.416 . S
C887 H945 0.905 1_554 S
C888 N885 1.314 . S
C888 C886 1.365 . S
C888 H946 0.930 . S
C889 N885 1.279 . S
C889 C887 1.416 . S
C889 H947 0.930 . S
C890 C893 1.348 . S
C890 C894 1.356 . S
C890 O941 1.325 . S
C891 N892 1.279 . S
C891 C894 1.358 . S
C891 H948 0.930 . S
N892 C891 1.279 . S
N892 C895 1.314 . S
C893 C890 1.348 . S
C893 C895 1.353 . S
C893 H949 0.929 . S
C894 C890 1.356 . S
C894 C891 1.358 . S
C894 H950 0.930 . S
C895 N892 1.314 . S
C895 C893 1.353 . S
C895 H951 0.930 . S
C896 N897 1.314 . S
C896 C901 1.353 . S
C896 H902 0.930 . S
N897 Li880 1.990 . S
N897 C896 1.314 . S
N897 C899 1.279 . S
C898 C899 1.358 . S
C898 C900 1.356 . S
C898 H952 0.930 . S
C899 N897 1.279 . S
C899 C898 1.358 . S
C899 H903 0.930 . S
C900 C898 1.356 . S
C900 C901 1.348 . S
C901 C896 1.353 . S
C901 C900 1.348 . S
C901 H953 0.929 . S
H902 C896 0.930 . S
H903 C899 0.930 . S
C904 N905 1.314 . S
C904 C906 1.353 . S
C904 H910 0.930 . S
N905 Li881 1.990 . S
N905 C904 1.314 . S
N905 C908 1.279 . S
C906 C904 1.353 . S
C906 C909 1.348 . S
C906 H954 0.929 . S
C907 C908 1.358 . S
C907 C909 1.356 . S
C907 H955 0.930 . S
C908 N905 1.279 . S
C908 C907 1.358 . S
C908 H911 0.930 . S
C909 C906 1.348 . S
C909 C907 1.356 . S
H910 C904 0.930 . S
H911 C908 0.930 . S
C912 C914 1.348 . S
C912 C915 1.356 . S
C912 O942 1.325 . S
N913 C916 1.314 . S
N913 C917 1.279 . S
C914 C912 1.348 . S
C914 C916 1.353 . S
C914 H956 0.929 . S
C915 C912 1.356 . S
C915 C917 1.358 . S
C915 H957 0.930 . S
C916 N913 1.314 . S
C916 C914 1.353 . S
C916 H958 0.930 . S
C917 N913 1.279 . S
C917 C915 1.358 . S
C917 H959 0.930 . S
C918 C919 1.348 . S
C918 C920 1.356 . S
C918 O943 1.325 . S
C919 C918 1.348 . S
C919 C921 1.353 . S
C919 H960 0.929 . S
C920 C918 1.356 . S
C920 C922 1.358 . S
C920 H961 0.930 . S
C921 C919 1.353 . S
C921 N923 1.314 . S
C921 H962 0.930 . S
C922 C920 1.358 . S
C922 N923 1.279 . S
C922 H963 0.930 . S
N923 C921 1.314 . S
N923 C922 1.279 . S
C924 C926 1.353 . S
C924 N927 1.314 . S
C924 H930 0.930 . S
C925 N927 1.279 . S
C925 C928 1.358 . S
C925 H931 0.930 . S
C926 C924 1.353 . S
C926 C929 1.348 . S
C926 H964 0.929 1_556 S
N927 Li882 1.990 . S
N927 C924 1.314 . S
N927 C925 1.279 . S
C928 C925 1.358 . S
C928 C929 1.356 . S
C928 H965 0.930 . S
C929 C926 1.348 . S
C929 C928 1.356 . S
H930 C924 0.930 . S
H931 C925 0.930 . S
C932 N933 1.314 . S
C932 C934 1.353 . S
C932 H938 0.930 . S
N933 Li883 1.990 . S
N933 C932 1.314 . S
N933 C936 1.279 . S
C934 C932 1.353 . S
C934 C937 1.348 . S
C934 H966 0.929 . S
C935 C936 1.358 . S
C935 C937 1.356 . S
C935 H967 0.930 . S
C936 N933 1.279 . S
C936 C935 1.358 . S
C936 H939 0.930 . S
C937 C934 1.348 . S
C937 C935 1.356 . S
H938 C932 0.930 . S
H939 C936 0.930 . S
O940 Li880 1.956 . S
O940 Li881 1.970 . S
O940 Li882 1.961 . S
O940 C884 1.325 . S
O941 Li880 1.970 . S
O941 Li881 1.956 . S
O941 Li883 1.961 . S
O941 C890 1.325 . S
O942 Li880 1.961 . S
O942 Li882 1.956 . S
O942 Li883 1.970 . S
O942 C912 1.325 . S
O943 Li881 1.961 . S
O943 Li882 1.970 . S
O943 Li883 1.956 . S
O943 C918 1.325 . S
H944 C886 0.924 1_556 S
H945 C887 0.905 1_556 S
H946 C888 0.930 . S
H947 C889 0.930 . S
H948 C891 0.930 . S
H949 C893 0.929 . S
H950 C894 0.930 . S
H951 C895 0.930 . S
H952 C898 0.930 . S
H953 C901 0.929 . S
H954 C906 0.929 . S
H955 C907 0.930 . S
H956 C914 0.929 . S
H957 C915 0.930 . S
H958 C916 0.930 . S
H959 C917 0.930 . S
H960 C919 0.929 . S
H961 C920 0.930 . S
H962 C921 0.930 . S
H963 C922 0.930 . S
H964 C926 0.929 1_554 S
H965 C928 0.930 . S
H966 C934 0.929 . S
H967 C935 0.930 . S
Li968 N985 1.990 . S
Li968 O1028 1.956 . S
Li968 O1029 1.970 . S
Li968 O1030 1.961 . S
Li969 N993 1.990 . S
Li969 O1028 1.970 . S
Li969 O1029 1.956 . S
Li969 O1031 1.961 . S
Li970 N1015 1.990 . S
Li970 O1028 1.961 . S
Li970 O1030 1.956 . S
Li970 O1031 1.970 . S
Li971 N1021 1.990 . S
Li971 O1029 1.961 . S
Li971 O1030 1.970 . S
Li971 O1031 1.956 . S
C972 C974 1.348 . S
C972 C975 1.356 . S
C972 O1028 1.325 . S
N973 C976 1.314 . S
N973 C977 1.279 . S
C974 C972 1.348 . S
C974 C976 1.353 . S
C974 H1032 0.929 . S
C975 C972 1.356 . S
C975 C977 1.358 . S
C975 H1033 0.930 . S
C976 N973 1.314 . S
C976 C974 1.353 . S
C976 H1034 0.930 . S
C977 N973 1.279 . S
C977 C975 1.358 . S
C977 H1035 0.930 . S
C978 C981 1.348 . S
C978 C982 1.356 . S
C978 O1029 1.325 . S
C979 N980 1.279 . S
C979 C982 1.358 . S
C979 H1036 0.930 . S
N980 C979 1.279 . S
N980 C983 1.314 . S
C981 C978 1.348 . S
C981 C983 1.353 . S
C981 H1037 0.929 . S
C982 C978 1.356 . S
C982 C979 1.358 . S
C982 H1038 0.930 . S
C983 N980 1.314 . S
C983 C981 1.353 . S
C983 H1039 0.930 . S
C984 N985 1.314 . S
C984 C989 1.353 . S
C984 H990 0.930 . S
N985 Li968 1.990 . S
N985 C984 1.314 . S
N985 C987 1.279 . S
C986 C987 1.358 . S
C986 C988 1.356 . S
C986 H1040 0.930 . S
C987 N985 1.279 . S
C987 C986 1.358 . S
C987 H991 0.930 . S
C988 C986 1.356 . S
C988 C989 1.348 . S
C989 C984 1.353 . S
C989 C988 1.348 . S
C989 H1041 0.929 . S
H990 C984 0.930 . S
H991 C987 0.930 . S
C992 N993 1.314 . S
C992 C994 1.353 . S
C992 H998 0.930 . S
N993 Li969 1.990 . S
N993 C992 1.314 . S
N993 C996 1.279 . S
C994 C992 1.353 . S
C994 C997 1.348 . S
C994 H1042 0.929 . S
C995 C996 1.358 . S
C995 C997 1.356 . S
C995 H1043 0.930 . S
C996 N993 1.279 . S
C996 C995 1.358 . S
C996 H999 0.930 . S
C997 C994 1.348 . S
C997 C995 1.356 . S
H998 C992 0.930 . S
H999 C996 0.930 . S
C1000 C1002 1.348 . S
C1000 C1003 1.356 . S
C1000 O1030 1.325 . S
N1001 C1004 1.314 . S
N1001 C1005 1.279 . S
C1002 C1000 1.348 . S
C1002 C1004 1.353 . S
C1002 H1044 0.929 . S
C1003 C1000 1.356 . S
C1003 C1005 1.358 . S
C1003 H1045 0.930 . S
C1004 N1001 1.314 . S
C1004 C1002 1.353 . S
C1004 H1046 0.930 . S
C1005 N1001 1.279 . S
C1005 C1003 1.358 . S
C1005 H1047 0.930 . S
C1006 C1007 1.348 . S
C1006 C1008 1.356 . S
C1006 O1031 1.325 . S
C1007 C1006 1.348 . S
C1007 C1009 1.353 . S
C1007 H1048 0.929 . S
C1008 C1006 1.356 . S
C1008 C1010 1.358 . S
C1008 H1049 0.930 . S
C1009 C1007 1.353 . S
C1009 N1011 1.314 . S
C1009 H1050 0.930 . S
C1010 C1008 1.358 . S
C1010 N1011 1.279 . S
C1010 H1051 0.930 . S
N1011 C1009 1.314 . S
N1011 C1010 1.279 . S
C1012 C1014 1.353 . S
C1012 N1015 1.314 . S
C1012 H1018 0.930 . S
C1013 N1015 1.279 . S
C1013 C1016 1.358 . S
C1013 H1019 0.930 . S
C1014 C1012 1.353 . S
C1014 C1017 1.348 . S
C1014 H1052 0.929 . S
N1015 Li970 1.990 . S
N1015 C1012 1.314 . S
N1015 C1013 1.279 . S
C1016 C1013 1.358 . S
C1016 C1017 1.356 . S
C1016 H1053 0.930 . S
C1017 C1014 1.348 . S
C1017 C1016 1.356 . S
H1018 C1012 0.930 . S
H1019 C1013 0.930 . S
C1020 N1021 1.314 . S
C1020 C1022 1.353 . S
C1020 H1026 0.930 . S
N1021 Li971 1.990 . S
N1021 C1020 1.314 . S
N1021 C1024 1.279 . S
C1022 C1020 1.353 . S
C1022 C1025 1.348 . S
C1022 H1054 0.929 . S
C1023 C1024 1.358 . S
C1023 C1025 1.356 . S
C1023 H1055 0.930 . S
C1024 N1021 1.279 . S
C1024 C1023 1.358 . S
C1024 H1027 0.930 . S
C1025 C1022 1.348 . S
C1025 C1023 1.356 . S
H1026 C1020 0.930 . S
H1027 C1024 0.930 . S
O1028 Li968 1.956 . S
O1028 Li969 1.970 . S
O1028 Li970 1.961 . S
O1028 C972 1.325 . S
O1029 Li968 1.970 . S
O1029 Li969 1.956 . S
O1029 Li971 1.961 . S
O1029 C978 1.325 . S
O1030 Li968 1.961 . S
O1030 Li970 1.956 . S
O1030 Li971 1.970 . S
O1030 C1000 1.325 . S
O1031 Li969 1.961 . S
O1031 Li970 1.970 . S
O1031 Li971 1.956 . S
O1031 C1006 1.325 . S
H1032 C974 0.929 . S
H1033 C975 0.930 . S
H1034 C976 0.930 . S
H1035 C977 0.930 . S
H1036 C979 0.930 . S
H1037 C981 0.929 . S
H1038 C982 0.930 . S
H1039 C983 0.930 . S
H1040 C986 0.930 . S
H1041 C989 0.929 . S
H1042 C994 0.929 . S
H1043 C995 0.930 . S
H1044 C1002 0.929 . S
H1045 C1003 0.930 . S
H1046 C1004 0.930 . S
H1047 C1005 0.930 . S
H1048 C1007 0.929 . S
H1049 C1008 0.930 . S
H1050 C1009 0.930 . S
H1051 C1010 0.930 . S
H1052 C1014 0.929 . S
H1053 C1016 0.930 . S
H1054 C1022 0.929 . S
H1055 C1023 0.930 . S
H1056 C1062 0.930 . S
H1057 C1065 0.930 . S
H1058 C1066 0.930 . S
H1059 C1067 0.930 . S
H1060 C1070 0.930 . S
H1061 C1071 0.930 . S
C1062 H1056 0.930 . S
C1062 C1063 1.355 . S
C1062 C1064 1.415 . S
C1063 C1062 1.355 . S
C1063 C1065 1.419 1_556 S
C1064 C1062 1.415 . S
C1064 C1069 1.425 1_566 S
C1064 C1071 1.409 1_565 S
C1065 H1057 0.930 . S
C1065 C1063 1.419 1_554 S
C1065 C1066 1.362 . S
C1066 H1058 0.930 . S
C1066 C1065 1.362 . S
C1066 C1069 1.409 1_565 S
C1067 H1059 0.930 . S
C1067 C1068 1.355 . S
C1067 C1069 1.415 . S
C1068 C1067 1.355 . S
C1068 C1070 1.419 1_554 S
C1069 C1064 1.425 1_544 S
C1069 C1066 1.409 1_545 S
C1069 C1067 1.415 . S
C1070 H1060 0.930 . S
C1070 C1068 1.419 1_556 S
C1070 C1071 1.362 . S
C1071 H1061 0.930 . S
C1071 C1064 1.409 1_545 S
C1071 C1070 1.362 . S
H1072 C1078 0.930 . S
H1073 C1081 0.930 . S
H1074 C1082 0.930 . S
H1075 C1083 0.930 . S
H1076 C1086 0.930 . S
H1077 C1087 0.930 . S
C1078 H1072 0.930 . S
C1078 C1079 1.355 . S
C1078 C1080 1.415 . S
C1079 C1078 1.355 . S
C1079 C1081 1.419 . S
C1080 C1078 1.415 . S
C1080 C1085 1.425 . S
C1080 C1087 1.409 . S
C1081 H1073 0.930 . S
C1081 C1079 1.419 . S
C1081 C1082 1.362 . S
C1082 H1074 0.930 . S
C1082 C1081 1.362 . S
C1082 C1085 1.409 . S
C1083 H1075 0.930 . S
C1083 C1084 1.355 . S
C1083 C1085 1.415 . S
C1084 C1083 1.355 . S
C1084 C1086 1.419 . S
C1085 C1080 1.425 . S
C1085 C1082 1.409 . S
C1085 C1083 1.415 . S
C1086 H1076 0.930 . S
C1086 C1084 1.419 . S
C1086 C1087 1.362 . S
C1087 H1077 0.930 . S
C1087 C1080 1.409 . S
C1087 C1086 1.362 . S
H1088 C1094 0.930 . S
H1089 C1097 0.930 . S
H1090 C1098 0.930 . S
H1091 C1099 0.930 . S
H1092 C1102 0.930 . S
H1093 C1103 0.930 . S
C1094 H1088 0.930 . S
C1094 C1095 1.355 . S
C1094 C1096 1.415 . S
C1095 C1094 1.355 . S
C1095 C1097 1.419 . S
C1096 C1094 1.415 . S
C1096 C1101 1.425 1_655 S
C1096 C1103 1.409 1_655 S
C1097 H1089 0.930 . S
C1097 C1095 1.419 . S
C1097 C1098 1.362 . S
C1098 H1090 0.930 . S
C1098 C1097 1.362 . S
C1098 C1101 1.409 1_655 S
C1099 H1091 0.930 . S
C1099 C1100 1.355 . S
C1099 C1101 1.415 . S
C1100 C1099 1.355 . S
C1100 C1102 1.419 . S
C1101 C1096 1.425 1_455 S
C1101 C1098 1.409 1_455 S
C1101 C1099 1.415 . S
C1102 H1092 0.930 . S
C1102 C1100 1.419 . S
C1102 C1103 1.362 . S
C1103 H1093 0.930 . S
C1103 C1096 1.409 1_455 S
C1103 C1102 1.362 . S
H1104 C1110 0.930 . S
H1105 C1113 0.930 . S
H1106 C1114 0.930 . S
H1107 C1115 0.930 . S
H1108 C1118 0.930 . S
H1109 C1119 0.930 . S
C1110 H1104 0.930 . S
C1110 C1111 1.355 . S
C1110 C1112 1.415 . S
C1111 C1110 1.355 . S
C1111 C1113 1.419 1_554 S
C1112 C1110 1.415 . S
C1112 C1117 1.425 1_564 S
C1112 C1119 1.409 1_565 S
C1113 H1105 0.930 . S
C1113 C1111 1.419 1_556 S
C1113 C1114 1.362 . S
C1114 H1106 0.930 . S
C1114 C1113 1.362 . S
C1114 C1117 1.409 1_565 S
C1115 H1107 0.930 . S
C1115 C1116 1.355 . S
C1115 C1117 1.415 . S
C1116 C1115 1.355 . S
C1116 C1118 1.419 1_556 S
C1117 C1112 1.425 1_546 S
C1117 C1114 1.409 1_545 S
C1117 C1115 1.415 . S
C1118 H1108 0.930 . S
C1118 C1116 1.419 1_554 S
C1118 C1119 1.362 . S
C1119 H1109 0.930 . S
C1119 C1112 1.409 1_545 S
C1119 C1118 1.362 . S
H1120 C1126 0.930 . S
H1121 C1129 0.930 . S
H1122 C1130 0.930 . S
H1123 C1131 0.930 . S
H1124 C1134 0.930 . S
H1125 C1135 0.930 . S
C1126 H1120 0.930 . S
C1126 C1127 1.355 . S
C1126 C1128 1.415 . S
C1127 C1126 1.355 . S
C1127 C1129 1.419 . S
C1128 C1126 1.415 . S
C1128 C1133 1.425 . S
C1128 C1135 1.409 . S
C1129 H1121 0.930 . S
C1129 C1127 1.419 . S
C1129 C1130 1.362 . S
C1130 H1122 0.930 . S
C1130 C1129 1.362 . S
C1130 C1133 1.409 . S
C1131 H1123 0.930 . S
C1131 C1132 1.355 . S
C1131 C1133 1.415 . S
C1132 C1131 1.355 . S
C1132 C1134 1.419 . S
C1133 C1128 1.425 . S
C1133 C1130 1.409 . S
C1133 C1131 1.415 . S
C1134 H1124 0.930 . S
C1134 C1132 1.419 . S
C1134 C1135 1.362 . S
C1135 H1125 0.930 . S
C1135 C1128 1.409 . S
C1135 C1134 1.362 . S
H1136 C1142 0.930 . S
H1137 C1145 0.930 . S
H1138 C1146 0.930 . S
H1139 C1147 0.930 . S
H1140 C1150 0.930 . S
H1141 C1151 0.930 . S
C1142 H1136 0.930 . S
C1142 C1143 1.355 . S
C1142 C1144 1.415 . S
C1143 C1142 1.355 . S
C1143 C1145 1.419 . S
C1144 C1142 1.415 . S
C1144 C1149 1.425 1_655 S
C1144 C1151 1.409 1_655 S
C1145 H1137 0.930 . S
C1145 C1143 1.419 . S
C1145 C1146 1.362 . S
C1146 H1138 0.930 . S
C1146 C1145 1.362 . S
C1146 C1149 1.409 1_655 S
C1147 H1139 0.930 . S
C1147 C1148 1.355 . S
C1147 C1149 1.415 . S
C1148 C1147 1.355 . S
C1148 C1150 1.419 . S
C1149 C1144 1.425 1_455 S
C1149 C1146 1.409 1_455 S
C1149 C1147 1.415 . S
C1150 H1140 0.930 . S
C1150 C1148 1.419 . S
C1150 C1151 1.362 . S
C1151 H1141 0.930 . S
C1151 C1144 1.409 1_455 S
C1151 C1150 1.362 . S
H1152 C1158 0.930 . S
H1153 C1161 0.930 . S
H1154 C1162 0.930 . S
H1155 C1163 0.930 . S
H1156 C1166 0.930 . S
H1157 C1167 0.930 . S
C1158 H1152 0.930 . S
C1158 C1159 1.355 . S
C1158 C1160 1.415 . S
C1159 C1158 1.355 . S
C1159 C1161 1.419 1_556 S
C1160 C1158 1.415 . S
C1160 C1165 1.425 1_556 S
C1160 C1167 1.409 . S
C1161 H1153 0.930 . S
C1161 C1159 1.419 1_554 S
C1161 C1162 1.362 . S
C1162 H1154 0.930 . S
C1162 C1161 1.362 . S
C1162 C1165 1.409 . S
C1163 H1155 0.930 . S
C1163 C1164 1.355 . S
C1163 C1165 1.415 . S
C1164 C1163 1.355 . S
C1164 C1166 1.419 1_554 S
C1165 C1160 1.425 1_554 S
C1165 C1162 1.409 . S
C1165 C1163 1.415 . S
C1166 H1156 0.930 . S
C1166 C1164 1.419 1_556 S
C1166 C1167 1.362 . S
C1167 H1157 0.930 . S
C1167 C1160 1.409 . S
C1167 C1166 1.362 . S
H1168 C1174 0.930 . S
H1169 C1177 0.930 . S
H1170 C1178 0.930 . S
H1171 C1179 0.930 . S
H1172 C1182 0.930 . S
H1173 C1183 0.930 . S
C1174 H1168 0.930 . S
C1174 C1175 1.355 . S
C1174 C1176 1.415 . S
C1175 C1174 1.355 . S
C1175 C1177 1.419 . S
C1176 C1174 1.415 . S
C1176 C1181 1.425 . S
C1176 C1183 1.409 . S
C1177 H1169 0.930 . S
C1177 C1175 1.419 . S
C1177 C1178 1.362 . S
C1178 H1170 0.930 . S
C1178 C1177 1.362 . S
C1178 C1181 1.409 . S
C1179 H1171 0.930 . S
C1179 C1180 1.355 . S
C1179 C1181 1.415 . S
C1180 C1179 1.355 . S
C1180 C1182 1.419 . S
C1181 C1176 1.425 . S
C1181 C1178 1.409 . S
C1181 C1179 1.415 . S
C1182 H1172 0.930 . S
C1182 C1180 1.419 . S
C1182 C1183 1.362 . S
C1183 H1173 0.930 . S
C1183 C1176 1.409 . S
C1183 C1182 1.362 . S
H1184 C1190 0.930 . S
H1185 C1193 0.930 . S
H1186 C1194 0.930 . S
H1187 C1195 0.930 . S
H1188 C1198 0.930 . S
H1189 C1199 0.930 . S
C1190 H1184 0.930 . S
C1190 C1191 1.355 . S
C1190 C1192 1.415 . S
C1191 C1190 1.355 . S
C1191 C1193 1.419 . S
C1192 C1190 1.415 . S
C1192 C1197 1.425 . S
C1192 C1199 1.409 . S
C1193 H1185 0.930 . S
C1193 C1191 1.419 . S
C1193 C1194 1.362 . S
C1194 H1186 0.930 . S
C1194 C1193 1.362 . S
C1194 C1197 1.409 . S
C1195 H1187 0.930 . S
C1195 C1196 1.355 . S
C1195 C1197 1.415 . S
C1196 C1195 1.355 . S
C1196 C1198 1.419 . S
C1197 C1192 1.425 . S
C1197 C1194 1.409 . S
C1197 C1195 1.415 . S
C1198 H1188 0.930 . S
C1198 C1196 1.419 . S
C1198 C1199 1.362 . S
C1199 H1189 0.930 . S
C1199 C1192 1.409 . S
C1199 C1198 1.362 . S
H1200 C1206 0.930 . S
H1201 C1209 0.930 . S
H1202 C1210 0.930 . S
H1203 C1211 0.930 . S
H1204 C1214 0.930 . S
H1205 C1215 0.930 . S
C1206 H1200 0.930 . S
C1206 C1207 1.355 . S
C1206 C1208 1.415 . S
C1207 C1206 1.355 . S
C1207 C1209 1.419 1_556 S
C1208 C1206 1.415 . S
C1208 C1213 1.425 1_556 S
C1208 C1215 1.409 . S
C1209 H1201 0.930 . S
C1209 C1207 1.419 1_554 S
C1209 C1210 1.362 . S
C1210 H1202 0.930 . S
C1210 C1209 1.362 . S
C1210 C1213 1.409 . S
C1211 H1203 0.930 . S
C1211 C1212 1.355 . S
C1211 C1213 1.415 . S
C1212 C1211 1.355 . S
C1212 C1214 1.419 1_554 S
C1213 C1208 1.425 1_554 S
C1213 C1210 1.409 . S
C1213 C1211 1.415 . S
C1214 H1204 0.930 . S
C1214 C1212 1.419 1_556 S
C1214 C1215 1.362 . S
C1215 H1205 0.930 . S
C1215 C1208 1.409 . S
C1215 C1214 1.362 . S
H1216 C1222 0.930 . S
H1217 C1225 0.930 . S
H1218 C1226 0.930 . S
H1219 C1227 0.930 . S
H1220 C1230 0.930 . S
H1221 C1231 0.930 . S
C1222 H1216 0.930 . S
C1222 C1223 1.355 . S
C1222 C1224 1.415 . S
C1223 C1222 1.355 . S
C1223 C1225 1.419 . S
C1224 C1222 1.415 . S
C1224 C1229 1.425 . S
C1224 C1231 1.409 . S
C1225 H1217 0.930 . S
C1225 C1223 1.419 . S
C1225 C1226 1.362 . S
C1226 H1218 0.930 . S
C1226 C1225 1.362 . S
C1226 C1229 1.409 . S
C1227 H1219 0.930 . S
C1227 C1228 1.355 . S
C1227 C1229 1.415 . S
C1228 C1227 1.355 . S
C1228 C1230 1.419 . S
C1229 C1224 1.425 . S
C1229 C1226 1.409 . S
C1229 C1227 1.415 . S
C1230 H1220 0.930 . S
C1230 C1228 1.419 . S
C1230 C1231 1.362 . S
C1231 H1221 0.930 . S
C1231 C1224 1.409 . S
C1231 C1230 1.362 . S
H1232 C1238 0.930 . S
H1233 C1241 0.930 . S
H1234 C1242 0.930 . S
H1235 C1243 0.930 . S
H1236 C1246 0.930 . S
H1237 C1247 0.930 . S
C1238 H1232 0.930 . S
C1238 C1239 1.355 . S
C1238 C1240 1.415 . S
C1239 C1238 1.355 . S
C1239 C1241 1.419 . S
C1240 C1238 1.415 . S
C1240 C1245 1.425 . S
C1240 C1247 1.409 . S
C1241 H1233 0.930 . S
C1241 C1239 1.419 . S
C1241 C1242 1.362 . S
C1242 H1234 0.930 . S
C1242 C1241 1.362 . S
C1242 C1245 1.409 . S
C1243 H1235 0.930 . S
C1243 C1244 1.355 . S
C1243 C1245 1.415 . S
C1244 C1243 1.355 . S
C1244 C1246 1.419 . S
C1245 C1240 1.425 . S
C1245 C1242 1.409 . S
C1245 C1243 1.415 . S
C1246 H1236 0.930 . S
C1246 C1244 1.419 . S
C1246 C1247 1.362 . S
C1247 H1237 0.930 . S
C1247 C1240 1.409 . S
C1247 C1246 1.362 . S
H1248 C1254 0.930 . S
H1249 C1257 0.930 . S
H1250 C1258 0.930 . S
H1251 C1259 0.930 . S
H1252 C1262 0.930 . S
H1253 C1263 0.930 . S
C1254 H1248 0.930 . S
C1254 C1255 1.355 . S
C1254 C1256 1.415 . S
C1255 C1254 1.355 . S
C1255 C1257 1.419 . S
C1256 C1254 1.415 . S
C1256 C1261 1.425 . S
C1256 C1263 1.409 . S
C1257 H1249 0.930 . S
C1257 C1255 1.419 . S
C1257 C1258 1.362 . S
C1258 H1250 0.930 . S
C1258 C1257 1.362 . S
C1258 C1261 1.409 . S
C1259 H1251 0.930 . S
C1259 C1260 1.355 . S
C1259 C1261 1.415 . S
C1260 C1259 1.355 . S
C1260 C1262 1.419 . S
C1261 C1256 1.425 . S
C1261 C1258 1.409 . S
C1261 C1259 1.415 . S
C1262 H1252 0.930 . S
C1262 C1260 1.419 . S
C1262 C1263 1.362 . S
C1263 H1253 0.930 . S
C1263 C1256 1.409 . S
C1263 C1262 1.362 . S
H1264 C1270 0.930 . S
H1265 C1273 0.930 . S
H1266 C1274 0.930 . S
H1267 C1275 0.930 . S
H1268 C1278 0.930 . S
H1269 C1279 0.930 . S
C1270 H1264 0.930 . S
C1270 C1271 1.355 . S
C1270 C1272 1.415 . S
C1271 C1270 1.355 . S
C1271 C1273 1.419 . S
C1272 C1270 1.415 . S
C1272 C1277 1.425 . S
C1272 C1279 1.409 . S
C1273 H1265 0.930 . S
C1273 C1271 1.419 . S
C1273 C1274 1.362 . S
C1274 H1266 0.930 . S
C1274 C1273 1.362 . S
C1274 C1277 1.409 . S
C1275 H1267 0.930 . S
C1275 C1276 1.355 . S
C1275 C1277 1.415 . S
C1276 C1275 1.355 . S
C1276 C1278 1.419 . S
C1277 C1272 1.425 . S
C1277 C1274 1.409 . S
C1277 C1275 1.415 . S
C1278 H1268 0.930 . S
C1278 C1276 1.419 . S
C1278 C1279 1.362 . S
C1279 H1269 0.930 . S
C1279 C1272 1.409 . S
C1279 C1278 1.362 . S
H1280 C1286 0.930 . S
H1281 C1289 0.930 . S
H1282 C1290 0.930 . S
H1283 C1291 0.930 . S
H1284 C1294 0.930 . S
H1285 C1295 0.930 . S
C1286 H1280 0.930 . S
C1286 C1287 1.355 . S
C1286 C1288 1.415 . S
C1287 C1286 1.355 . S
C1287 C1289 1.419 . S
C1288 C1286 1.415 . S
C1288 C1293 1.425 . S
C1288 C1295 1.409 . S
C1289 H1281 0.930 . S
C1289 C1287 1.419 . S
C1289 C1290 1.362 . S
C1290 H1282 0.930 . S
C1290 C1289 1.362 . S
C1290 C1293 1.409 . S
C1291 H1283 0.930 . S
C1291 C1292 1.355 . S
C1291 C1293 1.415 . S
C1292 C1291 1.355 . S
C1292 C1294 1.419 . S
C1293 C1288 1.425 . S
C1293 C1290 1.409 . S
C1293 C1291 1.415 . S
C1294 H1284 0.930 . S
C1294 C1292 1.419 . S
C1294 C1295 1.362 . S
C1295 H1285 0.930 . S
C1295 C1288 1.409 . S
C1295 C1294 1.362 . S
H1296 C1302 0.930 . S
H1297 C1305 0.930 . S
H1298 C1306 0.930 . S
H1299 C1307 0.930 . S
H1300 C1310 0.930 . S
H1301 C1311 0.930 . S
C1302 H1296 0.930 . S
C1302 C1303 1.355 . S
C1302 C1304 1.415 . S
C1303 C1302 1.355 . S
C1303 C1305 1.419 . S
C1304 C1302 1.415 . S
C1304 C1309 1.425 . S
C1304 C1311 1.409 . S
C1305 H1297 0.930 . S
C1305 C1303 1.419 . S
C1305 C1306 1.362 . S
C1306 H1298 0.930 . S
C1306 C1305 1.362 . S
C1306 C1309 1.409 . S
C1307 H1299 0.930 . S
C1307 C1308 1.355 . S
C1307 C1309 1.415 . S
C1308 C1307 1.355 . S
C1308 C1310 1.419 . S
C1309 C1304 1.425 . S
C1309 C1306 1.409 . S
C1309 C1307 1.415 . S
C1310 H1300 0.930 . S
C1310 C1308 1.419 . S
C1310 C1311 1.362 . S
C1311 H1301 0.930 . S
C1311 C1304 1.409 . S
C1311 C1310 1.362 . S
H1312 C1318 0.930 . S
H1313 C1321 0.930 . S
H1314 C1322 0.930 . S
H1315 C1323 0.930 . S
H1316 C1326 0.930 . S
H1317 C1327 0.930 . S
C1318 H1312 0.930 . S
C1318 C1319 1.355 . S
C1318 C1320 1.415 . S
C1319 C1318 1.355 . S
C1319 C1321 1.419 . S
C1320 C1318 1.415 . S
C1320 C1325 1.425 . S
C1320 C1327 1.409 . S
C1321 H1313 0.930 . S
C1321 C1319 1.419 . S
C1321 C1322 1.362 . S
C1322 H1314 0.930 . S
C1322 C1321 1.362 . S
C1322 C1325 1.409 . S
C1323 H1315 0.930 . S
C1323 C1324 1.355 . S
C1323 C1325 1.415 . S
C1324 C1323 1.355 . S
C1324 C1326 1.419 . S
C1325 C1320 1.425 . S
C1325 C1322 1.409 . S
C1325 C1323 1.415 . S
C1326 H1316 0.930 . S
C1326 C1324 1.419 . S
C1326 C1327 1.362 . S
C1327 H1317 0.930 . S
C1327 C1320 1.409 . S
C1327 C1326 1.362 . S
H1328 C1334 0.930 . S
H1329 C1337 0.930 . S
H1330 C1338 0.930 . S
H1331 C1339 0.930 . S
H1332 C1342 0.930 . S
H1333 C1343 0.930 . S
C1334 H1328 0.930 . S
C1334 C1335 1.355 . S
C1334 C1336 1.415 . S
C1335 C1334 1.355 . S
C1335 C1337 1.419 . S
C1336 C1334 1.415 . S
C1336 C1341 1.425 . S
C1336 C1343 1.409 . S
C1337 H1329 0.930 . S
C1337 C1335 1.419 . S
C1337 C1338 1.362 . S
C1338 H1330 0.930 . S
C1338 C1337 1.362 . S
C1338 C1341 1.409 . S
C1339 H1331 0.930 . S
C1339 C1340 1.355 . S
C1339 C1341 1.415 . S
C1340 C1339 1.355 . S
C1340 C1342 1.419 . S
C1341 C1336 1.425 . S
C1341 C1338 1.409 . S
C1341 C1339 1.415 . S
C1342 H1332 0.930 . S
C1342 C1340 1.419 . S
C1342 C1343 1.362 . S
C1343 H1333 0.930 . S
C1343 C1336 1.409 . S
C1343 C1342 1.362 . S
H1344 C1350 0.930 . S
H1345 C1353 0.930 . S
H1346 C1354 0.930 . S
H1347 C1355 0.930 . S
H1348 C1358 0.930 . S
H1349 C1359 0.928 1_556 S
C1350 H1344 0.930 . S
C1350 C1351 1.355 . S
C1350 C1352 1.415 . S
C1351 C1350 1.355 . S
C1351 C1353 1.419 . S
C1352 C1350 1.415 . S
C1352 C1357 1.425 . S
C1352 C1359 1.409 . S
C1353 H1345 0.930 . S
C1353 C1351 1.419 . S
C1353 C1354 1.362 . S
C1354 H1346 0.930 . S
C1354 C1353 1.362 . S
C1354 C1357 1.409 . S
C1355 H1347 0.930 . S
C1355 C1356 1.355 . S
C1355 C1357 1.415 . S
C1356 C1355 1.355 . S
C1356 C1358 1.419 . S
C1357 C1352 1.425 . S
C1357 C1354 1.409 . S
C1357 C1355 1.415 . S
C1358 H1348 0.930 . S
C1358 C1356 1.419 . S
C1358 C1359 1.362 . S
C1359 H1349 0.928 1_554 S
C1359 C1352 1.409 . S
C1359 C1358 1.362 . S
H1360 C1366 0.930 . S
H1361 C1369 0.930 . S
H1362 C1370 0.930 . S
H1363 C1371 0.930 . S
H1364 C1374 0.930 . S
H1365 C1375 0.930 . S
C1366 H1360 0.930 . S
C1366 C1367 1.355 1_455 S
C1366 C1368 1.415 . S
C1367 C1366 1.355 1_655 S
C1367 C1369 1.419 . S
C1368 C1366 1.415 . S
C1368 C1373 1.425 1_455 S
C1368 C1375 1.409 . S
C1369 H1361 0.930 . S
C1369 C1367 1.419 . S
C1369 C1370 1.362 . S
C1370 H1362 0.930 . S
C1370 C1369 1.362 . S
C1370 C1373 1.409 . S
C1371 H1363 0.930 . S
C1371 C1372 1.355 1_655 S
C1371 C1373 1.415 . S
C1372 C1371 1.355 1_455 S
C1372 C1374 1.419 . S
C1373 C1368 1.425 1_655 S
C1373 C1370 1.409 . S
C1373 C1371 1.415 . S
C1374 H1364 0.930 . S
C1374 C1372 1.419 . S
C1374 C1375 1.362 . S
C1375 H1365 0.930 . S
C1375 C1368 1.409 . S
C1375 C1374 1.362 . S
H1376 C1382 0.930 . S
H1377 C1385 0.930 . S
H1378 C1386 0.930 . S
H1379 C1387 0.930 . S
H1380 C1390 0.930 . S
H1381 C1391 0.930 . S
C1382 H1376 0.930 . S
C1382 C1383 1.355 1_565 S
C1382 C1384 1.415 . S
C1383 C1382 1.355 1_545 S
C1383 C1385 1.419 . S
C1384 C1382 1.415 . S
C1384 C1389 1.425 1_565 S
C1384 C1391 1.409 . S
C1385 H1377 0.930 . S
C1385 C1383 1.419 . S
C1385 C1386 1.362 . S
C1386 H1378 0.930 . S
C1386 C1385 1.362 . S
C1386 C1389 1.409 . S
C1387 H1379 0.930 . S
C1387 C1388 1.355 1_545 S
C1387 C1389 1.415 . S
C1388 C1387 1.355 1_565 S
C1388 C1390 1.419 . S
C1389 C1384 1.425 1_545 S
C1389 C1386 1.409 . S
C1389 C1387 1.415 . S
C1390 H1380 0.930 . S
C1390 C1388 1.419 . S
C1390 C1391 1.362 . S
C1391 H1381 0.930 . S
C1391 C1384 1.409 . S
C1391 C1390 1.362 . S
H1392 C1398 0.930 . S
H1393 C1401 0.930 . S
H1394 C1402 0.930 . S
H1395 C1403 0.930 . S
H1396 C1406 0.930 . S
H1397 C1407 0.930 . S
C1398 H1392 0.930 . S
C1398 C1399 1.355 . S
C1398 C1400 1.415 . S
C1399 C1398 1.355 . S
C1399 C1401 1.419 . S
C1400 C1398 1.415 . S
C1400 C1405 1.425 . S
C1400 C1407 1.409 . S
C1401 H1393 0.930 . S
C1401 C1399 1.419 . S
C1401 C1402 1.362 . S
C1402 H1394 0.930 . S
C1402 C1401 1.362 . S
C1402 C1405 1.409 . S
C1403 H1395 0.930 . S
C1403 C1404 1.355 . S
C1403 C1405 1.415 . S
C1404 C1403 1.355 . S
C1404 C1406 1.419 . S
C1405 C1400 1.425 . S
C1405 C1402 1.409 . S
C1405 C1403 1.415 . S
C1406 H1396 0.930 . S
C1406 C1404 1.419 . S
C1406 C1407 1.362 . S
C1407 H1397 0.930 . S
C1407 C1400 1.409 . S
C1407 C1406 1.362 . S
H1408 C1414 0.930 . S
H1409 C1417 0.930 . S
H1410 C1418 0.930 . S
H1411 C1419 0.930 . S
H1412 C1422 0.930 . S
H1413 C1423 0.930 1_554 S
C1414 H1408 0.930 . S
C1414 C1415 1.359 . S
C1414 C1416 1.398 . S
C1415 C1414 1.359 . S
C1415 C1417 1.421 1_455 S
C1416 C1414 1.398 . S
C1416 C1421 1.436 1_455 S
C1416 C1423 1.422 . S
C1417 H1409 0.930 . S
C1417 C1415 1.421 1_655 S
C1417 C1418 1.362 . S
C1418 H1410 0.930 . S
C1418 C1417 1.362 . S
C1418 C1421 1.422 . S
C1419 H1411 0.930 . S
C1419 C1420 1.359 . S
C1419 C1421 1.398 . S
C1420 C1419 1.359 . S
C1420 C1422 1.421 1_655 S
C1421 C1416 1.436 1_655 S
C1421 C1418 1.422 . S
C1421 C1419 1.398 . S
C1422 H1412 0.930 . S
C1422 C1420 1.421 1_455 S
C1422 C1423 1.362 . S
C1423 H1413 0.930 1_556 S
C1423 C1416 1.422 . S
C1423 C1422 1.362 . S
H1424 C1430 0.935 . S
H1425 C1433 0.931 . S
H1426 C1434 0.930 . S
H1427 C1435 0.935 . S
H1428 C1438 0.931 . S
H1429 C1439 0.930 . S
C1430 H1424 0.935 . S
C1430 C1431 1.356 . S
C1430 C1432 1.402 1_565 S
C1431 C1430 1.356 . S
C1431 C1433 1.421 . S
C1432 C1430 1.402 1_545 S
C1432 C1437 1.426 1_545 S
C1432 C1439 1.409 . S
C1433 H1425 0.931 . S
C1433 C1431 1.421 . S
C1433 C1434 1.347 . S
C1434 H1426 0.930 . S
C1434 C1433 1.347 . S
C1434 C1437 1.409 . S
C1435 H1427 0.935 . S
C1435 C1436 1.356 . S
C1435 C1437 1.402 1_545 S
C1436 C1435 1.356 . S
C1436 C1438 1.421 . S
C1437 C1432 1.426 1_565 S
C1437 C1434 1.409 . S
C1437 C1435 1.402 1_565 S
C1438 H1428 0.931 . S
C1438 C1436 1.421 . S
C1438 C1439 1.347 . S
C1439 H1429 0.930 . S
C1439 C1432 1.409 . S
C1439 C1438 1.347 . S
C1063 C673 1.591 . S
C1068 C29 1.577 . S
C1079 C137 1.527 . S
C1084 C753 1.577 . S
C1095 C233 1.528 . S
C1100 C849 1.579 . S
C1111 C284 1.535 . S
C1116 C929 1.590 . S
C1127 C1025 1.590 . S
C1132 C372 1.579 . S
C1143 C557 1.535 . S
C1148 C460 1.545 . S
C1159 C909 0.997 . S
C1164 C49 0.986 . S
C1175 C117 0.988 . S
C1180 C988 0.988 . S
C1191 C196 1.002 . S
C1196 C577 1.009 . S
C1207 C636 0.987 . S
C1212 C321 0.989 . S
C1223 C733 0.989 . S
C1228 C409 1.002 . S
C1239 C812 0.995 . S
C1244 C497 1.007 . S
C1255 C20 1.641 . S
C1260 C761 1.651 . S
C1271 C145 1.639 . S
C1276 C841 1.650 . S
C1287 C937 1.647 . S
C1292 C225 1.648 . S
C1303 C293 1.644 . S
C1308 C1017 1.650 . S
C1319 C548 1.650 . S
C1324 C381 1.643 . S
C1335 C665 1.638 . S
C1340 C469 1.641 . S
C1351 C313 2.011 . S
C1356 C57 2.027 . S
C1367 C401 1.981 . S
C1372 C108 1.972 . S
C1383 C205 1.985 . S
C1388 C489 1.975 . S
C1399 C585 1.995 . S
C1404 C821 2.011 . S
C1415 C645 1.991 . S
C1420 C900 2.007 . S
C1431 C997 2.006 . S
C1436 C724 2.022 . S
