# Generated by pormake.
# Topology wll, (5)-cn, num edge types: 1
# Building blocks:
#     Node 0, Type 0, BuildingBlock: BEQFEK_clean_sbu_0, # of connection points: 5
#     Node 1, Type 0, BuildingBlock: BEQFEK_clean_sbu_0, # of connection points: 5
#     Node 2, Type 0, BuildingBlock: BEQFEK_clean_sbu_0, # of connection points: 5
#     Node 3, Type 0, BuildingBlock: BEQFEK_clean_sbu_0, # of connection points: 5
#     Node 4, Type 0, BuildingBlock: BEQFEK_clean_sbu_0, # of connection points: 5
#     Node 5, Type 0, BuildingBlock: BEQFEK_clean_sbu_0, # of connection points: 5
#     Node 6, Type 0, BuildingBlock: BEQFEK_clean_sbu_0, # of connection points: 5
#     Node 7, Type 0, BuildingBlock: BEQFEK_clean_sbu_0, # of connection points: 5
#     Node 8, Type 0, BuildingBlock: BEQFEK_clean_sbu_0, # of connection points: 5
#     Node 9, Type 0, BuildingBlock: BEQFEK_clean_sbu_0, # of connection points: 5
#     Node 10, Type 0, BuildingBlock: BEQFEK_clean_sbu_0, # of connection points: 5
#     Node 11, Type 0, BuildingBlock: BEQFEK_clean_sbu_0, # of connection points: 5
#     Node 12, Type 0, BuildingBlock: BEQFEK_clean_sbu_0, # of connection points: 5
#     Node 13, Type 0, BuildingBlock: BEQFEK_clean_sbu_0, # of connection points: 5
#     Node 14, Type 0, BuildingBlock: BEQFEK_clean_sbu_0, # of connection points: 5
#     Node 15, Type 0, BuildingBlock: BEQFEK_clean_sbu_0, # of connection points: 5
#     Node 16, Type 0, BuildingBlock: BEQFEK_clean_sbu_0, # of connection points: 5
#     Node 17, Type 0, BuildingBlock: BEQFEK_clean_sbu_0, # of connection points: 5
#     Edge 18, Type (0, 0), None
#     Edge 19, Type (0, 0), None
#     Edge 20, Type (0, 0), None
#     Edge 21, Type (0, 0), None
#     Edge 22, Type (0, 0), None
#     Edge 23, Type (0, 0), None
#     Edge 24, Type (0, 0), None
#     Edge 25, Type (0, 0), None
#     Edge 26, Type (0, 0), None
#     Edge 27, Type (0, 0), None
#     Edge 28, Type (0, 0), None
#     Edge 29, Type (0, 0), None
#     Edge 30, Type (0, 0), None
#     Edge 31, Type (0, 0), None
#     Edge 32, Type (0, 0), None
#     Edge 33, Type (0, 0), None
#     Edge 34, Type (0, 0), None
#     Edge 35, Type (0, 0), None
#     Edge 36, Type (0, 0), None
#     Edge 37, Type (0, 0), None
#     Edge 38, Type (0, 0), None
#     Edge 39, Type (0, 0), None
#     Edge 40, Type (0, 0), None
#     Edge 41, Type (0, 0), None
#     Edge 42, Type (0, 0), None
#     Edge 43, Type (0, 0), None
#     Edge 44, Type (0, 0), None
#     Edge 45, Type (0, 0), None
#     Edge 46, Type (0, 0), None
#     Edge 47, Type (0, 0), None
#     Edge 48, Type (0, 0), None
#     Edge 49, Type (0, 0), None
#     Edge 50, Type (0, 0), None
#     Edge 51, Type (0, 0), None
#     Edge 52, Type (0, 0), None
#     Edge 53, Type (0, 0), None
#     Edge 54, Type (0, 0), None
#     Edge 55, Type (0, 0), None
#     Edge 56, Type (0, 0), None
#     Edge 57, Type (0, 0), None
#     Edge 58, Type (0, 0), None
#     Edge 59, Type (0, 0), None
#     Edge 60, Type (0, 0), None
#     Edge 61, Type (0, 0), None
#     Edge 62, Type (0, 0), None
# Relax obj value: 0.251
# Max RMSD: 0.167
# Mean RMSD: 0.162
data_MOF--net-wll--node1-BEQFEK_clean_sbu_0--edge1-none
_symmetry_space_group_name_H-M    P1
_symmetry_Int_Tables_number       1
_symmetry_cell_setting            triclinic
loop_
_symmetry_equiv_pos_as_xyz
'x, y, z'
_cell_length_a     19.738581
_cell_length_b     19.757941
_cell_length_c     35.170504
_cell_angle_alpha  89.988662
_cell_angle_beta   90.015787
_cell_angle_gamma 120.01437
loop_
_atom_site_label
_atom_site_type_symbol
_atom_site_fract_x
_atom_site_fract_y
_atom_site_fract_z
_atom_type_partial_charge
Co0 Co 0.34367 0.36349 0.15707 0.0
Co1 Co 0.40856 0.31078 0.08879 0.0
C2 C 0.36901 0.22237 0.1611 0.0
O3 O 0.34743 0.26816 0.17519 0.0
O4 O 0.39358 0.23044 0.12702 0.0
C5 C 0.21367 0.32397 0.20774 0.0
O6 O 0.21078 0.25662 0.21223 0.0
C7 C 0.41142 0.21461 0.02623 0.0
C8 C 0.43541 0.29373 0.97747 0.0
C9 C 0.41043 0.2165 0.98662 0.0
N10 N 0.4313 0.28601 0.03949 0.0
N11 N 0.44761 0.33353 0.01019 0.0
C12 C 0.40044 0.14903 0.05147 0.0
H13 H 0.44219 0.17254 0.07557 0.0
H14 H 0.34042 0.1196 0.06347 0.0
H15 H 0.41131 0.10669 0.0358 0.0
C16 C 0.26948 0.39353 0.09212 0.0
N17 N 0.30402 0.35658 0.10808 0.0
N18 N 0.31624 0.31679 0.08199 0.0
C19 C 0.28285 0.32058 0.04916 0.0
C20 C 0.2553 0.37281 0.05398 0.0
C21 C 0.25827 0.45416 0.11209 0.0
H22 H 0.29637 0.47654 0.13752 0.0
H23 H 0.19621 0.42797 0.12089 0.0
H24 H 0.27231 0.50393 0.09279 0.0
O25 O 0.44925 0.45335 0.15485 0.0
O26 O 0.49722 0.41665 0.10638 0.0
H27 H 0.29631 0.27737 0.9952 0.0
H28 H 0.19682 0.24224 0.00895 0.0
C29 C 0.25584 0.25779 0.01954 0.0
H30 H 0.2539 0.20489 0.03157 0.0
H31 H 0.46119 0.39166 0.01243 0.0
O32 O 0.2702 0.37878 0.18953 0.0
C33 C 0.50453 0.46613 0.13196 0.0
Co34 Co 0.69456 0.994 0.15707 0.0
Co35 Co 0.74736 0.1116 0.08878 0.0
C36 C 0.83579 0.16058 0.1611 0.0
O37 O 0.78997 0.09319 0.17518 0.0
O38 O 0.82778 0.17705 0.127 0.0
C39 C 0.73427 0.90358 0.20765 0.0
O40 O 0.80173 0.96805 0.21206 0.0
C41 C 0.84346 0.21064 0.02617 0.0
C42 C 0.76421 0.15536 0.97744 0.0
C43 C 0.84151 0.20772 0.98657 0.0
N44 N 0.77204 0.15904 0.03946 0.0
N45 N 0.72443 0.12773 0.01017 0.0
C46 C 0.90913 0.26532 0.05139 0.0
H47 H 0.88562 0.28353 0.07548 0.0
H48 H 0.93862 0.23484 0.06341 0.0
H49 H 0.95149 0.31853 0.03569 0.0
C50 C 0.66448 0.88989 0.09211 0.0
N51 N 0.70147 0.96135 0.10807 0.0
N52 N 0.74136 1.01338 0.082 0.0
C53 C 0.73759 0.97625 0.04918 0.0
C54 C 0.68529 0.89648 0.05398 0.0
C55 C 0.60375 0.81802 0.11206 0.0
H56 H 0.58138 0.83368 0.13751 0.0
H57 H 0.62992 0.78216 0.12085 0.0
H58 H 0.55392 0.78233 0.09276 0.0
O59 O 0.60464 1.00964 0.15485 0.0
O60 O 0.64146 0.09433 0.10638 0.0
H61 H 0.78099 0.03299 0.99523 0.0
H62 H 0.81607 0.96868 0.00902 0.0
C63 C 0.80052 1.0121 0.01959 0.0
H64 H 0.85346 0.06304 0.03164 0.0
H65 H 0.66627 0.08311 0.01244 0.0
O66 O 0.67933 0.90527 0.18951 0.0
C67 C 0.59192 0.05218 0.13196 0.0
Co68 Co 0.06422 0.71448 0.15712 0.0
Co69 Co 0.94651 0.64964 0.08883 0.0
C70 C 0.89758 0.68913 0.1611 0.0
O71 O 0.965 0.71065 0.17519 0.0
O72 O 0.88105 0.66461 0.12701 0.0
C73 C 0.15447 0.84453 0.20775 0.0
O74 O 0.08987 0.84729 0.21215 0.0
C75 C 0.84741 0.64673 0.02623 0.0
C76 C 0.90275 0.62296 0.97748 0.0
C77 C 0.85037 0.64782 0.98663 0.0
N78 N 0.89902 0.62692 0.03951 0.0
N79 N 0.93036 0.61074 0.01021 0.0
C80 C 0.79267 0.65759 0.05145 0.0
H81 H 0.77442 0.61582 0.07552 0.0
H82 H 0.82319 0.71752 0.0635 0.0
H83 H 0.73943 0.64673 0.03575 0.0
C84 C 0.16847 0.78871 0.09218 0.0
N85 N 0.09694 0.75409 0.10814 0.0
N86 N 0.04485 0.74188 0.08206 0.0
C87 C 0.08199 0.77533 0.04924 0.0
C88 C 0.16185 0.80292 0.05405 0.0
C89 C 0.24045 0.80005 0.11214 0.0
H90 H 0.22484 0.76209 0.13761 0.0
H91 H 0.27629 0.8621 0.1209 0.0
H92 H 0.27621 0.78601 0.09285 0.0
O93 O 0.04854 0.60897 0.15492 0.0
O94 O 0.96375 0.56107 0.10646 0.0
H95 H 1.02518 0.76206 0.9953 0.0
H96 H 0.08956 0.86141 0.00913 0.0
C97 C 0.0461 0.8024 0.01968 0.0
H98 H 0.99511 0.8043 0.03175 0.0
H99 H 0.97501 0.59724 0.01247 0.0
O100 O 0.15293 0.78805 0.1896 0.0
C101 C 1.00595 0.55372 0.13204 0.0
Co102 Co 0.72458 0.68461 0.85554 0.0
Co103 Co 0.6597 0.73732 0.92382 0.0
C104 C 0.69924 0.82573 0.85151 0.0
O105 O 0.72081 0.77994 0.83742 0.0
O106 O 0.67467 0.81767 0.88559 0.0
C107 C 0.85457 0.72414 0.80487 0.0
O108 O 0.85747 0.79149 0.80039 0.0
C109 C 0.65688 0.83351 0.98638 0.0
C110 C 0.63287 0.7544 0.03515 0.0
C111 C 0.65791 0.83164 0.02598 0.0
N112 N 0.63697 0.76211 0.97312 0.0
N113 N 0.62064 0.71459 1.00243 0.0
C114 C 0.66786 0.89909 0.96113 0.0
H115 H 0.62611 0.87559 0.93704 0.0
H116 H 0.72788 0.92853 0.94914 0.0
H117 H 0.65698 0.94143 0.97681 0.0
C118 C 0.79876 0.65456 0.92049 0.0
N119 N 0.76423 0.69153 0.90453 0.0
N120 N 0.75201 0.73131 0.93062 0.0
C121 C 0.78539 0.7275 0.96344 0.0
C122 C 0.81294 0.67527 0.95863 0.0
C123 C 0.80994 0.59391 0.90052 0.0
H124 H 0.77184 0.57154 0.87508 0.0
H125 H 0.87201 0.62009 0.89171 0.0
H126 H 0.7959 0.54414 0.91981 0.0
O127 O 0.61899 0.59475 0.85776 0.0
O128 O 0.57103 0.63146 0.90623 0.0
H129 H 0.77194 0.7707 0.01741 0.0
H130 H 0.87143 0.80583 1.00366 0.0
C131 C 0.81241 0.79029 0.99307 0.0
H132 H 0.81437 0.8432 0.98104 0.0
H133 H 0.60703 0.65645 1.00019 0.0
O134 O 0.79804 0.66932 0.82308 0.0
C135 C 0.56371 0.58198 0.88065 0.0
Co136 Co 0.37369 0.05411 0.85554 0.0
Co137 Co 0.32089 0.93652 0.92383 0.0
C138 C 0.23245 0.88755 0.85151 0.0
O139 O 0.27828 0.95493 0.83743 0.0
O140 O 0.24047 0.87108 0.88561 0.0
C141 C 0.33398 0.14453 0.80497 0.0
O142 O 0.26651 0.08006 0.80055 0.0
C143 C 0.22476 0.8375 0.98644 0.0
C144 C 0.30402 0.89277 0.03517 0.0
C145 C 0.22671 0.84046 0.02604 0.0
N146 N 0.29619 0.88908 0.97315 0.0
N147 N 0.3438 0.92038 1.00244 0.0
C148 C 0.1591 0.78282 0.96122 0.0
H149 H 0.18261 0.76462 0.93713 0.0
H150 H 0.1296 0.81331 0.9492 0.0
H151 H 0.11674 0.72961 0.97691 0.0
C152 C 0.40378 0.15824 0.92049 0.0
N153 N 0.36678 0.08678 0.90453 0.0
N154 N 0.3269 0.03475 0.93061 0.0
C155 C 0.33067 0.07189 0.96343 0.0
C156 C 0.38298 0.15166 0.95863 0.0
C157 C 0.46453 0.23009 0.90054 0.0
H158 H 0.48689 0.21443 0.8751 0.0
H159 H 0.43837 0.26597 0.89175 0.0
H160 H 0.51436 0.26578 0.91984 0.0
O161 O 0.46361 0.03847 0.85776 0.0
O162 O 0.42678 0.95378 0.90623 0.0
H163 H 0.28729 1.01516 0.01738 0.0
H164 H 0.25221 0.07948 1.0036 0.0
C165 C 0.26776 0.03605 0.99302 0.0
H166 H 0.21481 0.98511 0.98097 0.0
H167 H 0.40198 0.96498 1.00018 0.0
O168 O 0.38892 0.14285 0.82309 0.0
C169 C 0.47632 0.99593 0.88065 0.0
Co170 Co 1.00402 0.33363 0.85548 0.0
Co171 Co 0.12172 0.39846 0.92378 0.0
C172 C 0.17065 0.35898 0.85151 0.0
O173 O 0.10324 0.33745 0.83742 0.0
O174 O 0.18717 0.38349 0.8856 0.0
C175 C 0.91377 0.20358 0.80486 0.0
O176 O 0.97838 0.20082 0.80047 0.0
C177 C 0.2208 0.40132 0.98638 0.0
C178 C 0.16547 0.42511 0.03513 0.0
C179 C 0.21781 0.40019 0.02598 0.0
N180 N 0.16921 0.42117 0.9731 0.0
N181 N 0.13788 0.43736 1.0024 0.0
C182 C 0.27553 0.39047 0.96116 0.0
H183 H 0.29379 0.43223 0.93709 0.0
H184 H 0.24502 0.33054 0.94911 0.0
H185 H 0.32878 0.40133 0.97686 0.0
C186 C 0.89976 0.2594 0.92043 0.0
N187 N 0.97129 0.29402 0.90447 0.0
N188 N 1.02338 0.30622 0.93055 0.0
C189 C 0.98622 0.27278 0.96337 0.0
C190 C 0.90637 0.24519 0.95856 0.0
C191 C 0.82779 0.24808 0.90046 0.0
H192 H 0.84341 0.28605 0.875 0.0
H193 H 0.79193 0.18605 0.8917 0.0
H194 H 0.79203 0.26213 0.91975 0.0
O195 O 1.0197 0.43915 0.85769 0.0
O196 O 0.10449 0.48704 0.90616 0.0
H197 H 0.04302 0.28604 0.01731 0.0
H198 H 0.97864 0.18669 1.00348 0.0
C199 C 1.0221 0.2457 0.99293 0.0
H200 H 0.07309 0.24379 0.98086 0.0
H201 H 0.09326 0.45089 1.00015 0.0
O202 O 0.91531 0.26007 0.823 0.0
C203 C 0.0623 0.49439 0.88057 0.0
Co204 Co 1.01033 0.69684 0.4904 0.0
Co205 Co 0.07525 0.64414 0.42213 0.0
C206 C 0.03569 0.55573 0.49444 0.0
O207 O 1.0141 0.60151 0.50852 0.0
O208 O 0.06027 0.5638 0.46035 0.0
C209 C 0.88034 0.65732 0.54108 0.0
O210 O 0.87745 0.58998 0.54557 0.0
C211 C 0.07813 0.54797 0.35957 0.0
C212 C 0.10212 0.62707 0.3108 0.0
C213 C 0.07714 0.54984 0.31996 0.0
N214 N 0.098 0.61936 0.37283 0.0
N215 N 0.11432 0.66688 0.34352 0.0
C216 C 0.06716 0.48239 0.38482 0.0
H217 H 0.10891 0.50591 0.40891 0.0
H218 H 1.00714 0.45296 0.39682 0.0
H219 H 0.07803 0.44005 0.36914 0.0
C220 C 0.93615 0.72686 0.42544 0.0
N221 N 0.9707 0.68992 0.4414 0.0
N222 N 0.98293 0.65013 0.41532 0.0
C223 C 0.94955 0.65392 0.38249 0.0
C224 C 0.92198 0.70613 0.3873 0.0
C225 C 0.92492 0.78748 0.4454 0.0
H226 H 0.96301 0.80987 0.47084 0.0
H227 H 0.86285 0.76127 0.45421 0.0
H228 H 0.93895 0.83724 0.4261 0.0
O229 O 0.11591 0.7867 0.48818 0.0
O230 O 0.1639 0.75001 0.43972 0.0
H231 H 0.96301 0.6107 0.32853 0.0
H232 H 0.86352 0.57555 0.34228 0.0
C233 C 0.92255 0.59112 0.35287 0.0
H234 H 0.92061 0.53823 0.3649 0.0
H235 H 0.12789 0.725 0.34576 0.0
O236 O 0.93686 0.71212 0.52285 0.0
C237 C 0.17121 0.79949 0.4653 0.0
Co238 Co 0.36123 0.32735 0.49039 0.0
Co239 Co 0.41403 0.44494 0.4221 0.0
C240 C 0.50246 0.49392 0.49442 0.0
O241 O 0.45663 0.42653 0.50851 0.0
O242 O 0.49445 0.51039 0.46032 0.0
C243 C 0.40093 0.23695 0.54098 0.0
O244 O 0.46839 0.30141 0.54539 0.0
C245 C 0.51014 0.54396 0.35949 0.0
C246 C 0.43088 0.48868 0.31076 0.0
C247 C 0.50818 0.54102 0.31989 0.0
N248 N 0.43872 0.49237 0.37278 0.0
N249 N 0.3911 0.46106 0.34349 0.0
C250 C 0.57582 0.59863 0.38471 0.0
H251 H 0.55232 0.61684 0.40879 0.0
H252 H 0.60529 0.56813 0.39672 0.0
H253 H 0.61818 0.65183 0.36901 0.0
C254 C 0.33113 0.22322 0.42544 0.0
N255 N 0.36813 0.29468 0.4414 0.0
N256 N 0.40801 0.3467 0.41532 0.0
C257 C 0.40424 0.30957 0.3825 0.0
C258 C 0.35193 0.2298 0.38731 0.0
C259 C 0.2704 0.15136 0.44539 0.0
H260 H 0.24803 0.16702 0.47084 0.0
H261 H 0.29656 0.11549 0.45418 0.0
H262 H 0.22056 0.11567 0.42609 0.0
O263 O 0.2713 0.34299 0.48817 0.0
O264 O 0.30813 0.42768 0.4397 0.0
H265 H 0.44764 0.3663 0.32855 0.0
H266 H 0.48272 0.30198 0.34234 0.0
C267 C 0.46716 0.34541 0.35291 0.0
H268 H 0.52011 0.39635 0.36497 0.0
H269 H 0.33293 0.41645 0.34576 0.0
O270 O 0.34599 0.23862 0.52284 0.0
C271 C 0.25859 0.38552 0.46529 0.0
Co272 Co 0.73088 0.04782 0.49047 0.0
Co273 Co 0.61317 0.98298 0.42218 0.0
C274 C 0.56424 1.02248 0.49444 0.0
O275 O 0.63166 0.044 0.50854 0.0
O276 O 0.54772 0.99796 0.46035 0.0
C277 C 0.82114 0.17788 0.54108 0.0
O278 O 0.75654 0.18065 0.54548 0.0
C279 C 0.51405 0.98004 0.35958 0.0
C280 C 0.5694 0.95627 0.31083 0.0
C281 C 0.51701 0.98113 0.31998 0.0
N282 N 0.56567 0.96024 0.37286 0.0
N283 N 0.59701 0.94406 0.34356 0.0
C284 C 0.45931 0.99089 0.3848 0.0
H285 H 0.44106 0.94913 0.40887 0.0
H286 H 0.48982 0.05082 0.39684 0.0
H287 H 0.40606 0.98002 0.36909 0.0
C288 C 0.83513 0.12204 0.42552 0.0
N289 N 0.76359 0.08742 0.44148 0.0
N290 N 0.71151 0.07521 0.4154 0.0
C291 C 0.74865 0.10865 0.38258 0.0
C292 C 0.82851 0.13624 0.38739 0.0
C293 C 0.9071 0.13337 0.44549 0.0
H294 H 0.89149 0.09541 0.47095 0.0
H295 H 0.94295 0.19542 0.45424 0.0
H296 H 0.94286 0.11933 0.4262 0.0
O297 O 0.7152 0.94231 0.48827 0.0
O298 O 0.63039 0.89441 0.43981 0.0
H299 H 0.69186 0.09537 0.32864 0.0
H300 H 0.75622 0.19472 0.34246 0.0
C301 C 0.71276 0.13572 0.35302 0.0
H302 H 0.66177 0.13761 0.36508 0.0
H303 H 0.64167 0.93057 0.34582 0.0
O304 O 0.8196 0.12139 0.52295 0.0
C305 C 0.6726 0.88706 0.46539 0.0
Co306 Co 0.39125 1.01791 0.18888 0.0
Co307 Co 0.32634 0.07061 0.25715 0.0
C308 C 0.36589 0.15902 0.18484 0.0
O309 O 0.38748 0.11324 0.17076 0.0
O310 O 0.34132 0.15095 0.21892 0.0
C311 C 0.52124 0.05745 0.1382 0.0
O312 O 0.52415 0.12481 0.13372 0.0
C313 C 0.32351 0.16682 0.31971 0.0
C314 C 0.29949 0.08771 0.36848 0.0
C315 C 0.32455 0.16495 0.35931 0.0
N316 N 0.3036 0.09541 0.30645 0.0
N317 N 0.28727 0.04789 0.33576 0.0
C318 C 0.33451 0.23239 0.29446 0.0
H319 H 0.29276 0.20889 0.27037 0.0
H320 H 0.39453 0.26183 0.28246 0.0
H321 H 0.32363 0.27474 0.31013 0.0
C322 C 0.46541 0.98786 0.25383 0.0
N323 N 0.43088 0.02483 0.23787 0.0
N324 N 0.41866 0.06461 0.26396 0.0
C325 C 0.45203 0.06079 0.29679 0.0
C326 C 0.47958 1.00857 0.29197 0.0
C327 C 0.47661 0.92722 0.23386 0.0
H328 H 0.43851 0.90484 0.20843 0.0
H329 H 0.53867 0.95341 0.22506 0.0
H330 H 0.46257 0.87745 0.25316 0.0
O331 O 0.28567 0.92805 0.1911 0.0
O332 O 0.23768 0.96474 0.23956 0.0
H333 H 0.43856 0.10399 0.35075 0.0
H334 H 0.53805 0.13912 0.33701 0.0
C335 C 0.47903 0.12358 0.32641 0.0
H336 H 0.48099 0.17649 0.31439 0.0
H337 H 0.27365 0.98975 0.33353 0.0
O338 O 0.46472 1.00263 0.15642 0.0
C339 C 0.23038 0.91526 0.21398 0.0
Co340 Co 0.04036 0.38743 0.18889 0.0
Co341 Co 0.98757 0.26984 0.25718 0.0
C342 C 0.89913 0.22087 0.18486 0.0
O343 O 0.94496 0.28825 0.17077 0.0
O344 O 0.90715 0.2044 0.21896 0.0
C345 C 1.00066 0.47781 0.13828 0.0
O346 O 0.9332 0.41335 0.13385 0.0
C347 C 0.89144 0.17082 0.31978 0.0
C348 C 0.97068 0.22609 0.36852 0.0
C349 C 0.89338 0.17378 0.35938 0.0
N350 N 0.96287 0.2224 0.3065 0.0
N351 N 1.01048 0.2537 0.33579 0.0
C352 C 0.82578 0.11614 0.29456 0.0
H353 H 0.84929 0.09793 0.27047 0.0
H354 H 0.79628 0.14662 0.28254 0.0
H355 H 0.78342 0.06293 0.31026 0.0
C356 C 0.07047 0.49157 0.25384 0.0
N357 N 1.03346 0.4201 0.23788 0.0
N358 N 0.99359 0.36808 0.26396 0.0
C359 C 0.99738 0.40522 0.29678 0.0
C360 C 0.04969 0.485 0.29197 0.0
C361 C 0.13121 0.56342 0.23388 0.0
H362 H 0.15357 0.54775 0.20843 0.0
H363 H 0.10505 0.59929 0.22508 0.0
H364 H 0.18104 0.59911 0.25318 0.0
O365 O 0.13029 0.37179 0.19111 0.0
O366 O 0.09346 0.2871 0.23958 0.0
H367 H 0.95401 0.34851 0.35073 0.0
H368 H 0.91893 0.41282 0.33695 0.0
C369 C 0.93447 0.36939 0.32637 0.0
H370 H 0.88152 0.31844 0.31433 0.0
H371 H 0.06865 0.2983 0.33353 0.0
O372 O 0.05559 0.47616 0.15643 0.0
C373 C 0.143 0.32926 0.21399 0.0
Co374 Co 0.67068 0.66692 0.1888 0.0
Co375 Co 0.78839 0.73174 0.25709 0.0
C376 C 0.83732 0.69226 0.18483 0.0
O377 O 0.7699 0.67074 0.17073 0.0
O378 O 0.85384 0.71677 0.21892 0.0
C379 C 0.58044 0.53687 0.13818 0.0
O380 O 0.64503 0.53408 0.13379 0.0
C381 C 0.88747 0.73462 0.3197 0.0
C382 C 0.83213 0.75841 0.36844 0.0
C383 C 0.88448 0.7335 0.3593 0.0
N384 N 0.83588 0.75445 0.30642 0.0
N385 N 0.80454 0.77065 0.33571 0.0
C386 C 0.94222 0.72377 0.29447 0.0
H387 H 0.96046 0.76553 0.2704 0.0
H388 H 0.91171 0.66384 0.28244 0.0
H389 H 0.99546 0.73465 0.31018 0.0
C390 C 0.56643 0.5927 0.25374 0.0
N391 N 0.63796 0.6273 0.23779 0.0
N392 N 0.69005 0.6395 0.26387 0.0
C393 C 0.6529 0.60606 0.29668 0.0
C394 C 0.57304 0.57848 0.29187 0.0
C395 C 0.49446 0.58139 0.23378 0.0
H396 H 0.51009 0.61934 0.20831 0.0
H397 H 0.45859 0.51935 0.22503 0.0
H398 H 0.45872 0.59545 0.25307 0.0
O399 O 0.68636 0.77243 0.19101 0.0
O400 O 0.77117 0.82032 0.23947 0.0
H401 H 0.7097 0.61932 0.35062 0.0
H402 H 0.6453 0.51998 0.3368 0.0
C403 C 0.68877 0.57898 0.32624 0.0
H404 H 0.73975 0.57706 0.31417 0.0
H405 H 0.75991 0.78417 0.33345 0.0
O406 O 0.58197 0.59335 0.15632 0.0
C407 C 0.72896 0.82767 0.21389 0.0
Co408 Co 0.677 0.03019 0.82373 0.0
Co409 Co 0.74192 0.9775 0.75546 0.0
C410 C 0.70236 0.88908 0.82777 0.0
O411 O 0.68077 0.93487 0.84185 0.0
O412 O 0.72694 0.89716 0.79369 0.0
C413 C 0.54701 0.99066 0.87441 0.0
O414 O 0.54409 0.9233 0.8789 0.0
C415 C 0.74479 0.88131 0.6929 0.0
C416 C 0.76879 0.96042 0.64413 0.0
C417 C 0.74379 0.88319 0.65329 0.0
N418 N 0.76466 0.95271 0.70616 0.0
N419 N 0.78099 1.00023 0.67685 0.0
C420 C 0.73379 0.81574 0.71815 0.0
H421 H 0.77554 0.83924 0.74224 0.0
H422 H 0.67377 0.78631 0.73015 0.0
H423 H 0.74466 0.77339 0.70247 0.0
C424 C 0.60283 0.06023 0.75877 0.0
N425 N 0.63736 1.02328 0.77474 0.0
N426 N 0.6496 0.98349 0.74865 0.0
C427 C 0.61622 0.98729 0.71582 0.0
C428 C 0.58866 0.03951 0.72063 0.0
C429 C 0.59161 0.12086 0.77874 0.0
H430 H 0.6297 0.14324 0.80417 0.0
H431 H 0.52954 0.09466 0.78754 0.0
H432 H 0.60564 0.17062 0.75944 0.0
O433 O 0.78257 0.12006 0.82151 0.0
O434 O 0.83057 0.08337 0.77305 0.0
H435 H 0.62969 0.94409 0.66186 0.0
H436 H 0.53019 0.90894 0.6756 0.0
C437 C 0.58922 0.9245 0.6862 0.0
H438 H 0.58728 0.8716 0.69823 0.0
H439 H 0.79457 0.05836 0.67909 0.0
O440 O 0.60352 0.04547 0.85618 0.0
C441 C 0.83786 0.13285 0.79863 0.0
Co442 Co 1.02789 0.66068 0.82372 0.0
Co443 Co 0.08068 0.77828 0.75543 0.0
C444 C 0.16912 0.82726 0.82775 0.0
O445 O 0.12329 0.75987 0.84183 0.0
O446 O 0.1611 0.84373 0.79365 0.0
C447 C 0.06759 0.5703 0.87433 0.0
O448 O 0.13505 0.63476 0.87876 0.0
C449 C 0.17678 0.87732 0.69283 0.0
C450 C 0.09754 0.82204 0.64409 0.0
C451 C 0.17483 0.8744 0.65322 0.0
N452 N 0.10536 0.82572 0.70611 0.0
N453 N 0.05775 0.79441 0.67682 0.0
C454 C 0.24244 0.93201 0.71805 0.0
H455 H 0.21893 0.95021 0.74213 0.0
H456 H 0.27193 0.90153 0.73007 0.0
H457 H 0.2848 0.98522 0.70235 0.0
C458 C 0.99779 0.55656 0.75877 0.0
N459 N 0.03479 0.62802 0.77473 0.0
N460 N 0.07466 0.68005 0.74865 0.0
C461 C 0.07089 0.64291 0.71583 0.0
C462 C 1.01858 0.56314 0.72064 0.0
C463 C 0.93707 0.4847 0.77873 0.0
H464 H 0.9147 0.50036 0.80417 0.0
H465 H 0.96324 0.44884 0.78752 0.0
H466 H 0.88723 0.449 0.75943 0.0
O467 O 0.93796 0.67632 0.8215 0.0
O468 O 0.97478 0.76102 0.77303 0.0
H469 H 0.11426 0.69963 0.66188 0.0
H470 H 0.14936 0.63534 0.67567 0.0
C471 C 0.1338 0.67876 0.68624 0.0
H472 H 0.18674 0.72971 0.69829 0.0
H473 H 0.99959 0.74978 0.67909 0.0
O474 O 1.01266 0.57196 0.85617 0.0
C475 C 0.92524 0.71885 0.79862 0.0
Co476 Co 0.39755 0.38119 0.82381 0.0
Co477 Co 0.27984 0.31636 0.75552 0.0
C478 C 0.23091 0.35584 0.82778 0.0
O479 O 0.29833 0.37737 0.84188 0.0
O480 O 0.21439 0.33133 0.79369 0.0
C481 C 0.4878 0.51124 0.87443 0.0
O482 O 0.42321 0.51403 0.87882 0.0
C483 C 0.18074 0.31343 0.69291 0.0
C484 C 0.2361 0.28966 0.64417 0.0
C485 C 0.1837 0.31451 0.65331 0.0
N486 N 0.23235 0.29363 0.70619 0.0
N487 N 0.2637 0.27745 0.6769 0.0
C488 C 0.12599 0.32428 0.71813 0.0
H489 H 0.10774 0.28252 0.7422 0.0
H490 H 0.1565 0.38421 0.73017 0.0
H491 H 0.07275 0.31341 0.70243 0.0
C492 C 0.5018 0.45542 0.75886 0.0
N493 N 0.43027 0.4208 0.77482 0.0
N494 N 0.37818 0.4086 0.74874 0.0
C495 C 0.41532 0.44204 0.71593 0.0
C496 C 0.49518 0.46963 0.72073 0.0
C497 C 0.57378 0.46675 0.77882 0.0
H498 H 0.55816 0.4288 0.80429 0.0
H499 H 0.60964 0.5288 0.78757 0.0
H500 H 0.60952 0.45269 0.75953 0.0
O501 O 0.38188 0.27568 0.8216 0.0
O502 O 0.29707 0.22779 0.77314 0.0
H503 H 0.35851 0.42878 0.66199 0.0
H504 H 0.42289 0.52813 0.67582 0.0
C505 C 0.37943 0.46913 0.68637 0.0
H506 H 0.32845 0.47103 0.69844 0.0
H507 H 0.30836 0.26397 0.67916 0.0
O508 O 0.48626 0.45476 0.85629 0.0
C509 C 0.33928 0.22044 0.79872 0.0
Co510 Co 0.05792 0.35126 0.52221 0.0
Co511 Co 0.99301 0.40396 0.59048 0.0
C512 C 1.03256 0.49238 0.51817 0.0
O513 O 0.05415 0.44659 0.50409 0.0
O514 O 1.00798 0.4843 0.55226 0.0
C515 C 0.1879 0.3908 0.47153 0.0
O516 O 0.19081 0.45815 0.46704 0.0
C517 C 0.99016 0.50016 0.65304 0.0
C518 C 0.96616 0.42106 0.70181 0.0
C519 C 0.9912 0.49829 0.69264 0.0
N520 N 0.97026 0.42876 0.63978 0.0
N521 N 0.95394 0.38124 0.66909 0.0
C522 C 1.00114 0.56573 0.62779 0.0
H523 H 0.95939 0.54222 0.6037 0.0
H524 H 0.06116 0.59517 0.61579 0.0
H525 H 0.99026 0.60807 0.64346 0.0
C526 C 0.1321 0.32123 0.58717 0.0
N527 N 0.09756 0.35819 0.5712 0.0
N528 N 0.08533 0.39797 0.59729 0.0
C529 C 0.1187 0.39416 0.63012 0.0
C530 C 0.14627 0.34195 0.62531 0.0
C531 C 0.14331 0.2606 0.5672 0.0
H532 H 0.10521 0.23822 0.54176 0.0
H533 H 0.20537 0.2868 0.55839 0.0
H534 H 0.12928 0.21084 0.5865 0.0
O535 O 0.95234 0.2614 0.52443 0.0
O536 O 0.90435 0.2981 0.57289 0.0
H537 H 0.10524 0.43737 0.68408 0.0
H538 H 0.20473 0.47251 0.67034 0.0
C539 C 0.14571 0.45696 0.65974 0.0
H540 H 0.14765 0.50986 0.64771 0.0
H541 H 0.94033 0.3231 0.66686 0.0
O542 O 0.1314 0.33599 0.48975 0.0
C543 C 0.89705 0.24861 0.54731 0.0
Co544 Co 0.70702 0.72078 0.52222 0.0
Co545 Co 0.65422 0.60319 0.59051 0.0
C546 C 0.56579 0.55421 0.51819 0.0
O547 O 0.61162 0.62159 0.5041 0.0
O548 O 0.5738 0.53774 0.55229 0.0
C549 C 0.66731 0.81115 0.47163 0.0
O550 O 0.59983 0.7467 0.46722 0.0
C551 C 0.55809 0.50419 0.65312 0.0
C552 C 0.63735 0.55945 0.70185 0.0
C553 C 0.56004 0.50716 0.69272 0.0
N554 N 0.62952 0.55576 0.63983 0.0
N555 N 0.67714 0.58705 0.66912 0.0
C556 C 0.49241 0.44952 0.6279 0.0
H557 H 0.51591 0.43131 0.60381 0.0
H558 H 0.46293 0.48002 0.61589 0.0
H559 H 0.45005 0.39632 0.6436 0.0
C560 C 0.73713 0.82492 0.58717 0.0
N561 N 0.70012 0.75345 0.57121 0.0
N562 N 0.66024 0.70143 0.59729 0.0
C563 C 0.66403 0.73857 0.63011 0.0
C564 C 0.71634 0.81835 0.6253 0.0
C565 C 0.79787 0.89676 0.56721 0.0
H566 H 0.82023 0.88109 0.54176 0.0
H567 H 0.77173 0.93264 0.55842 0.0
H568 H 0.84771 0.93245 0.58651 0.0
O569 O 0.79695 0.70514 0.52444 0.0
O570 O 0.76012 0.62045 0.57291 0.0
H571 H 0.62064 0.68186 0.68406 0.0
H572 H 0.58557 0.74618 0.67027 0.0
C573 C 0.60111 0.70275 0.6597 0.0
H574 H 0.54816 0.65181 0.64765 0.0
H575 H 0.73532 0.63164 0.66685 0.0
O576 O 0.72226 0.8095 0.48976 0.0
C577 C 0.80967 0.66261 0.54733 0.0
Co578 Co 0.33735 1.00028 0.52214 0.0
Co579 Co 0.45506 0.06512 0.59043 0.0
C580 C 0.50398 0.02562 0.51817 0.0
O581 O 0.43657 1.0041 0.50407 0.0
O582 O 0.52051 0.05014 0.55226 0.0
C583 C 0.24711 0.87023 0.47152 0.0
O584 O 0.31171 0.86744 0.46713 0.0
C585 C 0.55415 0.06801 0.65303 0.0
C586 C 0.49882 0.0918 0.70178 0.0
C587 C 0.55116 0.06689 0.69263 0.0
N588 N 0.50256 0.08784 0.63975 0.0
N589 N 0.47123 0.10404 0.66905 0.0
C590 C 0.60889 0.05716 0.62781 0.0
H591 H 0.62714 0.09893 0.60374 0.0
H592 H 0.57838 0.99723 0.61577 0.0
H593 H 0.66214 0.06804 0.64351 0.0
C594 C 0.23309 0.92607 0.58708 0.0
N595 N 0.30463 0.96067 0.57113 0.0
N596 N 0.35671 0.97288 0.59721 0.0
C597 C 0.31956 0.93945 0.63003 0.0
C598 C 0.2397 0.91186 0.62522 0.0
C599 C 0.16113 0.91475 0.56711 0.0
H600 H 0.17675 0.95271 0.54165 0.0
H601 H 0.12527 0.85271 0.55836 0.0
H602 H 0.12537 0.9288 0.5864 0.0
O603 O 0.35303 0.10579 0.52434 0.0
O604 O 0.43783 0.15369 0.5728 0.0
H605 H 0.37634 0.95273 0.68397 0.0
H606 H 0.31197 0.85338 0.67015 0.0
C607 C 0.35543 0.91238 0.6596 0.0
H608 H 0.40642 0.91048 0.64753 0.0
H609 H 0.42659 0.11756 0.66679 0.0
O610 O 0.24864 0.92671 0.48966 0.0
C611 C 0.39563 0.16103 0.54722 0.0
loop_
_geom_bond_atom_site_label_1
_geom_bond_atom_site_label_2
_geom_bond_distance
_geom_bond_site_symmetry_2
_ccdc_geom_bond_type
Co0 O3 1.970 . S
Co0 N17 1.989 . S
Co0 O25 1.967 . S
Co0 O32 1.920 . S
Co1 O4 1.966 . S
Co1 N10 2.022 . S
Co1 N18 1.993 . S
Co1 O26 1.941 . S
C2 O3 1.258 . S
C2 O4 1.263 . S
O3 Co0 1.970 . S
O3 C2 1.258 . S
O4 Co1 1.966 . S
O4 C2 1.263 . S
C5 O6 1.235 . S
C5 O32 1.289 . S
O6 C5 1.235 . S
C7 C9 1.400 1_554 S
C7 N10 1.351 . S
C7 C12 1.501 . S
C8 C9 1.387 . S
C8 N11 1.341 1_556 S
C9 C7 1.400 1_556 S
C9 C8 1.387 . S
N10 Co1 2.022 . S
N10 C7 1.351 . S
N10 N11 1.365 . S
N11 C8 1.341 1_554 S
N11 N10 1.365 . S
N11 H31 0.862 . S
C12 C7 1.501 . S
C12 H13 0.961 . S
C12 H14 0.961 . S
C12 H15 0.960 . S
H13 C12 0.961 . S
H14 C12 0.961 . S
H15 C12 0.960 . S
C16 N17 1.342 . S
C16 C20 1.401 . S
C16 C21 1.499 . S
N17 Co0 1.989 . S
N17 C16 1.342 . S
N17 N18 1.388 . S
N18 Co1 1.993 . S
N18 N17 1.388 . S
N18 C19 1.346 . S
C19 N18 1.346 . S
C19 C20 1.396 . S
C19 C29 1.510 1_554 S
C20 C16 1.401 . S
C20 C19 1.396 . S
C21 C16 1.499 . S
C21 H22 0.959 . S
C21 H23 0.960 . S
C21 H24 0.961 . S
H22 C21 0.959 . S
H23 C21 0.960 . S
H24 C21 0.961 . S
O25 Co0 1.967 . S
O25 C33 1.258 . S
O26 Co1 1.941 . S
O26 C33 1.266 . S
H27 C29 0.959 . S
H28 C29 0.961 . S
C29 C19 1.510 1_556 S
C29 H27 0.959 . S
C29 H28 0.961 . S
C29 H30 0.964 . S
H30 C29 0.964 . S
H31 N11 0.862 . S
O32 Co0 1.920 . S
O32 C5 1.289 . S
C33 O25 1.258 . S
C33 O26 1.266 . S
Co34 O37 1.970 1_565 S
Co34 N51 1.989 . S
Co34 O59 1.967 . S
Co34 O66 1.920 . S
Co35 O38 1.966 . S
Co35 N44 2.022 . S
Co35 N52 1.993 1_545 S
Co35 O60 1.941 . S
C36 O37 1.258 . S
C36 O38 1.263 . S
O37 Co34 1.970 1_545 S
O37 C36 1.258 . S
O38 Co35 1.966 . S
O38 C36 1.263 . S
C39 O40 1.235 . S
C39 O66 1.289 . S
O40 C39 1.235 . S
C41 C43 1.400 1_554 S
C41 N44 1.351 . S
C41 C46 1.501 . S
C42 C43 1.387 . S
C42 N45 1.341 1_556 S
C43 C41 1.400 1_556 S
C43 C42 1.387 . S
N44 Co35 2.022 . S
N44 C41 1.351 . S
N44 N45 1.365 . S
N45 C42 1.341 1_554 S
N45 N44 1.365 . S
N45 H65 0.862 . S
C46 C41 1.501 . S
C46 H47 0.961 . S
C46 H48 0.961 . S
C46 H49 0.960 . S
H47 C46 0.961 . S
H48 C46 0.961 . S
H49 C46 0.960 . S
C50 N51 1.342 . S
C50 C54 1.401 . S
C50 C55 1.499 . S
N51 Co34 1.989 . S
N51 C50 1.342 . S
N51 N52 1.388 . S
N52 Co35 1.993 1_565 S
N52 N51 1.388 . S
N52 C53 1.346 . S
C53 N52 1.346 . S
C53 C54 1.396 . S
C53 C63 1.510 1_554 S
C54 C50 1.401 . S
C54 C53 1.396 . S
C55 C50 1.499 . S
C55 H56 0.959 . S
C55 H57 0.960 . S
C55 H58 0.961 . S
H56 C55 0.959 . S
H57 C55 0.960 . S
H58 C55 0.961 . S
O59 Co34 1.967 . S
O59 C67 1.258 1_565 S
O60 Co35 1.941 . S
O60 C67 1.266 . S
H61 C63 0.959 . S
H62 C63 0.961 . S
C63 C53 1.510 1_556 S
C63 H61 0.959 . S
C63 H62 0.961 . S
C63 H64 0.958 1_566 S
H64 C63 0.958 1_544 S
H65 N45 0.862 . S
O66 Co34 1.920 . S
O66 C39 1.289 . S
C67 O59 1.258 1_545 S
C67 O60 1.266 . S
Co68 O71 1.970 1_455 S
Co68 N85 1.989 . S
Co68 O93 1.967 . S
Co68 O100 1.920 . S
Co69 O72 1.966 . S
Co69 N78 2.022 . S
Co69 N86 1.993 1_655 S
Co69 O94 1.941 . S
C70 O71 1.258 . S
C70 O72 1.263 . S
O71 Co68 1.970 1_655 S
O71 C70 1.258 . S
O72 Co69 1.966 . S
O72 C70 1.263 . S
C73 O74 1.235 . S
C73 O100 1.289 . S
O74 C73 1.235 . S
C75 C77 1.400 1_554 S
C75 N78 1.351 . S
C75 C80 1.501 . S
C76 C77 1.387 . S
C76 N79 1.341 1_556 S
C77 C75 1.400 1_556 S
C77 C76 1.387 . S
N78 Co69 2.022 . S
N78 C75 1.351 . S
N78 N79 1.365 . S
N79 C76 1.341 1_554 S
N79 N78 1.365 . S
N79 H99 0.862 . S
C80 C75 1.501 . S
C80 H81 0.961 . S
C80 H82 0.961 . S
C80 H83 0.960 . S
H81 C80 0.961 . S
H82 C80 0.961 . S
H83 C80 0.960 . S
C84 N85 1.342 . S
C84 C88 1.401 . S
C84 C89 1.499 . S
N85 Co68 1.989 . S
N85 C84 1.342 . S
N85 N86 1.388 . S
N86 Co69 1.993 1_455 S
N86 N85 1.388 . S
N86 C87 1.346 . S
C87 N86 1.346 . S
C87 C88 1.396 . S
C87 C97 1.510 1_554 S
C88 C84 1.401 . S
C88 C87 1.396 . S
C89 C84 1.499 . S
C89 H90 0.959 . S
C89 H91 0.960 . S
C89 H92 0.961 . S
H90 C89 0.959 . S
H91 C89 0.960 . S
H92 C89 0.961 . S
O93 Co68 1.967 . S
O93 C101 1.258 1_455 S
O94 Co69 1.941 . S
O94 C101 1.266 . S
H95 C97 0.959 . S
H96 C97 0.961 . S
C97 C87 1.510 1_556 S
C97 H95 0.959 . S
C97 H96 0.961 . S
C97 H98 0.960 1_455 S
H98 C97 0.960 1_655 S
H99 N79 0.862 . S
O100 Co68 1.920 . S
O100 C73 1.289 . S
C101 O93 1.258 1_655 S
C101 O94 1.266 . S
Co102 O105 1.970 . S
Co102 N119 1.989 . S
Co102 O127 1.967 . S
Co102 O134 1.920 . S
Co103 O106 1.966 . S
Co103 N112 2.022 . S
Co103 N120 1.993 . S
Co103 O128 1.941 . S
C104 O105 1.258 . S
C104 O106 1.263 . S
O105 Co102 1.970 . S
O105 C104 1.258 . S
O106 Co103 1.966 . S
O106 C104 1.263 . S
C107 O108 1.235 . S
C107 O134 1.289 . S
O108 C107 1.235 . S
C109 C111 1.400 1_556 S
C109 N112 1.351 . S
C109 C114 1.501 . S
C110 C111 1.387 . S
C110 N113 1.341 1_554 S
C111 C109 1.400 1_554 S
C111 C110 1.387 . S
N112 Co103 2.022 . S
N112 C109 1.351 . S
N112 N113 1.365 . S
N113 C110 1.341 1_556 S
N113 N112 1.365 . S
N113 H133 0.862 . S
C114 C109 1.501 . S
C114 H115 0.961 . S
C114 H116 0.961 . S
C114 H117 0.960 . S
H115 C114 0.961 . S
H116 C114 0.961 . S
H117 C114 0.960 . S
C118 N119 1.342 . S
C118 C122 1.401 . S
C118 C123 1.499 . S
N119 Co102 1.989 . S
N119 C118 1.342 . S
N119 N120 1.388 . S
N120 Co103 1.993 . S
N120 N119 1.388 . S
N120 C121 1.346 . S
C121 N120 1.346 . S
C121 C122 1.396 . S
C121 C131 1.510 1_556 S
C122 C118 1.401 . S
C122 C121 1.396 . S
C123 C118 1.499 . S
C123 H124 0.959 . S
C123 H125 0.960 . S
C123 H126 0.961 . S
H124 C123 0.959 . S
H125 C123 0.960 . S
H126 C123 0.961 . S
O127 Co102 1.967 . S
O127 C135 1.258 . S
O128 Co103 1.941 . S
O128 C135 1.266 . S
H129 C131 0.959 . S
H130 C131 0.961 . S
C131 C121 1.510 1_554 S
C131 H129 0.959 . S
C131 H130 0.961 . S
C131 H132 0.964 . S
H132 C131 0.964 . S
H133 N113 0.862 . S
O134 Co102 1.920 . S
O134 C107 1.289 . S
C135 O127 1.258 . S
C135 O128 1.266 . S
Co136 O139 1.970 1_545 S
Co136 N153 1.989 . S
Co136 O161 1.967 . S
Co136 O168 1.920 . S
Co137 O140 1.966 . S
Co137 N146 2.022 . S
Co137 N154 1.993 1_565 S
Co137 O162 1.941 . S
C138 O139 1.258 . S
C138 O140 1.263 . S
O139 Co136 1.970 1_565 S
O139 C138 1.258 . S
O140 Co137 1.966 . S
O140 C138 1.263 . S
C141 O142 1.235 . S
C141 O168 1.289 . S
O142 C141 1.235 . S
C143 C145 1.400 1_556 S
C143 N146 1.351 . S
C143 C148 1.501 . S
C144 C145 1.387 . S
C144 N147 1.341 1_554 S
C145 C143 1.400 1_554 S
C145 C144 1.387 . S
N146 Co137 2.022 . S
N146 C143 1.351 . S
N146 N147 1.365 . S
N147 C144 1.341 1_556 S
N147 N146 1.365 . S
N147 H167 0.862 . S
C148 C143 1.501 . S
C148 H149 0.961 . S
C148 H150 0.961 . S
C148 H151 0.960 . S
H149 C148 0.961 . S
H150 C148 0.961 . S
H151 C148 0.960 . S
C152 N153 1.342 . S
C152 C156 1.401 . S
C152 C157 1.499 . S
N153 Co136 1.989 . S
N153 C152 1.342 . S
N153 N154 1.388 . S
N154 Co137 1.993 1_545 S
N154 N153 1.388 . S
N154 C155 1.346 . S
C155 N154 1.346 . S
C155 C156 1.396 . S
C155 C165 1.510 1_556 S
C156 C152 1.401 . S
C156 C155 1.396 . S
C157 C152 1.499 . S
C157 H158 0.959 . S
C157 H159 0.960 . S
C157 H160 0.961 . S
H158 C157 0.959 . S
H159 C157 0.960 . S
H160 C157 0.961 . S
O161 Co136 1.967 . S
O161 C169 1.258 1_545 S
O162 Co137 1.941 . S
O162 C169 1.266 . S
H163 C165 0.959 . S
H164 C165 0.961 . S
C165 C155 1.510 1_554 S
C165 H163 0.959 . S
C165 H164 0.961 . S
C165 H166 0.958 1_544 S
H166 C165 0.958 1_566 S
H167 N147 0.862 . S
O168 Co136 1.920 . S
O168 C141 1.289 . S
C169 O161 1.258 1_565 S
C169 O162 1.266 . S
Co170 O173 1.970 1_655 S
Co170 N187 1.989 . S
Co170 O195 1.967 . S
Co170 O202 1.920 . S
Co171 O174 1.966 . S
Co171 N180 2.022 . S
Co171 N188 1.993 1_455 S
Co171 O196 1.941 . S
C172 O173 1.258 . S
C172 O174 1.263 . S
O173 Co170 1.970 1_455 S
O173 C172 1.258 . S
O174 Co171 1.966 . S
O174 C172 1.263 . S
C175 O176 1.235 . S
C175 O202 1.289 . S
O176 C175 1.235 . S
C177 C179 1.400 1_556 S
C177 N180 1.351 . S
C177 C182 1.501 . S
C178 C179 1.387 . S
C178 N181 1.341 1_554 S
C179 C177 1.400 1_554 S
C179 C178 1.387 . S
N180 Co171 2.022 . S
N180 C177 1.351 . S
N180 N181 1.365 . S
N181 C178 1.341 1_556 S
N181 N180 1.365 . S
N181 H201 0.862 . S
C182 C177 1.501 . S
C182 H183 0.961 . S
C182 H184 0.961 . S
C182 H185 0.960 . S
H183 C182 0.961 . S
H184 C182 0.961 . S
H185 C182 0.960 . S
C186 N187 1.342 . S
C186 C190 1.401 . S
C186 C191 1.499 . S
N187 Co170 1.989 . S
N187 C186 1.342 . S
N187 N188 1.388 . S
N188 Co171 1.993 1_655 S
N188 N187 1.388 . S
N188 C189 1.346 . S
C189 N188 1.346 . S
C189 C190 1.396 . S
C189 C199 1.510 1_556 S
C190 C186 1.401 . S
C190 C189 1.396 . S
C191 C186 1.499 . S
C191 H192 0.959 . S
C191 H193 0.960 . S
C191 H194 0.961 . S
H192 C191 0.959 . S
H193 C191 0.960 . S
H194 C191 0.961 . S
O195 Co170 1.967 . S
O195 C203 1.258 1_655 S
O196 Co171 1.941 . S
O196 C203 1.266 . S
H197 C199 0.959 . S
H198 C199 0.961 . S
C199 C189 1.510 1_554 S
C199 H197 0.959 . S
C199 H198 0.961 . S
C199 H200 0.960 1_655 S
H200 C199 0.960 1_455 S
H201 N181 0.862 . S
O202 Co170 1.920 . S
O202 C175 1.289 . S
C203 O195 1.258 1_455 S
C203 O196 1.266 . S
Co204 O207 1.970 . S
Co204 N221 1.989 . S
Co204 O229 1.967 1_655 S
Co204 O236 1.920 . S
Co205 O208 1.966 . S
Co205 N214 2.022 . S
Co205 N222 1.993 1_455 S
Co205 O230 1.941 . S
C206 O207 1.258 . S
C206 O208 1.263 1_655 S
O207 Co204 1.970 . S
O207 C206 1.258 . S
O208 Co205 1.966 . S
O208 C206 1.263 1_455 S
C209 O210 1.235 . S
C209 O236 1.289 . S
O210 C209 1.235 . S
C211 C213 1.400 . S
C211 N214 1.351 . S
C211 C216 1.501 . S
C212 C213 1.387 . S
C212 N215 1.341 . S
C213 C211 1.400 . S
C213 C212 1.387 . S
N214 Co205 2.022 . S
N214 C211 1.351 . S
N214 N215 1.365 . S
N215 C212 1.341 . S
N215 N214 1.365 . S
N215 H235 0.862 . S
C216 C211 1.501 . S
C216 H217 0.961 . S
C216 H218 0.961 . S
C216 H219 0.960 . S
H217 C216 0.961 . S
H218 C216 0.961 . S
H219 C216 0.960 . S
C220 N221 1.342 . S
C220 C224 1.401 . S
C220 C225 1.499 . S
N221 Co204 1.989 . S
N221 C220 1.342 . S
N221 N222 1.388 . S
N222 Co205 1.993 1_655 S
N222 N221 1.388 . S
N222 C223 1.346 . S
C223 N222 1.346 . S
C223 C224 1.396 . S
C223 C233 1.510 . S
C224 C220 1.401 . S
C224 C223 1.396 . S
C225 C220 1.499 . S
C225 H226 0.959 . S
C225 H227 0.960 . S
C225 H228 0.961 . S
H226 C225 0.959 . S
H227 C225 0.960 . S
H228 C225 0.961 . S
O229 Co204 1.967 1_455 S
O229 C237 1.258 . S
O230 Co205 1.941 . S
O230 C237 1.266 . S
H231 C233 0.959 . S
H232 C233 0.961 . S
C233 C223 1.510 . S
C233 H231 0.959 . S
C233 H232 0.961 . S
C233 H234 0.960 1_655 S
H234 C233 0.960 1_455 S
H235 N215 0.862 . S
O236 Co204 1.920 . S
O236 C209 1.289 . S
C237 O229 1.258 . S
C237 O230 1.266 . S
Co238 O241 1.970 . S
Co238 N255 1.989 . S
Co238 O263 1.967 . S
Co238 O270 1.920 . S
Co239 O242 1.966 . S
Co239 N248 2.022 . S
Co239 N256 1.993 . S
Co239 O264 1.941 . S
C240 O241 1.258 . S
C240 O242 1.263 . S
O241 Co238 1.970 . S
O241 C240 1.258 . S
O242 Co239 1.966 . S
O242 C240 1.263 . S
C243 O244 1.235 . S
C243 O270 1.289 . S
O244 C243 1.235 . S
C245 C247 1.400 . S
C245 N248 1.351 . S
C245 C250 1.501 . S
C246 C247 1.387 . S
C246 N249 1.341 . S
C247 C245 1.400 . S
C247 C246 1.387 . S
N248 Co239 2.022 . S
N248 C245 1.351 . S
N248 N249 1.365 . S
N249 C246 1.341 . S
N249 N248 1.365 . S
N249 H269 0.862 . S
C250 C245 1.501 . S
C250 H251 0.961 . S
C250 H252 0.961 . S
C250 H253 0.960 . S
H251 C250 0.961 . S
H252 C250 0.961 . S
H253 C250 0.960 . S
C254 N255 1.342 . S
C254 C258 1.401 . S
C254 C259 1.499 . S
N255 Co238 1.989 . S
N255 C254 1.342 . S
N255 N256 1.388 . S
N256 Co239 1.993 . S
N256 N255 1.388 . S
N256 C257 1.346 . S
C257 N256 1.346 . S
C257 C258 1.396 . S
C257 C267 1.510 . S
C258 C254 1.401 . S
C258 C257 1.396 . S
C259 C254 1.499 . S
C259 H260 0.959 . S
C259 H261 0.960 . S
C259 H262 0.961 . S
H260 C259 0.959 . S
H261 C259 0.960 . S
H262 C259 0.961 . S
O263 Co238 1.967 . S
O263 C271 1.258 . S
O264 Co239 1.941 . S
O264 C271 1.266 . S
H265 C267 0.959 . S
H266 C267 0.961 . S
C267 C257 1.510 . S
C267 H265 0.959 . S
C267 H266 0.961 . S
C267 H268 0.960 . S
H268 C267 0.960 . S
H269 N249 0.862 . S
O270 Co238 1.920 . S
O270 C243 1.289 . S
C271 O263 1.258 . S
C271 O264 1.266 . S
Co272 O275 1.970 . S
Co272 N289 1.989 . S
Co272 O297 1.967 1_545 S
Co272 O304 1.920 . S
Co273 O276 1.966 . S
Co273 N282 2.022 . S
Co273 N290 1.993 1_565 S
Co273 O298 1.941 . S
C274 O275 1.258 . S
C274 O276 1.263 1_545 S
O275 Co272 1.970 . S
O275 C274 1.258 . S
O276 Co273 1.966 . S
O276 C274 1.263 1_565 S
C277 O278 1.235 . S
C277 O304 1.289 . S
O278 C277 1.235 . S
C279 C281 1.400 . S
C279 N282 1.351 . S
C279 C284 1.501 . S
C280 C281 1.387 . S
C280 N283 1.341 . S
C281 C279 1.400 . S
C281 C280 1.387 . S
N282 Co273 2.022 . S
N282 C279 1.351 . S
N282 N283 1.365 . S
N283 C280 1.341 . S
N283 N282 1.365 . S
N283 H303 0.862 . S
C284 C279 1.501 . S
C284 H285 0.961 . S
C284 H286 0.961 . S
C284 H287 0.960 . S
H285 C284 0.961 . S
H286 C284 0.961 . S
H287 C284 0.960 . S
C288 N289 1.342 . S
C288 C292 1.401 . S
C288 C293 1.499 . S
N289 Co272 1.989 . S
N289 C288 1.342 . S
N289 N290 1.388 . S
N290 Co273 1.993 1_545 S
N290 N289 1.388 . S
N290 C291 1.346 . S
C291 N290 1.346 . S
C291 C292 1.396 . S
C291 C301 1.510 . S
C292 C288 1.401 . S
C292 C291 1.396 . S
C293 C288 1.499 . S
C293 H294 0.959 . S
C293 H295 0.960 . S
C293 H296 0.961 . S
H294 C293 0.959 . S
H295 C293 0.960 . S
H296 C293 0.961 . S
O297 Co272 1.967 1_565 S
O297 C305 1.258 . S
O298 Co273 1.941 . S
O298 C305 1.266 . S
H299 C301 0.959 . S
H300 C301 0.961 . S
C301 C291 1.510 . S
C301 H299 0.959 . S
C301 H300 0.961 . S
C301 H302 0.960 1_545 S
H302 C301 0.960 1_565 S
H303 N283 0.862 . S
O304 Co272 1.920 . S
O304 C277 1.289 . S
C305 O297 1.258 . S
C305 O298 1.266 . S
Co306 O309 1.970 1_565 S
Co306 N323 1.989 . S
Co306 O331 1.967 . S
Co306 O338 1.920 . S
Co307 O310 1.966 . S
Co307 N316 2.022 . S
Co307 N324 1.993 . S
Co307 O332 1.941 1_545 S
C308 O309 1.258 . S
C308 O310 1.263 . S
O309 Co306 1.970 1_545 S
O309 C308 1.258 . S
O310 Co307 1.966 . S
O310 C308 1.263 . S
C311 O312 1.235 1_565 S
C311 O338 1.289 . S
O312 C311 1.235 1_545 S
C313 C315 1.400 . S
C313 N316 1.351 . S
C313 C318 1.501 . S
C314 C315 1.387 . S
C314 N317 1.341 . S
C315 C313 1.400 . S
C315 C314 1.387 . S
N316 Co307 2.022 . S
N316 C313 1.351 . S
N316 N317 1.365 . S
N317 C314 1.341 . S
N317 N316 1.365 . S
N317 H337 0.862 1_545 S
C318 C313 1.501 . S
C318 H319 0.961 . S
C318 H320 0.961 . S
C318 H321 0.960 . S
H319 C318 0.961 . S
H320 C318 0.961 . S
H321 C318 0.960 . S
C322 N323 1.342 . S
C322 C326 1.401 . S
C322 C327 1.499 . S
N323 Co306 1.989 . S
N323 C322 1.342 . S
N323 N324 1.388 1_565 S
N324 Co307 1.993 . S
N324 N323 1.388 1_545 S
N324 C325 1.346 . S
C325 N324 1.346 . S
C325 C326 1.396 1_545 S
C325 C335 1.510 . S
C326 C322 1.401 . S
C326 C325 1.396 1_565 S
C327 C322 1.499 . S
C327 H328 0.959 . S
C327 H329 0.960 . S
C327 H330 0.961 . S
H328 C327 0.959 . S
H329 C327 0.960 . S
H330 C327 0.961 . S
O331 Co306 1.967 . S
O331 C339 1.258 . S
O332 Co307 1.941 1_565 S
O332 C339 1.266 . S
H333 C335 0.959 1_565 S
H334 C335 0.961 . S
C335 C325 1.510 . S
C335 H333 0.959 1_545 S
C335 H334 0.961 . S
C335 H336 0.960 . S
H336 C335 0.960 . S
H337 N317 0.862 1_565 S
O338 Co306 1.920 . S
O338 C311 1.289 . S
C339 O331 1.258 . S
C339 O332 1.266 . S
Co340 O343 1.970 1_455 S
Co340 N357 1.989 . S
Co340 O365 1.967 . S
Co340 O372 1.920 . S
Co341 O344 1.966 . S
Co341 N350 2.022 . S
Co341 N358 1.993 . S
Co341 O366 1.941 1_655 S
C342 O343 1.258 . S
C342 O344 1.263 . S
O343 Co340 1.970 1_655 S
O343 C342 1.258 . S
O344 Co341 1.966 . S
O344 C342 1.263 . S
C345 O346 1.235 1_455 S
C345 O372 1.289 . S
O346 C345 1.235 1_655 S
C347 C349 1.400 . S
C347 N350 1.351 . S
C347 C352 1.501 . S
C348 C349 1.387 . S
C348 N351 1.341 . S
C349 C347 1.400 . S
C349 C348 1.387 . S
N350 Co341 2.022 . S
N350 C347 1.351 . S
N350 N351 1.365 . S
N351 C348 1.341 . S
N351 N350 1.365 . S
N351 H371 0.862 1_655 S
C352 C347 1.501 . S
C352 H353 0.961 . S
C352 H354 0.961 . S
C352 H355 0.960 . S
H353 C352 0.961 . S
H354 C352 0.961 . S
H355 C352 0.960 . S
C356 N357 1.342 . S
C356 C360 1.401 . S
C356 C361 1.499 . S
N357 Co340 1.989 . S
N357 C356 1.342 . S
N357 N358 1.388 1_455 S
N358 Co341 1.993 . S
N358 N357 1.388 1_655 S
N358 C359 1.346 . S
C359 N358 1.346 . S
C359 C360 1.396 1_655 S
C359 C369 1.510 . S
C360 C356 1.401 . S
C360 C359 1.396 1_455 S
C361 C356 1.499 . S
C361 H362 0.959 . S
C361 H363 0.960 . S
C361 H364 0.961 . S
H362 C361 0.959 . S
H363 C361 0.960 . S
H364 C361 0.961 . S
O365 Co340 1.967 . S
O365 C373 1.258 . S
O366 Co341 1.941 1_455 S
O366 C373 1.266 . S
H367 C369 0.958 1_455 S
H368 C369 0.961 . S
C369 C359 1.510 . S
C369 H367 0.958 1_655 S
C369 H368 0.961 . S
C369 H370 0.960 . S
H370 C369 0.960 . S
H371 N351 0.862 1_455 S
O372 Co340 1.920 . S
O372 C345 1.289 . S
C373 O365 1.258 . S
C373 O366 1.266 . S
Co374 O377 1.970 . S
Co374 N391 1.989 . S
Co374 O399 1.967 . S
Co374 O406 1.920 . S
Co375 O378 1.966 . S
Co375 N384 2.022 . S
Co375 N392 1.993 . S
Co375 O400 1.941 . S
C376 O377 1.258 . S
C376 O378 1.263 . S
O377 Co374 1.970 . S
O377 C376 1.258 . S
O378 Co375 1.966 . S
O378 C376 1.263 . S
C379 O380 1.235 . S
C379 O406 1.289 . S
O380 C379 1.235 . S
C381 C383 1.400 . S
C381 N384 1.351 . S
C381 C386 1.501 . S
C382 C383 1.387 . S
C382 N385 1.341 . S
C383 C381 1.400 . S
C383 C382 1.387 . S
N384 Co375 2.022 . S
N384 C381 1.351 . S
N384 N385 1.365 . S
N385 C382 1.341 . S
N385 N384 1.365 . S
N385 H405 0.862 . S
C386 C381 1.501 . S
C386 H387 0.961 . S
C386 H388 0.961 . S
C386 H389 0.960 . S
H387 C386 0.961 . S
H388 C386 0.961 . S
H389 C386 0.960 . S
C390 N391 1.342 . S
C390 C394 1.401 . S
C390 C395 1.499 . S
N391 Co374 1.989 . S
N391 C390 1.342 . S
N391 N392 1.388 . S
N392 Co375 1.993 . S
N392 N391 1.388 . S
N392 C393 1.346 . S
C393 N392 1.346 . S
C393 C394 1.396 . S
C393 C403 1.510 . S
C394 C390 1.401 . S
C394 C393 1.396 . S
C395 C390 1.499 . S
C395 H396 0.959 . S
C395 H397 0.960 . S
C395 H398 0.961 . S
H396 C395 0.959 . S
H397 C395 0.960 . S
H398 C395 0.961 . S
O399 Co374 1.967 . S
O399 C407 1.258 . S
O400 Co375 1.941 . S
O400 C407 1.266 . S
H401 C403 0.959 . S
H402 C403 0.961 . S
C403 C393 1.510 . S
C403 H401 0.959 . S
C403 H402 0.961 . S
C403 H404 0.960 . S
H404 C403 0.960 . S
H405 N385 0.862 . S
O406 Co374 1.920 . S
O406 C379 1.289 . S
C407 O399 1.258 . S
C407 O400 1.266 . S
Co408 O411 1.970 1_545 S
Co408 N425 1.989 . S
Co408 O433 1.967 . S
Co408 O440 1.920 . S
Co409 O412 1.966 . S
Co409 N418 2.022 . S
Co409 N426 1.993 . S
Co409 O434 1.941 1_565 S
C410 O411 1.258 . S
C410 O412 1.263 . S
O411 Co408 1.970 1_565 S
O411 C410 1.258 . S
O412 Co409 1.966 . S
O412 C410 1.263 . S
C413 O414 1.235 1_545 S
C413 O440 1.289 . S
O414 C413 1.235 1_565 S
C415 C417 1.400 . S
C415 N418 1.351 . S
C415 C420 1.501 . S
C416 C417 1.387 . S
C416 N419 1.341 . S
C417 C415 1.400 . S
C417 C416 1.387 . S
N418 Co409 2.022 . S
N418 C415 1.351 . S
N418 N419 1.365 . S
N419 C416 1.341 . S
N419 N418 1.365 . S
N419 H439 0.862 1_565 S
C420 C415 1.501 . S
C420 H421 0.961 . S
C420 H422 0.961 . S
C420 H423 0.960 . S
H421 C420 0.961 . S
H422 C420 0.961 . S
H423 C420 0.960 . S
C424 N425 1.342 . S
C424 C428 1.401 . S
C424 C429 1.499 . S
N425 Co408 1.989 . S
N425 C424 1.342 . S
N425 N426 1.388 1_545 S
N426 Co409 1.993 . S
N426 N425 1.388 1_565 S
N426 C427 1.346 . S
C427 N426 1.346 . S
C427 C428 1.396 1_565 S
C427 C437 1.510 . S
C428 C424 1.401 . S
C428 C427 1.396 1_545 S
C429 C424 1.499 . S
C429 H430 0.959 . S
C429 H431 0.960 . S
C429 H432 0.961 . S
H430 C429 0.959 . S
H431 C429 0.960 . S
H432 C429 0.961 . S
O433 Co408 1.967 . S
O433 C441 1.258 . S
O434 Co409 1.941 1_545 S
O434 C441 1.266 . S
H435 C437 0.959 1_545 S
H436 C437 0.961 . S
C437 C427 1.510 . S
C437 H435 0.959 1_565 S
C437 H436 0.961 . S
C437 H438 0.960 . S
H438 C437 0.960 . S
H439 N419 0.862 1_545 S
O440 Co408 1.920 . S
O440 C413 1.289 . S
C441 O433 1.258 . S
C441 O434 1.266 . S
Co442 O445 1.970 1_655 S
Co442 N459 1.989 . S
Co442 O467 1.967 . S
Co442 O474 1.920 . S
Co443 O446 1.966 . S
Co443 N452 2.022 . S
Co443 N460 1.993 . S
Co443 O468 1.941 1_455 S
C444 O445 1.258 . S
C444 O446 1.263 . S
O445 Co442 1.970 1_455 S
O445 C444 1.258 . S
O446 Co443 1.966 . S
O446 C444 1.263 . S
C447 O448 1.235 1_655 S
C447 O474 1.289 . S
O448 C447 1.235 1_455 S
C449 C451 1.400 . S
C449 N452 1.351 . S
C449 C454 1.501 . S
C450 C451 1.387 . S
C450 N453 1.341 . S
C451 C449 1.400 . S
C451 C450 1.387 . S
N452 Co443 2.022 . S
N452 C449 1.351 . S
N452 N453 1.365 . S
N453 C450 1.341 . S
N453 N452 1.365 . S
N453 H473 0.862 1_455 S
C454 C449 1.501 . S
C454 H455 0.961 . S
C454 H456 0.961 . S
C454 H457 0.960 . S
H455 C454 0.961 . S
H456 C454 0.961 . S
H457 C454 0.960 . S
C458 N459 1.342 . S
C458 C462 1.401 . S
C458 C463 1.499 . S
N459 Co442 1.989 . S
N459 C458 1.342 . S
N459 N460 1.388 1_655 S
N460 Co443 1.993 . S
N460 N459 1.388 1_455 S
N460 C461 1.346 . S
C461 N460 1.346 . S
C461 C462 1.396 1_455 S
C461 C471 1.510 . S
C462 C458 1.401 . S
C462 C461 1.396 1_655 S
C463 C458 1.499 . S
C463 H464 0.959 . S
C463 H465 0.960 . S
C463 H466 0.961 . S
H464 C463 0.959 . S
H465 C463 0.960 . S
H466 C463 0.961 . S
O467 Co442 1.967 . S
O467 C475 1.258 . S
O468 Co443 1.941 1_655 S
O468 C475 1.266 . S
H469 C471 0.958 1_655 S
H470 C471 0.961 . S
C471 C461 1.510 . S
C471 H469 0.958 1_455 S
C471 H470 0.961 . S
C471 H472 0.960 . S
H472 C471 0.960 . S
H473 N453 0.862 1_655 S
O474 Co442 1.920 . S
O474 C447 1.289 . S
C475 O467 1.258 . S
C475 O468 1.266 . S
Co476 O479 1.970 . S
Co476 N493 1.989 . S
Co476 O501 1.967 . S
Co476 O508 1.920 . S
Co477 O480 1.966 . S
Co477 N486 2.022 . S
Co477 N494 1.993 . S
Co477 O502 1.941 . S
C478 O479 1.258 . S
C478 O480 1.263 . S
O479 Co476 1.970 . S
O479 C478 1.258 . S
O480 Co477 1.966 . S
O480 C478 1.263 . S
C481 O482 1.235 . S
C481 O508 1.289 . S
O482 C481 1.235 . S
C483 C485 1.400 . S
C483 N486 1.351 . S
C483 C488 1.501 . S
C484 C485 1.387 . S
C484 N487 1.341 . S
C485 C483 1.400 . S
C485 C484 1.387 . S
N486 Co477 2.022 . S
N486 C483 1.351 . S
N486 N487 1.365 . S
N487 C484 1.341 . S
N487 N486 1.365 . S
N487 H507 0.862 . S
C488 C483 1.501 . S
C488 H489 0.961 . S
C488 H490 0.961 . S
C488 H491 0.960 . S
H489 C488 0.961 . S
H490 C488 0.961 . S
H491 C488 0.960 . S
C492 N493 1.342 . S
C492 C496 1.401 . S
C492 C497 1.499 . S
N493 Co476 1.989 . S
N493 C492 1.342 . S
N493 N494 1.388 . S
N494 Co477 1.993 . S
N494 N493 1.388 . S
N494 C495 1.346 . S
C495 N494 1.346 . S
C495 C496 1.396 . S
C495 C505 1.510 . S
C496 C492 1.401 . S
C496 C495 1.396 . S
C497 C492 1.499 . S
C497 H498 0.959 . S
C497 H499 0.960 . S
C497 H500 0.961 . S
H498 C497 0.959 . S
H499 C497 0.960 . S
H500 C497 0.961 . S
O501 Co476 1.967 . S
O501 C509 1.258 . S
O502 Co477 1.941 . S
O502 C509 1.266 . S
H503 C505 0.959 . S
H504 C505 0.961 . S
C505 C495 1.510 . S
C505 H503 0.959 . S
C505 H504 0.961 . S
C505 H506 0.960 . S
H506 C505 0.960 . S
H507 N487 0.862 . S
O508 Co476 1.920 . S
O508 C481 1.289 . S
C509 O501 1.258 . S
C509 O502 1.266 . S
Co510 O513 1.970 . S
Co510 N527 1.989 . S
Co510 O535 1.967 1_455 S
Co510 O542 1.920 . S
Co511 O514 1.966 . S
Co511 N520 2.022 . S
Co511 N528 1.993 1_655 S
Co511 O536 1.941 . S
C512 O513 1.258 . S
C512 O514 1.263 1_455 S
O513 Co510 1.970 . S
O513 C512 1.258 . S
O514 Co511 1.966 . S
O514 C512 1.263 1_655 S
C515 O516 1.235 . S
C515 O542 1.289 . S
O516 C515 1.235 . S
C517 C519 1.400 . S
C517 N520 1.351 . S
C517 C522 1.501 . S
C518 C519 1.387 . S
C518 N521 1.341 . S
C519 C517 1.400 . S
C519 C518 1.387 . S
N520 Co511 2.022 . S
N520 C517 1.351 . S
N520 N521 1.365 . S
N521 C518 1.341 . S
N521 N520 1.365 . S
N521 H541 0.862 . S
C522 C517 1.501 . S
C522 H523 0.961 . S
C522 H524 0.961 . S
C522 H525 0.960 . S
H523 C522 0.961 . S
H524 C522 0.961 . S
H525 C522 0.960 . S
C526 N527 1.342 . S
C526 C530 1.401 . S
C526 C531 1.499 . S
N527 Co510 1.989 . S
N527 C526 1.342 . S
N527 N528 1.388 . S
N528 Co511 1.993 1_455 S
N528 N527 1.388 . S
N528 C529 1.346 . S
C529 N528 1.346 . S
C529 C530 1.396 . S
C529 C539 1.510 . S
C530 C526 1.401 . S
C530 C529 1.396 . S
C531 C526 1.499 . S
C531 H532 0.959 . S
C531 H533 0.960 . S
C531 H534 0.961 . S
H532 C531 0.959 . S
H533 C531 0.960 . S
H534 C531 0.961 . S
O535 Co510 1.967 1_655 S
O535 C543 1.258 . S
O536 Co511 1.941 . S
O536 C543 1.266 . S
H537 C539 0.959 . S
H538 C539 0.961 . S
C539 C529 1.510 . S
C539 H537 0.959 . S
C539 H538 0.961 . S
C539 H540 0.960 1_455 S
H540 C539 0.960 1_655 S
H541 N521 0.862 . S
O542 Co510 1.920 . S
O542 C515 1.289 . S
C543 O535 1.258 . S
C543 O536 1.266 . S
Co544 O547 1.970 . S
Co544 N561 1.989 . S
Co544 O569 1.967 . S
Co544 O576 1.920 . S
Co545 O548 1.966 . S
Co545 N554 2.022 . S
Co545 N562 1.993 . S
Co545 O570 1.941 . S
C546 O547 1.258 . S
C546 O548 1.263 . S
O547 Co544 1.970 . S
O547 C546 1.258 . S
O548 Co545 1.966 . S
O548 C546 1.263 . S
C549 O550 1.235 . S
C549 O576 1.289 . S
O550 C549 1.235 . S
C551 C553 1.400 . S
C551 N554 1.351 . S
C551 C556 1.501 . S
C552 C553 1.387 . S
C552 N555 1.341 . S
C553 C551 1.400 . S
C553 C552 1.387 . S
N554 Co545 2.022 . S
N554 C551 1.351 . S
N554 N555 1.365 . S
N555 C552 1.341 . S
N555 N554 1.365 . S
N555 H575 0.862 . S
C556 C551 1.501 . S
C556 H557 0.961 . S
C556 H558 0.961 . S
C556 H559 0.960 . S
H557 C556 0.961 . S
H558 C556 0.961 . S
H559 C556 0.960 . S
C560 N561 1.342 . S
C560 C564 1.401 . S
C560 C565 1.499 . S
N561 Co544 1.989 . S
N561 C560 1.342 . S
N561 N562 1.388 . S
N562 Co545 1.993 . S
N562 N561 1.388 . S
N562 C563 1.346 . S
C563 N562 1.346 . S
C563 C564 1.396 . S
C563 C573 1.510 . S
C564 C560 1.401 . S
C564 C563 1.396 . S
C565 C560 1.499 . S
C565 H566 0.959 . S
C565 H567 0.960 . S
C565 H568 0.961 . S
H566 C565 0.959 . S
H567 C565 0.960 . S
H568 C565 0.961 . S
O569 Co544 1.967 . S
O569 C577 1.258 . S
O570 Co545 1.941 . S
O570 C577 1.266 . S
H571 C573 0.959 . S
H572 C573 0.961 . S
C573 C563 1.510 . S
C573 H571 0.959 . S
C573 H572 0.961 . S
C573 H574 0.960 . S
H574 C573 0.960 . S
H575 N555 0.862 . S
O576 Co544 1.920 . S
O576 C549 1.289 . S
C577 O569 1.258 . S
C577 O570 1.266 . S
Co578 O581 1.970 . S
Co578 N595 1.989 . S
Co578 O603 1.967 1_565 S
Co578 O610 1.920 . S
Co579 O582 1.966 . S
Co579 N588 2.022 . S
Co579 N596 1.993 1_545 S
Co579 O604 1.941 . S
C580 O581 1.258 . S
C580 O582 1.263 1_565 S
O581 Co578 1.970 . S
O581 C580 1.258 . S
O582 Co579 1.966 . S
O582 C580 1.263 1_545 S
C583 O584 1.235 . S
C583 O610 1.289 . S
O584 C583 1.235 . S
C585 C587 1.400 . S
C585 N588 1.351 . S
C585 C590 1.501 . S
C586 C587 1.387 . S
C586 N589 1.341 . S
C587 C585 1.400 . S
C587 C586 1.387 . S
N588 Co579 2.022 . S
N588 C585 1.351 . S
N588 N589 1.365 . S
N589 C586 1.341 . S
N589 N588 1.365 . S
N589 H609 0.862 . S
C590 C585 1.501 . S
C590 H591 0.961 . S
C590 H592 0.961 . S
C590 H593 0.960 . S
H591 C590 0.961 . S
H592 C590 0.961 . S
H593 C590 0.960 . S
C594 N595 1.342 . S
C594 C598 1.401 . S
C594 C599 1.499 . S
N595 Co578 1.989 . S
N595 C594 1.342 . S
N595 N596 1.388 . S
N596 Co579 1.993 1_565 S
N596 N595 1.388 . S
N596 C597 1.346 . S
C597 N596 1.346 . S
C597 C598 1.396 . S
C597 C607 1.510 . S
C598 C594 1.401 . S
C598 C597 1.396 . S
C599 C594 1.499 . S
C599 H600 0.959 . S
C599 H601 0.960 . S
C599 H602 0.961 . S
H600 C599 0.959 . S
H601 C599 0.960 . S
H602 C599 0.961 . S
O603 Co578 1.967 1_545 S
O603 C611 1.258 . S
O604 Co579 1.941 . S
O604 C611 1.266 . S
H605 C607 0.959 . S
H606 C607 0.961 . S
C607 C597 1.510 . S
C607 H605 0.959 . S
C607 H606 0.961 . S
C607 H608 0.960 1_565 S
H608 C607 0.960 1_545 S
H609 N589 0.862 . S
O610 Co578 1.920 . S
O610 C583 1.289 . S
C611 O603 1.258 . S
C611 O604 1.266 . S
C9 C156 2.014 . S
C43 C190 2.086 . S
C77 C122 2.197 . S
C54 C111 2.014 . S
C145 C88 2.086 . S
C20 C179 2.197 . S
C213 C360 2.243 . S
C394 C247 2.260 . S
C281 C326 2.196 . S
C258 C315 2.244 . S
C349 C292 2.195 . S
C224 C383 2.229 . S
C564 C417 2.244 . S
C598 C451 2.195 . S
C530 C485 2.229 . S
C519 C462 2.243 . S
C496 C553 2.260 . S
C428 C587 2.196 . S
C33 C379 1.485 . S
C67 C311 1.388 1_545 S
C345 C101 1.512 1_455 S
C481 C135 1.485 . S
C413 C169 1.388 1_545 S
C447 C203 1.512 1_655 S
C583 C237 1.541 . S
C515 C271 1.532 . S
C305 C549 1.523 . S
C73 C339 1.434 . S
C373 C5 1.472 . S
C407 C39 1.451 . S
C441 C175 1.434 . S
C107 C475 1.472 . S
C509 C141 1.451 . S
C543 C277 1.541 . S
C577 C209 1.532 . S
C611 C243 1.523 . S
C308 C2 2.776 . S
C36 C342 2.919 . S
C70 C376 2.861 . S
C104 C410 2.776 . S
C444 C138 2.919 . S
C172 C478 2.861 . S
C206 C512 2.671 1_655 S
C546 C240 2.695 . S
C274 C580 2.684 1_545 S
