# Generated by pormake.
# Topology umo, (4)-cn, num edge types: 1
# Building blocks:
#     Node 0, Type 0, BuildingBlock: MUDLON_clean_sbu_0, # of connection points: 4
#     Node 1, Type 0, BuildingBlock: MUDLON_clean_sbu_0, # of connection points: 4
#     Node 2, Type 0, BuildingBlock: MUDLON_clean_sbu_0, # of connection points: 4
#     Node 3, Type 0, BuildingBlock: MUDLON_clean_sbu_0, # of connection points: 4
#     Node 4, Type 0, BuildingBlock: MUDLON_clean_sbu_0, # of connection points: 4
#     Node 5, Type 0, BuildingBlock: MUDLON_clean_sbu_0, # of connection points: 4
#     Node 6, Type 0, BuildingBlock: MUDLON_clean_sbu_0, # of connection points: 4
#     Node 7, Type 0, BuildingBlock: MUDLON_clean_sbu_0, # of connection points: 4
#     Node 8, Type 0, BuildingBlock: MUDLON_clean_sbu_0, # of connection points: 4
#     Node 9, Type 0, BuildingBlock: MUDLON_clean_sbu_0, # of connection points: 4
#     Node 10, Type 0, BuildingBlock: MUDLON_clean_sbu_0, # of connection points: 4
#     Node 11, Type 0, BuildingBlock: MUDLON_clean_sbu_0, # of connection points: 4
#     Edge 12, Type (0, 0), BuildingBlock: MIFKUJ_clean_linker_0, # of connection points: 2
#     Edge 13, Type (0, 0), BuildingBlock: MIFKUJ_clean_linker_0, # of connection points: 2
#     Edge 14, Type (0, 0), BuildingBlock: MIFKUJ_clean_linker_0, # of connection points: 2
#     Edge 15, Type (0, 0), BuildingBlock: MIFKUJ_clean_linker_0, # of connection points: 2
#     Edge 16, Type (0, 0), BuildingBlock: MIFKUJ_clean_linker_0, # of connection points: 2
#     Edge 17, Type (0, 0), BuildingBlock: MIFKUJ_clean_linker_0, # of connection points: 2
#     Edge 18, Type (0, 0), BuildingBlock: MIFKUJ_clean_linker_0, # of connection points: 2
#     Edge 19, Type (0, 0), BuildingBlock: MIFKUJ_clean_linker_0, # of connection points: 2
#     Edge 20, Type (0, 0), BuildingBlock: MIFKUJ_clean_linker_0, # of connection points: 2
#     Edge 21, Type (0, 0), BuildingBlock: MIFKUJ_clean_linker_0, # of connection points: 2
#     Edge 22, Type (0, 0), BuildingBlock: MIFKUJ_clean_linker_0, # of connection points: 2
#     Edge 23, Type (0, 0), BuildingBlock: MIFKUJ_clean_linker_0, # of connection points: 2
#     Edge 24, Type (0, 0), BuildingBlock: MIFKUJ_clean_linker_0, # of connection points: 2
#     Edge 25, Type (0, 0), BuildingBlock: MIFKUJ_clean_linker_0, # of connection points: 2
#     Edge 26, Type (0, 0), BuildingBlock: MIFKUJ_clean_linker_0, # of connection points: 2
#     Edge 27, Type (0, 0), BuildingBlock: MIFKUJ_clean_linker_0, # of connection points: 2
#     Edge 28, Type (0, 0), BuildingBlock: MIFKUJ_clean_linker_0, # of connection points: 2
#     Edge 29, Type (0, 0), BuildingBlock: MIFKUJ_clean_linker_0, # of connection points: 2
#     Edge 30, Type (0, 0), BuildingBlock: MIFKUJ_clean_linker_0, # of connection points: 2
#     Edge 31, Type (0, 0), BuildingBlock: MIFKUJ_clean_linker_0, # of connection points: 2
#     Edge 32, Type (0, 0), BuildingBlock: MIFKUJ_clean_linker_0, # of connection points: 2
#     Edge 33, Type (0, 0), BuildingBlock: MIFKUJ_clean_linker_0, # of connection points: 2
#     Edge 34, Type (0, 0), BuildingBlock: MIFKUJ_clean_linker_0, # of connection points: 2
#     Edge 35, Type (0, 0), BuildingBlock: MIFKUJ_clean_linker_0, # of connection points: 2
# Relax obj value: 0.142
# Max RMSD: 0.179
# Mean RMSD: 0.179
data_MOF--net-umo--node1-MUDLON_clean_sbu_0--edge1-MIFKUJ_clean_linker_0
_symmetry_space_group_name_H-M    P1
_symmetry_Int_Tables_number       1
_symmetry_cell_setting            triclinic
loop_
_symmetry_equiv_pos_as_xyz
'x, y, z'
_cell_length_a     64.348853
_cell_length_b     64.335122
_cell_length_c     51.28763
_cell_angle_alpha  90.080833
_cell_angle_beta   89.97543
_cell_angle_gamma 119.99274
loop_
_atom_site_label
_atom_site_type_symbol
_atom_site_fract_x
_atom_site_fract_y
_atom_site_fract_z
_atom_type_partial_charge
Mg0 Mg 0.17592 0.56175 0.3981 0.0
C1 C 0.16793 0.57091 0.45237 0.0
O2 O 0.15651 0.57909 0.43836 0.0
C3 C 0.18822 0.536 0.35616 0.0
O4 O 0.16567 0.52797 0.34997 0.0
C5 C 0.13206 0.54744 0.36449 0.0
O6 O 0.14839 0.56297 0.34851 0.0
O7 O 0.13854 0.54343 0.38643 0.0
O8 O 0.17799 0.56079 0.44065 0.0
O9 O 0.19283 0.5996 0.38918 0.0
C10 C 0.18271 0.61225 0.38848 0.0
O11 O 0.15936 0.60197 0.39146 0.0
O12 O 0.19673 0.54898 0.37646 0.0
Mg13 Mg 0.62583 0.16921 0.5743 0.0
C14 C 0.61686 0.15452 0.63057 0.0
O15 O 0.60053 0.1348 0.61911 0.0
C16 C 0.666 0.21082 0.54587 0.0
O17 O 0.65636 0.22172 0.55845 0.0
C18 C 0.58308 0.12064 0.55972 0.0
O19 O 0.57124 0.13164 0.56601 0.0
O20 O 0.60585 0.13199 0.5613 0.0
O21 O 0.63185 0.17177 0.61641 0.0
O22 O 0.60553 0.1874 0.56851 0.0
C23 C 0.58886 0.18486 0.58381 0.0
O24 O 0.58193 0.16907 0.60276 0.0
O25 O 0.65783 0.18855 0.54996 0.0
Mg26 Mg 0.4575 0.62608 0.74451 0.0
C27 C 0.47052 0.61916 0.79786 0.0
O28 O 0.46713 0.59971 0.78571 0.0
C29 C 0.45827 0.65007 0.6949 0.0
O30 O 0.44966 0.62757 0.68791 0.0
C31 C 0.4619 0.58391 0.72459 0.0
O32 O 0.43958 0.57188 0.73275 0.0
O33 O 0.47347 0.60662 0.72695 0.0
O34 O 0.47091 0.63596 0.78436 0.0
O35 O 0.41875 0.60296 0.74935 0.0
C36 C 0.41025 0.604 0.77142 0.0
O37 O 0.42457 0.61937 0.7889 0.0
O38 O 0.46383 0.65568 0.71873 0.0
Mg39 Mg 0.82271 0.43951 0.90005 0.0
C40 C 0.82879 0.4292 0.95416 0.0
O41 O 0.83769 0.4186 0.93984 0.0
C42 C 0.79641 0.44257 0.85451 0.0
O43 O 0.80159 0.42586 0.84831 0.0
C44 C 0.8669 0.46652 0.86583 0.0
O45 O 0.85103 0.46703 0.85017 0.0
O46 O 0.86007 0.45617 0.88782 0.0
O47 O 0.82115 0.44165 0.94269 0.0
O48 O 0.804 0.40125 0.89264 0.0
C49 C 0.81278 0.38749 0.89046 0.0
O50 O 0.83612 0.39647 0.89155 0.0
O51 O 0.80319 0.45279 0.87668 0.0
Mg52 Mg 0.37743 0.82179 0.07022 0.0
C53 C 0.39358 0.82758 0.12414 0.0
O54 O 0.41264 0.83351 0.10979 0.0
C55 C 0.34924 0.80277 0.02244 0.0
O56 O 0.37173 0.81397 0.01471 0.0
C57 C 0.40255 0.87573 0.06935 0.0
O58 O 0.39171 0.87165 0.09203 0.0
O59 O 0.39991 0.85803 0.05577 0.0
O60 O 0.37394 0.82219 0.11267 0.0
O61 O 0.39484 0.80074 0.06602 0.0
C62 C 0.4166 0.80799 0.06024 0.0
O63 O 0.43075 0.83046 0.05343 0.0
O64 O 0.34494 0.80321 0.04662 0.0
Mg65 Mg 0.54486 0.37442 0.23452 0.0
C66 C 0.54611 0.38994 0.28874 0.0
O67 O 0.54733 0.4076 0.27472 0.0
C68 C 0.52645 0.33924 0.18969 0.0
O69 O 0.52082 0.35516 0.18162 0.0
C70 C 0.53224 0.40553 0.20246 0.0
O71 O 0.55232 0.40994 0.19104 0.0
O72 O 0.52438 0.39088 0.22142 0.0
O73 O 0.54333 0.37128 0.27696 0.0
O74 O 0.58244 0.3994 0.22785 0.0
C75 C 0.59371 0.39758 0.20847 0.0
O76 O 0.58186 0.381 0.19079 0.0
O77 O 0.53572 0.34181 0.21225 0.0
Mg78 Mg 0.43728 0.82566 0.45651 0.0
C79 C 0.43179 0.83532 0.40164 0.0
O80 O 0.42648 0.84951 0.41489 0.0
C81 C 0.45727 0.81213 0.50224 0.0
O82 O 0.45944 0.83249 0.51037 0.0
C83 C 0.44955 0.87177 0.48572 0.0
O84 O 0.42944 0.85749 0.49798 0.0
O85 O 0.45688 0.86324 0.46792 0.0
O86 O 0.43912 0.82306 0.41404 0.0
O87 O 0.39904 0.80901 0.46408 0.0
C88 C 0.38589 0.81842 0.46106 0.0
O89 O 0.39577 0.84126 0.45512 0.0
O90 O 0.44942 0.80494 0.47927 0.0
Mg91 Mg 0.61744 0.44699 0.61341 0.0
C92 C 0.61324 0.45601 0.55612 0.0
O93 O 0.60324 0.46769 0.56616 0.0
C94 C 0.65126 0.46774 0.65921 0.0
O95 O 0.6347 0.47294 0.66605 0.0
C96 C 0.5786 0.45608 0.63402 0.0
O97 O 0.56771 0.4327 0.63712 0.0
O98 O 0.59962 0.46687 0.62439 0.0
O99 O 0.62254 0.44729 0.57133 0.0
O100 O 0.59481 0.40919 0.6212 0.0
C101 C 0.57814 0.39578 0.60551 0.0
O102 O 0.57299 0.40561 0.58595 0.0
O103 O 0.6495 0.45789 0.63713 0.0
Mg104 Mg 0.16798 0.61036 0.7862 0.0
C105 C 0.16827 0.59704 0.73119 0.0
O106 O 0.16468 0.578 0.74428 0.0
C107 C 0.18108 0.64364 0.83212 0.0
O108 O 0.16068 0.62541 0.84005 0.0
C109 C 0.11395 0.58768 0.78378 0.0
O110 O 0.11917 0.59632 0.75999 0.0
O111 O 0.13087 0.59082 0.799 0.0
O112 O 0.17003 0.61495 0.74378 0.0
O113 O 0.18495 0.58916 0.79298 0.0
C114 C 0.19219 0.58578 0.81473 0.0
O115 O 0.18824 0.59457 0.83609 0.0
O116 O 0.18841 0.64307 0.8092 0.0
Mg117 Mg 0.55023 0.16454 0.94913 0.0
C118 C 0.5636 0.18521 0.8952 0.0
O119 O 0.57995 0.20305 0.90912 0.0
C120 C 0.54125 0.18287 0.99845 0.0
O121 O 0.54835 0.16799 1.00633 0.0
C122 C 0.54022 0.11856 0.9757 0.0
O123 O 0.56235 0.13263 0.98369 0.0
O124 O 0.53053 0.1271 0.96081 0.0
O125 O 0.54698 0.16712 0.90701 0.0
O126 O 0.58833 0.17817 0.95411 0.0
C127 C 0.60169 0.19888 0.96375 0.0
O128 O 0.59178 0.211 0.9728 0.0
O129 O 0.53954 0.1853 0.97403 0.0
Mg130 Mg 0.38378 0.55571 0.11547 0.0
C131 C 0.38218 0.57177 0.06072 0.0
O132 O 0.38151 0.58888 0.07405 0.0
C133 C 0.35575 0.54811 0.16264 0.0
O134 O 0.37804 0.55685 0.17043 0.0
C135 C 0.41555 0.53356 0.11432 0.0
O136 O 0.421 0.54395 0.09135 0.0
O137 O 0.40051 0.53559 0.12859 0.0
O138 O 0.38105 0.55406 0.07302 0.0
O139 O 0.4066 0.59329 0.12435 0.0
C140 C 0.42687 0.60626 0.1136 0.0
O141 O 0.43552 0.59617 0.09806 0.0
O142 O 0.3513 0.54456 0.13833 0.0
Mg143 Mg 0.83155 0.38139 0.2854 0.0
C144 C 0.83569 0.39656 0.23147 0.0
O145 O 0.8422 0.41576 0.24587 0.0
C146 C 0.80716 0.35577 0.33262 0.0
O147 O 0.81361 0.37839 0.33661 0.0
C148 C 0.88565 0.41 0.28336 0.0
O149 O 0.88124 0.40272 0.25901 0.0
O150 O 0.86818 0.40384 0.29898 0.0
O151 O 0.83087 0.37702 0.24287 0.0
O152 O 0.81112 0.39966 0.28814 0.0
C153 C 0.79127 0.38752 0.27628 0.0
O154 O 0.78552 0.36607 0.26755 0.0
O155 O 0.81265 0.35011 0.31092 0.0
H156 H 0.22903 0.63894 0.3728 0.0
H157 H 0.25694 0.68065 0.38389 0.0
H158 H 0.19921 0.68696 0.4185 0.0
H159 H 0.17103 0.64491 0.40753 0.0
H160 H 0.26305 0.72503 0.37622 0.0
H161 H 0.22274 0.71769 0.47733 0.0
H162 H 0.19523 0.68692 0.50843 0.0
H163 H 0.21509 0.63699 0.47824 0.0
H164 H 0.24299 0.66759 0.44728 0.0
H165 H 0.35283 0.82872 0.44028 0.0
H166 H 0.31117 0.7998 0.42891 0.0
H167 H 0.31832 0.7433 0.46537 0.0
H168 H 0.35965 0.77198 0.47704 0.0
H169 H 0.27374 0.73598 0.47204 0.0
H170 H 0.33155 0.75699 0.40121 0.0
H171 H 0.36166 0.78444 0.36955 0.0
H172 H 0.31066 0.80244 0.33859 0.0
H173 H 0.28039 0.77538 0.37036 0.0
C174 C 0.22214 0.64935 0.38218 0.0
C175 C 0.19795 0.63859 0.38964 0.0
C176 C 0.23809 0.67325 0.38839 0.0
C177 C 0.2302 0.68677 0.40235 0.0
C178 C 0.20566 0.67671 0.40792 0.0
C179 C 0.18959 0.65274 0.40154 0.0
C180 C 0.24832 0.70998 0.41378 0.0
C181 C 0.2651 0.72772 0.39716 0.0
C182 C 0.25114 0.7133 0.44112 0.0
C183 C 0.23465 0.69481 0.45978 0.0
C184 C 0.22124 0.70015 0.47738 0.0
C185 C 0.20561 0.68276 0.49498 0.0
C186 C 0.20336 0.66 0.49524 0.0
C187 C 0.2168 0.6546 0.47796 0.0
C188 C 0.23251 0.67196 0.46038 0.0
C189 C 0.3453 0.81027 0.44652 0.0
C190 C 0.35963 0.80253 0.45919 0.0
C191 C 0.32152 0.79376 0.43992 0.0
C192 C 0.31181 0.76935 0.44592 0.0
C193 C 0.32546 0.76204 0.4605 0.0
C194 C 0.34916 0.77845 0.46704 0.0
C195 C 0.28879 0.75081 0.43447 0.0
C196 C 0.27114 0.73387 0.4511 0.0
C197 C 0.28549 0.74791 0.40712 0.0
C198 C 0.30384 0.76445 0.38838 0.0
C199 C 0.32686 0.76701 0.38783 0.0
C200 C 0.34394 0.78245 0.36985 0.0
C201 C 0.33807 0.7952 0.35212 0.0
C202 C 0.31518 0.79259 0.35239 0.0
C203 C 0.29807 0.77723 0.37038 0.0
H204 H 0.3512 0.80699 0.33807 0.0
H205 H 0.19128 0.6466 0.5089 0.0
H206 H 0.61179 0.22968 0.56324 0.0
H207 H 0.60027 0.26022 0.56649 0.0
H208 H 0.53396 0.20935 0.60403 0.0
H209 H 0.54641 0.17906 0.60244 0.0
H210 H 0.56959 0.26856 0.54956 0.0
H211 H 0.51492 0.23758 0.64503 0.0
H212 H 0.51204 0.21558 0.68553 0.0
H213 H 0.58566 0.23383 0.67736 0.0
H214 H 0.589 0.25605 0.63693 0.0
H215 H 0.54463 0.36151 0.57298 0.0
H216 H 0.53499 0.31969 0.56914 0.0
H217 H 0.58086 0.32948 0.63494 0.0
H218 H 0.58974 0.37068 0.63951 0.0
H219 H 0.54658 0.28626 0.63549 0.0
H220 H 0.59986 0.34008 0.57084 0.0
H221 H 0.61291 0.36833 0.53393 0.0
H222 H 0.55989 0.31328 0.48483 0.0
H223 H 0.54563 0.28504 0.52183 0.0
C224 C 0.59465 0.2249 0.57198 0.0
C225 C 0.58006 0.20205 0.58274 0.0
C226 C 0.588 0.2424 0.57378 0.0
C227 C 0.56635 0.23731 0.58585 0.0
C228 C 0.55104 0.21398 0.59525 0.0
C229 C 0.55805 0.19662 0.59414 0.0
C230 C 0.56074 0.25695 0.58945 0.0
C231 C 0.56434 0.27228 0.56832 0.0
C232 C 0.55407 0.26204 0.61395 0.0
C233 C 0.55209 0.24818 0.63782 0.0
C234 C 0.53046 0.23683 0.65187 0.0
C235 C 0.52876 0.22436 0.67482 0.0
C236 C 0.54866 0.22332 0.68401 0.0
C237 C 0.57026 0.23464 0.67021 0.0
C238 C 0.57205 0.24711 0.64724 0.0
C239 C 0.55212 0.35452 0.58706 0.0
C240 C 0.56831 0.36953 0.60626 0.0
C241 C 0.54666 0.33064 0.58478 0.0
C242 C 0.55765 0.3216 0.60136 0.0
C243 C 0.5722 0.33602 0.62184 0.0
C244 C 0.57739 0.3597 0.62434 0.0
C245 C 0.55651 0.29838 0.59593 0.0
C246 C 0.55132 0.28223 0.6166 0.0
C247 C 0.56321 0.29335 0.57141 0.0
C248 C 0.5713 0.31057 0.54931 0.0
C249 C 0.59064 0.33412 0.55233 0.0
C250 C 0.59823 0.35015 0.53139 0.0
C251 C 0.58707 0.34268 0.50712 0.0
C252 C 0.56831 0.31914 0.50374 0.0
C253 C 0.56034 0.30316 0.52474 0.0
H254 H 0.59304 0.35508 0.49089 0.0
H255 H 0.54733 0.21375 0.70184 0.0
H256 H 0.20573 0.56887 0.77319 0.0
H257 H 0.23788 0.55959 0.77163 0.0
H258 H 0.24729 0.56968 0.85491 0.0
H259 H 0.21542 0.57991 0.8565 0.0
H260 H 0.28758 0.59621 0.83186 0.0
H261 H 0.22949 0.5138 0.82462 0.0
H262 H 0.19318 0.47784 0.80863 0.0
H263 H 0.22293 0.4903 0.73147 0.0
H264 H 0.25928 0.52654 0.74688 0.0
H265 H 0.39046 0.58841 0.81893 0.0
H266 H 0.34847 0.57215 0.83099 0.0
H267 H 0.33002 0.57185 0.75006 0.0
H268 H 0.37215 0.58752 0.73776 0.0
H269 H 0.29292 0.53439 0.77894 0.0
H270 H 0.34547 0.62095 0.78513 0.0
H271 H 0.38199 0.65718 0.80035 0.0
H272 H 0.36165 0.63607 0.87986 0.0
H273 H 0.3251 0.59949 0.86511 0.0
C274 C 0.21424 0.56865 0.79132 0.0
C275 C 0.20825 0.57551 0.81494 0.0
C276 C 0.23253 0.56305 0.79042 0.0
C277 C 0.24498 0.56376 0.81317 0.0
C278 C 0.23793 0.569 0.83709 0.0
C279 C 0.2197 0.57483 0.83799 0.0
C280 C 0.26745 0.56272 0.81111 0.0
C281 C 0.28854 0.58224 0.82097 0.0
C282 C 0.26892 0.54486 0.79633 0.0
C283 C 0.24711 0.52299 0.78692 0.0
C284 C 0.22824 0.50898 0.8042 0.0
C285 C 0.20765 0.48852 0.79524 0.0
C286 C 0.20574 0.4818 0.76905 0.0
C287 C 0.22444 0.49552 0.75176 0.0
C288 C 0.24507 0.516 0.76062 0.0
C289 C 0.37734 0.58428 0.80363 0.0
C290 C 0.3845 0.58961 0.77746 0.0
C291 C 0.35337 0.57493 0.81055 0.0
C292 C 0.33628 0.57132 0.79148 0.0
C293 C 0.343 0.57459 0.76506 0.0
C294 C 0.36703 0.58361 0.75806 0.0
C295 C 0.31267 0.56795 0.79936 0.0
C296 C 0.2916 0.54783 0.79047 0.0
C297 C 0.31108 0.58522 0.81505 0.0
C298 C 0.3327 0.60743 0.82402 0.0
C299 C 0.34884 0.624 0.80586 0.0
C300 C 0.36953 0.64457 0.81441 0.0
C301 C 0.37415 0.64887 0.84107 0.0
C302 C 0.35804 0.63265 0.85924 0.0
C303 C 0.33732 0.61202 0.8508 0.0
H304 H 0.3902 0.6648 0.84766 0.0
H305 H 0.18978 0.46596 0.76215 0.0
H306 H 0.82191 0.35253 0.90772 0.0
H307 H 0.79197 0.31065 0.91735 0.0
H308 H 0.73641 0.32221 0.88577 0.0
H309 H 0.76602 0.36363 0.876 0.0
H310 H 0.75647 0.29876 0.95163 0.0
H311 H 0.69111 0.27392 0.86351 0.0
H312 H 0.69365 0.27843 0.81571 0.0
H313 H 0.76213 0.28209 0.81625 0.0
H314 H 0.75997 0.2775 0.86406 0.0
H315 H 0.6351 0.24338 0.9808 0.0
H316 H 0.67709 0.26621 0.96813 0.0
H317 H 0.67003 0.20497 0.92581 0.0
H318 H 0.62766 0.18203 0.93804 0.0
H319 H 0.6884 0.24272 0.8957 0.0
H320 H 0.7076 0.22728 0.97978 0.0
H321 H 0.7052 0.2234 0.02766 0.0
H322 H 0.72977 0.29865 0.03526 0.0
H323 H 0.73199 0.30295 0.98745 0.0
C324 C 0.80342 0.34585 0.90209 0.0
C325 C 0.79623 0.36134 0.89127 0.0
C326 C 0.78635 0.32199 0.9077 0.0
C327 C 0.76199 0.31325 0.90214 0.0
C328 C 0.75513 0.32836 0.88982 0.0
C329 C 0.77207 0.35213 0.88441 0.0
C330 C 0.74311 0.28977 0.91232 0.0
C331 C 0.74176 0.2862 0.9394 0.0
C332 C 0.72421 0.27313 0.89627 0.0
C333 C 0.72538 0.27539 0.86742 0.0
C334 C 0.70665 0.27553 0.85344 0.0
C335 C 0.70808 0.27824 0.82634 0.0
C336 C 0.72805 0.28058 0.81295 0.0
C337 C 0.74668 0.2803 0.82665 0.0
C338 C 0.74539 0.27773 0.85376 0.0
C339 C 0.64256 0.23454 0.96929 0.0
C340 C 0.62798 0.21096 0.96025 0.0
C341 C 0.66668 0.24759 0.9622 0.0
C342 C 0.67681 0.23725 0.94618 0.0
C343 C 0.66261 0.21327 0.93826 0.0
C344 C 0.63842 0.20018 0.94533 0.0
C345 C 0.70113 0.25259 0.93517 0.0
C346 C 0.70345 0.25468 0.90793 0.0
C347 C 0.72096 0.2678 0.95109 0.0
C348 C 0.71995 0.26542 0.97995 0.0
C349 C 0.7124 0.24299 0.99164 0.0
C350 C 0.71107 0.24072 0.01879 0.0
C351 C 0.71733 0.26076 0.03449 0.0
C352 C 0.72497 0.28314 0.02308 0.0
C353 C 0.72633 0.28552 0.99595 0.0
H354 H 0.71626 0.25896 0.0555 0.0
H355 H 0.72909 0.28259 0.79197 0.0
H356 H 0.46079 0.81413 0.04667 0.0
H357 H 0.47689 0.7877 0.05811 0.0
H358 H 0.41078 0.73998 0.0977 0.0
H359 H 0.39456 0.76563 0.08619 0.0
H360 H 0.45402 0.7531 0.12698 0.0
H361 H 0.41785 0.72537 0.03984 0.0
H362 H 0.41562 0.73149 0.99267 0.0
H363 H 0.48935 0.75027 0.9838 0.0
H364 H 0.49205 0.74452 0.03102 0.0
H365 H 0.40973 0.63205 0.13835 0.0
H366 H 0.42284 0.67417 0.13267 0.0
H367 H 0.48242 0.68304 0.08567 0.0
H368 H 0.46861 0.64018 0.09038 0.0
H369 H 0.46014 0.70015 0.0608 0.0
H370 H 0.49075 0.71401 0.14645 0.0
H371 H 0.49221 0.70697 0.19348 0.0
H372 H 0.43063 0.71494 0.20637 0.0
H373 H 0.42861 0.7218 0.15944 0.0
C374 C 0.44971 0.79792 0.05768 0.0
C375 C 0.42638 0.79193 0.06542 0.0
C376 C 0.45895 0.78296 0.06426 0.0
C377 C 0.44506 0.7621 0.07896 0.0
C378 C 0.42184 0.75616 0.08658 0.0
C379 C 0.41253 0.77077 0.07975 0.0
C380 C 0.45381 0.74559 0.08609 0.0
C381 C 0.45565 0.74159 0.11263 0.0
C382 C 0.45692 0.73139 0.06723 0.0
C383 C 0.45526 0.73487 0.03895 0.0
C384 C 0.43364 0.73103 0.02785 0.0
C385 C 0.43228 0.73438 1.00111 0.0
C386 C 0.45236 0.74136 0.98526 0.0
C387 C 0.47383 0.74493 0.99611 0.0
C388 C 0.47529 0.74164 0.02285 0.0
C389 C 0.42596 0.64299 0.12729 0.0
C390 C 0.43796 0.63267 0.11456 0.0
C391 C 0.43364 0.66727 0.12427 0.0
C392 C 0.45386 0.682 0.10899 0.0
C393 C 0.46682 0.67207 0.09761 0.0
C394 C 0.45893 0.64759 0.10036 0.0
C395 C 0.45891 0.7065 0.102 0.0
C396 C 0.45968 0.71213 0.0754 0.0
C397 C 0.45832 0.72228 0.12091 0.0
C398 C 0.45956 0.71844 0.14932 0.0
C399 C 0.47746 0.71419 0.15929 0.0
C400 C 0.4784 0.71025 0.18595 0.0
C401 C 0.46155 0.71055 0.20291 0.0
C402 C 0.44374 0.71483 0.19324 0.0
C403 C 0.44274 0.71882 0.1666 0.0
H404 H 0.46229 0.70745 0.22354 0.0
H405 H 0.45127 0.74392 0.96456 0.0
H406 H 0.75713 0.37166 0.23881 0.0
H407 H 0.73282 0.38897 0.22544 0.0
H408 H 0.76741 0.44484 0.28313 0.0
H409 H 0.79237 0.42762 0.2966 0.0
H410 H 0.71608 0.41932 0.28376 0.0
H411 H 0.77929 0.46159 0.22335 0.0
H412 H 0.8096 0.46633 0.19087 0.0
H413 H 0.7539 0.41843 0.13878 0.0
H414 H 0.72322 0.41294 0.17113 0.0
H415 H 0.62376 0.43653 0.23812 0.0
H416 H 0.6662 0.45099 0.24681 0.0
H417 H 0.66543 0.4011 0.18993 0.0
H418 H 0.62345 0.38729 0.18048 0.0
H419 H 0.70857 0.43886 0.19191 0.0
H420 H 0.64898 0.38609 0.25472 0.0
H421 H 0.61685 0.37466 0.28727 0.0
H422 H 0.664 0.4352 0.33462 0.0
H423 H 0.69619 0.44742 0.30191 0.0
C424 C 0.75968 0.38765 0.24871 0.0
C425 C 0.77652 0.3982 0.26891 0.0
C426 C 0.74595 0.39768 0.24081 0.0
C427 C 0.74865 0.41838 0.25301 0.0
C428 C 0.76535 0.429 0.27331 0.0
C429 C 0.77945 0.41912 0.28102 0.0
C430 C 0.73225 0.42721 0.24569 0.0
C431 C 0.71486 0.42446 0.26391 0.0
C432 C 0.73051 0.43329 0.2196 0.0
C433 C 0.7489 0.43685 0.19977 0.0
C434 C 0.77347 0.45195 0.20504 0.0
C435 C 0.79073 0.45477 0.18664 0.0
C436 C 0.78367 0.44272 0.16278 0.0
C437 C 0.75933 0.4278 0.15726 0.0
C438 C 0.74199 0.42486 0.17562 0.0
C439 C 0.63287 0.42919 0.22691 0.0
C440 C 0.62017 0.41037 0.20906 0.0
C441 C 0.65711 0.43746 0.23191 0.0
C442 C 0.66878 0.42663 0.21958 0.0
C443 C 0.65677 0.40963 0.19982 0.0
C444 C 0.63268 0.40164 0.1945 0.0
C445 C 0.69178 0.42988 0.22973 0.0
C446 C 0.71035 0.43481 0.21203 0.0
C447 C 0.69431 0.42508 0.25618 0.0
C448 C 0.67483 0.41794 0.27564 0.0
C449 C 0.65239 0.39715 0.2719 0.0
C450 C 0.63416 0.39053 0.29037 0.0
C451 C 0.63832 0.40429 0.31291 0.0
C452 C 0.66074 0.42467 0.31705 0.0
C453 C 0.67894 0.43151 0.2985 0.0
H454 H 0.6242 0.3991 0.32722 0.0
H455 H 0.79706 0.44498 0.14855 0.0
H456 H 0.17782 0.5677 0.70177 0.0
H457 H 0.18009 0.56622 0.65442 0.0
H458 H 0.16572 0.62466 0.64772 0.0
H459 H 0.16367 0.62648 0.69553 0.0
H460 H 0.13666 0.58411 0.61526 0.0
H461 H 0.21985 0.63623 0.63513 0.0
H462 H 0.25798 0.64859 0.65799 0.0
H463 H 0.25873 0.58647 0.62853 0.0
H464 H 0.2204 0.57353 0.60577 0.0
H465 H 0.15629 0.59965 0.48013 0.0
H466 H 0.15819 0.60581 0.52704 0.0
H467 H 0.18492 0.55674 0.53688 0.0
H468 H 0.18361 0.55088 0.48943 0.0
H469 H 0.20839 0.59401 0.56803 0.0
H470 H 0.12535 0.54029 0.55025 0.0
H471 H 0.08646 0.52588 0.5282 0.0
H472 H 0.08424 0.58808 0.5547 0.0
H473 H 0.12329 0.60303 0.57663 0.0
C474 C 0.17524 0.58036 0.6903 0.0
C475 C 0.1705 0.5972 0.70242 0.0
C476 C 0.17667 0.57954 0.66321 0.0
C477 C 0.17322 0.5954 0.64756 0.0
C478 C 0.16851 0.61231 0.6595 0.0
C479 C 0.16742 0.61338 0.68676 0.0
C480 C 0.17365 0.5935 0.61873 0.0
C481 C 0.15245 0.58672 0.60482 0.0
C482 C 0.19403 0.59604 0.60533 0.0
C483 C 0.21713 0.6038 0.61893 0.0
C484 C 0.22803 0.62509 0.6337 0.0
C485 C 0.24971 0.63222 0.64661 0.0
C486 C 0.26074 0.61829 0.64477 0.0
C487 C 0.25015 0.59723 0.62996 0.0
C488 C 0.22846 0.59 0.61702 0.0
C489 C 0.1625 0.59003 0.4922 0.0
C490 C 0.16953 0.57451 0.48103 0.0
C491 C 0.16352 0.59357 0.51911 0.0
C492 C 0.17124 0.5814 0.53564 0.0
C493 C 0.17878 0.56625 0.52455 0.0
C494 C 0.17796 0.56285 0.49745 0.0
C495 C 0.17133 0.58458 0.56443 0.0
C496 C 0.19259 0.59152 0.57837 0.0
C497 C 0.15089 0.58187 0.57796 0.0
C498 C 0.12736 0.57289 0.56488 0.0
C499 C 0.11665 0.55098 0.55122 0.0
C500 C 0.09457 0.5427 0.53877 0.0
C501 C 0.08292 0.55608 0.53999 0.0
C502 C 0.0933 0.57775 0.55374 0.0
C503 C 0.1154 0.58612 0.56621 0.0
H504 H 0.06582 0.54964 0.53033 0.0
H505 H 0.27752 0.62385 0.65477 0.0
H506 H 0.58476 0.12205 0.66502 0.0
H507 H 0.57714 0.12929 0.70978 0.0
H508 H 0.636 0.20204 0.70524 0.0
H509 H 0.64382 0.19498 0.66021 0.0
H510 H 0.63304 0.18001 0.75367 0.0
H511 H 0.58231 0.19197 0.69516 0.0
H512 H 0.55316 0.18085 0.6593 0.0
H513 H 0.5005 0.12155 0.70417 0.0
H514 H 0.52963 0.13174 0.73996 0.0
H515 H 0.59813 0.22035 0.86473 0.0
H516 H 0.60774 0.21714 0.81937 0.0
H517 H 0.54742 0.1451 0.81564 0.0
H518 H 0.53747 0.14825 0.86101 0.0
H519 H 0.55227 0.16922 0.77062 0.0
H520 H 0.60348 0.15611 0.82813 0.0
H521 H 0.63293 0.1663 0.86353 0.0
H522 H 0.68492 0.22726 0.82021 0.0
H523 H 0.65549 0.21806 0.78496 0.0
C524 C 0.59636 0.13952 0.67358 0.0
C525 C 0.6148 0.15801 0.65889 0.0
C526 C 0.59191 0.14363 0.69919 0.0
C527 C 0.60574 0.16631 0.7107 0.0
C528 C 0.62504 0.18443 0.69668 0.0
C529 C 0.62948 0.18036 0.67094 0.0
C530 C 0.59907 0.17134 0.73674 0.0
C531 C 0.61553 0.17802 0.75733 0.0
C532 C 0.57604 0.16838 0.74152 0.0
C533 C 0.55829 0.16249 0.7202 0.0
C534 C 0.56461 0.17639 0.69731 0.0
C535 C 0.54809 0.17024 0.67696 0.0
C536 C 0.525 0.15052 0.67946 0.0
C537 C 0.51841 0.13684 0.70227 0.0
C538 C 0.53494 0.14275 0.72257 0.0
C539 C 0.58664 0.20393 0.85419 0.0
C540 C 0.56712 0.18447 0.86664 0.0
C541 C 0.59226 0.20209 0.82825 0.0
C542 C 0.5786 0.18071 0.81423 0.0
C543 C 0.5583 0.16174 0.82611 0.0
C544 C 0.55263 0.16357 0.85208 0.0
C545 C 0.58615 0.17765 0.78772 0.0
C546 C 0.56984 0.17136 0.76698 0.0
C547 C 0.60934 0.18098 0.78282 0.0
C548 C 0.62711 0.18658 0.80403 0.0
C549 C 0.62108 0.1719 0.82629 0.0
C550 C 0.63777 0.17754 0.84636 0.0
C551 C 0.66071 0.19758 0.84424 0.0
C552 C 0.66705 0.21195 0.82197 0.0
C553 C 0.65035 0.20655 0.80195 0.0
H554 H 0.67364 0.2019 0.85977 0.0
H555 H 0.51221 0.14585 0.66373 0.0
H556 H 0.3867 0.60804 0.02919 0.0
H557 H 0.40196 0.6168 0.9846 0.0
H558 H 0.40732 0.5526 0.98379 0.0
H559 H 0.39228 0.54382 0.02859 0.0
H560 H 0.44817 0.5906 0.96713 0.0
H561 H 0.36456 0.55626 0.94739 0.0
H562 H 0.32405 0.55118 0.95084 0.0
H563 H 0.35142 0.62416 0.92671 0.0
H564 H 0.39215 0.62971 0.92311 0.0
H565 H 0.46813 0.58544 0.83179 0.0
H566 H 0.45431 0.57923 0.87685 0.0
H567 H 0.45009 0.64401 0.8741 0.0
H568 H 0.46365 0.65022 0.82868 0.0
H569 H 0.40926 0.60719 0.89286 0.0
H570 H 0.49295 0.64075 0.91093 0.0
H571 H 0.5331 0.64503 0.90696 0.0
H572 H 0.50533 0.57289 0.93436 0.0
H573 H 0.46492 0.56804 0.93816 0.0
C574 C 0.39076 0.59555 0.01943 0.0
C575 C 0.38826 0.57521 0.03253 0.0
C576 C 0.39945 0.60058 0.99386 0.0
C577 C 0.40574 0.58534 0.98076 0.0
C578 C 0.40263 0.56465 0.99351 0.0
C579 C 0.39388 0.55958 0.01909 0.0
C580 C 0.41684 0.5917 0.95437 0.0
C581 C 0.4395 0.59389 0.95079 0.0
C582 C 0.40591 0.59674 0.93323 0.0
C583 C 0.38145 0.59347 0.93526 0.0
C584 C 0.36197 0.57128 0.94297 0.0
C585 C 0.33896 0.56829 0.94486 0.0
C586 C 0.33518 0.58734 0.93899 0.0
C587 C 0.35439 0.60941 0.93116 0.0
C588 C 0.37743 0.61247 0.92914 0.0
C589 C 0.46477 0.59869 0.84088 0.0
C590 C 0.46699 0.61833 0.82654 0.0
C591 C 0.45687 0.5951 0.86672 0.0
C592 C 0.45117 0.61116 0.87895 0.0
C593 C 0.45432 0.63135 0.86507 0.0
C594 C 0.46229 0.63499 0.83916 0.0
C595 C 0.44055 0.60597 0.90559 0.0
C596 C 0.41799 0.604 0.90922 0.0
C597 C 0.45155 0.60108 0.92678 0.0
C598 C 0.47586 0.60397 0.92462 0.0
C599 C 0.49536 0.62573 0.91593 0.0
C600 C 0.51818 0.62827 0.91374 0.0
C601 C 0.52175 0.60923 0.92035 0.0
C602 C 0.50253 0.58762 0.92923 0.0
C603 C 0.47967 0.58497 0.93143 0.0
H604 H 0.53943 0.61123 0.91864 0.0
H605 H 0.31735 0.585 0.94049 0.0
H606 H 0.83061 0.36423 0.19305 0.0
H607 H 0.82716 0.36844 0.1458 0.0
H608 H 0.83099 0.43654 0.15859 0.0
H609 H 0.8343 0.43249 0.20533 0.0
H610 H 0.79583 0.40857 0.12312 0.0
H611 H 0.87948 0.43563 0.13878 0.0
H612 H 0.91345 0.43168 0.15487 0.0
H613 H 0.89287 0.3711 0.10448 0.0
H614 H 0.85855 0.37449 0.08836 0.0
H615 H 0.82248 0.4556 0.99272 0.0
H616 H 0.82158 0.44925 0.04006 0.0
H617 H 0.8291 0.38703 0.02709 0.0
H618 H 0.83091 0.39378 0.98036 0.0
H619 H 0.85786 0.41165 0.06329 0.0
H620 H 0.77454 0.38446 0.04677 0.0
H621 H 0.73966 0.38722 0.03147 0.0
H622 H 0.7583 0.44637 0.08346 0.0
H623 H 0.79354 0.44425 0.0987 0.0
C624 C 0.83062 0.38002 0.18574 0.0
C625 C 0.83298 0.3981 0.20293 0.0
C626 C 0.82868 0.38244 0.15878 0.0
C627 C 0.82891 0.40288 0.14867 0.0
C628 C 0.83067 0.4206 0.16591 0.0
C629 C 0.83278 0.4183 0.19267 0.0
C630 C 0.82805 0.40639 0.12012 0.0
C631 C 0.80948 0.40945 0.11 0.0
C632 C 0.84563 0.40714 0.103 0.0
C633 C 0.86631 0.40515 0.11258 0.0
C634 C 0.88209 0.42135 0.1313 0.0
C635 C 0.90142 0.41923 0.14039 0.0
C636 C 0.90528 0.40111 0.13076 0.0
C637 C 0.88983 0.3851 0.11196 0.0
C638 C 0.87045 0.38712 0.10282 0.0
C639 C 0.82384 0.44054 1.00006 0.0
C640 C 0.82694 0.42532 0.98278 0.0
C641 C 0.82319 0.43682 0.02711 0.0
C642 C 0.82513 0.41752 0.03729 0.0
C643 C 0.82775 0.40213 0.0199 0.0
C644 C 0.82875 0.40603 0.99307 0.0
C645 C 0.82541 0.41362 0.06595 0.0
C646 C 0.84403 0.41064 0.07622 0.0
C647 C 0.80777 0.4128 0.08315 0.0
C648 C 0.78681 0.41434 0.07369 0.0
C649 C 0.77133 0.39821 0.05474 0.0
C650 C 0.75148 0.39964 0.0461 0.0
C651 C 0.74681 0.41701 0.05643 0.0
C652 C 0.76197 0.43297 0.07543 0.0
C653 C 0.78188 0.43166 0.08408 0.0
H654 H 0.73141 0.41806 0.04974 0.0
H655 H 0.92026 0.3995 0.13782 0.0
H656 H 0.42918 0.82646 0.15133 0.0
H657 H 0.4334 0.82518 0.19841 0.0
H658 H 0.36677 0.82475 0.2095 0.0
H659 H 0.36222 0.82581 0.16193 0.0
H660 H 0.40667 0.85943 0.24022 0.0
H661 H 0.36713 0.77462 0.21976 0.0
H662 H 0.36266 0.73946 0.19553 0.0
H663 H 0.43193 0.75415 0.22228 0.0
H664 H 0.43693 0.78954 0.24643 0.0
H665 H 0.39963 0.84259 0.37514 0.0
H666 H 0.39179 0.83916 0.32856 0.0
H667 H 0.44571 0.81887 0.31676 0.0
H668 H 0.45288 0.82126 0.36404 0.0
H669 H 0.41162 0.794 0.28566 0.0
H670 H 0.45448 0.87788 0.30295 0.0
H671 H 0.46421 0.91581 0.32493 0.0
H672 H 0.39615 0.90699 0.30171 0.0
H673 H 0.38588 0.86884 0.27987 0.0
C674 C 0.41532 0.82603 0.16369 0.0
C675 C 0.39536 0.82631 0.15286 0.0
C676 C 0.41773 0.82516 0.19064 0.0
C677 C 0.40032 0.82467 0.20744 0.0
C678 C 0.38035 0.82501 0.19681 0.0
C679 C 0.37775 0.82557 0.16969 0.0
C680 C 0.40368 0.82479 0.2361 0.0
C681 C 0.40729 0.84494 0.25031 0.0
C682 C 0.40569 0.8064 0.24892 0.0
C683 C 0.40247 0.78484 0.23476 0.0
C684 C 0.38147 0.77043 0.22035 0.0
C685 C 0.37883 0.75044 0.20666 0.0
C686 C 0.39702 0.74459 0.20732 0.0
C687 C 0.41785 0.75868 0.22178 0.0
C688 C 0.42057 0.77868 0.23551 0.0
C689 C 0.4099 0.83744 0.36266 0.0
C690 C 0.42715 0.83253 0.37321 0.0
C691 C 0.40543 0.83555 0.33592 0.0
C692 C 0.41853 0.82935 0.31884 0.0
C693 C 0.43541 0.82384 0.32941 0.0
C694 C 0.43957 0.82526 0.35641 0.0
C695 C 0.41448 0.82867 0.29009 0.0
C696 C 0.41086 0.80849 0.27576 0.0
C697 C 0.41321 0.84742 0.27693 0.0
C698 C 0.41933 0.87039 0.28997 0.0
C699 C 0.44153 0.88395 0.30268 0.0
C700 C 0.44714 0.9055 0.31509 0.0
C701 C 0.43078 0.91377 0.31477 0.0
C702 C 0.40879 0.90055 0.30197 0.0
C703 C 0.40308 0.87897 0.28954 0.0
H704 H 0.43516 0.93046 0.32439 0.0
H705 H 0.39497 0.72914 0.19667 0.0
H706 H 0.54744 0.42527 0.31914 0.0
H707 H 0.55972 0.4342 0.36462 0.0
H708 H 0.56835 0.372 0.36853 0.0
H709 H 0.55576 0.36271 0.32275 0.0
H710 H 0.54741 0.37848 0.41364 0.0
H711 H 0.61587 0.42568 0.35907 0.0
H712 H 0.63744 0.4537 0.32308 0.0
H713 H 0.629 0.50852 0.36101 0.0
H714 H 0.60667 0.48064 0.39678 0.0
H715 H 0.61548 0.41919 0.53183 0.0
H716 H 0.60531 0.40613 0.48641 0.0
H717 H 0.59346 0.46537 0.47156 0.0
H718 H 0.60332 0.47837 0.51695 0.0
H719 H 0.61822 0.45844 0.43167 0.0
H720 H 0.54892 0.41299 0.48419 0.0
H721 H 0.52479 0.38597 0.51971 0.0
H722 H 0.53132 0.32867 0.48541 0.0
H723 H 0.55683 0.35574 0.45045 0.0
C724 C 0.55169 0.41328 0.32967 0.0
C725 C 0.55078 0.39335 0.31721 0.0
C726 C 0.55878 0.41848 0.3557 0.0
C727 C 0.56539 0.40403 0.36986 0.0
C728 C 0.56344 0.38345 0.35792 0.0
C729 C 0.55623 0.37816 0.33178 0.0
C730 C 0.57526 0.4112 0.39668 0.0
C731 C 0.56319 0.39574 0.41758 0.0
C732 C 0.59551 0.43402 0.40183 0.0
C733 C 0.60942 0.45097 0.38055 0.0
C734 C 0.61846 0.44365 0.35966 0.0
C735 C 0.63083 0.4595 0.3393 0.0
C736 C 0.63464 0.48286 0.3398 0.0
C737 C 0.62605 0.49042 0.36065 0.0
C738 C 0.6135 0.47458 0.38095 0.0
C739 C 0.61111 0.42968 0.51878 0.0
C740 C 0.6102 0.44984 0.52799 0.0
C741 C 0.60515 0.42209 0.49287 0.0
C742 C 0.59844 0.43467 0.47565 0.0
C743 C 0.59858 0.4554 0.48451 0.0
C744 C 0.60418 0.46278 0.51047 0.0
C745 C 0.59029 0.42582 0.44869 0.0
C746 C 0.60269 0.441 0.42774 0.0
C747 C 0.57018 0.40287 0.44358 0.0
C748 C 0.55527 0.38661 0.46493 0.0
C749 C 0.54575 0.3948 0.4845 0.0
C750 C 0.53185 0.37947 0.50459 0.0
C751 C 0.52683 0.3557 0.50502 0.0
C752 C 0.53563 0.34721 0.48529 0.0
C753 C 0.54991 0.36257 0.4654 0.0
H754 H 0.51596 0.34381 0.5205 0.0
H755 H 0.64424 0.49511 0.32403 0.0
H756 H 0.92587 0.43381 0.25353 0.0
H757 H 0.96734 0.45756 0.26827 0.0
H758 H 0.94374 0.44284 0.34833 0.0
H759 H 0.90202 0.41971 0.33366 0.0
H760 H 0.97721 0.4875 0.34418 0.0
H761 H 0.96956 0.41316 0.31654 0.0
H762 H 0.95945 0.37921 0.28687 0.0
H763 H 0.01065 0.42727 0.23107 0.0
H764 H 0.02085 0.46158 0.26027 0.0
H765 H 0.09317 0.52017 0.39542 0.0
H766 H 0.051 0.49745 0.38227 0.0
H767 H 0.07099 0.52155 0.30303 0.0
H768 H 0.11321 0.54447 0.316 0.0
H769 H 0.03947 0.47159 0.30804 0.0
H770 H 0.0465 0.54606 0.33792 0.0
H771 H 0.05669 0.57854 0.36973 0.0
H772 H 0.0064 0.52767 0.42428 0.0
H773 H 0.99616 0.49481 0.3929 0.0
C774 C 0.92949 0.43563 0.27429 0.0
C775 C 0.91069 0.42477 0.29244 0.0
C776 C 0.95323 0.44912 0.28269 0.0
C777 C 0.95874 0.4516 0.30941 0.0
C778 C 0.93995 0.44111 0.32761 0.0
C779 C 0.91612 0.42787 0.31921 0.0
C780 C 0.98409 0.4652 0.31829 0.0
C781 C 0.99073 0.48376 0.33654 0.0
C782 C 0.00186 0.46056 0.30812 0.0
C783 C 0.99581 0.43997 0.2905 0.0
C784 C 0.97854 0.41652 0.29786 0.0
C785 C 0.97281 0.39721 0.28114 0.0
C786 C 0.98436 0.40109 0.25707 0.0
C787 C 0.0017 0.4243 0.24971 0.0
C788 C 0.00748 0.44368 0.26635 0.0
C789 C 0.0886 0.52069 0.3752 0.0
C790 C 0.10652 0.53412 0.35673 0.0
C791 C 0.0645 0.50777 0.36776 0.0
C792 C 0.05793 0.50794 0.34172 0.0
C793 C 0.07575 0.52124 0.32323 0.0
C794 C 0.09983 0.53438 0.33069 0.0
C795 C 0.03248 0.4939 0.33366 0.0
C796 C 0.02587 0.47523 0.31564 0.0
C797 C 0.0147 0.49819 0.34435 0.0
C798 C 0.02074 0.51795 0.36316 0.0
C799 C 0.03776 0.54177 0.35678 0.0
C800 C 0.04352 0.56025 0.37471 0.0
C801 C 0.03225 0.55516 0.39904 0.0
C802 C 0.01514 0.53158 0.40544 0.0
C803 C 0.00934 0.51302 0.38758 0.0
H804 H 0.03673 0.56949 0.4129 0.0
H805 H 0.9799 0.38612 0.24416 0.0
H806 H 0.49608 0.90374 0.47288 0.0
H807 H 0.51943 0.94622 0.48487 0.0
H808 H 0.45834 0.9405 0.52603 0.0
H809 H 0.43491 0.89793 0.5144 0.0
H810 H 0.48188 0.98105 0.49192 0.0
H811 H 0.50055 0.94157 0.56052 0.0
H812 H 0.51438 0.91484 0.57789 0.0
H813 H 0.58289 0.95776 0.5412 0.0
H814 H 0.56933 0.98456 0.52327 0.0
H815 H 0.53497 0.08925 0.56294 0.0
H816 H 0.51322 0.04729 0.54941 0.0
H817 H 0.5795 0.05259 0.52341 0.0
H818 H 0.60152 0.09449 0.53773 0.0
H819 H 0.5542 0.0122 0.54802 0.0
H820 H 0.53757 0.05207 0.47991 0.0
H821 H 0.52481 0.07885 0.46023 0.0
H822 H 0.45426 0.03578 0.49238 0.0
H823 H 0.46669 0.00892 0.51257 0.0
C824 C 0.4876 0.91152 0.48447 0.0
C825 C 0.46366 0.89748 0.49275 0.0
C826 C 0.50099 0.93575 0.49135 0.0
C827 C 0.49061 0.9464 0.50641 0.0
C828 C 0.46664 0.93255 0.5144 0.0
C829 C 0.45333 0.90824 0.50783 0.0
C830 C 0.50476 0.97203 0.51386 0.0
C831 C 0.49753 0.98788 0.50444 0.0
C832 C 0.52561 0.98094 0.52944 0.0
C833 C 0.53383 0.96492 0.54032 0.0
C834 C 0.51849 0.94519 0.55596 0.0
C835 C 0.52629 0.93005 0.56594 0.0
C836 C 0.54948 0.93456 0.56059 0.0
C837 C 0.56493 0.95426 0.54529 0.0
C838 C 0.55719 0.96944 0.53523 0.0
C839 C 0.54494 0.08153 0.55429 0.0
C840 C 0.56996 0.09524 0.55129 0.0
C841 C 0.53245 0.05753 0.54644 0.0
C842 C 0.54464 0.04685 0.53495 0.0
C843 C 0.56968 0.06044 0.53215 0.0
C844 C 0.58224 0.08441 0.54029 0.0
C845 C 0.53126 0.0214 0.52627 0.0
C846 C 0.53862 0.00552 0.53542 0.0
C847 C 0.51071 0.01251 0.51008 0.0
C848 C 0.50314 0.02861 0.49795 0.0
C849 C 0.51939 0.04841 0.48295 0.0
C850 C 0.51221 0.06359 0.47168 0.0
C851 C 0.48876 0.05905 0.47511 0.0
C852 C 0.47243 0.03929 0.48977 0.0
C853 C 0.47952 0.02407 0.50111 0.0
H854 H 0.48323 0.07082 0.46636 0.0
H855 H 0.55549 0.92282 0.56834 0.0
H856 H 0.44331 0.53545 0.71974 0.0
H857 H 0.46344 0.51442 0.70326 0.0
H858 H 0.52746 0.58223 0.68865 0.0
H859 H 0.5074 0.60346 0.70489 0.0
H860 H 0.51738 0.55084 0.6484 0.0
H861 H 0.52438 0.55017 0.74145 0.0
H862 H 0.50969 0.54285 0.78679 0.0
H863 H 0.46572 0.46762 0.77039 0.0
H864 H 0.47989 0.47454 0.72481 0.0
H865 H 0.59705 0.50479 0.63361 0.0
H866 H 0.57736 0.52696 0.64791 0.0
H867 H 0.51343 0.46028 0.66664 0.0
H868 H 0.5331 0.43803 0.65286 0.0
H869 H 0.52415 0.49192 0.70484 0.0
H870 H 0.51702 0.49262 0.61161 0.0
H871 H 0.53174 0.5 0.56627 0.0
H872 H 0.576 0.57515 0.58293 0.0
H873 H 0.56178 0.56816 0.62849 0.0
C874 C 0.46164 0.54592 0.71295 0.0
C875 C 0.47378 0.57114 0.71377 0.0
C876 C 0.47315 0.53386 0.70361 0.0
C877 C 0.49704 0.54677 0.69502 0.0
C878 C 0.50903 0.57193 0.69523 0.0
C879 C 0.49755 0.58402 0.70461 0.0
C880 C 0.50961 0.53398 0.68615 0.0
C881 C 0.51914 0.53818 0.66084 0.0
C882 C 0.51151 0.51714 0.70223 0.0
C883 C 0.50302 0.51291 0.72965 0.0
C884 C 0.51143 0.53209 0.74745 0.0
C885 C 0.50322 0.52801 0.77321 0.0
C886 C 0.48673 0.5048 0.78145 0.0
C887 C 0.47847 0.4856 0.76397 0.0
C888 C 0.4866 0.48959 0.73818 0.0
C889 C 0.57877 0.49483 0.64069 0.0
C890 C 0.56664 0.46963 0.64207 0.0
C891 C 0.56751 0.50754 0.64876 0.0
C892 C 0.54382 0.49527 0.65811 0.0
C893 C 0.5317 0.47013 0.65951 0.0
C894 C 0.54297 0.45743 0.65155 0.0
C895 C 0.53177 0.5086 0.66697 0.0
C896 C 0.52238 0.50455 0.69235 0.0
C897 C 0.53002 0.52556 0.65094 0.0
C898 C 0.53852 0.52982 0.62353 0.0
C899 C 0.53004 0.51069 0.60566 0.0
C900 C 0.53826 0.51481 0.57991 0.0
C901 C 0.55484 0.53802 0.57174 0.0
C902 C 0.56318 0.55717 0.58929 0.0
C903 C 0.55503 0.55315 0.61507 0.0
H904 H 0.56119 0.54117 0.5518 0.0
H905 H 0.4804 0.50167 0.8014 0.0
H906 H 0.07367 0.5771 0.75584 0.0
H907 H 0.03212 0.55626 0.77094 0.0
H908 H 0.05544 0.54837 0.84727 0.0
H909 H 0.09709 0.56892 0.83223 0.0
H910 H 0.0164 0.50738 0.83167 0.0
H911 H 0.03959 0.59067 0.83621 0.0
H912 H 0.05604 0.6319 0.81959 0.0
H913 H 0.00119 0.60653 0.76084 0.0
H914 H 0.9846 0.56508 0.77689 0.0
H915 H 0.90538 0.47345 0.89534 0.0
H916 H 0.94762 0.49378 0.88242 0.0
H917 H 0.92837 0.50606 0.80572 0.0
H918 H 0.88627 0.48631 0.81866 0.0
H919 H 0.966 0.54538 0.82317 0.0
H920 H 0.94337 0.46199 0.8178 0.0
H921 H 0.92696 0.42068 0.83417 0.0
H922 H 0.98065 0.44607 0.8942 0.0
H923 H 0.9972 0.4876 0.87839 0.0
C924 C 0.07 0.57094 0.77585 0.0
C925 C 0.08873 0.57477 0.79286 0.0
C926 C 0.04623 0.5591 0.78447 0.0
C927 C 0.0407 0.55104 0.81033 0.0
C928 C 0.0593 0.55449 0.82726 0.0
C929 C 0.0831 0.5663 0.81863 0.0
C930 C 0.0155 0.53899 0.81966 0.0
C931 C 0.00546 0.5158 0.83016 0.0
C932 C 0.00111 0.54981 0.81723 0.0
C933 C 0.01098 0.57474 0.80761 0.0
C934 C 0.03114 0.59386 0.81962 0.0
C935 C 0.04047 0.61727 0.81033 0.0
C936 C 0.0297 0.62182 0.78913 0.0
C937 C 0.00953 0.60297 0.77724 0.0
C938 C 0.00014 0.57952 0.78644 0.0
C939 C 0.91013 0.48042 0.87569 0.0
C940 C 0.89245 0.47824 0.85802 0.0
C941 C 0.93428 0.49195 0.8683 0.0
C942 C 0.94116 0.50123 0.843 0.0
C943 C 0.92351 0.49906 0.82535 0.0
C944 C 0.89942 0.4877 0.83277 0.0
C945 C 0.96676 0.51363 0.83494 0.0
C946 C 0.97692 0.53693 0.82473 0.0
C947 C 0.98123 0.50289 0.83761 0.0
C948 C 0.97136 0.47793 0.84707 0.0
C949 C 0.95156 0.45879 0.83461 0.0
C950 C 0.94226 0.43533 0.84377 0.0
C951 C 0.95271 0.43076 0.86525 0.0
C952 C 0.97255 0.44964 0.87758 0.0
C953 C 0.98191 0.47314 0.86852 0.0
H954 H 0.94548 0.41259 0.87231 0.0
H955 H 0.03695 0.63996 0.78196 0.0
H956 H 0.49512 0.08389 0.96084 0.0
H957 H 0.47236 0.04251 0.97639 0.0
H958 H 0.53133 0.05483 0.02646 0.0
H959 H 0.55439 0.09605 0.01063 0.0
H960 H 0.51347 0.01246 1.00384 0.0
H961 H 0.48156 0.05476 0.05066 0.0
H962 H 0.4636 0.08058 0.05576 0.0
H963 H 0.40195 0.03029 0.01183 0.0
H964 H 0.4197 0.00432 1.00616 0.0
H965 H 0.41467 0.91735 0.09533 0.0
H966 H 0.43885 0.95841 0.0794 0.0
H967 H 0.4474 0.93158 1.00541 0.0
H968 H 0.42367 0.89042 0.02141 0.0
H969 H 0.43223 0.98168 0.04142 0.0
H970 H 0.50156 0.97107 0.97928 0.0
H971 H 0.52126 0.94658 0.97855 0.0
H972 H 0.51128 0.93587 0.06125 0.0
H973 H 0.49181 0.96054 0.06252 0.0
C974 C 0.50328 0.07779 0.97511 0.0
C975 C 0.52654 0.09332 0.98459 0.0
C976 C 0.49021 0.05414 0.98405 0.0
C977 C 0.50002 0.04564 1.00284 0.0
C978 C 0.52339 0.06098 0.01196 0.0
C979 C 0.53652 0.08458 1.00294 0.0
C980 C 0.48586 0.02087 0.01324 0.0
C981 C 0.49569 0.00571 0.01201 0.0
C982 C 0.46283 0.01218 0.02433 0.0
C983 C 0.45207 0.02772 0.02777 0.0
C984 C 0.46426 0.0493 0.04192 0.0
C985 C 0.4541 0.06394 0.04494 0.0
C986 C 0.43168 0.05711 0.03407 0.0
C987 C 0.41933 0.03558 0.02021 0.0
C988 C 0.42942 0.02088 0.0171 0.0
C989 C 0.42175 0.92016 0.07569 0.0
C990 C 0.41731 0.90061 0.05967 0.0
C991 C 0.43551 0.94366 0.06658 0.0
C992 C 0.44511 0.94811 0.04129 0.0
C993 C 0.44052 0.92861 0.02515 0.0
C994 C 0.42688 0.90508 0.0343 0.0
C995 C 0.45974 0.97317 0.03181 0.0
C996 C 0.44998 0.98838 0.03317 0.0
C997 C 0.48306 0.98208 0.02141 0.0
C998 C 0.495 0.96745 0.02092 0.0
C999 C 0.50365 0.96356 0.99732 0.0
C1000 C 0.51476 0.94963 0.99681 0.0
C1001 C 0.51745 0.93961 0.01982 0.0
C1002 C 0.5091 0.94356 0.04342 0.0
C1003 C 0.498 0.95749 0.04403 0.0
H1004 H 0.52604 0.92882 0.01938 0.0
H1005 H 0.42384 0.06848 0.03643 0.0
H1006 H 0.45115 0.52896 0.09076 0.0
H1007 H 0.46958 0.50597 0.10603 0.0
H1008 H 0.42332 0.48318 0.17348 0.0
H1009 H 0.40517 0.50659 0.15865 0.0
H1010 H 0.4676 0.49602 0.18734 0.0
H1011 H 0.41321 0.44504 0.12166 0.0
H1012 H 0.39439 0.4344 0.07817 0.0
H1013 H 0.46196 0.45141 0.04389 0.0
H1014 H 0.48127 0.46248 0.08715 0.0
H1015 H 0.49287 0.4042 0.22462 0.0
H1016 H 0.47181 0.42486 0.20977 0.0
H1017 H 0.52077 0.45464 0.145 0.0
H1018 H 0.54187 0.43402 0.15961 0.0
H1019 H 0.47364 0.43682 0.13044 0.0
H1020 H 0.52783 0.48876 0.19685 0.0
H1021 H 0.54584 0.49853 0.24077 0.0
H1022 H 0.4771 0.47831 0.27415 0.0
H1023 H 0.45861 0.4681 0.23044 0.0
C1024 C 0.44486 0.51903 0.10882 0.0
C1025 C 0.42665 0.51955 0.12346 0.0
C1026 C 0.45534 0.5058 0.11747 0.0
C1027 C 0.4476 0.49257 0.14072 0.0
C1028 C 0.42954 0.49321 0.15546 0.0
C1029 C 0.41916 0.50656 0.14692 0.0
C1030 C 0.45864 0.47843 0.14989 0.0
C1031 C 0.46858 0.48281 0.17503 0.0
C1032 C 0.46029 0.46147 0.13368 0.0
C1033 C 0.44873 0.4548 0.10763 0.0
C1034 C 0.4241 0.4467 0.10483 0.0
C1035 C 0.41333 0.44055 0.08022 0.0
C1036 C 0.42698 0.44229 0.05827 0.0
C1037 C 0.45141 0.45011 0.0609 0.0
C1038 C 0.46227 0.45629 0.08546 0.0
C1039 C 0.49912 0.41509 0.20718 0.0
C1040 C 0.5191 0.41754 0.19334 0.0
C1041 C 0.48712 0.42694 0.19878 0.0
C1042 C 0.49487 0.44142 0.17641 0.0
C1043 C 0.51452 0.44355 0.16232 0.0
C1044 C 0.52661 0.43182 0.17076 0.0
C1045 C 0.48267 0.45455 0.16776 0.0
C1046 C 0.47252 0.44996 0.14274 0.0
C1047 C 0.48069 0.47119 0.18413 0.0
C1048 C 0.4918 0.47743 0.21041 0.0
C1049 C 0.51652 0.48621 0.21358 0.0
C1050 C 0.52682 0.49186 0.23843 0.0
C1051 C 0.51261 0.48898 0.26024 0.0
C1052 C 0.48808 0.4805 0.25724 0.0
C1053 C 0.47768 0.4748 0.23243 0.0
H1054 H 0.52062 0.49336 0.27947 0.0
H1055 H 0.41861 0.43752 0.03924 0.0
H1056 H 0.17676 0.51455 0.3082 0.0
H1057 H 0.20389 0.51369 0.27558 0.0
H1058 H 0.26306 0.54932 0.32932 0.0
H1059 H 0.23605 0.55081 0.36191 0.0
H1060 H 0.27512 0.57063 0.28392 0.0
H1061 H 0.23839 0.48876 0.31185 0.0
H1062 H 0.205 0.44826 0.32194 0.0
H1063 H 0.18108 0.43939 0.24245 0.0
H1064 H 0.21416 0.47999 0.23196 0.0
H1065 H 0.36149 0.55651 0.21487 0.0
H1066 H 0.33149 0.55164 0.24694 0.0
H1067 H 0.27717 0.52527 0.18707 0.0
H1068 H 0.30733 0.5301 0.1545 0.0
H1069 H 0.26181 0.49882 0.23409 0.0
H1070 H 0.29925 0.58091 0.20654 0.0
H1071 H 0.33329 0.62115 0.19683 0.0
H1072 H 0.35636 0.62918 0.27659 0.0
H1073 H 0.32264 0.58883 0.2867 0.0
C1074 C 0.19548 0.52192 0.31328 0.0
C1075 C 0.20421 0.53281 0.33771 0.0
C1076 C 0.211 0.52133 0.29457 0.0
C1077 C 0.23556 0.5313 0.29997 0.0
C1078 C 0.2442 0.54154 0.32464 0.0
C1079 C 0.22871 0.54229 0.34332 0.0
C1080 C 0.25245 0.53239 0.2794 0.0
C1081 C 0.27235 0.55482 0.27335 0.0
C1082 C 0.24853 0.51194 0.26494 0.0
C1083 C 0.22862 0.48752 0.27119 0.0
C1084 C 0.2259 0.47825 0.29657 0.0
C1085 C 0.20705 0.45526 0.30235 0.0
C1086 C 0.19089 0.44128 0.28287 0.0
C1087 C 0.19359 0.45025 0.25753 0.0
C1088 C 0.2124 0.47324 0.25165 0.0
C1089 C 0.34317 0.54957 0.20839 0.0
C1090 C 0.33687 0.54384 0.18201 0.0
C1091 C 0.32603 0.54685 0.22682 0.0
C1092 C 0.30216 0.53837 0.21937 0.0
C1093 C 0.29554 0.53192 0.19321 0.0
C1094 C 0.31278 0.53474 0.17463 0.0
C1095 C 0.28448 0.53695 0.23897 0.0
C1096 C 0.26447 0.51455 0.24474 0.0
C1097 C 0.28831 0.5574 0.25329 0.0
C1098 C 0.30853 0.58175 0.24732 0.0
C1099 C 0.31168 0.59118 0.22196 0.0
C1100 C 0.3309 0.61402 0.2164 0.0
C1101 C 0.34701 0.62769 0.23607 0.0
C1102 C 0.34388 0.61857 0.26137 0.0
C1103 C 0.3247 0.59572 0.26703 0.0
H1104 H 0.36188 0.64537 0.23172 0.0
H1105 H 0.17631 0.42348 0.28738 0.0
H1106 H 0.78752 0.3626 0.37629 0.0
H1107 H 0.7667 0.3346 0.41147 0.0
H1108 H 0.77558 0.28031 0.372 0.0
H1109 H 0.79626 0.30845 0.33594 0.0
H1110 H 0.73102 0.26144 0.39316 0.0
H1111 H 0.81076 0.30982 0.42453 0.0
H1112 H 0.84846 0.34736 0.43371 0.0
H1113 H 0.81081 0.37059 0.48429 0.0
H1114 H 0.77281 0.33334 0.47514 0.0
H1115 H 0.68562 0.19275 0.51108 0.0
H1116 H 0.71272 0.21393 0.47465 0.0
H1117 H 0.71383 0.27913 0.49705 0.0
H1118 H 0.68718 0.2583 0.53349 0.0
H1119 H 0.75779 0.28823 0.48392 0.0
H1120 H 0.67761 0.24248 0.44717 0.0
H1121 H 0.63973 0.20526 0.43747 0.0
H1122 H 0.67871 0.17698 0.39707 0.0
H1123 H 0.71686 0.21395 0.40682 0.0
C1124 C 0.78514 0.34474 0.37495 0.0
C1125 C 0.79382 0.33788 0.35335 0.0
C1126 C 0.77327 0.32873 0.39523 0.0
C1127 C 0.77003 0.30549 0.39477 0.0
C1128 C 0.77805 0.29823 0.37291 0.0
C1129 C 0.78988 0.31431 0.35235 0.0
C1130 C 0.75816 0.28913 0.41727 0.0
C1131 C 0.73717 0.26705 0.41298 0.0
C1132 C 0.76601 0.29648 0.44321 0.0
C1133 C 0.7889 0.31881 0.44904 0.0
C1134 C 0.81049 0.32299 0.4375 0.0
C1135 C 0.83192 0.34421 0.44272 0.0
C1136 C 0.83203 0.36136 0.45955 0.0
C1137 C 0.81071 0.35729 0.47126 0.0
C1138 C 0.78922 0.3361 0.4661 0.0
C1139 C 0.69186 0.21166 0.50841 0.0
C1140 C 0.68413 0.22379 0.52519 0.0
C1141 C 0.70724 0.22371 0.48746 0.0
C1142 C 0.71511 0.24808 0.48287 0.0
C1143 C 0.70802 0.26034 0.50013 0.0
C1144 C 0.6927 0.24836 0.52099 0.0
C1145 C 0.73022 0.26096 0.45986 0.0
C1146 C 0.75188 0.2824 0.46408 0.0
C1147 C 0.723 0.25297 0.43392 0.0
C1148 C 0.70008 0.23083 0.42799 0.0
C1149 C 0.67811 0.22824 0.43639 0.0
C1150 C 0.65659 0.20721 0.43085 0.0
C1151 C 0.65682 0.18873 0.41674 0.0
C1152 C 0.67856 0.19128 0.40805 0.0
C1153 C 0.70013 0.21227 0.41357 0.0
H1154 H 0.64014 0.17246 0.41247 0.0
H1155 H 0.84863 0.37779 0.46354 0.0
H1156 H 0.44817 0.64291 0.64292 0.0
H1157 H 0.45129 0.67195 0.61045 0.0
H1158 H 0.47747 0.72729 0.6693 0.0
H1159 H 0.47407 0.69809 0.7022 0.0
H1160 H 0.44365 0.72846 0.63975 0.0
H1161 H 0.51533 0.72562 0.62322 0.0
H1162 H 0.53957 0.70644 0.61443 0.0
H1163 H 0.50078 0.6767 0.54324 0.0
H1164 H 0.47607 0.69543 0.55178 0.0
H1165 H 0.47563 0.82365 0.55149 0.0
H1166 H 0.47887 0.79754 0.58367 0.0
H1167 H 0.45127 0.73975 0.52768 0.0
H1168 H 0.44825 0.76596 0.49508 0.0
H1169 H 0.4875 0.74108 0.55634 0.0
H1170 H 0.41473 0.74224 0.57385 0.0
H1171 H 0.39019 0.7611 0.58256 0.0
H1172 H 0.43091 0.7937 0.65199 0.0
H1173 H 0.45592 0.77528 0.64349 0.0
C1174 C 0.4547 0.66127 0.64903 0.0
C1175 C 0.46091 0.66816 0.67522 0.0
C1176 C 0.4566 0.67791 0.63035 0.0
C1177 C 0.46492 0.70191 0.6373 0.0
C1178 C 0.47109 0.70889 0.66344 0.0
C1179 C 0.46919 0.69219 0.68221 0.0
C1180 C 0.46636 0.71942 0.61738 0.0
C1181 C 0.45361 0.73153 0.62173 0.0
C1182 C 0.47882 0.723 0.59351 0.0
C1183 C 0.4937 0.71177 0.58827 0.0
C1184 C 0.51184 0.71484 0.60579 0.0
C1185 C 0.52569 0.70407 0.60083 0.0
C1186 C 0.52168 0.69031 0.57832 0.0
C1187 C 0.50385 0.68734 0.56068 0.0
C1188 C 0.48993 0.69805 0.56556 0.0
C1189 C 0.47043 0.80545 0.54586 0.0
C1190 C 0.46147 0.79685 0.52072 0.0
C1191 C 0.47222 0.7905 0.56437 0.0
C1192 C 0.4649 0.76653 0.55829 0.0
C1193 C 0.45692 0.75815 0.53287 0.0
C1194 C 0.45519 0.77315 0.51425 0.0
C1195 C 0.46477 0.75005 0.57873 0.0
C1196 C 0.4777 0.7381 0.57445 0.0
C1197 C 0.45244 0.74658 0.60267 0.0
C1198 C 0.43735 0.75758 0.60789 0.0
C1199 C 0.41857 0.75357 0.59087 0.0
C1200 C 0.40456 0.76416 0.59578 0.0
C1201 C 0.40903 0.77864 0.61777 0.0
C1202 C 0.42749 0.78251 0.63494 0.0
C1203 C 0.44158 0.77199 0.6301 0.0
H1204 H 0.39816 0.78682 0.62155 0.0
H1205 H 0.53242 0.682 0.57452 0.0
H1206 H 0.78524 0.42718 0.8044 0.0
H1207 H 0.7637 0.43722 0.77252 0.0
H1208 H 0.7566 0.48327 0.82861 0.0
H1209 H 0.77832 0.47317 0.86105 0.0
H1210 H 0.71403 0.45337 0.80264 0.0
H1211 H 0.79527 0.50816 0.7793 0.0
H1212 H 0.83726 0.52054 0.76871 0.0
H1213 H 0.81391 0.47398 0.70193 0.0
H1214 H 0.77174 0.46104 0.71234 0.0
H1215 H 0.66235 0.49183 0.70567 0.0
H1216 H 0.6899 0.49312 0.73924 0.0
H1217 H 0.70919 0.45083 0.69025 0.0
H1218 H 0.68212 0.45001 0.65627 0.0
H1219 H 0.74766 0.48401 0.71477 0.0
H1220 H 0.66714 0.42565 0.7405 0.0
H1221 H 0.62473 0.41136 0.75114 0.0
H1222 H 0.64637 0.46289 0.81327 0.0
H1223 H 0.68893 0.47768 0.80277 0.0
C1224 C 0.77922 0.43953 0.81008 0.0
C1225 C 0.78356 0.44939 0.83535 0.0
C1226 C 0.76698 0.44535 0.7917 0.0
C1227 C 0.75879 0.46124 0.79802 0.0
C1228 C 0.76288 0.47106 0.82327 0.0
C1229 C 0.77533 0.46532 0.84176 0.0
C1230 C 0.74533 0.46678 0.77824 0.0
C1231 C 0.72155 0.46058 0.78362 0.0
C1232 C 0.75494 0.47562 0.75318 0.0
C1233 C 0.78031 0.48351 0.74671 0.0
C1234 C 0.79907 0.50043 0.76246 0.0
C1235 C 0.82291 0.50757 0.75647 0.0
C1236 C 0.82825 0.49802 0.73468 0.0
C1237 C 0.80975 0.48136 0.7188 0.0
C1238 C 0.78587 0.47414 0.72472 0.0
C1239 C 0.67265 0.48301 0.70189 0.0
C1240 C 0.66987 0.47065 0.67832 0.0
C1241 C 0.68832 0.48366 0.7212 0.0
C1242 C 0.70129 0.47165 0.71757 0.0
C1243 C 0.69932 0.46017 0.6936 0.0
C1244 C 0.68381 0.45969 0.67417 0.0
C1245 C 0.71619 0.47024 0.739 0.0
C1246 C 0.74023 0.47715 0.73391 0.0
C1247 C 0.70677 0.46187 0.76427 0.0
C1248 C 0.6812 0.45295 0.77066 0.0
C1249 C 0.66285 0.43404 0.75631 0.0
C1250 C 0.63879 0.42584 0.76233 0.0
C1251 C 0.63286 0.43626 0.78282 0.0
C1252 C 0.65099 0.45487 0.79738 0.0
C1253 C 0.67508 0.46316 0.79141 0.0
H1254 H 0.61422 0.42988 0.78745 0.0
H1255 H 0.84672 0.50357 0.73009 0.0
H1256 H 0.30063 0.77477 0.03122 0.0
H1257 H 0.26953 0.75004 0.99934 0.0
H1258 H 0.3231 0.77404 0.93875 0.0
H1259 H 0.35399 0.79898 0.97015 0.0
H1260 H 0.28392 0.7727 0.92074 0.0
H1261 H 0.30158 0.71903 0.96911 0.0
H1262 H 0.30557 0.6996 1.00872 0.0
H1263 H 0.23105 0.67196 0.02627 0.0
H1264 H 0.2267 0.6915 0.98691 0.0
H1265 H 0.22753 0.68015 0.82553 0.0
H1266 H 0.25361 0.7094 0.85812 0.0
H1267 H 0.19531 0.68032 0.91343 0.0
H1268 H 0.16931 0.65079 0.88117 0.0
H1269 H 0.23431 0.68501 0.93548 0.0
H1270 H 0.21606 0.73616 0.88455 0.0
H1271 H 0.21245 0.75526 0.84448 0.0
H1272 H 0.28823 0.78742 0.83121 0.0
H1273 H 0.29225 0.76825 0.87103 0.0
C1274 C 0.30572 0.77491 0.01106 0.0
C1275 C 0.32984 0.78877 1.00331 0.0
C1276 C 0.28795 0.76068 0.99287 0.0
C1277 C 0.29399 0.75992 0.96665 0.0
C1278 C 0.31794 0.77429 0.95881 0.0
C1279 C 0.33564 0.7885 0.97689 0.0
C1280 C 0.27572 0.74372 0.94736 0.0
C1281 C 0.27319 0.75349 0.92389 0.0
C1282 C 0.2613 0.71872 0.95162 0.0
C1283 C 0.26389 0.70695 0.97525 0.0
C1284 C 0.28609 0.70897 0.98153 0.0
C1285 C 0.28841 0.69791 1.00391 0.0
C1286 C 0.26859 0.68462 0.02005 0.0
C1287 C 0.2464 0.68231 0.01378 0.0
C1288 C 0.24399 0.69336 0.99144 0.0
C1289 C 0.22016 0.68018 0.84451 0.0
C1290 C 0.19632 0.66307 0.85072 0.0
C1291 C 0.23509 0.69698 0.86314 0.0
C1292 C 0.22642 0.69721 0.88826 0.0
C1293 C 0.20245 0.6805 0.89425 0.0
C1294 C 0.18758 0.66366 0.87571 0.0
C1295 C 0.24262 0.71393 0.90872 0.0
C1296 C 0.24481 0.70424 0.93241 0.0
C1297 C 0.25677 0.73899 0.9046 0.0
C1298 C 0.25442 0.75059 0.88067 0.0
C1299 C 0.23193 0.74715 0.87299 0.0
C1300 C 0.22982 0.75802 0.85033 0.0
C1301 C 0.25009 0.7725 0.83528 0.0
C1302 C 0.27254 0.77618 0.84288 0.0
C1303 C 0.27475 0.76534 0.86551 0.0
H1304 H 0.24842 0.78089 0.81775 0.0
H1305 H 0.27042 0.67607 0.03736 0.0
H1306 H 0.50865 0.33048 0.1401 0.0
H1307 H 0.5089 0.30237 0.1084 0.0
H1308 H 0.54027 0.2772 0.16566 0.0
H1309 H 0.54052 0.30577 0.19751 0.0
H1310 H 0.56351 0.28563 0.12075 0.0
H1311 H 0.48095 0.24266 0.14598 0.0
H1312 H 0.44064 0.23678 0.15452 0.0
H1313 H 0.43446 0.252 0.07433 0.0
H1314 H 0.47488 0.2583 0.06538 0.0
H1315 H 0.54821 0.18434 0.05097 0.0
H1316 H 0.54355 0.20963 0.08312 0.0
H1317 H 0.5204 0.24012 0.02278 0.0
H1318 H 0.5251 0.21474 0.99016 0.0
H1319 H 0.49254 0.22869 0.0688 0.0
H1320 H 0.57547 0.27173 0.04403 0.0
H1321 H 0.61547 0.27674 0.03576 0.0
H1322 H 0.62058 0.26058 0.1159 0.0
H1323 H 0.58041 0.25509 0.12456 0.0
C1324 C 0.51538 0.31881 0.14613 0.0
C1325 C 0.52455 0.32041 0.17142 0.0
C1326 C 0.51542 0.30263 0.12794 0.0
C1327 C 0.5244 0.28745 0.13463 0.0
C1328 C 0.53322 0.2887 0.16001 0.0
C1329 C 0.53324 0.30497 0.17826 0.0
C1330 C 0.5256 0.27114 0.11476 0.0
C1331 C 0.54788 0.27292 0.10972 0.0
C1332 C 0.50538 0.25498 0.09977 0.0
C1333 C 0.48105 0.25118 0.10507 0.0
C1334 C 0.47108 0.24495 0.13021 0.0
C1335 C 0.44819 0.2415 0.13512 0.0
C1336 C 0.43502 0.24407 0.11499 0.0
C1337 C 0.44469 0.25004 0.0899 0.0
C1338 C 0.46758 0.25353 0.0849 0.0
C1339 C 0.54202 0.19632 0.04442 0.0
C1340 C 0.53715 0.19758 0.0179 0.0
C1341 C 0.53942 0.21083 0.06289 0.0
C1342 C 0.53187 0.22695 0.05534 0.0
C1343 C 0.52631 0.22783 0.02901 0.0
C1344 C 0.52907 0.21337 0.0104 0.0
C1345 C 0.53038 0.24317 0.075 0.0
C1346 C 0.50811 0.24141 0.07992 0.0
C1347 C 0.55057 0.25929 0.08997 0.0
C1348 C 0.57482 0.26277 0.08488 0.0
C1349 C 0.58503 0.26905 0.05984 0.0
C1350 C 0.60775 0.27201 0.05509 0.0
C1351 C 0.62053 0.26893 0.07528 0.0
C1352 C 0.61064 0.26294 0.10028 0.0
C1353 C 0.5879 0.25991 0.10512 0.0
H1354 H 0.63812 0.27122 0.07156 0.0
H1355 H 0.41731 0.2414 0.11883 0.0
loop_
_geom_bond_atom_site_label_1
_geom_bond_atom_site_label_2
_geom_bond_distance
_geom_bond_site_symmetry_2
_ccdc_geom_bond_type
Mg0 O7 2.141 . S
Mg0 O8 2.048 . S
Mg0 O9 2.048 . S
Mg0 O12 2.141 . S
C1 O2 1.313 . S
C1 O8 1.195 . S
O2 C1 1.313 . S
C3 O4 1.245 . S
C3 O12 1.289 . S
O4 C3 1.245 . S
C5 O6 1.245 . S
C5 O7 1.289 . S
O6 C5 1.245 . S
O7 Mg0 2.141 . S
O7 C5 1.289 . S
O8 Mg0 2.048 . S
O8 C1 1.195 . S
O9 Mg0 2.048 . S
O9 C10 1.195 . S
C10 O9 1.195 . S
C10 O11 1.313 . S
O11 C10 1.313 . S
O12 Mg0 2.141 . S
O12 C3 1.289 . S
Mg13 O20 2.141 . S
Mg13 O21 2.048 . S
Mg13 O22 2.048 . S
Mg13 O25 2.141 . S
C14 O15 1.313 . S
C14 O21 1.195 . S
O15 C14 1.313 . S
C16 O17 1.245 . S
C16 O25 1.289 . S
O17 C16 1.245 . S
C18 O19 1.245 . S
C18 O20 1.289 . S
O19 C18 1.245 . S
O20 Mg13 2.141 . S
O20 C18 1.289 . S
O21 Mg13 2.048 . S
O21 C14 1.195 . S
O22 Mg13 2.048 . S
O22 C23 1.195 . S
C23 O22 1.195 . S
C23 O24 1.313 . S
O24 C23 1.313 . S
O25 Mg13 2.141 . S
O25 C16 1.289 . S
Mg26 O33 2.141 . S
Mg26 O34 2.048 . S
Mg26 O35 2.048 . S
Mg26 O38 2.141 . S
C27 O28 1.313 . S
C27 O34 1.195 . S
O28 C27 1.313 . S
C29 O30 1.245 . S
C29 O38 1.289 . S
O30 C29 1.245 . S
C31 O32 1.245 . S
C31 O33 1.289 . S
O32 C31 1.245 . S
O33 Mg26 2.141 . S
O33 C31 1.289 . S
O34 Mg26 2.048 . S
O34 C27 1.195 . S
O35 Mg26 2.048 . S
O35 C36 1.195 . S
C36 O35 1.195 . S
C36 O37 1.313 . S
O37 C36 1.313 . S
O38 Mg26 2.141 . S
O38 C29 1.289 . S
Mg39 O46 2.141 . S
Mg39 O47 2.048 . S
Mg39 O48 2.048 . S
Mg39 O51 2.141 . S
C40 O41 1.313 . S
C40 O47 1.195 . S
O41 C40 1.313 . S
C42 O43 1.245 . S
C42 O51 1.289 . S
O43 C42 1.245 . S
C44 O45 1.245 . S
C44 O46 1.289 . S
O45 C44 1.245 . S
O46 Mg39 2.141 . S
O46 C44 1.289 . S
O47 Mg39 2.048 . S
O47 C40 1.195 . S
O48 Mg39 2.048 . S
O48 C49 1.195 . S
C49 O48 1.195 . S
C49 O50 1.313 . S
O50 C49 1.313 . S
O51 Mg39 2.141 . S
O51 C42 1.289 . S
Mg52 O59 2.141 . S
Mg52 O60 2.048 . S
Mg52 O61 2.048 . S
Mg52 O64 2.141 . S
C53 O54 1.313 . S
C53 O60 1.195 . S
O54 C53 1.313 . S
C55 O56 1.245 . S
C55 O64 1.289 . S
O56 C55 1.245 . S
C57 O58 1.245 . S
C57 O59 1.289 . S
O58 C57 1.245 . S
O59 Mg52 2.141 . S
O59 C57 1.289 . S
O60 Mg52 2.048 . S
O60 C53 1.195 . S
O61 Mg52 2.048 . S
O61 C62 1.195 . S
C62 O61 1.195 . S
C62 O63 1.313 . S
O63 C62 1.313 . S
O64 Mg52 2.141 . S
O64 C55 1.289 . S
Mg65 O72 2.141 . S
Mg65 O73 2.048 . S
Mg65 O74 2.048 . S
Mg65 O77 2.141 . S
C66 O67 1.313 . S
C66 O73 1.195 . S
O67 C66 1.313 . S
C68 O69 1.245 . S
C68 O77 1.289 . S
O69 C68 1.245 . S
C70 O71 1.245 . S
C70 O72 1.289 . S
O71 C70 1.245 . S
O72 Mg65 2.141 . S
O72 C70 1.289 . S
O73 Mg65 2.048 . S
O73 C66 1.195 . S
O74 Mg65 2.048 . S
O74 C75 1.195 . S
C75 O74 1.195 . S
C75 O76 1.313 . S
O76 C75 1.313 . S
O77 Mg65 2.141 . S
O77 C68 1.289 . S
Mg78 O85 2.141 . S
Mg78 O86 2.048 . S
Mg78 O87 2.048 . S
Mg78 O90 2.141 . S
C79 O80 1.313 . S
C79 O86 1.195 . S
O80 C79 1.313 . S
C81 O82 1.245 . S
C81 O90 1.289 . S
O82 C81 1.245 . S
C83 O84 1.245 . S
C83 O85 1.289 . S
O84 C83 1.245 . S
O85 Mg78 2.141 . S
O85 C83 1.289 . S
O86 Mg78 2.048 . S
O86 C79 1.195 . S
O87 Mg78 2.048 . S
O87 C88 1.195 . S
C88 O87 1.195 . S
C88 O89 1.313 . S
O89 C88 1.313 . S
O90 Mg78 2.141 . S
O90 C81 1.289 . S
Mg91 O98 2.141 . S
Mg91 O99 2.048 . S
Mg91 O100 2.048 . S
Mg91 O103 2.141 . S
C92 O93 1.313 . S
C92 O99 1.195 . S
O93 C92 1.313 . S
C94 O95 1.245 . S
C94 O103 1.289 . S
O95 C94 1.245 . S
C96 O97 1.245 . S
C96 O98 1.289 . S
O97 C96 1.245 . S
O98 Mg91 2.141 . S
O98 C96 1.289 . S
O99 Mg91 2.048 . S
O99 C92 1.195 . S
O100 Mg91 2.048 . S
O100 C101 1.195 . S
C101 O100 1.195 . S
C101 O102 1.313 . S
O102 C101 1.313 . S
O103 Mg91 2.141 . S
O103 C94 1.289 . S
Mg104 O111 2.141 . S
Mg104 O112 2.048 . S
Mg104 O113 2.048 . S
Mg104 O116 2.141 . S
C105 O106 1.313 . S
C105 O112 1.195 . S
O106 C105 1.313 . S
C107 O108 1.245 . S
C107 O116 1.289 . S
O108 C107 1.245 . S
C109 O110 1.245 . S
C109 O111 1.289 . S
O110 C109 1.245 . S
O111 Mg104 2.141 . S
O111 C109 1.289 . S
O112 Mg104 2.048 . S
O112 C105 1.195 . S
O113 Mg104 2.048 . S
O113 C114 1.195 . S
C114 O113 1.195 . S
C114 O115 1.313 . S
O115 C114 1.313 . S
O116 Mg104 2.141 . S
O116 C107 1.289 . S
Mg117 O124 2.141 . S
Mg117 O125 2.048 . S
Mg117 O126 2.048 . S
Mg117 O129 2.141 . S
C118 O119 1.313 . S
C118 O125 1.195 . S
O119 C118 1.313 . S
C120 O121 1.245 . S
C120 O129 1.289 . S
O121 C120 1.245 . S
C122 O123 1.245 . S
C122 O124 1.289 . S
O123 C122 1.245 . S
O124 Mg117 2.141 . S
O124 C122 1.289 . S
O125 Mg117 2.048 . S
O125 C118 1.195 . S
O126 Mg117 2.048 . S
O126 C127 1.195 . S
C127 O126 1.195 . S
C127 O128 1.313 . S
O128 C127 1.313 . S
O129 Mg117 2.141 . S
O129 C120 1.289 . S
Mg130 O137 2.141 . S
Mg130 O138 2.048 . S
Mg130 O139 2.048 . S
Mg130 O142 2.141 . S
C131 O132 1.313 . S
C131 O138 1.195 . S
O132 C131 1.313 . S
C133 O134 1.245 . S
C133 O142 1.289 . S
O134 C133 1.245 . S
C135 O136 1.245 . S
C135 O137 1.289 . S
O136 C135 1.245 . S
O137 Mg130 2.141 . S
O137 C135 1.289 . S
O138 Mg130 2.048 . S
O138 C131 1.195 . S
O139 Mg130 2.048 . S
O139 C140 1.195 . S
C140 O139 1.195 . S
C140 O141 1.313 . S
O141 C140 1.313 . S
O142 Mg130 2.141 . S
O142 C133 1.289 . S
Mg143 O150 2.141 . S
Mg143 O151 2.048 . S
Mg143 O152 2.048 . S
Mg143 O155 2.141 . S
C144 O145 1.313 . S
C144 O151 1.195 . S
O145 C144 1.313 . S
C146 O147 1.245 . S
C146 O155 1.289 . S
O147 C146 1.245 . S
C148 O149 1.245 . S
C148 O150 1.289 . S
O149 C148 1.245 . S
O150 Mg143 2.141 . S
O150 C148 1.289 . S
O151 Mg143 2.048 . S
O151 C144 1.195 . S
O152 Mg143 2.048 . S
O152 C153 1.195 . S
C153 O152 1.195 . S
C153 O154 1.313 . S
O154 C153 1.313 . S
O155 Mg143 2.141 . S
O155 C146 1.289 . S
H156 C174 0.951 . S
H157 C176 0.951 . S
H158 C178 0.950 . S
H159 C179 0.950 . S
H160 C181 0.950 . S
H161 C184 0.950 . S
H162 C185 0.950 . S
H163 C187 0.950 . S
H164 C188 0.950 . S
H165 C189 0.951 . S
H166 C191 0.951 . S
H167 C193 0.950 . S
H168 C194 0.950 . S
H169 C196 0.950 . S
H170 C199 0.950 . S
H171 C200 0.950 . S
H172 C202 0.950 . S
H173 C203 0.950 . S
C174 H156 0.951 . S
C174 C175 1.366 . S
C174 C176 1.388 . S
C175 C174 1.366 . S
C175 C179 1.385 . S
C176 H157 0.951 . S
C176 C174 1.388 . S
C176 C177 1.366 . S
C177 C176 1.366 . S
C177 C178 1.414 . S
C177 C180 1.499 . S
C178 H158 0.950 . S
C178 C177 1.414 . S
C178 C179 1.374 . S
C179 H159 0.950 . S
C179 C175 1.385 . S
C179 C178 1.374 . S
C180 C177 1.499 . S
C180 C181 1.373 . S
C180 C182 1.389 . S
C181 H160 0.950 . S
C181 C180 1.373 . S
C181 C197 1.377 . S
C182 C180 1.389 . S
C182 C183 1.524 . S
C182 C196 1.377 . S
C183 C182 1.524 . S
C183 C184 1.397 . S
C183 C188 1.363 . S
C184 H161 0.950 . S
C184 C183 1.397 . S
C184 C185 1.334 . S
C185 H162 0.950 . S
C185 C184 1.334 . S
C185 C186 1.287 . S
C186 C185 1.287 . S
C186 C187 1.524 . S
C186 H205 0.913 . S
C187 H163 0.950 . S
C187 C186 1.524 . S
C187 C188 1.415 . S
C188 H164 0.950 . S
C188 C183 1.363 . S
C188 C187 1.415 . S
C189 H165 0.951 . S
C189 C190 1.366 . S
C189 C191 1.388 . S
C190 C189 1.366 . S
C190 C194 1.385 . S
C191 H166 0.951 . S
C191 C189 1.388 . S
C191 C192 1.366 . S
C192 C191 1.366 . S
C192 C193 1.414 . S
C192 C195 1.499 . S
C193 H167 0.950 . S
C193 C192 1.414 . S
C193 C194 1.374 . S
C194 H168 0.950 . S
C194 C190 1.385 . S
C194 C193 1.374 . S
C195 C192 1.499 . S
C195 C196 1.373 . S
C195 C197 1.389 . S
C196 H169 0.950 . S
C196 C182 1.377 . S
C196 C195 1.373 . S
C197 C181 1.377 . S
C197 C195 1.389 . S
C197 C198 1.524 . S
C198 C197 1.524 . S
C198 C199 1.397 . S
C198 C203 1.363 . S
C199 H170 0.950 . S
C199 C198 1.397 . S
C199 C200 1.334 . S
C200 H171 0.950 . S
C200 C199 1.334 . S
C200 C201 1.287 . S
C201 C200 1.287 . S
C201 C202 1.524 . S
C201 H204 0.999 . S
C202 H172 0.950 . S
C202 C201 1.524 . S
C202 C203 1.415 . S
C203 H173 0.950 . S
C203 C198 1.363 . S
C203 C202 1.415 . S
H204 C201 0.999 . S
H205 C186 0.913 . S
H206 C224 0.951 . S
H207 C226 0.951 . S
H208 C228 0.950 . S
H209 C229 0.950 . S
H210 C231 0.950 . S
H211 C234 0.950 . S
H212 C235 0.950 . S
H213 C237 0.950 . S
H214 C238 0.950 . S
H215 C239 0.951 . S
H216 C241 0.951 . S
H217 C243 0.950 . S
H218 C244 0.950 . S
H219 C246 0.950 . S
H220 C249 0.950 . S
H221 C250 0.950 . S
H222 C252 0.950 . S
H223 C253 0.950 . S
C224 H206 0.951 . S
C224 C225 1.366 . S
C224 C226 1.388 . S
C225 C224 1.366 . S
C225 C229 1.385 . S
C226 H207 0.951 . S
C226 C224 1.388 . S
C226 C227 1.366 . S
C227 C226 1.366 . S
C227 C228 1.414 . S
C227 C230 1.499 . S
C228 H208 0.950 . S
C228 C227 1.414 . S
C228 C229 1.374 . S
C229 H209 0.950 . S
C229 C225 1.385 . S
C229 C228 1.374 . S
C230 C227 1.499 . S
C230 C231 1.373 . S
C230 C232 1.389 . S
C231 H210 0.950 . S
C231 C230 1.373 . S
C231 C247 1.377 . S
C232 C230 1.389 . S
C232 C233 1.524 . S
C232 C246 1.377 . S
C233 C232 1.524 . S
C233 C234 1.397 . S
C233 C238 1.363 . S
C234 H211 0.950 . S
C234 C233 1.397 . S
C234 C235 1.334 . S
C235 H212 0.950 . S
C235 C234 1.334 . S
C235 C236 1.287 . S
C236 C235 1.287 . S
C236 C237 1.524 . S
C236 H255 0.913 . S
C237 H213 0.950 . S
C237 C236 1.524 . S
C237 C238 1.415 . S
C238 H214 0.950 . S
C238 C233 1.363 . S
C238 C237 1.415 . S
C239 H215 0.951 . S
C239 C240 1.366 . S
C239 C241 1.388 . S
C240 C239 1.366 . S
C240 C244 1.385 . S
C241 H216 0.951 . S
C241 C239 1.388 . S
C241 C242 1.366 . S
C242 C241 1.366 . S
C242 C243 1.414 . S
C242 C245 1.499 . S
C243 H217 0.950 . S
C243 C242 1.414 . S
C243 C244 1.374 . S
C244 H218 0.950 . S
C244 C240 1.385 . S
C244 C243 1.374 . S
C245 C242 1.499 . S
C245 C246 1.373 . S
C245 C247 1.389 . S
C246 H219 0.950 . S
C246 C232 1.377 . S
C246 C245 1.373 . S
C247 C231 1.377 . S
C247 C245 1.389 . S
C247 C248 1.524 . S
C248 C247 1.524 . S
C248 C249 1.397 . S
C248 C253 1.363 . S
C249 H220 0.950 . S
C249 C248 1.397 . S
C249 C250 1.334 . S
C250 H221 0.950 . S
C250 C249 1.334 . S
C250 C251 1.287 . S
C251 C250 1.287 . S
C251 C252 1.524 . S
C251 H254 0.999 . S
C252 H222 0.950 . S
C252 C251 1.524 . S
C252 C253 1.415 . S
C253 H223 0.950 . S
C253 C248 1.363 . S
C253 C252 1.415 . S
H254 C251 0.999 . S
H255 C236 0.913 . S
H256 C274 0.951 . S
H257 C276 0.951 . S
H258 C278 0.950 . S
H259 C279 0.950 . S
H260 C281 0.950 . S
H261 C284 0.950 . S
H262 C285 0.950 . S
H263 C287 0.950 . S
H264 C288 0.950 . S
H265 C289 0.951 . S
H266 C291 0.951 . S
H267 C293 0.950 . S
H268 C294 0.950 . S
H269 C296 0.950 . S
H270 C299 0.950 . S
H271 C300 0.950 . S
H272 C302 0.950 . S
H273 C303 0.950 . S
C274 H256 0.951 . S
C274 C275 1.366 . S
C274 C276 1.388 . S
C275 C274 1.366 . S
C275 C279 1.385 . S
C276 H257 0.951 . S
C276 C274 1.388 . S
C276 C277 1.366 . S
C277 C276 1.366 . S
C277 C278 1.414 . S
C277 C280 1.499 . S
C278 H258 0.950 . S
C278 C277 1.414 . S
C278 C279 1.374 . S
C279 H259 0.950 . S
C279 C275 1.385 . S
C279 C278 1.374 . S
C280 C277 1.499 . S
C280 C281 1.373 . S
C280 C282 1.389 . S
C281 H260 0.950 . S
C281 C280 1.373 . S
C281 C297 1.377 . S
C282 C280 1.389 . S
C282 C283 1.524 . S
C282 C296 1.377 . S
C283 C282 1.524 . S
C283 C284 1.397 . S
C283 C288 1.363 . S
C284 H261 0.950 . S
C284 C283 1.397 . S
C284 C285 1.334 . S
C285 H262 0.950 . S
C285 C284 1.334 . S
C285 C286 1.287 . S
C286 C285 1.287 . S
C286 C287 1.524 . S
C286 H305 0.913 . S
C287 H263 0.950 . S
C287 C286 1.524 . S
C287 C288 1.415 . S
C288 H264 0.950 . S
C288 C283 1.363 . S
C288 C287 1.415 . S
C289 H265 0.951 . S
C289 C290 1.366 . S
C289 C291 1.388 . S
C290 C289 1.366 . S
C290 C294 1.385 . S
C291 H266 0.951 . S
C291 C289 1.388 . S
C291 C292 1.366 . S
C292 C291 1.366 . S
C292 C293 1.414 . S
C292 C295 1.499 . S
C293 H267 0.950 . S
C293 C292 1.414 . S
C293 C294 1.374 . S
C294 H268 0.950 . S
C294 C290 1.385 . S
C294 C293 1.374 . S
C295 C292 1.499 . S
C295 C296 1.373 . S
C295 C297 1.389 . S
C296 H269 0.950 . S
C296 C282 1.377 . S
C296 C295 1.373 . S
C297 C281 1.377 . S
C297 C295 1.389 . S
C297 C298 1.524 . S
C298 C297 1.524 . S
C298 C299 1.397 . S
C298 C303 1.363 . S
C299 H270 0.950 . S
C299 C298 1.397 . S
C299 C300 1.334 . S
C300 H271 0.950 . S
C300 C299 1.334 . S
C300 C301 1.287 . S
C301 C300 1.287 . S
C301 C302 1.524 . S
C301 H304 0.999 . S
C302 H272 0.950 . S
C302 C301 1.524 . S
C302 C303 1.415 . S
C303 H273 0.950 . S
C303 C298 1.363 . S
C303 C302 1.415 . S
H304 C301 0.999 . S
H305 C286 0.913 . S
H306 C324 0.951 . S
H307 C326 0.951 . S
H308 C328 0.950 . S
H309 C329 0.950 . S
H310 C331 0.950 . S
H311 C334 0.950 . S
H312 C335 0.950 . S
H313 C337 0.950 . S
H314 C338 0.950 . S
H315 C339 0.951 . S
H316 C341 0.951 . S
H317 C343 0.950 . S
H318 C344 0.950 . S
H319 C346 0.950 . S
H320 C349 0.950 . S
H321 C350 0.962 . S
H322 C352 0.950 . S
H323 C353 0.950 . S
C324 H306 0.951 . S
C324 C325 1.366 . S
C324 C326 1.388 . S
C325 C324 1.366 . S
C325 C329 1.385 . S
C326 H307 0.951 . S
C326 C324 1.388 . S
C326 C327 1.366 . S
C327 C326 1.366 . S
C327 C328 1.414 . S
C327 C330 1.499 . S
C328 H308 0.950 . S
C328 C327 1.414 . S
C328 C329 1.374 . S
C329 H309 0.950 . S
C329 C325 1.385 . S
C329 C328 1.374 . S
C330 C327 1.499 . S
C330 C331 1.373 . S
C330 C332 1.389 . S
C331 H310 0.950 . S
C331 C330 1.373 . S
C331 C347 1.377 . S
C332 C330 1.389 . S
C332 C333 1.524 . S
C332 C346 1.377 . S
C333 C332 1.524 . S
C333 C334 1.397 . S
C333 C338 1.363 . S
C334 H311 0.950 . S
C334 C333 1.397 . S
C334 C335 1.334 . S
C335 H312 0.950 . S
C335 C334 1.334 . S
C335 C336 1.287 . S
C336 C335 1.287 . S
C336 C337 1.524 . S
C336 H355 0.913 . S
C337 H313 0.950 . S
C337 C336 1.524 . S
C337 C338 1.415 . S
C338 H314 0.950 . S
C338 C333 1.363 . S
C338 C337 1.415 . S
C339 H315 0.951 . S
C339 C340 1.366 . S
C339 C341 1.388 . S
C340 C339 1.366 . S
C340 C344 1.385 . S
C341 H316 0.951 . S
C341 C339 1.388 . S
C341 C342 1.366 . S
C342 C341 1.366 . S
C342 C343 1.414 . S
C342 C345 1.499 . S
C343 H317 0.950 . S
C343 C342 1.414 . S
C343 C344 1.374 . S
C344 H318 0.950 . S
C344 C340 1.385 . S
C344 C343 1.374 . S
C345 C342 1.499 . S
C345 C346 1.373 . S
C345 C347 1.389 . S
C346 H319 0.950 . S
C346 C332 1.377 . S
C346 C345 1.373 . S
C347 C331 1.377 . S
C347 C345 1.389 . S
C347 C348 1.524 . S
C348 C347 1.524 . S
C348 C349 1.397 . S
C348 C353 1.363 . S
C349 H320 0.950 . S
C349 C348 1.397 . S
C349 C350 1.334 . S
C350 H321 0.962 . S
C350 C349 1.334 . S
C350 C351 1.287 1_556 S
C351 C350 1.287 1_554 S
C351 C352 1.524 . S
C351 H354 0.999 . S
C352 H322 0.950 . S
C352 C351 1.524 . S
C352 C353 1.415 1_554 S
C353 H323 0.950 . S
C353 C348 1.363 . S
C353 C352 1.415 1_556 S
H354 C351 0.999 . S
H355 C336 0.913 . S
H356 C374 0.951 . S
H357 C376 0.951 . S
H358 C378 0.950 . S
H359 C379 0.950 . S
H360 C381 0.950 . S
H361 C384 0.950 . S
H362 C385 0.950 . S
H363 C387 0.950 . S
H364 C388 0.950 . S
H365 C389 0.951 . S
H366 C391 0.951 . S
H367 C393 0.950 . S
H368 C394 0.950 . S
H369 C396 0.950 . S
H370 C399 0.950 . S
H371 C400 0.950 . S
H372 C402 0.950 . S
H373 C403 0.950 . S
C374 H356 0.951 . S
C374 C375 1.366 . S
C374 C376 1.388 . S
C375 C374 1.366 . S
C375 C379 1.385 . S
C376 H357 0.951 . S
C376 C374 1.388 . S
C376 C377 1.366 . S
C377 C376 1.366 . S
C377 C378 1.414 . S
C377 C380 1.499 . S
C378 H358 0.950 . S
C378 C377 1.414 . S
C378 C379 1.374 . S
C379 H359 0.950 . S
C379 C375 1.385 . S
C379 C378 1.374 . S
C380 C377 1.499 . S
C380 C381 1.373 . S
C380 C382 1.389 . S
C381 H360 0.950 . S
C381 C380 1.373 . S
C381 C397 1.377 . S
C382 C380 1.389 . S
C382 C383 1.524 . S
C382 C396 1.377 . S
C383 C382 1.524 . S
C383 C384 1.397 . S
C383 C388 1.363 . S
C384 H361 0.950 . S
C384 C383 1.397 . S
C384 C385 1.334 . S
C385 H362 0.950 . S
C385 C384 1.334 . S
C385 C386 1.287 . S
C386 C385 1.287 . S
C386 C387 1.524 . S
C386 H405 0.926 . S
C387 H363 0.950 . S
C387 C386 1.524 . S
C387 C388 1.415 . S
C388 H364 0.950 . S
C388 C383 1.363 . S
C388 C387 1.415 . S
C389 H365 0.951 . S
C389 C390 1.366 . S
C389 C391 1.388 . S
C390 C389 1.366 . S
C390 C394 1.385 . S
C391 H366 0.951 . S
C391 C389 1.388 . S
C391 C392 1.366 . S
C392 C391 1.366 . S
C392 C393 1.414 . S
C392 C395 1.499 . S
C393 H367 0.950 . S
C393 C392 1.414 . S
C393 C394 1.374 . S
C394 H368 0.950 . S
C394 C390 1.385 . S
C394 C393 1.374 . S
C395 C392 1.499 . S
C395 C396 1.373 . S
C395 C397 1.389 . S
C396 H369 0.950 . S
C396 C382 1.377 . S
C396 C395 1.373 . S
C397 C381 1.377 . S
C397 C395 1.389 . S
C397 C398 1.524 . S
C398 C397 1.524 . S
C398 C399 1.397 . S
C398 C403 1.363 . S
C399 H370 0.950 . S
C399 C398 1.397 . S
C399 C400 1.334 . S
C400 H371 0.950 . S
C400 C399 1.334 . S
C400 C401 1.287 . S
C401 C400 1.287 . S
C401 C402 1.524 . S
C401 H404 0.999 . S
C402 H372 0.950 . S
C402 C401 1.524 . S
C402 C403 1.415 . S
C403 H373 0.950 . S
C403 C398 1.363 . S
C403 C402 1.415 . S
H404 C401 0.999 . S
H405 C386 0.926 . S
H406 C424 0.951 . S
H407 C426 0.951 . S
H408 C428 0.950 . S
H409 C429 0.950 . S
H410 C431 0.950 . S
H411 C434 0.950 . S
H412 C435 0.950 . S
H413 C437 0.950 . S
H414 C438 0.950 . S
H415 C439 0.951 . S
H416 C441 0.951 . S
H417 C443 0.950 . S
H418 C444 0.950 . S
H419 C446 0.950 . S
H420 C449 0.950 . S
H421 C450 0.950 . S
H422 C452 0.950 . S
H423 C453 0.950 . S
C424 H406 0.951 . S
C424 C425 1.366 . S
C424 C426 1.388 . S
C425 C424 1.366 . S
C425 C429 1.385 . S
C426 H407 0.951 . S
C426 C424 1.388 . S
C426 C427 1.366 . S
C427 C426 1.366 . S
C427 C428 1.414 . S
C427 C430 1.499 . S
C428 H408 0.950 . S
C428 C427 1.414 . S
C428 C429 1.374 . S
C429 H409 0.950 . S
C429 C425 1.385 . S
C429 C428 1.374 . S
C430 C427 1.499 . S
C430 C431 1.373 . S
C430 C432 1.389 . S
C431 H410 0.950 . S
C431 C430 1.373 . S
C431 C447 1.377 . S
C432 C430 1.389 . S
C432 C433 1.524 . S
C432 C446 1.377 . S
C433 C432 1.524 . S
C433 C434 1.397 . S
C433 C438 1.363 . S
C434 H411 0.950 . S
C434 C433 1.397 . S
C434 C435 1.334 . S
C435 H412 0.950 . S
C435 C434 1.334 . S
C435 C436 1.287 . S
C436 C435 1.287 . S
C436 C437 1.524 . S
C436 H455 0.913 . S
C437 H413 0.950 . S
C437 C436 1.524 . S
C437 C438 1.415 . S
C438 H414 0.950 . S
C438 C433 1.363 . S
C438 C437 1.415 . S
C439 H415 0.951 . S
C439 C440 1.366 . S
C439 C441 1.388 . S
C440 C439 1.366 . S
C440 C444 1.385 . S
C441 H416 0.951 . S
C441 C439 1.388 . S
C441 C442 1.366 . S
C442 C441 1.366 . S
C442 C443 1.414 . S
C442 C445 1.499 . S
C443 H417 0.950 . S
C443 C442 1.414 . S
C443 C444 1.374 . S
C444 H418 0.950 . S
C444 C440 1.385 . S
C444 C443 1.374 . S
C445 C442 1.499 . S
C445 C446 1.373 . S
C445 C447 1.389 . S
C446 H419 0.950 . S
C446 C432 1.377 . S
C446 C445 1.373 . S
C447 C431 1.377 . S
C447 C445 1.389 . S
C447 C448 1.524 . S
C448 C447 1.524 . S
C448 C449 1.397 . S
C448 C453 1.363 . S
C449 H420 0.950 . S
C449 C448 1.397 . S
C449 C450 1.334 . S
C450 H421 0.950 . S
C450 C449 1.334 . S
C450 C451 1.287 . S
C451 C450 1.287 . S
C451 C452 1.524 . S
C451 H454 0.999 . S
C452 H422 0.950 . S
C452 C451 1.524 . S
C452 C453 1.415 . S
C453 H423 0.950 . S
C453 C448 1.363 . S
C453 C452 1.415 . S
H454 C451 0.999 . S
H455 C436 0.913 . S
H456 C474 0.951 . S
H457 C476 0.951 . S
H458 C478 0.950 . S
H459 C479 0.950 . S
H460 C481 0.950 . S
H461 C484 0.950 . S
H462 C485 0.950 . S
H463 C487 0.950 . S
H464 C488 0.950 . S
H465 C489 0.951 . S
H466 C491 0.951 . S
H467 C493 0.950 . S
H468 C494 0.950 . S
H469 C496 0.950 . S
H470 C499 0.950 . S
H471 C500 0.950 . S
H472 C502 0.950 . S
H473 C503 0.950 . S
C474 H456 0.951 . S
C474 C475 1.366 . S
C474 C476 1.388 . S
C475 C474 1.366 . S
C475 C479 1.385 . S
C476 H457 0.951 . S
C476 C474 1.388 . S
C476 C477 1.366 . S
C477 C476 1.366 . S
C477 C478 1.414 . S
C477 C480 1.499 . S
C478 H458 0.950 . S
C478 C477 1.414 . S
C478 C479 1.374 . S
C479 H459 0.950 . S
C479 C475 1.385 . S
C479 C478 1.374 . S
C480 C477 1.499 . S
C480 C481 1.373 . S
C480 C482 1.389 . S
C481 H460 0.950 . S
C481 C480 1.373 . S
C481 C497 1.377 . S
C482 C480 1.389 . S
C482 C483 1.524 . S
C482 C496 1.377 . S
C483 C482 1.524 . S
C483 C484 1.397 . S
C483 C488 1.363 . S
C484 H461 0.950 . S
C484 C483 1.397 . S
C484 C485 1.334 . S
C485 H462 0.950 . S
C485 C484 1.334 . S
C485 C486 1.287 . S
C486 C485 1.287 . S
C486 C487 1.524 . S
C486 H505 0.913 . S
C487 H463 0.950 . S
C487 C486 1.524 . S
C487 C488 1.415 . S
C488 H464 0.950 . S
C488 C483 1.363 . S
C488 C487 1.415 . S
C489 H465 0.951 . S
C489 C490 1.366 . S
C489 C491 1.388 . S
C490 C489 1.366 . S
C490 C494 1.385 . S
C491 H466 0.951 . S
C491 C489 1.388 . S
C491 C492 1.366 . S
C492 C491 1.366 . S
C492 C493 1.414 . S
C492 C495 1.499 . S
C493 H467 0.950 . S
C493 C492 1.414 . S
C493 C494 1.374 . S
C494 H468 0.950 . S
C494 C490 1.385 . S
C494 C493 1.374 . S
C495 C492 1.499 . S
C495 C496 1.373 . S
C495 C497 1.389 . S
C496 H469 0.950 . S
C496 C482 1.377 . S
C496 C495 1.373 . S
C497 C481 1.377 . S
C497 C495 1.389 . S
C497 C498 1.524 . S
C498 C497 1.524 . S
C498 C499 1.397 . S
C498 C503 1.363 . S
C499 H470 0.950 . S
C499 C498 1.397 . S
C499 C500 1.334 . S
C500 H471 0.950 . S
C500 C499 1.334 . S
C500 C501 1.287 . S
C501 C500 1.287 . S
C501 C502 1.524 . S
C501 H504 0.999 . S
C502 H472 0.950 . S
C502 C501 1.524 . S
C502 C503 1.415 . S
C503 H473 0.950 . S
C503 C498 1.363 . S
C503 C502 1.415 . S
H504 C501 0.999 . S
H505 C486 0.913 . S
H506 C524 0.951 . S
H507 C526 0.951 . S
H508 C528 0.950 . S
H509 C529 0.950 . S
H510 C531 0.950 . S
H511 C534 0.950 . S
H512 C535 0.950 . S
H513 C537 0.950 . S
H514 C538 0.950 . S
H515 C539 0.951 . S
H516 C541 0.951 . S
H517 C543 0.950 . S
H518 C544 0.950 . S
H519 C546 0.950 . S
H520 C549 0.950 . S
H521 C550 0.950 . S
H522 C552 0.950 . S
H523 C553 0.950 . S
C524 H506 0.951 . S
C524 C525 1.366 . S
C524 C526 1.388 . S
C525 C524 1.366 . S
C525 C529 1.385 . S
C526 H507 0.951 . S
C526 C524 1.388 . S
C526 C527 1.366 . S
C527 C526 1.366 . S
C527 C528 1.414 . S
C527 C530 1.499 . S
C528 H508 0.950 . S
C528 C527 1.414 . S
C528 C529 1.374 . S
C529 H509 0.950 . S
C529 C525 1.385 . S
C529 C528 1.374 . S
C530 C527 1.499 . S
C530 C531 1.373 . S
C530 C532 1.389 . S
C531 H510 0.950 . S
C531 C530 1.373 . S
C531 C547 1.377 . S
C532 C530 1.389 . S
C532 C533 1.524 . S
C532 C546 1.377 . S
C533 C532 1.524 . S
C533 C534 1.397 . S
C533 C538 1.363 . S
C534 H511 0.950 . S
C534 C533 1.397 . S
C534 C535 1.334 . S
C535 H512 0.950 . S
C535 C534 1.334 . S
C535 C536 1.287 . S
C536 C535 1.287 . S
C536 C537 1.524 . S
C536 H555 0.913 . S
C537 H513 0.950 . S
C537 C536 1.524 . S
C537 C538 1.415 . S
C538 H514 0.950 . S
C538 C533 1.363 . S
C538 C537 1.415 . S
C539 H515 0.951 . S
C539 C540 1.366 . S
C539 C541 1.388 . S
C540 C539 1.366 . S
C540 C544 1.385 . S
C541 H516 0.951 . S
C541 C539 1.388 . S
C541 C542 1.366 . S
C542 C541 1.366 . S
C542 C543 1.414 . S
C542 C545 1.499 . S
C543 H517 0.950 . S
C543 C542 1.414 . S
C543 C544 1.374 . S
C544 H518 0.950 . S
C544 C540 1.385 . S
C544 C543 1.374 . S
C545 C542 1.499 . S
C545 C546 1.373 . S
C545 C547 1.389 . S
C546 H519 0.950 . S
C546 C532 1.377 . S
C546 C545 1.373 . S
C547 C531 1.377 . S
C547 C545 1.389 . S
C547 C548 1.524 . S
C548 C547 1.524 . S
C548 C549 1.397 . S
C548 C553 1.363 . S
C549 H520 0.950 . S
C549 C548 1.397 . S
C549 C550 1.334 . S
C550 H521 0.950 . S
C550 C549 1.334 . S
C550 C551 1.287 . S
C551 C550 1.287 . S
C551 C552 1.524 . S
C551 H554 0.999 . S
C552 H522 0.950 . S
C552 C551 1.524 . S
C552 C553 1.415 . S
C553 H523 0.950 . S
C553 C548 1.363 . S
C553 C552 1.415 . S
H554 C551 0.999 . S
H555 C536 0.913 . S
H556 C574 0.951 . S
H557 C576 0.951 . S
H558 C578 0.950 . S
H559 C579 0.950 1_554 S
H560 C581 0.950 . S
H561 C584 0.950 . S
H562 C585 0.950 . S
H563 C587 0.950 . S
H564 C588 0.950 . S
H565 C589 0.951 . S
H566 C591 0.951 . S
H567 C593 0.950 . S
H568 C594 0.950 . S
H569 C596 0.950 . S
H570 C599 0.950 . S
H571 C600 0.950 . S
H572 C602 0.950 . S
H573 C603 0.950 . S
C574 H556 0.951 . S
C574 C575 1.366 . S
C574 C576 1.388 1_554 S
C575 C574 1.366 . S
C575 C579 1.385 1_554 S
C576 H557 0.951 . S
C576 C574 1.388 1_556 S
C576 C577 1.366 . S
C577 C576 1.366 . S
C577 C578 1.414 . S
C577 C580 1.499 . S
C578 H558 0.950 . S
C578 C577 1.414 . S
C578 C579 1.374 . S
C579 H559 0.950 1_556 S
C579 C575 1.385 1_556 S
C579 C578 1.374 . S
C580 C577 1.499 . S
C580 C581 1.373 . S
C580 C582 1.389 . S
C581 H560 0.950 . S
C581 C580 1.373 . S
C581 C597 1.377 . S
C582 C580 1.389 . S
C582 C583 1.524 . S
C582 C596 1.377 . S
C583 C582 1.524 . S
C583 C584 1.397 . S
C583 C588 1.363 . S
C584 H561 0.950 . S
C584 C583 1.397 . S
C584 C585 1.334 . S
C585 H562 0.950 . S
C585 C584 1.334 . S
C585 C586 1.287 . S
C586 C585 1.287 . S
C586 C587 1.524 . S
C586 H605 0.913 . S
C587 H563 0.950 . S
C587 C586 1.524 . S
C587 C588 1.415 . S
C588 H564 0.950 . S
C588 C583 1.363 . S
C588 C587 1.415 . S
C589 H565 0.951 . S
C589 C590 1.366 . S
C589 C591 1.388 . S
C590 C589 1.366 . S
C590 C594 1.385 . S
C591 H566 0.951 . S
C591 C589 1.388 . S
C591 C592 1.366 . S
C592 C591 1.366 . S
C592 C593 1.414 . S
C592 C595 1.499 . S
C593 H567 0.950 . S
C593 C592 1.414 . S
C593 C594 1.374 . S
C594 H568 0.950 . S
C594 C590 1.385 . S
C594 C593 1.374 . S
C595 C592 1.499 . S
C595 C596 1.373 . S
C595 C597 1.389 . S
C596 H569 0.950 . S
C596 C582 1.377 . S
C596 C595 1.373 . S
C597 C581 1.377 . S
C597 C595 1.389 . S
C597 C598 1.524 . S
C598 C597 1.524 . S
C598 C599 1.397 . S
C598 C603 1.363 . S
C599 H570 0.950 . S
C599 C598 1.397 . S
C599 C600 1.334 . S
C600 H571 0.950 . S
C600 C599 1.334 . S
C600 C601 1.287 . S
C601 C600 1.287 . S
C601 C602 1.524 . S
C601 H604 0.999 . S
C602 H572 0.950 . S
C602 C601 1.524 . S
C602 C603 1.415 . S
C603 H573 0.950 . S
C603 C598 1.363 . S
C603 C602 1.415 . S
H604 C601 0.999 . S
H605 C586 0.913 . S
H606 C624 0.951 . S
H607 C626 0.951 . S
H608 C628 0.950 . S
H609 C629 0.950 . S
H610 C631 0.950 . S
H611 C634 0.950 . S
H612 C635 0.950 . S
H613 C637 0.950 . S
H614 C638 0.950 . S
H615 C639 0.951 1_556 S
H616 C641 0.951 . S
H617 C643 0.950 . S
H618 C644 0.950 . S
H619 C646 0.950 . S
H620 C649 0.950 . S
H621 C650 0.950 . S
H622 C652 0.950 . S
H623 C653 0.950 . S
C624 H606 0.951 . S
C624 C625 1.366 . S
C624 C626 1.388 . S
C625 C624 1.366 . S
C625 C629 1.385 . S
C626 H607 0.951 . S
C626 C624 1.388 . S
C626 C627 1.366 . S
C627 C626 1.366 . S
C627 C628 1.414 . S
C627 C630 1.499 . S
C628 H608 0.950 . S
C628 C627 1.414 . S
C628 C629 1.374 . S
C629 H609 0.950 . S
C629 C625 1.385 . S
C629 C628 1.374 . S
C630 C627 1.499 . S
C630 C631 1.373 . S
C630 C632 1.389 . S
C631 H610 0.950 . S
C631 C630 1.373 . S
C631 C647 1.377 . S
C632 C630 1.389 . S
C632 C633 1.524 . S
C632 C646 1.377 . S
C633 C632 1.524 . S
C633 C634 1.397 . S
C633 C638 1.363 . S
C634 H611 0.950 . S
C634 C633 1.397 . S
C634 C635 1.334 . S
C635 H612 0.950 . S
C635 C634 1.334 . S
C635 C636 1.287 . S
C636 C635 1.287 . S
C636 C637 1.524 . S
C636 H655 0.913 . S
C637 H613 0.950 . S
C637 C636 1.524 . S
C637 C638 1.415 . S
C638 H614 0.950 . S
C638 C633 1.363 . S
C638 C637 1.415 . S
C639 H615 0.951 1_554 S
C639 C640 1.366 1_554 S
C639 C641 1.388 . S
C640 C639 1.366 1_556 S
C640 C644 1.385 . S
C641 H616 0.951 . S
C641 C639 1.388 . S
C641 C642 1.366 . S
C642 C641 1.366 . S
C642 C643 1.414 . S
C642 C645 1.499 . S
C643 H617 0.950 . S
C643 C642 1.414 . S
C643 C644 1.374 1_554 S
C644 H618 0.950 . S
C644 C640 1.385 . S
C644 C643 1.374 1_556 S
C645 C642 1.499 . S
C645 C646 1.373 . S
C645 C647 1.389 . S
C646 H619 0.950 . S
C646 C632 1.377 . S
C646 C645 1.373 . S
C647 C631 1.377 . S
C647 C645 1.389 . S
C647 C648 1.524 . S
C648 C647 1.524 . S
C648 C649 1.397 . S
C648 C653 1.363 . S
C649 H620 0.950 . S
C649 C648 1.397 . S
C649 C650 1.334 . S
C650 H621 0.950 . S
C650 C649 1.334 . S
C650 C651 1.287 . S
C651 C650 1.287 . S
C651 C652 1.524 . S
C651 H654 0.999 . S
C652 H622 0.950 . S
C652 C651 1.524 . S
C652 C653 1.415 . S
C653 H623 0.950 . S
C653 C648 1.363 . S
C653 C652 1.415 . S
H654 C651 0.999 . S
H655 C636 0.913 . S
H656 C674 0.951 . S
H657 C676 0.951 . S
H658 C678 0.950 . S
H659 C679 0.950 . S
H660 C681 0.950 . S
H661 C684 0.950 . S
H662 C685 0.950 . S
H663 C687 0.950 . S
H664 C688 0.950 . S
H665 C689 0.951 . S
H666 C691 0.951 . S
H667 C693 0.950 . S
H668 C694 0.950 . S
H669 C696 0.950 . S
H670 C699 0.950 . S
H671 C700 0.950 . S
H672 C702 0.950 . S
H673 C703 0.950 . S
C674 H656 0.951 . S
C674 C675 1.366 . S
C674 C676 1.388 . S
C675 C674 1.366 . S
C675 C679 1.385 . S
C676 H657 0.951 . S
C676 C674 1.388 . S
C676 C677 1.366 . S
C677 C676 1.366 . S
C677 C678 1.414 . S
C677 C680 1.499 . S
C678 H658 0.950 . S
C678 C677 1.414 . S
C678 C679 1.374 . S
C679 H659 0.950 . S
C679 C675 1.385 . S
C679 C678 1.374 . S
C680 C677 1.499 . S
C680 C681 1.373 . S
C680 C682 1.389 . S
C681 H660 0.950 . S
C681 C680 1.373 . S
C681 C697 1.377 . S
C682 C680 1.389 . S
C682 C683 1.524 . S
C682 C696 1.377 . S
C683 C682 1.524 . S
C683 C684 1.397 . S
C683 C688 1.363 . S
C684 H661 0.950 . S
C684 C683 1.397 . S
C684 C685 1.334 . S
C685 H662 0.950 . S
C685 C684 1.334 . S
C685 C686 1.287 . S
C686 C685 1.287 . S
C686 C687 1.524 . S
C686 H705 0.913 . S
C687 H663 0.950 . S
C687 C686 1.524 . S
C687 C688 1.415 . S
C688 H664 0.950 . S
C688 C683 1.363 . S
C688 C687 1.415 . S
C689 H665 0.951 . S
C689 C690 1.366 . S
C689 C691 1.388 . S
C690 C689 1.366 . S
C690 C694 1.385 . S
C691 H666 0.951 . S
C691 C689 1.388 . S
C691 C692 1.366 . S
C692 C691 1.366 . S
C692 C693 1.414 . S
C692 C695 1.499 . S
C693 H667 0.950 . S
C693 C692 1.414 . S
C693 C694 1.374 . S
C694 H668 0.950 . S
C694 C690 1.385 . S
C694 C693 1.374 . S
C695 C692 1.499 . S
C695 C696 1.373 . S
C695 C697 1.389 . S
C696 H669 0.950 . S
C696 C682 1.377 . S
C696 C695 1.373 . S
C697 C681 1.377 . S
C697 C695 1.389 . S
C697 C698 1.524 . S
C698 C697 1.524 . S
C698 C699 1.397 . S
C698 C703 1.363 . S
C699 H670 0.950 . S
C699 C698 1.397 . S
C699 C700 1.334 . S
C700 H671 0.950 . S
C700 C699 1.334 . S
C700 C701 1.287 . S
C701 C700 1.287 . S
C701 C702 1.524 . S
C701 H704 0.999 . S
C702 H672 0.950 . S
C702 C701 1.524 . S
C702 C703 1.415 . S
C703 H673 0.950 . S
C703 C698 1.363 . S
C703 C702 1.415 . S
H704 C701 0.999 . S
H705 C686 0.913 . S
H706 C724 0.951 . S
H707 C726 0.951 . S
H708 C728 0.950 . S
H709 C729 0.950 . S
H710 C731 0.950 . S
H711 C734 0.950 . S
H712 C735 0.950 . S
H713 C737 0.950 . S
H714 C738 0.950 . S
H715 C739 0.951 . S
H716 C741 0.951 . S
H717 C743 0.950 . S
H718 C744 0.950 . S
H719 C746 0.950 . S
H720 C749 0.950 . S
H721 C750 0.950 . S
H722 C752 0.950 . S
H723 C753 0.950 . S
C724 H706 0.951 . S
C724 C725 1.366 . S
C724 C726 1.388 . S
C725 C724 1.366 . S
C725 C729 1.385 . S
C726 H707 0.951 . S
C726 C724 1.388 . S
C726 C727 1.366 . S
C727 C726 1.366 . S
C727 C728 1.414 . S
C727 C730 1.499 . S
C728 H708 0.950 . S
C728 C727 1.414 . S
C728 C729 1.374 . S
C729 H709 0.950 . S
C729 C725 1.385 . S
C729 C728 1.374 . S
C730 C727 1.499 . S
C730 C731 1.373 . S
C730 C732 1.389 . S
C731 H710 0.950 . S
C731 C730 1.373 . S
C731 C747 1.377 . S
C732 C730 1.389 . S
C732 C733 1.524 . S
C732 C746 1.377 . S
C733 C732 1.524 . S
C733 C734 1.397 . S
C733 C738 1.363 . S
C734 H711 0.950 . S
C734 C733 1.397 . S
C734 C735 1.334 . S
C735 H712 0.950 . S
C735 C734 1.334 . S
C735 C736 1.287 . S
C736 C735 1.287 . S
C736 C737 1.524 . S
C736 H755 0.913 . S
C737 H713 0.950 . S
C737 C736 1.524 . S
C737 C738 1.415 . S
C738 H714 0.950 . S
C738 C733 1.363 . S
C738 C737 1.415 . S
C739 H715 0.951 . S
C739 C740 1.366 . S
C739 C741 1.388 . S
C740 C739 1.366 . S
C740 C744 1.385 . S
C741 H716 0.951 . S
C741 C739 1.388 . S
C741 C742 1.366 . S
C742 C741 1.366 . S
C742 C743 1.414 . S
C742 C745 1.499 . S
C743 H717 0.950 . S
C743 C742 1.414 . S
C743 C744 1.374 . S
C744 H718 0.950 . S
C744 C740 1.385 . S
C744 C743 1.374 . S
C745 C742 1.499 . S
C745 C746 1.373 . S
C745 C747 1.389 . S
C746 H719 0.950 . S
C746 C732 1.377 . S
C746 C745 1.373 . S
C747 C731 1.377 . S
C747 C745 1.389 . S
C747 C748 1.524 . S
C748 C747 1.524 . S
C748 C749 1.397 . S
C748 C753 1.363 . S
C749 H720 0.950 . S
C749 C748 1.397 . S
C749 C750 1.334 . S
C750 H721 0.950 . S
C750 C749 1.334 . S
C750 C751 1.287 . S
C751 C750 1.287 . S
C751 C752 1.524 . S
C751 H754 0.999 . S
C752 H722 0.950 . S
C752 C751 1.524 . S
C752 C753 1.415 . S
C753 H723 0.950 . S
C753 C748 1.363 . S
C753 C752 1.415 . S
H754 C751 0.999 . S
H755 C736 0.913 . S
H756 C774 0.951 . S
H757 C776 0.951 . S
H758 C778 0.950 . S
H759 C779 0.950 . S
H760 C781 0.950 . S
H761 C784 0.950 . S
H762 C785 0.950 . S
H763 C787 0.950 . S
H764 C788 0.950 . S
H765 C789 0.951 . S
H766 C791 0.951 . S
H767 C793 0.950 . S
H768 C794 0.950 . S
H769 C796 0.950 . S
H770 C799 0.950 . S
H771 C800 0.950 . S
H772 C802 0.950 . S
H773 C803 0.950 . S
C774 H756 0.951 . S
C774 C775 1.366 . S
C774 C776 1.388 . S
C775 C774 1.366 . S
C775 C779 1.385 . S
C776 H757 0.951 . S
C776 C774 1.388 . S
C776 C777 1.366 . S
C777 C776 1.366 . S
C777 C778 1.414 . S
C777 C780 1.499 . S
C778 H758 0.950 . S
C778 C777 1.414 . S
C778 C779 1.374 . S
C779 H759 0.950 . S
C779 C775 1.385 . S
C779 C778 1.374 . S
C780 C777 1.499 . S
C780 C781 1.373 . S
C780 C782 1.389 . S
C781 H760 0.950 . S
C781 C780 1.373 . S
C781 C797 1.377 1_655 S
C782 C780 1.389 . S
C782 C783 1.524 . S
C782 C796 1.377 1_655 S
C783 C782 1.524 . S
C783 C784 1.397 . S
C783 C788 1.363 1_655 S
C784 H761 0.950 . S
C784 C783 1.397 . S
C784 C785 1.334 . S
C785 H762 0.950 . S
C785 C784 1.334 . S
C785 C786 1.287 . S
C786 C785 1.287 . S
C786 C787 1.524 1_655 S
C786 H805 0.913 . S
C787 H763 0.950 . S
C787 C786 1.524 1_455 S
C787 C788 1.415 . S
C788 H764 0.950 . S
C788 C783 1.363 1_455 S
C788 C787 1.415 . S
C789 H765 0.951 . S
C789 C790 1.366 . S
C789 C791 1.388 . S
C790 C789 1.366 . S
C790 C794 1.385 . S
C791 H766 0.951 . S
C791 C789 1.388 . S
C791 C792 1.366 . S
C792 C791 1.366 . S
C792 C793 1.414 . S
C792 C795 1.499 . S
C793 H767 0.950 . S
C793 C792 1.414 . S
C793 C794 1.374 . S
C794 H768 0.950 . S
C794 C790 1.385 . S
C794 C793 1.374 . S
C795 C792 1.499 . S
C795 C796 1.373 . S
C795 C797 1.389 . S
C796 H769 0.950 . S
C796 C782 1.377 1_455 S
C796 C795 1.373 . S
C797 C781 1.377 1_455 S
C797 C795 1.389 . S
C797 C798 1.524 . S
C798 C797 1.524 . S
C798 C799 1.397 . S
C798 C803 1.363 1_455 S
C799 H770 0.950 . S
C799 C798 1.397 . S
C799 C800 1.334 . S
C800 H771 0.950 . S
C800 C799 1.334 . S
C800 C801 1.287 . S
C801 C800 1.287 . S
C801 C802 1.524 1_455 S
C801 H804 0.999 . S
C802 H772 0.950 . S
C802 C801 1.524 1_655 S
C802 C803 1.415 . S
C803 H773 0.950 . S
C803 C798 1.363 1_655 S
C803 C802 1.415 . S
H804 C801 0.999 . S
H805 C786 0.913 . S
H806 C824 0.951 . S
H807 C826 0.951 . S
H808 C828 0.950 . S
H809 C829 0.950 . S
H810 C831 0.950 . S
H811 C834 0.950 . S
H812 C835 0.950 . S
H813 C837 0.950 . S
H814 C838 0.950 . S
H815 C839 0.951 . S
H816 C841 0.951 . S
H817 C843 0.950 . S
H818 C844 0.950 . S
H819 C846 0.950 . S
H820 C849 0.950 . S
H821 C850 0.950 . S
H822 C852 0.950 . S
H823 C853 0.950 . S
C824 H806 0.951 . S
C824 C825 1.366 . S
C824 C826 1.388 . S
C825 C824 1.366 . S
C825 C829 1.385 . S
C826 H807 0.951 . S
C826 C824 1.388 . S
C826 C827 1.366 . S
C827 C826 1.366 . S
C827 C828 1.414 . S
C827 C830 1.499 . S
C828 H808 0.950 . S
C828 C827 1.414 . S
C828 C829 1.374 . S
C829 H809 0.950 . S
C829 C825 1.385 . S
C829 C828 1.374 . S
C830 C827 1.499 . S
C830 C831 1.373 . S
C830 C832 1.389 . S
C831 H810 0.950 . S
C831 C830 1.373 . S
C831 C847 1.377 1_565 S
C832 C830 1.389 . S
C832 C833 1.524 . S
C832 C846 1.377 1_565 S
C833 C832 1.524 . S
C833 C834 1.397 . S
C833 C838 1.363 . S
C834 H811 0.950 . S
C834 C833 1.397 . S
C834 C835 1.334 . S
C835 H812 0.950 . S
C835 C834 1.334 . S
C835 C836 1.287 . S
C836 C835 1.287 . S
C836 C837 1.524 . S
C836 H855 0.913 . S
C837 H813 0.950 . S
C837 C836 1.524 . S
C837 C838 1.415 . S
C838 H814 0.950 . S
C838 C833 1.363 . S
C838 C837 1.415 . S
C839 H815 0.951 . S
C839 C840 1.366 . S
C839 C841 1.388 . S
C840 C839 1.366 . S
C840 C844 1.385 . S
C841 H816 0.951 . S
C841 C839 1.388 . S
C841 C842 1.366 . S
C842 C841 1.366 . S
C842 C843 1.414 . S
C842 C845 1.499 . S
C843 H817 0.950 . S
C843 C842 1.414 . S
C843 C844 1.374 . S
C844 H818 0.950 . S
C844 C840 1.385 . S
C844 C843 1.374 . S
C845 C842 1.499 . S
C845 C846 1.373 . S
C845 C847 1.389 . S
C846 H819 0.950 . S
C846 C832 1.377 1_545 S
C846 C845 1.373 . S
C847 C831 1.377 1_545 S
C847 C845 1.389 . S
C847 C848 1.524 . S
C848 C847 1.524 . S
C848 C849 1.397 . S
C848 C853 1.363 . S
C849 H820 0.950 . S
C849 C848 1.397 . S
C849 C850 1.334 . S
C850 H821 0.950 . S
C850 C849 1.334 . S
C850 C851 1.287 . S
C851 C850 1.287 . S
C851 C852 1.524 . S
C851 H854 0.999 . S
C852 H822 0.950 . S
C852 C851 1.524 . S
C852 C853 1.415 . S
C853 H823 0.950 . S
C853 C848 1.363 . S
C853 C852 1.415 . S
H854 C851 0.999 . S
H855 C836 0.913 . S
H856 C874 0.951 . S
H857 C876 0.951 . S
H858 C878 0.950 . S
H859 C879 0.950 . S
H860 C881 0.950 . S
H861 C884 0.950 . S
H862 C885 0.950 . S
H863 C887 0.950 . S
H864 C888 0.950 . S
H865 C889 0.951 . S
H866 C891 0.951 . S
H867 C893 0.950 . S
H868 C894 0.950 . S
H869 C896 0.950 . S
H870 C899 0.950 . S
H871 C900 0.950 . S
H872 C902 0.950 . S
H873 C903 0.950 . S
C874 H856 0.951 . S
C874 C875 1.366 . S
C874 C876 1.388 . S
C875 C874 1.366 . S
C875 C879 1.385 . S
C876 H857 0.951 . S
C876 C874 1.388 . S
C876 C877 1.366 . S
C877 C876 1.366 . S
C877 C878 1.414 . S
C877 C880 1.499 . S
C878 H858 0.950 . S
C878 C877 1.414 . S
C878 C879 1.374 . S
C879 H859 0.950 . S
C879 C875 1.385 . S
C879 C878 1.374 . S
C880 C877 1.499 . S
C880 C881 1.373 . S
C880 C882 1.389 . S
C881 H860 0.950 . S
C881 C880 1.373 . S
C881 C897 1.377 . S
C882 C880 1.389 . S
C882 C883 1.524 . S
C882 C896 1.377 . S
C883 C882 1.524 . S
C883 C884 1.397 . S
C883 C888 1.363 . S
C884 H861 0.950 . S
C884 C883 1.397 . S
C884 C885 1.334 . S
C885 H862 0.950 . S
C885 C884 1.334 . S
C885 C886 1.287 . S
C886 C885 1.287 . S
C886 C887 1.524 . S
C886 H905 0.913 . S
C887 H863 0.950 . S
C887 C886 1.524 . S
C887 C888 1.415 . S
C888 H864 0.950 . S
C888 C883 1.363 . S
C888 C887 1.415 . S
C889 H865 0.951 . S
C889 C890 1.366 . S
C889 C891 1.388 . S
C890 C889 1.366 . S
C890 C894 1.385 . S
C891 H866 0.951 . S
C891 C889 1.388 . S
C891 C892 1.366 . S
C892 C891 1.366 . S
C892 C893 1.414 . S
C892 C895 1.499 . S
C893 H867 0.950 . S
C893 C892 1.414 . S
C893 C894 1.374 . S
C894 H868 0.950 . S
C894 C890 1.385 . S
C894 C893 1.374 . S
C895 C892 1.499 . S
C895 C896 1.373 . S
C895 C897 1.389 . S
C896 H869 0.950 . S
C896 C882 1.377 . S
C896 C895 1.373 . S
C897 C881 1.377 . S
C897 C895 1.389 . S
C897 C898 1.524 . S
C898 C897 1.524 . S
C898 C899 1.397 . S
C898 C903 1.363 . S
C899 H870 0.950 . S
C899 C898 1.397 . S
C899 C900 1.334 . S
C900 H871 0.950 . S
C900 C899 1.334 . S
C900 C901 1.287 . S
C901 C900 1.287 . S
C901 C902 1.524 . S
C901 H904 0.999 . S
C902 H872 0.950 . S
C902 C901 1.524 . S
C902 C903 1.415 . S
C903 H873 0.950 . S
C903 C898 1.363 . S
C903 C902 1.415 . S
H904 C901 0.999 . S
H905 C886 0.913 . S
H906 C924 0.951 . S
H907 C926 0.951 . S
H908 C928 0.950 . S
H909 C929 0.950 . S
H910 C931 0.950 . S
H911 C934 0.950 . S
H912 C935 0.950 . S
H913 C937 0.950 . S
H914 C938 0.950 . S
H915 C939 0.951 . S
H916 C941 0.951 . S
H917 C943 0.950 . S
H918 C944 0.950 . S
H919 C946 0.950 . S
H920 C949 0.950 . S
H921 C950 0.950 . S
H922 C952 0.950 . S
H923 C953 0.950 . S
C924 H906 0.951 . S
C924 C925 1.366 . S
C924 C926 1.388 . S
C925 C924 1.366 . S
C925 C929 1.385 . S
C926 H907 0.951 . S
C926 C924 1.388 . S
C926 C927 1.366 . S
C927 C926 1.366 . S
C927 C928 1.414 . S
C927 C930 1.499 . S
C928 H908 0.950 . S
C928 C927 1.414 . S
C928 C929 1.374 . S
C929 H909 0.950 . S
C929 C925 1.385 . S
C929 C928 1.374 . S
C930 C927 1.499 . S
C930 C931 1.373 . S
C930 C932 1.389 . S
C931 H910 0.950 . S
C931 C930 1.373 . S
C931 C947 1.377 1_455 S
C932 C930 1.389 . S
C932 C933 1.524 . S
C932 C946 1.377 1_455 S
C933 C932 1.524 . S
C933 C934 1.397 . S
C933 C938 1.363 1_455 S
C934 H911 0.950 . S
C934 C933 1.397 . S
C934 C935 1.334 . S
C935 H912 0.950 . S
C935 C934 1.334 . S
C935 C936 1.287 . S
C936 C935 1.287 . S
C936 C937 1.524 1_455 S
C936 H955 0.913 . S
C937 H913 0.950 . S
C937 C936 1.524 1_655 S
C937 C938 1.415 . S
C938 H914 0.950 . S
C938 C933 1.363 1_655 S
C938 C937 1.415 . S
C939 H915 0.951 . S
C939 C940 1.366 . S
C939 C941 1.388 . S
C940 C939 1.366 . S
C940 C944 1.385 . S
C941 H916 0.951 . S
C941 C939 1.388 . S
C941 C942 1.366 . S
C942 C941 1.366 . S
C942 C943 1.414 . S
C942 C945 1.499 . S
C943 H917 0.950 . S
C943 C942 1.414 . S
C943 C944 1.374 . S
C944 H918 0.950 . S
C944 C940 1.385 . S
C944 C943 1.374 . S
C945 C942 1.499 . S
C945 C946 1.373 . S
C945 C947 1.389 . S
C946 H919 0.950 . S
C946 C932 1.377 1_655 S
C946 C945 1.373 . S
C947 C931 1.377 1_655 S
C947 C945 1.389 . S
C947 C948 1.524 . S
C948 C947 1.524 . S
C948 C949 1.397 . S
C948 C953 1.363 1_655 S
C949 H920 0.950 . S
C949 C948 1.397 . S
C949 C950 1.334 . S
C950 H921 0.950 . S
C950 C949 1.334 . S
C950 C951 1.287 . S
C951 C950 1.287 . S
C951 C952 1.524 1_655 S
C951 H954 0.999 . S
C952 H922 0.950 . S
C952 C951 1.524 1_455 S
C952 C953 1.415 . S
C953 H923 0.950 . S
C953 C948 1.363 1_455 S
C953 C952 1.415 . S
H954 C951 0.999 . S
H955 C936 0.913 . S
H956 C974 0.951 . S
H957 C976 0.951 . S
H958 C978 0.950 . S
H959 C979 0.950 . S
H960 C981 0.950 . S
H961 C984 0.950 . S
H962 C985 0.950 . S
H963 C987 0.950 . S
H964 C988 0.950 1_556 S
H965 C989 0.951 . S
H966 C991 0.951 . S
H967 C993 0.950 . S
H968 C994 0.950 . S
H969 C996 0.950 . S
H970 C999 0.950 . S
H971 C1000 0.950 . S
H972 C1002 0.950 . S
H973 C1003 0.950 1_554 S
C974 H956 0.951 . S
C974 C975 1.366 . S
C974 C976 1.388 . S
C975 C974 1.366 . S
C975 C979 1.385 . S
C976 H957 0.951 . S
C976 C974 1.388 . S
C976 C977 1.366 . S
C977 C976 1.366 . S
C977 C978 1.414 . S
C977 C980 1.499 . S
C978 H958 0.950 . S
C978 C977 1.414 . S
C978 C979 1.374 . S
C979 H959 0.950 . S
C979 C975 1.385 . S
C979 C978 1.374 . S
C980 C977 1.499 . S
C980 C981 1.373 . S
C980 C982 1.389 1_556 S
C981 H960 0.950 . S
C981 C980 1.373 . S
C981 C997 1.377 1_545 S
C982 C980 1.389 1_554 S
C982 C983 1.524 . S
C982 C996 1.377 1_545 S
C983 C982 1.524 . S
C983 C984 1.397 . S
C983 C988 1.363 . S
C984 H961 0.950 . S
C984 C983 1.397 . S
C984 C985 1.334 . S
C985 H962 0.950 . S
C985 C984 1.334 . S
C985 C986 1.287 . S
C986 C985 1.287 . S
C986 C987 1.524 . S
C986 H1005 0.913 . S
C987 H963 0.950 . S
C987 C986 1.524 . S
C987 C988 1.415 . S
C988 H964 0.950 1_554 S
C988 C983 1.363 . S
C988 C987 1.415 . S
C989 H965 0.951 . S
C989 C990 1.366 . S
C989 C991 1.388 . S
C990 C989 1.366 . S
C990 C994 1.385 . S
C991 H966 0.951 . S
C991 C989 1.388 . S
C991 C992 1.366 . S
C992 C991 1.366 . S
C992 C993 1.414 . S
C992 C995 1.499 . S
C993 H967 0.950 . S
C993 C992 1.414 . S
C993 C994 1.374 . S
C994 H968 0.950 . S
C994 C990 1.385 . S
C994 C993 1.374 . S
C995 C992 1.499 . S
C995 C996 1.373 . S
C995 C997 1.389 1_554 S
C996 H969 0.950 . S
C996 C982 1.377 1_565 S
C996 C995 1.373 . S
C997 C981 1.377 1_565 S
C997 C995 1.389 1_556 S
C997 C998 1.524 . S
C998 C997 1.524 . S
C998 C999 1.397 . S
C998 C1003 1.363 . S
C999 H970 0.950 . S
C999 C998 1.397 . S
C999 C1000 1.334 . S
C1000 H971 0.950 . S
C1000 C999 1.334 . S
C1000 C1001 1.287 . S
C1001 C1000 1.287 . S
C1001 C1002 1.524 . S
C1001 H1004 0.999 . S
C1002 H972 0.950 . S
C1002 C1001 1.524 . S
C1002 C1003 1.415 . S
C1003 H973 0.950 1_556 S
C1003 C998 1.363 . S
C1003 C1002 1.415 . S
H1004 C1001 0.999 . S
H1005 C986 0.913 . S
H1006 C1024 0.951 . S
H1007 C1026 0.951 . S
H1008 C1028 0.950 . S
H1009 C1029 0.950 . S
H1010 C1031 0.950 . S
H1011 C1034 0.950 . S
H1012 C1035 0.950 . S
H1013 C1037 0.950 . S
H1014 C1038 0.950 . S
H1015 C1039 0.951 . S
H1016 C1041 0.951 . S
H1017 C1043 0.950 . S
H1018 C1044 0.950 . S
H1019 C1046 0.950 . S
H1020 C1049 0.950 . S
H1021 C1050 0.950 . S
H1022 C1052 0.950 . S
H1023 C1053 0.950 . S
C1024 H1006 0.951 . S
C1024 C1025 1.366 . S
C1024 C1026 1.388 . S
C1025 C1024 1.366 . S
C1025 C1029 1.385 . S
C1026 H1007 0.951 . S
C1026 C1024 1.388 . S
C1026 C1027 1.366 . S
C1027 C1026 1.366 . S
C1027 C1028 1.414 . S
C1027 C1030 1.499 . S
C1028 H1008 0.950 . S
C1028 C1027 1.414 . S
C1028 C1029 1.374 . S
C1029 H1009 0.950 . S
C1029 C1025 1.385 . S
C1029 C1028 1.374 . S
C1030 C1027 1.499 . S
C1030 C1031 1.373 . S
C1030 C1032 1.389 . S
C1031 H1010 0.950 . S
C1031 C1030 1.373 . S
C1031 C1047 1.377 . S
C1032 C1030 1.389 . S
C1032 C1033 1.524 . S
C1032 C1046 1.377 . S
C1033 C1032 1.524 . S
C1033 C1034 1.397 . S
C1033 C1038 1.363 . S
C1034 H1011 0.950 . S
C1034 C1033 1.397 . S
C1034 C1035 1.334 . S
C1035 H1012 0.950 . S
C1035 C1034 1.334 . S
C1035 C1036 1.287 . S
C1036 C1035 1.287 . S
C1036 C1037 1.524 . S
C1036 H1055 0.913 . S
C1037 H1013 0.950 . S
C1037 C1036 1.524 . S
C1037 C1038 1.415 . S
C1038 H1014 0.950 . S
C1038 C1033 1.363 . S
C1038 C1037 1.415 . S
C1039 H1015 0.951 . S
C1039 C1040 1.366 . S
C1039 C1041 1.388 . S
C1040 C1039 1.366 . S
C1040 C1044 1.385 . S
C1041 H1016 0.951 . S
C1041 C1039 1.388 . S
C1041 C1042 1.366 . S
C1042 C1041 1.366 . S
C1042 C1043 1.414 . S
C1042 C1045 1.499 . S
C1043 H1017 0.950 . S
C1043 C1042 1.414 . S
C1043 C1044 1.374 . S
C1044 H1018 0.950 . S
C1044 C1040 1.385 . S
C1044 C1043 1.374 . S
C1045 C1042 1.499 . S
C1045 C1046 1.373 . S
C1045 C1047 1.389 . S
C1046 H1019 0.950 . S
C1046 C1032 1.377 . S
C1046 C1045 1.373 . S
C1047 C1031 1.377 . S
C1047 C1045 1.389 . S
C1047 C1048 1.524 . S
C1048 C1047 1.524 . S
C1048 C1049 1.397 . S
C1048 C1053 1.363 . S
C1049 H1020 0.950 . S
C1049 C1048 1.397 . S
C1049 C1050 1.334 . S
C1050 H1021 0.950 . S
C1050 C1049 1.334 . S
C1050 C1051 1.287 . S
C1051 C1050 1.287 . S
C1051 C1052 1.524 . S
C1051 H1054 0.999 . S
C1052 H1022 0.950 . S
C1052 C1051 1.524 . S
C1052 C1053 1.415 . S
C1053 H1023 0.950 . S
C1053 C1048 1.363 . S
C1053 C1052 1.415 . S
H1054 C1051 0.999 . S
H1055 C1036 0.913 . S
H1056 C1074 0.951 . S
H1057 C1076 0.951 . S
H1058 C1078 0.950 . S
H1059 C1079 0.950 . S
H1060 C1081 0.950 . S
H1061 C1084 0.950 . S
H1062 C1085 0.950 . S
H1063 C1087 0.950 . S
H1064 C1088 0.950 . S
H1065 C1089 0.951 . S
H1066 C1091 0.951 . S
H1067 C1093 0.950 . S
H1068 C1094 0.950 . S
H1069 C1096 0.950 . S
H1070 C1099 0.950 . S
H1071 C1100 0.950 . S
H1072 C1102 0.950 . S
H1073 C1103 0.950 . S
C1074 H1056 0.951 . S
C1074 C1075 1.366 . S
C1074 C1076 1.388 . S
C1075 C1074 1.366 . S
C1075 C1079 1.385 . S
C1076 H1057 0.951 . S
C1076 C1074 1.388 . S
C1076 C1077 1.366 . S
C1077 C1076 1.366 . S
C1077 C1078 1.414 . S
C1077 C1080 1.499 . S
C1078 H1058 0.950 . S
C1078 C1077 1.414 . S
C1078 C1079 1.374 . S
C1079 H1059 0.950 . S
C1079 C1075 1.385 . S
C1079 C1078 1.374 . S
C1080 C1077 1.499 . S
C1080 C1081 1.373 . S
C1080 C1082 1.389 . S
C1081 H1060 0.950 . S
C1081 C1080 1.373 . S
C1081 C1097 1.377 . S
C1082 C1080 1.389 . S
C1082 C1083 1.524 . S
C1082 C1096 1.377 . S
C1083 C1082 1.524 . S
C1083 C1084 1.397 . S
C1083 C1088 1.363 . S
C1084 H1061 0.950 . S
C1084 C1083 1.397 . S
C1084 C1085 1.334 . S
C1085 H1062 0.950 . S
C1085 C1084 1.334 . S
C1085 C1086 1.287 . S
C1086 C1085 1.287 . S
C1086 C1087 1.524 . S
C1086 H1105 0.913 . S
C1087 H1063 0.950 . S
C1087 C1086 1.524 . S
C1087 C1088 1.415 . S
C1088 H1064 0.950 . S
C1088 C1083 1.363 . S
C1088 C1087 1.415 . S
C1089 H1065 0.951 . S
C1089 C1090 1.366 . S
C1089 C1091 1.388 . S
C1090 C1089 1.366 . S
C1090 C1094 1.385 . S
C1091 H1066 0.951 . S
C1091 C1089 1.388 . S
C1091 C1092 1.366 . S
C1092 C1091 1.366 . S
C1092 C1093 1.414 . S
C1092 C1095 1.499 . S
C1093 H1067 0.950 . S
C1093 C1092 1.414 . S
C1093 C1094 1.374 . S
C1094 H1068 0.950 . S
C1094 C1090 1.385 . S
C1094 C1093 1.374 . S
C1095 C1092 1.499 . S
C1095 C1096 1.373 . S
C1095 C1097 1.389 . S
C1096 H1069 0.950 . S
C1096 C1082 1.377 . S
C1096 C1095 1.373 . S
C1097 C1081 1.377 . S
C1097 C1095 1.389 . S
C1097 C1098 1.524 . S
C1098 C1097 1.524 . S
C1098 C1099 1.397 . S
C1098 C1103 1.363 . S
C1099 H1070 0.950 . S
C1099 C1098 1.397 . S
C1099 C1100 1.334 . S
C1100 H1071 0.950 . S
C1100 C1099 1.334 . S
C1100 C1101 1.287 . S
C1101 C1100 1.287 . S
C1101 C1102 1.524 . S
C1101 H1104 0.999 . S
C1102 H1072 0.950 . S
C1102 C1101 1.524 . S
C1102 C1103 1.415 . S
C1103 H1073 0.950 . S
C1103 C1098 1.363 . S
C1103 C1102 1.415 . S
H1104 C1101 0.999 . S
H1105 C1086 0.913 . S
H1106 C1124 0.951 . S
H1107 C1126 0.951 . S
H1108 C1128 0.950 . S
H1109 C1129 0.950 . S
H1110 C1131 0.950 . S
H1111 C1134 0.950 . S
H1112 C1135 0.950 . S
H1113 C1137 0.950 . S
H1114 C1138 0.950 . S
H1115 C1139 0.951 . S
H1116 C1141 0.951 . S
H1117 C1143 0.950 . S
H1118 C1144 0.950 . S
H1119 C1146 0.950 . S
H1120 C1149 0.950 . S
H1121 C1150 0.950 . S
H1122 C1152 0.950 . S
H1123 C1153 0.950 . S
C1124 H1106 0.951 . S
C1124 C1125 1.366 . S
C1124 C1126 1.388 . S
C1125 C1124 1.366 . S
C1125 C1129 1.385 . S
C1126 H1107 0.951 . S
C1126 C1124 1.388 . S
C1126 C1127 1.366 . S
C1127 C1126 1.366 . S
C1127 C1128 1.414 . S
C1127 C1130 1.499 . S
C1128 H1108 0.950 . S
C1128 C1127 1.414 . S
C1128 C1129 1.374 . S
C1129 H1109 0.950 . S
C1129 C1125 1.385 . S
C1129 C1128 1.374 . S
C1130 C1127 1.499 . S
C1130 C1131 1.373 . S
C1130 C1132 1.389 . S
C1131 H1110 0.950 . S
C1131 C1130 1.373 . S
C1131 C1147 1.377 . S
C1132 C1130 1.389 . S
C1132 C1133 1.524 . S
C1132 C1146 1.377 . S
C1133 C1132 1.524 . S
C1133 C1134 1.397 . S
C1133 C1138 1.363 . S
C1134 H1111 0.950 . S
C1134 C1133 1.397 . S
C1134 C1135 1.334 . S
C1135 H1112 0.950 . S
C1135 C1134 1.334 . S
C1135 C1136 1.287 . S
C1136 C1135 1.287 . S
C1136 C1137 1.524 . S
C1136 H1155 0.913 . S
C1137 H1113 0.950 . S
C1137 C1136 1.524 . S
C1137 C1138 1.415 . S
C1138 H1114 0.950 . S
C1138 C1133 1.363 . S
C1138 C1137 1.415 . S
C1139 H1115 0.951 . S
C1139 C1140 1.366 . S
C1139 C1141 1.388 . S
C1140 C1139 1.366 . S
C1140 C1144 1.385 . S
C1141 H1116 0.951 . S
C1141 C1139 1.388 . S
C1141 C1142 1.366 . S
C1142 C1141 1.366 . S
C1142 C1143 1.414 . S
C1142 C1145 1.499 . S
C1143 H1117 0.950 . S
C1143 C1142 1.414 . S
C1143 C1144 1.374 . S
C1144 H1118 0.950 . S
C1144 C1140 1.385 . S
C1144 C1143 1.374 . S
C1145 C1142 1.499 . S
C1145 C1146 1.373 . S
C1145 C1147 1.389 . S
C1146 H1119 0.950 . S
C1146 C1132 1.377 . S
C1146 C1145 1.373 . S
C1147 C1131 1.377 . S
C1147 C1145 1.389 . S
C1147 C1148 1.524 . S
C1148 C1147 1.524 . S
C1148 C1149 1.397 . S
C1148 C1153 1.363 . S
C1149 H1120 0.950 . S
C1149 C1148 1.397 . S
C1149 C1150 1.334 . S
C1150 H1121 0.950 . S
C1150 C1149 1.334 . S
C1150 C1151 1.287 . S
C1151 C1150 1.287 . S
C1151 C1152 1.524 . S
C1151 H1154 0.999 . S
C1152 H1122 0.950 . S
C1152 C1151 1.524 . S
C1152 C1153 1.415 . S
C1153 H1123 0.950 . S
C1153 C1148 1.363 . S
C1153 C1152 1.415 . S
H1154 C1151 0.999 . S
H1155 C1136 0.913 . S
H1156 C1174 0.951 . S
H1157 C1176 0.951 . S
H1158 C1178 0.950 . S
H1159 C1179 0.950 . S
H1160 C1181 0.950 . S
H1161 C1184 0.950 . S
H1162 C1185 0.950 . S
H1163 C1187 0.950 . S
H1164 C1188 0.950 . S
H1165 C1189 0.951 . S
H1166 C1191 0.951 . S
H1167 C1193 0.950 . S
H1168 C1194 0.950 . S
H1169 C1196 0.950 . S
H1170 C1199 0.950 . S
H1171 C1200 0.950 . S
H1172 C1202 0.950 . S
H1173 C1203 0.950 . S
C1174 H1156 0.951 . S
C1174 C1175 1.366 . S
C1174 C1176 1.388 . S
C1175 C1174 1.366 . S
C1175 C1179 1.385 . S
C1176 H1157 0.951 . S
C1176 C1174 1.388 . S
C1176 C1177 1.366 . S
C1177 C1176 1.366 . S
C1177 C1178 1.414 . S
C1177 C1180 1.499 . S
C1178 H1158 0.950 . S
C1178 C1177 1.414 . S
C1178 C1179 1.374 . S
C1179 H1159 0.950 . S
C1179 C1175 1.385 . S
C1179 C1178 1.374 . S
C1180 C1177 1.499 . S
C1180 C1181 1.373 . S
C1180 C1182 1.389 . S
C1181 H1160 0.950 . S
C1181 C1180 1.373 . S
C1181 C1197 1.377 . S
C1182 C1180 1.389 . S
C1182 C1183 1.524 . S
C1182 C1196 1.377 . S
C1183 C1182 1.524 . S
C1183 C1184 1.397 . S
C1183 C1188 1.363 . S
C1184 H1161 0.950 . S
C1184 C1183 1.397 . S
C1184 C1185 1.334 . S
C1185 H1162 0.950 . S
C1185 C1184 1.334 . S
C1185 C1186 1.287 . S
C1186 C1185 1.287 . S
C1186 C1187 1.524 . S
C1186 H1205 0.913 . S
C1187 H1163 0.950 . S
C1187 C1186 1.524 . S
C1187 C1188 1.415 . S
C1188 H1164 0.950 . S
C1188 C1183 1.363 . S
C1188 C1187 1.415 . S
C1189 H1165 0.951 . S
C1189 C1190 1.366 . S
C1189 C1191 1.388 . S
C1190 C1189 1.366 . S
C1190 C1194 1.385 . S
C1191 H1166 0.951 . S
C1191 C1189 1.388 . S
C1191 C1192 1.366 . S
C1192 C1191 1.366 . S
C1192 C1193 1.414 . S
C1192 C1195 1.499 . S
C1193 H1167 0.950 . S
C1193 C1192 1.414 . S
C1193 C1194 1.374 . S
C1194 H1168 0.950 . S
C1194 C1190 1.385 . S
C1194 C1193 1.374 . S
C1195 C1192 1.499 . S
C1195 C1196 1.373 . S
C1195 C1197 1.389 . S
C1196 H1169 0.950 . S
C1196 C1182 1.377 . S
C1196 C1195 1.373 . S
C1197 C1181 1.377 . S
C1197 C1195 1.389 . S
C1197 C1198 1.524 . S
C1198 C1197 1.524 . S
C1198 C1199 1.397 . S
C1198 C1203 1.363 . S
C1199 H1170 0.950 . S
C1199 C1198 1.397 . S
C1199 C1200 1.334 . S
C1200 H1171 0.950 . S
C1200 C1199 1.334 . S
C1200 C1201 1.287 . S
C1201 C1200 1.287 . S
C1201 C1202 1.524 . S
C1201 H1204 0.999 . S
C1202 H1172 0.950 . S
C1202 C1201 1.524 . S
C1202 C1203 1.415 . S
C1203 H1173 0.950 . S
C1203 C1198 1.363 . S
C1203 C1202 1.415 . S
H1204 C1201 0.999 . S
H1205 C1186 0.913 . S
H1206 C1224 0.951 . S
H1207 C1226 0.951 . S
H1208 C1228 0.950 . S
H1209 C1229 0.950 . S
H1210 C1231 0.950 . S
H1211 C1234 0.950 . S
H1212 C1235 0.950 . S
H1213 C1237 0.950 . S
H1214 C1238 0.950 . S
H1215 C1239 0.951 . S
H1216 C1241 0.951 . S
H1217 C1243 0.950 . S
H1218 C1244 0.950 . S
H1219 C1246 0.950 . S
H1220 C1249 0.950 . S
H1221 C1250 0.950 . S
H1222 C1252 0.950 . S
H1223 C1253 0.950 . S
C1224 H1206 0.951 . S
C1224 C1225 1.366 . S
C1224 C1226 1.388 . S
C1225 C1224 1.366 . S
C1225 C1229 1.385 . S
C1226 H1207 0.951 . S
C1226 C1224 1.388 . S
C1226 C1227 1.366 . S
C1227 C1226 1.366 . S
C1227 C1228 1.414 . S
C1227 C1230 1.499 . S
C1228 H1208 0.950 . S
C1228 C1227 1.414 . S
C1228 C1229 1.374 . S
C1229 H1209 0.950 . S
C1229 C1225 1.385 . S
C1229 C1228 1.374 . S
C1230 C1227 1.499 . S
C1230 C1231 1.373 . S
C1230 C1232 1.389 . S
C1231 H1210 0.950 . S
C1231 C1230 1.373 . S
C1231 C1247 1.377 . S
C1232 C1230 1.389 . S
C1232 C1233 1.524 . S
C1232 C1246 1.377 . S
C1233 C1232 1.524 . S
C1233 C1234 1.397 . S
C1233 C1238 1.363 . S
C1234 H1211 0.950 . S
C1234 C1233 1.397 . S
C1234 C1235 1.334 . S
C1235 H1212 0.950 . S
C1235 C1234 1.334 . S
C1235 C1236 1.287 . S
C1236 C1235 1.287 . S
C1236 C1237 1.524 . S
C1236 H1255 0.913 . S
C1237 H1213 0.950 . S
C1237 C1236 1.524 . S
C1237 C1238 1.415 . S
C1238 H1214 0.950 . S
C1238 C1233 1.363 . S
C1238 C1237 1.415 . S
C1239 H1215 0.951 . S
C1239 C1240 1.366 . S
C1239 C1241 1.388 . S
C1240 C1239 1.366 . S
C1240 C1244 1.385 . S
C1241 H1216 0.951 . S
C1241 C1239 1.388 . S
C1241 C1242 1.366 . S
C1242 C1241 1.366 . S
C1242 C1243 1.414 . S
C1242 C1245 1.499 . S
C1243 H1217 0.950 . S
C1243 C1242 1.414 . S
C1243 C1244 1.374 . S
C1244 H1218 0.950 . S
C1244 C1240 1.385 . S
C1244 C1243 1.374 . S
C1245 C1242 1.499 . S
C1245 C1246 1.373 . S
C1245 C1247 1.389 . S
C1246 H1219 0.950 . S
C1246 C1232 1.377 . S
C1246 C1245 1.373 . S
C1247 C1231 1.377 . S
C1247 C1245 1.389 . S
C1247 C1248 1.524 . S
C1248 C1247 1.524 . S
C1248 C1249 1.397 . S
C1248 C1253 1.363 . S
C1249 H1220 0.950 . S
C1249 C1248 1.397 . S
C1249 C1250 1.334 . S
C1250 H1221 0.950 . S
C1250 C1249 1.334 . S
C1250 C1251 1.287 . S
C1251 C1250 1.287 . S
C1251 C1252 1.524 . S
C1251 H1254 0.999 . S
C1252 H1222 0.950 . S
C1252 C1251 1.524 . S
C1252 C1253 1.415 . S
C1253 H1223 0.950 . S
C1253 C1248 1.363 . S
C1253 C1252 1.415 . S
H1254 C1251 0.999 . S
H1255 C1236 0.913 . S
H1256 C1274 0.951 1_554 S
H1257 C1276 0.951 . S
H1258 C1278 0.950 . S
H1259 C1279 0.950 . S
H1260 C1281 0.950 . S
H1261 C1284 0.950 . S
H1262 C1285 0.950 . S
H1263 C1287 0.950 . S
H1264 C1288 0.950 . S
H1265 C1289 0.951 . S
H1266 C1291 0.951 . S
H1267 C1293 0.950 . S
H1268 C1294 0.950 . S
H1269 C1296 0.950 . S
H1270 C1299 0.950 . S
H1271 C1300 0.950 . S
H1272 C1302 0.950 . S
H1273 C1303 0.950 . S
C1274 H1256 0.951 1_556 S
C1274 C1275 1.366 1_556 S
C1274 C1276 1.388 . S
C1275 C1274 1.366 1_554 S
C1275 C1279 1.385 1_554 S
C1276 H1257 0.951 . S
C1276 C1274 1.388 . S
C1276 C1277 1.366 . S
C1277 C1276 1.366 . S
C1277 C1278 1.414 . S
C1277 C1280 1.499 . S
C1278 H1258 0.950 . S
C1278 C1277 1.414 . S
C1278 C1279 1.374 . S
C1279 H1259 0.950 . S
C1279 C1275 1.385 1_556 S
C1279 C1278 1.374 . S
C1280 C1277 1.499 . S
C1280 C1281 1.373 . S
C1280 C1282 1.389 . S
C1281 H1260 0.950 . S
C1281 C1280 1.373 . S
C1281 C1297 1.377 . S
C1282 C1280 1.389 . S
C1282 C1283 1.524 . S
C1282 C1296 1.377 . S
C1283 C1282 1.524 . S
C1283 C1284 1.397 . S
C1283 C1288 1.363 . S
C1284 H1261 0.950 . S
C1284 C1283 1.397 . S
C1284 C1285 1.334 1_556 S
C1285 H1262 0.950 . S
C1285 C1284 1.334 1_554 S
C1285 C1286 1.287 . S
C1286 C1285 1.287 . S
C1286 C1287 1.524 1_554 S
C1286 H1305 0.913 . S
C1287 H1263 0.950 . S
C1287 C1286 1.524 1_556 S
C1287 C1288 1.415 . S
C1288 H1264 0.950 . S
C1288 C1283 1.363 . S
C1288 C1287 1.415 . S
C1289 H1265 0.951 . S
C1289 C1290 1.366 . S
C1289 C1291 1.388 . S
C1290 C1289 1.366 . S
C1290 C1294 1.385 . S
C1291 H1266 0.951 . S
C1291 C1289 1.388 . S
C1291 C1292 1.366 . S
C1292 C1291 1.366 . S
C1292 C1293 1.414 . S
C1292 C1295 1.499 . S
C1293 H1267 0.950 . S
C1293 C1292 1.414 . S
C1293 C1294 1.374 . S
C1294 H1268 0.950 . S
C1294 C1290 1.385 . S
C1294 C1293 1.374 . S
C1295 C1292 1.499 . S
C1295 C1296 1.373 . S
C1295 C1297 1.389 . S
C1296 H1269 0.950 . S
C1296 C1282 1.377 . S
C1296 C1295 1.373 . S
C1297 C1281 1.377 . S
C1297 C1295 1.389 . S
C1297 C1298 1.524 . S
C1298 C1297 1.524 . S
C1298 C1299 1.397 . S
C1298 C1303 1.363 . S
C1299 H1270 0.950 . S
C1299 C1298 1.397 . S
C1299 C1300 1.334 . S
C1300 H1271 0.950 . S
C1300 C1299 1.334 . S
C1300 C1301 1.287 . S
C1301 C1300 1.287 . S
C1301 C1302 1.524 . S
C1301 H1304 0.999 . S
C1302 H1272 0.950 . S
C1302 C1301 1.524 . S
C1302 C1303 1.415 . S
C1303 H1273 0.950 . S
C1303 C1298 1.363 . S
C1303 C1302 1.415 . S
H1304 C1301 0.999 . S
H1305 C1286 0.913 . S
H1306 C1324 0.951 . S
H1307 C1326 0.951 . S
H1308 C1328 0.950 . S
H1309 C1329 0.950 . S
H1310 C1331 0.950 . S
H1311 C1334 0.950 . S
H1312 C1335 0.950 . S
H1313 C1337 0.950 . S
H1314 C1338 0.950 . S
H1315 C1339 0.951 . S
H1316 C1341 0.951 . S
H1317 C1343 0.950 . S
H1318 C1344 0.950 1_556 S
H1319 C1346 0.950 . S
H1320 C1349 0.950 . S
H1321 C1350 0.950 1_556 S
H1322 C1352 0.950 . S
H1323 C1353 0.950 . S
C1324 H1306 0.951 . S
C1324 C1325 1.366 . S
C1324 C1326 1.388 . S
C1325 C1324 1.366 . S
C1325 C1329 1.385 . S
C1326 H1307 0.951 . S
C1326 C1324 1.388 . S
C1326 C1327 1.366 . S
C1327 C1326 1.366 . S
C1327 C1328 1.414 . S
C1327 C1330 1.499 . S
C1328 H1308 0.950 . S
C1328 C1327 1.414 . S
C1328 C1329 1.374 . S
C1329 H1309 0.950 . S
C1329 C1325 1.385 . S
C1329 C1328 1.374 . S
C1330 C1327 1.499 . S
C1330 C1331 1.373 . S
C1330 C1332 1.389 . S
C1331 H1310 0.950 . S
C1331 C1330 1.373 . S
C1331 C1347 1.377 . S
C1332 C1330 1.389 . S
C1332 C1333 1.524 . S
C1332 C1346 1.377 . S
C1333 C1332 1.524 . S
C1333 C1334 1.397 . S
C1333 C1338 1.363 . S
C1334 H1311 0.950 . S
C1334 C1333 1.397 . S
C1334 C1335 1.334 . S
C1335 H1312 0.950 . S
C1335 C1334 1.334 . S
C1335 C1336 1.287 . S
C1336 C1335 1.287 . S
C1336 C1337 1.524 . S
C1336 H1355 0.913 . S
C1337 H1313 0.950 . S
C1337 C1336 1.524 . S
C1337 C1338 1.415 . S
C1338 H1314 0.950 . S
C1338 C1333 1.363 . S
C1338 C1337 1.415 . S
C1339 H1315 0.951 . S
C1339 C1340 1.366 1_554 S
C1339 C1341 1.388 . S
C1340 C1339 1.366 1_556 S
C1340 C1344 1.385 1_556 S
C1341 H1316 0.951 . S
C1341 C1339 1.388 . S
C1341 C1342 1.366 . S
C1342 C1341 1.366 . S
C1342 C1343 1.414 . S
C1342 C1345 1.499 . S
C1343 H1317 0.950 . S
C1343 C1342 1.414 . S
C1343 C1344 1.374 . S
C1344 H1318 0.950 1_554 S
C1344 C1340 1.385 1_554 S
C1344 C1343 1.374 . S
C1345 C1342 1.499 . S
C1345 C1346 1.373 . S
C1345 C1347 1.389 . S
C1346 H1319 0.950 . S
C1346 C1332 1.377 . S
C1346 C1345 1.373 . S
C1347 C1331 1.377 . S
C1347 C1345 1.389 . S
C1347 C1348 1.524 . S
C1348 C1347 1.524 . S
C1348 C1349 1.397 . S
C1348 C1353 1.363 . S
C1349 H1320 0.950 . S
C1349 C1348 1.397 . S
C1349 C1350 1.334 . S
C1350 H1321 0.950 1_554 S
C1350 C1349 1.334 . S
C1350 C1351 1.287 . S
C1351 C1350 1.287 . S
C1351 C1352 1.524 . S
C1351 H1354 0.999 . S
C1352 H1322 0.950 . S
C1352 C1351 1.524 . S
C1352 C1353 1.415 . S
C1353 H1323 0.950 . S
C1353 C1348 1.363 . S
C1353 C1352 1.415 . S
H1354 C1351 0.999 . S
H1355 C1336 0.913 . S
C175 C10 1.456 . S
C190 C88 1.457 . S
C225 C23 1.456 . S
C240 C101 1.457 . S
C275 C114 1.457 . S
C290 C36 1.456 . S
C325 C49 1.457 . S
C340 C127 1.457 . S
C375 C62 1.457 . S
C390 C140 1.457 . S
C425 C153 1.457 . S
C440 C75 1.456 . S
C475 C105 1.731 . S
C490 C1 1.731 . S
C525 C14 1.731 . S
C540 C118 1.731 . S
C575 C131 1.731 . S
C590 C27 1.730 . S
C625 C144 1.731 . S
C640 C40 1.731 . S
C675 C53 1.731 . S
C690 C79 1.731 . S
C725 C66 1.731 . S
C740 C92 1.731 . S
C775 C148 1.912 . S
C790 C5 1.913 . S
C825 C83 1.913 . S
C840 C18 1.913 . S
C875 C31 1.912 . S
C890 C96 1.912 . S
C925 C109 1.912 . S
C940 C44 1.913 . S
C975 C122 1.912 . S
C990 C57 1.913 . S
C1025 C135 1.912 . S
C1040 C70 1.912 . S
C1075 C3 1.365 . S
C1090 C133 1.366 . S
C1125 C146 1.366 . S
C1140 C16 1.365 . S
C1175 C29 1.365 . S
C1190 C81 1.366 . S
C1225 C42 1.366 . S
C1240 C94 1.366 . S
C1275 C55 1.365 . S
C1290 C107 1.365 . S
C1325 C68 1.365 . S
C1340 C120 1.366 . S
