# Generated by pormake.
# Topology wjv, (5)-cn, num edge types: 1
# Building blocks:
#     Node 0, Type 0, BuildingBlock: XOMCOT_clean_sbu_0, # of connection points: 5
#     Node 1, Type 0, BuildingBlock: XOMCOT_clean_sbu_0, # of connection points: 5
#     Node 2, Type 0, BuildingBlock: XOMCOT_clean_sbu_0, # of connection points: 5
#     Node 3, Type 0, BuildingBlock: XOMCOT_clean_sbu_0, # of connection points: 5
#     Node 4, Type 0, BuildingBlock: XOMCOT_clean_sbu_0, # of connection points: 5
#     Node 5, Type 0, BuildingBlock: XOMCOT_clean_sbu_0, # of connection points: 5
#     Node 6, Type 0, BuildingBlock: XOMCOT_clean_sbu_0, # of connection points: 5
#     Node 7, Type 0, BuildingBlock: XOMCOT_clean_sbu_0, # of connection points: 5
#     Node 8, Type 0, BuildingBlock: XOMCOT_clean_sbu_0, # of connection points: 5
#     Node 9, Type 0, BuildingBlock: XOMCOT_clean_sbu_0, # of connection points: 5
#     Node 10, Type 0, BuildingBlock: XOMCOT_clean_sbu_0, # of connection points: 5
#     Node 11, Type 0, BuildingBlock: XOMCOT_clean_sbu_0, # of connection points: 5
#     Edge 12, Type (0, 0), BuildingBlock: UVAHIK_clean_linker_0, # of connection points: 2
#     Edge 13, Type (0, 0), BuildingBlock: UVAHIK_clean_linker_0, # of connection points: 2
#     Edge 14, Type (0, 0), BuildingBlock: UVAHIK_clean_linker_0, # of connection points: 2
#     Edge 15, Type (0, 0), BuildingBlock: UVAHIK_clean_linker_0, # of connection points: 2
#     Edge 16, Type (0, 0), BuildingBlock: UVAHIK_clean_linker_0, # of connection points: 2
#     Edge 17, Type (0, 0), BuildingBlock: UVAHIK_clean_linker_0, # of connection points: 2
#     Edge 18, Type (0, 0), BuildingBlock: UVAHIK_clean_linker_0, # of connection points: 2
#     Edge 19, Type (0, 0), BuildingBlock: UVAHIK_clean_linker_0, # of connection points: 2
#     Edge 20, Type (0, 0), BuildingBlock: UVAHIK_clean_linker_0, # of connection points: 2
#     Edge 21, Type (0, 0), BuildingBlock: UVAHIK_clean_linker_0, # of connection points: 2
#     Edge 22, Type (0, 0), BuildingBlock: UVAHIK_clean_linker_0, # of connection points: 2
#     Edge 23, Type (0, 0), BuildingBlock: UVAHIK_clean_linker_0, # of connection points: 2
#     Edge 24, Type (0, 0), BuildingBlock: UVAHIK_clean_linker_0, # of connection points: 2
#     Edge 25, Type (0, 0), BuildingBlock: UVAHIK_clean_linker_0, # of connection points: 2
#     Edge 26, Type (0, 0), BuildingBlock: UVAHIK_clean_linker_0, # of connection points: 2
#     Edge 27, Type (0, 0), BuildingBlock: UVAHIK_clean_linker_0, # of connection points: 2
#     Edge 28, Type (0, 0), BuildingBlock: UVAHIK_clean_linker_0, # of connection points: 2
#     Edge 29, Type (0, 0), BuildingBlock: UVAHIK_clean_linker_0, # of connection points: 2
#     Edge 30, Type (0, 0), BuildingBlock: UVAHIK_clean_linker_0, # of connection points: 2
#     Edge 31, Type (0, 0), BuildingBlock: UVAHIK_clean_linker_0, # of connection points: 2
#     Edge 32, Type (0, 0), BuildingBlock: UVAHIK_clean_linker_0, # of connection points: 2
#     Edge 33, Type (0, 0), BuildingBlock: UVAHIK_clean_linker_0, # of connection points: 2
#     Edge 34, Type (0, 0), BuildingBlock: UVAHIK_clean_linker_0, # of connection points: 2
#     Edge 35, Type (0, 0), BuildingBlock: UVAHIK_clean_linker_0, # of connection points: 2
#     Edge 36, Type (0, 0), BuildingBlock: UVAHIK_clean_linker_0, # of connection points: 2
#     Edge 37, Type (0, 0), BuildingBlock: UVAHIK_clean_linker_0, # of connection points: 2
#     Edge 38, Type (0, 0), BuildingBlock: UVAHIK_clean_linker_0, # of connection points: 2
#     Edge 39, Type (0, 0), BuildingBlock: UVAHIK_clean_linker_0, # of connection points: 2
#     Edge 40, Type (0, 0), BuildingBlock: UVAHIK_clean_linker_0, # of connection points: 2
#     Edge 41, Type (0, 0), BuildingBlock: UVAHIK_clean_linker_0, # of connection points: 2
# Relax obj value: 0.166
# Max RMSD: 0.189
# Mean RMSD: 0.189
data_MOF--net-wjv--node1-XOMCOT_clean_sbu_0--edge1-UVAHIK_clean_linker_0
_symmetry_space_group_name_H-M    P1
_symmetry_Int_Tables_number       1
_symmetry_cell_setting            triclinic
loop_
_symmetry_equiv_pos_as_xyz
'x, y, z'
_cell_length_a     46.813159
_cell_length_b     46.930488
_cell_length_c     63.06431
_cell_angle_alpha  90.034484
_cell_angle_beta   89.945089
_cell_angle_gamma 119.8569
loop_
_atom_site_label
_atom_site_type_symbol
_atom_site_fract_x
_atom_site_fract_y
_atom_site_fract_z
_atom_type_partial_charge
Co0 Co 0.21385 0.30688 0.18276 0.0
C1 C 0.19855 0.30241 0.13667 0.0
C2 C 0.18379 0.25545 0.15087 0.0
C3 C 0.1756 0.25074 0.12977 0.0
N4 N 0.19834 0.28777 0.15514 0.0
N5 N 0.18499 0.28023 0.12078 0.0
H6 H 0.20871 0.32864 0.13492 0.0
H7 H 0.17912 0.23657 0.1624 0.0
C8 C 0.25915 0.28002 0.19253 0.0
O9 O 0.28297 0.30935 0.19796 0.0
N10 N 0.22814 0.3246 0.21122 0.0
C11 C 0.22941 0.3515 0.21998 0.0
C12 C 0.23594 0.35224 0.24135 0.0
C13 C 0.23225 0.30865 0.22774 0.0
N14 N 0.23789 0.3253 0.24613 0.0
C15 C 0.26723 0.37237 0.17412 0.0
C16 C 0.3045 0.3528 0.15075 0.0
C17 C 0.31884 0.38566 0.1572 0.0
C18 C 0.29922 0.39566 0.16814 0.0
C19 C 0.27243 0.33037 0.1571 0.0
N20 N 0.25526 0.33983 0.17012 0.0
H21 H 0.25243 0.3805 0.18229 0.0
H22 H 0.2621 0.30492 0.15254 0.0
H23 H 0.22402 0.36855 0.21189 0.0
H24 H 0.22906 0.28426 0.22673 0.0
O25 O 0.18825 0.32893 0.18039 0.0
O26 O 0.17057 0.2792 0.19391 0.0
O27 O 0.23108 0.27563 0.18681 0.0
C28 C 0.16429 0.30236 0.18881 0.0
H29 H 0.16299 0.22721 0.12182 0.0
H30 H 0.23833 0.37079 0.25254 0.0
H31 H 0.31849 0.34404 0.14195 0.0
H32 H 0.30881 0.42113 0.17254 0.0
Co33 Co 0.90498 0.21904 0.51578 0.0
C34 C 0.89063 0.1998 0.47036 0.0
C35 C 0.92745 0.19038 0.48346 0.0
C36 C 0.92288 0.18104 0.46257 0.0
N37 N 0.90754 0.20241 0.48827 0.0
N38 N 0.89964 0.18682 0.45421 0.0
H39 H 0.87223 0.20726 0.46931 0.0
H40 H 0.94424 0.18857 0.49441 0.0
C41 C 0.97648 0.26859 0.52323 0.0
O42 O 0.96867 0.29035 0.52994 0.0
N43 N 0.90254 0.23433 0.54418 0.0
C44 C 0.87628 0.23377 0.55353 0.0
C45 C 0.88272 0.24079 0.57477 0.0
C46 C 0.92378 0.23997 0.5603 0.0
N47 N 0.91269 0.24479 0.57897 0.0
C48 C 0.88892 0.27024 0.50747 0.0
C49 C 0.94195 0.30635 0.48091 0.0
C50 C 0.92356 0.32044 0.48822 0.0
C51 C 0.89596 0.30155 0.50099 0.0
C52 C 0.9344 0.27527 0.4881 0.0
N53 N 0.90957 0.2586 0.50242 0.0
H54 H 0.86733 0.25586 0.51692 0.0
H55 H 0.9498 0.26541 0.48303 0.0
H56 H 0.85296 0.22651 0.54597 0.0
H57 H 0.94591 0.23833 0.55881 0.0
O58 O 0.85751 0.19086 0.51514 0.0
O59 O 0.89342 0.17732 0.52797 0.0
O60 O 0.95418 0.23967 0.518 0.0
C61 C 0.86299 0.16888 0.52393 0.0
H62 H 0.93627 0.17121 0.45425 0.0
H63 H 0.86617 0.24188 0.58631 0.0
H64 H 0.96325 0.32 0.47081 0.0
H65 H 0.88048 0.31124 0.50634 0.0
Co66 Co 0.68035 0.90582 0.8498 0.0
C67 C 0.6795 0.88887 0.80446 0.0
C68 C 0.72454 0.93239 0.813 0.0
C69 C 0.72562 0.92661 0.79171 0.0
N70 N 0.69549 0.90897 0.8209 0.0
N71 N 0.69738 0.89928 0.78644 0.0
H72 H 0.65522 0.8674 0.8056 0.0
H73 H 0.74373 0.95229 0.82203 0.0
C74 C 0.70489 0.978 0.8581 0.0
O75 O 0.6756 0.97204 0.86428 0.0
N76 N 0.66629 0.90268 0.8793 0.0
C77 C 0.64227 0.87602 0.88929 0.0
C78 C 0.64292 0.88268 0.91059 0.0
C79 C 0.68216 0.92455 0.89505 0.0
N80 N 0.66799 0.9133 0.91418 0.0
C81 C 0.61239 0.88998 0.84589 0.0
C82 C 0.62498 0.94198 0.81949 0.0
C83 C 0.59319 0.92267 0.82769 0.0
C84 C 0.58677 0.89575 0.84052 0.0
C85 C 0.64992 0.93557 0.82548 0.0
N86 N 0.64392 0.91106 0.83958 0.0
H87 H 0.60677 0.86869 0.85523 0.0
H88 H 0.67448 0.95138 0.81947 0.0
H89 H 0.62617 0.85259 0.88194 0.0
H90 H 0.70483 0.94747 0.89293 0.0
O91 O 0.66057 0.8584 0.84819 0.0
O92 O 0.71164 0.89327 0.85865 0.0
O93 O 0.70986 0.95463 0.85265 0.0
C94 C 0.68904 0.86314 0.85473 0.0
H95 H 0.74587 0.94095 0.781 0.0
H96 H 0.62647 0.86603 0.92253 0.0
H97 H 0.63093 0.96283 0.80934 0.0
H98 H 0.56221 0.87951 0.84654 0.0
Co99 Co 0.77098 0.68332 0.1823 0.0
C100 C 0.78064 0.68266 0.13478 0.0
C101 C 0.7874 0.72827 0.14683 0.0
C102 C 0.794 0.73184 0.12555 0.0
N103 N 0.77792 0.69717 0.15269 0.0
N104 N 0.78966 0.70316 0.11788 0.0
H105 H 0.77763 0.6584 0.13407 0.0
H106 H 0.79054 0.74762 0.15755 0.0
C107 C 0.72694 0.71089 0.17492 0.0
O108 O 0.71615 0.69184 0.15811 0.0
N109 N 0.76563 0.67149 0.21194 0.0
C110 C 0.76203 0.64368 0.22061 0.0
C111 C 0.75782 0.64475 0.2422 0.0
C112 C 0.76375 0.68913 0.22821 0.0
N113 N 0.75877 0.67329 0.24691 0.0
C114 C 0.7258 0.61969 0.16333 0.0
C115 C 0.67116 0.61245 0.18491 0.0
C116 C 0.66692 0.58877 0.16983 0.0
C117 C 0.69482 0.59227 0.15916 0.0
C118 C 0.7022 0.63929 0.18839 0.0
N119 N 0.72881 0.64387 0.17676 0.0
H120 H 0.74727 0.62095 0.15619 0.0
H121 H 0.7047 0.65674 0.20043 0.0
H122 H 0.76184 0.62381 0.2118 0.0
H123 H 0.76597 0.71307 0.22638 0.0
O124 O 0.80086 0.66618 0.17886 0.0
O125 O 0.81517 0.7173 0.18798 0.0
O126 O 0.74843 0.71001 0.187 0.0
C127 C 0.82409 0.69571 0.18385 0.0
H128 H 0.8029 0.7544 0.11664 0.0
H129 H 0.75346 0.62557 0.25343 0.0
H130 H 0.65048 0.61072 0.19372 0.0
H131 H 0.69278 0.57379 0.148 0.0
Co132 Co 0.08508 0.76917 0.51454 0.0
C133 C 0.09766 0.78692 0.46883 0.0
C134 C 0.06433 0.80043 0.48304 0.0
C135 C 0.06827 0.80937 0.46205 0.0
N136 N 0.08252 0.7862 0.48723 0.0
N137 N 0.08909 0.80077 0.45306 0.0
H138 H 0.11409 0.77709 0.46699 0.0
H139 H 0.04937 0.80421 0.49453 0.0
C140 C 0.01385 0.72159 0.52421 0.0
O141 O 0.02179 0.70028 0.53162 0.0
N142 N 0.08722 0.75314 0.54268 0.0
C143 C 0.1088 0.74473 0.55061 0.0
C144 C 0.10202 0.73708 0.57177 0.0
C145 C 0.06896 0.7523 0.55957 0.0
N146 N 0.07693 0.74183 0.57734 0.0
C147 C 0.10388 0.72148 0.50213 0.0
C148 C 0.04595 0.68012 0.48115 0.0
C149 C 0.06812 0.66906 0.48552 0.0
C150 C 0.09813 0.69075 0.49528 0.0
C151 C 0.05258 0.71084 0.48854 0.0
N152 N 0.07983 0.72971 0.50065 0.0
H153 H 0.12752 0.73847 0.50876 0.0
H154 H 0.03516 0.71893 0.48507 0.0
H155 H 0.12924 0.74554 0.54227 0.0
H156 H 0.05009 0.75918 0.55886 0.0
O157 O 0.13263 0.79653 0.51379 0.0
O158 O 0.09767 0.811 0.52705 0.0
O159 O 0.03603 0.74954 0.51733 0.0
C160 C 0.12789 0.81888 0.52276 0.0
H161 H 0.05704 0.82179 0.45414 0.0
H162 H 0.11527 0.72968 0.58242 0.0
H163 H 0.0229 0.66456 0.47306 0.0
H164 H 0.11669 0.68377 0.49791 0.0
Co165 Co 0.31261 0.09637 0.85182 0.0
C166 C 0.30824 0.1117 0.80663 0.0
C167 C 0.26076 0.08279 0.82125 0.0
C168 C 0.25619 0.09007 0.80087 0.0
N169 N 0.2933 0.09636 0.82484 0.0
N170 N 0.28598 0.10815 0.79173 0.0
H171 H 0.33468 0.12581 0.80453 0.0
H172 H 0.24173 0.06914 0.83284 0.0
C173 C 0.28351 0.02357 0.85897 0.0
O174 O 0.31257 0.02776 0.8641 0.0
N175 N 0.33069 0.09629 0.87968 0.0
C176 C 0.35964 0.11907 0.88821 0.0
C177 C 0.36109 0.11094 0.909 0.0
C178 C 0.31417 0.07595 0.89598 0.0
N179 N 0.33245 0.08383 0.91382 0.0
C180 C 0.37735 0.10765 0.84075 0.0
C181 C 0.35552 0.05132 0.81673 0.0
C182 C 0.38856 0.06858 0.82304 0.0
C183 C 0.3998 0.09802 0.83426 0.0
C184 C 0.33389 0.06168 0.82384 0.0
N185 N 0.34445 0.08779 0.83737 0.0
H186 H 0.38642 0.13066 0.84888 0.0
H187 H 0.30821 0.04747 0.81949 0.0
H188 H 0.37778 0.14134 0.88057 0.0
H189 H 0.28896 0.05616 0.89506 0.0
O190 O 0.33599 0.14406 0.85141 0.0
O191 O 0.2862 0.112 0.86505 0.0
O192 O 0.28004 0.0481 0.85421 0.0
C193 C 0.30986 0.14144 0.86068 0.0
H194 H 0.23276 0.08266 0.79331 0.0
H195 H 0.38101 0.12478 0.92002 0.0
H196 H 0.34601 0.02887 0.80758 0.0
H197 H 0.42553 0.1129 0.83853 0.0
Co198 Co 0.69078 0.7686 0.51481 0.0
C199 C 0.68657 0.77955 0.56125 0.0
C200 C 0.72617 0.77069 0.55416 0.0
C201 C 0.72623 0.77587 0.5756 0.0
N202 N 0.70027 0.77129 0.54516 0.0
N203 N 0.70133 0.78142 0.57997 0.0
H204 H 0.66712 0.7854 0.55937 0.0
H205 H 0.74494 0.76826 0.54575 0.0
C206 C 0.71225 0.71867 0.51971 0.0
O207 O 0.68997 0.70482 0.5347 0.0
N208 N 0.68275 0.76733 0.48465 0.0
C209 C 0.65702 0.76733 0.47513 0.0
C210 C 0.65933 0.76396 0.45358 0.0
C211 C 0.70046 0.76418 0.46887 0.0
N212 N 0.68655 0.76178 0.44969 0.0
C213 C 0.62646 0.72344 0.53268 0.0
C214 C 0.6157 0.6711 0.5072 0.0
C215 C 0.59369 0.66583 0.52375 0.0
C216 C 0.59878 0.69261 0.53628 0.0
C217 C 0.64313 0.70204 0.50438 0.0
N218 N 0.64939 0.72734 0.51785 0.0
H219 H 0.62928 0.74394 0.54186 0.0
H220 H 0.66027 0.70519 0.49191 0.0
H221 H 0.63742 0.76865 0.48335 0.0
H222 H 0.72279 0.76319 0.47139 0.0
O223 O 0.67519 0.79954 0.51837 0.0
O224 O 0.72695 0.81255 0.51185 0.0
O225 O 0.7157 0.74423 0.51012 0.0
C226 C 0.70571 0.82227 0.51527 0.0
H227 H 0.7441 0.77706 0.58698 0.0
H228 H 0.6416 0.76193 0.44181 0.0
H229 H 0.61261 0.65115 0.49703 0.0
H230 H 0.58159 0.68974 0.54874 0.0
Co231 Co 0.90654 0.68651 0.84303 0.0
C232 C 0.89017 0.68847 0.88922 0.0
C233 C 0.92283 0.73575 0.87586 0.0
C234 C 0.91544 0.7402 0.89621 0.0
N235 N 0.90754 0.70331 0.87145 0.0
N236 N 0.89492 0.7105 0.90459 0.0
H237 H 0.8728 0.66265 0.8907 0.0
H238 H 0.93762 0.75505 0.86471 0.0
C239 C 0.97688 0.72419 0.85486 0.0
O240 O 0.9679 0.70765 0.87276 0.0
N241 N 0.9053 0.67109 0.81447 0.0
C242 C 0.8865 0.64004 0.80752 0.0
C243 C 0.8946 0.63846 0.78673 0.0
C244 C 0.92422 0.68815 0.79783 0.0
N245 N 0.91829 0.66869 0.78069 0.0
C246 C 0.89309 0.62678 0.86567 0.0
C247 C 0.9479 0.6262 0.8499 0.0
C248 C 0.92734 0.60156 0.86403 0.0
C249 C 0.89947 0.60178 0.87198 0.0
C250 C 0.94087 0.65058 0.8443 0.0
N251 N 0.91475 0.65186 0.85296 0.0
H252 H 0.87014 0.62507 0.87026 0.0
H253 H 0.95634 0.66822 0.83251 0.0
H254 H 0.86876 0.61981 0.8171 0.0
H255 H 0.94268 0.71394 0.79846 0.0
O256 O 0.85874 0.66372 0.84379 0.0
O257 O 0.89128 0.71494 0.8327 0.0
O258 O 0.95545 0.71833 0.8404 0.0
C259 C 0.86164 0.69096 0.83633 0.0
H260 H 0.92406 0.76354 0.90413 0.0
H261 H 0.88402 0.61672 0.77684 0.0
H262 H 0.96933 0.62657 0.84305 0.0
H263 H 0.88229 0.58227 0.88227 0.0
Co264 Co 0.22239 0.90693 0.17699 0.0
C265 C 0.20298 0.89079 0.2231 0.0
C266 C 0.19127 0.92569 0.2097 0.0
C267 C 0.17914 0.91884 0.22998 0.0
N268 N 0.20673 0.9086 0.20535 0.0
N269 N 0.18643 0.89688 0.23839 0.0
H270 H 0.21019 0.87241 0.22465 0.0
H271 H 0.18817 0.94146 0.19856 0.0
C272 C 0.25883 0.97698 0.18957 0.0
O273 O 0.26519 0.96693 0.20748 0.0
N274 N 0.23652 0.90539 0.14848 0.0
C275 C 0.24815 0.8861 0.14124 0.0
C276 C 0.25757 0.89419 0.12041 0.0
C277 C 0.23843 0.92452 0.13198 0.0
N278 N 0.25139 0.91829 0.11464 0.0
C279 C 0.2642 0.887 0.19905 0.0
C280 C 0.32262 0.93919 0.18457 0.0
C281 C 0.3238 0.91571 0.19756 0.0
C282 C 0.29419 0.88931 0.20494 0.0
C283 C 0.29244 0.93614 0.17932 0.0
N284 N 0.26363 0.9111 0.18723 0.0
H285 H 0.2416 0.86506 0.20309 0.0
H286 H 0.29235 0.9535 0.16815 0.0
H287 H 0.25028 0.86795 0.15062 0.0
H288 H 0.23142 0.94327 0.13283 0.0
O289 O 0.19454 0.85948 0.17705 0.0
O290 O 0.17961 0.89527 0.16631 0.0
O291 O 0.24274 0.95624 0.17492 0.0
C292 C 0.1717 0.86486 0.16953 0.0
H293 H 0.16556 0.92892 0.23784 0.0
H294 H 0.2682 0.88326 0.11027 0.0
H295 H 0.34492 0.95958 0.17815 0.0
H296 H 0.29417 0.86998 0.21433 0.0
Co297 Co 0.30033 0.21652 0.51166 0.0
C298 C 0.30218 0.20228 0.55804 0.0
C299 C 0.2567 0.19869 0.54825 0.0
C300 C 0.25334 0.18827 0.56888 0.0
N301 N 0.28758 0.20836 0.54145 0.0
N302 N 0.28193 0.19063 0.57499 0.0
H303 H 0.32562 0.20318 0.55737 0.0
H304 H 0.23712 0.19736 0.53846 0.0
C305 C 0.27241 0.25974 0.52073 0.0
O306 O 0.29237 0.27044 0.53712 0.0
N307 N 0.3113 0.22294 0.48185 0.0
C308 C 0.33887 0.22643 0.4727 0.0
C309 C 0.33795 0.23228 0.45137 0.0
C310 C 0.29393 0.22654 0.46607 0.0
N311 N 0.30976 0.23252 0.44727 0.0
C312 C 0.3632 0.26317 0.53129 0.0
C313 C 0.3693 0.31655 0.50892 0.0
C314 C 0.39264 0.32174 0.52448 0.0
C315 C 0.38975 0.29459 0.53562 0.0
C316 C 0.34321 0.28517 0.50539 0.0
N317 N 0.33925 0.25907 0.51724 0.0
H318 H 0.3624 0.24237 0.53895 0.0
H319 H 0.32557 0.28206 0.4933 0.0
H320 H 0.35862 0.22565 0.48107 0.0
H321 H 0.27037 0.22517 0.46835 0.0
O322 O 0.31895 0.18783 0.51382 0.0
O323 O 0.26699 0.17222 0.50576 0.0
O324 O 0.27246 0.23812 0.50836 0.0
C325 C 0.28947 0.16416 0.50908 0.0
H326 H 0.23123 0.1786 0.57845 0.0
H327 H 0.35711 0.23717 0.43994 0.0
H328 H 0.37062 0.33678 0.49985 0.0
H329 H 0.408 0.29757 0.54729 0.0
Co330 Co 0.07897 0.30721 0.84536 0.0
C331 C 0.09386 0.30453 0.89155 0.0
C332 C 0.0522 0.26036 0.88026 0.0
C333 C 0.05847 0.25517 0.9007 0.0
N334 N 0.07369 0.29163 0.87456 0.0
N335 N 0.08463 0.28293 0.90777 0.0
H336 H 0.11648 0.32777 0.89164 0.0
H337 H 0.03419 0.24181 0.86986 0.0
C338 C 0.00761 0.27829 0.85403 0.0
O339 O 0.01632 0.29637 0.87131 0.0
N340 N 0.08412 0.3209 0.81608 0.0
C341 C 0.10775 0.34942 0.80781 0.0
C342 C 0.10176 0.34968 0.78642 0.0
C343 C 0.06422 0.30416 0.79975 0.0
N344 N 0.0743 0.32126 0.78142 0.0
C345 C 0.09506 0.36781 0.86765 0.0
C346 C 0.04815 0.37692 0.84701 0.0
C347 C 0.06648 0.39846 0.86332 0.0
C348 C 0.09052 0.39406 0.87357 0.0
C349 C 0.05303 0.35085 0.84193 0.0
N350 N 0.07504 0.34543 0.85292 0.0
H351 H 0.11508 0.3661 0.87455 0.0
H352 H 0.03857 0.3346 0.82924 0.0
H353 H 0.12754 0.36887 0.81678 0.0
H354 H 0.04279 0.27997 0.80127 0.0
O355 O 0.12615 0.32571 0.84783 0.0
O356 O 0.09064 0.27466 0.83787 0.0
O357 O 0.02965 0.27983 0.84131 0.0
C358 C 0.12094 0.29684 0.84203 0.0
H359 H 0.04544 0.23238 0.90947 0.0
H360 H 0.11598 0.36966 0.77554 0.0
H361 H 0.02968 0.37983 0.83847 0.0
H362 H 0.10605 0.4111 0.88569 0.0
Co363 Co 0.77319 0.08646 0.17863 0.0
C364 C 0.79455 0.10333 0.22337 0.0
C365 C 0.80415 0.06622 0.211 0.0
C366 C 0.81549 0.07309 0.2315 0.0
N367 N 0.79092 0.08504 0.20598 0.0
N368 N 0.8096 0.0965 0.23927 0.0
H369 H 0.78702 0.12168 0.22414 0.0
H370 H 0.80579 0.04896 0.20042 0.0
C371 C 0.72842 0.01421 0.17076 0.0
O372 O 0.70407 0.01945 0.16605 0.0
N373 N 0.75678 0.08799 0.15044 0.0
C374 C 0.75474 0.11307 0.14149 0.0
C375 C 0.74725 0.10646 0.12031 0.0
C376 C 0.75216 0.06739 0.13412 0.0
N377 N 0.74555 0.07762 0.11572 0.0
C378 C 0.71724 0.09526 0.18749 0.0
C379 C 0.68567 0.0412 0.21385 0.0
C380 C 0.66832 0.05643 0.20658 0.0
C381 C 0.68499 0.08474 0.19406 0.0
C382 C 0.71772 0.05233 0.2067 0.0
N383 N 0.73213 0.07744 0.19234 0.0
H384 H 0.72972 0.11715 0.17807 0.0
H385 H 0.73004 0.03913 0.21157 0.0
H386 H 0.76028 0.13573 0.14932 0.0
H387 H 0.75578 0.04644 0.13525 0.0
O388 O 0.79765 0.13408 0.17996 0.0
O389 O 0.81591 0.10237 0.1664 0.0
O390 O 0.75688 0.03811 0.17539 0.0
C391 C 0.82157 0.13172 0.17109 0.0
H392 H 0.82712 0.06156 0.24 0.0
H393 H 0.74415 0.12215 0.10908 0.0
H394 H 0.67387 0.01948 0.22375 0.0
H395 H 0.67281 0.09798 0.18882 0.0
C396 C 0.31014 0.23269 0.40806 0.0
C397 C 0.29993 0.23994 0.42729 0.0
C398 C 0.30162 0.24089 0.38868 0.0
C399 C 0.27786 0.29756 0.36484 0.0
H400 H 0.2494 0.23658 0.31763 0.0
C401 C 0.23438 0.32496 0.28536 0.0
C402 C 0.24366 0.31544 0.26663 0.0
C403 C 0.23993 0.31516 0.30517 0.0
C404 C 0.25768 0.25409 0.33055 0.0
H405 H 0.27281 0.26163 0.4412 0.0
H406 H 0.2578 0.27582 0.40736 0.0
H407 H 0.26136 0.22036 0.35171 0.0
H408 H 0.26674 0.28884 0.25406 0.0
H409 H 0.27684 0.27216 0.28848 0.0
H410 H 0.27479 0.33153 0.34364 0.0
C411 C 0.27248 0.26384 0.4073 0.0
C412 C 0.26446 0.24473 0.35011 0.0
C413 C 0.28078 0.25539 0.42668 0.0
C414 C 0.25878 0.2961 0.26816 0.0
C415 C 0.26451 0.28648 0.28794 0.0
C416 C 0.27128 0.30702 0.34523 0.0
C417 C 0.28289 0.25678 0.38807 0.0
C418 C 0.27476 0.2664 0.36745 0.0
C419 C 0.25508 0.29579 0.30672 0.0
C420 C 0.26126 0.28546 0.32779 0.0
H421 H 0.32468 0.22057 0.40798 0.0
H422 H 0.31026 0.23536 0.37416 0.0
H423 H 0.28616 0.31498 0.37782 0.0
H424 H 0.22232 0.33951 0.28472 0.0
H425 H 0.23189 0.3224 0.31926 0.0
C426 C 0.96344 0.26817 0.60061 0.0
C427 C 0.92888 0.25116 0.5993 0.0
C428 C 0.9792 0.27493 0.62032 0.0
C429 C 0.96445 0.28078 0.67765 0.0
H430 H 0.04494 0.27727 0.68459 0.0
C431 C 0.02387 0.29126 0.75969 0.0
C432 C 0.05819 0.31194 0.76105 0.0
C433 C 0.00812 0.28308 0.73998 0.0
C434 C 0.02261 0.27861 0.68286 0.0
H435 H 0.88381 0.22717 0.61769 0.0
H436 H 0.91116 0.23848 0.652 0.0
H437 H 0.01733 0.26419 0.65025 0.0
H438 H 0.10288 0.33964 0.7427 0.0
H439 H 0.07538 0.32546 0.70827 0.0
H440 H 0.96964 0.29492 0.71033 0.0
C441 C 0.92618 0.24734 0.63785 0.0
C442 C 0.0068 0.27118 0.66315 0.0
C443 C 0.91045 0.24079 0.61815 0.0
C444 C 0.07641 0.3239 0.74221 0.0
C445 C 0.06068 0.31552 0.72248 0.0
C446 C 0.98015 0.288 0.69737 0.0
C447 C 0.96078 0.26466 0.63922 0.0
C448 C 0.97753 0.27224 0.66026 0.0
C449 C 0.02632 0.2952 0.72114 0.0
C450 C 0.00945 0.28707 0.7002 0.0
H451 H 0.97833 0.27688 0.5864 0.0
H452 H 0.00585 0.28878 0.62073 0.0
H453 H 0.94232 0.28247 0.67597 0.0
H454 H 0.00905 0.28189 0.77388 0.0
H455 H 0.98165 0.26713 0.73948 0.0
C456 C 0.69435 0.96479 0.93509 0.0
C457 C 0.67797 0.93027 0.93426 0.0
C458 C 0.70309 0.98125 0.95456 0.0
C459 C 0.71717 0.97078 1.01108 0.0
H460 H 0.70165 0.04375 0.01983 0.0
C461 C 0.72569 0.0274 0.09392 0.0
C462 C 0.73942 0.06166 0.0953 0.0
C463 C 0.71928 0.0118 0.07418 0.0
C464 C 0.70658 0.02372 0.01759 0.0
H465 H 0.6587 0.88609 0.95337 0.0
H466 H 0.67358 0.91473 0.9873 0.0
H467 H 0.68896 0.01599 0.98561 0.0
H468 H 0.75784 0.10642 0.07689 0.0
H469 H 0.74689 0.07931 0.0425 0.0
H470 H 0.73479 0.9785 0.04305 0.0
C471 C 0.67982 0.9291 0.97287 0.0
C472 C 0.69927 0.00778 0.99794 0.0
C473 C 0.67095 0.91265 0.9534 0.0
C474 C 0.74678 0.07996 0.07644 0.0
C475 C 0.74047 0.06438 0.05669 0.0
C476 C 0.72456 0.98678 0.03071 0.0
C477 C 0.69581 0.9636 0.9737 0.0
C478 C 0.70435 0.98103 0.99447 0.0
C479 C 0.72653 0.03007 0.05529 0.0
C480 C 0.71924 0.01339 0.03426 0.0
H481 H 0.69987 0.97913 0.92069 0.0
H482 H 0.71568 0.00785 0.95463 0.0
H483 H 0.72183 0.95057 1.00883 0.0
H484 H 0.71925 0.0125 0.10811 0.0
H485 H 0.70804 0.9853 0.07374 0.0
C486 C 0.76184 0.67305 0.28611 0.0
C487 C 0.75386 0.68387 0.26742 0.0
C488 C 0.75643 0.68276 0.30599 0.0
C489 C 0.74128 0.74494 0.33241 0.0
H490 H 0.70783 0.68107 0.37801 0.0
C491 C 0.68881 0.76539 0.41051 0.0
C492 C 0.69686 0.75539 0.42952 0.0
C493 C 0.69751 0.75794 0.3909 0.0
C494 C 0.71754 0.69932 0.36552 0.0
H495 H 0.73353 0.71313 0.25508 0.0
H496 H 0.7238 0.72979 0.28966 0.0
H497 H 0.7195 0.66557 0.34357 0.0
H498 H 0.72048 0.72968 0.44273 0.0
H499 H 0.73591 0.71694 0.40856 0.0
H500 H 0.73879 0.77851 0.35435 0.0
C501 C 0.73491 0.71435 0.28899 0.0
C502 C 0.72429 0.69045 0.34576 0.0
C503 C 0.74047 0.70477 0.26912 0.0
C504 C 0.71418 0.73807 0.42844 0.0
C505 C 0.7227 0.73043 0.40883 0.0
C506 C 0.73438 0.75375 0.35216 0.0
C507 C 0.74273 0.70341 0.30771 0.0
C508 C 0.73617 0.71311 0.32891 0.0
C509 C 0.7143 0.74011 0.38982 0.0
C510 C 0.72236 0.73103 0.36894 0.0
H511 H 0.77261 0.65733 0.28536 0.0
H512 H 0.7633 0.67429 0.32003 0.0
H513 H 0.75093 0.76321 0.31994 0.0
H514 H 0.67575 0.77901 0.41078 0.0
H515 H 0.69043 0.76554 0.37656 0.0
C516 C 0.04896 0.75603 0.60531 0.0
C517 C 0.06148 0.73616 0.59787 0.0
C518 C 0.03366 0.75013 0.6252 0.0
C519 C 0.98825 0.68466 0.66358 0.0
H520 H 0.01447 0.75408 0.70522 0.0
C521 C 0.94096 0.65523 0.7494 0.0
C522 C 0.93488 0.67761 0.76049 0.0
C523 C 0.95655 0.66342 0.72966 0.0
C524 C 0.00639 0.73447 0.69369 0.0
H525 H 0.06743 0.69435 0.60525 0.0
H526 H 0.04024 0.68368 0.63979 0.0
H527 H 0.04079 0.7666 0.67036 0.0
H528 H 0.94028 0.72613 0.75962 0.0
H529 H 0.96655 0.74025 0.72473 0.0
H530 H 0.95329 0.6526 0.68637 0.0
C531 C 0.04251 0.70398 0.63033 0.0
C532 C 0.02162 0.74168 0.67375 0.0
C533 C 0.05829 0.71023 0.61066 0.0
C534 C 0.94491 0.70852 0.75146 0.0
C535 C 0.96008 0.71659 0.73149 0.0
C536 C 0.97267 0.67753 0.68334 0.0
C537 C 0.03004 0.72384 0.63781 0.0
C538 C 0.01298 0.71674 0.65861 0.0
C539 C 0.96601 0.69407 0.72025 0.0
C540 C 0.9818 0.70221 0.69883 0.0
H541 H 0.0513 0.77632 0.59585 0.0
H542 H 0.02415 0.76574 0.63056 0.0
H543 H 0.98076 0.66506 0.65207 0.0
H544 H 0.93406 0.63146 0.75617 0.0
H545 H 0.96145 0.64572 0.72189 0.0
C546 C 0.29068 0.05301 0.94142 0.0
C547 C 0.32323 0.06715 0.93395 0.0
C548 C 0.28191 0.03683 0.961 0.0
C549 C 0.30423 0.99177 0.9981 0.0
H550 H 0.26037 0.01556 0.04094 0.0
C551 C 0.28687 0.94095 0.0831 0.0
C552 C 0.25861 0.93486 0.09448 0.0
C553 C 0.29404 0.95703 0.06354 0.0
C554 C 0.27207 0.00811 0.02908 0.0
H555 H 0.37192 0.07504 0.9409 0.0
H556 H 0.35645 0.04613 0.97493 0.0
H557 H 0.27338 0.043 1.00654 0.0
H558 H 0.21546 0.94045 0.09427 0.0
H559 H 0.22707 0.96739 0.0597 0.0
H560 H 0.30216 0.95623 0.02008 0.0
C561 C 0.33785 0.04788 0.96573 0.0
C562 C 0.27966 0.02402 1.0094 0.0
C563 C 0.34675 0.06459 0.94637 0.0
C564 C 0.23757 0.94513 0.08588 0.0
C565 C 0.24439 0.96072 0.0661 0.0
C566 C 0.29614 0.97545 0.0176 0.0
C567 C 0.30538 0.03392 0.97326 0.0
C568 C 0.29612 0.01624 0.99382 0.0
C569 C 0.27277 0.96693 0.05462 0.0
C570 C 0.28028 0.98362 0.03351 0.0
H571 H 0.27215 0.05485 0.93223 0.0
H572 H 0.25668 0.02617 0.96644 0.0
H573 H 0.31655 0.98502 0.98624 0.0
H574 H 0.3038 0.93379 0.08954 0.0
H575 H 0.31656 0.96205 0.05557 0.0
C576 C 0.11256 0.31696 0.93922 0.0
C577 C 0.10044 0.2873 0.92801 0.0
C578 C 0.12459 0.3197 0.95992 0.0
C579 C 0.11784 0.26624 1.00515 0.0
H580 H 0.1918 0.34487 0.02844 0.0
C581 C 0.17703 0.26296 0.08327 0.0
C582 C 0.18048 0.28592 0.09885 0.0
C583 C 0.16959 0.26642 0.06238 0.0
C584 C 0.17094 0.32289 0.02213 0.0
H585 H 0.09365 0.23822 0.92886 0.0
H586 H 0.11542 0.24313 0.96449 0.0
H587 H 0.17498 0.34467 0.99156 0.0
H588 H 0.18045 0.33155 0.10429 0.0
H589 H 0.16786 0.33784 0.06741 0.0
H590 H 0.11418 0.24423 0.03542 0.0
C591 C 0.1145 0.26392 0.95783 0.0
C592 C 0.16126 0.32274 1.00106 0.0
C593 C 0.10216 0.26109 0.93736 0.0
C594 C 0.17801 0.31345 0.09271 0.0
C595 C 0.17077 0.31706 0.07163 0.0
C596 C 0.12768 0.26631 0.02599 0.0
C597 C 0.12499 0.29289 0.96964 0.0
C598 C 0.13487 0.29419 0.99223 0.0
C599 C 0.1657 0.29308 0.05642 0.0
C600 C 0.15458 0.29441 0.03463 0.0
H601 H 0.11139 0.33747 0.93231 0.0
H602 H 0.13238 0.34234 0.96856 0.0
H603 H 0.09676 0.24415 0.99917 0.0
H604 H 0.17973 0.242 0.08722 0.0
H605 H 0.16648 0.24793 0.05088 0.0
C606 C 0.84463 0.11164 0.27121 0.0
C607 C 0.81858 0.11142 0.26002 0.0
C608 C 0.8528 0.12482 0.29157 0.0
C609 C 0.81909 0.14499 0.33845 0.0
H610 H 0.91051 0.18734 0.35612 0.0
C611 C 0.86907 0.19423 0.42428 0.0
C612 C 0.88801 0.18097 0.43248 0.0
C613 C 0.85926 0.1895 0.40294 0.0
C614 C 0.8849 0.17573 0.35137 0.0
H615 H 0.78091 0.12541 0.26153 0.0
H616 H 0.79567 0.14915 0.29713 0.0
H617 H 0.89668 0.17391 0.31886 0.0
H618 H 0.90982 0.15083 0.42432 0.0
H619 H 0.89386 0.1439 0.38746 0.0
H620 H 0.80763 0.14686 0.37128 0.0
C621 C 0.8095 0.13867 0.29012 0.0
C622 C 0.87691 0.16784 0.33007 0.0
C623 C 0.80125 0.12535 0.26964 0.0
C624 C 0.89616 0.16233 0.4188 0.0
C625 C 0.88687 0.15813 0.39755 0.0
C626 C 0.82719 0.15331 0.35983 0.0
C627 C 0.83536 0.13847 0.30135 0.0
C628 C 0.84384 0.15131 0.32343 0.0
C629 C 0.86865 0.1719 0.38935 0.0
C630 C 0.86009 0.16779 0.36653 0.0
H631 H 0.85889 0.10163 0.26425 0.0
H632 H 0.87249 0.12367 0.29981 0.0
H633 H 0.79337 0.13217 0.33393 0.0
H634 H 0.86227 0.20877 0.43413 0.0
H635 H 0.84511 0.20029 0.39694 0.0
C636 C 0.6969 0.90342 0.74756 0.0
C637 C 0.6892 0.88402 0.76591 0.0
C638 C 0.6918 0.88908 0.72749 0.0
C639 C 0.6953 0.82386 0.70068 0.0
H640 H 0.64907 0.83789 0.65449 0.0
C641 C 0.69228 0.77067 0.61816 0.0
C642 C 0.6935 0.78917 0.60041 0.0
C643 C 0.68669 0.77912 0.63835 0.0
C644 C 0.66249 0.83407 0.66709 0.0
H645 H 0.66965 0.83455 0.77783 0.0
H646 H 0.66168 0.80939 0.74255 0.0
H647 H 0.6483 0.85882 0.68985 0.0
H648 H 0.68962 0.83075 0.58953 0.0
H649 H 0.68165 0.84694 0.62491 0.0
H650 H 0.71147 0.80116 0.6781 0.0
C651 C 0.67114 0.83561 0.74378 0.0
C652 C 0.66173 0.84582 0.68737 0.0
C653 C 0.67553 0.84989 0.76387 0.0
C654 C 0.6885 0.81602 0.60306 0.0
C655 C 0.68374 0.82508 0.62335 0.0
C656 C 0.6967 0.81277 0.68036 0.0
C657 C 0.67957 0.85517 0.72544 0.0
C658 C 0.6782 0.84086 0.7043 0.0
C659 C 0.68315 0.80696 0.64136 0.0
C660 C 0.6804 0.81776 0.66321 0.0
H661 H 0.70732 0.92977 0.7488 0.0
H662 H 0.6987 0.90468 0.71358 0.0
H663 H 0.70865 0.82023 0.71343 0.0
H664 H 0.69566 0.74958 0.61635 0.0
H665 H 0.6854 0.76386 0.65159 0.0
C666 C 0.8754 0.67716 0.93739 0.0
C667 C 0.88009 0.70434 0.92532 0.0
C668 C 0.86395 0.67325 0.95835 0.0
C669 C 0.85874 0.72306 1.00233 0.0
H670 H 0.79837 0.63914 0.02804 0.0
C671 C 0.79305 0.716 0.07975 0.0
C672 C 0.79569 0.69734 0.09627 0.0
C673 C 0.80203 0.71331 0.0591 0.0
C674 C 0.81548 0.66266 0.02107 0.0
H675 H 0.8743 0.7473 0.9251 0.0
H676 H 0.8536 0.74016 0.96119 0.0
H677 H 0.81614 0.6411 0.99116 0.0
H678 H 0.80823 0.65975 0.10366 0.0
H679 H 0.82352 0.65466 0.06716 0.0
H680 H 0.85751 0.7447 0.0319 0.0
C681 C 0.85992 0.7225 0.95495 0.0
C682 C 0.8257 0.66383 0.99999 0.0
C683 C 0.87165 0.72657 0.93421 0.0
C684 C 0.80585 0.67446 0.09133 0.0
C685 C 0.81465 0.67157 0.07047 0.0
C686 C 0.84832 0.7219 0.02317 0.0
C687 C 0.85673 0.69631 0.96752 0.0
C688 C 0.84701 0.69417 0.99025 0.0
C689 C 0.81362 0.69165 0.0543 0.0
C690 C 0.82619 0.69181 0.03267 0.0
H691 H 0.88183 0.65973 0.93089 0.0
H692 H 0.86187 0.65284 0.96757 0.0
H693 H 0.87598 0.74678 0.99565 0.0
H694 H 0.78441 0.73313 0.08281 0.0
H695 H 0.80033 0.72859 0.04686 0.0
C696 C 0.07953 0.80814 0.41551 0.0
C697 C 0.0996 0.80582 0.43118 0.0
C698 C 0.09043 0.81576 0.39462 0.0
C699 C 0.14892 0.81773 0.355 0.0
H700 H 0.13498 0.8851 0.32966 0.0
C701 C 0.19771 0.87492 0.27111 0.0
C702 C 0.17687 0.88223 0.25912 0.0
C703 C 0.18959 0.86384 0.2921 0.0
C704 C 0.13873 0.86596 0.33635 0.0
H705 H 0.14645 0.80829 0.43687 0.0
H706 H 0.16552 0.82145 0.40004 0.0
H707 H 0.11859 0.86876 0.36617 0.0
H708 H 0.13019 0.88135 0.25908 0.0
H709 H 0.11575 0.86162 0.29528 0.0
H710 H 0.16874 0.81478 0.32488 0.0
C711 C 0.1413 0.81739 0.40412 0.0
C712 C 0.12941 0.85667 0.35733 0.0
C713 C 0.13037 0.80984 0.42518 0.0
C714 C 0.1471 0.87671 0.26811 0.0
C715 C 0.1389 0.86547 0.2889 0.0
C716 C 0.15816 0.82696 0.33383 0.0
C717 C 0.12168 0.82116 0.38874 0.0
C718 C 0.13385 0.83209 0.36681 0.0
C719 C 0.1604 0.85973 0.30138 0.0
C720 C 0.15259 0.8508 0.32416 0.0
H721 H 0.05534 0.80429 0.41939 0.0
H722 H 0.07442 0.81771 0.38303 0.0
H723 H 0.15262 0.79869 0.36191 0.0
H724 H 0.22084 0.87904 0.26455 0.0
H725 H 0.20672 0.85969 0.30128 0.0
C726 C 0.31551 0.11948 0.75752 0.0
C727 C 0.29196 0.12104 0.77052 0.0
C728 C 0.31821 0.12834 0.73606 0.0
C729 C 0.2679 0.13687 0.69377 0.0
H730 H 0.34927 0.17657 0.6616 0.0
C731 C 0.26407 0.15077 0.60417 0.0
C732 C 0.28807 0.18034 0.59509 0.0
C733 C 0.26778 0.14249 0.62482 0.0
C734 C 0.32636 0.16568 0.67039 0.0
H735 H 0.25466 0.13533 0.77195 0.0
H736 H 0.26013 0.15206 0.73497 0.0
H737 H 0.35042 0.16711 0.69963 0.0
H738 H 0.33539 0.22386 0.59989 0.0
H739 H 0.34155 0.2102 0.63651 0.0
H740 H 0.24389 0.13663 0.66508 0.0
C741 C 0.27559 0.14269 0.74087 0.0
C742 C 0.32697 0.15992 0.69217 0.0
C743 C 0.27254 0.13333 0.7621 0.0
C744 C 0.31666 0.20087 0.60665 0.0
C745 C 0.32013 0.19293 0.62756 0.0
C746 C 0.26733 0.14289 0.67219 0.0
C747 C 0.29768 0.13933 0.72736 0.0
C748 C 0.29771 0.14558 0.70416 0.0
C749 C 0.29525 0.16401 0.63711 0.0
C750 C 0.29647 0.15727 0.66012 0.0
H751 H 0.33065 0.10993 0.76371 0.0
H752 H 0.3354 0.12528 0.72616 0.0
H753 H 0.24473 0.12514 0.70229 0.0
H754 H 0.24208 0.13434 0.59537 0.0
H755 H 0.24862 0.1195 0.63131 0.0
C756 C 0.61084 0.54646 0.18209 0.0
C757 C 0.63322 0.5614 0.16531 0.0
C758 C 0.57743 0.52596 0.17804 0.0
C759 C 0.51378 0.47276 0.14219 0.0
H760 H 0.46356 0.50942 0.16754 0.0
C761 C 0.37115 0.40873 0.13568 0.0
C762 C 0.3547 0.40847 0.15442 0.0
C763 C 0.40544 0.4284 0.13411 0.0
C764 C 0.47709 0.49864 0.16049 0.0
H765 H 0.63853 0.56424 0.13109 0.0
H766 H 0.57965 0.52733 0.12402 0.0
H767 H 0.52333 0.53881 0.17053 0.0
H768 H 0.3614 0.42832 0.18624 0.0
H769 H 0.42069 0.46206 0.18365 0.0
H770 H 0.46739 0.43172 0.13303 0.0
C771 C 0.58826 0.53208 0.14027 0.0
C772 C 0.5113 0.51559 0.16212 0.0
C773 C 0.62186 0.55302 0.14433 0.0
C774 C 0.37317 0.42853 0.1714 0.0
C775 C 0.40729 0.44793 0.16989 0.0
C776 C 0.47931 0.45543 0.14081 0.0
C777 C 0.56573 0.51952 0.15714 0.0
C778 C 0.52986 0.50251 0.15337 0.0
C779 C 0.42394 0.44806 0.15129 0.0
C780 C 0.46054 0.46787 0.1504 0.0
H781 H 0.61895 0.55184 0.19842 0.0
H782 H 0.56048 0.5161 0.19128 0.0
H783 H 0.52773 0.4623 0.13532 0.0
H784 H 0.35753 0.39362 0.12228 0.0
H785 H 0.41743 0.42817 0.11947 0.0
C786 C 0.94028 0.3764 0.50184 0.0
C787 C 0.9354 0.3557 0.48447 0.0
C788 C 0.95566 0.41035 0.49907 0.0
C789 C 0.97091 0.47649 0.46523 0.0
H790 H 0.05509 0.52613 0.4937 0.0
C791 C 0.04334 0.61843 0.46268 0.0
C792 C 0.05863 0.63431 0.48168 0.0
C793 C 0.03103 0.58464 0.46029 0.0
C794 C 0.03148 0.51277 0.48582 0.0
H795 H 0.94152 0.354 0.45052 0.0
H796 H 0.96757 0.41382 0.44558 0.0
H797 H 0.02574 0.46627 0.49511 0.0
H798 H 0.07322 0.62747 0.51299 0.0
H799 H 0.05105 0.56876 0.5092 0.0
H800 H 0.97539 0.52272 0.45696 0.0
C801 C 0.95979 0.40352 0.4613 0.0
C802 C 0.01487 0.47851 0.48652 0.0
C803 C 0.94497 0.36949 0.46413 0.0
C804 C 0.06209 0.61598 0.49802 0.0
C805 C 0.04939 0.58222 0.49578 0.0
C806 C 0.98721 0.51086 0.46486 0.0
C807 C 0.96586 0.42416 0.47885 0.0
C808 C 0.98431 0.46018 0.47648 0.0
C809 C 0.0333 0.56595 0.47699 0.0
C810 C 0.01749 0.52948 0.47547 0.0
H811 H 0.93354 0.36643 0.51772 0.0
H812 H 0.96012 0.42594 0.51279 0.0
H813 H 0.94725 0.46267 0.45745 0.0
H814 H 0.04054 0.63207 0.44978 0.0
H815 H 0.01939 0.57315 0.44545 0.0
C816 C 0.4266 0.05093 0.83776 0.0
C817 C 0.41008 0.05411 0.82013 0.0
C818 C 0.44425 0.03433 0.83599 0.0
C819 C 0.49092 0.01238 0.80162 0.0
H820 H 0.46542 0.93865 0.83967 0.0
C821 C 0.5626 0.94144 0.80399 0.0
C822 C 0.56768 0.93207 0.82417 0.0
C823 C 0.54041 0.95294 0.80125 0.0
C824 C 0.47316 0.95937 0.82909 0.0
H825 H 0.39975 0.04325 0.7867 0.0
H826 H 0.43192 0.01495 0.78344 0.0
H827 H 0.43376 0.96704 0.83914 0.0
H828 H 0.55365 0.92744 0.85726 0.0
H829 H 0.51589 0.94828 0.85273 0.0
H830 H 0.53146 0.00616 0.79239 0.0
C831 C 0.43067 0.02507 0.79863 0.0
C832 C 0.45483 0.97542 0.82869 0.0
C833 C 0.41235 0.04115 0.8005 0.0
C834 C 0.5498 0.93393 0.84146 0.0
C835 C 0.52802 0.94582 0.8388 0.0
C836 C 0.50971 -0.0033 0.80228 0.0
C837 C 0.44622 0.02104 0.81649 0.0
C838 C 0.46386 0.00234 0.81521 0.0
C839 C 0.52317 0.95575 0.8187 0.0
C840 C 0.50141 0.97035 0.81633 0.0
H841 H 0.42488 0.06028 0.85314 0.0
H842 H 0.45622 0.03163 0.84993 0.0
H843 H 0.49837 0.03323 0.79118 0.0
H844 H 0.57595 0.94004 0.79036 0.0
H845 H 0.53694 0.9598 0.78548 0.0
C846 C 0.42399 0.3683 0.54983 0.0
C847 C 0.41881 0.35578 0.52906 0.0
C848 C 0.4428 0.40224 0.55335 0.0
C849 C 0.45812 0.47613 0.52715 0.0
H850 H 0.53743 0.52555 0.56048 0.0
C851 C 0.54844 0.6113 0.51158 0.0
C852 C 0.56675 0.63212 0.5283 0.0
C853 C 0.52683 0.57805 0.51524 0.0
C854 C 0.51485 0.51207 0.55151 0.0
H855 H 0.43178 0.36825 0.49602 0.0
H856 H 0.46417 0.42729 0.50215 0.0
H857 H 0.50901 0.46533 0.56069 0.0
H858 H 0.57565 0.63491 0.56217 0.0
H859 H 0.53726 0.57657 0.56868 0.0
H860 H 0.46373 0.52234 0.51773 0.0
C861 C 0.45339 0.41104 0.51562 0.0
C862 C 0.49878 0.47769 0.55157 0.0
C863 C 0.43496 0.37734 0.51214 0.0
C864 C 0.56166 0.6194 0.549 0.0
C865 C 0.54001 0.58598 0.55269 0.0
C866 C 0.47385 0.5103 0.52727 0.0
C867 C 0.45637 0.42382 0.53611 0.0
C868 C 0.47098 0.45961 0.53879 0.0
C869 C 0.52293 0.56482 0.53575 0.0
C870 C 0.50307 0.52873 0.53882 0.0
H871 H 0.41167 0.35217 0.56312 0.0
H872 H 0.44498 0.41171 0.56929 0.0
H873 H 0.43631 0.46253 0.51746 0.0
H874 H 0.55171 0.62053 0.4955 0.0
H875 H 0.51439 0.56245 0.50177 0.0
C876 C 0.94022 0.56979 0.89065 0.0
C877 C 0.93532 0.57569 0.86948 0.0
C878 C 0.95524 0.55102 0.8952 0.0
C879 C 0.01741 0.53737 0.87269 0.0
H880 H 0.98177 0.45348 0.9014 0.0
C881 C 0.05883 0.44549 0.85336 0.0
C882 C 0.0601 0.42524 0.86922 0.0
C883 C 0.04792 0.46748 0.85806 0.0
C884 C 0.99243 0.47731 0.89382 0.0
H885 H 0.93922 0.56435 0.83666 0.0
H886 H 0.9655 0.53196 0.84459 0.0
H887 H 0.95065 0.48289 0.90138 0.0
H888 H 0.05231 0.41283 0.90259 0.0
H889 H 0.03299 0.45159 0.91092 0.0
H890 H 0.05861 0.53171 0.86451 0.0
C891 C 0.95822 0.54207 0.8576 0.0
C892 C 0.97455 0.49398 0.89376 0.0
C893 C 0.94314 0.56048 0.85309 0.0
C894 C 0.0517 0.42841 0.89014 0.0
C895 C 0.04041 0.4503 0.89484 0.0
C896 C 0.03531 0.52095 0.87288 0.0
C897 C 0.96551 0.53824 0.8786 0.0
C898 C 0.98641 0.52346 0.88247 0.0
C899 C 0.03787 0.46963 0.87873 0.0
C900 C 0.0224 0.49009 0.88266 0.0
H901 H 0.9345 0.58142 0.90352 0.0
H902 H 0.96059 0.54817 0.91152 0.0
H903 H 0.02716 0.56035 0.86411 0.0
H904 H 0.06523 0.44349 0.83712 0.0
H905 H 0.04586 0.48167 0.84521 0.0
C906 C 0.61787 0.02742 0.22966 0.0
C907 C 0.63225 0.04052 0.20985 0.0
C908 C 0.58354 0.00921 0.23181 0.0
C909 C 0.51023 0.9567 0.20102 0.0
H910 H 0.4611 0.97996 0.24007 0.0
C911 C 0.37789 0.92404 0.18527 0.0
C912 C 0.3561 0.91855 0.20208 0.0
C913 C 0.41033 0.93218 0.18923 0.0
C914 C 0.47441 0.97255 0.22944 0.0
H915 H 0.62209 0.04496 0.17685 0.0
H916 H 0.5624 0.01308 0.18058 0.0
H917 H 0.52134 0.00909 0.24169 0.0
H918 H 0.3504 0.9154 0.2362 0.0
H919 H 0.40758 0.92949 0.24328 0.0
H920 H 0.46373 0.92058 0.1885 0.0
C921 C 0.57761 0.01701 0.19444 0.0
C922 C 0.50887 0.98937 0.23032 0.0
C923 C 0.61173 0.03558 0.19237 0.0
C924 C 0.36681 0.91948 0.22299 0.0
C925 C 0.39953 0.92782 0.227 0.0
C926 C 0.47591 0.93967 0.20031 0.0
C927 C 0.56321 0.00327 0.21407 0.0
C928 C 0.52702 0.98236 0.21559 0.0
C929 C 0.42184 0.935 0.21014 0.0
C930 C 0.4576 0.94826 0.21393 0.0
H931 H 0.63317 0.03089 0.24338 0.0
H932 H 0.57292 -0.00109 0.24712 0.0
H933 H 0.52374 0.95047 0.18975 0.0
H934 H 0.37014 0.92328 0.16899 0.0
H935 H 0.42681 0.93795 0.17584 0.0
C936 C 0.1191 0.31287 0.17723 0.0
C937 C 0.13043 0.29663 0.19059 0.0
C938 C 0.08531 0.30197 0.1758 0.0
C939 C 0.00973 0.27571 0.18142 0.0
H940 H 0.96366 0.18117 0.17362 0.0
C941 C 0.86688 0.1872 0.18226 0.0
C942 C 0.85496 0.1601 0.1685 0.0
C943 C 0.90068 0.21004 0.18303 0.0
C944 C 0.97614 0.20761 0.17555 0.0
H945 H 0.11601 0.25871 0.21448 0.0
H946 H 0.05743 0.24011 0.21222 0.0
H947 H 0.02223 0.21002 0.18094 0.0
H948 H 0.8681 0.13744 0.14325 0.0
H949 H 0.92669 0.17744 0.14428 0.0
H950 H 0.96295 0.27281 0.17603 0.0
C951 C 0.07437 0.26066 0.20249 0.0
C952 C 0.00965 0.22409 0.18004 0.0
C953 C 0.1079 0.27136 0.20381 0.0
C954 C 0.87673 0.15787 0.15421 0.0
C955 C 0.91027 0.18071 0.15485 0.0
C956 C 0.9758 0.25902 0.1771 0.0
C957 C 0.06258 0.27481 0.18778 0.0
C958 C 0.02682 0.25824 0.18314 0.0
C959 C 0.92281 0.20604 0.16998 0.0
C960 C 0.95878 0.22478 0.17401 0.0
H961 H 0.13601 0.33242 0.16684 0.0
H962 H 0.07683 0.31328 0.16433 0.0
H963 H 0.02247 0.30208 0.18371 0.0
H964 H 0.85054 0.1894 0.19348 0.0
H965 H 0.90969 0.22932 0.19486 0.0
C966 C 0.69521 0.86844 0.52407 0.0
C967 C 0.7163 0.85758 0.51627 0.0
C968 C 0.70646 0.9021 0.52625 0.0
C969 C 0.73353 0.97627 0.51951 0.0
H970 H 0.82327 0.02828 0.5397 0.0
C971 C 0.81151 0.11832 0.51285 0.0
C972 C 0.83675 0.1349 0.52773 0.0
C973 C 0.79138 0.08412 0.514 0.0
C974 C 0.79795 0.01421 0.53442 0.0
H975 H 0.76508 0.8733 0.50375 0.0
H976 H 0.7844 0.93165 0.50715 0.0
H977 H 0.79912 0.96944 0.53627 0.0
H978 H 0.8588 0.12983 0.55659 0.0
H979 H 0.82275 0.07064 0.5593 0.0
H980 H 0.73249 0.02142 0.51791 0.0
C981 C 0.7595 0.91436 0.51212 0.0
C982 C 0.78428 0.98041 0.53209 0.0
C983 C 0.74836 0.88089 0.51005 0.0
C984 C 0.8397 0.11742 0.54479 0.0
C985 C 0.81923 0.0835 0.5462 0.0
C986 C 0.74725 0.01031 0.52192 0.0
C987 C 0.73895 0.9254 0.52063 0.0
C988 C 0.75217 0.96107 0.52426 0.0
C989 C 0.79598 0.06619 0.53024 0.0
C990 C 0.77978 0.02972 0.52922 0.0
H991 H 0.67034 0.85097 0.52899 0.0
H992 H 0.69008 0.90983 0.53293 0.0
H993 H 0.70871 0.96201 0.5134 0.0
H994 H 0.80898 0.13137 0.49948 0.0
H995 H 0.77382 0.07163 0.5014 0.0
C996 C 0.72496 0.84165 0.86725 0.0
C997 C 0.69696 0.83645 0.85595 0.0
C998 C 0.73648 0.81951 0.86557 0.0
C999 C 0.77044 0.78875 0.84283 0.0
H1000 H 0.72176 0.69348 0.84369 0.0
C1001 C 0.8355 0.71964 0.81912 0.0
C1002 C 0.83341 0.69633 0.83385 0.0
C1003 C 0.81286 0.73069 0.81961 0.0
C1004 C 0.73557 0.72007 0.8434 0.0
H1005 H 0.65766 0.80289 0.83519 0.0
H1006 H 0.6782 0.76406 0.83202 0.0
H1007 H 0.69311 0.72438 0.85119 0.0
H1008 H 0.8048 0.66438 0.85965 0.0
H1009 H 0.7654 0.68443 0.86092 0.0
H1010 H 0.81286 0.78503 0.83546 0.0
C1011 C 0.69103 0.78524 0.84229 0.0
C1012 C 0.71919 0.7377 0.84759 0.0
C1013 C 0.67931 0.80744 0.84408 0.0
C1014 C 0.80677 0.68231 0.84806 0.0
C1015 C 0.78425 0.69376 0.84876 0.0
C1016 C 0.78662 0.77132 0.83855 0.0
C1017 C 0.72045 0.7918 0.8524 0.0
C1018 C 0.73666 0.77225 0.84759 0.0
C1019 C 0.78803 0.71916 0.83514 0.0
C1020 C 0.7695 0.7368 0.83879 0.0
H1021 H 0.73881 0.86357 0.87676 0.0
H1022 H 0.75881 0.82482 0.87392 0.0
H1023 H 0.78449 0.81535 0.84237 0.0
H1024 H 0.85561 0.73052 0.80783 0.0
H1025 H 0.81591 0.74966 0.80854 0.0
C1026 C 0.882 0.73481 0.19384 0.0
C1027 C 0.85931 0.70544 0.18384 0.0
C1028 C 0.91571 0.74682 0.19184 0.0
C1029 C 0.98133 0.77929 0.17038 0.0
H1030 H 0.02692 0.72946 0.17354 0.0
C1031 C 0.1177 0.84285 0.15156 0.0
C1032 C 0.13746 0.83844 0.16638 0.0
C1033 C 0.08379 0.82144 0.15108 0.0
C1034 C 0.01448 0.74365 0.17263 0.0
H1035 H 0.85397 0.66461 0.16481 0.0
H1036 H 0.91345 0.68604 0.16098 0.0
H1037 H 0.96721 0.70179 0.17967 0.0
H1038 H 0.13787 0.80714 0.19144 0.0
H1039 H 0.07812 0.77005 0.19114 0.0
H1040 H 0.02805 0.82123 0.16406 0.0
C1041 C 0.90497 0.69957 0.17053 0.0
C1042 C 0.98031 0.72778 0.17598 0.0
C1043 C 0.87099 0.68735 0.17267 0.0
C1044 C 0.12308 0.81093 0.1798 0.0
C1045 C 0.0889 0.7897 0.17959 0.0
C1046 C 0.01518 0.79502 0.16704 0.0
C1047 C 0.92765 0.72996 0.17958 0.0
C1048 C 0.96351 0.74562 0.17519 0.0
C1049 C 0.06876 0.79554 0.16577 0.0
C1050 C 0.03229 0.77754 0.16819 0.0
H1051 H 0.87374 0.74905 0.20283 0.0
H1052 H 0.93252 0.76986 0.19948 0.0
H1053 H 0.96908 0.79366 0.16927 0.0
H1054 H 0.1283 0.86366 0.14084 0.0
H1055 H 0.06915 0.82609 0.13981 0.0
C1056 C 0.18126 0.86761 0.51188 0.0
C1057 C 0.15467 0.85284 0.52607 0.0
C1058 C 0.20229 0.90173 0.51216 0.0
C1059 C 0.24777 0.97612 0.51886 0.0
H1060 H 0.19587 0.01927 0.52482 0.0
C1061 C 0.30033 0.11861 0.51906 0.0
C1062 C 0.28083 0.12936 0.50869 0.0
C1063 C 0.28921 0.08493 0.52105 0.0
C1064 C 0.21074 0.00764 0.52299 0.0
H1065 H 0.1311 0.86117 0.55304 0.0
H1066 H 0.16838 0.92028 0.55412 0.0
H1067 H 0.17003 0.9606 0.5303 0.0
H1068 H 0.23582 0.11366 0.49089 0.0
H1069 H 0.21685 0.05533 0.49399 0.0
H1070 H 0.28833 0.02369 0.51085 0.0
C1071 C 0.17242 0.90596 0.54225 0.0
C1072 C 0.19604 0.97399 0.52648 0.0
C1073 C 0.15119 0.8721 0.54174 0.0
C1074 C 0.25114 0.10609 0.49926 0.0
C1075 C 0.24021 0.07266 0.50111 0.0
C1076 C 0.26261 0.01009 0.51537 0.0
C1077 C 0.19714 0.92139 0.5268 0.0
C1078 C 0.21423 0.95771 0.52438 0.0
C1079 C 0.25852 0.06164 0.51264 0.0
C1080 C 0.24402 0.02604 0.5171 0.0
H1081 H 0.18432 0.85321 0.49959 0.0
H1082 H 0.22104 0.91284 0.50001 0.0
H1083 H 0.26246 0.96429 0.51717 0.0
H1084 H 0.32335 0.1361 0.52648 0.0
H1085 H 0.30383 0.07713 0.53003 0.0
C1086 C 0.17831 0.30947 0.85107 0.0
C1087 C 0.14742 0.28842 0.84192 0.0
C1088 C 0.20159 0.29921 0.8534 0.0
C1089 C 0.25084 0.27352 0.84831 0.0
H1090 H 0.21198 0.18405 0.86896 0.0
C1091 C 0.31439 0.19386 0.84793 0.0
C1092 C 0.3045 0.16952 0.86361 0.0
C1093 C 0.30105 0.21478 0.84755 0.0
C1094 C 0.22344 0.20925 0.86352 0.0
H1095 H 0.11754 0.24112 0.82679 0.0
H1096 H 0.15808 0.22348 0.83062 0.0
H1097 H 0.1771 0.20761 0.86239 0.0
H1098 H 0.27613 0.15013 0.8924 0.0
H1099 H 0.25402 0.1874 0.89232 0.0
H1100 H 0.29737 0.27484 0.84948 0.0
C1101 C 0.16413 0.24759 0.83641 0.0
C1102 C 0.20329 0.22259 0.85942 0.0
C1103 C 0.14095 0.25776 0.83413 0.0
C1104 C 0.28387 0.16856 0.88005 0.0
C1105 C 0.27103 0.18972 0.87988 0.0
C1106 C 0.27115 0.26004 0.85236 0.0
C1107 C 0.19429 0.26775 0.84663 0.0
C1108 C 0.21661 0.25467 0.85152 0.0
C1109 C 0.27794 0.21175 0.86298 0.0
C1110 C 0.25758 0.22766 0.85996 0.0
H1111 H 0.18396 0.33327 0.85722 0.0
H1112 H 0.22461 0.31525 0.86137 0.0
H1113 H 0.26176 0.29834 0.84222 0.0
H1114 H 0.33006 0.19483 0.83497 0.0
H1115 H 0.30685 0.23145 0.83431 0.0
C1116 C 0.29653 0.25591 0.1921 0.0
C1117 C 0.26461 0.25164 0.19204 0.0
C1118 C 0.30114 0.22876 0.18996 0.0
C1119 C 0.30194 0.16454 0.19675 0.0
H1120 H 0.24068 0.09335 0.16062 0.0
C1121 C 0.27803 0.03259 0.20494 0.0
C1122 C 0.26807 0.01182 0.18715 0.0
C1123 C 0.28348 0.06456 0.20335 0.0
C1124 C 0.25848 0.11315 0.17047 0.0
H1125 H 0.21252 0.21555 0.19058 0.0
H1126 H 0.22048 0.16852 0.1875 0.0
H1127 H 0.23906 0.14414 0.16185 0.0
H1128 H 0.25797 0.00888 0.15344 0.0
H1129 H 0.2684 0.06511 0.15048 0.0
H1130 H 0.32167 0.13359 0.20512 0.0
C1131 C 0.24204 0.19275 0.18847 0.0
C1132 C 0.25716 0.14215 0.17144 0.0
C1133 C 0.23747 0.21975 0.19043 0.0
C1134 C 0.26526 0.02421 0.16748 0.0
C1135 C 0.27109 0.05638 0.16582 0.0
C1136 C 0.30348 0.13557 0.19562 0.0
C1137 C 0.2739 0.1969 0.18784 0.0
C1138 C 0.27819 0.16781 0.18507 0.0
C1139 C 0.27946 0.07669 0.18386 0.0
C1140 C 0.28116 0.10917 0.18289 0.0
H1141 H 0.31791 0.28025 0.19323 0.0
H1142 H 0.32601 0.2328 0.18948 0.0
H1143 H 0.31851 0.18382 0.2074 0.0
H1144 H 0.28035 0.02378 0.22035 0.0
H1145 H 0.28938 0.07919 0.21765 0.0
C1146 C 0.24885 0.29529 0.53096 0.0
C1147 C 0.24817 0.27083 0.51775 0.0
C1148 C 0.22411 0.30359 0.52967 0.0
C1149 C 0.15402 0.29367 0.4966 0.0
H1150 H 0.11665 0.29756 0.55073 0.0
C1151 C 0.01945 0.25905 0.50708 0.0
C1152 C 0.01125 0.27731 0.52095 0.0
C1153 C 0.05187 0.26586 0.50524 0.0
C1154 C 0.12719 0.29725 0.53549 0.0
H1155 H 0.22183 0.23693 0.49215 0.0
H1156 H 0.17833 0.25093 0.49016 0.0
H1157 H 0.16761 0.29551 0.54986 0.0
H1158 H 0.03066 0.31757 0.54343 0.0
H1159 H 0.08781 0.32923 0.54047 0.0
H1160 H 0.11263 0.29384 0.48233 0.0
C1161 C 0.1982 0.26405 0.50135 0.0
C1162 C 0.15641 0.29607 0.53496 0.0
C1163 C 0.22302 0.25584 0.50258 0.0
C1164 C 0.03634 0.30311 0.53264 0.0
C1165 C 0.06892 0.30969 0.53099 0.0
C1166 C 0.12473 0.2947 0.49714 0.0
C1167 C 0.1981 0.28756 0.51518 0.0
C1168 C 0.16968 0.29336 0.51553 0.0
C1169 C 0.0769 0.29095 0.51734 0.0
C1170 C 0.11057 0.29557 0.51661 0.0
H1171 H 0.2681 0.30758 0.54267 0.0
H1172 H 0.22506 0.32219 0.5403 0.0
H1173 H 0.16396 0.29228 0.48136 0.0
H1174 H 0.00073 0.23925 0.49768 0.0
H1175 H 0.05716 0.2507 0.49482 0.0
C1176 C 0.76508 0.01712 0.85603 0.0
C1177 C 0.73286 0.01192 0.85697 0.0
C1178 C 0.7918 0.0486 0.85342 0.0
C1179 C 0.84227 0.11291 0.83511 0.0
H1180 H 0.84911 0.18773 0.8656 0.0
C1181 C 0.96161 0.23725 0.83126 0.0
C1182 C 0.97265 0.25348 0.85078 0.0
C1183 C 0.92924 0.21143 0.82906 0.0
C1184 C 0.84764 0.16707 0.857 0.0
H1185 H 0.70336 0.03575 0.85631 0.0
H1186 H 0.75038 0.09119 0.85135 0.0
H1187 H 0.79886 0.13461 0.86841 0.0
H1188 H 0.95813 0.25631 0.88305 0.0
H1189 H 0.90246 0.21074 0.87952 0.0
H1190 H 0.89161 0.14442 0.82485 0.0
C1191 C 0.75487 0.07078 0.85288 0.0
C1192 C 0.81862 0.13669 0.85841 0.0
C1193 C 0.72797 0.03908 0.85572 0.0
C1194 C 0.95036 0.24434 0.86776 0.0
C1195 C 0.91823 0.21827 0.86567 0.0
C1196 C 0.87133 0.14307 0.83392 0.0
C1197 C 0.78708 0.07579 0.8514 0.0
C1198 C 0.81599 0.10903 0.84796 0.0
C1199 C 0.9074 0.20098 0.84643 0.0
C1200 C 0.87475 0.17038 0.84527 0.0
H1201 H 0.76974 -0.00324 0.85724 0.0
H1202 H 0.81628 0.05159 0.85304 0.0
H1203 H 0.84077 0.09232 0.8264 0.0
H1204 H 0.97814 0.24407 0.8178 0.0
H1205 H 0.92158 0.19919 0.81386 0.0
C1206 C 0.69123 0.95326 0.17386 0.0
C1207 C 0.72304 0.98048 0.17173 0.0
C1208 C 0.68682 0.92169 0.17648 0.0
C1209 C 0.68388 0.8557 0.17054 0.0
H1210 H 0.75109 0.84791 0.20162 0.0
C1211 C 0.70354 0.74493 0.16146 0.0
C1212 C 0.71754 0.73629 0.17818 0.0
C1213 C 0.69866 0.77182 0.16336 0.0
C1214 C 0.73166 0.84933 0.19325 0.0
H1215 H 0.77502 -0.00407 0.16979 0.0
H1216 H 0.76734 0.94113 0.17357 0.0
H1217 H 0.75337 0.90055 0.19991 0.0
H1218 H 0.73516 0.74744 0.21057 0.0
H1219 H 0.72555 0.79376 0.21421 0.0
H1220 H 0.66178 0.80421 0.16429 0.0
C1221 C 0.7458 0.94404 0.17401 0.0
C1222 C 0.73333 0.87978 0.19193 0.0
C1223 C 0.75021 0.97548 0.17164 0.0
C1224 C 0.72472 0.75383 0.19732 0.0
C1225 C 0.71938 0.78048 0.19934 0.0
C1226 C 0.68198 0.82508 0.17207 0.0
C1227 C 0.71414 0.91679 0.17684 0.0
C1228 C 0.71004 0.88358 0.18004 0.0
C1229 C 0.70722 0.79044 0.18215 0.0
C1230 C 0.70635 0.82169 0.18298 0.0
H1231 H 0.66985 0.95645 0.17412 0.0
H1232 H 0.6621 0.90129 0.17873 0.0
H1233 H 0.66552 0.85771 0.16125 0.0
H1234 H 0.69783 0.73196 0.14648 0.0
H1235 H 0.68971 0.77891 0.14967 0.0
C1236 C 0.73556 0.68227 0.52845 0.0
C1237 C 0.73663 0.70785 0.51625 0.0
C1238 C 0.76101 0.67493 0.52718 0.0
C1239 C 0.8349 0.69096 0.49577 0.0
H1240 H 0.86957 0.68494 0.5504 0.0
C1241 C 0.97047 0.73154 0.50906 0.0
C1242 C 0.97895 0.71269 0.52217 0.0
C1243 C 0.93775 0.72367 0.50693 0.0
C1244 C 0.85985 0.68591 0.535 0.0
H1245 H 0.76424 0.74444 0.4922 0.0
H1246 H 0.80873 0.73203 0.49022 0.0
H1247 H 0.8169 0.68357 0.54861 0.0
H1248 H 0.95972 0.6706 0.5432 0.0
H1249 H 0.90213 0.65712 0.53972 0.0
H1250 H 0.87872 0.69489 0.48231 0.0
C1251 C 0.78816 0.71739 0.50066 0.0
C1252 C 0.82963 0.68508 0.53395 0.0
C1253 C 0.76273 0.7247 0.5019 0.0
C1254 C 0.9539 0.68558 0.533 0.0
C1255 C 0.92102 0.6779 0.53105 0.0
C1256 C 0.86516 0.69194 0.49684 0.0
C1257 C 0.78801 0.69297 0.51366 0.0
C1258 C 0.81729 0.68857 0.51437 0.0
C1259 C 0.91269 0.69692 0.51796 0.0
C1260 C 0.87838 0.69041 0.51653 0.0
H1261 H 0.71564 0.66861 0.53953 0.0
H1262 H 0.75992 0.65563 0.53716 0.0
H1263 H 0.82575 0.69303 0.48041 0.0
H1264 H 0.98912 0.75247 0.50038 0.0
H1265 H 0.93215 0.7391 0.49701 0.0
C1266 C 0.22288 0.98657 0.85608 0.0
C1267 C 0.2545 0.99029 0.85752 0.0
C1268 C 0.19531 0.95559 0.85351 0.0
C1269 C 0.14288 0.89113 0.83615 0.0
H1270 H 0.13368 0.8165 0.86806 0.0
C1271 C 0.02298 0.76628 0.8325 0.0
C1272 C 0.01141 0.75052 0.85212 0.0
C1273 C 0.05515 0.79263 0.83057 0.0
C1274 C 0.13582 0.83712 0.85906 0.0
H1275 H 0.28201 0.96437 0.85757 0.0
H1276 H 0.23362 0.90994 0.85273 0.0
H1277 H 0.18475 0.86889 0.87035 0.0
H1278 H 0.0247 0.7495 0.88496 0.0
H1279 H 0.08002 0.79578 0.88179 0.0
H1280 H 0.09335 0.86013 0.8259 0.0
C1281 C 0.2302 0.93108 0.85387 0.0
C1282 C 0.16529 0.86707 0.86017 0.0
C1283 C 0.25792 0.96222 0.85663 0.0
C1284 C 0.03286 0.76102 0.86958 0.0
C1285 C 0.0648 0.78747 0.86771 0.0
C1286 C 0.11334 0.86134 0.83521 0.0
C1287 C 0.19859 0.92747 0.85209 0.0
C1288 C 0.16885 0.89467 0.84914 0.0
C1289 C 0.07626 0.80393 0.84827 0.0
C1290 C 0.10913 0.83416 0.84705 0.0
H1291 H 0.21935 0.00767 0.85692 0.0
H1292 H 0.17131 0.9537 0.85281 0.0
H1293 H 0.14506 0.91168 0.82704 0.0
H1294 H 0.00709 0.75853 0.81871 0.0
H1295 H 0.06332 0.80439 0.81526 0.0
loop_
_geom_bond_atom_site_label_1
_geom_bond_atom_site_label_2
_geom_bond_distance
_geom_bond_site_symmetry_2
_ccdc_geom_bond_type
Co0 N4 2.148 . S
Co0 N10 2.128 . S
Co0 N20 2.194 . S
Co0 O25 2.351 . S
Co0 O26 2.155 . S
Co0 O27 2.096 . S
C1 N4 1.301 . S
C1 N5 1.328 . S
C1 H6 0.930 . S
C2 C3 1.333 . S
C2 N4 1.317 . S
C2 H7 0.930 . S
C3 C2 1.333 . S
C3 N5 1.350 . S
C3 H29 0.931 . S
N4 Co0 2.148 . S
N4 C1 1.301 . S
N4 C2 1.317 . S
N5 C1 1.328 . S
N5 C3 1.350 . S
H6 C1 0.930 . S
H7 C2 0.930 . S
C8 O9 1.224 . S
C8 O27 1.247 . S
O9 C8 1.224 . S
N10 Co0 2.128 . S
N10 C11 1.355 . S
N10 C13 1.311 . S
C11 N10 1.355 . S
C11 C12 1.363 . S
C11 H23 0.929 . S
C12 C11 1.363 . S
C12 N14 1.375 . S
C12 H30 0.931 . S
C13 N10 1.311 . S
C13 N14 1.347 . S
C13 H24 0.929 . S
N14 C12 1.375 . S
N14 C13 1.347 . S
C15 C18 1.365 . S
C15 N20 1.328 . S
C15 H21 0.929 . S
C16 C17 1.362 . S
C16 C19 1.378 . S
C16 H31 0.929 . S
C17 C16 1.362 . S
C17 C18 1.366 . S
C18 C15 1.365 . S
C18 C17 1.366 . S
C18 H32 0.930 . S
C19 C16 1.378 . S
C19 N20 1.315 . S
C19 H22 0.930 . S
N20 Co0 2.194 . S
N20 C15 1.328 . S
N20 C19 1.315 . S
H21 C15 0.929 . S
H22 C19 0.930 . S
H23 C11 0.929 . S
H24 C13 0.929 . S
O25 Co0 2.351 . S
O25 C28 1.244 . S
O26 Co0 2.155 . S
O26 C28 1.240 . S
O27 Co0 2.096 . S
O27 C8 1.247 . S
C28 O25 1.244 . S
C28 O26 1.240 . S
H29 C3 0.931 . S
H30 C12 0.931 . S
H31 C16 0.929 . S
H32 C18 0.930 . S
Co33 N37 2.148 . S
Co33 N43 2.128 . S
Co33 N53 2.194 . S
Co33 O58 2.351 . S
Co33 O59 2.155 . S
Co33 O60 2.096 . S
C34 N37 1.301 . S
C34 N38 1.328 . S
C34 H39 0.930 . S
C35 C36 1.333 . S
C35 N37 1.317 . S
C35 H40 0.930 . S
C36 C35 1.333 . S
C36 N38 1.350 . S
C36 H62 0.931 . S
N37 Co33 2.148 . S
N37 C34 1.301 . S
N37 C35 1.317 . S
N38 C34 1.328 . S
N38 C36 1.350 . S
H39 C34 0.930 . S
H40 C35 0.930 . S
C41 O42 1.224 . S
C41 O60 1.247 . S
O42 C41 1.224 . S
N43 Co33 2.128 . S
N43 C44 1.355 . S
N43 C46 1.311 . S
C44 N43 1.355 . S
C44 C45 1.363 . S
C44 H56 0.929 . S
C45 C44 1.363 . S
C45 N47 1.375 . S
C45 H63 0.931 . S
C46 N43 1.311 . S
C46 N47 1.347 . S
C46 H57 0.929 . S
N47 C45 1.375 . S
N47 C46 1.347 . S
C48 C51 1.365 . S
C48 N53 1.328 . S
C48 H54 0.929 . S
C49 C50 1.362 . S
C49 C52 1.378 . S
C49 H64 0.929 . S
C50 C49 1.362 . S
C50 C51 1.366 . S
C51 C48 1.365 . S
C51 C50 1.366 . S
C51 H65 0.930 . S
C52 C49 1.378 . S
C52 N53 1.315 . S
C52 H55 0.930 . S
N53 Co33 2.194 . S
N53 C48 1.328 . S
N53 C52 1.315 . S
H54 C48 0.929 . S
H55 C52 0.930 . S
H56 C44 0.929 . S
H57 C46 0.929 . S
O58 Co33 2.351 . S
O58 C61 1.244 . S
O59 Co33 2.155 . S
O59 C61 1.240 . S
O60 Co33 2.096 . S
O60 C41 1.247 . S
C61 O58 1.244 . S
C61 O59 1.240 . S
H62 C36 0.931 . S
H63 C45 0.931 . S
H64 C49 0.929 . S
H65 C51 0.930 . S
Co66 N70 2.148 . S
Co66 N76 2.128 . S
Co66 N86 2.194 . S
Co66 O91 2.351 . S
Co66 O92 2.155 . S
Co66 O93 2.096 . S
C67 N70 1.301 . S
C67 N71 1.328 . S
C67 H72 0.930 . S
C68 C69 1.333 . S
C68 N70 1.317 . S
C68 H73 0.930 . S
C69 C68 1.333 . S
C69 N71 1.350 . S
C69 H95 0.931 . S
N70 Co66 2.148 . S
N70 C67 1.301 . S
N70 C68 1.317 . S
N71 C67 1.328 . S
N71 C69 1.350 . S
H72 C67 0.930 . S
H73 C68 0.930 . S
C74 O75 1.224 . S
C74 O93 1.247 . S
O75 C74 1.224 . S
N76 Co66 2.128 . S
N76 C77 1.355 . S
N76 C79 1.311 . S
C77 N76 1.355 . S
C77 C78 1.363 . S
C77 H89 0.929 . S
C78 C77 1.363 . S
C78 N80 1.375 . S
C78 H96 0.931 . S
C79 N76 1.311 . S
C79 N80 1.347 . S
C79 H90 0.929 . S
N80 C78 1.375 . S
N80 C79 1.347 . S
C81 C84 1.365 . S
C81 N86 1.328 . S
C81 H87 0.929 . S
C82 C83 1.362 . S
C82 C85 1.378 . S
C82 H97 0.929 . S
C83 C82 1.362 . S
C83 C84 1.366 . S
C84 C81 1.365 . S
C84 C83 1.366 . S
C84 H98 0.930 . S
C85 C82 1.378 . S
C85 N86 1.315 . S
C85 H88 0.930 . S
N86 Co66 2.194 . S
N86 C81 1.328 . S
N86 C85 1.315 . S
H87 C81 0.929 . S
H88 C85 0.930 . S
H89 C77 0.929 . S
H90 C79 0.929 . S
O91 Co66 2.351 . S
O91 C94 1.244 . S
O92 Co66 2.155 . S
O92 C94 1.240 . S
O93 Co66 2.096 . S
O93 C74 1.247 . S
C94 O91 1.244 . S
C94 O92 1.240 . S
H95 C69 0.931 . S
H96 C78 0.931 . S
H97 C82 0.929 . S
H98 C84 0.930 . S
Co99 N103 2.148 . S
Co99 N109 2.128 . S
Co99 N119 2.194 . S
Co99 O124 2.351 . S
Co99 O125 2.155 . S
Co99 O126 2.096 . S
C100 N103 1.301 . S
C100 N104 1.328 . S
C100 H105 0.930 . S
C101 C102 1.333 . S
C101 N103 1.317 . S
C101 H106 0.930 . S
C102 C101 1.333 . S
C102 N104 1.350 . S
C102 H128 0.931 . S
N103 Co99 2.148 . S
N103 C100 1.301 . S
N103 C101 1.317 . S
N104 C100 1.328 . S
N104 C102 1.350 . S
H105 C100 0.930 . S
H106 C101 0.930 . S
C107 O108 1.224 . S
C107 O126 1.247 . S
O108 C107 1.224 . S
N109 Co99 2.128 . S
N109 C110 1.355 . S
N109 C112 1.311 . S
C110 N109 1.355 . S
C110 C111 1.363 . S
C110 H122 0.929 . S
C111 C110 1.363 . S
C111 N113 1.375 . S
C111 H129 0.931 . S
C112 N109 1.311 . S
C112 N113 1.347 . S
C112 H123 0.929 . S
N113 C111 1.375 . S
N113 C112 1.347 . S
C114 C117 1.365 . S
C114 N119 1.328 . S
C114 H120 0.929 . S
C115 C116 1.362 . S
C115 C118 1.378 . S
C115 H130 0.929 . S
C116 C115 1.362 . S
C116 C117 1.366 . S
C117 C114 1.365 . S
C117 C116 1.366 . S
C117 H131 0.930 . S
C118 C115 1.378 . S
C118 N119 1.315 . S
C118 H121 0.930 . S
N119 Co99 2.194 . S
N119 C114 1.328 . S
N119 C118 1.315 . S
H120 C114 0.929 . S
H121 C118 0.930 . S
H122 C110 0.929 . S
H123 C112 0.929 . S
O124 Co99 2.351 . S
O124 C127 1.244 . S
O125 Co99 2.155 . S
O125 C127 1.240 . S
O126 Co99 2.096 . S
O126 C107 1.247 . S
C127 O124 1.244 . S
C127 O125 1.240 . S
H128 C102 0.931 . S
H129 C111 0.931 . S
H130 C115 0.929 . S
H131 C117 0.930 . S
Co132 N136 2.148 . S
Co132 N142 2.128 . S
Co132 N152 2.194 . S
Co132 O157 2.351 . S
Co132 O158 2.155 . S
Co132 O159 2.096 . S
C133 N136 1.301 . S
C133 N137 1.328 . S
C133 H138 0.930 . S
C134 C135 1.333 . S
C134 N136 1.317 . S
C134 H139 0.930 . S
C135 C134 1.333 . S
C135 N137 1.350 . S
C135 H161 0.931 . S
N136 Co132 2.148 . S
N136 C133 1.301 . S
N136 C134 1.317 . S
N137 C133 1.328 . S
N137 C135 1.350 . S
H138 C133 0.930 . S
H139 C134 0.930 . S
C140 O141 1.224 . S
C140 O159 1.247 . S
O141 C140 1.224 . S
N142 Co132 2.128 . S
N142 C143 1.355 . S
N142 C145 1.311 . S
C143 N142 1.355 . S
C143 C144 1.363 . S
C143 H155 0.929 . S
C144 C143 1.363 . S
C144 N146 1.375 . S
C144 H162 0.931 . S
C145 N142 1.311 . S
C145 N146 1.347 . S
C145 H156 0.929 . S
N146 C144 1.375 . S
N146 C145 1.347 . S
C147 C150 1.365 . S
C147 N152 1.328 . S
C147 H153 0.929 . S
C148 C149 1.362 . S
C148 C151 1.378 . S
C148 H163 0.929 . S
C149 C148 1.362 . S
C149 C150 1.366 . S
C150 C147 1.365 . S
C150 C149 1.366 . S
C150 H164 0.930 . S
C151 C148 1.378 . S
C151 N152 1.315 . S
C151 H154 0.930 . S
N152 Co132 2.194 . S
N152 C147 1.328 . S
N152 C151 1.315 . S
H153 C147 0.929 . S
H154 C151 0.930 . S
H155 C143 0.929 . S
H156 C145 0.929 . S
O157 Co132 2.351 . S
O157 C160 1.244 . S
O158 Co132 2.155 . S
O158 C160 1.240 . S
O159 Co132 2.096 . S
O159 C140 1.247 . S
C160 O157 1.244 . S
C160 O158 1.240 . S
H161 C135 0.931 . S
H162 C144 0.931 . S
H163 C148 0.929 . S
H164 C150 0.930 . S
Co165 N169 2.148 . S
Co165 N175 2.128 . S
Co165 N185 2.194 . S
Co165 O190 2.351 . S
Co165 O191 2.155 . S
Co165 O192 2.096 . S
C166 N169 1.301 . S
C166 N170 1.328 . S
C166 H171 0.930 . S
C167 C168 1.333 . S
C167 N169 1.317 . S
C167 H172 0.930 . S
C168 C167 1.333 . S
C168 N170 1.350 . S
C168 H194 0.931 . S
N169 Co165 2.148 . S
N169 C166 1.301 . S
N169 C167 1.317 . S
N170 C166 1.328 . S
N170 C168 1.350 . S
H171 C166 0.930 . S
H172 C167 0.930 . S
C173 O174 1.224 . S
C173 O192 1.247 . S
O174 C173 1.224 . S
N175 Co165 2.128 . S
N175 C176 1.355 . S
N175 C178 1.311 . S
C176 N175 1.355 . S
C176 C177 1.363 . S
C176 H188 0.929 . S
C177 C176 1.363 . S
C177 N179 1.375 . S
C177 H195 0.931 . S
C178 N175 1.311 . S
C178 N179 1.347 . S
C178 H189 0.929 . S
N179 C177 1.375 . S
N179 C178 1.347 . S
C180 C183 1.365 . S
C180 N185 1.328 . S
C180 H186 0.929 . S
C181 C182 1.362 . S
C181 C184 1.378 . S
C181 H196 0.929 . S
C182 C181 1.362 . S
C182 C183 1.366 . S
C183 C180 1.365 . S
C183 C182 1.366 . S
C183 H197 0.930 . S
C184 C181 1.378 . S
C184 N185 1.315 . S
C184 H187 0.930 . S
N185 Co165 2.194 . S
N185 C180 1.328 . S
N185 C184 1.315 . S
H186 C180 0.929 . S
H187 C184 0.930 . S
H188 C176 0.929 . S
H189 C178 0.929 . S
O190 Co165 2.351 . S
O190 C193 1.244 . S
O191 Co165 2.155 . S
O191 C193 1.240 . S
O192 Co165 2.096 . S
O192 C173 1.247 . S
C193 O190 1.244 . S
C193 O191 1.240 . S
H194 C168 0.931 . S
H195 C177 0.931 . S
H196 C181 0.929 . S
H197 C183 0.930 . S
Co198 N202 2.148 . S
Co198 N208 2.128 . S
Co198 N218 2.194 . S
Co198 O223 2.351 . S
Co198 O224 2.155 . S
Co198 O225 2.096 . S
C199 N202 1.301 . S
C199 N203 1.328 . S
C199 H204 0.930 . S
C200 C201 1.333 . S
C200 N202 1.317 . S
C200 H205 0.930 . S
C201 C200 1.333 . S
C201 N203 1.350 . S
C201 H227 0.931 . S
N202 Co198 2.148 . S
N202 C199 1.301 . S
N202 C200 1.317 . S
N203 C199 1.328 . S
N203 C201 1.350 . S
H204 C199 0.930 . S
H205 C200 0.930 . S
C206 O207 1.224 . S
C206 O225 1.247 . S
O207 C206 1.224 . S
N208 Co198 2.128 . S
N208 C209 1.355 . S
N208 C211 1.311 . S
C209 N208 1.355 . S
C209 C210 1.363 . S
C209 H221 0.929 . S
C210 C209 1.363 . S
C210 N212 1.375 . S
C210 H228 0.931 . S
C211 N208 1.311 . S
C211 N212 1.347 . S
C211 H222 0.929 . S
N212 C210 1.375 . S
N212 C211 1.347 . S
C213 C216 1.365 . S
C213 N218 1.328 . S
C213 H219 0.929 . S
C214 C215 1.362 . S
C214 C217 1.378 . S
C214 H229 0.929 . S
C215 C214 1.362 . S
C215 C216 1.366 . S
C216 C213 1.365 . S
C216 C215 1.366 . S
C216 H230 0.930 . S
C217 C214 1.378 . S
C217 N218 1.315 . S
C217 H220 0.930 . S
N218 Co198 2.194 . S
N218 C213 1.328 . S
N218 C217 1.315 . S
H219 C213 0.929 . S
H220 C217 0.930 . S
H221 C209 0.929 . S
H222 C211 0.929 . S
O223 Co198 2.351 . S
O223 C226 1.244 . S
O224 Co198 2.155 . S
O224 C226 1.240 . S
O225 Co198 2.096 . S
O225 C206 1.247 . S
C226 O223 1.244 . S
C226 O224 1.240 . S
H227 C201 0.931 . S
H228 C210 0.931 . S
H229 C214 0.929 . S
H230 C216 0.930 . S
Co231 N235 2.148 . S
Co231 N241 2.128 . S
Co231 N251 2.194 . S
Co231 O256 2.351 . S
Co231 O257 2.155 . S
Co231 O258 2.096 . S
C232 N235 1.301 . S
C232 N236 1.328 . S
C232 H237 0.930 . S
C233 C234 1.333 . S
C233 N235 1.317 . S
C233 H238 0.930 . S
C234 C233 1.333 . S
C234 N236 1.350 . S
C234 H260 0.931 . S
N235 Co231 2.148 . S
N235 C232 1.301 . S
N235 C233 1.317 . S
N236 C232 1.328 . S
N236 C234 1.350 . S
H237 C232 0.930 . S
H238 C233 0.930 . S
C239 O240 1.224 . S
C239 O258 1.247 . S
O240 C239 1.224 . S
N241 Co231 2.128 . S
N241 C242 1.355 . S
N241 C244 1.311 . S
C242 N241 1.355 . S
C242 C243 1.363 . S
C242 H254 0.929 . S
C243 C242 1.363 . S
C243 N245 1.375 . S
C243 H261 0.931 . S
C244 N241 1.311 . S
C244 N245 1.347 . S
C244 H255 0.929 . S
N245 C243 1.375 . S
N245 C244 1.347 . S
C246 C249 1.365 . S
C246 N251 1.328 . S
C246 H252 0.929 . S
C247 C248 1.362 . S
C247 C250 1.378 . S
C247 H262 0.929 . S
C248 C247 1.362 . S
C248 C249 1.366 . S
C249 C246 1.365 . S
C249 C248 1.366 . S
C249 H263 0.930 . S
C250 C247 1.378 . S
C250 N251 1.315 . S
C250 H253 0.930 . S
N251 Co231 2.194 . S
N251 C246 1.328 . S
N251 C250 1.315 . S
H252 C246 0.929 . S
H253 C250 0.930 . S
H254 C242 0.929 . S
H255 C244 0.929 . S
O256 Co231 2.351 . S
O256 C259 1.244 . S
O257 Co231 2.155 . S
O257 C259 1.240 . S
O258 Co231 2.096 . S
O258 C239 1.247 . S
C259 O256 1.244 . S
C259 O257 1.240 . S
H260 C234 0.931 . S
H261 C243 0.931 . S
H262 C247 0.929 . S
H263 C249 0.930 . S
Co264 N268 2.148 . S
Co264 N274 2.128 . S
Co264 N284 2.194 . S
Co264 O289 2.351 . S
Co264 O290 2.155 . S
Co264 O291 2.096 . S
C265 N268 1.301 . S
C265 N269 1.328 . S
C265 H270 0.930 . S
C266 C267 1.333 . S
C266 N268 1.317 . S
C266 H271 0.930 . S
C267 C266 1.333 . S
C267 N269 1.350 . S
C267 H293 0.931 . S
N268 Co264 2.148 . S
N268 C265 1.301 . S
N268 C266 1.317 . S
N269 C265 1.328 . S
N269 C267 1.350 . S
H270 C265 0.930 . S
H271 C266 0.930 . S
C272 O273 1.224 . S
C272 O291 1.247 . S
O273 C272 1.224 . S
N274 Co264 2.128 . S
N274 C275 1.355 . S
N274 C277 1.311 . S
C275 N274 1.355 . S
C275 C276 1.363 . S
C275 H287 0.929 . S
C276 C275 1.363 . S
C276 N278 1.375 . S
C276 H294 0.931 . S
C277 N274 1.311 . S
C277 N278 1.347 . S
C277 H288 0.929 . S
N278 C276 1.375 . S
N278 C277 1.347 . S
C279 C282 1.365 . S
C279 N284 1.328 . S
C279 H285 0.929 . S
C280 C281 1.362 . S
C280 C283 1.378 . S
C280 H295 0.929 . S
C281 C280 1.362 . S
C281 C282 1.366 . S
C282 C279 1.365 . S
C282 C281 1.366 . S
C282 H296 0.930 . S
C283 C280 1.378 . S
C283 N284 1.315 . S
C283 H286 0.930 . S
N284 Co264 2.194 . S
N284 C279 1.328 . S
N284 C283 1.315 . S
H285 C279 0.929 . S
H286 C283 0.930 . S
H287 C275 0.929 . S
H288 C277 0.929 . S
O289 Co264 2.351 . S
O289 C292 1.244 . S
O290 Co264 2.155 . S
O290 C292 1.240 . S
O291 Co264 2.096 . S
O291 C272 1.247 . S
C292 O289 1.244 . S
C292 O290 1.240 . S
H293 C267 0.931 . S
H294 C276 0.931 . S
H295 C280 0.929 . S
H296 C282 0.930 . S
Co297 N301 2.148 . S
Co297 N307 2.128 . S
Co297 N317 2.194 . S
Co297 O322 2.351 . S
Co297 O323 2.155 . S
Co297 O324 2.096 . S
C298 N301 1.301 . S
C298 N302 1.328 . S
C298 H303 0.930 . S
C299 C300 1.333 . S
C299 N301 1.317 . S
C299 H304 0.930 . S
C300 C299 1.333 . S
C300 N302 1.350 . S
C300 H326 0.931 . S
N301 Co297 2.148 . S
N301 C298 1.301 . S
N301 C299 1.317 . S
N302 C298 1.328 . S
N302 C300 1.350 . S
H303 C298 0.930 . S
H304 C299 0.930 . S
C305 O306 1.224 . S
C305 O324 1.247 . S
O306 C305 1.224 . S
N307 Co297 2.128 . S
N307 C308 1.355 . S
N307 C310 1.311 . S
C308 N307 1.355 . S
C308 C309 1.363 . S
C308 H320 0.929 . S
C309 C308 1.363 . S
C309 N311 1.375 . S
C309 H327 0.931 . S
C310 N307 1.311 . S
C310 N311 1.347 . S
C310 H321 0.929 . S
N311 C309 1.375 . S
N311 C310 1.347 . S
C312 C315 1.365 . S
C312 N317 1.328 . S
C312 H318 0.929 . S
C313 C314 1.362 . S
C313 C316 1.378 . S
C313 H328 0.929 . S
C314 C313 1.362 . S
C314 C315 1.366 . S
C315 C312 1.365 . S
C315 C314 1.366 . S
C315 H329 0.930 . S
C316 C313 1.378 . S
C316 N317 1.315 . S
C316 H319 0.930 . S
N317 Co297 2.194 . S
N317 C312 1.328 . S
N317 C316 1.315 . S
H318 C312 0.929 . S
H319 C316 0.930 . S
H320 C308 0.929 . S
H321 C310 0.929 . S
O322 Co297 2.351 . S
O322 C325 1.244 . S
O323 Co297 2.155 . S
O323 C325 1.240 . S
O324 Co297 2.096 . S
O324 C305 1.247 . S
C325 O322 1.244 . S
C325 O323 1.240 . S
H326 C300 0.931 . S
H327 C309 0.931 . S
H328 C313 0.929 . S
H329 C315 0.930 . S
Co330 N334 2.148 . S
Co330 N340 2.128 . S
Co330 N350 2.194 . S
Co330 O355 2.351 . S
Co330 O356 2.155 . S
Co330 O357 2.096 . S
C331 N334 1.301 . S
C331 N335 1.328 . S
C331 H336 0.930 . S
C332 C333 1.333 . S
C332 N334 1.317 . S
C332 H337 0.930 . S
C333 C332 1.333 . S
C333 N335 1.350 . S
C333 H359 0.931 . S
N334 Co330 2.148 . S
N334 C331 1.301 . S
N334 C332 1.317 . S
N335 C331 1.328 . S
N335 C333 1.350 . S
H336 C331 0.930 . S
H337 C332 0.930 . S
C338 O339 1.224 . S
C338 O357 1.247 . S
O339 C338 1.224 . S
N340 Co330 2.128 . S
N340 C341 1.355 . S
N340 C343 1.311 . S
C341 N340 1.355 . S
C341 C342 1.363 . S
C341 H353 0.929 . S
C342 C341 1.363 . S
C342 N344 1.375 . S
C342 H360 0.931 . S
C343 N340 1.311 . S
C343 N344 1.347 . S
C343 H354 0.929 . S
N344 C342 1.375 . S
N344 C343 1.347 . S
C345 C348 1.365 . S
C345 N350 1.328 . S
C345 H351 0.929 . S
C346 C347 1.362 . S
C346 C349 1.378 . S
C346 H361 0.929 . S
C347 C346 1.362 . S
C347 C348 1.366 . S
C348 C345 1.365 . S
C348 C347 1.366 . S
C348 H362 0.930 . S
C349 C346 1.378 . S
C349 N350 1.315 . S
C349 H352 0.930 . S
N350 Co330 2.194 . S
N350 C345 1.328 . S
N350 C349 1.315 . S
H351 C345 0.929 . S
H352 C349 0.930 . S
H353 C341 0.929 . S
H354 C343 0.929 . S
O355 Co330 2.351 . S
O355 C358 1.244 . S
O356 Co330 2.155 . S
O356 C358 1.240 . S
O357 Co330 2.096 . S
O357 C338 1.247 . S
C358 O355 1.244 . S
C358 O356 1.240 . S
H359 C333 0.931 . S
H360 C342 0.931 . S
H361 C346 0.929 . S
H362 C348 0.930 . S
Co363 N367 2.148 . S
Co363 N373 2.128 . S
Co363 N383 2.194 . S
Co363 O388 2.351 . S
Co363 O389 2.155 . S
Co363 O390 2.096 . S
C364 N367 1.301 . S
C364 N368 1.328 . S
C364 H369 0.930 . S
C365 C366 1.333 . S
C365 N367 1.317 . S
C365 H370 0.930 . S
C366 C365 1.333 . S
C366 N368 1.350 . S
C366 H392 0.931 . S
N367 Co363 2.148 . S
N367 C364 1.301 . S
N367 C365 1.317 . S
N368 C364 1.328 . S
N368 C366 1.350 . S
H369 C364 0.930 . S
H370 C365 0.930 . S
C371 O372 1.224 . S
C371 O390 1.247 . S
O372 C371 1.224 . S
N373 Co363 2.128 . S
N373 C374 1.355 . S
N373 C376 1.311 . S
C374 N373 1.355 . S
C374 C375 1.363 . S
C374 H386 0.929 . S
C375 C374 1.363 . S
C375 N377 1.375 . S
C375 H393 0.931 . S
C376 N373 1.311 . S
C376 N377 1.347 . S
C376 H387 0.929 . S
N377 C375 1.375 . S
N377 C376 1.347 . S
C378 C381 1.365 . S
C378 N383 1.328 . S
C378 H384 0.929 . S
C379 C380 1.362 . S
C379 C382 1.378 . S
C379 H394 0.929 . S
C380 C379 1.362 . S
C380 C381 1.366 . S
C381 C378 1.365 . S
C381 C380 1.366 . S
C381 H395 0.930 . S
C382 C379 1.378 . S
C382 N383 1.315 . S
C382 H385 0.930 . S
N383 Co363 2.194 . S
N383 C378 1.328 . S
N383 C382 1.315 . S
H384 C378 0.929 . S
H385 C382 0.930 . S
H386 C374 0.929 . S
H387 C376 0.929 . S
O388 Co363 2.351 . S
O388 C391 1.244 . S
O389 Co363 2.155 . S
O389 C391 1.240 . S
O390 Co363 2.096 . S
O390 C371 1.247 . S
C391 O388 1.244 . S
C391 O389 1.240 . S
H392 C366 0.931 . S
H393 C375 0.931 . S
H394 C379 0.929 . S
H395 C381 0.930 . S
C396 C397 1.349 . S
C396 C398 1.327 . S
C396 H421 0.950 . S
C397 C396 1.349 . S
C397 C413 1.349 . S
C398 C396 1.327 . S
C398 C417 1.429 . S
C398 H422 0.950 . S
C399 C416 1.574 . S
C399 C418 1.368 . S
C399 H423 0.949 . S
H400 C404 0.949 . S
C401 C402 1.349 . S
C401 C403 1.327 . S
C401 H424 0.950 . S
C402 C401 1.349 . S
C402 C414 1.349 . S
C403 C401 1.327 . S
C403 C419 1.429 . S
C403 H425 0.950 . S
C404 H400 0.949 . S
C404 C412 1.574 . S
C404 C420 1.368 . S
H405 C413 0.950 . S
H406 C411 0.950 . S
H407 C412 0.949 . S
H408 C414 0.950 . S
H409 C415 0.950 . S
H410 C416 0.949 . S
C411 H406 0.950 . S
C411 C413 1.327 . S
C411 C417 1.429 . S
C412 C404 1.574 . S
C412 H407 0.949 . S
C412 C418 1.368 . S
C413 C397 1.349 . S
C413 H405 0.950 . S
C413 C411 1.327 . S
C414 C402 1.349 . S
C414 H408 0.950 . S
C414 C415 1.327 . S
C415 H409 0.950 . S
C415 C414 1.327 . S
C415 C419 1.429 . S
C416 C399 1.574 . S
C416 H410 0.949 . S
C416 C420 1.368 . S
C417 C398 1.429 . S
C417 C411 1.429 . S
C417 C418 1.523 . S
C418 C399 1.368 . S
C418 C412 1.368 . S
C418 C417 1.523 . S
C419 C403 1.429 . S
C419 C415 1.429 . S
C419 C420 1.523 . S
C420 C404 1.368 . S
C420 C416 1.368 . S
C420 C419 1.523 . S
H421 C396 0.950 . S
H422 C398 0.950 . S
H423 C399 0.949 . S
H424 C401 0.950 . S
H425 C403 0.950 . S
C426 C427 1.349 . S
C426 C428 1.324 1_655 S
C426 H451 0.950 1_655 S
C427 C426 1.349 . S
C427 C443 1.349 . S
C428 C426 1.324 1_455 S
C428 C447 1.421 1_455 S
C428 H452 0.960 . S
C429 C446 1.574 . S
C429 C448 1.368 . S
C429 H453 0.949 . S
H430 C434 0.949 . S
C431 C432 1.349 . S
C431 C433 1.324 1_455 S
C431 H454 0.950 1_455 S
C432 C431 1.349 . S
C432 C444 1.349 . S
C433 C431 1.324 1_655 S
C433 C449 1.422 1_655 S
C433 H455 0.959 . S
C434 H430 0.949 . S
C434 C442 1.574 . S
C434 C450 1.368 . S
H435 C443 0.950 . S
H436 C441 0.950 . S
H437 C442 0.949 . S
H438 C444 0.950 . S
H439 C445 0.950 . S
H440 C446 0.949 . S
C441 H436 0.950 . S
C441 C443 1.327 . S
C441 C447 1.429 . S
C442 C434 1.574 . S
C442 H437 0.949 . S
C442 C448 1.368 1_455 S
C443 C427 1.349 . S
C443 H435 0.950 . S
C443 C441 1.327 . S
C444 C432 1.349 . S
C444 H438 0.950 . S
C444 C445 1.327 . S
C445 H439 0.950 . S
C445 C444 1.327 . S
C445 C449 1.429 . S
C446 C429 1.574 . S
C446 H440 0.949 . S
C446 C450 1.368 1_655 S
C447 C428 1.421 1_655 S
C447 C441 1.429 . S
C447 C448 1.523 . S
C448 C429 1.368 . S
C448 C442 1.368 1_655 S
C448 C447 1.523 . S
C449 C433 1.422 1_455 S
C449 C445 1.429 . S
C449 C450 1.523 . S
C450 C434 1.368 . S
C450 C446 1.368 1_455 S
C450 C449 1.523 . S
H451 C426 0.950 1_455 S
H452 C428 0.960 . S
H453 C429 0.949 . S
H454 C431 0.950 1_655 S
H455 C433 0.959 . S
C456 C457 1.349 . S
C456 C458 1.327 1_565 S
C456 H481 0.950 1_565 S
C457 C456 1.349 . S
C457 C473 1.349 . S
C458 C456 1.327 1_545 S
C458 C477 1.429 1_545 S
C458 H482 0.950 . S
C459 C476 1.574 1_556 S
C459 C478 1.368 . S
C459 H483 0.949 . S
H460 C464 0.949 . S
C461 C462 1.349 . S
C461 C463 1.327 1_545 S
C461 H484 0.950 1_545 S
C462 C461 1.349 . S
C462 C474 1.349 . S
C463 C461 1.327 1_565 S
C463 C479 1.429 1_565 S
C463 H485 0.950 . S
C464 H460 0.949 . S
C464 C472 1.574 1_554 S
C464 C480 1.368 . S
H465 C473 0.950 . S
H466 C471 0.950 . S
H467 C472 0.949 . S
H468 C474 0.950 . S
H469 C475 0.950 . S
H470 C476 0.949 . S
C471 H466 0.950 . S
C471 C473 1.327 . S
C471 C477 1.429 . S
C472 C464 1.574 1_556 S
C472 H467 0.949 . S
C472 C478 1.368 1_545 S
C473 C457 1.349 . S
C473 H465 0.950 . S
C473 C471 1.327 . S
C474 C462 1.349 . S
C474 H468 0.950 . S
C474 C475 1.327 . S
C475 H469 0.950 . S
C475 C474 1.327 . S
C475 C479 1.429 . S
C476 C459 1.574 1_554 S
C476 H470 0.949 . S
C476 C480 1.368 1_565 S
C477 C458 1.429 1_565 S
C477 C471 1.429 . S
C477 C478 1.523 . S
C478 C459 1.368 . S
C478 C472 1.368 1_565 S
C478 C477 1.523 . S
C479 C463 1.429 1_545 S
C479 C475 1.429 . S
C479 C480 1.523 . S
C480 C464 1.368 . S
C480 C476 1.368 1_545 S
C480 C479 1.523 . S
H481 C456 0.950 1_545 S
H482 C458 0.950 . S
H483 C459 0.949 . S
H484 C461 0.950 1_565 S
H485 C463 0.950 . S
C486 C487 1.349 . S
C486 C488 1.327 . S
C486 H511 0.950 . S
C487 C486 1.349 . S
C487 C503 1.349 . S
C488 C486 1.327 . S
C488 C507 1.429 . S
C488 H512 0.950 . S
C489 C506 1.574 . S
C489 C508 1.368 . S
C489 H513 0.949 . S
H490 C494 0.949 . S
C491 C492 1.349 . S
C491 C493 1.327 . S
C491 H514 0.950 . S
C492 C491 1.349 . S
C492 C504 1.349 . S
C493 C491 1.327 . S
C493 C509 1.429 . S
C493 H515 0.950 . S
C494 H490 0.949 . S
C494 C502 1.574 . S
C494 C510 1.368 . S
H495 C503 0.950 . S
H496 C501 0.950 . S
H497 C502 0.949 . S
H498 C504 0.950 . S
H499 C505 0.950 . S
H500 C506 0.949 . S
C501 H496 0.950 . S
C501 C503 1.327 . S
C501 C507 1.429 . S
C502 C494 1.574 . S
C502 H497 0.949 . S
C502 C508 1.368 . S
C503 C487 1.349 . S
C503 H495 0.950 . S
C503 C501 1.327 . S
C504 C492 1.349 . S
C504 H498 0.950 . S
C504 C505 1.327 . S
C505 H499 0.950 . S
C505 C504 1.327 . S
C505 C509 1.429 . S
C506 C489 1.574 . S
C506 H500 0.949 . S
C506 C510 1.368 . S
C507 C488 1.429 . S
C507 C501 1.429 . S
C507 C508 1.523 . S
C508 C489 1.368 . S
C508 C502 1.368 . S
C508 C507 1.523 . S
C509 C493 1.429 . S
C509 C505 1.429 . S
C509 C510 1.523 . S
C510 C494 1.368 . S
C510 C506 1.368 . S
C510 C509 1.523 . S
H511 C486 0.950 . S
H512 C488 0.950 . S
H513 C489 0.949 . S
H514 C491 0.950 . S
H515 C493 0.950 . S
C516 C517 1.349 . S
C516 C518 1.327 . S
C516 H541 0.950 . S
C517 C516 1.349 . S
C517 C533 1.349 . S
C518 C516 1.327 . S
C518 C537 1.429 . S
C518 H542 0.950 . S
C519 C536 1.574 . S
C519 C538 1.368 1_655 S
C519 H543 0.949 . S
H520 C524 0.949 . S
C521 C522 1.349 . S
C521 C523 1.327 . S
C521 H544 0.950 . S
C522 C521 1.349 . S
C522 C534 1.349 . S
C523 C521 1.327 . S
C523 C539 1.429 . S
C523 H545 0.950 . S
C524 H520 0.949 . S
C524 C532 1.574 . S
C524 C540 1.368 1_455 S
H525 C533 0.950 . S
H526 C531 0.950 1_655 S
H527 C532 0.949 . S
H528 C534 0.950 . S
H529 C535 0.950 1_455 S
H530 C536 0.949 . S
C531 H526 0.950 1_455 S
C531 C533 1.327 . S
C531 C537 1.429 . S
C532 C524 1.574 . S
C532 H527 0.949 . S
C532 C538 1.368 . S
C533 C517 1.349 . S
C533 H525 0.950 . S
C533 C531 1.327 . S
C534 C522 1.349 . S
C534 H528 0.950 . S
C534 C535 1.327 . S
C535 H529 0.950 1_655 S
C535 C534 1.327 . S
C535 C539 1.429 . S
C536 C519 1.574 . S
C536 H530 0.949 . S
C536 C540 1.368 . S
C537 C518 1.429 . S
C537 C531 1.429 . S
C537 C538 1.523 . S
C538 C519 1.368 1_455 S
C538 C532 1.368 . S
C538 C537 1.523 . S
C539 C523 1.429 . S
C539 C535 1.429 . S
C539 C540 1.523 . S
C540 C524 1.368 1_655 S
C540 C536 1.368 . S
C540 C539 1.523 . S
H541 C516 0.950 . S
H542 C518 0.950 . S
H543 C519 0.949 . S
H544 C521 0.950 . S
H545 C523 0.950 . S
C546 C547 1.349 . S
C546 C548 1.327 . S
C546 H571 0.950 . S
C547 C546 1.349 . S
C547 C563 1.349 . S
C548 C546 1.327 . S
C548 C567 1.429 . S
C548 H572 0.950 . S
C549 C566 1.574 1_556 S
C549 C568 1.368 1_565 S
C549 H573 0.949 . S
H550 C554 0.949 . S
C551 C552 1.349 . S
C551 C553 1.327 . S
C551 H574 0.950 . S
C552 C551 1.349 . S
C552 C564 1.349 . S
C553 C551 1.327 . S
C553 C569 1.429 . S
C553 H575 0.950 . S
C554 H550 0.949 . S
C554 C562 1.574 1_554 S
C554 C570 1.368 1_545 S
H555 C563 0.950 . S
H556 C561 0.950 . S
H557 C562 0.949 . S
H558 C564 0.950 . S
H559 C565 0.950 . S
H560 C566 0.949 . S
C561 H556 0.950 . S
C561 C563 1.327 . S
C561 C567 1.429 . S
C562 C554 1.574 1_556 S
C562 H557 0.949 . S
C562 C568 1.368 . S
C563 C547 1.349 . S
C563 H555 0.950 . S
C563 C561 1.327 . S
C564 C552 1.349 . S
C564 H558 0.950 . S
C564 C565 1.327 . S
C565 H559 0.950 . S
C565 C564 1.327 . S
C565 C569 1.429 . S
C566 C549 1.574 1_554 S
C566 H560 0.949 . S
C566 C570 1.368 . S
C567 C548 1.429 . S
C567 C561 1.429 . S
C567 C568 1.523 . S
C568 C549 1.368 1_545 S
C568 C562 1.368 . S
C568 C567 1.523 . S
C569 C553 1.429 . S
C569 C565 1.429 . S
C569 C570 1.523 . S
C570 C554 1.368 1_565 S
C570 C566 1.368 . S
C570 C569 1.523 . S
H571 C546 0.950 . S
H572 C548 0.950 . S
H573 C549 0.949 . S
H574 C551 0.950 . S
H575 C553 0.950 . S
C576 C577 1.349 . S
C576 C578 1.327 . S
C576 H601 0.950 . S
C577 C576 1.349 . S
C577 C593 1.349 . S
C578 C576 1.327 . S
C578 C597 1.429 . S
C578 H602 0.950 . S
C579 C596 1.574 1_556 S
C579 C598 1.368 . S
C579 H603 0.949 . S
H580 C584 0.949 . S
C581 C582 1.349 . S
C581 C583 1.327 . S
C581 H604 0.950 . S
C582 C581 1.349 . S
C582 C594 1.349 . S
C583 C581 1.327 . S
C583 C599 1.429 . S
C583 H605 0.950 . S
C584 H580 0.949 . S
C584 C592 1.574 1_554 S
C584 C600 1.368 . S
H585 C593 0.950 . S
H586 C591 0.950 . S
H587 C592 0.949 . S
H588 C594 0.950 . S
H589 C595 0.950 . S
H590 C596 0.949 . S
C591 H586 0.950 . S
C591 C593 1.327 . S
C591 C597 1.429 . S
C592 C584 1.574 1_556 S
C592 H587 0.949 . S
C592 C598 1.368 . S
C593 C577 1.349 . S
C593 H585 0.950 . S
C593 C591 1.327 . S
C594 C582 1.349 . S
C594 H588 0.950 . S
C594 C595 1.327 . S
C595 H589 0.950 . S
C595 C594 1.327 . S
C595 C599 1.429 . S
C596 C579 1.574 1_554 S
C596 H590 0.949 . S
C596 C600 1.368 . S
C597 C578 1.429 . S
C597 C591 1.429 . S
C597 C598 1.523 . S
C598 C579 1.368 . S
C598 C592 1.368 . S
C598 C597 1.523 . S
C599 C583 1.429 . S
C599 C595 1.429 . S
C599 C600 1.523 . S
C600 C584 1.368 . S
C600 C596 1.368 . S
C600 C599 1.523 . S
H601 C576 0.950 . S
H602 C578 0.950 . S
H603 C579 0.949 . S
H604 C581 0.950 . S
H605 C583 0.950 . S
C606 C607 1.349 . S
C606 C608 1.327 . S
C606 H631 0.950 . S
C607 C606 1.349 . S
C607 C623 1.349 . S
C608 C606 1.327 . S
C608 C627 1.429 . S
C608 H632 0.950 . S
C609 C626 1.574 . S
C609 C628 1.368 . S
C609 H633 0.949 . S
H610 C614 0.949 . S
C611 C612 1.349 . S
C611 C613 1.327 . S
C611 H634 0.950 . S
C612 C611 1.349 . S
C612 C624 1.349 . S
C613 C611 1.327 . S
C613 C629 1.429 . S
C613 H635 0.950 . S
C614 H610 0.949 . S
C614 C622 1.574 . S
C614 C630 1.368 . S
H615 C623 0.950 . S
H616 C621 0.950 . S
H617 C622 0.949 . S
H618 C624 0.950 . S
H619 C625 0.950 . S
H620 C626 0.949 . S
C621 H616 0.950 . S
C621 C623 1.327 . S
C621 C627 1.429 . S
C622 C614 1.574 . S
C622 H617 0.949 . S
C622 C628 1.368 . S
C623 C607 1.349 . S
C623 H615 0.950 . S
C623 C621 1.327 . S
C624 C612 1.349 . S
C624 H618 0.950 . S
C624 C625 1.327 . S
C625 H619 0.950 . S
C625 C624 1.327 . S
C625 C629 1.429 . S
C626 C609 1.574 . S
C626 H620 0.949 . S
C626 C630 1.368 . S
C627 C608 1.429 . S
C627 C621 1.429 . S
C627 C628 1.523 . S
C628 C609 1.368 . S
C628 C622 1.368 . S
C628 C627 1.523 . S
C629 C613 1.429 . S
C629 C625 1.429 . S
C629 C630 1.523 . S
C630 C614 1.368 . S
C630 C626 1.368 . S
C630 C629 1.523 . S
H631 C606 0.950 . S
H632 C608 0.950 . S
H633 C609 0.949 . S
H634 C611 0.950 . S
H635 C613 0.950 . S
C636 C637 1.349 . S
C636 C638 1.327 . S
C636 H661 0.950 . S
C637 C636 1.349 . S
C637 C653 1.349 . S
C638 C636 1.327 . S
C638 C657 1.429 . S
C638 H662 0.950 . S
C639 C656 1.574 . S
C639 C658 1.368 . S
C639 H663 0.949 . S
H640 C644 0.949 . S
C641 C642 1.349 . S
C641 C643 1.327 . S
C641 H664 0.950 . S
C642 C641 1.349 . S
C642 C654 1.349 . S
C643 C641 1.327 . S
C643 C659 1.429 . S
C643 H665 0.950 . S
C644 H640 0.949 . S
C644 C652 1.574 . S
C644 C660 1.368 . S
H645 C653 0.950 . S
H646 C651 0.950 . S
H647 C652 0.949 . S
H648 C654 0.950 . S
H649 C655 0.950 . S
H650 C656 0.949 . S
C651 H646 0.950 . S
C651 C653 1.327 . S
C651 C657 1.429 . S
C652 C644 1.574 . S
C652 H647 0.949 . S
C652 C658 1.368 . S
C653 C637 1.349 . S
C653 H645 0.950 . S
C653 C651 1.327 . S
C654 C642 1.349 . S
C654 H648 0.950 . S
C654 C655 1.327 . S
C655 H649 0.950 . S
C655 C654 1.327 . S
C655 C659 1.429 . S
C656 C639 1.574 . S
C656 H650 0.949 . S
C656 C660 1.368 . S
C657 C638 1.429 . S
C657 C651 1.429 . S
C657 C658 1.523 . S
C658 C639 1.368 . S
C658 C652 1.368 . S
C658 C657 1.523 . S
C659 C643 1.429 . S
C659 C655 1.429 . S
C659 C660 1.523 . S
C660 C644 1.368 . S
C660 C656 1.368 . S
C660 C659 1.523 . S
H661 C636 0.950 . S
H662 C638 0.950 . S
H663 C639 0.949 . S
H664 C641 0.950 . S
H665 C643 0.950 . S
C666 C667 1.349 . S
C666 C668 1.327 . S
C666 H691 0.950 . S
C667 C666 1.349 . S
C667 C683 1.349 . S
C668 C666 1.327 . S
C668 C687 1.429 . S
C668 H692 0.950 . S
C669 C686 1.574 1_556 S
C669 C688 1.368 . S
C669 H693 0.949 . S
H670 C674 0.949 . S
C671 C672 1.349 . S
C671 C673 1.327 . S
C671 H694 0.950 . S
C672 C671 1.349 . S
C672 C684 1.349 . S
C673 C671 1.327 . S
C673 C689 1.429 . S
C673 H695 0.950 . S
C674 H670 0.949 . S
C674 C682 1.574 1_554 S
C674 C690 1.368 . S
H675 C683 0.950 . S
H676 C681 0.950 . S
H677 C682 0.949 . S
H678 C684 0.950 . S
H679 C685 0.950 . S
H680 C686 0.949 . S
C681 H676 0.950 . S
C681 C683 1.327 . S
C681 C687 1.429 . S
C682 C674 1.574 1_556 S
C682 H677 0.949 . S
C682 C688 1.368 . S
C683 C667 1.349 . S
C683 H675 0.950 . S
C683 C681 1.327 . S
C684 C672 1.349 . S
C684 H678 0.950 . S
C684 C685 1.327 . S
C685 H679 0.950 . S
C685 C684 1.327 . S
C685 C689 1.429 . S
C686 C669 1.574 1_554 S
C686 H680 0.949 . S
C686 C690 1.368 . S
C687 C668 1.429 . S
C687 C681 1.429 . S
C687 C688 1.523 . S
C688 C669 1.368 . S
C688 C682 1.368 . S
C688 C687 1.523 . S
C689 C673 1.429 . S
C689 C685 1.429 . S
C689 C690 1.523 . S
C690 C674 1.368 . S
C690 C686 1.368 . S
C690 C689 1.523 . S
H691 C666 0.950 . S
H692 C668 0.950 . S
H693 C669 0.949 . S
H694 C671 0.950 . S
H695 C673 0.950 . S
C696 C697 1.349 . S
C696 C698 1.327 . S
C696 H721 0.950 . S
C697 C696 1.349 . S
C697 C713 1.349 . S
C698 C696 1.327 . S
C698 C717 1.429 . S
C698 H722 0.950 . S
C699 C716 1.574 . S
C699 C718 1.368 . S
C699 H723 0.949 . S
H700 C704 0.949 . S
C701 C702 1.349 . S
C701 C703 1.327 . S
C701 H724 0.950 . S
C702 C701 1.349 . S
C702 C714 1.349 . S
C703 C701 1.327 . S
C703 C719 1.429 . S
C703 H725 0.950 . S
C704 H700 0.949 . S
C704 C712 1.574 . S
C704 C720 1.368 . S
H705 C713 0.950 . S
H706 C711 0.950 . S
H707 C712 0.949 . S
H708 C714 0.950 . S
H709 C715 0.950 . S
H710 C716 0.949 . S
C711 H706 0.950 . S
C711 C713 1.327 . S
C711 C717 1.429 . S
C712 C704 1.574 . S
C712 H707 0.949 . S
C712 C718 1.368 . S
C713 C697 1.349 . S
C713 H705 0.950 . S
C713 C711 1.327 . S
C714 C702 1.349 . S
C714 H708 0.950 . S
C714 C715 1.327 . S
C715 H709 0.950 . S
C715 C714 1.327 . S
C715 C719 1.429 . S
C716 C699 1.574 . S
C716 H710 0.949 . S
C716 C720 1.368 . S
C717 C698 1.429 . S
C717 C711 1.429 . S
C717 C718 1.523 . S
C718 C699 1.368 . S
C718 C712 1.368 . S
C718 C717 1.523 . S
C719 C703 1.429 . S
C719 C715 1.429 . S
C719 C720 1.523 . S
C720 C704 1.368 . S
C720 C716 1.368 . S
C720 C719 1.523 . S
H721 C696 0.950 . S
H722 C698 0.950 . S
H723 C699 0.949 . S
H724 C701 0.950 . S
H725 C703 0.950 . S
C726 C727 1.349 . S
C726 C728 1.327 . S
C726 H751 0.950 . S
C727 C726 1.349 . S
C727 C743 1.349 . S
C728 C726 1.327 . S
C728 C747 1.429 . S
C728 H752 0.950 . S
C729 C746 1.574 . S
C729 C748 1.368 . S
C729 H753 0.949 . S
H730 C734 0.949 . S
C731 C732 1.349 . S
C731 C733 1.327 . S
C731 H754 0.950 . S
C732 C731 1.349 . S
C732 C744 1.349 . S
C733 C731 1.327 . S
C733 C749 1.429 . S
C733 H755 0.950 . S
C734 H730 0.949 . S
C734 C742 1.574 . S
C734 C750 1.368 . S
H735 C743 0.950 . S
H736 C741 0.950 . S
H737 C742 0.949 . S
H738 C744 0.950 . S
H739 C745 0.950 . S
H740 C746 0.949 . S
C741 H736 0.950 . S
C741 C743 1.327 . S
C741 C747 1.429 . S
C742 C734 1.574 . S
C742 H737 0.949 . S
C742 C748 1.368 . S
C743 C727 1.349 . S
C743 H735 0.950 . S
C743 C741 1.327 . S
C744 C732 1.349 . S
C744 H738 0.950 . S
C744 C745 1.327 . S
C745 H739 0.950 . S
C745 C744 1.327 . S
C745 C749 1.429 . S
C746 C729 1.574 . S
C746 H740 0.949 . S
C746 C750 1.368 . S
C747 C728 1.429 . S
C747 C741 1.429 . S
C747 C748 1.523 . S
C748 C729 1.368 . S
C748 C742 1.368 . S
C748 C747 1.523 . S
C749 C733 1.429 . S
C749 C745 1.429 . S
C749 C750 1.523 . S
C750 C734 1.368 . S
C750 C746 1.368 . S
C750 C749 1.523 . S
H751 C726 0.950 . S
H752 C728 0.950 . S
H753 C729 0.949 . S
H754 C731 0.950 . S
H755 C733 0.950 . S
C756 C757 1.349 . S
C756 C758 1.327 . S
C756 H781 0.950 . S
C757 C756 1.349 . S
C757 C773 1.349 . S
C758 C756 1.327 . S
C758 C777 1.429 . S
C758 H782 0.950 . S
C759 C776 1.574 . S
C759 C778 1.368 . S
C759 H783 0.949 . S
H760 C764 0.949 . S
C761 C762 1.349 . S
C761 C763 1.327 . S
C761 H784 0.950 . S
C762 C761 1.349 . S
C762 C774 1.349 . S
C763 C761 1.327 . S
C763 C779 1.429 . S
C763 H785 0.950 . S
C764 H760 0.949 . S
C764 C772 1.574 . S
C764 C780 1.368 . S
H765 C773 0.950 . S
H766 C771 0.950 . S
H767 C772 0.949 . S
H768 C774 0.950 . S
H769 C775 0.950 . S
H770 C776 0.949 . S
C771 H766 0.950 . S
C771 C773 1.327 . S
C771 C777 1.429 . S
C772 C764 1.574 . S
C772 H767 0.949 . S
C772 C778 1.368 . S
C773 C757 1.349 . S
C773 H765 0.950 . S
C773 C771 1.327 . S
C774 C762 1.349 . S
C774 H768 0.950 . S
C774 C775 1.327 . S
C775 H769 0.950 . S
C775 C774 1.327 . S
C775 C779 1.429 . S
C776 C759 1.574 . S
C776 H770 0.949 . S
C776 C780 1.368 . S
C777 C758 1.429 . S
C777 C771 1.429 . S
C777 C778 1.523 . S
C778 C759 1.368 . S
C778 C772 1.368 . S
C778 C777 1.523 . S
C779 C763 1.429 . S
C779 C775 1.429 . S
C779 C780 1.523 . S
C780 C764 1.368 . S
C780 C776 1.368 . S
C780 C779 1.523 . S
H781 C756 0.950 . S
H782 C758 0.950 . S
H783 C759 0.949 . S
H784 C761 0.950 . S
H785 C763 0.950 . S
C786 C787 1.349 . S
C786 C788 1.327 . S
C786 H811 0.950 . S
C787 C786 1.349 . S
C787 C803 1.349 . S
C788 C786 1.327 . S
C788 C807 1.429 . S
C788 H812 0.950 . S
C789 C806 1.574 . S
C789 C808 1.368 . S
C789 H813 0.949 . S
H790 C794 0.949 . S
C791 C792 1.349 . S
C791 C793 1.327 . S
C791 H814 0.950 . S
C792 C791 1.349 . S
C792 C804 1.349 . S
C793 C791 1.327 . S
C793 C809 1.429 . S
C793 H815 0.950 . S
C794 H790 0.949 . S
C794 C802 1.574 . S
C794 C810 1.368 . S
H795 C803 0.950 . S
H796 C801 0.950 . S
H797 C802 0.949 . S
H798 C804 0.950 . S
H799 C805 0.950 . S
H800 C806 0.949 . S
C801 H796 0.950 . S
C801 C803 1.327 . S
C801 C807 1.429 . S
C802 C794 1.574 . S
C802 H797 0.949 . S
C802 C808 1.368 1_455 S
C803 C787 1.349 . S
C803 H795 0.950 . S
C803 C801 1.327 . S
C804 C792 1.349 . S
C804 H798 0.950 . S
C804 C805 1.327 . S
C805 H799 0.950 . S
C805 C804 1.327 . S
C805 C809 1.429 . S
C806 C789 1.574 . S
C806 H800 0.949 . S
C806 C810 1.368 1_655 S
C807 C788 1.429 . S
C807 C801 1.429 . S
C807 C808 1.523 . S
C808 C789 1.368 . S
C808 C802 1.368 1_655 S
C808 C807 1.523 . S
C809 C793 1.429 . S
C809 C805 1.429 . S
C809 C810 1.523 . S
C810 C794 1.368 . S
C810 C806 1.368 1_455 S
C810 C809 1.523 . S
H811 C786 0.950 . S
H812 C788 0.950 . S
H813 C789 0.949 . S
H814 C791 0.950 . S
H815 C793 0.950 . S
C816 C817 1.349 . S
C816 C818 1.327 . S
C816 H841 0.950 . S
C817 C816 1.349 . S
C817 C833 1.349 . S
C818 C816 1.327 . S
C818 C837 1.429 . S
C818 H842 0.950 . S
C819 C836 1.574 . S
C819 C838 1.368 . S
C819 H843 0.949 . S
H820 C824 0.949 . S
C821 C822 1.349 . S
C821 C823 1.327 . S
C821 H844 0.950 . S
C822 C821 1.349 . S
C822 C834 1.349 . S
C823 C821 1.327 . S
C823 C839 1.429 . S
C823 H845 0.950 . S
C824 H820 0.949 . S
C824 C832 1.574 . S
C824 C840 1.368 . S
H825 C833 0.950 . S
H826 C831 0.950 . S
H827 C832 0.949 . S
H828 C834 0.950 . S
H829 C835 0.950 . S
H830 C836 0.949 . S
C831 H826 0.950 . S
C831 C833 1.327 . S
C831 C837 1.429 . S
C832 C824 1.574 . S
C832 H827 0.949 . S
C832 C838 1.368 1_565 S
C833 C817 1.349 . S
C833 H825 0.950 . S
C833 C831 1.327 . S
C834 C822 1.349 . S
C834 H828 0.950 . S
C834 C835 1.327 . S
C835 H829 0.950 . S
C835 C834 1.327 . S
C835 C839 1.429 . S
C836 C819 1.574 . S
C836 H830 0.949 . S
C836 C840 1.368 1_545 S
C837 C818 1.429 . S
C837 C831 1.429 . S
C837 C838 1.523 . S
C838 C819 1.368 . S
C838 C832 1.368 1_545 S
C838 C837 1.523 . S
C839 C823 1.429 . S
C839 C835 1.429 . S
C839 C840 1.523 . S
C840 C824 1.368 . S
C840 C836 1.368 1_565 S
C840 C839 1.523 . S
H841 C816 0.950 . S
H842 C818 0.950 . S
H843 C819 0.949 . S
H844 C821 0.950 . S
H845 C823 0.950 . S
C846 C847 1.349 . S
C846 C848 1.327 . S
C846 H871 0.950 . S
C847 C846 1.349 . S
C847 C863 1.349 . S
C848 C846 1.327 . S
C848 C867 1.429 . S
C848 H872 0.950 . S
C849 C866 1.574 . S
C849 C868 1.368 . S
C849 H873 0.949 . S
H850 C854 0.949 . S
C851 C852 1.349 . S
C851 C853 1.327 . S
C851 H874 0.950 . S
C852 C851 1.349 . S
C852 C864 1.349 . S
C853 C851 1.327 . S
C853 C869 1.429 . S
C853 H875 0.950 . S
C854 H850 0.949 . S
C854 C862 1.574 . S
C854 C870 1.368 . S
H855 C863 0.950 . S
H856 C861 0.950 . S
H857 C862 0.949 . S
H858 C864 0.950 . S
H859 C865 0.950 . S
H860 C866 0.949 . S
C861 H856 0.950 . S
C861 C863 1.327 . S
C861 C867 1.429 . S
C862 C854 1.574 . S
C862 H857 0.949 . S
C862 C868 1.368 . S
C863 C847 1.349 . S
C863 H855 0.950 . S
C863 C861 1.327 . S
C864 C852 1.349 . S
C864 H858 0.950 . S
C864 C865 1.327 . S
C865 H859 0.950 . S
C865 C864 1.327 . S
C865 C869 1.429 . S
C866 C849 1.574 . S
C866 H860 0.949 . S
C866 C870 1.368 . S
C867 C848 1.429 . S
C867 C861 1.429 . S
C867 C868 1.523 . S
C868 C849 1.368 . S
C868 C862 1.368 . S
C868 C867 1.523 . S
C869 C853 1.429 . S
C869 C865 1.429 . S
C869 C870 1.523 . S
C870 C854 1.368 . S
C870 C866 1.368 . S
C870 C869 1.523 . S
H871 C846 0.950 . S
H872 C848 0.950 . S
H873 C849 0.949 . S
H874 C851 0.950 . S
H875 C853 0.950 . S
C876 C877 1.349 . S
C876 C878 1.327 . S
C876 H901 0.950 . S
C877 C876 1.349 . S
C877 C893 1.349 . S
C878 C876 1.327 . S
C878 C897 1.429 . S
C878 H902 0.950 . S
C879 C896 1.574 . S
C879 C898 1.368 1_455 S
C879 H903 0.949 . S
H880 C884 0.949 . S
C881 C882 1.349 . S
C881 C883 1.327 . S
C881 H904 0.950 . S
C882 C881 1.349 . S
C882 C894 1.349 . S
C883 C881 1.327 . S
C883 C899 1.429 . S
C883 H905 0.950 . S
C884 H880 0.949 . S
C884 C892 1.574 . S
C884 C900 1.368 1_655 S
H885 C893 0.950 . S
H886 C891 0.950 . S
H887 C892 0.949 . S
H888 C894 0.950 . S
H889 C895 0.950 . S
H890 C896 0.949 . S
C891 H886 0.950 . S
C891 C893 1.327 . S
C891 C897 1.429 . S
C892 C884 1.574 . S
C892 H887 0.949 . S
C892 C898 1.368 . S
C893 C877 1.349 . S
C893 H885 0.950 . S
C893 C891 1.327 . S
C894 C882 1.349 . S
C894 H888 0.950 . S
C894 C895 1.327 . S
C895 H889 0.950 . S
C895 C894 1.327 . S
C895 C899 1.429 . S
C896 C879 1.574 . S
C896 H890 0.949 . S
C896 C900 1.368 . S
C897 C878 1.429 . S
C897 C891 1.429 . S
C897 C898 1.523 . S
C898 C879 1.368 1_655 S
C898 C892 1.368 . S
C898 C897 1.523 . S
C899 C883 1.429 . S
C899 C895 1.429 . S
C899 C900 1.523 . S
C900 C884 1.368 1_455 S
C900 C896 1.368 . S
C900 C899 1.523 . S
H901 C876 0.950 . S
H902 C878 0.950 . S
H903 C879 0.949 . S
H904 C881 0.950 . S
H905 C883 0.950 . S
C906 C907 1.349 . S
C906 C908 1.327 . S
C906 H931 0.950 . S
C907 C906 1.349 . S
C907 C923 1.349 . S
C908 C906 1.327 . S
C908 C927 1.429 . S
C908 H932 0.950 . S
C909 C926 1.574 . S
C909 C928 1.368 1_565 S
C909 H933 0.949 . S
H910 C914 0.949 . S
C911 C912 1.349 . S
C911 C913 1.327 . S
C911 H934 0.950 . S
C912 C911 1.349 . S
C912 C924 1.349 . S
C913 C911 1.327 . S
C913 C929 1.429 . S
C913 H935 0.950 . S
C914 H910 0.949 . S
C914 C922 1.574 . S
C914 C930 1.368 1_545 S
H915 C923 0.950 . S
H916 C921 0.950 . S
H917 C922 0.949 . S
H918 C924 0.950 . S
H919 C925 0.950 . S
H920 C926 0.949 . S
C921 H916 0.950 . S
C921 C923 1.327 . S
C921 C927 1.429 . S
C922 C914 1.574 . S
C922 H917 0.949 . S
C922 C928 1.368 . S
C923 C907 1.349 . S
C923 H915 0.950 . S
C923 C921 1.327 . S
C924 C912 1.349 . S
C924 H918 0.950 . S
C924 C925 1.327 . S
C925 H919 0.950 . S
C925 C924 1.327 . S
C925 C929 1.429 . S
C926 C909 1.574 . S
C926 H920 0.949 . S
C926 C930 1.368 . S
C927 C908 1.429 . S
C927 C921 1.429 . S
C927 C928 1.523 . S
C928 C909 1.368 1_545 S
C928 C922 1.368 . S
C928 C927 1.523 . S
C929 C913 1.429 . S
C929 C925 1.429 . S
C929 C930 1.523 . S
C930 C914 1.368 1_565 S
C930 C926 1.368 . S
C930 C929 1.523 . S
H931 C906 0.950 . S
H932 C908 0.950 . S
H933 C909 0.949 . S
H934 C911 0.950 . S
H935 C913 0.950 . S
C936 C937 1.349 . S
C936 C938 1.327 . S
C936 H961 0.950 . S
C937 C936 1.349 . S
C937 C953 1.349 . S
C938 C936 1.327 . S
C938 C957 1.429 . S
C938 H962 0.950 . S
C939 C956 1.574 1_455 S
C939 C958 1.368 . S
C939 H963 0.949 . S
H940 C944 0.949 . S
C941 C942 1.349 . S
C941 C943 1.327 . S
C941 H964 0.950 . S
C942 C941 1.349 . S
C942 C954 1.349 . S
C943 C941 1.327 . S
C943 C959 1.429 . S
C943 H965 0.950 . S
C944 H940 0.949 . S
C944 C952 1.574 1_655 S
C944 C960 1.368 . S
H945 C953 0.950 . S
H946 C951 0.950 . S
H947 C952 0.949 . S
H948 C954 0.950 . S
H949 C955 0.950 . S
H950 C956 0.949 . S
C951 H946 0.950 . S
C951 C953 1.327 . S
C951 C957 1.429 . S
C952 C944 1.574 1_455 S
C952 H947 0.949 . S
C952 C958 1.368 . S
C953 C937 1.349 . S
C953 H945 0.950 . S
C953 C951 1.327 . S
C954 C942 1.349 . S
C954 H948 0.950 . S
C954 C955 1.327 . S
C955 H949 0.950 . S
C955 C954 1.327 . S
C955 C959 1.429 . S
C956 C939 1.574 1_655 S
C956 H950 0.949 . S
C956 C960 1.368 . S
C957 C938 1.429 . S
C957 C951 1.429 . S
C957 C958 1.523 . S
C958 C939 1.368 . S
C958 C952 1.368 . S
C958 C957 1.523 . S
C959 C943 1.429 . S
C959 C955 1.429 . S
C959 C960 1.523 . S
C960 C944 1.368 . S
C960 C956 1.368 . S
C960 C959 1.523 . S
H961 C936 0.950 . S
H962 C938 0.950 . S
H963 C939 0.949 . S
H964 C941 0.950 . S
H965 C943 0.950 . S
C966 C967 1.349 . S
C966 C968 1.327 . S
C966 H991 0.950 . S
C967 C966 1.349 . S
C967 C983 1.349 . S
C968 C966 1.327 . S
C968 C987 1.429 . S
C968 H992 0.950 . S
C969 C986 1.574 1_565 S
C969 C988 1.368 . S
C969 H993 0.949 . S
H970 C974 0.949 . S
C971 C972 1.349 . S
C971 C973 1.327 . S
C971 H994 0.950 . S
C972 C971 1.349 . S
C972 C984 1.349 . S
C973 C971 1.327 . S
C973 C989 1.429 . S
C973 H995 0.950 . S
C974 H970 0.949 . S
C974 C982 1.574 1_545 S
C974 C990 1.368 . S
H975 C983 0.950 . S
H976 C981 0.950 . S
H977 C982 0.949 . S
H978 C984 0.950 . S
H979 C985 0.950 . S
H980 C986 0.949 . S
C981 H976 0.950 . S
C981 C983 1.327 . S
C981 C987 1.429 . S
C982 C974 1.574 1_565 S
C982 H977 0.949 . S
C982 C988 1.368 . S
C983 C967 1.349 . S
C983 H975 0.950 . S
C983 C981 1.327 . S
C984 C972 1.349 . S
C984 H978 0.950 . S
C984 C985 1.327 . S
C985 H979 0.950 . S
C985 C984 1.327 . S
C985 C989 1.429 . S
C986 C969 1.574 1_545 S
C986 H980 0.949 . S
C986 C990 1.368 . S
C987 C968 1.429 . S
C987 C981 1.429 . S
C987 C988 1.523 . S
C988 C969 1.368 . S
C988 C982 1.368 . S
C988 C987 1.523 . S
C989 C973 1.429 . S
C989 C985 1.429 . S
C989 C990 1.523 . S
C990 C974 1.368 . S
C990 C986 1.368 . S
C990 C989 1.523 . S
H991 C966 0.950 . S
H992 C968 0.950 . S
H993 C969 0.949 . S
H994 C971 0.950 . S
H995 C973 0.950 . S
C996 C997 1.349 . S
C996 C998 1.327 . S
C996 H1021 0.950 . S
C997 C996 1.349 . S
C997 C1013 1.349 . S
C998 C996 1.327 . S
C998 C1017 1.429 . S
C998 H1022 0.950 . S
C999 C1016 1.574 . S
C999 C1018 1.368 . S
C999 H1023 0.949 . S
H1000 C1004 0.949 . S
C1001 C1002 1.349 . S
C1001 C1003 1.327 . S
C1001 H1024 0.950 . S
C1002 C1001 1.349 . S
C1002 C1014 1.349 . S
C1003 C1001 1.327 . S
C1003 C1019 1.429 . S
C1003 H1025 0.950 . S
C1004 H1000 0.949 . S
C1004 C1012 1.574 . S
C1004 C1020 1.368 . S
H1005 C1013 0.950 . S
H1006 C1011 0.950 . S
H1007 C1012 0.949 . S
H1008 C1014 0.950 . S
H1009 C1015 0.950 . S
H1010 C1016 0.949 . S
C1011 H1006 0.950 . S
C1011 C1013 1.327 . S
C1011 C1017 1.429 . S
C1012 C1004 1.574 . S
C1012 H1007 0.949 . S
C1012 C1018 1.368 . S
C1013 C997 1.349 . S
C1013 H1005 0.950 . S
C1013 C1011 1.327 . S
C1014 C1002 1.349 . S
C1014 H1008 0.950 . S
C1014 C1015 1.327 . S
C1015 H1009 0.950 . S
C1015 C1014 1.327 . S
C1015 C1019 1.429 . S
C1016 C999 1.574 . S
C1016 H1010 0.949 . S
C1016 C1020 1.368 . S
C1017 C998 1.429 . S
C1017 C1011 1.429 . S
C1017 C1018 1.523 . S
C1018 C999 1.368 . S
C1018 C1012 1.368 . S
C1018 C1017 1.523 . S
C1019 C1003 1.429 . S
C1019 C1015 1.429 . S
C1019 C1020 1.523 . S
C1020 C1004 1.368 . S
C1020 C1016 1.368 . S
C1020 C1019 1.523 . S
H1021 C996 0.950 . S
H1022 C998 0.950 . S
H1023 C999 0.949 . S
H1024 C1001 0.950 . S
H1025 C1003 0.950 . S
C1026 C1027 1.349 . S
C1026 C1028 1.327 . S
C1026 H1051 0.950 . S
C1027 C1026 1.349 . S
C1027 C1043 1.349 . S
C1028 C1026 1.327 . S
C1028 C1047 1.429 . S
C1028 H1052 0.950 . S
C1029 C1046 1.574 1_655 S
C1029 C1048 1.368 . S
C1029 H1053 0.949 . S
H1030 C1034 0.949 . S
C1031 C1032 1.349 . S
C1031 C1033 1.327 . S
C1031 H1054 0.950 . S
C1032 C1031 1.349 . S
C1032 C1044 1.349 . S
C1033 C1031 1.327 . S
C1033 C1049 1.429 . S
C1033 H1055 0.950 . S
C1034 H1030 0.949 . S
C1034 C1042 1.574 1_455 S
C1034 C1050 1.368 . S
H1035 C1043 0.950 . S
H1036 C1041 0.950 . S
H1037 C1042 0.949 . S
H1038 C1044 0.950 . S
H1039 C1045 0.950 . S
H1040 C1046 0.949 . S
C1041 H1036 0.950 . S
C1041 C1043 1.327 . S
C1041 C1047 1.429 . S
C1042 C1034 1.574 1_655 S
C1042 H1037 0.949 . S
C1042 C1048 1.368 . S
C1043 C1027 1.349 . S
C1043 H1035 0.950 . S
C1043 C1041 1.327 . S
C1044 C1032 1.349 . S
C1044 H1038 0.950 . S
C1044 C1045 1.327 . S
C1045 H1039 0.950 . S
C1045 C1044 1.327 . S
C1045 C1049 1.429 . S
C1046 C1029 1.574 1_455 S
C1046 H1040 0.949 . S
C1046 C1050 1.368 . S
C1047 C1028 1.429 . S
C1047 C1041 1.429 . S
C1047 C1048 1.523 . S
C1048 C1029 1.368 . S
C1048 C1042 1.368 . S
C1048 C1047 1.523 . S
C1049 C1033 1.429 . S
C1049 C1045 1.429 . S
C1049 C1050 1.523 . S
C1050 C1034 1.368 . S
C1050 C1046 1.368 . S
C1050 C1049 1.523 . S
H1051 C1026 0.950 . S
H1052 C1028 0.950 . S
H1053 C1029 0.949 . S
H1054 C1031 0.950 . S
H1055 C1033 0.950 . S
C1056 C1057 1.349 . S
C1056 C1058 1.327 . S
C1056 H1081 0.950 . S
C1057 C1056 1.349 . S
C1057 C1073 1.349 . S
C1058 C1056 1.327 . S
C1058 C1077 1.429 . S
C1058 H1082 0.950 . S
C1059 C1076 1.574 1_565 S
C1059 C1078 1.368 . S
C1059 H1083 0.949 . S
H1060 C1064 0.949 . S
C1061 C1062 1.349 . S
C1061 C1063 1.327 . S
C1061 H1084 0.950 . S
C1062 C1061 1.349 . S
C1062 C1074 1.349 . S
C1063 C1061 1.327 . S
C1063 C1079 1.429 . S
C1063 H1085 0.950 . S
C1064 H1060 0.949 . S
C1064 C1072 1.574 1_545 S
C1064 C1080 1.368 . S
H1065 C1073 0.950 . S
H1066 C1071 0.950 . S
H1067 C1072 0.949 . S
H1068 C1074 0.950 . S
H1069 C1075 0.950 . S
H1070 C1076 0.949 . S
C1071 H1066 0.950 . S
C1071 C1073 1.327 . S
C1071 C1077 1.429 . S
C1072 C1064 1.574 1_565 S
C1072 H1067 0.949 . S
C1072 C1078 1.368 . S
C1073 C1057 1.349 . S
C1073 H1065 0.950 . S
C1073 C1071 1.327 . S
C1074 C1062 1.349 . S
C1074 H1068 0.950 . S
C1074 C1075 1.327 . S
C1075 H1069 0.950 . S
C1075 C1074 1.327 . S
C1075 C1079 1.429 . S
C1076 C1059 1.574 1_545 S
C1076 H1070 0.949 . S
C1076 C1080 1.368 . S
C1077 C1058 1.429 . S
C1077 C1071 1.429 . S
C1077 C1078 1.523 . S
C1078 C1059 1.368 . S
C1078 C1072 1.368 . S
C1078 C1077 1.523 . S
C1079 C1063 1.429 . S
C1079 C1075 1.429 . S
C1079 C1080 1.523 . S
C1080 C1064 1.368 . S
C1080 C1076 1.368 . S
C1080 C1079 1.523 . S
H1081 C1056 0.950 . S
H1082 C1058 0.950 . S
H1083 C1059 0.949 . S
H1084 C1061 0.950 . S
H1085 C1063 0.950 . S
C1086 C1087 1.349 . S
C1086 C1088 1.327 . S
C1086 H1111 0.950 . S
C1087 C1086 1.349 . S
C1087 C1103 1.349 . S
C1088 C1086 1.327 . S
C1088 C1107 1.429 . S
C1088 H1112 0.950 . S
C1089 C1106 1.574 . S
C1089 C1108 1.368 . S
C1089 H1113 0.949 . S
H1090 C1094 0.949 . S
C1091 C1092 1.349 . S
C1091 C1093 1.327 . S
C1091 H1114 0.950 . S
C1092 C1091 1.349 . S
C1092 C1104 1.349 . S
C1093 C1091 1.327 . S
C1093 C1109 1.429 . S
C1093 H1115 0.950 . S
C1094 H1090 0.949 . S
C1094 C1102 1.574 . S
C1094 C1110 1.368 . S
H1095 C1103 0.950 . S
H1096 C1101 0.950 . S
H1097 C1102 0.949 . S
H1098 C1104 0.950 . S
H1099 C1105 0.950 . S
H1100 C1106 0.949 . S
C1101 H1096 0.950 . S
C1101 C1103 1.327 . S
C1101 C1107 1.429 . S
C1102 C1094 1.574 . S
C1102 H1097 0.949 . S
C1102 C1108 1.368 . S
C1103 C1087 1.349 . S
C1103 H1095 0.950 . S
C1103 C1101 1.327 . S
C1104 C1092 1.349 . S
C1104 H1098 0.950 . S
C1104 C1105 1.327 . S
C1105 H1099 0.950 . S
C1105 C1104 1.327 . S
C1105 C1109 1.429 . S
C1106 C1089 1.574 . S
C1106 H1100 0.949 . S
C1106 C1110 1.368 . S
C1107 C1088 1.429 . S
C1107 C1101 1.429 . S
C1107 C1108 1.523 . S
C1108 C1089 1.368 . S
C1108 C1102 1.368 . S
C1108 C1107 1.523 . S
C1109 C1093 1.429 . S
C1109 C1105 1.429 . S
C1109 C1110 1.523 . S
C1110 C1094 1.368 . S
C1110 C1106 1.368 . S
C1110 C1109 1.523 . S
H1111 C1086 0.950 . S
H1112 C1088 0.950 . S
H1113 C1089 0.949 . S
H1114 C1091 0.950 . S
H1115 C1093 0.950 . S
C1116 C1117 1.349 . S
C1116 C1118 1.327 . S
C1116 H1141 0.950 . S
C1117 C1116 1.349 . S
C1117 C1133 1.349 . S
C1118 C1116 1.327 . S
C1118 C1137 1.429 . S
C1118 H1142 0.950 . S
C1119 C1136 1.574 . S
C1119 C1138 1.368 . S
C1119 H1143 0.949 . S
H1120 C1124 0.949 . S
C1121 C1122 1.349 1_545 S
C1121 C1123 1.327 . S
C1121 H1144 0.950 1_545 S
C1122 C1121 1.349 1_565 S
C1122 C1134 1.349 1_565 S
C1123 C1121 1.327 . S
C1123 C1139 1.429 . S
C1123 H1145 0.950 . S
C1124 H1120 0.949 . S
C1124 C1132 1.574 . S
C1124 C1140 1.368 . S
H1125 C1133 0.950 . S
H1126 C1131 0.950 . S
H1127 C1132 0.949 . S
H1128 C1134 0.950 . S
H1129 C1135 0.950 . S
H1130 C1136 0.949 . S
C1131 H1126 0.950 . S
C1131 C1133 1.327 . S
C1131 C1137 1.429 . S
C1132 C1124 1.574 . S
C1132 H1127 0.949 . S
C1132 C1138 1.368 . S
C1133 C1117 1.349 . S
C1133 H1125 0.950 . S
C1133 C1131 1.327 . S
C1134 C1122 1.349 1_545 S
C1134 H1128 0.950 . S
C1134 C1135 1.327 . S
C1135 H1129 0.950 . S
C1135 C1134 1.327 . S
C1135 C1139 1.429 . S
C1136 C1119 1.574 . S
C1136 H1130 0.949 . S
C1136 C1140 1.368 . S
C1137 C1118 1.429 . S
C1137 C1131 1.429 . S
C1137 C1138 1.523 . S
C1138 C1119 1.368 . S
C1138 C1132 1.368 . S
C1138 C1137 1.523 . S
C1139 C1123 1.429 . S
C1139 C1135 1.429 . S
C1139 C1140 1.523 . S
C1140 C1124 1.368 . S
C1140 C1136 1.368 . S
C1140 C1139 1.523 . S
H1141 C1116 0.950 . S
H1142 C1118 0.950 . S
H1143 C1119 0.949 . S
H1144 C1121 0.950 1_565 S
H1145 C1123 0.950 . S
C1146 C1147 1.349 . S
C1146 C1148 1.327 . S
C1146 H1171 0.950 . S
C1147 C1146 1.349 . S
C1147 C1163 1.349 . S
C1148 C1146 1.327 . S
C1148 C1167 1.429 . S
C1148 H1172 0.950 . S
C1149 C1166 1.574 . S
C1149 C1168 1.368 . S
C1149 H1173 0.949 . S
H1150 C1154 0.949 . S
C1151 C1152 1.349 1_455 S
C1151 C1153 1.327 . S
C1151 H1174 0.950 . S
C1152 C1151 1.349 1_655 S
C1152 C1164 1.349 1_655 S
C1153 C1151 1.327 . S
C1153 C1169 1.429 . S
C1153 H1175 0.950 . S
C1154 H1150 0.949 . S
C1154 C1162 1.574 . S
C1154 C1170 1.368 . S
H1155 C1163 0.950 . S
H1156 C1161 0.950 . S
H1157 C1162 0.949 . S
H1158 C1164 0.950 1_655 S
H1159 C1165 0.950 . S
H1160 C1166 0.949 . S
C1161 H1156 0.950 . S
C1161 C1163 1.327 . S
C1161 C1167 1.429 . S
C1162 C1154 1.574 . S
C1162 H1157 0.949 . S
C1162 C1168 1.368 . S
C1163 C1147 1.349 . S
C1163 H1155 0.950 . S
C1163 C1161 1.327 . S
C1164 C1152 1.349 1_455 S
C1164 H1158 0.950 1_455 S
C1164 C1165 1.327 . S
C1165 H1159 0.950 . S
C1165 C1164 1.327 . S
C1165 C1169 1.429 . S
C1166 C1149 1.574 . S
C1166 H1160 0.949 . S
C1166 C1170 1.368 . S
C1167 C1148 1.429 . S
C1167 C1161 1.429 . S
C1167 C1168 1.523 . S
C1168 C1149 1.368 . S
C1168 C1162 1.368 . S
C1168 C1167 1.523 . S
C1169 C1153 1.429 . S
C1169 C1165 1.429 . S
C1169 C1170 1.523 . S
C1170 C1154 1.368 . S
C1170 C1166 1.368 . S
C1170 C1169 1.523 . S
H1171 C1146 0.950 . S
H1172 C1148 0.950 . S
H1173 C1149 0.949 . S
H1174 C1151 0.950 . S
H1175 C1153 0.950 . S
C1176 C1177 1.349 1_545 S
C1176 C1178 1.327 . S
C1176 H1201 0.950 1_545 S
C1177 C1176 1.349 1_565 S
C1177 C1193 1.349 1_565 S
C1178 C1176 1.327 . S
C1178 C1197 1.429 . S
C1178 H1202 0.950 . S
C1179 C1196 1.574 . S
C1179 C1198 1.368 . S
C1179 H1203 0.949 . S
H1180 C1184 0.949 . S
C1181 C1182 1.349 1_655 S
C1181 C1183 1.327 . S
C1181 H1204 0.950 . S
C1182 C1181 1.349 1_455 S
C1182 C1194 1.349 1_455 S
C1183 C1181 1.327 . S
C1183 C1199 1.429 . S
C1183 H1205 0.950 . S
C1184 H1180 0.949 . S
C1184 C1192 1.574 . S
C1184 C1200 1.368 . S
H1185 C1193 0.950 . S
H1186 C1191 0.950 . S
H1187 C1192 0.949 . S
H1188 C1194 0.950 1_455 S
H1189 C1195 0.950 . S
H1190 C1196 0.949 . S
C1191 H1186 0.950 . S
C1191 C1193 1.327 . S
C1191 C1197 1.429 . S
C1192 C1184 1.574 . S
C1192 H1187 0.949 . S
C1192 C1198 1.368 . S
C1193 C1177 1.349 1_545 S
C1193 H1185 0.950 . S
C1193 C1191 1.327 . S
C1194 C1182 1.349 1_655 S
C1194 H1188 0.950 1_655 S
C1194 C1195 1.327 . S
C1195 H1189 0.950 . S
C1195 C1194 1.327 . S
C1195 C1199 1.429 . S
C1196 C1179 1.574 . S
C1196 H1190 0.949 . S
C1196 C1200 1.368 . S
C1197 C1178 1.429 . S
C1197 C1191 1.429 . S
C1197 C1198 1.523 . S
C1198 C1179 1.368 . S
C1198 C1192 1.368 . S
C1198 C1197 1.523 . S
C1199 C1183 1.429 . S
C1199 C1195 1.429 . S
C1199 C1200 1.523 . S
C1200 C1184 1.368 . S
C1200 C1196 1.368 . S
C1200 C1199 1.523 . S
H1201 C1176 0.950 1_565 S
H1202 C1178 0.950 . S
H1203 C1179 0.949 . S
H1204 C1181 0.950 . S
H1205 C1183 0.950 . S
C1206 C1207 1.349 1_565 S
C1206 C1208 1.327 . S
C1206 H1231 0.950 . S
C1207 C1206 1.349 1_545 S
C1207 C1223 1.349 1_545 S
C1208 C1206 1.327 . S
C1208 C1227 1.429 . S
C1208 H1232 0.950 . S
C1209 C1226 1.574 . S
C1209 C1228 1.368 . S
C1209 H1233 0.949 . S
H1210 C1214 0.949 . S
C1211 C1212 1.349 . S
C1211 C1213 1.327 . S
C1211 H1234 0.950 . S
C1212 C1211 1.349 . S
C1212 C1224 1.349 . S
C1213 C1211 1.327 . S
C1213 C1229 1.429 . S
C1213 H1235 0.950 . S
C1214 H1210 0.949 . S
C1214 C1222 1.574 . S
C1214 C1230 1.368 . S
H1215 C1223 0.950 1_545 S
H1216 C1221 0.950 . S
H1217 C1222 0.949 . S
H1218 C1224 0.950 . S
H1219 C1225 0.950 . S
H1220 C1226 0.949 . S
C1221 H1216 0.950 . S
C1221 C1223 1.327 . S
C1221 C1227 1.429 . S
C1222 C1214 1.574 . S
C1222 H1217 0.949 . S
C1222 C1228 1.368 . S
C1223 C1207 1.349 1_565 S
C1223 H1215 0.950 1_565 S
C1223 C1221 1.327 . S
C1224 C1212 1.349 . S
C1224 H1218 0.950 . S
C1224 C1225 1.327 . S
C1225 H1219 0.950 . S
C1225 C1224 1.327 . S
C1225 C1229 1.429 . S
C1226 C1209 1.574 . S
C1226 H1220 0.949 . S
C1226 C1230 1.368 . S
C1227 C1208 1.429 . S
C1227 C1221 1.429 . S
C1227 C1228 1.523 . S
C1228 C1209 1.368 . S
C1228 C1222 1.368 . S
C1228 C1227 1.523 . S
C1229 C1213 1.429 . S
C1229 C1225 1.429 . S
C1229 C1230 1.523 . S
C1230 C1214 1.368 . S
C1230 C1226 1.368 . S
C1230 C1229 1.523 . S
H1231 C1206 0.950 . S
H1232 C1208 0.950 . S
H1233 C1209 0.949 . S
H1234 C1211 0.950 . S
H1235 C1213 0.950 . S
C1236 C1237 1.349 . S
C1236 C1238 1.327 . S
C1236 H1261 0.950 . S
C1237 C1236 1.349 . S
C1237 C1253 1.349 . S
C1238 C1236 1.327 . S
C1238 C1257 1.429 . S
C1238 H1262 0.950 . S
C1239 C1256 1.574 . S
C1239 C1258 1.368 . S
C1239 H1263 0.949 . S
H1240 C1244 0.949 . S
C1241 C1242 1.349 1_655 S
C1241 C1243 1.327 . S
C1241 H1264 0.950 . S
C1242 C1241 1.349 1_455 S
C1242 C1254 1.349 1_455 S
C1243 C1241 1.327 . S
C1243 C1259 1.429 . S
C1243 H1265 0.950 . S
C1244 H1240 0.949 . S
C1244 C1252 1.574 . S
C1244 C1260 1.368 . S
H1245 C1253 0.950 . S
H1246 C1251 0.950 . S
H1247 C1252 0.949 . S
H1248 C1254 0.950 1_455 S
H1249 C1255 0.950 . S
H1250 C1256 0.949 . S
C1251 H1246 0.950 . S
C1251 C1253 1.327 . S
C1251 C1257 1.429 . S
C1252 C1244 1.574 . S
C1252 H1247 0.949 . S
C1252 C1258 1.368 . S
C1253 C1237 1.349 . S
C1253 H1245 0.950 . S
C1253 C1251 1.327 . S
C1254 C1242 1.349 1_655 S
C1254 H1248 0.950 1_655 S
C1254 C1255 1.327 . S
C1255 H1249 0.950 . S
C1255 C1254 1.327 . S
C1255 C1259 1.429 . S
C1256 C1239 1.574 . S
C1256 H1250 0.949 . S
C1256 C1260 1.368 . S
C1257 C1238 1.429 . S
C1257 C1251 1.429 . S
C1257 C1258 1.523 . S
C1258 C1239 1.368 . S
C1258 C1252 1.368 . S
C1258 C1257 1.523 . S
C1259 C1243 1.429 . S
C1259 C1255 1.429 . S
C1259 C1260 1.523 . S
C1260 C1244 1.368 . S
C1260 C1256 1.368 . S
C1260 C1259 1.523 . S
H1261 C1236 0.950 . S
H1262 C1238 0.950 . S
H1263 C1239 0.949 . S
H1264 C1241 0.950 . S
H1265 C1243 0.950 . S
C1266 C1267 1.349 1_565 S
C1266 C1268 1.327 . S
C1266 H1291 0.950 1_565 S
C1267 C1266 1.349 1_545 S
C1267 C1283 1.349 1_545 S
C1268 C1266 1.327 . S
C1268 C1287 1.429 . S
C1268 H1292 0.950 . S
C1269 C1286 1.574 . S
C1269 C1288 1.368 . S
C1269 H1293 0.949 . S
H1270 C1274 0.949 . S
C1271 C1272 1.349 1_455 S
C1271 C1273 1.327 . S
C1271 H1294 0.950 . S
C1272 C1271 1.349 1_655 S
C1272 C1284 1.349 1_655 S
C1273 C1271 1.327 . S
C1273 C1289 1.429 . S
C1273 H1295 0.950 . S
C1274 H1270 0.949 . S
C1274 C1282 1.574 . S
C1274 C1290 1.368 . S
H1275 C1283 0.950 . S
H1276 C1281 0.950 . S
H1277 C1282 0.949 . S
H1278 C1284 0.950 1_655 S
H1279 C1285 0.950 . S
H1280 C1286 0.949 . S
C1281 H1276 0.950 . S
C1281 C1283 1.327 . S
C1281 C1287 1.429 . S
C1282 C1274 1.574 . S
C1282 H1277 0.949 . S
C1282 C1288 1.368 . S
C1283 C1267 1.349 1_565 S
C1283 H1275 0.950 . S
C1283 C1281 1.327 . S
C1284 C1272 1.349 1_455 S
C1284 H1278 0.950 1_455 S
C1284 C1285 1.327 . S
C1285 H1279 0.950 . S
C1285 C1284 1.327 . S
C1285 C1289 1.429 . S
C1286 C1269 1.574 . S
C1286 H1280 0.949 . S
C1286 C1290 1.368 . S
C1287 C1268 1.429 . S
C1287 C1281 1.429 . S
C1287 C1288 1.523 . S
C1288 C1269 1.368 . S
C1288 C1282 1.368 . S
C1288 C1287 1.523 . S
C1289 C1273 1.429 . S
C1289 C1285 1.429 . S
C1289 C1290 1.523 . S
C1290 C1274 1.368 . S
C1290 C1286 1.368 . S
C1290 C1289 1.523 . S
H1291 C1266 0.950 1_545 S
H1292 C1268 0.950 . S
H1293 C1269 0.949 . S
H1294 C1271 0.950 . S
H1295 C1273 0.950 . S
C397 N311 1.554 . S
C402 N14 1.554 . S
C427 N47 1.554 . S
C432 N344 1.554 . S
C457 N80 1.554 . S
C462 N377 1.554 . S
C487 N113 1.554 . S
C492 N212 1.554 . S
C517 N146 1.554 . S
C522 N245 1.554 . S
C547 N179 1.554 . S
C552 N278 1.554 . S
C577 N335 1.366 . S
C582 N5 1.366 . S
C607 N368 1.367 . S
C612 N38 1.367 . S
C637 N71 1.366 . S
C642 N203 1.366 . S
C667 N236 1.366 . S
C672 N104 1.366 . S
C697 N137 1.367 . S
C702 N269 1.367 . S
C727 N170 1.366 . S
C732 N302 1.366 . S
C757 C116 1.568 . S
C762 C17 1.568 . S
C787 C50 1.568 . S
C792 C149 1.568 . S
C817 C182 1.569 . S
C822 C83 1.569 . S
C847 C314 1.568 . S
C852 C215 1.568 . S
C877 C248 1.569 . S
C882 C347 1.569 . S
C907 C380 1.568 . S
C912 C281 1.568 . S
C937 C28 1.124 . S
C942 C391 1.124 . S
C967 C226 1.124 . S
C972 C61 1.124 . S
C997 C94 1.124 . S
C1002 C259 1.124 . S
C1027 C127 1.124 . S
C1032 C292 1.124 . S
C1057 C160 1.124 . S
C1062 C325 1.124 . S
C1087 C358 1.124 . S
C1092 C193 1.124 . S
C1117 C8 0.496 . S
C1122 C272 0.496 . S
C1147 C305 0.496 . S
C1152 C41 0.496 . S
C1177 C74 0.497 . S
C1182 C338 0.497 . S
C1207 C371 0.496 . S
C1212 C107 0.496 . S
C1237 C206 0.496 . S
C1242 C140 0.496 . S
C1267 C173 0.497 . S
C1272 C239 0.497 . S
