# Generated by pormake.
# Topology vbm, (6)-cn, num edge types: 1
# Building blocks:
#     Node 0, Type 0, BuildingBlock: KUMBUR_clean_sbu_1, # of connection points: 6
#     Node 1, Type 0, BuildingBlock: KUMBUR_clean_sbu_1, # of connection points: 6
#     Node 2, Type 0, BuildingBlock: KUMBUR_clean_sbu_1, # of connection points: 6
#     Node 3, Type 0, BuildingBlock: KUMBUR_clean_sbu_1, # of connection points: 6
#     Node 4, Type 0, BuildingBlock: KUMBUR_clean_sbu_1, # of connection points: 6
#     Node 5, Type 0, BuildingBlock: KUMBUR_clean_sbu_1, # of connection points: 6
#     Node 6, Type 0, BuildingBlock: KUMBUR_clean_sbu_1, # of connection points: 6
#     Node 7, Type 0, BuildingBlock: KUMBUR_clean_sbu_1, # of connection points: 6
#     Node 8, Type 0, BuildingBlock: KUMBUR_clean_sbu_1, # of connection points: 6
#     Node 9, Type 0, BuildingBlock: KUMBUR_clean_sbu_1, # of connection points: 6
#     Node 10, Type 0, BuildingBlock: KUMBUR_clean_sbu_1, # of connection points: 6
#     Node 11, Type 0, BuildingBlock: KUMBUR_clean_sbu_1, # of connection points: 6
#     Node 12, Type 0, BuildingBlock: KUMBUR_clean_sbu_1, # of connection points: 6
#     Node 13, Type 0, BuildingBlock: KUMBUR_clean_sbu_1, # of connection points: 6
#     Node 14, Type 0, BuildingBlock: KUMBUR_clean_sbu_1, # of connection points: 6
#     Node 15, Type 0, BuildingBlock: KUMBUR_clean_sbu_1, # of connection points: 6
#     Edge 16, Type (0, 0), None
#     Edge 17, Type (0, 0), None
#     Edge 18, Type (0, 0), None
#     Edge 19, Type (0, 0), None
#     Edge 20, Type (0, 0), None
#     Edge 21, Type (0, 0), None
#     Edge 22, Type (0, 0), None
#     Edge 23, Type (0, 0), None
#     Edge 24, Type (0, 0), None
#     Edge 25, Type (0, 0), None
#     Edge 26, Type (0, 0), None
#     Edge 27, Type (0, 0), None
#     Edge 28, Type (0, 0), None
#     Edge 29, Type (0, 0), None
#     Edge 30, Type (0, 0), None
#     Edge 31, Type (0, 0), None
#     Edge 32, Type (0, 0), None
#     Edge 33, Type (0, 0), None
#     Edge 34, Type (0, 0), None
#     Edge 35, Type (0, 0), None
#     Edge 36, Type (0, 0), None
#     Edge 37, Type (0, 0), None
#     Edge 38, Type (0, 0), None
#     Edge 39, Type (0, 0), None
#     Edge 40, Type (0, 0), None
#     Edge 41, Type (0, 0), None
#     Edge 42, Type (0, 0), None
#     Edge 43, Type (0, 0), None
#     Edge 44, Type (0, 0), None
#     Edge 45, Type (0, 0), None
#     Edge 46, Type (0, 0), None
#     Edge 47, Type (0, 0), None
#     Edge 48, Type (0, 0), None
#     Edge 49, Type (0, 0), None
#     Edge 50, Type (0, 0), None
#     Edge 51, Type (0, 0), None
#     Edge 52, Type (0, 0), None
#     Edge 53, Type (0, 0), None
#     Edge 54, Type (0, 0), None
#     Edge 55, Type (0, 0), None
#     Edge 56, Type (0, 0), None
#     Edge 57, Type (0, 0), None
#     Edge 58, Type (0, 0), None
#     Edge 59, Type (0, 0), None
#     Edge 60, Type (0, 0), None
#     Edge 61, Type (0, 0), None
#     Edge 62, Type (0, 0), None
#     Edge 63, Type (0, 0), None
# Relax obj value: 0.098
# Max RMSD: 0.191
# Mean RMSD: 0.191
data_MOF--net-vbm--node1-KUMBUR_clean_sbu_1--edge1-none
_symmetry_space_group_name_H-M    P1
_symmetry_Int_Tables_number       1
_symmetry_cell_setting            triclinic
loop_
_symmetry_equiv_pos_as_xyz
'x, y, z'
_cell_length_a     25.266243
_cell_length_b     17.10573
_cell_length_c     29.891069
_cell_angle_alpha  89.9307
_cell_angle_beta   89.583087
_cell_angle_gamma 90.091743
loop_
_atom_site_label
_atom_site_type_symbol
_atom_site_fract_x
_atom_site_fract_y
_atom_site_fract_z
_atom_type_partial_charge
Tb0 Tb 0.02438 0.16885 0.06522 0.0
C1 C 0.20099 0.00893 -0.03874 0.0
N2 N 0.13881 0.03019 -0.04024 0.0
C3 C 0.12958 0.15699 0.88607 0.0
C4 C 0.24785 0.05593 -0.07099 0.0
C5 C 0.10665 0.08961 -0.07231 0.0
C6 C 0.19752 0.16473 0.87571 0.0
C7 C 0.28997 0.97724 -0.00205 0.0
C8 C 0.22169 0.98397 0.00057 0.0
C9 C 0.31807 0.97788 -0.03961 0.0
C10 C 0.30281 0.03657 -0.06432 0.0
Tb11 Tb 0.09544 0.00415 0.0299 0.0
N12 N 0.18542 0.98181 0.04418 0.0
C13 C 0.32537 0.97198 0.04285 0.0
C14 C 0.20033 0.97319 0.09538 0.0
C15 C 0.26503 0.96802 0.11206 0.0
H16 H 0.11906 0.04792 -0.04656 0.0
H17 H 0.27189 0.94332 0.14427 0.0
H18 H -0.05191 0.1114 0.15098 0.0
H19 H -0.05397 0.41975 -0.02684 0.0
H20 H 0.17016 0.96916 0.12082 0.0
H21 H 0.36833 0.96559 0.03814 0.0
H22 H 0.02093 0.34467 0.01265 0.0
H23 H 0.10696 0.12391 0.90791 0.0
H24 H 0.35989 0.96312 -0.03899 0.0
H25 H 0.33711 0.07103 -0.07296 0.0
H26 H 0.85501 0.10504 0.16343 0.0
H27 H 0.21273 0.19667 0.84862 0.0
H28 H 0.86992 0.348 -0.05335 0.0
N29 N -0.06033 0.16141 0.08648 0.0
C30 C 0.90606 0.18028 0.05347 0.0
C31 C 0.86758 0.12453 0.13202 0.0
C32 C 0.85356 0.16108 0.05618 0.0
C33 C 0.92125 0.13178 0.12574 0.0
C34 C 0.83285 0.14034 0.09771 0.0
N35 N -0.02521 0.24309 0.01804 0.0
C36 C -0.01557 0.31715 0.00343 0.0
C37 C 0.88874 0.2482 -0.01379 0.0
C38 C -0.07515 0.21831 0.01675 0.0
C39 C 0.89868 0.32007 -0.03242 0.0
C40 C -0.05609 0.35872 -0.01911 0.0
H41 H 0.79136 0.13982 0.10498 0.0
H42 H 0.8042 0.1113 0.00743 0.0
H43 H 0.81671 0.21416 -0.04727 0.0
O44 O 0.06979 0.24383 0.10774 0.0
O45 O -0.0321 0.06316 0.06576 0.0
O46 O 0.00353 0.9756 0.01995 0.0
O47 O -0.00887 0.27363 0.08989 0.0
O48 O 0.02154 0.15578 -0.0164 0.0
O49 O 0.03091 0.02612 -0.0253 0.0
O50 O 0.10966 0.89307 0.06072 0.0
O51 O 0.15186 0.12034 0.04612 0.0
O52 O 0.10142 0.22848 0.04672 0.0
O53 O 0.10948 0.90888 -0.01111 0.0
O54 O 0.07782 0.97641 0.1077 0.0
O55 O 0.04149 0.08857 0.13343 0.0
C56 C -0.04184 0.00568 0.03765 0.0
C57 C 0.04824 0.38448 0.10509 0.0
C58 C 0.10904 0.57043 0.0666 0.0
C59 C 0.06384 0.60949 0.10418 0.0
C60 C 0.01313 0.45362 0.13298 0.0
C61 C 0.02016 0.55336 0.13322 0.0
C62 C 0.09656 0.41051 0.0697 0.0
C63 C 0.01385 0.09299 -0.0449 0.0
C64 C 0.03355 0.29824 0.10941 0.0
C65 C 0.82695 0.15953 0.01583 0.0
C66 C 0.84147 0.2089 -0.01855 0.0
C67 C 0.15038 0.20248 0.0477 0.0
C68 C 0.12915 0.77721 0.01239 0.0
C69 C 0.12481 0.63493 0.02984 0.0
C70 C 0.12482 0.62824 -0.01863 0.0
C71 C 0.14117 0.76138 -0.0319 0.0
C72 C 0.13192 0.71324 0.04369 0.0
C73 C 0.14147 0.68652 -0.04695 0.0
C74 C 0.05945 0.01388 0.14519 0.0
C75 C 0.11627 0.86056 0.02187 0.0
H76 H 0.06651 0.66792 0.11453 0.0
H77 H -0.02224 0.43315 0.14872 0.0
H78 H -0.0087 0.58604 0.15105 0.0
H79 H 0.1113 0.36466 0.04818 0.0
H80 H 0.11326 0.58197 -0.03948 0.0
H81 H 0.15112 0.80753 -0.05513 0.0
H82 H 0.13993 0.72378 0.07868 0.0
H83 H 0.14915 0.67457 0.91804 0.0
Tb84 Tb 0.82612 0.82294 0.05369 0.0
C85 C 0.64347 0.96202 -0.02458 0.0
N86 N 0.70582 0.94548 -0.03337 0.0
C87 C 0.71083 0.83469 0.88519 0.0
C88 C 0.59538 0.91928 -0.05579 0.0
C89 C 0.73624 0.89323 -0.0709 0.0
C90 C 0.64229 0.82493 0.87978 0.0
C91 C 0.55837 0.97974 0.02424 0.0
C92 C 0.62629 0.98137 0.01845 0.0
C93 C 0.52445 0.97346 -0.00882 0.0
C94 C 0.54118 0.93074 -0.04207 0.0
Tb95 Tb 0.75369 0.97485 0.03154 0.0
N96 N 0.66805 0.98911 0.05813 0.0
C97 C 0.52972 0.98591 0.07266 0.0
C98 C 0.66009 -0.00019 0.11067 0.0
C99 C 0.59921 -0.00063 0.13437 0.0
H100 H 0.72522 0.93009 -0.04234 0.0
H101 H 0.59809 0.02789 0.16648 0.0
H102 H 0.85832 0.98839 0.11391 0.0
H103 H -0.03209 0.65688 -0.0358 0.0
H104 H 0.68962 0.02125 0.13253 0.0
H105 H 0.48626 0.98963 0.07286 0.0
H106 H 0.88318 0.72517 -0.02739 0.0
H107 H 0.7351 0.86341 0.90749 0.0
H108 H 0.48211 0.97983 -0.00278 0.0
H109 H 0.5073 0.89838 -0.05179 0.0
H110 H 0.90383 0.00174 0.18529 0.0
H111 H 0.62441 0.79127 0.85438 0.0
H112 H 0.03811 0.68586 0.01602 0.0
N113 N 0.88367 0.87382 0.10311 0.0
C114 C -0.06806 0.84202 0.09982 0.0
C115 C 0.91115 0.95522 0.16212 0.0
C116 C -0.02916 0.86439 0.1296 0.0
C117 C 0.88072 0.94244 0.12563 0.0
C118 C -0.04464 0.91153 0.16504 0.0
N119 N 0.90573 0.78118 0.03325 0.0
C120 C 0.91452 0.73661 -0.00395 0.0
C121 C -0.0066 0.76525 0.05738 0.0
C122 C -0.05645 0.79396 0.06384 0.0
C123 C 0.00202 0.71418 0.02145 0.0
C124 C -0.03795 0.69809 -0.00878 0.0
H125 H -0.02473 0.9182 0.19423 0.0
H126 H 0.05401 0.85052 0.14387 0.0
H127 H 0.06992 0.77567 0.08559 0.0
O128 O 0.85424 0.72332 0.08891 0.0
O129 O 0.89033 0.89589 0.02078 0.0
O130 O 0.8483 0.00466 0.0394 0.0
O131 O 0.81311 0.7103 0.02792 0.0
O132 O 0.82402 0.84986 -0.02551 0.0
O133 O 0.81253 0.97854 -0.02798 0.0
O134 O 0.73096 0.08424 0.05895 0.0
O135 O 0.70249 0.85253 0.0439 0.0
O136 O 0.75319 0.74969 0.06001 0.0
O137 O 0.72461 0.06039 -0.01099 0.0
O138 O 0.77015 0.00251 0.10528 0.0
O139 O 0.78859 0.87963 0.12553 0.0
C140 C 0.89662 0.9699 0.03022 0.0
C141 C 0.82842 0.59003 0.06733 0.0
C142 C 0.76952 0.39569 0.04436 0.0
C143 C 0.82419 0.36348 0.0743 0.0
C144 C 0.87255 0.52781 0.09174 0.0
C145 C 0.87083 0.42687 0.09489 0.0
C146 C 0.7749 0.55646 0.04108 0.0
C147 C 0.82976 0.91648 -0.05102 0.0
C148 C 0.83978 0.67434 0.05882 0.0
C149 C 0.02132 0.83744 0.12291 0.0
C150 C 0.03147 0.79004 0.08726 0.0
C151 C 0.70498 0.77194 0.05272 0.0
C152 C 0.71516 0.19082 0.00866 0.0
C153 C 0.74279 0.32803 0.01673 0.0
C154 C 0.73057 0.33121 -0.03003 0.0
C155 C 0.69292 0.20672 -0.03284 0.0
C156 C 0.73433 0.2532 0.03595 0.0
C157 C 0.69642 0.27999 -0.04986 0.0
C158 C 0.77506 0.95537 0.1406 0.0
C159 C 0.71321 0.10873 0.02105 0.0
H160 H 0.83079 0.3022 0.07864 0.0
H161 H 0.90791 0.55448 0.10473 0.0
H162 H 0.90477 0.39942 0.10965 0.0
H163 H 0.75082 0.59976 0.02391 0.0
H164 H 0.74522 0.3718 -0.05408 0.0
H165 H 0.673 0.16235 -0.05245 0.0
H166 H 0.74474 0.24249 0.07041 0.0
H167 H 0.67862 0.29385 0.91841 0.0
Tb168 Tb 0.02334 0.81141 0.27986 0.0
C169 C 0.196 0.9574 0.37038 0.0
N170 N 0.13432 0.93722 0.37854 0.0
C171 C 0.13273 0.82237 0.45904 0.0
C172 C 0.24517 0.91507 0.39985 0.0
C173 C 0.10581 0.88167 0.41597 0.0
C174 C 0.20119 0.81595 0.46349 0.0
C175 C 0.28142 0.99343 0.32613 0.0
C176 C 0.21332 0.98261 0.32945 0.0
C177 C 0.31357 0.98778 0.35996 0.0
C178 C 0.29781 0.93367 0.3875 0.0
Tb179 Tb 0.08709 0.97184 0.31193 0.0
N180 N 0.17334 0.98415 0.28888 0.0
C181 C 0.31151 0.00289 0.27813 0.0
C182 C 0.18279 0.99382 0.2372 0.0
C183 C 0.24373 0.00339 0.21578 0.0
H184 H 0.1153 0.92037 0.3877 0.0
H185 H 0.24398 0.02956 0.18298 0.0
H186 H 0.0085 0.72049 0.17364 0.0
H187 H 0.90237 0.85382 0.41022 0.0
H188 H 0.15159 0.00018 0.21413 0.0
H189 H 0.35447 0.01291 0.27878 0.0
H190 H -0.02996 0.75431 0.38627 0.0
H191 H 0.10733 0.85085 0.43741 0.0
H192 H 0.35576 -0.00216 0.35533 0.0
H193 H 0.33031 0.90079 0.39541 0.0
H194 H -0.0688 0.67543 0.13166 0.0
H195 H 0.22008 0.78466 0.48877 0.0
H196 H 0.83235 0.88353 0.36103 0.0
N197 N -0.0372 0.76503 0.22879 0.0
C198 C 0.91408 0.76365 0.24631 0.0
C199 C -0.07422 0.70514 0.16309 0.0
C200 C 0.87083 0.76353 0.21836 0.0
C201 C -0.03034 0.73123 0.1873 0.0
C202 C 0.87544 0.72592 0.17813 0.0
N203 N -0.05036 0.77364 0.31824 0.0
C204 C -0.05883 0.77628 0.36322 0.0
C205 C 0.86423 0.81827 0.30512 0.0
C206 C 0.90748 0.77668 0.29133 0.0
C207 C 0.86353 0.84782 0.34863 0.0
C208 C 0.90169 0.82591 0.37826 0.0
H209 H 0.83954 0.71031 0.16127 0.0
H210 H 0.79513 0.81807 0.20808 0.0
H211 H 0.80783 0.89 0.27973 0.0
O212 O 0.05898 0.72436 0.2395 0.0
O213 O -0.04235 0.90068 0.26673 0.0
O214 O -0.00807 -0.00467 0.30884 0.0
O215 O 0.00021 0.6944 0.29091 0.0
O216 O 0.02905 0.84371 0.36121 0.0
O217 O 0.02565 0.97037 0.36844 0.0
O218 O 0.11356 0.08077 0.28773 0.0
O219 O 0.14445 0.85424 0.2968 0.0
O220 O 0.09685 0.74499 0.29573 0.0
O221 O 0.10594 0.05955 0.35795 0.0
O222 O 0.06381 0.01248 0.23888 0.0
O223 O 0.05537 0.89089 0.21426 0.0
C224 C -0.05217 0.96714 0.2875 0.0
C225 C 0.03533 0.58813 0.24903 0.0
C226 C 0.08365 0.39852 0.28727 0.0
C227 C 0.02958 0.36405 0.25779 0.0
C228 C -0.00989 0.52553 0.22667 0.0
C229 C -0.01273 0.42527 0.2303 0.0
C230 C 0.08458 0.55667 0.27964 0.0
C231 C 0.01395 0.90527 0.3901 0.0
C232 C 0.02596 0.67122 0.2555 0.0
C233 C 0.82702 0.80608 0.23103 0.0
C234 C 0.82943 0.84165 0.2726 0.0
C235 C 0.14491 0.77176 0.29427 0.0
C236 C 0.10214 0.1931 0.33526 0.0
C237 C 0.1022 0.33409 0.31834 0.0
C238 C 0.09726 0.34144 0.36472 0.0
C239 C 0.07929 0.21054 0.37662 0.0
C240 C 0.10467 0.25527 0.30303 0.0
C241 C 0.07087 0.28741 0.38675 0.0
C242 C 0.05965 0.97028 0.20116 0.0
C243 C 0.11728 0.11065 0.32714 0.0
H244 H 0.01684 0.30637 0.26456 0.0
H245 H -0.04529 0.55244 0.21373 0.0
H246 H -0.04923 0.39971 0.21897 0.0
H247 H 0.10545 0.60179 0.29788 0.0
H248 H 0.10264 0.38856 0.38693 0.0
H249 H 0.0632 0.16562 0.39834 0.0
H250 H 0.11199 0.24383 0.26793 0.0
H251 H 0.04077 0.31149 0.40794 0.0
Tb252 Tb 0.81205 0.15822 0.26624 0.0
C253 C 0.64633 0.0062 0.38318 0.0
N254 N 0.70857 0.02662 0.38169 0.0
C255 C 0.72217 0.15798 0.45207 0.0
C256 C 0.60153 0.05645 0.41498 0.0
C257 C 0.74219 0.08745 0.41156 0.0
C258 C 0.6557 0.1682 0.46365 0.0
C259 C 0.55715 0.96536 0.35149 0.0
C260 C 0.62396 0.9794 0.34571 0.0
C261 C 0.53183 0.9705 0.3904 0.0
C262 C 0.54732 0.03463 0.41113 0.0
Tb263 Tb 0.74785 -0.00083 0.30872 0.0
N264 N 0.6574 0.98244 0.30064 0.0
C265 C 0.51915 0.96007 0.30752 0.0
C266 C 0.63991 0.97623 0.25037 0.0
C267 C 0.57572 0.96571 0.23677 0.0
H268 H 0.72869 0.0445 0.38685 0.0
H269 H 0.56949 0.94085 0.20526 0.0
H270 H 0.86459 0.26401 0.16825 0.0
H271 H 0.91207 0.33472 0.38911 0.0
H272 H 0.66851 0.97735 0.22359 0.0
H273 H 0.47672 0.95078 0.31367 0.0
H274 H 0.83148 0.30485 0.34067 0.0
H275 H 0.74326 0.1227 0.43048 0.0
H276 H 0.4902 0.95545 0.39222 0.0
H277 H 0.51454 0.0695 0.42045 0.0
H278 H -0.04872 0.31103 0.15512 0.0
H279 H 0.64175 0.20469 0.48737 0.0
H280 H -0.01726 0.23698 0.38617 0.0
N281 N 0.88638 0.19584 0.22648 0.0
C282 C -0.07303 0.18098 0.25256 0.0
C283 C -0.05328 0.26513 0.17876 0.0
C284 C -0.02206 0.18142 0.23636 0.0
C285 C 0.89559 0.24345 0.18989 0.0
C286 C -0.01107 0.22529 0.19826 0.0
N287 N 0.87036 0.2098 0.3106 0.0
C288 C 0.86764 0.27264 0.3384 0.0
C289 C -0.04267 0.1844 0.3261 0.0
C290 C 0.91708 0.18374 0.29748 0.0
C291 C -0.04596 0.23645 0.36145 0.0
C292 C 0.91159 0.28847 0.36465 0.0
H293 H 0.02947 0.23743 0.18889 0.0
H294 H 0.05451 0.14911 0.25123 0.0
H295 H 0.02229 0.11532 0.33533 0.0
O296 O 0.76381 0.22603 0.22054 0.0
O297 O 0.87138 0.05805 0.2533 0.0
O298 O 0.84411 0.99035 0.31207 0.0
O299 O 0.83275 0.27173 0.25378 0.0
O300 O 0.82125 0.14001 0.35025 0.0
O301 O 0.81437 0.01313 0.36247 0.0
O302 O 0.72338 0.89182 0.27574 0.0
O303 O 0.69139 0.11564 0.29401 0.0
O304 O 0.7423 0.22257 0.29197 0.0
O305 O 0.73589 0.8997 0.34617 0.0
O306 O 0.76169 0.96063 0.23265 0.0
O307 O 0.78753 0.07469 0.2039 0.0
C308 C 0.88623 0.0083 0.28504 0.0
C309 C 0.78554 0.36731 0.22022 0.0
C310 C 0.75097 0.56082 0.26413 0.0
C311 C 0.79777 0.59179 0.22617 0.0
C312 C 0.82737 0.42734 0.19179 0.0
C313 C 0.83291 0.52835 0.19388 0.0
C314 C 0.74447 0.40178 0.2583 0.0
C315 C 0.83246 0.07959 0.38097 0.0
C316 C 0.79759 0.28438 0.22381 0.0
C317 C 0.01587 0.15495 0.26505 0.0
C318 C 0.00241 0.14919 0.31113 0.0
C319 C 0.6938 0.19763 0.29254 0.0
C320 C 0.74264 0.77037 0.31566 0.0
C321 C 0.7427 0.62826 0.29777 0.0
C322 C 0.76334 0.62078 0.34099 0.0
C323 C 0.77036 0.75175 0.3539 0.0
C324 C 0.73426 0.70827 0.28388 0.0
C325 C 0.78996 0.67859 0.36016 0.0
C326 C 0.77593 -0.00238 0.19474 0.0
C327 C 0.72397 0.85351 0.31307 0.0
H328 H 0.80705 0.65207 0.22562 0.0
H329 H 0.85914 0.39772 0.17527 0.0
H330 H 0.86555 0.5541 0.17592 0.0
H331 H 0.73033 0.35843 0.28145 0.0
H332 H 0.76044 0.57393 0.36381 0.0
H333 H 0.77755 0.79479 0.37842 0.0
H334 H 0.71896 0.72098 0.25093 0.0
H335 H 0.81852 0.66154 0.38462 0.0
Tb336 Tb 0.72985 0.98262 0.82472 0.0
C337 C -0.06669 0.78867 0.75763 0.0
N338 N 0.89425 0.83819 0.74523 0.0
C339 C -0.0396 0.91094 0.70905 0.0
C340 C -0.01618 0.79535 0.73558 0.0
C341 C 0.91124 0.90623 0.72924 0.0
C342 C -0.01241 0.84419 0.70018 0.0
C343 C -0.02858 0.8139 0.82815 0.0
C344 C -0.06783 0.77676 0.80322 0.0
C345 C 0.0174 0.83228 0.80715 0.0
C346 C 0.02814 0.80691 0.7628 0.0
Tb347 Tb 0.81692 0.83557 0.78356 0.0
N348 N 0.88307 0.77023 0.82408 0.0
C349 C -0.03889 0.8373 0.87216 0.0
C350 C 0.88556 0.7547 0.87039 0.0
C351 C 0.92047 0.80167 0.89617 0.0
H352 H 0.88568 0.95312 0.73337 0.0
H353 H 0.90508 0.74263 0.89449 0.0
H354 H 0.68416 0.81531 -0.02569 0.0
H355 H 0.56127 0.05123 0.70451 0.0
H356 H 0.86081 0.76655 0.84149 0.0
H357 H -0.01454 0.88041 0.88868 0.0
H358 H 0.65993 0.03203 0.73056 0.0
H359 H -0.02698 0.96168 0.69444 0.0
H360 H 0.03414 0.77971 0.79739 0.0
H361 H 0.06575 0.82525 0.74514 0.0
H362 H 0.59674 0.73736 -0.02656 0.0
H363 H 0.02404 0.85 0.681 0.0
H364 H 0.4566 0.00671 0.80318 0.0
N365 N 0.66038 0.93769 0.90009 0.0
C366 C 0.60747 0.94709 0.87129 0.0
C367 C 0.60385 0.78133 -0.05097 0.0
C368 C 0.55556 0.87404 0.87722 0.0
C369 C 0.65748 0.83471 -0.05018 0.0
C370 C 0.55789 0.79817 0.91353 0.0
N371 N 0.63939 0.01768 0.80603 0.0
C372 C 0.6277 0.02434 0.75404 0.0
C373 C 0.53088 0.01023 0.84663 0.0
C374 C 0.59877 0.00981 0.84717 0.0
C375 C 0.50014 0.00698 0.80043 0.0
C376 C 0.56335 0.01937 0.73398 0.0
H377 H 0.52321 0.763 0.91829 0.0
H378 H 0.53272 0.86749 0.85252 0.0
H379 H 0.45812 -0.0025 0.88179 0.0
O380 O 0.7266 0.09058 0.78742 0.0
O381 O 0.68501 0.86754 0.79565 0.0
O382 O 0.74337 0.76813 0.79922 0.0
O383 O 0.70095 0.08533 0.85484 0.0
O384 O 0.76842 0.95945 0.74379 0.0
O385 O 0.77512 0.94934 0.73961 0.0
O386 O 0.78785 0.76974 0.72537 0.0
O387 O 0.88296 0.91116 0.80965 0.0
O388 O 0.83094 0.018 0.82257 0.0
O389 O 0.83843 0.71816 0.77196 0.0
O390 O 0.81376 0.85977 0.8639 0.0
O391 O 0.79431 0.98342 0.87874 0.0
C392 C 0.69363 0.78798 0.79148 0.0
C393 C 0.72087 0.21707 0.82918 0.0
C394 C 0.74825 0.35588 0.80569 0.0
C395 C 0.78031 0.35357 0.84429 0.0
C396 C 0.74779 0.22886 0.86907 0.0
C397 C 0.77729 0.29558 0.87575 0.0
C398 C 0.71927 0.28362 0.79755 0.0
C399 C 0.76379 -0.00066 0.70095 0.0
C400 C 0.70577 0.13099 0.82005 0.0
C401 C 0.5028 0.89674 0.87143 0.0
C402 C 0.49762 0.97505 0.87582 0.0
C403 C 0.88405 0.98579 0.81864 0.0
C404 C 0.79758 0.61962 0.72714 0.0
C405 C 0.76118 0.42055 0.76906 0.0
C406 C 0.80898 0.39082 0.73061 0.0
C407 C 0.83793 0.56034 0.69859 0.0
C408 C 0.75584 0.58202 0.76315 0.0
C409 C 0.84332 0.4589 0.69778 0.0
C410 C 0.8225 0.92172 0.89244 0.0
C411 C 0.81493 0.70621 0.73483 0.0
H412 H 0.81482 0.38858 0.84921 0.0
H413 H 0.75259 0.18194 0.89296 0.0
H414 H 0.80383 0.29921 0.90343 0.0
H415 H 0.70306 0.2757 0.76451 0.0
H416 H 0.83241 0.34523 0.74834 0.0
H417 H 0.87313 0.59199 0.68887 0.0
H418 H 0.73503 0.62622 0.78086 0.0
H419 H 0.81841 0.40937 0.69944 0.0
Tb420 Tb 0.10229 0.02304 0.82292 0.0
C421 C 0.90612 0.219 0.75175 0.0
N422 N -0.05559 0.16536 0.7425 0.0
C423 C 0.87668 0.09166 0.70818 0.0
C424 C 0.85675 0.212 0.72872 0.0
C425 C -0.07425 0.09544 0.72963 0.0
C426 C 0.85312 0.15961 0.6953 0.0
C427 C 0.86403 0.20573 0.82178 0.0
C428 C 0.90541 0.23865 0.79674 0.0
C429 C 0.81912 0.18734 0.80027 0.0
C430 C 0.8112 0.20555 0.7552 0.0
Tb431 Tb 0.01927 0.17113 0.78386 0.0
N432 N -0.0465 0.2417 0.81899 0.0
C433 C 0.87142 0.18239 0.86615 0.0
C434 C -0.0491 0.25616 0.86512 0.0
C435 C 0.91385 0.21127 0.89015 0.0
H436 H -0.05095 0.04658 0.73721 0.0
H437 H -0.06761 0.26827 0.88926 0.0
H438 H 0.16367 0.15859 -0.02771 0.0
H439 H 0.24251 0.98857 0.67339 0.0
H440 H -0.02408 0.24263 0.83595 0.0
H441 H 0.84453 0.14178 0.88236 0.0
H442 H 0.15304 0.99288 0.71562 0.0
H443 H 0.85556 0.04128 0.70101 0.0
H444 H 0.80557 0.24229 0.78962 0.0
H445 H 0.77387 0.18602 0.73896 0.0
H446 H 0.25557 0.22976 -0.02985 0.0
H447 H 0.81736 0.15528 0.67546 0.0
H448 H 0.36392 0.98812 0.76165 0.0
N449 N 0.17856 0.04957 0.89021 0.0
C450 C 0.22795 0.0436 0.85591 0.0
C451 C 0.24397 0.19212 -0.05658 0.0
C452 C 0.28208 0.1114 0.8619 0.0
C453 C 0.18871 0.14116 -0.05435 0.0
C454 C 0.28567 0.17979 0.9031 0.0
N455 N 0.18448 0.99411 0.78831 0.0
C456 C 0.18703 -0.00135 0.7355 0.0
C457 C 0.29777 0.98556 0.81427 0.0
C458 C 0.23107 0.99018 0.82409 0.0
C459 C 0.32056 0.992 0.76474 0.0
C460 C 0.24623 0.00235 0.70762 0.0
H461 H 0.3213 0.21161 0.90809 0.0
H462 H 0.3024 0.12353 0.83509 0.0
H463 H 0.37532 0.98425 0.84085 0.0
O464 O 0.111 0.90891 0.79515 0.0
O465 O 0.15026 0.13895 0.80004 0.0
O466 O 0.0958 0.23785 0.78201 0.0
O467 O 0.13129 0.93195 0.86274 0.0
O468 O 0.0734 0.0514 0.74176 0.0
O469 O 0.0667 0.06278 0.73851 0.0
O470 O 0.04881 0.28311 0.78795 0.0
O471 O -0.04866 0.10322 0.81437 0.0
O472 O 0.00099 0.99297 0.82011 0.0
O473 O 0.00207 0.25931 0.73066 0.0
O474 O 0.02305 0.15255 0.86636 0.0
O475 O 0.03703 0.02736 0.87832 0.0
C476 C 0.14513 0.21595 0.78685 0.0
C477 C 0.11076 0.79809 0.84803 0.0
C478 C 0.08161 0.65993 0.83196 0.0
C479 C 0.04924 0.66703 0.87094 0.0
C480 C 0.08056 0.79663 0.88714 0.0
C481 C 0.05081 0.73201 0.89838 0.0
C482 C 0.11091 0.72819 0.82088 0.0
C483 C 0.05962 0.00668 0.70252 0.0
C484 C 0.12889 0.87805 0.83208 0.0
C485 C 0.33261 0.08682 0.84871 0.0
C486 C 0.33604 0.00906 0.84263 0.0
C487 C -0.05147 0.02744 0.81985 0.0
C488 C 0.02347 0.40578 0.75196 0.0
C489 C 0.06675 0.59992 0.79451 0.0
C490 C 0.01206 0.63336 0.76375 0.0
C491 C -0.02261 0.46724 0.73001 0.0
C492 C 0.07049 0.44129 0.78305 0.0
C493 C -0.02836 0.56859 0.73287 0.0
C494 C 0.01509 0.09161 0.8963 0.0
C495 C 0.02749 0.31373 0.75252 0.0
H496 H 0.01688 0.62895 0.87919 0.0
H497 H 0.07597 0.84817 0.9078 0.0
H498 H 0.0256 0.73563 -0.07276 0.0
H499 H 0.12205 0.73258 0.78619 0.0
H500 H -0.00713 0.67205 0.7894 0.0
H501 H -0.05597 0.43747 0.71548 0.0
H502 H 0.09956 0.3985 0.79136 0.0
H503 H -0.00373 0.61737 0.73621 0.0
Tb504 Tb 0.74632 0.01829 0.52015 0.0
C505 C -0.05804 0.22074 0.5841 0.0
N506 N 0.89968 0.17658 0.59657 0.0
C507 C -0.0431 0.10753 0.6433 0.0
C508 C -0.01017 0.21096 0.60832 0.0
C509 C 0.90992 0.11272 0.61943 0.0
C510 C -0.01293 0.17293 0.6482 0.0
C511 C -0.0171 0.18412 0.51646 0.0
C512 C -0.05606 0.22867 0.5389 0.0
C513 C 0.02634 0.15965 0.53931 0.0
C514 C 0.0344 0.18484 0.58395 0.0
Tb515 Tb 0.82774 0.16237 0.55353 0.0
N516 N 0.89525 0.23243 0.51776 0.0
C517 C -0.02717 0.15508 0.47367 0.0
C518 C 0.89901 0.24147 0.47169 0.0
C519 C -0.06868 0.18585 0.44937 0.0
H520 H 0.88044 0.06992 0.61492 0.0
H521 H 0.91878 0.24614 0.44753 0.0
H522 H 0.68572 0.15683 0.36789 0.0
H523 H 0.60222 0.97185 0.66743 0.0
H524 H 0.87207 0.23399 0.50074 0.0
H525 H -0.003 0.1097 0.45883 0.0
H526 H 0.69371 0.98439 0.62662 0.0
H527 H -0.0297 0.05713 0.65871 0.0
H528 H 0.04755 0.20745 0.55042 0.0
H529 H 0.06691 0.15778 0.60465 0.0
H530 H 0.59608 0.23321 0.37284 0.0
H531 H 0.02189 0.16749 0.66904 0.0
H532 H 0.48378 0.98287 0.57746 0.0
N533 N 0.67162 0.05108 0.45241 0.0
C534 C 0.62312 0.05086 0.488 0.0
C535 C 0.6066 0.19206 0.39732 0.0
C536 C 0.57057 0.1199 0.48133 0.0
C537 C 0.66054 0.13931 0.39434 0.0
C538 C 0.56637 0.18338 0.43847 0.0
N539 N 0.66294 -0.00533 0.55404 0.0
C540 C 0.65955 0.99272 0.60679 0.0
C541 C 0.55063 0.99056 0.52637 0.0
C542 C 0.61725 -0.0043 0.51792 0.0
C543 C 0.52717 0.9891 0.57525 0.0
C544 C 0.5997 0.99225 0.63378 0.0
H545 H 0.53156 0.21659 0.43323 0.0
H546 H 0.55191 0.13559 0.51053 0.0
H547 H 0.4724 0.00288 0.50161 0.0
O548 O 0.74695 0.90782 0.5539 0.0
O549 O 0.69678 0.13256 0.54161 0.0
O550 O 0.75239 0.23244 0.55212 0.0
O551 O 0.70945 0.9216 0.49121 0.0
O552 O 0.77423 0.04997 0.60078 0.0
O553 O 0.78005 0.05947 0.60311 0.0
O554 O 0.79823 0.27249 0.5479 0.0
O555 O 0.89738 0.08894 0.53384 0.0
O556 O 0.84584 0.98268 0.52081 0.0
O557 O 0.84013 0.24535 0.60872 0.0
O558 O 0.82677 0.14038 0.47086 0.0
O559 O 0.80824 0.01668 0.46061 0.0
C560 C 0.70251 0.21073 0.55105 0.0
C561 C 0.73703 0.79198 0.50665 0.0
C562 C 0.76866 0.65411 0.51895 0.0
C563 C 0.79934 0.66597 0.48016 0.0
C564 C 0.76015 0.79088 0.46487 0.0
C565 C 0.79369 0.73144 0.45409 0.0
C566 C 0.73844 0.72043 0.53286 0.0
C567 C 0.78815 0.00672 0.64064 0.0
C568 C 0.72051 0.87195 0.52276 0.0
C569 C 0.52009 0.10172 0.49688 0.0
C570 C 0.51273 0.02406 0.50108 0.0
C571 C 0.89846 0.01456 0.52479 0.0
C572 C 0.82227 0.38792 0.58713 0.0
C573 C 0.78603 0.5882 0.5516 0.0
C574 C 0.84056 0.6137 0.58519 0.0
C575 C 0.86821 0.44209 0.61323 0.0
C576 C 0.77796 0.42913 0.55514 0.0
C577 C 0.87765 0.5423 0.61403 0.0
C578 C 0.83273 0.07853 0.44113 0.0
C579 C 0.81518 0.29941 0.58603 0.0
H580 H 0.83443 0.6331 0.47253 0.0
H581 H 0.76219 0.84327 0.44456 0.0
H582 H 0.82471 0.74571 0.43091 0.0
H583 H 0.72507 0.72037 0.5672 0.0
H584 H 0.8621 0.65185 0.56049 0.0
H585 H 0.89948 0.40831 0.62848 0.0
H586 H 0.74881 0.38913 0.54309 0.0
H587 H 0.85455 0.59264 0.61153 0.0
Tb588 Tb 0.11555 0.97116 0.52033 0.0
C589 C 0.92041 0.79563 0.60427 0.0
N590 N -0.03927 0.84817 0.60692 0.0
C591 C 0.89986 0.93629 0.63689 0.0
C592 C 0.87168 0.80918 0.62775 0.0
C593 C -0.05206 0.92177 0.6169 0.0
C594 C 0.86672 0.87723 0.64938 0.0
C595 C 0.8734 0.78728 0.53835 0.0
C596 C 0.91749 0.76445 0.56272 0.0
C597 C 0.82662 0.80022 0.56073 0.0
C598 C 0.82373 0.79202 0.60745 0.0
Tb599 Tb 0.03155 0.83175 0.56243 0.0
N600 N -0.03623 0.75543 0.53845 0.0
C601 C 0.88084 0.80379 0.49344 0.0
C602 C -0.0417 0.72593 0.49531 0.0
C603 C 0.91893 0.7614 0.46946 0.0
H604 H -0.02365 0.96704 0.61101 0.0
H605 H -0.06554 0.70285 0.47464 0.0
H606 H 0.15693 0.8056 0.37073 0.0
H607 H 0.28929 0.05641 0.63472 0.0
H608 H -0.0146 0.75225 0.51866 0.0
H609 H 0.85667 0.84679 0.47682 0.0
H610 H 0.19013 0.03037 0.61247 0.0
H611 H 0.8968 0.98524 0.65551 0.0
H612 H 0.81175 0.74949 0.57711 0.0
H613 H 0.78648 0.80972 0.62612 0.0
H614 H 0.24674 0.73137 0.37069 0.0
H615 H 0.8334 0.88788 0.67142 0.0
H616 H 0.39109 0.01188 0.53603 0.0
N617 N 0.18117 0.92874 0.44499 0.0
C618 C 0.23507 0.93894 0.47325 0.0
C619 C 0.23949 0.77679 0.39359 0.0
C620 C 0.28752 0.86793 0.4658 0.0
C621 C 0.18492 0.82771 0.39371 0.0
C622 C 0.28551 0.79422 0.4283 0.0
N623 N 0.2073 0.01322 0.53666 0.0
C624 C 0.22138 0.02324 0.588 0.0
C625 C 0.31492 0.00681 0.49367 0.0
C626 C 0.2463 0.00426 0.49482 0.0
C627 C 0.34773 0.00916 0.53952 0.0
C628 C 0.28635 0.02187 0.6064 0.0
H629 H 0.3205 0.76119 0.42171 0.0
H630 H 0.30918 0.86328 0.48908 0.0
H631 H 0.3881 0.98773 0.46001 0.0
O632 O 0.12064 0.07459 0.56056 0.0
O633 O 0.16456 0.85978 0.54592 0.0
O634 O 0.10623 0.76198 0.5544 0.0
O635 O 0.14733 0.07301 0.49342 0.0
O636 O 0.07889 0.95272 0.60153 0.0
O637 O 0.07341 0.94499 0.60507 0.0
O638 O 0.05757 0.71734 0.55856 0.0
O639 O -0.03688 0.89551 0.5313 0.0
O640 O 0.01466 0.0039 0.5221 0.0
O641 O 0.022 0.75178 0.6208 0.0
O642 O 0.0215 0.8497 0.47985 0.0
O643 O 0.05053 0.97132 0.46405 0.0
C644 C 0.1565 0.78175 0.55395 0.0
C645 C 0.13561 0.20125 0.52377 0.0
C646 C 0.10862 0.33596 0.5482 0.0
C647 C 0.07207 0.32745 0.51364 0.0
C648 C 0.1181 0.2213 0.48161 0.0
C649 C 0.07907 0.27521 0.48027 0.0
C650 C 0.13533 0.2633 0.55776 0.0
C651 C 0.08293 -0.00267 0.64268 0.0
C652 C 0.14521 0.11482 0.52991 0.0
C653 C 0.34078 0.88986 0.47156 0.0
C654 C 0.34807 0.96746 0.46649 0.0
C655 C -0.03834 0.97116 0.52439 0.0
C656 C 0.04969 0.60487 0.60901 0.0
C657 C 0.09709 0.40471 0.58085 0.0
C658 C 0.05369 0.37543 0.62307 0.0
C659 C 0.01254 0.54785 0.64251 0.0
C660 C 0.09259 0.56466 0.57535 0.0
C661 C 0.01348 0.44677 0.65097 0.0
C662 C 0.01987 0.91105 0.44901 0.0
C663 C 0.03961 0.69265 0.59697 0.0
H664 H 0.03124 0.34483 0.51814 0.0
H665 H 0.11908 0.17981 0.45474 0.0
H666 H 0.04399 0.25705 0.46436 0.0
H667 H 0.1504 0.25261 0.59101 0.0
H668 H 0.05945 0.30814 0.63042 0.0
H669 H -0.02175 0.5787 0.65415 0.0
H670 H 0.11415 0.60656 0.55635 0.0
H671 H 0.03313 0.40411 0.63855 0.0
Tb672 Tb 0.53383 0.66387 0.07453 0.0
C673 C 0.70359 0.5089 -0.04389 0.0
N674 N 0.64064 0.52383 -0.04142 0.0
C675 C 0.62165 0.65925 0.89159 0.0
C676 C 0.74637 0.56817 -0.07291 0.0
C677 C 0.6046 0.58241 -0.07021 0.0
C678 C 0.68751 0.67745 0.88126 0.0
C679 C 0.79533 0.47011 -0.01697 0.0
C680 C 0.7273 0.47981 -0.00861 0.0
C681 C 0.81933 0.4862 -0.05554 0.0
C682 C 0.80189 0.55567 -0.06735 0.0
Tb683 Tb 0.60388 0.50287 0.03305 0.0
N684 N 0.69615 0.48455 0.03736 0.0
C685 C 0.83536 0.47079 0.02576 0.0
C686 C 0.71684 0.48333 0.08648 0.0
C687 C 0.78227 0.47918 0.09739 0.0
H688 H 0.61981 0.53984 -0.04601 0.0
H689 H 0.79501 0.48554 0.12853 0.0
H690 H 0.47902 0.68867 0.13931 0.0
H691 H 0.43074 0.82883 -0.0514 0.0
H692 H 0.68901 0.48986 0.11372 0.0
H693 H 0.87791 0.47219 0.01863 0.0
H694 H 0.51095 0.80673 -0.00177 0.0
H695 H 0.60262 0.61951 0.91181 0.0
H696 H 0.86158 0.47684 -0.05882 0.0
H697 H 0.83346 0.59785 -0.07154 0.0
H698 H 0.39866 0.8005 0.18926 0.0
H699 H 0.6994 0.71303 0.8561 0.0
H700 H 0.3622 0.72258 -0.04717 0.0
N701 N 0.46099 0.68767 0.11715 0.0
C702 C 0.41869 0.68018 0.08922 0.0
C703 C 0.40346 0.75226 0.16724 0.0
C704 C 0.36899 0.67761 0.1065 0.0
C705 C 0.45527 0.73176 0.15631 0.0
C706 C 0.36014 0.71552 0.14678 0.0
N707 N 0.47392 0.71262 0.03052 0.0
C708 C 0.47536 0.77331 0.00114 0.0
C709 C 0.38725 0.68262 0.01604 0.0
C710 C 0.42767 0.68582 0.04439 0.0
C711 C 0.3907 0.72826 -0.02216 0.0
C712 C 0.43161 0.7836 -0.02624 0.0
H713 H 0.32 0.72752 0.15686 0.0
H714 H 0.29184 0.64612 0.09265 0.0
H715 H 0.32336 0.61081 0.00828 0.0
O716 O 0.57772 0.73785 0.12009 0.0
O717 O 0.47671 0.56044 0.08772 0.0
O718 O 0.50642 0.49192 0.03007 0.0
O719 O 0.50857 0.77833 0.08593 0.0
O720 O 0.52505 0.64524 -0.00913 0.0
O721 O 0.5341 0.51816 -0.01965 0.0
O722 O 0.62912 0.39657 0.06648 0.0
O723 O 0.65882 0.6206 0.05097 0.0
O724 O 0.60649 0.7267 0.05144 0.0
O725 O 0.62063 0.40485 -0.00454 0.0
O726 O 0.58934 0.46492 0.10964 0.0
O727 O 0.54986 0.57327 0.13547 0.0
C728 C 0.46324 0.50857 0.05687 0.0
C729 C 0.55463 0.87886 0.11925 0.0
C730 C 0.59347 0.07052 0.07487 0.0
C731 C 0.54552 0.10349 0.11122 0.0
C732 C 0.51206 0.94095 0.14578 0.0
C733 C 0.50876 0.04167 0.14348 0.0
C734 C 0.59811 0.91191 0.08245 0.0
C735 C 0.51477 0.58402 -0.03921 0.0
C736 C 0.5428 0.79458 0.11624 0.0
C737 C 0.3303 0.65181 0.07824 0.0
C738 C 0.34307 0.64559 0.03196 0.0
C739 C 0.65539 0.70267 0.05242 0.0
C740 C 0.60911 0.27759 0.02543 0.0
C741 C 0.60501 0.13616 0.04189 0.0
C742 C 0.58308 0.13019 -0.00076 0.0
C743 C 0.57964 0.26171 -0.01261 0.0
C744 C 0.61636 0.2146 0.05643 0.0
C745 C 0.55743 0.18988 -0.01871 0.0
C746 C 0.56658 0.49833 0.14605 0.0
C747 C 0.63092 0.35856 0.02889 0.0
H748 H 0.53686 0.16373 0.11112 0.0
H749 H 0.4768 0.91297 0.15785 0.0
H750 H 0.47529 0.06943 0.15899 0.0
H751 H 0.61561 0.86752 0.06154 0.0
H752 H 0.58526 0.08335 -0.02383 0.0
H753 H 0.57376 0.30515 -0.03737 0.0
H754 H 0.63284 0.22522 0.0892 0.0
H755 H 0.52724 0.17462 -0.04199 0.0
Tb756 Tb 0.32595 0.31073 0.06253 0.0
C757 C 0.15435 0.45661 -0.03069 0.0
N758 N 0.21576 0.43441 -0.03819 0.0
C759 C 0.21629 0.31997 0.88174 0.0
C760 C 0.10479 0.41645 -0.06065 0.0
C761 C 0.24368 0.3775 -0.07517 0.0
C762 C 0.14781 0.31541 0.87672 0.0
C763 C 0.06886 0.4933 0.01283 0.0
C764 C 0.13661 0.47891 0.01044 0.0
C765 C 0.03927 0.49718 -0.02287 0.0
C766 C 0.05267 0.43957 -0.04958 0.0
Tb767 Tb 0.26196 0.4673 0.02951 0.0
N768 N 0.1756 0.47498 0.05139 0.0
C769 C 0.03778 0.50085 0.0609 0.0
C770 C 0.16566 0.48068 0.10288 0.0
C771 C 0.10525 0.49254 0.12382 0.0
H772 H 0.23447 0.41674 -0.04711 0.0
H773 H 0.10638 0.51791 0.15651 0.0
H774 H 0.363 0.27804 0.13122 0.0
H775 H 0.44384 0.36148 -0.06718 0.0
H776 H 0.19655 0.47951 0.12652 0.0
H777 H -0.00466 0.51427 0.06 0.0
H778 H 0.37918 0.25626 -0.04342 0.0
H779 H 0.24221 0.3471 0.90354 0.0
H780 H -0.00129 0.51681 -0.02004 0.0
H781 H 0.01972 0.40728 -0.05741 0.0
H782 H 0.41688 0.18061 0.20881 0.0
H783 H 0.12841 0.28376 0.85176 0.0
H784 H 0.51633 0.38857 -0.02051 0.0
N785 N 0.38614 0.27279 0.11418 0.0
C786 C 0.43639 0.26917 0.09547 0.0
C787 C 0.42198 0.21527 0.17915 0.0
C788 C 0.4782 0.27445 0.124 0.0
C789 C 0.37662 0.23779 0.15589 0.0
C790 C 0.47205 0.24225 0.16546 0.0
N791 N 0.40014 0.27641 0.02406 0.0
C792 C 0.40812 0.27931 -0.02085 0.0
C793 C 0.48557 0.32344 0.03613 0.0
C794 C 0.44244 0.28207 0.05062 0.0
C795 C 0.48548 0.35254 -0.00746 0.0
C796 C 0.44636 0.33109 -0.03611 0.0
H797 H 0.50658 0.24014 0.18532 0.0
H798 H 0.5551 0.32661 0.13279 0.0
H799 H 0.54554 0.39178 0.05929 0.0
O800 O 0.28849 0.2198 0.10033 0.0
O801 O 0.38868 0.4044 0.08011 0.0
O802 O 0.35796 0.4903 0.03081 0.0
O803 O 0.35209 0.19406 0.05318 0.0
O804 O 0.32002 0.34497 -0.01938 0.0
O805 O 0.32308 0.47143 -0.02656 0.0
O806 O 0.23526 0.57473 0.05547 0.0
O807 O 0.20359 0.35068 0.04264 0.0
O808 O 0.25108 0.24263 0.05085 0.0
O809 O 0.24089 0.55514 -0.01512 0.0
O810 O 0.28221 0.50832 0.1031 0.0
O811 O 0.30046 0.38949 0.1297 0.0
C812 C 0.40114 0.46617 0.05511 0.0
C813 C 0.31206 0.08321 0.08941 0.0
C814 C 0.25882 0.89395 0.05403 0.0
C815 C 0.31116 0.85831 0.08509 0.0
C816 C 0.35482 0.01891 0.11335 0.0
C817 C 0.35472 0.91831 0.11158 0.0
C818 C 0.26212 0.05279 0.05868 0.0
C819 C 0.33474 0.40721 -0.04853 0.0
C820 C 0.32298 0.16764 0.08598 0.0
C821 C 0.52268 0.3149 0.11041 0.0
C822 C 0.52155 0.34648 0.06783 0.0
C823 C 0.20295 0.2689 0.04769 0.0
C824 C 0.24258 0.68772 0.00765 0.0
C825 C 0.23932 0.82899 0.02333 0.0
C826 C 0.24486 0.83478 -0.02327 0.0
C827 C 0.26557 0.70491 -0.0336 0.0
C828 C 0.2381 0.75033 0.0392 0.0
C829 C 0.27339 0.78138 -0.04402 0.0
C830 C 0.29062 0.46782 0.14109 0.0
C831 C 0.22963 0.60496 0.01626 0.0
H832 H 0.32072 0.79862 0.08246 0.0
H833 H 0.39038 0.04434 0.12682 0.0
H834 H 0.38947 0.89009 0.12459 0.0
H835 H 0.24246 0.09824 0.03963 0.0
H836 H 0.23895 0.88083 -0.04626 0.0
H837 H 0.28294 0.66019 -0.05464 0.0
H838 H 0.2317 0.73884 0.07443 0.0
H839 H 0.30636 0.80535 -0.06152 0.0
Tb840 Tb 0.52282 0.30424 0.28237 0.0
C841 C 0.70233 0.45721 0.3655 0.0
N842 N 0.64036 0.43989 0.37478 0.0
C843 C 0.63663 0.32845 0.45634 0.0
C844 C 0.75106 0.41544 0.39659 0.0
C845 C 0.61074 0.38818 0.41275 0.0
C846 C 0.70506 0.31972 0.46139 0.0
C847 C 0.7867 0.47073 0.31471 0.0
C848 C 0.71882 0.474 0.32189 0.0
C849 C 0.82151 0.46605 0.34723 0.0
C850 C 0.80516 0.42945 0.38318 0.0
Tb851 Tb 0.59147 0.46679 0.3099 0.0
N852 N 0.67617 0.48118 0.28284 0.0
C853 C 0.81384 0.47477 0.26537 0.0
C854 C 0.68255 0.48957 0.23017 0.0
C855 C 0.74209 0.48799 0.2056 0.0
H856 H 0.62105 0.42482 0.38385 0.0
H857 H 0.74082 0.50852 0.17242 0.0
H858 H 0.46959 0.40962 0.19586 0.0
H859 H 0.44039 0.08693 0.39343 0.0
H860 H 0.65138 0.50536 0.20857 0.0
H861 H 0.85732 0.47568 0.26387 0.0
H862 H 0.51627 0.1598 0.35612 0.0
H863 H 0.6125 0.35797 0.43444 0.0
H864 H 0.86372 0.47176 0.34021 0.0
H865 H 0.83932 0.39977 0.39386 0.0
H866 H 0.38364 0.42948 0.16878 0.0
H867 H 0.72305 0.2873 0.48697 0.0
H868 H 0.35096 0.12845 0.37992 0.0
N869 N 0.44696 0.3322 0.24902 0.0
C870 C 0.4057 0.29814 0.27118 0.0
C871 C 0.38854 0.39487 0.19848 0.0
C872 C 0.35557 0.31282 0.25752 0.0
C873 C 0.43882 0.38244 0.21415 0.0
C874 C 0.34665 0.357 0.21949 0.0
N875 N 0.46469 0.23762 0.32296 0.0
C876 C 0.47599 0.17788 0.3517 0.0
C877 C 0.3736 0.21842 0.33277 0.0
C878 C 0.41466 0.25324 0.31045 0.0
C879 C 0.38314 0.15907 0.36363 0.0
C880 C 0.43452 0.13649 0.37199 0.0
H881 H 0.30747 0.35812 0.20591 0.0
H882 H 0.27876 0.29759 0.26913 0.0
H883 H 0.29523 0.22607 0.34531 0.0
O884 O 0.56432 0.20671 0.25236 0.0
O885 O 0.46086 0.39122 0.31159 0.0
O886 O 0.50034 0.50293 0.29533 0.0
O887 O 0.4835 0.20075 0.25982 0.0
O888 O 0.52433 0.3269 0.3637 0.0
O889 O 0.53096 0.45724 0.36816 0.0
O890 O 0.63222 0.56807 0.28926 0.0
O891 O 0.64436 0.34665 0.29602 0.0
O892 O 0.59542 0.23819 0.29828 0.0
O893 O 0.59977 0.55955 0.35569 0.0
O894 O 0.56886 0.49797 0.23735 0.0
O895 O 0.55227 0.37654 0.21336 0.0
C896 C 0.45287 0.46584 0.30269 0.0
C897 C 0.52568 0.07595 0.26157 0.0
C898 C 0.58775 0.88817 0.29275 0.0
C899 C 0.53551 0.85021 0.26219 0.0
C900 C 0.48423 0.00857 0.23869 0.0
C901 C 0.4881 0.90806 0.23901 0.0
C902 C 0.57758 0.04816 0.29123 0.0
C903 C 0.51649 0.39263 0.39055 0.0
C904 C 0.52354 0.16133 0.24888 0.0
C905 C 0.31539 0.28645 0.28336 0.0
C906 C 0.32427 0.24253 0.32227 0.0
C907 C 0.64342 0.26459 0.29516 0.0
C908 C 0.63662 0.68262 0.3338 0.0
C909 C 0.61623 0.82281 0.32012 0.0
C910 C 0.6274 0.82956 0.36642 0.0
C911 C 0.65154 0.70078 0.37673 0.0
C912 C 0.62187 0.74463 0.30349 0.0
C913 C 0.63035 0.76703 0.393 0.0
C914 C 0.56223 0.45426 0.20059 0.0
C915 C 0.63009 0.59877 0.32832 0.0
H916 H 0.53375 0.79003 0.25486 0.0
H917 H 0.44876 0.03186 0.2239 0.0
H918 H 0.45512 0.8772 0.22492 0.0
H919 H 0.59949 0.09452 0.30767 0.0
H920 H 0.65581 0.86776 0.38014 0.0
H921 H 0.66329 0.65591 0.40039 0.0
H922 H 0.61403 0.7319 0.26875 0.0
H923 H 0.58951 0.75437 0.39791 0.0
Tb924 Tb 0.32037 0.66928 0.27345 0.0
C925 C 0.14531 0.51311 0.37858 0.0
N926 N 0.20772 0.53465 0.37972 0.0
C927 C 0.21775 0.65756 0.45548 0.0
C928 C 0.09885 0.55776 0.41267 0.0
C929 C 0.24021 0.59339 0.41218 0.0
C930 C 0.14993 0.66368 0.46698 0.0
C931 C 0.05522 0.48615 0.34197 0.0
C932 C 0.12367 0.48918 0.33896 0.0
C933 C 0.02711 0.48535 0.37943 0.0
C934 C 0.0436 0.54019 0.40587 0.0
Tb935 Tb 0.24974 0.50326 0.30934 0.0
N936 N 0.15945 0.48327 0.29486 0.0
C937 C 0.01927 0.48053 0.29765 0.0
C938 C 0.14359 0.47248 0.24382 0.0
C939 C 0.07834 0.46943 0.22789 0.0
H940 H 0.22743 0.55239 0.38619 0.0
H941 H 0.07021 0.44219 0.19668 0.0
H942 H 0.37947 0.56012 0.18878 0.0
H943 H 0.40777 0.8766 0.39012 0.0
H944 H 0.17361 0.46587 0.21831 0.0
H945 H -0.02375 0.47614 0.30287 0.0
H946 H 0.32902 0.81663 0.34424 0.0
H947 H 0.24029 0.62638 0.43263 0.0
H948 H -0.01492 0.47157 0.37882 0.0
H949 H 0.00955 0.57389 0.41586 0.0
H950 H 0.46676 0.53274 0.16819 0.0
H951 H 0.13446 0.69716 0.4932 0.0
H952 H 0.49263 0.81434 0.38439 0.0
N953 N 0.39854 0.64588 0.23925 0.0
C954 C 0.43934 0.68235 0.26058 0.0
C955 C 0.45993 0.57372 0.19474 0.0
C956 C 0.48957 0.65719 0.25282 0.0
C957 C 0.40869 0.59076 0.20682 0.0
C958 C 0.50053 0.61359 0.21581 0.0
N959 N 0.37953 0.74371 0.30953 0.0
C960 C 0.36938 0.79931 0.34065 0.0
C961 C 0.46929 0.74173 0.32946 0.0
C962 C 0.42946 0.7257 0.29907 0.0
C963 C 0.46118 0.79734 0.36209 0.0
C964 C 0.41163 0.83103 0.36567 0.0
H965 H 0.54127 0.61075 0.2062 0.0
H966 H 0.55784 0.62644 0.28192 0.0
H967 H 0.53891 0.69152 0.35564 0.0
O968 O 0.27503 0.74707 0.23125 0.0
O969 O 0.38453 0.58024 0.29432 0.0
O970 O 0.34249 0.46557 0.30397 0.0
O971 O 0.35069 0.77937 0.25289 0.0
O972 O 0.3241 0.65136 0.35489 0.0
O973 O 0.31444 0.521 0.36382 0.0
O974 O 0.22314 0.39523 0.28304 0.0
O975 O 0.19548 0.62257 0.2938 0.0
O976 O 0.2461 0.73069 0.29565 0.0
O977 O 0.23528 0.41012 0.35371 0.0
O978 O 0.26923 0.47268 0.23321 0.0
O979 O 0.29779 0.58945 0.20702 0.0
C980 C 0.39034 0.50424 0.30008 0.0
C981 C 0.29685 0.8896 0.23244 0.0
C982 C 0.24222 0.07696 0.27477 0.0
C983 C 0.28873 0.11658 0.23798 0.0
C984 C 0.33431 0.95815 0.20554 0.0
C985 C 0.33045 0.05904 0.20699 0.0
C986 C 0.24985 0.91682 0.26799 0.0
C987 C 0.33235 0.58745 0.38292 0.0
C988 C 0.31079 0.80252 0.23038 0.0
C989 C 0.52455 0.65869 0.28733 0.0
C990 C 0.5139 0.697 0.32722 0.0
C991 C 0.19717 0.70505 0.2935 0.0
C992 C 0.20959 0.27955 0.33087 0.0
C993 C 0.22396 0.13913 0.31131 0.0
C994 C 0.22546 0.12965 0.35943 0.0
C995 C 0.20025 0.25974 0.37531 0.0
C996 C 0.21202 0.21709 0.29809 0.0
C997 C 0.20592 0.18403 0.38905 0.0
C998 C 0.2856 0.51215 0.19598 0.0
C999 C 0.21688 0.36494 0.32246 0.0
H1000 H 0.29177 0.17819 0.2331 0.0
H1001 H 0.37064 0.93596 0.19194 0.0
H1002 H 0.36032 0.09023 0.18918 0.0
H1003 H 0.23437 0.87004 0.28858 0.0
H1004 H 0.24348 0.08468 0.37825 0.0
H1005 H 0.1898 0.30368 0.39978 0.0
H1006 H 0.20922 0.23032 0.26274 0.0
H1007 H 0.20206 0.16937 0.42409 0.0
Tb1008 Tb 0.23463 0.47563 0.82008 0.0
C1009 C 0.42856 0.27816 0.73867 0.0
N1010 N 0.39237 0.3362 0.73422 0.0
C1011 C 0.46282 0.4128 0.70718 0.0
C1012 C 0.47925 0.2848 0.71575 0.0
C1013 C 0.41346 0.40649 0.72704 0.0
C1014 C 0.48566 0.3476 0.68911 0.0
C1015 C 0.47017 0.29195 0.80707 0.0
C1016 C 0.429 0.25867 0.78247 0.0
C1017 C 0.51744 0.30704 0.78651 0.0
C1018 C 0.52579 0.28311 0.74154 0.0
Tb1019 Tb 0.31835 0.33684 0.77832 0.0
N1020 N 0.38131 0.25315 0.80476 0.0
C1021 C 0.4605 0.31174 0.85109 0.0
C1022 C 0.38525 0.22924 0.84899 0.0
C1023 C 0.42242 0.26934 0.87496 0.0
H1024 H 0.39023 0.45459 0.73584 0.0
H1025 H 0.40869 0.20946 0.87114 0.0
H1026 H 0.19016 0.30457 -0.02966 0.0
H1027 H 0.06198 0.56394 0.7039 0.0
H1028 H 0.35824 0.25198 0.82396 0.0
H1029 H 0.48372 0.35652 0.86721 0.0
H1030 H 0.16141 0.53894 0.72797 0.0
H1031 H 0.47624 0.46556 0.6964 0.0
H1032 H 0.53407 0.25514 0.77504 0.0
H1033 H 0.56446 0.29864 0.72336 0.0
H1034 H 0.09957 0.23417 -0.02947 0.0
H1035 H 0.52081 0.35533 0.66837 0.0
H1036 H -0.0399 0.51697 0.80399 0.0
N1037 N 0.16939 0.42793 0.89477 0.0
C1038 C 0.1158 0.43885 0.86581 0.0
C1039 C 0.10785 0.27804 -0.05336 0.0
C1040 C 0.0624 0.36916 0.87331 0.0
C1041 C 0.16325 0.32692 -0.05345 0.0
C1042 C 0.06252 0.29666 0.91153 0.0
N1043 N 0.14371 0.51702 0.80352 0.0
C1044 C 0.13006 0.53103 0.75229 0.0
C1045 C 0.03609 0.50834 0.846 0.0
C1046 C 0.10464 0.50497 0.84501 0.0
C1047 C 0.00359 0.51453 0.80052 0.0
C1048 C 0.0651 0.53199 0.73376 0.0
H1049 H 0.02646 0.2655 0.91818 0.0
H1050 H 0.04154 0.36471 0.84896 0.0
H1051 H -0.03806 0.48774 0.87817 0.0
O1052 O 0.23228 0.58027 0.78017 0.0
O1053 O 0.18476 0.36537 0.79333 0.0
O1054 O 0.24324 0.26763 0.79089 0.0
O1055 O 0.20248 0.57843 0.84632 0.0
O1056 O 0.27111 0.4562 0.7387 0.0
O1057 O 0.27629 0.44863 0.73514 0.0
O1058 O 0.28545 0.22761 0.77969 0.0
O1059 O 0.38592 0.40172 0.81011 0.0
O1060 O 0.33485 0.51031 0.82003 0.0
O1061 O 0.32414 0.26167 0.71814 0.0
O1062 O 0.32793 0.35513 0.86096 0.0
O1063 O 0.29711 0.47476 0.87817 0.0
C1064 C 0.19265 0.28677 0.78771 0.0
C1065 C 0.21696 0.7077 0.81661 0.0
C1066 C 0.24225 0.84382 0.79161 0.0
C1067 C 0.2788 0.83674 0.82623 0.0
C1068 C 0.23674 0.72666 0.85829 0.0
C1069 C 0.27315 0.78523 0.86005 0.0
C1070 C 0.2148 0.77111 0.78312 0.0
C1071 C 0.26546 0.49825 0.69665 0.0
C1072 C 0.20675 0.62078 0.81011 0.0
C1073 C 0.00969 0.39093 0.8665 0.0
C1074 C 0.00206 0.46793 0.87179 0.0
C1075 C 0.3875 0.47722 0.81801 0.0
C1076 C 0.29678 0.11674 0.7323 0.0
C1077 C 0.25361 0.91353 0.75884 0.0
C1078 C 0.29766 0.88854 0.7159 0.0
C1079 C 0.33449 0.06421 0.69816 0.0
C1080 C 0.25516 0.07364 0.76605 0.0
C1081 C 0.3359 0.96382 0.68865 0.0
C1082 C 0.32852 0.41514 0.89258 0.0
C1083 C 0.29814 0.20593 0.7394 0.0
H1084 H 0.31949 0.85481 0.82122 0.0
H1085 H 0.23794 0.68348 0.88427 0.0
H1086 H 0.30878 0.77393 0.87696 0.0
H1087 H 0.19812 0.76095 0.75039 0.0
H1088 H 0.29385 0.82158 0.70736 0.0
H1089 H 0.36511 0.09981 0.68357 0.0
H1090 H 0.23347 0.11362 0.78599 0.0
H1091 H 0.31744 0.91951 0.70068 0.0
Tb1092 Tb 0.60249 0.52355 0.82153 0.0
C1093 C 0.40912 0.7191 0.74954 0.0
N1094 N 0.44765 0.665 0.74127 0.0
C1095 C 0.38058 0.59204 0.70573 0.0
C1096 C 0.36051 0.71295 0.72527 0.0
C1097 C 0.42899 0.59554 0.72802 0.0
C1098 C 0.35898 0.66086 0.69131 0.0
C1099 C 0.36563 0.6953 0.81779 0.0
C1100 C 0.40642 0.73463 0.79451 0.0
C1101 C 0.32133 0.6753 0.79542 0.0
C1102 C 0.31391 0.70107 0.75086 0.0
Tb1103 Tb 0.52085 0.66497 0.7856 0.0
N1104 N 0.45399 0.73835 0.81715 0.0
C1105 C 0.37342 0.66893 0.86146 0.0
C1106 C 0.44939 0.75108 0.86294 0.0
C1107 C 0.41465 0.70001 0.88597 0.0
H1108 H 0.45053 0.54684 0.73822 0.0
H1109 H 0.42833 0.75995 0.8865 0.0
H1110 H 0.65654 0.65376 -0.0234 0.0
H1111 H 0.74875 0.46824 0.67937 0.0
H1112 H 0.47664 0.73857 0.83514 0.0
H1113 H 0.34712 0.6268 0.87708 0.0
H1114 H 0.65785 0.4797 0.71873 0.0
H1115 H 0.35764 0.54168 0.70147 0.0
H1116 H 0.30453 0.72673 0.78368 0.0
H1117 H 0.27808 0.67899 0.73162 0.0
H1118 H 0.74442 0.73643 -0.0236 0.0
H1119 H 0.32423 0.65676 0.67023 0.0
H1120 H 0.86772 0.50479 0.76796 0.0
N1121 N 0.67678 0.55812 0.88908 0.0
C1122 C 0.72474 0.5654 0.85414 0.0
C1123 C 0.73477 0.70036 -0.05119 0.0
C1124 C 0.77453 0.63865 0.86251 0.0
C1125 C 0.68311 0.64182 -0.05031 0.0
C1126 C 0.77541 0.70013 0.90713 0.0
N1127 N 0.68802 0.50089 0.79043 0.0
C1128 C 0.69187 0.49317 0.73813 0.0
C1129 C 0.80043 0.50982 0.81853 0.0
C1130 C 0.73357 0.50958 0.82637 0.0
C1131 C 0.82414 0.50659 0.77001 0.0
C1132 C 0.75162 0.49542 0.71144 0.0
H1133 H 0.80815 0.73717 0.91346 0.0
H1134 H 0.79222 0.65322 0.83567 0.0
H1135 H 0.87824 0.53073 0.84283 0.0
O1136 O 0.60147 0.41317 0.78805 0.0
O1137 O 0.65128 0.63949 0.80109 0.0
O1138 O 0.59582 0.73731 0.78641 0.0
O1139 O 0.6399 0.42741 0.8505 0.0
O1140 O 0.57565 0.55144 0.73977 0.0
O1141 O 0.56942 0.5611 0.73707 0.0
O1142 O 0.55018 0.77639 0.79282 0.0
O1143 O 0.4526 0.59588 0.81341 0.0
O1144 O 0.50315 0.48743 0.82047 0.0
O1145 O 0.50807 0.75153 0.7321 0.0
O1146 O 0.51904 0.64459 0.86936 0.0
O1147 O 0.53826 0.52117 0.88006 0.0
C1148 C 0.64574 0.71703 0.7899 0.0
C1149 C 0.61043 0.29883 0.83593 0.0
C1150 C 0.57943 0.16026 0.82462 0.0
C1151 C 0.54739 0.17318 0.86266 0.0
C1152 C 0.58323 0.30097 0.87589 0.0
C1153 C 0.55067 0.24079 0.88725 0.0
C1154 C 0.61103 0.2259 0.81108 0.0
C1155 C 0.56343 0.50474 0.70079 0.0
C1156 C 0.62802 0.37765 0.81924 0.0
C1157 C 0.82606 0.62341 0.84869 0.0
C1158 C 0.83692 0.54718 0.84365 0.0
C1159 C 0.45076 0.52031 0.81943 0.0
C1160 C 0.52404 0.89479 0.75582 0.0
C1161 C 0.56143 0.09501 0.79145 0.0
C1162 C 0.50631 0.12057 0.75885 0.0
C1163 C 0.47723 0.94977 0.73109 0.0
C1164 C 0.56912 0.93576 0.78715 0.0
C1165 C 0.46855 0.05012 0.73032 0.0
C1166 C 0.51386 0.58302 0.89992 0.0
C1167 C 0.53203 0.80547 0.75562 0.0
H1168 H 0.51278 0.13914 0.87049 0.0
H1169 H 0.57901 0.35489 0.89457 0.0
H1170 H 0.51966 0.25492 0.91036 0.0
H1171 H 0.62641 0.22458 0.77732 0.0
H1172 H 0.48656 0.15288 0.78688 0.0
H1173 H 0.44528 0.91649 0.7164 0.0
H1174 H 0.5988 0.89563 0.79804 0.0
H1175 H 0.49177 0.10092 0.73263 0.0
Tb1176 Tb 0.24559 0.51991 0.51677 0.0
C1177 C 0.44196 0.72091 0.58265 0.0
N1178 N 0.40072 0.67432 0.59455 0.0
C1179 C 0.4588 0.60481 0.64024 0.0
C1180 C 0.48959 0.71129 0.60693 0.0
C1181 C 0.41236 0.60855 0.61546 0.0
C1182 C 0.4875 0.67145 0.64623 0.0
C1183 C 0.48328 0.69135 0.51366 0.0
C1184 C 0.44396 0.73268 0.53708 0.0
C1185 C 0.52528 0.66379 0.537 0.0
C1186 C 0.53386 0.68647 0.58187 0.0
Tb1187 Tb 0.32888 0.66715 0.55241 0.0
N1188 N 0.39566 0.73644 0.51515 0.0
C1189 C 0.47551 0.6687 0.4691 0.0
C1190 C 0.39899 0.74975 0.46888 0.0
C1191 C 0.43521 0.70224 0.44421 0.0
H1192 H 0.38437 0.56395 0.60998 0.0
H1193 H 0.41835 0.76014 0.44515 0.0
H1194 H 0.18039 0.66076 0.36832 0.0
H1195 H 0.10435 0.47993 0.66808 0.0
H1196 H 0.37336 0.7383 0.49817 0.0
H1197 H 0.50084 0.62565 0.45328 0.0
H1198 H 0.19624 0.48893 0.62519 0.0
H1199 H 0.47246 0.55513 0.65613 0.0
H1200 H 0.54506 0.7129 0.54885 0.0
H1201 H 0.56664 0.65804 0.6014 0.0
H1202 H 0.08975 0.73358 0.37488 0.0
H1203 H 0.52238 0.66671 0.66703 0.0
H1204 H -0.01468 0.47424 0.57818 0.0
N1205 N 0.16918 0.54968 0.45004 0.0
C1206 C 0.12069 0.54076 0.48517 0.0
C1207 C 0.10204 0.69475 0.4007 0.0
C1208 C 0.06591 0.60809 0.48141 0.0
C1209 C 0.15747 0.64434 0.39653 0.0
C1210 C 0.06122 0.67967 0.44156 0.0
N1211 N 0.16455 0.48896 0.55229 0.0
C1212 C 0.16186 0.49184 0.60538 0.0
C1213 C 0.05179 0.47671 0.52574 0.0
C1214 C 0.11828 0.48475 0.51621 0.0
C1215 C 0.02867 0.47997 0.57535 0.0
C1216 C 0.10211 0.49183 0.63319 0.0
H1217 H 0.0253 0.71131 0.43803 0.0
H1218 H 0.04655 0.61595 0.50679 0.0
H1219 H -0.02601 0.47622 0.49952 0.0
O1220 O 0.23395 0.40693 0.54526 0.0
O1221 O 0.1975 0.63392 0.54181 0.0
O1222 O 0.25319 0.73407 0.55435 0.0
O1223 O 0.21773 0.4277 0.4769 0.0
O1224 O 0.27566 0.54997 0.59725 0.0
O1225 O 0.282 0.56086 0.59997 0.0
O1226 O 0.2998 0.77808 0.54818 0.0
O1227 O 0.39823 0.59544 0.5288 0.0
O1228 O 0.34666 0.48835 0.51893 0.0
O1229 O 0.34443 0.75186 0.60699 0.0
O1230 O 0.32552 0.64715 0.47072 0.0
O1231 O 0.30928 0.52232 0.45997 0.0
C1232 C 0.2037 0.71151 0.55311 0.0
C1233 C 0.23914 0.29438 0.49421 0.0
C1234 C 0.27123 0.15813 0.5117 0.0
C1235 C 0.30344 0.16638 0.47293 0.0
C1236 C 0.26736 0.29193 0.45425 0.0
C1237 C 0.2986 0.22897 0.44398 0.0
C1238 C 0.24154 0.22577 0.52276 0.0
C1239 C 0.29076 0.50776 0.63712 0.0
C1240 C 0.21888 0.37445 0.5081 0.0
C1241 C 0.01541 0.58085 0.49427 0.0
C1242 C 0.01303 0.50222 0.49819 0.0
C1243 C 0.39973 0.52046 0.52131 0.0
C1244 C 0.32664 0.8967 0.58526 0.0
C1245 C 0.28528 0.09481 0.54748 0.0
C1246 C 0.33976 0.12533 0.58024 0.0
C1247 C 0.37323 0.95355 0.60898 0.0
C1248 C 0.28025 0.93536 0.55496 0.0
C1249 C 0.38054 0.05424 0.60932 0.0
C1250 C 0.33221 0.58553 0.44148 0.0
C1251 C 0.31966 0.80659 0.58483 0.0
H1252 H 0.33778 0.1313 0.46618 0.0
H1253 H 0.2702 0.34222 0.43231 0.0
H1254 H 0.3247 0.23528 0.41612 0.0
H1255 H 0.22967 0.2301 0.55735 0.0
H1256 H 0.34244 0.19189 0.57894 0.0
H1257 H 0.40378 0.92153 0.62629 0.0
H1258 H 0.24997 0.89414 0.54673 0.0
H1259 H 0.36177 0.09612 0.59558 0.0
Tb1260 Tb 0.61708 0.47328 0.51631 0.0
C1261 C 0.41398 0.30488 0.5893 0.0
N1262 N 0.45684 0.35088 0.59752 0.0
C1263 C 0.40096 0.43512 0.63628 0.0
C1264 C 0.36557 0.32278 0.61118 0.0
C1265 C 0.44783 0.42234 0.61393 0.0
C1266 C 0.36654 0.37527 0.64418 0.0
C1267 C 0.37354 0.30805 0.51868 0.0
C1268 C 0.41261 0.27636 0.54614 0.0
C1269 C 0.32891 0.33757 0.53853 0.0
C1270 C 0.32016 0.33114 0.58541 0.0
Tb1271 Tb 0.53088 0.32733 0.55921 0.0
N1272 N 0.46092 0.25984 0.52553 0.0
C1273 C 0.38582 0.32325 0.4737 0.0
C1274 C 0.45728 0.23445 0.4809 0.0
C1275 C 0.42455 0.27907 0.45205 0.0
H1276 H 0.4781 0.46529 0.6108 0.0
H1277 H 0.43661 0.21907 0.45765 0.0
H1278 H 0.66084 0.30699 0.36946 0.0
H1279 H 0.78605 0.5404 0.63885 0.0
H1280 H 0.48332 0.25173 0.50791 0.0
H1281 H 0.3642 0.36643 0.45469 0.0
H1282 H 0.6865 0.52326 0.61137 0.0
H1283 H 0.39796 0.48303 0.65616 0.0
H1284 H 0.30718 0.29475 0.55544 0.0
H1285 H 0.28542 0.35986 0.603 0.0
H1286 H 0.75003 0.23201 0.36853 0.0
H1287 H 0.33291 0.38328 0.6662 0.0
H1288 H 0.89099 0.49933 0.54115 0.0
N1289 N 0.68672 0.43239 0.44128 0.0
C1290 C 0.74014 0.44213 0.46977 0.0
C1291 C 0.74317 0.27732 0.3919 0.0
C1292 C 0.7918 0.36972 0.46331 0.0
C1293 C 0.68934 0.32984 0.39145 0.0
C1294 C 0.78932 0.29474 0.4268 0.0
N1295 N 0.7078 0.51057 0.53581 0.0
C1296 C 0.71891 0.51687 0.588 0.0
C1297 C 0.81723 0.50407 0.49652 0.0
C1298 C 0.74909 0.50376 0.49507 0.0
C1299 C 0.84741 0.50048 0.54329 0.0
C1300 C 0.78286 0.51178 0.60879 0.0
H1301 H 0.82362 0.25954 0.42163 0.0
H1302 H 0.81438 0.36188 0.48876 0.0
H1303 H 0.89042 0.49168 0.46208 0.0
O1304 O 0.62151 0.57847 0.55513 0.0
O1305 O 0.66271 0.35973 0.54512 0.0
O1306 O 0.60426 0.25973 0.5447 0.0
O1307 O 0.64613 0.57731 0.48744 0.0
O1308 O 0.57923 0.45347 0.59767 0.0
O1309 O 0.57233 0.44377 0.60186 0.0
O1310 O 0.56746 0.25705 0.61206 0.0
O1311 O 0.46519 0.40267 0.53097 0.0
O1312 O 0.51679 0.50879 0.51671 0.0
O1313 O 0.50123 0.2153 0.57905 0.0
O1314 O 0.53201 0.33978 0.47791 0.0
O1315 O 0.54935 0.46489 0.46267 0.0
C1316 C 0.65435 0.28051 0.55029 0.0
C1317 C 0.62927 0.70705 0.51737 0.0
C1318 C 0.60285 0.8431 0.54387 0.0
C1319 C 0.56579 0.83878 0.50916 0.0
C1320 C 0.60173 0.72244 0.47847 0.0
C1321 C 0.56978 0.78769 0.47484 0.0
C1322 C 0.63075 0.77019 0.55098 0.0
C1323 C 0.58288 0.49728 0.63926 0.0
C1324 C 0.64306 0.62033 0.52352 0.0
C1325 C 0.84462 0.39129 0.47024 0.0
C1326 C 0.85062 0.46966 0.46721 0.0
C1327 C 0.46378 0.47723 0.52144 0.0
C1328 C 0.54894 0.10968 0.61359 0.0
C1329 C 0.59373 0.91016 0.57895 0.0
C1330 C 0.54932 0.87899 0.61992 0.0
C1331 C 0.51052 0.05028 0.64402 0.0
C1332 C 0.59203 0.07208 0.5788 0.0
C1333 C 0.5098 0.94903 0.64955 0.0
C1334 C 0.52286 0.40019 0.44835 0.0
C1335 C 0.53417 0.19835 0.60958 0.0
H1336 H 0.52668 0.86338 0.51173 0.0
H1337 H 0.59425 0.67559 0.4551 0.0
H1338 H 0.53929 0.79034 0.44977 0.0
H1339 H 0.64715 0.75987 0.58374 0.0
H1340 H 0.55529 0.8116 0.62606 0.0
H1341 H 0.47577 0.08132 0.65457 0.0
H1342 H 0.61266 0.11601 0.56047 0.0
H1343 H 0.52903 0.90701 0.63608 0.0
loop_
_geom_bond_atom_site_label_1
_geom_bond_atom_site_label_2
_geom_bond_distance
_geom_bond_site_symmetry_2
_ccdc_geom_bond_type
Tb0 N29 2.617 1_455 S
Tb0 N35 2.572 1_455 S
Tb0 O44 2.465 . S
Tb0 O45 2.387 . S
Tb0 O47 2.428 . S
Tb0 O48 2.308 . S
Tb0 O52 2.349 . S
Tb0 O55 2.393 . S
Tb0 C64 2.802 . S
C1 N2 1.379 1_565 S
C1 C4 1.416 1_565 S
C1 C8 1.424 . S
N2 C1 1.379 1_545 S
N2 C5 1.334 1_554 S
N2 Tb11 2.617 . S
C3 C5 1.390 . S
C3 C6 1.339 . S
C3 H23 0.930 . S
C4 C1 1.416 1_545 S
C4 C6 1.416 1_554 S
C4 C10 1.448 1_545 S
C5 N2 1.334 1_556 S
C5 C3 1.390 . S
C5 H16 0.930 . S
C6 C3 1.339 . S
C6 C4 1.416 1_556 S
C6 H27 0.930 . S
C7 C8 1.413 . S
C7 C9 1.427 . S
C7 C13 1.416 . S
C8 C1 1.424 . S
C8 C7 1.413 . S
C8 N12 1.361 . S
C9 C7 1.427 . S
C9 C10 1.328 . S
C9 H24 0.929 . S
C10 C4 1.448 1_565 S
C10 C9 1.328 . S
C10 H25 0.931 . S
Tb11 N2 2.617 . S
Tb11 N12 2.572 1_545 S
Tb11 O46 2.349 1_545 S
Tb11 O49 2.393 . S
Tb11 O50 2.465 1_545 S
Tb11 O51 2.387 . S
Tb11 O53 2.428 1_545 S
Tb11 O54 2.308 . S
Tb11 C75 2.802 1_545 S
N12 C8 1.361 . S
N12 Tb11 2.572 1_565 S
N12 C14 1.340 . S
C13 C7 1.416 . S
C13 C15 1.332 . S
C13 H21 0.931 . S
C14 N12 1.340 . S
C14 C15 1.407 . S
C14 H20 0.930 . S
C15 C13 1.332 . S
C15 C14 1.407 . S
C15 H17 0.929 . S
H16 C5 0.930 . S
H17 C15 0.929 . S
H18 C33 0.930 . S
H19 C40 0.929 . S
H20 C14 0.930 . S
H21 C13 0.931 . S
H22 C36 0.930 . S
H23 C3 0.930 . S
H24 C9 0.929 . S
H25 C10 0.931 . S
H26 C31 0.930 . S
H27 C6 0.930 . S
H28 C39 0.931 . S
N29 Tb0 2.617 1_655 S
N29 C30 1.379 . S
N29 C33 1.334 1_655 S
C30 N29 1.379 . S
C30 C32 1.416 . S
C30 C38 1.424 . S
C31 H26 0.930 . S
C31 C33 1.390 1_655 S
C31 C34 1.339 . S
C32 C30 1.416 . S
C32 C34 1.416 . S
C32 C65 1.448 . S
C33 H18 0.930 . S
C33 N29 1.334 1_455 S
C33 C31 1.390 1_455 S
C34 C31 1.339 . S
C34 C32 1.416 . S
C34 H41 0.930 . S
N35 Tb0 2.572 1_655 S
N35 C36 1.340 . S
N35 C38 1.361 . S
C36 H22 0.930 . S
C36 N35 1.340 . S
C36 C40 1.407 . S
C37 C38 1.413 . S
C37 C39 1.416 . S
C37 C66 1.427 . S
C38 C30 1.424 . S
C38 N35 1.361 . S
C38 C37 1.413 . S
C39 H28 0.931 . S
C39 C37 1.416 . S
C39 C40 1.332 . S
C40 H19 0.929 . S
C40 C36 1.407 . S
C40 C39 1.332 . S
H41 C34 0.930 . S
H42 C65 0.930 . S
H43 C66 0.929 . S
O44 Tb0 2.465 . S
O44 C64 1.264 . S
O45 Tb0 2.387 . S
O45 C56 1.264 . S
O46 Tb11 2.349 1_565 S
O46 C56 1.243 1_565 S
O47 Tb0 2.428 . S
O47 C64 1.256 . S
O48 Tb0 2.308 . S
O48 C63 1.266 . S
O49 Tb11 2.393 . S
O49 C63 1.248 . S
O50 Tb11 2.465 1_565 S
O50 C75 1.264 . S
O51 Tb11 2.387 . S
O51 C67 1.264 . S
O52 Tb0 2.349 . S
O52 C67 1.243 . S
O53 Tb11 2.428 1_565 S
O53 C75 1.256 . S
O54 Tb11 2.308 . S
O54 C74 1.266 . S
O55 Tb0 2.393 . S
O55 C74 1.248 . S
C56 O45 1.264 . S
C56 O46 1.243 1_545 S
C57 C60 1.399 . S
C57 C62 1.383 . S
C57 C64 1.496 . S
C58 C59 1.399 . S
C58 C62 1.389 . S
C59 C58 1.399 . S
C59 C61 1.380 . S
C59 H76 0.929 . S
C60 C57 1.399 . S
C60 C61 1.392 . S
C60 H77 0.929 . S
C61 C59 1.380 . S
C61 C60 1.392 . S
C61 H78 0.929 . S
C62 C57 1.383 . S
C62 C58 1.389 . S
C62 H79 0.931 . S
C63 O48 1.266 . S
C63 O49 1.248 . S
C64 Tb0 2.802 . S
C64 O44 1.264 . S
C64 O47 1.256 . S
C64 C57 1.496 . S
C65 C32 1.448 . S
C65 H42 0.930 . S
C65 C66 1.328 . S
C66 C37 1.427 . S
C66 H43 0.929 . S
C66 C65 1.328 . S
C67 O51 1.264 . S
C67 O52 1.243 . S
C68 C71 1.399 . S
C68 C72 1.383 . S
C68 C75 1.496 . S
C69 C70 1.399 . S
C69 C72 1.389 . S
C70 C69 1.399 . S
C70 C73 1.380 . S
C70 H80 0.929 . S
C71 C68 1.399 . S
C71 C73 1.392 . S
C71 H81 0.929 . S
C72 C68 1.383 . S
C72 C69 1.389 . S
C72 H82 0.931 . S
C73 C70 1.380 . S
C73 C71 1.392 . S
C73 H83 0.929 . S
C74 O54 1.266 . S
C74 O55 1.248 . S
C75 Tb11 2.802 1_565 S
C75 O50 1.264 . S
C75 O53 1.256 . S
C75 C68 1.496 . S
H76 C59 0.929 . S
H77 C60 0.929 . S
H78 C61 0.929 . S
H79 C62 0.931 . S
H80 C70 0.929 . S
H81 C71 0.929 . S
H82 C72 0.931 . S
H83 C73 0.929 . S
Tb84 N113 2.617 1_655 S
Tb84 N119 2.572 1_655 S
Tb84 O128 2.465 . S
Tb84 O129 2.387 . S
Tb84 O131 2.428 . S
Tb84 O132 2.308 . S
Tb84 O136 2.349 . S
Tb84 O139 2.393 . S
Tb84 C148 2.802 . S
C85 N86 1.379 1_545 S
C85 C88 1.416 1_545 S
C85 C92 1.424 . S
N86 C85 1.379 1_565 S
N86 C89 1.334 1_554 S
N86 Tb95 2.617 . S
C87 C89 1.390 . S
C87 C90 1.339 . S
C87 H107 0.930 . S
C88 C85 1.416 1_565 S
C88 C90 1.416 1_554 S
C88 C94 1.448 1_565 S
C89 N86 1.334 1_556 S
C89 C87 1.390 . S
C89 H100 0.930 . S
C90 C87 1.339 . S
C90 C88 1.416 1_556 S
C90 H111 0.930 . S
C91 C92 1.413 . S
C91 C93 1.427 . S
C91 C97 1.416 . S
C92 C85 1.424 . S
C92 C91 1.413 . S
C92 N96 1.361 . S
C93 C91 1.427 . S
C93 C94 1.328 . S
C93 H108 0.929 . S
C94 C88 1.448 1_545 S
C94 C93 1.328 . S
C94 H109 0.931 . S
Tb95 N86 2.617 . S
Tb95 N96 2.572 1_565 S
Tb95 O130 2.349 1_565 S
Tb95 O133 2.393 . S
Tb95 O134 2.465 1_565 S
Tb95 O135 2.387 . S
Tb95 O137 2.428 1_565 S
Tb95 O138 2.308 . S
Tb95 C159 2.802 1_565 S
N96 C92 1.361 . S
N96 Tb95 2.572 1_545 S
N96 C98 1.340 . S
C97 C91 1.416 . S
C97 C99 1.332 . S
C97 H105 0.931 . S
C98 N96 1.340 . S
C98 C99 1.407 . S
C98 H104 0.930 . S
C99 C97 1.332 . S
C99 C98 1.407 . S
C99 H101 0.929 . S
H100 C89 0.930 . S
H101 C99 0.929 . S
H102 C117 0.930 . S
H103 C124 0.929 . S
H104 C98 0.930 . S
H105 C97 0.931 . S
H106 C120 0.930 . S
H107 C87 0.930 . S
H108 C93 0.929 . S
H109 C94 0.931 . S
H110 C115 0.930 . S
H111 C90 0.930 . S
H112 C123 0.931 . S
N113 Tb84 2.617 1_455 S
N113 C114 1.379 . S
N113 C117 1.334 1_455 S
C114 N113 1.379 . S
C114 C116 1.416 . S
C114 C122 1.424 . S
C115 H110 0.930 . S
C115 C117 1.390 1_455 S
C115 C118 1.339 . S
C116 C114 1.416 . S
C116 C118 1.416 . S
C116 C149 1.448 . S
C117 H102 0.930 . S
C117 N113 1.334 1_655 S
C117 C115 1.390 1_655 S
C118 C115 1.339 . S
C118 C116 1.416 . S
C118 H125 0.930 . S
N119 Tb84 2.572 1_455 S
N119 C120 1.340 . S
N119 C122 1.361 . S
C120 H106 0.930 . S
C120 N119 1.340 . S
C120 C124 1.407 . S
C121 C122 1.413 . S
C121 C123 1.416 . S
C121 C150 1.427 . S
C122 C114 1.424 . S
C122 N119 1.361 . S
C122 C121 1.413 . S
C123 H112 0.931 . S
C123 C121 1.416 . S
C123 C124 1.332 . S
C124 H103 0.929 . S
C124 C120 1.407 . S
C124 C123 1.332 . S
H125 C118 0.930 . S
H126 C149 0.930 . S
H127 C150 0.929 . S
O128 Tb84 2.465 . S
O128 C148 1.264 . S
O129 Tb84 2.387 . S
O129 C140 1.264 . S
O130 Tb95 2.349 1_545 S
O130 C140 1.243 1_545 S
O131 Tb84 2.428 . S
O131 C148 1.256 . S
O132 Tb84 2.308 . S
O132 C147 1.266 . S
O133 Tb95 2.393 . S
O133 C147 1.248 . S
O134 Tb95 2.465 1_545 S
O134 C159 1.264 . S
O135 Tb95 2.387 . S
O135 C151 1.264 . S
O136 Tb84 2.349 . S
O136 C151 1.243 . S
O137 Tb95 2.428 1_545 S
O137 C159 1.256 . S
O138 Tb95 2.308 . S
O138 C158 1.266 . S
O139 Tb84 2.393 . S
O139 C158 1.248 . S
C140 O129 1.264 . S
C140 O130 1.243 1_565 S
C141 C144 1.399 . S
C141 C146 1.383 . S
C141 C148 1.496 . S
C142 C143 1.399 . S
C142 C146 1.389 . S
C143 C142 1.399 . S
C143 C145 1.380 . S
C143 H160 0.929 . S
C144 C141 1.399 . S
C144 C145 1.392 . S
C144 H161 0.929 . S
C145 C143 1.380 . S
C145 C144 1.392 . S
C145 H162 0.929 . S
C146 C141 1.383 . S
C146 C142 1.389 . S
C146 H163 0.931 . S
C147 O132 1.266 . S
C147 O133 1.248 . S
C148 Tb84 2.802 . S
C148 O128 1.264 . S
C148 O131 1.256 . S
C148 C141 1.496 . S
C149 C116 1.448 . S
C149 H126 0.930 . S
C149 C150 1.328 . S
C150 C121 1.427 . S
C150 H127 0.929 . S
C150 C149 1.328 . S
C151 O135 1.264 . S
C151 O136 1.243 . S
C152 C155 1.399 . S
C152 C156 1.383 . S
C152 C159 1.496 . S
C153 C154 1.399 . S
C153 C156 1.389 . S
C154 C153 1.399 . S
C154 C157 1.380 . S
C154 H164 0.929 . S
C155 C152 1.399 . S
C155 C157 1.392 . S
C155 H165 0.929 . S
C156 C152 1.383 . S
C156 C153 1.389 . S
C156 H166 0.931 . S
C157 C154 1.380 . S
C157 C155 1.392 . S
C157 H167 0.929 . S
C158 O138 1.266 . S
C158 O139 1.248 . S
C159 Tb95 2.802 1_545 S
C159 O134 1.264 . S
C159 O137 1.256 . S
C159 C152 1.496 . S
H160 C143 0.929 . S
H161 C144 0.929 . S
H162 C145 0.929 . S
H163 C146 0.931 . S
H164 C154 0.929 . S
H165 C155 0.929 . S
H166 C156 0.931 . S
H167 C157 0.929 . S
Tb168 N197 2.617 1_455 S
Tb168 N203 2.572 1_455 S
Tb168 O212 2.465 . S
Tb168 O213 2.387 . S
Tb168 O215 2.428 . S
Tb168 O216 2.308 . S
Tb168 O220 2.349 . S
Tb168 O223 2.393 . S
Tb168 C232 2.802 . S
C169 N170 1.379 1_545 S
C169 C172 1.416 1_545 S
C169 C176 1.424 . S
N170 C169 1.379 1_565 S
N170 C173 1.334 . S
N170 Tb179 2.617 . S
C171 C173 1.390 . S
C171 C174 1.339 . S
C171 H191 0.930 . S
C172 C169 1.416 1_565 S
C172 C174 1.416 . S
C172 C178 1.448 1_565 S
C173 N170 1.334 . S
C173 C171 1.390 . S
C173 H184 0.930 . S
C174 C171 1.339 . S
C174 C172 1.416 . S
C174 H195 0.930 . S
C175 C176 1.413 . S
C175 C177 1.427 . S
C175 C181 1.416 . S
C176 C169 1.424 . S
C176 C175 1.413 . S
C176 N180 1.361 . S
C177 C175 1.427 . S
C177 C178 1.328 . S
C177 H192 0.929 . S
C178 C172 1.448 1_545 S
C178 C177 1.328 . S
C178 H193 0.931 . S
Tb179 N170 2.617 . S
Tb179 N180 2.572 1_565 S
Tb179 O214 2.349 1_565 S
Tb179 O217 2.393 . S
Tb179 O218 2.465 1_565 S
Tb179 O219 2.387 . S
Tb179 O221 2.428 1_565 S
Tb179 O222 2.308 . S
Tb179 C243 2.802 1_565 S
N180 C176 1.361 . S
N180 Tb179 2.572 1_545 S
N180 C182 1.340 . S
C181 C175 1.416 . S
C181 C183 1.332 . S
C181 H189 0.931 . S
C182 N180 1.340 . S
C182 C183 1.407 . S
C182 H188 0.930 . S
C183 C181 1.332 . S
C183 C182 1.407 . S
C183 H185 0.929 . S
H184 C173 0.930 . S
H185 C183 0.929 . S
H186 C201 0.930 . S
H187 C208 0.929 . S
H188 C182 0.930 . S
H189 C181 0.931 . S
H190 C204 0.930 . S
H191 C171 0.930 . S
H192 C177 0.929 . S
H193 C178 0.931 . S
H194 C199 0.930 . S
H195 C174 0.930 . S
H196 C207 0.931 . S
N197 Tb168 2.617 1_655 S
N197 C198 1.379 . S
N197 C201 1.334 1_655 S
C198 N197 1.379 . S
C198 C200 1.416 . S
C198 C206 1.424 . S
C199 H194 0.930 . S
C199 C201 1.390 1_655 S
C199 C202 1.339 . S
C200 C198 1.416 . S
C200 C202 1.416 . S
C200 C233 1.448 . S
C201 H186 0.930 . S
C201 N197 1.334 1_455 S
C201 C199 1.390 1_455 S
C202 C199 1.339 . S
C202 C200 1.416 . S
C202 H209 0.930 . S
N203 Tb168 2.572 1_655 S
N203 C204 1.340 . S
N203 C206 1.361 . S
C204 H190 0.930 . S
C204 N203 1.340 . S
C204 C208 1.407 . S
C205 C206 1.413 . S
C205 C207 1.416 . S
C205 C234 1.427 . S
C206 C198 1.424 . S
C206 N203 1.361 . S
C206 C205 1.413 . S
C207 H196 0.931 . S
C207 C205 1.416 . S
C207 C208 1.332 . S
C208 H187 0.929 . S
C208 C204 1.407 . S
C208 C207 1.332 . S
H209 C202 0.930 . S
H210 C233 0.930 . S
H211 C234 0.929 . S
O212 Tb168 2.465 . S
O212 C232 1.264 . S
O213 Tb168 2.387 . S
O213 C224 1.264 . S
O214 Tb179 2.349 1_545 S
O214 C224 1.243 1_545 S
O215 Tb168 2.428 . S
O215 C232 1.256 . S
O216 Tb168 2.308 . S
O216 C231 1.266 . S
O217 Tb179 2.393 . S
O217 C231 1.248 . S
O218 Tb179 2.465 1_545 S
O218 C243 1.264 . S
O219 Tb179 2.387 . S
O219 C235 1.264 . S
O220 Tb168 2.349 . S
O220 C235 1.243 . S
O221 Tb179 2.428 1_545 S
O221 C243 1.256 . S
O222 Tb179 2.308 . S
O222 C242 1.266 . S
O223 Tb168 2.393 . S
O223 C242 1.248 . S
C224 O213 1.264 . S
C224 O214 1.243 1_565 S
C225 C228 1.399 . S
C225 C230 1.383 . S
C225 C232 1.496 . S
C226 C227 1.399 . S
C226 C230 1.389 . S
C227 C226 1.399 . S
C227 C229 1.380 . S
C227 H244 0.929 . S
C228 C225 1.399 . S
C228 C229 1.392 . S
C228 H245 0.929 . S
C229 C227 1.380 . S
C229 C228 1.392 . S
C229 H246 0.929 . S
C230 C225 1.383 . S
C230 C226 1.389 . S
C230 H247 0.931 . S
C231 O216 1.266 . S
C231 O217 1.248 . S
C232 Tb168 2.802 . S
C232 O212 1.264 . S
C232 O215 1.256 . S
C232 C225 1.496 . S
C233 C200 1.448 . S
C233 H210 0.930 . S
C233 C234 1.328 . S
C234 C205 1.427 . S
C234 H211 0.929 . S
C234 C233 1.328 . S
C235 O219 1.264 . S
C235 O220 1.243 . S
C236 C239 1.399 . S
C236 C240 1.383 . S
C236 C243 1.496 . S
C237 C238 1.399 . S
C237 C240 1.389 . S
C238 C237 1.399 . S
C238 C241 1.380 . S
C238 H248 0.929 . S
C239 C236 1.399 . S
C239 C241 1.392 . S
C239 H249 0.929 . S
C240 C236 1.383 . S
C240 C237 1.389 . S
C240 H250 0.931 . S
C241 C238 1.380 . S
C241 C239 1.392 . S
C241 H251 0.929 . S
C242 O222 1.266 . S
C242 O223 1.248 . S
C243 Tb179 2.802 1_545 S
C243 O218 1.264 . S
C243 O221 1.256 . S
C243 C236 1.496 . S
H244 C227 0.929 . S
H245 C228 0.929 . S
H246 C229 0.929 . S
H247 C230 0.931 . S
H248 C238 0.929 . S
H249 C239 0.929 . S
H250 C240 0.931 . S
H251 C241 0.929 . S
Tb252 N281 2.617 1_655 S
Tb252 N287 2.572 1_655 S
Tb252 O296 2.465 . S
Tb252 O297 2.387 . S
Tb252 O299 2.428 . S
Tb252 O300 2.308 . S
Tb252 O304 2.349 . S
Tb252 O307 2.393 . S
Tb252 C316 2.802 . S
C253 N254 1.379 1_565 S
C253 C256 1.416 1_565 S
C253 C260 1.424 . S
N254 C253 1.379 1_545 S
N254 C257 1.334 . S
N254 Tb263 2.617 . S
C255 C257 1.390 . S
C255 C258 1.339 . S
C255 H275 0.930 . S
C256 C253 1.416 1_545 S
C256 C258 1.416 . S
C256 C262 1.448 1_545 S
C257 N254 1.334 . S
C257 C255 1.390 . S
C257 H268 0.930 . S
C258 C255 1.339 . S
C258 C256 1.416 . S
C258 H279 0.930 . S
C259 C260 1.413 . S
C259 C261 1.427 . S
C259 C265 1.416 . S
C260 C253 1.424 . S
C260 C259 1.413 . S
C260 N264 1.361 . S
C261 C259 1.427 . S
C261 C262 1.328 . S
C261 H276 0.929 . S
C262 C256 1.448 1_565 S
C262 C261 1.328 . S
C262 H277 0.931 . S
Tb263 N254 2.617 . S
Tb263 N264 2.572 1_545 S
Tb263 O298 2.349 1_545 S
Tb263 O301 2.393 . S
Tb263 O302 2.465 1_545 S
Tb263 O303 2.387 . S
Tb263 O305 2.428 1_545 S
Tb263 O306 2.308 . S
Tb263 C327 2.802 1_545 S
N264 C260 1.361 . S
N264 Tb263 2.572 1_565 S
N264 C266 1.340 . S
C265 C259 1.416 . S
C265 C267 1.332 . S
C265 H273 0.931 . S
C266 N264 1.340 . S
C266 C267 1.407 . S
C266 H272 0.930 . S
C267 C265 1.332 . S
C267 C266 1.407 . S
C267 H269 0.929 . S
H268 C257 0.930 . S
H269 C267 0.929 . S
H270 C285 0.930 . S
H271 C292 0.929 . S
H272 C266 0.930 . S
H273 C265 0.931 . S
H274 C288 0.930 . S
H275 C255 0.930 . S
H276 C261 0.929 . S
H277 C262 0.931 . S
H278 C283 0.930 . S
H279 C258 0.930 . S
H280 C291 0.931 . S
N281 Tb252 2.617 1_455 S
N281 C282 1.379 . S
N281 C285 1.334 1_455 S
C282 N281 1.379 . S
C282 C284 1.416 . S
C282 C290 1.424 . S
C283 H278 0.930 . S
C283 C285 1.390 1_455 S
C283 C286 1.339 . S
C284 C282 1.416 . S
C284 C286 1.416 . S
C284 C317 1.448 . S
C285 H270 0.930 . S
C285 N281 1.334 1_655 S
C285 C283 1.390 1_655 S
C286 C283 1.339 . S
C286 C284 1.416 . S
C286 H293 0.930 . S
N287 Tb252 2.572 1_455 S
N287 C288 1.340 . S
N287 C290 1.361 . S
C288 H274 0.930 . S
C288 N287 1.340 . S
C288 C292 1.407 . S
C289 C290 1.413 . S
C289 C291 1.416 . S
C289 C318 1.427 . S
C290 C282 1.424 . S
C290 N287 1.361 . S
C290 C289 1.413 . S
C291 H280 0.931 . S
C291 C289 1.416 . S
C291 C292 1.332 . S
C292 H271 0.929 . S
C292 C288 1.407 . S
C292 C291 1.332 . S
H293 C286 0.930 . S
H294 C317 0.930 . S
H295 C318 0.929 . S
O296 Tb252 2.465 . S
O296 C316 1.264 . S
O297 Tb252 2.387 . S
O297 C308 1.264 . S
O298 Tb263 2.349 1_565 S
O298 C308 1.243 1_565 S
O299 Tb252 2.428 . S
O299 C316 1.256 . S
O300 Tb252 2.308 . S
O300 C315 1.266 . S
O301 Tb263 2.393 . S
O301 C315 1.248 . S
O302 Tb263 2.465 1_565 S
O302 C327 1.264 . S
O303 Tb263 2.387 . S
O303 C319 1.264 . S
O304 Tb252 2.349 . S
O304 C319 1.243 . S
O305 Tb263 2.428 1_565 S
O305 C327 1.256 . S
O306 Tb263 2.308 . S
O306 C326 1.266 . S
O307 Tb252 2.393 . S
O307 C326 1.248 . S
C308 O297 1.264 . S
C308 O298 1.243 1_545 S
C309 C312 1.399 . S
C309 C314 1.383 . S
C309 C316 1.496 . S
C310 C311 1.399 . S
C310 C314 1.389 . S
C311 C310 1.399 . S
C311 C313 1.380 . S
C311 H328 0.929 . S
C312 C309 1.399 . S
C312 C313 1.392 . S
C312 H329 0.929 . S
C313 C311 1.380 . S
C313 C312 1.392 . S
C313 H330 0.929 . S
C314 C309 1.383 . S
C314 C310 1.389 . S
C314 H331 0.931 . S
C315 O300 1.266 . S
C315 O301 1.248 . S
C316 Tb252 2.802 . S
C316 O296 1.264 . S
C316 O299 1.256 . S
C316 C309 1.496 . S
C317 C284 1.448 . S
C317 H294 0.930 . S
C317 C318 1.328 . S
C318 C289 1.427 . S
C318 H295 0.929 . S
C318 C317 1.328 . S
C319 O303 1.264 . S
C319 O304 1.243 . S
C320 C323 1.399 . S
C320 C324 1.383 . S
C320 C327 1.496 . S
C321 C322 1.399 . S
C321 C324 1.389 . S
C322 C321 1.399 . S
C322 C325 1.380 . S
C322 H332 0.929 . S
C323 C320 1.399 . S
C323 C325 1.392 . S
C323 H333 0.929 . S
C324 C320 1.383 . S
C324 C321 1.389 . S
C324 H334 0.931 . S
C325 C322 1.380 . S
C325 C323 1.392 . S
C325 H335 0.929 . S
C326 O306 1.266 . S
C326 O307 1.248 . S
C327 Tb263 2.802 1_565 S
C327 O302 1.264 . S
C327 O305 1.256 . S
C327 C320 1.496 . S
H328 C311 0.929 . S
H329 C312 0.929 . S
H330 C313 0.929 . S
H331 C314 0.931 . S
H332 C322 0.929 . S
H333 C323 0.929 . S
H334 C324 0.931 . S
H335 C325 0.929 . S
Tb336 N365 2.617 . S
Tb336 N371 2.572 1_565 S
Tb336 O380 2.465 1_565 S
Tb336 O381 2.387 . S
Tb336 O383 2.428 1_565 S
Tb336 O384 2.308 . S
Tb336 O388 2.349 1_565 S
Tb336 O391 2.393 . S
Tb336 C400 2.802 1_565 S
C337 N338 1.379 . S
C337 C340 1.416 . S
C337 C344 1.424 . S
N338 C337 1.379 . S
N338 C341 1.334 1_455 S
N338 Tb347 2.617 1_455 S
C339 C341 1.390 1_455 S
C339 C342 1.339 . S
C339 H359 0.930 . S
C340 C337 1.416 . S
C340 C342 1.416 . S
C340 C346 1.448 . S
C341 N338 1.334 1_655 S
C341 C339 1.390 1_655 S
C341 H352 0.930 . S
C342 C339 1.339 . S
C342 C340 1.416 . S
C342 H363 0.930 . S
C343 C344 1.413 . S
C343 C345 1.427 . S
C343 C349 1.416 . S
C344 C337 1.424 . S
C344 C343 1.413 . S
C344 N348 1.361 . S
C345 C343 1.427 . S
C345 C346 1.328 . S
C345 H360 0.929 . S
C346 C340 1.448 . S
C346 C345 1.328 . S
C346 H361 0.930 . S
Tb347 N338 2.617 1_655 S
Tb347 N348 2.572 1_655 S
Tb347 O382 2.349 . S
Tb347 O385 2.393 . S
Tb347 O386 2.465 . S
Tb347 O387 2.387 . S
Tb347 O389 2.428 . S
Tb347 O390 2.308 . S
Tb347 C411 2.802 . S
N348 C344 1.361 . S
N348 Tb347 2.572 1_455 S
N348 C350 1.340 . S
C349 C343 1.416 . S
C349 C351 1.332 . S
C349 H357 0.931 . S
C350 N348 1.340 . S
C350 C351 1.407 . S
C350 H356 0.930 . S
C351 C349 1.332 . S
C351 C350 1.407 . S
C351 H353 0.929 . S
H352 C341 0.930 . S
H353 C351 0.929 . S
H354 C369 0.930 . S
H355 C376 0.929 . S
H356 C350 0.930 . S
H357 C349 0.931 . S
H358 C372 0.930 . S
H359 C339 0.930 . S
H360 C345 0.929 . S
H361 C346 0.930 . S
H362 C367 0.930 . S
H363 C342 0.930 . S
H364 C375 0.931 . S
N365 Tb336 2.617 . S
N365 C366 1.379 1_565 S
N365 C369 1.334 1_556 S
C366 N365 1.379 1_545 S
C366 C368 1.416 1_545 S
C366 C374 1.424 . S
C367 H362 0.930 . S
C367 C369 1.390 . S
C367 C370 1.339 . S
C368 C366 1.416 1_565 S
C368 C370 1.416 1_556 S
C368 C401 1.448 1_565 S
C369 H354 0.930 . S
C369 N365 1.334 1_554 S
C369 C367 1.390 . S
C370 C367 1.339 . S
C370 C368 1.416 1_554 S
C370 H377 0.930 . S
N371 Tb336 2.572 1_545 S
N371 C372 1.340 . S
N371 C374 1.361 . S
C372 H358 0.930 . S
C372 N371 1.340 . S
C372 C376 1.407 . S
C373 C374 1.413 . S
C373 C375 1.416 . S
C373 C402 1.427 . S
C374 C366 1.424 . S
C374 N371 1.361 . S
C374 C373 1.413 . S
C375 H364 0.931 . S
C375 C373 1.416 . S
C375 C376 1.332 . S
C376 H355 0.929 . S
C376 C372 1.407 . S
C376 C375 1.332 . S
H377 C370 0.930 . S
H378 C401 0.931 . S
H379 C402 0.929 . S
O380 Tb336 2.465 1_545 S
O380 C400 1.264 . S
O381 Tb336 2.387 . S
O381 C392 1.264 . S
O382 Tb347 2.349 . S
O382 C392 1.243 . S
O383 Tb336 2.428 1_545 S
O383 C400 1.256 . S
O384 Tb336 2.308 . S
O384 C399 1.266 . S
O385 Tb347 2.393 . S
O385 C399 1.248 . S
O386 Tb347 2.465 . S
O386 C411 1.264 . S
O387 Tb347 2.387 . S
O387 C403 1.264 . S
O388 Tb336 2.349 1_545 S
O388 C403 1.243 1_545 S
O389 Tb347 2.428 . S
O389 C411 1.256 . S
O390 Tb347 2.308 . S
O390 C410 1.266 . S
O391 Tb336 2.393 . S
O391 C410 1.248 . S
C392 O381 1.264 . S
C392 O382 1.243 . S
C393 C396 1.399 . S
C393 C398 1.383 . S
C393 C400 1.496 . S
C394 C395 1.399 . S
C394 C398 1.389 . S
C395 C394 1.399 . S
C395 C397 1.380 . S
C395 H412 0.929 . S
C396 C393 1.399 . S
C396 C397 1.392 . S
C396 H413 0.929 . S
C397 C395 1.380 . S
C397 C396 1.392 . S
C397 H414 0.929 . S
C398 C393 1.383 . S
C398 C394 1.389 . S
C398 H415 0.931 . S
C399 O384 1.266 . S
C399 O385 1.248 . S
C400 Tb336 2.802 1_545 S
C400 O380 1.264 . S
C400 O383 1.256 . S
C400 C393 1.496 . S
C401 C368 1.448 1_545 S
C401 H378 0.931 . S
C401 C402 1.328 . S
C402 C373 1.427 . S
C402 H379 0.929 . S
C402 C401 1.328 . S
C403 O387 1.264 . S
C403 O388 1.243 1_565 S
C404 C407 1.399 . S
C404 C408 1.383 . S
C404 C411 1.496 . S
C405 C406 1.399 . S
C405 C408 1.389 . S
C406 C405 1.399 . S
C406 C409 1.380 . S
C406 H416 0.929 . S
C407 C404 1.399 . S
C407 C409 1.392 . S
C407 H417 0.929 . S
C408 C404 1.383 . S
C408 C405 1.389 . S
C408 H418 0.931 . S
C409 C406 1.380 . S
C409 C407 1.392 . S
C409 H419 0.929 . S
C410 O390 1.266 . S
C410 O391 1.248 . S
C411 Tb347 2.802 . S
C411 O386 1.264 . S
C411 O389 1.256 . S
C411 C404 1.496 . S
H412 C395 0.929 . S
H413 C396 0.929 . S
H414 C397 0.929 . S
H415 C398 0.931 . S
H416 C406 0.929 . S
H417 C407 0.929 . S
H418 C408 0.931 . S
H419 C409 0.929 . S
Tb420 N449 2.617 . S
Tb420 N455 2.572 1_545 S
Tb420 O464 2.465 1_545 S
Tb420 O465 2.387 . S
Tb420 O467 2.428 1_545 S
Tb420 O468 2.308 . S
Tb420 O472 2.349 1_545 S
Tb420 O475 2.393 . S
Tb420 C484 2.802 1_545 S
C421 N422 1.379 . S
C421 C424 1.416 . S
C421 C428 1.424 . S
N422 C421 1.379 . S
N422 C425 1.334 1_655 S
N422 Tb431 2.617 1_655 S
C423 C425 1.390 1_655 S
C423 C426 1.339 . S
C423 H443 0.930 . S
C424 C421 1.416 . S
C424 C426 1.416 . S
C424 C430 1.448 . S
C425 N422 1.334 1_455 S
C425 C423 1.390 1_455 S
C425 H436 0.930 . S
C426 C423 1.339 . S
C426 C424 1.416 . S
C426 H447 0.930 . S
C427 C428 1.413 . S
C427 C429 1.427 . S
C427 C433 1.416 . S
C428 C421 1.424 . S
C428 C427 1.413 . S
C428 N432 1.361 . S
C429 C427 1.427 . S
C429 C430 1.328 . S
C429 H444 0.929 . S
C430 C424 1.448 . S
C430 C429 1.328 . S
C430 H445 0.930 . S
Tb431 N422 2.617 1_455 S
Tb431 N432 2.572 1_455 S
Tb431 O466 2.349 . S
Tb431 O469 2.393 . S
Tb431 O470 2.465 . S
Tb431 O471 2.387 . S
Tb431 O473 2.428 . S
Tb431 O474 2.308 . S
Tb431 C495 2.802 . S
N432 C428 1.361 . S
N432 Tb431 2.572 1_655 S
N432 C434 1.340 . S
C433 C427 1.416 . S
C433 C435 1.332 . S
C433 H441 0.931 . S
C434 N432 1.340 . S
C434 C435 1.407 . S
C434 H440 0.930 . S
C435 C433 1.332 . S
C435 C434 1.407 . S
C435 H437 0.929 . S
H436 C425 0.930 . S
H437 C435 0.929 . S
H438 C453 0.930 . S
H439 C460 0.929 . S
H440 C434 0.930 . S
H441 C433 0.931 . S
H442 C456 0.930 . S
H443 C423 0.930 . S
H444 C429 0.929 . S
H445 C430 0.930 . S
H446 C451 0.930 . S
H447 C426 0.930 . S
H448 C459 0.931 . S
N449 Tb420 2.617 . S
N449 C450 1.379 1_545 S
N449 C453 1.334 1_556 S
C450 N449 1.379 1_565 S
C450 C452 1.416 1_565 S
C450 C458 1.424 . S
C451 H446 0.930 . S
C451 C453 1.390 . S
C451 C454 1.339 . S
C452 C450 1.416 1_545 S
C452 C454 1.416 1_556 S
C452 C485 1.448 1_545 S
C453 H438 0.930 . S
C453 N449 1.334 1_554 S
C453 C451 1.390 . S
C454 C451 1.339 . S
C454 C452 1.416 1_554 S
C454 H461 0.930 . S
N455 Tb420 2.572 1_565 S
N455 C456 1.340 . S
N455 C458 1.361 . S
C456 H442 0.930 . S
C456 N455 1.340 . S
C456 C460 1.407 . S
C457 C458 1.413 . S
C457 C459 1.416 . S
C457 C486 1.427 . S
C458 C450 1.424 . S
C458 N455 1.361 . S
C458 C457 1.413 . S
C459 H448 0.931 . S
C459 C457 1.416 . S
C459 C460 1.332 . S
C460 H439 0.929 . S
C460 C456 1.407 . S
C460 C459 1.332 . S
H461 C454 0.930 . S
H462 C485 0.931 . S
H463 C486 0.929 . S
O464 Tb420 2.465 1_565 S
O464 C484 1.264 . S
O465 Tb420 2.387 . S
O465 C476 1.264 . S
O466 Tb431 2.349 . S
O466 C476 1.243 . S
O467 Tb420 2.428 1_565 S
O467 C484 1.256 . S
O468 Tb420 2.308 . S
O468 C483 1.266 . S
O469 Tb431 2.393 . S
O469 C483 1.248 . S
O470 Tb431 2.465 . S
O470 C495 1.264 . S
O471 Tb431 2.387 . S
O471 C487 1.264 . S
O472 Tb420 2.349 1_565 S
O472 C487 1.243 1_565 S
O473 Tb431 2.428 . S
O473 C495 1.256 . S
O474 Tb431 2.308 . S
O474 C494 1.266 . S
O475 Tb420 2.393 . S
O475 C494 1.248 . S
C476 O465 1.264 . S
C476 O466 1.243 . S
C477 C480 1.399 . S
C477 C482 1.383 . S
C477 C484 1.496 . S
C478 C479 1.399 . S
C478 C482 1.389 . S
C479 C478 1.399 . S
C479 C481 1.380 . S
C479 H496 0.929 . S
C480 C477 1.399 . S
C480 C481 1.392 . S
C480 H497 0.929 . S
C481 C479 1.380 . S
C481 C480 1.392 . S
C481 H498 0.929 . S
C482 C477 1.383 . S
C482 C478 1.389 . S
C482 H499 0.931 . S
C483 O468 1.266 . S
C483 O469 1.248 . S
C484 Tb420 2.802 1_565 S
C484 O464 1.264 . S
C484 O467 1.256 . S
C484 C477 1.496 . S
C485 C452 1.448 1_565 S
C485 H462 0.931 . S
C485 C486 1.328 . S
C486 C457 1.427 . S
C486 H463 0.929 . S
C486 C485 1.328 . S
C487 O471 1.264 . S
C487 O472 1.243 1_545 S
C488 C491 1.399 . S
C488 C492 1.383 . S
C488 C495 1.496 . S
C489 C490 1.399 . S
C489 C492 1.389 . S
C490 C489 1.399 . S
C490 C493 1.380 . S
C490 H500 0.929 . S
C491 C488 1.399 . S
C491 C493 1.392 . S
C491 H501 0.929 . S
C492 C488 1.383 . S
C492 C489 1.389 . S
C492 H502 0.931 . S
C493 C490 1.380 . S
C493 C491 1.392 . S
C493 H503 0.929 . S
C494 O474 1.266 . S
C494 O475 1.248 . S
C495 Tb431 2.802 . S
C495 O470 1.264 . S
C495 O473 1.256 . S
C495 C488 1.496 . S
H496 C479 0.929 . S
H497 C480 0.929 . S
H498 C481 0.929 . S
H499 C482 0.931 . S
H500 C490 0.929 . S
H501 C491 0.929 . S
H502 C492 0.931 . S
H503 C493 0.929 . S
Tb504 N533 2.617 . S
Tb504 N539 2.572 1_545 S
Tb504 O548 2.465 1_545 S
Tb504 O549 2.387 . S
Tb504 O551 2.428 1_545 S
Tb504 O552 2.308 . S
Tb504 O556 2.349 1_545 S
Tb504 O559 2.393 . S
Tb504 C568 2.802 1_545 S
C505 N506 1.379 . S
C505 C508 1.416 . S
C505 C512 1.424 . S
N506 C505 1.379 . S
N506 C509 1.334 1_455 S
N506 Tb515 2.617 1_455 S
C507 C509 1.390 1_455 S
C507 C510 1.339 . S
C507 H527 0.930 . S
C508 C505 1.416 . S
C508 C510 1.416 . S
C508 C514 1.448 . S
C509 N506 1.334 1_655 S
C509 C507 1.390 1_655 S
C509 H520 0.930 . S
C510 C507 1.339 . S
C510 C508 1.416 . S
C510 H531 0.930 . S
C511 C512 1.413 . S
C511 C513 1.427 . S
C511 C517 1.416 . S
C512 C505 1.424 . S
C512 C511 1.413 . S
C512 N516 1.361 . S
C513 C511 1.427 . S
C513 C514 1.328 . S
C513 H528 0.929 . S
C514 C508 1.448 . S
C514 C513 1.328 . S
C514 H529 0.930 . S
Tb515 N506 2.617 1_655 S
Tb515 N516 2.572 1_655 S
Tb515 O550 2.349 . S
Tb515 O553 2.393 . S
Tb515 O554 2.465 . S
Tb515 O555 2.387 . S
Tb515 O557 2.428 . S
Tb515 O558 2.308 . S
Tb515 C579 2.802 . S
N516 C512 1.361 . S
N516 Tb515 2.572 1_455 S
N516 C518 1.340 . S
C517 C511 1.416 . S
C517 C519 1.332 . S
C517 H525 0.931 . S
C518 N516 1.340 . S
C518 C519 1.407 . S
C518 H524 0.930 . S
C519 C517 1.332 . S
C519 C518 1.407 . S
C519 H521 0.929 . S
H520 C509 0.930 . S
H521 C519 0.929 . S
H522 C537 0.930 . S
H523 C544 0.929 . S
H524 C518 0.930 . S
H525 C517 0.931 . S
H526 C540 0.930 . S
H527 C507 0.930 . S
H528 C513 0.929 . S
H529 C514 0.930 . S
H530 C535 0.930 . S
H531 C510 0.930 . S
H532 C543 0.931 . S
N533 Tb504 2.617 . S
N533 C534 1.379 1_545 S
N533 C537 1.334 . S
C534 N533 1.379 1_565 S
C534 C536 1.416 1_565 S
C534 C542 1.424 . S
C535 H530 0.930 . S
C535 C537 1.390 . S
C535 C538 1.339 . S
C536 C534 1.416 1_545 S
C536 C538 1.416 . S
C536 C569 1.448 1_545 S
C537 H522 0.930 . S
C537 N533 1.334 . S
C537 C535 1.390 . S
C538 C535 1.339 . S
C538 C536 1.416 . S
C538 H545 0.930 . S
N539 Tb504 2.572 1_565 S
N539 C540 1.340 . S
N539 C542 1.361 . S
C540 H526 0.930 . S
C540 N539 1.340 . S
C540 C544 1.407 . S
C541 C542 1.413 . S
C541 C543 1.416 . S
C541 C570 1.427 . S
C542 C534 1.424 . S
C542 N539 1.361 . S
C542 C541 1.413 . S
C543 H532 0.931 . S
C543 C541 1.416 . S
C543 C544 1.332 . S
C544 H523 0.929 . S
C544 C540 1.407 . S
C544 C543 1.332 . S
H545 C538 0.930 . S
H546 C569 0.931 . S
H547 C570 0.929 . S
O548 Tb504 2.465 1_565 S
O548 C568 1.264 . S
O549 Tb504 2.387 . S
O549 C560 1.264 . S
O550 Tb515 2.349 . S
O550 C560 1.243 . S
O551 Tb504 2.428 1_565 S
O551 C568 1.256 . S
O552 Tb504 2.308 . S
O552 C567 1.266 . S
O553 Tb515 2.393 . S
O553 C567 1.248 . S
O554 Tb515 2.465 . S
O554 C579 1.264 . S
O555 Tb515 2.387 . S
O555 C571 1.264 . S
O556 Tb504 2.349 1_565 S
O556 C571 1.243 1_565 S
O557 Tb515 2.428 . S
O557 C579 1.256 . S
O558 Tb515 2.308 . S
O558 C578 1.266 . S
O559 Tb504 2.393 . S
O559 C578 1.248 . S
C560 O549 1.264 . S
C560 O550 1.243 . S
C561 C564 1.399 . S
C561 C566 1.383 . S
C561 C568 1.496 . S
C562 C563 1.399 . S
C562 C566 1.389 . S
C563 C562 1.399 . S
C563 C565 1.380 . S
C563 H580 0.929 . S
C564 C561 1.399 . S
C564 C565 1.392 . S
C564 H581 0.929 . S
C565 C563 1.380 . S
C565 C564 1.392 . S
C565 H582 0.929 . S
C566 C561 1.383 . S
C566 C562 1.389 . S
C566 H583 0.931 . S
C567 O552 1.266 . S
C567 O553 1.248 . S
C568 Tb504 2.802 1_565 S
C568 O548 1.264 . S
C568 O551 1.256 . S
C568 C561 1.496 . S
C569 C536 1.448 1_565 S
C569 H546 0.931 . S
C569 C570 1.328 . S
C570 C541 1.427 . S
C570 H547 0.929 . S
C570 C569 1.328 . S
C571 O555 1.264 . S
C571 O556 1.243 1_545 S
C572 C575 1.399 . S
C572 C576 1.383 . S
C572 C579 1.496 . S
C573 C574 1.399 . S
C573 C576 1.389 . S
C574 C573 1.399 . S
C574 C577 1.380 . S
C574 H584 0.929 . S
C575 C572 1.399 . S
C575 C577 1.392 . S
C575 H585 0.929 . S
C576 C572 1.383 . S
C576 C573 1.389 . S
C576 H586 0.931 . S
C577 C574 1.380 . S
C577 C575 1.392 . S
C577 H587 0.929 . S
C578 O558 1.266 . S
C578 O559 1.248 . S
C579 Tb515 2.802 . S
C579 O554 1.264 . S
C579 O557 1.256 . S
C579 C572 1.496 . S
H580 C563 0.929 . S
H581 C564 0.929 . S
H582 C565 0.929 . S
H583 C566 0.931 . S
H584 C574 0.929 . S
H585 C575 0.929 . S
H586 C576 0.931 . S
H587 C577 0.929 . S
Tb588 N617 2.617 . S
Tb588 N623 2.572 1_565 S
Tb588 O632 2.465 1_565 S
Tb588 O633 2.387 . S
Tb588 O635 2.428 1_565 S
Tb588 O636 2.308 . S
Tb588 O640 2.349 1_565 S
Tb588 O643 2.393 . S
Tb588 C652 2.802 1_565 S
C589 N590 1.379 . S
C589 C592 1.416 . S
C589 C596 1.424 . S
N590 C589 1.379 . S
N590 C593 1.334 1_655 S
N590 Tb599 2.617 1_655 S
C591 C593 1.390 1_655 S
C591 C594 1.339 . S
C591 H611 0.930 . S
C592 C589 1.416 . S
C592 C594 1.416 . S
C592 C598 1.448 . S
C593 N590 1.334 1_455 S
C593 C591 1.390 1_455 S
C593 H604 0.930 . S
C594 C591 1.339 . S
C594 C592 1.416 . S
C594 H615 0.930 . S
C595 C596 1.413 . S
C595 C597 1.427 . S
C595 C601 1.416 . S
C596 C589 1.424 . S
C596 C595 1.413 . S
C596 N600 1.361 . S
C597 C595 1.427 . S
C597 C598 1.328 . S
C597 H612 0.929 . S
C598 C592 1.448 . S
C598 C597 1.328 . S
C598 H613 0.930 . S
Tb599 N590 2.617 1_455 S
Tb599 N600 2.572 1_455 S
Tb599 O634 2.349 . S
Tb599 O637 2.393 . S
Tb599 O638 2.465 . S
Tb599 O639 2.387 . S
Tb599 O641 2.428 . S
Tb599 O642 2.308 . S
Tb599 C663 2.802 . S
N600 C596 1.361 . S
N600 Tb599 2.572 1_655 S
N600 C602 1.340 . S
C601 C595 1.416 . S
C601 C603 1.332 . S
C601 H609 0.931 . S
C602 N600 1.340 . S
C602 C603 1.407 . S
C602 H608 0.930 . S
C603 C601 1.332 . S
C603 C602 1.407 . S
C603 H605 0.929 . S
H604 C593 0.930 . S
H605 C603 0.929 . S
H606 C621 0.930 . S
H607 C628 0.929 . S
H608 C602 0.930 . S
H609 C601 0.931 . S
H610 C624 0.930 . S
H611 C591 0.930 . S
H612 C597 0.929 . S
H613 C598 0.930 . S
H614 C619 0.930 . S
H615 C594 0.930 . S
H616 C627 0.931 . S
N617 Tb588 2.617 . S
N617 C618 1.379 1_565 S
N617 C621 1.334 . S
C618 N617 1.379 1_545 S
C618 C620 1.416 1_545 S
C618 C626 1.424 . S
C619 H614 0.930 . S
C619 C621 1.390 . S
C619 C622 1.339 . S
C620 C618 1.416 1_565 S
C620 C622 1.416 . S
C620 C653 1.448 1_565 S
C621 H606 0.930 . S
C621 N617 1.334 . S
C621 C619 1.390 . S
C622 C619 1.339 . S
C622 C620 1.416 . S
C622 H629 0.930 . S
N623 Tb588 2.572 1_545 S
N623 C624 1.340 . S
N623 C626 1.361 . S
C624 H610 0.930 . S
C624 N623 1.340 . S
C624 C628 1.407 . S
C625 C626 1.413 . S
C625 C627 1.416 . S
C625 C654 1.427 . S
C626 C618 1.424 . S
C626 N623 1.361 . S
C626 C625 1.413 . S
C627 H616 0.931 . S
C627 C625 1.416 . S
C627 C628 1.332 . S
C628 H607 0.929 . S
C628 C624 1.407 . S
C628 C627 1.332 . S
H629 C622 0.930 . S
H630 C653 0.931 . S
H631 C654 0.929 . S
O632 Tb588 2.465 1_545 S
O632 C652 1.264 . S
O633 Tb588 2.387 . S
O633 C644 1.264 . S
O634 Tb599 2.349 . S
O634 C644 1.243 . S
O635 Tb588 2.428 1_545 S
O635 C652 1.256 . S
O636 Tb588 2.308 . S
O636 C651 1.266 . S
O637 Tb599 2.393 . S
O637 C651 1.248 . S
O638 Tb599 2.465 . S
O638 C663 1.264 . S
O639 Tb599 2.387 . S
O639 C655 1.264 . S
O640 Tb588 2.349 1_545 S
O640 C655 1.243 1_545 S
O641 Tb599 2.428 . S
O641 C663 1.256 . S
O642 Tb599 2.308 . S
O642 C662 1.266 . S
O643 Tb588 2.393 . S
O643 C662 1.248 . S
C644 O633 1.264 . S
C644 O634 1.243 . S
C645 C648 1.399 . S
C645 C650 1.383 . S
C645 C652 1.496 . S
C646 C647 1.399 . S
C646 C650 1.389 . S
C647 C646 1.399 . S
C647 C649 1.380 . S
C647 H664 0.929 . S
C648 C645 1.399 . S
C648 C649 1.392 . S
C648 H665 0.929 . S
C649 C647 1.380 . S
C649 C648 1.392 . S
C649 H666 0.929 . S
C650 C645 1.383 . S
C650 C646 1.389 . S
C650 H667 0.931 . S
C651 O636 1.266 . S
C651 O637 1.248 . S
C652 Tb588 2.802 1_545 S
C652 O632 1.264 . S
C652 O635 1.256 . S
C652 C645 1.496 . S
C653 C620 1.448 1_545 S
C653 H630 0.931 . S
C653 C654 1.328 . S
C654 C625 1.427 . S
C654 H631 0.929 . S
C654 C653 1.328 . S
C655 O639 1.264 . S
C655 O640 1.243 1_565 S
C656 C659 1.399 . S
C656 C660 1.383 . S
C656 C663 1.496 . S
C657 C658 1.399 . S
C657 C660 1.389 . S
C658 C657 1.399 . S
C658 C661 1.380 . S
C658 H668 0.929 . S
C659 C656 1.399 . S
C659 C661 1.392 . S
C659 H669 0.929 . S
C660 C656 1.383 . S
C660 C657 1.389 . S
C660 H670 0.931 . S
C661 C658 1.380 . S
C661 C659 1.392 . S
C661 H671 0.929 . S
C662 O642 1.266 . S
C662 O643 1.248 . S
C663 Tb599 2.802 . S
C663 O638 1.264 . S
C663 O641 1.256 . S
C663 C656 1.496 . S
H664 C647 0.929 . S
H665 C648 0.929 . S
H666 C649 0.929 . S
H667 C650 0.931 . S
H668 C658 0.929 . S
H669 C659 0.929 . S
H670 C660 0.931 . S
H671 C661 0.929 . S
Tb672 N701 2.617 . S
Tb672 N707 2.572 . S
Tb672 O716 2.465 . S
Tb672 O717 2.387 . S
Tb672 O719 2.428 . S
Tb672 O720 2.308 . S
Tb672 O724 2.349 . S
Tb672 O727 2.393 . S
Tb672 C736 2.802 . S
C673 N674 1.379 . S
C673 C676 1.416 . S
C673 C680 1.424 . S
N674 C673 1.379 . S
N674 C677 1.334 1_554 S
N674 Tb683 2.617 . S
C675 C677 1.390 . S
C675 C678 1.339 . S
C675 H695 0.930 . S
C676 C673 1.416 . S
C676 C678 1.416 1_554 S
C676 C682 1.448 . S
C677 N674 1.334 1_556 S
C677 C675 1.390 . S
C677 H688 0.930 . S
C678 C675 1.339 . S
C678 C676 1.416 1_556 S
C678 H699 0.930 . S
C679 C680 1.413 . S
C679 C681 1.427 . S
C679 C685 1.416 . S
C680 C673 1.424 . S
C680 C679 1.413 . S
C680 N684 1.361 . S
C681 C679 1.427 . S
C681 C682 1.328 . S
C681 H696 0.929 1_655 S
C682 C676 1.448 . S
C682 C681 1.328 . S
C682 H697 0.930 . S
Tb683 N674 2.617 . S
Tb683 N684 2.572 . S
Tb683 O718 2.349 . S
Tb683 O721 2.393 . S
Tb683 O722 2.465 . S
Tb683 O723 2.387 . S
Tb683 O725 2.428 . S
Tb683 O726 2.308 . S
Tb683 C747 2.802 . S
N684 C680 1.361 . S
N684 Tb683 2.572 . S
N684 C686 1.340 . S
C685 C679 1.416 . S
C685 C687 1.332 . S
C685 H693 0.931 . S
C686 N684 1.340 . S
C686 C687 1.407 . S
C686 H692 0.930 . S
C687 C685 1.332 . S
C687 C686 1.407 . S
C687 H689 0.929 . S
H688 C677 0.930 . S
H689 C687 0.929 . S
H690 C705 0.930 . S
H691 C712 0.929 . S
H692 C686 0.930 . S
H693 C685 0.931 . S
H694 C708 0.930 . S
H695 C675 0.930 . S
H696 C681 0.929 1_455 S
H697 C682 0.930 . S
H698 C703 0.930 . S
H699 C678 0.930 . S
H700 C711 0.931 . S
N701 Tb672 2.617 . S
N701 C702 1.379 . S
N701 C705 1.334 . S
C702 N701 1.379 . S
C702 C704 1.416 . S
C702 C710 1.424 . S
C703 H698 0.930 . S
C703 C705 1.390 . S
C703 C706 1.339 . S
C704 C702 1.416 . S
C704 C706 1.416 . S
C704 C737 1.448 . S
C705 H690 0.930 . S
C705 N701 1.334 . S
C705 C703 1.390 . S
C706 C703 1.339 . S
C706 C704 1.416 . S
C706 H713 0.930 . S
N707 Tb672 2.572 . S
N707 C708 1.340 . S
N707 C710 1.361 . S
C708 H694 0.930 . S
C708 N707 1.340 . S
C708 C712 1.407 . S
C709 C710 1.413 . S
C709 C711 1.416 . S
C709 C738 1.427 . S
C710 C702 1.424 . S
C710 N707 1.361 . S
C710 C709 1.413 . S
C711 H700 0.931 . S
C711 C709 1.416 . S
C711 C712 1.332 . S
C712 H691 0.929 . S
C712 C708 1.407 . S
C712 C711 1.332 . S
H713 C706 0.930 . S
H714 C737 0.930 . S
H715 C738 0.929 . S
O716 Tb672 2.465 . S
O716 C736 1.264 . S
O717 Tb672 2.387 . S
O717 C728 1.264 . S
O718 Tb683 2.349 . S
O718 C728 1.243 . S
O719 Tb672 2.428 . S
O719 C736 1.256 . S
O720 Tb672 2.308 . S
O720 C735 1.266 . S
O721 Tb683 2.393 . S
O721 C735 1.248 . S
O722 Tb683 2.465 . S
O722 C747 1.264 . S
O723 Tb683 2.387 . S
O723 C739 1.264 . S
O724 Tb672 2.349 . S
O724 C739 1.243 . S
O725 Tb683 2.428 . S
O725 C747 1.256 . S
O726 Tb683 2.308 . S
O726 C746 1.266 . S
O727 Tb672 2.393 . S
O727 C746 1.248 . S
C728 O717 1.264 . S
C728 O718 1.243 . S
C729 C732 1.399 . S
C729 C734 1.383 1_565 S
C729 C736 1.496 . S
C730 C731 1.399 . S
C730 C734 1.389 . S
C731 C730 1.399 . S
C731 C733 1.380 . S
C731 H748 0.929 . S
C732 C729 1.399 . S
C732 C733 1.392 1_565 S
C732 H749 0.929 . S
C733 C731 1.380 . S
C733 C732 1.392 1_545 S
C733 H750 0.929 . S
C734 C729 1.383 1_545 S
C734 C730 1.389 . S
C734 H751 0.931 1_545 S
C735 O720 1.266 . S
C735 O721 1.248 . S
C736 Tb672 2.802 . S
C736 O716 1.264 . S
C736 O719 1.256 . S
C736 C729 1.496 . S
C737 C704 1.448 . S
C737 H714 0.930 . S
C737 C738 1.328 . S
C738 C709 1.427 . S
C738 H715 0.929 . S
C738 C737 1.328 . S
C739 O723 1.264 . S
C739 O724 1.243 . S
C740 C743 1.399 . S
C740 C744 1.383 . S
C740 C747 1.496 . S
C741 C742 1.399 . S
C741 C744 1.389 . S
C742 C741 1.399 . S
C742 C745 1.380 . S
C742 H752 0.929 . S
C743 C740 1.399 . S
C743 C745 1.392 . S
C743 H753 0.929 . S
C744 C740 1.383 . S
C744 C741 1.389 . S
C744 H754 0.931 . S
C745 C742 1.380 . S
C745 C743 1.392 . S
C745 H755 0.929 . S
C746 O726 1.266 . S
C746 O727 1.248 . S
C747 Tb683 2.802 . S
C747 O722 1.264 . S
C747 O725 1.256 . S
C747 C740 1.496 . S
H748 C731 0.929 . S
H749 C732 0.929 . S
H750 C733 0.929 . S
H751 C734 0.931 1_565 S
H752 C742 0.929 . S
H753 C743 0.929 . S
H754 C744 0.931 . S
H755 C745 0.929 . S
Tb756 N785 2.617 . S
Tb756 N791 2.572 . S
Tb756 O800 2.465 . S
Tb756 O801 2.387 . S
Tb756 O803 2.428 . S
Tb756 O804 2.308 . S
Tb756 O808 2.349 . S
Tb756 O811 2.393 . S
Tb756 C820 2.802 . S
C757 N758 1.379 . S
C757 C760 1.416 . S
C757 C764 1.424 . S
N758 C757 1.379 . S
N758 C761 1.334 1_554 S
N758 Tb767 2.617 . S
C759 C761 1.390 . S
C759 C762 1.339 . S
C759 H779 0.930 . S
C760 C757 1.416 . S
C760 C762 1.416 1_554 S
C760 C766 1.448 . S
C761 N758 1.334 1_556 S
C761 C759 1.390 . S
C761 H772 0.930 . S
C762 C759 1.339 . S
C762 C760 1.416 1_556 S
C762 H783 0.930 . S
C763 C764 1.413 . S
C763 C765 1.427 . S
C763 C769 1.416 . S
C764 C757 1.424 . S
C764 C763 1.413 . S
C764 N768 1.361 . S
C765 C763 1.427 . S
C765 C766 1.328 . S
C765 H780 0.929 1_455 S
C766 C760 1.448 . S
C766 C765 1.328 . S
C766 H781 0.930 . S
Tb767 N758 2.617 . S
Tb767 N768 2.572 . S
Tb767 O802 2.349 . S
Tb767 O805 2.393 . S
Tb767 O806 2.465 . S
Tb767 O807 2.387 . S
Tb767 O809 2.428 . S
Tb767 O810 2.308 . S
Tb767 C831 2.802 . S
N768 C764 1.361 . S
N768 Tb767 2.572 . S
N768 C770 1.340 . S
C769 C763 1.416 . S
C769 C771 1.332 . S
C769 H777 0.931 . S
C770 N768 1.340 . S
C770 C771 1.407 . S
C770 H776 0.930 . S
C771 C769 1.332 . S
C771 C770 1.407 . S
C771 H773 0.929 . S
H772 C761 0.930 . S
H773 C771 0.929 . S
H774 C789 0.930 . S
H775 C796 0.929 . S
H776 C770 0.930 . S
H777 C769 0.931 . S
H778 C792 0.930 . S
H779 C759 0.930 . S
H780 C765 0.929 1_655 S
H781 C766 0.930 . S
H782 C787 0.930 . S
H783 C762 0.930 . S
H784 C795 0.931 . S
N785 Tb756 2.617 . S
N785 C786 1.379 . S
N785 C789 1.334 . S
C786 N785 1.379 . S
C786 C788 1.416 . S
C786 C794 1.424 . S
C787 H782 0.930 . S
C787 C789 1.390 . S
C787 C790 1.339 . S
C788 C786 1.416 . S
C788 C790 1.416 . S
C788 C821 1.448 . S
C789 H774 0.930 . S
C789 N785 1.334 . S
C789 C787 1.390 . S
C790 C787 1.339 . S
C790 C788 1.416 . S
C790 H797 0.930 . S
N791 Tb756 2.572 . S
N791 C792 1.340 . S
N791 C794 1.361 . S
C792 H778 0.930 . S
C792 N791 1.340 . S
C792 C796 1.407 . S
C793 C794 1.413 . S
C793 C795 1.416 . S
C793 C822 1.427 . S
C794 C786 1.424 . S
C794 N791 1.361 . S
C794 C793 1.413 . S
C795 H784 0.931 . S
C795 C793 1.416 . S
C795 C796 1.332 . S
C796 H775 0.929 . S
C796 C792 1.407 . S
C796 C795 1.332 . S
H797 C790 0.930 . S
H798 C821 0.930 . S
H799 C822 0.929 . S
O800 Tb756 2.465 . S
O800 C820 1.264 . S
O801 Tb756 2.387 . S
O801 C812 1.264 . S
O802 Tb767 2.349 . S
O802 C812 1.243 . S
O803 Tb756 2.428 . S
O803 C820 1.256 . S
O804 Tb756 2.308 . S
O804 C819 1.266 . S
O805 Tb767 2.393 . S
O805 C819 1.248 . S
O806 Tb767 2.465 . S
O806 C831 1.264 . S
O807 Tb767 2.387 . S
O807 C823 1.264 . S
O808 Tb756 2.349 . S
O808 C823 1.243 . S
O809 Tb767 2.428 . S
O809 C831 1.256 . S
O810 Tb767 2.308 . S
O810 C830 1.266 . S
O811 Tb756 2.393 . S
O811 C830 1.248 . S
C812 O801 1.264 . S
C812 O802 1.243 . S
C813 C816 1.399 . S
C813 C818 1.383 1_545 S
C813 C820 1.496 . S
C814 C815 1.399 . S
C814 C818 1.389 . S
C815 C814 1.399 . S
C815 C817 1.380 . S
C815 H832 0.929 . S
C816 C813 1.399 . S
C816 C817 1.392 1_545 S
C816 H833 0.929 . S
C817 C815 1.380 . S
C817 C816 1.392 1_565 S
C817 H834 0.929 . S
C818 C813 1.383 1_565 S
C818 C814 1.389 . S
C818 H835 0.931 1_565 S
C819 O804 1.266 . S
C819 O805 1.248 . S
C820 Tb756 2.802 . S
C820 O800 1.264 . S
C820 O803 1.256 . S
C820 C813 1.496 . S
C821 C788 1.448 . S
C821 H798 0.930 . S
C821 C822 1.328 . S
C822 C793 1.427 . S
C822 H799 0.929 . S
C822 C821 1.328 . S
C823 O807 1.264 . S
C823 O808 1.243 . S
C824 C827 1.399 . S
C824 C828 1.383 . S
C824 C831 1.496 . S
C825 C826 1.399 . S
C825 C828 1.389 . S
C826 C825 1.399 . S
C826 C829 1.380 . S
C826 H836 0.929 . S
C827 C824 1.399 . S
C827 C829 1.392 . S
C827 H837 0.929 . S
C828 C824 1.383 . S
C828 C825 1.389 . S
C828 H838 0.931 . S
C829 C826 1.380 . S
C829 C827 1.392 . S
C829 H839 0.929 . S
C830 O810 1.266 . S
C830 O811 1.248 . S
C831 Tb767 2.802 . S
C831 O806 1.264 . S
C831 O809 1.256 . S
C831 C824 1.496 . S
H832 C815 0.929 . S
H833 C816 0.929 . S
H834 C817 0.929 . S
H835 C818 0.931 1_545 S
H836 C826 0.929 . S
H837 C827 0.929 . S
H838 C828 0.931 . S
H839 C829 0.929 . S
Tb840 N869 2.617 . S
Tb840 N875 2.572 . S
Tb840 O884 2.465 . S
Tb840 O885 2.387 . S
Tb840 O887 2.428 . S
Tb840 O888 2.308 . S
Tb840 O892 2.349 . S
Tb840 O895 2.393 . S
Tb840 C904 2.802 . S
C841 N842 1.379 . S
C841 C844 1.416 . S
C841 C848 1.424 . S
N842 C841 1.379 . S
N842 C845 1.334 . S
N842 Tb851 2.617 . S
C843 C845 1.390 . S
C843 C846 1.339 . S
C843 H863 0.930 . S
C844 C841 1.416 . S
C844 C846 1.416 . S
C844 C850 1.448 . S
C845 N842 1.334 . S
C845 C843 1.390 . S
C845 H856 0.930 . S
C846 C843 1.339 . S
C846 C844 1.416 . S
C846 H867 0.930 . S
C847 C848 1.413 . S
C847 C849 1.427 . S
C847 C853 1.416 . S
C848 C841 1.424 . S
C848 C847 1.413 . S
C848 N852 1.361 . S
C849 C847 1.427 . S
C849 C850 1.328 . S
C849 H864 0.929 1_655 S
C850 C844 1.448 . S
C850 C849 1.328 . S
C850 H865 0.930 . S
Tb851 N842 2.617 . S
Tb851 N852 2.572 . S
Tb851 O886 2.349 . S
Tb851 O889 2.393 . S
Tb851 O890 2.465 . S
Tb851 O891 2.387 . S
Tb851 O893 2.428 . S
Tb851 O894 2.308 . S
Tb851 C915 2.802 . S
N852 C848 1.361 . S
N852 Tb851 2.572 . S
N852 C854 1.340 . S
C853 C847 1.416 . S
C853 C855 1.332 . S
C853 H861 0.931 . S
C854 N852 1.340 . S
C854 C855 1.407 . S
C854 H860 0.930 . S
C855 C853 1.332 . S
C855 C854 1.407 . S
C855 H857 0.929 . S
H856 C845 0.930 . S
H857 C855 0.929 . S
H858 C873 0.930 . S
H859 C880 0.929 . S
H860 C854 0.930 . S
H861 C853 0.931 . S
H862 C876 0.930 . S
H863 C843 0.930 . S
H864 C849 0.929 1_455 S
H865 C850 0.930 . S
H866 C871 0.930 . S
H867 C846 0.930 . S
H868 C879 0.931 . S
N869 Tb840 2.617 . S
N869 C870 1.379 . S
N869 C873 1.334 . S
C870 N869 1.379 . S
C870 C872 1.416 . S
C870 C878 1.424 . S
C871 H866 0.930 . S
C871 C873 1.390 . S
C871 C874 1.339 . S
C872 C870 1.416 . S
C872 C874 1.416 . S
C872 C905 1.448 . S
C873 H858 0.930 . S
C873 N869 1.334 . S
C873 C871 1.390 . S
C874 C871 1.339 . S
C874 C872 1.416 . S
C874 H881 0.930 . S
N875 Tb840 2.572 . S
N875 C876 1.340 . S
N875 C878 1.361 . S
C876 H862 0.930 . S
C876 N875 1.340 . S
C876 C880 1.407 . S
C877 C878 1.413 . S
C877 C879 1.416 . S
C877 C906 1.427 . S
C878 C870 1.424 . S
C878 N875 1.361 . S
C878 C877 1.413 . S
C879 H868 0.931 . S
C879 C877 1.416 . S
C879 C880 1.332 . S
C880 H859 0.929 . S
C880 C876 1.407 . S
C880 C879 1.332 . S
H881 C874 0.930 . S
H882 C905 0.930 . S
H883 C906 0.929 . S
O884 Tb840 2.465 . S
O884 C904 1.264 . S
O885 Tb840 2.387 . S
O885 C896 1.264 . S
O886 Tb851 2.349 . S
O886 C896 1.243 . S
O887 Tb840 2.428 . S
O887 C904 1.256 . S
O888 Tb840 2.308 . S
O888 C903 1.266 . S
O889 Tb851 2.393 . S
O889 C903 1.248 . S
O890 Tb851 2.465 . S
O890 C915 1.264 . S
O891 Tb851 2.387 . S
O891 C907 1.264 . S
O892 Tb840 2.349 . S
O892 C907 1.243 . S
O893 Tb851 2.428 . S
O893 C915 1.256 . S
O894 Tb851 2.308 . S
O894 C914 1.266 . S
O895 Tb840 2.393 . S
O895 C914 1.248 . S
C896 O885 1.264 . S
C896 O886 1.243 . S
C897 C900 1.399 . S
C897 C902 1.383 1_545 S
C897 C904 1.496 . S
C898 C899 1.399 . S
C898 C902 1.389 . S
C899 C898 1.399 . S
C899 C901 1.380 . S
C899 H916 0.929 . S
C900 C897 1.399 . S
C900 C901 1.392 1_545 S
C900 H917 0.929 . S
C901 C899 1.380 . S
C901 C900 1.392 1_565 S
C901 H918 0.929 . S
C902 C897 1.383 1_565 S
C902 C898 1.389 . S
C902 H919 0.931 1_565 S
C903 O888 1.266 . S
C903 O889 1.248 . S
C904 Tb840 2.802 . S
C904 O884 1.264 . S
C904 O887 1.256 . S
C904 C897 1.496 . S
C905 C872 1.448 . S
C905 H882 0.930 . S
C905 C906 1.328 . S
C906 C877 1.427 . S
C906 H883 0.929 . S
C906 C905 1.328 . S
C907 O891 1.264 . S
C907 O892 1.243 . S
C908 C911 1.399 . S
C908 C912 1.383 . S
C908 C915 1.496 . S
C909 C910 1.399 . S
C909 C912 1.389 . S
C910 C909 1.399 . S
C910 C913 1.380 . S
C910 H920 0.929 . S
C911 C908 1.399 . S
C911 C913 1.392 . S
C911 H921 0.929 . S
C912 C908 1.383 . S
C912 C909 1.389 . S
C912 H922 0.931 . S
C913 C910 1.380 . S
C913 C911 1.392 . S
C913 H923 0.929 . S
C914 O894 1.266 . S
C914 O895 1.248 . S
C915 Tb851 2.802 . S
C915 O890 1.264 . S
C915 O893 1.256 . S
C915 C908 1.496 . S
H916 C899 0.929 . S
H917 C900 0.929 . S
H918 C901 0.929 . S
H919 C902 0.931 1_545 S
H920 C910 0.929 . S
H921 C911 0.929 . S
H922 C912 0.931 . S
H923 C913 0.929 . S
Tb924 N953 2.617 . S
Tb924 N959 2.572 . S
Tb924 O968 2.465 . S
Tb924 O969 2.387 . S
Tb924 O971 2.428 . S
Tb924 O972 2.308 . S
Tb924 O976 2.349 . S
Tb924 O979 2.393 . S
Tb924 C988 2.802 . S
C925 N926 1.379 . S
C925 C928 1.416 . S
C925 C932 1.424 . S
N926 C925 1.379 . S
N926 C929 1.334 . S
N926 Tb935 2.617 . S
C927 C929 1.390 . S
C927 C930 1.339 . S
C927 H947 0.930 . S
C928 C925 1.416 . S
C928 C930 1.416 . S
C928 C934 1.448 . S
C929 N926 1.334 . S
C929 C927 1.390 . S
C929 H940 0.930 . S
C930 C927 1.339 . S
C930 C928 1.416 . S
C930 H951 0.930 . S
C931 C932 1.413 . S
C931 C933 1.427 . S
C931 C937 1.416 . S
C932 C925 1.424 . S
C932 C931 1.413 . S
C932 N936 1.361 . S
C933 C931 1.427 . S
C933 C934 1.328 . S
C933 H948 0.929 1_455 S
C934 C928 1.448 . S
C934 C933 1.328 . S
C934 H949 0.930 . S
Tb935 N926 2.617 . S
Tb935 N936 2.572 . S
Tb935 O970 2.349 . S
Tb935 O973 2.393 . S
Tb935 O974 2.465 . S
Tb935 O975 2.387 . S
Tb935 O977 2.428 . S
Tb935 O978 2.308 . S
Tb935 C999 2.802 . S
N936 C932 1.361 . S
N936 Tb935 2.572 . S
N936 C938 1.340 . S
C937 C931 1.416 . S
C937 C939 1.332 . S
C937 H945 0.931 . S
C938 N936 1.340 . S
C938 C939 1.407 . S
C938 H944 0.930 . S
C939 C937 1.332 . S
C939 C938 1.407 . S
C939 H941 0.929 . S
H940 C929 0.930 . S
H941 C939 0.929 . S
H942 C957 0.930 . S
H943 C964 0.929 . S
H944 C938 0.930 . S
H945 C937 0.931 . S
H946 C960 0.930 . S
H947 C927 0.930 . S
H948 C933 0.929 1_655 S
H949 C934 0.930 . S
H950 C955 0.930 . S
H951 C930 0.930 . S
H952 C963 0.931 . S
N953 Tb924 2.617 . S
N953 C954 1.379 . S
N953 C957 1.334 . S
C954 N953 1.379 . S
C954 C956 1.416 . S
C954 C962 1.424 . S
C955 H950 0.930 . S
C955 C957 1.390 . S
C955 C958 1.339 . S
C956 C954 1.416 . S
C956 C958 1.416 . S
C956 C989 1.448 . S
C957 H942 0.930 . S
C957 N953 1.334 . S
C957 C955 1.390 . S
C958 C955 1.339 . S
C958 C956 1.416 . S
C958 H965 0.930 . S
N959 Tb924 2.572 . S
N959 C960 1.340 . S
N959 C962 1.361 . S
C960 H946 0.930 . S
C960 N959 1.340 . S
C960 C964 1.407 . S
C961 C962 1.413 . S
C961 C963 1.416 . S
C961 C990 1.427 . S
C962 C954 1.424 . S
C962 N959 1.361 . S
C962 C961 1.413 . S
C963 H952 0.931 . S
C963 C961 1.416 . S
C963 C964 1.332 . S
C964 H943 0.929 . S
C964 C960 1.407 . S
C964 C963 1.332 . S
H965 C958 0.930 . S
H966 C989 0.930 . S
H967 C990 0.929 . S
O968 Tb924 2.465 . S
O968 C988 1.264 . S
O969 Tb924 2.387 . S
O969 C980 1.264 . S
O970 Tb935 2.349 . S
O970 C980 1.243 . S
O971 Tb924 2.428 . S
O971 C988 1.256 . S
O972 Tb924 2.308 . S
O972 C987 1.266 . S
O973 Tb935 2.393 . S
O973 C987 1.248 . S
O974 Tb935 2.465 . S
O974 C999 1.264 . S
O975 Tb935 2.387 . S
O975 C991 1.264 . S
O976 Tb924 2.349 . S
O976 C991 1.243 . S
O977 Tb935 2.428 . S
O977 C999 1.256 . S
O978 Tb935 2.308 . S
O978 C998 1.266 . S
O979 Tb924 2.393 . S
O979 C998 1.248 . S
C980 O969 1.264 . S
C980 O970 1.243 . S
C981 C984 1.399 . S
C981 C986 1.383 1_565 S
C981 C988 1.496 . S
C982 C983 1.399 . S
C982 C986 1.389 . S
C983 C982 1.399 . S
C983 C985 1.380 . S
C983 H1000 0.929 . S
C984 C981 1.399 . S
C984 C985 1.392 1_565 S
C984 H1001 0.929 . S
C985 C983 1.380 . S
C985 C984 1.392 1_545 S
C985 H1002 0.929 . S
C986 C981 1.383 1_545 S
C986 C982 1.389 . S
C986 H1003 0.931 1_545 S
C987 O972 1.266 . S
C987 O973 1.248 . S
C988 Tb924 2.802 . S
C988 O968 1.264 . S
C988 O971 1.256 . S
C988 C981 1.496 . S
C989 C956 1.448 . S
C989 H966 0.930 . S
C989 C990 1.328 . S
C990 C961 1.427 . S
C990 H967 0.929 . S
C990 C989 1.328 . S
C991 O975 1.264 . S
C991 O976 1.243 . S
C992 C995 1.399 . S
C992 C996 1.383 . S
C992 C999 1.496 . S
C993 C994 1.399 . S
C993 C996 1.389 . S
C994 C993 1.399 . S
C994 C997 1.380 . S
C994 H1004 0.929 . S
C995 C992 1.399 . S
C995 C997 1.392 . S
C995 H1005 0.929 . S
C996 C992 1.383 . S
C996 C993 1.389 . S
C996 H1006 0.931 . S
C997 C994 1.380 . S
C997 C995 1.392 . S
C997 H1007 0.929 . S
C998 O978 1.266 . S
C998 O979 1.248 . S
C999 Tb935 2.802 . S
C999 O974 1.264 . S
C999 O977 1.256 . S
C999 C992 1.496 . S
H1000 C983 0.929 . S
H1001 C984 0.929 . S
H1002 C985 0.929 . S
H1003 C986 0.931 1_565 S
H1004 C994 0.929 . S
H1005 C995 0.929 . S
H1006 C996 0.931 . S
H1007 C997 0.929 . S
Tb1008 N1037 2.617 . S
Tb1008 N1043 2.572 . S
Tb1008 O1052 2.465 . S
Tb1008 O1053 2.387 . S
Tb1008 O1055 2.428 . S
Tb1008 O1056 2.308 . S
Tb1008 O1060 2.349 . S
Tb1008 O1063 2.393 . S
Tb1008 C1072 2.802 . S
C1009 N1010 1.379 . S
C1009 C1012 1.416 . S
C1009 C1016 1.424 . S
N1010 C1009 1.379 . S
N1010 C1013 1.334 . S
N1010 Tb1019 2.617 . S
C1011 C1013 1.390 . S
C1011 C1014 1.339 . S
C1011 H1031 0.930 . S
C1012 C1009 1.416 . S
C1012 C1014 1.416 . S
C1012 C1018 1.448 . S
C1013 N1010 1.334 . S
C1013 C1011 1.390 . S
C1013 H1024 0.930 . S
C1014 C1011 1.339 . S
C1014 C1012 1.416 . S
C1014 H1035 0.930 . S
C1015 C1016 1.413 . S
C1015 C1017 1.427 . S
C1015 C1021 1.416 . S
C1016 C1009 1.424 . S
C1016 C1015 1.413 . S
C1016 N1020 1.361 . S
C1017 C1015 1.427 . S
C1017 C1018 1.328 . S
C1017 H1032 0.929 . S
C1018 C1012 1.448 . S
C1018 C1017 1.328 . S
C1018 H1033 0.930 . S
Tb1019 N1010 2.617 . S
Tb1019 N1020 2.572 . S
Tb1019 O1054 2.349 . S
Tb1019 O1057 2.393 . S
Tb1019 O1058 2.465 . S
Tb1019 O1059 2.387 . S
Tb1019 O1061 2.428 . S
Tb1019 O1062 2.308 . S
Tb1019 C1083 2.802 . S
N1020 C1016 1.361 . S
N1020 Tb1019 2.572 . S
N1020 C1022 1.340 . S
C1021 C1015 1.416 . S
C1021 C1023 1.332 . S
C1021 H1029 0.931 . S
C1022 N1020 1.340 . S
C1022 C1023 1.407 . S
C1022 H1028 0.930 . S
C1023 C1021 1.332 . S
C1023 C1022 1.407 . S
C1023 H1025 0.929 . S
H1024 C1013 0.930 . S
H1025 C1023 0.929 . S
H1026 C1041 0.930 . S
H1027 C1048 0.929 . S
H1028 C1022 0.930 . S
H1029 C1021 0.931 . S
H1030 C1044 0.930 . S
H1031 C1011 0.930 . S
H1032 C1017 0.929 . S
H1033 C1018 0.930 . S
H1034 C1039 0.930 . S
H1035 C1014 0.930 . S
H1036 C1047 0.931 . S
N1037 Tb1008 2.617 . S
N1037 C1038 1.379 . S
N1037 C1041 1.334 1_556 S
C1038 N1037 1.379 . S
C1038 C1040 1.416 . S
C1038 C1046 1.424 . S
C1039 H1034 0.930 . S
C1039 C1041 1.390 . S
C1039 C1042 1.339 . S
C1040 C1038 1.416 . S
C1040 C1042 1.416 1_556 S
C1040 C1073 1.448 . S
C1041 H1026 0.930 . S
C1041 N1037 1.334 1_554 S
C1041 C1039 1.390 . S
C1042 C1039 1.339 . S
C1042 C1040 1.416 1_554 S
C1042 H1049 0.930 . S
N1043 Tb1008 2.572 . S
N1043 C1044 1.340 . S
N1043 C1046 1.361 . S
C1044 H1030 0.930 . S
C1044 N1043 1.340 . S
C1044 C1048 1.407 . S
C1045 C1046 1.413 . S
C1045 C1047 1.416 . S
C1045 C1074 1.427 . S
C1046 C1038 1.424 . S
C1046 N1043 1.361 . S
C1046 C1045 1.413 . S
C1047 H1036 0.931 . S
C1047 C1045 1.416 . S
C1047 C1048 1.332 . S
C1048 H1027 0.929 . S
C1048 C1044 1.407 . S
C1048 C1047 1.332 . S
H1049 C1042 0.930 . S
H1050 C1073 0.930 . S
H1051 C1074 0.929 1_655 S
O1052 Tb1008 2.465 . S
O1052 C1072 1.264 . S
O1053 Tb1008 2.387 . S
O1053 C1064 1.264 . S
O1054 Tb1019 2.349 . S
O1054 C1064 1.243 . S
O1055 Tb1008 2.428 . S
O1055 C1072 1.256 . S
O1056 Tb1008 2.308 . S
O1056 C1071 1.266 . S
O1057 Tb1019 2.393 . S
O1057 C1071 1.248 . S
O1058 Tb1019 2.465 . S
O1058 C1083 1.264 . S
O1059 Tb1019 2.387 . S
O1059 C1075 1.264 . S
O1060 Tb1008 2.349 . S
O1060 C1075 1.243 . S
O1061 Tb1019 2.428 . S
O1061 C1083 1.256 . S
O1062 Tb1019 2.308 . S
O1062 C1082 1.266 . S
O1063 Tb1008 2.393 . S
O1063 C1082 1.248 . S
C1064 O1053 1.264 . S
C1064 O1054 1.243 . S
C1065 C1068 1.399 . S
C1065 C1070 1.383 . S
C1065 C1072 1.496 . S
C1066 C1067 1.399 . S
C1066 C1070 1.389 . S
C1067 C1066 1.399 . S
C1067 C1069 1.380 . S
C1067 H1084 0.929 . S
C1068 C1065 1.399 . S
C1068 C1069 1.392 . S
C1068 H1085 0.929 . S
C1069 C1067 1.380 . S
C1069 C1068 1.392 . S
C1069 H1086 0.929 . S
C1070 C1065 1.383 . S
C1070 C1066 1.389 . S
C1070 H1087 0.931 . S
C1071 O1056 1.266 . S
C1071 O1057 1.248 . S
C1072 Tb1008 2.802 . S
C1072 O1052 1.264 . S
C1072 O1055 1.256 . S
C1072 C1065 1.496 . S
C1073 C1040 1.448 . S
C1073 H1050 0.930 . S
C1073 C1074 1.328 . S
C1074 C1045 1.427 . S
C1074 H1051 0.929 1_455 S
C1074 C1073 1.328 . S
C1075 O1059 1.264 . S
C1075 O1060 1.243 . S
C1076 C1079 1.399 . S
C1076 C1080 1.383 1_545 S
C1076 C1083 1.496 . S
C1077 C1078 1.399 . S
C1077 C1080 1.389 . S
C1078 C1077 1.399 . S
C1078 C1081 1.380 . S
C1078 H1088 0.929 . S
C1079 C1076 1.399 . S
C1079 C1081 1.392 1_545 S
C1079 H1089 0.929 . S
C1080 C1076 1.383 1_565 S
C1080 C1077 1.389 . S
C1080 H1090 0.931 1_565 S
C1081 C1078 1.380 . S
C1081 C1079 1.392 1_565 S
C1081 H1091 0.929 . S
C1082 O1062 1.266 . S
C1082 O1063 1.248 . S
C1083 Tb1019 2.802 . S
C1083 O1058 1.264 . S
C1083 O1061 1.256 . S
C1083 C1076 1.496 . S
H1084 C1067 0.929 . S
H1085 C1068 0.929 . S
H1086 C1069 0.929 . S
H1087 C1070 0.931 . S
H1088 C1078 0.929 . S
H1089 C1079 0.929 . S
H1090 C1080 0.931 1_545 S
H1091 C1081 0.929 . S
Tb1092 N1121 2.617 . S
Tb1092 N1127 2.572 . S
Tb1092 O1136 2.465 . S
Tb1092 O1137 2.387 . S
Tb1092 O1139 2.428 . S
Tb1092 O1140 2.308 . S
Tb1092 O1144 2.349 . S
Tb1092 O1147 2.393 . S
Tb1092 C1156 2.802 . S
C1093 N1094 1.379 . S
C1093 C1096 1.416 . S
C1093 C1100 1.424 . S
N1094 C1093 1.379 . S
N1094 C1097 1.334 . S
N1094 Tb1103 2.617 . S
C1095 C1097 1.390 . S
C1095 C1098 1.339 . S
C1095 H1115 0.930 . S
C1096 C1093 1.416 . S
C1096 C1098 1.416 . S
C1096 C1102 1.448 . S
C1097 N1094 1.334 . S
C1097 C1095 1.390 . S
C1097 H1108 0.930 . S
C1098 C1095 1.339 . S
C1098 C1096 1.416 . S
C1098 H1119 0.930 . S
C1099 C1100 1.413 . S
C1099 C1101 1.427 . S
C1099 C1105 1.416 . S
C1100 C1093 1.424 . S
C1100 C1099 1.413 . S
C1100 N1104 1.361 . S
C1101 C1099 1.427 . S
C1101 C1102 1.328 . S
C1101 H1116 0.929 . S
C1102 C1096 1.448 . S
C1102 C1101 1.328 . S
C1102 H1117 0.930 . S
Tb1103 N1094 2.617 . S
Tb1103 N1104 2.572 . S
Tb1103 O1138 2.349 . S
Tb1103 O1141 2.393 . S
Tb1103 O1142 2.465 . S
Tb1103 O1143 2.387 . S
Tb1103 O1145 2.428 . S
Tb1103 O1146 2.308 . S
Tb1103 C1167 2.802 . S
N1104 C1100 1.361 . S
N1104 Tb1103 2.572 . S
N1104 C1106 1.340 . S
C1105 C1099 1.416 . S
C1105 C1107 1.332 . S
C1105 H1113 0.931 . S
C1106 N1104 1.340 . S
C1106 C1107 1.407 . S
C1106 H1112 0.930 . S
C1107 C1105 1.332 . S
C1107 C1106 1.407 . S
C1107 H1109 0.929 . S
H1108 C1097 0.930 . S
H1109 C1107 0.929 . S
H1110 C1125 0.930 . S
H1111 C1132 0.929 . S
H1112 C1106 0.930 . S
H1113 C1105 0.931 . S
H1114 C1128 0.930 . S
H1115 C1095 0.930 . S
H1116 C1101 0.929 . S
H1117 C1102 0.930 . S
H1118 C1123 0.930 . S
H1119 C1098 0.930 . S
H1120 C1131 0.931 . S
N1121 Tb1092 2.617 . S
N1121 C1122 1.379 . S
N1121 C1125 1.334 1_556 S
C1122 N1121 1.379 . S
C1122 C1124 1.416 . S
C1122 C1130 1.424 . S
C1123 H1118 0.930 . S
C1123 C1125 1.390 . S
C1123 C1126 1.339 . S
C1124 C1122 1.416 . S
C1124 C1126 1.416 1_556 S
C1124 C1157 1.448 . S
C1125 H1110 0.930 . S
C1125 N1121 1.334 1_554 S
C1125 C1123 1.390 . S
C1126 C1123 1.339 . S
C1126 C1124 1.416 1_554 S
C1126 H1133 0.930 . S
N1127 Tb1092 2.572 . S
N1127 C1128 1.340 . S
N1127 C1130 1.361 . S
C1128 H1114 0.930 . S
C1128 N1127 1.340 . S
C1128 C1132 1.407 . S
C1129 C1130 1.413 . S
C1129 C1131 1.416 . S
C1129 C1158 1.427 . S
C1130 C1122 1.424 . S
C1130 N1127 1.361 . S
C1130 C1129 1.413 . S
C1131 H1120 0.931 . S
C1131 C1129 1.416 . S
C1131 C1132 1.332 . S
C1132 H1111 0.929 . S
C1132 C1128 1.407 . S
C1132 C1131 1.332 . S
H1133 C1126 0.930 . S
H1134 C1157 0.930 . S
H1135 C1158 0.929 1_455 S
O1136 Tb1092 2.465 . S
O1136 C1156 1.264 . S
O1137 Tb1092 2.387 . S
O1137 C1148 1.264 . S
O1138 Tb1103 2.349 . S
O1138 C1148 1.243 . S
O1139 Tb1092 2.428 . S
O1139 C1156 1.256 . S
O1140 Tb1092 2.308 . S
O1140 C1155 1.266 . S
O1141 Tb1103 2.393 . S
O1141 C1155 1.248 . S
O1142 Tb1103 2.465 . S
O1142 C1167 1.264 . S
O1143 Tb1103 2.387 . S
O1143 C1159 1.264 . S
O1144 Tb1092 2.349 . S
O1144 C1159 1.243 . S
O1145 Tb1103 2.428 . S
O1145 C1167 1.256 . S
O1146 Tb1103 2.308 . S
O1146 C1166 1.266 . S
O1147 Tb1092 2.393 . S
O1147 C1166 1.248 . S
C1148 O1137 1.264 . S
C1148 O1138 1.243 . S
C1149 C1152 1.399 . S
C1149 C1154 1.383 . S
C1149 C1156 1.496 . S
C1150 C1151 1.399 . S
C1150 C1154 1.389 . S
C1151 C1150 1.399 . S
C1151 C1153 1.380 . S
C1151 H1168 0.929 . S
C1152 C1149 1.399 . S
C1152 C1153 1.392 . S
C1152 H1169 0.929 . S
C1153 C1151 1.380 . S
C1153 C1152 1.392 . S
C1153 H1170 0.929 . S
C1154 C1149 1.383 . S
C1154 C1150 1.389 . S
C1154 H1171 0.931 . S
C1155 O1140 1.266 . S
C1155 O1141 1.248 . S
C1156 Tb1092 2.802 . S
C1156 O1136 1.264 . S
C1156 O1139 1.256 . S
C1156 C1149 1.496 . S
C1157 C1124 1.448 . S
C1157 H1134 0.930 . S
C1157 C1158 1.328 . S
C1158 C1129 1.427 . S
C1158 H1135 0.929 1_655 S
C1158 C1157 1.328 . S
C1159 O1143 1.264 . S
C1159 O1144 1.243 . S
C1160 C1163 1.399 . S
C1160 C1164 1.383 1_565 S
C1160 C1167 1.496 . S
C1161 C1162 1.399 . S
C1161 C1164 1.389 . S
C1162 C1161 1.399 . S
C1162 C1165 1.380 . S
C1162 H1172 0.929 . S
C1163 C1160 1.399 . S
C1163 C1165 1.392 1_565 S
C1163 H1173 0.929 . S
C1164 C1160 1.383 1_545 S
C1164 C1161 1.389 . S
C1164 H1174 0.931 1_545 S
C1165 C1162 1.380 . S
C1165 C1163 1.392 1_545 S
C1165 H1175 0.929 . S
C1166 O1146 1.266 . S
C1166 O1147 1.248 . S
C1167 Tb1103 2.802 . S
C1167 O1142 1.264 . S
C1167 O1145 1.256 . S
C1167 C1160 1.496 . S
H1168 C1151 0.929 . S
H1169 C1152 0.929 . S
H1170 C1153 0.929 . S
H1171 C1154 0.931 . S
H1172 C1162 0.929 . S
H1173 C1163 0.929 . S
H1174 C1164 0.931 1_565 S
H1175 C1165 0.929 . S
Tb1176 N1205 2.617 . S
Tb1176 N1211 2.572 . S
Tb1176 O1220 2.465 . S
Tb1176 O1221 2.387 . S
Tb1176 O1223 2.428 . S
Tb1176 O1224 2.308 . S
Tb1176 O1228 2.349 . S
Tb1176 O1231 2.393 . S
Tb1176 C1240 2.802 . S
C1177 N1178 1.379 . S
C1177 C1180 1.416 . S
C1177 C1184 1.424 . S
N1178 C1177 1.379 . S
N1178 C1181 1.334 . S
N1178 Tb1187 2.617 . S
C1179 C1181 1.390 . S
C1179 C1182 1.339 . S
C1179 H1199 0.930 . S
C1180 C1177 1.416 . S
C1180 C1182 1.416 . S
C1180 C1186 1.448 . S
C1181 N1178 1.334 . S
C1181 C1179 1.390 . S
C1181 H1192 0.930 . S
C1182 C1179 1.339 . S
C1182 C1180 1.416 . S
C1182 H1203 0.930 . S
C1183 C1184 1.413 . S
C1183 C1185 1.427 . S
C1183 C1189 1.416 . S
C1184 C1177 1.424 . S
C1184 C1183 1.413 . S
C1184 N1188 1.361 . S
C1185 C1183 1.427 . S
C1185 C1186 1.328 . S
C1185 H1200 0.929 . S
C1186 C1180 1.448 . S
C1186 C1185 1.328 . S
C1186 H1201 0.930 . S
Tb1187 N1178 2.617 . S
Tb1187 N1188 2.572 . S
Tb1187 O1222 2.349 . S
Tb1187 O1225 2.393 . S
Tb1187 O1226 2.465 . S
Tb1187 O1227 2.387 . S
Tb1187 O1229 2.428 . S
Tb1187 O1230 2.308 . S
Tb1187 C1251 2.802 . S
N1188 C1184 1.361 . S
N1188 Tb1187 2.572 . S
N1188 C1190 1.340 . S
C1189 C1183 1.416 . S
C1189 C1191 1.332 . S
C1189 H1197 0.931 . S
C1190 N1188 1.340 . S
C1190 C1191 1.407 . S
C1190 H1196 0.930 . S
C1191 C1189 1.332 . S
C1191 C1190 1.407 . S
C1191 H1193 0.929 . S
H1192 C1181 0.930 . S
H1193 C1191 0.929 . S
H1194 C1209 0.930 . S
H1195 C1216 0.929 . S
H1196 C1190 0.930 . S
H1197 C1189 0.931 . S
H1198 C1212 0.930 . S
H1199 C1179 0.930 . S
H1200 C1185 0.929 . S
H1201 C1186 0.930 . S
H1202 C1207 0.930 . S
H1203 C1182 0.930 . S
H1204 C1215 0.931 . S
N1205 Tb1176 2.617 . S
N1205 C1206 1.379 . S
N1205 C1209 1.334 . S
C1206 N1205 1.379 . S
C1206 C1208 1.416 . S
C1206 C1214 1.424 . S
C1207 H1202 0.930 . S
C1207 C1209 1.390 . S
C1207 C1210 1.339 . S
C1208 C1206 1.416 . S
C1208 C1210 1.416 . S
C1208 C1241 1.448 . S
C1209 H1194 0.930 . S
C1209 N1205 1.334 . S
C1209 C1207 1.390 . S
C1210 C1207 1.339 . S
C1210 C1208 1.416 . S
C1210 H1217 0.930 . S
N1211 Tb1176 2.572 . S
N1211 C1212 1.340 . S
N1211 C1214 1.361 . S
C1212 H1198 0.930 . S
C1212 N1211 1.340 . S
C1212 C1216 1.407 . S
C1213 C1214 1.413 . S
C1213 C1215 1.416 . S
C1213 C1242 1.427 . S
C1214 C1206 1.424 . S
C1214 N1211 1.361 . S
C1214 C1213 1.413 . S
C1215 H1204 0.931 . S
C1215 C1213 1.416 . S
C1215 C1216 1.332 . S
C1216 H1195 0.929 . S
C1216 C1212 1.407 . S
C1216 C1215 1.332 . S
H1217 C1210 0.930 . S
H1218 C1241 0.930 . S
H1219 C1242 0.929 1_655 S
O1220 Tb1176 2.465 . S
O1220 C1240 1.264 . S
O1221 Tb1176 2.387 . S
O1221 C1232 1.264 . S
O1222 Tb1187 2.349 . S
O1222 C1232 1.243 . S
O1223 Tb1176 2.428 . S
O1223 C1240 1.256 . S
O1224 Tb1176 2.308 . S
O1224 C1239 1.266 . S
O1225 Tb1187 2.393 . S
O1225 C1239 1.248 . S
O1226 Tb1187 2.465 . S
O1226 C1251 1.264 . S
O1227 Tb1187 2.387 . S
O1227 C1243 1.264 . S
O1228 Tb1176 2.349 . S
O1228 C1243 1.243 . S
O1229 Tb1187 2.428 . S
O1229 C1251 1.256 . S
O1230 Tb1187 2.308 . S
O1230 C1250 1.266 . S
O1231 Tb1176 2.393 . S
O1231 C1250 1.248 . S
C1232 O1221 1.264 . S
C1232 O1222 1.243 . S
C1233 C1236 1.399 . S
C1233 C1238 1.383 . S
C1233 C1240 1.496 . S
C1234 C1235 1.399 . S
C1234 C1238 1.389 . S
C1235 C1234 1.399 . S
C1235 C1237 1.380 . S
C1235 H1252 0.929 . S
C1236 C1233 1.399 . S
C1236 C1237 1.392 . S
C1236 H1253 0.929 . S
C1237 C1235 1.380 . S
C1237 C1236 1.392 . S
C1237 H1254 0.929 . S
C1238 C1233 1.383 . S
C1238 C1234 1.389 . S
C1238 H1255 0.931 . S
C1239 O1224 1.266 . S
C1239 O1225 1.248 . S
C1240 Tb1176 2.802 . S
C1240 O1220 1.264 . S
C1240 O1223 1.256 . S
C1240 C1233 1.496 . S
C1241 C1208 1.448 . S
C1241 H1218 0.930 . S
C1241 C1242 1.328 . S
C1242 C1213 1.427 . S
C1242 H1219 0.929 1_455 S
C1242 C1241 1.328 . S
C1243 O1227 1.264 . S
C1243 O1228 1.243 . S
C1244 C1247 1.399 . S
C1244 C1248 1.383 1_565 S
C1244 C1251 1.496 . S
C1245 C1246 1.399 . S
C1245 C1248 1.389 . S
C1246 C1245 1.399 . S
C1246 C1249 1.380 . S
C1246 H1256 0.929 . S
C1247 C1244 1.399 . S
C1247 C1249 1.392 1_565 S
C1247 H1257 0.929 . S
C1248 C1244 1.383 1_545 S
C1248 C1245 1.389 . S
C1248 H1258 0.931 1_545 S
C1249 C1246 1.380 . S
C1249 C1247 1.392 1_545 S
C1249 H1259 0.929 . S
C1250 O1230 1.266 . S
C1250 O1231 1.248 . S
C1251 Tb1187 2.802 . S
C1251 O1226 1.264 . S
C1251 O1229 1.256 . S
C1251 C1244 1.496 . S
H1252 C1235 0.929 . S
H1253 C1236 0.929 . S
H1254 C1237 0.929 . S
H1255 C1238 0.931 . S
H1256 C1246 0.929 . S
H1257 C1247 0.929 . S
H1258 C1248 0.931 1_565 S
H1259 C1249 0.929 . S
Tb1260 N1289 2.617 . S
Tb1260 N1295 2.572 . S
Tb1260 O1304 2.465 . S
Tb1260 O1305 2.387 . S
Tb1260 O1307 2.428 . S
Tb1260 O1308 2.308 . S
Tb1260 O1312 2.349 . S
Tb1260 O1315 2.393 . S
Tb1260 C1324 2.802 . S
C1261 N1262 1.379 . S
C1261 C1264 1.416 . S
C1261 C1268 1.424 . S
N1262 C1261 1.379 . S
N1262 C1265 1.334 . S
N1262 Tb1271 2.617 . S
C1263 C1265 1.390 . S
C1263 C1266 1.339 . S
C1263 H1283 0.930 . S
C1264 C1261 1.416 . S
C1264 C1266 1.416 . S
C1264 C1270 1.448 . S
C1265 N1262 1.334 . S
C1265 C1263 1.390 . S
C1265 H1276 0.930 . S
C1266 C1263 1.339 . S
C1266 C1264 1.416 . S
C1266 H1287 0.930 . S
C1267 C1268 1.413 . S
C1267 C1269 1.427 . S
C1267 C1273 1.416 . S
C1268 C1261 1.424 . S
C1268 C1267 1.413 . S
C1268 N1272 1.361 . S
C1269 C1267 1.427 . S
C1269 C1270 1.328 . S
C1269 H1284 0.929 . S
C1270 C1264 1.448 . S
C1270 C1269 1.328 . S
C1270 H1285 0.930 . S
Tb1271 N1262 2.617 . S
Tb1271 N1272 2.572 . S
Tb1271 O1306 2.349 . S
Tb1271 O1309 2.393 . S
Tb1271 O1310 2.465 . S
Tb1271 O1311 2.387 . S
Tb1271 O1313 2.428 . S
Tb1271 O1314 2.308 . S
Tb1271 C1335 2.802 . S
N1272 C1268 1.361 . S
N1272 Tb1271 2.572 . S
N1272 C1274 1.340 . S
C1273 C1267 1.416 . S
C1273 C1275 1.332 . S
C1273 H1281 0.931 . S
C1274 N1272 1.340 . S
C1274 C1275 1.407 . S
C1274 H1280 0.930 . S
C1275 C1273 1.332 . S
C1275 C1274 1.407 . S
C1275 H1277 0.929 . S
H1276 C1265 0.930 . S
H1277 C1275 0.929 . S
H1278 C1293 0.930 . S
H1279 C1300 0.929 . S
H1280 C1274 0.930 . S
H1281 C1273 0.931 . S
H1282 C1296 0.930 . S
H1283 C1263 0.930 . S
H1284 C1269 0.929 . S
H1285 C1270 0.930 . S
H1286 C1291 0.930 . S
H1287 C1266 0.930 . S
H1288 C1299 0.931 . S
N1289 Tb1260 2.617 . S
N1289 C1290 1.379 . S
N1289 C1293 1.334 . S
C1290 N1289 1.379 . S
C1290 C1292 1.416 . S
C1290 C1298 1.424 . S
C1291 H1286 0.930 . S
C1291 C1293 1.390 . S
C1291 C1294 1.339 . S
C1292 C1290 1.416 . S
C1292 C1294 1.416 . S
C1292 C1325 1.448 . S
C1293 H1278 0.930 . S
C1293 N1289 1.334 . S
C1293 C1291 1.390 . S
C1294 C1291 1.339 . S
C1294 C1292 1.416 . S
C1294 H1301 0.930 . S
N1295 Tb1260 2.572 . S
N1295 C1296 1.340 . S
N1295 C1298 1.361 . S
C1296 H1282 0.930 . S
C1296 N1295 1.340 . S
C1296 C1300 1.407 . S
C1297 C1298 1.413 . S
C1297 C1299 1.416 . S
C1297 C1326 1.427 . S
C1298 C1290 1.424 . S
C1298 N1295 1.361 . S
C1298 C1297 1.413 . S
C1299 H1288 0.931 . S
C1299 C1297 1.416 . S
C1299 C1300 1.332 . S
C1300 H1279 0.929 . S
C1300 C1296 1.407 . S
C1300 C1299 1.332 . S
H1301 C1294 0.930 . S
H1302 C1325 0.930 . S
H1303 C1326 0.929 1_455 S
O1304 Tb1260 2.465 . S
O1304 C1324 1.264 . S
O1305 Tb1260 2.387 . S
O1305 C1316 1.264 . S
O1306 Tb1271 2.349 . S
O1306 C1316 1.243 . S
O1307 Tb1260 2.428 . S
O1307 C1324 1.256 . S
O1308 Tb1260 2.308 . S
O1308 C1323 1.266 . S
O1309 Tb1271 2.393 . S
O1309 C1323 1.248 . S
O1310 Tb1271 2.465 . S
O1310 C1335 1.264 . S
O1311 Tb1271 2.387 . S
O1311 C1327 1.264 . S
O1312 Tb1260 2.349 . S
O1312 C1327 1.243 . S
O1313 Tb1271 2.428 . S
O1313 C1335 1.256 . S
O1314 Tb1271 2.308 . S
O1314 C1334 1.266 . S
O1315 Tb1260 2.393 . S
O1315 C1334 1.248 . S
C1316 O1305 1.264 . S
C1316 O1306 1.243 . S
C1317 C1320 1.399 . S
C1317 C1322 1.383 . S
C1317 C1324 1.496 . S
C1318 C1319 1.399 . S
C1318 C1322 1.389 . S
C1319 C1318 1.399 . S
C1319 C1321 1.380 . S
C1319 H1336 0.929 . S
C1320 C1317 1.399 . S
C1320 C1321 1.392 . S
C1320 H1337 0.929 . S
C1321 C1319 1.380 . S
C1321 C1320 1.392 . S
C1321 H1338 0.929 . S
C1322 C1317 1.383 . S
C1322 C1318 1.389 . S
C1322 H1339 0.931 . S
C1323 O1308 1.266 . S
C1323 O1309 1.248 . S
C1324 Tb1260 2.802 . S
C1324 O1304 1.264 . S
C1324 O1307 1.256 . S
C1324 C1317 1.496 . S
C1325 C1292 1.448 . S
C1325 H1302 0.930 . S
C1325 C1326 1.328 . S
C1326 C1297 1.427 . S
C1326 H1303 0.929 1_655 S
C1326 C1325 1.328 . S
C1327 O1311 1.264 . S
C1327 O1312 1.243 . S
C1328 C1331 1.399 . S
C1328 C1332 1.383 1_545 S
C1328 C1335 1.496 . S
C1329 C1330 1.399 . S
C1329 C1332 1.389 . S
C1330 C1329 1.399 . S
C1330 C1333 1.380 . S
C1330 H1340 0.929 . S
C1331 C1328 1.399 . S
C1331 C1333 1.392 1_545 S
C1331 H1341 0.929 . S
C1332 C1328 1.383 1_565 S
C1332 C1329 1.389 . S
C1332 H1342 0.931 1_565 S
C1333 C1330 1.380 . S
C1333 C1331 1.392 1_565 S
C1333 H1343 0.929 . S
C1334 O1314 1.266 . S
C1334 O1315 1.248 . S
C1335 Tb1271 2.802 . S
C1335 O1310 1.264 . S
C1335 O1313 1.256 . S
C1335 C1328 1.496 . S
H1336 C1319 0.929 . S
H1337 C1320 0.929 . S
H1338 C1321 0.929 . S
H1339 C1322 0.931 . S
H1340 C1330 0.929 . S
H1341 C1331 0.929 . S
H1342 C1332 0.931 1_545 S
H1343 C1333 0.929 . S
C67 C823 1.916 . S
C151 C739 1.916 . S
C991 C235 1.916 . S
C319 C907 1.916 . S
C1148 C392 1.916 . S
C1064 C476 1.916 . S
C1316 C560 1.916 . S
C644 C1232 1.916 . S
C242 C74 2.555 1_565 S
C326 C158 2.555 1_545 S
C567 C399 2.555 1_545 S
C483 C651 2.555 1_545 S
C914 C746 2.555 . S
C998 C830 2.555 . S
C1071 C1239 2.555 . S
C1155 C1323 2.555 . S
C494 C63 1.722 1_556 S
C410 C147 1.722 1_556 S
C231 C662 1.722 . S
C578 C315 1.722 . S
C735 C1166 1.722 1_554 S
C1082 C819 1.722 1_556 S
C903 C1334 1.722 . S
C1250 C987 1.722 . S
C140 C56 1.503 1_665 S
C308 C224 1.503 1_645 S
C487 C403 1.503 1_445 S
C571 C655 1.503 1_645 S
C812 C728 1.503 . S
C980 C896 1.503 . S
C1075 C1159 1.503 . S
C1243 C1327 1.503 . S
C69 C58 1.683 . S
C153 C142 1.683 . S
C237 C226 1.683 . S
C310 C321 1.683 . S
C394 C405 1.683 . S
C489 C478 1.683 . S
C562 C573 1.683 . S
C646 C657 1.683 . S
C730 C741 1.683 . S
C825 C814 1.683 . S
C898 C909 1.683 . S
C982 C993 1.683 . S
C1066 C1077 1.683 . S
C1150 C1161 1.683 . S
C1245 C1234 1.683 . S
C1318 C1329 1.683 . S
