# Generated by pormake.
# Topology qtz-e, (6)-cn, num edge types: 1
# Building blocks:
#     Node 0, Type 0, BuildingBlock: BETDEL_clean_sbu_0, # of connection points: 6
#     Node 1, Type 0, BuildingBlock: BETDEL_clean_sbu_0, # of connection points: 6
#     Node 2, Type 0, BuildingBlock: BETDEL_clean_sbu_0, # of connection points: 6
#     Node 3, Type 0, BuildingBlock: BETDEL_clean_sbu_0, # of connection points: 6
#     Node 4, Type 0, BuildingBlock: BETDEL_clean_sbu_0, # of connection points: 6
#     Node 5, Type 0, BuildingBlock: BETDEL_clean_sbu_0, # of connection points: 6
#     Edge 6, Type (0, 0), BuildingBlock: MIFKUJ_clean_linker_0, # of connection points: 2
#     Edge 7, Type (0, 0), BuildingBlock: MIFKUJ_clean_linker_0, # of connection points: 2
#     Edge 8, Type (0, 0), BuildingBlock: MIFKUJ_clean_linker_0, # of connection points: 2
#     Edge 9, Type (0, 0), BuildingBlock: MIFKUJ_clean_linker_0, # of connection points: 2
#     Edge 10, Type (0, 0), BuildingBlock: MIFKUJ_clean_linker_0, # of connection points: 2
#     Edge 11, Type (0, 0), BuildingBlock: MIFKUJ_clean_linker_0, # of connection points: 2
#     Edge 12, Type (0, 0), BuildingBlock: MIFKUJ_clean_linker_0, # of connection points: 2
#     Edge 13, Type (0, 0), BuildingBlock: MIFKUJ_clean_linker_0, # of connection points: 2
#     Edge 14, Type (0, 0), BuildingBlock: MIFKUJ_clean_linker_0, # of connection points: 2
#     Edge 15, Type (0, 0), BuildingBlock: MIFKUJ_clean_linker_0, # of connection points: 2
#     Edge 16, Type (0, 0), BuildingBlock: MIFKUJ_clean_linker_0, # of connection points: 2
#     Edge 17, Type (0, 0), BuildingBlock: MIFKUJ_clean_linker_0, # of connection points: 2
#     Edge 18, Type (0, 0), BuildingBlock: MIFKUJ_clean_linker_0, # of connection points: 2
#     Edge 19, Type (0, 0), BuildingBlock: MIFKUJ_clean_linker_0, # of connection points: 2
#     Edge 20, Type (0, 0), BuildingBlock: MIFKUJ_clean_linker_0, # of connection points: 2
#     Edge 21, Type (0, 0), BuildingBlock: MIFKUJ_clean_linker_0, # of connection points: 2
#     Edge 22, Type (0, 0), BuildingBlock: MIFKUJ_clean_linker_0, # of connection points: 2
#     Edge 23, Type (0, 0), BuildingBlock: MIFKUJ_clean_linker_0, # of connection points: 2
# Relax obj value: 0.222
# Max RMSD: 0.208
# Mean RMSD: 0.208
data_MOF--net-qtz-e--node1-BETDEL_clean_sbu_0--edge1-MIFKUJ_clean_linker_0
_symmetry_space_group_name_H-M    P1
_symmetry_Int_Tables_number       1
_symmetry_cell_setting            triclinic
loop_
_symmetry_equiv_pos_as_xyz
'x, y, z'
_cell_length_a     31.511416
_cell_length_b     31.461198
_cell_length_c     50.340384
_cell_angle_alpha  89.684362
_cell_angle_beta   90.392568
_cell_angle_gamma 120.00443
loop_
_atom_site_label
_atom_site_type_symbol
_atom_site_fract_x
_atom_site_fract_y
_atom_site_fract_z
_atom_type_partial_charge
Dy0 Dy 0.19672 0.42042 0.04551 0.0
C1 C 0.19932 0.27559 0.977 0.0
C2 C 0.18861 0.48922 0.07449 0.0
Dy3 Dy 0.19225 0.33842 0.01111 0.0
O4 O 0.22959 0.49222 0.06727 0.0
O5 O 0.15184 0.44975 0.06451 0.0
O6 O 0.23723 0.40344 0.07624 0.0
O7 O 0.24866 0.39554 0.03647 0.0
C8 C 0.26113 0.3917 0.05985 0.0
C9 C 0.11424 0.3507 1.00953 0.0
O10 O 0.17026 0.30098 0.05023 0.0
O11 O 0.13979 0.35022 0.06458 0.0
O12 O 0.17033 0.29337 0.97419 0.0
O13 O 0.22556 0.29263 0.9985 0.0
O14 O 0.10989 0.30753 1.00948 0.0
O15 O 0.1582 0.38343 1.00996 0.0
O16 O 0.23514 0.46462 1.00884 0.0
O17 O 0.24257 0.40376 0.98653 0.0
C18 C 0.14343 0.31013 0.0667 0.0
C19 C 0.25171 0.44962 0.9887 0.0
Dy20 Dy 0.7707 0.22172 0.37188 0.0
C21 C 0.89552 0.1961 0.2975 0.0
C22 C 0.70562 0.23152 0.40293 0.0
Dy23 Dy 0.83222 0.19799 0.33326 0.0
O24 O 0.75031 0.2662 0.39812 0.0
O25 O 0.69579 0.19235 0.38951 0.0
O26 O 0.82598 0.23713 0.40404 0.0
O27 O 0.84922 0.25115 0.36486 0.0
C28 C 0.86261 0.24951 0.38829 0.0
C29 C 0.73516 0.14537 0.32717 0.0
O30 O 0.82606 0.15186 0.36875 0.0
O31 O 0.75374 0.14591 0.38354 0.0
O32 O 0.85247 0.18972 0.2921 0.0
O33 O 0.90455 0.20347 0.32284 0.0
O34 O 0.76329 0.1268 0.32331 0.0
O35 O 0.76015 0.1898 0.33293 0.0
O36 O 0.78058 0.2744 0.33866 0.0
O37 O 0.84045 0.26736 0.31528 0.0
C38 C 0.78672 0.13152 0.3841 0.0
C39 C 0.81281 0.28775 0.31894 0.0
Dy40 Dy 0.52931 0.7682 0.70707 0.0
C41 C 0.68225 0.88109 0.63179 0.0
C42 C 0.46544 0.70664 0.74487 0.0
Dy43 Dy 0.61739 0.82079 0.6694 0.0
O44 O 0.46791 0.74694 0.73643 0.0
O45 O 0.49642 0.69905 0.7318 0.0
O46 O 0.52894 0.83823 0.71175 0.0
O47 O 0.59574 0.84069 0.70634 0.0
C48 C 0.57576 0.86646 0.70846 0.0
C49 C 0.57075 0.72298 0.66904 0.0
O50 O 0.65943 0.82453 0.70613 0.0
O51 O 0.59082 0.76595 0.72882 0.0
O52 O 0.66925 0.83534 0.63556 0.0
O53 O 0.66111 0.89447 0.6493 0.0
O54 O 0.61752 0.74958 0.66476 0.0
O55 O 0.5518 0.74952 0.6709 0.0
O56 O 0.48851 0.76171 0.66938 0.0
O57 O 0.55599 0.82533 0.64842 0.0
C58 C 0.63906 0.79421 0.72654 0.0
C59 C 0.508 0.79458 0.64997 0.0
Dy60 Dy 0.78742 0.56536 0.03275 0.0
C61 C 0.81858 0.73111 0.96885 0.0
C62 C 0.78303 0.49994 0.07046 0.0
Dy63 Dy 0.82206 0.66365 1.00153 0.0
O64 O 0.74886 0.51056 0.06559 0.0
O65 O 0.81848 0.52295 0.05358 0.0
O66 O 0.71039 0.54765 0.02571 0.0
O67 O 0.76608 0.62121 0.03053 0.0
C68 C 0.72166 0.59345 0.02491 0.0
C69 C 0.88876 0.63755 1.00922 0.0
O70 O 0.83795 0.69469 0.04257 0.0
O71 O 0.83421 0.6253 0.06163 0.0
O72 O 0.8575 0.72785 0.97345 0.0
O73 O 0.78208 0.69837 0.98268 0.0
O74 O 0.90088 0.6833 1.00588 0.0
O75 O 0.84405 0.60925 1.00456 0.0
O76 O 0.76987 0.5325 0.99201 0.0
O77 O 0.78143 0.60396 0.97086 0.0
C78 C 0.84573 0.67201 0.06271 0.0
C79 C 0.76676 0.55617 0.97074 0.0
Dy80 Dy 0.1971 0.76764 0.37013 0.0
C81 C 0.05399 0.79829 0.31386 0.0
C82 C 0.26854 0.77181 0.40281 0.0
Dy83 Dy 0.12483 0.79497 0.3439 0.0
O84 O 0.23089 0.73175 0.39427 0.0
O85 O 0.26882 0.80948 0.39195 0.0
O86 O 0.14324 0.68893 0.36853 0.0
O87 O 0.11786 0.73964 0.37248 0.0
C88 C 0.10572 0.69544 0.36818 0.0
C89 C 0.2198 0.86368 0.34419 0.0
O90 O 0.11481 0.81055 0.38613 0.0
O91 O 0.1858 0.81239 0.40079 0.0
O92 O 0.09692 0.8354 0.3191 0.0
O93 O 0.04916 0.7593 0.32571 0.0
O94 O 0.18529 0.87455 0.34642 0.0
O95 O 0.20174 0.8187 0.34034 0.0
O96 O 0.20611 0.75079 0.32802 0.0
O97 O 0.13478 0.74841 0.31303 0.0
C98 C 0.14935 0.8212 0.40433 0.0
C99 C 0.17108 0.73875 0.30981 0.0
Dy100 Dy 0.44586 0.20996 0.70922 0.0
C101 C 0.28969 0.04235 0.65514 0.0
C102 C 0.51909 0.29332 0.73238 0.0
Dy103 Dy 0.35756 0.12326 0.68284 0.0
O104 O 0.52266 0.25546 0.72534 0.0
O105 O 0.47649 0.28674 0.72505 0.0
O106 O 0.43335 0.16501 0.74553 0.0
O107 O 0.41716 0.12975 0.70897 0.0
C108 C 0.41633 0.1232 0.73383 0.0
C109 C 0.36854 0.21178 0.67257 0.0
O110 O 0.32851 0.12288 0.72323 0.0
O111 O 0.38004 0.20646 0.7278 0.0
O112 O 0.2859 0.08016 0.66128 0.0
O113 O 0.3303 0.0477 0.66502 0.0
O114 O 0.326 0.17283 0.67517 0.0
O115 O 0.40169 0.2011 0.67451 0.0
O116 O 0.48278 0.20677 0.67163 0.0
O117 O 0.41519 0.13955 0.6523 0.0
C118 C 0.34079 0.165 0.7351 0.0
C119 C 0.46206 0.17445 0.65199 0.0
H120 H 0.0965 0.69114 0.27395 0.0
H121 H 0.09635 0.64908 0.23328 0.0
H122 H 0.24586 0.68648 0.24848 0.0
H123 H 0.24626 0.72841 0.28952 0.0
H124 H 0.22828 0.70712 0.19605 0.0
H125 H 0.1569 0.57181 0.25875 0.0
H126 H 0.09694 0.51792 0.29222 0.0
H127 H 0.97956 0.4795 0.23649 0.0
H128 H 0.03874 0.53359 0.20278 0.0
H129 H 0.26251 0.55965 0.10404 0.0
H130 H 0.25589 0.60279 0.14243 0.0
H131 H 0.09947 0.53293 0.13037 0.0
H132 H 0.10591 0.48785 0.09237 0.0
H133 H 0.11542 0.52963 0.18032 0.0
H134 H 0.18071 0.65936 0.11743 0.0
H135 H 0.23615 0.7138 0.0826 0.0
H136 H 0.35811 0.76583 0.13654 0.0
H137 H 0.30352 0.71116 0.17162 0.0
C138 C 0.12946 0.69051 0.26872 0.0
C139 C 0.17152 0.71337 0.28504 0.0
C140 C 0.12914 0.66612 0.24549 0.0
C141 C 0.17096 0.66431 0.23789 0.0
C142 C 0.21312 0.68732 0.254 0.0
C143 C 0.21328 0.71122 0.27747 0.0
C144 C 0.17117 0.63972 0.21274 0.0
C145 C 0.20409 0.66817 0.19272 0.0
C146 C 0.13796 0.58935 0.20792 0.0
C147 C 0.10228 0.55713 0.2283 0.0
C148 C 0.11828 0.55223 0.2537 0.0
C149 C 0.08444 0.52155 0.2727 0.0
C150 C 0.0345 0.49536 0.2665 0.0
C151 C 0.01827 0.49981 0.24128 0.0
C152 C 0.05195 0.53043 0.22221 0.0
C153 C 0.22677 0.55405 0.10928 0.0
C154 C 0.18476 0.52054 0.09511 0.0
C155 C 0.22299 0.57891 0.13127 0.0
C156 C 0.17721 0.5718 0.13931 0.0
C157 C 0.13524 0.53917 0.12468 0.0
C158 C 0.13896 0.5137 0.10283 0.0
C159 C 0.17333 0.59686 0.16361 0.0
C160 C 0.13956 0.56863 0.18348 0.0
C161 C 0.20502 0.64773 0.1681 0.0
C162 C 0.23805 0.68084 0.1471 0.0
C163 C 0.21941 0.68215 0.12182 0.0
C164 C 0.25068 0.71309 0.10203 0.0
C165 C 0.30064 0.74318 0.10733 0.0
C166 C 0.31941 0.74247 0.13246 0.0
C167 C 0.28831 0.71155 0.15231 0.0
H168 H 0.32479 0.76711 0.09199 0.0
H169 H 0.00839 0.47156 0.28122 0.0
H170 H 0.42924 0.11792 0.60739 0.0
H171 H 0.47087 0.13058 0.56523 0.0
H172 H 0.59951 0.25582 0.59749 0.0
H173 H 0.5573 0.24424 0.64 0.0
H174 H 0.57591 0.27495 0.5484 0.0
H175 H 0.59439 0.14455 0.58771 0.0
H176 H 0.56101 0.06431 0.61015 0.0
H177 H 0.46888 0.99313 0.54266 0.0
H178 H 0.50109 0.07303 0.51998 0.0
H179 H 0.73412 0.29963 0.4422 0.0
H180 H 0.69238 0.29177 0.48412 0.0
H181 H 0.56898 0.15562 0.45719 0.0
H182 H 0.61185 0.16242 0.41559 0.0
H183 H 0.59079 0.1424 0.50432 0.0
H184 H 0.56583 0.26666 0.46517 0.0
H185 H 0.5883 0.34491 0.44269 0.0
H186 H 0.68272 0.42474 0.50796 0.0
H187 H 0.66131 0.34691 0.53068 0.0
C188 C 0.46656 0.14803 0.60578 0.0
C189 C 0.48991 0.18002 0.62726 0.0
C190 C 0.49041 0.15509 0.58155 0.0
C191 C 0.53857 0.19377 0.57822 0.0
C192 C 0.56235 0.22561 0.59964 0.0
C193 C 0.53829 0.21876 0.62397 0.0
C194 C 0.5633 0.20135 0.55212 0.0
C195 C 0.58003 0.24633 0.53893 0.0
C196 C 0.5669 0.16329 0.53932 0.0
C197 C 0.54984 0.11488 0.55225 0.0
C198 C 0.56694 0.1118 0.57767 0.0
C199 C 0.54811 0.0664 0.59047 0.0
C200 C 0.51248 0.02374 0.57795 0.0
C201 C 0.49623 0.02626 0.55241 0.0
C202 C 0.51485 0.07159 0.53955 0.0
C203 C 0.69761 0.2686 0.44497 0.0
C204 C 0.67614 0.23172 0.42559 0.0
C205 C 0.67367 0.26412 0.46899 0.0
C206 C 0.62723 0.22321 0.47393 0.0
C207 C 0.60483 0.18743 0.454 0.0
C208 C 0.62912 0.19155 0.43011 0.0
C209 C 0.60355 0.21621 0.5004 0.0
C210 C 0.58701 0.17126 0.51372 0.0
C211 C 0.59932 0.25402 0.51312 0.0
C212 C 0.61232 0.30092 0.49951 0.0
C213 C 0.59168 0.30089 0.47464 0.0
C214 C 0.60417 0.34517 0.46187 0.0
C215 C 0.63701 0.38976 0.47386 0.0
C216 C 0.65734 0.39017 0.49868 0.0
C217 C 0.645 0.34598 0.51152 0.0
H218 H 0.64663 0.42401 0.46394 0.0
H219 H 0.49766 0.98868 0.58797 0.0
H220 H 0.24535 0.52828 0.97071 0.0
H221 H 0.28414 0.5787 0.93117 0.0
H222 H 0.35753 0.49643 0.91679 0.0
H223 H 0.3194 0.44682 0.95642 0.0
H224 H 0.41769 0.5958 0.90642 0.0
H225 H 0.25342 0.4665 0.88481 0.0
H226 H 0.164 0.42008 0.89161 0.0
H227 H 0.15606 0.55048 0.87687 0.0
H228 H 0.24565 0.59795 0.8705 0.0
H229 H 0.47152 0.63262 0.76958 0.0
H230 H 0.43627 0.59421 0.81235 0.0
H231 H 0.36563 0.68105 0.81797 0.0
H232 H 0.40077 0.71951 0.77503 0.0
H233 H 0.30501 0.58595 0.83424 0.0
H234 H 0.46784 0.71429 0.85191 0.0
H235 H 0.55757 0.76256 0.8469 0.0
H236 H 0.56938 0.63731 0.87009 0.0
H237 H 0.47957 0.58793 0.87472 0.0
C238 C 0.27071 0.52199 0.95948 0.0
C239 C 0.27936 0.48384 0.96673 0.0
C240 C 0.29256 0.55042 0.93675 0.0
C241 C 0.32347 0.54107 0.92079 0.0
C242 C 0.33387 0.50439 0.92872 0.0
C243 C 0.3118 0.47586 0.95132 0.0
C244 C 0.3423 0.5669 0.89492 0.0
C245 C 0.39309 0.59335 0.89056 0.0
C246 C 0.31027 0.56469 0.8744 0.0
C247 C 0.25627 0.53587 0.87742 0.0
C248 C 0.23264 0.48533 0.88314 0.0
C249 C 0.18193 0.45882 0.88691 0.0
C250 C 0.15438 0.48232 0.88469 0.0
C251 C 0.17746 0.53234 0.8786 0.0
C252 C 0.2282 0.55907 0.87491 0.0
C253 C 0.44793 0.64305 0.77974 0.0
C254 C 0.43899 0.67917 0.76898 0.0
C255 C 0.42809 0.62133 0.8043 0.0
C256 C 0.39888 0.63526 0.81863 0.0
C257 C 0.3882 0.66984 0.80737 0.0
C258 C 0.40827 0.69178 0.78283 0.0
C259 C 0.38049 0.61438 0.84556 0.0
C260 C 0.32974 0.58879 0.85012 0.0
C261 C 0.41266 0.61762 0.8663 0.0
C262 C 0.4668 0.64721 0.86344 0.0
C263 C 0.48947 0.69684 0.8557 0.0
C264 C 0.5404 0.72446 0.85296 0.0
C265 C 0.56916 0.703 0.85816 0.0
C266 C 0.54705 0.65387 0.86606 0.0
C267 C 0.49612 0.62605 0.86875 0.0
H268 H 0.60858 0.72446 0.85617 0.0
H269 H 0.11513 0.46174 0.88765 0.0
H270 H 0.73747 0.30143 0.30233 0.0
H271 H 0.73373 0.34174 0.26125 0.0
H272 H 0.88502 0.38764 0.24551 0.0
H273 H 0.88885 0.34769 0.28637 0.0
H274 H 0.86388 0.4582 0.23048 0.0
H275 H 0.79754 0.28667 0.21809 0.0
H276 H 0.74387 0.19843 0.22704 0.0
H277 H 0.61723 0.21105 0.2091 0.0
H278 H 0.67006 0.29979 0.20089 0.0
H279 H 0.8623 0.49667 0.09047 0.0
H280 H 0.86919 0.46429 0.13375 0.0
H281 H 0.71755 0.41689 0.14964 0.0
H282 H 0.71049 0.44884 0.10636 0.0
H283 H 0.74 0.34793 0.16478 0.0
H284 H 0.81091 0.52258 0.17649 0.0
H285 H 0.86789 0.61035 0.16789 0.0
H286 H 0.99033 0.59032 0.18549 0.0
H287 H 0.93407 0.50225 0.19388 0.0
C288 C 0.77031 0.32126 0.29051 0.0
C289 C 0.81342 0.32097 0.29761 0.0
C290 C 0.76801 0.34392 0.26687 0.0
C291 C 0.80885 0.367 0.24996 0.0
C292 C 0.8529 0.36985 0.25805 0.0
C293 C 0.85502 0.3468 0.28147 0.0
C294 C 0.80483 0.38489 0.22304 0.0
C295 C 0.83705 0.43401 0.21604 0.0
C296 C 0.76977 0.35341 0.20413 0.0
C297 C 0.73775 0.30009 0.20925 0.0
C298 C 0.7582 0.27081 0.21642 0.0
C299 C 0.72792 0.22068 0.22137 0.0
C300 C 0.67714 0.1992 0.21884 0.0
C301 C 0.65654 0.22782 0.2113 0.0
C302 C 0.68663 0.27806 0.20653 0.0
C303 C 0.83025 0.47863 0.10304 0.0
C304 C 0.78575 0.47499 0.09496 0.0
C305 C 0.83435 0.46058 0.1279 0.0
C306 C 0.79409 0.43875 0.14523 0.0
C307 C 0.7492 0.43367 0.13673 0.0
C308 C 0.74514 0.45184 0.11195 0.0
C309 C 0.79857 0.42151 0.17228 0.0
C310 C 0.76661 0.3723 0.17926 0.0
C311 C 0.83432 0.45281 0.19101 0.0
C312 C 0.86824 0.50564 0.18549 0.0
C313 C 0.85 0.53675 0.17822 0.0
C314 C 0.88219 0.58662 0.17344 0.0
C315 C 0.93273 0.60589 0.17603 0.0
C316 C 0.95118 0.57534 0.18342 0.0
C317 C 0.91915 0.52544 0.1882 0.0
H318 H 0.9576 0.64453 0.17241 0.0
H319 H 0.6538 0.16035 0.22257 0.0
H320 H 0.42504 0.71561 0.63072 0.0
H321 H 0.38111 0.71177 0.58956 0.0
H322 H 0.47718 0.86695 0.57749 0.0
H323 H 0.52235 0.87082 0.6181 0.0
H324 H 0.3756 0.83271 0.5664 0.0
H325 H 0.50421 0.79985 0.5447 0.0
H326 H 0.55264 0.75828 0.54903 0.0
H327 H 0.42486 0.62003 0.53089 0.0
H328 H 0.37546 0.66082 0.52689 0.0
H329 H 0.33144 0.85351 0.43023 0.0
H330 H 0.36879 0.85779 0.47352 0.0
H331 H 0.30146 0.69991 0.47463 0.0
H332 H 0.26556 0.69588 0.43081 0.0
H333 H 0.38731 0.73498 0.49276 0.0
H334 H 0.26045 0.77572 0.50949 0.0
H335 H 0.21806 0.82345 0.50504 0.0
H336 H 0.34675 0.95259 0.53291 0.0
H337 H 0.39052 0.90624 0.53661 0.0
C338 C 0.43626 0.74904 0.61952 0.0
C339 C 0.47712 0.79349 0.62752 0.0
C340 C 0.41133 0.74675 0.59599 0.0
C341 C 0.42633 0.78903 0.58044 0.0
C342 C 0.46533 0.83396 0.5892 0.0
C343 C 0.49101 0.83607 0.61235 0.0
C344 C 0.40339 0.78596 0.55422 0.0
C345 C 0.37818 0.8116 0.55015 0.0
C346 C 0.40668 0.75807 0.53328 0.0
C347 C 0.43604 0.73328 0.53585 0.0
C348 C 0.48633 0.76051 0.54195 0.0
C349 C 0.51397 0.73712 0.54427 0.0
C350 C 0.49181 0.68653 0.54029 0.0
C351 C 0.44194 0.65922 0.53399 0.0
C352 C 0.4141 0.68246 0.5317 0.0
C353 C 0.32571 0.81987 0.43945 0.0
C354 C 0.29647 0.77451 0.42698 0.0
C355 C 0.34628 0.82221 0.46445 0.0
C356 C 0.33743 0.77916 0.47771 0.0
C357 C 0.309 0.73377 0.46491 0.0
C358 C 0.28868 0.73146 0.43979 0.0
C359 C 0.35838 0.78131 0.50464 0.0
C360 C 0.38371 0.75562 0.50892 0.0
C361 C 0.35547 0.80968 0.5257 0.0
C362 C 0.32894 0.83749 0.52314 0.0
C363 C 0.27991 0.81441 0.51439 0.0
C364 C 0.25566 0.84128 0.51195 0.0
C365 C 0.27971 0.89098 0.51874 0.0
C366 C 0.32817 0.91408 0.52769 0.0
C367 C 0.35277 0.88758 0.52986 0.0
H368 H 0.26089 0.91169 0.51716 0.0
H369 H 0.51333 0.66853 0.542 0.0
H370 H 0.78901 0.59212 0.92036 0.0
H371 H 0.75092 0.55021 0.87879 0.0
H372 H 0.65697 0.4178 0.92254 0.0
H373 H 0.69703 0.45918 0.96411 0.0
H374 H 0.67957 0.39208 0.88023 0.0
H375 H 0.61959 0.50164 0.8967 0.0
H376 H 0.62215 0.57991 0.90559 0.0
H377 H 0.6982 0.63923 0.83224 0.0
H378 H 0.69696 0.56163 0.82314 0.0
H379 H 0.4982 0.35112 0.76341 0.0
H380 H 0.54289 0.39745 0.80272 0.0
H381 H 0.65787 0.36484 0.78629 0.0
H382 H 0.61189 0.31661 0.74761 0.0
H383 H 0.62214 0.47215 0.81561 0.0
H384 H 0.71009 0.35369 0.84259 0.0
H385 H 0.69369 0.26884 0.83736 0.0
H386 H 0.53966 0.21706 0.82969 0.0
H387 H 0.55507 0.30152 0.83521 0.0
C388 C 0.76037 0.55398 0.92109 0.0
C389 C 0.74578 0.52907 0.94554 0.0
C390 C 0.73828 0.5301 0.89729 0.0
C391 C 0.6999 0.48107 0.89736 0.0
C392 C 0.68625 0.45568 0.92177 0.0
C393 C 0.70919 0.47932 0.94559 0.0
C394 C 0.67412 0.45646 0.87205 0.0
C395 C 0.6671 0.40974 0.86615 0.0
C396 C 0.65674 0.47873 0.85365 0.0
C397 C 0.65855 0.52589 0.85935 0.0
C398 C 0.63729 0.53152 0.88259 0.0
C399 C 0.63844 0.57575 0.88764 0.0
C400 C 0.66031 0.6145 0.86949 0.0
C401 C 0.6812 0.60914 0.84627 0.0
C402 C 0.68036 0.56508 0.84117 0.0
C403 C 0.53335 0.35445 0.76794 0.0
C404 C 0.55122 0.3297 0.75254 0.0
C405 C 0.55896 0.38095 0.79053 0.0
C406 C 0.60338 0.38381 0.79811 0.0
C407 C 0.62299 0.36204 0.78154 0.0
C408 C 0.59691 0.3348 0.75921 0.0
C409 C 0.62798 0.40799 0.82372 0.0
C410 C 0.63483 0.45463 0.82966 0.0
C411 C 0.64356 0.38491 0.84261 0.0
C412 C 0.63384 0.33401 0.83907 0.0
C413 C 0.67272 0.32418 0.83984 0.0
C414 C 0.66359 0.27617 0.83683 0.0
C415 C 0.61568 0.23762 0.83321 0.0
C416 C 0.57676 0.24699 0.8325 0.0
C417 C 0.58568 0.29494 0.83551 0.0
H418 H 0.60874 0.20048 0.83103 0.0
H419 H 0.66113 0.6487 0.87342 0.0
H420 H 0.30746 0.42042 0.1079 0.0
H421 H 0.3949 0.47951 0.11295 0.0
H422 H 0.41796 0.45833 0.03089 0.0
H423 H 0.33083 0.39979 0.02553 0.0
H424 H 0.49161 0.48696 0.09792 0.0
H425 H 0.45418 0.56801 1.00283 0.0
H426 H 0.38595 0.57403 0.98245 0.0
H427 H 0.32436 0.56472 0.05953 0.0
H428 H 0.39228 0.5589 0.08039 0.0
H429 H 0.63731 0.55635 0.99744 0.0
H430 H 0.56443 0.55749 0.01212 0.0
H431 H 0.64904 0.6617 0.07336 0.0
H432 H 0.72277 0.66183 0.05804 0.0
H433 H 0.52499 0.62202 0.03474 0.0
H434 H 0.61127 0.60272 0.11898 0.0
H435 H 0.68075 0.59333 0.13452 0.0
H436 H 0.64293 0.47835 0.07769 0.0
H437 H 0.57331 0.48722 0.06189 0.0
C438 C 0.33154 0.42677 0.09124 0.0
C439 C 0.31237 0.40708 0.06602 0.0
C440 C 0.38132 0.46068 0.09418 0.0
C441 C 0.41187 0.47428 0.07201 0.0
C442 C 0.39419 0.44883 0.048 0.0
C443 C 0.34457 0.41511 0.04503 0.0
C444 C 0.46012 0.51898 0.0723 0.0
C445 C 0.4989 0.51775 0.08514 0.0
C446 C 0.46916 0.5591 0.0557 0.0
C447 C 0.42839 0.56302 0.04318 0.0
C448 C 0.42623 0.56751 0.01545 0.0
C449 C 0.38748 0.57069 1.0038 0.0
C450 C 0.35074 0.56958 0.01969 0.0
C451 C 0.35263 0.56522 0.04724 0.0
C452 C 0.39121 0.56191 0.05898 0.0
C453 C 0.64076 0.58149 0.01306 0.0
C454 C 0.6847 0.60804 0.02711 0.0
C455 C 0.59937 0.5826 0.02127 0.0
C456 C 0.60151 0.609 0.0441 0.0
C457 C 0.64697 0.64119 0.05571 0.0
C458 C 0.68884 0.64094 0.04706 0.0
C459 C 0.55638 0.5891 0.05969 0.0
C460 C 0.51759 0.59381 0.04942 0.0
C461 C 0.54722 0.55268 0.07904 0.0
C462 C 0.58715 0.54539 0.08946 0.0
C463 C 0.61764 0.57518 0.11003 0.0
C464 C 0.65709 0.57008 0.11879 0.0
C465 C 0.66621 0.53521 0.10712 0.0
C466 C 0.63575 0.50523 0.08676 0.0
C467 C 0.59625 0.51018 0.07795 0.0
H468 H 0.69689 0.53147 0.11384 0.0
H469 H 0.32087 0.57224 0.01067 0.0
H470 H 0.02774 0.64886 0.40177 0.0
H471 H -0.005 0.56041 0.40528 0.0
H472 H 0.05083 0.56131 0.32692 0.0
H473 H 0.07537 0.64666 0.3222 0.0
H474 H 0.00456 0.47914 0.33505 0.0
H475 H 0.12615 0.59684 0.39188 0.0
H476 H 0.16402 0.66348 0.42496 0.0
H477 H 0.05951 0.57092 0.48332 0.0
H478 H 0.02068 0.50387 0.4506 0.0
H479 H 0.94663 0.26089 0.36614 0.0
H480 H 0.0253 0.33724 0.36849 0.0
H481 H 0.96762 0.3887 0.43021 0.0
H482 H 0.89276 0.31076 0.43038 0.0
H483 H 0.05444 0.45467 0.42492 0.0
H484 H 0.93367 0.36195 0.33516 0.0
H485 H 0.92973 0.30561 0.29958 0.0
H486 H 0.0861 0.37283 0.30089 0.0
H487 H 0.0913 0.42957 0.33584 0.0
C488 C 0.02885 0.62905 0.38449 0.0
C489 C 0.05702 0.65458 0.36241 0.0
C490 C 0.01204 0.57881 0.38687 0.0
C491 C 0.02508 0.55523 0.36753 0.0
C492 C 0.04204 0.57855 0.34285 0.0
C493 C 0.05553 0.62772 0.33995 0.0
C494 C 0.02817 0.51069 0.37419 0.0
C495 C 0.01554 0.47438 0.35479 0.0
C496 C 0.0471 0.50534 0.39896 0.0
C497 C 0.0703 0.54553 0.41873 0.0
C498 C 0.11115 0.59081 0.41174 0.0
C499 C 0.13277 0.62863 0.43041 0.0
C500 C 0.11414 0.62149 0.45616 0.0
C501 C 0.07388 0.57643 0.46335 0.0
C502 C 0.05208 0.53848 0.44477 0.0
C503 C 0.95215 0.2877 0.38116 0.0
C504 C 0.91315 0.28165 0.39702 0.0
C505 C -0.00322 0.33171 0.38223 0.0
C506 C 0.00032 0.37091 0.39725 0.0
C507 C 0.96542 0.3602 0.41731 0.0
C508 C 0.92194 0.3154 0.41729 0.0
C509 C 0.026 0.42205 0.38679 0.0
C510 C 0.0445 0.46061 0.40514 0.0
C511 C 0.01687 0.43158 0.36043 0.0
C512 C 0.01284 0.39974 0.33802 0.0
C513 C 0.96715 0.3651 0.32745 0.0
C514 C 0.9647 0.33313 0.30746 0.0
C515 C 0.00749 0.33606 0.29776 0.0
C516 C 0.05298 0.371 0.30799 0.0
C517 C 0.05577 0.40305 0.32786 0.0
H518 H 0.00537 0.31111 0.28243 0.0
H519 H 0.13096 0.65085 0.47055 0.0
H520 H 0.42026 0.10789 0.7866 0.0
H521 H 0.46707 0.0729 0.80665 0.0
H522 H 0.48085 0.02179 0.72965 0.0
H523 H 0.43453 0.05686 0.70943 0.0
H524 H 0.47093 0.96787 0.79493 0.0
H525 H 0.60349 0.10868 0.72159 0.0
H526 H 0.62134 0.18765 0.70178 0.0
H527 H 0.57479 0.22569 0.77331 0.0
H528 H 0.55742 0.1471 0.79378 0.0
H529 H 0.57442 0.94675 0.69195 0.0
H530 H 0.58115 0.0108 0.72128 0.0
H531 H 0.63353 0.9553 0.78451 0.0
H532 H 0.62721 0.89097 0.75468 0.0
H533 H 0.6373 0.0826 0.76065 0.0
H534 H 0.56848 0.94098 0.82835 0.0
H535 H 0.54314 0.85393 0.83673 0.0
H536 H 0.45498 0.81201 0.76585 0.0
H537 H 0.48019 0.89869 0.75704 0.0
C538 C 0.43144 0.08723 0.77416 0.0
C539 C 0.42506 0.08604 0.74639 0.0
C540 C 0.45812 0.06738 0.78567 0.0
C541 C 0.47811 0.04603 0.76944 0.0
C542 C 0.46582 0.03871 0.74233 0.0
C543 C 0.43922 0.05853 0.73082 0.0
C544 C 0.51884 0.03965 0.77883 0.0
C545 C 0.50803 0.99374 0.78871 0.0
C546 C 0.56723 0.07384 0.77093 0.0
C547 C 0.57948 0.12214 0.75931 0.0
C548 C 0.59769 0.13414 0.73326 0.0
C549 C 0.60757 0.17874 0.72187 0.0
C550 C 0.59938 0.21169 0.73632 0.0
C551 C 0.58128 0.20015 0.7622 0.0
C552 C 0.57142 0.15558 0.77372 0.0
C553 C 0.59019 0.95013 0.71157 0.0
C554 C 0.59992 0.91426 0.72127 0.0
C555 C 0.59425 0.9868 0.7284 0.0
C556 C 0.60684 0.98707 0.7553 0.0
C557 C 0.6234 0.9554 0.76393 0.0
C558 C 0.61995 0.91889 0.74686 0.0
C559 C 0.5879 0.00931 0.77413 0.0
C560 C 0.60197 0.05857 0.76965 0.0
C561 C 0.54238 0.97811 0.78653 0.0
C562 C 0.52611 0.92601 0.79211 0.0
C563 C 0.54365 0.91304 0.81463 0.0
C564 C 0.52945 0.86385 0.8194 0.0
C565 C 0.49764 0.82744 0.80179 0.0
C566 C 0.47975 0.84015 0.77944 0.0
C567 C 0.49386 0.88925 0.77458 0.0
H568 H 0.48683 0.78944 0.80549 0.0
H569 H 0.60703 0.24609 0.72735 0.0
H570 H 0.60313 0.65917 0.65878 0.0
H571 H 0.55354 0.56939 0.65731 0.0
H572 H 0.42499 0.57689 0.67849 0.0
H573 H 0.474 0.66643 0.67957 0.0
H574 H 0.43729 0.50539 0.70726 0.0
H575 H 0.42887 0.5531 0.6187 0.0
H576 H 0.46046 0.59881 0.57686 0.0
H577 H 0.54844 0.53138 0.56531 0.0
H578 H 0.51779 0.48565 0.60736 0.0
H579 H 0.30445 0.2454 0.67906 0.0
H580 H 0.32375 0.33136 0.67589 0.0
H581 H 0.47293 0.37534 0.65526 0.0
H582 H 0.45415 0.29042 0.65858 0.0
H583 H 0.43054 0.41908 0.62369 0.0
H584 H 0.44782 0.3831 0.71687 0.0
H585 H 0.41503 0.33748 0.75874 0.0
H586 H 0.30745 0.383 0.76104 0.0
H587 H 0.33909 0.42831 0.71891 0.0
C588 C 0.56437 0.64156 0.66319 0.0
C589 C 0.54224 0.66937 0.66924 0.0
C590 C 0.53617 0.59055 0.6623 0.0
C591 C 0.48575 0.56702 0.66761 0.0
C592 C 0.46386 0.59468 0.67433 0.0
C593 C 0.49189 0.64564 0.6749 0.0
C594 C 0.45601 0.51339 0.66572 0.0
C595 C 0.43477 0.48634 0.6889 0.0
C596 C 0.45278 0.48904 0.64168 0.0
C597 C 0.47126 0.5162 0.61629 0.0
C598 C 0.45524 0.54829 0.60735 0.0
C599 C 0.47294 0.57417 0.58356 0.0
C600 C 0.50654 0.56811 0.56843 0.0
C601 C 0.52242 0.53605 0.57705 0.0
C602 C 0.50483 0.51007 0.60085 0.0
C603 C 0.3411 0.27356 0.67357 0.0
C604 C 0.37795 0.26182 0.66911 0.0
C605 C 0.35201 0.32231 0.67179 0.0
C606 C 0.39965 0.35922 0.66532 0.0
C607 C 0.4359 0.3471 0.6601 0.0
C608 C 0.42521 0.29877 0.66214 0.0
C609 C 0.4136 0.41121 0.66543 0.0
C610 C 0.43186 0.43805 0.64188 0.0
C611 C 0.41385 0.43526 0.68911 0.0
C612 C 0.39536 0.40852 0.71457 0.0
C613 C 0.41691 0.38305 0.72618 0.0
C614 C 0.3986 0.35732 0.74998 0.0
C615 C 0.35911 0.3572 0.76249 0.0
C616 C 0.33795 0.38301 0.75128 0.0
C617 C 0.35604 0.40872 0.72745 0.0
H618 H 0.34499 0.33724 0.7809 0.0
H619 H 0.52019 0.58817 0.55 0.0
H620 H 0.09543 0.39042 0.96733 0.0
H621 H 0.05441 0.43886 0.96872 0.0
H622 H 0.01102 0.39237 0.04972 0.0
H623 H 0.05094 0.34253 0.04794 0.0
H624 H 0.94163 0.40167 0.0227 0.0
H625 H 0.11726 0.50543 0.038 0.0
H626 H 0.20663 0.54838 0.02969 0.0
H627 H 0.18486 0.59903 0.95437 0.0
H628 H 0.09571 0.55675 0.96217 0.0
H629 H 0.9066 0.6015 0.05385 0.0
H630 H 0.94342 0.54881 0.05565 0.0
H631 H 0.98202 0.57926 0.9728 0.0
H632 H 0.94412 0.63089 0.97095 0.0
H633 H 0.05393 0.57829 1.00363 0.0
H634 H 0.88105 0.48104 0.98852 0.0
H635 H 0.79303 0.44661 0.99736 0.0
H636 H 0.80753 0.38381 0.0704 0.0
H637 H 0.89602 0.41904 0.06238 0.0
C638 C 0.07501 0.38877 0.98493 0.0
C639 C 0.07533 0.36247 1.00738 0.0
C640 C 0.05252 0.41709 0.9859 0.0
C641 C 0.03114 0.42024 1.00959 0.0
C642 C 0.02775 0.39058 0.03134 0.0
C643 C 0.04989 0.36172 0.03024 0.0
C644 C 0.01508 0.45665 0.01204 0.0
C645 C 0.9663 0.44042 0.01895 0.0
C646 C 0.04718 0.50698 1.00655 0.0
C647 C 0.09989 0.52761 1.0006 0.0
C648 C 0.13153 0.525 0.01949 0.0
C649 C 0.18208 0.54951 0.01498 0.0
C650 C 0.20127 0.57661 0.99168 0.0
C651 C 0.16995 0.57832 0.9725 0.0
C652 C 0.11947 0.55415 0.97695 0.0
C653 C 0.92395 0.59756 0.03628 0.0
C654 C 0.9228 0.61958 0.01226 0.0
C655 C 0.94462 0.56748 0.03727 0.0
C656 C 0.96433 0.5596 0.0142 0.0
C657 C 0.96661 0.58487 0.99072 0.0
C658 C 0.94555 0.61458 0.98971 0.0
C659 C 0.98058 0.52329 0.01402 0.0
C660 C 0.02936 0.53957 1.00757 0.0
C661 C 0.94833 0.4731 0.0197 0.0
C662 C 0.89539 0.45325 0.025 0.0
C663 C 0.86569 0.46053 1.00667 0.0
C664 C 0.81564 0.44069 0.01148 0.0
C665 C 0.7947 0.41298 0.03441 0.0
C666 C 0.8238 0.4052 0.05262 0.0
C667 C 0.87394 0.42524 0.048 0.0
H668 H 0.75595 0.39764 0.0381 0.0
H669 H 0.24047 0.59634 0.9885 0.0
H670 H 0.29068 0.84041 0.33893 0.0
H671 H 0.37858 0.89486 0.34019 0.0
H672 H 0.35746 0.01797 0.35533 0.0
H673 H 0.26804 0.96265 0.35424 0.0
H674 H 0.41729 0.03547 0.31448 0.0
H675 H 0.42345 0.98998 0.40544 0.0
H676 H 0.41806 0.94449 0.44661 0.0
H677 H 0.46872 0.8598 0.40482 0.0
H678 H 0.47502 0.90519 0.36356 0.0
H679 H 0.6771 0.1852 0.33224 0.0
H680 H 0.58792 0.1422 0.33301 0.0
H681 H 0.58386 0.00574 0.31629 0.0
H682 H 0.67369 0.04867 0.31621 0.0
H683 H 0.53738 0.00305 0.36103 0.0
H684 H 0.53983 0.05821 0.2711 0.0
H685 H 0.5638 0.1193 0.23508 0.0
H686 H 0.50307 0.19383 0.27801 0.0
H687 H 0.47886 0.13328 0.31435 0.0
C688 C 0.30457 0.87892 0.343 0.0
C689 C 0.27271 0.89748 0.34647 0.0
C690 C 0.35493 0.90995 0.344 0.0
C691 C 0.37453 0.96027 0.34834 0.0
C692 C 0.34285 0.97903 0.35226 0.0
C693 C 0.29203 0.94765 0.35149 0.0
C694 C 0.42766 0.99312 0.34505 0.0
C695 C 0.44374 0.02915 0.32506 0.0
C696 C 0.46196 0.98401 0.35831 0.0
C697 C 0.44934 0.9507 0.38144 0.0
C698 C 0.43237 0.96091 0.40493 0.0
C699 C 0.42986 0.93564 0.42835 0.0
C700 C 0.44365 0.89974 0.42835 0.0
C701 C 0.45844 0.88788 0.40481 0.0
C702 C 0.46156 0.91339 0.38145 0.0
C703 C 0.65715 0.14608 0.32839 0.0
C704 C 0.68186 0.1198 0.32463 0.0
C705 C 0.60626 0.12178 0.32848 0.0
C706 C 0.5795 0.071 0.32448 0.0
C707 C 0.60417 0.0451 0.31928 0.0
C708 C 0.65521 0.06943 0.31936 0.0
C709 C 0.52666 0.04399 0.32998 0.0
C710 C 0.51085 0.00933 0.35045 0.0
C711 C 0.49304 0.05487 0.31733 0.0
C712 C 0.50789 0.09143 0.29554 0.0
C713 C 0.53196 0.08787 0.27297 0.0
C714 C 0.54552 0.12236 0.25247 0.0
C715 C 0.53516 0.16055 0.25431 0.0
C716 C 0.51111 0.16426 0.27662 0.0
C717 C 0.49735 0.1298 0.29714 0.0
H718 H 0.54554 0.18716 0.23842 0.0
H719 H 0.44305 0.88112 0.44658 0.0
H720 H 0.3519 0.246 0.76016 0.0
H721 H 0.31691 0.24995 0.80216 0.0
H722 H 0.23233 0.09172 0.8052 0.0
H723 H 0.26889 0.0874 0.76314 0.0
H724 H 0.23025 0.22338 0.81912 0.0
H725 H 0.22523 0.05739 0.87122 0.0
H726 H 0.2651 0.00715 0.8679 0.0
H727 H 0.39349 0.12994 0.8349 0.0
H728 H 0.35465 0.18103 0.83837 0.0
H729 H 0.13075 0.21731 0.94142 0.0
H730 H 0.14325 0.18028 0.90195 0.0
H731 H 0.29229 0.23031 0.92663 0.0
H732 H 0.2792 0.26601 0.96687 0.0
H733 H 0.25488 0.1446 0.89891 0.0
H734 H 0.26887 0.30294 0.88841 0.0
H735 H 0.24239 0.3645 0.8913 0.0
H736 H 0.11862 0.2757 0.84113 0.0
H737 H 0.14404 0.21329 0.83825 0.0
C738 C 0.32561 0.21192 0.76957 0.0
C739 C 0.3136 0.16635 0.75848 0.0
C740 C 0.30541 0.21428 0.79357 0.0
C741 C 0.27249 0.17116 0.80697 0.0
C742 C 0.25829 0.12544 0.79534 0.0
C743 C 0.27889 0.12303 0.77124 0.0
C744 C 0.25523 0.17505 0.83361 0.0
C745 C 0.23504 0.2056 0.8365 0.0
C746 C 0.2626 0.15278 0.85636 0.0
C747 C 0.28677 0.12277 0.85477 0.0
C748 C 0.26203 0.07367 0.86336 0.0
C749 C 0.28444 0.04506 0.86144 0.0
C750 C 0.33172 0.06528 0.8511 0.0
C751 C 0.35681 0.11426 0.8428 0.0
C752 C 0.3346 0.14304 0.84474 0.0
C753 C 0.16573 0.21915 0.93878 0.0
C754 C 0.20433 0.24501 0.95681 0.0
C755 C 0.1728 0.198 0.91627 0.0
C756 C 0.219 0.20361 0.91111 0.0
C757 C 0.2564 0.22575 0.93027 0.0
C758 C 0.249 0.24622 0.95315 0.0
C759 C 0.23013 0.19303 0.88428 0.0
C760 C 0.24912 0.1614 0.88142 0.0
C761 C 0.22358 0.21588 0.86154 0.0
C762 C 0.20801 0.25319 0.86338 0.0
C763 C 0.23577 0.29635 0.8782 0.0
C764 C 0.221 0.33142 0.8798 0.0
C765 C 0.17878 0.32393 0.86647 0.0
C766 C 0.15126 0.28139 0.85149 0.0
C767 C 0.16583 0.24616 0.84986 0.0
H768 H 0.16746 0.35114 0.86766 0.0
H769 H 0.34895 0.04304 0.84956 0.0
H770 H 0.98881 0.21076 0.3037 0.0
H771 H 0.04288 0.21204 0.26814 0.0
H772 H 0.93032 0.18439 0.21018 0.0
H773 H 0.87682 0.18231 0.24515 0.0
H774 H 0.96814 0.12906 0.19975 0.0
H775 H 0.03121 0.30325 0.21935 0.0
H776 H 0.07181 0.38115 0.24428 0.0
H777 H 0.19329 0.35954 0.26182 0.0
H778 H 0.15355 0.28178 0.2367 0.0
H779 H 0.05552 0.28474 0.08846 0.0
H780 H 0.02287 0.24092 0.13037 0.0
H781 H 0.14831 0.22138 0.13902 0.0
H782 H 0.18028 0.26356 0.09637 0.0
H783 H 0.12398 0.28153 0.1801 0.0
H784 H 0.06493 0.12502 0.14075 0.0
H785 H 0.02403 0.06135 0.10648 0.0
H786 H 0.8885 0.05864 0.12066 0.0
H787 H 0.92871 0.12285 0.15473 0.0
C788 C 0.9758 0.20458 0.28334 0.0
C789 C 0.92871 0.19623 0.2771 0.0
C790 C 0.00663 0.20548 0.2631 0.0
C791 C 0.99049 0.19803 0.23652 0.0
C792 C 0.94336 0.18953 0.23054 0.0
C793 C 0.91285 0.18861 0.25057 0.0
C794 C 0.02215 0.20043 0.2143 0.0
C795 C 0.00256 0.16219 0.19557 0.0
C796 C 0.06783 0.24285 0.2092 0.0
C797 C 0.08909 0.28643 0.22663 0.0
C798 C 0.0662 0.31478 0.2289 0.0
C799 C 0.08929 0.35912 0.2428 0.0
C800 C 0.13512 0.37528 0.2546 0.0
C801 C 0.15779 0.34696 0.25269 0.0
C802 C 0.13506 0.30281 0.2386 0.0
C803 C 0.07534 0.26983 0.09894 0.0
C804 C 0.12026 0.27738 0.0894 0.0
C805 C 0.05663 0.24465 0.12271 0.0
C806 C 0.08316 0.22777 0.13751 0.0
C807 C 0.12718 0.23363 0.12757 0.0
C808 C 0.14527 0.25765 0.10333 0.0
C809 C 0.06814 0.21181 0.16505 0.0
C810 C 0.09091 0.24735 0.18486 0.0
C811 C 0.02456 0.16776 0.17071 0.0
C812 C -5e-05 0.1289 0.15031 0.0
C813 C 0.02648 0.11112 0.13645 0.0
C814 C 0.00339 0.07486 0.11707 0.0
C815 C 0.9537 0.05597 0.1114 0.0
C816 C 0.92698 0.07326 0.12511 0.0
C817 C 0.94989 0.10953 0.1445 0.0
H818 H 0.93589 0.02791 0.09638 0.0
H819 H 0.15305 0.40975 0.26524 0.0
H820 H 0.707 0.97532 0.61958 0.0
H821 H 0.73405 0.0161 0.5764 0.0
H822 H 0.73805 0.89022 0.54595 0.0
H823 H 0.71235 0.84997 0.58928 0.0
H824 H 0.80881 0.97055 0.52377 0.0
H825 H 0.63805 0.90147 0.53701 0.0
H826 H 0.56283 0.88555 0.56007 0.0
H827 H 0.60519 0.03781 0.55304 0.0
H828 H 0.68139 0.05489 0.53058 0.0
H829 H 0.7046 0.04806 0.39919 0.0
H830 H 0.69407 -0.00099 0.43906 0.0
H831 H 0.84714 0.09306 0.4585 0.0
H832 H 0.85818 0.13941 0.41753 0.0
H833 H 0.69635 0.02228 0.48531 0.0
H834 H 0.88905 0.04404 0.50365 0.0
H835 H 0.95654 0.04658 0.47784 0.0
H836 H 0.85609 0.96539 0.41494 0.0
H837 H 0.78789 0.9618 0.44051 0.0
C838 C 0.71484 0.95691 0.60386 0.0
C839 C 0.70722 0.90936 0.60769 0.0
C840 C 0.73003 0.98009 0.57915 0.0
C841 C 0.73708 0.9558 0.55772 0.0
C842 C 0.73271 0.90966 0.5621 0.0
C843 C 0.71793 0.88665 0.58688 0.0
C844 C 0.74451 0.97641 0.53035 0.0
C845 C 0.78437 0.98202 0.51531 0.0
C846 C 0.71156 0.98961 0.51888 0.0
C847 C 0.66573 0.97957 0.53239 0.0
C848 C 0.63155 0.93165 0.54061 0.0
C849 C 0.58868 0.92239 0.55356 0.0
C850 C 0.5792 0.96061 0.55808 0.0
C851 C 0.61258 0.00821 0.54963 0.0
C852 C 0.65568 0.01774 0.53681 0.0
C853 C 0.73622 0.05702 0.41159 0.0
C854 C 0.78226 0.09697 0.40523 0.0
C855 C 0.7302 0.02933 0.43452 0.0
C856 C 0.76976 0.04201 0.45204 0.0
C857 C 0.81618 0.08135 0.44518 0.0
C858 C 0.82252 0.10802 0.42175 0.0
C859 C 0.76122 0.01723 0.47846 0.0
C860 C 0.72102 0.01087 0.49351 0.0
C861 C 0.79273 0.00147 0.48937 0.0
C862 C 0.83344 0.00308 0.47391 0.0
C863 C 0.88132 0.02656 0.48436 0.0
C864 C 0.91971 0.02822 0.46976 0.0
C865 C 0.91063 0.00629 0.44473 0.0
C866 C 0.8631 0.98252 0.43428 0.0
C867 C 0.82458 0.98073 0.44881 0.0
H868 H 0.94041 0.00765 0.43345 0.0
H869 H 0.54596 0.95327 0.56808 0.0
H870 H 0.60685 0.74591 0.77357 0.0
H871 H 0.65461 0.75416 0.81317 0.0
H872 H 0.78759 0.85339 0.77197 0.0
H873 H 0.73968 0.84609 0.73169 0.0
H874 H 0.78228 0.768 0.80647 0.0
H875 H 0.7611 0.90902 0.80895 0.0
H876 H 0.71322 0.95118 0.80449 0.0
H877 H 0.61701 0.86133 0.86665 0.0
H878 H 0.66373 0.81796 0.87114 0.0
H879 H 0.88831 0.79066 0.93326 0.0
H880 H 0.87418 0.82148 0.89124 0.0
H881 H 0.72224 0.76259 0.91203 0.0
H882 H 0.73637 0.73263 0.95409 0.0
H883 H 0.75467 0.84609 0.88484 0.0
H884 H 0.76015 0.69707 0.87802 0.0
H885 H 0.79507 0.64263 0.88107 0.0
H886 H 0.90944 0.73558 0.82709 0.0
H887 H 0.87514 0.79087 0.8238 0.0
C888 C 0.64628 0.76927 0.77261 0.0
C889 C 0.66944 0.79562 0.7494 0.0
C890 C 0.67345 0.77399 0.79539 0.0
C891 C 0.72433 0.80479 0.79548 0.0
C892 C 0.74817 0.82964 0.77216 0.0
C893 C 0.7208 0.82539 0.74925 0.0
C894 C 0.75145 0.81111 0.82049 0.0
C895 C 0.77787 0.78648 0.82346 0.0
C896 C 0.74377 0.83371 0.84268 0.0
C897 C 0.71588 0.86013 0.84031 0.0
C898 C 0.72952 0.89799 0.82154 0.0
C899 C 0.7026 0.92213 0.81901 0.0
C900 C 0.66216 0.90897 0.83529 0.0
C901 C 0.64842 0.87154 0.85408 0.0
C902 C 0.67514 0.8472 0.85664 0.0
C903 C 0.85229 0.78561 0.92915 0.0
C904 C 0.81327 0.75889 0.94672 0.0
C905 C 0.84423 0.80303 0.90513 0.0
C906 C 0.79698 0.79356 0.89834 0.0
C907 C 0.75898 0.77029 0.91686 0.0
C908 C 0.76705 0.75306 0.94086 0.0
C909 C 0.78536 0.80252 0.87104 0.0
C910 C 0.76115 0.82942 0.86769 0.0
C911 C 0.7941 0.78099 0.84858 0.0
C912 C 0.81543 0.74844 0.85094 0.0
C913 C 0.79296 0.70615 0.86697 0.0
C914 C 0.81258 0.67505 0.8687 0.0
C915 C 0.85459 0.68569 0.85438 0.0
C916 C 0.87697 0.72744 0.83824 0.0
C917 C 0.85742 0.75866 0.83641 0.0
H918 H 0.8697 0.66151 0.85574 0.0
H919 H 0.64162 0.92794 0.83342 0.0
H920 H 0.06853 0.87514 0.28272 0.0
H921 H 0.0267 0.87092 0.24089 0.0
H922 H 0.92604 0.71699 0.25433 0.0
H923 H 0.96804 0.7209 0.29616 0.0
H924 H 0.02748 0.81115 0.20136 0.0
H925 H 0.81885 0.68677 0.22005 0.0
H926 H 0.75835 0.67367 0.2546 0.0
H927 H 0.84923 0.82164 0.28182 0.0
H928 H 0.90994 0.8359 0.2472 0.0
H929 H 0.89555 0.65026 0.09913 0.0
H930 H 0.92756 0.68908 0.14189 0.0
H931 H 0.87626 0.79087 0.12668 0.0
H932 H 0.84416 0.75218 0.08314 0.0
H933 H 0.85176 0.7433 0.17884 0.0
H934 H -0.00735 0.83667 0.12351 0.0
H935 H 0.05223 0.84658 0.08905 0.0
H936 H 0.09684 0.76084 0.13569 0.0
H937 H 0.03708 0.74987 0.17026 0.0
C938 C 0.03658 0.84073 0.27715 0.0
C939 C 0.02174 0.7982 0.2925 0.0
C940 C 0.01279 0.8384 0.25325 0.0
C941 C 0.9734 0.79368 0.24452 0.0
C942 C 0.95608 0.75199 0.26086 0.0
C943 C 0.98014 0.75422 0.28471 0.0
C944 C 0.95563 0.78862 0.21677 0.0
C945 C 0.98917 0.79709 0.19643 0.0
C946 C 0.9057 0.77037 0.21038 0.0
C947 C 0.86912 0.76228 0.23111 0.0
C948 C 0.82582 0.71661 0.23331 0.0
C949 C 0.7915 0.70896 0.25293 0.0
C950 C 0.79999 0.74676 0.27043 0.0
C951 C 0.84277 0.79234 0.26831 0.0
C952 C 0.8772 0.80019 0.24872 0.0
C953 C 0.89114 0.68104 0.10473 0.0
C954 C 0.86737 0.69826 0.08778 0.0
C955 C 0.9095 0.70316 0.12919 0.0
C956 C 0.90425 0.74274 0.13739 0.0
C957 C 0.8806 0.76029 0.12061 0.0
C958 C 0.86267 0.73847 0.09575 0.0
C959 C 0.92349 0.76477 0.16374 0.0
C960 C 0.89025 0.75885 0.1838 0.0
C961 C 0.97373 0.7852 0.17001 0.0
C962 C 0.01035 0.79245 0.14946 0.0
C963 C 0.01505 0.81979 0.12637 0.0
C964 C 0.04886 0.82559 0.10682 0.0
C965 C 0.0783 0.80436 0.11018 0.0
C966 C 0.07407 0.77734 0.13313 0.0
C967 C 0.04032 0.77142 0.15274 0.0
H968 H 0.10441 0.80884 0.09501 0.0
H969 H 0.77338 0.74075 0.28561 0.0
H970 H 0.20662 0.03227 0.63297 0.0
H971 H 0.16462 0.98594 0.59315 0.0
H972 H 0.26125 0.926 0.59049 0.0
H973 H 0.30379 0.97271 0.63052 0.0
H974 H 0.21256 0.00328 0.54578 0.0
H975 H 0.19624 0.81228 0.5583 0.0
H976 H 0.18117 0.75236 0.5939 0.0
H977 H 0.1033 0.80743 0.6385 0.0
H978 H 0.11738 0.86729 0.60299 0.0
H979 H 0.22799 0.8945 0.42838 0.0
H980 H 0.23383 0.92591 0.47313 0.0
H981 H 0.0784 0.82984 0.48359 0.0
H982 H 0.07224 0.79858 0.43798 0.0
H983 H 0.13825 0.82579 0.52597 0.0
H984 H 0.11635 0.94659 0.47939 0.0
H985 H 0.13167 0.00673 0.44381 0.0
H986 H 0.28225 0.0917 0.46819 0.0
H987 H 0.26801 0.03173 0.50369 0.0
C988 C 0.21821 0.0083 0.62431 0.0
C989 C 0.25862 0.00625 0.63477 0.0
C990 C 0.19422 0.98195 0.6015 0.0
C991 C 0.20984 0.95264 0.5888 0.0
C992 C 0.24829 0.94807 0.60012 0.0
C993 C 0.27255 0.97471 0.62298 0.0
C994 C 0.18974 0.93171 0.56221 0.0
C995 C 0.1959 0.9644 0.54153 0.0
C996 C 0.16748 0.88093 0.55672 0.0
C997 C 0.1583 0.84462 0.57803 0.0
C998 C 0.17576 0.81152 0.57563 0.0
C999 C 0.16741 0.77757 0.59582 0.0
C1000 C 0.14141 0.77618 0.61849 0.0
C1001 C 0.1236 0.80867 0.62098 0.0
C1002 C 0.13185 0.84269 0.60084 0.0
C1003 C 0.19483 0.88068 0.44001 0.0
C1004 C 0.14959 0.84441 0.42973 0.0
C1005 C 0.19824 0.89855 0.46563 0.0
C1006 C 0.1566 0.88015 0.48174 0.0
C1007 C 0.11096 0.84449 0.47142 0.0
C1008 C 0.10736 0.82708 0.44538 0.0
C1009 C 0.1622 0.89761 0.50957 0.0
C1010 C 0.15384 0.86447 0.53041 0.0
C1011 C 0.18249 0.94807 0.51532 0.0
C1012 C 0.19111 0.98455 0.49417 0.0
C1013 C 0.15279 0.97797 0.47708 0.0
C1014 C 0.16128 0.01205 0.45694 0.0
C1015 C 0.20791 0.05299 0.45374 0.0
C1016 C 0.24614 0.05999 0.47071 0.0
C1017 C 0.23785 0.02602 0.49088 0.0
H1018 H 0.21441 0.07932 0.43812 0.0
H1019 H 0.13499 0.74987 0.6341 0.0
loop_
_geom_bond_atom_site_label_1
_geom_bond_atom_site_label_2
_geom_bond_distance
_geom_bond_site_symmetry_2
_ccdc_geom_bond_type
Dy0 O4 2.398 . S
Dy0 O5 2.491 . S
Dy0 O6 2.403 . S
Dy0 O7 2.664 . S
Dy0 O11 2.326 . S
Dy0 O15 2.310 . S
Dy0 O16 2.351 1_554 S
C1 O12 1.185 . S
C1 O13 1.355 . S
C2 O4 1.185 . S
C2 O5 1.355 . S
Dy3 O7 2.310 1_556 S
Dy3 O10 2.351 1_556 S
Dy3 O12 2.398 . S
Dy3 O13 2.491 . S
Dy3 O14 2.403 . S
Dy3 O15 2.664 1_556 S
Dy3 O17 2.326 . S
O4 Dy0 2.398 . S
O4 C2 1.185 . S
O5 Dy0 2.491 . S
O5 C2 1.355 . S
O6 Dy0 2.403 . S
O6 C8 1.254 . S
O7 Dy0 2.664 . S
O7 Dy3 2.310 1_554 S
O7 C8 1.268 . S
C8 O6 1.254 . S
C8 O7 1.268 . S
C9 O14 1.254 1_554 S
C9 O15 1.268 . S
O10 Dy3 2.351 1_554 S
O10 C18 1.249 . S
O11 Dy0 2.326 . S
O11 C18 1.267 . S
O12 C1 1.185 . S
O12 Dy3 2.398 . S
O13 C1 1.355 . S
O13 Dy3 2.491 . S
O14 Dy3 2.403 . S
O14 C9 1.254 1_556 S
O15 Dy0 2.310 . S
O15 Dy3 2.664 1_554 S
O15 C9 1.268 . S
O16 Dy0 2.351 1_556 S
O16 C19 1.249 . S
O17 Dy3 2.326 . S
O17 C19 1.267 . S
C18 O10 1.249 . S
C18 O11 1.267 . S
C19 O16 1.249 . S
C19 O17 1.267 . S
Dy20 O24 2.398 . S
Dy20 O25 2.491 . S
Dy20 O26 2.403 . S
Dy20 O27 2.664 . S
Dy20 O31 2.326 . S
Dy20 O35 2.310 . S
Dy20 O36 2.351 . S
C21 O32 1.185 . S
C21 O33 1.355 . S
C22 O24 1.185 . S
C22 O25 1.355 . S
Dy23 O27 2.310 . S
Dy23 O30 2.351 . S
Dy23 O32 2.398 . S
Dy23 O33 2.491 . S
Dy23 O34 2.403 . S
Dy23 O35 2.664 . S
Dy23 O37 2.326 . S
O24 Dy20 2.398 . S
O24 C22 1.185 . S
O25 Dy20 2.491 . S
O25 C22 1.355 . S
O26 Dy20 2.403 . S
O26 C28 1.254 . S
O27 Dy20 2.664 . S
O27 Dy23 2.310 . S
O27 C28 1.268 . S
C28 O26 1.254 . S
C28 O27 1.268 . S
C29 O34 1.254 . S
C29 O35 1.268 . S
O30 Dy23 2.351 . S
O30 C38 1.249 . S
O31 Dy20 2.326 . S
O31 C38 1.267 . S
O32 C21 1.185 . S
O32 Dy23 2.398 . S
O33 C21 1.355 . S
O33 Dy23 2.491 . S
O34 Dy23 2.403 . S
O34 C29 1.254 . S
O35 Dy20 2.310 . S
O35 Dy23 2.664 . S
O35 C29 1.268 . S
O36 Dy20 2.351 . S
O36 C39 1.249 . S
O37 Dy23 2.326 . S
O37 C39 1.267 . S
C38 O30 1.249 . S
C38 O31 1.267 . S
C39 O36 1.249 . S
C39 O37 1.267 . S
Dy40 O44 2.398 . S
Dy40 O45 2.491 . S
Dy40 O46 2.403 . S
Dy40 O47 2.664 . S
Dy40 O51 2.326 . S
Dy40 O55 2.310 . S
Dy40 O56 2.351 . S
C41 O52 1.185 . S
C41 O53 1.355 . S
C42 O44 1.185 . S
C42 O45 1.355 . S
Dy43 O47 2.310 . S
Dy43 O50 2.351 . S
Dy43 O52 2.398 . S
Dy43 O53 2.491 . S
Dy43 O54 2.403 . S
Dy43 O55 2.664 . S
Dy43 O57 2.326 . S
O44 Dy40 2.398 . S
O44 C42 1.185 . S
O45 Dy40 2.491 . S
O45 C42 1.355 . S
O46 Dy40 2.403 . S
O46 C48 1.254 . S
O47 Dy40 2.664 . S
O47 Dy43 2.310 . S
O47 C48 1.268 . S
C48 O46 1.254 . S
C48 O47 1.268 . S
C49 O54 1.254 . S
C49 O55 1.268 . S
O50 Dy43 2.351 . S
O50 C58 1.249 . S
O51 Dy40 2.326 . S
O51 C58 1.267 . S
O52 C41 1.185 . S
O52 Dy43 2.398 . S
O53 C41 1.355 . S
O53 Dy43 2.491 . S
O54 Dy43 2.403 . S
O54 C49 1.254 . S
O55 Dy40 2.310 . S
O55 Dy43 2.664 . S
O55 C49 1.268 . S
O56 Dy40 2.351 . S
O56 C59 1.249 . S
O57 Dy43 2.326 . S
O57 C59 1.267 . S
C58 O50 1.249 . S
C58 O51 1.267 . S
C59 O56 1.249 . S
C59 O57 1.267 . S
Dy60 O64 2.398 . S
Dy60 O65 2.491 . S
Dy60 O66 2.403 . S
Dy60 O67 2.664 . S
Dy60 O71 2.326 . S
Dy60 O75 2.310 . S
Dy60 O76 2.351 1_554 S
C61 O72 1.185 . S
C61 O73 1.355 . S
C62 O64 1.185 . S
C62 O65 1.355 . S
Dy63 O67 2.310 1_556 S
Dy63 O70 2.351 1_556 S
Dy63 O72 2.398 . S
Dy63 O73 2.491 . S
Dy63 O74 2.403 . S
Dy63 O75 2.664 1_556 S
Dy63 O77 2.326 . S
O64 Dy60 2.398 . S
O64 C62 1.185 . S
O65 Dy60 2.491 . S
O65 C62 1.355 . S
O66 Dy60 2.403 . S
O66 C68 1.254 . S
O67 Dy60 2.664 . S
O67 Dy63 2.310 1_554 S
O67 C68 1.268 . S
C68 O66 1.254 . S
C68 O67 1.268 . S
C69 O74 1.254 1_554 S
C69 O75 1.268 . S
O70 Dy63 2.351 1_554 S
O70 C78 1.249 . S
O71 Dy60 2.326 . S
O71 C78 1.267 . S
O72 C61 1.185 . S
O72 Dy63 2.398 . S
O73 C61 1.355 . S
O73 Dy63 2.491 . S
O74 Dy63 2.403 . S
O74 C69 1.254 1_556 S
O75 Dy60 2.310 . S
O75 Dy63 2.664 1_554 S
O75 C69 1.268 . S
O76 Dy60 2.351 1_556 S
O76 C79 1.249 . S
O77 Dy63 2.326 . S
O77 C79 1.267 . S
C78 O70 1.249 . S
C78 O71 1.267 . S
C79 O76 1.249 . S
C79 O77 1.267 . S
Dy80 O84 2.398 . S
Dy80 O85 2.491 . S
Dy80 O86 2.403 . S
Dy80 O87 2.664 . S
Dy80 O91 2.326 . S
Dy80 O95 2.310 . S
Dy80 O96 2.351 . S
C81 O92 1.185 . S
C81 O93 1.355 . S
C82 O84 1.185 . S
C82 O85 1.355 . S
Dy83 O87 2.310 . S
Dy83 O90 2.351 . S
Dy83 O92 2.398 . S
Dy83 O93 2.491 . S
Dy83 O94 2.403 . S
Dy83 O95 2.664 . S
Dy83 O97 2.326 . S
O84 Dy80 2.398 . S
O84 C82 1.185 . S
O85 Dy80 2.491 . S
O85 C82 1.355 . S
O86 Dy80 2.403 . S
O86 C88 1.254 . S
O87 Dy80 2.664 . S
O87 Dy83 2.310 . S
O87 C88 1.268 . S
C88 O86 1.254 . S
C88 O87 1.268 . S
C89 O94 1.254 . S
C89 O95 1.268 . S
O90 Dy83 2.351 . S
O90 C98 1.249 . S
O91 Dy80 2.326 . S
O91 C98 1.267 . S
O92 C81 1.185 . S
O92 Dy83 2.398 . S
O93 C81 1.355 . S
O93 Dy83 2.491 . S
O94 Dy83 2.403 . S
O94 C89 1.254 . S
O95 Dy80 2.310 . S
O95 Dy83 2.664 . S
O95 C89 1.268 . S
O96 Dy80 2.351 . S
O96 C99 1.249 . S
O97 Dy83 2.326 . S
O97 C99 1.267 . S
C98 O90 1.249 . S
C98 O91 1.267 . S
C99 O96 1.249 . S
C99 O97 1.267 . S
Dy100 O104 2.398 . S
Dy100 O105 2.491 . S
Dy100 O106 2.403 . S
Dy100 O107 2.664 . S
Dy100 O111 2.326 . S
Dy100 O115 2.310 . S
Dy100 O116 2.351 . S
C101 O112 1.185 . S
C101 O113 1.355 . S
C102 O104 1.185 . S
C102 O105 1.355 . S
Dy103 O107 2.310 . S
Dy103 O110 2.351 . S
Dy103 O112 2.398 . S
Dy103 O113 2.491 . S
Dy103 O114 2.403 . S
Dy103 O115 2.664 . S
Dy103 O117 2.326 . S
O104 Dy100 2.398 . S
O104 C102 1.185 . S
O105 Dy100 2.491 . S
O105 C102 1.355 . S
O106 Dy100 2.403 . S
O106 C108 1.254 . S
O107 Dy100 2.664 . S
O107 Dy103 2.310 . S
O107 C108 1.268 . S
C108 O106 1.254 . S
C108 O107 1.268 . S
C109 O114 1.254 . S
C109 O115 1.268 . S
O110 Dy103 2.351 . S
O110 C118 1.249 . S
O111 Dy100 2.326 . S
O111 C118 1.267 . S
O112 C101 1.185 . S
O112 Dy103 2.398 . S
O113 C101 1.355 . S
O113 Dy103 2.491 . S
O114 Dy103 2.403 . S
O114 C109 1.254 . S
O115 Dy100 2.310 . S
O115 Dy103 2.664 . S
O115 C109 1.268 . S
O116 Dy100 2.351 . S
O116 C119 1.249 . S
O117 Dy103 2.326 . S
O117 C119 1.267 . S
C118 O110 1.249 . S
C118 O111 1.267 . S
C119 O116 1.249 . S
C119 O117 1.267 . S
H120 C138 0.951 . S
H121 C140 0.951 . S
H122 C142 0.950 . S
H123 C143 0.950 . S
H124 C145 0.950 . S
H125 C148 0.950 . S
H126 C149 0.950 . S
H127 C151 0.950 . S
H128 C152 0.950 . S
H129 C153 0.951 . S
H130 C155 0.951 . S
H131 C157 0.950 . S
H132 C158 0.950 . S
H133 C160 0.950 . S
H134 C163 0.950 . S
H135 C164 0.950 . S
H136 C166 0.950 . S
H137 C167 0.950 . S
C138 H120 0.951 . S
C138 C139 1.366 . S
C138 C140 1.388 . S
C139 C138 1.366 . S
C139 C143 1.385 . S
C140 H121 0.951 . S
C140 C138 1.388 . S
C140 C141 1.366 . S
C141 C140 1.366 . S
C141 C142 1.414 . S
C141 C144 1.499 . S
C142 H122 0.950 . S
C142 C141 1.414 . S
C142 C143 1.374 . S
C143 H123 0.950 . S
C143 C139 1.385 . S
C143 C142 1.374 . S
C144 C141 1.499 . S
C144 C145 1.373 . S
C144 C146 1.389 . S
C145 H124 0.950 . S
C145 C144 1.373 . S
C145 C161 1.377 . S
C146 C144 1.389 . S
C146 C147 1.524 . S
C146 C160 1.377 . S
C147 C146 1.524 . S
C147 C148 1.397 . S
C147 C152 1.363 . S
C148 H125 0.950 . S
C148 C147 1.397 . S
C148 C149 1.334 . S
C149 H126 0.950 . S
C149 C148 1.334 . S
C149 C150 1.287 . S
C150 C149 1.287 . S
C150 C151 1.524 . S
C150 H169 0.913 . S
C151 H127 0.950 . S
C151 C150 1.524 . S
C151 C152 1.415 . S
C152 H128 0.950 . S
C152 C147 1.363 . S
C152 C151 1.415 . S
C153 H129 0.951 . S
C153 C154 1.366 . S
C153 C155 1.388 . S
C154 C153 1.366 . S
C154 C158 1.385 . S
C155 H130 0.951 . S
C155 C153 1.388 . S
C155 C156 1.366 . S
C156 C155 1.366 . S
C156 C157 1.414 . S
C156 C159 1.499 . S
C157 H131 0.950 . S
C157 C156 1.414 . S
C157 C158 1.374 . S
C158 H132 0.950 . S
C158 C154 1.385 . S
C158 C157 1.374 . S
C159 C156 1.499 . S
C159 C160 1.373 . S
C159 C161 1.389 . S
C160 H133 0.950 . S
C160 C146 1.377 . S
C160 C159 1.373 . S
C161 C145 1.377 . S
C161 C159 1.389 . S
C161 C162 1.524 . S
C162 C161 1.524 . S
C162 C163 1.397 . S
C162 C167 1.363 . S
C163 H134 0.950 . S
C163 C162 1.397 . S
C163 C164 1.334 . S
C164 H135 0.950 . S
C164 C163 1.334 . S
C164 C165 1.287 . S
C165 C164 1.287 . S
C165 C166 1.524 . S
C165 H168 0.999 . S
C166 H136 0.950 . S
C166 C165 1.524 . S
C166 C167 1.415 . S
C167 H137 0.950 . S
C167 C162 1.363 . S
C167 C166 1.415 . S
H168 C165 0.999 . S
H169 C150 0.913 . S
H170 C188 0.951 . S
H171 C190 0.951 . S
H172 C192 0.950 . S
H173 C193 0.950 . S
H174 C195 0.950 . S
H175 C198 0.950 . S
H176 C199 0.950 . S
H177 C201 0.950 . S
H178 C202 0.950 . S
H179 C203 0.951 . S
H180 C205 0.951 . S
H181 C207 0.950 . S
H182 C208 0.950 . S
H183 C210 0.950 . S
H184 C213 0.950 . S
H185 C214 0.950 . S
H186 C216 0.950 . S
H187 C217 0.950 . S
C188 H170 0.951 . S
C188 C189 1.366 . S
C188 C190 1.388 . S
C189 C188 1.366 . S
C189 C193 1.385 . S
C190 H171 0.951 . S
C190 C188 1.388 . S
C190 C191 1.366 . S
C191 C190 1.366 . S
C191 C192 1.414 . S
C191 C194 1.499 . S
C192 H172 0.950 . S
C192 C191 1.414 . S
C192 C193 1.374 . S
C193 H173 0.950 . S
C193 C189 1.385 . S
C193 C192 1.374 . S
C194 C191 1.499 . S
C194 C195 1.373 . S
C194 C196 1.389 . S
C195 H174 0.950 . S
C195 C194 1.373 . S
C195 C211 1.377 . S
C196 C194 1.389 . S
C196 C197 1.524 . S
C196 C210 1.377 . S
C197 C196 1.524 . S
C197 C198 1.397 . S
C197 C202 1.363 . S
C198 H175 0.950 . S
C198 C197 1.397 . S
C198 C199 1.334 . S
C199 H176 0.950 . S
C199 C198 1.334 . S
C199 C200 1.287 . S
C200 C199 1.287 . S
C200 C201 1.524 . S
C200 H219 0.913 . S
C201 H177 0.950 . S
C201 C200 1.524 . S
C201 C202 1.415 . S
C202 H178 0.950 . S
C202 C197 1.363 . S
C202 C201 1.415 . S
C203 H179 0.951 . S
C203 C204 1.366 . S
C203 C205 1.388 . S
C204 C203 1.366 . S
C204 C208 1.385 . S
C205 H180 0.951 . S
C205 C203 1.388 . S
C205 C206 1.366 . S
C206 C205 1.366 . S
C206 C207 1.414 . S
C206 C209 1.499 . S
C207 H181 0.950 . S
C207 C206 1.414 . S
C207 C208 1.374 . S
C208 H182 0.950 . S
C208 C204 1.385 . S
C208 C207 1.374 . S
C209 C206 1.499 . S
C209 C210 1.373 . S
C209 C211 1.389 . S
C210 H183 0.950 . S
C210 C196 1.377 . S
C210 C209 1.373 . S
C211 C195 1.377 . S
C211 C209 1.389 . S
C211 C212 1.524 . S
C212 C211 1.524 . S
C212 C213 1.397 . S
C212 C217 1.363 . S
C213 H184 0.950 . S
C213 C212 1.397 . S
C213 C214 1.334 . S
C214 H185 0.950 . S
C214 C213 1.334 . S
C214 C215 1.287 . S
C215 C214 1.287 . S
C215 C216 1.524 . S
C215 H218 0.999 . S
C216 H186 0.950 . S
C216 C215 1.524 . S
C216 C217 1.415 . S
C217 H187 0.950 . S
C217 C212 1.363 . S
C217 C216 1.415 . S
H218 C215 0.999 . S
H219 C200 0.913 . S
H220 C238 0.951 . S
H221 C240 0.951 . S
H222 C242 0.950 . S
H223 C243 0.950 . S
H224 C245 0.950 . S
H225 C248 0.950 . S
H226 C249 0.950 . S
H227 C251 0.950 . S
H228 C252 0.950 . S
H229 C253 0.951 . S
H230 C255 0.951 . S
H231 C257 0.950 . S
H232 C258 0.950 . S
H233 C260 0.950 . S
H234 C263 0.950 . S
H235 C264 0.950 . S
H236 C266 0.950 . S
H237 C267 0.950 . S
C238 H220 0.951 . S
C238 C239 1.366 . S
C238 C240 1.388 . S
C239 C238 1.366 . S
C239 C243 1.385 . S
C240 H221 0.951 . S
C240 C238 1.388 . S
C240 C241 1.366 . S
C241 C240 1.366 . S
C241 C242 1.414 . S
C241 C244 1.499 . S
C242 H222 0.950 . S
C242 C241 1.414 . S
C242 C243 1.374 . S
C243 H223 0.950 . S
C243 C239 1.385 . S
C243 C242 1.374 . S
C244 C241 1.499 . S
C244 C245 1.373 . S
C244 C246 1.389 . S
C245 H224 0.950 . S
C245 C244 1.373 . S
C245 C261 1.377 . S
C246 C244 1.389 . S
C246 C247 1.524 . S
C246 C260 1.377 . S
C247 C246 1.524 . S
C247 C248 1.397 . S
C247 C252 1.363 . S
C248 H225 0.950 . S
C248 C247 1.397 . S
C248 C249 1.334 . S
C249 H226 0.950 . S
C249 C248 1.334 . S
C249 C250 1.287 . S
C250 C249 1.287 . S
C250 C251 1.524 . S
C250 H269 0.913 . S
C251 H227 0.950 . S
C251 C250 1.524 . S
C251 C252 1.415 . S
C252 H228 0.950 . S
C252 C247 1.363 . S
C252 C251 1.415 . S
C253 H229 0.951 . S
C253 C254 1.366 . S
C253 C255 1.388 . S
C254 C253 1.366 . S
C254 C258 1.385 . S
C255 H230 0.951 . S
C255 C253 1.388 . S
C255 C256 1.366 . S
C256 C255 1.366 . S
C256 C257 1.414 . S
C256 C259 1.499 . S
C257 H231 0.950 . S
C257 C256 1.414 . S
C257 C258 1.374 . S
C258 H232 0.950 . S
C258 C254 1.385 . S
C258 C257 1.374 . S
C259 C256 1.499 . S
C259 C260 1.373 . S
C259 C261 1.389 . S
C260 H233 0.950 . S
C260 C246 1.377 . S
C260 C259 1.373 . S
C261 C245 1.377 . S
C261 C259 1.389 . S
C261 C262 1.524 . S
C262 C261 1.524 . S
C262 C263 1.397 . S
C262 C267 1.363 . S
C263 H234 0.950 . S
C263 C262 1.397 . S
C263 C264 1.334 . S
C264 H235 0.950 . S
C264 C263 1.334 . S
C264 C265 1.287 . S
C265 C264 1.287 . S
C265 C266 1.524 . S
C265 H268 0.999 . S
C266 H236 0.950 . S
C266 C265 1.524 . S
C266 C267 1.415 . S
C267 H237 0.950 . S
C267 C262 1.363 . S
C267 C266 1.415 . S
H268 C265 0.999 . S
H269 C250 0.913 . S
H270 C288 0.951 . S
H271 C290 0.951 . S
H272 C292 0.950 . S
H273 C293 0.950 . S
H274 C295 0.950 . S
H275 C298 0.950 . S
H276 C299 0.950 . S
H277 C301 0.950 . S
H278 C302 0.950 . S
H279 C303 0.951 . S
H280 C305 0.951 . S
H281 C307 0.950 . S
H282 C308 0.950 . S
H283 C310 0.950 . S
H284 C313 0.950 . S
H285 C314 0.950 . S
H286 C316 0.950 . S
H287 C317 0.950 . S
C288 H270 0.951 . S
C288 C289 1.366 . S
C288 C290 1.388 . S
C289 C288 1.366 . S
C289 C293 1.385 . S
C290 H271 0.951 . S
C290 C288 1.388 . S
C290 C291 1.366 . S
C291 C290 1.366 . S
C291 C292 1.414 . S
C291 C294 1.499 . S
C292 H272 0.950 . S
C292 C291 1.414 . S
C292 C293 1.374 . S
C293 H273 0.950 . S
C293 C289 1.385 . S
C293 C292 1.374 . S
C294 C291 1.499 . S
C294 C295 1.373 . S
C294 C296 1.389 . S
C295 H274 0.950 . S
C295 C294 1.373 . S
C295 C311 1.377 . S
C296 C294 1.389 . S
C296 C297 1.524 . S
C296 C310 1.377 . S
C297 C296 1.524 . S
C297 C298 1.397 . S
C297 C302 1.363 . S
C298 H275 0.950 . S
C298 C297 1.397 . S
C298 C299 1.334 . S
C299 H276 0.950 . S
C299 C298 1.334 . S
C299 C300 1.287 . S
C300 C299 1.287 . S
C300 C301 1.524 . S
C300 H319 0.913 . S
C301 H277 0.950 . S
C301 C300 1.524 . S
C301 C302 1.415 . S
C302 H278 0.950 . S
C302 C297 1.363 . S
C302 C301 1.415 . S
C303 H279 0.951 . S
C303 C304 1.366 . S
C303 C305 1.388 . S
C304 C303 1.366 . S
C304 C308 1.385 . S
C305 H280 0.951 . S
C305 C303 1.388 . S
C305 C306 1.366 . S
C306 C305 1.366 . S
C306 C307 1.414 . S
C306 C309 1.499 . S
C307 H281 0.950 . S
C307 C306 1.414 . S
C307 C308 1.374 . S
C308 H282 0.950 . S
C308 C304 1.385 . S
C308 C307 1.374 . S
C309 C306 1.499 . S
C309 C310 1.373 . S
C309 C311 1.389 . S
C310 H283 0.950 . S
C310 C296 1.377 . S
C310 C309 1.373 . S
C311 C295 1.377 . S
C311 C309 1.389 . S
C311 C312 1.524 . S
C312 C311 1.524 . S
C312 C313 1.397 . S
C312 C317 1.363 . S
C313 H284 0.950 . S
C313 C312 1.397 . S
C313 C314 1.334 . S
C314 H285 0.950 . S
C314 C313 1.334 . S
C314 C315 1.287 . S
C315 C314 1.287 . S
C315 C316 1.524 . S
C315 H318 0.999 . S
C316 H286 0.950 . S
C316 C315 1.524 . S
C316 C317 1.415 . S
C317 H287 0.950 . S
C317 C312 1.363 . S
C317 C316 1.415 . S
H318 C315 0.999 . S
H319 C300 0.913 . S
H320 C338 0.951 . S
H321 C340 0.951 . S
H322 C342 0.950 . S
H323 C343 0.950 . S
H324 C345 0.950 . S
H325 C348 0.950 . S
H326 C349 0.950 . S
H327 C351 0.950 . S
H328 C352 0.950 . S
H329 C353 0.951 . S
H330 C355 0.951 . S
H331 C357 0.950 . S
H332 C358 0.950 . S
H333 C360 0.950 . S
H334 C363 0.950 . S
H335 C364 0.950 . S
H336 C366 0.950 . S
H337 C367 0.950 . S
C338 H320 0.951 . S
C338 C339 1.366 . S
C338 C340 1.388 . S
C339 C338 1.366 . S
C339 C343 1.385 . S
C340 H321 0.951 . S
C340 C338 1.388 . S
C340 C341 1.366 . S
C341 C340 1.366 . S
C341 C342 1.414 . S
C341 C344 1.499 . S
C342 H322 0.950 . S
C342 C341 1.414 . S
C342 C343 1.374 . S
C343 H323 0.950 . S
C343 C339 1.385 . S
C343 C342 1.374 . S
C344 C341 1.499 . S
C344 C345 1.373 . S
C344 C346 1.389 . S
C345 H324 0.950 . S
C345 C344 1.373 . S
C345 C361 1.377 . S
C346 C344 1.389 . S
C346 C347 1.524 . S
C346 C360 1.377 . S
C347 C346 1.524 . S
C347 C348 1.397 . S
C347 C352 1.363 . S
C348 H325 0.950 . S
C348 C347 1.397 . S
C348 C349 1.334 . S
C349 H326 0.950 . S
C349 C348 1.334 . S
C349 C350 1.287 . S
C350 C349 1.287 . S
C350 C351 1.524 . S
C350 H369 0.913 . S
C351 H327 0.950 . S
C351 C350 1.524 . S
C351 C352 1.415 . S
C352 H328 0.950 . S
C352 C347 1.363 . S
C352 C351 1.415 . S
C353 H329 0.951 . S
C353 C354 1.366 . S
C353 C355 1.388 . S
C354 C353 1.366 . S
C354 C358 1.385 . S
C355 H330 0.951 . S
C355 C353 1.388 . S
C355 C356 1.366 . S
C356 C355 1.366 . S
C356 C357 1.414 . S
C356 C359 1.499 . S
C357 H331 0.950 . S
C357 C356 1.414 . S
C357 C358 1.374 . S
C358 H332 0.950 . S
C358 C354 1.385 . S
C358 C357 1.374 . S
C359 C356 1.499 . S
C359 C360 1.373 . S
C359 C361 1.389 . S
C360 H333 0.950 . S
C360 C346 1.377 . S
C360 C359 1.373 . S
C361 C345 1.377 . S
C361 C359 1.389 . S
C361 C362 1.524 . S
C362 C361 1.524 . S
C362 C363 1.397 . S
C362 C367 1.363 . S
C363 H334 0.950 . S
C363 C362 1.397 . S
C363 C364 1.334 . S
C364 H335 0.950 . S
C364 C363 1.334 . S
C364 C365 1.287 . S
C365 C364 1.287 . S
C365 C366 1.524 . S
C365 H368 0.999 . S
C366 H336 0.950 . S
C366 C365 1.524 . S
C366 C367 1.415 . S
C367 H337 0.950 . S
C367 C362 1.363 . S
C367 C366 1.415 . S
H368 C365 0.999 . S
H369 C350 0.913 . S
H370 C388 0.951 . S
H371 C390 0.951 . S
H372 C392 0.950 . S
H373 C393 0.950 . S
H374 C395 0.950 . S
H375 C398 0.950 . S
H376 C399 0.950 . S
H377 C401 0.950 . S
H378 C402 0.950 . S
H379 C403 0.951 . S
H380 C405 0.951 . S
H381 C407 0.950 . S
H382 C408 0.950 . S
H383 C410 0.950 . S
H384 C413 0.950 . S
H385 C414 0.950 . S
H386 C416 0.950 . S
H387 C417 0.950 . S
C388 H370 0.951 . S
C388 C389 1.366 . S
C388 C390 1.388 . S
C389 C388 1.366 . S
C389 C393 1.385 . S
C390 H371 0.951 . S
C390 C388 1.388 . S
C390 C391 1.366 . S
C391 C390 1.366 . S
C391 C392 1.414 . S
C391 C394 1.499 . S
C392 H372 0.950 . S
C392 C391 1.414 . S
C392 C393 1.374 . S
C393 H373 0.950 . S
C393 C389 1.385 . S
C393 C392 1.374 . S
C394 C391 1.499 . S
C394 C395 1.373 . S
C394 C396 1.389 . S
C395 H374 0.950 . S
C395 C394 1.373 . S
C395 C411 1.377 . S
C396 C394 1.389 . S
C396 C397 1.524 . S
C396 C410 1.377 . S
C397 C396 1.524 . S
C397 C398 1.397 . S
C397 C402 1.363 . S
C398 H375 0.950 . S
C398 C397 1.397 . S
C398 C399 1.334 . S
C399 H376 0.950 . S
C399 C398 1.334 . S
C399 C400 1.287 . S
C400 C399 1.287 . S
C400 C401 1.524 . S
C400 H419 0.913 . S
C401 H377 0.950 . S
C401 C400 1.524 . S
C401 C402 1.415 . S
C402 H378 0.950 . S
C402 C397 1.363 . S
C402 C401 1.415 . S
C403 H379 0.951 . S
C403 C404 1.366 . S
C403 C405 1.388 . S
C404 C403 1.366 . S
C404 C408 1.385 . S
C405 H380 0.951 . S
C405 C403 1.388 . S
C405 C406 1.366 . S
C406 C405 1.366 . S
C406 C407 1.414 . S
C406 C409 1.499 . S
C407 H381 0.950 . S
C407 C406 1.414 . S
C407 C408 1.374 . S
C408 H382 0.950 . S
C408 C404 1.385 . S
C408 C407 1.374 . S
C409 C406 1.499 . S
C409 C410 1.373 . S
C409 C411 1.389 . S
C410 H383 0.950 . S
C410 C396 1.377 . S
C410 C409 1.373 . S
C411 C395 1.377 . S
C411 C409 1.389 . S
C411 C412 1.524 . S
C412 C411 1.524 . S
C412 C413 1.397 . S
C412 C417 1.363 . S
C413 H384 0.950 . S
C413 C412 1.397 . S
C413 C414 1.334 . S
C414 H385 0.950 . S
C414 C413 1.334 . S
C414 C415 1.287 . S
C415 C414 1.287 . S
C415 C416 1.524 . S
C415 H418 0.999 . S
C416 H386 0.950 . S
C416 C415 1.524 . S
C416 C417 1.415 . S
C417 H387 0.950 . S
C417 C412 1.363 . S
C417 C416 1.415 . S
H418 C415 0.999 . S
H419 C400 0.913 . S
H420 C438 0.951 . S
H421 C440 0.951 . S
H422 C442 0.950 . S
H423 C443 0.950 . S
H424 C445 0.950 . S
H425 C448 0.950 . S
H426 C449 0.950 . S
H427 C451 0.950 . S
H428 C452 0.950 . S
H429 C453 0.951 . S
H430 C455 0.951 . S
H431 C457 0.950 . S
H432 C458 0.950 . S
H433 C460 0.950 . S
H434 C463 0.950 . S
H435 C464 0.950 . S
H436 C466 0.950 . S
H437 C467 0.950 . S
C438 H420 0.951 . S
C438 C439 1.366 . S
C438 C440 1.388 . S
C439 C438 1.366 . S
C439 C443 1.385 . S
C440 H421 0.951 . S
C440 C438 1.388 . S
C440 C441 1.366 . S
C441 C440 1.366 . S
C441 C442 1.414 . S
C441 C444 1.499 . S
C442 H422 0.950 . S
C442 C441 1.414 . S
C442 C443 1.374 . S
C443 H423 0.950 . S
C443 C439 1.385 . S
C443 C442 1.374 . S
C444 C441 1.499 . S
C444 C445 1.373 . S
C444 C446 1.389 . S
C445 H424 0.950 . S
C445 C444 1.373 . S
C445 C461 1.377 . S
C446 C444 1.389 . S
C446 C447 1.524 1_554 S
C446 C460 1.377 . S
C447 C446 1.524 1_556 S
C447 C448 1.397 . S
C447 C452 1.363 1_556 S
C448 H425 0.950 . S
C448 C447 1.397 . S
C448 C449 1.334 . S
C449 H426 0.950 . S
C449 C448 1.334 . S
C449 C450 1.287 . S
C450 C449 1.287 . S
C450 C451 1.524 . S
C450 H469 0.913 . S
C451 H427 0.950 . S
C451 C450 1.524 . S
C451 C452 1.415 1_556 S
C452 H428 0.950 . S
C452 C447 1.363 1_554 S
C452 C451 1.415 1_554 S
C453 H429 0.951 . S
C453 C454 1.366 . S
C453 C455 1.388 . S
C454 C453 1.366 . S
C454 C458 1.385 . S
C455 H430 0.951 . S
C455 C453 1.388 . S
C455 C456 1.366 . S
C456 C455 1.366 . S
C456 C457 1.414 . S
C456 C459 1.499 . S
C457 H431 0.950 . S
C457 C456 1.414 . S
C457 C458 1.374 . S
C458 H432 0.950 . S
C458 C454 1.385 . S
C458 C457 1.374 . S
C459 C456 1.499 . S
C459 C460 1.373 . S
C459 C461 1.389 . S
C460 H433 0.950 . S
C460 C446 1.377 . S
C460 C459 1.373 . S
C461 C445 1.377 . S
C461 C459 1.389 . S
C461 C462 1.524 . S
C462 C461 1.524 . S
C462 C463 1.397 . S
C462 C467 1.363 . S
C463 H434 0.950 . S
C463 C462 1.397 . S
C463 C464 1.334 . S
C464 H435 0.950 . S
C464 C463 1.334 . S
C464 C465 1.287 . S
C465 C464 1.287 . S
C465 C466 1.524 . S
C465 H468 0.999 . S
C466 H436 0.950 . S
C466 C465 1.524 . S
C466 C467 1.415 . S
C467 H437 0.950 . S
C467 C462 1.363 . S
C467 C466 1.415 . S
H468 C465 0.999 . S
H469 C450 0.913 . S
H470 C488 0.951 . S
H471 C490 0.951 . S
H472 C492 0.950 . S
H473 C493 0.950 . S
H474 C495 0.950 . S
H475 C498 0.950 . S
H476 C499 0.950 . S
H477 C501 0.950 . S
H478 C502 0.950 . S
H479 C503 0.951 . S
H480 C505 0.951 . S
H481 C507 0.950 . S
H482 C508 0.950 . S
H483 C510 0.950 . S
H484 C513 0.950 . S
H485 C514 0.950 . S
H486 C516 0.950 . S
H487 C517 0.950 . S
C488 H470 0.951 . S
C488 C489 1.366 . S
C488 C490 1.388 . S
C489 C488 1.366 . S
C489 C493 1.385 . S
C490 H471 0.951 . S
C490 C488 1.388 . S
C490 C491 1.366 . S
C491 C490 1.366 . S
C491 C492 1.414 . S
C491 C494 1.499 . S
C492 H472 0.950 . S
C492 C491 1.414 . S
C492 C493 1.374 . S
C493 H473 0.950 . S
C493 C489 1.385 . S
C493 C492 1.374 . S
C494 C491 1.499 . S
C494 C495 1.373 . S
C494 C496 1.389 1_455 S
C495 H474 0.950 . S
C495 C494 1.373 . S
C495 C511 1.377 . S
C496 C494 1.389 1_655 S
C496 C497 1.524 . S
C496 C510 1.377 . S
C497 C496 1.524 . S
C497 C498 1.397 1_655 S
C497 C502 1.363 . S
C498 H475 0.950 . S
C498 C497 1.397 1_455 S
C498 C499 1.334 . S
C499 H476 0.950 . S
C499 C498 1.334 . S
C499 C500 1.287 1_455 S
C500 C499 1.287 1_655 S
C500 C501 1.524 . S
C500 H519 0.913 . S
C501 H477 0.950 . S
C501 C500 1.524 . S
C501 C502 1.415 . S
C502 H478 0.950 . S
C502 C497 1.363 . S
C502 C501 1.415 . S
C503 H479 0.951 . S
C503 C504 1.366 . S
C503 C505 1.388 . S
C504 C503 1.366 . S
C504 C508 1.385 . S
C505 H480 0.951 . S
C505 C503 1.388 . S
C505 C506 1.366 . S
C506 C505 1.366 . S
C506 C507 1.414 . S
C506 C509 1.499 . S
C507 H481 0.950 . S
C507 C506 1.414 . S
C507 C508 1.374 . S
C508 H482 0.950 . S
C508 C504 1.385 . S
C508 C507 1.374 . S
C509 C506 1.499 . S
C509 C510 1.373 . S
C509 C511 1.389 1_655 S
C510 H483 0.950 . S
C510 C496 1.377 . S
C510 C509 1.373 . S
C511 C495 1.377 . S
C511 C509 1.389 1_455 S
C511 C512 1.524 . S
C512 C511 1.524 . S
C512 C513 1.397 1_455 S
C512 C517 1.363 . S
C513 H484 0.950 . S
C513 C512 1.397 1_655 S
C513 C514 1.334 . S
C514 H485 0.950 . S
C514 C513 1.334 . S
C514 C515 1.287 1_655 S
C515 C514 1.287 1_455 S
C515 C516 1.524 . S
C515 H518 0.999 . S
C516 H486 0.950 . S
C516 C515 1.524 . S
C516 C517 1.415 . S
C517 H487 0.950 . S
C517 C512 1.363 . S
C517 C516 1.415 . S
H518 C515 0.999 . S
H519 C500 0.913 . S
H520 C538 0.951 . S
H521 C540 0.951 . S
H522 C542 0.950 . S
H523 C543 0.950 . S
H524 C545 0.950 . S
H525 C548 0.950 . S
H526 C549 0.950 . S
H527 C551 0.950 . S
H528 C552 0.950 . S
H529 C553 0.951 . S
H530 C555 0.951 . S
H531 C557 0.950 . S
H532 C558 0.950 . S
H533 C560 0.950 . S
H534 C563 0.950 . S
H535 C564 0.950 . S
H536 C566 0.950 . S
H537 C567 0.950 . S
C538 H520 0.951 . S
C538 C539 1.366 . S
C538 C540 1.388 . S
C539 C538 1.366 . S
C539 C543 1.385 . S
C540 H521 0.951 . S
C540 C538 1.388 . S
C540 C541 1.366 . S
C541 C540 1.366 . S
C541 C542 1.414 . S
C541 C544 1.499 . S
C542 H522 0.950 . S
C542 C541 1.414 . S
C542 C543 1.374 . S
C543 H523 0.950 . S
C543 C539 1.385 . S
C543 C542 1.374 . S
C544 C541 1.499 . S
C544 C545 1.373 1_545 S
C544 C546 1.389 . S
C545 H524 0.950 . S
C545 C544 1.373 1_565 S
C545 C561 1.377 . S
C546 C544 1.389 . S
C546 C547 1.524 . S
C546 C560 1.377 . S
C547 C546 1.524 . S
C547 C548 1.397 . S
C547 C552 1.363 . S
C548 H525 0.950 . S
C548 C547 1.397 . S
C548 C549 1.334 . S
C549 H526 0.950 . S
C549 C548 1.334 . S
C549 C550 1.287 . S
C550 C549 1.287 . S
C550 C551 1.524 . S
C550 H569 0.913 . S
C551 H527 0.950 . S
C551 C550 1.524 . S
C551 C552 1.415 . S
C552 H528 0.950 . S
C552 C547 1.363 . S
C552 C551 1.415 . S
C553 H529 0.951 . S
C553 C554 1.366 . S
C553 C555 1.388 . S
C554 C553 1.366 . S
C554 C558 1.385 . S
C555 H530 0.951 . S
C555 C553 1.388 . S
C555 C556 1.366 . S
C556 C555 1.366 . S
C556 C557 1.414 . S
C556 C559 1.499 . S
C557 H531 0.950 . S
C557 C556 1.414 . S
C557 C558 1.374 . S
C558 H532 0.950 . S
C558 C554 1.385 . S
C558 C557 1.374 . S
C559 C556 1.499 . S
C559 C560 1.373 1_565 S
C559 C561 1.389 . S
C560 H533 0.950 . S
C560 C546 1.377 . S
C560 C559 1.373 1_545 S
C561 C545 1.377 . S
C561 C559 1.389 . S
C561 C562 1.524 . S
C562 C561 1.524 . S
C562 C563 1.397 . S
C562 C567 1.363 . S
C563 H534 0.950 . S
C563 C562 1.397 . S
C563 C564 1.334 . S
C564 H535 0.950 . S
C564 C563 1.334 . S
C564 C565 1.287 . S
C565 C564 1.287 . S
C565 C566 1.524 . S
C565 H568 0.999 . S
C566 H536 0.950 . S
C566 C565 1.524 . S
C566 C567 1.415 . S
C567 H537 0.950 . S
C567 C562 1.363 . S
C567 C566 1.415 . S
H568 C565 0.999 . S
H569 C550 0.913 . S
H570 C588 0.951 . S
H571 C590 0.951 . S
H572 C592 0.950 . S
H573 C593 0.950 . S
H574 C595 0.950 . S
H575 C598 0.950 . S
H576 C599 0.950 . S
H577 C601 0.950 . S
H578 C602 0.950 . S
H579 C603 0.951 . S
H580 C605 0.951 . S
H581 C607 0.950 . S
H582 C608 0.950 . S
H583 C610 0.950 . S
H584 C613 0.950 . S
H585 C614 0.950 . S
H586 C616 0.950 . S
H587 C617 0.950 . S
C588 H570 0.951 . S
C588 C589 1.366 . S
C588 C590 1.388 . S
C589 C588 1.366 . S
C589 C593 1.385 . S
C590 H571 0.951 . S
C590 C588 1.388 . S
C590 C591 1.366 . S
C591 C590 1.366 . S
C591 C592 1.414 . S
C591 C594 1.499 . S
C592 H572 0.950 . S
C592 C591 1.414 . S
C592 C593 1.374 . S
C593 H573 0.950 . S
C593 C589 1.385 . S
C593 C592 1.374 . S
C594 C591 1.499 . S
C594 C595 1.373 . S
C594 C596 1.389 . S
C595 H574 0.950 . S
C595 C594 1.373 . S
C595 C611 1.377 . S
C596 C594 1.389 . S
C596 C597 1.524 . S
C596 C610 1.377 . S
C597 C596 1.524 . S
C597 C598 1.397 . S
C597 C602 1.363 . S
C598 H575 0.950 . S
C598 C597 1.397 . S
C598 C599 1.334 . S
C599 H576 0.950 . S
C599 C598 1.334 . S
C599 C600 1.287 . S
C600 C599 1.287 . S
C600 C601 1.524 . S
C600 H619 0.913 . S
C601 H577 0.950 . S
C601 C600 1.524 . S
C601 C602 1.415 . S
C602 H578 0.950 . S
C602 C597 1.363 . S
C602 C601 1.415 . S
C603 H579 0.951 . S
C603 C604 1.366 . S
C603 C605 1.388 . S
C604 C603 1.366 . S
C604 C608 1.385 . S
C605 H580 0.951 . S
C605 C603 1.388 . S
C605 C606 1.366 . S
C606 C605 1.366 . S
C606 C607 1.414 . S
C606 C609 1.499 . S
C607 H581 0.950 . S
C607 C606 1.414 . S
C607 C608 1.374 . S
C608 H582 0.950 . S
C608 C604 1.385 . S
C608 C607 1.374 . S
C609 C606 1.499 . S
C609 C610 1.373 . S
C609 C611 1.389 . S
C610 H583 0.950 . S
C610 C596 1.377 . S
C610 C609 1.373 . S
C611 C595 1.377 . S
C611 C609 1.389 . S
C611 C612 1.524 . S
C612 C611 1.524 . S
C612 C613 1.397 . S
C612 C617 1.363 . S
C613 H584 0.950 . S
C613 C612 1.397 . S
C613 C614 1.334 . S
C614 H585 0.950 . S
C614 C613 1.334 . S
C614 C615 1.287 . S
C615 C614 1.287 . S
C615 C616 1.524 . S
C615 H618 0.999 . S
C616 H586 0.950 . S
C616 C615 1.524 . S
C616 C617 1.415 . S
C617 H587 0.950 . S
C617 C612 1.363 . S
C617 C616 1.415 . S
H618 C615 0.999 . S
H619 C600 0.913 . S
H620 C638 0.951 . S
H621 C640 0.951 . S
H622 C642 0.950 . S
H623 C643 0.950 . S
H624 C645 0.950 . S
H625 C648 0.950 1_554 S
H626 C649 0.950 . S
H627 C651 0.950 . S
H628 C652 0.950 . S
H629 C653 0.951 . S
H630 C655 0.951 . S
H631 C657 0.950 . S
H632 C658 0.950 . S
H633 C660 0.950 . S
H634 C663 0.950 1_556 S
H635 C664 0.950 . S
H636 C666 0.950 . S
H637 C667 0.950 . S
C638 H620 0.951 . S
C638 C639 1.366 1_556 S
C638 C640 1.388 . S
C639 C638 1.366 1_554 S
C639 C643 1.385 . S
C640 H621 0.951 . S
C640 C638 1.388 . S
C640 C641 1.366 1_556 S
C641 C640 1.366 1_554 S
C641 C642 1.414 . S
C641 C644 1.499 . S
C642 H622 0.950 . S
C642 C641 1.414 . S
C642 C643 1.374 . S
C643 H623 0.950 . S
C643 C639 1.385 . S
C643 C642 1.374 . S
C644 C641 1.499 . S
C644 C645 1.373 1_455 S
C644 C646 1.389 1_554 S
C645 H624 0.950 . S
C645 C644 1.373 1_655 S
C645 C661 1.377 . S
C646 C644 1.389 1_556 S
C646 C647 1.524 . S
C646 C660 1.377 . S
C647 C646 1.524 . S
C647 C648 1.397 . S
C647 C652 1.363 . S
C648 H625 0.950 1_556 S
C648 C647 1.397 . S
C648 C649 1.334 . S
C649 H626 0.950 . S
C649 C648 1.334 . S
C649 C650 1.287 . S
C650 C649 1.287 . S
C650 C651 1.524 . S
C650 H669 0.913 . S
C651 H627 0.950 . S
C651 C650 1.524 . S
C651 C652 1.415 . S
C652 H628 0.950 . S
C652 C647 1.363 . S
C652 C651 1.415 . S
C653 H629 0.951 . S
C653 C654 1.366 . S
C653 C655 1.388 . S
C654 C653 1.366 . S
C654 C658 1.385 1_554 S
C655 H630 0.951 . S
C655 C653 1.388 . S
C655 C656 1.366 . S
C656 C655 1.366 . S
C656 C657 1.414 1_554 S
C656 C659 1.499 . S
C657 H631 0.950 . S
C657 C656 1.414 1_556 S
C657 C658 1.374 . S
C658 H632 0.950 . S
C658 C654 1.385 1_556 S
C658 C657 1.374 . S
C659 C656 1.499 . S
C659 C660 1.373 1_654 S
C659 C661 1.389 . S
C660 H633 0.950 . S
C660 C646 1.377 . S
C660 C659 1.373 1_456 S
C661 C645 1.377 . S
C661 C659 1.389 . S
C661 C662 1.524 . S
C662 C661 1.524 . S
C662 C663 1.397 . S
C662 C667 1.363 . S
C663 H634 0.950 1_554 S
C663 C662 1.397 . S
C663 C664 1.334 . S
C664 H635 0.950 . S
C664 C663 1.334 . S
C664 C665 1.287 . S
C665 C664 1.287 . S
C665 C666 1.524 . S
C665 H668 0.999 . S
C666 H636 0.950 . S
C666 C665 1.524 . S
C666 C667 1.415 . S
C667 H637 0.950 . S
C667 C662 1.363 . S
C667 C666 1.415 . S
H668 C665 0.999 . S
H669 C650 0.913 . S
H670 C688 0.951 . S
H671 C690 0.951 . S
H672 C692 0.950 . S
H673 C693 0.950 . S
H674 C695 0.950 . S
H675 C698 0.950 . S
H676 C699 0.950 . S
H677 C701 0.950 . S
H678 C702 0.950 . S
H679 C703 0.951 . S
H680 C705 0.951 . S
H681 C707 0.950 . S
H682 C708 0.950 . S
H683 C710 0.950 . S
H684 C713 0.950 . S
H685 C714 0.950 . S
H686 C716 0.950 . S
H687 C717 0.950 . S
C688 H670 0.951 . S
C688 C689 1.366 . S
C688 C690 1.388 . S
C689 C688 1.366 . S
C689 C693 1.385 . S
C690 H671 0.951 . S
C690 C688 1.388 . S
C690 C691 1.366 . S
C691 C690 1.366 . S
C691 C692 1.414 . S
C691 C694 1.499 . S
C692 H672 0.950 . S
C692 C691 1.414 . S
C692 C693 1.374 . S
C693 H673 0.950 . S
C693 C689 1.385 . S
C693 C692 1.374 . S
C694 C691 1.499 . S
C694 C695 1.373 1_565 S
C694 C696 1.389 . S
C695 H674 0.950 . S
C695 C694 1.373 1_545 S
C695 C711 1.377 . S
C696 C694 1.389 . S
C696 C697 1.524 . S
C696 C710 1.377 . S
C697 C696 1.524 . S
C697 C698 1.397 . S
C697 C702 1.363 . S
C698 H675 0.950 . S
C698 C697 1.397 . S
C698 C699 1.334 . S
C699 H676 0.950 . S
C699 C698 1.334 . S
C699 C700 1.287 . S
C700 C699 1.287 . S
C700 C701 1.524 . S
C700 H719 0.913 . S
C701 H677 0.950 . S
C701 C700 1.524 . S
C701 C702 1.415 . S
C702 H678 0.950 . S
C702 C697 1.363 . S
C702 C701 1.415 . S
C703 H679 0.951 . S
C703 C704 1.366 . S
C703 C705 1.388 . S
C704 C703 1.366 . S
C704 C708 1.385 . S
C705 H680 0.951 . S
C705 C703 1.388 . S
C705 C706 1.366 . S
C706 C705 1.366 . S
C706 C707 1.414 . S
C706 C709 1.499 . S
C707 H681 0.950 . S
C707 C706 1.414 . S
C707 C708 1.374 . S
C708 H682 0.950 . S
C708 C704 1.385 . S
C708 C707 1.374 . S
C709 C706 1.499 . S
C709 C710 1.373 1_545 S
C709 C711 1.389 . S
C710 H683 0.950 . S
C710 C696 1.377 . S
C710 C709 1.373 1_565 S
C711 C695 1.377 . S
C711 C709 1.389 . S
C711 C712 1.524 . S
C712 C711 1.524 . S
C712 C713 1.397 . S
C712 C717 1.363 . S
C713 H684 0.950 . S
C713 C712 1.397 . S
C713 C714 1.334 . S
C714 H685 0.950 . S
C714 C713 1.334 . S
C714 C715 1.287 . S
C715 C714 1.287 . S
C715 C716 1.524 . S
C715 H718 0.999 . S
C716 H686 0.950 . S
C716 C715 1.524 . S
C716 C717 1.415 . S
C717 H687 0.950 . S
C717 C712 1.363 . S
C717 C716 1.415 . S
H718 C715 0.999 . S
H719 C700 0.913 . S
H720 C738 0.951 . S
H721 C740 0.951 . S
H722 C742 0.950 . S
H723 C743 0.950 . S
H724 C745 0.950 . S
H725 C748 0.950 . S
H726 C749 0.950 . S
H727 C751 0.950 . S
H728 C752 0.950 . S
H729 C753 0.951 . S
H730 C755 0.951 . S
H731 C757 0.950 . S
H732 C758 0.950 . S
H733 C760 0.950 . S
H734 C763 0.950 . S
H735 C764 0.950 . S
H736 C766 0.950 . S
H737 C767 0.950 . S
C738 H720 0.951 . S
C738 C739 1.366 . S
C738 C740 1.388 . S
C739 C738 1.366 . S
C739 C743 1.385 . S
C740 H721 0.951 . S
C740 C738 1.388 . S
C740 C741 1.366 . S
C741 C740 1.366 . S
C741 C742 1.414 . S
C741 C744 1.499 . S
C742 H722 0.950 . S
C742 C741 1.414 . S
C742 C743 1.374 . S
C743 H723 0.950 . S
C743 C739 1.385 . S
C743 C742 1.374 . S
C744 C741 1.499 . S
C744 C745 1.373 . S
C744 C746 1.389 . S
C745 H724 0.950 . S
C745 C744 1.373 . S
C745 C761 1.377 . S
C746 C744 1.389 . S
C746 C747 1.524 . S
C746 C760 1.377 . S
C747 C746 1.524 . S
C747 C748 1.397 . S
C747 C752 1.363 . S
C748 H725 0.950 . S
C748 C747 1.397 . S
C748 C749 1.334 . S
C749 H726 0.950 . S
C749 C748 1.334 . S
C749 C750 1.287 . S
C750 C749 1.287 . S
C750 C751 1.524 . S
C750 H769 0.913 . S
C751 H727 0.950 . S
C751 C750 1.524 . S
C751 C752 1.415 . S
C752 H728 0.950 . S
C752 C747 1.363 . S
C752 C751 1.415 . S
C753 H729 0.951 . S
C753 C754 1.366 . S
C753 C755 1.388 . S
C754 C753 1.366 . S
C754 C758 1.385 . S
C755 H730 0.951 . S
C755 C753 1.388 . S
C755 C756 1.366 . S
C756 C755 1.366 . S
C756 C757 1.414 . S
C756 C759 1.499 . S
C757 H731 0.950 . S
C757 C756 1.414 . S
C757 C758 1.374 . S
C758 H732 0.950 . S
C758 C754 1.385 . S
C758 C757 1.374 . S
C759 C756 1.499 . S
C759 C760 1.373 . S
C759 C761 1.389 . S
C760 H733 0.950 . S
C760 C746 1.377 . S
C760 C759 1.373 . S
C761 C745 1.377 . S
C761 C759 1.389 . S
C761 C762 1.524 . S
C762 C761 1.524 . S
C762 C763 1.397 . S
C762 C767 1.363 . S
C763 H734 0.950 . S
C763 C762 1.397 . S
C763 C764 1.334 . S
C764 H735 0.950 . S
C764 C763 1.334 . S
C764 C765 1.287 . S
C765 C764 1.287 . S
C765 C766 1.524 . S
C765 H768 0.999 . S
C766 H736 0.950 . S
C766 C765 1.524 . S
C766 C767 1.415 . S
C767 H737 0.950 . S
C767 C762 1.363 . S
C767 C766 1.415 . S
H768 C765 0.999 . S
H769 C750 0.913 . S
H770 C788 0.951 . S
H771 C790 0.951 . S
H772 C792 0.950 . S
H773 C793 0.950 . S
H774 C795 0.950 . S
H775 C798 0.950 . S
H776 C799 0.950 . S
H777 C801 0.950 . S
H778 C802 0.950 . S
H779 C803 0.951 . S
H780 C805 0.951 . S
H781 C807 0.950 . S
H782 C808 0.950 . S
H783 C810 0.950 . S
H784 C813 0.950 1_455 S
H785 C814 0.950 . S
H786 C816 0.950 . S
H787 C817 0.950 . S
C788 H770 0.951 . S
C788 C789 1.366 . S
C788 C790 1.388 . S
C789 C788 1.366 . S
C789 C793 1.385 . S
C790 H771 0.951 . S
C790 C788 1.388 . S
C790 C791 1.366 . S
C791 C790 1.366 . S
C791 C792 1.414 . S
C791 C794 1.499 . S
C792 H772 0.950 . S
C792 C791 1.414 . S
C792 C793 1.374 . S
C793 H773 0.950 . S
C793 C789 1.385 . S
C793 C792 1.374 . S
C794 C791 1.499 . S
C794 C795 1.373 . S
C794 C796 1.389 1_655 S
C795 H774 0.950 . S
C795 C794 1.373 . S
C795 C811 1.377 . S
C796 C794 1.389 1_455 S
C796 C797 1.524 . S
C796 C810 1.377 . S
C797 C796 1.524 . S
C797 C798 1.397 . S
C797 C802 1.363 . S
C798 H775 0.950 . S
C798 C797 1.397 . S
C798 C799 1.334 . S
C799 H776 0.950 . S
C799 C798 1.334 . S
C799 C800 1.287 . S
C800 C799 1.287 . S
C800 C801 1.524 . S
C800 H819 0.913 . S
C801 H777 0.950 . S
C801 C800 1.524 . S
C801 C802 1.415 . S
C802 H778 0.950 . S
C802 C797 1.363 . S
C802 C801 1.415 . S
C803 H779 0.951 . S
C803 C804 1.366 . S
C803 C805 1.388 . S
C804 C803 1.366 . S
C804 C808 1.385 . S
C805 H780 0.951 . S
C805 C803 1.388 . S
C805 C806 1.366 . S
C806 C805 1.366 . S
C806 C807 1.414 . S
C806 C809 1.499 . S
C807 H781 0.950 . S
C807 C806 1.414 . S
C807 C808 1.374 . S
C808 H782 0.950 . S
C808 C804 1.385 . S
C808 C807 1.374 . S
C809 C806 1.499 . S
C809 C810 1.373 . S
C809 C811 1.389 1_455 S
C810 H783 0.950 . S
C810 C796 1.377 . S
C810 C809 1.373 . S
C811 C795 1.377 . S
C811 C809 1.389 1_655 S
C811 C812 1.524 . S
C812 C811 1.524 . S
C812 C813 1.397 . S
C812 C817 1.363 . S
C813 H784 0.950 1_655 S
C813 C812 1.397 . S
C813 C814 1.334 . S
C814 H785 0.950 . S
C814 C813 1.334 . S
C814 C815 1.287 . S
C815 C814 1.287 . S
C815 C816 1.524 . S
C815 H818 0.999 . S
C816 H786 0.950 . S
C816 C815 1.524 . S
C816 C817 1.415 . S
C817 H787 0.950 . S
C817 C812 1.363 . S
C817 C816 1.415 . S
H818 C815 0.999 . S
H819 C800 0.913 . S
H820 C838 0.951 . S
H821 C840 0.951 1_545 S
H822 C842 0.950 . S
H823 C843 0.950 . S
H824 C845 0.950 . S
H825 C848 0.950 . S
H826 C849 0.950 . S
H827 C851 0.950 . S
H828 C852 0.950 . S
H829 C853 0.951 . S
H830 C855 0.951 . S
H831 C857 0.950 . S
H832 C858 0.950 . S
H833 C860 0.950 . S
H834 C863 0.950 . S
H835 C864 0.950 . S
H836 C866 0.950 . S
H837 C867 0.950 . S
C838 H820 0.951 . S
C838 C839 1.366 . S
C838 C840 1.388 . S
C839 C838 1.366 . S
C839 C843 1.385 . S
C840 H821 0.951 1_565 S
C840 C838 1.388 . S
C840 C841 1.366 . S
C841 C840 1.366 . S
C841 C842 1.414 . S
C841 C844 1.499 . S
C842 H822 0.950 . S
C842 C841 1.414 . S
C842 C843 1.374 . S
C843 H823 0.950 . S
C843 C839 1.385 . S
C843 C842 1.374 . S
C844 C841 1.499 . S
C844 C845 1.373 . S
C844 C846 1.389 1_565 S
C845 H824 0.950 . S
C845 C844 1.373 . S
C845 C861 1.377 1_565 S
C846 C844 1.389 1_545 S
C846 C847 1.524 . S
C846 C860 1.377 . S
C847 C846 1.524 . S
C847 C848 1.397 1_545 S
C847 C852 1.363 . S
C848 H825 0.950 . S
C848 C847 1.397 1_565 S
C848 C849 1.334 . S
C849 H826 0.950 . S
C849 C848 1.334 . S
C849 C850 1.310 . S
C850 C849 1.310 . S
C850 C851 1.508 1_565 S
C850 H869 0.906 . S
C851 H827 0.950 . S
C851 C850 1.508 1_545 S
C851 C852 1.415 . S
C852 H828 0.950 . S
C852 C847 1.363 . S
C852 C851 1.415 . S
C853 H829 0.951 . S
C853 C854 1.366 . S
C853 C855 1.388 . S
C854 C853 1.366 . S
C854 C858 1.385 . S
C855 H830 0.951 . S
C855 C853 1.388 . S
C855 C856 1.366 . S
C856 C855 1.366 . S
C856 C857 1.414 . S
C856 C859 1.499 . S
C857 H831 0.950 . S
C857 C856 1.414 . S
C857 C858 1.374 . S
C858 H832 0.950 . S
C858 C854 1.385 . S
C858 C857 1.374 . S
C859 C856 1.499 . S
C859 C860 1.373 . S
C859 C861 1.389 . S
C860 H833 0.950 . S
C860 C846 1.377 . S
C860 C859 1.373 . S
C861 C845 1.377 1_545 S
C861 C859 1.389 . S
C861 C862 1.524 . S
C862 C861 1.524 . S
C862 C863 1.397 . S
C862 C867 1.363 1_545 S
C863 H834 0.950 . S
C863 C862 1.397 . S
C863 C864 1.334 . S
C864 H835 0.950 . S
C864 C863 1.334 . S
C864 C865 1.287 . S
C865 C864 1.287 . S
C865 C866 1.524 1_545 S
C865 H868 0.999 . S
C866 H836 0.950 . S
C866 C865 1.524 1_565 S
C866 C867 1.415 . S
C867 H837 0.950 . S
C867 C862 1.363 1_565 S
C867 C866 1.415 . S
H868 C865 0.999 . S
H869 C850 0.906 . S
H870 C888 0.951 . S
H871 C890 0.951 . S
H872 C892 0.950 . S
H873 C893 0.950 . S
H874 C895 0.950 . S
H875 C898 0.950 . S
H876 C899 0.950 . S
H877 C901 0.950 . S
H878 C902 0.950 . S
H879 C903 0.951 . S
H880 C905 0.951 . S
H881 C907 0.950 . S
H882 C908 0.950 . S
H883 C910 0.950 . S
H884 C913 0.950 . S
H885 C914 0.950 . S
H886 C916 0.950 . S
H887 C917 0.950 . S
C888 H870 0.951 . S
C888 C889 1.366 . S
C888 C890 1.388 . S
C889 C888 1.366 . S
C889 C893 1.385 . S
C890 H871 0.951 . S
C890 C888 1.388 . S
C890 C891 1.366 . S
C891 C890 1.366 . S
C891 C892 1.414 . S
C891 C894 1.499 . S
C892 H872 0.950 . S
C892 C891 1.414 . S
C892 C893 1.374 . S
C893 H873 0.950 . S
C893 C889 1.385 . S
C893 C892 1.374 . S
C894 C891 1.499 . S
C894 C895 1.373 . S
C894 C896 1.389 . S
C895 H874 0.950 . S
C895 C894 1.373 . S
C895 C911 1.377 . S
C896 C894 1.389 . S
C896 C897 1.524 . S
C896 C910 1.377 . S
C897 C896 1.524 . S
C897 C898 1.397 . S
C897 C902 1.363 . S
C898 H875 0.950 . S
C898 C897 1.397 . S
C898 C899 1.334 . S
C899 H876 0.950 . S
C899 C898 1.334 . S
C899 C900 1.287 . S
C900 C899 1.287 . S
C900 C901 1.524 . S
C900 H919 0.913 . S
C901 H877 0.950 . S
C901 C900 1.524 . S
C901 C902 1.415 . S
C902 H878 0.950 . S
C902 C897 1.363 . S
C902 C901 1.415 . S
C903 H879 0.951 . S
C903 C904 1.366 . S
C903 C905 1.388 . S
C904 C903 1.366 . S
C904 C908 1.385 . S
C905 H880 0.951 . S
C905 C903 1.388 . S
C905 C906 1.366 . S
C906 C905 1.366 . S
C906 C907 1.414 . S
C906 C909 1.499 . S
C907 H881 0.950 . S
C907 C906 1.414 . S
C907 C908 1.374 . S
C908 H882 0.950 . S
C908 C904 1.385 . S
C908 C907 1.374 . S
C909 C906 1.499 . S
C909 C910 1.373 . S
C909 C911 1.389 . S
C910 H883 0.950 . S
C910 C896 1.377 . S
C910 C909 1.373 . S
C911 C895 1.377 . S
C911 C909 1.389 . S
C911 C912 1.524 . S
C912 C911 1.524 . S
C912 C913 1.397 . S
C912 C917 1.363 . S
C913 H884 0.950 . S
C913 C912 1.397 . S
C913 C914 1.334 . S
C914 H885 0.950 . S
C914 C913 1.334 . S
C914 C915 1.287 . S
C915 C914 1.287 . S
C915 C916 1.524 . S
C915 H918 0.999 . S
C916 H886 0.950 . S
C916 C915 1.524 . S
C916 C917 1.415 . S
C917 H887 0.950 . S
C917 C912 1.363 . S
C917 C916 1.415 . S
H918 C915 0.999 . S
H919 C900 0.913 . S
H920 C938 0.951 . S
H921 C940 0.951 . S
H922 C942 0.950 . S
H923 C943 0.950 . S
H924 C945 0.950 . S
H925 C948 0.950 . S
H926 C949 0.950 . S
H927 C951 0.950 . S
H928 C952 0.950 . S
H929 C953 0.951 . S
H930 C955 0.951 . S
H931 C957 0.950 . S
H932 C958 0.950 . S
H933 C960 0.950 . S
H934 C963 0.950 . S
H935 C964 0.950 . S
H936 C966 0.950 . S
H937 C967 0.950 . S
C938 H920 0.951 . S
C938 C939 1.366 . S
C938 C940 1.388 . S
C939 C938 1.366 . S
C939 C943 1.385 . S
C940 H921 0.951 . S
C940 C938 1.388 . S
C940 C941 1.366 . S
C941 C940 1.366 . S
C941 C942 1.414 . S
C941 C944 1.499 . S
C942 H922 0.950 . S
C942 C941 1.414 . S
C942 C943 1.374 . S
C943 H923 0.950 . S
C943 C939 1.385 . S
C943 C942 1.374 . S
C944 C941 1.499 . S
C944 C945 1.373 . S
C944 C946 1.389 1_455 S
C945 H924 0.950 . S
C945 C944 1.373 . S
C945 C961 1.384 . S
C946 C944 1.389 1_655 S
C946 C947 1.524 . S
C946 C960 1.377 . S
C947 C946 1.524 . S
C947 C948 1.397 . S
C947 C952 1.363 . S
C948 H925 0.950 . S
C948 C947 1.397 . S
C948 C949 1.334 . S
C949 H926 0.950 . S
C949 C948 1.334 . S
C949 C950 1.287 . S
C950 C949 1.287 . S
C950 C951 1.524 . S
C950 H969 0.913 . S
C951 H927 0.950 . S
C951 C950 1.524 . S
C951 C952 1.415 . S
C952 H928 0.950 . S
C952 C947 1.363 . S
C952 C951 1.415 . S
C953 H929 0.951 . S
C953 C954 1.366 . S
C953 C955 1.388 . S
C954 C953 1.366 . S
C954 C958 1.385 . S
C955 H930 0.951 . S
C955 C953 1.388 . S
C955 C956 1.366 . S
C956 C955 1.366 . S
C956 C957 1.414 . S
C956 C959 1.499 . S
C957 H931 0.950 . S
C957 C956 1.414 . S
C957 C958 1.374 . S
C958 H932 0.950 . S
C958 C954 1.385 . S
C958 C957 1.374 . S
C959 C956 1.499 . S
C959 C960 1.373 . S
C959 C961 1.373 1_655 S
C960 H933 0.950 . S
C960 C946 1.377 . S
C960 C959 1.373 . S
C961 C945 1.384 . S
C961 C959 1.373 1_455 S
C961 C962 1.534 . S
C962 C961 1.534 . S
C962 C963 1.397 . S
C962 C967 1.363 . S
C963 H934 0.950 . S
C963 C962 1.397 . S
C963 C964 1.334 . S
C964 H935 0.950 . S
C964 C963 1.334 . S
C964 C965 1.287 . S
C965 C964 1.287 . S
C965 C966 1.524 . S
C965 H968 0.999 . S
C966 H936 0.950 . S
C966 C965 1.524 . S
C966 C967 1.415 . S
C967 H937 0.950 . S
C967 C962 1.363 . S
C967 C966 1.415 . S
H968 C965 0.999 . S
H969 C950 0.913 . S
H970 C988 0.951 . S
H971 C990 0.951 . S
H972 C992 0.950 . S
H973 C993 0.950 . S
H974 C995 0.950 . S
H975 C998 0.950 . S
H976 C999 0.950 . S
H977 C1001 0.950 . S
H978 C1002 0.950 . S
H979 C1003 0.951 . S
H980 C1005 0.951 . S
H981 C1007 0.950 . S
H982 C1008 0.950 . S
H983 C1010 0.950 . S
H984 C1013 0.950 1_565 S
H985 C1014 0.950 . S
H986 C1016 0.950 . S
H987 C1017 0.950 . S
C988 H970 0.951 . S
C988 C989 1.366 . S
C988 C990 1.388 . S
C989 C988 1.366 . S
C989 C993 1.385 . S
C990 H971 0.951 . S
C990 C988 1.388 . S
C990 C991 1.366 . S
C991 C990 1.366 . S
C991 C992 1.414 . S
C991 C994 1.499 . S
C992 H972 0.950 . S
C992 C991 1.414 . S
C992 C993 1.374 . S
C993 H973 0.950 . S
C993 C989 1.385 . S
C993 C992 1.374 . S
C994 C991 1.499 . S
C994 C995 1.373 . S
C994 C996 1.389 1_545 S
C995 H974 0.950 . S
C995 C994 1.373 . S
C995 C1011 1.377 . S
C996 C994 1.389 1_565 S
C996 C997 1.524 . S
C996 C1010 1.377 . S
C997 C996 1.524 . S
C997 C998 1.397 . S
C997 C1002 1.363 . S
C998 H975 0.950 . S
C998 C997 1.397 . S
C998 C999 1.334 . S
C999 H976 0.950 . S
C999 C998 1.334 . S
C999 C1000 1.287 . S
C1000 C999 1.287 . S
C1000 C1001 1.524 . S
C1000 H1019 0.913 . S
C1001 H977 0.950 . S
C1001 C1000 1.524 . S
C1001 C1002 1.415 . S
C1002 H978 0.950 . S
C1002 C997 1.363 . S
C1002 C1001 1.415 . S
C1003 H979 0.951 . S
C1003 C1004 1.366 . S
C1003 C1005 1.388 . S
C1004 C1003 1.366 . S
C1004 C1008 1.385 . S
C1005 H980 0.951 . S
C1005 C1003 1.388 . S
C1005 C1006 1.366 . S
C1006 C1005 1.366 . S
C1006 C1007 1.414 . S
C1006 C1009 1.499 . S
C1007 H981 0.950 . S
C1007 C1006 1.414 . S
C1007 C1008 1.374 . S
C1008 H982 0.950 . S
C1008 C1004 1.385 . S
C1008 C1007 1.374 . S
C1009 C1006 1.499 . S
C1009 C1010 1.373 . S
C1009 C1011 1.389 1_565 S
C1010 H983 0.950 . S
C1010 C996 1.377 . S
C1010 C1009 1.373 . S
C1011 C995 1.377 . S
C1011 C1009 1.389 1_545 S
C1011 C1012 1.524 . S
C1012 C1011 1.524 . S
C1012 C1013 1.397 . S
C1012 C1017 1.363 . S
C1013 H984 0.950 1_545 S
C1013 C1012 1.397 . S
C1013 C1014 1.334 . S
C1014 H985 0.950 . S
C1014 C1013 1.334 . S
C1014 C1015 1.287 . S
C1015 C1014 1.287 . S
C1015 C1016 1.524 . S
C1015 H1018 0.999 . S
C1016 H986 0.950 . S
C1016 C1015 1.524 . S
C1016 C1017 1.415 . S
C1017 H987 0.950 . S
C1017 C1012 1.363 . S
C1017 C1016 1.415 . S
H1018 C1015 0.999 . S
H1019 C1000 0.913 . S
C139 C99 1.197 . S
C154 C2 1.188 . S
C189 C119 1.197 . S
C204 C22 1.189 . S
C239 C19 1.197 . S
C254 C42 1.188 . S
C289 C39 1.197 . S
C304 C62 1.188 . S
C339 C59 1.197 . S
C354 C82 1.188 . S
C389 C79 1.197 . S
C404 C102 1.188 . S
C439 C8 0.592 . S
C454 C68 0.592 . S
C489 C88 0.590 . S
C504 C28 0.590 . S
C539 C108 0.592 . S
C554 C48 0.592 . S
C589 C49 0.308 . S
C604 C109 0.308 . S
C639 C9 0.308 . S
C654 C69 0.308 . S
C689 C89 0.308 . S
C704 C29 0.308 . S
C739 C118 1.210 . S
C754 C1 1.206 . S
C789 C21 1.207 . S
C804 C18 1.210 . S
C839 C41 1.206 . S
C854 C38 1.210 . S
C889 C58 1.210 . S
C904 C61 1.206 . S
C939 C81 1.207 . S
C954 C78 1.210 . S
C989 C101 1.207 . S
C1004 C98 1.210 . S
