# Generated by pormake.
# Topology umu, (4)-cn, num edge types: 1
# Building blocks:
#     Node 0, Type 0, BuildingBlock: GALJAG_clean_sbu_0, # of connection points: 4
#     Node 1, Type 0, BuildingBlock: GALJAG_clean_sbu_0, # of connection points: 4
#     Node 2, Type 0, BuildingBlock: GALJAG_clean_sbu_0, # of connection points: 4
#     Node 3, Type 0, BuildingBlock: GALJAG_clean_sbu_0, # of connection points: 4
#     Node 4, Type 0, BuildingBlock: GALJAG_clean_sbu_0, # of connection points: 4
#     Node 5, Type 0, BuildingBlock: GALJAG_clean_sbu_0, # of connection points: 4
#     Node 6, Type 0, BuildingBlock: GALJAG_clean_sbu_0, # of connection points: 4
#     Node 7, Type 0, BuildingBlock: GALJAG_clean_sbu_0, # of connection points: 4
#     Node 8, Type 0, BuildingBlock: GALJAG_clean_sbu_0, # of connection points: 4
#     Node 9, Type 0, BuildingBlock: GALJAG_clean_sbu_0, # of connection points: 4
#     Node 10, Type 0, BuildingBlock: GALJAG_clean_sbu_0, # of connection points: 4
#     Node 11, Type 0, BuildingBlock: GALJAG_clean_sbu_0, # of connection points: 4
#     Node 12, Type 0, BuildingBlock: GALJAG_clean_sbu_0, # of connection points: 4
#     Node 13, Type 0, BuildingBlock: GALJAG_clean_sbu_0, # of connection points: 4
#     Node 14, Type 0, BuildingBlock: GALJAG_clean_sbu_0, # of connection points: 4
#     Node 15, Type 0, BuildingBlock: GALJAG_clean_sbu_0, # of connection points: 4
#     Node 16, Type 0, BuildingBlock: GALJAG_clean_sbu_0, # of connection points: 4
#     Node 17, Type 0, BuildingBlock: GALJAG_clean_sbu_0, # of connection points: 4
#     Node 18, Type 0, BuildingBlock: GALJAG_clean_sbu_0, # of connection points: 4
#     Node 19, Type 0, BuildingBlock: GALJAG_clean_sbu_0, # of connection points: 4
#     Node 20, Type 0, BuildingBlock: GALJAG_clean_sbu_0, # of connection points: 4
#     Node 21, Type 0, BuildingBlock: GALJAG_clean_sbu_0, # of connection points: 4
#     Node 22, Type 0, BuildingBlock: GALJAG_clean_sbu_0, # of connection points: 4
#     Node 23, Type 0, BuildingBlock: GALJAG_clean_sbu_0, # of connection points: 4
#     Node 24, Type 0, BuildingBlock: GALJAG_clean_sbu_0, # of connection points: 4
#     Node 25, Type 0, BuildingBlock: GALJAG_clean_sbu_0, # of connection points: 4
#     Node 26, Type 0, BuildingBlock: GALJAG_clean_sbu_0, # of connection points: 4
#     Node 27, Type 0, BuildingBlock: GALJAG_clean_sbu_0, # of connection points: 4
#     Node 28, Type 0, BuildingBlock: GALJAG_clean_sbu_0, # of connection points: 4
#     Node 29, Type 0, BuildingBlock: GALJAG_clean_sbu_0, # of connection points: 4
#     Node 30, Type 0, BuildingBlock: GALJAG_clean_sbu_0, # of connection points: 4
#     Node 31, Type 0, BuildingBlock: GALJAG_clean_sbu_0, # of connection points: 4
#     Edge 32, Type (0, 0), BuildingBlock: KIFKEQ_clean_linker_1, # of connection points: 2
#     Edge 33, Type (0, 0), BuildingBlock: KIFKEQ_clean_linker_1, # of connection points: 2
#     Edge 34, Type (0, 0), BuildingBlock: KIFKEQ_clean_linker_1, # of connection points: 2
#     Edge 35, Type (0, 0), BuildingBlock: KIFKEQ_clean_linker_1, # of connection points: 2
#     Edge 36, Type (0, 0), BuildingBlock: KIFKEQ_clean_linker_1, # of connection points: 2
#     Edge 37, Type (0, 0), BuildingBlock: KIFKEQ_clean_linker_1, # of connection points: 2
#     Edge 38, Type (0, 0), BuildingBlock: KIFKEQ_clean_linker_1, # of connection points: 2
#     Edge 39, Type (0, 0), BuildingBlock: KIFKEQ_clean_linker_1, # of connection points: 2
#     Edge 40, Type (0, 0), BuildingBlock: KIFKEQ_clean_linker_1, # of connection points: 2
#     Edge 41, Type (0, 0), BuildingBlock: KIFKEQ_clean_linker_1, # of connection points: 2
#     Edge 42, Type (0, 0), BuildingBlock: KIFKEQ_clean_linker_1, # of connection points: 2
#     Edge 43, Type (0, 0), BuildingBlock: KIFKEQ_clean_linker_1, # of connection points: 2
#     Edge 44, Type (0, 0), BuildingBlock: KIFKEQ_clean_linker_1, # of connection points: 2
#     Edge 45, Type (0, 0), BuildingBlock: KIFKEQ_clean_linker_1, # of connection points: 2
#     Edge 46, Type (0, 0), BuildingBlock: KIFKEQ_clean_linker_1, # of connection points: 2
#     Edge 47, Type (0, 0), BuildingBlock: KIFKEQ_clean_linker_1, # of connection points: 2
#     Edge 48, Type (0, 0), BuildingBlock: KIFKEQ_clean_linker_1, # of connection points: 2
#     Edge 49, Type (0, 0), BuildingBlock: KIFKEQ_clean_linker_1, # of connection points: 2
#     Edge 50, Type (0, 0), BuildingBlock: KIFKEQ_clean_linker_1, # of connection points: 2
#     Edge 51, Type (0, 0), BuildingBlock: KIFKEQ_clean_linker_1, # of connection points: 2
#     Edge 52, Type (0, 0), BuildingBlock: KIFKEQ_clean_linker_1, # of connection points: 2
#     Edge 53, Type (0, 0), BuildingBlock: KIFKEQ_clean_linker_1, # of connection points: 2
#     Edge 54, Type (0, 0), BuildingBlock: KIFKEQ_clean_linker_1, # of connection points: 2
#     Edge 55, Type (0, 0), BuildingBlock: KIFKEQ_clean_linker_1, # of connection points: 2
#     Edge 56, Type (0, 0), BuildingBlock: KIFKEQ_clean_linker_1, # of connection points: 2
#     Edge 57, Type (0, 0), BuildingBlock: KIFKEQ_clean_linker_1, # of connection points: 2
#     Edge 58, Type (0, 0), BuildingBlock: KIFKEQ_clean_linker_1, # of connection points: 2
#     Edge 59, Type (0, 0), BuildingBlock: KIFKEQ_clean_linker_1, # of connection points: 2
#     Edge 60, Type (0, 0), BuildingBlock: KIFKEQ_clean_linker_1, # of connection points: 2
#     Edge 61, Type (0, 0), BuildingBlock: KIFKEQ_clean_linker_1, # of connection points: 2
#     Edge 62, Type (0, 0), BuildingBlock: KIFKEQ_clean_linker_1, # of connection points: 2
#     Edge 63, Type (0, 0), BuildingBlock: KIFKEQ_clean_linker_1, # of connection points: 2
#     Edge 64, Type (0, 0), BuildingBlock: KIFKEQ_clean_linker_1, # of connection points: 2
#     Edge 65, Type (0, 0), BuildingBlock: KIFKEQ_clean_linker_1, # of connection points: 2
#     Edge 66, Type (0, 0), BuildingBlock: KIFKEQ_clean_linker_1, # of connection points: 2
#     Edge 67, Type (0, 0), BuildingBlock: KIFKEQ_clean_linker_1, # of connection points: 2
#     Edge 68, Type (0, 0), BuildingBlock: KIFKEQ_clean_linker_1, # of connection points: 2
#     Edge 69, Type (0, 0), BuildingBlock: KIFKEQ_clean_linker_1, # of connection points: 2
#     Edge 70, Type (0, 0), BuildingBlock: KIFKEQ_clean_linker_1, # of connection points: 2
#     Edge 71, Type (0, 0), BuildingBlock: KIFKEQ_clean_linker_1, # of connection points: 2
#     Edge 72, Type (0, 0), BuildingBlock: KIFKEQ_clean_linker_1, # of connection points: 2
#     Edge 73, Type (0, 0), BuildingBlock: KIFKEQ_clean_linker_1, # of connection points: 2
#     Edge 74, Type (0, 0), BuildingBlock: KIFKEQ_clean_linker_1, # of connection points: 2
#     Edge 75, Type (0, 0), BuildingBlock: KIFKEQ_clean_linker_1, # of connection points: 2
#     Edge 76, Type (0, 0), BuildingBlock: KIFKEQ_clean_linker_1, # of connection points: 2
#     Edge 77, Type (0, 0), BuildingBlock: KIFKEQ_clean_linker_1, # of connection points: 2
#     Edge 78, Type (0, 0), BuildingBlock: KIFKEQ_clean_linker_1, # of connection points: 2
#     Edge 79, Type (0, 0), BuildingBlock: KIFKEQ_clean_linker_1, # of connection points: 2
#     Edge 80, Type (0, 0), BuildingBlock: KIFKEQ_clean_linker_1, # of connection points: 2
#     Edge 81, Type (0, 0), BuildingBlock: KIFKEQ_clean_linker_1, # of connection points: 2
#     Edge 82, Type (0, 0), BuildingBlock: KIFKEQ_clean_linker_1, # of connection points: 2
#     Edge 83, Type (0, 0), BuildingBlock: KIFKEQ_clean_linker_1, # of connection points: 2
#     Edge 84, Type (0, 0), BuildingBlock: KIFKEQ_clean_linker_1, # of connection points: 2
#     Edge 85, Type (0, 0), BuildingBlock: KIFKEQ_clean_linker_1, # of connection points: 2
#     Edge 86, Type (0, 0), BuildingBlock: KIFKEQ_clean_linker_1, # of connection points: 2
#     Edge 87, Type (0, 0), BuildingBlock: KIFKEQ_clean_linker_1, # of connection points: 2
#     Edge 88, Type (0, 0), BuildingBlock: KIFKEQ_clean_linker_1, # of connection points: 2
#     Edge 89, Type (0, 0), BuildingBlock: KIFKEQ_clean_linker_1, # of connection points: 2
#     Edge 90, Type (0, 0), BuildingBlock: KIFKEQ_clean_linker_1, # of connection points: 2
#     Edge 91, Type (0, 0), BuildingBlock: KIFKEQ_clean_linker_1, # of connection points: 2
#     Edge 92, Type (0, 0), BuildingBlock: KIFKEQ_clean_linker_1, # of connection points: 2
#     Edge 93, Type (0, 0), BuildingBlock: KIFKEQ_clean_linker_1, # of connection points: 2
#     Edge 94, Type (0, 0), BuildingBlock: KIFKEQ_clean_linker_1, # of connection points: 2
#     Edge 95, Type (0, 0), BuildingBlock: KIFKEQ_clean_linker_1, # of connection points: 2
# Relax obj value: 0.103
# Max RMSD: 0.078
# Mean RMSD: 0.078
data_MOF--net-umu--node1-GALJAG_clean_sbu_0--edge1-KIFKEQ_clean_linker_1
_symmetry_space_group_name_H-M    P1
_symmetry_Int_Tables_number       1
_symmetry_cell_setting            triclinic
loop_
_symmetry_equiv_pos_as_xyz
'x, y, z'
_cell_length_a     81.243725
_cell_length_b     81.230168
_cell_length_c     27.753237
_cell_angle_alpha  90.00973
_cell_angle_beta   90.001648
_cell_angle_gamma 89.981238
loop_
_atom_site_label
_atom_site_type_symbol
_atom_site_fract_x
_atom_site_fract_y
_atom_site_fract_z
_atom_type_partial_charge
In0 In 0.20956 0.15332 0.07445 0.0
O1 O 0.23234 0.1509 0.02576 0.0
O2 O 0.20903 0.15483 0.99302 0.0
C3 C 0.22112 0.14196 0.15932 0.0
C4 C 0.18467 0.13299 0.05158 0.0
C5 C 0.20791 0.18603 0.0904 0.0
O6 O 0.22873 0.13992 0.12008 0.0
O7 O 0.20744 0.14922 0.15539 0.0
O8 O 0.19517 0.17717 0.08791 0.0
O9 O 0.22128 0.17839 0.08511 0.0
C10 C 0.22423 0.15264 0.98726 0.0
O11 O 0.18274 0.14835 0.0562 0.0
O12 O 0.19892 0.1278 0.06165 0.0
In13 In 0.09445 0.96208 0.31975 0.0
O14 O 0.09728 0.98374 0.26778 0.0
O15 O 0.08413 0.96262 0.24394 0.0
C16 C 0.10682 0.97538 0.40107 0.0
C17 C 0.11718 0.94062 0.28779 0.0
C18 C 0.06296 0.95691 0.34645 0.0
O19 O 0.10272 0.98388 0.36495 0.0
O20 O 0.10519 0.96002 0.39568 0.0
O21 O 0.07217 0.94526 0.33287 0.0
O22 O 0.06975 0.97085 0.34722 0.0
C23 C 0.08964 0.9767 0.23388 0.0
O24 O 0.10405 0.93588 0.30799 0.0
O25 O 0.11915 0.95602 0.2867 0.0
In26 In 0.28859 0.84285 0.57641 0.0
O27 O 0.31543 0.84802 0.55914 0.0
O28 O 0.29889 0.86837 0.56142 0.0
C29 C 0.29079 0.81016 0.59134 0.0
C30 C 0.27351 0.84294 0.48981 0.0
C31 C 0.2773 0.85405 0.66182 0.0
O32 O 0.30339 0.81919 0.58832 0.0
O33 O 0.27729 0.81764 0.58721 0.0
O34 O 0.26969 0.85643 0.62275 0.0
O35 O 0.29084 0.84657 0.65742 0.0
C36 C 0.31329 0.86328 0.55275 0.0
O37 O 0.26548 0.84418 0.52862 0.0
O38 O 0.28883 0.84165 0.49496 0.0
In39 In 0.40215 0.03742 0.82903 0.0
O40 O 0.39616 0.01587 0.77837 0.0
O41 O 0.41018 0.03588 0.75113 0.0
C42 C 0.39101 0.02581 0.91405 0.0
C43 C 0.38196 0.06181 0.80041 0.0
C44 C 0.43439 0.03956 0.85033 0.0
O45 O 0.39072 0.01738 0.87582 0.0
O46 O 0.39635 0.04031 0.90896 0.0
O47 O 0.42541 0.05215 0.84548 0.0
O48 O 0.42705 0.026 0.84496 0.0
C49 C 0.40339 0.02226 0.74266 0.0
O50 O 0.39707 0.06407 0.80859 0.0
O51 O 0.37682 0.04752 0.80993 0.0
In52 In 0.21079 0.84085 0.0683 0.0
O53 O 0.23321 0.84172 0.1184 0.0
O54 O 0.20978 0.83618 0.14863 0.0
C55 C 0.22315 0.85226 0.98456 0.0
C56 C 0.18914 0.86436 0.09338 0.0
C57 C 0.20698 0.80856 0.04869 0.0
O58 O 0.23127 0.85231 0.02337 0.0
O59 O 0.20862 0.84685 0.9883 0.0
O60 O 0.19483 0.81774 0.05809 0.0
O61 O 0.22074 0.81572 0.04896 0.0
C62 C 0.2249 0.83857 0.15579 0.0
O63 O 0.1845 0.85018 0.08028 0.0
O64 O 0.20445 0.86682 0.09069 0.0
In65 In 0.40604 0.95946 0.32132 0.0
O66 O 0.40157 0.93285 0.34378 0.0
O67 O 0.38074 0.94843 0.3354 0.0
C68 C 0.43851 0.95808 0.30185 0.0
C69 C 0.40563 0.97394 0.40859 0.0
C70 C 0.39478 0.97195 0.23743 0.0
O71 O 0.42925 0.94569 0.2973 0.0
O72 O 0.43133 0.97102 0.31562 0.0
O73 O 0.39444 0.97996 0.27641 0.0
O74 O 0.4004 0.95751 0.24108 0.0
C75 C 0.38619 0.93452 0.34787 0.0
O76 O 0.39957 0.98084 0.37181 0.0
O77 O 0.4121 0.96009 0.40084 0.0
In78 In 0.28737 0.15456 0.56562 0.0
O79 O 0.31411 0.14926 0.5841 0.0
O80 O 0.29761 0.12895 0.57961 0.0
C81 C 0.28961 0.18716 0.54839 0.0
C82 C 0.27279 0.15424 0.65295 0.0
C83 C 0.27558 0.14292 0.48132 0.0
O84 O 0.30216 0.17804 0.55096 0.0
O85 O 0.2761 0.17982 0.55426 0.0
O86 O 0.26788 0.14141 0.5206 0.0
O87 O 0.28944 0.14985 0.4849 0.0
C88 C 0.31193 0.13397 0.58953 0.0
O89 O 0.26464 0.15229 0.61459 0.0
O90 O 0.28795 0.15658 0.64695 0.0
In91 In 0.09295 0.03739 0.81132 0.0
O92 O 0.09878 0.06387 0.83213 0.0
O93 O 0.11814 0.04627 0.83578 0.0
C94 C 0.06151 0.04118 0.78264 0.0
C95 C 0.08948 0.02248 0.89749 0.0
C96 C 0.10563 0.02453 0.72982 0.0
O97 O 0.07077 0.05335 0.79079 0.0
O98 O 0.0682 0.02731 0.78822 0.0
O99 O 0.10183 0.01587 0.76591 0.0
O100 O 0.10351 0.03983 0.7353 0.0
C101 C 0.11352 0.06087 0.84357 0.0
O102 O 0.09818 0.01637 0.86428 0.0
O103 O 0.08236 0.03574 0.88666 0.0
In104 In 0.78906 0.84379 0.0616 0.0
O105 O 0.76596 0.84447 0.10973 0.0
O106 O 0.78935 0.84191 0.14302 0.0
C107 C 0.77757 0.85523 0.97661 0.0
C108 C 0.81334 0.86472 0.0853 0.0
C109 C 0.79214 0.81128 0.04426 0.0
O110 O 0.76986 0.85717 0.01573 0.0
O111 O 0.7913 0.84808 0.9808 0.0
O112 O 0.80448 0.82045 0.05066 0.0
O113 O 0.77844 0.81852 0.04648 0.0
C114 C 0.77403 0.84304 0.14842 0.0
O115 O 0.81585 0.84959 0.0777 0.0
O116 O 0.79874 0.86947 0.07787 0.0
In117 In 0.90598 0.03984 0.80729 0.0
O118 O 0.89986 0.01849 0.85822 0.0
O119 O 0.91211 0.03946 0.88686 0.0
C120 C 0.89557 0.02722 0.72253 0.0
C121 C 0.88548 0.06446 0.83225 0.0
C122 C 0.9385 0.04148 0.78912 0.0
O123 O 0.89496 0.01919 0.76146 0.0
O124 O 0.90091 0.04174 0.72675 0.0
O125 O 0.9292 0.05387 0.78488 0.0
O126 O 0.93134 0.02845 0.80216 0.0
C127 C 0.9059 0.02551 0.89484 0.0
O128 O 0.90072 0.06667 0.82626 0.0
O129 O 0.88051 0.05011 0.8227 0.0
In130 In 0.70878 0.15472 0.56637 0.0
O131 O 0.72377 0.13967 0.62086 0.0
O132 O 0.71979 0.16494 0.6356 0.0
C133 C 0.72141 0.14391 0.48225 0.0
C134 C 0.68194 0.13813 0.59592 0.0
C135 C 0.70554 0.18674 0.54333 0.0
O136 O 0.73017 0.14658 0.519 0.0
O137 O 0.70618 0.14626 0.4883 0.0
O138 O 0.69322 0.17773 0.55214 0.0
O139 O 0.71928 0.17953 0.54566 0.0
C140 C 0.72566 0.15146 0.64985 0.0
O141 O 0.6836 0.15341 0.6024 0.0
O142 O 0.69334 0.13146 0.57199 0.0
In143 In 0.59383 0.96254 0.31303 0.0
O144 O 0.59696 0.98492 0.36235 0.0
O145 O 0.58521 0.96358 0.39046 0.0
C146 C 0.60517 0.97399 0.22813 0.0
C147 C 0.61661 0.94092 0.34383 0.0
C148 C 0.56179 0.95854 0.29146 0.0
O149 O 0.60471 0.98271 0.26578 0.0
O150 O 0.60039 0.95931 0.2337 0.0
O151 O 0.57097 0.94649 0.30197 0.0
O152 O 0.56885 0.97237 0.29141 0.0
C153 C 0.59036 0.97796 0.39824 0.0
O154 O 0.60275 0.93628 0.32817 0.0
O155 O 0.6192 0.95619 0.34087 0.0
In156 In 0.78505 0.15089 0.06753 0.0
O157 O 0.81014 0.15049 0.03051 0.0
O158 O 0.8012 0.12815 0.06058 0.0
C159 C 0.79174 0.18336 0.07549 0.0
C160 C 0.76535 0.14437 0.99155 0.0
C161 C 0.77057 0.1419 0.15148 0.0
O162 O 0.79655 0.1731 0.10663 0.0
O163 O 0.78406 0.17714 0.04056 0.0
O164 O 0.76252 0.14668 0.11529 0.0
O165 O 0.78591 0.14129 0.14511 0.0
C166 C 0.81234 0.13525 0.03664 0.0
O167 O 0.7635 0.15689 0.01786 0.0
O168 O 0.77646 0.13463 0.00534 0.0
In169 In 0.59016 0.0397 0.82097 0.0
O170 O 0.5948 0.06671 0.80277 0.0
O171 O 0.61532 0.05046 0.80468 0.0
C172 C 0.55772 0.04033 0.84061 0.0
C173 C 0.5899 0.02587 0.73289 0.0
C174 C 0.60168 0.02717 0.90445 0.0
O175 O 0.56669 0.05293 0.84524 0.0
O176 O 0.56517 0.02757 0.82667 0.0
O177 O 0.60222 0.01927 0.86528 0.0
O178 O 0.59574 0.04148 0.90111 0.0
C179 C 0.61005 0.06477 0.79603 0.0
O180 O 0.59616 0.01867 0.76891 0.0
O181 O 0.5837 0.03977 0.74173 0.0
In182 In 0.71073 0.84361 0.56967 0.0
O183 O 0.73331 0.84359 0.51991 0.0
O184 O 0.70981 0.83866 0.48942 0.0
C185 C 0.7233 0.85485 0.65351 0.0
C186 C 0.68946 0.86731 0.54362 0.0
C187 C 0.70559 0.81155 0.58953 0.0
O188 O 0.73144 0.85472 0.61473 0.0
O189 O 0.70867 0.84976 0.64962 0.0
O190 O 0.69388 0.82116 0.5792 0.0
O191 O 0.71962 0.81816 0.59004 0.0
C192 C 0.72501 0.84054 0.48244 0.0
O193 O 0.68463 0.85342 0.55861 0.0
O194 O 0.70483 0.86946 0.54504 0.0
In195 In 0.90772 0.96077 0.314 0.0
O196 O 0.90282 0.93445 0.28963 0.0
O197 O 0.88221 0.95018 0.29963 0.0
C198 C 0.94006 0.95831 0.33441 0.0
C199 C 0.90779 0.97601 0.22771 0.0
C200 C 0.89691 0.97305 0.39872 0.0
O201 O 0.93046 0.94612 0.33724 0.0
O202 O 0.93329 0.9716 0.32172 0.0
O203 O 0.89671 0.98129 0.36013 0.0
O204 O 0.90211 0.95848 0.39424 0.0
C205 C 0.88745 0.93631 0.28609 0.0
O206 O 0.90128 0.98247 0.26453 0.0
O207 O 0.91446 0.96224 0.23497 0.0
In208 In 0.70853 0.65556 0.56827 0.0
O209 O 0.68214 0.64737 0.55288 0.0
O210 O 0.70123 0.62941 0.55049 0.0
C211 C 0.70516 0.68824 0.58174 0.0
C212 C 0.723 0.65613 0.48127 0.0
C213 C 0.721 0.64549 0.65345 0.0
O214 O 0.693 0.67859 0.58471 0.0
O215 O 0.71868 0.68135 0.57245 0.0
O216 O 0.72884 0.64418 0.61436 0.0
O217 O 0.70674 0.65149 0.64932 0.0
C218 C 0.68619 0.63264 0.54399 0.0
O219 O 0.73119 0.65408 0.51955 0.0
O220 O 0.70774 0.65808 0.48716 0.0
In221 In 0.59053 0.46013 0.81918 0.0
O222 O 0.5937 0.48177 0.76746 0.0
O223 O 0.5828 0.45967 0.74101 0.0
C224 C 0.6016 0.47234 0.90352 0.0
C225 C 0.61324 0.43813 0.79055 0.0
C226 C 0.55823 0.45765 0.83901 0.0
O227 O 0.60167 0.48064 0.86503 0.0
O228 O 0.59637 0.45778 0.89907 0.0
O229 O 0.56746 0.4451 0.8378 0.0
O230 O 0.5654 0.47114 0.83093 0.0
C231 C 0.58758 0.47412 0.73199 0.0
O232 O 0.59904 0.43371 0.80406 0.0
O233 O 0.6161 0.45332 0.79449 0.0
In234 In 0.79075 0.33915 0.07992 0.0
O235 O 0.769 0.34531 0.03033 0.0
O236 O 0.78954 0.33256 0.00087 0.0
C237 C 0.779 0.35005 0.1651 0.0
C238 C 0.8152 0.35939 0.05188 0.0
C239 C 0.79221 0.30658 0.09754 0.0
O240 O 0.77084 0.35095 0.12646 0.0
O241 O 0.79326 0.34407 0.16049 0.0
O242 O 0.80484 0.31564 0.09956 0.0
O243 O 0.77902 0.31404 0.08769 0.0
C244 C 0.77563 0.33893 0.99355 0.0
O245 O 0.81733 0.34413 0.05775 0.0
O246 O 0.80109 0.36455 0.06342 0.0
In247 In 0.90378 0.53624 0.32039 0.0
O248 O 0.89869 0.51441 0.27071 0.0
O249 O 0.91063 0.53548 0.24132 0.0
C250 C 0.89336 0.52381 0.40535 0.0
C251 C 0.88166 0.55885 0.29161 0.0
C252 C 0.93625 0.53935 0.33772 0.0
O253 O 0.89367 0.51546 0.36702 0.0
O254 O 0.89792 0.53857 0.40062 0.0
O255 O 0.92663 0.55158 0.33905 0.0
O256 O 0.92943 0.5258 0.32816 0.0
C257 C 0.90472 0.52134 0.23393 0.0
O258 O 0.89619 0.56278 0.30317 0.0
O259 O 0.87815 0.5439 0.29801 0.0
In260 In 0.71204 0.3423 0.57329 0.0
O261 O 0.68545 0.35009 0.5884 0.0
O262 O 0.70438 0.36799 0.59562 0.0
C263 C 0.70881 0.3099 0.55504 0.0
C264 C 0.72639 0.3407 0.66049 0.0
C265 C 0.72492 0.35259 0.48874 0.0
O266 O 0.69665 0.31961 0.55349 0.0
O267 O 0.72235 0.3166 0.56538 0.0
O268 O 0.73307 0.35247 0.52745 0.0
O269 O 0.71015 0.34802 0.49302 0.0
C270 C 0.68933 0.36459 0.60037 0.0
O271 O 0.73373 0.34661 0.6242 0.0
O272 O 0.71207 0.33538 0.65232 0.0
In273 In 0.90348 0.45755 0.814 0.0
O274 O 0.89963 0.43073 0.83507 0.0
O275 O 0.87846 0.44595 0.82866 0.0
C276 C 0.93611 0.45705 0.79709 0.0
C277 C 0.90268 0.47204 0.90114 0.0
C278 C 0.89277 0.46971 0.72909 0.0
O279 O 0.92717 0.44452 0.79066 0.0
O280 O 0.92854 0.4697 0.81135 0.0
O281 O 0.89161 0.47767 0.76804 0.0
O282 O 0.8988 0.45546 0.73336 0.0
C283 C 0.88425 0.43206 0.84006 0.0
O284 O 0.90917 0.45818 0.89358 0.0
O285 O 0.89665 0.47891 0.86424 0.0
In286 In 0.78757 0.65509 0.06217 0.0
O287 O 0.81398 0.64691 0.07783 0.0
O288 O 0.79479 0.62909 0.08167 0.0
C289 C 0.79079 0.68778 0.04916 0.0
C290 C 0.77298 0.65579 0.14895 0.0
C291 C 0.77528 0.64499 0.97677 0.0
O292 O 0.80295 0.67815 0.04536 0.0
O293 O 0.77732 0.68085 0.05889 0.0
O294 O 0.76736 0.64371 0.01572 0.0
O295 O 0.78954 0.65096 0.98117 0.0
C296 C 0.80983 0.63231 0.08796 0.0
O297 O 0.76485 0.65353 0.11064 0.0
O298 O 0.78823 0.6579 0.14315 0.0
In299 In 0.59094 0.53711 0.3127 0.0
O300 O 0.60067 0.56316 0.3263 0.0
O301 O 0.61599 0.54284 0.34415 0.0
C302 C 0.55907 0.54247 0.29165 0.0
C303 C 0.5865 0.5216 0.39732 0.0
C304 C 0.6023 0.52521 0.22824 0.0
O305 O 0.56878 0.55407 0.30219 0.0
O306 O 0.56554 0.52835 0.29091 0.0
O307 O 0.60145 0.51656 0.26595 0.0
O308 O 0.59786 0.54 0.23351 0.0
C309 C 0.61399 0.55822 0.34486 0.0
O310 O 0.59331 0.5146 0.36182 0.0
O311 O 0.58166 0.53609 0.38943 0.0
In312 In 0.28988 0.34375 0.56187 0.0
O313 O 0.26856 0.35093 0.61166 0.0
O314 O 0.28948 0.33908 0.64219 0.0
C315 C 0.27742 0.35347 0.47625 0.0
C316 C 0.31495 0.36393 0.58501 0.0
C317 C 0.29067 0.3109 0.54862 0.0
O318 O 0.26948 0.35474 0.51519 0.0
O319 O 0.29177 0.34773 0.48077 0.0
O320 O 0.30315 0.31985 0.54141 0.0
O321 O 0.27795 0.31857 0.56185 0.0
C322 C 0.27555 0.3455 0.64915 0.0
O323 O 0.31682 0.34858 0.58044 0.0
O324 O 0.30074 0.36913 0.57481 0.0
In325 In 0.40356 0.54009 0.31783 0.0
O326 O 0.41078 0.51944 0.36994 0.0
O327 O 0.38766 0.53099 0.38019 0.0
C328 C 0.39252 0.52685 0.23456 0.0
C329 C 0.38966 0.5692 0.34153 0.0
C330 C 0.43616 0.54491 0.30344 0.0
O331 O 0.39415 0.51845 0.27263 0.0
O332 O 0.39594 0.54194 0.2391 0.0
O333 O 0.42664 0.54005 0.27058 0.0
O334 O 0.42926 0.54738 0.34344 0.0
C335 C 0.39803 0.52074 0.39561 0.0
O336 O 0.40454 0.56589 0.34964 0.0
O337 O 0.38192 0.55817 0.31897 0.0
In338 In 0.21319 0.65261 0.07175 0.0
O339 O 0.18636 0.64694 0.09195 0.0
O340 O 0.20345 0.62719 0.08848 0.0
C341 C 0.21009 0.68509 0.05505 0.0
C342 C 0.22804 0.65137 0.15846 0.0
C343 C 0.22654 0.64329 0.98682 0.0
O344 O 0.19792 0.67541 0.05261 0.0
O345 O 0.22363 0.6783 0.06532 0.0
O346 O 0.23492 0.64488 0.02483 0.0
O347 O 0.21136 0.64614 0.99179 0.0
C348 C 0.18906 0.6318 0.0986 0.0
O349 O 0.23192 0.64178 0.12451 0.0
O350 O 0.21721 0.66189 0.148 0.0
In351 In 0.09176 0.45973 0.817 0.0
O352 O 0.09667 0.4812 0.8689 0.0
O353 O 0.08373 0.46029 0.89501 0.0
C354 C 0.10322 0.47166 0.73276 0.0
C355 C 0.11248 0.43555 0.84383 0.0
C356 C 0.05959 0.45764 0.79488 0.0
O357 O 0.10358 0.4799 0.77138 0.0
O358 O 0.09758 0.45725 0.73709 0.0
O359 O 0.0685 0.44501 0.80008 0.0
O360 O 0.06696 0.47118 0.80028 0.0
C361 C 0.08974 0.47422 0.90421 0.0
O362 O 0.09747 0.43295 0.83491 0.0
O363 O 0.11721 0.45012 0.83633 0.0
In364 In 0.28908 0.65348 0.57331 0.0
O365 O 0.28121 0.6363 0.51253 0.0
O366 O 0.26705 0.65794 0.52424 0.0
C367 C 0.27888 0.64228 0.66049 0.0
C368 C 0.3174 0.64243 0.5345 0.0
C369 C 0.29059 0.68647 0.58327 0.0
O370 O 0.27102 0.63952 0.6222 0.0
O371 O 0.29212 0.65007 0.65449 0.0
O372 O 0.30258 0.67725 0.59358 0.0
O373 O 0.27799 0.67904 0.56823 0.0
C374 C 0.26953 0.64535 0.4986 0.0
O375 O 0.31034 0.65542 0.52061 0.0
O376 O 0.31056 0.6353 0.5697 0.0
In377 In 0.0915 0.537 0.32476 0.0
O378 O 0.1009 0.5633 0.31215 0.0
O379 O 0.1165 0.54315 0.29436 0.0
C380 C 0.05951 0.54129 0.34672 0.0
C381 C 0.08778 0.52171 0.23936 0.0
C382 C 0.10319 0.52508 0.40881 0.0
O383 O 0.06863 0.55319 0.33456 0.0
O384 O 0.06659 0.52748 0.34822 0.0
O385 O 0.10235 0.5165 0.37095 0.0
O386 O 0.09859 0.53984 0.4039 0.0
C387 C 0.11434 0.55852 0.29385 0.0
O388 O 0.09436 0.51467 0.27511 0.0
O389 O 0.08269 0.53611 0.2474 0.0
In390 In 0.21059 0.34243 0.06731 0.0
O391 O 0.18397 0.34655 0.04451 0.0
O392 O 0.19892 0.36763 0.05617 0.0
C393 C 0.20947 0.30971 0.08312 0.0
C394 C 0.22534 0.34425 0.9806 0.0
C395 C 0.22315 0.35256 0.15237 0.0
O396 O 0.19721 0.31894 0.09065 0.0
O397 O 0.22217 0.31704 0.06828 0.0
O398 O 0.23118 0.35328 0.11347 0.0
O399 O 0.20866 0.34714 0.14808 0.0
C400 C 0.1852 0.36202 0.04259 0.0
O401 O 0.23184 0.35028 0.01806 0.0
O402 O 0.21174 0.33717 0.98737 0.0
In403 In 0.40303 0.46311 0.82121 0.0
O404 O 0.40181 0.43845 0.78218 0.0
O405 O 0.37988 0.44739 0.81452 0.0
C406 C 0.43498 0.45887 0.8432 0.0
C407 C 0.4007 0.48115 0.73926 0.0
C408 C 0.39233 0.47467 0.90715 0.0
O409 O 0.42576 0.44696 0.83181 0.0
O410 O 0.42803 0.47278 0.8437 0.0
O411 O 0.39247 0.48339 0.86948 0.0
O412 O 0.39705 0.46001 0.90106 0.0
C413 C 0.3866 0.43644 0.78896 0.0
O414 O 0.38834 0.4776 0.76463 0.0
O415 O 0.41422 0.47646 0.75667 0.0
H416 H 0.14648 0.05907 0.8609 0.0
H417 H 0.10356 0.08897 0.88847 0.0
H418 H 0.16274 0.0767 0.91353 0.0
H419 H 0.11954 0.10617 0.94301 0.0
H420 H 0.15759 0.14284 0.00153 0.0
H421 H 0.14033 0.12605 0.94945 0.0
H422 H 0.16652 0.08248 0.99586 0.0
H423 H 0.1843 0.09948 0.04611 0.0
C424 C 0.14056 0.06948 0.87807 0.0
C425 C 0.12379 0.07269 0.87048 0.0
C426 C 0.14981 0.07947 0.90881 0.0
C427 C 0.14243 0.09274 0.93329 0.0
C428 C 0.12571 0.09618 0.92455 0.0
C429 C 0.11652 0.08632 0.89324 0.0
C430 C 0.15947 0.12964 0.0012 0.0
C431 C 0.17232 0.12246 0.02773 0.0
C432 C 0.14956 0.11998 0.97128 0.0
C433 C 0.15215 0.1029 0.96775 0.0
C434 C 0.16445 0.09564 0.99654 0.0
C435 C 0.17451 0.10534 0.0259 0.0
H436 H 0.11635 0.9069 0.28503 0.0
H437 H 0.14291 0.94901 0.23047 0.0
H438 H 0.1335 0.88871 0.23593 0.0
H439 H 0.15949 0.93107 0.18017 0.0
H440 H 0.19771 0.89339 0.13478 0.0
H441 H 0.18065 0.91141 0.18335 0.0
H442 H 0.13837 0.88067 0.15402 0.0
H443 H 0.15577 0.86216 0.10671 0.0
C444 C 0.1259 0.91224 0.26275 0.0
C445 C 0.12837 0.92935 0.26187 0.0
C446 C 0.13559 0.90186 0.23414 0.0
C447 C 0.14785 0.90841 0.20381 0.0
C448 C 0.15037 0.92553 0.20354 0.0
C449 C 0.14082 0.93585 0.23239 0.0
C450 C 0.18473 0.89056 0.13815 0.0
C451 C 0.17807 0.87637 0.11683 0.0
C452 C 0.17491 0.90094 0.16601 0.0
C453 C 0.15811 0.8975 0.17287 0.0
C454 C 0.15133 0.88354 0.15025 0.0
C455 C 0.16123 0.87304 0.12263 0.0
H456 H 0.39629 0.90783 0.39947 0.0
H457 H 0.35273 0.93415 0.35452 0.0
H458 H 0.37962 0.8907 0.45245 0.0
H459 H 0.33592 0.91661 0.40593 0.0
H460 H 0.31245 0.89654 0.54003 0.0
H461 H 0.33056 0.91304 0.4894 0.0
H462 H 0.35947 0.8697 0.45727 0.0
H463 H 0.34174 0.85341 0.50949 0.0
C464 C 0.38308 0.90968 0.40003 0.0
C465 C 0.3758 0.92235 0.37297 0.0
C466 C 0.37352 0.89987 0.43047 0.0
C467 C 0.35643 0.90242 0.43411 0.0
C468 C 0.34909 0.91459 0.40509 0.0
C469 C 0.35868 0.9245 0.37508 0.0
C470 C 0.32287 0.89063 0.52286 0.0
C471 C 0.32568 0.87371 0.52869 0.0
C472 C 0.33312 0.90002 0.49329 0.0
C473 C 0.34631 0.89265 0.46844 0.0
C474 C 0.34951 0.87583 0.47599 0.0
C475 C 0.33934 0.86648 0.50599 0.0
H476 H 0.39242 0.08935 0.75363 0.0
H477 H 0.34876 0.06119 0.78633 0.0
H478 H 0.37659 0.10661 0.69895 0.0
H479 H 0.33268 0.0789 0.73338 0.0
H480 H 0.31147 0.10055 0.59834 0.0
H481 H 0.32886 0.0837 0.65018 0.0
H482 H 0.35626 0.12708 0.69179 0.0
H483 H 0.33934 0.1437 0.63825 0.0
C484 C 0.37933 0.08711 0.75002 0.0
C485 C 0.37182 0.07391 0.77417 0.0
C486 C 0.37024 0.09701 0.71861 0.0
C487 C 0.35337 0.09404 0.71111 0.0
C488 C 0.34573 0.08128 0.73717 0.0
C489 C 0.35488 0.07126 0.76809 0.0
C490 C 0.32144 0.10639 0.61784 0.0
C491 C 0.32406 0.12341 0.61424 0.0
C492 C 0.33127 0.09679 0.64812 0.0
C493 C 0.34379 0.10405 0.676 0.0
C494 C 0.34683 0.12101 0.67071 0.0
C495 C 0.33713 0.13056 0.63994 0.0
H496 H 0.81191 0.89793 0.09923 0.0
H497 H 0.84226 0.85528 0.12646 0.0
H498 H 0.83025 0.91467 0.14853 0.0
H499 H 0.86019 0.87176 0.17747 0.0
H500 H 0.89711 0.90987 0.23281 0.0
H501 H 0.88004 0.89282 0.18083 0.0
H502 H 0.83669 0.91858 0.23087 0.0
H503 H 0.85393 0.93611 0.28118 0.0
C504 C 0.82259 0.89218 0.11543 0.0
C505 C 0.82567 0.87533 0.10896 0.0
C506 C 0.83299 0.90171 0.14425 0.0
C507 C 0.84657 0.89453 0.16775 0.0
C508 C 0.84995 0.87776 0.15972 0.0
C509 C 0.83966 0.8683 0.13042 0.0
C510 C 0.88391 0.91172 0.23317 0.0
C511 C 0.87684 0.92433 0.26098 0.0
C512 C 0.8741 0.90194 0.20333 0.0
C513 C 0.85698 0.90443 0.20108 0.0
C514 C 0.84987 0.91659 0.23065 0.0
C515 C 0.85971 0.9265 0.26003 0.0
H516 H 0.85279 0.06173 0.85183 0.0
H517 H 0.8942 0.09464 0.86771 0.0
H518 H 0.83621 0.07972 0.90255 0.0
H519 H 0.87762 0.11258 0.91919 0.0
H520 H 0.83521 0.14712 0.97328 0.0
H521 H 0.85322 0.13101 0.92071 0.0
H522 H 0.8364 0.0863 0.98906 0.0
H523 H 0.81829 0.10232 0.04098 0.0
C524 C 0.85829 0.07293 0.86563 0.0
C525 C 0.87481 0.07674 0.85599 0.0
C526 C 0.84885 0.08314 0.89512 0.0
C527 C 0.85572 0.09739 0.91564 0.0
C528 C 0.87199 0.10167 0.90393 0.0
C529 C 0.88147 0.09142 0.8744 0.0
C530 C 0.83559 0.13387 0.97759 0.0
C531 C 0.82528 0.12596 0.01102 0.0
C532 C 0.84588 0.12466 0.94745 0.0
C533 C 0.84598 0.10738 0.95015 0.0
C534 C 0.83629 0.09958 0.98534 0.0
C535 C 0.82605 0.10876 0.01544 0.0
H536 H 0.67692 0.10507 0.59022 0.0
H537 H 0.65851 0.14912 0.65887 0.0
H538 H 0.65903 0.08837 0.64088 0.0
H539 H 0.64074 0.13234 0.71021 0.0
H540 H 0.60063 0.09482 0.76114 0.0
H541 H 0.61687 0.11333 0.71051 0.0
H542 H 0.65905 0.08142 0.72697 0.0
H543 H 0.64281 0.06286 0.77679 0.0
C544 C 0.66889 0.1112 0.61569 0.0
C545 C 0.66917 0.12839 0.62075 0.0
C546 C 0.65877 0.10163 0.64507 0.0
C547 C 0.64872 0.10903 0.68018 0.0
C548 C 0.64835 0.12629 0.6835 0.0
C549 C 0.65851 0.13589 0.65407 0.0
C550 C 0.61345 0.09193 0.75457 0.0
C551 C 0.62043 0.07735 0.77267 0.0
C552 C 0.62273 0.10251 0.72553 0.0
C553 C 0.63914 0.09866 0.71403 0.0
C554 C 0.64631 0.0845 0.73422 0.0
C555 C 0.63706 0.07396 0.76319 0.0
H556 H 0.61471 0.90742 0.35416 0.0
H557 H 0.6439 0.94973 0.39389 0.0
H558 H 0.63222 0.88992 0.40424 0.0
H559 H 0.66084 0.93255 0.44534 0.0
H560 H 0.69833 0.89484 0.49477 0.0
H561 H 0.68112 0.91212 0.44442 0.0
H562 H 0.63835 0.88388 0.48651 0.0
H563 H 0.65588 0.86605 0.53549 0.0
C564 C 0.62492 0.91294 0.37337 0.0
C565 C 0.62801 0.9299 0.36985 0.0
C566 C 0.63483 0.90298 0.40256 0.0
C567 C 0.64791 0.90982 0.42917 0.0
C568 C 0.65107 0.92677 0.42491 0.0
C569 C 0.64132 0.93666 0.39539 0.0
C570 C 0.68522 0.89244 0.49382 0.0
C571 C 0.67844 0.87911 0.51918 0.0
C572 C 0.67531 0.90238 0.46492 0.0
C573 C 0.65831 0.89939 0.46111 0.0
C574 C 0.65144 0.88635 0.48782 0.0
C575 C 0.66143 0.87626 0.5164 0.0
H576 H 0.69428 0.60308 0.50506 0.0
H577 H 0.65311 0.63585 0.52743 0.0
H578 H 0.67725 0.58547 0.45519 0.0
H579 H 0.63568 0.61773 0.47914 0.0
H580 H 0.61399 0.59193 0.34771 0.0
H581 H 0.63124 0.60963 0.39792 0.0
H582 H 0.6557 0.56656 0.45513 0.0
H583 H 0.63911 0.54912 0.40346 0.0
C584 C 0.68144 0.60631 0.50025 0.0
C585 C 0.67502 0.62084 0.52023 0.0
C586 C 0.67163 0.59618 0.47163 0.0
C587 C 0.65506 0.60017 0.4628 0.0
C588 C 0.64847 0.61443 0.4843 0.0
C589 C 0.65838 0.62471 0.51252 0.0
C590 C 0.62325 0.58633 0.37053 0.0
C591 C 0.6253 0.56917 0.37138 0.0
C592 C 0.63299 0.59643 0.3998 0.0
C593 C 0.64483 0.58955 0.43092 0.0
C594 C 0.64693 0.57236 0.43116 0.0
C595 C 0.63738 0.56233 0.40151 0.0
H596 H 0.64069 0.4468 0.74134 0.0
H597 H 0.61176 0.40449 0.78247 0.0
H598 H 0.65832 0.42941 0.69277 0.0
H599 H 0.63006 0.38673 0.73557 0.0
H600 H 0.65584 0.36177 0.60901 0.0
H601 H 0.63743 0.37944 0.65572 0.0
H602 H 0.67893 0.40975 0.69648 0.0
H603 H 0.69695 0.3927 0.64803 0.0
C604 C 0.63831 0.43368 0.74081 0.0
C605 C 0.62489 0.42699 0.76592 0.0
C606 C 0.64848 0.42366 0.71298 0.0
C607 C 0.64569 0.4066 0.71013 0.0
C608 C 0.63243 0.39984 0.73619 0.0
C609 C 0.62206 0.40996 0.76357 0.0
C610 C 0.66091 0.37238 0.62739 0.0
C611 C 0.67779 0.37595 0.62452 0.0
C612 C 0.65042 0.3824 0.65468 0.0
C613 C 0.65665 0.39603 0.68017 0.0
C614 C 0.67356 0.39959 0.67673 0.0
C615 C 0.68395 0.38976 0.64895 0.0
H616 H 0.8509 0.43133 0.85065 0.0
H617 H 0.89524 0.40488 0.88785 0.0
H618 H 0.83499 0.41326 0.90298 0.0
H619 H 0.87948 0.38719 0.94164 0.0
H620 H 0.84259 0.34956 0.00289 0.0
H621 H 0.85931 0.36606 0.94826 0.0
H622 H 0.83133 0.40933 0.98735 0.0
H623 H 0.81426 0.39268 0.04052 0.0
C624 C 0.85721 0.42153 0.86964 0.0
C625 C 0.8743 0.41953 0.86522 0.0
C626 C 0.84814 0.4113 0.90016 0.0
C627 C 0.85599 0.39896 0.92734 0.0
C628 C 0.873 0.3965 0.92116 0.0
C629 C 0.88204 0.40664 0.89026 0.0
C630 C 0.84021 0.36265 1.00035 0.0
C631 C 0.8271 0.36983 0.02586 0.0
C632 C 0.84977 0.37212 0.96896 0.0
C633 C 0.84651 0.38899 0.96273 0.0
C634 C 0.8339 0.39629 0.9902 0.0
C635 C 0.82426 0.3868 0.02121 0.0
H636 H 0.8433 0.63432 0.09934 0.0
H637 H 0.80102 0.60462 0.13568 0.0
H638 H 0.86068 0.6166 0.1492 0.0
H639 H 0.81794 0.58765 0.18742 0.0
H640 H 0.85431 0.55038 0.24177 0.0
H641 H 0.83785 0.56756 0.18935 0.0
H642 H 0.86702 0.60994 0.22966 0.0
H643 H 0.88424 0.59229 0.28022 0.0
C644 C 0.83777 0.62394 0.11775 0.0
C645 C 0.82086 0.62074 0.11325 0.0
C646 C 0.84766 0.61392 0.14689 0.0
C647 C 0.84076 0.60068 0.17272 0.0
C648 C 0.82384 0.59746 0.1675 0.0
C649 C 0.81407 0.60725 0.13778 0.0
C650 C 0.85711 0.56341 0.23992 0.0
C651 C 0.8705 0.57002 0.26534 0.0
C652 C 0.84761 0.57332 0.20982 0.0
C653 C 0.85102 0.59022 0.20507 0.0
C654 C 0.8642 0.59693 0.23161 0.0
C655 C 0.87393 0.58689 0.26114 0.0
H656 H 0.31282 0.39683 0.60242 0.0
H657 H 0.34484 0.35487 0.62178 0.0
H658 H 0.33092 0.41339 0.65286 0.0
H659 H 0.36289 0.37144 0.67292 0.0
H660 H 0.39808 0.41318 0.72631 0.0
H661 H 0.38177 0.39542 0.67368 0.0
H662 H 0.3372 0.41368 0.73965 0.0
H663 H 0.35345 0.43156 0.79171 0.0
C664 C 0.32385 0.39121 0.61689 0.0
C665 C 0.32738 0.37454 0.60832 0.0
C666 C 0.33412 0.40064 0.64623 0.0
C667 C 0.34815 0.39362 0.66763 0.0
C668 C 0.35216 0.37719 0.65696 0.0
C669 C 0.34185 0.36772 0.62761 0.0
C670 C 0.3848 0.41319 0.73006 0.0
C671 C 0.37702 0.42381 0.76296 0.0
C672 C 0.37548 0.40304 0.69989 0.0
C673 C 0.3582 0.40337 0.70196 0.0
C674 C 0.35048 0.41344 0.73646 0.0
C675 C 0.35979 0.42354 0.76665 0.0
H676 H 0.33821 0.61793 0.56329 0.0
H677 H 0.32674 0.6496 0.44283 0.0
H678 H 0.35792 0.60288 0.51301 0.0
H679 H 0.34612 0.63428 0.39246 0.0
H680 H 0.35939 0.58182 0.31981 0.0
H681 H 0.34401 0.60241 0.36596 0.0
H682 H 0.38548 0.60857 0.46139 0.0
H683 H 0.40104 0.58833 0.4147 0.0
C684 C 0.34012 0.62183 0.52639 0.0
C685 C 0.33097 0.6349 0.50695 0.0
C686 C 0.35139 0.61327 0.49771 0.0
C687 C 0.35343 0.61745 0.44895 0.0
C688 C 0.3447 0.63085 0.42995 0.0
C689 C 0.3337 0.63963 0.45886 0.0
C690 C 0.36535 0.58787 0.3499 0.0
C691 C 0.38138 0.58348 0.36372 0.0
C692 C 0.35658 0.59964 0.37621 0.0
C693 C 0.36359 0.60694 0.41726 0.0
C694 C 0.37983 0.60304 0.42994 0.0
C695 C 0.38873 0.59154 0.40306 0.0
H696 H 0.11512 0.59232 0.29426 0.0
H697 H 0.13867 0.54953 0.23276 0.0
H698 H 0.13285 0.61014 0.2457 0.0
H699 H 0.15556 0.56705 0.1826 0.0
H700 H 0.1955 0.60164 0.13544 0.0
H701 H 0.17779 0.58465 0.18473 0.0
H702 H 0.13815 0.61968 0.16648 0.0
H703 H 0.15644 0.63727 0.11897 0.0
C704 C 0.12411 0.58675 0.27048 0.0
C705 C 0.12566 0.56956 0.26774 0.0
C706 C 0.13413 0.59693 0.24218 0.0
C707 C 0.1457 0.59008 0.21008 0.0
C708 C 0.14712 0.57285 0.20756 0.0
C709 C 0.13736 0.56275 0.23633 0.0
C710 C 0.18295 0.60566 0.14143 0.0
C711 C 0.17732 0.62074 0.12308 0.0
C712 C 0.17272 0.59586 0.1697 0.0
C713 C 0.15645 0.6007 0.17965 0.0
C714 C 0.15068 0.61567 0.16028 0.0
C715 C 0.16107 0.62565 0.13253 0.0
H716 H 0.14557 0.4372 0.85874 0.0
H717 H 0.10307 0.4066 0.88514 0.0
H718 H 0.16231 0.41899 0.90833 0.0
H719 H 0.11961 0.38871 0.93639 0.0
H720 H 0.18392 0.39553 0.04029 0.0
H721 H 0.16589 0.41263 0.99115 0.0
H722 H 0.14113 0.36899 0.93913 0.0
H723 H 0.15875 0.352 0.98983 0.0
C724 C 0.13985 0.4265 0.87489 0.0
C725 C 0.12304 0.42331 0.86808 0.0
C726 C 0.14938 0.41617 0.90385 0.0
C727 C 0.14226 0.40253 0.92716 0.0
C728 C 0.12554 0.39903 0.91884 0.0
C729 C 0.11605 0.40928 0.88942 0.0
C730 C 0.17442 0.38964 0.01901 0.0
C731 C 0.17274 0.37245 0.01886 0.0
C732 C 0.16422 0.39941 0.99033 0.0
C733 C 0.15224 0.39218 0.96041 0.0
C734 C 0.15014 0.375 0.96186 0.0
C735 C 0.16024 0.36525 0.99097 0.0
H736 H 0.20912 0.14444 0.90372 0.0
H737 H 0.25591 0.15974 0.96199 0.0
H738 H 0.2208 0.14396 0.82315 0.0
H739 H 0.26748 0.16044 0.88094 0.0
H740 H 0.28829 0.14643 0.73616 0.0
H741 H 0.2767 0.14507 0.81672 0.0
H742 H 0.2294 0.16016 0.75996 0.0
H743 H 0.24093 0.16035 0.67881 0.0
C744 C 0.22192 0.14785 0.89906 0.0
C745 C 0.23165 0.15212 0.93891 0.0
C746 C 0.2286 0.14774 0.85276 0.0
C747 C 0.2451 0.15228 0.84504 0.0
C748 C 0.25482 0.15655 0.88527 0.0
C749 C 0.24821 0.15627 0.93179 0.0
C750 C 0.27539 0.14938 0.74104 0.0
C751 C 0.26547 0.15349 0.70142 0.0
C752 C 0.26875 0.14875 0.78734 0.0
C753 C 0.25208 0.15261 0.79534 0.0
C754 C 0.24219 0.15679 0.75538 0.0
C755 C 0.24878 0.15703 0.70883 0.0
H756 H 0.07879 0.96133 0.15287 0.0
H757 H 0.09757 0.00783 0.20475 0.0
H758 H 0.07809 0.97223 0.07095 0.0
H759 H 0.09676 0.01876 0.12261 0.0
H760 H 0.07591 0.03651 0.97699 0.0
H761 H 0.07517 0.02553 0.05877 0.0
H762 H 0.09984 0.98147 0.01008 0.0
H763 H 0.10069 0.9925 0.92801 0.0
C764 C 0.08264 0.97392 0.14681 0.0
C765 C 0.08824 0.98375 0.18513 0.0
C766 C 0.08234 0.9801 0.09991 0.0
C767 C 0.08743 0.99629 0.09054 0.0
C768 C 0.09268 0.00626 0.12899 0.0
C769 C 0.09318 1e-05 0.17588 0.0
C770 C 0.0811 0.02444 0.98366 0.0
C771 C 0.08836 0.01534 0.94619 0.0
C772 C 0.08075 0.01822 0.0305 0.0
C773 C 0.08748 0.0027 0.04066 0.0
C774 C 0.09447 0.99344 0.00305 0.0
C775 C 0.095 -0.00025 0.95622 0.0
H776 H 0.20866 0.84379 0.23964 0.0
H777 H 0.25693 0.8337 0.18193 0.0
H778 H 0.22008 0.84543 0.32035 0.0
H779 H 0.26837 0.83415 0.26314 0.0
H780 H 0.28756 0.85219 0.40573 0.0
H781 H 0.27568 0.85131 0.32548 0.0
H782 H 0.23072 0.8312 0.38498 0.0
H783 H 0.2424 0.83325 0.46575 0.0
C784 C 0.22172 0.84164 0.24447 0.0
C785 C 0.23194 0.83864 0.20467 0.0
C786 C 0.22828 0.84247 0.29086 0.0
C787 C 0.2452 0.83993 0.29872 0.0
C788 C 0.25535 0.83657 0.25866 0.0
C789 C 0.24882 0.83615 0.21207 0.0
C790 C 0.27509 0.8477 0.40152 0.0
C791 C 0.26586 0.84281 0.44176 0.0
C792 C 0.26831 0.84701 0.35541 0.0
C793 C 0.25224 0.84101 0.34825 0.0
C794 C 0.24301 0.83615 0.38888 0.0
C795 C 0.24969 0.83723 0.43523 0.0
H796 H 0.39218 0.99186 0.71542 0.0
H797 H 0.41468 0.03619 0.6601 0.0
H798 H 0.39208 0.98017 0.63406 0.0
H799 H 0.41459 0.02453 0.57922 0.0
H800 H 0.39523 0.00473 0.43461 0.0
H801 H 0.39408 0.01629 0.51602 0.0
H802 H 0.41319 0.97076 0.57376 0.0
H803 H 0.41432 0.95923 0.49275 0.0
C804 C 0.39711 -0.00093 0.68594 0.0
C805 C 0.40348 0.01489 0.69407 0.0
C806 C 0.3971 0.99238 0.63948 0.0
C807 C 0.40328 0.00148 0.60035 0.0
C808 C 0.40956 0.01732 0.60858 0.0
C809 C 0.40972 0.02393 0.65496 0.0
C810 C 0.39918 0.99723 0.46474 0.0
C811 C 0.40492 0.98112 0.45737 0.0
C812 C 0.39856 0.00384 0.51123 0.0
C813 C 0.40353 0.9944 0.55117 0.0
C814 C 0.40912 0.97825 0.54373 0.0
C815 C 0.40988 0.9717 0.49731 0.0
H816 H 0.74277 0.83374 0.17258 0.0
H817 H 0.78833 0.85166 0.23276 0.0
H818 H 0.73102 0.83195 0.25333 0.0
H819 H 0.77641 0.85104 0.31295 0.0
H820 H 0.75697 0.83473 0.45695 0.0
H821 H 0.76854 0.83444 0.37587 0.0
H822 H 0.72063 0.84658 0.31746 0.0
H823 H 0.70905 0.84568 0.39806 0.0
C824 C 0.75015 0.83753 0.20314 0.0
C825 C 0.76643 0.84277 0.19661 0.0
C826 C 0.74343 0.8366 0.24949 0.0
C827 C 0.75274 0.8413 0.29016 0.0
C828 C 0.76895 0.84688 0.28303 0.0
C829 C 0.77576 0.84741 0.23692 0.0
C830 C 0.74897 0.8372 0.42658 0.0
C831 C 0.73215 0.84017 0.43364 0.0
C832 C 0.75558 0.8372 0.38004 0.0
C833 C 0.74558 0.84058 0.33967 0.0
C834 C 0.72872 0.84358 0.34719 0.0
C835 C 0.72206 0.84319 0.39353 0.0
H836 H 0.89603 0.99457 0.92102 0.0
H837 H 0.91511 0.04013 0.97877 0.0
H838 H 0.89586 0.98274 0.00212 0.0
H839 H 0.915 0.0283 0.05949 0.0
H840 H 0.89625 0.00652 0.20267 0.0
H841 H 0.89507 0.01851 0.1218 0.0
H842 H 0.91686 0.97435 0.06299 0.0
H843 H 0.91798 0.96238 0.14341 0.0
C844 C 0.90017 0.00204 0.951 0.0
C845 C 0.90564 0.01823 0.94358 0.0
C846 C 0.90013 0.99526 0.99734 0.0
C847 C 0.90542 0.00461 0.03711 0.0
C848 C 0.91069 0.02087 0.02964 0.0
C849 C 0.91086 0.02758 0.98336 0.0
C850 C 0.9008 -0.00059 0.17243 0.0
C851 C 0.90724 0.98355 0.17933 0.0
C852 C 0.90016 0.00628 0.12622 0.0
C853 C 0.90583 0.99733 0.08609 0.0
C854 C 0.91221 0.98145 0.09311 0.0
C855 C 0.91296 0.97466 0.13924 0.0
H856 H 0.74028 0.16299 0.95565 0.0
H857 H 0.77252 0.12248 0.92008 0.0
H858 H 0.73033 0.16355 0.87284 0.0
H859 H 0.76301 0.12339 0.83684 0.0
H860 H 0.73282 0.12271 0.69654 0.0
H861 H 0.74078 0.11939 0.78089 0.0
H862 H 0.74172 0.17229 0.79758 0.0
H863 H 0.7333 0.17554 0.71402 0.0
C864 C 0.74508 0.15406 0.93025 0.0
C865 C 0.75723 0.14276 0.94423 0.0
C866 C 0.73952 0.1545 0.88266 0.0
C867 C 0.74613 0.14374 0.84792 0.0
C868 C 0.75762 0.13182 0.86263 0.0
C869 C 0.76308 0.1313 0.91037 0.0
C870 C 0.7349 0.1336 0.71821 0.0
C871 C 0.73242 0.14938 0.6988 0.0
C872 C 0.73944 0.13171 0.76653 0.0
C873 C 0.74165 0.14557 0.79625 0.0
C874 C 0.73969 0.16134 0.77614 0.0
C875 C 0.73506 0.16322 0.72806 0.0
H876 H 0.60006 0.99523 0.70482 0.0
H877 H 0.57988 0.04078 0.65024 0.0
H878 H 0.60007 0.9839 0.62314 0.0
H879 H 0.57981 0.02944 0.56891 0.0
H880 H 0.59992 0.00895 0.42486 0.0
H881 H 0.59997 0.02061 0.50617 0.0
H882 H 0.57929 0.97547 0.56175 0.0
H883 H 0.57931 0.96381 0.48086 0.0
C884 C 0.59561 0.00279 0.67541 0.0
C885 C 0.58994 0.01886 0.68386 0.0
C886 C 0.59555 0.9963 0.62876 0.0
C887 C 0.58993 0.0058 0.58971 0.0
C888 C 0.58436 0.0219 0.59822 0.0
C889 C 0.58431 0.02834 0.64483 0.0
C890 C 0.5953 0.00159 0.45445 0.0
C891 C 0.5896 0.9855 0.44656 0.0
C892 C 0.5953 0.00825 0.50091 0.0
C893 C 0.58972 0.9989 0.54029 0.0
C894 C 0.58388 0.98287 0.53221 0.0
C895 C 0.58377 0.97626 0.48582 0.0
H896 H 0.708 0.64848 0.39706 0.0
H897 H 0.75468 0.66341 0.45692 0.0
H898 H 0.72002 0.64786 0.31692 0.0
H899 H 0.7666 0.66397 0.37632 0.0
H900 H 0.78798 0.64847 0.23336 0.0
H901 H 0.77594 0.64801 0.31347 0.0
H902 H 0.72927 0.66363 0.25354 0.0
H903 H 0.74122 0.6629 0.17297 0.0
C904 C 0.72083 0.65184 0.39281 0.0
C905 C 0.73046 0.65597 0.43299 0.0
C906 C 0.72772 0.65162 0.34678 0.0
C907 C 0.74432 0.65594 0.3397 0.0
C908 C 0.75388 0.66023 0.38021 0.0
C909 C 0.74706 0.66004 0.42644 0.0
C910 C 0.77513 0.65175 0.23748 0.0
C911 C 0.76549 0.6557 0.19718 0.0
C912 C 0.76823 0.65163 0.28349 0.0
C913 C 0.7516 0.65587 0.29042 0.0
C914 C 0.74202 0.65997 0.24978 0.0
C915 C 0.74885 0.65968 0.20356 0.0
H916 H 0.57426 0.53555 0.47881 0.0
H917 H 0.59614 0.49072 0.42466 0.0
H918 H 0.57386 0.524 0.55982 0.0
H919 H 0.59584 0.47919 0.50606 0.0
H920 H 0.57715 0.4588 0.65039 0.0
H921 H 0.57603 0.47 0.56896 0.0
H922 H 0.5947 0.51644 0.62155 0.0
H923 H 0.5957 0.50526 0.70328 0.0
C924 C 0.5789 0.52318 0.48418 0.0
C925 C 0.58525 0.51402 0.44545 0.0
C926 C 0.57877 0.51663 0.53063 0.0
C927 C 0.58491 0.50075 0.53928 0.0
C928 C 0.59092 0.49143 0.50035 0.0
C929 C 0.59113 0.49803 0.45384 0.0
C930 C 0.58095 0.47142 0.64461 0.0
C931 C 0.5865 0.48118 0.68315 0.0
C932 C 0.5804 0.47779 0.59794 0.0
C933 C 0.5853 0.49407 0.58892 0.0
C934 C 0.59069 0.50389 0.62756 0.0
C935 C 0.59133 0.49749 0.67426 0.0
H936 H 0.71158 0.33124 0.74395 0.0
H937 H 0.75751 0.34967 0.68701 0.0
H938 H 0.72331 0.33105 0.82485 0.0
H939 H 0.76922 0.34959 0.76816 0.0
H940 H 0.78926 0.32823 0.90987 0.0
H941 H 0.77731 0.32884 0.82944 0.0
H942 H 0.73313 0.35096 0.88702 0.0
H943 H 0.74509 0.35024 0.96797 0.0
C944 C 0.72419 0.33525 0.74874 0.0
C945 C 0.73367 0.34042 0.70918 0.0
C946 C 0.73085 0.33525 0.79511 0.0
C947 C 0.74715 0.34033 0.80282 0.0
C948 C 0.75665 0.34547 0.76321 0.0
C949 C 0.74995 0.34556 0.71683 0.0
C950 C 0.77698 0.3332 0.90544 0.0
C951 C 0.76808 0.33917 0.9452 0.0
C952 C 0.77019 0.33365 0.8593 0.0
C953 C 0.75432 0.34 0.85193 0.0
C954 C 0.74535 0.34588 0.89173 0.0
C955 C 0.7522 0.34553 0.93798 0.0
H956 H 0.89305 0.49103 0.20837 0.0
H957 H 0.91513 0.53509 0.14988 0.0
H958 H 0.89163 0.47926 0.12741 0.0
H959 H 0.91384 0.52328 0.06918 0.0
H960 H 0.89305 0.50315 0.92673 0.0
H961 H 0.89295 0.5151 0.00777 0.0
H962 H 0.91135 0.4693 0.06573 0.0
H963 H 0.91136 0.45739 0.98526 0.0
C964 C 0.89766 0.49815 0.17827 0.0
C965 C 0.90426 0.51393 0.18542 0.0
C966 C 0.89688 0.49142 0.13199 0.0
C967 C 0.9026 0.50038 0.092 0.0
C968 C 0.90914 0.51618 0.09922 0.0
C969 C 0.91001 0.52287 0.14548 0.0
C970 C 0.89702 0.49566 0.95687 0.0
C971 C 0.90226 0.47938 0.94973 0.0
C972 C 0.89703 0.5025 0.00314 0.0
C973 C 0.90214 0.49311 0.04304 0.0
C974 C 0.90717 0.47677 0.0358 0.0
C975 C 0.90728 0.47 0.98964 0.0
H976 H 0.28996 0.33733 0.73422 0.0
H977 H 0.24464 0.35595 0.67365 0.0
H978 H 0.27787 0.33818 0.8145 0.0
H979 H 0.23254 0.3569 0.75436 0.0
H980 H 0.21177 0.33475 0.89558 0.0
H981 H 0.22389 0.33626 0.81546 0.0
H982 H 0.26775 0.35814 0.87578 0.0
H983 H 0.25561 0.35653 0.95639 0.0
C984 C 0.27743 0.34168 0.73812 0.0
C985 C 0.2682 0.3465 0.69767 0.0
C986 C 0.27055 0.34228 0.78415 0.0
C987 C 0.25427 0.34761 0.7907 0.0
C988 C 0.24508 0.3526 0.75029 0.0
C989 C 0.25201 0.3521 0.70418 0.0
C990 C 0.22399 0.33991 0.89178 0.0
C991 C 0.23279 0.34546 0.93224 0.0
C992 C 0.23087 0.34089 0.84583 0.0
C993 C 0.24675 0.34735 0.83935 0.0
C994 C 0.25553 0.35299 0.8798 0.0
C995 C 0.24859 0.35211 0.92584 0.0
H996 H 0.41863 0.49819 0.43666 0.0
H997 H 0.37436 0.52617 0.46345 0.0
H998 H 0.41845 0.4886 0.51991 0.0
H999 H 0.37444 0.51705 0.54707 0.0
H1000 H 0.37283 0.4863 0.6862 0.0
H1001 H 0.37112 0.4945 0.60171 0.0
H1002 H 0.42401 0.50011 0.5975 0.0
H1003 H 0.4257 0.49143 0.68132 0.0
C1004 C 0.40876 0.50214 0.46021 0.0
C1005 C 0.39654 0.51295 0.44355 0.0
C1006 C 0.40875 0.49681 0.50811 0.0
C1007 C 0.39659 0.50227 0.54053 0.0
C1008 C 0.38395 0.51251 0.52316 0.0
C1009 C 0.38391 0.51776 0.47517 0.0
C1010 C 0.38406 0.48948 0.6673 0.0
C1011 C 0.3994 0.48822 0.69034 0.0
C1012 C 0.38308 0.49416 0.61885 0.0
C1013 C 0.39744 0.49776 0.5925 0.0
C1014 C 0.41273 0.49703 0.61624 0.0
C1015 C 0.4137 0.49226 0.6645 0.0
H1016 H 0.28038 0.62703 0.42304 0.0
H1017 H 0.24083 0.6591 0.46754 0.0
H1018 H 0.2703 0.62779 0.3406 0.0
H1019 H 0.23006 0.65914 0.38559 0.0
H1020 H 0.22784 0.67441 0.2293 0.0
H1021 H 0.23687 0.67128 0.3123 0.0
H1022 H 0.25065 0.6208 0.28289 0.0
H1023 H 0.24243 0.62438 0.19899 0.0
C1024 C 0.2692 0.63383 0.4154 0.0
C1025 C 0.26142 0.64309 0.45155 0.0
C1026 C 0.26339 0.63426 0.36804 0.0
C1027 C 0.24949 0.64376 0.35599 0.0
C1028 C 0.24109 0.65211 0.39309 0.0
C1029 C 0.2471 0.65192 0.44024 0.0
C1030 C 0.23295 0.66271 0.24058 0.0
C1031 C 0.23453 0.64967 0.20778 0.0
C1032 C 0.23793 0.6608 0.28837 0.0
C1033 C 0.2443 0.64569 0.30479 0.0
C1034 C 0.24599 0.63267 0.27161 0.0
C1035 C 0.24128 0.6347 0.22349 0.0
H1036 H 0.0772 0.53619 0.15661 0.0
H1037 H 0.09711 0.4907 0.21241 0.0
H1038 H 0.07756 0.52477 0.07537 0.0
H1039 H 0.09752 0.47927 0.13086 0.0
H1040 H 0.07844 0.45954 0.98567 0.0
H1041 H 0.07758 0.47085 0.06695 0.0
H1042 H 0.09876 0.51624 0.01482 0.0
H1043 H 0.09957 0.50491 0.9331 0.0
C1044 C 0.08157 0.52371 0.15154 0.0
C1045 C 0.0871 0.51431 0.19085 0.0
C1046 C 0.08189 0.51723 0.10497 0.0
C1047 C 0.08764 0.50118 0.09677 0.0
C1048 C 0.09291 0.49166 0.1362 0.0
C1049 C 0.09271 0.49819 0.18281 0.0
C1050 C 0.08288 0.47195 0.99149 0.0
C1051 C 0.08905 0.48137 0.95305 0.0
C1052 C 0.08248 0.47837 0.0381 0.0
C1053 C 0.08813 0.4944 0.04722 0.0
C1054 C 0.0942 0.50389 0.00871 0.0
C1055 C 0.09472 0.4974 0.96204 0.0
H1056 H 0.23323 0.2061 0.11506 0.0
H1057 H 0.18146 0.20655 0.07996 0.0
H1058 H 0.23322 0.236 0.11952 0.0
H1059 H 0.18153 0.23662 0.08233 0.0
H1060 H 0.18476 0.29105 0.12217 0.0
H1061 H 0.18399 0.26107 0.13025 0.0
H1062 H 0.23204 0.25792 0.06386 0.0
H1063 H 0.23301 0.28769 0.05758 0.0
C1064 C 0.22183 0.21263 0.10832 0.0
C1065 C 0.20738 0.20404 0.09677 0.0
C1066 C 0.22184 0.22978 0.11056 0.0
C1067 C 0.20744 0.23877 0.10056 0.0
C1068 C 0.19282 0.23011 0.09064 0.0
C1069 C 0.19277 0.21289 0.08901 0.0
C1070 C 0.19518 0.28389 0.10969 0.0
C1071 C 0.20896 0.29168 0.08936 0.0
C1072 C 0.19471 0.26673 0.11405 0.0
C1073 C 0.20798 0.25705 0.09787 0.0
C1074 C 0.22175 0.26495 0.07768 0.0
C1075 C 0.22227 0.28205 0.07373 0.0
H1076 H 0.04294 0.93122 0.32125 0.0
H1077 H 0.04295 0.97842 0.3928 0.0
H1078 H 0.01287 0.93062 0.32493 0.0
H1079 H 0.01307 0.97761 0.39803 0.0
H1080 H 0.95793 0.93117 0.36119 0.0
H1081 H 0.98776 0.92945 0.37301 0.0
H1082 H 0.99212 0.98115 0.33839 0.0
H1083 H 0.96253 0.98291 0.32786 0.0
C1084 C 0.03653 0.94125 0.33884 0.0
C1085 C 0.04522 0.95497 0.35612 0.0
C1086 C 0.01931 0.9409 0.3411 0.0
C1087 C 0.01055 0.95421 0.36102 0.0
C1088 C 0.01941 0.96736 0.38132 0.0
C1089 C 0.03653 0.96778 0.37862 0.0
C1090 C 0.96531 0.94216 0.35658 0.0
C1091 C 0.95792 0.95717 0.34361 0.0
C1092 C 0.98237 0.94117 0.36312 0.0
C1093 C 0.99233 0.95517 0.3569 0.0
C1094 C 0.98482 0.97018 0.34447 0.0
C1095 C 0.96784 0.97118 0.33803 0.0
H1096 H 0.26573 0.78956 0.61441 0.0
H1097 H 0.31761 0.79014 0.58049 0.0
H1098 H 0.26621 0.75965 0.61723 0.0
H1099 H 0.31801 0.76005 0.58149 0.0
H1100 H 0.31502 0.70541 0.62254 0.0
H1101 H 0.31556 0.73542 0.62984 0.0
H1102 H 0.26814 0.7381 0.55953 0.0
H1103 H 0.26741 0.70829 0.55378 0.0
C1104 C 0.27726 0.78326 0.60761 0.0
C1105 C 0.2916 0.79213 0.59685 0.0
C1106 C 0.27751 0.76611 0.60891 0.0
C1107 C 0.29209 0.75742 0.59885 0.0
C1108 C 0.3066 0.76635 0.58974 0.0
C1109 C 0.30637 0.78357 0.58894 0.0
C1110 C 0.30471 0.71247 0.60887 0.0
C1111 C 0.29115 0.70454 0.58777 0.0
C1112 C 0.30505 0.72964 0.61283 0.0
C1113 C 0.29185 0.73917 0.59556 0.0
C1114 C 0.27836 0.73115 0.57419 0.0
C1115 C 0.27798 0.71405 0.57055 0.0
H1116 H 0.4547 0.01495 0.87964 0.0
H1117 H 0.45443 0.06622 0.83862 0.0
H1118 H 0.4846 0.01554 0.88511 0.0
H1119 H 0.48443 0.06669 0.84187 0.0
H1120 H 0.53888 0.06512 0.87853 0.0
H1121 H 0.50898 0.06534 0.88902 0.0
H1122 H 0.5064 0.01624 0.82919 0.0
H1123 H 0.53609 0.01584 0.82063 0.0
C1124 C 0.46107 0.02637 0.87195 0.0
C1125 C 0.45229 0.0405 0.85831 0.0
C1126 C 0.4782 0.0267 0.87475 0.0
C1127 C 0.48698 0.0411 0.86318 0.0
C1128 C 0.4781 0.05543 0.85145 0.0
C1129 C 0.46091 0.05515 0.84932 0.0
C1130 C 0.53187 0.05435 0.8681 0.0
C1131 C 0.53979 0.04047 0.8488 0.0
C1132 C 0.51475 0.05449 0.87385 0.0
C1133 C 0.50525 0.04079 0.86007 0.0
C1134 C 0.5133 0.02688 0.8412 0.0
C1135 C 0.53035 0.02669 0.83589 0.0
H1136 H 0.22959 0.78867 0.00682 0.0
H1137 H 0.18149 0.78808 0.07287 0.0
H1138 H 0.22925 0.7588 0.0016 0.0
H1139 H 0.18137 0.75797 0.06951 0.0
H1140 H 0.1828 0.70309 0.02987 0.0
H1141 H 0.18085 0.73305 0.02134 0.0
H1142 H 0.23231 0.73741 0.05889 0.0
H1143 H 0.23432 0.70774 0.06582 0.0
C1144 C 0.21889 0.78211 0.02006 0.0
C1145 C 0.20565 0.79065 0.04074 0.0
C1146 C 0.21873 0.76498 0.01736 0.0
C1147 C 0.20543 0.75593 0.03602 0.0
C1148 C 0.19178 0.76454 0.0546 0.0
C1149 C 0.19186 0.78177 0.05672 0.0
C1150 C 0.19369 0.71051 0.03587 0.0
C1151 C 0.20872 0.70308 0.04836 0.0
C1152 C 0.19256 0.72766 0.03125 0.0
C1153 C 0.20644 0.73766 0.03911 0.0
C1154 C 0.22144 0.73012 0.05147 0.0
C1155 C 0.22258 0.71307 0.05582 0.0
H1156 H 0.4604 0.9829 0.31487 0.0
H1157 H 0.45713 0.932 0.27075 0.0
H1158 H 0.49008 0.98198 0.30597 0.0
H1159 H 0.48705 0.93117 0.26039 0.0
H1160 H 0.54191 0.93231 0.31234 0.0
H1161 H 0.51185 0.93154 0.30906 0.0
H1162 H 0.51149 0.98043 0.24754 0.0
H1163 H 0.54137 0.98138 0.25251 0.0
C1164 C 0.46603 0.97155 0.30265 0.0
C1165 C 0.45645 0.95751 0.29358 0.0
C1166 C 0.48307 0.97104 0.29717 0.0
C1167 C 0.49098 0.95652 0.28215 0.0
C1168 C 0.48136 0.94251 0.27242 0.0
C1169 C 0.46424 0.943 0.2781 0.0
C1170 C 0.53537 0.94278 0.29756 0.0
C1171 C 0.54392 0.95698 0.28329 0.0
C1172 C 0.51816 0.94233 0.29546 0.0
C1173 C 0.50924 0.95603 0.2787 0.0
C1174 C 0.51794 0.96983 0.26179 0.0
C1175 C 0.53507 0.97034 0.26435 0.0
H1176 H 0.31649 0.20712 0.55802 0.0
H1177 H 0.26473 0.20766 0.52274 0.0
H1178 H 0.3171 0.23716 0.55416 0.0
H1179 H 0.26543 0.23752 0.5167 0.0
H1180 H 0.26667 0.28958 0.57521 0.0
H1181 H 0.26702 0.25977 0.57084 0.0
H1182 H 0.31529 0.26137 0.50531 0.0
H1183 H 0.31514 0.29142 0.51158 0.0
C1184 C 0.30532 0.21367 0.54862 0.0
C1185 C 0.29052 0.20512 0.54124 0.0
C1186 C 0.30567 0.23087 0.54613 0.0
C1187 C 0.29126 0.23981 0.53567 0.0
C1188 C 0.27666 0.23109 0.52607 0.0
C1189 C 0.27627 0.21396 0.52921 0.0
C1190 C 0.27733 0.28359 0.55967 0.0
C1191 C 0.29088 0.29282 0.54373 0.0
C1192 C 0.2775 0.26646 0.5568 0.0
C1193 C 0.29114 0.25811 0.53737 0.0
C1194 C 0.30466 0.26738 0.52095 0.0
C1195 C 0.30455 0.28458 0.52426 0.0
H1196 H 0.96053 0.01697 0.8044 0.0
H1197 H 0.95694 0.06737 0.75594 0.0
H1198 H 0.99018 0.01793 0.7952 0.0
H1199 H 0.98684 0.06822 0.74507 0.0
H1200 H 0.04166 0.06786 0.79762 0.0
H1201 H 0.01164 0.06859 0.79277 0.0
H1202 H 0.01161 0.01883 0.73742 0.0
H1203 H 0.04146 0.01793 0.74429 0.0
C1204 C 0.96609 0.02821 0.79114 0.0
C1205 C 0.95643 0.0421 0.78097 0.0
C1206 C 0.98311 0.02873 0.78543 0.0
C1207 C 0.99093 0.04312 0.76899 0.0
C1208 C 0.98122 0.05699 0.75817 0.0
C1209 C 0.96412 0.05649 0.76419 0.0
C1210 C 0.0352 0.0572 0.7837 0.0
C1211 C 0.04381 0.04276 0.77197 0.0
C1212 C 0.01801 0.05762 0.78074 0.0
C1213 C 0.00918 0.04365 0.7655 0.0
C1214 C 0.01798 0.02964 0.75058 0.0
C1215 C 0.03509 0.02915 0.75417 0.0
H1216 H 0.81733 0.70623 0.01993 0.0
H1217 H 0.76682 0.71004 0.06726 0.0
H1218 H 0.81863 0.73627 0.01213 0.0
H1219 H 0.76824 0.73973 0.06121 0.0
H1220 H 0.76862 0.79098 0.00876 0.0
H1221 H 0.76934 0.76112 0.0036 0.0
H1222 H 0.8189 0.76112 0.06035 0.0
H1223 H 0.81837 0.79121 0.06344 0.0
C1224 C 0.80655 0.71348 0.02871 0.0
C1225 C 0.79196 0.70581 0.04395 0.0
C1226 C 0.8073 0.73066 0.02447 0.0
C1227 C 0.79349 0.74042 0.03559 0.0
C1228 C 0.77899 0.73263 0.05113 0.0
C1229 C 0.77821 0.71557 0.05498 0.0
C1230 C 0.77974 0.78461 0.01961 0.0
C1231 C 0.79337 0.79336 0.03701 0.0
C1232 C 0.78013 0.76748 0.01694 0.0
C1233 C 0.79406 0.75868 0.03245 0.0
C1234 C 0.80801 0.7675 0.04788 0.0
C1235 C 0.80769 0.78472 0.0499 0.0
H1236 H 0.67985 0.2072 0.56481 0.0
H1237 H 0.72861 0.20654 0.50307 0.0
H1238 H 0.67982 0.23727 0.56196 0.0
H1239 H 0.72837 0.23644 0.49814 0.0
H1240 H 0.73293 0.28715 0.56554 0.0
H1241 H 0.73097 0.25757 0.55612 0.0
H1242 H 0.6798 0.26236 0.51557 0.0
H1243 H 0.68169 0.29221 0.52676 0.0
C1244 C 0.69039 0.21349 0.54958 0.0
C1245 C 0.70433 0.20461 0.5348 0.0
C1246 C 0.69036 0.23072 0.54774 0.0
C1247 C 0.70421 0.23931 0.53057 0.0
C1248 C 0.71768 0.23026 0.51284 0.0
C1249 C 0.71779 0.21312 0.51534 0.0
C1250 C 0.72127 0.28193 0.55436 0.0
C1251 C 0.70746 0.29199 0.54693 0.0
C1252 C 0.72017 0.26494 0.54853 0.0
C1253 C 0.70526 0.25754 0.53463 0.0
C1254 C 0.69144 0.26764 0.52666 0.0
C1255 C 0.69253 0.28473 0.53284 0.0
H1256 H 0.81912 0.28703 0.11504 0.0
H1257 H 0.76665 0.28527 0.08983 0.0
H1258 H 0.82016 0.25683 0.11289 0.0
H1259 H 0.76774 0.25535 0.0877 0.0
H1260 H 0.78007 0.20683 0.01522 0.0
H1261 H 0.78099 0.23652 0.02554 0.0
H1262 H 0.80868 0.23055 0.15714 0.0
H1263 H 0.80774 0.2005 0.14694 0.0
C1264 C 0.80781 0.28021 0.10972 0.0
C1265 C 0.79283 0.28849 0.10212 0.0
C1266 C 0.80841 0.26297 0.10862 0.0
C1267 C 0.79407 0.25383 0.09948 0.0
C1268 C 0.77902 0.26213 0.09404 0.0
C1269 C 0.7784 0.27926 0.09546 0.0
C1270 C 0.78647 0.21179 0.04624 0.0
C1271 C 0.79374 0.20134 0.08046 0.0
C1272 C 0.7869 0.22879 0.05226 0.0
C1273 C 0.79471 0.23578 0.09246 0.0
C1274 C 0.80257 0.22542 0.12586 0.0
C1275 C 0.80201 0.20829 0.12005 0.0
H1276 H 0.67802 0.70675 0.60588 0.0
H1277 H 0.72966 0.71045 0.57046 0.0
H1278 H 0.67668 0.73678 0.61484 0.0
H1279 H 0.72827 0.7401 0.57798 0.0
H1280 H 0.72704 0.79082 0.63304 0.0
H1281 H 0.72554 0.76098 0.63771 0.0
H1282 H 0.6782 0.76202 0.56667 0.0
H1283 H 0.67947 0.79212 0.56376 0.0
C1284 C 0.68905 0.71397 0.60003 0.0
C1285 C 0.70396 0.70627 0.5877 0.0
C1286 C 0.68828 0.73113 0.60495 0.0
C1287 C 0.70241 0.74083 0.59764 0.0
C1288 C 0.71724 0.73302 0.58508 0.0
C1289 C 0.71801 0.71598 0.58037 0.0
C1290 C 0.7162 0.78469 0.61903 0.0
C1291 C 0.70347 0.79373 0.59748 0.0
C1292 C 0.71537 0.76758 0.62144 0.0
C1293 C 0.70191 0.75907 0.60162 0.0
C1294 C 0.68872 0.76819 0.58239 0.0
C1295 C 0.68947 0.78541 0.58054 0.0
H1296 H 0.53931 0.43069 0.86155 0.0
H1297 H 0.53659 0.48293 0.83356 0.0
H1298 H 0.50934 0.42981 0.87093 0.0
H1299 H 0.50694 0.48201 0.84101 0.0
H1300 H 0.45524 0.4805 0.88832 0.0
H1301 H 0.48505 0.47901 0.8957 0.0
H1302 H 0.48478 0.43187 0.82325 0.0
H1303 H 0.45479 0.43309 0.81806 0.0
C1304 C 0.53232 0.44196 0.85754 0.0
C1305 C 0.54028 0.45687 0.8469 0.0
C1306 C 0.51516 0.44146 0.86264 0.0
C1307 C 0.50569 0.45585 0.85696 0.0
C1308 C 0.51379 0.47074 0.84677 0.0
C1309 C 0.53084 0.47125 0.84207 0.0
C1310 C 0.46156 0.46972 0.87459 0.0
C1311 C 0.45277 0.457 0.85215 0.0
C1312 C 0.47865 0.4689 0.87853 0.0
C1313 C 0.48739 0.45546 0.85924 0.0
C1314 C 0.47848 0.44235 0.8388 0.0
C1315 C 0.4613 0.44307 0.83556 0.0
H1316 H 0.95873 0.51484 0.32989 0.0
H1317 H 0.95433 0.56671 0.36173 0.0
H1318 H 0.98836 0.51664 0.3382 0.0
H1319 H 0.98425 0.56847 0.3716 0.0
H1320 H 0.03932 0.56674 0.32055 0.0
H1321 H 0.00924 0.56722 0.32381 0.0
H1322 H 0.00956 0.52011 0.39624 0.0
H1323 H 0.03944 0.51939 0.3912 0.0
C1324 C 0.9641 0.52662 0.33928 0.0
C1325 C 0.9542 0.54064 0.34516 0.0
C1326 C 0.98112 0.52763 0.34445 0.0
C1327 C 0.98872 0.54267 0.35602 0.0
C1328 C 0.9788 0.55672 0.36234 0.0
C1329 C 0.96168 0.55571 0.35693 0.0
C1330 C 0.03292 0.55662 0.33773 0.0
C1331 C 0.04165 0.54292 0.35501 0.0
C1332 C 0.0157 0.55692 0.33979 0.0
C1333 C 0.00696 0.54357 0.35957 0.0
C1334 C 0.01586 0.53039 0.37959 0.0
C1335 C 0.03299 0.53001 0.377 0.0
H1336 H 0.95525 0.43256 0.75888 0.0
H1337 H 0.95761 0.48124 0.8211 0.0
H1338 H 0.98524 0.43233 0.75088 0.0
H1339 H 0.98739 0.48082 0.81493 0.0
H1340 H 0.03941 0.48249 0.76657 0.0
H1341 H 0.00955 0.48199 0.75998 0.0
H1342 H 0.00944 0.43053 0.79988 0.0
H1343 H 0.03944 0.43093 0.80441 0.0
C1344 C 0.96219 0.44319 0.7708 0.0
C1345 C 0.95412 0.45692 0.79052 0.0
C1346 C 0.97935 0.44304 0.76648 0.0
C1347 C 0.98875 0.45657 0.78212 0.0
C1348 C 0.98057 0.47032 0.80153 0.0
C1349 C 0.96347 0.47052 0.80543 0.0
C1350 C 0.03301 0.47102 0.77332 0.0
C1351 C 0.0417 0.45678 0.78637 0.0
C1352 C 0.01588 0.47075 0.76987 0.0
C1353 C 0.00704 0.45628 0.78012 0.0
C1354 C 0.01584 0.44185 0.79133 0.0
C1355 C 0.03302 0.44208 0.79419 0.0
H1356 H 0.45417 0.53674 0.224 0.0
H1357 H 0.45849 0.55747 0.36682 0.0
H1358 H 0.48406 0.53815 0.21457 0.0
H1359 H 0.48833 0.55883 0.3574 0.0
H1360 H 0.54084 0.56989 0.31178 0.0
H1361 H 0.51082 0.57246 0.3093 0.0
H1362 H 0.50717 0.52286 0.25424 0.0
H1363 H 0.53705 0.5203 0.25669 0.0
C1364 C 0.46149 0.54174 0.25316 0.0
C1365 C 0.45404 0.54689 0.29628 0.0
C1366 C 0.47858 0.54251 0.2478 0.0
C1367 C 0.4885 0.54857 0.28527 0.0
C1368 C 0.48097 0.55427 0.32771 0.0
C1369 C 0.46391 0.55338 0.33323 0.0
C1370 C 0.53361 0.55966 0.29844 0.0
C1371 C 0.54123 0.54487 0.28469 0.0
C1372 C 0.51646 0.5611 0.29728 0.0
C1373 C 0.50668 0.54784 0.28177 0.0
C1374 C 0.51439 0.53333 0.26595 0.0
C1375 C 0.53149 0.53184 0.2676 0.0
H1376 H 0.25109 0.12793 0.17737 0.0
H1377 H 0.20766 0.14681 0.24814 0.0
H1378 H 0.26444 0.12445 0.25557 0.0
H1379 H 0.22107 0.1437 0.32602 0.0
H1380 H 0.2891 0.14693 0.39218 0.0
H1381 H 0.27566 0.14332 0.3145 0.0
H1382 H 0.23207 0.1252 0.38622 0.0
H1383 H 0.24544 0.12918 0.46416 0.0
C1384 C 0.24432 0.13114 0.20966 0.0
C1385 C 0.22837 0.13776 0.20662 0.0
C1386 C 0.252 0.12924 0.25444 0.0
C1387 C 0.24389 0.13393 0.29709 0.0
C1388 C 0.22763 0.13979 0.29404 0.0
C1389 C 0.21996 0.14167 0.24931 0.0
C1390 C 0.27674 0.14193 0.39134 0.0
C1391 C 0.26827 0.13848 0.43428 0.0
C1392 C 0.26905 0.13977 0.34674 0.0
C1393 C 0.25273 0.13407 0.34408 0.0
C1394 C 0.24456 0.12985 0.38703 0.0
C1395 C 0.25225 0.13204 0.43167 0.0
H1396 H 0.10359 0.00749 0.42696 0.0
H1397 H 0.11984 0.96033 0.48056 0.0
H1398 H 0.1067 0.01928 0.50675 0.0
H1399 H 0.12387 0.9723 0.56034 0.0
H1400 H 0.10347 0.99234 0.70374 0.0
H1401 H 0.10718 0.98068 0.624 0.0
H1402 H 0.1229 0.02822 0.57086 0.0
H1403 H 0.11826 0.04003 0.65057 0.0
C1404 C 0.10826 -0.00026 0.45564 0.0
C1405 C 0.1113 0.98295 0.44767 0.0
C1406 C 0.11017 0.00653 0.50152 0.0
C1407 C 0.11542 0.99675 0.54047 0.0
C1408 C 0.11943 0.98015 0.53162 0.0
C1409 C 0.11726 0.97329 0.4858 0.0
C1410 C 0.10793 0.00025 0.67517 0.0
C1411 C 0.1104 0.01713 0.68324 0.0
C1412 C 0.11019 0.99353 0.62932 0.0
C1413 C 0.11522 0.00349 0.59051 0.0
C1414 C 0.11864 0.02022 0.59947 0.0
C1415 C 0.11612 0.02699 0.64524 0.0
H1416 H 0.25389 0.8646 0.96778 0.0
H1417 H 0.20924 0.84975 0.89539 0.0
H1418 H 0.26723 0.86878 0.88996 0.0
H1419 H 0.22266 0.85346 0.8177 0.0
H1420 H 0.24774 0.86878 0.68113 0.0
H1421 H 0.23456 0.87199 0.75971 0.0
H1422 H 0.27739 0.8508 0.82823 0.0
H1423 H 0.29064 0.84803 0.7501 0.0
C1424 C 0.24687 0.86238 0.93522 0.0
C1425 C 0.23056 0.85672 0.93768 0.0
C1426 C 0.25455 0.86469 0.89062 0.0
C1427 C 0.24609 0.8613 0.84749 0.0
C1428 C 0.22951 0.85636 0.85007 0.0
C1429 C 0.22183 0.85413 0.89466 0.0
C1430 C 0.25443 0.86509 0.71312 0.0
C1431 C 0.27018 0.85806 0.70944 0.0
C1432 C 0.24684 0.86682 0.75811 0.0
C1433 C 0.25484 0.86153 0.80034 0.0
C1434 C 0.27091 0.8552 0.79665 0.0
C1435 C 0.27849 0.85351 0.75175 0.0
H1436 H 0.39563 0.03993 0.00213 0.0
H1437 H 0.37821 0.99546 0.93382 0.0
H1438 H 0.39355 0.02674 0.08059 0.0
H1439 H 0.37555 0.98237 0.01256 0.0
H1440 H 0.3983 0.95838 0.14823 0.0
H1441 H 0.39425 0.97169 0.07065 0.0
H1442 H 0.37678 0.01551 0.14281 0.0
H1443 H 0.3814 0.0023 0.22065 0.0
C1444 C 0.39098 0.02744 0.00401 0.0
C1445 C 0.38723 0.01868 0.9618 0.0
C1446 C 0.3897 0.01988 0.04908 0.0
C1447 C 0.38452 0.0034 0.05302 0.0
C1448 C 0.3799 0.99496 0.01085 0.0
C1449 C 0.3813 0.00249 0.96572 0.0
C1450 C 0.3934 0.97078 0.14752 0.0
C1451 C 0.3903 0.97934 0.19053 0.0
C1452 C 0.39096 0.9784 0.10295 0.0
C1453 C 0.38526 0.99474 0.10032 0.0
C1454 C 0.38146 0.00303 0.14345 0.0
C1455 C 0.384 0.99543 0.18807 0.0
H1456 H 0.7909 0.84955 0.88812 0.0
H1457 H 0.74791 0.86986 0.95772 0.0
H1458 H 0.77766 0.85257 0.81007 0.0
H1459 H 0.73476 0.87337 0.87923 0.0
H1460 H 0.70937 0.85219 0.74258 0.0
H1461 H 0.7228 0.85543 0.82039 0.0
H1462 H 0.76756 0.87052 0.74874 0.0
H1463 H 0.7542 0.86675 0.67075 0.0
C1464 C 0.77874 0.855 0.88663 0.0
C1465 C 0.7704 0.85935 0.9291 0.0
C1466 C 0.77116 0.85683 0.84176 0.0
C1467 C 0.75507 0.86313 0.83823 0.0
C1468 C 0.74704 0.86822 0.88065 0.0
C1469 C 0.75462 0.86632 0.92561 0.0
C1470 C 0.72201 0.85642 0.74347 0.0
C1471 C 0.73077 0.85906 0.70054 0.0
C1472 C 0.7297 0.85838 0.78816 0.0
C1473 C 0.74634 0.86312 0.79097 0.0
C1474 C 0.75484 0.86656 0.74794 0.0
C1475 C 0.74715 0.86451 0.70323 0.0
H1476 H 0.89992 0.04094 0.63392 0.0
H1477 H 0.88314 0.99657 0.70406 0.0
H1478 H 0.89739 0.02758 0.55589 0.0
H1479 H 0.88002 0.98328 0.62565 0.0
H1480 H 0.90108 0.95925 0.48741 0.0
H1481 H 0.89786 0.97247 0.56552 0.0
H1482 H 0.87998 0.0165 0.49537 0.0
H1483 H 0.8838 0.0034 0.41703 0.0
C1484 C 0.89536 0.02842 0.63256 0.0
C1485 C 0.89186 0.01976 0.67514 0.0
C1486 C 0.8938 0.02076 0.58771 0.0
C1487 C 0.88858 0.00428 0.58431 0.0
C1488 C 0.88435 0.99588 0.62691 0.0
C1489 C 0.88603 0.00352 0.67185 0.0
C1490 C 0.89626 0.97168 0.48872 0.0
C1491 C 0.89283 0.98034 0.44608 0.0
C1492 C 0.89431 0.97925 0.53359 0.0
C1493 C 0.88876 0.99563 0.53691 0.0
C1494 C 0.88458 0.004 0.4942 0.0
C1495 C 0.88666 0.99645 0.44928 0.0
H1496 H 0.78452 0.12793 0.23114 0.0
H1497 H 0.73909 0.14878 0.17837 0.0
H1498 H 0.77236 0.12498 0.31105 0.0
H1499 H 0.72715 0.14661 0.2584 0.0
H1500 H 0.70531 0.13385 0.401 0.0
H1501 H 0.71689 0.12999 0.32069 0.0
H1502 H 0.76519 0.14207 0.37591 0.0
H1503 H 0.75369 0.14513 0.45624 0.0
C1504 C 0.7719 0.13181 0.23663 0.0
C1505 C 0.76278 0.13865 0.19863 0.0
C1506 C 0.76495 0.13024 0.2825 0.0
C1507 C 0.74879 0.13569 0.29154 0.0
C1508 C 0.73952 0.14203 0.25289 0.0
C1509 C 0.74641 0.1434 0.20694 0.0
C1510 C 0.71844 0.13541 0.39597 0.0
C1511 C 0.72858 0.13987 0.43479 0.0
C1512 C 0.72508 0.13333 0.34987 0.0
C1513 C 0.74198 0.13588 0.34145 0.0
C1514 C 0.75218 0.13976 0.38088 0.0
C1515 C 0.74557 0.14162 0.42702 0.0
H1516 H 0.61799 0.00427 0.20806 0.0
H1517 H 0.60109 0.9595 0.14032 0.0
H1518 H 0.62096 0.01711 0.12911 0.0
H1519 H 0.60343 0.97247 0.06157 0.0
H1520 H 0.61533 0.9969 0.92119 0.0
H1521 H 0.62007 0.98377 0.99915 0.0
H1522 H 0.60227 0.02752 0.07103 0.0
H1523 H 0.59812 0.04073 0.99348 0.0
C1524 C 0.61507 0.99712 0.17623 0.0
C1525 C 0.60918 0.98094 0.18035 0.0
C1526 C 0.61666 0.00451 0.13098 0.0
C1527 C 0.61222 0.99593 0.08889 0.0
C1528 C 0.60713 0.97943 0.09303 0.0
C1529 C 0.60569 0.972 0.13826 0.0
C1530 C 0.6127 0.00377 0.95375 0.0
C1531 C 0.60627 0.01981 0.95126 0.0
C1532 C 0.61531 0.99622 0.99842 0.0
C1533 C 0.61146 0.00452 0.04151 0.0
C1534 C 0.60563 0.02081 0.03879 0.0
C1535 C 0.60312 0.02837 0.99422 0.0
H1536 H 0.78893 0.64983 0.88821 0.0
H1537 H 0.74496 0.63192 0.95816 0.0
H1538 H 0.77561 0.64705 0.81009 0.0
H1539 H 0.73173 0.62866 0.87975 0.0
H1540 H 0.70745 0.65012 0.74222 0.0
H1541 H 0.7208 0.64708 0.82018 0.0
H1542 H 0.76466 0.62891 0.74979 0.0
H1543 H 0.75138 0.63243 0.67153 0.0
C1544 C 0.77651 0.64498 0.8868 0.0
C1545 C 0.76793 0.64123 0.92932 0.0
C1546 C 0.7689 0.64329 0.84194 0.0
C1547 C 0.75254 0.63773 0.83857 0.0
C1548 C 0.74423 0.63325 0.88108 0.0
C1549 C 0.75184 0.63501 0.92599 0.0
C1550 C 0.71986 0.64528 0.74343 0.0
C1551 C 0.72842 0.64165 0.70076 0.0
C1552 C 0.7275 0.64343 0.78819 0.0
C1553 C 0.74386 0.63783 0.79133 0.0
C1554 C 0.75215 0.63351 0.74865 0.0
C1555 C 0.74452 0.63543 0.70383 0.0
H1556 H 0.59885 0.53962 0.14017 0.0
H1557 H 0.61488 0.49474 0.20903 0.0
H1558 H 0.60175 0.52666 0.06163 0.0
H1559 H 0.61848 0.48189 0.13028 0.0
H1560 H 0.59749 0.45841 0.9919 0.0
H1561 H 0.60079 0.47145 0.07009 0.0
H1562 H 0.61883 0.51554 0.00064 0.0
H1563 H 0.61487 0.50261 0.92208 0.0
C1564 C 0.60337 0.52709 0.13843 0.0
C1565 C 0.60647 0.51814 0.18073 0.0
C1566 C 0.60514 0.51966 0.09331 0.0
C1567 C 0.61022 0.50314 0.08945 0.0
C1568 C 0.6142 0.4945 0.13186 0.0
C1569 C 0.61226 0.5019 0.177 0.0
C1570 C 0.60237 0.47081 0.99335 0.0
C1571 C 0.60578 0.47954 0.95086 0.0
C1572 C 0.60438 0.47828 0.0383 0.0
C1573 C 0.61 0.49463 0.04187 0.0
C1574 C 0.61418 0.50306 0.99928 0.0
C1575 C 0.61202 0.49562 0.95425 0.0
H1576 H 0.75605 0.36376 0.47062 0.0
H1577 H 0.71095 0.34929 0.40001 0.0
H1578 H 0.76944 0.3666 0.39233 0.0
H1579 H 0.72441 0.35155 0.32202 0.0
H1580 H 0.74933 0.36456 0.18368 0.0
H1581 H 0.73636 0.36869 0.26206 0.0
H1582 H 0.77938 0.34836 0.33184 0.0
H1583 H 0.79249 0.34481 0.25371 0.0
C1584 C 0.74896 0.36133 0.43833 0.0
C1585 C 0.73248 0.35621 0.44144 0.0
C1586 C 0.75666 0.36284 0.39346 0.0
C1587 C 0.74808 0.35915 0.35074 0.0
C1588 C 0.73138 0.3547 0.35397 0.0
C1589 C 0.72366 0.3533 0.39878 0.0
C1590 C 0.75609 0.36123 0.21587 0.0
C1591 C 0.77188 0.35427 0.21256 0.0
C1592 C 0.74862 0.36349 0.2608 0.0
C1593 C 0.75673 0.35872 0.30339 0.0
C1594 C 0.77282 0.35238 0.29999 0.0
C1595 C 0.78032 0.35024 0.25511 0.0
H1596 H 0.89809 0.45623 0.64063 0.0
H1597 H 0.8792 0.49986 0.7103 0.0
H1598 H 0.8954 0.46953 0.56259 0.0
H1599 H 0.87594 0.51307 0.63182 0.0
H1600 H 0.89674 0.53785 0.49409 0.0
H1601 H 0.8937 0.52457 0.57223 0.0
H1602 H 0.87766 0.4799 0.50173 0.0
H1603 H 0.88129 0.49308 0.42349 0.0
C1604 C 0.89302 0.46856 0.63915 0.0
C1605 C 0.88897 0.47704 0.68161 0.0
C1606 C 0.89138 0.47618 0.5943 0.0
C1607 C 0.88552 0.49244 0.59077 0.0
C1608 C 0.88076 0.50065 0.63322 0.0
C1609 C 0.88251 0.49305 0.67818 0.0
C1610 C 0.89236 0.52526 0.49535 0.0
C1611 C 0.8894 0.51646 0.45268 0.0
C1612 C 0.89051 0.51765 0.5402 0.0
C1613 C 0.88555 0.50109 0.54341 0.0
C1614 C 0.88181 0.49256 0.50064 0.0
C1615 C 0.88379 0.50014 0.45578 0.0
H1616 H 0.2537 0.36516 0.17059 0.0
H1617 H 0.20943 0.34831 0.24113 0.0
H1618 H 0.26693 0.36867 0.2489 0.0
H1619 H 0.22275 0.35129 0.31918 0.0
H1620 H 0.24702 0.36638 0.45729 0.0
H1621 H 0.2338 0.36943 0.3788 0.0
H1622 H 0.2777 0.35083 0.30962 0.0
H1623 H 0.29101 0.3483 0.38778 0.0
C1624 C 0.24676 0.36234 0.20286 0.0
C1625 C 0.23057 0.35637 0.19973 0.0
C1626 C 0.25436 0.36424 0.24774 0.0
C1627 C 0.24598 0.36013 0.29044 0.0
C1628 C 0.22954 0.35478 0.28721 0.0
C1629 C 0.22192 0.35297 0.24238 0.0
C1630 C 0.25391 0.36319 0.4252 0.0
C1631 C 0.27001 0.35702 0.42869 0.0
C1632 C 0.2463 0.36483 0.38023 0.0
C1633 C 0.25461 0.36025 0.3378 0.0
C1634 C 0.27097 0.35468 0.34135 0.0
C1635 C 0.27859 0.35313 0.38626 0.0
H1636 H 0.37844 0.50442 0.92879 0.0
H1637 H 0.39802 0.46042 0.99444 0.0
H1638 H 0.37501 0.51677 0.0083 0.0
H1639 H 0.39539 0.47293 0.07362 0.0
H1640 H 0.3823 0.49537 0.21573 0.0
H1641 H 0.37883 0.48242 0.13699 0.0
H1642 H 0.39169 0.52838 0.06795 0.0
H1643 H 0.39437 0.54137 0.14635 0.0
C1644 C 0.38192 0.49736 0.96028 0.0
C1645 C 0.38856 0.48149 0.95537 0.0
C1646 C 0.38009 0.50448 0.00591 0.0
C1647 C 0.38509 0.49598 0.04768 0.0
C1648 C 0.39117 0.47983 0.04262 0.0
C1649 C 0.39279 0.47265 0.99706 0.0
C1650 C 0.38411 0.50274 0.18362 0.0
C1651 C 0.38866 0.51937 0.18723 0.0
C1652 C 0.38225 0.49529 0.13842 0.0
C1653 C 0.38512 0.50426 0.09578 0.0
C1654 C 0.38912 0.52107 0.09968 0.0
C1655 C 0.39077 0.52854 0.14479 0.0
H1656 H 0.25827 0.63413 0.96876 0.0
H1657 H 0.21194 0.64409 0.89833 0.0
H1658 H 0.27138 0.63037 0.89047 0.0
H1659 H 0.22511 0.64093 0.82004 0.0
H1660 H 0.25035 0.62613 0.68307 0.0
H1661 H 0.23791 0.62312 0.76273 0.0
H1662 H 0.27979 0.64775 0.82629 0.0
H1663 H 0.29236 0.65022 0.7472 0.0
C1664 C 0.25087 0.63543 0.93651 0.0
C1665 C 0.23411 0.63952 0.93964 0.0
C1666 C 0.2584 0.63337 0.89161 0.0
C1667 C 0.24937 0.63549 0.84879 0.0
C1668 C 0.23243 0.63899 0.85213 0.0
C1669 C 0.22488 0.64092 0.89705 0.0
C1670 C 0.257 0.63062 0.71425 0.0
C1671 C 0.27229 0.63848 0.70888 0.0
C1672 C 0.24982 0.62902 0.75986 0.0
C1673 C 0.25775 0.63532 0.80102 0.0
C1674 C 0.27338 0.64255 0.79565 0.0
C1675 C 0.28058 0.64406 0.75016 0.0
H1676 H 0.11578 0.49455 0.42722 0.0
H1677 H 0.10008 0.53934 0.49729 0.0
H1678 H 0.11958 0.48154 0.50563 0.0
H1679 H 0.10322 0.52622 0.57554 0.0
H1680 H 0.09883 0.45789 0.64424 0.0
H1681 H 0.10197 0.47105 0.56616 0.0
H1682 H 0.12055 0.51488 0.63584 0.0
H1683 H 0.11678 0.50182 0.71429 0.0
C1684 C 0.11328 0.50166 0.45943 0.0
C1685 C 0.10752 0.51792 0.45613 0.0
C1686 C 0.11534 0.49417 0.5044 0.0
C1687 C 0.11152 0.50272 0.54707 0.0
C1688 C 0.10648 0.51927 0.54364 0.0
C1689 C 0.10458 0.5268 0.49869 0.0
C1690 C 0.1038 0.47025 0.64286 0.0
C1691 C 0.10742 0.47887 0.68541 0.0
C1692 C 0.10571 0.47779 0.59797 0.0
C1693 C 0.11143 0.49411 0.59451 0.0
C1694 C 0.11583 0.50243 0.63712 0.0
C1695 C 0.11378 0.49491 0.68209 0.0
loop_
_geom_bond_atom_site_label_1
_geom_bond_atom_site_label_2
_geom_bond_distance
_geom_bond_site_symmetry_2
_ccdc_geom_bond_type
In0 O1 2.294 . S
In0 O2 2.326 1_554 S
In0 O6 2.266 . S
In0 O7 2.326 . S
In0 O8 2.266 . S
In0 O9 2.326 . S
In0 O11 2.294 . S
In0 O12 2.326 . S
O1 In0 2.294 . S
O1 C10 1.240 1_554 S
O2 In0 2.326 1_556 S
O2 C10 1.252 . S
C3 O6 1.252 . S
C3 O7 1.260 . S
C4 O11 1.240 . S
C4 O12 1.252 . S
C5 O8 1.252 . S
C5 O9 1.260 . S
O6 In0 2.266 . S
O6 C3 1.252 . S
O7 In0 2.326 . S
O7 C3 1.260 . S
O8 In0 2.266 . S
O8 C5 1.252 . S
O9 In0 2.326 . S
O9 C5 1.260 . S
C10 O1 1.240 1_556 S
C10 O2 1.252 . S
O11 In0 2.294 . S
O11 C4 1.240 . S
O12 In0 2.326 . S
O12 C4 1.252 . S
In13 O14 2.294 . S
In13 O15 2.326 . S
In13 O19 2.266 . S
In13 O20 2.326 . S
In13 O21 2.266 . S
In13 O22 2.326 . S
In13 O24 2.294 . S
In13 O25 2.326 . S
O14 In13 2.294 . S
O14 C23 1.240 . S
O15 In13 2.326 . S
O15 C23 1.252 . S
C16 O19 1.252 . S
C16 O20 1.260 . S
C17 O24 1.240 . S
C17 O25 1.252 . S
C18 O21 1.252 . S
C18 O22 1.260 . S
O19 In13 2.266 . S
O19 C16 1.252 . S
O20 In13 2.326 . S
O20 C16 1.260 . S
O21 In13 2.266 . S
O21 C18 1.252 . S
O22 In13 2.326 . S
O22 C18 1.260 . S
C23 O14 1.240 . S
C23 O15 1.252 . S
O24 In13 2.294 . S
O24 C17 1.240 . S
O25 In13 2.326 . S
O25 C17 1.252 . S
In26 O27 2.294 . S
In26 O28 2.326 . S
In26 O32 2.266 . S
In26 O33 2.326 . S
In26 O34 2.266 . S
In26 O35 2.326 . S
In26 O37 2.294 . S
In26 O38 2.326 . S
O27 In26 2.294 . S
O27 C36 1.240 . S
O28 In26 2.326 . S
O28 C36 1.252 . S
C29 O32 1.252 . S
C29 O33 1.260 . S
C30 O37 1.240 . S
C30 O38 1.252 . S
C31 O34 1.252 . S
C31 O35 1.260 . S
O32 In26 2.266 . S
O32 C29 1.252 . S
O33 In26 2.326 . S
O33 C29 1.260 . S
O34 In26 2.266 . S
O34 C31 1.252 . S
O35 In26 2.326 . S
O35 C31 1.260 . S
C36 O27 1.240 . S
C36 O28 1.252 . S
O37 In26 2.294 . S
O37 C30 1.240 . S
O38 In26 2.326 . S
O38 C30 1.252 . S
In39 O40 2.294 . S
In39 O41 2.326 . S
In39 O45 2.266 . S
In39 O46 2.326 . S
In39 O47 2.266 . S
In39 O48 2.326 . S
In39 O50 2.294 . S
In39 O51 2.326 . S
O40 In39 2.294 . S
O40 C49 1.240 . S
O41 In39 2.326 . S
O41 C49 1.252 . S
C42 O45 1.252 . S
C42 O46 1.260 . S
C43 O50 1.240 . S
C43 O51 1.252 . S
C44 O47 1.252 . S
C44 O48 1.260 . S
O45 In39 2.266 . S
O45 C42 1.252 . S
O46 In39 2.326 . S
O46 C42 1.260 . S
O47 In39 2.266 . S
O47 C44 1.252 . S
O48 In39 2.326 . S
O48 C44 1.260 . S
C49 O40 1.240 . S
C49 O41 1.252 . S
O50 In39 2.294 . S
O50 C43 1.240 . S
O51 In39 2.326 . S
O51 C43 1.252 . S
In52 O53 2.294 . S
In52 O54 2.326 . S
In52 O58 2.266 . S
In52 O59 2.326 1_554 S
In52 O60 2.266 . S
In52 O61 2.326 . S
In52 O63 2.294 . S
In52 O64 2.326 . S
O53 In52 2.294 . S
O53 C62 1.240 . S
O54 In52 2.326 . S
O54 C62 1.252 . S
C55 O58 1.252 1_556 S
C55 O59 1.260 . S
C56 O63 1.240 . S
C56 O64 1.252 . S
C57 O60 1.252 . S
C57 O61 1.260 . S
O58 In52 2.266 . S
O58 C55 1.252 1_554 S
O59 In52 2.326 1_556 S
O59 C55 1.260 . S
O60 In52 2.266 . S
O60 C57 1.252 . S
O61 In52 2.326 . S
O61 C57 1.260 . S
C62 O53 1.240 . S
C62 O54 1.252 . S
O63 In52 2.294 . S
O63 C56 1.240 . S
O64 In52 2.326 . S
O64 C56 1.252 . S
In65 O66 2.294 . S
In65 O67 2.326 . S
In65 O71 2.266 . S
In65 O72 2.326 . S
In65 O73 2.266 . S
In65 O74 2.326 . S
In65 O76 2.294 . S
In65 O77 2.326 . S
O66 In65 2.294 . S
O66 C75 1.240 . S
O67 In65 2.326 . S
O67 C75 1.252 . S
C68 O71 1.252 . S
C68 O72 1.260 . S
C69 O76 1.240 . S
C69 O77 1.252 . S
C70 O73 1.252 . S
C70 O74 1.260 . S
O71 In65 2.266 . S
O71 C68 1.252 . S
O72 In65 2.326 . S
O72 C68 1.260 . S
O73 In65 2.266 . S
O73 C70 1.252 . S
O74 In65 2.326 . S
O74 C70 1.260 . S
C75 O66 1.240 . S
C75 O67 1.252 . S
O76 In65 2.294 . S
O76 C69 1.240 . S
O77 In65 2.326 . S
O77 C69 1.252 . S
In78 O79 2.294 . S
In78 O80 2.326 . S
In78 O84 2.266 . S
In78 O85 2.326 . S
In78 O86 2.266 . S
In78 O87 2.326 . S
In78 O89 2.294 . S
In78 O90 2.326 . S
O79 In78 2.294 . S
O79 C88 1.240 . S
O80 In78 2.326 . S
O80 C88 1.252 . S
C81 O84 1.252 . S
C81 O85 1.260 . S
C82 O89 1.240 . S
C82 O90 1.252 . S
C83 O86 1.252 . S
C83 O87 1.260 . S
O84 In78 2.266 . S
O84 C81 1.252 . S
O85 In78 2.326 . S
O85 C81 1.260 . S
O86 In78 2.266 . S
O86 C83 1.252 . S
O87 In78 2.326 . S
O87 C83 1.260 . S
C88 O79 1.240 . S
C88 O80 1.252 . S
O89 In78 2.294 . S
O89 C82 1.240 . S
O90 In78 2.326 . S
O90 C82 1.252 . S
In91 O92 2.294 . S
In91 O93 2.326 . S
In91 O97 2.266 . S
In91 O98 2.326 . S
In91 O99 2.266 . S
In91 O100 2.326 . S
In91 O102 2.294 . S
In91 O103 2.326 . S
O92 In91 2.294 . S
O92 C101 1.240 . S
O93 In91 2.326 . S
O93 C101 1.252 . S
C94 O97 1.252 . S
C94 O98 1.260 . S
C95 O102 1.240 . S
C95 O103 1.252 . S
C96 O99 1.252 . S
C96 O100 1.260 . S
O97 In91 2.266 . S
O97 C94 1.252 . S
O98 In91 2.326 . S
O98 C94 1.260 . S
O99 In91 2.266 . S
O99 C96 1.252 . S
O100 In91 2.326 . S
O100 C96 1.260 . S
C101 O92 1.240 . S
C101 O93 1.252 . S
O102 In91 2.294 . S
O102 C95 1.240 . S
O103 In91 2.326 . S
O103 C95 1.252 . S
In104 O105 2.294 . S
In104 O106 2.326 . S
In104 O110 2.266 . S
In104 O111 2.326 1_554 S
In104 O112 2.266 . S
In104 O113 2.326 . S
In104 O115 2.294 . S
In104 O116 2.326 . S
O105 In104 2.294 . S
O105 C114 1.240 . S
O106 In104 2.326 . S
O106 C114 1.252 . S
C107 O110 1.252 1_556 S
C107 O111 1.260 . S
C108 O115 1.240 . S
C108 O116 1.252 . S
C109 O112 1.252 . S
C109 O113 1.260 . S
O110 In104 2.266 . S
O110 C107 1.252 1_554 S
O111 In104 2.326 1_556 S
O111 C107 1.260 . S
O112 In104 2.266 . S
O112 C109 1.252 . S
O113 In104 2.326 . S
O113 C109 1.260 . S
C114 O105 1.240 . S
C114 O106 1.252 . S
O115 In104 2.294 . S
O115 C108 1.240 . S
O116 In104 2.326 . S
O116 C108 1.252 . S
In117 O118 2.294 . S
In117 O119 2.326 . S
In117 O123 2.266 . S
In117 O124 2.326 . S
In117 O125 2.266 . S
In117 O126 2.326 . S
In117 O128 2.294 . S
In117 O129 2.326 . S
O118 In117 2.294 . S
O118 C127 1.240 . S
O119 In117 2.326 . S
O119 C127 1.252 . S
C120 O123 1.252 . S
C120 O124 1.260 . S
C121 O128 1.240 . S
C121 O129 1.252 . S
C122 O125 1.252 . S
C122 O126 1.260 . S
O123 In117 2.266 . S
O123 C120 1.252 . S
O124 In117 2.326 . S
O124 C120 1.260 . S
O125 In117 2.266 . S
O125 C122 1.252 . S
O126 In117 2.326 . S
O126 C122 1.260 . S
C127 O118 1.240 . S
C127 O119 1.252 . S
O128 In117 2.294 . S
O128 C121 1.240 . S
O129 In117 2.326 . S
O129 C121 1.252 . S
In130 O131 2.294 . S
In130 O132 2.326 . S
In130 O136 2.266 . S
In130 O137 2.326 . S
In130 O138 2.266 . S
In130 O139 2.326 . S
In130 O141 2.294 . S
In130 O142 2.326 . S
O131 In130 2.294 . S
O131 C140 1.240 . S
O132 In130 2.326 . S
O132 C140 1.252 . S
C133 O136 1.252 . S
C133 O137 1.260 . S
C134 O141 1.240 . S
C134 O142 1.252 . S
C135 O138 1.252 . S
C135 O139 1.260 . S
O136 In130 2.266 . S
O136 C133 1.252 . S
O137 In130 2.326 . S
O137 C133 1.260 . S
O138 In130 2.266 . S
O138 C135 1.252 . S
O139 In130 2.326 . S
O139 C135 1.260 . S
C140 O131 1.240 . S
C140 O132 1.252 . S
O141 In130 2.294 . S
O141 C134 1.240 . S
O142 In130 2.326 . S
O142 C134 1.252 . S
In143 O144 2.294 . S
In143 O145 2.326 . S
In143 O149 2.266 . S
In143 O150 2.326 . S
In143 O151 2.266 . S
In143 O152 2.326 . S
In143 O154 2.294 . S
In143 O155 2.326 . S
O144 In143 2.294 . S
O144 C153 1.240 . S
O145 In143 2.326 . S
O145 C153 1.252 . S
C146 O149 1.252 . S
C146 O150 1.260 . S
C147 O154 1.240 . S
C147 O155 1.252 . S
C148 O151 1.252 . S
C148 O152 1.260 . S
O149 In143 2.266 . S
O149 C146 1.252 . S
O150 In143 2.326 . S
O150 C146 1.260 . S
O151 In143 2.266 . S
O151 C148 1.252 . S
O152 In143 2.326 . S
O152 C148 1.260 . S
C153 O144 1.240 . S
C153 O145 1.252 . S
O154 In143 2.294 . S
O154 C147 1.240 . S
O155 In143 2.326 . S
O155 C147 1.252 . S
In156 O157 2.294 . S
In156 O158 2.326 . S
In156 O162 2.266 . S
In156 O163 2.326 . S
In156 O164 2.266 . S
In156 O165 2.326 . S
In156 O167 2.294 . S
In156 O168 2.326 1_554 S
O157 In156 2.294 . S
O157 C166 1.240 . S
O158 In156 2.326 . S
O158 C166 1.252 . S
C159 O162 1.252 . S
C159 O163 1.260 . S
C160 O167 1.240 1_556 S
C160 O168 1.252 . S
C161 O164 1.252 . S
C161 O165 1.260 . S
O162 In156 2.266 . S
O162 C159 1.252 . S
O163 In156 2.326 . S
O163 C159 1.260 . S
O164 In156 2.266 . S
O164 C161 1.252 . S
O165 In156 2.326 . S
O165 C161 1.260 . S
C166 O157 1.240 . S
C166 O158 1.252 . S
O167 In156 2.294 . S
O167 C160 1.240 1_554 S
O168 In156 2.326 1_556 S
O168 C160 1.252 . S
In169 O170 2.294 . S
In169 O171 2.326 . S
In169 O175 2.266 . S
In169 O176 2.326 . S
In169 O177 2.266 . S
In169 O178 2.326 . S
In169 O180 2.294 . S
In169 O181 2.326 . S
O170 In169 2.294 . S
O170 C179 1.240 . S
O171 In169 2.326 . S
O171 C179 1.252 . S
C172 O175 1.252 . S
C172 O176 1.260 . S
C173 O180 1.240 . S
C173 O181 1.252 . S
C174 O177 1.252 . S
C174 O178 1.260 . S
O175 In169 2.266 . S
O175 C172 1.252 . S
O176 In169 2.326 . S
O176 C172 1.260 . S
O177 In169 2.266 . S
O177 C174 1.252 . S
O178 In169 2.326 . S
O178 C174 1.260 . S
C179 O170 1.240 . S
C179 O171 1.252 . S
O180 In169 2.294 . S
O180 C173 1.240 . S
O181 In169 2.326 . S
O181 C173 1.252 . S
In182 O183 2.294 . S
In182 O184 2.326 . S
In182 O188 2.266 . S
In182 O189 2.326 . S
In182 O190 2.266 . S
In182 O191 2.326 . S
In182 O193 2.294 . S
In182 O194 2.326 . S
O183 In182 2.294 . S
O183 C192 1.240 . S
O184 In182 2.326 . S
O184 C192 1.252 . S
C185 O188 1.252 . S
C185 O189 1.260 . S
C186 O193 1.240 . S
C186 O194 1.252 . S
C187 O190 1.252 . S
C187 O191 1.260 . S
O188 In182 2.266 . S
O188 C185 1.252 . S
O189 In182 2.326 . S
O189 C185 1.260 . S
O190 In182 2.266 . S
O190 C187 1.252 . S
O191 In182 2.326 . S
O191 C187 1.260 . S
C192 O183 1.240 . S
C192 O184 1.252 . S
O193 In182 2.294 . S
O193 C186 1.240 . S
O194 In182 2.326 . S
O194 C186 1.252 . S
In195 O196 2.294 . S
In195 O197 2.326 . S
In195 O201 2.266 . S
In195 O202 2.326 . S
In195 O203 2.266 . S
In195 O204 2.326 . S
In195 O206 2.294 . S
In195 O207 2.326 . S
O196 In195 2.294 . S
O196 C205 1.240 . S
O197 In195 2.326 . S
O197 C205 1.252 . S
C198 O201 1.252 . S
C198 O202 1.260 . S
C199 O206 1.240 . S
C199 O207 1.252 . S
C200 O203 1.252 . S
C200 O204 1.260 . S
O201 In195 2.266 . S
O201 C198 1.252 . S
O202 In195 2.326 . S
O202 C198 1.260 . S
O203 In195 2.266 . S
O203 C200 1.252 . S
O204 In195 2.326 . S
O204 C200 1.260 . S
C205 O196 1.240 . S
C205 O197 1.252 . S
O206 In195 2.294 . S
O206 C199 1.240 . S
O207 In195 2.326 . S
O207 C199 1.252 . S
In208 O209 2.294 . S
In208 O210 2.326 . S
In208 O214 2.266 . S
In208 O215 2.326 . S
In208 O216 2.266 . S
In208 O217 2.326 . S
In208 O219 2.294 . S
In208 O220 2.326 . S
O209 In208 2.294 . S
O209 C218 1.240 . S
O210 In208 2.326 . S
O210 C218 1.252 . S
C211 O214 1.252 . S
C211 O215 1.260 . S
C212 O219 1.240 . S
C212 O220 1.252 . S
C213 O216 1.252 . S
C213 O217 1.260 . S
O214 In208 2.266 . S
O214 C211 1.252 . S
O215 In208 2.326 . S
O215 C211 1.260 . S
O216 In208 2.266 . S
O216 C213 1.252 . S
O217 In208 2.326 . S
O217 C213 1.260 . S
C218 O209 1.240 . S
C218 O210 1.252 . S
O219 In208 2.294 . S
O219 C212 1.240 . S
O220 In208 2.326 . S
O220 C212 1.252 . S
In221 O222 2.294 . S
In221 O223 2.326 . S
In221 O227 2.266 . S
In221 O228 2.326 . S
In221 O229 2.266 . S
In221 O230 2.326 . S
In221 O232 2.294 . S
In221 O233 2.326 . S
O222 In221 2.294 . S
O222 C231 1.240 . S
O223 In221 2.326 . S
O223 C231 1.252 . S
C224 O227 1.252 . S
C224 O228 1.260 . S
C225 O232 1.240 . S
C225 O233 1.252 . S
C226 O229 1.252 . S
C226 O230 1.260 . S
O227 In221 2.266 . S
O227 C224 1.252 . S
O228 In221 2.326 . S
O228 C224 1.260 . S
O229 In221 2.266 . S
O229 C226 1.252 . S
O230 In221 2.326 . S
O230 C226 1.260 . S
C231 O222 1.240 . S
C231 O223 1.252 . S
O232 In221 2.294 . S
O232 C225 1.240 . S
O233 In221 2.326 . S
O233 C225 1.252 . S
In234 O235 2.294 . S
In234 O236 2.326 1_554 S
In234 O240 2.266 . S
In234 O241 2.326 . S
In234 O242 2.266 . S
In234 O243 2.326 . S
In234 O245 2.294 . S
In234 O246 2.326 . S
O235 In234 2.294 . S
O235 C244 1.240 1_554 S
O236 In234 2.326 1_556 S
O236 C244 1.252 . S
C237 O240 1.252 . S
C237 O241 1.260 . S
C238 O245 1.240 . S
C238 O246 1.252 . S
C239 O242 1.252 . S
C239 O243 1.260 . S
O240 In234 2.266 . S
O240 C237 1.252 . S
O241 In234 2.326 . S
O241 C237 1.260 . S
O242 In234 2.266 . S
O242 C239 1.252 . S
O243 In234 2.326 . S
O243 C239 1.260 . S
C244 O235 1.240 1_556 S
C244 O236 1.252 . S
O245 In234 2.294 . S
O245 C238 1.240 . S
O246 In234 2.326 . S
O246 C238 1.252 . S
In247 O248 2.294 . S
In247 O249 2.326 . S
In247 O253 2.266 . S
In247 O254 2.326 . S
In247 O255 2.266 . S
In247 O256 2.326 . S
In247 O258 2.294 . S
In247 O259 2.326 . S
O248 In247 2.294 . S
O248 C257 1.240 . S
O249 In247 2.326 . S
O249 C257 1.252 . S
C250 O253 1.252 . S
C250 O254 1.260 . S
C251 O258 1.240 . S
C251 O259 1.252 . S
C252 O255 1.252 . S
C252 O256 1.260 . S
O253 In247 2.266 . S
O253 C250 1.252 . S
O254 In247 2.326 . S
O254 C250 1.260 . S
O255 In247 2.266 . S
O255 C252 1.252 . S
O256 In247 2.326 . S
O256 C252 1.260 . S
C257 O248 1.240 . S
C257 O249 1.252 . S
O258 In247 2.294 . S
O258 C251 1.240 . S
O259 In247 2.326 . S
O259 C251 1.252 . S
In260 O261 2.294 . S
In260 O262 2.326 . S
In260 O266 2.266 . S
In260 O267 2.326 . S
In260 O268 2.266 . S
In260 O269 2.326 . S
In260 O271 2.294 . S
In260 O272 2.326 . S
O261 In260 2.294 . S
O261 C270 1.240 . S
O262 In260 2.326 . S
O262 C270 1.252 . S
C263 O266 1.252 . S
C263 O267 1.260 . S
C264 O271 1.240 . S
C264 O272 1.252 . S
C265 O268 1.252 . S
C265 O269 1.260 . S
O266 In260 2.266 . S
O266 C263 1.252 . S
O267 In260 2.326 . S
O267 C263 1.260 . S
O268 In260 2.266 . S
O268 C265 1.252 . S
O269 In260 2.326 . S
O269 C265 1.260 . S
C270 O261 1.240 . S
C270 O262 1.252 . S
O271 In260 2.294 . S
O271 C264 1.240 . S
O272 In260 2.326 . S
O272 C264 1.252 . S
In273 O274 2.294 . S
In273 O275 2.326 . S
In273 O279 2.266 . S
In273 O280 2.326 . S
In273 O281 2.266 . S
In273 O282 2.326 . S
In273 O284 2.294 . S
In273 O285 2.326 . S
O274 In273 2.294 . S
O274 C283 1.240 . S
O275 In273 2.326 . S
O275 C283 1.252 . S
C276 O279 1.252 . S
C276 O280 1.260 . S
C277 O284 1.240 . S
C277 O285 1.252 . S
C278 O281 1.252 . S
C278 O282 1.260 . S
O279 In273 2.266 . S
O279 C276 1.252 . S
O280 In273 2.326 . S
O280 C276 1.260 . S
O281 In273 2.266 . S
O281 C278 1.252 . S
O282 In273 2.326 . S
O282 C278 1.260 . S
C283 O274 1.240 . S
C283 O275 1.252 . S
O284 In273 2.294 . S
O284 C277 1.240 . S
O285 In273 2.326 . S
O285 C277 1.252 . S
In286 O287 2.294 . S
In286 O288 2.326 . S
In286 O292 2.266 . S
In286 O293 2.326 . S
In286 O294 2.266 . S
In286 O295 2.326 1_554 S
In286 O297 2.294 . S
In286 O298 2.326 . S
O287 In286 2.294 . S
O287 C296 1.240 . S
O288 In286 2.326 . S
O288 C296 1.252 . S
C289 O292 1.252 . S
C289 O293 1.260 . S
C290 O297 1.240 . S
C290 O298 1.252 . S
C291 O294 1.252 1_556 S
C291 O295 1.260 . S
O292 In286 2.266 . S
O292 C289 1.252 . S
O293 In286 2.326 . S
O293 C289 1.260 . S
O294 In286 2.266 . S
O294 C291 1.252 1_554 S
O295 In286 2.326 1_556 S
O295 C291 1.260 . S
C296 O287 1.240 . S
C296 O288 1.252 . S
O297 In286 2.294 . S
O297 C290 1.240 . S
O298 In286 2.326 . S
O298 C290 1.252 . S
In299 O300 2.294 . S
In299 O301 2.326 . S
In299 O305 2.266 . S
In299 O306 2.326 . S
In299 O307 2.266 . S
In299 O308 2.326 . S
In299 O310 2.294 . S
In299 O311 2.326 . S
O300 In299 2.294 . S
O300 C309 1.240 . S
O301 In299 2.326 . S
O301 C309 1.252 . S
C302 O305 1.252 . S
C302 O306 1.260 . S
C303 O310 1.240 . S
C303 O311 1.252 . S
C304 O307 1.252 . S
C304 O308 1.260 . S
O305 In299 2.266 . S
O305 C302 1.252 . S
O306 In299 2.326 . S
O306 C302 1.260 . S
O307 In299 2.266 . S
O307 C304 1.252 . S
O308 In299 2.326 . S
O308 C304 1.260 . S
C309 O300 1.240 . S
C309 O301 1.252 . S
O310 In299 2.294 . S
O310 C303 1.240 . S
O311 In299 2.326 . S
O311 C303 1.252 . S
In312 O313 2.294 . S
In312 O314 2.326 . S
In312 O318 2.266 . S
In312 O319 2.326 . S
In312 O320 2.266 . S
In312 O321 2.326 . S
In312 O323 2.294 . S
In312 O324 2.326 . S
O313 In312 2.294 . S
O313 C322 1.240 . S
O314 In312 2.326 . S
O314 C322 1.252 . S
C315 O318 1.252 . S
C315 O319 1.260 . S
C316 O323 1.240 . S
C316 O324 1.252 . S
C317 O320 1.252 . S
C317 O321 1.260 . S
O318 In312 2.266 . S
O318 C315 1.252 . S
O319 In312 2.326 . S
O319 C315 1.260 . S
O320 In312 2.266 . S
O320 C317 1.252 . S
O321 In312 2.326 . S
O321 C317 1.260 . S
C322 O313 1.240 . S
C322 O314 1.252 . S
O323 In312 2.294 . S
O323 C316 1.240 . S
O324 In312 2.326 . S
O324 C316 1.252 . S
In325 O326 2.294 . S
In325 O327 2.326 . S
In325 O331 2.266 . S
In325 O332 2.326 . S
In325 O333 2.266 . S
In325 O334 2.326 . S
In325 O336 2.294 . S
In325 O337 2.326 . S
O326 In325 2.294 . S
O326 C335 1.240 . S
O327 In325 2.326 . S
O327 C335 1.252 . S
C328 O331 1.252 . S
C328 O332 1.260 . S
C329 O336 1.240 . S
C329 O337 1.252 . S
C330 O333 1.252 . S
C330 O334 1.260 . S
O331 In325 2.266 . S
O331 C328 1.252 . S
O332 In325 2.326 . S
O332 C328 1.260 . S
O333 In325 2.266 . S
O333 C330 1.252 . S
O334 In325 2.326 . S
O334 C330 1.260 . S
C335 O326 1.240 . S
C335 O327 1.252 . S
O336 In325 2.294 . S
O336 C329 1.240 . S
O337 In325 2.326 . S
O337 C329 1.252 . S
In338 O339 2.294 . S
In338 O340 2.326 . S
In338 O344 2.266 . S
In338 O345 2.326 . S
In338 O346 2.266 . S
In338 O347 2.326 1_554 S
In338 O349 2.294 . S
In338 O350 2.326 . S
O339 In338 2.294 . S
O339 C348 1.240 . S
O340 In338 2.326 . S
O340 C348 1.252 . S
C341 O344 1.252 . S
C341 O345 1.260 . S
C342 O349 1.240 . S
C342 O350 1.252 . S
C343 O346 1.252 1_556 S
C343 O347 1.260 . S
O344 In338 2.266 . S
O344 C341 1.252 . S
O345 In338 2.326 . S
O345 C341 1.260 . S
O346 In338 2.266 . S
O346 C343 1.252 1_554 S
O347 In338 2.326 1_556 S
O347 C343 1.260 . S
C348 O339 1.240 . S
C348 O340 1.252 . S
O349 In338 2.294 . S
O349 C342 1.240 . S
O350 In338 2.326 . S
O350 C342 1.252 . S
In351 O352 2.294 . S
In351 O353 2.326 . S
In351 O357 2.266 . S
In351 O358 2.326 . S
In351 O359 2.266 . S
In351 O360 2.326 . S
In351 O362 2.294 . S
In351 O363 2.326 . S
O352 In351 2.294 . S
O352 C361 1.240 . S
O353 In351 2.326 . S
O353 C361 1.252 . S
C354 O357 1.252 . S
C354 O358 1.260 . S
C355 O362 1.240 . S
C355 O363 1.252 . S
C356 O359 1.252 . S
C356 O360 1.260 . S
O357 In351 2.266 . S
O357 C354 1.252 . S
O358 In351 2.326 . S
O358 C354 1.260 . S
O359 In351 2.266 . S
O359 C356 1.252 . S
O360 In351 2.326 . S
O360 C356 1.260 . S
C361 O352 1.240 . S
C361 O353 1.252 . S
O362 In351 2.294 . S
O362 C355 1.240 . S
O363 In351 2.326 . S
O363 C355 1.252 . S
In364 O365 2.294 . S
In364 O366 2.326 . S
In364 O370 2.266 . S
In364 O371 2.326 . S
In364 O372 2.266 . S
In364 O373 2.326 . S
In364 O375 2.294 . S
In364 O376 2.326 . S
O365 In364 2.294 . S
O365 C374 1.240 . S
O366 In364 2.326 . S
O366 C374 1.252 . S
C367 O370 1.252 . S
C367 O371 1.260 . S
C368 O375 1.240 . S
C368 O376 1.252 . S
C369 O372 1.252 . S
C369 O373 1.260 . S
O370 In364 2.266 . S
O370 C367 1.252 . S
O371 In364 2.326 . S
O371 C367 1.260 . S
O372 In364 2.266 . S
O372 C369 1.252 . S
O373 In364 2.326 . S
O373 C369 1.260 . S
C374 O365 1.240 . S
C374 O366 1.252 . S
O375 In364 2.294 . S
O375 C368 1.240 . S
O376 In364 2.326 . S
O376 C368 1.252 . S
In377 O378 2.294 . S
In377 O379 2.326 . S
In377 O383 2.266 . S
In377 O384 2.326 . S
In377 O385 2.266 . S
In377 O386 2.326 . S
In377 O388 2.294 . S
In377 O389 2.326 . S
O378 In377 2.294 . S
O378 C387 1.240 . S
O379 In377 2.326 . S
O379 C387 1.252 . S
C380 O383 1.252 . S
C380 O384 1.260 . S
C381 O388 1.240 . S
C381 O389 1.252 . S
C382 O385 1.252 . S
C382 O386 1.260 . S
O383 In377 2.266 . S
O383 C380 1.252 . S
O384 In377 2.326 . S
O384 C380 1.260 . S
O385 In377 2.266 . S
O385 C382 1.252 . S
O386 In377 2.326 . S
O386 C382 1.260 . S
C387 O378 1.240 . S
C387 O379 1.252 . S
O388 In377 2.294 . S
O388 C381 1.240 . S
O389 In377 2.326 . S
O389 C381 1.252 . S
In390 O391 2.294 . S
In390 O392 2.326 . S
In390 O396 2.266 . S
In390 O397 2.326 . S
In390 O398 2.266 . S
In390 O399 2.326 . S
In390 O401 2.294 . S
In390 O402 2.326 1_554 S
O391 In390 2.294 . S
O391 C400 1.240 . S
O392 In390 2.326 . S
O392 C400 1.252 . S
C393 O396 1.252 . S
C393 O397 1.260 . S
C394 O401 1.240 1_556 S
C394 O402 1.252 . S
C395 O398 1.252 . S
C395 O399 1.260 . S
O396 In390 2.266 . S
O396 C393 1.252 . S
O397 In390 2.326 . S
O397 C393 1.260 . S
O398 In390 2.266 . S
O398 C395 1.252 . S
O399 In390 2.326 . S
O399 C395 1.260 . S
C400 O391 1.240 . S
C400 O392 1.252 . S
O401 In390 2.294 . S
O401 C394 1.240 1_554 S
O402 In390 2.326 1_556 S
O402 C394 1.252 . S
In403 O404 2.294 . S
In403 O405 2.326 . S
In403 O409 2.266 . S
In403 O410 2.326 . S
In403 O411 2.266 . S
In403 O412 2.326 . S
In403 O414 2.294 . S
In403 O415 2.326 . S
O404 In403 2.294 . S
O404 C413 1.240 . S
O405 In403 2.326 . S
O405 C413 1.252 . S
C406 O409 1.252 . S
C406 O410 1.260 . S
C407 O414 1.240 . S
C407 O415 1.252 . S
C408 O411 1.252 . S
C408 O412 1.260 . S
O409 In403 2.266 . S
O409 C406 1.252 . S
O410 In403 2.326 . S
O410 C406 1.260 . S
O411 In403 2.266 . S
O411 C408 1.252 . S
O412 In403 2.326 . S
O412 C408 1.260 . S
C413 O404 1.240 . S
C413 O405 1.252 . S
O414 In403 2.294 . S
O414 C407 1.240 . S
O415 In403 2.326 . S
O415 C407 1.252 . S
H416 C424 0.950 . S
H417 C429 0.950 . S
H418 C426 0.950 . S
H419 C428 0.950 . S
H420 C430 0.950 . S
H421 C432 0.950 . S
H422 C434 0.950 . S
H423 C435 0.950 . S
C424 H416 0.950 . S
C424 C425 1.386 . S
C424 C426 1.391 . S
C425 C424 1.386 . S
C425 C429 1.393 . S
C426 H418 0.950 . S
C426 C424 1.391 . S
C426 C427 1.400 . S
C427 C426 1.400 . S
C427 C428 1.398 . S
C427 C433 1.491 . S
C428 H419 0.950 . S
C428 C427 1.398 . S
C428 C429 1.391 . S
C429 H417 0.950 . S
C429 C425 1.393 . S
C429 C428 1.391 . S
C430 H420 0.950 . S
C430 C431 1.386 . S
C430 C432 1.391 . S
C431 C430 1.386 . S
C431 C435 1.393 1_554 S
C432 H421 0.950 . S
C432 C430 1.391 . S
C432 C433 1.400 1_554 S
C433 C427 1.491 . S
C433 C432 1.400 1_556 S
C433 C434 1.398 . S
C434 H422 0.950 . S
C434 C433 1.398 . S
C434 C435 1.391 . S
C435 H423 0.950 . S
C435 C431 1.393 1_556 S
C435 C434 1.391 . S
H436 C444 0.950 . S
H437 C449 0.950 . S
H438 C446 0.950 . S
H439 C448 0.950 . S
H440 C450 0.950 . S
H441 C452 0.950 . S
H442 C454 0.950 . S
H443 C455 0.950 . S
C444 H436 0.950 . S
C444 C445 1.386 . S
C444 C446 1.391 . S
C445 C444 1.386 . S
C445 C449 1.393 . S
C446 H438 0.950 . S
C446 C444 1.391 . S
C446 C447 1.400 . S
C447 C446 1.400 . S
C447 C448 1.398 . S
C447 C453 1.491 . S
C448 H439 0.950 . S
C448 C447 1.398 . S
C448 C449 1.391 . S
C449 H437 0.950 . S
C449 C445 1.393 . S
C449 C448 1.391 . S
C450 H440 0.950 . S
C450 C451 1.386 . S
C450 C452 1.391 . S
C451 C450 1.386 . S
C451 C455 1.393 . S
C452 H441 0.950 . S
C452 C450 1.391 . S
C452 C453 1.400 . S
C453 C447 1.491 . S
C453 C452 1.400 . S
C453 C454 1.398 . S
C454 H442 0.950 . S
C454 C453 1.398 . S
C454 C455 1.391 . S
C455 H443 0.950 . S
C455 C451 1.393 . S
C455 C454 1.391 . S
H456 C464 0.950 . S
H457 C469 0.950 . S
H458 C466 0.950 . S
H459 C468 0.950 . S
H460 C470 0.950 . S
H461 C472 0.950 . S
H462 C474 0.950 . S
H463 C475 0.950 . S
C464 H456 0.950 . S
C464 C465 1.386 . S
C464 C466 1.391 . S
C465 C464 1.386 . S
C465 C469 1.393 . S
C466 H458 0.950 . S
C466 C464 1.391 . S
C466 C467 1.400 . S
C467 C466 1.400 . S
C467 C468 1.398 . S
C467 C473 1.491 . S
C468 H459 0.950 . S
C468 C467 1.398 . S
C468 C469 1.391 . S
C469 H457 0.950 . S
C469 C465 1.393 . S
C469 C468 1.391 . S
C470 H460 0.950 . S
C470 C471 1.386 . S
C470 C472 1.391 . S
C471 C470 1.386 . S
C471 C475 1.393 . S
C472 H461 0.950 . S
C472 C470 1.391 . S
C472 C473 1.400 . S
C473 C467 1.491 . S
C473 C472 1.400 . S
C473 C474 1.398 . S
C474 H462 0.950 . S
C474 C473 1.398 . S
C474 C475 1.391 . S
C475 H463 0.950 . S
C475 C471 1.393 . S
C475 C474 1.391 . S
H476 C484 0.950 . S
H477 C489 0.950 . S
H478 C486 0.950 . S
H479 C488 0.950 . S
H480 C490 0.950 . S
H481 C492 0.950 . S
H482 C494 0.950 . S
H483 C495 0.950 . S
C484 H476 0.950 . S
C484 C485 1.386 . S
C484 C486 1.391 . S
C485 C484 1.386 . S
C485 C489 1.393 . S
C486 H478 0.950 . S
C486 C484 1.391 . S
C486 C487 1.400 . S
C487 C486 1.400 . S
C487 C488 1.398 . S
C487 C493 1.491 . S
C488 H479 0.950 . S
C488 C487 1.398 . S
C488 C489 1.391 . S
C489 H477 0.950 . S
C489 C485 1.393 . S
C489 C488 1.391 . S
C490 H480 0.950 . S
C490 C491 1.386 . S
C490 C492 1.391 . S
C491 C490 1.386 . S
C491 C495 1.393 . S
C492 H481 0.950 . S
C492 C490 1.391 . S
C492 C493 1.400 . S
C493 C487 1.491 . S
C493 C492 1.400 . S
C493 C494 1.398 . S
C494 H482 0.950 . S
C494 C493 1.398 . S
C494 C495 1.391 . S
C495 H483 0.950 . S
C495 C491 1.393 . S
C495 C494 1.391 . S
H496 C504 0.950 . S
H497 C509 0.950 . S
H498 C506 0.950 . S
H499 C508 0.950 . S
H500 C510 0.950 . S
H501 C512 0.950 . S
H502 C514 0.950 . S
H503 C515 0.950 . S
C504 H496 0.950 . S
C504 C505 1.386 . S
C504 C506 1.391 . S
C505 C504 1.386 . S
C505 C509 1.393 . S
C506 H498 0.950 . S
C506 C504 1.391 . S
C506 C507 1.400 . S
C507 C506 1.400 . S
C507 C508 1.398 . S
C507 C513 1.491 . S
C508 H499 0.950 . S
C508 C507 1.398 . S
C508 C509 1.391 . S
C509 H497 0.950 . S
C509 C505 1.393 . S
C509 C508 1.391 . S
C510 H500 0.950 . S
C510 C511 1.386 . S
C510 C512 1.391 . S
C511 C510 1.386 . S
C511 C515 1.393 . S
C512 H501 0.950 . S
C512 C510 1.391 . S
C512 C513 1.400 . S
C513 C507 1.491 . S
C513 C512 1.400 . S
C513 C514 1.398 . S
C514 H502 0.950 . S
C514 C513 1.398 . S
C514 C515 1.391 . S
C515 H503 0.950 . S
C515 C511 1.393 . S
C515 C514 1.391 . S
H516 C524 0.950 . S
H517 C529 0.950 . S
H518 C526 0.950 . S
H519 C528 0.950 . S
H520 C530 0.950 . S
H521 C532 0.950 . S
H522 C534 0.950 . S
H523 C535 0.950 . S
C524 H516 0.950 . S
C524 C525 1.386 . S
C524 C526 1.391 . S
C525 C524 1.386 . S
C525 C529 1.393 . S
C526 H518 0.950 . S
C526 C524 1.391 . S
C526 C527 1.400 . S
C527 C526 1.400 . S
C527 C528 1.398 . S
C527 C533 1.491 . S
C528 H519 0.950 . S
C528 C527 1.398 . S
C528 C529 1.391 . S
C529 H517 0.950 . S
C529 C525 1.393 . S
C529 C528 1.391 . S
C530 H520 0.950 . S
C530 C531 1.386 1_556 S
C530 C532 1.391 . S
C531 C530 1.386 1_554 S
C531 C535 1.393 . S
C532 H521 0.950 . S
C532 C530 1.391 . S
C532 C533 1.400 . S
C533 C527 1.491 . S
C533 C532 1.400 . S
C533 C534 1.398 1_556 S
C534 H522 0.950 . S
C534 C533 1.398 1_554 S
C534 C535 1.391 . S
C535 H523 0.950 . S
C535 C531 1.393 . S
C535 C534 1.391 . S
H536 C544 0.950 . S
H537 C549 0.950 . S
H538 C546 0.950 . S
H539 C548 0.950 . S
H540 C550 0.950 . S
H541 C552 0.950 . S
H542 C554 0.950 . S
H543 C555 0.950 . S
C544 H536 0.950 . S
C544 C545 1.386 . S
C544 C546 1.391 . S
C545 C544 1.386 . S
C545 C549 1.393 . S
C546 H538 0.950 . S
C546 C544 1.391 . S
C546 C547 1.400 . S
C547 C546 1.400 . S
C547 C548 1.398 . S
C547 C553 1.491 . S
C548 H539 0.950 . S
C548 C547 1.398 . S
C548 C549 1.391 . S
C549 H537 0.950 . S
C549 C545 1.393 . S
C549 C548 1.391 . S
C550 H540 0.950 . S
C550 C551 1.386 . S
C550 C552 1.391 . S
C551 C550 1.386 . S
C551 C555 1.393 . S
C552 H541 0.950 . S
C552 C550 1.391 . S
C552 C553 1.400 . S
C553 C547 1.491 . S
C553 C552 1.400 . S
C553 C554 1.398 . S
C554 H542 0.950 . S
C554 C553 1.398 . S
C554 C555 1.391 . S
C555 H543 0.950 . S
C555 C551 1.393 . S
C555 C554 1.391 . S
H556 C564 0.950 . S
H557 C569 0.950 . S
H558 C566 0.950 . S
H559 C568 0.950 . S
H560 C570 0.950 . S
H561 C572 0.950 . S
H562 C574 0.950 . S
H563 C575 0.950 . S
C564 H556 0.950 . S
C564 C565 1.386 . S
C564 C566 1.391 . S
C565 C564 1.386 . S
C565 C569 1.393 . S
C566 H558 0.950 . S
C566 C564 1.391 . S
C566 C567 1.400 . S
C567 C566 1.400 . S
C567 C568 1.398 . S
C567 C573 1.491 . S
C568 H559 0.950 . S
C568 C567 1.398 . S
C568 C569 1.391 . S
C569 H557 0.950 . S
C569 C565 1.393 . S
C569 C568 1.391 . S
C570 H560 0.950 . S
C570 C571 1.386 . S
C570 C572 1.391 . S
C571 C570 1.386 . S
C571 C575 1.393 . S
C572 H561 0.950 . S
C572 C570 1.391 . S
C572 C573 1.400 . S
C573 C567 1.491 . S
C573 C572 1.400 . S
C573 C574 1.398 . S
C574 H562 0.950 . S
C574 C573 1.398 . S
C574 C575 1.391 . S
C575 H563 0.950 . S
C575 C571 1.393 . S
C575 C574 1.391 . S
H576 C584 0.950 . S
H577 C589 0.950 . S
H578 C586 0.950 . S
H579 C588 0.950 . S
H580 C590 0.950 . S
H581 C592 0.950 . S
H582 C594 0.950 . S
H583 C595 0.950 . S
C584 H576 0.950 . S
C584 C585 1.386 . S
C584 C586 1.391 . S
C585 C584 1.386 . S
C585 C589 1.393 . S
C586 H578 0.950 . S
C586 C584 1.391 . S
C586 C587 1.400 . S
C587 C586 1.400 . S
C587 C588 1.398 . S
C587 C593 1.491 . S
C588 H579 0.950 . S
C588 C587 1.398 . S
C588 C589 1.391 . S
C589 H577 0.950 . S
C589 C585 1.393 . S
C589 C588 1.391 . S
C590 H580 0.950 . S
C590 C591 1.386 . S
C590 C592 1.391 . S
C591 C590 1.386 . S
C591 C595 1.393 . S
C592 H581 0.950 . S
C592 C590 1.391 . S
C592 C593 1.400 . S
C593 C587 1.491 . S
C593 C592 1.400 . S
C593 C594 1.398 . S
C594 H582 0.950 . S
C594 C593 1.398 . S
C594 C595 1.391 . S
C595 H583 0.950 . S
C595 C591 1.393 . S
C595 C594 1.391 . S
H596 C604 0.950 . S
H597 C609 0.950 . S
H598 C606 0.950 . S
H599 C608 0.950 . S
H600 C610 0.950 . S
H601 C612 0.950 . S
H602 C614 0.950 . S
H603 C615 0.950 . S
C604 H596 0.950 . S
C604 C605 1.386 . S
C604 C606 1.391 . S
C605 C604 1.386 . S
C605 C609 1.393 . S
C606 H598 0.950 . S
C606 C604 1.391 . S
C606 C607 1.400 . S
C607 C606 1.400 . S
C607 C608 1.398 . S
C607 C613 1.491 . S
C608 H599 0.950 . S
C608 C607 1.398 . S
C608 C609 1.391 . S
C609 H597 0.950 . S
C609 C605 1.393 . S
C609 C608 1.391 . S
C610 H600 0.950 . S
C610 C611 1.386 . S
C610 C612 1.391 . S
C611 C610 1.386 . S
C611 C615 1.393 . S
C612 H601 0.950 . S
C612 C610 1.391 . S
C612 C613 1.400 . S
C613 C607 1.491 . S
C613 C612 1.400 . S
C613 C614 1.398 . S
C614 H602 0.950 . S
C614 C613 1.398 . S
C614 C615 1.391 . S
C615 H603 0.950 . S
C615 C611 1.393 . S
C615 C614 1.391 . S
H616 C624 0.950 . S
H617 C629 0.950 . S
H618 C626 0.950 . S
H619 C628 0.950 . S
H620 C630 0.950 . S
H621 C632 0.950 1_554 S
H622 C634 0.950 . S
H623 C635 0.950 . S
C624 H616 0.950 . S
C624 C625 1.386 . S
C624 C626 1.391 . S
C625 C624 1.386 . S
C625 C629 1.393 . S
C626 H618 0.950 . S
C626 C624 1.391 . S
C626 C627 1.400 . S
C627 C626 1.400 . S
C627 C628 1.398 . S
C627 C633 1.491 . S
C628 H619 0.950 . S
C628 C627 1.398 . S
C628 C629 1.391 . S
C629 H617 0.950 . S
C629 C625 1.393 . S
C629 C628 1.391 . S
C630 H620 0.950 . S
C630 C631 1.386 . S
C630 C632 1.391 1_554 S
C631 C630 1.386 . S
C631 C635 1.393 1_554 S
C632 H621 0.950 1_556 S
C632 C630 1.391 1_556 S
C632 C633 1.400 . S
C633 C627 1.491 . S
C633 C632 1.400 . S
C633 C634 1.398 . S
C634 H622 0.950 . S
C634 C633 1.398 . S
C634 C635 1.391 . S
C635 H623 0.950 . S
C635 C631 1.393 1_556 S
C635 C634 1.391 . S
H636 C644 0.950 . S
H637 C649 0.950 . S
H638 C646 0.950 . S
H639 C648 0.950 . S
H640 C650 0.950 . S
H641 C652 0.950 . S
H642 C654 0.950 . S
H643 C655 0.950 . S
C644 H636 0.950 . S
C644 C645 1.386 . S
C644 C646 1.391 . S
C645 C644 1.386 . S
C645 C649 1.393 . S
C646 H638 0.950 . S
C646 C644 1.391 . S
C646 C647 1.400 . S
C647 C646 1.400 . S
C647 C648 1.398 . S
C647 C653 1.491 . S
C648 H639 0.950 . S
C648 C647 1.398 . S
C648 C649 1.391 . S
C649 H637 0.950 . S
C649 C645 1.393 . S
C649 C648 1.391 . S
C650 H640 0.950 . S
C650 C651 1.386 . S
C650 C652 1.391 . S
C651 C650 1.386 . S
C651 C655 1.393 . S
C652 H641 0.950 . S
C652 C650 1.391 . S
C652 C653 1.400 . S
C653 C647 1.491 . S
C653 C652 1.400 . S
C653 C654 1.398 . S
C654 H642 0.950 . S
C654 C653 1.398 . S
C654 C655 1.391 . S
C655 H643 0.950 . S
C655 C651 1.393 . S
C655 C654 1.391 . S
H656 C664 0.950 . S
H657 C669 0.950 . S
H658 C666 0.950 . S
H659 C668 0.950 . S
H660 C670 0.950 . S
H661 C672 0.950 . S
H662 C674 0.950 . S
H663 C675 0.950 . S
C664 H656 0.950 . S
C664 C665 1.386 . S
C664 C666 1.391 . S
C665 C664 1.386 . S
C665 C669 1.393 . S
C666 H658 0.950 . S
C666 C664 1.391 . S
C666 C667 1.400 . S
C667 C666 1.400 . S
C667 C668 1.398 . S
C667 C673 1.491 . S
C668 H659 0.950 . S
C668 C667 1.398 . S
C668 C669 1.391 . S
C669 H657 0.950 . S
C669 C665 1.393 . S
C669 C668 1.391 . S
C670 H660 0.950 . S
C670 C671 1.386 . S
C670 C672 1.391 . S
C671 C670 1.386 . S
C671 C675 1.393 . S
C672 H661 0.950 . S
C672 C670 1.391 . S
C672 C673 1.400 . S
C673 C667 1.491 . S
C673 C672 1.400 . S
C673 C674 1.398 . S
C674 H662 0.950 . S
C674 C673 1.398 . S
C674 C675 1.391 . S
C675 H663 0.950 . S
C675 C671 1.393 . S
C675 C674 1.391 . S
H676 C684 0.950 . S
H677 C689 0.950 . S
H678 C686 0.950 . S
H679 C688 0.950 . S
H680 C690 0.950 . S
H681 C692 0.950 . S
H682 C694 0.950 . S
H683 C695 0.950 . S
C684 H676 0.950 . S
C684 C685 1.386 . S
C684 C686 1.391 . S
C685 C684 1.386 . S
C685 C689 1.393 . S
C686 H678 0.950 . S
C686 C684 1.391 . S
C686 C687 1.400 . S
C687 C686 1.400 . S
C687 C688 1.398 . S
C687 C693 1.491 . S
C688 H679 0.950 . S
C688 C687 1.398 . S
C688 C689 1.391 . S
C689 H677 0.950 . S
C689 C685 1.393 . S
C689 C688 1.391 . S
C690 H680 0.950 . S
C690 C691 1.386 . S
C690 C692 1.391 . S
C691 C690 1.386 . S
C691 C695 1.393 . S
C692 H681 0.950 . S
C692 C690 1.391 . S
C692 C693 1.400 . S
C693 C687 1.491 . S
C693 C692 1.400 . S
C693 C694 1.398 . S
C694 H682 0.950 . S
C694 C693 1.398 . S
C694 C695 1.391 . S
C695 H683 0.950 . S
C695 C691 1.393 . S
C695 C694 1.391 . S
H696 C704 0.950 . S
H697 C709 0.950 . S
H698 C706 0.950 . S
H699 C708 0.950 . S
H700 C710 0.950 . S
H701 C712 0.950 . S
H702 C714 0.950 . S
H703 C715 0.950 . S
C704 H696 0.950 . S
C704 C705 1.386 . S
C704 C706 1.391 . S
C705 C704 1.386 . S
C705 C709 1.393 . S
C706 H698 0.950 . S
C706 C704 1.391 . S
C706 C707 1.400 . S
C707 C706 1.400 . S
C707 C708 1.398 . S
C707 C713 1.491 . S
C708 H699 0.950 . S
C708 C707 1.398 . S
C708 C709 1.391 . S
C709 H697 0.950 . S
C709 C705 1.393 . S
C709 C708 1.391 . S
C710 H700 0.950 . S
C710 C711 1.386 . S
C710 C712 1.391 . S
C711 C710 1.386 . S
C711 C715 1.393 . S
C712 H701 0.950 . S
C712 C710 1.391 . S
C712 C713 1.400 . S
C713 C707 1.491 . S
C713 C712 1.400 . S
C713 C714 1.398 . S
C714 H702 0.950 . S
C714 C713 1.398 . S
C714 C715 1.391 . S
C715 H703 0.950 . S
C715 C711 1.393 . S
C715 C714 1.391 . S
H716 C724 0.950 . S
H717 C729 0.950 . S
H718 C726 0.950 . S
H719 C728 0.950 . S
H720 C730 0.950 . S
H721 C732 0.950 . S
H722 C734 0.950 . S
H723 C735 0.950 . S
C724 H716 0.950 . S
C724 C725 1.386 . S
C724 C726 1.391 . S
C725 C724 1.386 . S
C725 C729 1.393 . S
C726 H718 0.950 . S
C726 C724 1.391 . S
C726 C727 1.400 . S
C727 C726 1.400 . S
C727 C728 1.398 . S
C727 C733 1.491 . S
C728 H719 0.950 . S
C728 C727 1.398 . S
C728 C729 1.391 . S
C729 H717 0.950 . S
C729 C725 1.393 . S
C729 C728 1.391 . S
C730 H720 0.950 . S
C730 C731 1.386 . S
C730 C732 1.391 . S
C731 C730 1.386 . S
C731 C735 1.393 1_554 S
C732 H721 0.950 . S
C732 C730 1.391 . S
C732 C733 1.400 1_554 S
C733 C727 1.491 . S
C733 C732 1.400 1_556 S
C733 C734 1.398 . S
C734 H722 0.950 . S
C734 C733 1.398 . S
C734 C735 1.391 . S
C735 H723 0.950 . S
C735 C731 1.393 1_556 S
C735 C734 1.391 . S
H736 C744 0.950 . S
H737 C749 0.950 . S
H738 C746 0.950 . S
H739 C748 0.950 . S
H740 C750 0.950 . S
H741 C752 0.950 . S
H742 C754 0.950 . S
H743 C755 0.950 . S
C744 H736 0.950 . S
C744 C745 1.386 . S
C744 C746 1.391 . S
C745 C744 1.386 . S
C745 C749 1.393 . S
C746 H738 0.950 . S
C746 C744 1.391 . S
C746 C747 1.400 . S
C747 C746 1.400 . S
C747 C748 1.398 . S
C747 C753 1.491 . S
C748 H739 0.950 . S
C748 C747 1.398 . S
C748 C749 1.391 . S
C749 H737 0.950 . S
C749 C745 1.393 . S
C749 C748 1.391 . S
C750 H740 0.950 . S
C750 C751 1.386 . S
C750 C752 1.391 . S
C751 C750 1.386 . S
C751 C755 1.393 . S
C752 H741 0.950 . S
C752 C750 1.391 . S
C752 C753 1.400 . S
C753 C747 1.491 . S
C753 C752 1.400 . S
C753 C754 1.398 . S
C754 H742 0.950 . S
C754 C753 1.398 . S
C754 C755 1.391 . S
C755 H743 0.950 . S
C755 C751 1.393 . S
C755 C754 1.391 . S
H756 C764 0.950 . S
H757 C769 0.950 1_545 S
H758 C766 0.950 . S
H759 C768 0.950 . S
H760 C770 0.950 . S
H761 C772 0.950 . S
H762 C774 0.950 . S
H763 C775 0.931 1_565 S
C764 H756 0.950 . S
C764 C765 1.386 . S
C764 C766 1.391 . S
C765 C764 1.386 . S
C765 C769 1.393 . S
C766 H758 0.950 . S
C766 C764 1.391 . S
C766 C767 1.400 . S
C767 C766 1.400 . S
C767 C768 1.398 1_565 S
C767 C773 1.491 1_565 S
C768 H759 0.950 . S
C768 C767 1.398 1_545 S
C768 C769 1.391 1_545 S
C769 H757 0.950 1_565 S
C769 C765 1.393 . S
C769 C768 1.391 1_565 S
C770 H760 0.950 . S
C770 C771 1.386 . S
C770 C772 1.391 1_556 S
C771 C770 1.386 . S
C771 C775 1.431 . S
C772 H761 0.950 . S
C772 C770 1.391 1_554 S
C772 C773 1.400 . S
C773 C767 1.491 1_545 S
C773 C772 1.400 . S
C773 C774 1.398 1_545 S
C774 H762 0.950 . S
C774 C773 1.398 1_565 S
C774 C775 1.375 1_564 S
C775 H763 0.931 1_545 S
C775 C771 1.431 . S
C775 C774 1.375 1_546 S
H776 C784 0.950 . S
H777 C789 0.950 . S
H778 C786 0.950 . S
H779 C788 0.950 . S
H780 C790 0.950 . S
H781 C792 0.950 . S
H782 C794 0.950 . S
H783 C795 0.950 . S
C784 H776 0.950 . S
C784 C785 1.386 . S
C784 C786 1.391 . S
C785 C784 1.386 . S
C785 C789 1.393 . S
C786 H778 0.950 . S
C786 C784 1.391 . S
C786 C787 1.400 . S
C787 C786 1.400 . S
C787 C788 1.398 . S
C787 C793 1.491 . S
C788 H779 0.950 . S
C788 C787 1.398 . S
C788 C789 1.391 . S
C789 H777 0.950 . S
C789 C785 1.393 . S
C789 C788 1.391 . S
C790 H780 0.950 . S
C790 C791 1.386 . S
C790 C792 1.391 . S
C791 C790 1.386 . S
C791 C795 1.393 . S
C792 H781 0.950 . S
C792 C790 1.391 . S
C792 C793 1.400 . S
C793 C787 1.491 . S
C793 C792 1.400 . S
C793 C794 1.398 . S
C794 H782 0.950 . S
C794 C793 1.398 . S
C794 C795 1.391 . S
C795 H783 0.950 . S
C795 C791 1.393 . S
C795 C794 1.391 . S
H796 C804 0.956 . S
H797 C809 0.950 . S
H798 C806 0.950 . S
H799 C808 0.950 . S
H800 C810 0.963 . S
H801 C812 0.950 . S
H802 C814 0.950 . S
H803 C815 0.950 . S
C804 H796 0.956 . S
C804 C805 1.386 . S
C804 C806 1.391 1_545 S
C805 C804 1.386 . S
C805 C809 1.393 . S
C806 H798 0.950 . S
C806 C804 1.391 1_565 S
C806 C807 1.400 1_565 S
C807 C806 1.400 1_545 S
C807 C808 1.398 . S
C807 C813 1.491 1_545 S
C808 H799 0.950 . S
C808 C807 1.398 . S
C808 C809 1.391 . S
C809 H797 0.950 . S
C809 C805 1.393 . S
C809 C808 1.391 . S
C810 H800 0.963 . S
C810 C811 1.386 . S
C810 C812 1.391 1_565 S
C811 C810 1.386 . S
C811 C815 1.393 . S
C812 H801 0.950 . S
C812 C810 1.391 1_545 S
C812 C813 1.400 1_545 S
C813 C807 1.491 1_565 S
C813 C812 1.400 1_565 S
C813 C814 1.398 . S
C814 H802 0.950 . S
C814 C813 1.398 . S
C814 C815 1.391 . S
C815 H803 0.950 . S
C815 C811 1.393 . S
C815 C814 1.391 . S
H816 C824 0.950 . S
H817 C829 0.950 . S
H818 C826 0.950 . S
H819 C828 0.950 . S
H820 C830 0.950 . S
H821 C832 0.950 . S
H822 C834 0.950 . S
H823 C835 0.950 . S
C824 H816 0.950 . S
C824 C825 1.386 . S
C824 C826 1.391 . S
C825 C824 1.386 . S
C825 C829 1.393 . S
C826 H818 0.950 . S
C826 C824 1.391 . S
C826 C827 1.400 . S
C827 C826 1.400 . S
C827 C828 1.398 . S
C827 C833 1.491 . S
C828 H819 0.950 . S
C828 C827 1.398 . S
C828 C829 1.391 . S
C829 H817 0.950 . S
C829 C825 1.393 . S
C829 C828 1.391 . S
C830 H820 0.950 . S
C830 C831 1.386 . S
C830 C832 1.391 . S
C831 C830 1.386 . S
C831 C835 1.393 . S
C832 H821 0.950 . S
C832 C830 1.391 . S
C832 C833 1.400 . S
C833 C827 1.491 . S
C833 C832 1.400 . S
C833 C834 1.398 . S
C834 H822 0.950 . S
C834 C833 1.398 . S
C834 C835 1.391 . S
C835 H823 0.950 . S
C835 C831 1.393 . S
C835 C834 1.391 . S
H836 C844 0.950 . S
H837 C849 0.950 . S
H838 C846 0.950 . S
H839 C848 0.950 . S
H840 C850 0.950 . S
H841 C852 0.950 . S
H842 C854 0.950 . S
H843 C855 0.950 . S
C844 H836 0.950 . S
C844 C845 1.386 1_565 S
C844 C846 1.391 1_556 S
C845 C844 1.386 1_545 S
C845 C849 1.393 . S
C846 H838 0.950 . S
C846 C844 1.391 1_554 S
C846 C847 1.400 1_565 S
C847 C846 1.400 1_545 S
C847 C848 1.398 . S
C847 C853 1.491 1_545 S
C848 H839 0.950 . S
C848 C847 1.398 . S
C848 C849 1.391 1_554 S
C849 H837 0.950 . S
C849 C845 1.393 . S
C849 C848 1.391 1_556 S
C850 H840 0.950 . S
C850 C851 1.386 1_545 S
C850 C852 1.391 . S
C851 C850 1.386 1_565 S
C851 C855 1.393 . S
C852 H841 0.950 . S
C852 C850 1.391 . S
C852 C853 1.400 1_545 S
C853 C847 1.491 1_565 S
C853 C852 1.400 1_565 S
C853 C854 1.398 . S
C854 H842 0.950 . S
C854 C853 1.398 . S
C854 C855 1.391 . S
C855 H843 0.950 . S
C855 C851 1.393 . S
C855 C854 1.391 . S
H856 C864 0.950 . S
H857 C869 0.950 . S
H858 C866 0.950 . S
H859 C868 0.950 . S
H860 C870 0.950 . S
H861 C872 0.950 . S
H862 C874 0.950 . S
H863 C875 0.950 . S
C864 H856 0.950 . S
C864 C865 1.386 . S
C864 C866 1.391 . S
C865 C864 1.386 . S
C865 C869 1.393 . S
C866 H858 0.950 . S
C866 C864 1.391 . S
C866 C867 1.400 . S
C867 C866 1.400 . S
C867 C868 1.398 . S
C867 C873 1.491 . S
C868 H859 0.950 . S
C868 C867 1.398 . S
C868 C869 1.391 . S
C869 H857 0.950 . S
C869 C865 1.393 . S
C869 C868 1.391 . S
C870 H860 0.950 . S
C870 C871 1.386 . S
C870 C872 1.391 . S
C871 C870 1.386 . S
C871 C875 1.393 . S
C872 H861 0.950 . S
C872 C870 1.391 . S
C872 C873 1.400 . S
C873 C867 1.491 . S
C873 C872 1.400 . S
C873 C874 1.398 . S
C874 H862 0.950 . S
C874 C873 1.398 . S
C874 C875 1.391 . S
C875 H863 0.950 . S
C875 C871 1.393 . S
C875 C874 1.391 . S
H876 C884 0.977 . S
H877 C889 0.950 . S
H878 C886 0.950 . S
H879 C888 0.950 . S
H880 C890 0.961 . S
H881 C892 0.950 . S
H882 C894 0.950 . S
H883 C895 0.950 . S
C884 H876 0.977 . S
C884 C885 1.345 1_565 S
C884 C886 1.407 . S
C885 C884 1.345 1_545 S
C885 C889 1.393 . S
C886 H878 0.950 . S
C886 C884 1.407 . S
C886 C887 1.400 1_565 S
C887 C886 1.400 1_545 S
C887 C888 1.398 . S
C887 C893 1.491 1_545 S
C888 H879 0.950 . S
C888 C887 1.398 . S
C888 C889 1.391 . S
C889 H877 0.950 . S
C889 C885 1.393 . S
C889 C888 1.391 . S
C890 H880 0.961 . S
C890 C891 1.367 1_545 S
C890 C892 1.398 . S
C891 C890 1.367 1_565 S
C891 C895 1.393 . S
C892 H881 0.950 . S
C892 C890 1.398 . S
C892 C893 1.400 1_545 S
C893 C887 1.491 1_565 S
C893 C892 1.400 1_565 S
C893 C894 1.398 . S
C894 H882 0.950 . S
C894 C893 1.398 . S
C894 C895 1.391 . S
C895 H883 0.950 . S
C895 C891 1.393 . S
C895 C894 1.391 . S
H896 C904 0.950 . S
H897 C909 0.950 . S
H898 C906 0.950 . S
H899 C908 0.950 . S
H900 C910 0.950 . S
H901 C912 0.950 . S
H902 C914 0.950 . S
H903 C915 0.950 . S
C904 H896 0.950 . S
C904 C905 1.386 . S
C904 C906 1.391 . S
C905 C904 1.386 . S
C905 C909 1.393 . S
C906 H898 0.950 . S
C906 C904 1.391 . S
C906 C907 1.400 . S
C907 C906 1.400 . S
C907 C908 1.398 . S
C907 C913 1.491 . S
C908 H899 0.950 . S
C908 C907 1.398 . S
C908 C909 1.391 . S
C909 H897 0.950 . S
C909 C905 1.393 . S
C909 C908 1.391 . S
C910 H900 0.950 . S
C910 C911 1.386 . S
C910 C912 1.391 . S
C911 C910 1.386 . S
C911 C915 1.393 . S
C912 H901 0.950 . S
C912 C910 1.391 . S
C912 C913 1.400 . S
C913 C907 1.491 . S
C913 C912 1.400 . S
C913 C914 1.398 . S
C914 H902 0.950 . S
C914 C913 1.398 . S
C914 C915 1.391 . S
C915 H903 0.950 . S
C915 C911 1.393 . S
C915 C914 1.391 . S
H916 C924 0.950 . S
H917 C929 0.950 . S
H918 C926 0.950 . S
H919 C928 0.950 . S
H920 C930 0.950 . S
H921 C932 0.950 . S
H922 C934 0.950 . S
H923 C935 0.950 . S
C924 H916 0.950 . S
C924 C925 1.386 . S
C924 C926 1.391 . S
C925 C924 1.386 . S
C925 C929 1.393 . S
C926 H918 0.950 . S
C926 C924 1.391 . S
C926 C927 1.400 . S
C927 C926 1.400 . S
C927 C928 1.398 . S
C927 C933 1.491 . S
C928 H919 0.950 . S
C928 C927 1.398 . S
C928 C929 1.391 . S
C929 H917 0.950 . S
C929 C925 1.393 . S
C929 C928 1.391 . S
C930 H920 0.950 . S
C930 C931 1.386 . S
C930 C932 1.391 . S
C931 C930 1.386 . S
C931 C935 1.393 . S
C932 H921 0.950 . S
C932 C930 1.391 . S
C932 C933 1.400 . S
C933 C927 1.491 . S
C933 C932 1.400 . S
C933 C934 1.398 . S
C934 H922 0.950 . S
C934 C933 1.398 . S
C934 C935 1.391 . S
C935 H923 0.950 . S
C935 C931 1.393 . S
C935 C934 1.391 . S
H936 C944 0.950 . S
H937 C949 0.950 . S
H938 C946 0.950 . S
H939 C948 0.950 . S
H940 C950 0.950 . S
H941 C952 0.950 . S
H942 C954 0.950 . S
H943 C955 0.950 . S
C944 H936 0.950 . S
C944 C945 1.386 . S
C944 C946 1.391 . S
C945 C944 1.386 . S
C945 C949 1.393 . S
C946 H938 0.950 . S
C946 C944 1.391 . S
C946 C947 1.400 . S
C947 C946 1.400 . S
C947 C948 1.398 . S
C947 C953 1.491 . S
C948 H939 0.950 . S
C948 C947 1.398 . S
C948 C949 1.391 . S
C949 H937 0.950 . S
C949 C945 1.393 . S
C949 C948 1.391 . S
C950 H940 0.950 . S
C950 C951 1.386 . S
C950 C952 1.391 . S
C951 C950 1.386 . S
C951 C955 1.393 . S
C952 H941 0.950 . S
C952 C950 1.391 . S
C952 C953 1.400 . S
C953 C947 1.491 . S
C953 C952 1.400 . S
C953 C954 1.398 . S
C954 H942 0.950 . S
C954 C953 1.398 . S
C954 C955 1.391 . S
C955 H943 0.950 . S
C955 C951 1.393 . S
C955 C954 1.391 . S
H956 C964 0.950 . S
H957 C969 0.950 . S
H958 C966 0.950 . S
H959 C968 0.950 . S
H960 C970 0.950 . S
H961 C972 0.950 . S
H962 C974 0.950 . S
H963 C975 0.950 . S
C964 H956 0.950 . S
C964 C965 1.386 . S
C964 C966 1.391 . S
C965 C964 1.386 . S
C965 C969 1.393 . S
C966 H958 0.950 . S
C966 C964 1.391 . S
C966 C967 1.400 . S
C967 C966 1.400 . S
C967 C968 1.398 . S
C967 C973 1.491 . S
C968 H959 0.950 . S
C968 C967 1.398 . S
C968 C969 1.391 . S
C969 H957 0.950 . S
C969 C965 1.393 . S
C969 C968 1.391 . S
C970 H960 0.950 . S
C970 C971 1.386 . S
C970 C972 1.391 1_556 S
C971 C970 1.386 . S
C971 C975 1.393 . S
C972 H961 0.950 . S
C972 C970 1.391 1_554 S
C972 C973 1.400 . S
C973 C967 1.491 . S
C973 C972 1.400 . S
C973 C974 1.398 . S
C974 H962 0.950 . S
C974 C973 1.398 . S
C974 C975 1.391 1_554 S
C975 H963 0.950 . S
C975 C971 1.393 . S
C975 C974 1.391 1_556 S
H976 C984 0.950 . S
H977 C989 0.950 . S
H978 C986 0.950 . S
H979 C988 0.950 . S
H980 C990 0.950 . S
H981 C992 0.950 . S
H982 C994 0.950 . S
H983 C995 0.950 . S
C984 H976 0.950 . S
C984 C985 1.386 . S
C984 C986 1.391 . S
C985 C984 1.386 . S
C985 C989 1.393 . S
C986 H978 0.950 . S
C986 C984 1.391 . S
C986 C987 1.400 . S
C987 C986 1.400 . S
C987 C988 1.398 . S
C987 C993 1.491 . S
C988 H979 0.950 . S
C988 C987 1.398 . S
C988 C989 1.391 . S
C989 H977 0.950 . S
C989 C985 1.393 . S
C989 C988 1.391 . S
C990 H980 0.950 . S
C990 C991 1.386 . S
C990 C992 1.391 . S
C991 C990 1.386 . S
C991 C995 1.393 . S
C992 H981 0.950 . S
C992 C990 1.391 . S
C992 C993 1.400 . S
C993 C987 1.491 . S
C993 C992 1.400 . S
C993 C994 1.398 . S
C994 H982 0.950 . S
C994 C993 1.398 . S
C994 C995 1.391 . S
C995 H983 0.950 . S
C995 C991 1.393 . S
C995 C994 1.391 . S
H996 C1004 0.950 . S
H997 C1009 0.950 . S
H998 C1006 0.950 . S
H999 C1008 0.950 . S
H1000 C1010 0.950 . S
H1001 C1012 0.950 . S
H1002 C1014 0.950 . S
H1003 C1015 0.950 . S
C1004 H996 0.950 . S
C1004 C1005 1.386 . S
C1004 C1006 1.391 . S
C1005 C1004 1.386 . S
C1005 C1009 1.393 . S
C1006 H998 0.950 . S
C1006 C1004 1.391 . S
C1006 C1007 1.400 . S
C1007 C1006 1.400 . S
C1007 C1008 1.398 . S
C1007 C1013 1.491 . S
C1008 H999 0.950 . S
C1008 C1007 1.398 . S
C1008 C1009 1.391 . S
C1009 H997 0.950 . S
C1009 C1005 1.393 . S
C1009 C1008 1.391 . S
C1010 H1000 0.950 . S
C1010 C1011 1.386 . S
C1010 C1012 1.391 . S
C1011 C1010 1.386 . S
C1011 C1015 1.393 . S
C1012 H1001 0.950 . S
C1012 C1010 1.391 . S
C1012 C1013 1.400 . S
C1013 C1007 1.491 . S
C1013 C1012 1.400 . S
C1013 C1014 1.398 . S
C1014 H1002 0.950 . S
C1014 C1013 1.398 . S
C1014 C1015 1.391 . S
C1015 H1003 0.950 . S
C1015 C1011 1.393 . S
C1015 C1014 1.391 . S
H1016 C1024 0.950 . S
H1017 C1029 0.950 . S
H1018 C1026 0.950 . S
H1019 C1028 0.950 . S
H1020 C1030 0.950 . S
H1021 C1032 0.950 . S
H1022 C1034 0.950 . S
H1023 C1035 0.950 . S
C1024 H1016 0.950 . S
C1024 C1025 1.386 . S
C1024 C1026 1.391 . S
C1025 C1024 1.386 . S
C1025 C1029 1.393 . S
C1026 H1018 0.950 . S
C1026 C1024 1.391 . S
C1026 C1027 1.400 . S
C1027 C1026 1.400 . S
C1027 C1028 1.398 . S
C1027 C1033 1.491 . S
C1028 H1019 0.950 . S
C1028 C1027 1.398 . S
C1028 C1029 1.391 . S
C1029 H1017 0.950 . S
C1029 C1025 1.393 . S
C1029 C1028 1.391 . S
C1030 H1020 0.950 . S
C1030 C1031 1.386 . S
C1030 C1032 1.391 . S
C1031 C1030 1.386 . S
C1031 C1035 1.393 . S
C1032 H1021 0.950 . S
C1032 C1030 1.391 . S
C1032 C1033 1.400 . S
C1033 C1027 1.491 . S
C1033 C1032 1.400 . S
C1033 C1034 1.398 . S
C1034 H1022 0.950 . S
C1034 C1033 1.398 . S
C1034 C1035 1.391 . S
C1035 H1023 0.950 . S
C1035 C1031 1.393 . S
C1035 C1034 1.391 . S
H1036 C1044 0.950 . S
H1037 C1049 0.950 . S
H1038 C1046 0.950 . S
H1039 C1048 0.950 . S
H1040 C1050 0.950 . S
H1041 C1052 0.950 . S
H1042 C1054 0.950 . S
H1043 C1055 0.950 . S
C1044 H1036 0.950 . S
C1044 C1045 1.386 . S
C1044 C1046 1.391 . S
C1045 C1044 1.386 . S
C1045 C1049 1.393 . S
C1046 H1038 0.950 . S
C1046 C1044 1.391 . S
C1046 C1047 1.400 . S
C1047 C1046 1.400 . S
C1047 C1048 1.398 . S
C1047 C1053 1.491 . S
C1048 H1039 0.950 . S
C1048 C1047 1.398 . S
C1048 C1049 1.391 . S
C1049 H1037 0.950 . S
C1049 C1045 1.393 . S
C1049 C1048 1.391 . S
C1050 H1040 0.950 . S
C1050 C1051 1.386 . S
C1050 C1052 1.391 1_556 S
C1051 C1050 1.386 . S
C1051 C1055 1.393 . S
C1052 H1041 0.950 . S
C1052 C1050 1.391 1_554 S
C1052 C1053 1.400 . S
C1053 C1047 1.491 . S
C1053 C1052 1.400 . S
C1053 C1054 1.398 . S
C1054 H1042 0.950 . S
C1054 C1053 1.398 . S
C1054 C1055 1.391 1_554 S
C1055 H1043 0.950 . S
C1055 C1051 1.393 . S
C1055 C1054 1.391 1_556 S
H1056 C1064 0.950 . S
H1057 C1069 0.950 . S
H1058 C1066 0.950 . S
H1059 C1068 0.950 . S
H1060 C1070 0.950 . S
H1061 C1072 0.950 . S
H1062 C1074 0.950 . S
H1063 C1075 0.950 . S
C1064 H1056 0.950 . S
C1064 C1065 1.386 . S
C1064 C1066 1.391 . S
C1065 C1064 1.386 . S
C1065 C1069 1.393 . S
C1066 H1058 0.950 . S
C1066 C1064 1.391 . S
C1066 C1067 1.400 . S
C1067 C1066 1.400 . S
C1067 C1068 1.398 . S
C1067 C1073 1.491 . S
C1068 H1059 0.950 . S
C1068 C1067 1.398 . S
C1068 C1069 1.391 . S
C1069 H1057 0.950 . S
C1069 C1065 1.393 . S
C1069 C1068 1.391 . S
C1070 H1060 0.950 . S
C1070 C1071 1.386 . S
C1070 C1072 1.391 . S
C1071 C1070 1.386 . S
C1071 C1075 1.393 . S
C1072 H1061 0.950 . S
C1072 C1070 1.391 . S
C1072 C1073 1.400 . S
C1073 C1067 1.491 . S
C1073 C1072 1.400 . S
C1073 C1074 1.398 . S
C1074 H1062 0.950 . S
C1074 C1073 1.398 . S
C1074 C1075 1.391 . S
C1075 H1063 0.950 . S
C1075 C1071 1.393 . S
C1075 C1074 1.391 . S
H1076 C1084 0.950 . S
H1077 C1089 0.950 . S
H1078 C1086 0.950 . S
H1079 C1088 0.950 . S
H1080 C1090 0.950 . S
H1081 C1092 0.950 . S
H1082 C1094 0.950 . S
H1083 C1095 0.950 . S
C1084 H1076 0.950 . S
C1084 C1085 1.386 . S
C1084 C1086 1.391 . S
C1085 C1084 1.386 . S
C1085 C1089 1.393 . S
C1086 H1078 0.950 . S
C1086 C1084 1.391 . S
C1086 C1087 1.400 . S
C1087 C1086 1.400 . S
C1087 C1088 1.398 . S
C1087 C1093 1.491 1_455 S
C1088 H1079 0.950 . S
C1088 C1087 1.398 . S
C1088 C1089 1.391 . S
C1089 H1077 0.950 . S
C1089 C1085 1.393 . S
C1089 C1088 1.391 . S
C1090 H1080 0.950 . S
C1090 C1091 1.386 . S
C1090 C1092 1.391 . S
C1091 C1090 1.386 . S
C1091 C1095 1.393 . S
C1092 H1081 0.950 . S
C1092 C1090 1.391 . S
C1092 C1093 1.400 . S
C1093 C1087 1.491 1_655 S
C1093 C1092 1.400 . S
C1093 C1094 1.398 . S
C1094 H1082 0.950 . S
C1094 C1093 1.398 . S
C1094 C1095 1.391 . S
C1095 H1083 0.950 . S
C1095 C1091 1.393 . S
C1095 C1094 1.391 . S
H1096 C1104 0.950 . S
H1097 C1109 0.950 . S
H1098 C1106 0.950 . S
H1099 C1108 0.950 . S
H1100 C1110 0.950 . S
H1101 C1112 0.950 . S
H1102 C1114 0.950 . S
H1103 C1115 0.950 . S
C1104 H1096 0.950 . S
C1104 C1105 1.386 . S
C1104 C1106 1.391 . S
C1105 C1104 1.386 . S
C1105 C1109 1.393 . S
C1106 H1098 0.950 . S
C1106 C1104 1.391 . S
C1106 C1107 1.400 . S
C1107 C1106 1.400 . S
C1107 C1108 1.398 . S
C1107 C1113 1.491 . S
C1108 H1099 0.950 . S
C1108 C1107 1.398 . S
C1108 C1109 1.391 . S
C1109 H1097 0.950 . S
C1109 C1105 1.393 . S
C1109 C1108 1.391 . S
C1110 H1100 0.950 . S
C1110 C1111 1.386 . S
C1110 C1112 1.391 . S
C1111 C1110 1.386 . S
C1111 C1115 1.393 . S
C1112 H1101 0.950 . S
C1112 C1110 1.391 . S
C1112 C1113 1.400 . S
C1113 C1107 1.491 . S
C1113 C1112 1.400 . S
C1113 C1114 1.398 . S
C1114 H1102 0.950 . S
C1114 C1113 1.398 . S
C1114 C1115 1.391 . S
C1115 H1103 0.950 . S
C1115 C1111 1.393 . S
C1115 C1114 1.391 . S
H1116 C1124 0.950 . S
H1117 C1129 0.950 . S
H1118 C1126 0.950 . S
H1119 C1128 0.950 . S
H1120 C1130 0.950 . S
H1121 C1132 0.950 . S
H1122 C1134 0.950 . S
H1123 C1135 0.950 . S
C1124 H1116 0.950 . S
C1124 C1125 1.386 . S
C1124 C1126 1.391 . S
C1125 C1124 1.386 . S
C1125 C1129 1.393 . S
C1126 H1118 0.950 . S
C1126 C1124 1.391 . S
C1126 C1127 1.400 . S
C1127 C1126 1.400 . S
C1127 C1128 1.398 . S
C1127 C1133 1.491 . S
C1128 H1119 0.950 . S
C1128 C1127 1.398 . S
C1128 C1129 1.391 . S
C1129 H1117 0.950 . S
C1129 C1125 1.393 . S
C1129 C1128 1.391 . S
C1130 H1120 0.950 . S
C1130 C1131 1.386 . S
C1130 C1132 1.391 . S
C1131 C1130 1.386 . S
C1131 C1135 1.393 . S
C1132 H1121 0.950 . S
C1132 C1130 1.391 . S
C1132 C1133 1.400 . S
C1133 C1127 1.491 . S
C1133 C1132 1.400 . S
C1133 C1134 1.398 . S
C1134 H1122 0.950 . S
C1134 C1133 1.398 . S
C1134 C1135 1.391 . S
C1135 H1123 0.950 . S
C1135 C1131 1.393 . S
C1135 C1134 1.391 . S
H1136 C1144 0.950 . S
H1137 C1149 0.950 . S
H1138 C1146 0.950 . S
H1139 C1148 0.950 . S
H1140 C1150 0.950 . S
H1141 C1152 0.950 . S
H1142 C1154 0.950 . S
H1143 C1155 0.950 . S
C1144 H1136 0.950 . S
C1144 C1145 1.386 . S
C1144 C1146 1.391 . S
C1145 C1144 1.386 . S
C1145 C1149 1.393 . S
C1146 H1138 0.950 . S
C1146 C1144 1.391 . S
C1146 C1147 1.400 . S
C1147 C1146 1.400 . S
C1147 C1148 1.398 . S
C1147 C1153 1.491 . S
C1148 H1139 0.950 . S
C1148 C1147 1.398 . S
C1148 C1149 1.391 . S
C1149 H1137 0.950 . S
C1149 C1145 1.393 . S
C1149 C1148 1.391 . S
C1150 H1140 0.950 . S
C1150 C1151 1.386 . S
C1150 C1152 1.391 . S
C1151 C1150 1.386 . S
C1151 C1155 1.393 . S
C1152 H1141 0.950 . S
C1152 C1150 1.391 . S
C1152 C1153 1.400 . S
C1153 C1147 1.491 . S
C1153 C1152 1.400 . S
C1153 C1154 1.398 . S
C1154 H1142 0.950 . S
C1154 C1153 1.398 . S
C1154 C1155 1.391 . S
C1155 H1143 0.950 . S
C1155 C1151 1.393 . S
C1155 C1154 1.391 . S
H1156 C1164 0.950 . S
H1157 C1169 0.950 . S
H1158 C1166 0.950 . S
H1159 C1168 0.950 . S
H1160 C1170 0.950 . S
H1161 C1172 0.950 . S
H1162 C1174 0.950 . S
H1163 C1175 0.950 . S
C1164 H1156 0.950 . S
C1164 C1165 1.386 . S
C1164 C1166 1.391 . S
C1165 C1164 1.386 . S
C1165 C1169 1.393 . S
C1166 H1158 0.950 . S
C1166 C1164 1.391 . S
C1166 C1167 1.400 . S
C1167 C1166 1.400 . S
C1167 C1168 1.398 . S
C1167 C1173 1.491 . S
C1168 H1159 0.950 . S
C1168 C1167 1.398 . S
C1168 C1169 1.391 . S
C1169 H1157 0.950 . S
C1169 C1165 1.393 . S
C1169 C1168 1.391 . S
C1170 H1160 0.950 . S
C1170 C1171 1.386 . S
C1170 C1172 1.391 . S
C1171 C1170 1.386 . S
C1171 C1175 1.393 . S
C1172 H1161 0.950 . S
C1172 C1170 1.391 . S
C1172 C1173 1.400 . S
C1173 C1167 1.491 . S
C1173 C1172 1.400 . S
C1173 C1174 1.398 . S
C1174 H1162 0.950 . S
C1174 C1173 1.398 . S
C1174 C1175 1.391 . S
C1175 H1163 0.950 . S
C1175 C1171 1.393 . S
C1175 C1174 1.391 . S
H1176 C1184 0.950 . S
H1177 C1189 0.950 . S
H1178 C1186 0.950 . S
H1179 C1188 0.950 . S
H1180 C1190 0.950 . S
H1181 C1192 0.950 . S
H1182 C1194 0.950 . S
H1183 C1195 0.950 . S
C1184 H1176 0.950 . S
C1184 C1185 1.386 . S
C1184 C1186 1.391 . S
C1185 C1184 1.386 . S
C1185 C1189 1.393 . S
C1186 H1178 0.950 . S
C1186 C1184 1.391 . S
C1186 C1187 1.400 . S
C1187 C1186 1.400 . S
C1187 C1188 1.398 . S
C1187 C1193 1.491 . S
C1188 H1179 0.950 . S
C1188 C1187 1.398 . S
C1188 C1189 1.391 . S
C1189 H1177 0.950 . S
C1189 C1185 1.393 . S
C1189 C1188 1.391 . S
C1190 H1180 0.950 . S
C1190 C1191 1.386 . S
C1190 C1192 1.391 . S
C1191 C1190 1.386 . S
C1191 C1195 1.393 . S
C1192 H1181 0.950 . S
C1192 C1190 1.391 . S
C1192 C1193 1.400 . S
C1193 C1187 1.491 . S
C1193 C1192 1.400 . S
C1193 C1194 1.398 . S
C1194 H1182 0.950 . S
C1194 C1193 1.398 . S
C1194 C1195 1.391 . S
C1195 H1183 0.950 . S
C1195 C1191 1.393 . S
C1195 C1194 1.391 . S
H1196 C1204 0.950 . S
H1197 C1209 0.950 . S
H1198 C1206 0.950 . S
H1199 C1208 0.950 . S
H1200 C1210 0.950 . S
H1201 C1212 0.950 . S
H1202 C1214 0.950 . S
H1203 C1215 0.950 . S
C1204 H1196 0.950 . S
C1204 C1205 1.386 . S
C1204 C1206 1.391 . S
C1205 C1204 1.386 . S
C1205 C1209 1.393 . S
C1206 H1198 0.950 . S
C1206 C1204 1.391 . S
C1206 C1207 1.400 . S
C1207 C1206 1.400 . S
C1207 C1208 1.398 . S
C1207 C1213 1.491 1_655 S
C1208 H1199 0.950 . S
C1208 C1207 1.398 . S
C1208 C1209 1.391 . S
C1209 H1197 0.950 . S
C1209 C1205 1.393 . S
C1209 C1208 1.391 . S
C1210 H1200 0.950 . S
C1210 C1211 1.386 . S
C1210 C1212 1.391 . S
C1211 C1210 1.386 . S
C1211 C1215 1.393 . S
C1212 H1201 0.950 . S
C1212 C1210 1.391 . S
C1212 C1213 1.400 . S
C1213 C1207 1.491 1_455 S
C1213 C1212 1.400 . S
C1213 C1214 1.398 . S
C1214 H1202 0.950 . S
C1214 C1213 1.398 . S
C1214 C1215 1.391 . S
C1215 H1203 0.950 . S
C1215 C1211 1.393 . S
C1215 C1214 1.391 . S
H1216 C1224 0.950 . S
H1217 C1229 0.950 . S
H1218 C1226 0.950 . S
H1219 C1228 0.950 . S
H1220 C1230 0.950 . S
H1221 C1232 0.950 . S
H1222 C1234 0.950 . S
H1223 C1235 0.950 . S
C1224 H1216 0.950 . S
C1224 C1225 1.386 . S
C1224 C1226 1.391 . S
C1225 C1224 1.386 . S
C1225 C1229 1.393 . S
C1226 H1218 0.950 . S
C1226 C1224 1.391 . S
C1226 C1227 1.400 . S
C1227 C1226 1.400 . S
C1227 C1228 1.398 . S
C1227 C1233 1.491 . S
C1228 H1219 0.950 . S
C1228 C1227 1.398 . S
C1228 C1229 1.391 . S
C1229 H1217 0.950 . S
C1229 C1225 1.393 . S
C1229 C1228 1.391 . S
C1230 H1220 0.950 . S
C1230 C1231 1.386 . S
C1230 C1232 1.391 . S
C1231 C1230 1.386 . S
C1231 C1235 1.393 . S
C1232 H1221 0.950 . S
C1232 C1230 1.391 . S
C1232 C1233 1.400 . S
C1233 C1227 1.491 . S
C1233 C1232 1.400 . S
C1233 C1234 1.398 . S
C1234 H1222 0.950 . S
C1234 C1233 1.398 . S
C1234 C1235 1.391 . S
C1235 H1223 0.950 . S
C1235 C1231 1.393 . S
C1235 C1234 1.391 . S
H1236 C1244 0.950 . S
H1237 C1249 0.950 . S
H1238 C1246 0.950 . S
H1239 C1248 0.950 . S
H1240 C1250 0.950 . S
H1241 C1252 0.950 . S
H1242 C1254 0.950 . S
H1243 C1255 0.950 . S
C1244 H1236 0.950 . S
C1244 C1245 1.386 . S
C1244 C1246 1.391 . S
C1245 C1244 1.386 . S
C1245 C1249 1.393 . S
C1246 H1238 0.950 . S
C1246 C1244 1.391 . S
C1246 C1247 1.400 . S
C1247 C1246 1.400 . S
C1247 C1248 1.398 . S
C1247 C1253 1.491 . S
C1248 H1239 0.950 . S
C1248 C1247 1.398 . S
C1248 C1249 1.391 . S
C1249 H1237 0.950 . S
C1249 C1245 1.393 . S
C1249 C1248 1.391 . S
C1250 H1240 0.950 . S
C1250 C1251 1.386 . S
C1250 C1252 1.391 . S
C1251 C1250 1.386 . S
C1251 C1255 1.393 . S
C1252 H1241 0.950 . S
C1252 C1250 1.391 . S
C1252 C1253 1.400 . S
C1253 C1247 1.491 . S
C1253 C1252 1.400 . S
C1253 C1254 1.398 . S
C1254 H1242 0.950 . S
C1254 C1253 1.398 . S
C1254 C1255 1.391 . S
C1255 H1243 0.950 . S
C1255 C1251 1.393 . S
C1255 C1254 1.391 . S
H1256 C1264 0.950 . S
H1257 C1269 0.950 . S
H1258 C1266 0.950 . S
H1259 C1268 0.950 . S
H1260 C1270 0.950 . S
H1261 C1272 0.950 . S
H1262 C1274 0.950 . S
H1263 C1275 0.950 . S
C1264 H1256 0.950 . S
C1264 C1265 1.386 . S
C1264 C1266 1.391 . S
C1265 C1264 1.386 . S
C1265 C1269 1.393 . S
C1266 H1258 0.950 . S
C1266 C1264 1.391 . S
C1266 C1267 1.400 . S
C1267 C1266 1.400 . S
C1267 C1268 1.398 . S
C1267 C1273 1.491 . S
C1268 H1259 0.950 . S
C1268 C1267 1.398 . S
C1268 C1269 1.391 . S
C1269 H1257 0.950 . S
C1269 C1265 1.393 . S
C1269 C1268 1.391 . S
C1270 H1260 0.950 . S
C1270 C1271 1.386 . S
C1270 C1272 1.391 . S
C1271 C1270 1.386 . S
C1271 C1275 1.393 . S
C1272 H1261 0.950 . S
C1272 C1270 1.391 . S
C1272 C1273 1.400 . S
C1273 C1267 1.491 . S
C1273 C1272 1.400 . S
C1273 C1274 1.398 . S
C1274 H1262 0.950 . S
C1274 C1273 1.398 . S
C1274 C1275 1.391 . S
C1275 H1263 0.950 . S
C1275 C1271 1.393 . S
C1275 C1274 1.391 . S
H1276 C1284 0.950 . S
H1277 C1289 0.950 . S
H1278 C1286 0.950 . S
H1279 C1288 0.950 . S
H1280 C1290 0.950 . S
H1281 C1292 0.950 . S
H1282 C1294 0.950 . S
H1283 C1295 0.950 . S
C1284 H1276 0.950 . S
C1284 C1285 1.386 . S
C1284 C1286 1.391 . S
C1285 C1284 1.386 . S
C1285 C1289 1.393 . S
C1286 H1278 0.950 . S
C1286 C1284 1.391 . S
C1286 C1287 1.400 . S
C1287 C1286 1.400 . S
C1287 C1288 1.398 . S
C1287 C1293 1.491 . S
C1288 H1279 0.950 . S
C1288 C1287 1.398 . S
C1288 C1289 1.391 . S
C1289 H1277 0.950 . S
C1289 C1285 1.393 . S
C1289 C1288 1.391 . S
C1290 H1280 0.950 . S
C1290 C1291 1.386 . S
C1290 C1292 1.391 . S
C1291 C1290 1.386 . S
C1291 C1295 1.393 . S
C1292 H1281 0.950 . S
C1292 C1290 1.391 . S
C1292 C1293 1.400 . S
C1293 C1287 1.491 . S
C1293 C1292 1.400 . S
C1293 C1294 1.398 . S
C1294 H1282 0.950 . S
C1294 C1293 1.398 . S
C1294 C1295 1.391 . S
C1295 H1283 0.950 . S
C1295 C1291 1.393 . S
C1295 C1294 1.391 . S
H1296 C1304 0.950 . S
H1297 C1309 0.950 . S
H1298 C1306 0.950 . S
H1299 C1308 0.950 . S
H1300 C1310 0.950 . S
H1301 C1312 0.950 . S
H1302 C1314 0.950 . S
H1303 C1315 0.950 . S
C1304 H1296 0.950 . S
C1304 C1305 1.386 . S
C1304 C1306 1.391 . S
C1305 C1304 1.386 . S
C1305 C1309 1.393 . S
C1306 H1298 0.950 . S
C1306 C1304 1.391 . S
C1306 C1307 1.400 . S
C1307 C1306 1.400 . S
C1307 C1308 1.398 . S
C1307 C1313 1.491 . S
C1308 H1299 0.950 . S
C1308 C1307 1.398 . S
C1308 C1309 1.391 . S
C1309 H1297 0.950 . S
C1309 C1305 1.393 . S
C1309 C1308 1.391 . S
C1310 H1300 0.950 . S
C1310 C1311 1.386 . S
C1310 C1312 1.391 . S
C1311 C1310 1.386 . S
C1311 C1315 1.393 . S
C1312 H1301 0.950 . S
C1312 C1310 1.391 . S
C1312 C1313 1.400 . S
C1313 C1307 1.491 . S
C1313 C1312 1.400 . S
C1313 C1314 1.398 . S
C1314 H1302 0.950 . S
C1314 C1313 1.398 . S
C1314 C1315 1.391 . S
C1315 H1303 0.950 . S
C1315 C1311 1.393 . S
C1315 C1314 1.391 . S
H1316 C1324 0.950 . S
H1317 C1329 0.950 . S
H1318 C1326 0.950 . S
H1319 C1328 0.950 . S
H1320 C1330 0.950 . S
H1321 C1332 0.950 . S
H1322 C1334 0.950 . S
H1323 C1335 0.950 . S
C1324 H1316 0.950 . S
C1324 C1325 1.386 . S
C1324 C1326 1.391 . S
C1325 C1324 1.386 . S
C1325 C1329 1.393 . S
C1326 H1318 0.950 . S
C1326 C1324 1.391 . S
C1326 C1327 1.400 . S
C1327 C1326 1.400 . S
C1327 C1328 1.398 . S
C1327 C1333 1.491 1_655 S
C1328 H1319 0.950 . S
C1328 C1327 1.398 . S
C1328 C1329 1.391 . S
C1329 H1317 0.950 . S
C1329 C1325 1.393 . S
C1329 C1328 1.391 . S
C1330 H1320 0.950 . S
C1330 C1331 1.386 . S
C1330 C1332 1.391 . S
C1331 C1330 1.386 . S
C1331 C1335 1.393 . S
C1332 H1321 0.950 . S
C1332 C1330 1.391 . S
C1332 C1333 1.400 . S
C1333 C1327 1.491 1_455 S
C1333 C1332 1.400 . S
C1333 C1334 1.398 . S
C1334 H1322 0.950 . S
C1334 C1333 1.398 . S
C1334 C1335 1.391 . S
C1335 H1323 0.950 . S
C1335 C1331 1.393 . S
C1335 C1334 1.391 . S
H1336 C1344 0.950 . S
H1337 C1349 0.950 . S
H1338 C1346 0.950 . S
H1339 C1348 0.950 . S
H1340 C1350 0.950 . S
H1341 C1352 0.950 . S
H1342 C1354 0.950 . S
H1343 C1355 0.950 . S
C1344 H1336 0.950 . S
C1344 C1345 1.386 . S
C1344 C1346 1.391 . S
C1345 C1344 1.386 . S
C1345 C1349 1.393 . S
C1346 H1338 0.950 . S
C1346 C1344 1.391 . S
C1346 C1347 1.400 . S
C1347 C1346 1.400 . S
C1347 C1348 1.398 . S
C1347 C1353 1.491 1_655 S
C1348 H1339 0.950 . S
C1348 C1347 1.398 . S
C1348 C1349 1.391 . S
C1349 H1337 0.950 . S
C1349 C1345 1.393 . S
C1349 C1348 1.391 . S
C1350 H1340 0.950 . S
C1350 C1351 1.386 . S
C1350 C1352 1.391 . S
C1351 C1350 1.386 . S
C1351 C1355 1.393 . S
C1352 H1341 0.950 . S
C1352 C1350 1.391 . S
C1352 C1353 1.400 . S
C1353 C1347 1.491 1_455 S
C1353 C1352 1.400 . S
C1353 C1354 1.398 . S
C1354 H1342 0.950 . S
C1354 C1353 1.398 . S
C1354 C1355 1.391 . S
C1355 H1343 0.950 . S
C1355 C1351 1.393 . S
C1355 C1354 1.391 . S
H1356 C1364 0.950 . S
H1357 C1369 0.950 . S
H1358 C1366 0.950 . S
H1359 C1368 0.950 . S
H1360 C1370 0.950 . S
H1361 C1372 0.950 . S
H1362 C1374 0.950 . S
H1363 C1375 0.950 . S
C1364 H1356 0.950 . S
C1364 C1365 1.386 . S
C1364 C1366 1.391 . S
C1365 C1364 1.386 . S
C1365 C1369 1.393 . S
C1366 H1358 0.950 . S
C1366 C1364 1.391 . S
C1366 C1367 1.400 . S
C1367 C1366 1.400 . S
C1367 C1368 1.398 . S
C1367 C1373 1.491 . S
C1368 H1359 0.950 . S
C1368 C1367 1.398 . S
C1368 C1369 1.391 . S
C1369 H1357 0.950 . S
C1369 C1365 1.393 . S
C1369 C1368 1.391 . S
C1370 H1360 0.950 . S
C1370 C1371 1.386 . S
C1370 C1372 1.391 . S
C1371 C1370 1.386 . S
C1371 C1375 1.393 . S
C1372 H1361 0.950 . S
C1372 C1370 1.391 . S
C1372 C1373 1.400 . S
C1373 C1367 1.491 . S
C1373 C1372 1.400 . S
C1373 C1374 1.398 . S
C1374 H1362 0.950 . S
C1374 C1373 1.398 . S
C1374 C1375 1.391 . S
C1375 H1363 0.950 . S
C1375 C1371 1.393 . S
C1375 C1374 1.391 . S
H1376 C1384 0.950 . S
H1377 C1389 0.950 . S
H1378 C1386 0.950 . S
H1379 C1388 0.950 . S
H1380 C1390 0.950 . S
H1381 C1392 0.950 . S
H1382 C1394 0.950 . S
H1383 C1395 0.950 . S
C1384 H1376 0.950 . S
C1384 C1385 1.386 . S
C1384 C1386 1.391 . S
C1385 C1384 1.386 . S
C1385 C1389 1.393 . S
C1386 H1378 0.950 . S
C1386 C1384 1.391 . S
C1386 C1387 1.400 . S
C1387 C1386 1.400 . S
C1387 C1388 1.398 . S
C1387 C1393 1.491 . S
C1388 H1379 0.950 . S
C1388 C1387 1.398 . S
C1388 C1389 1.391 . S
C1389 H1377 0.950 . S
C1389 C1385 1.393 . S
C1389 C1388 1.391 . S
C1390 H1380 0.950 . S
C1390 C1391 1.386 . S
C1390 C1392 1.391 . S
C1391 C1390 1.386 . S
C1391 C1395 1.393 . S
C1392 H1381 0.950 . S
C1392 C1390 1.391 . S
C1392 C1393 1.400 . S
C1393 C1387 1.491 . S
C1393 C1392 1.400 . S
C1393 C1394 1.398 . S
C1394 H1382 0.950 . S
C1394 C1393 1.398 . S
C1394 C1395 1.391 . S
C1395 H1383 0.950 . S
C1395 C1391 1.393 . S
C1395 C1394 1.391 . S
H1396 C1404 0.950 . S
H1397 C1409 0.950 . S
H1398 C1406 0.950 1_545 S
H1399 C1408 0.950 . S
H1400 C1410 0.950 . S
H1401 C1412 0.917 1_565 S
H1402 C1414 0.950 . S
H1403 C1415 0.950 . S
C1404 H1396 0.950 . S
C1404 C1405 1.386 . S
C1404 C1406 1.391 . S
C1405 C1404 1.386 . S
C1405 C1409 1.393 . S
C1406 H1398 0.950 1_565 S
C1406 C1404 1.391 . S
C1406 C1407 1.400 . S
C1407 C1406 1.400 . S
C1407 C1408 1.398 . S
C1407 C1413 1.491 1_565 S
C1408 H1399 0.950 . S
C1408 C1407 1.398 . S
C1408 C1409 1.391 . S
C1409 H1397 0.950 . S
C1409 C1405 1.393 . S
C1409 C1408 1.391 . S
C1410 H1400 0.950 . S
C1410 C1411 1.386 . S
C1410 C1412 1.418 . S
C1411 C1410 1.386 . S
C1411 C1415 1.393 . S
C1412 H1401 0.917 1_545 S
C1412 C1410 1.418 . S
C1412 C1413 1.411 . S
C1413 C1407 1.491 1_545 S
C1413 C1412 1.411 . S
C1413 C1414 1.398 . S
C1414 H1402 0.950 . S
C1414 C1413 1.398 . S
C1414 C1415 1.391 . S
C1415 H1403 0.950 . S
C1415 C1411 1.393 . S
C1415 C1414 1.391 . S
H1416 C1424 0.950 . S
H1417 C1429 0.950 . S
H1418 C1426 0.950 . S
H1419 C1428 0.950 . S
H1420 C1430 0.950 . S
H1421 C1432 0.950 . S
H1422 C1434 0.950 . S
H1423 C1435 0.950 . S
C1424 H1416 0.950 . S
C1424 C1425 1.386 . S
C1424 C1426 1.391 . S
C1425 C1424 1.386 . S
C1425 C1429 1.393 . S
C1426 H1418 0.950 . S
C1426 C1424 1.391 . S
C1426 C1427 1.400 . S
C1427 C1426 1.400 . S
C1427 C1428 1.398 . S
C1427 C1433 1.491 . S
C1428 H1419 0.950 . S
C1428 C1427 1.398 . S
C1428 C1429 1.391 . S
C1429 H1417 0.950 . S
C1429 C1425 1.393 . S
C1429 C1428 1.391 . S
C1430 H1420 0.950 . S
C1430 C1431 1.386 . S
C1430 C1432 1.391 . S
C1431 C1430 1.386 . S
C1431 C1435 1.393 . S
C1432 H1421 0.950 . S
C1432 C1430 1.391 . S
C1432 C1433 1.400 . S
C1433 C1427 1.491 . S
C1433 C1432 1.400 . S
C1433 C1434 1.398 . S
C1434 H1422 0.950 . S
C1434 C1433 1.398 . S
C1434 C1435 1.391 . S
C1435 H1423 0.950 . S
C1435 C1431 1.393 . S
C1435 C1434 1.391 . S
H1436 C1444 0.950 . S
H1437 C1449 0.950 . S
H1438 C1446 0.950 . S
H1439 C1448 0.950 . S
H1440 C1450 0.950 . S
H1441 C1452 0.950 . S
H1442 C1454 0.950 . S
H1443 C1455 0.950 . S
C1444 H1436 0.950 . S
C1444 C1445 1.386 . S
C1444 C1446 1.391 1_556 S
C1445 C1444 1.386 . S
C1445 C1449 1.393 1_545 S
C1446 H1438 0.950 . S
C1446 C1444 1.391 1_554 S
C1446 C1447 1.400 . S
C1447 C1446 1.400 . S
C1447 C1448 1.398 1_545 S
C1447 C1453 1.491 1_545 S
C1448 H1439 0.950 . S
C1448 C1447 1.398 1_565 S
C1448 C1449 1.391 1_554 S
C1449 H1437 0.950 . S
C1449 C1445 1.393 1_565 S
C1449 C1448 1.391 1_556 S
C1450 H1440 0.950 . S
C1450 C1451 1.386 . S
C1450 C1452 1.391 . S
C1451 C1450 1.386 . S
C1451 C1455 1.393 1_565 S
C1452 H1441 0.950 . S
C1452 C1450 1.391 . S
C1452 C1453 1.400 . S
C1453 C1447 1.491 1_565 S
C1453 C1452 1.400 . S
C1453 C1454 1.398 1_565 S
C1454 H1442 0.950 . S
C1454 C1453 1.398 1_545 S
C1454 C1455 1.391 . S
C1455 H1443 0.950 . S
C1455 C1451 1.393 1_545 S
C1455 C1454 1.391 . S
H1456 C1464 0.950 . S
H1457 C1469 0.950 . S
H1458 C1466 0.950 . S
H1459 C1468 0.950 . S
H1460 C1470 0.950 . S
H1461 C1472 0.950 . S
H1462 C1474 0.950 . S
H1463 C1475 0.950 . S
C1464 H1456 0.950 . S
C1464 C1465 1.386 . S
C1464 C1466 1.391 . S
C1465 C1464 1.386 . S
C1465 C1469 1.393 . S
C1466 H1458 0.950 . S
C1466 C1464 1.391 . S
C1466 C1467 1.400 . S
C1467 C1466 1.400 . S
C1467 C1468 1.398 . S
C1467 C1473 1.491 . S
C1468 H1459 0.950 . S
C1468 C1467 1.398 . S
C1468 C1469 1.391 . S
C1469 H1457 0.950 . S
C1469 C1465 1.393 . S
C1469 C1468 1.391 . S
C1470 H1460 0.950 . S
C1470 C1471 1.386 . S
C1470 C1472 1.391 . S
C1471 C1470 1.386 . S
C1471 C1475 1.393 . S
C1472 H1461 0.950 . S
C1472 C1470 1.391 . S
C1472 C1473 1.400 . S
C1473 C1467 1.491 . S
C1473 C1472 1.400 . S
C1473 C1474 1.398 . S
C1474 H1462 0.950 . S
C1474 C1473 1.398 . S
C1474 C1475 1.391 . S
C1475 H1463 0.950 . S
C1475 C1471 1.393 . S
C1475 C1474 1.391 . S
H1476 C1484 0.950 . S
H1477 C1489 0.950 . S
H1478 C1486 0.950 . S
H1479 C1488 0.950 . S
H1480 C1490 0.950 . S
H1481 C1492 0.950 . S
H1482 C1494 0.950 . S
H1483 C1495 0.950 . S
C1484 H1476 0.950 . S
C1484 C1485 1.386 . S
C1484 C1486 1.391 . S
C1485 C1484 1.386 . S
C1485 C1489 1.393 1_545 S
C1486 H1478 0.950 . S
C1486 C1484 1.391 . S
C1486 C1487 1.400 . S
C1487 C1486 1.400 . S
C1487 C1488 1.398 1_545 S
C1487 C1493 1.491 1_545 S
C1488 H1479 0.950 . S
C1488 C1487 1.398 1_565 S
C1488 C1489 1.391 . S
C1489 H1477 0.950 . S
C1489 C1485 1.393 1_565 S
C1489 C1488 1.391 . S
C1490 H1480 0.950 . S
C1490 C1491 1.386 . S
C1490 C1492 1.391 . S
C1491 C1490 1.386 . S
C1491 C1495 1.393 1_565 S
C1492 H1481 0.950 . S
C1492 C1490 1.391 . S
C1492 C1493 1.400 . S
C1493 C1487 1.491 1_565 S
C1493 C1492 1.400 . S
C1493 C1494 1.398 1_565 S
C1494 H1482 0.950 . S
C1494 C1493 1.398 1_545 S
C1494 C1495 1.391 . S
C1495 H1483 0.950 . S
C1495 C1491 1.393 1_545 S
C1495 C1494 1.391 . S
H1496 C1504 0.950 . S
H1497 C1509 0.950 . S
H1498 C1506 0.950 . S
H1499 C1508 0.950 . S
H1500 C1510 0.950 . S
H1501 C1512 0.950 . S
H1502 C1514 0.950 . S
H1503 C1515 0.950 . S
C1504 H1496 0.950 . S
C1504 C1505 1.386 . S
C1504 C1506 1.391 . S
C1505 C1504 1.386 . S
C1505 C1509 1.393 . S
C1506 H1498 0.950 . S
C1506 C1504 1.391 . S
C1506 C1507 1.400 . S
C1507 C1506 1.400 . S
C1507 C1508 1.398 . S
C1507 C1513 1.491 . S
C1508 H1499 0.950 . S
C1508 C1507 1.398 . S
C1508 C1509 1.391 . S
C1509 H1497 0.950 . S
C1509 C1505 1.393 . S
C1509 C1508 1.391 . S
C1510 H1500 0.950 . S
C1510 C1511 1.386 . S
C1510 C1512 1.391 . S
C1511 C1510 1.386 . S
C1511 C1515 1.393 . S
C1512 H1501 0.950 . S
C1512 C1510 1.391 . S
C1512 C1513 1.400 . S
C1513 C1507 1.491 . S
C1513 C1512 1.400 . S
C1513 C1514 1.398 . S
C1514 H1502 0.950 . S
C1514 C1513 1.398 . S
C1514 C1515 1.391 . S
C1515 H1503 0.950 . S
C1515 C1511 1.393 . S
C1515 C1514 1.391 . S
H1516 C1524 0.950 1_545 S
H1517 C1529 0.950 . S
H1518 C1526 0.950 . S
H1519 C1528 0.950 . S
H1520 C1530 0.950 1_565 S
H1521 C1532 0.950 . S
H1522 C1534 0.950 . S
H1523 C1535 0.950 . S
C1524 H1516 0.950 1_565 S
C1524 C1525 1.386 . S
C1524 C1526 1.391 1_565 S
C1525 C1524 1.386 . S
C1525 C1529 1.393 . S
C1526 H1518 0.950 . S
C1526 C1524 1.391 1_545 S
C1526 C1527 1.400 1_545 S
C1527 C1526 1.400 1_565 S
C1527 C1528 1.398 . S
C1527 C1533 1.491 1_565 S
C1528 H1519 0.950 . S
C1528 C1527 1.398 . S
C1528 C1529 1.391 . S
C1529 H1517 0.950 . S
C1529 C1525 1.393 . S
C1529 C1528 1.391 . S
C1530 H1520 0.950 1_545 S
C1530 C1531 1.386 . S
C1530 C1532 1.391 1_546 S
C1531 C1530 1.386 . S
C1531 C1535 1.393 . S
C1532 H1521 0.950 . S
C1532 C1530 1.391 1_564 S
C1532 C1533 1.400 1_565 S
C1533 C1527 1.491 1_545 S
C1533 C1532 1.400 1_545 S
C1533 C1534 1.398 . S
C1534 H1522 0.950 . S
C1534 C1533 1.398 . S
C1534 C1535 1.391 1_554 S
C1535 H1523 0.950 . S
C1535 C1531 1.393 . S
C1535 C1534 1.391 1_556 S
H1536 C1544 0.950 . S
H1537 C1549 0.950 . S
H1538 C1546 0.950 . S
H1539 C1548 0.950 . S
H1540 C1550 0.950 . S
H1541 C1552 0.950 . S
H1542 C1554 0.950 . S
H1543 C1555 0.950 . S
C1544 H1536 0.950 . S
C1544 C1545 1.386 . S
C1544 C1546 1.391 . S
C1545 C1544 1.386 . S
C1545 C1549 1.393 . S
C1546 H1538 0.950 . S
C1546 C1544 1.391 . S
C1546 C1547 1.400 . S
C1547 C1546 1.400 . S
C1547 C1548 1.398 . S
C1547 C1553 1.491 . S
C1548 H1539 0.950 . S
C1548 C1547 1.398 . S
C1548 C1549 1.391 . S
C1549 H1537 0.950 . S
C1549 C1545 1.393 . S
C1549 C1548 1.391 . S
C1550 H1540 0.950 . S
C1550 C1551 1.386 . S
C1550 C1552 1.391 . S
C1551 C1550 1.386 . S
C1551 C1555 1.393 . S
C1552 H1541 0.950 . S
C1552 C1550 1.391 . S
C1552 C1553 1.400 . S
C1553 C1547 1.491 . S
C1553 C1552 1.400 . S
C1553 C1554 1.398 . S
C1554 H1542 0.950 . S
C1554 C1553 1.398 . S
C1554 C1555 1.391 . S
C1555 H1543 0.950 . S
C1555 C1551 1.393 . S
C1555 C1554 1.391 . S
H1556 C1564 0.950 . S
H1557 C1569 0.950 . S
H1558 C1566 0.950 . S
H1559 C1568 0.950 . S
H1560 C1570 0.950 . S
H1561 C1572 0.950 . S
H1562 C1574 0.950 . S
H1563 C1575 0.950 . S
C1564 H1556 0.950 . S
C1564 C1565 1.386 . S
C1564 C1566 1.391 . S
C1565 C1564 1.386 . S
C1565 C1569 1.393 . S
C1566 H1558 0.950 . S
C1566 C1564 1.391 . S
C1566 C1567 1.400 . S
C1567 C1566 1.400 . S
C1567 C1568 1.398 . S
C1567 C1573 1.491 . S
C1568 H1559 0.950 . S
C1568 C1567 1.398 . S
C1568 C1569 1.391 . S
C1569 H1557 0.950 . S
C1569 C1565 1.393 . S
C1569 C1568 1.391 . S
C1570 H1560 0.950 . S
C1570 C1571 1.386 . S
C1570 C1572 1.391 1_556 S
C1571 C1570 1.386 . S
C1571 C1575 1.393 . S
C1572 H1561 0.950 . S
C1572 C1570 1.391 1_554 S
C1572 C1573 1.400 . S
C1573 C1567 1.491 . S
C1573 C1572 1.400 . S
C1573 C1574 1.398 . S
C1574 H1562 0.950 . S
C1574 C1573 1.398 . S
C1574 C1575 1.391 1_554 S
C1575 H1563 0.950 . S
C1575 C1571 1.393 . S
C1575 C1574 1.391 1_556 S
H1576 C1584 0.950 . S
H1577 C1589 0.950 . S
H1578 C1586 0.950 . S
H1579 C1588 0.950 . S
H1580 C1590 0.950 . S
H1581 C1592 0.950 . S
H1582 C1594 0.950 . S
H1583 C1595 0.950 . S
C1584 H1576 0.950 . S
C1584 C1585 1.386 . S
C1584 C1586 1.391 . S
C1585 C1584 1.386 . S
C1585 C1589 1.393 . S
C1586 H1578 0.950 . S
C1586 C1584 1.391 . S
C1586 C1587 1.400 . S
C1587 C1586 1.400 . S
C1587 C1588 1.398 . S
C1587 C1593 1.491 . S
C1588 H1579 0.950 . S
C1588 C1587 1.398 . S
C1588 C1589 1.391 . S
C1589 H1577 0.950 . S
C1589 C1585 1.393 . S
C1589 C1588 1.391 . S
C1590 H1580 0.950 . S
C1590 C1591 1.386 . S
C1590 C1592 1.391 . S
C1591 C1590 1.386 . S
C1591 C1595 1.393 . S
C1592 H1581 0.950 . S
C1592 C1590 1.391 . S
C1592 C1593 1.400 . S
C1593 C1587 1.491 . S
C1593 C1592 1.400 . S
C1593 C1594 1.398 . S
C1594 H1582 0.950 . S
C1594 C1593 1.398 . S
C1594 C1595 1.391 . S
C1595 H1583 0.950 . S
C1595 C1591 1.393 . S
C1595 C1594 1.391 . S
H1596 C1604 0.950 . S
H1597 C1609 0.950 . S
H1598 C1606 0.950 . S
H1599 C1608 0.950 . S
H1600 C1610 0.950 . S
H1601 C1612 0.950 . S
H1602 C1614 0.950 . S
H1603 C1615 0.950 . S
C1604 H1596 0.950 . S
C1604 C1605 1.386 . S
C1604 C1606 1.391 . S
C1605 C1604 1.386 . S
C1605 C1609 1.393 . S
C1606 H1598 0.950 . S
C1606 C1604 1.391 . S
C1606 C1607 1.400 . S
C1607 C1606 1.400 . S
C1607 C1608 1.398 . S
C1607 C1613 1.491 . S
C1608 H1599 0.950 . S
C1608 C1607 1.398 . S
C1608 C1609 1.391 . S
C1609 H1597 0.950 . S
C1609 C1605 1.393 . S
C1609 C1608 1.391 . S
C1610 H1600 0.950 . S
C1610 C1611 1.386 . S
C1610 C1612 1.391 . S
C1611 C1610 1.386 . S
C1611 C1615 1.393 . S
C1612 H1601 0.950 . S
C1612 C1610 1.391 . S
C1612 C1613 1.400 . S
C1613 C1607 1.491 . S
C1613 C1612 1.400 . S
C1613 C1614 1.398 . S
C1614 H1602 0.950 . S
C1614 C1613 1.398 . S
C1614 C1615 1.391 . S
C1615 H1603 0.950 . S
C1615 C1611 1.393 . S
C1615 C1614 1.391 . S
H1616 C1624 0.950 . S
H1617 C1629 0.950 . S
H1618 C1626 0.950 . S
H1619 C1628 0.950 . S
H1620 C1630 0.950 . S
H1621 C1632 0.950 . S
H1622 C1634 0.950 . S
H1623 C1635 0.950 . S
C1624 H1616 0.950 . S
C1624 C1625 1.386 . S
C1624 C1626 1.391 . S
C1625 C1624 1.386 . S
C1625 C1629 1.393 . S
C1626 H1618 0.950 . S
C1626 C1624 1.391 . S
C1626 C1627 1.400 . S
C1627 C1626 1.400 . S
C1627 C1628 1.398 . S
C1627 C1633 1.491 . S
C1628 H1619 0.950 . S
C1628 C1627 1.398 . S
C1628 C1629 1.391 . S
C1629 H1617 0.950 . S
C1629 C1625 1.393 . S
C1629 C1628 1.391 . S
C1630 H1620 0.950 . S
C1630 C1631 1.386 . S
C1630 C1632 1.391 . S
C1631 C1630 1.386 . S
C1631 C1635 1.393 . S
C1632 H1621 0.950 . S
C1632 C1630 1.391 . S
C1632 C1633 1.400 . S
C1633 C1627 1.491 . S
C1633 C1632 1.400 . S
C1633 C1634 1.398 . S
C1634 H1622 0.950 . S
C1634 C1633 1.398 . S
C1634 C1635 1.391 . S
C1635 H1623 0.950 . S
C1635 C1631 1.393 . S
C1635 C1634 1.391 . S
H1636 C1644 0.950 . S
H1637 C1649 0.950 . S
H1638 C1646 0.950 . S
H1639 C1648 0.950 . S
H1640 C1650 0.950 . S
H1641 C1652 0.950 . S
H1642 C1654 0.950 . S
H1643 C1655 0.950 . S
C1644 H1636 0.950 . S
C1644 C1645 1.386 . S
C1644 C1646 1.391 1_556 S
C1645 C1644 1.386 . S
C1645 C1649 1.393 . S
C1646 H1638 0.950 . S
C1646 C1644 1.391 1_554 S
C1646 C1647 1.400 . S
C1647 C1646 1.400 . S
C1647 C1648 1.398 . S
C1647 C1653 1.491 . S
C1648 H1639 0.950 . S
C1648 C1647 1.398 . S
C1648 C1649 1.391 1_554 S
C1649 H1637 0.950 . S
C1649 C1645 1.393 . S
C1649 C1648 1.391 1_556 S
C1650 H1640 0.950 . S
C1650 C1651 1.386 . S
C1650 C1652 1.391 . S
C1651 C1650 1.386 . S
C1651 C1655 1.393 . S
C1652 H1641 0.950 . S
C1652 C1650 1.391 . S
C1652 C1653 1.400 . S
C1653 C1647 1.491 . S
C1653 C1652 1.400 . S
C1653 C1654 1.398 . S
C1654 H1642 0.950 . S
C1654 C1653 1.398 . S
C1654 C1655 1.391 . S
C1655 H1643 0.950 . S
C1655 C1651 1.393 . S
C1655 C1654 1.391 . S
H1656 C1664 0.950 . S
H1657 C1669 0.950 . S
H1658 C1666 0.950 . S
H1659 C1668 0.950 . S
H1660 C1670 0.950 . S
H1661 C1672 0.950 . S
H1662 C1674 0.950 . S
H1663 C1675 0.950 . S
C1664 H1656 0.950 . S
C1664 C1665 1.386 . S
C1664 C1666 1.391 . S
C1665 C1664 1.386 . S
C1665 C1669 1.393 . S
C1666 H1658 0.950 . S
C1666 C1664 1.391 . S
C1666 C1667 1.400 . S
C1667 C1666 1.400 . S
C1667 C1668 1.398 . S
C1667 C1673 1.491 . S
C1668 H1659 0.950 . S
C1668 C1667 1.398 . S
C1668 C1669 1.391 . S
C1669 H1657 0.950 . S
C1669 C1665 1.393 . S
C1669 C1668 1.391 . S
C1670 H1660 0.950 . S
C1670 C1671 1.386 . S
C1670 C1672 1.391 . S
C1671 C1670 1.386 . S
C1671 C1675 1.393 . S
C1672 H1661 0.950 . S
C1672 C1670 1.391 . S
C1672 C1673 1.400 . S
C1673 C1667 1.491 . S
C1673 C1672 1.400 . S
C1673 C1674 1.398 . S
C1674 H1662 0.950 . S
C1674 C1673 1.398 . S
C1674 C1675 1.391 . S
C1675 H1663 0.950 . S
C1675 C1671 1.393 . S
C1675 C1674 1.391 . S
H1676 C1684 0.950 . S
H1677 C1689 0.950 . S
H1678 C1686 0.950 . S
H1679 C1688 0.950 . S
H1680 C1690 0.950 . S
H1681 C1692 0.950 . S
H1682 C1694 0.950 . S
H1683 C1695 0.950 . S
C1684 H1676 0.950 . S
C1684 C1685 1.386 . S
C1684 C1686 1.391 . S
C1685 C1684 1.386 . S
C1685 C1689 1.393 . S
C1686 H1678 0.950 . S
C1686 C1684 1.391 . S
C1686 C1687 1.400 . S
C1687 C1686 1.400 . S
C1687 C1688 1.398 . S
C1687 C1693 1.491 . S
C1688 H1679 0.950 . S
C1688 C1687 1.398 . S
C1688 C1689 1.391 . S
C1689 H1677 0.950 . S
C1689 C1685 1.393 . S
C1689 C1688 1.391 . S
C1690 H1680 0.950 . S
C1690 C1691 1.386 . S
C1690 C1692 1.391 . S
C1691 C1690 1.386 . S
C1691 C1695 1.393 . S
C1692 H1681 0.950 . S
C1692 C1690 1.391 . S
C1692 C1693 1.400 . S
C1693 C1687 1.491 . S
C1693 C1692 1.400 . S
C1693 C1694 1.398 . S
C1694 H1682 0.950 . S
C1694 C1693 1.398 . S
C1694 C1695 1.391 . S
C1695 H1683 0.950 . S
C1695 C1691 1.393 . S
C1695 C1694 1.391 . S
C425 C101 1.605 . S
C431 C4 1.606 . S
C445 C17 1.593 . S
C451 C56 1.593 . S
C465 C75 1.601 . S
C471 C36 1.600 . S
C485 C43 1.594 . S
C491 C88 1.595 . S
C505 C108 1.596 . S
C511 C205 1.597 . S
C525 C121 1.599 . S
C531 C166 1.600 . S
C545 C134 1.595 . S
C551 C179 1.596 . S
C565 C147 1.608 . S
C571 C186 1.607 . S
C585 C218 1.610 . S
C591 C309 1.610 . S
C605 C225 1.608 . S
C611 C270 1.609 . S
C625 C283 1.606 . S
C631 C238 1.607 . S
C645 C296 1.593 . S
C651 C251 1.593 . S
C665 C316 1.595 . S
C671 C413 1.594 . S
C685 C368 1.601 . S
C691 C329 1.600 . S
C705 C387 1.609 . S
C711 C348 1.608 . S
C725 C355 1.601 . S
C731 C400 1.600 . S
C745 C10 0.848 . S
C751 C82 0.856 . S
C765 C23 0.860 . S
C771 C95 0.864 . S
C785 C62 0.847 . S
C791 C30 0.856 . S
C805 C49 0.864 . S
C811 C69 0.860 . S
C825 C114 0.848 . S
C831 C192 0.857 . S
C845 C127 0.846 . S
C851 C199 0.854 . S
C865 C160 0.846 . S
C871 C140 0.847 . S
C885 C173 0.845 . S
C891 C153 0.851 . S
C905 C212 0.850 . S
C911 C290 0.859 . S
C925 C303 0.855 . S
C931 C231 0.863 . S
C945 C264 0.845 . S
C951 C244 0.851 . S
C965 C257 0.847 . S
C971 C277 0.845 . S
C985 C322 0.864 . S
C991 C394 0.858 . S
C1005 C335 0.845 . S
C1011 C407 0.850 . S
C1025 C374 0.863 . S
C1031 C342 0.863 . S
C1045 C381 0.849 . S
C1051 C361 0.845 . S
C1065 C5 1.624 . S
C1071 C393 1.627 . S
C1085 C18 1.628 . S
C1091 C198 1.623 . S
C1105 C29 1.622 . S
C1111 C369 1.629 . S
C1125 C44 1.624 . S
C1131 C172 1.627 . S
C1145 C57 1.622 . S
C1151 C341 1.629 . S
C1165 C68 1.623 . S
C1171 C148 1.628 . S
C1185 C81 1.627 . S
C1191 C317 1.624 . S
C1205 C122 1.629 . S
C1211 C94 1.622 . S
C1225 C289 1.629 . S
C1231 C109 1.622 . S
C1245 C135 1.622 . S
C1251 C263 1.629 . S
C1265 C239 1.627 . S
C1271 C159 1.624 . S
C1285 C211 1.629 . S
C1291 C187 1.622 . S
C1305 C226 1.629 . S
C1311 C406 1.622 . S
C1325 C252 1.623 . S
C1331 C380 1.628 . S
C1345 C276 1.627 . S
C1351 C356 1.624 . S
C1365 C330 1.627 . S
C1371 C302 1.624 . S
C1385 C3 1.500 . S
C1391 C83 1.500 . S
C1405 C16 1.500 . S
C1411 C96 1.502 . S
C1425 C55 1.498 . S
C1431 C31 1.504 . S
C1445 C42 1.504 . S
C1451 C70 1.497 . S
C1465 C107 1.497 . S
C1471 C185 1.504 . S
C1485 C120 1.497 . S
C1491 C200 1.504 . S
C1505 C161 1.499 . S
C1511 C133 1.501 . S
C1525 C146 1.503 . S
C1531 C174 1.499 . S
C1545 C291 1.504 . S
C1551 C213 1.497 . S
C1565 C304 1.503 . S
C1571 C224 1.497 . S
C1585 C265 1.498 . S
C1591 C237 1.504 . S
C1605 C278 1.501 . S
C1611 C250 1.498 . S
C1625 C395 1.504 . S
C1631 C315 1.498 . S
C1645 C408 1.503 . S
C1651 C328 1.499 . S
C1665 C343 1.504 . S
C1671 C367 1.498 . S
C1685 C382 1.501 . S
C1691 C354 1.502 . S
