# Generated by pormake.
# Topology uky, (4)-cn, num edge types: 1
# Building blocks:
#     Node 0, Type 0, BuildingBlock: GALJAG_clean_sbu_0, # of connection points: 4
#     Node 1, Type 0, BuildingBlock: GALJAG_clean_sbu_0, # of connection points: 4
#     Node 2, Type 0, BuildingBlock: GALJAG_clean_sbu_0, # of connection points: 4
#     Node 3, Type 0, BuildingBlock: GALJAG_clean_sbu_0, # of connection points: 4
#     Node 4, Type 0, BuildingBlock: GALJAG_clean_sbu_0, # of connection points: 4
#     Node 5, Type 0, BuildingBlock: GALJAG_clean_sbu_0, # of connection points: 4
#     Node 6, Type 0, BuildingBlock: GALJAG_clean_sbu_0, # of connection points: 4
#     Node 7, Type 0, BuildingBlock: GALJAG_clean_sbu_0, # of connection points: 4
#     Node 8, Type 0, BuildingBlock: GALJAG_clean_sbu_0, # of connection points: 4
#     Node 9, Type 0, BuildingBlock: GALJAG_clean_sbu_0, # of connection points: 4
#     Node 10, Type 0, BuildingBlock: GALJAG_clean_sbu_0, # of connection points: 4
#     Node 11, Type 0, BuildingBlock: GALJAG_clean_sbu_0, # of connection points: 4
#     Node 12, Type 0, BuildingBlock: GALJAG_clean_sbu_0, # of connection points: 4
#     Node 13, Type 0, BuildingBlock: GALJAG_clean_sbu_0, # of connection points: 4
#     Node 14, Type 0, BuildingBlock: GALJAG_clean_sbu_0, # of connection points: 4
#     Node 15, Type 0, BuildingBlock: GALJAG_clean_sbu_0, # of connection points: 4
#     Node 16, Type 0, BuildingBlock: GALJAG_clean_sbu_0, # of connection points: 4
#     Node 17, Type 0, BuildingBlock: GALJAG_clean_sbu_0, # of connection points: 4
#     Node 18, Type 0, BuildingBlock: GALJAG_clean_sbu_0, # of connection points: 4
#     Node 19, Type 0, BuildingBlock: GALJAG_clean_sbu_0, # of connection points: 4
#     Node 20, Type 0, BuildingBlock: GALJAG_clean_sbu_0, # of connection points: 4
#     Node 21, Type 0, BuildingBlock: GALJAG_clean_sbu_0, # of connection points: 4
#     Node 22, Type 0, BuildingBlock: GALJAG_clean_sbu_0, # of connection points: 4
#     Node 23, Type 0, BuildingBlock: GALJAG_clean_sbu_0, # of connection points: 4
#     Node 24, Type 0, BuildingBlock: GALJAG_clean_sbu_0, # of connection points: 4
#     Node 25, Type 0, BuildingBlock: GALJAG_clean_sbu_0, # of connection points: 4
#     Node 26, Type 0, BuildingBlock: GALJAG_clean_sbu_0, # of connection points: 4
#     Node 27, Type 0, BuildingBlock: GALJAG_clean_sbu_0, # of connection points: 4
#     Node 28, Type 0, BuildingBlock: GALJAG_clean_sbu_0, # of connection points: 4
#     Node 29, Type 0, BuildingBlock: GALJAG_clean_sbu_0, # of connection points: 4
#     Node 30, Type 0, BuildingBlock: GALJAG_clean_sbu_0, # of connection points: 4
#     Node 31, Type 0, BuildingBlock: GALJAG_clean_sbu_0, # of connection points: 4
#     Node 32, Type 0, BuildingBlock: GALJAG_clean_sbu_0, # of connection points: 4
#     Node 33, Type 0, BuildingBlock: GALJAG_clean_sbu_0, # of connection points: 4
#     Node 34, Type 0, BuildingBlock: GALJAG_clean_sbu_0, # of connection points: 4
#     Node 35, Type 0, BuildingBlock: GALJAG_clean_sbu_0, # of connection points: 4
#     Node 36, Type 0, BuildingBlock: GALJAG_clean_sbu_0, # of connection points: 4
#     Node 37, Type 0, BuildingBlock: GALJAG_clean_sbu_0, # of connection points: 4
#     Node 38, Type 0, BuildingBlock: GALJAG_clean_sbu_0, # of connection points: 4
#     Node 39, Type 0, BuildingBlock: GALJAG_clean_sbu_0, # of connection points: 4
#     Node 40, Type 0, BuildingBlock: GALJAG_clean_sbu_0, # of connection points: 4
#     Node 41, Type 0, BuildingBlock: GALJAG_clean_sbu_0, # of connection points: 4
#     Node 42, Type 0, BuildingBlock: GALJAG_clean_sbu_0, # of connection points: 4
#     Node 43, Type 0, BuildingBlock: GALJAG_clean_sbu_0, # of connection points: 4
#     Node 44, Type 0, BuildingBlock: GALJAG_clean_sbu_0, # of connection points: 4
#     Node 45, Type 0, BuildingBlock: GALJAG_clean_sbu_0, # of connection points: 4
#     Node 46, Type 0, BuildingBlock: GALJAG_clean_sbu_0, # of connection points: 4
#     Node 47, Type 0, BuildingBlock: GALJAG_clean_sbu_0, # of connection points: 4
#     Edge 48, Type (0, 0), BuildingBlock: UVAHIK_clean_linker_0, # of connection points: 2
#     Edge 49, Type (0, 0), BuildingBlock: UVAHIK_clean_linker_0, # of connection points: 2
#     Edge 50, Type (0, 0), BuildingBlock: UVAHIK_clean_linker_0, # of connection points: 2
#     Edge 51, Type (0, 0), BuildingBlock: UVAHIK_clean_linker_0, # of connection points: 2
#     Edge 52, Type (0, 0), BuildingBlock: UVAHIK_clean_linker_0, # of connection points: 2
#     Edge 53, Type (0, 0), BuildingBlock: UVAHIK_clean_linker_0, # of connection points: 2
#     Edge 54, Type (0, 0), BuildingBlock: UVAHIK_clean_linker_0, # of connection points: 2
#     Edge 55, Type (0, 0), BuildingBlock: UVAHIK_clean_linker_0, # of connection points: 2
#     Edge 56, Type (0, 0), BuildingBlock: UVAHIK_clean_linker_0, # of connection points: 2
#     Edge 57, Type (0, 0), BuildingBlock: UVAHIK_clean_linker_0, # of connection points: 2
#     Edge 58, Type (0, 0), BuildingBlock: UVAHIK_clean_linker_0, # of connection points: 2
#     Edge 59, Type (0, 0), BuildingBlock: UVAHIK_clean_linker_0, # of connection points: 2
#     Edge 60, Type (0, 0), BuildingBlock: UVAHIK_clean_linker_0, # of connection points: 2
#     Edge 61, Type (0, 0), BuildingBlock: UVAHIK_clean_linker_0, # of connection points: 2
#     Edge 62, Type (0, 0), BuildingBlock: UVAHIK_clean_linker_0, # of connection points: 2
#     Edge 63, Type (0, 0), BuildingBlock: UVAHIK_clean_linker_0, # of connection points: 2
#     Edge 64, Type (0, 0), BuildingBlock: UVAHIK_clean_linker_0, # of connection points: 2
#     Edge 65, Type (0, 0), BuildingBlock: UVAHIK_clean_linker_0, # of connection points: 2
#     Edge 66, Type (0, 0), BuildingBlock: UVAHIK_clean_linker_0, # of connection points: 2
#     Edge 67, Type (0, 0), BuildingBlock: UVAHIK_clean_linker_0, # of connection points: 2
#     Edge 68, Type (0, 0), BuildingBlock: UVAHIK_clean_linker_0, # of connection points: 2
#     Edge 69, Type (0, 0), BuildingBlock: UVAHIK_clean_linker_0, # of connection points: 2
#     Edge 70, Type (0, 0), BuildingBlock: UVAHIK_clean_linker_0, # of connection points: 2
#     Edge 71, Type (0, 0), BuildingBlock: UVAHIK_clean_linker_0, # of connection points: 2
#     Edge 72, Type (0, 0), BuildingBlock: UVAHIK_clean_linker_0, # of connection points: 2
#     Edge 73, Type (0, 0), BuildingBlock: UVAHIK_clean_linker_0, # of connection points: 2
#     Edge 74, Type (0, 0), BuildingBlock: UVAHIK_clean_linker_0, # of connection points: 2
#     Edge 75, Type (0, 0), BuildingBlock: UVAHIK_clean_linker_0, # of connection points: 2
#     Edge 76, Type (0, 0), BuildingBlock: UVAHIK_clean_linker_0, # of connection points: 2
#     Edge 77, Type (0, 0), BuildingBlock: UVAHIK_clean_linker_0, # of connection points: 2
#     Edge 78, Type (0, 0), BuildingBlock: UVAHIK_clean_linker_0, # of connection points: 2
#     Edge 79, Type (0, 0), BuildingBlock: UVAHIK_clean_linker_0, # of connection points: 2
#     Edge 80, Type (0, 0), BuildingBlock: UVAHIK_clean_linker_0, # of connection points: 2
#     Edge 81, Type (0, 0), BuildingBlock: UVAHIK_clean_linker_0, # of connection points: 2
#     Edge 82, Type (0, 0), BuildingBlock: UVAHIK_clean_linker_0, # of connection points: 2
#     Edge 83, Type (0, 0), BuildingBlock: UVAHIK_clean_linker_0, # of connection points: 2
#     Edge 84, Type (0, 0), BuildingBlock: UVAHIK_clean_linker_0, # of connection points: 2
#     Edge 85, Type (0, 0), BuildingBlock: UVAHIK_clean_linker_0, # of connection points: 2
#     Edge 86, Type (0, 0), BuildingBlock: UVAHIK_clean_linker_0, # of connection points: 2
#     Edge 87, Type (0, 0), BuildingBlock: UVAHIK_clean_linker_0, # of connection points: 2
#     Edge 88, Type (0, 0), BuildingBlock: UVAHIK_clean_linker_0, # of connection points: 2
#     Edge 89, Type (0, 0), BuildingBlock: UVAHIK_clean_linker_0, # of connection points: 2
#     Edge 90, Type (0, 0), BuildingBlock: UVAHIK_clean_linker_0, # of connection points: 2
#     Edge 91, Type (0, 0), BuildingBlock: UVAHIK_clean_linker_0, # of connection points: 2
#     Edge 92, Type (0, 0), BuildingBlock: UVAHIK_clean_linker_0, # of connection points: 2
#     Edge 93, Type (0, 0), BuildingBlock: UVAHIK_clean_linker_0, # of connection points: 2
#     Edge 94, Type (0, 0), BuildingBlock: UVAHIK_clean_linker_0, # of connection points: 2
#     Edge 95, Type (0, 0), BuildingBlock: UVAHIK_clean_linker_0, # of connection points: 2
#     Edge 96, Type (0, 0), BuildingBlock: UVAHIK_clean_linker_0, # of connection points: 2
#     Edge 97, Type (0, 0), BuildingBlock: UVAHIK_clean_linker_0, # of connection points: 2
#     Edge 98, Type (0, 0), BuildingBlock: UVAHIK_clean_linker_0, # of connection points: 2
#     Edge 99, Type (0, 0), BuildingBlock: UVAHIK_clean_linker_0, # of connection points: 2
#     Edge 100, Type (0, 0), BuildingBlock: UVAHIK_clean_linker_0, # of connection points: 2
#     Edge 101, Type (0, 0), BuildingBlock: UVAHIK_clean_linker_0, # of connection points: 2
#     Edge 102, Type (0, 0), BuildingBlock: UVAHIK_clean_linker_0, # of connection points: 2
#     Edge 103, Type (0, 0), BuildingBlock: UVAHIK_clean_linker_0, # of connection points: 2
#     Edge 104, Type (0, 0), BuildingBlock: UVAHIK_clean_linker_0, # of connection points: 2
#     Edge 105, Type (0, 0), BuildingBlock: UVAHIK_clean_linker_0, # of connection points: 2
#     Edge 106, Type (0, 0), BuildingBlock: UVAHIK_clean_linker_0, # of connection points: 2
#     Edge 107, Type (0, 0), BuildingBlock: UVAHIK_clean_linker_0, # of connection points: 2
#     Edge 108, Type (0, 0), BuildingBlock: UVAHIK_clean_linker_0, # of connection points: 2
#     Edge 109, Type (0, 0), BuildingBlock: UVAHIK_clean_linker_0, # of connection points: 2
#     Edge 110, Type (0, 0), BuildingBlock: UVAHIK_clean_linker_0, # of connection points: 2
#     Edge 111, Type (0, 0), BuildingBlock: UVAHIK_clean_linker_0, # of connection points: 2
#     Edge 112, Type (0, 0), BuildingBlock: UVAHIK_clean_linker_0, # of connection points: 2
#     Edge 113, Type (0, 0), BuildingBlock: UVAHIK_clean_linker_0, # of connection points: 2
#     Edge 114, Type (0, 0), BuildingBlock: UVAHIK_clean_linker_0, # of connection points: 2
#     Edge 115, Type (0, 0), BuildingBlock: UVAHIK_clean_linker_0, # of connection points: 2
#     Edge 116, Type (0, 0), BuildingBlock: UVAHIK_clean_linker_0, # of connection points: 2
#     Edge 117, Type (0, 0), BuildingBlock: UVAHIK_clean_linker_0, # of connection points: 2
#     Edge 118, Type (0, 0), BuildingBlock: UVAHIK_clean_linker_0, # of connection points: 2
#     Edge 119, Type (0, 0), BuildingBlock: UVAHIK_clean_linker_0, # of connection points: 2
#     Edge 120, Type (0, 0), BuildingBlock: UVAHIK_clean_linker_0, # of connection points: 2
#     Edge 121, Type (0, 0), BuildingBlock: UVAHIK_clean_linker_0, # of connection points: 2
#     Edge 122, Type (0, 0), BuildingBlock: UVAHIK_clean_linker_0, # of connection points: 2
#     Edge 123, Type (0, 0), BuildingBlock: UVAHIK_clean_linker_0, # of connection points: 2
#     Edge 124, Type (0, 0), BuildingBlock: UVAHIK_clean_linker_0, # of connection points: 2
#     Edge 125, Type (0, 0), BuildingBlock: UVAHIK_clean_linker_0, # of connection points: 2
#     Edge 126, Type (0, 0), BuildingBlock: UVAHIK_clean_linker_0, # of connection points: 2
#     Edge 127, Type (0, 0), BuildingBlock: UVAHIK_clean_linker_0, # of connection points: 2
#     Edge 128, Type (0, 0), BuildingBlock: UVAHIK_clean_linker_0, # of connection points: 2
#     Edge 129, Type (0, 0), BuildingBlock: UVAHIK_clean_linker_0, # of connection points: 2
#     Edge 130, Type (0, 0), BuildingBlock: UVAHIK_clean_linker_0, # of connection points: 2
#     Edge 131, Type (0, 0), BuildingBlock: UVAHIK_clean_linker_0, # of connection points: 2
#     Edge 132, Type (0, 0), BuildingBlock: UVAHIK_clean_linker_0, # of connection points: 2
#     Edge 133, Type (0, 0), BuildingBlock: UVAHIK_clean_linker_0, # of connection points: 2
#     Edge 134, Type (0, 0), BuildingBlock: UVAHIK_clean_linker_0, # of connection points: 2
#     Edge 135, Type (0, 0), BuildingBlock: UVAHIK_clean_linker_0, # of connection points: 2
#     Edge 136, Type (0, 0), BuildingBlock: UVAHIK_clean_linker_0, # of connection points: 2
#     Edge 137, Type (0, 0), BuildingBlock: UVAHIK_clean_linker_0, # of connection points: 2
#     Edge 138, Type (0, 0), BuildingBlock: UVAHIK_clean_linker_0, # of connection points: 2
#     Edge 139, Type (0, 0), BuildingBlock: UVAHIK_clean_linker_0, # of connection points: 2
#     Edge 140, Type (0, 0), BuildingBlock: UVAHIK_clean_linker_0, # of connection points: 2
#     Edge 141, Type (0, 0), BuildingBlock: UVAHIK_clean_linker_0, # of connection points: 2
#     Edge 142, Type (0, 0), BuildingBlock: UVAHIK_clean_linker_0, # of connection points: 2
#     Edge 143, Type (0, 0), BuildingBlock: UVAHIK_clean_linker_0, # of connection points: 2
# Relax obj value: 0.129
# Max RMSD: 0.165
# Mean RMSD: 0.165
data_MOF--net-uky--node1-GALJAG_clean_sbu_0--edge1-UVAHIK_clean_linker_0
_symmetry_space_group_name_H-M    P1
_symmetry_Int_Tables_number       1
_symmetry_cell_setting            triclinic
loop_
_symmetry_equiv_pos_as_xyz
'x, y, z'
_cell_length_a     80.457727
_cell_length_b     80.462673
_cell_length_c     80.475419
_cell_angle_alpha  90.02186
_cell_angle_beta   90.014469
_cell_angle_gamma 90.006182
loop_
_atom_site_label
_atom_site_type_symbol
_atom_site_fract_x
_atom_site_fract_y
_atom_site_fract_z
_atom_type_partial_charge
In0 In 0.22483 0.1908 0.37258 0.0
O1 O 0.21413 0.1644 0.37234 0.0
O2 O 0.1985 0.18425 0.36481 0.0
C3 C 0.2545 0.18543 0.35773 0.0
C4 C 0.22888 0.19265 0.40589 0.0
C5 C 0.21266 0.21841 0.35814 0.0
O6 O 0.24193 0.1765 0.35502 0.0
O7 O 0.25225 0.19677 0.36829 0.0
O8 O 0.21016 0.21504 0.37327 0.0
O9 O 0.22125 0.20783 0.35035 0.0
C10 C 0.19999 0.16887 0.36725 0.0
O11 O 0.22978 0.20517 0.39655 0.0
O12 O 0.22624 0.17914 0.39843 0.0
In13 In 0.05162 0.98076 0.62788 0.0
O14 O 0.07428 0.96383 0.62467 0.0
O15 O 0.05213 0.95365 0.63498 0.0
C16 C 0.06027 0.00709 0.609 0.0
C17 C 0.05288 0.99075 0.65982 0.0
C18 C 0.02445 0.97063 0.61108 0.0
O19 O 0.06811 0.99352 0.60861 0.0
O20 O 0.04852 0.00753 0.61933 0.0
O21 O 0.02346 0.97751 0.62516 0.0
O22 O 0.03901 0.96913 0.60551 0.0
C23 C 0.06687 0.95115 0.63027 0.0
O24 O 0.03938 0.98858 0.65216 0.0
O25 O 0.06579 0.98812 0.6513 0.0
In26 In 0.26189 0.80082 0.8744 0.0
O27 O 0.25396 0.78952 0.89896 0.0
O28 O 0.25592 0.81585 0.89775 0.0
C29 C 0.26962 0.77196 0.85923 0.0
C30 C 0.29248 0.81398 0.87727 0.0
C31 C 0.2364 0.81137 0.85523 0.0
O32 O 0.2617 0.77247 0.87275 0.0
O33 O 0.27328 0.78597 0.85325 0.0
O34 O 0.25092 0.81712 0.85384 0.0
O35 O 0.23467 0.80079 0.86663 0.0
C36 C 0.25298 0.8032 0.90656 0.0
O37 O 0.28055 0.82215 0.8711 0.0
O38 O 0.28881 0.7995 0.88198 0.0
In39 In 0.44083 0.0163 0.12427 0.0
O40 O 0.41631 0.03054 0.12139 0.0
O41 O 0.4384 0.04418 0.12641 0.0
C42 C 0.43353 0.98872 0.10649 0.0
C43 C 0.43999 0.01036 0.15722 0.0
C44 C 0.46971 0.02471 0.10955 0.0
O45 O 0.42802 0.00289 0.10275 0.0
O46 O 0.44222 0.98837 0.1195 0.0
O47 O 0.46917 0.01708 0.12324 0.0
O48 O 0.45572 0.02789 0.10324 0.0
C49 C 0.42298 0.04457 0.12369 0.0
O50 O 0.45314 0.01403 0.14954 0.0
O51 O 0.42715 0.00946 0.14824 0.0
In52 In 0.22973 0.79964 0.11555 0.0
O53 O 0.2344 0.78756 0.09056 0.0
O54 O 0.24235 0.81262 0.09373 0.0
C55 C 0.21466 0.77272 0.12879 0.0
C56 C 0.2037 0.82054 0.11297 0.0
C57 C 0.25737 0.80383 0.13415 0.0
O58 O 0.22288 0.77209 0.11546 0.0
O59 O 0.21398 0.78692 0.13537 0.0
O60 O 0.24707 0.81542 0.13182 0.0
O61 O 0.25385 0.79043 0.12688 0.0
C62 C 0.24099 0.80026 0.08412 0.0
O63 O 0.21267 0.8201 0.12584 0.0
O64 O 0.20792 0.81059 0.10165 0.0
In65 In 0.44838 0.9794 0.36659 0.0
O66 O 0.42417 0.9651 0.37094 0.0
O67 O 0.44537 0.95179 0.3624 0.0
C68 C 0.44243 0.00661 0.38534 0.0
C69 C 0.44565 0.98732 0.33415 0.0
C70 C 0.47697 0.96927 0.3808 0.0
O71 O 0.43537 0.99286 0.3879 0.0
O72 O 0.45206 0.00677 0.373 0.0
O73 O 0.47669 0.97672 0.367 0.0
O74 O 0.46292 0.96712 0.38739 0.0
C75 C 0.43035 0.95126 0.36685 0.0
O76 O 0.45928 0.98344 0.34084 0.0
O77 O 0.43335 0.98741 0.34388 0.0
In78 In 0.25877 0.20159 0.6138 0.0
O79 O 0.27641 0.18094 0.62254 0.0
O80 O 0.28076 0.19229 0.59909 0.0
C81 C 0.2322 0.19616 0.6335 0.0
C82 C 0.24575 0.20175 0.58302 0.0
C83 C 0.27438 0.22806 0.62728 0.0
O84 O 0.24237 0.18479 0.62987 0.0
O85 O 0.23531 0.21003 0.62697 0.0
O86 O 0.26617 0.229 0.61396 0.0
O87 O 0.27459 0.21384 0.63382 0.0
C88 C 0.2854 0.18176 0.60971 0.0
O89 O 0.25169 0.21459 0.58981 0.0
O90 O 0.24595 0.18885 0.59196 0.0
In91 In 0.04948 0.01675 0.87016 0.0
O92 O 0.0392 0.02163 0.84418 0.0
O93 O 0.06166 0.00788 0.84618 0.0
C94 C 0.01947 0.02568 0.88191 0.0
C95 C 0.06996 0.04301 0.8744 0.0
C96 C 0.05514 0.98862 0.88778 0.0
O97 O 0.02101 0.01703 0.86889 0.0
O98 O 0.03295 0.02955 0.8889 0.0
O99 O 0.06209 0.00224 0.89111 0.0
O100 O 0.04572 0.98907 0.87531 0.0
C101 C 0.05079 0.01411 0.83676 0.0
O102 O 0.07487 0.02964 0.86784 0.0
O103 O 0.05495 0.04303 0.87875 0.0
In104 In 0.37486 0.22804 0.19385 0.0
O105 O 0.39926 0.23598 0.20585 0.0
O106 O 0.39891 0.23305 0.17963 0.0
C107 C 0.36002 0.21851 0.22231 0.0
C108 C 0.37306 0.19961 0.17621 0.0
C109 C 0.35699 0.25547 0.18667 0.0
O110 O 0.37564 0.21899 0.22079 0.0
O111 O 0.35204 0.2229 0.20956 0.0
O112 O 0.35483 0.24179 0.17933 0.0
O113 O 0.36864 0.25549 0.19716 0.0
C114 C 0.4073 0.23652 0.19241 0.0
O115 O 0.37106 0.21366 0.16953 0.0
O116 O 0.37613 0.20002 0.19156 0.0
In117 In 0.02229 0.12113 0.43835 0.0
O118 O 0.02855 0.14608 0.45027 0.0
O119 O 0.01477 0.14629 0.42775 0.0
C120 C 0.03182 0.10637 0.46679 0.0
C121 C 0.04747 0.11658 0.41665 0.0
C122 C 0.99257 0.10611 0.43353 0.0
O123 O 0.02478 0.12041 0.4667 0.0
O124 O 0.03377 0.09985 0.45266 0.0
O125 O 0.00545 0.10204 0.42563 0.0
O126 O 0.99457 0.11801 0.44346 0.0
C127 C 0.02142 0.15463 0.43923 0.0
O128 O 0.03393 0.1232 0.41232 0.0
O129 O 0.04819 0.1124 0.43169 0.0
In130 In 0.11505 0.76503 0.695 0.0
O131 O 0.1239 0.78105 0.67319 0.0
O132 O 0.10086 0.78699 0.68477 0.0
C133 C 0.13392 0.73763 0.69069 0.0
C134 C 0.08377 0.75325 0.69529 0.0
C135 C 0.12965 0.78096 0.72074 0.0
O136 O 0.13138 0.74791 0.67913 0.0
O137 O 0.12677 0.74108 0.70417 0.0
O138 O 0.117 0.77187 0.72255 0.0
O139 O 0.13485 0.78201 0.70601 0.0
C140 C 0.11136 0.79049 0.67368 0.0
O141 O 0.0903 0.76031 0.7077 0.0
O142 O 0.09317 0.75181 0.6828 0.0
In143 In 0.48152 0.8664 0.94556 0.0
O144 O 0.46424 0.87153 0.92353 0.0
O145 O 0.45719 0.85308 0.94111 0.0
C146 C 0.50733 0.88642 0.93778 0.0
C147 C 0.4942 0.83551 0.94402 0.0
C148 C 0.46898 0.88089 0.97316 0.0
O149 O 0.49398 0.88636 0.92956 0.0
O150 O 0.50774 0.87618 0.9496 0.0
O151 O 0.47734 0.86765 0.97364 0.0
O152 O 0.46702 0.88683 0.95882 0.0
C153 C 0.45367 0.8608 0.92794 0.0
O154 O 0.49045 0.84252 0.95754 0.0
O155 O 0.49198 0.84428 0.93119 0.0
In156 In 0.37556 0.76807 0.3018 0.0
O157 O 0.37256 0.78249 0.32621 0.0
O158 O 0.37725 0.79604 0.30404 0.0
C159 C 0.35759 0.74066 0.30891 0.0
C160 C 0.40792 0.7592 0.3029 0.0
C161 C 0.36052 0.77811 0.27362 0.0
O162 O 0.35576 0.75419 0.31661 0.0
O163 O 0.36887 0.74081 0.29804 0.0
O164 O 0.37612 0.77671 0.27476 0.0
O165 O 0.35261 0.77435 0.28662 0.0
C166 C 0.37459 0.79651 0.31945 0.0
O167 O 0.3998 0.76004 0.28952 0.0
O168 O 0.39967 0.76263 0.31577 0.0
In169 In 0.47747 0.12485 0.55422 0.0
O170 O 0.48314 0.14962 0.54206 0.0
O171 O 0.48376 0.14858 0.56847 0.0
C172 C 0.47086 0.10942 0.52525 0.0
C173 C 0.44722 0.12696 0.56825 0.0
C174 C 0.5036 0.10649 0.56443 0.0
O175 O 0.47829 0.12323 0.5259 0.0
O176 O 0.46705 0.10335 0.53919 0.0
O177 O 0.4889 0.10335 0.56884 0.0
O178 O 0.50513 0.11921 0.55544 0.0
C179 C 0.48522 0.15735 0.55554 0.0
O180 O 0.45989 0.12309 0.5767 0.0
O181 O 0.44998 0.12965 0.55308 0.0
In182 In 0.12245 0.22491 0.807 0.0
O183 O 0.09784 0.22898 0.79363 0.0
O184 O 0.09794 0.23127 0.8199 0.0
C185 C 0.13626 0.21411 0.77854 0.0
C186 C 0.1247 0.19816 0.82717 0.0
C187 C 0.13997 0.25314 0.81207 0.0
O188 O 0.1207 0.21475 0.78061 0.0
O189 O 0.14477 0.21887 0.79084 0.0
O190 O 0.14276 0.2399 0.81996 0.0
O191 O 0.1279 0.25234 0.80213 0.0
C192 C 0.08957 0.23167 0.80665 0.0
O193 O 0.12609 0.19732 0.81163 0.0
O194 O 0.12221 0.2126 0.83274 0.0
In195 In 0.01429 0.8651 0.05003 0.0
O196 O 0.03067 0.86821 0.07311 0.0
O197 O 0.04179 0.85941 0.05079 0.0
C198 C 0.98838 0.88482 0.05826 0.0
C199 C 0.00453 0.83312 0.05232 0.0
C200 C 0.0238 0.8799 0.02153 0.0
O201 O 0.0024 0.88597 0.06515 0.0
O202 O 0.98726 0.87334 0.04768 0.0
O203 O 0.01705 0.86573 0.02174 0.0
O204 O 0.02555 0.88656 0.0356 0.0
C205 C 0.04375 0.86356 0.06577 0.0
O206 O 0.00647 0.84044 0.03861 0.0
O207 O 0.00725 0.84202 0.06495 0.0
In208 In 0.19334 0.37743 0.23416 0.0
O209 O 0.1709 0.37269 0.21725 0.0
O210 O 0.19235 0.38434 0.20704 0.0
C211 C 0.18445 0.35996 0.26137 0.0
C212 C 0.19268 0.40993 0.24225 0.0
C213 C 0.22031 0.36011 0.22444 0.0
O214 O 0.17583 0.36005 0.24828 0.0
O215 O 0.19718 0.36906 0.26087 0.0
O216 O 0.22145 0.37391 0.23184 0.0
O217 O 0.20566 0.35499 0.22228 0.0
C218 C 0.17791 0.37876 0.20457 0.0
O219 O 0.206 0.40207 0.23971 0.0
O220 O 0.17964 0.40129 0.24114 0.0
In221 In 0.69434 0.11804 0.76511 0.0
O222 O 0.70617 0.09348 0.75765 0.0
O223 O 0.67977 0.09495 0.75745 0.0
C224 C 0.72171 0.1349 0.77459 0.0
C225 C 0.68002 0.11532 0.79513 0.0
C226 C 0.68519 0.13657 0.73872 0.0
O227 O 0.72257 0.121 0.76733 0.0
O228 O 0.70716 0.14029 0.77675 0.0
O229 O 0.67742 0.13699 0.75234 0.0
O230 O 0.69714 0.12646 0.73833 0.0
C231 C 0.69254 0.08611 0.75518 0.0
O232 O 0.67251 0.12193 0.78301 0.0
O233 O 0.69435 0.10987 0.79186 0.0
In234 In 0.12535 0.44299 0.01864 0.0
O235 O 0.15034 0.45489 0.01378 0.0
O236 O 0.14797 0.42899 0.00877 0.0
C237 C 0.11091 0.47083 0.0307 0.0
C238 C 0.12911 0.42361 0.04556 0.0
C239 C 0.10684 0.43668 0.99134 0.0
O240 O 0.12372 0.47119 0.02171 0.0
O241 O 0.10536 0.45648 0.03353 0.0
O242 O 0.10413 0.42972 0.00511 0.0
O243 O 0.11913 0.44638 0.99126 0.0
C244 C 0.15732 0.44162 0.00916 0.0
O245 O 0.11933 0.41966 0.03392 0.0
O246 O 0.13665 0.43719 0.04359 0.0
In247 In 0.79578 0.87918 0.26273 0.0
O248 O 0.78407 0.90317 0.25366 0.0
O249 O 0.81046 0.90124 0.25268 0.0
C250 C 0.76765 0.86493 0.2743 0.0
C251 C 0.81303 0.88517 0.2907 0.0
C252 C 0.80389 0.85863 0.23745 0.0
O253 O 0.76748 0.87775 0.26532 0.0
O254 O 0.78193 0.85933 0.27739 0.0
O255 O 0.81022 0.85728 0.25172 0.0
O256 O 0.79389 0.87055 0.23586 0.0
C257 C 0.79772 0.91009 0.2502 0.0
O258 O 0.81834 0.87532 0.27968 0.0
O259 O 0.79917 0.89179 0.28757 0.0
In260 In 0.87143 0.05343 0.01778 0.0
O261 O 0.84674 0.04047 0.02301 0.0
O262 O 0.84604 0.06407 0.0112 0.0
C263 C 0.88694 0.02558 0.02781 0.0
C264 C 0.87522 0.07524 0.043 0.0
C265 C 0.88611 0.0583 0.98788 0.0
O266 O 0.87261 0.02524 0.02137 0.0
O267 O 0.89337 0.03985 0.02895 0.0
O268 O 0.88993 0.06656 0.00062 0.0
O269 O 0.87458 0.04798 0.9901 0.0
C270 C 0.83795 0.05193 0.01692 0.0
O271 O 0.86847 0.07933 0.02946 0.0
O272 O 0.88 0.06038 0.04371 0.0
In273 In 0.30179 0.62041 0.72656 0.0
O274 O 0.28922 0.59557 0.73154 0.0
O275 O 0.31559 0.5959 0.73039 0.0
C276 C 0.27356 0.63532 0.71648 0.0
C277 C 0.32107 0.62406 0.69943 0.0
C278 C 0.3073 0.63623 0.75562 0.0
O279 O 0.27519 0.61971 0.71668 0.0
O280 O 0.2861 0.64331 0.72146 0.0
O281 O 0.31479 0.63998 0.74239 0.0
O282 O 0.29749 0.62408 0.75434 0.0
C283 C 0.30256 0.58738 0.73226 0.0
O284 O 0.32709 0.62413 0.71392 0.0
O285 O 0.30557 0.62201 0.69876 0.0
In286 In 0.12694 0.55138 0.47943 0.0
O287 O 0.15162 0.54056 0.48777 0.0
O288 O 0.14956 0.56688 0.48685 0.0
C289 C 0.11219 0.52269 0.47031 0.0
C290 C 0.12888 0.56611 0.44951 0.0
C291 C 0.10737 0.55977 0.50534 0.0
O292 O 0.1265 0.5231 0.47675 0.0
O293 O 0.10533 0.53668 0.46869 0.0
O294 O 0.1063 0.5668 0.49137 0.0
O295 O 0.11868 0.54899 0.50637 0.0
C296 C 0.15864 0.55443 0.48979 0.0
O297 O 0.12265 0.57344 0.46192 0.0
O298 O 0.13433 0.5517 0.4524 0.0
In299 In 0.36591 0.447 0.9802 0.0
O300 O 0.37058 0.42545 0.96214 0.0
O301 O 0.35695 0.44648 0.95368 0.0
C302 C 0.38562 0.43856 0.00597 0.0
C303 C 0.33436 0.44359 0.99075 0.0
C304 C 0.38061 0.47553 0.97059 0.0
O305 O 0.38628 0.43121 0.99213 0.0
O306 O 0.37468 0.44972 0.00692 0.0
O307 O 0.3668 0.47534 0.97802 0.0
O308 O 0.38702 0.46142 0.9683 0.0
C309 C 0.36311 0.43249 0.95025 0.0
O310 O 0.34113 0.45755 0.98851 0.0
O311 O 0.34365 0.43124 0.98804 0.0
In312 In 0.72852 0.69659 0.87896 0.0
O313 O 0.73413 0.70758 0.90439 0.0
O314 O 0.73605 0.68137 0.90169 0.0
C315 C 0.71888 0.7254 0.86478 0.0
C316 C 0.7 0.67919 0.87922 0.0
C317 C 0.75529 0.68951 0.85999 0.0
O318 O 0.72617 0.72495 0.87866 0.0
O319 O 0.71662 0.71141 0.8581 0.0
O320 O 0.74119 0.68321 0.85742 0.0
O321 O 0.75601 0.69902 0.8724 0.0
C322 C 0.73722 0.69379 0.91119 0.0
O323 O 0.71357 0.67285 0.87452 0.0
O324 O 0.70098 0.69407 0.88406 0.0
In325 In 0.55206 0.47794 0.12619 0.0
O326 O 0.53955 0.48126 0.15129 0.0
O327 O 0.56565 0.48516 0.15003 0.0
C328 C 0.52469 0.46786 0.10973 0.0
C329 C 0.56996 0.44976 0.12616 0.0
C330 C 0.55869 0.50593 0.10892 0.0
O331 O 0.52388 0.47485 0.12376 0.0
O332 O 0.53918 0.46622 0.10403 0.0
O333 O 0.56606 0.49238 0.10616 0.0
O334 O 0.54844 0.50548 0.12073 0.0
C335 C 0.55275 0.48487 0.15894 0.0
O336 O 0.57646 0.46365 0.12277 0.0
O337 O 0.55475 0.4503 0.12987 0.0
In338 In 0.76686 0.29591 0.37831 0.0
O339 O 0.7841 0.31807 0.37337 0.0
O340 O 0.79141 0.29997 0.39124 0.0
C341 C 0.74107 0.30359 0.35826 0.0
C342 C 0.75497 0.29777 0.40945 0.0
C343 C 0.77878 0.26802 0.3639 0.0
O344 O 0.75471 0.3113 0.35772 0.0
O345 O 0.74033 0.29242 0.36919 0.0
O346 O 0.7699 0.2677 0.37679 0.0
O347 O 0.7816 0.28236 0.35829 0.0
C348 C 0.79481 0.31335 0.38384 0.0
O349 O 0.75878 0.28419 0.40258 0.0
O350 O 0.75662 0.31048 0.40038 0.0
In351 In 0.94235 0.51596 0.62613 0.0
O352 O 0.9171 0.5287 0.62245 0.0
O353 O 0.93833 0.54363 0.62763 0.0
C354 C 0.93688 0.48666 0.61065 0.0
C355 C 0.94223 0.51165 0.65934 0.0
C356 C 0.96934 0.52614 0.60915 0.0
O357 O 0.9292 0.49978 0.60684 0.0
O358 O 0.94687 0.48822 0.6226 0.0
O359 O 0.97041 0.51963 0.62338 0.0
O360 O 0.95477 0.52722 0.60348 0.0
C361 C 0.92298 0.54313 0.62453 0.0
O362 O 0.95512 0.51556 0.65133 0.0
O363 O 0.92938 0.50965 0.65056 0.0
In364 In 0.72824 0.29993 0.61865 0.0
O365 O 0.73261 0.28708 0.594 0.0
O366 O 0.73899 0.31274 0.59581 0.0
C367 C 0.7149 0.27307 0.63385 0.0
C368 C 0.70229 0.32034 0.61379 0.0
C369 C 0.7556 0.30623 0.63709 0.0
O370 O 0.72519 0.27185 0.62213 0.0
O371 O 0.71142 0.28776 0.63794 0.0
O372 O 0.74191 0.3134 0.6397 0.0
O373 O 0.75554 0.29628 0.62502 0.0
C374 C 0.73804 0.29992 0.58677 0.0
O375 O 0.71353 0.32373 0.62423 0.0
O376 O 0.70418 0.30681 0.60611 0.0
In377 In 0.94501 0.48329 0.86846 0.0
O378 O 0.92221 0.46668 0.87278 0.0
O379 O 0.94126 0.45824 0.85646 0.0
C380 C 0.93698 0.50975 0.88754 0.0
C381 C 0.94386 0.49435 0.83699 0.0
C382 C 0.97273 0.47172 0.88352 0.0
O383 O 0.93078 0.49555 0.88987 0.0
O384 O 0.94682 0.51065 0.87542 0.0
O385 O 0.97324 0.4803 0.87043 0.0
O386 O 0.95832 0.46912 0.88904 0.0
C387 C 0.92739 0.45539 0.86316 0.0
O388 O 0.95732 0.4909 0.84431 0.0
O389 O 0.93092 0.49264 0.84573 0.0
In390 In 0.77084 0.68876 0.12047 0.0
O391 O 0.7717 0.70073 0.09487 0.0
O392 O 0.76285 0.67591 0.09643 0.0
C393 C 0.78033 0.71729 0.1352 0.0
C394 C 0.79733 0.66839 0.12277 0.0
C395 C 0.7422 0.68375 0.1373 0.0
O396 O 0.77407 0.71693 0.12081 0.0
O397 O 0.7817 0.70329 0.14213 0.0
O398 O 0.75566 0.67675 0.1412 0.0
O399 O 0.74307 0.69286 0.12462 0.0
C400 C 0.76613 0.6882 0.08728 0.0
O401 O 0.78265 0.66289 0.12235 0.0
O402 O 0.79855 0.68397 0.12185 0.0
In403 In 0.54786 0.51748 0.36847 0.0
O404 O 0.57233 0.53149 0.37251 0.0
O405 O 0.55084 0.54525 0.36559 0.0
C406 C 0.55415 0.48962 0.38615 0.0
C407 C 0.54985 0.51076 0.33572 0.0
C408 C 0.51919 0.52695 0.38298 0.0
O409 O 0.56059 0.50347 0.38962 0.0
O410 O 0.54493 0.48974 0.3735 0.0
O411 O 0.51955 0.51984 0.369 0.0
O412 O 0.53322 0.52905 0.38965 0.0
C413 C 0.56604 0.54553 0.36937 0.0
O414 O 0.5364 0.5145 0.34283 0.0
O415 O 0.56237 0.51026 0.34516 0.0
In416 In 0.87373 0.72495 0.69214 0.0
O417 O 0.89881 0.72789 0.70467 0.0
O418 O 0.89813 0.7298 0.67834 0.0
C419 C 0.85868 0.71664 0.72088 0.0
C420 C 0.87186 0.69667 0.6744 0.0
C421 C 0.85726 0.7533 0.68475 0.0
O422 O 0.87312 0.72271 0.7204 0.0
O423 O 0.85178 0.71497 0.70691 0.0
O424 O 0.85313 0.73935 0.67897 0.0
O425 O 0.87002 0.75305 0.6938 0.0
C426 C 0.90683 0.73003 0.6914 0.0
O427 O 0.86995 0.71076 0.66775 0.0
O428 O 0.87496 0.69699 0.68975 0.0
In429 In 0.51714 0.62496 0.94323 0.0
O430 O 0.53062 0.62259 0.91821 0.0
O431 O 0.54503 0.62467 0.94026 0.0
C432 C 0.48875 0.60831 0.93645 0.0
C433 C 0.51304 0.65821 0.94264 0.0
C434 C 0.52549 0.60994 0.97192 0.0
O435 O 0.5026 0.60422 0.93041 0.0
O436 O 0.48912 0.62111 0.94546 0.0
O437 O 0.51832 0.62389 0.97155 0.0
O438 O 0.52816 0.60352 0.95787 0.0
C439 C 0.54491 0.62314 0.92469 0.0
O440 O 0.51718 0.65036 0.95555 0.0
O441 O 0.51069 0.64925 0.92998 0.0
In442 In 0.61745 0.26591 0.19345 0.0
O443 O 0.62108 0.27986 0.16888 0.0
O444 O 0.61449 0.29362 0.1905 0.0
C445 C 0.63412 0.23755 0.18694 0.0
C446 C 0.5845 0.25986 0.19287 0.0
C447 C 0.63452 0.27556 0.22059 0.0
O448 O 0.63674 0.25086 0.1791 0.0
O449 O 0.62273 0.23842 0.19765 0.0
O450 O 0.62051 0.26854 0.22161 0.0
O451 O 0.63988 0.27745 0.20599 0.0
C452 C 0.61808 0.29391 0.17526 0.0
O453 O 0.59205 0.26447 0.20581 0.0
O454 O 0.5936 0.2581 0.18023 0.0
In455 In 0.98444 0.36227 0.45164 0.0
O456 O 0.96719 0.36584 0.42924 0.0
O457 O 0.95776 0.35373 0.45079 0.0
C458 C 0.0102 0.3821 0.44331 0.0
C459 C 0.99544 0.3308 0.44883 0.0
C460 C 0.97439 0.37694 0.48007 0.0
O461 O 0.99595 0.38374 0.43697 0.0
O462 O 0.01152 0.3702 0.45338 0.0
O463 O 0.98179 0.3631 0.47998 0.0
O464 O 0.97235 0.38336 0.46594 0.0
C465 C 0.95492 0.35905 0.43633 0.0
O466 O 0.99349 0.33791 0.46268 0.0
O467 O 0.99205 0.33966 0.43633 0.0
In468 In 0.8807 0.26429 0.79839 0.0
O469 O 0.87691 0.28169 0.82068 0.0
O470 O 0.88916 0.29097 0.79915 0.0
C471 C 0.86106 0.2383 0.80639 0.0
C472 C 0.9124 0.25378 0.80062 0.0
C473 C 0.86517 0.27431 0.77045 0.0
O474 O 0.86035 0.25201 0.81398 0.0
O475 O 0.87207 0.23755 0.79529 0.0
O476 O 0.87905 0.267 0.77014 0.0
O477 O 0.85914 0.27635 0.78476 0.0
C478 C 0.88374 0.29392 0.81355 0.0
O479 O 0.90532 0.25666 0.78693 0.0
O480 O 0.90334 0.25583 0.81327 0.0
In481 In 0.97621 0.62294 0.05597 0.0
O482 O 0.96166 0.62921 0.07943 0.0
O483 O 0.95419 0.60795 0.06575 0.0
C484 C 0.00337 0.6048 0.0637 0.0
C485 C 0.98137 0.65609 0.05542 0.0
C486 C 0.96704 0.61313 0.02524 0.0
O487 O 0.98891 0.6007 0.06812 0.0
O488 O 0.00417 0.6183 0.05581 0.0
O489 O 0.95706 0.62007 0.03515 0.0
O490 O 0.98163 0.61149 0.03071 0.0
C491 C 0.95161 0.61727 0.07807 0.0
O492 O 0.97449 0.64841 0.04362 0.0
O493 O 0.98583 0.64704 0.06741 0.0
In494 In 0.61754 0.7265 0.29829 0.0
O495 O 0.59172 0.72743 0.28681 0.0
O496 O 0.59409 0.73451 0.31213 0.0
C497 C 0.63261 0.71736 0.26982 0.0
C498 C 0.61875 0.69874 0.3169 0.0
C499 C 0.63491 0.75455 0.30454 0.0
O500 O 0.61881 0.72482 0.26995 0.0
O501 O 0.6388 0.71474 0.28398 0.0
O502 O 0.63837 0.74082 0.31123 0.0
O503 O 0.62243 0.75423 0.2951 0.0
C504 C 0.58457 0.73235 0.29986 0.0
O505 O 0.62127 0.71295 0.32308 0.0
O506 O 0.61545 0.6987 0.30159 0.0
In507 In 0.51367 0.36678 0.54902 0.0
O508 O 0.50726 0.34168 0.53789 0.0
O509 O 0.50592 0.34402 0.56416 0.0
C510 C 0.52275 0.38181 0.5205 0.0
C511 C 0.54341 0.36534 0.56421 0.0
C512 C 0.48748 0.38604 0.55725 0.0
O513 O 0.51544 0.36792 0.52069 0.0
O514 O 0.52522 0.38812 0.53463 0.0
O515 O 0.50133 0.38709 0.56451 0.0
O516 O 0.48668 0.37487 0.54631 0.0
C517 C 0.50444 0.3347 0.55163 0.0
O518 O 0.53073 0.37112 0.57144 0.0
O519 O 0.54089 0.36008 0.54967 0.0
In520 In 0.69574 0.87604 0.72741 0.0
O521 O 0.70713 0.90187 0.72851 0.0
O522 O 0.68149 0.89962 0.73439 0.0
C523 C 0.72424 0.86123 0.7179 0.0
C524 C 0.67697 0.874 0.69981 0.0
C525 C 0.68988 0.85912 0.75582 0.0
O526 O 0.72404 0.87525 0.72494 0.0
O527 O 0.71015 0.85466 0.71594 0.0
O528 O 0.683 0.8555 0.74223 0.0
O529 O 0.69936 0.87157 0.7552 0.0
C530 C 0.69386 0.90911 0.73264 0.0
O531 O 0.67099 0.87141 0.71409 0.0
O532 O 0.69216 0.87782 0.69962 0.0
In533 In 0.19373 0.61991 0.26329 0.0
O534 O 0.20691 0.59544 0.2586 0.0
O535 O 0.18107 0.59681 0.25292 0.0
C536 C 0.22117 0.63512 0.27544 0.0
C537 C 0.17406 0.61471 0.28974 0.0
C538 C 0.18552 0.63889 0.23682 0.0
O539 O 0.22187 0.62435 0.26409 0.0
O540 O 0.20673 0.63824 0.28053 0.0
O541 O 0.18009 0.64175 0.25123 0.0
O542 O 0.19474 0.6263 0.23573 0.0
C543 C 0.19405 0.58798 0.25356 0.0
O544 O 0.17012 0.62491 0.27846 0.0
O545 O 0.18776 0.60742 0.28763 0.0
In546 In 0.62401 0.94297 0.52041 0.0
O547 O 0.6493 0.95542 0.51912 0.0
O548 O 0.64823 0.92952 0.51404 0.0
C549 C 0.60835 0.97089 0.53018 0.0
C550 C 0.62213 0.92394 0.54785 0.0
C551 C 0.60807 0.93726 0.49141 0.0
O552 O 0.62305 0.97099 0.5247 0.0
O553 O 0.60151 0.95679 0.53042 0.0
O554 O 0.60417 0.93006 0.50475 0.0
O555 O 0.6203 0.94696 0.49259 0.0
C556 C 0.65713 0.94237 0.51543 0.0
O557 O 0.62052 0.91786 0.53347 0.0
O558 O 0.62486 0.93935 0.54822 0.0
In559 In 0.30081 0.37812 0.76128 0.0
O560 O 0.32397 0.37428 0.77747 0.0
O561 O 0.30476 0.39029 0.78619 0.0
C562 C 0.30975 0.35966 0.73474 0.0
C563 C 0.30091 0.40987 0.75099 0.0
C564 C 0.2737 0.36175 0.77254 0.0
O565 O 0.31558 0.35708 0.74905 0.0
O566 O 0.29975 0.37166 0.73382 0.0
O567 O 0.27266 0.37362 0.76238 0.0
O568 O 0.2883 0.35816 0.77687 0.0
C569 C 0.31881 0.38386 0.7888 0.0
O570 O 0.28784 0.40256 0.75575 0.0
O571 O 0.31387 0.401 0.75106 0.0
In572 In 0.36843 0.55375 0.5185 0.0
O573 O 0.37336 0.57814 0.53236 0.0
O574 O 0.36546 0.557 0.54617 0.0
C575 C 0.38489 0.55991 0.48992 0.0
C576 C 0.3354 0.55529 0.51313 0.0
C577 C 0.3846 0.526 0.52799 0.0
O578 O 0.38816 0.56735 0.50332 0.0
O579 O 0.37297 0.5498 0.49082 0.0
O580 O 0.3707 0.52546 0.52073 0.0
O581 O 0.39033 0.54041 0.53018 0.0
C582 C 0.36989 0.57203 0.54641 0.0
O583 O 0.34272 0.54209 0.51735 0.0
O584 O 0.34479 0.56773 0.51135 0.0
In585 In 0.80167 0.12024 0.22359 0.0
O586 O 0.82742 0.12163 0.21151 0.0
O587 O 0.80611 0.12308 0.19596 0.0
C588 C 0.80826 0.13722 0.25184 0.0
C589 C 0.80184 0.08683 0.22657 0.0
C590 C 0.77236 0.1343 0.21567 0.0
O591 O 0.81385 0.14151 0.23787 0.0
O592 O 0.7997 0.12412 0.25165 0.0
O593 O 0.7733 0.12103 0.22401 0.0
O594 O 0.78616 0.14051 0.21159 0.0
C595 C 0.82173 0.12316 0.19697 0.0
O596 O 0.78974 0.09477 0.22059 0.0
O597 O 0.8139 0.09573 0.23117 0.0
In598 In 0.6304 0.04713 0.98122 0.0
O599 O 0.625 0.07078 0.96639 0.0
O600 O 0.64385 0.05433 0.95766 0.0
C601 C 0.61066 0.05257 0.00781 0.0
C602 C 0.66148 0.04728 0.9935 0.0
C603 C 0.61543 0.02091 0.9664 0.0
O604 O 0.60987 0.06135 0.99486 0.0
O605 O 0.6216 0.0414 0.00745 0.0
O606 O 0.62777 0.01927 0.97592 0.0
O607 O 0.61073 0.03568 0.96436 0.0
C608 C 0.63586 0.06765 0.95548 0.0
O609 O 0.65464 0.03432 0.98786 0.0
O610 O 0.65252 0.06018 0.99319 0.0
In611 In 0.86548 0.94964 0.48136 0.0
O612 O 0.86898 0.92785 0.46329 0.0
O613 O 0.85583 0.9493 0.45509 0.0
C614 C 0.88567 0.941 0.50671 0.0
C615 C 0.8341 0.94698 0.4926 0.0
C616 C 0.88053 0.97784 0.47134 0.0
O617 O 0.88622 0.93387 0.49275 0.0
O618 O 0.8746 0.95199 0.50799 0.0
O619 O 0.86709 0.97798 0.47944 0.0
O620 O 0.88639 0.96358 0.46859 0.0
C621 C 0.86142 0.9351 0.45156 0.0
O622 O 0.84108 0.96078 0.49005 0.0
O623 O 0.84309 0.93442 0.48985 0.0
C624 C 0.24116 0.21618 0.55596 0.0
C625 C 0.24063 0.20153 0.56542 0.0
C626 C 0.23831 0.21571 0.53886 0.0
C627 C 0.22158 0.18969 0.50476 0.0
H628 H 0.25285 0.21466 0.47788 0.0
C629 C 0.22835 0.17958 0.43406 0.0
C630 C 0.23013 0.19382 0.42414 0.0
C631 C 0.22895 0.18079 0.45137 0.0
C632 C 0.24389 0.20778 0.4852 0.0
H633 H 0.23603 0.17499 0.56455 0.0
H634 H 0.23119 0.17412 0.53463 0.0
H635 H 0.25426 0.21653 0.50803 0.0
H636 H 0.23399 0.22049 0.4245 0.0
H637 H 0.23497 0.22264 0.45472 0.0
H638 H 0.21135 0.18082 0.48185 0.0
C639 C 0.23367 0.18601 0.54044 0.0
C640 C 0.24467 0.20887 0.50248 0.0
C641 C 0.23649 0.18649 0.55757 0.0
C642 C 0.23265 0.20929 0.43184 0.0
C643 C 0.23327 0.2105 0.44914 0.0
C644 C 0.22081 0.18859 0.48744 0.0
C645 C 0.2349 0.20056 0.53085 0.0
C646 C 0.23356 0.19981 0.51247 0.0
C647 C 0.23137 0.19628 0.4591 0.0
C648 C 0.232 0.19758 0.47748 0.0
H649 H 0.24423 0.22798 0.56169 0.0
H650 H 0.23904 0.22718 0.53186 0.0
H651 H 0.21273 0.18271 0.5121 0.0
H652 H 0.2264 0.16749 0.42846 0.0
H653 H 0.22767 0.16958 0.45869 0.0
C654 C 0.06855 0.99438 0.68641 0.0
C655 C 0.0535 0.99522 0.6776 0.0
C656 C 0.06891 -0.00249 0.70349 0.0
C657 C 0.04616 0.01775 0.73748 0.0
H658 H 0.06815 0.98526 0.76545 0.0
C659 C 0.03791 0.01724 0.80867 0.0
C660 C 0.0516 0.01275 0.8185 0.0
C661 C 0.03862 0.01576 0.79139 0.0
C662 C 0.06219 0.99462 0.75785 0.0
H663 H 0.02714 0.00044 0.67959 0.0
H664 H 0.02782 0.0061 0.7094 0.0
H665 H 0.06887 0.98204 0.73537 0.0
H666 H 0.07689 0.00348 0.81801 0.0
H667 H 0.07835 0.00135 0.78784 0.0
H668 H 0.03962 0.03046 0.75988 0.0
C669 C 0.03931 0.003 0.70311 0.0
C670 C 0.06257 0.99273 0.7406 0.0
C671 C 0.03891 -0.00031 0.68607 0.0
C672 C 0.06609 0.00692 0.81073 0.0
C673 C 0.06688 0.00561 0.79344 0.0
C674 C 0.04592 0.01974 0.75473 0.0
C675 C 0.05427 0.00173 0.71202 0.0
C676 C 0.05446 0.00421 0.73026 0.0
C677 C 0.05313 0.00992 0.78354 0.0
C678 C 0.05381 0.00813 0.76515 0.0
H679 H 0.07998 0.99096 0.68019 0.0
H680 H 0.08064 0.99659 0.71004 0.0
H681 H 0.03996 0.02688 0.72977 0.0
H682 H 0.02654 0.0217 0.81435 0.0
H683 H 0.02769 0.01893 0.78421 0.0
C684 C 0.25217 0.81918 0.93324 0.0
C685 C 0.25031 0.80408 0.92467 0.0
C686 C 0.25162 0.81955 0.95061 0.0
C687 C 0.25809 0.79205 0.98664 0.0
H688 H 0.23583 0.82684 0.01146 0.0
C689 C 0.24361 0.78675 0.05637 0.0
C690 C 0.24515 0.80102 0.06629 0.0
C691 C 0.24571 0.78771 0.03919 0.0
C692 C 0.24231 0.81718 0.00469 0.0
H693 H 0.24564 0.77768 0.92744 0.0
H694 H 0.24438 0.77837 0.95766 0.0
H695 H 0.23553 0.82752 0.98112 0.0
H696 H 0.2506 0.82741 0.06612 0.0
H697 H 0.25436 0.82909 0.036 0.0
H698 H 0.2647 0.7816 0.01017 0.0
C699 C 0.24664 0.78986 0.95103 0.0
C700 C 0.24211 0.81755 0.98733 0.0
C701 C 0.24722 0.78949 0.93372 0.0
C702 C 0.24935 0.8162 0.05877 0.0
C703 C 0.25138 0.81719 0.04154 0.0
C704 C 0.25828 0.79167 0.00397 0.0
C705 C 0.24919 0.80482 0.95969 0.0
C706 C 0.24981 0.80486 0.97812 0.0
C707 C 0.24934 0.80299 0.03156 0.0
C708 C 0.25023 0.80412 0.01319 0.0
H709 H 0.25462 0.83061 0.92657 0.0
H710 H 0.2537 0.83125 0.95692 0.0
H711 H 0.26447 0.7823 0.97991 0.0
H712 H 0.24034 0.77488 0.06182 0.0
H713 H 0.2439 0.77658 0.03184 0.0
C714 C 0.42853 0.99289 0.30878 0.0
C715 C 0.4442 0.99099 0.31625 0.0
C716 C 0.42722 0.99569 0.29168 0.0
C717 C 0.45089 0.01068 0.25558 0.0
H718 H 0.41988 0.98432 0.22973 0.0
C719 C 0.4546 0.00788 0.18443 0.0
C720 C 0.43968 0.00786 0.17539 0.0
C721 C 0.45443 0.00615 0.20168 0.0
C722 C 0.42843 0.99195 0.23679 0.0
H723 H 0.47077 0.99072 0.31178 0.0
H724 H 0.4685 0.99568 0.28198 0.0
H725 H 0.42073 0.98123 0.25991 0.0
H726 H 0.41288 0.0059 0.17723 0.0
H727 H 0.41254 0.00314 0.20747 0.0
H728 H 0.45859 0.02146 0.23257 0.0
C729 C 0.45723 0.99509 0.28933 0.0
C730 C 0.42892 0.99017 0.25406 0.0
C731 C 0.45853 0.99216 0.30637 0.0
C732 C 0.42457 0.0059 0.1839 0.0
C733 C 0.42439 0.00425 0.20121 0.0
C734 C 0.45034 0.01254 0.23835 0.0
C735 C 0.44157 0.99678 0.28179 0.0
C736 C 0.4403 -0.00063 0.2636 0.0
C737 C 0.43933 0.00448 0.2103 0.0
C738 C 0.43926 0.00304 0.22871 0.0
H739 H 0.41727 0.99203 0.31611 0.0
H740 H 0.415 0.99708 0.28621 0.0
H741 H 0.4596 0.01814 0.26264 0.0
H742 H 0.46645 0.00927 0.1782 0.0
H743 H 0.46618 0.00603 0.20825 0.0
C744 C 0.55828 0.25319 0.17752 0.0
C745 C 0.56634 0.25724 0.19247 0.0
C746 C 0.54102 0.25127 0.17708 0.0
C747 C 0.50293 0.26253 0.20014 0.0
H748 H 0.48295 0.22697 0.17446 0.0
C749 C 0.43393 0.24417 0.20642 0.0
C750 C 0.42525 0.24022 0.1918 0.0
C751 C 0.45107 0.24689 0.20602 0.0
C752 C 0.48834 0.23709 0.18152 0.0
H753 H 0.56275 0.26222 0.21871 0.0
H754 H 0.53267 0.25862 0.21799 0.0
H755 H 0.51311 0.23012 0.17479 0.0
H756 H 0.42762 0.23623 0.16526 0.0
H757 H 0.45759 0.24106 0.16454 0.0
H758 H 0.47817 0.2694 0.207 0.0
C759 C 0.53962 0.25721 0.20655 0.0
C760 C 0.50561 0.23889 0.18171 0.0
C761 C 0.55686 0.25915 0.20699 0.0
C762 C 0.434 0.23925 0.17673 0.0
C763 C 0.45116 0.2419 0.17633 0.0
C764 C 0.48567 0.26071 0.19998 0.0
C765 C 0.53148 0.25335 0.19157 0.0
C766 C 0.51311 0.25158 0.1911 0.0
C767 C 0.45989 0.24565 0.191 0.0
C768 C 0.47819 0.24792 0.19073 0.0
H769 H 0.56528 0.25169 0.16613 0.0
H770 H 0.53512 0.24846 0.1653 0.0
H771 H 0.50829 0.27264 0.20725 0.0
H772 H 0.42752 0.24497 0.21823 0.0
H773 H 0.45747 0.24958 0.21756 0.0
C774 C 0.00598 0.30454 0.46155 0.0
C775 C 0.00054 0.31325 0.44745 0.0
C776 C 0.00986 0.28766 0.4605 0.0
C777 C 0.01875 0.25365 0.43045 0.0
H778 H 0.00461 0.2256 0.46699 0.0
C779 C 0.01443 0.18199 0.4263 0.0
C780 C 0.02062 0.17294 0.43988 0.0
C781 C 0.01326 0.1993 0.42707 0.0
C782 C 0.0088 0.2333 0.45677 0.0
H783 H 0.99512 0.31124 0.42114 0.0
H784 H 0.00147 0.28167 0.41936 0.0
H785 H 0.00025 0.25549 0.46856 0.0
H786 H 0.03057 0.17485 0.46485 0.0
H787 H 0.02834 0.20511 0.46627 0.0
H788 H 0.02685 0.23125 0.41851 0.0
C789 C 0.00309 0.28791 0.43118 0.0
C790 C 0.00635 0.25045 0.45768 0.0
C791 C -0.00064 0.30485 0.4322 0.0
C792 C 0.02574 0.18151 0.4542 0.0
C793 C 0.0244 0.1988 0.45504 0.0
C794 C 0.02105 0.23645 0.42949 0.0
C795 C 0.00822 0.27906 0.44536 0.0
C796 C 0.01128 0.26085 0.44452 0.0
C797 C 0.01808 0.20785 0.44151 0.0
C798 C 0.01607 0.22612 0.44263 0.0
H799 H 0.00712 0.31074 0.47344 0.0
H800 H 0.0141 0.28134 0.4716 0.0
H801 H 0.02293 0.26129 0.42019 0.0
H802 H 0.01041 0.1757 0.41509 0.0
H803 H 0.00821 0.20596 0.41652 0.0
C804 C 0.05837 0.74393 0.67997 0.0
C805 C 0.06608 0.74843 0.69498 0.0
C806 C 0.04125 0.74107 0.6794 0.0
C807 C 0.0029 0.7514 0.70243 0.0
H808 H 0.98297 0.71757 0.67446 0.0
C809 C 0.93365 0.73418 0.70634 0.0
C810 C 0.92503 0.73228 0.69129 0.0
C811 C 0.95089 0.73599 0.70643 0.0
C812 C 0.98838 0.72717 0.6822 0.0
H813 H 0.06213 0.75269 0.72128 0.0
H814 H 0.03236 0.74726 0.72039 0.0
H815 H 0.01321 0.72016 0.67567 0.0
H816 H 0.92763 0.73072 0.66452 0.0
H817 H 0.95791 0.73383 0.66469 0.0
H818 H 0.9781 0.75827 0.70909 0.0
C819 C 0.03941 0.74639 0.70897 0.0
C820 C 0.00569 0.72866 0.6829 0.0
C821 C 0.05649 0.74936 0.70951 0.0
C822 C 0.93398 0.7322 0.6763 0.0
C823 C 0.95128 0.73387 0.6764 0.0
C824 C 0.98565 0.74983 0.70181 0.0
C825 C 0.03152 0.74255 0.69384 0.0
C826 C 0.01315 0.74077 0.69308 0.0
C827 C 0.95989 0.73581 0.69148 0.0
C828 C 0.97821 0.73767 0.69173 0.0
H829 H 0.06547 0.74318 0.66856 0.0
H830 H 0.03556 0.73828 0.66752 0.0
H831 H 0.00819 0.76112 0.7101 0.0
H832 H 0.92709 0.73424 0.71809 0.0
H833 H 0.95722 0.73728 0.71825 0.0
C834 C 0.50237 0.8091 0.958 0.0
C835 C 0.49924 0.8179 0.94327 0.0
C836 C 0.50522 0.792 0.95757 0.0
C837 C 0.5152 0.75664 0.92971 0.0
H838 H 0.49266 0.73114 0.96383 0.0
C839 C 0.50851 0.68496 0.92741 0.0
C840 C 0.51152 0.67648 0.94237 0.0
C841 C 0.50752 0.70231 0.9272 0.0
C842 C 0.49916 0.73809 0.95431 0.0
H843 H 0.49724 0.81588 0.91648 0.0
H844 H 0.50195 0.78592 0.91574 0.0
H845 H 0.49077 0.76131 0.96405 0.0
H846 H 0.51584 0.67944 0.96881 0.0
H847 H 0.51407 0.70967 0.96844 0.0
H848 H 0.52338 0.73327 0.91989 0.0
C849 C 0.50241 0.79225 0.9276 0.0
C850 C 0.49814 0.75539 0.95446 0.0
C851 C 0.49966 0.8094 0.92803 0.0
C852 C 0.51345 0.68564 0.9571 0.0
C853 C 0.51237 0.70294 0.9569 0.0
C854 C 0.51617 0.73929 0.92953 0.0
C855 C 0.50486 0.7833 0.94242 0.0
C856 C 0.5062 0.76489 0.94221 0.0
C857 C 0.50942 0.71147 0.94196 0.0
C858 C 0.50821 0.72985 0.94188 0.0
H859 H 0.50224 0.81535 0.96992 0.0
H860 H 0.50744 0.78555 0.96917 0.0
H861 H 0.52168 0.7636 0.92018 0.0
H862 H 0.50701 0.67821 0.91586 0.0
H863 H 0.50508 0.70855 0.91553 0.0
C864 C 0.55879 0.73932 0.31581 0.0
C865 C 0.56643 0.73499 0.30073 0.0
C866 C 0.54156 0.7414 0.31666 0.0
C867 C 0.50272 0.73054 0.29451 0.0
H868 H 0.48402 0.76687 0.32008 0.0
C869 C 0.43425 0.75089 0.28869 0.0
C870 C 0.4258 0.75512 0.30336 0.0
C871 C 0.4513 0.74768 0.28897 0.0
C872 C 0.48905 0.75654 0.31306 0.0
H873 H 0.56211 0.72961 0.27469 0.0
H874 H 0.53212 0.73351 0.27608 0.0
H875 H 0.51408 0.76297 0.31937 0.0
H876 H 0.42849 0.7591 0.32987 0.0
H877 H 0.45833 0.75346 0.33038 0.0
H878 H 0.47769 0.72427 0.28802 0.0
C879 C 0.53935 0.73501 0.28733 0.0
C880 C 0.50627 0.7543 0.31265 0.0
C881 C 0.55656 0.73289 0.2865 0.0
C882 C 0.43469 0.75589 0.31837 0.0
C883 C 0.45178 0.75276 0.31864 0.0
C884 C 0.48552 0.73282 0.29487 0.0
C885 C 0.53164 0.73922 0.30244 0.0
C886 C 0.51331 0.74134 0.30328 0.0
C887 C 0.46028 0.7487 0.30393 0.0
C888 C 0.4785 0.7459 0.30407 0.0
H889 H 0.5661 0.74095 0.32701 0.0
H890 H 0.536 0.74446 0.32852 0.0
H891 H 0.50772 0.72025 0.28743 0.0
H892 H 0.42772 0.75023 0.27693 0.0
H893 H 0.45754 0.74477 0.27741 0.0
C894 C 0.49971 0.30895 0.56845 0.0
C895 C 0.50087 0.31676 0.55289 0.0
C896 C 0.49781 0.2917 0.5695 0.0
C897 C 0.50589 0.25381 0.54522 0.0
H898 H 0.47609 0.23261 0.57658 0.0
C899 C 0.48952 0.18447 0.5412 0.0
C900 C 0.48828 0.17542 0.55606 0.0
C901 C 0.49154 0.20168 0.54153 0.0
C902 C 0.48463 0.23835 0.56792 0.0
H903 H 0.50033 0.31279 0.52623 0.0
H904 H 0.49681 0.2828 0.52805 0.0
H905 H 0.47798 0.26291 0.57579 0.0
H906 H 0.48836 0.17723 0.58294 0.0
H907 H 0.49206 0.2074 0.58353 0.0
H908 H 0.51253 0.22934 0.53729 0.0
C909 C 0.49768 0.28991 0.53945 0.0
C910 C 0.48568 0.25569 0.56744 0.0
C911 C 0.49957 0.30711 0.53841 0.0
C912 C 0.48929 0.1839 0.57129 0.0
C913 C 0.49129 0.20116 0.57162 0.0
C914 C 0.50485 0.23652 0.5457 0.0
C915 C 0.49707 0.28198 0.555 0.0
C916 C 0.4962 0.2636 0.55596 0.0
C917 C 0.49237 0.21023 0.55673 0.0
C918 C 0.49409 0.22859 0.55693 0.0
H919 H 0.50069 0.3161 0.57982 0.0
H920 H 0.49746 0.28594 0.58165 0.0
H921 H 0.51438 0.25952 0.53648 0.0
H922 H 0.48871 0.17828 0.52926 0.0
H923 H 0.4921 0.20832 0.52984 0.0
C924 C 0.93823 0.24858 0.81717 0.0
C925 C 0.93021 0.24952 0.8017 0.0
C926 C 0.9554 0.24603 0.81804 0.0
C927 C 0.99328 0.25148 0.79289 0.0
H928 H 0.0137 0.22326 0.82618 0.0
C929 C 0.06278 0.23451 0.79125 0.0
C930 C 0.07143 0.23438 0.80641 0.0
C931 C 0.04554 0.2364 0.79098 0.0
C932 C 0.00818 0.23133 0.81693 0.0
H933 H 0.9337 0.24787 0.77503 0.0
H934 H 0.96357 0.24316 0.77653 0.0
H935 H 0.98347 0.22574 0.82509 0.0
H936 H 0.06887 0.23625 0.83316 0.0
H937 H 0.0387 0.2397 0.83268 0.0
H938 H 0.01794 0.25707 0.7847 0.0
C939 C 0.95669 0.24473 0.788 0.0
C940 C 0.99087 0.23274 0.8163 0.0
C941 C 0.93956 0.24731 0.78714 0.0
C942 C 0.06252 0.2363 0.82129 0.0
C943 C 0.04524 0.23816 0.82102 0.0
C944 C 0.01056 0.25006 0.79351 0.0
C945 C 0.96486 0.24435 0.80344 0.0
C946 C 0.98323 0.24277 0.80422 0.0
C947 C 0.03656 0.23818 0.80586 0.0
C948 C 0.0182 0.23993 0.80549 0.0
H949 H 0.93132 0.25028 0.8286 0.0
H950 H 0.96133 0.24592 0.83012 0.0
H951 H 0.98781 0.25959 0.78365 0.0
H952 H 0.06931 0.23298 0.77958 0.0
H953 H 0.0392 0.23615 0.7791 0.0
C954 C 0.98911 0.68254 0.06977 0.0
C955 C 0.98356 0.6743 0.05542 0.0
C956 C 0.99069 0.69982 0.06994 0.0
C957 C 0.97691 0.73771 0.04756 0.0
H958 H 0.01408 0.7581 0.07051 0.0
C959 C 0.99587 0.80642 0.03908 0.0
C960 C 0.00027 0.81532 0.05343 0.0
C961 C 0.99282 0.78936 0.0399 0.0
C962 C 0.00353 0.75258 0.06421 0.0
H963 H 0.97555 0.67761 0.02992 0.0
H964 H 0.97872 0.70773 0.03003 0.0
H965 H 0.01118 0.72795 0.07055 0.0
H966 H 0.00467 0.81347 0.07995 0.0
H967 H -0.00055 0.78356 0.08136 0.0
H968 H 0.96952 0.76241 0.04091 0.0
C969 C 0.98149 0.70092 0.0413 0.0
C970 C 0.00185 0.7353 0.06425 0.0
C971 C 0.97979 0.68364 0.04118 0.0
C972 C 0.0013 0.80691 0.06869 0.0
C973 C -0.0016 0.7898 0.06948 0.0
C974 C 0.97868 0.75498 0.04741 0.0
C975 C 0.98688 0.70924 0.05571 0.0
C976 C 0.98854 0.72764 0.05588 0.0
C977 C 0.99427 0.78084 0.05507 0.0
C978 C 0.99203 0.76258 0.0557 0.0
H979 H 0.99201 0.67565 0.08096 0.0
H980 H 0.99465 0.70582 0.08132 0.0
H981 H 0.96634 0.73226 0.04125 0.0
H982 H 0.99499 0.81259 0.02715 0.0
H983 H 0.98979 0.78274 0.02857 0.0
C984 C 0.20735 0.43693 0.24648 0.0
C985 C 0.1924 0.42805 0.24502 0.0
C986 C 0.20721 0.45423 0.24773 0.0
C987 C 0.1818 0.49048 0.23699 0.0
H988 H 0.21107 0.5137 0.26744 0.0
C989 C 0.1788 0.56154 0.24771 0.0
C990 C 0.19389 0.56994 0.2503 0.0
C991 C 0.17848 0.54422 0.24652 0.0
C992 C 0.20298 0.50742 0.2587 0.0
H993 H 0.16555 0.43021 0.24411 0.0
H994 H 0.1653 0.46051 0.24635 0.0
H995 H 0.21053 0.48343 0.26735 0.0
H996 H 0.22053 0.56692 0.25295 0.0
H997 H 0.22004 0.53673 0.25049 0.0
H998 H 0.17437 0.51447 0.22822 0.0
C999 C 0.17713 0.45408 0.24637 0.0
C1000 C 0.20264 0.49008 0.25871 0.0
C1001 C 0.17727 0.43675 0.24522 0.0
C1002 C 0.20871 0.56076 0.25104 0.0
C1003 C 0.2084 0.54346 0.24978 0.0
C1004 C 0.1822 0.50785 0.23693 0.0
C1005 C 0.19211 0.46301 0.24746 0.0
C1006 C 0.19208 0.48143 0.24783 0.0
C1007 C 0.19326 0.53496 0.24783 0.0
C1008 C 0.19284 0.51651 0.24775 0.0
H1009 H 0.2192 0.43055 0.24633 0.0
H1010 H 0.21896 0.46077 0.24841 0.0
H1011 H 0.17371 0.48414 0.22829 0.0
H1012 H 0.16717 0.5683 0.24717 0.0
H1013 H 0.16659 0.53805 0.24515 0.0
C1014 C 0.70626 0.05928 0.74779 0.0
C1015 C 0.69165 0.06832 0.75083 0.0
C1016 C 0.70557 0.04223 0.74464 0.0
C1017 C 0.67969 0.00557 0.75233 0.0
H1018 H 0.70755 0.98526 0.71867 0.0
C1019 C 0.67755 0.93513 0.73767 0.0
C1020 C 0.69287 0.9273 0.7347 0.0
C1021 C 0.67663 0.95243 0.73901 0.0
C1022 C 0.69982 0.99071 0.72823 0.0
H1023 H 0.66481 0.0667 0.75265 0.0
H1024 H 0.66359 0.03684 0.74713 0.0
H1025 H 0.70725 0.0154 0.72168 0.0
H1026 H 0.71925 0.93138 0.73106 0.0
H1027 H 0.71772 0.96147 0.73372 0.0
H1028 H 0.67248 0.98088 0.7591 0.0
C1029 C 0.67559 0.04295 0.7473 0.0
C1030 C 0.69962 0.00798 0.72992 0.0
C1031 C 0.67628 0.06004 0.75036 0.0
C1032 C 0.70726 0.93707 0.73328 0.0
C1033 C 0.70635 0.95433 0.73468 0.0
C1034 C 0.67993 0.98828 0.75069 0.0
C1035 C 0.69024 0.03385 0.74454 0.0
C1036 C 0.68968 0.01559 0.74209 0.0
C1037 C 0.69102 0.96224 0.73745 0.0
C1038 C 0.69014 0.98064 0.73873 0.0
H1039 H 0.71829 0.06533 0.7481 0.0
H1040 H 0.71708 0.03553 0.74273 0.0
H1041 H 0.67205 0.01106 0.76195 0.0
H1042 H 0.66624 0.9279 0.73875 0.0
H1043 H 0.6646 0.95814 0.74099 0.0
C1044 C 0.185 0.45529 0.00682 0.0
C1045 C 0.17536 0.44077 0.00603 0.0
C1046 C 0.20227 0.45445 0.00564 0.0
C1047 C 0.23707 0.42807 0.99196 0.0
H1048 H 0.26225 0.45564 0.02249 0.0
C1049 C 0.30886 0.42628 0.99504 0.0
C1050 C 0.31661 0.44193 0.99504 0.0
C1051 C 0.29173 0.42497 -0.00237 0.0
C1052 C 0.25539 0.44793 0.01383 0.0
H1053 H 0.17616 0.41402 0.00288 0.0
H1054 H 0.20646 0.41254 0.00084 0.0
H1055 H 0.232 0.45564 0.02377 0.0
H1056 H 0.31267 0.4684 -0.00178 0.0
H1057 H 0.28284 0.46613 0.00271 0.0
H1058 H 0.26053 0.42052 0.98191 0.0
C1059 C 0.20062 0.42458 0.0023 0.0
C1060 C 0.23807 0.44796 0.01453 0.0
C1061 C 0.18329 0.42542 0.00347 0.0
C1062 C 0.30704 0.45617 -0.00183 0.0
C1063 C 0.28996 0.45486 0.00083 0.0
C1064 C 0.25443 0.42804 0.99126 0.0
C1065 C 0.21029 0.43907 0.00367 0.0
C1066 C 0.22871 0.43825 0.00343 0.0
C1067 C 0.28208 0.43928 0.00036 0.0
C1068 C 0.26376 0.43817 0.00203 0.0
H1069 H 0.17923 0.46731 0.0087 0.0
H1070 H 0.20935 0.46588 0.00638 0.0
H1071 H 0.23019 0.42054 0.98317 0.0
H1072 H 0.31596 0.41509 0.99266 0.0
H1073 H 0.28601 0.41279 -0.00263 0.0
C1074 C 0.78727 0.05952 0.22457 0.0
C1075 C 0.80181 0.06855 0.22801 0.0
C1076 C 0.78712 0.04223 0.22602 0.0
C1077 C 0.81402 0.00544 0.22599 0.0
H1078 H 0.77744 0.98481 0.24959 0.0
C1079 C 0.81396 0.93607 0.24502 0.0
C1080 C 0.79869 0.92762 0.24495 0.0
C1081 C 0.81458 0.95312 0.24176 0.0
C1082 C 0.78761 0.99031 0.24272 0.0
H1083 H 0.82763 0.06662 0.23547 0.0
H1084 H 0.82738 0.03631 0.23791 0.0
H1085 H 0.77808 0.01487 0.24637 0.0
H1086 H 0.77222 0.93014 0.24063 0.0
H1087 H 0.77333 0.95974 0.23445 0.0
H1088 H 0.8235 0.98087 0.2222 0.0
C1089 C 0.81613 0.04264 0.23407 0.0
C1090 C 0.788 0.00755 0.24094 0.0
C1091 C 0.81624 0.05996 0.23277 0.0
C1092 C 0.78416 0.93637 0.2409 0.0
C1093 C 0.78479 0.95336 0.2375 0.0
C1094 C 0.81358 0.98815 0.22765 0.0
C1095 C 0.80153 0.03362 0.23079 0.0
C1096 C 0.80121 0.0153 0.23258 0.0
C1097 C 0.79995 0.96203 0.23824 0.0
C1098 C 0.80036 0.98038 0.23605 0.0
H1099 H 0.77597 0.0658 0.22085 0.0
H1100 H 0.77574 0.03558 0.22326 0.0
H1101 H 0.82427 0.01109 0.21934 0.0
H1102 H 0.82536 0.92964 0.24818 0.0
H1103 H 0.82645 0.95941 0.2426 0.0
C1104 C 0.68759 0.03253 0.00143 0.0
C1105 C 0.67897 0.04749 -0.00102 0.0
C1106 C 0.70449 0.03266 0.00537 0.0
C1107 C 0.739 0.06033 0.01925 0.0
H1108 H 0.76642 0.02691 -0.00209 0.0
C1109 C 0.81036 0.06545 0.01256 0.0
C1110 C 0.81964 0.05119 0.01644 0.0
C1111 C 0.79303 0.06475 0.01193 0.0
C1112 C 0.75889 0.03621 0.00409 0.0
H1113 H 0.68111 0.07433 -0.00097 0.0
H1114 H 0.71072 0.07461 0.00538 0.0
H1115 H 0.7364 0.0262 0.99419 0.0
H1116 H 0.81815 0.02504 0.02276 0.0
H1117 H 0.7878 0.02375 0.02134 0.0
H1118 H 0.76173 0.07065 0.02861 0.0
C1119 C 0.70441 0.06275 0.00466 0.0
C1120 C 0.74167 0.03578 0.00204 0.0
C1121 C 0.68745 0.0626 0.00093 0.0
C1122 C 0.81129 0.03622 0.01973 0.0
C1123 C 0.79396 0.03547 0.01887 0.0
C1124 C 0.75626 0.06087 0.02113 0.0
C1125 C 0.7132 0.04776 0.00672 0.0
C1126 C 0.73149 0.04787 0.00954 0.0
C1127 C 0.78468 0.04972 0.01494 0.0
C1128 C 0.76636 0.04884 0.01351 0.0
H1129 H 0.68131 0.02068 0.00013 0.0
H1130 H 0.71074 0.02089 0.00723 0.0
H1131 H 0.73156 0.06967 0.02545 0.0
H1132 H 0.81649 0.07717 0.01001 0.0
H1133 H 0.78616 0.07588 0.00873 0.0
C1134 C 0.2865 0.4371 0.74718 0.0
C1135 C 0.30121 0.42773 0.74686 0.0
C1136 C 0.28694 0.45425 0.74459 0.0
C1137 C 0.31506 0.49001 0.74811 0.0
H1138 H 0.28143 0.51255 0.72199 0.0
C1139 C 0.31788 0.56037 0.73382 0.0
C1140 C 0.30282 0.56917 0.73439 0.0
C1141 C 0.31799 0.54305 0.73504 0.0
C1142 C 0.29081 0.50645 0.72948 0.0
H1143 H 0.32789 0.42885 0.74316 0.0
H1144 H 0.32866 0.45883 0.73854 0.0
H1145 H 0.28107 0.48231 0.72398 0.0
H1146 H 0.2761 0.56682 0.737 0.0
H1147 H 0.27629 0.53663 0.73939 0.0
H1148 H 0.3247 0.51414 0.75377 0.0
C1149 C 0.3168 0.45293 0.74097 0.0
C1150 C 0.29062 0.48914 0.73058 0.0
C1151 C 0.31635 0.43576 0.7435 0.0
C1152 C 0.28789 0.56036 0.73646 0.0
C1153 C 0.288 0.54306 0.7377 0.0
C1154 C 0.31523 0.50733 0.74704 0.0
C1155 C 0.30213 0.46239 0.74168 0.0
C1156 C 0.30269 0.48073 0.73997 0.0
C1157 C 0.30303 0.53419 0.73687 0.0
C1158 C 0.30305 0.51576 0.73778 0.0
H1159 H 0.27465 0.43124 0.74977 0.0
H1160 H 0.27545 0.46122 0.74537 0.0
H1161 H 0.32439 0.4839 0.75565 0.0
H1162 H 0.32957 0.56685 0.73217 0.0
H1163 H 0.32976 0.53658 0.73419 0.0
C1164 C 0.30746 0.54182 0.51284 0.0
C1165 C 0.3172 0.55618 0.51103 0.0
C1166 C 0.29019 0.54267 0.51146 0.0
C1167 C 0.2562 0.56849 0.49471 0.0
H1168 H 0.22917 0.54216 0.5247 0.0
C1169 C 0.18437 0.57135 0.4943 0.0
C1170 C 0.17633 0.55585 0.4944 0.0
C1171 C 0.20142 0.57243 0.49755 0.0
C1172 C 0.23656 0.54952 0.51619 0.0
H1173 H 0.31655 0.58269 0.50628 0.0
H1174 H 0.28631 0.58423 0.50401 0.0
H1175 H 0.25932 0.54208 0.52772 0.0
H1176 H 0.17968 0.5294 0.49837 0.0
H1177 H 0.20936 0.53129 0.50403 0.0
H1178 H 0.23339 0.57583 0.48312 0.0
C1179 C 0.29204 0.57227 0.50631 0.0
C1180 C 0.25382 0.54945 0.51788 0.0
C1181 C 0.30935 0.5714 0.50767 0.0
C1182 C 0.18554 0.54153 0.49822 0.0
C1183 C 0.20253 0.54262 0.50155 0.0
C1184 C 0.23891 0.5686 0.49304 0.0
C1185 C 0.28226 0.55792 0.50829 0.0
C1186 C 0.26386 0.55874 0.50701 0.0
C1187 C 0.21069 0.55805 0.50107 0.0
C1188 C 0.22892 0.55894 0.50363 0.0
H1189 H 0.31317 0.5299 0.51538 0.0
H1190 H 0.28305 0.53133 0.51274 0.0
H1191 H 0.26358 0.57565 0.48602 0.0
H1192 H 0.17757 0.5826 0.4914 0.0
H1193 H 0.20735 0.58451 0.49725 0.0
C1194 C 0.76574 0.70262 0.05983 0.0
C1195 C 0.76376 0.68798 0.0691 0.0
C1196 C 0.76357 0.7025 0.04262 0.0
C1197 C 0.74448 0.67811 0.00857 0.0
H1198 H 0.77279 0.70566 0.98096 0.0
C1199 C 0.74224 0.67672 0.93668 0.0
C1200 C 0.7415 0.69236 0.92896 0.0
C1201 C 0.7457 0.67547 0.95366 0.0
C1202 C 0.76475 0.69797 0.98853 0.0
H1203 H 0.75808 0.66169 0.06767 0.0
H1204 H 0.75463 0.66135 0.03754 0.0
H1205 H 0.77749 0.70464 0.01087 0.0
H1206 H 0.74405 0.71891 0.93281 0.0
H1207 H 0.75022 0.71672 0.96242 0.0
H1208 H 0.73184 0.67138 0.98612 0.0
C1209 C 0.75754 0.67302 0.04359 0.0
C1210 C 0.76739 0.69742 0.00567 0.0
C1211 C 0.7596 0.67318 0.06084 0.0
C1212 C 0.74454 0.70669 0.93844 0.0
C1213 C 0.74816 0.70543 0.95536 0.0
C1214 C 0.74194 0.67856 0.9914 0.0
C1215 C 0.7595 0.68769 0.03427 0.0
C1216 C 0.75716 0.68764 0.01594 0.0
C1217 C 0.74866 0.68983 0.96316 0.0
C1218 C 0.75193 0.68863 0.98124 0.0
H1219 H 0.76886 0.71424 0.06589 0.0
H1220 H 0.76486 0.71408 0.03591 0.0
H1221 H 0.73622 0.67062 0.0161 0.0
H1222 H 0.73995 0.66546 0.92966 0.0
H1223 H 0.74614 0.66328 0.95935 0.0
C1224 C 0.53623 0.50681 0.30814 0.0
C1225 C 0.55082 0.5075 0.3177 0.0
C1226 C 0.53705 0.50399 0.29105 0.0
C1227 C 0.56471 0.50783 0.25509 0.0
H1228 H 0.53386 0.47696 0.2346 0.0
C1229 C 0.56821 0.48991 0.18546 0.0
C1230 C 0.55306 0.488 0.17701 0.0
C1231 C 0.56845 0.4922 0.20269 0.0
C1232 C 0.54243 0.48578 0.24008 0.0
H1233 H 0.5777 0.50578 0.31693 0.0
H1234 H 0.57913 0.50088 0.28695 0.0
H1235 H 0.53338 0.48091 0.2646 0.0
H1236 H 0.52627 0.48736 0.17983 0.0
H1237 H 0.52663 0.4917 0.20976 0.0
H1238 H 0.57359 0.5129 0.23054 0.0
C1239 C 0.56708 0.50259 0.2927 0.0
C1240 C 0.54218 0.48799 0.25728 0.0
C1241 C 0.56625 0.5053 0.30985 0.0
C1242 C 0.53815 0.48869 0.18603 0.0
C1243 C 0.53837 0.49106 0.20321 0.0
C1244 C 0.5649 0.50568 0.23785 0.0
C1245 C 0.55247 0.50189 0.28314 0.0
C1246 C 0.55323 0.49912 0.26495 0.0
C1247 C 0.55352 0.49268 0.21178 0.0
C1248 C 0.55368 0.49471 0.23013 0.0
H1249 H 0.52416 0.5085 0.31385 0.0
H1250 H 0.5256 0.50371 0.28397 0.0
H1251 H 0.57325 0.51662 0.26065 0.0
H1252 H 0.57991 0.48938 0.17882 0.0
H1253 H 0.58034 0.49324 0.20891 0.0
C1254 C 0.74859 0.28412 0.43649 0.0
C1255 C 0.75076 0.29875 0.42726 0.0
C1256 C 0.7468 0.2848 0.45372 0.0
C1257 C 0.73783 0.31286 0.48904 0.0
H1258 H 0.76274 0.27987 0.51384 0.0
C1259 C 0.74458 0.31526 0.56054 0.0
C1260 C 0.74161 0.30017 0.56881 0.0
C1261 C 0.74635 0.31559 0.54326 0.0
C1262 C 0.75564 0.28909 0.50709 0.0
H1263 H 0.7521 0.32562 0.42866 0.0
H1264 H 0.74915 0.32682 0.45884 0.0
H1265 H 0.76345 0.27951 0.4836 0.0
H1266 H 0.73863 0.27358 0.5656 0.0
H1267 H 0.7418 0.27415 0.5355 0.0
H1268 H 0.73009 0.32245 0.51264 0.0
C1269 C 0.74867 0.31483 0.45276 0.0
C1270 C 0.75598 0.28886 0.48976 0.0
C1271 C 0.75039 0.31414 0.43548 0.0
C1272 C 0.74094 0.28538 0.55956 0.0
C1273 C 0.74282 0.2857 0.54233 0.0
C1274 C 0.73754 0.31313 0.50641 0.0
C1275 C 0.74724 0.30012 0.46209 0.0
C1276 C 0.74695 0.30063 0.48053 0.0
C1277 C 0.74531 0.30083 0.53398 0.0
C1278 C 0.74633 0.30115 0.5156 0.0
H1279 H 0.74871 0.27207 0.43047 0.0
H1280 H 0.74533 0.27327 0.46051 0.0
H1281 H 0.73065 0.32202 0.48229 0.0
H1282 H 0.74512 0.32685 0.56736 0.0
H1283 H 0.74845 0.3274 0.53716 0.0
C1284 C 0.95701 0.51154 0.68662 0.0
C1285 C 0.94214 0.51002 0.67761 0.0
C1286 C 0.95695 0.51041 0.70393 0.0
C1287 C 0.92989 0.51499 0.74044 0.0
H1288 H 0.96388 0.48887 0.76244 0.0
C1289 C 0.92808 0.49927 0.81065 0.0
C1290 C 0.9433 0.49869 0.81918 0.0
C1291 C 0.92774 0.50164 0.79345 0.0
C1292 C 0.95445 0.49643 0.75653 0.0
H1293 H 0.91555 0.50614 0.67959 0.0
H1294 H 0.91545 0.50414 0.7099 0.0
H1295 H 0.96363 0.49067 0.73225 0.0
H1296 H 0.97003 0.50088 0.81658 0.0
H1297 H 0.96943 0.50541 0.78666 0.0
H1298 H 0.92075 0.52081 0.76475 0.0
C1299 C 0.92713 0.5063 0.70357 0.0
C1300 C 0.95428 0.49741 0.73922 0.0
C1301 C 0.9272 0.50734 0.68622 0.0
C1302 C 0.95811 0.50116 0.81031 0.0
C1303 C 0.95777 0.50362 0.79315 0.0
C1304 C 0.9301 0.51407 0.75779 0.0
C1305 C 0.94201 0.50783 0.71259 0.0
C1306 C 0.94202 0.5067 0.73099 0.0
C1307 C 0.94261 0.50355 0.78446 0.0
C1308 C 0.9424 0.5048 0.76603 0.0
H1309 H 0.96871 0.51367 0.68032 0.0
H1310 H 0.96859 0.51181 0.71056 0.0
H1311 H 0.9204 0.52241 0.73444 0.0
H1312 H 0.91647 0.49734 0.81718 0.0
H1313 H 0.91585 0.50139 0.78713 0.0
C1314 C 0.80829 0.93027 0.49732 0.0
C1315 C 0.8164 0.94573 0.49721 0.0
C1316 C 0.79115 0.92935 0.50008 0.0
C1317 C 0.7535 0.95517 0.49663 0.0
H1318 H 0.73285 0.92033 0.52274 0.0
C1319 C 0.68441 0.95705 0.51449 0.0
C1320 C 0.67534 0.94219 0.51324 0.0
C1321 C 0.70165 0.957 0.51267 0.0
C1322 C 0.73845 0.93002 0.51526 0.0
H1323 H 0.81314 0.97226 0.50063 0.0
H1324 H 0.78336 0.97065 0.50575 0.0
H1325 H 0.7631 0.92116 0.52003 0.0
H1326 H 0.67715 0.91562 0.50916 0.0
H1327 H 0.70739 0.91555 0.50589 0.0
H1328 H 0.72892 0.96408 0.4919 0.0
C1329 C 0.79012 0.95926 0.50333 0.0
C1330 C 0.75576 0.93051 0.51373 0.0
C1331 C 0.8072 0.96017 0.50052 0.0
C1332 C 0.68384 0.92726 0.51016 0.0
C1333 C 0.70114 0.9272 0.5084 0.0
C1334 C 0.73625 0.95471 0.4982 0.0
C1335 C 0.78183 0.94388 0.50282 0.0
C1336 C 0.76347 0.94316 0.50447 0.0
C1337 C 0.71021 0.94209 0.5096 0.0
C1338 C 0.72853 0.9422 0.5076 0.0
H1339 H 0.81508 0.91892 0.49476 0.0
H1340 H 0.78513 0.91733 0.49949 0.0
H1341 H 0.75902 0.96486 0.4891 0.0
H1342 H 0.6782 0.96874 0.51692 0.0
H1343 H 0.70831 0.96864 0.51388 0.0
C1344 C 0.19258 0.34743 0.2885 0.0
C1345 C 0.18126 0.34842 0.27525 0.0
C1346 C 0.19148 0.33454 0.30004 0.0
C1347 C 0.17739 0.29144 0.30128 0.0
H1348 H 0.19342 0.29384 0.34667 0.0
C1349 C 0.20879 0.23627 0.33313 0.0
C1350 C 0.20584 0.23339 0.35007 0.0
C1351 C 0.2025 0.25045 0.32541 0.0
C1352 C 0.18866 0.29295 0.33411 0.0
H1353 H 0.15909 0.33756 0.26446 0.0
H1354 H 0.157 0.31514 0.2848 0.0
H1355 H 0.18695 0.3194 0.33168 0.0
H1356 H 0.19386 0.24298 0.37222 0.0
H1357 H 0.18279 0.26784 0.35868 0.0
H1358 H 0.1793 0.26505 0.3036 0.0
C1359 C 0.16694 0.32413 0.28606 0.0
C1360 C 0.1851 0.3076 0.32547 0.0
C1361 C 0.16808 0.33701 0.27447 0.0
C1362 C 0.19637 0.24492 0.35914 0.0
C1363 C 0.19007 0.25916 0.35141 0.0
C1364 C 0.18092 0.27683 0.30991 0.0
C1365 C 0.179 0.32239 0.2986 0.0
C1366 C 0.1799 0.30702 0.30879 0.0
C1367 C 0.19309 0.26207 0.33446 0.0
C1368 C 0.1871 0.27744 0.32623 0.0
H1369 H 0.20285 0.35608 0.28946 0.0
H1370 H 0.20107 0.33353 0.30943 0.0
H1371 H 0.17356 0.2905 0.28841 0.0
H1372 H 0.21608 0.22762 0.32583 0.0
H1373 H 0.20532 0.25247 0.31241 0.0
C1374 C 0.01204 0.95454 0.5877 0.0
C1375 C 0.00984 0.96454 0.60182 0.0
C1376 C -0.00164 0.94893 0.57866 0.0
C1377 C 0.95242 0.94392 0.5804 0.0
H1378 H 0.95639 0.9453 0.5324 0.0
C1379 C 0.8969 0.94669 0.53505 0.0
C1380 C 0.89828 0.93837 0.51976 0.0
C1381 C 0.91009 0.94659 0.54633 0.0
C1382 C 0.95516 0.94453 0.54578 0.0
H1383 H 0.99162 0.97637 0.61773 0.0
H1384 H 0.96764 0.96701 0.60163 0.0
H1385 H 0.98031 0.95206 0.54952 0.0
H1386 H 0.91407 0.92253 0.50473 0.0
H1387 H 0.93715 0.92238 0.52448 0.0
H1388 H 0.92697 0.93701 0.5765 0.0
C1389 C 0.97994 0.96318 0.59772 0.0
C1390 C 0.96888 0.94842 0.55563 0.0
C1391 C 0.99366 0.96866 0.60688 0.0
C1392 C 0.91268 0.9291 0.5164 0.0
C1393 C 0.92592 0.9291 0.52764 0.0
C1394 C 0.93862 0.94014 0.57052 0.0
C1395 C 0.98213 0.95335 0.58341 0.0
C1396 C 0.96766 0.94832 0.57306 0.0
C1397 C 0.92493 0.93825 0.5425 0.0
C1398 C 0.93982 0.94057 0.55311 0.0
H1399 H 0.02438 0.951 0.58362 0.0
H1400 H 0.00051 0.94112 0.56791 0.0
H1401 H 0.95111 0.94345 0.59379 0.0
H1402 H 0.88592 0.9539 0.53799 0.0
H1403 H 0.90899 0.95385 0.55762 0.0
C1404 C 0.28579 0.7566 0.83774 0.0
C1405 C 0.2749 0.75628 0.85136 0.0
C1406 C 0.29119 0.74182 0.83046 0.0
C1407 C 0.27913 0.69871 0.82408 0.0
H1408 H 0.32499 0.69346 0.81015 0.0
C1409 C 0.29859 0.64264 0.78473 0.0
C1410 C 0.30801 0.64674 0.77063 0.0
C1411 C 0.29681 0.65404 0.79772 0.0
C1412 C 0.31213 0.69474 0.81393 0.0
H1413 H 0.26111 0.74029 0.86809 0.0
H1414 H 0.27039 0.71436 0.85514 0.0
H1415 H 0.31697 0.7176 0.82669 0.0
H1416 H 0.32385 0.66547 0.75951 0.0
H1417 H 0.32052 0.68545 0.78191 0.0
H1418 H 0.27405 0.67634 0.81072 0.0
C1419 C 0.27476 0.72607 0.85016 0.0
C1420 C 0.30756 0.70854 0.82341 0.0
C1421 C 0.26947 0.74089 0.85756 0.0
C1422 C 0.31651 0.66197 0.77023 0.0
C1423 C 0.31465 0.6734 0.78314 0.0
C1424 C 0.28367 0.68497 0.8145 0.0
C1425 C 0.28571 0.72641 0.83657 0.0
C1426 C 0.29094 0.71085 0.82824 0.0
C1427 C 0.30434 0.66979 0.79679 0.0
C1428 C 0.30015 0.68302 0.80898 0.0
H1429 H 0.29021 0.76828 0.83271 0.0
H1430 H 0.29942 0.74246 0.81983 0.0
H1431 H 0.26621 0.70024 0.82752 0.0
H1432 H 0.292 0.63092 0.78543 0.0
H1433 H 0.28906 0.65074 0.80821 0.0
C1434 C 0.58381 0.06287 0.0195 0.0
C1435 C 0.59866 0.05395 0.02157 0.0
C1436 C 0.57132 0.062 0.03153 0.0
C1437 C 0.5567 0.03351 0.0642 0.0
H1438 H 0.52515 0.06883 0.07309 0.0
C1439 C 0.50076 0.02449 0.10809 0.0
C1440 C 0.48543 0.0297 0.10157 0.0
C1441 C 0.5156 0.02898 0.10027 0.0
C1442 C 0.53388 0.05886 0.0707 0.0
H1443 H 0.61266 0.03818 0.03832 0.0
H1444 H 0.5911 0.03707 0.05955 0.0
H1445 H 0.54984 0.07462 0.0564 0.0
H1446 H 0.47357 0.04396 0.08202 0.0
H1447 H 0.49948 0.05178 0.06837 0.0
H1448 H 0.54065 0.01773 0.07832 0.0
C1449 C 0.58884 0.04431 0.04843 0.0
C1450 C 0.54799 0.06216 0.06113 0.0
C1451 C 0.60124 0.04503 0.03633 0.0
C1452 C 0.48521 0.03973 0.08729 0.0
C1453 C 0.50004 0.04432 0.07956 0.0
C1454 C 0.54268 0.03026 0.07385 0.0
C1455 C 0.57352 0.05233 0.04593 0.0
C1456 C 0.55943 0.04944 0.05752 0.0
C1457 C 0.51537 0.03887 0.08588 0.0
C1458 C 0.53098 0.04282 0.07696 0.0
H1459 H 0.58149 0.06982 0.00821 0.0
H1460 H 0.55963 0.06822 0.0291 0.0
H1461 H 0.56504 0.02332 0.06142 0.0
H1462 H 0.50129 0.0168 0.11912 0.0
H1463 H 0.52726 0.0247 0.10547 0.0
C1464 C 0.19833 0.7593 0.15151 0.0
C1465 C 0.20722 0.75788 0.13656 0.0
C1466 C 0.1925 0.74513 0.15964 0.0
C1467 C 0.20272 0.70123 0.16432 0.0
H1468 H 0.16118 0.6994 0.18869 0.0
C1469 C 0.18857 0.64604 0.2068 0.0
C1470 C 0.18286 0.6503 0.22272 0.0
C1471 C 0.18831 0.65771 0.19397 0.0
C1472 C 0.17284 0.69974 0.18198 0.0
H1473 H 0.21636 0.74061 0.118 0.0
H1474 H 0.20616 0.71582 0.13222 0.0
H1475 H 0.16678 0.72287 0.17024 0.0
H1476 H 0.17152 0.66975 0.23751 0.0
H1477 H 0.17141 0.69026 0.21526 0.0
H1478 H 0.20917 0.67857 0.17646 0.0
C1479 C 0.20384 0.72788 0.13772 0.0
C1480 C 0.17603 0.71316 0.17141 0.0
C1481 C 0.20963 0.74207 0.12956 0.0
C1482 C 0.17601 0.66613 0.22535 0.0
C1483 C 0.17586 0.67786 0.21255 0.0
C1484 C 0.19958 0.68788 0.17491 0.0
C1485 C 0.19549 0.72924 0.15301 0.0
C1486 C 0.19114 0.71419 0.1627 0.0
C1487 C 0.18246 0.67393 0.19684 0.0
C1488 C 0.18474 0.68712 0.18411 0.0
H1489 H 0.19626 0.77134 0.15717 0.0
H1490 H 0.18628 0.74658 0.17148 0.0
H1491 H 0.21459 0.70178 0.158 0.0
H1492 H 0.19377 0.63386 0.20438 0.0
H1493 H 0.19316 0.65417 0.18192 0.0
C1494 C 0.58269 0.92759 0.47644 0.0
C1495 C 0.59798 0.93597 0.47616 0.0
C1496 C 0.5719 0.92853 0.46289 0.0
C1497 C 0.56205 0.95685 0.42852 0.0
H1498 H 0.53025 0.92244 0.41723 0.0
C1499 C 0.50804 0.96809 0.38245 0.0
C1500 C 0.49243 0.96341 0.38871 0.0
C1501 C 0.52261 0.96293 0.39043 0.0
C1502 C 0.5391 0.93214 0.42023 0.0
H1503 H 0.61453 0.95094 0.46106 0.0
H1504 H 0.59584 0.95229 0.43722 0.0
H1505 H 0.55344 0.91596 0.43571 0.0
H1506 H 0.47978 0.94931 0.40787 0.0
H1507 H 0.50513 0.9403 0.42173 0.0
H1508 H 0.54749 0.9731 0.41332 0.0
C1509 C 0.59199 0.94532 0.44806 0.0
C1510 C 0.55234 0.92846 0.43083 0.0
C1511 C 0.60274 0.94446 0.46167 0.0
C1512 C 0.49164 0.95316 0.4028 0.0
C1513 C 0.50616 0.94788 0.41065 0.0
C1514 C 0.54888 0.9605 0.41783 0.0
C1515 C 0.57623 0.9378 0.44871 0.0
C1516 C 0.56371 0.9409 0.43548 0.0
C1517 C 0.52178 0.95284 0.40466 0.0
C1518 C 0.53701 0.9483 0.41396 0.0
H1519 H 0.57868 0.92096 0.48745 0.0
H1520 H 0.5598 0.92274 0.46393 0.0
H1521 H 0.57041 0.96681 0.432 0.0
H1522 H 0.509 0.97596 0.37157 0.0
H1523 H 0.5345 0.96688 0.38552 0.0
C1524 C 0.28124 0.25837 0.62772 0.0
C1525 C 0.28262 0.24254 0.63493 0.0
C1526 C 0.28807 0.27224 0.63563 0.0
C1527 C 0.31698 0.28552 0.66906 0.0
H1528 H 0.2861 0.32218 0.67381 0.0
C1529 C 0.3191 0.33244 0.72309 0.0
C1530 C 0.31276 0.34848 0.72054 0.0
C1531 C 0.31908 0.32085 0.71015 0.0
C1532 C 0.2951 0.31229 0.67233 0.0
H1533 H 0.29283 0.22866 0.65566 0.0
H1534 H 0.30456 0.25289 0.66956 0.0
H1535 H 0.27924 0.29927 0.65549 0.0
H1536 H 0.30288 0.36553 0.70218 0.0
H1537 H 0.30333 0.34551 0.67946 0.0
H1538 H 0.33264 0.29842 0.68632 0.0
C1539 C 0.29836 0.25459 0.65773 0.0
C1540 C 0.29113 0.2991 0.66182 0.0
C1541 C 0.29151 0.24073 0.64985 0.0
C1542 C 0.30762 0.35315 0.70454 0.0
C1543 C 0.3078 0.34165 0.69156 0.0
C1544 C 0.32101 0.29879 0.67956 0.0
C1545 C 0.29644 0.27053 0.65088 0.0
C1546 C 0.30183 0.2854 0.66035 0.0
C1547 C 0.31288 0.32517 0.69437 0.0
C1548 C 0.30993 0.31216 0.68159 0.0
H1549 H 0.27457 0.2601 0.61616 0.0
H1550 H 0.28655 0.28435 0.62996 0.0
H1551 H 0.32557 0.27522 0.66801 0.0
H1552 H 0.32313 0.32852 0.73532 0.0
H1553 H 0.32298 0.30825 0.71281 0.0
C1554 C 0.89131 0.04907 0.95869 0.0
C1555 C 0.89571 0.05911 0.97228 0.0
C1556 C 0.90185 0.04778 0.94495 0.0
C1557 C 0.93993 0.0657 0.92547 0.0
H1558 H 0.94829 0.01996 0.91272 0.0
C1559 C 0.00278 0.04289 0.90143 0.0
C1560 C 0.00327 0.03112 0.88856 0.0
C1561 C 0.98764 0.04786 0.90822 0.0
C1562 C 0.9459 0.03283 0.91586 0.0
H1563 H 0.91404 0.07642 0.98177 0.0
H1564 H 0.93256 0.07395 0.95803 0.0
H1565 H 0.92484 0.02641 0.93068 0.0
H1566 H 0.98835 0.0155 0.87247 0.0
H1567 H 0.96171 0.02404 0.88461 0.0
H1568 H 0.96158 0.07192 0.9113 0.0
C1569 C 0.9209 0.06723 0.95778 0.0
C1570 C 0.93242 0.03656 0.92614 0.0
C1571 C 0.91032 0.06859 0.97147 0.0
C1572 C 0.9883 0.02457 0.88241 0.0
C1573 C 0.9731 0.02943 0.88936 0.0
C1574 C 0.95346 0.06194 0.91527 0.0
C1575 C 0.91703 0.05643 0.94458 0.0
C1576 C 0.92957 0.05298 0.93147 0.0
C1577 C 0.97266 0.04108 0.90238 0.0
C1578 C 0.95686 0.04541 0.91078 0.0
H1579 H 0.88004 0.04171 0.95893 0.0
H1580 H 0.89836 0.03958 0.93486 0.0
H1581 H 0.93789 0.07851 0.92907 0.0
H1582 H 0.01412 0.04819 0.90639 0.0
H1583 H 0.98772 0.05665 0.91842 0.0
C1584 C 0.33421 0.21349 0.2386 0.0
C1585 C 0.3516 0.21286 0.23758 0.0
C1586 C 0.32603 0.20784 0.25278 0.0
C1587 C 0.3319 0.19917 0.29728 0.0
H1588 H 0.28964 0.17673 0.29156 0.0
C1589 C 0.27194 0.17096 0.33653 0.0
C1590 C 0.26975 0.18424 0.34764 0.0
C1591 C 0.28479 0.17133 0.32486 0.0
C1592 C 0.30157 0.18266 0.29348 0.0
H1593 H 0.37414 0.2059 0.25059 0.0
H1594 H 0.35978 0.19582 0.27544 0.0
H1595 H 0.30641 0.18321 0.2674 0.0
H1596 H 0.27989 0.20774 0.35605 0.0
H1597 H 0.30194 0.20866 0.33542 0.0
H1598 H 0.32703 0.19855 0.32343 0.0
C1599 C 0.35249 0.20084 0.2653 0.0
C1600 C 0.31107 0.18663 0.27956 0.0
C1601 C 0.3607 0.20656 0.25108 0.0
C1602 C 0.28128 0.19733 0.34762 0.0
C1603 C 0.294 0.1978 0.33583 0.0
C1604 C 0.32242 0.19509 0.31127 0.0
C1605 C 0.33505 0.20133 0.26625 0.0
C1606 C 0.3261 0.19536 0.28124 0.0
C1607 C 0.29555 0.18508 0.32392 0.0
C1608 C 0.30692 0.18717 0.3095 0.0
H1609 H 0.32686 0.21838 0.22843 0.0
H1610 H 0.31261 0.20876 0.25324 0.0
H1611 H 0.34343 0.20591 0.299 0.0
H1612 H 0.26333 0.16061 0.3364 0.0
H1613 H 0.28586 0.16112 0.31615 0.0
C1614 C 0.07336 0.01778 0.58299 0.0
C1615 C 0.06292 0.02043 0.59671 0.0
C1616 C 0.07337 0.02895 0.56972 0.0
C1617 C 0.05987 0.07058 0.55558 0.0
H1618 H 0.05139 0.04779 0.51397 0.0
C1619 C 0.03252 0.10366 0.4978 0.0
C1620 C 0.03768 0.09816 0.48208 0.0
C1621 C 0.03774 0.09534 0.51215 0.0
C1622 C 0.05407 0.05442 0.52537 0.0
H1623 H 0.04534 0.03747 0.60797 0.0
H1624 H 0.04541 0.05703 0.58481 0.0
H1625 H 0.05804 0.03177 0.53862 0.0
H1626 H 0.05288 0.08016 0.469 0.0
H1627 H 0.06235 0.066 0.49391 0.0
H1628 H 0.05577 0.09327 0.54228 0.0
C1629 C 0.05356 0.04632 0.58428 0.0
C1630 C 0.05788 0.0452 0.53952 0.0
C1631 C 0.05346 0.03508 0.5975 0.0
C1632 C 0.04851 0.08454 0.48096 0.0
C1633 C 0.05388 0.07637 0.49526 0.0
C1634 C 0.05619 0.07985 0.54133 0.0
C1635 C 0.06304 0.04303 0.57 0.0
C1636 C 0.06066 0.05315 0.5548 0.0
C1637 C 0.04836 0.08147 0.51103 0.0
C1638 C 0.05308 0.07186 0.52609 0.0
H1639 H 0.08084 0.00662 0.58207 0.0
H1640 H 0.08097 0.02625 0.55894 0.0
H1641 H 0.06201 0.07701 0.56721 0.0
H1642 H 0.02417 0.11415 0.499 0.0
H1643 H 0.03307 0.09949 0.52407 0.0
C1644 C 0.15142 0.80011 0.73178 0.0
C1645 C 0.13823 0.78908 0.73476 0.0
C1646 C 0.16045 0.80683 0.745 0.0
C1647 C 0.16059 0.81231 0.79097 0.0
H1648 H 0.20841 0.81102 0.7852 0.0
C1649 C 0.20744 0.80738 0.84485 0.0
C1650 C 0.22307 0.81497 0.84315 0.0
C1651 C 0.19575 0.80835 0.83205 0.0
C1652 C 0.19508 0.81182 0.78695 0.0
H1653 H 0.12373 0.77688 0.75389 0.0
H1654 H 0.13973 0.78827 0.77699 0.0
H1655 H 0.19042 0.80476 0.76182 0.0
H1656 H 0.23831 0.83051 0.82727 0.0
H1657 H 0.21783 0.83228 0.80493 0.0
H1658 H 0.1654 0.81873 0.81638 0.0
C1659 C 0.14295 0.79199 0.76446 0.0
C1660 C 0.18474 0.80821 0.77351 0.0
C1661 C 0.13385 0.78535 0.75123 0.0
C1662 C 0.22639 0.82446 0.82889 0.0
C1663 C 0.21471 0.82539 0.81606 0.0
C1664 C 0.17097 0.81587 0.80446 0.0
C1665 C 0.15656 0.80257 0.76149 0.0
C1666 C 0.16737 0.80811 0.77542 0.0
C1667 C 0.19948 0.8169 0.81729 0.0
C1668 C 0.18834 0.81536 0.80266 0.0
H1669 H 0.15498 0.80334 0.71921 0.0
H1670 H 0.17065 0.81517 0.74227 0.0
H1671 H 0.14725 0.81261 0.7928 0.0
H1672 H 0.20452 0.80001 0.85572 0.0
H1673 H 0.18419 0.80157 0.83335 0.0
C1674 C 0.4658 0.8826 0.00404 0.0
C1675 C 0.46224 0.88896 0.98818 0.0
C1676 C 0.46 0.89071 0.01826 0.0
C1677 C 0.42955 0.92193 0.03302 0.0
H1678 H 0.46226 0.93027 0.06739 0.0
C1679 C 0.42486 0.97605 0.07952 0.0
C1680 C 0.43187 0.97421 0.09539 0.0
C1681 C 0.42584 0.96315 0.06794 0.0
C1682 C 0.45282 0.92777 0.05813 0.0
H1683 H 0.44948 0.90851 0.97472 0.0
H1684 H 0.43946 0.92272 -0.00048 0.0
H1685 H 0.46927 0.91225 0.04419 0.0
H1686 H 0.44429 0.95705 0.11204 0.0
H1687 H 0.4457 0.9344 0.09193 0.0
H1688 H 0.41322 0.9378 0.04679 0.0
C1689 C 0.44659 0.9114 0.00099 0.0
C1690 C 0.45687 0.91746 0.04479 0.0
C1691 C 0.45244 0.90333 0.98679 0.0
C1692 C 0.4389 0.95887 0.09984 0.0
C1693 C 0.4398 0.94593 0.08829 0.0
C1694 C 0.42546 0.93222 0.04641 0.0
C1695 C 0.45046 0.90529 0.01689 0.0
C1696 C 0.44541 0.91471 0.03191 0.0
C1697 C 0.43377 0.94812 0.07203 0.0
C1698 C 0.43718 0.93554 0.05894 0.0
H1699 H 0.47327 0.8715 0.00548 0.0
H1700 H 0.46306 0.88564 0.03035 0.0
H1701 H 0.42037 0.91983 0.02339 0.0
H1702 H 0.41937 0.98774 0.07574 0.0
H1703 H 0.42119 0.96533 0.0555 0.0
C1704 C 0.33468 0.78453 0.25779 0.0
C1705 C 0.3521 0.78389 0.2584 0.0
C1706 C 0.32658 0.78985 0.24342 0.0
C1707 C 0.33242 0.79385 0.19833 0.0
H1708 H 0.29103 0.81833 0.2016 0.0
C1709 C 0.27424 0.81965 0.15503 0.0
C1710 C 0.27163 0.80519 0.14561 0.0
C1711 C 0.28652 0.82001 0.16734 0.0
C1712 C 0.30272 0.81177 0.20037 0.0
H1713 H 0.37475 0.78854 0.24457 0.0
H1714 H 0.36055 0.79801 0.21943 0.0
H1715 H 0.30775 0.81387 0.22638 0.0
H1716 H 0.28034 0.78009 0.14105 0.0
H1717 H 0.30146 0.78059 0.16259 0.0
H1718 H 0.32735 0.79171 0.17231 0.0
C1719 C 0.35317 0.79421 0.23001 0.0
C1720 C 0.31219 0.80901 0.21464 0.0
C1721 C 0.36129 0.78884 0.24441 0.0
C1722 C 0.28203 0.79141 0.14814 0.0
C1723 C 0.29425 0.79176 0.16042 0.0
C1724 C 0.32298 0.79668 0.18403 0.0
C1725 C 0.3357 0.79473 0.22934 0.0
C1726 C 0.32689 0.79958 0.21387 0.0
C1727 C 0.2964 0.80591 0.17044 0.0
C1728 C 0.30777 0.80525 0.18497 0.0
H1729 H 0.32727 0.78075 0.26836 0.0
H1730 H 0.31311 0.78977 0.24324 0.0
H1731 H 0.34365 0.78651 0.19729 0.0
H1732 H 0.26644 0.83049 0.15328 0.0
H1733 H 0.28801 0.83119 0.17469 0.0
C1734 C 0.44967 0.03559 0.39379 0.0
C1735 C 0.44115 0.0207 0.39699 0.0
C1736 C 0.4506 0.04797 0.40594 0.0
C1737 C 0.43364 0.06116 0.44698 0.0
H1738 H 0.47818 0.0784 0.45358 0.0
C1739 C 0.45651 0.08686 0.50956 0.0
C1740 C 0.46642 0.10123 0.50947 0.0
C1741 C 0.45204 0.07917 0.49468 0.0
C1742 C 0.46561 0.07393 0.45176 0.0
H1743 H 0.42616 0.00742 0.415 0.0
H1744 H 0.42802 0.02881 0.43629 0.0
H1745 H 0.47214 0.06154 0.42921 0.0
H1746 H 0.47937 0.11889 0.49377 0.0
H1747 H 0.47167 0.10529 0.46768 0.0
H1748 H 0.42735 0.07307 0.46993 0.0
C1749 C 0.43381 0.0311 0.42436 0.0
C1750 C 0.46212 0.06429 0.43775 0.0
C1751 C 0.4328 0.01878 0.41218 0.0
C1752 C 0.47177 0.10779 0.4942 0.0
C1753 C 0.46739 0.1 0.47929 0.0
C1754 C 0.43717 0.07071 0.46103 0.0
C1755 C 0.44311 0.04564 0.42156 0.0
C1756 C 0.44617 0.05753 0.43535 0.0
C1757 C 0.45746 0.08562 0.4794 0.0
C1758 C 0.45327 0.07692 0.46372 0.0
H1759 H 0.45612 0.03746 0.38213 0.0
H1760 H 0.45758 0.05916 0.40327 0.0
H1761 H 0.42116 0.05637 0.44536 0.0
H1762 H 0.45219 0.08155 0.52114 0.0
H1763 H 0.4446 0.06796 0.49516 0.0
C1764 C 0.13411 0.20337 0.74942 0.0
C1765 C 0.14397 0.20838 0.76293 0.0
C1766 C 0.14152 0.19851 0.73447 0.0
C1767 C 0.18183 0.18549 0.71617 0.0
H1768 H 0.16403 0.20458 0.67567 0.0
C1769 C 0.20818 0.20738 0.64947 0.0
C1770 C 0.21857 0.19393 0.64554 0.0
C1771 C 0.1966 0.20609 0.6623 0.0
C1772 C 0.16912 0.1991 0.68686 0.0
H1773 H 0.16925 0.21198 0.77156 0.0
H1774 H 0.18215 0.20376 0.74549 0.0
H1775 H 0.14898 0.20806 0.70171 0.0
H1776 H 0.22438 0.16826 0.65128 0.0
H1777 H 0.20397 0.16592 0.67367 0.0
H1778 H 0.20244 0.17737 0.70153 0.0
C1779 C 0.16873 0.2033 0.74645 0.0
C1780 C 0.1604 0.20094 0.70176 0.0
C1781 C 0.16133 0.20815 0.76135 0.0
C1782 C 0.21658 0.17886 0.65412 0.0
C1783 C 0.20497 0.17756 0.66698 0.0
C1784 C 0.19055 0.18368 0.70129 0.0
C1785 C 0.15892 0.19854 0.73279 0.0
C1786 C 0.16691 0.19457 0.71666 0.0
C1787 C 0.19513 0.19129 0.67146 0.0
C1788 C 0.18453 0.19088 0.68656 0.0
H1789 H 0.12068 0.20336 0.75032 0.0
H1790 H 0.13364 0.19477 0.72422 0.0
H1791 H 0.18702 0.18019 0.7274 0.0
H1792 H 0.20941 0.21915 0.64306 0.0
H1793 H 0.18939 0.21698 0.66554 0.0
C1794 C 0.03891 0.90268 0.00697 0.0
C1795 C 0.02942 0.88806 0.00611 0.0
C1796 C 0.04408 0.91067 0.99249 0.0
C1797 C 0.03228 0.91661 0.9493 0.0
H1798 H 0.07619 0.93612 0.94544 0.0
C1799 C 0.04841 0.95901 0.8943 0.0
C1800 C 0.0564 0.97391 0.89864 0.0
C1801 C 0.04757 0.94587 0.90561 0.0
C1802 C 0.06386 0.9308 0.94634 0.0
H1803 H 0.01808 0.87016 0.98946 0.0
H1804 H 0.02695 0.88431 0.96403 0.0
H1805 H 0.06979 0.91806 0.96895 0.0
H1806 H 0.07052 0.98647 0.91785 0.0
H1807 H 0.06875 0.96377 0.93771 0.0
H1808 H 0.02602 0.92989 0.9272 0.0
C1809 C 0.03039 0.88954 0.97595 0.0
C1810 C 0.06022 0.92043 0.95978 0.0
C1811 C 0.02535 0.88145 0.99048 0.0
C1812 C 0.06429 0.97512 0.91415 0.0
C1813 C 0.06335 0.96204 0.92551 0.0
C1814 C 0.03587 0.92707 0.93593 0.0
C1815 C 0.03976 0.90427 0.97683 0.0
C1816 C 0.04428 0.91354 0.96158 0.0
C1817 C 0.0546 0.94742 0.92154 0.0
C1818 C 0.05159 0.93459 0.93449 0.0
H1819 H 0.04227 0.90804 0.01886 0.0
H1820 H 0.05108 0.92212 0.99355 0.0
H1821 H 0.01983 0.9116 0.95046 0.0
H1822 H 0.04233 0.95769 0.88236 0.0
H1823 H 0.04102 0.93467 0.90204 0.0
C1824 C 0.25105 0.35545 0.22299 0.0
C1825 C 0.23488 0.35086 0.21828 0.0
C1826 C 0.26476 0.34651 0.21715 0.0
C1827 C 0.27566 0.30551 0.19936 0.0
H1828 H 0.31776 0.32688 0.1896 0.0
C1829 C 0.33064 0.26751 0.17561 0.0
C1830 C 0.34514 0.26939 0.18514 0.0
C1831 C 0.31781 0.27913 0.1768 0.0
C1832 C 0.30605 0.32078 0.19227 0.0
H1833 H 0.22036 0.3337 0.20342 0.0
H1834 H 0.24421 0.31841 0.1929 0.0
H1835 H 0.29379 0.3438 0.1976 0.0
H1836 H 0.35818 0.28554 0.20234 0.0
H1837 H 0.33576 0.30588 0.20437 0.0
H1838 H 0.28788 0.28253 0.19413 0.0
C1839 C 0.24637 0.32859 0.20144 0.0
C1840 C 0.29236 0.33043 0.19694 0.0
C1841 C 0.23268 0.33739 0.20742 0.0
C1842 C 0.34711 0.28375 0.19488 0.0
C1843 C 0.3343 0.29542 0.196 0.0
C1844 C 0.28926 0.29592 0.19456 0.0
C1845 C 0.26258 0.33291 0.20636 0.0
C1846 C 0.27703 0.32288 0.20069 0.0
C1847 C 0.31928 0.29288 0.18746 0.0
C1848 C 0.30463 0.30342 0.1911 0.0
H1849 H 0.25309 0.36579 0.23136 0.0
H1850 H 0.27704 0.35005 0.22138 0.0
H1851 H 0.26419 0.29921 0.20249 0.0
H1852 H 0.32881 0.25661 0.16792 0.0
H1853 H 0.30646 0.27701 0.16987 0.0
C1854 C 0.73448 0.15797 0.79085 0.0
C1855 C 0.73645 0.14409 0.78046 0.0
C1856 C 0.74829 0.16685 0.7964 0.0
C1857 C 0.79428 0.16474 0.80066 0.0
H1858 H 0.79046 0.21278 0.80115 0.0
C1859 C 0.84991 0.21016 0.79958 0.0
C1860 C 0.84854 0.22507 0.80857 0.0
C1861 C 0.83673 0.19887 0.79921 0.0
C1862 C 0.79166 0.19938 0.80138 0.0
H1863 H 0.7544 0.12848 0.76784 0.0
H1864 H 0.77859 0.14432 0.77712 0.0
H1865 H 0.76643 0.19601 0.79392 0.0
H1866 H 0.83278 0.23937 0.8251 0.0
H1867 H 0.80972 0.21962 0.82443 0.0
H1868 H 0.8198 0.16831 0.80753 0.0
C1869 C 0.76639 0.14814 0.78129 0.0
C1870 C 0.77787 0.18973 0.79722 0.0
C1871 C 0.75253 0.13914 0.77585 0.0
C1872 C 0.83417 0.228 0.81802 0.0
C1873 C 0.82094 0.21675 0.81756 0.0
C1874 C 0.80815 0.17443 0.80471 0.0
C1875 C 0.76442 0.16218 0.79155 0.0
C1876 C 0.77902 0.1723 0.79669 0.0
C1877 C 0.8219 0.20233 0.80773 0.0
C1878 C 0.80699 0.19185 0.80498 0.0
H1879 H 0.72223 0.16196 0.79476 0.0
H1880 H 0.74631 0.17738 0.80455 0.0
H1881 H 0.79554 0.15135 0.80063 0.0
H1882 H 0.86087 0.20756 0.7922 0.0
H1883 H 0.83781 0.18791 0.79146 0.0
C1884 C 0.03333 0.59814 0.05906 0.0
C1885 C 0.0178 0.59366 0.06564 0.0
C1886 C 0.04626 0.58656 0.05842 0.0
C1887 C 0.05969 0.5448 0.07306 0.0
H1888 H 0.07992 0.54205 0.02941 0.0
C1889 C 0.08862 0.48478 0.04717 0.0
C1890 C 0.10288 0.48598 0.03719 0.0
C1891 C 0.0806 0.49909 0.0528 0.0
C1892 C 0.07466 0.5428 0.04177 0.0
H1893 H 0.0039 0.57396 0.07766 0.0
H1894 H 0.02634 0.55371 0.07637 0.0
H1895 H 0.06197 0.56541 0.03608 0.0
H1896 H 0.12023 0.50306 0.02563 0.0
H1897 H 0.10621 0.52812 0.03551 0.0
H1898 H 0.072 0.52184 0.07849 0.0
C1899 C 0.02865 0.56617 0.07184 0.0
C1900 C 0.06438 0.55622 0.04562 0.0
C1901 C 0.01574 0.57775 0.0725 0.0
C1902 C 0.10919 0.50176 0.03323 0.0
C1903 C 0.10115 0.5161 0.03884 0.0
C1904 C 0.06998 0.53135 0.06919 0.0
C1905 C 0.04388 0.57029 0.06432 0.0
C1906 C 0.0565 0.5572 0.06118 0.0
C1907 C 0.08667 0.51492 0.04855 0.0
C1908 C 0.07729 0.53004 0.05338 0.0
H1909 H 0.03531 0.61036 0.05378 0.0
H1910 H 0.05794 0.59019 0.05281 0.0
H1911 H 0.05399 0.54533 0.08524 0.0
H1912 H 0.08349 0.47277 0.05043 0.0
H1913 H 0.06934 0.49775 0.06004 0.0
C1914 C 0.64141 0.78421 0.29807 0.0
C1915 C 0.6457 0.76931 0.30607 0.0
C1916 C 0.65269 0.79739 0.29741 0.0
C1917 C 0.69291 0.81293 0.31434 0.0
H1918 H 0.69783 0.83153 0.27016 0.0
C1919 C 0.75345 0.84289 0.29087 0.0
C1920 C 0.75238 0.8568 0.2804 0.0
C1921 C 0.73909 0.83462 0.29601 0.0
C1922 C 0.69645 0.82672 0.28265 0.0
H1923 H 0.66474 0.75681 0.32045 0.0
H1924 H 0.68454 0.77965 0.31907 0.0
H1925 H 0.67478 0.81292 0.27601 0.0
H1926 H 0.73546 0.8733 0.26747 0.0
H1927 H 0.7103 0.8588 0.27643 0.0
H1928 H 0.71503 0.82631 0.32073 0.0
C1929 C 0.67241 0.7813 0.31347 0.0
C1930 C 0.6832 0.81605 0.28603 0.0
C1931 C 0.6611 0.76816 0.31419 0.0
C1932 C 0.73665 0.86255 0.27548 0.0
C1933 C 0.72227 0.85423 0.28056 0.0
C1934 C 0.70622 0.82356 0.31093 0.0
C1935 C 0.66852 0.7959 0.30468 0.0
C1936 C 0.68144 0.80877 0.30182 0.0
C1937 C 0.72336 0.84007 0.29073 0.0
C1938 C 0.7083 0.83031 0.29496 0.0
H1939 H 0.62956 0.78549 0.2918 0.0
H1940 H 0.64918 0.80858 0.29082 0.0
H1941 H 0.69177 0.80773 0.3267 0.0
H1942 H 0.76542 0.83819 0.29488 0.0
H1943 H 0.74036 0.82362 0.30365 0.0
C1944 C 0.88994 0.99464 0.02961 0.0
C1945 C 0.89559 0.0106 0.03384 0.0
C1946 C 0.89864 0.98056 0.03493 0.0
C1947 C 0.94046 0.96818 0.04951 0.0
H1948 H 0.91857 0.92668 0.06056 0.0
C1949 C 0.97831 0.91172 0.06998 0.0
C1950 C 0.97519 0.89735 0.06057 0.0
C1951 C 0.96712 0.92498 0.06967 0.0
C1952 C 0.92482 0.93821 0.05752 0.0
H1953 H 0.91429 0.02438 0.0475 0.0
H1954 H 0.92915 -7e-05 0.05716 0.0
H1955 H 0.90186 0.95124 0.05409 0.0
H1956 H 0.9574 0.88504 0.0445 0.0
H1957 H 0.93782 0.90821 0.04401 0.0
H1958 H 0.96337 0.95519 0.05284 0.0
C1959 C 0.91833 -0.0018 0.04933 0.0
C1960 C 0.91527 0.95225 0.05373 0.0
C1961 C 0.90977 0.01223 0.04386 0.0
C1962 C 0.96014 0.896 0.05183 0.0
C1963 C 0.9489 0.90924 0.0516 0.0
C1964 C 0.94995 0.95424 0.05344 0.0
C1965 C 0.91305 0.98219 0.04472 0.0
C1966 C 0.923 0.96737 0.04953 0.0
C1967 C 0.95258 0.92407 0.06004 0.0
C1968 C 0.94225 0.93908 0.05735 0.0
H1969 H 0.87902 0.99305 0.02189 0.0
H1970 H 0.89432 0.96844 0.03098 0.0
H1971 H 0.94687 0.97947 0.04598 0.0
H1972 H 0.98978 0.91308 0.0769 0.0
H1973 H 0.97014 0.9362 0.07648 0.0
C1974 C 0.25737 0.66108 0.71072 0.0
C1975 C 0.25834 0.64367 0.71061 0.0
C1976 C 0.24303 0.6691 0.70525 0.0
C1977 C 0.19827 0.6627 0.69971 0.0
H1978 H 0.20154 0.70477 0.67644 0.0
C1979 C 0.15488 0.72108 0.67471 0.0
C1980 C 0.14541 0.72343 0.68917 0.0
C1981 C 0.16723 0.70885 0.6742 0.0
C1982 C 0.20033 0.69289 0.68265 0.0
H1983 H 0.24518 0.62096 0.7045 0.0
H1984 H 0.22002 0.63503 0.69484 0.0
H1985 H 0.22645 0.68826 0.68103 0.0
H1986 H 0.14073 0.71428 0.71408 0.0
H1987 H 0.16231 0.6932 0.7133 0.0
H1988 H 0.17216 0.66744 0.70147 0.0
C1989 C 0.23033 0.64246 0.6993 0.0
C1990 C 0.21466 0.68354 0.68548 0.0
C1991 C 0.24473 0.63441 0.70479 0.0
C1992 C 0.14788 0.71279 0.70277 0.0
C1993 C 0.16018 0.7006 0.70227 0.0
C1994 C 0.18393 0.67205 0.69684 0.0
C1995 C 0.22933 0.6599 0.6995 0.0
C1996 C 0.21386 0.6686 0.69448 0.0
C1997 C 0.17027 0.69875 0.68814 0.0
C1998 C 0.18487 0.68749 0.68872 0.0
H1999 H 0.26766 0.66854 0.71517 0.0
H2000 H 0.24254 0.68254 0.70587 0.0
H2001 H 0.19724 0.65126 0.70672 0.0
H2002 H 0.15317 0.72906 0.664 0.0
H2003 H 0.17466 0.70758 0.66305 0.0
C2004 C 0.02033 0.4098 0.43362 0.0
C2005 C 0.02367 0.39428 0.44086 0.0
C2006 C 0.0323 0.42237 0.43392 0.0
C2007 C 0.06821 0.43517 0.45915 0.0
H2008 H 0.07205 0.46993 0.42602 0.0
C2009 C 0.1115 0.49167 0.46812 0.0
C2010 C 0.1041 0.50715 0.46492 0.0
C2011 C 0.10358 0.47698 0.46326 0.0
C2012 C 0.07109 0.4603 0.43538 0.0
H2013 H 0.04252 0.37928 0.45291 0.0
H2014 H 0.06359 0.40105 0.453 0.0
H2015 H 0.05519 0.44538 0.42012 0.0
H2016 H 0.08283 0.51945 0.45384 0.0
H2017 H 0.069 0.49384 0.44543 0.0
H2018 H 0.08387 0.4502 0.4745 0.0
C2019 C 0.05158 0.4037 0.44754 0.0
C2020 C 0.06142 0.44626 0.43201 0.0
C2021 C 0.03955 0.39119 0.44738 0.0
C2022 C 0.08881 0.50769 0.45651 0.0
C2023 C 0.08096 0.49304 0.45156 0.0
C2024 C 0.07794 0.44915 0.46246 0.0
C2025 C 0.0479 0.41962 0.44134 0.0
C2026 C 0.05962 0.43366 0.44399 0.0
C2027 C 0.08819 0.47752 0.455 0.0
C2028 C 0.07922 0.462 0.45074 0.0
H2029 H 0.00816 0.41253 0.42853 0.0
H2030 H 0.02898 0.43451 0.42915 0.0
H2031 H 0.06688 0.4259 0.4688 0.0
H2032 H 0.12332 0.49089 0.47452 0.0
H2033 H 0.1095 0.4652 0.46597 0.0
C2034 C 0.47487 0.58212 0.92734 0.0
C2035 C 0.47381 0.59779 0.93493 0.0
C2036 C 0.46162 0.57096 0.92835 0.0
C2037 C 0.42683 0.56137 0.95614 0.0
H2038 H 0.41743 0.52759 0.92307 0.0
C2039 C 0.38204 0.50658 0.96881 0.0
C2040 C 0.3886 0.49094 0.9647 0.0
C2041 C 0.38987 0.5211 0.96334 0.0
C2042 C 0.41992 0.53697 0.93241 0.0
H2043 H 0.45765 0.61459 0.94844 0.0
H2044 H 0.43435 0.59522 0.94992 0.0
H2045 H 0.43534 0.55102 0.91592 0.0
H2046 H 0.40826 0.47817 0.95139 0.0
H2047 H 0.42191 0.50344 0.9419 0.0
H2048 H 0.41173 0.5471 0.97273 0.0
C2049 C 0.44556 0.5914 0.94353 0.0
C2050 C 0.43017 0.55037 0.92832 0.0
C2051 C 0.45886 0.60253 0.94259 0.0
C2052 C 0.40294 0.49006 0.95479 0.0
C2053 C 0.41067 0.50453 0.94922 0.0
C2054 C 0.4165 0.54802 0.96018 0.0
C2055 C 0.44699 0.57529 0.93689 0.0
C2056 C 0.43412 0.56249 0.94029 0.0
C2057 C 0.4043 0.5202 0.95352 0.0
C2058 C 0.41332 0.53546 0.9485 0.0
H2059 H 0.48625 0.57813 0.92135 0.0
H2060 H 0.46324 0.55862 0.92323 0.0
H2061 H 0.42978 0.57032 0.96575 0.0
H2062 H 0.37096 0.50761 0.97638 0.0
H2063 H 0.38466 0.53303 0.96677 0.0
C2064 C 0.71813 0.75649 0.86333 0.0
C2065 C 0.71338 0.74098 0.85686 0.0
C2066 C 0.71333 0.77117 0.85535 0.0
C2067 C 0.68338 0.78825 0.82503 0.0
H2068 H 0.71853 0.81951 0.81464 0.0
C2069 C 0.68011 0.83324 0.76982 0.0
C2070 C 0.68848 0.84852 0.77071 0.0
C2071 C 0.68085 0.82205 0.78305 0.0
C2072 C 0.70844 0.81116 0.81773 0.0
H2073 H 0.69956 0.72864 0.83728 0.0
H2074 H 0.69119 0.7542 0.8234 0.0
H2075 H 0.72424 0.7962 0.83302 0.0
H2076 H 0.70324 0.86459 0.78653 0.0
H2077 H 0.70423 0.84519 0.80981 0.0
H2078 H 0.66765 0.80301 0.80948 0.0
C2079 C 0.69853 0.75505 0.83466 0.0
C2080 C 0.71175 0.79776 0.82824 0.0
C2081 C 0.70344 0.74041 0.84253 0.0
C2082 C 0.69677 0.85283 0.78545 0.0
C2083 C 0.69743 0.84167 0.79874 0.0
C2084 C 0.68003 0.80172 0.8146 0.0
C2085 C 0.70355 0.77057 0.84089 0.0
C2086 C 0.69938 0.78594 0.83164 0.0
C2087 C 0.68988 0.82595 0.79751 0.0
C2088 C 0.69264 0.81308 0.81047 0.0
H2089 H 0.72576 0.75727 0.8744 0.0
H2090 H 0.71731 0.78298 0.86045 0.0
H2091 H 0.67354 0.77945 0.82766 0.0
H2092 H 0.67363 0.82958 0.7586 0.0
H2093 H 0.67504 0.81 0.78156 0.0
C2094 C 0.51192 0.45141 0.08682 0.0
C2095 C 0.50995 0.46179 0.1007 0.0
C2096 C 0.49811 0.44582 0.07797 0.0
C2097 C 0.45207 0.44178 0.07991 0.0
H2098 H 0.45606 0.44193 0.03189 0.0
C2099 C 0.39676 0.44472 0.03425 0.0
C2100 C 0.39803 0.43595 0.0192 0.0
C2101 C 0.40985 0.44459 0.04563 0.0
C2102 C 0.45481 0.44152 0.04529 0.0
H2103 H 0.492 0.47428 0.11641 0.0
H2104 H 0.4678 0.46498 0.10061 0.0
H2105 H 0.48011 0.44862 0.04883 0.0
H2106 H 0.41348 0.41927 0.00475 0.0
H2107 H 0.43641 0.41906 0.02466 0.0
H2108 H 0.42647 0.43533 0.07615 0.0
C2109 C 0.48001 0.46084 0.09676 0.0
C2110 C 0.46862 0.44535 0.05503 0.0
C2111 C 0.49386 0.46629 0.10574 0.0
C2112 C 0.41219 0.4262 0.01622 0.0
C2113 C 0.42534 0.42615 0.02756 0.0
C2114 C 0.43819 0.43807 0.07012 0.0
C2115 C 0.48198 0.45065 0.08267 0.0
C2116 C 0.4674 0.44568 0.07246 0.0
C2117 C 0.4245 0.43576 0.04213 0.0
C2118 C 0.43941 0.43804 0.0527 0.0
H2119 H 0.52418 0.44758 0.08277 0.0
H2120 H 0.50009 0.43772 0.0674 0.0
H2121 H 0.45076 0.44166 0.0933 0.0
H2122 H 0.38596 0.45231 0.0369 0.0
H2123 H 0.40889 0.45218 0.05671 0.0
C2124 C 0.78051 0.23706 0.36167 0.0
C2125 C 0.78504 0.25284 0.35575 0.0
C2126 C 0.78571 0.22273 0.35334 0.0
C2127 C 0.81571 0.2071 0.32206 0.0
H2128 H 0.781 0.17521 0.31203 0.0
C2129 C 0.81781 0.16325 0.26576 0.0
C2130 C 0.81004 0.14766 0.26681 0.0
C2131 C 0.81738 0.1742 0.27922 0.0
C2132 C 0.79097 0.18375 0.315 0.0
H2133 H 0.79896 0.26604 0.33683 0.0
H2134 H 0.80792 0.24107 0.32223 0.0
H2135 H 0.77527 0.19803 0.33097 0.0
H2136 H 0.79671 0.13082 0.28308 0.0
H2137 H 0.79617 0.14987 0.30669 0.0
H2138 H 0.83127 0.19304 0.30569 0.0
C2139 C 0.8005 0.23972 0.33337 0.0
C2140 C 0.78766 0.19687 0.32585 0.0
C2141 C 0.79525 0.25403 0.34166 0.0
C2142 C 0.80269 0.14283 0.28188 0.0
C2143 C 0.8023 0.15377 0.29537 0.0
C2144 C 0.81904 0.19393 0.31123 0.0
C2145 C 0.7956 0.22392 0.33899 0.0
C2146 C 0.79986 0.20891 0.32919 0.0
C2147 C 0.80922 0.16976 0.29402 0.0
C2148 C 0.80658 0.18234 0.30727 0.0
H2149 H 0.7727 0.23578 0.37255 0.0
H2150 H 0.78186 0.21071 0.35803 0.0
H2151 H 0.82544 0.21605 0.32462 0.0
H2152 H 0.82358 0.1673 0.2543 0.0
H2153 H 0.82268 0.18647 0.27767 0.0
C2154 C 0.98151 0.54236 0.58576 0.0
C2155 C 0.98385 0.53244 0.59991 0.0
C2156 C 0.99512 0.54832 0.57685 0.0
C2157 C 0.04091 0.55453 0.57909 0.0
H2158 H 0.0373 0.55353 0.53105 0.0
C2159 C 0.09656 0.55361 0.53375 0.0
C2160 C 0.09493 0.56212 0.5186 0.0
C2161 C 0.08344 0.5533 0.5451 0.0
C2162 C 0.03842 0.55418 0.54445 0.0
H2163 H 0.00223 0.52108 0.61598 0.0
H2164 H 0.02609 0.53101 0.60008 0.0
H2165 H 0.01348 0.5459 0.5479 0.0
H2166 H 0.07879 0.57796 0.50394 0.0
H2167 H 0.05584 0.57739 0.52378 0.0
H2168 H 0.06619 0.56217 0.57545 0.0
C2169 C 0.01374 0.53453 0.59606 0.0
C2170 C 0.02475 0.5498 0.55414 0.0
C2171 C 8e-05 0.52871 0.6051 0.0
C2172 C 0.08037 0.57124 0.51549 0.0
C2173 C 0.06721 0.57083 0.52679 0.0
C2174 C 0.05467 0.55878 0.56936 0.0
C2175 C 0.01141 0.54432 0.58176 0.0
C2176 C 0.02584 0.54978 0.57158 0.0
C2177 C 0.06842 0.56142 0.54145 0.0
C2178 C 0.05358 0.55852 0.55194 0.0
H2179 H 0.96912 0.5456 0.58159 0.0
H2180 H 0.99286 0.55609 0.5661 0.0
H2181 H 0.0421 0.55491 0.59249 0.0
H2182 H 0.10767 0.54652 0.53649 0.0
H2183 H 0.08471 0.54588 0.55625 0.0
C2184 C 0.71342 0.24243 0.63882 0.0
C2185 C 0.70772 0.25853 0.64239 0.0
C2186 C 0.70719 0.22877 0.64755 0.0
C2187 C 0.68748 0.21849 0.68748 0.0
H2188 H 0.6822 0.17501 0.66734 0.0
C2189 C 0.67113 0.16183 0.72733 0.0
C2190 C 0.68206 0.14841 0.72509 0.0
C2191 C 0.67043 0.17462 0.7156 0.0
C2192 C 0.68358 0.1871 0.67312 0.0
H2193 H 0.69061 0.27294 0.65741 0.0
H2194 H 0.67954 0.2491 0.67246 0.0
H2195 H 0.68843 0.19902 0.64983 0.0
H2196 H 0.6999 0.13719 0.7083 0.0
H2197 H 0.69874 0.15948 0.68789 0.0
H2198 H 0.68306 0.20657 0.71077 0.0
C2199 C 0.68905 0.24703 0.66316 0.0
C2200 C 0.68721 0.20083 0.66311 0.0
C2201 C 0.69534 0.26068 0.6545 0.0
C2202 C 0.6914 0.14743 0.71039 0.0
C2203 C 0.69066 0.16016 0.69864 0.0
C2204 C 0.68379 0.2048 0.69745 0.0
C2205 C 0.69508 0.23094 0.65997 0.0
C2206 C 0.68954 0.21663 0.67023 0.0
C2207 C 0.68059 0.17416 0.70138 0.0
C2208 C 0.68214 0.1889 0.69043 0.0
H2209 H 0.72296 0.24042 0.62954 0.0
H2210 H 0.71228 0.21659 0.64493 0.0
H2211 H 0.68944 0.23041 0.69342 0.0
H2212 H 0.66373 0.16288 0.73852 0.0
H2213 H 0.66238 0.18516 0.71792 0.0
C2214 C 0.09956 0.44276 0.96182 0.0
C2215 C 0.09547 0.43525 0.97703 0.0
C2216 C 0.08783 0.44376 0.94909 0.0
C2217 C 0.04606 0.42903 0.93548 0.0
H2218 H 0.04327 0.47308 0.91613 0.0
C2219 C 0.98631 0.45535 0.90611 0.0
C2220 C 0.98776 0.46532 0.89186 0.0
C2221 C 0.00048 0.44969 0.91436 0.0
C2222 C 0.04403 0.46062 0.92116 0.0
H2223 H 0.07627 0.42205 0.99053 0.0
H2224 H 0.05564 0.4241 0.96845 0.0
H2225 H 0.06649 0.46617 0.93413 0.0
H2226 H 0.00514 0.47685 0.87481 0.0
H2227 H 0.02995 0.46697 0.88928 0.0
H2228 H 0.02318 0.42377 0.9229 0.0
C2229 C 0.06796 0.42902 0.96622 0.0
C2230 C 0.05738 0.45662 0.93148 0.0
C2231 C 0.07976 0.4279 0.97892 0.0
C2232 C 0.00365 0.46926 0.88583 0.0
C2233 C 0.01784 0.46364 0.89412 0.0
C2234 C 0.03265 0.43307 0.92519 0.0
C2235 C 0.0717 0.43741 0.95135 0.0
C2236 C 0.05843 0.44087 0.93898 0.0
C2237 C 0.0164 0.45392 0.90857 0.0
C2238 C 0.03136 0.449 0.91815 0.0
H2239 H 0.11165 0.44839 0.95996 0.0
H2240 H 0.09123 0.44998 0.93765 0.0
H2241 H 0.04662 0.41671 0.94086 0.0
H2242 H 0.97421 0.45209 0.91103 0.0
H2243 H -0.00105 0.44241 0.92558 0.0
C2244 C 0.81374 0.8308 0.2278 0.0
C2245 C 0.80643 0.84622 0.22419 0.0
C2246 C 0.81375 0.8181 0.21595 0.0
C2247 C 0.78947 0.80473 0.17955 0.0
H2248 H 0.82326 0.77051 0.17653 0.0
C2249 C 0.78248 0.7483 0.13592 0.0
C2250 C 0.78562 0.73283 0.14337 0.0
C2251 C 0.787 0.76301 0.14398 0.0
C2252 C 0.81373 0.77999 0.17727 0.0
H2253 H 0.79449 0.86091 0.20503 0.0
H2254 H 0.79492 0.83894 0.18418 0.0
H2255 H 0.82834 0.79516 0.19354 0.0
H2256 H 0.7963 0.72057 0.16485 0.0
H2257 H 0.80415 0.74624 0.17894 0.0
H2258 H 0.77478 0.78947 0.16349 0.0
C2259 C 0.80021 0.83644 0.1963 0.0
C2260 C 0.81661 0.79408 0.18702 0.0
C2261 C 0.80006 0.84907 0.2082 0.0
C2262 C 0.79369 0.73232 0.15883 0.0
C2263 C 0.7983 0.74701 0.16684 0.0
C2264 C 0.78665 0.79071 0.16974 0.0
C2265 C 0.80656 0.82063 0.2002 0.0
C2266 C 0.80439 0.80649 0.1885 0.0
C2267 C 0.79485 0.76251 0.15958 0.0
C2268 C 0.79861 0.77806 0.16873 0.0
H2269 H 0.81871 0.82825 0.24005 0.0
H2270 H 0.81861 0.80606 0.21946 0.0
H2271 H 0.77964 0.81385 0.18063 0.0
H2272 H 0.77633 0.74905 0.12396 0.0
H2273 H 0.78431 0.77478 0.13804 0.0
C2274 C 0.41075 0.56965 0.47587 0.0
C2275 C 0.39547 0.56127 0.47502 0.0
C2276 C 0.42209 0.56855 0.46278 0.0
C2277 C 0.4331 0.5398 0.42905 0.0
H2278 H 0.46577 0.57374 0.41889 0.0
C2279 C 0.48812 0.52814 0.38431 0.0
C2280 C 0.50366 0.53263 0.39088 0.0
C2281 C 0.47347 0.53333 0.3921 0.0
C2282 C 0.45669 0.56417 0.42159 0.0
H2283 H 0.37949 0.54626 0.45936 0.0
H2284 H 0.3991 0.5447 0.4363 0.0
H2285 H 0.44199 0.58061 0.43644 0.0
H2286 H 0.51612 0.54633 0.41047 0.0
H2287 H 0.49059 0.5554 0.42401 0.0
H2288 H 0.44798 0.52331 0.41442 0.0
C2289 C 0.40254 0.55173 0.44725 0.0
C2290 C 0.4431 0.56808 0.43166 0.0
C2291 C 0.39126 0.55272 0.4604 0.0
C2292 C 0.50431 0.54264 0.40516 0.0
C2293 C 0.4897 0.54796 0.41283 0.0
C2294 C 0.44661 0.53595 0.41888 0.0
C2295 C 0.41832 0.55916 0.44851 0.0
C2296 C 0.43137 0.55582 0.43587 0.0
C2297 C 0.47414 0.54325 0.40646 0.0
C2298 C 0.45876 0.54797 0.4154 0.0
H2299 H 0.41434 0.57632 0.487 0.0
H2300 H 0.43416 0.5743 0.46429 0.0
H2301 H 0.42449 0.52997 0.43223 0.0
H2302 H 0.48728 0.52047 0.37328 0.0
H2303 H 0.46163 0.52958 0.3869 0.0
C2304 C 0.78476 0.69476 0.85176 0.0
C2305 C 0.76925 0.68755 0.84829 0.0
C2306 C 0.79719 0.69509 0.83965 0.0
C2307 C 0.80885 0.67872 0.79785 0.0
H2308 H 0.82973 0.72191 0.79311 0.0
C2309 C 0.83541 0.70294 0.7361 0.0
C2310 C 0.85058 0.71156 0.7365 0.0
C2311 C 0.82767 0.69813 0.75084 0.0
C2312 C 0.82422 0.70969 0.79441 0.0
H2313 H 0.75486 0.67421 0.82982 0.0
H2314 H 0.77633 0.67511 0.80858 0.0
H2315 H 0.81259 0.71622 0.81733 0.0
H2316 H 0.86965 0.72178 0.75257 0.0
H2317 H 0.85596 0.71352 0.77842 0.0
H2318 H 0.81997 0.67255 0.77446 0.0
C2319 C 0.77908 0.68029 0.82069 0.0
C2320 C 0.81444 0.70638 0.80833 0.0
C2321 C 0.76671 0.67985 0.83285 0.0
C2322 C 0.85793 0.71519 0.75191 0.0
C2323 C 0.8501 0.7105 0.76668 0.0
C2324 C 0.81854 0.68209 0.78385 0.0
C2325 C 0.7943 0.68833 0.82379 0.0
C2326 C 0.80636 0.69097 0.81007 0.0
C2327 C 0.83488 0.70195 0.76628 0.0
C2328 C 0.82606 0.69772 0.78186 0.0
H2329 H 0.7871 0.70067 0.86363 0.0
H2330 H 0.80889 0.70107 0.84256 0.0
H2331 H 0.80305 0.66662 0.79894 0.0
H2332 H 0.82948 0.69995 0.72439 0.0
H2333 H 0.81582 0.69176 0.75017 0.0
C2334 C 0.56834 0.51896 0.08249 0.0
C2335 C 0.56015 0.52043 0.09782 0.0
C2336 C 0.56715 0.5316 0.07067 0.0
C2337 C 0.53829 0.56489 0.05876 0.0
H2338 H 0.57183 0.57405 0.02541 0.0
C2339 C 0.5263 0.60857 0.00298 0.0
C2340 C 0.53083 0.60191 0.9875 0.0
C2341 C 0.53143 0.60087 0.01769 0.0
C2342 C 0.56236 0.57161 0.03466 0.0
H2343 H 0.54545 0.53679 0.11337 0.0
H2344 H 0.54375 0.55908 0.09292 0.0
H2345 H 0.57897 0.55719 0.0496 0.0
H2346 H 0.54446 0.58216 0.97521 0.0
H2347 H 0.55338 0.56874 0.00085 0.0
H2348 H 0.52163 0.57909 0.04366 0.0
C2349 C 0.55068 0.54797 0.08982 0.0
C2350 C 0.56643 0.56195 0.04849 0.0
C2351 C 0.55175 0.53526 0.10158 0.0
C2352 C 0.54074 0.58755 0.98697 0.0
C2353 C 0.54597 0.57995 0.00165 0.0
C2354 C 0.53427 0.57465 0.045 0.0
C2355 C 0.55787 0.54604 0.074 0.0
C2356 C 0.55433 0.55815 0.06051 0.0
C2357 C 0.54131 0.58648 0.01715 0.0
C2358 C 0.54615 0.57778 0.03262 0.0
H2359 H 0.57489 0.50765 0.07925 0.0
H2360 H 0.57272 0.5296 0.05859 0.0
H2361 H 0.52857 0.56201 0.0676 0.0
H2362 H 0.51871 0.61967 0.00374 0.0
H2363 H 0.52771 0.6062 0.02948 0.0
C2364 C 0.65789 0.2916 0.23305 0.0
C2365 C 0.64394 0.28135 0.2352 0.0
C2366 C 0.66711 0.29691 0.24673 0.0
C2367 C 0.66618 0.30048 0.29281 0.0
H2368 H 0.71412 0.29998 0.28786 0.0
C2369 C 0.71279 0.29713 0.34729 0.0
C2370 C 0.72778 0.30596 0.34585 0.0
C2371 C 0.70125 0.29722 0.33433 0.0
C2372 C 0.70075 0.30048 0.28937 0.0
H2373 H 0.62852 0.26876 0.25333 0.0
H2374 H 0.64495 0.27759 0.27728 0.0
H2375 H 0.69662 0.29362 0.2641 0.0
H2376 H 0.74204 0.32262 0.33021 0.0
H2377 H 0.72186 0.32274 0.3075 0.0
H2378 H 0.6705 0.30671 0.31837 0.0
C2379 C 0.64857 0.28185 0.26504 0.0
C2380 C 0.69069 0.29683 0.27574 0.0
C2381 C 0.63923 0.27668 0.25133 0.0
C2382 C 0.7306 0.31566 0.33163 0.0
C2383 C 0.71911 0.31565 0.31861 0.0
C2384 C 0.67628 0.30401 0.30652 0.0
C2385 C 0.66272 0.29192 0.26289 0.0
C2386 C 0.67328 0.29664 0.2773 0.0
C2387 C 0.70454 0.30606 0.31965 0.0
C2388 C 0.69367 0.30391 0.30495 0.0
H2389 H 0.6617 0.29556 0.22076 0.0
H2390 H 0.67772 0.30493 0.24463 0.0
H2391 H 0.65281 0.3007 0.29439 0.0
H2392 H 0.71027 0.28958 0.35815 0.0
H2393 H 0.69018 0.28963 0.33545 0.0
C2394 C 0.94478 0.4571 0.60542 0.0
C2395 C 0.93596 0.47136 0.60058 0.0
C2396 C 0.94622 0.44358 0.59461 0.0
C2397 C 0.93085 0.42621 0.55439 0.0
H2398 H 0.9761 0.41 0.55066 0.0
C2399 C 0.95787 0.39892 0.4943 0.0
C2400 C 0.96828 0.38495 0.49537 0.0
C2401 C 0.95213 0.40674 0.50866 0.0
C2402 C 0.96334 0.41415 0.55172 0.0
H2403 H 0.92092 0.48232 0.58112 0.0
H2404 H 0.92372 0.45898 0.56213 0.0
H2405 H 0.96866 0.42834 0.5735 0.0
H2406 H 0.9807 0.36806 0.51228 0.0
H2407 H 0.97083 0.38197 0.53752 0.0
H2408 H 0.92584 0.4126 0.53205 0.0
C2409 C 0.92933 0.45802 0.57432 0.0
C2410 C 0.95903 0.42465 0.56486 0.0
C2411 C 0.92778 0.47148 0.58518 0.0
C2412 C 0.97272 0.37884 0.51111 0.0
C2413 C 0.9671 0.38679 0.52552 0.0
C2414 C 0.93521 0.41582 0.54117 0.0
C2415 C 0.93899 0.44412 0.57871 0.0
C2416 C 0.94283 0.43112 0.56614 0.0
C2417 C 0.95678 0.40084 0.52441 0.0
C2418 C 0.95159 0.41001 0.53951 0.0
H2419 H 0.9511 0.45662 0.61729 0.0
H2420 H 0.95346 0.43293 0.59852 0.0
H2421 H 0.91819 0.43071 0.55517 0.0
H2422 H 0.9542 0.40388 0.48234 0.0
H2423 H 0.94439 0.41768 0.50743 0.0
C2424 C 0.8629 0.27647 0.73949 0.0
C2425 C 0.85663 0.2802 0.75534 0.0
C2426 C 0.85447 0.28175 0.72525 0.0
C2427 C 0.82267 0.31141 0.71031 0.0
H2428 H 0.81408 0.2779 0.67678 0.0
C2429 C 0.76828 0.31533 0.66394 0.0
C2430 C 0.77003 0.30784 0.64828 0.0
C2431 C 0.78118 0.31448 0.67554 0.0
C2432 C 0.81664 0.28756 0.68579 0.0
H2433 H 0.83686 0.29268 0.76876 0.0
H2434 H 0.82213 0.30182 0.74394 0.0
H2435 H 0.83249 0.27152 0.69985 0.0
H2436 H 0.78699 0.29473 0.63197 0.0
H2437 H 0.80966 0.29364 0.65204 0.0
H2438 H 0.80655 0.32736 0.6964 0.0
C2439 C 0.83361 0.29494 0.74249 0.0
C2440 C 0.82718 0.28387 0.69906 0.0
C2441 C 0.84197 0.28958 0.7567 0.0
C2442 C 0.78525 0.30045 0.64403 0.0
C2443 C 0.7982 0.29974 0.65557 0.0
C2444 C 0.81219 0.31515 0.69698 0.0
C2445 C 0.83968 0.29096 0.72661 0.0
C2446 C 0.83003 0.29562 0.71163 0.0
C2447 C 0.79612 0.30625 0.67165 0.0
C2448 C 0.80878 0.30315 0.68474 0.0
H2449 H 0.87422 0.26931 0.73808 0.0
H2450 H 0.85948 0.2786 0.71316 0.0
H2451 H 0.82485 0.32079 0.71972 0.0
H2452 H 0.75666 0.32109 0.66754 0.0
H2453 H 0.77908 0.31951 0.68784 0.0
C2454 C 0.92835 0.52095 0.91518 0.0
C2455 C 0.93456 0.52375 0.89913 0.0
C2456 C 0.92875 0.5336 0.92707 0.0
C2457 C 0.92721 0.56355 0.94987 0.0
H2458 H 0.96846 0.58847 0.94938 0.0
C2459 C 0.94538 0.608 0.00343 0.0
C2460 C 0.9619 0.60653 0.00891 0.0
C2461 C 0.94036 0.60059 0.98852 0.0
C2462 C 0.95688 0.58162 0.94972 0.0
H2463 H 0.94475 0.54228 0.88247 0.0
H2464 H 0.94491 0.56454 0.90301 0.0
H2465 H 0.96177 0.57034 0.92625 0.0
H2466 H 0.98619 0.59652 0.00294 0.0
H2467 H 0.97745 0.58341 0.97719 0.0
H2468 H 0.92292 0.57408 0.97391 0.0
C2469 C 0.94026 0.55245 0.90664 0.0
C2470 C 0.95289 0.57138 0.93631 0.0
C2471 C 0.94007 0.53973 0.89483 0.0
C2472 C 0.97338 0.59791 -0.00098 0.0
C2473 C 0.96838 0.59049 0.98418 0.0
C2474 C 0.93128 0.57372 0.96337 0.0
C2475 C 0.93519 0.54938 0.92308 0.0
C2476 C 0.93819 0.56191 0.93636 0.0
C2477 C 0.95177 0.59157 0.97882 0.0
C2478 C 0.94637 0.58254 0.96363 0.0
H2479 H 0.92406 0.50872 0.91884 0.0
H2480 H 0.92489 0.5307 0.93963 0.0
H2481 H 0.91566 0.55665 0.95021 0.0
H2482 H 0.93627 0.61461 0.0108 0.0
H2483 H 0.92752 0.60181 0.98465 0.0
C2484 C 0.6348 0.71668 0.23878 0.0
C2485 C 0.64086 0.71184 0.25441 0.0
C2486 C 0.64293 0.71162 0.22427 0.0
C2487 C 0.67254 0.68058 0.20795 0.0
H2488 H 0.68421 0.71486 0.1762 0.0
C2489 C 0.72784 0.67487 0.1633 0.0
C2490 C 0.72723 0.68293 0.14785 0.0
C2491 C 0.7146 0.67621 0.17443 0.0
C2492 C 0.68076 0.70502 0.1847 0.0
H2493 H 0.65992 0.69768 0.26717 0.0
H2494 H 0.67406 0.68887 0.2419 0.0
H2495 H 0.66588 0.72153 0.19931 0.0
H2496 H 0.71189 0.69781 0.13144 0.0
H2497 H 0.68859 0.69989 0.15076 0.0
H2498 H 0.68767 0.66414 0.19354 0.0
C2499 C 0.663 0.69646 0.24081 0.0
C2500 C 0.67028 0.70888 0.19798 0.0
C2501 C 0.65499 0.70164 0.25528 0.0
C2502 C 0.71274 0.69155 0.14333 0.0
C2503 C 0.69945 0.69283 0.15443 0.0
C2504 C 0.68293 0.67669 0.19461 0.0
C2505 C 0.65713 0.70149 0.22516 0.0
C2506 C 0.66642 0.69681 0.20997 0.0
C2507 C 0.70043 0.68558 0.1703 0.0
C2508 C 0.68752 0.68897 0.18306 0.0
H2509 H 0.6239 0.72451 0.23776 0.0
H2510 H 0.63811 0.71561 0.21235 0.0
H2511 H 0.66953 0.67097 0.21688 0.0
H2512 H 0.73886 0.66815 0.16713 0.0
H2513 H 0.71589 0.67061 0.1866 0.0
C2514 C 0.56335 0.47641 0.41265 0.0
C2515 C 0.55562 0.47498 0.39708 0.0
C2516 C 0.56248 0.4634 0.42409 0.0
C2517 C 0.53509 0.42849 0.43461 0.0
H2518 H 0.56882 0.41968 0.46788 0.0
C2519 C 0.524 0.38344 0.48945 0.0
C2520 C 0.52829 0.38998 0.50506 0.0
C2521 C 0.5291 0.39145 0.47489 0.0
C2522 C 0.5593 0.42201 0.45865 0.0
H2523 H 0.54195 0.45845 0.38077 0.0
H2524 H 0.54072 0.43557 0.40062 0.0
H2525 H 0.57538 0.43756 0.44426 0.0
H2526 H 0.54151 0.40976 0.51773 0.0
H2527 H 0.55035 0.42372 0.49238 0.0
H2528 H 0.51892 0.41324 0.44919 0.0
C2529 C 0.54711 0.44688 0.40416 0.0
C2530 C 0.56304 0.43225 0.44514 0.0
C2531 C 0.5479 0.45994 0.39275 0.0
C2532 C 0.53799 0.40446 0.50587 0.0
C2533 C 0.54318 0.41237 0.49135 0.0
C2534 C 0.53139 0.41819 0.44806 0.0
C2535 C 0.55394 0.44865 0.42015 0.0
C2536 C 0.55084 0.43595 0.43319 0.0
C2537 C 0.5387 0.40602 0.47572 0.0
C2538 C 0.54332 0.41518 0.46043 0.0
H2539 H 0.56938 0.48787 0.41633 0.0
H2540 H 0.56773 0.46528 0.43634 0.0
H2541 H 0.52531 0.43126 0.42579 0.0
H2542 H 0.51658 0.37225 0.48848 0.0
H2543 H 0.52554 0.38624 0.463 0.0
C2544 C 0.75528 0.85999 0.71589 0.0
C2545 C 0.73965 0.85322 0.71205 0.0
C2546 C 0.76981 0.85216 0.71044 0.0
C2547 C 0.7857 0.82177 0.6799 0.0
H2548 H 0.8193 0.81262 0.71318 0.0
C2549 C 0.8311 0.76703 0.67536 0.0
C2550 C 0.84676 0.76823 0.68294 0.0
C2551 C 0.81992 0.78027 0.67619 0.0
C2552 C 0.81028 0.81537 0.70358 0.0
H2553 H 0.72691 0.83321 0.69923 0.0
H2554 H 0.75223 0.81957 0.68977 0.0
H2555 H 0.79599 0.83059 0.72006 0.0
H2556 H 0.86354 0.78461 0.69622 0.0
H2557 H 0.84414 0.8079 0.69737 0.0
H2558 H 0.79978 0.80625 0.66353 0.0
C2559 C 0.75328 0.83096 0.69687 0.0
C2560 C 0.79688 0.82565 0.70757 0.0
C2561 C 0.73879 0.83868 0.70243 0.0
C2562 C 0.85148 0.7833 0.69038 0.0
C2563 C 0.84033 0.79659 0.69113 0.0
C2564 C 0.79916 0.81157 0.67587 0.0
C2565 C 0.76894 0.83754 0.70091 0.0
C2566 C 0.78423 0.82857 0.69592 0.0
C2567 C 0.82421 0.79502 0.68454 0.0
C2568 C 0.81137 0.80788 0.68782 0.0
H2569 H 0.75629 0.87122 0.72324 0.0
H2570 H 0.78173 0.85753 0.71367 0.0
H2571 H 0.77624 0.82405 0.6706 0.0
H2572 H 0.82712 0.75556 0.66954 0.0
H2573 H 0.80757 0.77854 0.67111 0.0
C2574 C 0.25174 0.64091 0.27512 0.0
C2575 C 0.23599 0.64364 0.2821 0.0
C2576 C 0.26559 0.64958 0.28103 0.0
C2577 C 0.2763 0.68832 0.30277 0.0
H2578 H 0.32023 0.66866 0.30537 0.0
C2579 C 0.33236 0.72779 0.32162 0.0
C2580 C 0.34597 0.7266 0.31076 0.0
C2581 C 0.31977 0.71584 0.32125 0.0
C2582 C 0.30803 0.67431 0.30469 0.0
H2583 H 0.22243 0.6571 0.30111 0.0
H2584 H 0.2466 0.67206 0.31155 0.0
H2585 H 0.29632 0.65121 0.29848 0.0
H2586 H 0.35767 0.71141 0.29182 0.0
H2587 H 0.33565 0.69065 0.29107 0.0
H2588 H 0.28795 0.71145 0.30855 0.0
C2589 C 0.24824 0.66347 0.30132 0.0
C2590 C 0.29436 0.66434 0.30071 0.0
C2591 C 0.2344 0.65485 0.29538 0.0
C2592 C 0.3473 0.71267 0.30032 0.0
C2593 C 0.33471 0.70073 0.29994 0.0
C2594 C 0.28993 0.69826 0.30676 0.0
C2595 C 0.26395 0.66111 0.29407 0.0
C2596 C 0.27837 0.67129 0.29948 0.0
C2597 C 0.32055 0.70248 0.31001 0.0
C2598 C 0.30598 0.69143 0.30755 0.0
H2599 H 0.25332 0.63232 0.26487 0.0
H2600 H 0.27748 0.64761 0.27504 0.0
H2601 H 0.26421 0.69415 0.30165 0.0
H2602 H 0.33106 0.73835 0.32988 0.0
H2603 H 0.30915 0.71737 0.32937 0.0
C2604 C 0.51442 0.07877 0.57314 0.0
C2605 C 0.51751 0.0949 0.56728 0.0
C2606 C 0.52691 0.06672 0.57262 0.0
C2607 C 0.56406 0.05725 0.54798 0.0
H2608 H 0.56712 0.01943 0.57765 0.0
C2609 C 0.60752 0.00163 0.53484 0.0
C2610 C 0.59996 0.98597 0.53635 0.0
C2611 C 0.59951 0.01586 0.54078 0.0
C2612 C 0.56639 0.02993 0.56927 0.0
H2613 H 0.5364 0.11154 0.55768 0.0
H2614 H 0.55833 0.09064 0.55719 0.0
H2615 H 0.54994 0.04322 0.58541 0.0
H2616 H 0.57825 0.97284 0.54545 0.0
H2617 H 0.56426 -0.00234 0.55574 0.0
H2618 H 0.58022 0.04382 0.5317 0.0
C2619 C 0.54616 0.08713 0.56173 0.0
C2620 C 0.55656 0.04354 0.5737 0.0
C2621 C 0.53363 0.09914 0.56213 0.0
C2622 C 0.58435 0.98476 0.54407 0.0
C2623 C 0.57642 -0.00105 0.55011 0.0
C2624 C 0.57395 0.04369 0.54361 0.0
C2625 C 0.54276 0.07063 0.56634 0.0
C2626 C 0.55497 0.0572 0.56292 0.0
C2627 C 0.58387 0.01465 0.54846 0.0
C2628 C 0.57491 0.02974 0.55403 0.0
H2629 H 0.5021 0.07515 0.57717 0.0
H2630 H 0.5238 0.05412 0.57616 0.0
H2631 H 0.56291 0.0674 0.53922 0.0
H2632 H 0.61958 0.00291 0.529 0.0
H2633 H 0.60558 0.0278 0.53942 0.0
C2634 C 0.26113 0.34069 0.79146 0.0
C2635 C 0.25912 0.3526 0.77887 0.0
C2636 C 0.24754 0.33159 0.79721 0.0
C2637 C 0.20142 0.33028 0.79778 0.0
H2638 H 0.20879 0.28322 0.80507 0.0
C2639 C 0.14909 0.28097 0.80171 0.0
C2640 C 0.15141 0.26748 0.81254 0.0
C2641 C 0.16144 0.29306 0.79995 0.0
C2642 C 0.20656 0.29639 0.80339 0.0
H2643 H 0.24129 0.36456 0.76261 0.0
H2644 H 0.21753 0.34837 0.7724 0.0
H2645 H 0.23192 0.30082 0.797 0.0
H2646 H 0.1679 0.25669 0.83092 0.0
H2647 H 0.18938 0.27789 0.82799 0.0
H2648 H 0.17587 0.3256 0.80376 0.0
C2649 C 0.22957 0.34625 0.77803 0.0
C2650 C 0.21984 0.3065 0.79873 0.0
C2651 C 0.24319 0.35545 0.77233 0.0
C2652 C 0.16581 0.26689 0.82239 0.0
C2653 C 0.17815 0.27896 0.82063 0.0
C2654 C 0.18808 0.32011 0.80238 0.0
C2655 C 0.23163 0.33409 0.79042 0.0
C2656 C 0.21745 0.32356 0.79582 0.0
C2657 C 0.17634 0.29186 0.80899 0.0
C2658 C 0.19052 0.30304 0.80518 0.0
H2659 H 0.27324 0.33833 0.79685 0.0
H2660 H 0.24952 0.32255 0.80698 0.0
H2661 H 0.1992 0.34341 0.79583 0.0
H2662 H 0.13811 0.28176 0.79396 0.0
H2663 H 0.15971 0.30281 0.79083 0.0
C2664 C 0.3884 0.49511 0.52879 0.0
C2665 C 0.39349 0.51105 0.53375 0.0
C2666 C 0.39723 0.48107 0.53399 0.0
C2667 C 0.43871 0.46905 0.54969 0.0
H2668 H 0.41717 0.42694 0.55897 0.0
C2669 C 0.47687 0.41252 0.56946 0.0
C2670 C 0.47412 0.39836 0.55963 0.0
C2671 C 0.46554 0.42566 0.56926 0.0
C2672 C 0.42332 0.43865 0.55643 0.0
H2673 H 0.41138 0.52482 0.54848 0.0
H2674 H 0.42649 0.5004 0.55788 0.0
H2675 H 0.40027 0.4514 0.55262 0.0
H2676 H 0.45679 0.38628 0.54288 0.0
H2677 H 0.43698 0.40923 0.54257 0.0
H2678 H 0.46172 0.45634 0.55336 0.0
C2679 C 0.41599 0.49868 0.54962 0.0
C2680 C 0.41367 0.45262 0.55271 0.0
C2681 C 0.40729 0.51269 0.5443 0.0
C2682 C 0.45926 0.39708 0.55054 0.0
C2683 C 0.44788 0.41018 0.55041 0.0
C2684 C 0.44831 0.45516 0.55354 0.0
C2685 C 0.41123 0.48271 0.54436 0.0
C2686 C 0.42128 0.46796 0.54913 0.0
C2687 C 0.45121 0.42484 0.55931 0.0
C2688 C 0.44074 0.43978 0.55679 0.0
H2689 H 0.37779 0.49351 0.52066 0.0
H2690 H 0.39334 0.46899 0.52953 0.0
H2691 H 0.44503 0.48054 0.54666 0.0
H2692 H 0.48818 0.41382 0.57665 0.0
H2693 H 0.46829 0.43673 0.57642 0.0
C2694 C 0.65973 0.22377 0.17616 0.0
C2695 C 0.64494 0.22284 0.18536 0.0
C2696 C 0.67142 0.21098 0.17703 0.0
C2697 C 0.68483 0.17868 0.20627 0.0
H2698 H 0.71569 0.16767 0.17095 0.0
C2699 C 0.74128 0.1355 0.21671 0.0
C2700 C 0.7564 0.14186 0.21075 0.0
C2701 C 0.72623 0.14288 0.21212 0.0
C2702 C 0.70714 0.17063 0.18092 0.0
H2703 H 0.63015 0.20727 0.20162 0.0
H2704 H 0.65039 0.18473 0.20283 0.0
H2705 H 0.6912 0.18451 0.16477 0.0
H2706 H 0.76767 0.16069 0.19511 0.0
H2707 H 0.74145 0.17358 0.18716 0.0
H2708 H 0.70095 0.16508 0.22247 0.0
C2709 C 0.65317 0.19553 0.1953 0.0
C2710 C 0.69314 0.18027 0.1774 0.0
C2711 C 0.64153 0.20838 0.19452 0.0
C2712 C 0.75621 0.15554 0.19993 0.0
C2713 C 0.74119 0.16283 0.19525 0.0
C2714 C 0.69877 0.16895 0.20976 0.0
C2715 C 0.6685 0.19694 0.18703 0.0
C2716 C 0.68204 0.18476 0.19012 0.0
C2717 C 0.72605 0.15665 0.20138 0.0
C2718 C 0.71027 0.16518 0.19721 0.0
H2719 H 0.6627 0.23478 0.169 0.0
H2720 H 0.68314 0.21257 0.17062 0.0
H2721 H 0.67671 0.18209 0.21645 0.0
H2722 H 0.74107 0.12491 0.22502 0.0
H2723 H 0.71473 0.13782 0.21696 0.0
C2724 C 0.61045 0.99036 0.96364 0.0
C2725 C 0.6067 0.00669 0.9588 0.0
C2726 C 0.60123 0.97702 0.95742 0.0
C2727 C 0.55996 0.96804 0.93977 0.0
H2728 H 0.57873 0.92417 0.93295 0.0
C2729 C 0.51835 0.91215 0.92426 0.0
C2730 C 0.52077 0.89855 0.93493 0.0
C2731 C 0.53016 0.92486 0.92345 0.0
C2732 C 0.57334 0.93637 0.93476 0.0
H2733 H 0.59095 0.02185 0.94306 0.0
H2734 H 0.5751 -0.00143 0.93191 0.0
H2735 H 0.59714 0.9477 0.9384 0.0
H2736 H 0.53785 0.88704 0.9523 0.0
H2737 H 0.55846 0.90918 0.95086 0.0
H2738 H 0.53617 0.95668 0.93647 0.0
C2739 C 0.58488 0.99605 0.94081 0.0
C2740 C 0.58386 0.94983 0.93795 0.0
C2741 C 0.59401 0.00939 0.94713 0.0
C2742 C 0.53563 0.89741 0.94401 0.0
C2743 C 0.54748 0.91004 0.9431 0.0
C2744 C 0.54948 0.95462 0.93648 0.0
C2745 C 0.58815 0.97973 0.94612 0.0
C2746 C 0.57726 0.96576 0.94086 0.0
C2747 C 0.54467 0.92412 0.93317 0.0
C2748 C 0.55602 0.93859 0.93431 0.0
H2749 H 0.62017 0.98792 0.97264 0.0
H2750 H 0.60396 0.96465 0.96196 0.0
H2751 H 0.55441 0.98005 0.9422 0.0
H2752 H 0.50702 0.91332 0.91708 0.0
H2753 H 0.52776 0.9355 0.91556 0.0
C2754 C 0.97654 0.08115 0.42445 0.0
C2755 C 0.97701 0.09645 0.43282 0.0
C2756 C 0.9628 0.07068 0.42608 0.0
C2757 C 0.92978 0.06172 0.45623 0.0
H2758 H 0.91605 0.0299 0.42274 0.0
C2759 C 0.88313 0.00885 0.47023 0.0
C2760 C 0.88871 0.99307 0.46526 0.0
C2761 C 0.89123 0.02318 0.46463 0.0
C2762 C 0.91973 0.03875 0.43219 0.0
H2763 H 0.96301 0.11339 0.44841 0.0
H2764 H 0.93882 0.09528 0.45094 0.0
H2765 H 0.93462 0.05265 0.41509 0.0
H2766 H 0.90681 0.97987 0.45027 0.0
H2767 H 0.92089 0.00482 0.44052 0.0
H2768 H 0.91518 0.0476 0.47338 0.0
C2769 C 0.94924 0.09116 0.44347 0.0
C2770 C 0.93038 0.05175 0.42783 0.0
C2771 C 0.96304 0.10158 0.44194 0.0
C2772 C 0.90227 0.99187 0.45435 0.0
C2773 C 0.91024 0.00616 0.44864 0.0
C2774 C 0.91904 0.0488 0.46055 0.0
C2775 C 0.94919 0.07535 0.43602 0.0
C2776 C 0.9359 0.06312 0.43991 0.0
C2777 C 0.9049 0.02195 0.45382 0.0
C2778 C 0.91429 0.03692 0.44868 0.0
H2779 H 0.98714 0.07687 0.41735 0.0
H2780 H 0.96329 0.05853 0.4203 0.0
H2781 H 0.93394 0.07008 0.46592 0.0
H2782 H 0.87267 0.01012 0.4786 0.0
H2783 H 0.88683 0.03521 0.46877 0.0
C2784 C 0.06411 0.12567 0.39208 0.0
C2785 C 0.06194 0.11492 0.40561 0.0
C2786 C 0.07928 0.12606 0.3836 0.0
C2787 C 0.12314 0.11762 0.39279 0.0
H2788 H 0.12951 0.13309 0.34763 0.0
C2789 C 0.18667 0.1412 0.37206 0.0
C2790 C 0.18579 0.15741 0.36569 0.0
C2791 C 0.17237 0.13137 0.37295 0.0
C2792 C 0.12792 0.12862 0.36023 0.0
H2793 H 0.0731 0.09501 0.4199 0.0
H2794 H 0.09928 0.0952 0.40473 0.0
H2795 H 0.10201 0.12371 0.35655 0.0
H2796 H 0.16968 0.17559 0.35401 0.0
H2797 H 0.14478 0.15855 0.35567 0.0
H2798 H 0.14878 0.1231 0.39671 0.0
C2799 C 0.0896 0.10379 0.40101 0.0
C2800 C 0.11218 0.12332 0.36536 0.0
C2801 C 0.07459 0.10362 0.40965 0.0
C2802 C 0.17069 0.16317 0.35911 0.0
C2803 C 0.15644 0.15334 0.35992 0.0
C2804 C 0.13883 0.1228 0.38765 0.0
C2805 C 0.09242 0.11553 0.38839 0.0
C2806 C 0.10949 0.11828 0.38187 0.0
C2807 C 0.157 0.13757 0.36739 0.0
C2808 C 0.14128 0.12889 0.37149 0.0
H2809 H 0.05451 0.13451 0.38875 0.0
H2810 H 0.08101 0.13536 0.37404 0.0
H2811 H 0.12155 0.11412 0.40568 0.0
H2812 H 0.1982 0.13641 0.37712 0.0
H2813 H 0.17319 0.11919 0.37862 0.0
C2814 C 0.09111 0.93183 0.62643 0.0
C2815 C 0.07432 0.93442 0.63053 0.0
C2816 C 0.09776 0.91574 0.62642 0.0
C2817 C 0.08513 0.87167 0.62432 0.0
H2818 H 0.12398 0.86275 0.6514 0.0
C2819 C 0.09352 0.81227 0.66113 0.0
C2820 C 0.1093 0.80507 0.66284 0.0
C2821 C 0.09155 0.82705 0.65237 0.0
C2822 C 0.11337 0.86505 0.64343 0.0
H2823 H 0.05134 0.92227 0.63773 0.0
H2824 H 0.06288 0.89442 0.63771 0.0
H2825 H 0.11634 0.89148 0.64508 0.0
H2826 H 0.13534 0.80727 0.65631 0.0
H2827 H 0.13191 0.83355 0.64116 0.0
H2828 H 0.0816 0.84533 0.62343 0.0
C2829 C 0.07089 0.9047 0.63435 0.0
C2830 C 0.10899 0.88148 0.63984 0.0
C2831 C 0.06433 0.92069 0.63453 0.0
C2832 C 0.12303 0.8126 0.65512 0.0
C2833 C 0.12109 0.82761 0.64653 0.0
C2834 C 0.08948 0.85529 0.62791 0.0
C2835 C 0.08764 0.90202 0.63026 0.0
C2836 C 0.0944 0.88493 0.63089 0.0
C2837 C 0.10534 0.83506 0.64528 0.0
C2838 C 0.10321 0.85186 0.63812 0.0
H2839 H 0.09907 0.94221 0.62327 0.0
H2840 H 0.11073 0.91399 0.62328 0.0
H2841 H 0.074 0.87399 0.6171 0.0
H2842 H 0.08273 0.80669 0.66692 0.0
H2843 H 0.0793 0.83261 0.65183 0.0
C2844 C 0.43199 0.86882 0.90703 0.0
C2845 C 0.43833 0.85735 0.91857 0.0
C2846 C 0.41696 0.86563 0.89885 0.0
C2847 C 0.38915 0.83178 0.88664 0.0
H2848 H 0.35281 0.8629 0.89256 0.0
C2849 C 0.32189 0.81046 0.88595 0.0
C2850 C 0.30954 0.8205 0.87882 0.0
C2851 C 0.33811 0.81624 0.8875 0.0
C2852 C 0.3629 0.85424 0.89045 0.0
H2853 H 0.43427 0.83344 0.93031 0.0
H2854 H 0.40832 0.82775 0.91583 0.0
H2855 H 0.38099 0.87084 0.90087 0.0
H2856 H 0.30445 0.8445 0.8677 0.0
H2857 H 0.33308 0.85469 0.8704 0.0
H2858 H 0.37118 0.81501 0.8766 0.0
C2859 C 0.41486 0.83921 0.91314 0.0
C2860 C 0.37899 0.85879 0.89522 0.0
C2861 C 0.42965 0.84252 0.9215 0.0
C2862 C 0.31375 0.83651 0.87326 0.0
C2863 C 0.33009 0.84234 0.87483 0.0
C2864 C 0.37315 0.82729 0.88175 0.0
C2865 C 0.40831 0.85077 0.90184 0.0
C2866 C 0.39211 0.84734 0.89391 0.0
C2867 C 0.34245 0.8322 0.88192 0.0
C2868 C 0.35973 0.83821 0.88422 0.0
H2869 H 0.43845 0.88038 0.90461 0.0
H2870 H 0.4121 0.87472 0.89019 0.0
H2871 H 0.39913 0.82284 0.88529 0.0
H2872 H 0.31903 0.79809 0.89043 0.0
H2873 H 0.34722 0.80826 0.89339 0.0
C2874 C 0.37322 0.16871 0.17556 0.0
C2875 C 0.3723 0.18383 0.16692 0.0
C2876 C 0.37369 0.15369 0.16696 0.0
C2877 C 0.38775 0.13683 0.12756 0.0
H2878 H 0.37019 0.09609 0.14641 0.0
C2879 C 0.42234 0.07544 0.12442 0.0
C2880 C 0.41365 0.06034 0.12351 0.0
C2881 C 0.41379 0.09045 0.12535 0.0
C2882 C 0.37491 0.10733 0.1407 0.0
H2883 H 0.37044 0.19512 0.14254 0.0
H2884 H 0.37138 0.16871 0.1274 0.0
H2885 H 0.36011 0.12282 0.15645 0.0
H2886 H 0.38921 0.04908 0.12223 0.0
H2887 H 0.37413 0.07551 0.12401 0.0
H2888 H 0.40293 0.12134 0.11217 0.0
C2889 C 0.3718 0.16854 0.14085 0.0
C2890 C 0.36926 0.12265 0.14658 0.0
C2891 C 0.37124 0.18363 0.1495 0.0
C2892 C 0.3962 0.06056 0.12299 0.0
C2893 C 0.38759 0.07565 0.12403 0.0
C2894 C 0.39337 0.12152 0.12165 0.0
C2895 C 0.37328 0.15343 0.14951 0.0
C2896 C 0.3762 0.13754 0.14062 0.0
C2897 C 0.39633 0.09074 0.12544 0.0
C2898 C 0.38758 0.10662 0.12871 0.0
H2899 H 0.37398 0.16847 0.189 0.0
H2900 H 0.37513 0.14232 0.17402 0.0
H2901 H 0.39336 0.14806 0.1227 0.0
H2902 H 0.4358 0.07567 0.12478 0.0
H2903 H 0.4209 0.10179 0.12673 0.0
C2904 C 0.1806 0.83746 0.12528 0.0
C2905 C 0.18894 0.83121 0.11127 0.0
C2906 C 0.16546 0.84587 0.12342 0.0
C2907 C 0.13873 0.86666 0.09228 0.0
H2908 H 0.10186 0.84657 0.11595 0.0
C2909 C 0.07446 0.86085 0.06392 0.0
C2910 C 0.06027 0.86351 0.07371 0.0
C2911 C 0.09021 0.86095 0.07108 0.0
C2912 C 0.11203 0.85261 0.10952 0.0
H2913 H 0.18861 0.82957 0.08439 0.0
H2914 H 0.16249 0.84433 0.08113 0.0
H2915 H 0.13037 0.84017 0.12428 0.0
H2916 H 0.05138 0.8684 0.09866 0.0
H2917 H 0.07916 0.86827 0.11134 0.0
H2918 H 0.12046 0.87838 0.07695 0.0
C2919 C 0.1675 0.84279 0.09353 0.0
C2920 C 0.12834 0.84897 0.1143 0.0
C2921 C 0.1824 0.83421 0.0954 0.0
C2922 C 0.06214 0.8663 0.09085 0.0
C2923 C 0.07798 0.86622 0.09809 0.0
C2924 C 0.12247 0.87028 0.08751 0.0
C2925 C 0.1587 0.84841 0.10751 0.0
C2926 C 0.14182 0.85539 0.10523 0.0
C2927 C 0.09216 0.86362 0.08822 0.0
C2928 C 0.10899 0.8627 0.0956 0.0
H2929 H 0.1854 0.83525 0.13766 0.0
H2930 H 0.1589 0.8501 0.13438 0.0
H2931 H 0.14891 0.87199 0.08526 0.0
H2932 H 0.07342 0.85869 0.05068 0.0
H2933 H 0.10087 0.85857 0.06322 0.0
C2934 C 0.40372 0.93535 0.37001 0.0
C2935 C 0.42096 0.93553 0.36728 0.0
C2936 C 0.39494 0.92033 0.36967 0.0
C2937 C 0.40065 0.87454 0.37095 0.0
H2938 H 0.36339 0.87341 0.34042 0.0
C2939 C 0.37453 0.82739 0.31998 0.0
C2940 C 0.37443 0.8123 0.32873 0.0
C2941 C 0.37581 0.84243 0.32843 0.0
C2942 C 0.37365 0.87355 0.34914 0.0
H2943 H 0.44264 0.9202 0.36263 0.0
H2944 H 0.42742 0.89416 0.36193 0.0
H2945 H 0.37483 0.90011 0.34912 0.0
H2946 H 0.37483 0.80109 0.35321 0.0
H2947 H 0.37728 0.82758 0.3681 0.0
H2948 H 0.40025 0.84799 0.37004 0.0
C2949 C 0.42064 0.9055 0.3645 0.0
C2950 C 0.3801 0.88883 0.35424 0.0
C2951 C 0.42934 0.92046 0.36471 0.0
C2952 C 0.37495 0.81257 0.34617 0.0
C2953 C 0.37637 0.82768 0.35467 0.0
C2954 C 0.39419 0.85926 0.36586 0.0
C2955 C 0.40333 0.90527 0.36678 0.0
C2956 C 0.39415 0.88945 0.36458 0.0
C2957 C 0.3771 0.84275 0.34584 0.0
C2958 C 0.38112 0.85862 0.3543 0.0
H2959 H 0.39697 0.94681 0.37209 0.0
H2960 H 0.3816 0.92049 0.37148 0.0
H2961 H 0.41131 0.87467 0.37916 0.0
H2962 H 0.37405 0.82757 0.30653 0.0
H2963 H 0.37661 0.85378 0.32123 0.0
C2964 C 0.41727 0.1332 0.56471 0.0
C2965 C 0.43047 0.12911 0.57535 0.0
C2966 C 0.4017 0.13701 0.57113 0.0
C2967 C 0.3725 0.13295 0.60449 0.0
H2968 H 0.35739 0.176 0.58888 0.0
C2969 C 0.30878 0.1646 0.62118 0.0
C2970 C 0.30092 0.1723 0.60761 0.0
C2971 C 0.32472 0.1578 0.61936 0.0
C2972 C 0.3614 0.16393 0.5933 0.0
H2973 H 0.43754 0.12488 0.60102 0.0
H2974 H 0.40989 0.13158 0.61234 0.0
H2975 H 0.38537 0.16669 0.58227 0.0
H2976 H 0.30287 0.17785 0.58132 0.0
H2977 H 0.33035 0.16582 0.57811 0.0
H2978 H 0.34813 0.13005 0.61506 0.0
C2979 C 0.41181 0.13184 0.59902 0.0
C2980 C 0.37741 0.15866 0.5896 0.0
C2981 C 0.42756 0.12808 0.59256 0.0
C2982 C 0.30874 0.1722 0.59205 0.0
C2983 C 0.32451 0.16539 0.59023 0.0
C2984 C 0.3563 0.13823 0.60817 0.0
C2985 C 0.39894 0.13677 0.58832 0.0
C2986 C 0.38293 0.14296 0.59471 0.0
C2987 C 0.3329 0.15864 0.60396 0.0
C2988 C 0.35048 0.15356 0.60211 0.0
H2989 H 0.41905 0.13393 0.55139 0.0
H2990 H 0.39187 0.14058 0.56264 0.0
H2991 H 0.37658 0.12078 0.60854 0.0
H2992 H 0.30298 0.16451 0.63332 0.0
H2993 H 0.33092 0.15261 0.63012 0.0
C2994 C 0.11795 0.18353 0.85375 0.0
C2995 C 0.12471 0.18317 0.83767 0.0
C2996 C 0.11575 0.16875 0.86263 0.0
C2997 C 0.12649 0.12395 0.86385 0.0
H2998 H 0.08027 0.11822 0.8761 0.0
C2999 C 0.09427 0.06019 0.86554 0.0
C3000 C 0.08038 0.05799 0.87583 0.0
C3001 C 0.10252 0.07548 0.86515 0.0
C3002 C 0.09333 0.11961 0.87322 0.0
H3003 H 0.1356 0.16739 0.81874 0.0
H3004 H 0.13187 0.14168 0.83423 0.0
H3005 H 0.09026 0.14551 0.86824 0.0
H3006 H 0.06505 0.06939 0.89481 0.0
H3007 H 0.0798 0.0958 0.89466 0.0
H3008 H 0.12945 0.09791 0.86845 0.0
C3009 C 0.12825 0.15329 0.84001 0.0
C3010 C 0.09905 0.13532 0.86868 0.0
C3011 C 0.13025 0.168 0.83108 0.0
C3012 C 0.0756 0.07087 0.88658 0.0
C3013 C 0.084 0.08603 0.88641 0.0
C3014 C 0.1208 0.10822 0.86858 0.0
C3015 C 0.1205 0.15345 0.85564 0.0
C3016 C 0.11554 0.13755 0.86346 0.0
C3017 C 0.09716 0.08876 0.87524 0.0
C3018 C 0.10402 0.10576 0.87282 0.0
H3019 H 0.11361 0.19508 0.85913 0.0
H3020 H 0.10982 0.1692 0.8747 0.0
H3021 H 0.13931 0.12539 0.86002 0.0
H3022 H 0.09818 0.05044 0.85712 0.0
H3023 H 0.11248 0.07714 0.85627 0.0
C3024 C 0.17972 0.38438 0.1743 0.0
C3025 C 0.17034 0.3788 0.18789 0.0
C3026 C 0.17305 0.38418 0.15836 0.0
C3027 C 0.13422 0.38621 0.13555 0.0
H3028 H 0.16351 0.37592 0.09866 0.0
C3029 C 0.11975 0.40221 0.06623 0.0
C3030 C 0.13193 0.41325 0.06034 0.0
C3031 C 0.12236 0.39341 0.08103 0.0
C3032 C 0.15508 0.37857 0.10883 0.0
H3033 H 0.14657 0.36864 0.1955 0.0
H3034 H 0.13472 0.36849 0.16736 0.0
H3035 H 0.17183 0.36865 0.12688 0.0
H3036 H 0.15654 0.4233 0.06476 0.0
H3037 H 0.16124 0.40768 0.0902 0.0
H3038 H 0.11783 0.39685 0.1174 0.0
C3039 C 0.14729 0.37295 0.16917 0.0
C3040 C 0.15986 0.3745 0.12496 0.0
C3041 C 0.15406 0.37304 0.18522 0.0
C3042 C 0.14692 0.41492 0.06908 0.0
C3043 C 0.14966 0.4059 0.08355 0.0
C3044 C 0.12937 0.39019 0.11933 0.0
C3045 C 0.15681 0.37842 0.15558 0.0
C3046 C 0.14987 0.37905 0.13854 0.0
C3047 C 0.13736 0.39523 0.08978 0.0
C3048 C 0.14015 0.38709 0.10597 0.0
H3049 H 0.19229 0.38892 0.17595 0.0
H3050 H 0.18056 0.38886 0.14822 0.0
H3051 H 0.12628 0.38986 0.14579 0.0
H3052 H 0.10806 0.4008 0.0597 0.0
H3053 H 0.11269 0.38529 0.0857 0.0
C3054 C 0.65709 0.12041 0.81574 0.0
C3055 C 0.67317 0.11461 0.8121 0.0
C3056 C 0.65109 0.11998 0.83208 0.0
C3057 C 0.66576 0.11693 0.87556 0.0
H3058 H 0.62363 0.09532 0.88453 0.0
C3059 C 0.65401 0.07713 0.93245 0.0
C3060 C 0.63885 0.07834 0.94096 0.0
C3061 C 0.65665 0.08619 0.91796 0.0
C3062 C 0.63524 0.10175 0.88222 0.0
H3063 H 0.69552 0.1038 0.82264 0.0
H3064 H 0.68511 0.10297 0.85087 0.0
H3065 H 0.63099 0.10263 0.85594 0.0
H3066 H 0.61464 0.09013 0.94127 0.0
H3067 H 0.61914 0.10576 0.9154 0.0
H3068 H 0.67047 0.1151 0.90166 0.0
C3069 C 0.67718 0.10808 0.84126 0.0
C3070 C 0.63945 0.10592 0.86588 0.0
C3071 C 0.68309 0.1084 0.82503 0.0
C3072 C 0.62646 0.08906 0.93493 0.0
C3073 C 0.629 0.09793 0.92017 0.0
C3074 C 0.6616 0.1127 0.89182 0.0
C3075 C 0.66118 0.11393 0.84501 0.0
C3076 C 0.65508 0.11288 0.86234 0.0
C3077 C 0.6441 0.09647 0.91153 0.0
C3078 C 0.64662 0.10444 0.89519 0.0
H3079 H 0.6492 0.12528 0.80599 0.0
H3080 H 0.63868 0.12452 0.83464 0.0
H3081 H 0.67773 0.12263 0.87322 0.0
H3082 H 0.66377 0.06897 0.93687 0.0
H3083 H 0.66832 0.08466 0.91142 0.0
C3084 C 0.8347 0.87831 0.31207 0.0
C3085 C 0.8222 0.88895 0.30608 0.0
C3086 C 0.84273 0.88183 0.32712 0.0
C3087 C 0.85256 0.91607 0.35532 0.0
H3088 H 0.84899 0.8844 0.39147 0.0
C3089 C 0.85129 0.93719 0.4225 0.0
C3090 C 0.85968 0.92804 0.43473 0.0
C3091 C 0.84999 0.93116 0.40635 0.0
C3092 C 0.85043 0.89324 0.38143 0.0
H3093 H 0.80858 0.91173 0.31079 0.0
H3094 H 0.8228 0.91801 0.33673 0.0
H3095 H 0.8413 0.876 0.36322 0.0
H3096 H 0.87318 0.90527 0.43974 0.0
H3097 H 0.87085 0.89459 0.41123 0.0
H3098 H 0.86121 0.93347 0.37341 0.0
C3099 C 0.82634 0.90695 0.32991 0.0
C3100 C 0.84603 0.88843 0.3653 0.0
C3101 C 0.81814 0.90329 0.31513 0.0
C3102 C 0.86663 0.91257 0.43053 0.0
C3103 C 0.86529 0.90647 0.41426 0.0
C3104 C 0.85705 0.92083 0.37134 0.0
C3105 C 0.83863 0.89622 0.3361 0.0
C3106 C 0.84646 0.90003 0.35226 0.0
C3107 C 0.85709 0.91582 0.40198 0.0
C3108 C 0.85537 0.90969 0.38469 0.0
H3109 H 0.838 0.86715 0.30532 0.0
H3110 H 0.85216 0.87338 0.3317 0.0
H3111 H 0.85321 0.92515 0.34539 0.0
H3112 H 0.84572 0.94912 0.42535 0.0
H3113 H 0.84324 0.93848 0.39729 0.0
C3114 C 0.82532 0.1289 0.16681 0.0
C3115 C 0.83233 0.12425 0.18209 0.0
C3116 C 0.83474 0.12831 0.15229 0.0
C3117 C 0.86761 0.10381 0.13462 0.0
H3118 H 0.8636 0.1344 0.0976 0.0
C3119 C 0.88773 0.08293 0.07018 0.0
C3120 C 0.87621 0.08629 0.05753 0.0
C3121 C 0.88699 0.09149 0.08523 0.0
C3122 C 0.86484 0.12572 0.1078 0.0
H3123 H 0.85489 0.11615 0.19438 0.0
H3124 H 0.87136 0.11478 0.1688 0.0
H3125 H 0.8536 0.14262 0.12508 0.0
H3126 H 0.85555 0.10186 0.05017 0.0
H3127 H 0.85367 0.11633 0.07671 0.0
H3128 H 0.87767 0.08644 0.1174 0.0
C3129 C 0.85857 0.11895 0.16813 0.0
C3130 C 0.8592 0.13047 0.12354 0.0
C3131 C 0.84918 0.11974 0.18273 0.0
C3132 C 0.86459 0.09908 0.05976 0.0
C3133 C 0.86361 0.10743 0.07496 0.0
C3134 C 0.87306 0.09898 0.11891 0.0
C3135 C 0.85132 0.12289 0.15273 0.0
C3136 C 0.86011 0.11936 0.13697 0.0
C3137 C 0.87443 0.10331 0.0881 0.0
C3138 C 0.8713 0.10968 0.10517 0.0
H3139 H 0.81238 0.13254 0.16598 0.0
H3140 H 0.82875 0.13122 0.14058 0.0
H3141 H 0.86825 0.09489 0.14469 0.0
H3142 H 0.89698 0.07326 0.06864 0.0
H3143 H 0.89583 0.08832 0.09487 0.0
C3144 C 0.37411 0.59864 0.56217 0.0
C3145 C 0.37097 0.58147 0.56208 0.0
C3146 C 0.37432 0.60744 0.57719 0.0
C3147 C 0.37566 0.60153 0.62309 0.0
H3148 H 0.34609 0.63953 0.62425 0.0
C3149 C 0.34865 0.62449 0.68489 0.0
C3150 C 0.33123 0.62549 0.68426 0.0
C3151 C 0.35793 0.624 0.67018 0.0
C3152 C 0.35454 0.62905 0.62413 0.0
H3153 H 0.36618 0.55993 0.57756 0.0
H3154 H 0.36634 0.57516 0.60353 0.0
H3155 H 0.355 0.62834 0.59757 0.0
H3156 H 0.30993 0.62781 0.66791 0.0
H3157 H 0.32594 0.62672 0.64244 0.0
H3158 H 0.37407 0.60133 0.64957 0.0
C3159 C 0.36887 0.58189 0.59215 0.0
C3160 C 0.35978 0.62274 0.60883 0.0
C3161 C 0.36858 0.57317 0.57722 0.0
C3162 C 0.32334 0.62692 0.66878 0.0
C3163 C 0.33256 0.6265 0.65415 0.0
C3164 C 0.37035 0.60778 0.63837 0.0
C3165 C 0.37154 0.59915 0.59233 0.0
C3166 C 0.36969 0.60838 0.60817 0.0
C3167 C 0.34992 0.62461 0.65464 0.0
C3168 C 0.35904 0.62107 0.63901 0.0
H3169 H 0.37608 0.60532 0.55065 0.0
H3170 H 0.37643 0.62073 0.57696 0.0
H3171 H 0.38359 0.59066 0.62295 0.0
H3172 H 0.35504 0.62347 0.69669 0.0
H3173 H 0.3713 0.62264 0.67095 0.0
C3174 C 0.15248 0.62326 0.31055 0.0
C3175 C 0.16368 0.61136 0.3044 0.0
C3176 C 0.14381 0.62029 0.32536 0.0
C3177 C 0.13022 0.5869 0.35323 0.0
H3178 H 0.13995 0.61679 0.3898 0.0
C3179 C 0.13539 0.56375 0.41944 0.0
C3180 C 0.12925 0.57331 0.43267 0.0
C3181 C 0.13546 0.57005 0.40335 0.0
C3182 C 0.13675 0.60852 0.37967 0.0
H3183 H 0.17414 0.58685 0.30834 0.0
H3184 H 0.15879 0.58152 0.33383 0.0
H3185 H 0.1468 0.62505 0.36134 0.0
H3186 H 0.11841 0.59702 0.43948 0.0
H3187 H 0.11868 0.6082 0.41109 0.0
H3188 H 0.12083 0.57007 0.37148 0.0
C3189 C 0.15675 0.59315 0.32737 0.0
C3190 C 0.14065 0.61326 0.36341 0.0
C3191 C 0.16561 0.59625 0.31286 0.0
C3192 C 0.12324 0.5894 0.42949 0.0
C3193 C 0.12339 0.59578 0.41329 0.0
C3194 C 0.12624 0.58222 0.36941 0.0
C3195 C 0.14596 0.6052 0.33388 0.0
C3196 C 0.13809 0.60216 0.35018 0.0
C3197 C 0.1294 0.58609 0.40005 0.0
C3198 C 0.13019 0.59264 0.38287 0.0
H3199 H 0.15085 0.63504 0.30423 0.0
H3200 H 0.13558 0.62976 0.33022 0.0
H3201 H 0.12796 0.57823 0.34318 0.0
H3202 H 0.14015 0.55132 0.42148 0.0
H3203 H 0.14054 0.56242 0.39349 0.0
C3204 C 0.36963 0.41021 0.92933 0.0
C3205 C 0.36215 0.42548 0.93334 0.0
C3206 C 0.36908 0.40418 0.913 0.0
C3207 C 0.36246 0.41864 0.86991 0.0
H3208 H 0.34698 0.37389 0.86089 0.0
C3209 C 0.32434 0.40185 0.81318 0.0
C3210 C 0.32828 0.38756 0.80401 0.0
C3211 C 0.3326 0.40534 0.82795 0.0
C3212 C 0.35168 0.38628 0.86322 0.0
H3213 H 0.34805 0.44627 0.92354 0.0
H3214 H 0.34697 0.43577 0.89533 0.0
H3215 H 0.35375 0.38204 0.88945 0.0
H3216 H 0.34396 0.36569 0.80298 0.0
H3217 H 0.35824 0.37162 0.82939 0.0
H3218 H 0.35945 0.4232 0.8439 0.0
C3219 C 0.35352 0.42855 0.90462 0.0
C3220 C 0.35554 0.39095 0.87953 0.0
C3221 C 0.35401 0.43451 0.92084 0.0
C3222 C 0.34077 0.37683 0.80983 0.0
C3223 C 0.34887 0.38017 0.82489 0.0
C3224 C 0.35853 0.41401 0.85371 0.0
C3225 C 0.36117 0.41343 0.90046 0.0
C3226 C 0.36029 0.40739 0.88309 0.0
C3227 C 0.34482 0.39449 0.83403 0.0
C3228 C 0.35249 0.39801 0.85032 0.0
H3229 H 0.376 0.40301 0.93875 0.0
H3230 H 0.37504 0.39246 0.91012 0.0
H3231 H 0.36648 0.43127 0.87225 0.0
H3232 H 0.31479 0.41036 0.80896 0.0
H3233 H 0.3291 0.41634 0.83489 0.0
C3234 C 0.56037 0.62524 0.89771 0.0
C3235 C 0.56044 0.62282 0.91499 0.0
C3236 C 0.57537 0.62691 0.88906 0.0
C3237 C 0.60723 0.64494 0.87938 0.0
H3238 H 0.64787 0.62293 0.89311 0.0
C3239 C 0.66929 0.67853 0.88273 0.0
C3240 C 0.68407 0.67014 0.87883 0.0
C3241 C 0.65415 0.67013 0.88263 0.0
C3242 C 0.63665 0.629 0.88883 0.0
H3243 H 0.5761 0.61916 0.93662 0.0
H3244 H 0.60209 0.62218 0.92168 0.0
H3245 H 0.62106 0.61108 0.90079 0.0
H3246 H 0.69463 0.64647 0.87145 0.0
H3247 H 0.66801 0.63166 0.87145 0.0
H3248 H 0.62282 0.66317 0.86792 0.0
C3249 C 0.5906 0.62268 0.91469 0.0
C3250 C 0.62129 0.62229 0.89335 0.0
C3251 C 0.57568 0.62114 0.92331 0.0
C3252 C 0.6834 0.65321 0.87458 0.0
C3253 C 0.6682 0.64475 0.87457 0.0
C3254 C 0.62258 0.65164 0.87485 0.0
C3255 C 0.59063 0.62603 0.89756 0.0
C3256 C 0.60646 0.63061 0.88932 0.0
C3257 C 0.65343 0.65314 0.87867 0.0
C3258 C 0.63743 0.64415 0.88019 0.0
H3259 H 0.54877 0.62651 0.89101 0.0
H3260 H 0.57504 0.62939 0.87584 0.0
H3261 H 0.59605 0.65169 0.87612 0.0
H3262 H 0.66941 0.69158 0.88602 0.0
H3263 H 0.64305 0.67688 0.88617 0.0
C3264 C 0.61807 0.32475 0.17452 0.0
C3265 C 0.61881 0.30962 0.16589 0.0
C3266 C 0.61793 0.33976 0.16594 0.0
C3267 C 0.60403 0.35712 0.12697 0.0
H3268 H 0.62308 0.39718 0.14587 0.0
C3269 C 0.57036 0.41891 0.12699 0.0
C3270 C 0.57914 0.43392 0.12567 0.0
C3271 C 0.57877 0.40381 0.12719 0.0
C3272 C 0.61796 0.38613 0.14014 0.0
H3273 H 0.62056 0.29826 0.14153 0.0
H3274 H 0.62003 0.32472 0.12637 0.0
H3275 H 0.63284 0.37007 0.15523 0.0
H3276 H 0.60359 0.44493 0.12302 0.0
H3277 H 0.61845 0.4183 0.12367 0.0
H3278 H 0.58865 0.37318 0.11238 0.0
C3279 C 0.61961 0.32488 0.13982 0.0
C3280 C 0.62343 0.37061 0.14561 0.0
C3281 C 0.6199 0.30978 0.14847 0.0
C3282 C 0.59653 0.43352 0.12412 0.0
C3283 C 0.60501 0.41832 0.12448 0.0
C3284 C 0.59856 0.37264 0.12149 0.0
C3285 C 0.61844 0.34001 0.1485 0.0
C3286 C 0.61592 0.35598 0.13969 0.0
C3287 C 0.59619 0.40332 0.12617 0.0
C3288 C 0.60488 0.38728 0.12863 0.0
H3289 H 0.61731 0.32502 0.18796 0.0
H3290 H 0.6167 0.35116 0.173 0.0
H3291 H 0.598 0.34608 0.12216 0.0
H3292 H 0.55694 0.41882 0.12811 0.0
H3293 H 0.57162 0.39252 0.12884 0.0
C3294 C 0.81847 0.31973 0.40253 0.0
C3295 C 0.81012 0.32267 0.38751 0.0
C3296 C 0.83324 0.32798 0.40611 0.0
C3297 C 0.86982 0.34495 0.38743 0.0
H3298 H 0.87684 0.36339 0.43142 0.0
C3299 C 0.93502 0.36405 0.41276 0.0
C3300 C 0.93824 0.3579 0.42879 0.0
C3301 C 0.91894 0.36324 0.40611 0.0
C3302 C 0.87508 0.35833 0.41906 0.0
H3303 H 0.81055 0.33654 0.36443 0.0
H3304 H 0.83696 0.35075 0.37057 0.0
H3305 H 0.84883 0.35595 0.42256 0.0
H3306 H 0.92728 0.34599 0.45035 0.0
H3307 H 0.8995 0.34444 0.43877 0.0
H3308 H 0.89625 0.34641 0.38432 0.0
C3309 C 0.83182 0.34219 0.37959 0.0
C3310 C 0.85906 0.35416 0.41399 0.0
C3311 C 0.81677 0.33413 0.37613 0.0
C3312 C 0.92519 0.35089 0.43798 0.0
C3313 C 0.90922 0.35015 0.4314 0.0
C3314 C 0.88594 0.34903 0.39256 0.0
C3315 C 0.84013 0.33917 0.39465 0.0
C3316 C 0.85638 0.34685 0.39839 0.0
C3317 C 0.90586 0.3564 0.41546 0.0
C3318 C 0.88877 0.35513 0.4087 0.0
H3319 H 0.8136 0.311 0.41154 0.0
H3320 H 0.83953 0.32528 0.41771 0.0
H3321 H 0.86804 0.33926 0.37536 0.0
H3322 H 0.94487 0.36954 0.40542 0.0
H3323 H 0.9167 0.36812 0.39377 0.0
C3324 C 0.87187 0.66578 0.6737 0.0
C3325 C 0.87078 0.68091 0.66511 0.0
C3326 C 0.87189 0.65077 0.6651 0.0
C3327 C 0.88444 0.63387 0.62522 0.0
H3328 H 0.86833 0.59317 0.6454 0.0
C3329 C 0.92093 0.57389 0.62362 0.0
C3330 C 0.91292 0.5584 0.62359 0.0
C3331 C 0.91175 0.58853 0.62388 0.0
C3332 C 0.8726 0.60438 0.6393 0.0
H3333 H 0.86812 0.69223 0.64081 0.0
H3334 H 0.86825 0.66582 0.62564 0.0
H3335 H 0.85802 0.61987 0.65524 0.0
H3336 H 0.889 0.54602 0.62311 0.0
H3337 H 0.87278 0.57184 0.62376 0.0
H3338 H 0.89943 0.61839 0.60965 0.0
C3339 C 0.86916 0.66564 0.63907 0.0
C3340 C 0.86683 0.61969 0.64507 0.0
C3341 C 0.86909 0.68073 0.64773 0.0
C3342 C 0.89547 0.55783 0.62321 0.0
C3343 C 0.88622 0.57257 0.62359 0.0
C3344 C 0.89014 0.61855 0.61939 0.0
C3345 C 0.87082 0.6505 0.64767 0.0
C3346 C 0.87338 0.6346 0.6387 0.0
C3347 C 0.89429 0.58807 0.62417 0.0
C3348 C 0.88496 0.6037 0.627 0.0
H3349 H 0.87311 0.66552 0.68711 0.0
H3350 H 0.87351 0.6394 0.67211 0.0
H3351 H 0.88972 0.6451 0.62001 0.0
H3352 H 0.93437 0.57473 0.62382 0.0
H3353 H 0.91839 0.60022 0.62464 0.0
C3354 C 0.56287 0.37076 0.58805 0.0
C3355 C 0.56014 0.36524 0.5717 0.0
C3356 C 0.57895 0.37082 0.59474 0.0
C3357 C 0.62316 0.36952 0.58203 0.0
H3358 H 0.63082 0.34715 0.62401 0.0
C3359 C 0.67978 0.33002 0.5952 0.0
C3360 C 0.68787 0.33109 0.61059 0.0
C3361 C 0.66537 0.33909 0.59223 0.0
C3362 C 0.62886 0.35381 0.61248 0.0
H3363 H 0.57202 0.35548 0.54955 0.0
H3364 H 0.59982 0.35545 0.56117 0.0
H3365 H 0.6024 0.3539 0.61552 0.0
H3366 H 0.68753 0.34265 0.63491 0.0
H3367 H 0.66169 0.35826 0.62986 0.0
H3368 H 0.64949 0.36842 0.57847 0.0
C3369 C 0.58969 0.35998 0.56879 0.0
C3370 C 0.61261 0.35766 0.60761 0.0
C3371 C 0.57371 0.35983 0.56218 0.0
C3372 C 0.6815 0.3417 0.62291 0.0
C3373 C 0.66677 0.35056 0.62006 0.0
C3374 C 0.63933 0.36561 0.58684 0.0
C3375 C 0.59252 0.36552 0.5851 0.0
C3376 C 0.60959 0.36485 0.59198 0.0
C3377 C 0.65857 0.34922 0.6047 0.0
C3378 C 0.64224 0.35708 0.60176 0.0
H3379 H 0.5526 0.37502 0.59564 0.0
H3380 H 0.58079 0.37511 0.60736 0.0
H3381 H 0.62121 0.37542 0.57009 0.0
H3382 H 0.68448 0.32197 0.58548 0.0
H3383 H 0.65916 0.33765 0.58037 0.0
C3384 C 0.89204 0.32358 0.8117 0.0
C3385 C 0.88478 0.31068 0.82091 0.0
C3386 C 0.89257 0.33967 0.818 0.0
C3387 C 0.89242 0.36388 0.85626 0.0
H3388 H 0.88585 0.40012 0.82514 0.0
C3389 C 0.90624 0.43378 0.87089 0.0
C3390 C 0.91812 0.44 0.8597 0.0
C3391 C 0.89835 0.41857 0.86773 0.0
C3392 C 0.88751 0.39014 0.83402 0.0
H3393 H 0.87253 0.30444 0.84408 0.0
H3394 H 0.87357 0.33285 0.85525 0.0
H3395 H 0.87888 0.37181 0.81686 0.0
H3396 H 0.93072 0.43561 0.83629 0.0
H3397 H 0.9167 0.40943 0.8306 0.0
H3398 H 0.90162 0.38234 0.8732 0.0
C3399 C 0.87881 0.33038 0.84311 0.0
C3400 C 0.88362 0.37395 0.82928 0.0
C3401 C 0.87822 0.31417 0.83673 0.0
C3402 C 0.92164 0.43108 0.84515 0.0
C3403 C 0.91355 0.41616 0.84184 0.0
C3404 C 0.89622 0.38017 0.86106 0.0
C3405 C 0.88584 0.34331 0.83369 0.0
C3406 C 0.88674 0.36057 0.84007 0.0
C3407 C 0.90196 0.40969 0.85314 0.0
C3408 C 0.89444 0.3933 0.8497 0.0
H3409 H 0.89728 0.32129 0.79951 0.0
H3410 H 0.89844 0.34926 0.81061 0.0
H3411 H 0.89495 0.35381 0.86482 0.0
H3412 H 0.90339 0.44044 0.88224 0.0
H3413 H 0.88947 0.41376 0.87662 0.0
C3414 C 0.82752 0.66457 0.12808 0.0
C3415 C 0.81209 0.65762 0.12385 0.0
C3416 C 0.84186 0.65488 0.12787 0.0
C3417 C 0.85943 0.6206 0.10534 0.0
H3418 H 0.89589 0.62638 0.13634 0.0
C3419 C 0.92539 0.60269 0.08619 0.0
C3420 C 0.93691 0.61554 0.08886 0.0
C3421 C 0.91015 0.60269 0.09451 0.0
C3422 C 0.88582 0.62457 0.12759 0.0
H3423 H 0.79938 0.63497 0.11669 0.0
H3424 H 0.82471 0.618 0.11592 0.0
H3425 H 0.86814 0.63618 0.14376 0.0
H3426 H 0.94207 0.63777 0.10318 0.0
H3427 H 0.91545 0.63805 0.11735 0.0
H3428 H 0.87717 0.61013 0.08866 0.0
C3429 C 0.8256 0.63094 0.11952 0.0
C3430 C 0.86994 0.63012 0.13188 0.0
C3431 C 0.81115 0.64062 0.11997 0.0
C3432 C 0.9334 0.62773 0.10083 0.0
C3433 C 0.91816 0.6278 0.10907 0.0
C3434 C 0.87532 0.61518 0.10099 0.0
C3435 C 0.84111 0.63806 0.12325 0.0
C3436 C 0.85676 0.62879 0.12051 0.0
C3437 C 0.90611 0.6156 0.10559 0.0
C3438 C 0.88884 0.61774 0.11179 0.0
H3439 H 0.82858 0.67763 0.13121 0.0
H3440 H 0.85367 0.66077 0.13056 0.0
H3441 H 0.84952 0.61953 0.09628 0.0
H3442 H 0.92785 0.59303 0.07714 0.0
H3443 H 0.90126 0.59296 0.09177 0.0
C3444 C 0.61997 0.68352 0.34409 0.0
C3445 C 0.6193 0.68324 0.32665 0.0
C3446 C 0.61917 0.66866 0.35312 0.0
C3447 C 0.62177 0.62265 0.34863 0.0
H3448 H 0.58651 0.62216 0.38143 0.0
C3449 C 0.59293 0.56119 0.37149 0.0
C3450 C 0.57555 0.56118 0.3699 0.0
C3451 C 0.60179 0.57616 0.37085 0.0
C3452 C 0.59652 0.62211 0.37244 0.0
H3453 H 0.61811 0.66729 0.30495 0.0
H3454 H 0.6166 0.64157 0.32057 0.0
H3455 H 0.59679 0.64864 0.37095 0.0
H3456 H 0.55372 0.57677 0.36717 0.0
H3457 H 0.56906 0.60269 0.36591 0.0
H3458 H 0.62061 0.59611 0.34917 0.0
C3459 C 0.61789 0.65312 0.32736 0.0
C3460 C 0.60254 0.63729 0.36656 0.0
C3461 C 0.61855 0.6679 0.31839 0.0
C3462 C 0.56713 0.57637 0.36834 0.0
C3463 C 0.57592 0.59127 0.36782 0.0
C3464 C 0.61574 0.60748 0.35449 0.0
C3465 C 0.61788 0.65333 0.34482 0.0
C3466 C 0.61465 0.63768 0.354 0.0
C3467 C 0.59336 0.59134 0.36879 0.0
C3468 C 0.60249 0.60707 0.36585 0.0
H3469 H 0.62061 0.6952 0.35075 0.0
H3470 H 0.61924 0.66918 0.36657 0.0
H3471 H 0.63134 0.6226 0.33916 0.0
H3472 H 0.59971 0.54963 0.37278 0.0
H3473 H 0.61522 0.57585 0.37167 0.0
C3474 C 0.62136 0.92208 0.57864 0.0
C3475 C 0.62133 0.91399 0.5632 0.0
C3476 C 0.62202 0.91298 0.59333 0.0
C3477 C 0.63871 0.87416 0.60883 0.0
H3478 H 0.6205 0.89111 0.65012 0.0
C3479 C 0.67517 0.87424 0.66899 0.0
C3480 C 0.66714 0.87283 0.6844 0.0
C3481 C 0.66605 0.87416 0.65429 0.0
C3482 C 0.62542 0.88589 0.63873 0.0
H3483 H 0.62113 0.89 0.55095 0.0
H3484 H 0.62243 0.87393 0.57681 0.0
H3485 H 0.6091 0.90057 0.62374 0.0
H3486 H 0.64332 0.86955 0.69654 0.0
H3487 H 0.62722 0.86954 0.67067 0.0
H3488 H 0.6554 0.8599 0.62383 0.0
C3489 C 0.622 0.88737 0.57749 0.0
C3490 C 0.619 0.89144 0.6236 0.0
C3491 C 0.62124 0.89654 0.56272 0.0
C3492 C 0.64981 0.87075 0.68481 0.0
C3493 C 0.64061 0.87075 0.67003 0.0
C3494 C 0.64507 0.86855 0.62396 0.0
C3495 C 0.6227 0.89553 0.59294 0.0
C3496 C 0.62619 0.88633 0.60852 0.0
C3497 C 0.64865 0.87268 0.65463 0.0
C3498 C 0.6391 0.87504 0.63904 0.0
H3499 H 0.62134 0.93553 0.57941 0.0
H3500 H 0.62285 0.9197 0.60496 0.0
H3501 H 0.64452 0.86995 0.59745 0.0
H3502 H 0.68853 0.87578 0.66827 0.0
H3503 H 0.67262 0.876 0.64269 0.0
loop_
_geom_bond_atom_site_label_1
_geom_bond_atom_site_label_2
_geom_bond_distance
_geom_bond_site_symmetry_2
_ccdc_geom_bond_type
In0 O1 2.294 . S
In0 O2 2.326 . S
In0 O6 2.266 . S
In0 O7 2.326 . S
In0 O8 2.266 . S
In0 O9 2.326 . S
In0 O11 2.294 . S
In0 O12 2.326 . S
O1 In0 2.294 . S
O1 C10 1.240 . S
O2 In0 2.326 . S
O2 C10 1.252 . S
C3 O6 1.252 . S
C3 O7 1.260 . S
C4 O11 1.240 . S
C4 O12 1.252 . S
C5 O8 1.252 . S
C5 O9 1.260 . S
O6 In0 2.266 . S
O6 C3 1.252 . S
O7 In0 2.326 . S
O7 C3 1.260 . S
O8 In0 2.266 . S
O8 C5 1.252 . S
O9 In0 2.326 . S
O9 C5 1.260 . S
C10 O1 1.240 . S
C10 O2 1.252 . S
O11 In0 2.294 . S
O11 C4 1.240 . S
O12 In0 2.326 . S
O12 C4 1.252 . S
In13 O14 2.294 . S
In13 O15 2.326 . S
In13 O19 2.266 . S
In13 O20 2.326 . S
In13 O21 2.266 . S
In13 O22 2.326 . S
In13 O24 2.294 . S
In13 O25 2.326 . S
O14 In13 2.294 . S
O14 C23 1.240 . S
O15 In13 2.326 . S
O15 C23 1.252 . S
C16 O19 1.252 . S
C16 O20 1.260 . S
C17 O24 1.240 . S
C17 O25 1.252 . S
C18 O21 1.252 . S
C18 O22 1.260 . S
O19 In13 2.266 . S
O19 C16 1.252 . S
O20 In13 2.326 . S
O20 C16 1.260 . S
O21 In13 2.266 . S
O21 C18 1.252 . S
O22 In13 2.326 . S
O22 C18 1.260 . S
C23 O14 1.240 . S
C23 O15 1.252 . S
O24 In13 2.294 . S
O24 C17 1.240 . S
O25 In13 2.326 . S
O25 C17 1.252 . S
In26 O27 2.294 . S
In26 O28 2.326 . S
In26 O32 2.266 . S
In26 O33 2.326 . S
In26 O34 2.266 . S
In26 O35 2.326 . S
In26 O37 2.294 . S
In26 O38 2.326 . S
O27 In26 2.294 . S
O27 C36 1.240 . S
O28 In26 2.326 . S
O28 C36 1.252 . S
C29 O32 1.252 . S
C29 O33 1.260 . S
C30 O37 1.240 . S
C30 O38 1.252 . S
C31 O34 1.252 . S
C31 O35 1.260 . S
O32 In26 2.266 . S
O32 C29 1.252 . S
O33 In26 2.326 . S
O33 C29 1.260 . S
O34 In26 2.266 . S
O34 C31 1.252 . S
O35 In26 2.326 . S
O35 C31 1.260 . S
C36 O27 1.240 . S
C36 O28 1.252 . S
O37 In26 2.294 . S
O37 C30 1.240 . S
O38 In26 2.326 . S
O38 C30 1.252 . S
In39 O40 2.294 . S
In39 O41 2.326 . S
In39 O45 2.266 . S
In39 O46 2.326 . S
In39 O47 2.266 . S
In39 O48 2.326 . S
In39 O50 2.294 . S
In39 O51 2.326 . S
O40 In39 2.294 . S
O40 C49 1.240 . S
O41 In39 2.326 . S
O41 C49 1.252 . S
C42 O45 1.252 . S
C42 O46 1.260 . S
C43 O50 1.240 . S
C43 O51 1.252 . S
C44 O47 1.252 . S
C44 O48 1.260 . S
O45 In39 2.266 . S
O45 C42 1.252 . S
O46 In39 2.326 . S
O46 C42 1.260 . S
O47 In39 2.266 . S
O47 C44 1.252 . S
O48 In39 2.326 . S
O48 C44 1.260 . S
C49 O40 1.240 . S
C49 O41 1.252 . S
O50 In39 2.294 . S
O50 C43 1.240 . S
O51 In39 2.326 . S
O51 C43 1.252 . S
In52 O53 2.294 . S
In52 O54 2.326 . S
In52 O58 2.266 . S
In52 O59 2.326 . S
In52 O60 2.266 . S
In52 O61 2.326 . S
In52 O63 2.294 . S
In52 O64 2.326 . S
O53 In52 2.294 . S
O53 C62 1.240 . S
O54 In52 2.326 . S
O54 C62 1.252 . S
C55 O58 1.252 . S
C55 O59 1.260 . S
C56 O63 1.240 . S
C56 O64 1.252 . S
C57 O60 1.252 . S
C57 O61 1.260 . S
O58 In52 2.266 . S
O58 C55 1.252 . S
O59 In52 2.326 . S
O59 C55 1.260 . S
O60 In52 2.266 . S
O60 C57 1.252 . S
O61 In52 2.326 . S
O61 C57 1.260 . S
C62 O53 1.240 . S
C62 O54 1.252 . S
O63 In52 2.294 . S
O63 C56 1.240 . S
O64 In52 2.326 . S
O64 C56 1.252 . S
In65 O66 2.294 . S
In65 O67 2.326 . S
In65 O71 2.266 . S
In65 O72 2.326 . S
In65 O73 2.266 . S
In65 O74 2.326 . S
In65 O76 2.294 . S
In65 O77 2.326 . S
O66 In65 2.294 . S
O66 C75 1.240 . S
O67 In65 2.326 . S
O67 C75 1.252 . S
C68 O71 1.252 . S
C68 O72 1.260 . S
C69 O76 1.240 . S
C69 O77 1.252 . S
C70 O73 1.252 . S
C70 O74 1.260 . S
O71 In65 2.266 . S
O71 C68 1.252 . S
O72 In65 2.326 . S
O72 C68 1.260 . S
O73 In65 2.266 . S
O73 C70 1.252 . S
O74 In65 2.326 . S
O74 C70 1.260 . S
C75 O66 1.240 . S
C75 O67 1.252 . S
O76 In65 2.294 . S
O76 C69 1.240 . S
O77 In65 2.326 . S
O77 C69 1.252 . S
In78 O79 2.294 . S
In78 O80 2.326 . S
In78 O84 2.266 . S
In78 O85 2.326 . S
In78 O86 2.266 . S
In78 O87 2.326 . S
In78 O89 2.294 . S
In78 O90 2.326 . S
O79 In78 2.294 . S
O79 C88 1.240 . S
O80 In78 2.326 . S
O80 C88 1.252 . S
C81 O84 1.252 . S
C81 O85 1.260 . S
C82 O89 1.240 . S
C82 O90 1.252 . S
C83 O86 1.252 . S
C83 O87 1.260 . S
O84 In78 2.266 . S
O84 C81 1.252 . S
O85 In78 2.326 . S
O85 C81 1.260 . S
O86 In78 2.266 . S
O86 C83 1.252 . S
O87 In78 2.326 . S
O87 C83 1.260 . S
C88 O79 1.240 . S
C88 O80 1.252 . S
O89 In78 2.294 . S
O89 C82 1.240 . S
O90 In78 2.326 . S
O90 C82 1.252 . S
In91 O92 2.294 . S
In91 O93 2.326 . S
In91 O97 2.266 . S
In91 O98 2.326 . S
In91 O99 2.266 . S
In91 O100 2.326 . S
In91 O102 2.294 . S
In91 O103 2.326 . S
O92 In91 2.294 . S
O92 C101 1.240 . S
O93 In91 2.326 . S
O93 C101 1.252 . S
C94 O97 1.252 . S
C94 O98 1.260 . S
C95 O102 1.240 . S
C95 O103 1.252 . S
C96 O99 1.252 . S
C96 O100 1.260 . S
O97 In91 2.266 . S
O97 C94 1.252 . S
O98 In91 2.326 . S
O98 C94 1.260 . S
O99 In91 2.266 . S
O99 C96 1.252 . S
O100 In91 2.326 . S
O100 C96 1.260 . S
C101 O92 1.240 . S
C101 O93 1.252 . S
O102 In91 2.294 . S
O102 C95 1.240 . S
O103 In91 2.326 . S
O103 C95 1.252 . S
In104 O105 2.294 . S
In104 O106 2.326 . S
In104 O110 2.266 . S
In104 O111 2.326 . S
In104 O112 2.266 . S
In104 O113 2.326 . S
In104 O115 2.294 . S
In104 O116 2.326 . S
O105 In104 2.294 . S
O105 C114 1.240 . S
O106 In104 2.326 . S
O106 C114 1.252 . S
C107 O110 1.252 . S
C107 O111 1.260 . S
C108 O115 1.240 . S
C108 O116 1.252 . S
C109 O112 1.252 . S
C109 O113 1.260 . S
O110 In104 2.266 . S
O110 C107 1.252 . S
O111 In104 2.326 . S
O111 C107 1.260 . S
O112 In104 2.266 . S
O112 C109 1.252 . S
O113 In104 2.326 . S
O113 C109 1.260 . S
C114 O105 1.240 . S
C114 O106 1.252 . S
O115 In104 2.294 . S
O115 C108 1.240 . S
O116 In104 2.326 . S
O116 C108 1.252 . S
In117 O118 2.294 . S
In117 O119 2.326 . S
In117 O123 2.266 . S
In117 O124 2.326 . S
In117 O125 2.266 . S
In117 O126 2.326 . S
In117 O128 2.294 . S
In117 O129 2.326 . S
O118 In117 2.294 . S
O118 C127 1.240 . S
O119 In117 2.326 . S
O119 C127 1.252 . S
C120 O123 1.252 . S
C120 O124 1.260 . S
C121 O128 1.240 . S
C121 O129 1.252 . S
C122 O125 1.252 . S
C122 O126 1.260 . S
O123 In117 2.266 . S
O123 C120 1.252 . S
O124 In117 2.326 . S
O124 C120 1.260 . S
O125 In117 2.266 . S
O125 C122 1.252 . S
O126 In117 2.326 . S
O126 C122 1.260 . S
C127 O118 1.240 . S
C127 O119 1.252 . S
O128 In117 2.294 . S
O128 C121 1.240 . S
O129 In117 2.326 . S
O129 C121 1.252 . S
In130 O131 2.294 . S
In130 O132 2.326 . S
In130 O136 2.266 . S
In130 O137 2.326 . S
In130 O138 2.266 . S
In130 O139 2.326 . S
In130 O141 2.294 . S
In130 O142 2.326 . S
O131 In130 2.294 . S
O131 C140 1.240 . S
O132 In130 2.326 . S
O132 C140 1.252 . S
C133 O136 1.252 . S
C133 O137 1.260 . S
C134 O141 1.240 . S
C134 O142 1.252 . S
C135 O138 1.252 . S
C135 O139 1.260 . S
O136 In130 2.266 . S
O136 C133 1.252 . S
O137 In130 2.326 . S
O137 C133 1.260 . S
O138 In130 2.266 . S
O138 C135 1.252 . S
O139 In130 2.326 . S
O139 C135 1.260 . S
C140 O131 1.240 . S
C140 O132 1.252 . S
O141 In130 2.294 . S
O141 C134 1.240 . S
O142 In130 2.326 . S
O142 C134 1.252 . S
In143 O144 2.294 . S
In143 O145 2.326 . S
In143 O149 2.266 . S
In143 O150 2.326 . S
In143 O151 2.266 . S
In143 O152 2.326 . S
In143 O154 2.294 . S
In143 O155 2.326 . S
O144 In143 2.294 . S
O144 C153 1.240 . S
O145 In143 2.326 . S
O145 C153 1.252 . S
C146 O149 1.252 . S
C146 O150 1.260 . S
C147 O154 1.240 . S
C147 O155 1.252 . S
C148 O151 1.252 . S
C148 O152 1.260 . S
O149 In143 2.266 . S
O149 C146 1.252 . S
O150 In143 2.326 . S
O150 C146 1.260 . S
O151 In143 2.266 . S
O151 C148 1.252 . S
O152 In143 2.326 . S
O152 C148 1.260 . S
C153 O144 1.240 . S
C153 O145 1.252 . S
O154 In143 2.294 . S
O154 C147 1.240 . S
O155 In143 2.326 . S
O155 C147 1.252 . S
In156 O157 2.294 . S
In156 O158 2.326 . S
In156 O162 2.266 . S
In156 O163 2.326 . S
In156 O164 2.266 . S
In156 O165 2.326 . S
In156 O167 2.294 . S
In156 O168 2.326 . S
O157 In156 2.294 . S
O157 C166 1.240 . S
O158 In156 2.326 . S
O158 C166 1.252 . S
C159 O162 1.252 . S
C159 O163 1.260 . S
C160 O167 1.240 . S
C160 O168 1.252 . S
C161 O164 1.252 . S
C161 O165 1.260 . S
O162 In156 2.266 . S
O162 C159 1.252 . S
O163 In156 2.326 . S
O163 C159 1.260 . S
O164 In156 2.266 . S
O164 C161 1.252 . S
O165 In156 2.326 . S
O165 C161 1.260 . S
C166 O157 1.240 . S
C166 O158 1.252 . S
O167 In156 2.294 . S
O167 C160 1.240 . S
O168 In156 2.326 . S
O168 C160 1.252 . S
In169 O170 2.294 . S
In169 O171 2.326 . S
In169 O175 2.266 . S
In169 O176 2.326 . S
In169 O177 2.266 . S
In169 O178 2.326 . S
In169 O180 2.294 . S
In169 O181 2.326 . S
O170 In169 2.294 . S
O170 C179 1.240 . S
O171 In169 2.326 . S
O171 C179 1.252 . S
C172 O175 1.252 . S
C172 O176 1.260 . S
C173 O180 1.240 . S
C173 O181 1.252 . S
C174 O177 1.252 . S
C174 O178 1.260 . S
O175 In169 2.266 . S
O175 C172 1.252 . S
O176 In169 2.326 . S
O176 C172 1.260 . S
O177 In169 2.266 . S
O177 C174 1.252 . S
O178 In169 2.326 . S
O178 C174 1.260 . S
C179 O170 1.240 . S
C179 O171 1.252 . S
O180 In169 2.294 . S
O180 C173 1.240 . S
O181 In169 2.326 . S
O181 C173 1.252 . S
In182 O183 2.294 . S
In182 O184 2.326 . S
In182 O188 2.266 . S
In182 O189 2.326 . S
In182 O190 2.266 . S
In182 O191 2.326 . S
In182 O193 2.294 . S
In182 O194 2.326 . S
O183 In182 2.294 . S
O183 C192 1.240 . S
O184 In182 2.326 . S
O184 C192 1.252 . S
C185 O188 1.252 . S
C185 O189 1.260 . S
C186 O193 1.240 . S
C186 O194 1.252 . S
C187 O190 1.252 . S
C187 O191 1.260 . S
O188 In182 2.266 . S
O188 C185 1.252 . S
O189 In182 2.326 . S
O189 C185 1.260 . S
O190 In182 2.266 . S
O190 C187 1.252 . S
O191 In182 2.326 . S
O191 C187 1.260 . S
C192 O183 1.240 . S
C192 O184 1.252 . S
O193 In182 2.294 . S
O193 C186 1.240 . S
O194 In182 2.326 . S
O194 C186 1.252 . S
In195 O196 2.294 . S
In195 O197 2.326 . S
In195 O201 2.266 . S
In195 O202 2.326 . S
In195 O203 2.266 . S
In195 O204 2.326 . S
In195 O206 2.294 . S
In195 O207 2.326 . S
O196 In195 2.294 . S
O196 C205 1.240 . S
O197 In195 2.326 . S
O197 C205 1.252 . S
C198 O201 1.252 . S
C198 O202 1.260 . S
C199 O206 1.240 . S
C199 O207 1.252 . S
C200 O203 1.252 . S
C200 O204 1.260 . S
O201 In195 2.266 . S
O201 C198 1.252 . S
O202 In195 2.326 . S
O202 C198 1.260 . S
O203 In195 2.266 . S
O203 C200 1.252 . S
O204 In195 2.326 . S
O204 C200 1.260 . S
C205 O196 1.240 . S
C205 O197 1.252 . S
O206 In195 2.294 . S
O206 C199 1.240 . S
O207 In195 2.326 . S
O207 C199 1.252 . S
In208 O209 2.294 . S
In208 O210 2.326 . S
In208 O214 2.266 . S
In208 O215 2.326 . S
In208 O216 2.266 . S
In208 O217 2.326 . S
In208 O219 2.294 . S
In208 O220 2.326 . S
O209 In208 2.294 . S
O209 C218 1.240 . S
O210 In208 2.326 . S
O210 C218 1.252 . S
C211 O214 1.252 . S
C211 O215 1.260 . S
C212 O219 1.240 . S
C212 O220 1.252 . S
C213 O216 1.252 . S
C213 O217 1.260 . S
O214 In208 2.266 . S
O214 C211 1.252 . S
O215 In208 2.326 . S
O215 C211 1.260 . S
O216 In208 2.266 . S
O216 C213 1.252 . S
O217 In208 2.326 . S
O217 C213 1.260 . S
C218 O209 1.240 . S
C218 O210 1.252 . S
O219 In208 2.294 . S
O219 C212 1.240 . S
O220 In208 2.326 . S
O220 C212 1.252 . S
In221 O222 2.294 . S
In221 O223 2.326 . S
In221 O227 2.266 . S
In221 O228 2.326 . S
In221 O229 2.266 . S
In221 O230 2.326 . S
In221 O232 2.294 . S
In221 O233 2.326 . S
O222 In221 2.294 . S
O222 C231 1.240 . S
O223 In221 2.326 . S
O223 C231 1.252 . S
C224 O227 1.252 . S
C224 O228 1.260 . S
C225 O232 1.240 . S
C225 O233 1.252 . S
C226 O229 1.252 . S
C226 O230 1.260 . S
O227 In221 2.266 . S
O227 C224 1.252 . S
O228 In221 2.326 . S
O228 C224 1.260 . S
O229 In221 2.266 . S
O229 C226 1.252 . S
O230 In221 2.326 . S
O230 C226 1.260 . S
C231 O222 1.240 . S
C231 O223 1.252 . S
O232 In221 2.294 . S
O232 C225 1.240 . S
O233 In221 2.326 . S
O233 C225 1.252 . S
In234 O235 2.294 . S
In234 O236 2.326 . S
In234 O240 2.266 . S
In234 O241 2.326 . S
In234 O242 2.266 . S
In234 O243 2.326 . S
In234 O245 2.294 . S
In234 O246 2.326 . S
O235 In234 2.294 . S
O235 C244 1.240 . S
O236 In234 2.326 . S
O236 C244 1.252 . S
C237 O240 1.252 . S
C237 O241 1.260 . S
C238 O245 1.240 . S
C238 O246 1.252 . S
C239 O242 1.252 . S
C239 O243 1.260 . S
O240 In234 2.266 . S
O240 C237 1.252 . S
O241 In234 2.326 . S
O241 C237 1.260 . S
O242 In234 2.266 . S
O242 C239 1.252 . S
O243 In234 2.326 . S
O243 C239 1.260 . S
C244 O235 1.240 . S
C244 O236 1.252 . S
O245 In234 2.294 . S
O245 C238 1.240 . S
O246 In234 2.326 . S
O246 C238 1.252 . S
In247 O248 2.294 . S
In247 O249 2.326 . S
In247 O253 2.266 . S
In247 O254 2.326 . S
In247 O255 2.266 . S
In247 O256 2.326 . S
In247 O258 2.294 . S
In247 O259 2.326 . S
O248 In247 2.294 . S
O248 C257 1.240 . S
O249 In247 2.326 . S
O249 C257 1.252 . S
C250 O253 1.252 . S
C250 O254 1.260 . S
C251 O258 1.240 . S
C251 O259 1.252 . S
C252 O255 1.252 . S
C252 O256 1.260 . S
O253 In247 2.266 . S
O253 C250 1.252 . S
O254 In247 2.326 . S
O254 C250 1.260 . S
O255 In247 2.266 . S
O255 C252 1.252 . S
O256 In247 2.326 . S
O256 C252 1.260 . S
C257 O248 1.240 . S
C257 O249 1.252 . S
O258 In247 2.294 . S
O258 C251 1.240 . S
O259 In247 2.326 . S
O259 C251 1.252 . S
In260 O261 2.294 . S
In260 O262 2.326 . S
In260 O266 2.266 . S
In260 O267 2.326 . S
In260 O268 2.266 . S
In260 O269 2.326 . S
In260 O271 2.294 . S
In260 O272 2.326 . S
O261 In260 2.294 . S
O261 C270 1.240 . S
O262 In260 2.326 . S
O262 C270 1.252 . S
C263 O266 1.252 . S
C263 O267 1.260 . S
C264 O271 1.240 . S
C264 O272 1.252 . S
C265 O268 1.252 . S
C265 O269 1.260 . S
O266 In260 2.266 . S
O266 C263 1.252 . S
O267 In260 2.326 . S
O267 C263 1.260 . S
O268 In260 2.266 . S
O268 C265 1.252 . S
O269 In260 2.326 . S
O269 C265 1.260 . S
C270 O261 1.240 . S
C270 O262 1.252 . S
O271 In260 2.294 . S
O271 C264 1.240 . S
O272 In260 2.326 . S
O272 C264 1.252 . S
In273 O274 2.294 . S
In273 O275 2.326 . S
In273 O279 2.266 . S
In273 O280 2.326 . S
In273 O281 2.266 . S
In273 O282 2.326 . S
In273 O284 2.294 . S
In273 O285 2.326 . S
O274 In273 2.294 . S
O274 C283 1.240 . S
O275 In273 2.326 . S
O275 C283 1.252 . S
C276 O279 1.252 . S
C276 O280 1.260 . S
C277 O284 1.240 . S
C277 O285 1.252 . S
C278 O281 1.252 . S
C278 O282 1.260 . S
O279 In273 2.266 . S
O279 C276 1.252 . S
O280 In273 2.326 . S
O280 C276 1.260 . S
O281 In273 2.266 . S
O281 C278 1.252 . S
O282 In273 2.326 . S
O282 C278 1.260 . S
C283 O274 1.240 . S
C283 O275 1.252 . S
O284 In273 2.294 . S
O284 C277 1.240 . S
O285 In273 2.326 . S
O285 C277 1.252 . S
In286 O287 2.294 . S
In286 O288 2.326 . S
In286 O292 2.266 . S
In286 O293 2.326 . S
In286 O294 2.266 . S
In286 O295 2.326 . S
In286 O297 2.294 . S
In286 O298 2.326 . S
O287 In286 2.294 . S
O287 C296 1.240 . S
O288 In286 2.326 . S
O288 C296 1.252 . S
C289 O292 1.252 . S
C289 O293 1.260 . S
C290 O297 1.240 . S
C290 O298 1.252 . S
C291 O294 1.252 . S
C291 O295 1.260 . S
O292 In286 2.266 . S
O292 C289 1.252 . S
O293 In286 2.326 . S
O293 C289 1.260 . S
O294 In286 2.266 . S
O294 C291 1.252 . S
O295 In286 2.326 . S
O295 C291 1.260 . S
C296 O287 1.240 . S
C296 O288 1.252 . S
O297 In286 2.294 . S
O297 C290 1.240 . S
O298 In286 2.326 . S
O298 C290 1.252 . S
In299 O300 2.294 . S
In299 O301 2.326 . S
In299 O305 2.266 . S
In299 O306 2.326 . S
In299 O307 2.266 . S
In299 O308 2.326 . S
In299 O310 2.294 . S
In299 O311 2.326 . S
O300 In299 2.294 . S
O300 C309 1.240 . S
O301 In299 2.326 . S
O301 C309 1.252 . S
C302 O305 1.252 . S
C302 O306 1.260 . S
C303 O310 1.240 . S
C303 O311 1.252 . S
C304 O307 1.252 . S
C304 O308 1.260 . S
O305 In299 2.266 . S
O305 C302 1.252 . S
O306 In299 2.326 . S
O306 C302 1.260 . S
O307 In299 2.266 . S
O307 C304 1.252 . S
O308 In299 2.326 . S
O308 C304 1.260 . S
C309 O300 1.240 . S
C309 O301 1.252 . S
O310 In299 2.294 . S
O310 C303 1.240 . S
O311 In299 2.326 . S
O311 C303 1.252 . S
In312 O313 2.294 . S
In312 O314 2.326 . S
In312 O318 2.266 . S
In312 O319 2.326 . S
In312 O320 2.266 . S
In312 O321 2.326 . S
In312 O323 2.294 . S
In312 O324 2.326 . S
O313 In312 2.294 . S
O313 C322 1.240 . S
O314 In312 2.326 . S
O314 C322 1.252 . S
C315 O318 1.252 . S
C315 O319 1.260 . S
C316 O323 1.240 . S
C316 O324 1.252 . S
C317 O320 1.252 . S
C317 O321 1.260 . S
O318 In312 2.266 . S
O318 C315 1.252 . S
O319 In312 2.326 . S
O319 C315 1.260 . S
O320 In312 2.266 . S
O320 C317 1.252 . S
O321 In312 2.326 . S
O321 C317 1.260 . S
C322 O313 1.240 . S
C322 O314 1.252 . S
O323 In312 2.294 . S
O323 C316 1.240 . S
O324 In312 2.326 . S
O324 C316 1.252 . S
In325 O326 2.294 . S
In325 O327 2.326 . S
In325 O331 2.266 . S
In325 O332 2.326 . S
In325 O333 2.266 . S
In325 O334 2.326 . S
In325 O336 2.294 . S
In325 O337 2.326 . S
O326 In325 2.294 . S
O326 C335 1.240 . S
O327 In325 2.326 . S
O327 C335 1.252 . S
C328 O331 1.252 . S
C328 O332 1.260 . S
C329 O336 1.240 . S
C329 O337 1.252 . S
C330 O333 1.252 . S
C330 O334 1.260 . S
O331 In325 2.266 . S
O331 C328 1.252 . S
O332 In325 2.326 . S
O332 C328 1.260 . S
O333 In325 2.266 . S
O333 C330 1.252 . S
O334 In325 2.326 . S
O334 C330 1.260 . S
C335 O326 1.240 . S
C335 O327 1.252 . S
O336 In325 2.294 . S
O336 C329 1.240 . S
O337 In325 2.326 . S
O337 C329 1.252 . S
In338 O339 2.294 . S
In338 O340 2.326 . S
In338 O344 2.266 . S
In338 O345 2.326 . S
In338 O346 2.266 . S
In338 O347 2.326 . S
In338 O349 2.294 . S
In338 O350 2.326 . S
O339 In338 2.294 . S
O339 C348 1.240 . S
O340 In338 2.326 . S
O340 C348 1.252 . S
C341 O344 1.252 . S
C341 O345 1.260 . S
C342 O349 1.240 . S
C342 O350 1.252 . S
C343 O346 1.252 . S
C343 O347 1.260 . S
O344 In338 2.266 . S
O344 C341 1.252 . S
O345 In338 2.326 . S
O345 C341 1.260 . S
O346 In338 2.266 . S
O346 C343 1.252 . S
O347 In338 2.326 . S
O347 C343 1.260 . S
C348 O339 1.240 . S
C348 O340 1.252 . S
O349 In338 2.294 . S
O349 C342 1.240 . S
O350 In338 2.326 . S
O350 C342 1.252 . S
In351 O352 2.294 . S
In351 O353 2.326 . S
In351 O357 2.266 . S
In351 O358 2.326 . S
In351 O359 2.266 . S
In351 O360 2.326 . S
In351 O362 2.294 . S
In351 O363 2.326 . S
O352 In351 2.294 . S
O352 C361 1.240 . S
O353 In351 2.326 . S
O353 C361 1.252 . S
C354 O357 1.252 . S
C354 O358 1.260 . S
C355 O362 1.240 . S
C355 O363 1.252 . S
C356 O359 1.252 . S
C356 O360 1.260 . S
O357 In351 2.266 . S
O357 C354 1.252 . S
O358 In351 2.326 . S
O358 C354 1.260 . S
O359 In351 2.266 . S
O359 C356 1.252 . S
O360 In351 2.326 . S
O360 C356 1.260 . S
C361 O352 1.240 . S
C361 O353 1.252 . S
O362 In351 2.294 . S
O362 C355 1.240 . S
O363 In351 2.326 . S
O363 C355 1.252 . S
In364 O365 2.294 . S
In364 O366 2.326 . S
In364 O370 2.266 . S
In364 O371 2.326 . S
In364 O372 2.266 . S
In364 O373 2.326 . S
In364 O375 2.294 . S
In364 O376 2.326 . S
O365 In364 2.294 . S
O365 C374 1.240 . S
O366 In364 2.326 . S
O366 C374 1.252 . S
C367 O370 1.252 . S
C367 O371 1.260 . S
C368 O375 1.240 . S
C368 O376 1.252 . S
C369 O372 1.252 . S
C369 O373 1.260 . S
O370 In364 2.266 . S
O370 C367 1.252 . S
O371 In364 2.326 . S
O371 C367 1.260 . S
O372 In364 2.266 . S
O372 C369 1.252 . S
O373 In364 2.326 . S
O373 C369 1.260 . S
C374 O365 1.240 . S
C374 O366 1.252 . S
O375 In364 2.294 . S
O375 C368 1.240 . S
O376 In364 2.326 . S
O376 C368 1.252 . S
In377 O378 2.294 . S
In377 O379 2.326 . S
In377 O383 2.266 . S
In377 O384 2.326 . S
In377 O385 2.266 . S
In377 O386 2.326 . S
In377 O388 2.294 . S
In377 O389 2.326 . S
O378 In377 2.294 . S
O378 C387 1.240 . S
O379 In377 2.326 . S
O379 C387 1.252 . S
C380 O383 1.252 . S
C380 O384 1.260 . S
C381 O388 1.240 . S
C381 O389 1.252 . S
C382 O385 1.252 . S
C382 O386 1.260 . S
O383 In377 2.266 . S
O383 C380 1.252 . S
O384 In377 2.326 . S
O384 C380 1.260 . S
O385 In377 2.266 . S
O385 C382 1.252 . S
O386 In377 2.326 . S
O386 C382 1.260 . S
C387 O378 1.240 . S
C387 O379 1.252 . S
O388 In377 2.294 . S
O388 C381 1.240 . S
O389 In377 2.326 . S
O389 C381 1.252 . S
In390 O391 2.294 . S
In390 O392 2.326 . S
In390 O396 2.266 . S
In390 O397 2.326 . S
In390 O398 2.266 . S
In390 O399 2.326 . S
In390 O401 2.294 . S
In390 O402 2.326 . S
O391 In390 2.294 . S
O391 C400 1.240 . S
O392 In390 2.326 . S
O392 C400 1.252 . S
C393 O396 1.252 . S
C393 O397 1.260 . S
C394 O401 1.240 . S
C394 O402 1.252 . S
C395 O398 1.252 . S
C395 O399 1.260 . S
O396 In390 2.266 . S
O396 C393 1.252 . S
O397 In390 2.326 . S
O397 C393 1.260 . S
O398 In390 2.266 . S
O398 C395 1.252 . S
O399 In390 2.326 . S
O399 C395 1.260 . S
C400 O391 1.240 . S
C400 O392 1.252 . S
O401 In390 2.294 . S
O401 C394 1.240 . S
O402 In390 2.326 . S
O402 C394 1.252 . S
In403 O404 2.294 . S
In403 O405 2.326 . S
In403 O409 2.266 . S
In403 O410 2.326 . S
In403 O411 2.266 . S
In403 O412 2.326 . S
In403 O414 2.294 . S
In403 O415 2.326 . S
O404 In403 2.294 . S
O404 C413 1.240 . S
O405 In403 2.326 . S
O405 C413 1.252 . S
C406 O409 1.252 . S
C406 O410 1.260 . S
C407 O414 1.240 . S
C407 O415 1.252 . S
C408 O411 1.252 . S
C408 O412 1.260 . S
O409 In403 2.266 . S
O409 C406 1.252 . S
O410 In403 2.326 . S
O410 C406 1.260 . S
O411 In403 2.266 . S
O411 C408 1.252 . S
O412 In403 2.326 . S
O412 C408 1.260 . S
C413 O404 1.240 . S
C413 O405 1.252 . S
O414 In403 2.294 . S
O414 C407 1.240 . S
O415 In403 2.326 . S
O415 C407 1.252 . S
In416 O417 2.294 . S
In416 O418 2.326 . S
In416 O422 2.266 . S
In416 O423 2.326 . S
In416 O424 2.266 . S
In416 O425 2.326 . S
In416 O427 2.294 . S
In416 O428 2.326 . S
O417 In416 2.294 . S
O417 C426 1.240 . S
O418 In416 2.326 . S
O418 C426 1.252 . S
C419 O422 1.252 . S
C419 O423 1.260 . S
C420 O427 1.240 . S
C420 O428 1.252 . S
C421 O424 1.252 . S
C421 O425 1.260 . S
O422 In416 2.266 . S
O422 C419 1.252 . S
O423 In416 2.326 . S
O423 C419 1.260 . S
O424 In416 2.266 . S
O424 C421 1.252 . S
O425 In416 2.326 . S
O425 C421 1.260 . S
C426 O417 1.240 . S
C426 O418 1.252 . S
O427 In416 2.294 . S
O427 C420 1.240 . S
O428 In416 2.326 . S
O428 C420 1.252 . S
In429 O430 2.294 . S
In429 O431 2.326 . S
In429 O435 2.266 . S
In429 O436 2.326 . S
In429 O437 2.266 . S
In429 O438 2.326 . S
In429 O440 2.294 . S
In429 O441 2.326 . S
O430 In429 2.294 . S
O430 C439 1.240 . S
O431 In429 2.326 . S
O431 C439 1.252 . S
C432 O435 1.252 . S
C432 O436 1.260 . S
C433 O440 1.240 . S
C433 O441 1.252 . S
C434 O437 1.252 . S
C434 O438 1.260 . S
O435 In429 2.266 . S
O435 C432 1.252 . S
O436 In429 2.326 . S
O436 C432 1.260 . S
O437 In429 2.266 . S
O437 C434 1.252 . S
O438 In429 2.326 . S
O438 C434 1.260 . S
C439 O430 1.240 . S
C439 O431 1.252 . S
O440 In429 2.294 . S
O440 C433 1.240 . S
O441 In429 2.326 . S
O441 C433 1.252 . S
In442 O443 2.294 . S
In442 O444 2.326 . S
In442 O448 2.266 . S
In442 O449 2.326 . S
In442 O450 2.266 . S
In442 O451 2.326 . S
In442 O453 2.294 . S
In442 O454 2.326 . S
O443 In442 2.294 . S
O443 C452 1.240 . S
O444 In442 2.326 . S
O444 C452 1.252 . S
C445 O448 1.252 . S
C445 O449 1.260 . S
C446 O453 1.240 . S
C446 O454 1.252 . S
C447 O450 1.252 . S
C447 O451 1.260 . S
O448 In442 2.266 . S
O448 C445 1.252 . S
O449 In442 2.326 . S
O449 C445 1.260 . S
O450 In442 2.266 . S
O450 C447 1.252 . S
O451 In442 2.326 . S
O451 C447 1.260 . S
C452 O443 1.240 . S
C452 O444 1.252 . S
O453 In442 2.294 . S
O453 C446 1.240 . S
O454 In442 2.326 . S
O454 C446 1.252 . S
In455 O456 2.294 . S
In455 O457 2.326 . S
In455 O461 2.266 . S
In455 O462 2.326 . S
In455 O463 2.266 . S
In455 O464 2.326 . S
In455 O466 2.294 . S
In455 O467 2.326 . S
O456 In455 2.294 . S
O456 C465 1.240 . S
O457 In455 2.326 . S
O457 C465 1.252 . S
C458 O461 1.252 . S
C458 O462 1.260 . S
C459 O466 1.240 . S
C459 O467 1.252 . S
C460 O463 1.252 . S
C460 O464 1.260 . S
O461 In455 2.266 . S
O461 C458 1.252 . S
O462 In455 2.326 . S
O462 C458 1.260 . S
O463 In455 2.266 . S
O463 C460 1.252 . S
O464 In455 2.326 . S
O464 C460 1.260 . S
C465 O456 1.240 . S
C465 O457 1.252 . S
O466 In455 2.294 . S
O466 C459 1.240 . S
O467 In455 2.326 . S
O467 C459 1.252 . S
In468 O469 2.294 . S
In468 O470 2.326 . S
In468 O474 2.266 . S
In468 O475 2.326 . S
In468 O476 2.266 . S
In468 O477 2.326 . S
In468 O479 2.294 . S
In468 O480 2.326 . S
O469 In468 2.294 . S
O469 C478 1.240 . S
O470 In468 2.326 . S
O470 C478 1.252 . S
C471 O474 1.252 . S
C471 O475 1.260 . S
C472 O479 1.240 . S
C472 O480 1.252 . S
C473 O476 1.252 . S
C473 O477 1.260 . S
O474 In468 2.266 . S
O474 C471 1.252 . S
O475 In468 2.326 . S
O475 C471 1.260 . S
O476 In468 2.266 . S
O476 C473 1.252 . S
O477 In468 2.326 . S
O477 C473 1.260 . S
C478 O469 1.240 . S
C478 O470 1.252 . S
O479 In468 2.294 . S
O479 C472 1.240 . S
O480 In468 2.326 . S
O480 C472 1.252 . S
In481 O482 2.294 . S
In481 O483 2.326 . S
In481 O487 2.266 . S
In481 O488 2.326 . S
In481 O489 2.266 . S
In481 O490 2.326 . S
In481 O492 2.294 . S
In481 O493 2.326 . S
O482 In481 2.294 . S
O482 C491 1.240 . S
O483 In481 2.326 . S
O483 C491 1.252 . S
C484 O487 1.252 . S
C484 O488 1.260 . S
C485 O492 1.240 . S
C485 O493 1.252 . S
C486 O489 1.252 . S
C486 O490 1.260 . S
O487 In481 2.266 . S
O487 C484 1.252 . S
O488 In481 2.326 . S
O488 C484 1.260 . S
O489 In481 2.266 . S
O489 C486 1.252 . S
O490 In481 2.326 . S
O490 C486 1.260 . S
C491 O482 1.240 . S
C491 O483 1.252 . S
O492 In481 2.294 . S
O492 C485 1.240 . S
O493 In481 2.326 . S
O493 C485 1.252 . S
In494 O495 2.294 . S
In494 O496 2.326 . S
In494 O500 2.266 . S
In494 O501 2.326 . S
In494 O502 2.266 . S
In494 O503 2.326 . S
In494 O505 2.294 . S
In494 O506 2.326 . S
O495 In494 2.294 . S
O495 C504 1.240 . S
O496 In494 2.326 . S
O496 C504 1.252 . S
C497 O500 1.252 . S
C497 O501 1.260 . S
C498 O505 1.240 . S
C498 O506 1.252 . S
C499 O502 1.252 . S
C499 O503 1.260 . S
O500 In494 2.266 . S
O500 C497 1.252 . S
O501 In494 2.326 . S
O501 C497 1.260 . S
O502 In494 2.266 . S
O502 C499 1.252 . S
O503 In494 2.326 . S
O503 C499 1.260 . S
C504 O495 1.240 . S
C504 O496 1.252 . S
O505 In494 2.294 . S
O505 C498 1.240 . S
O506 In494 2.326 . S
O506 C498 1.252 . S
In507 O508 2.294 . S
In507 O509 2.326 . S
In507 O513 2.266 . S
In507 O514 2.326 . S
In507 O515 2.266 . S
In507 O516 2.326 . S
In507 O518 2.294 . S
In507 O519 2.326 . S
O508 In507 2.294 . S
O508 C517 1.240 . S
O509 In507 2.326 . S
O509 C517 1.252 . S
C510 O513 1.252 . S
C510 O514 1.260 . S
C511 O518 1.240 . S
C511 O519 1.252 . S
C512 O515 1.252 . S
C512 O516 1.260 . S
O513 In507 2.266 . S
O513 C510 1.252 . S
O514 In507 2.326 . S
O514 C510 1.260 . S
O515 In507 2.266 . S
O515 C512 1.252 . S
O516 In507 2.326 . S
O516 C512 1.260 . S
C517 O508 1.240 . S
C517 O509 1.252 . S
O518 In507 2.294 . S
O518 C511 1.240 . S
O519 In507 2.326 . S
O519 C511 1.252 . S
In520 O521 2.294 . S
In520 O522 2.326 . S
In520 O526 2.266 . S
In520 O527 2.326 . S
In520 O528 2.266 . S
In520 O529 2.326 . S
In520 O531 2.294 . S
In520 O532 2.326 . S
O521 In520 2.294 . S
O521 C530 1.240 . S
O522 In520 2.326 . S
O522 C530 1.252 . S
C523 O526 1.252 . S
C523 O527 1.260 . S
C524 O531 1.240 . S
C524 O532 1.252 . S
C525 O528 1.252 . S
C525 O529 1.260 . S
O526 In520 2.266 . S
O526 C523 1.252 . S
O527 In520 2.326 . S
O527 C523 1.260 . S
O528 In520 2.266 . S
O528 C525 1.252 . S
O529 In520 2.326 . S
O529 C525 1.260 . S
C530 O521 1.240 . S
C530 O522 1.252 . S
O531 In520 2.294 . S
O531 C524 1.240 . S
O532 In520 2.326 . S
O532 C524 1.252 . S
In533 O534 2.294 . S
In533 O535 2.326 . S
In533 O539 2.266 . S
In533 O540 2.326 . S
In533 O541 2.266 . S
In533 O542 2.326 . S
In533 O544 2.294 . S
In533 O545 2.326 . S
O534 In533 2.294 . S
O534 C543 1.240 . S
O535 In533 2.326 . S
O535 C543 1.252 . S
C536 O539 1.252 . S
C536 O540 1.260 . S
C537 O544 1.240 . S
C537 O545 1.252 . S
C538 O541 1.252 . S
C538 O542 1.260 . S
O539 In533 2.266 . S
O539 C536 1.252 . S
O540 In533 2.326 . S
O540 C536 1.260 . S
O541 In533 2.266 . S
O541 C538 1.252 . S
O542 In533 2.326 . S
O542 C538 1.260 . S
C543 O534 1.240 . S
C543 O535 1.252 . S
O544 In533 2.294 . S
O544 C537 1.240 . S
O545 In533 2.326 . S
O545 C537 1.252 . S
In546 O547 2.294 . S
In546 O548 2.326 . S
In546 O552 2.266 . S
In546 O553 2.326 . S
In546 O554 2.266 . S
In546 O555 2.326 . S
In546 O557 2.294 . S
In546 O558 2.326 . S
O547 In546 2.294 . S
O547 C556 1.240 . S
O548 In546 2.326 . S
O548 C556 1.252 . S
C549 O552 1.252 . S
C549 O553 1.260 . S
C550 O557 1.240 . S
C550 O558 1.252 . S
C551 O554 1.252 . S
C551 O555 1.260 . S
O552 In546 2.266 . S
O552 C549 1.252 . S
O553 In546 2.326 . S
O553 C549 1.260 . S
O554 In546 2.266 . S
O554 C551 1.252 . S
O555 In546 2.326 . S
O555 C551 1.260 . S
C556 O547 1.240 . S
C556 O548 1.252 . S
O557 In546 2.294 . S
O557 C550 1.240 . S
O558 In546 2.326 . S
O558 C550 1.252 . S
In559 O560 2.294 . S
In559 O561 2.326 . S
In559 O565 2.266 . S
In559 O566 2.326 . S
In559 O567 2.266 . S
In559 O568 2.326 . S
In559 O570 2.294 . S
In559 O571 2.326 . S
O560 In559 2.294 . S
O560 C569 1.240 . S
O561 In559 2.326 . S
O561 C569 1.252 . S
C562 O565 1.252 . S
C562 O566 1.260 . S
C563 O570 1.240 . S
C563 O571 1.252 . S
C564 O567 1.252 . S
C564 O568 1.260 . S
O565 In559 2.266 . S
O565 C562 1.252 . S
O566 In559 2.326 . S
O566 C562 1.260 . S
O567 In559 2.266 . S
O567 C564 1.252 . S
O568 In559 2.326 . S
O568 C564 1.260 . S
C569 O560 1.240 . S
C569 O561 1.252 . S
O570 In559 2.294 . S
O570 C563 1.240 . S
O571 In559 2.326 . S
O571 C563 1.252 . S
In572 O573 2.294 . S
In572 O574 2.326 . S
In572 O578 2.266 . S
In572 O579 2.326 . S
In572 O580 2.266 . S
In572 O581 2.326 . S
In572 O583 2.294 . S
In572 O584 2.326 . S
O573 In572 2.294 . S
O573 C582 1.240 . S
O574 In572 2.326 . S
O574 C582 1.252 . S
C575 O578 1.252 . S
C575 O579 1.260 . S
C576 O583 1.240 . S
C576 O584 1.252 . S
C577 O580 1.252 . S
C577 O581 1.260 . S
O578 In572 2.266 . S
O578 C575 1.252 . S
O579 In572 2.326 . S
O579 C575 1.260 . S
O580 In572 2.266 . S
O580 C577 1.252 . S
O581 In572 2.326 . S
O581 C577 1.260 . S
C582 O573 1.240 . S
C582 O574 1.252 . S
O583 In572 2.294 . S
O583 C576 1.240 . S
O584 In572 2.326 . S
O584 C576 1.252 . S
In585 O586 2.294 . S
In585 O587 2.326 . S
In585 O591 2.266 . S
In585 O592 2.326 . S
In585 O593 2.266 . S
In585 O594 2.326 . S
In585 O596 2.294 . S
In585 O597 2.326 . S
O586 In585 2.294 . S
O586 C595 1.240 . S
O587 In585 2.326 . S
O587 C595 1.252 . S
C588 O591 1.252 . S
C588 O592 1.260 . S
C589 O596 1.240 . S
C589 O597 1.252 . S
C590 O593 1.252 . S
C590 O594 1.260 . S
O591 In585 2.266 . S
O591 C588 1.252 . S
O592 In585 2.326 . S
O592 C588 1.260 . S
O593 In585 2.266 . S
O593 C590 1.252 . S
O594 In585 2.326 . S
O594 C590 1.260 . S
C595 O586 1.240 . S
C595 O587 1.252 . S
O596 In585 2.294 . S
O596 C589 1.240 . S
O597 In585 2.326 . S
O597 C589 1.252 . S
In598 O599 2.294 . S
In598 O600 2.326 . S
In598 O604 2.266 . S
In598 O605 2.326 . S
In598 O606 2.266 . S
In598 O607 2.326 . S
In598 O609 2.294 . S
In598 O610 2.326 . S
O599 In598 2.294 . S
O599 C608 1.240 . S
O600 In598 2.326 . S
O600 C608 1.252 . S
C601 O604 1.252 . S
C601 O605 1.260 . S
C602 O609 1.240 . S
C602 O610 1.252 . S
C603 O606 1.252 . S
C603 O607 1.260 . S
O604 In598 2.266 . S
O604 C601 1.252 . S
O605 In598 2.326 . S
O605 C601 1.260 . S
O606 In598 2.266 . S
O606 C603 1.252 . S
O607 In598 2.326 . S
O607 C603 1.260 . S
C608 O599 1.240 . S
C608 O600 1.252 . S
O609 In598 2.294 . S
O609 C602 1.240 . S
O610 In598 2.326 . S
O610 C602 1.252 . S
In611 O612 2.294 . S
In611 O613 2.326 . S
In611 O617 2.266 . S
In611 O618 2.326 . S
In611 O619 2.266 . S
In611 O620 2.326 . S
In611 O622 2.294 . S
In611 O623 2.326 . S
O612 In611 2.294 . S
O612 C621 1.240 . S
O613 In611 2.326 . S
O613 C621 1.252 . S
C614 O617 1.252 . S
C614 O618 1.260 . S
C615 O622 1.240 . S
C615 O623 1.252 . S
C616 O619 1.252 . S
C616 O620 1.260 . S
O617 In611 2.266 . S
O617 C614 1.252 . S
O618 In611 2.326 . S
O618 C614 1.260 . S
O619 In611 2.266 . S
O619 C616 1.252 . S
O620 In611 2.326 . S
O620 C616 1.260 . S
C621 O612 1.240 . S
C621 O613 1.252 . S
O622 In611 2.294 . S
O622 C615 1.240 . S
O623 In611 2.326 . S
O623 C615 1.252 . S
C624 C625 1.349 . S
C624 C626 1.327 . S
C624 H649 0.950 . S
C625 C624 1.349 . S
C625 C641 1.349 . S
C626 C624 1.327 . S
C626 C645 1.429 . S
C626 H650 0.950 . S
C627 C644 1.574 . S
C627 C646 1.368 . S
C627 H651 0.949 . S
H628 C632 0.949 . S
C629 C630 1.349 . S
C629 C631 1.327 . S
C629 H652 0.950 . S
C630 C629 1.349 . S
C630 C642 1.349 . S
C631 C629 1.327 . S
C631 C647 1.429 . S
C631 H653 0.950 . S
C632 H628 0.949 . S
C632 C640 1.574 . S
C632 C648 1.368 . S
H633 C641 0.950 . S
H634 C639 0.950 . S
H635 C640 0.949 . S
H636 C642 0.950 . S
H637 C643 0.950 . S
H638 C644 0.949 . S
C639 H634 0.950 . S
C639 C641 1.327 . S
C639 C645 1.429 . S
C640 C632 1.574 . S
C640 H635 0.949 . S
C640 C646 1.368 . S
C641 C625 1.349 . S
C641 H633 0.950 . S
C641 C639 1.327 . S
C642 C630 1.349 . S
C642 H636 0.950 . S
C642 C643 1.327 . S
C643 H637 0.950 . S
C643 C642 1.327 . S
C643 C647 1.429 . S
C644 C627 1.574 . S
C644 H638 0.949 . S
C644 C648 1.368 . S
C645 C626 1.429 . S
C645 C639 1.429 . S
C645 C646 1.523 . S
C646 C627 1.368 . S
C646 C640 1.368 . S
C646 C645 1.523 . S
C647 C631 1.429 . S
C647 C643 1.429 . S
C647 C648 1.523 . S
C648 C632 1.368 . S
C648 C644 1.368 . S
C648 C647 1.523 . S
H649 C624 0.950 . S
H650 C626 0.950 . S
H651 C627 0.949 . S
H652 C629 0.950 . S
H653 C631 0.950 . S
C654 C655 1.349 . S
C654 C656 1.327 . S
C654 H679 0.950 . S
C655 C654 1.349 . S
C655 C671 1.346 1_565 S
C656 C654 1.327 . S
C656 C675 1.429 . S
C656 H680 0.950 . S
C657 C674 1.574 . S
C657 C676 1.368 1_545 S
C657 H681 0.949 . S
H658 C662 0.949 . S
C659 C660 1.349 . S
C659 C661 1.327 . S
C659 H682 0.950 . S
C660 C659 1.349 . S
C660 C672 1.345 1_545 S
C661 C659 1.327 . S
C661 C677 1.429 . S
C661 H683 0.950 . S
C662 H658 0.949 . S
C662 C670 1.574 . S
C662 C678 1.368 1_565 S
H663 C671 0.952 . S
H664 C669 0.950 . S
H665 C670 0.949 . S
H666 C672 0.952 . S
H667 C673 0.950 . S
H668 C674 0.949 . S
C669 H664 0.950 . S
C669 C671 1.328 . S
C669 C675 1.429 1_545 S
C670 C662 1.574 . S
C670 H665 0.949 . S
C670 C676 1.368 . S
C671 C655 1.346 1_545 S
C671 H663 0.952 . S
C671 C669 1.328 . S
C672 C660 1.345 1_565 S
C672 H666 0.952 . S
C672 C673 1.328 . S
C673 H667 0.950 . S
C673 C672 1.328 . S
C673 C677 1.429 1_565 S
C674 C657 1.574 . S
C674 H668 0.949 . S
C674 C678 1.368 . S
C675 C656 1.429 . S
C675 C669 1.429 1_565 S
C675 C676 1.523 . S
C676 C657 1.368 1_565 S
C676 C670 1.368 . S
C676 C675 1.523 . S
C677 C661 1.429 . S
C677 C673 1.429 1_545 S
C677 C678 1.523 . S
C678 C662 1.368 1_545 S
C678 C674 1.368 . S
C678 C677 1.523 . S
H679 C654 0.950 . S
H680 C656 0.950 . S
H681 C657 0.949 . S
H682 C659 0.950 . S
H683 C661 0.950 . S
C684 C685 1.349 . S
C684 C686 1.327 . S
C684 H709 0.950 . S
C685 C684 1.349 . S
C685 C701 1.349 . S
C686 C684 1.327 . S
C686 C705 1.429 . S
C686 H710 0.950 . S
C687 C704 1.574 1_556 S
C687 C706 1.368 . S
C687 H711 0.949 . S
H688 C692 0.949 . S
C689 C690 1.349 . S
C689 C691 1.327 . S
C689 H712 0.950 . S
C690 C689 1.349 . S
C690 C702 1.349 . S
C691 C689 1.327 . S
C691 C707 1.429 . S
C691 H713 0.950 . S
C692 H688 0.949 . S
C692 C700 1.574 1_554 S
C692 C708 1.368 . S
H693 C701 0.950 . S
H694 C699 0.950 . S
H695 C700 0.949 . S
H696 C702 0.950 . S
H697 C703 0.950 . S
H698 C704 0.949 . S
C699 H694 0.950 . S
C699 C701 1.327 . S
C699 C705 1.429 . S
C700 C692 1.574 1_556 S
C700 H695 0.949 . S
C700 C706 1.368 . S
C701 C685 1.349 . S
C701 H693 0.950 . S
C701 C699 1.327 . S
C702 C690 1.349 . S
C702 H696 0.950 . S
C702 C703 1.327 . S
C703 H697 0.950 . S
C703 C702 1.327 . S
C703 C707 1.429 . S
C704 C687 1.574 1_554 S
C704 H698 0.949 . S
C704 C708 1.368 . S
C705 C686 1.429 . S
C705 C699 1.429 . S
C705 C706 1.523 . S
C706 C687 1.368 . S
C706 C700 1.368 . S
C706 C705 1.523 . S
C707 C691 1.429 . S
C707 C703 1.429 . S
C707 C708 1.523 . S
C708 C692 1.368 . S
C708 C704 1.368 . S
C708 C707 1.523 . S
H709 C684 0.950 . S
H710 C686 0.950 . S
H711 C687 0.949 . S
H712 C689 0.950 . S
H713 C691 0.950 . S
C714 C715 1.349 . S
C714 C716 1.327 . S
C714 H739 0.950 . S
C715 C714 1.349 . S
C715 C731 1.349 . S
C716 C714 1.327 . S
C716 C735 1.429 . S
C716 H740 0.950 . S
C717 C734 1.574 . S
C717 C736 1.368 1_545 S
C717 H741 0.949 . S
H718 C722 0.949 . S
C719 C720 1.349 . S
C719 C721 1.327 . S
C719 H742 0.950 . S
C720 C719 1.349 . S
C720 C732 1.349 . S
C721 C719 1.327 . S
C721 C737 1.429 . S
C721 H743 0.950 . S
C722 H718 0.949 . S
C722 C730 1.574 . S
C722 C738 1.368 1_565 S
H723 C731 0.950 1_545 S
H724 C729 0.950 . S
H725 C730 0.949 . S
H726 C732 0.950 1_565 S
H727 C733 0.950 . S
H728 C734 0.949 . S
C729 H724 0.950 . S
C729 C731 1.327 1_545 S
C729 C735 1.429 1_545 S
C730 C722 1.574 . S
C730 H725 0.949 . S
C730 C736 1.368 . S
C731 C715 1.349 . S
C731 H723 0.950 1_565 S
C731 C729 1.327 1_565 S
C732 C720 1.349 . S
C732 H726 0.950 1_545 S
C732 C733 1.327 1_545 S
C733 H727 0.950 . S
C733 C732 1.327 1_565 S
C733 C737 1.429 1_565 S
C734 C717 1.574 . S
C734 H728 0.949 . S
C734 C738 1.368 . S
C735 C716 1.429 . S
C735 C729 1.429 1_565 S
C735 C736 1.523 . S
C736 C717 1.368 1_565 S
C736 C730 1.368 . S
C736 C735 1.523 . S
C737 C721 1.429 . S
C737 C733 1.429 1_545 S
C737 C738 1.523 . S
C738 C722 1.368 1_545 S
C738 C734 1.368 . S
C738 C737 1.523 . S
H739 C714 0.950 . S
H740 C716 0.950 . S
H741 C717 0.949 . S
H742 C719 0.950 . S
H743 C721 0.950 . S
C744 C745 1.349 . S
C744 C746 1.327 . S
C744 H769 0.950 . S
C745 C744 1.349 . S
C745 C761 1.349 . S
C746 C744 1.327 . S
C746 C765 1.429 . S
C746 H770 0.950 . S
C747 C764 1.574 . S
C747 C766 1.368 . S
C747 H771 0.949 . S
H748 C752 0.949 . S
C749 C750 1.349 . S
C749 C751 1.327 . S
C749 H772 0.950 . S
C750 C749 1.349 . S
C750 C762 1.349 . S
C751 C749 1.327 . S
C751 C767 1.429 . S
C751 H773 0.950 . S
C752 H748 0.949 . S
C752 C760 1.574 . S
C752 C768 1.368 . S
H753 C761 0.950 . S
H754 C759 0.950 . S
H755 C760 0.949 . S
H756 C762 0.950 . S
H757 C763 0.950 . S
H758 C764 0.949 . S
C759 H754 0.950 . S
C759 C761 1.327 . S
C759 C765 1.429 . S
C760 C752 1.574 . S
C760 H755 0.949 . S
C760 C766 1.368 . S
C761 C745 1.349 . S
C761 H753 0.950 . S
C761 C759 1.327 . S
C762 C750 1.349 . S
C762 H756 0.950 . S
C762 C763 1.327 . S
C763 H757 0.950 . S
C763 C762 1.327 . S
C763 C767 1.429 . S
C764 C747 1.574 . S
C764 H758 0.949 . S
C764 C768 1.368 . S
C765 C746 1.429 . S
C765 C759 1.429 . S
C765 C766 1.523 . S
C766 C747 1.368 . S
C766 C760 1.368 . S
C766 C765 1.523 . S
C767 C751 1.429 . S
C767 C763 1.429 . S
C767 C768 1.523 . S
C768 C752 1.368 . S
C768 C764 1.368 . S
C768 C767 1.523 . S
H769 C744 0.950 . S
H770 C746 0.950 . S
H771 C747 0.949 . S
H772 C749 0.950 . S
H773 C751 0.950 . S
C774 C775 1.349 . S
C774 C776 1.327 . S
C774 H799 0.950 . S
C775 C774 1.349 . S
C775 C791 1.349 . S
C776 C774 1.327 . S
C776 C795 1.429 . S
C776 H800 0.950 . S
C777 C794 1.574 . S
C777 C796 1.368 1_455 S
C777 H801 0.949 . S
H778 C782 0.949 . S
C779 C780 1.349 . S
C779 C781 1.327 . S
C779 H802 0.950 . S
C780 C779 1.349 . S
C780 C792 1.349 . S
C781 C779 1.327 . S
C781 C797 1.429 . S
C781 H803 0.950 . S
C782 H778 0.949 . S
C782 C790 1.574 . S
C782 C798 1.368 1_655 S
H783 C791 0.950 1_455 S
H784 C789 0.946 . S
H785 C790 0.949 . S
H786 C792 0.950 1_655 S
H787 C793 0.947 . S
H788 C794 0.949 . S
C789 H784 0.946 . S
C789 C791 1.328 1_455 S
C789 C795 1.431 1_455 S
C790 C782 1.574 . S
C790 H785 0.949 . S
C790 C796 1.368 . S
C791 C775 1.349 . S
C791 H783 0.950 1_655 S
C791 C789 1.328 1_655 S
C792 C780 1.349 . S
C792 H786 0.950 1_455 S
C792 C793 1.328 1_455 S
C793 H787 0.947 . S
C793 C792 1.328 1_655 S
C793 C797 1.430 1_655 S
C794 C777 1.574 . S
C794 H788 0.949 . S
C794 C798 1.368 . S
C795 C776 1.429 . S
C795 C789 1.431 1_655 S
C795 C796 1.523 . S
C796 C777 1.368 1_655 S
C796 C790 1.368 . S
C796 C795 1.523 . S
C797 C781 1.429 . S
C797 C793 1.430 1_455 S
C797 C798 1.523 . S
C798 C782 1.368 1_455 S
C798 C794 1.368 . S
C798 C797 1.523 . S
H799 C774 0.950 . S
H800 C776 0.950 . S
H801 C777 0.949 . S
H802 C779 0.950 . S
H803 C781 0.950 . S
C804 C805 1.349 . S
C804 C806 1.327 . S
C804 H829 0.950 . S
C805 C804 1.349 . S
C805 C821 1.349 . S
C806 C804 1.327 . S
C806 C825 1.429 . S
C806 H830 0.950 . S
C807 C824 1.574 1_455 S
C807 C826 1.368 . S
C807 H831 0.949 . S
H808 C812 0.949 . S
C809 C810 1.349 . S
C809 C811 1.327 . S
C809 H832 0.950 . S
C810 C809 1.349 . S
C810 C822 1.349 . S
C811 C809 1.327 . S
C811 C827 1.429 . S
C811 H833 0.950 . S
C812 H808 0.949 . S
C812 C820 1.574 1_655 S
C812 C828 1.368 . S
H813 C821 0.950 . S
H814 C819 0.950 . S
H815 C820 0.949 . S
H816 C822 0.950 . S
H817 C823 0.950 . S
H818 C824 0.949 . S
C819 H814 0.950 . S
C819 C821 1.327 . S
C819 C825 1.429 . S
C820 C812 1.574 1_455 S
C820 H815 0.949 . S
C820 C826 1.368 . S
C821 C805 1.349 . S
C821 H813 0.950 . S
C821 C819 1.327 . S
C822 C810 1.349 . S
C822 H816 0.950 . S
C822 C823 1.327 . S
C823 H817 0.950 . S
C823 C822 1.327 . S
C823 C827 1.429 . S
C824 C807 1.574 1_655 S
C824 H818 0.949 . S
C824 C828 1.368 . S
C825 C806 1.429 . S
C825 C819 1.429 . S
C825 C826 1.523 . S
C826 C807 1.368 . S
C826 C820 1.368 . S
C826 C825 1.523 . S
C827 C811 1.429 . S
C827 C823 1.429 . S
C827 C828 1.523 . S
C828 C812 1.368 . S
C828 C824 1.368 . S
C828 C827 1.523 . S
H829 C804 0.950 . S
H830 C806 0.950 . S
H831 C807 0.949 . S
H832 C809 0.950 . S
H833 C811 0.950 . S
C834 C835 1.349 . S
C834 C836 1.327 . S
C834 H859 0.950 . S
C835 C834 1.349 . S
C835 C851 1.349 . S
C836 C834 1.327 . S
C836 C855 1.429 . S
C836 H860 0.950 . S
C837 C854 1.574 . S
C837 C856 1.368 . S
C837 H861 0.949 . S
H838 C842 0.949 . S
C839 C840 1.349 . S
C839 C841 1.327 . S
C839 H862 0.950 . S
C840 C839 1.349 . S
C840 C852 1.349 . S
C841 C839 1.327 . S
C841 C857 1.429 . S
C841 H863 0.950 . S
C842 H838 0.949 . S
C842 C850 1.574 . S
C842 C858 1.368 . S
H843 C851 0.950 . S
H844 C849 0.950 . S
H845 C850 0.949 . S
H846 C852 0.950 . S
H847 C853 0.950 . S
H848 C854 0.949 . S
C849 H844 0.950 . S
C849 C851 1.327 . S
C849 C855 1.429 . S
C850 C842 1.574 . S
C850 H845 0.949 . S
C850 C856 1.368 . S
C851 C835 1.349 . S
C851 H843 0.950 . S
C851 C849 1.327 . S
C852 C840 1.349 . S
C852 H846 0.950 . S
C852 C853 1.327 . S
C853 H847 0.950 . S
C853 C852 1.327 . S
C853 C857 1.429 . S
C854 C837 1.574 . S
C854 H848 0.949 . S
C854 C858 1.368 . S
C855 C836 1.429 . S
C855 C849 1.429 . S
C855 C856 1.523 . S
C856 C837 1.368 . S
C856 C850 1.368 . S
C856 C855 1.523 . S
C857 C841 1.429 . S
C857 C853 1.429 . S
C857 C858 1.523 . S
C858 C842 1.368 . S
C858 C854 1.368 . S
C858 C857 1.523 . S
H859 C834 0.950 . S
H860 C836 0.950 . S
H861 C837 0.949 . S
H862 C839 0.950 . S
H863 C841 0.950 . S
C864 C865 1.349 . S
C864 C866 1.327 . S
C864 H889 0.950 . S
C865 C864 1.349 . S
C865 C881 1.349 . S
C866 C864 1.327 . S
C866 C885 1.429 . S
C866 H890 0.950 . S
C867 C884 1.574 . S
C867 C886 1.368 . S
C867 H891 0.949 . S
H868 C872 0.949 . S
C869 C870 1.349 . S
C869 C871 1.327 . S
C869 H892 0.950 . S
C870 C869 1.349 . S
C870 C882 1.349 . S
C871 C869 1.327 . S
C871 C887 1.429 . S
C871 H893 0.950 . S
C872 H868 0.949 . S
C872 C880 1.574 . S
C872 C888 1.368 . S
H873 C881 0.950 . S
H874 C879 0.950 . S
H875 C880 0.949 . S
H876 C882 0.950 . S
H877 C883 0.950 . S
H878 C884 0.949 . S
C879 H874 0.950 . S
C879 C881 1.327 . S
C879 C885 1.429 . S
C880 C872 1.574 . S
C880 H875 0.949 . S
C880 C886 1.368 . S
C881 C865 1.349 . S
C881 H873 0.950 . S
C881 C879 1.327 . S
C882 C870 1.349 . S
C882 H876 0.950 . S
C882 C883 1.327 . S
C883 H877 0.950 . S
C883 C882 1.327 . S
C883 C887 1.429 . S
C884 C867 1.574 . S
C884 H878 0.949 . S
C884 C888 1.368 . S
C885 C866 1.429 . S
C885 C879 1.429 . S
C885 C886 1.523 . S
C886 C867 1.368 . S
C886 C880 1.368 . S
C886 C885 1.523 . S
C887 C871 1.429 . S
C887 C883 1.429 . S
C887 C888 1.523 . S
C888 C872 1.368 . S
C888 C884 1.368 . S
C888 C887 1.523 . S
H889 C864 0.950 . S
H890 C866 0.950 . S
H891 C867 0.949 . S
H892 C869 0.950 . S
H893 C871 0.950 . S
C894 C895 1.349 . S
C894 C896 1.327 . S
C894 H919 0.950 . S
C895 C894 1.349 . S
C895 C911 1.349 . S
C896 C894 1.327 . S
C896 C915 1.429 . S
C896 H920 0.950 . S
C897 C914 1.574 . S
C897 C916 1.368 . S
C897 H921 0.949 . S
H898 C902 0.949 . S
C899 C900 1.349 . S
C899 C901 1.327 . S
C899 H922 0.950 . S
C900 C899 1.349 . S
C900 C912 1.349 . S
C901 C899 1.327 . S
C901 C917 1.429 . S
C901 H923 0.950 . S
C902 H898 0.949 . S
C902 C910 1.574 . S
C902 C918 1.368 . S
H903 C911 0.950 . S
H904 C909 0.950 . S
H905 C910 0.949 . S
H906 C912 0.950 . S
H907 C913 0.950 . S
H908 C914 0.949 . S
C909 H904 0.950 . S
C909 C911 1.327 . S
C909 C915 1.429 . S
C910 C902 1.574 . S
C910 H905 0.949 . S
C910 C916 1.368 . S
C911 C895 1.349 . S
C911 H903 0.950 . S
C911 C909 1.327 . S
C912 C900 1.349 . S
C912 H906 0.950 . S
C912 C913 1.327 . S
C913 H907 0.950 . S
C913 C912 1.327 . S
C913 C917 1.429 . S
C914 C897 1.574 . S
C914 H908 0.949 . S
C914 C918 1.368 . S
C915 C896 1.429 . S
C915 C909 1.429 . S
C915 C916 1.523 . S
C916 C897 1.368 . S
C916 C910 1.368 . S
C916 C915 1.523 . S
C917 C901 1.429 . S
C917 C913 1.429 . S
C917 C918 1.523 . S
C918 C902 1.368 . S
C918 C914 1.368 . S
C918 C917 1.523 . S
H919 C894 0.950 . S
H920 C896 0.950 . S
H921 C897 0.949 . S
H922 C899 0.950 . S
H923 C901 0.950 . S
C924 C925 1.349 . S
C924 C926 1.327 . S
C924 H949 0.950 . S
C925 C924 1.349 . S
C925 C941 1.349 . S
C926 C924 1.327 . S
C926 C945 1.429 . S
C926 H950 0.950 . S
C927 C944 1.574 1_655 S
C927 C946 1.368 . S
C927 H951 0.949 . S
H928 C932 0.949 . S
C929 C930 1.349 . S
C929 C931 1.327 . S
C929 H952 0.950 . S
C930 C929 1.349 . S
C930 C942 1.349 . S
C931 C929 1.327 . S
C931 C947 1.429 . S
C931 H953 0.950 . S
C932 H928 0.949 . S
C932 C940 1.574 1_455 S
C932 C948 1.368 . S
H933 C941 0.950 . S
H934 C939 0.950 . S
H935 C940 0.949 . S
H936 C942 0.950 . S
H937 C943 0.950 . S
H938 C944 0.949 . S
C939 H934 0.950 . S
C939 C941 1.327 . S
C939 C945 1.429 . S
C940 C932 1.574 1_655 S
C940 H935 0.949 . S
C940 C946 1.368 . S
C941 C925 1.349 . S
C941 H933 0.950 . S
C941 C939 1.327 . S
C942 C930 1.349 . S
C942 H936 0.950 . S
C942 C943 1.327 . S
C943 H937 0.950 . S
C943 C942 1.327 . S
C943 C947 1.429 . S
C944 C927 1.574 1_455 S
C944 H938 0.949 . S
C944 C948 1.368 . S
C945 C926 1.429 . S
C945 C939 1.429 . S
C945 C946 1.523 . S
C946 C927 1.368 . S
C946 C940 1.368 . S
C946 C945 1.523 . S
C947 C931 1.429 . S
C947 C943 1.429 . S
C947 C948 1.523 . S
C948 C932 1.368 . S
C948 C944 1.368 . S
C948 C947 1.523 . S
H949 C924 0.950 . S
H950 C926 0.950 . S
H951 C927 0.949 . S
H952 C929 0.950 . S
H953 C931 0.950 . S
C954 C955 1.349 . S
C954 C956 1.328 1_655 S
C954 H979 0.950 1_655 S
C955 C954 1.349 . S
C955 C971 1.349 . S
C956 C954 1.328 1_455 S
C956 C975 1.431 1_455 S
C956 H980 0.946 . S
C957 C974 1.574 . S
C957 C976 1.368 . S
C957 H981 0.949 . S
H958 C962 0.949 . S
C959 C960 1.349 . S
C959 C961 1.328 1_455 S
C959 H982 0.950 1_455 S
C960 C959 1.349 . S
C960 C972 1.349 . S
C961 C959 1.328 1_655 S
C961 C977 1.431 1_655 S
C961 H983 0.947 . S
C962 H958 0.949 . S
C962 C970 1.574 . S
C962 C978 1.368 . S
H963 C971 0.950 . S
H964 C969 0.950 . S
H965 C970 0.949 . S
H966 C972 0.950 . S
H967 C973 0.950 . S
H968 C974 0.949 . S
C969 H964 0.950 . S
C969 C971 1.327 . S
C969 C975 1.429 . S
C970 C962 1.574 . S
C970 H965 0.949 . S
C970 C976 1.368 1_455 S
C971 C955 1.349 . S
C971 H963 0.950 . S
C971 C969 1.327 . S
C972 C960 1.349 . S
C972 H966 0.950 . S
C972 C973 1.327 . S
C973 H967 0.950 . S
C973 C972 1.327 . S
C973 C977 1.429 . S
C974 C957 1.574 . S
C974 H968 0.949 . S
C974 C978 1.368 1_655 S
C975 C956 1.431 1_655 S
C975 C969 1.429 . S
C975 C976 1.523 . S
C976 C957 1.368 . S
C976 C970 1.368 1_655 S
C976 C975 1.523 . S
C977 C961 1.431 1_455 S
C977 C973 1.429 . S
C977 C978 1.523 . S
C978 C962 1.368 . S
C978 C974 1.368 1_455 S
C978 C977 1.523 . S
H979 C954 0.950 1_455 S
H980 C956 0.946 . S
H981 C957 0.949 . S
H982 C959 0.950 1_655 S
H983 C961 0.947 . S
C984 C985 1.349 . S
C984 C986 1.327 . S
C984 H1009 0.950 . S
C985 C984 1.349 . S
C985 C1001 1.349 . S
C986 C984 1.327 . S
C986 C1005 1.429 . S
C986 H1010 0.950 . S
C987 C1004 1.574 . S
C987 C1006 1.368 . S
C987 H1011 0.949 . S
H988 C992 0.949 . S
C989 C990 1.349 . S
C989 C991 1.327 . S
C989 H1012 0.950 . S
C990 C989 1.349 . S
C990 C1002 1.349 . S
C991 C989 1.327 . S
C991 C1007 1.429 . S
C991 H1013 0.950 . S
C992 H988 0.949 . S
C992 C1000 1.574 . S
C992 C1008 1.368 . S
H993 C1001 0.950 . S
H994 C999 0.950 . S
H995 C1000 0.949 . S
H996 C1002 0.950 . S
H997 C1003 0.950 . S
H998 C1004 0.949 . S
C999 H994 0.950 . S
C999 C1001 1.327 . S
C999 C1005 1.429 . S
C1000 C992 1.574 . S
C1000 H995 0.949 . S
C1000 C1006 1.368 . S
C1001 C985 1.349 . S
C1001 H993 0.950 . S
C1001 C999 1.327 . S
C1002 C990 1.349 . S
C1002 H996 0.950 . S
C1002 C1003 1.327 . S
C1003 H997 0.950 . S
C1003 C1002 1.327 . S
C1003 C1007 1.429 . S
C1004 C987 1.574 . S
C1004 H998 0.949 . S
C1004 C1008 1.368 . S
C1005 C986 1.429 . S
C1005 C999 1.429 . S
C1005 C1006 1.523 . S
C1006 C987 1.368 . S
C1006 C1000 1.368 . S
C1006 C1005 1.523 . S
C1007 C991 1.429 . S
C1007 C1003 1.429 . S
C1007 C1008 1.523 . S
C1008 C992 1.368 . S
C1008 C1004 1.368 . S
C1008 C1007 1.523 . S
H1009 C984 0.950 . S
H1010 C986 0.950 . S
H1011 C987 0.949 . S
H1012 C989 0.950 . S
H1013 C991 0.950 . S
C1014 C1015 1.349 . S
C1014 C1016 1.327 . S
C1014 H1039 0.950 . S
C1015 C1014 1.349 . S
C1015 C1031 1.349 . S
C1016 C1014 1.327 . S
C1016 C1035 1.429 . S
C1016 H1040 0.950 . S
C1017 C1034 1.574 1_545 S
C1017 C1036 1.368 . S
C1017 H1041 0.949 . S
H1018 C1022 0.949 . S
C1019 C1020 1.349 . S
C1019 C1021 1.327 . S
C1019 H1042 0.950 . S
C1020 C1019 1.349 . S
C1020 C1032 1.349 . S
C1021 C1019 1.327 . S
C1021 C1037 1.429 . S
C1021 H1043 0.950 . S
C1022 H1018 0.949 . S
C1022 C1030 1.574 1_565 S
C1022 C1038 1.368 . S
H1023 C1031 0.950 . S
H1024 C1029 0.950 . S
H1025 C1030 0.949 . S
H1026 C1032 0.950 . S
H1027 C1033 0.950 . S
H1028 C1034 0.949 . S
C1029 H1024 0.950 . S
C1029 C1031 1.327 . S
C1029 C1035 1.429 . S
C1030 C1022 1.574 1_545 S
C1030 H1025 0.949 . S
C1030 C1036 1.368 . S
C1031 C1015 1.349 . S
C1031 H1023 0.950 . S
C1031 C1029 1.327 . S
C1032 C1020 1.349 . S
C1032 H1026 0.950 . S
C1032 C1033 1.327 . S
C1033 H1027 0.950 . S
C1033 C1032 1.327 . S
C1033 C1037 1.429 . S
C1034 C1017 1.574 1_565 S
C1034 H1028 0.949 . S
C1034 C1038 1.368 . S
C1035 C1016 1.429 . S
C1035 C1029 1.429 . S
C1035 C1036 1.523 . S
C1036 C1017 1.368 . S
C1036 C1030 1.368 . S
C1036 C1035 1.523 . S
C1037 C1021 1.429 . S
C1037 C1033 1.429 . S
C1037 C1038 1.523 . S
C1038 C1022 1.368 . S
C1038 C1034 1.368 . S
C1038 C1037 1.523 . S
H1039 C1014 0.950 . S
H1040 C1016 0.950 . S
H1041 C1017 0.949 . S
H1042 C1019 0.950 . S
H1043 C1021 0.950 . S
C1044 C1045 1.349 . S
C1044 C1046 1.327 . S
C1044 H1069 0.950 . S
C1045 C1044 1.349 . S
C1045 C1061 1.349 . S
C1046 C1044 1.327 . S
C1046 C1065 1.429 . S
C1046 H1070 0.950 . S
C1047 C1064 1.574 . S
C1047 C1066 1.368 1_556 S
C1047 H1071 0.949 . S
H1048 C1052 0.949 . S
C1049 C1050 1.349 . S
C1049 C1051 1.327 . S
C1049 H1072 0.950 . S
C1050 C1049 1.349 . S
C1050 C1062 1.349 . S
C1051 C1049 1.327 . S
C1051 C1067 1.429 . S
C1051 H1073 0.950 . S
C1052 H1048 0.949 . S
C1052 C1060 1.574 . S
C1052 C1068 1.368 1_554 S
H1053 C1061 0.950 1_556 S
H1054 C1059 0.947 . S
H1055 C1060 0.949 . S
H1056 C1062 0.950 1_554 S
H1057 C1063 0.946 . S
H1058 C1064 0.949 . S
C1059 H1054 0.947 . S
C1059 C1061 1.328 1_556 S
C1059 C1065 1.430 1_556 S
C1060 C1052 1.574 . S
C1060 H1055 0.949 . S
C1060 C1066 1.368 . S
C1061 C1045 1.349 . S
C1061 H1053 0.950 1_554 S
C1061 C1059 1.328 1_554 S
C1062 C1050 1.349 . S
C1062 H1056 0.950 1_556 S
C1062 C1063 1.328 1_556 S
C1063 H1057 0.946 . S
C1063 C1062 1.328 1_554 S
C1063 C1067 1.431 1_554 S
C1064 C1047 1.574 . S
C1064 H1058 0.949 . S
C1064 C1068 1.368 . S
C1065 C1046 1.429 . S
C1065 C1059 1.430 1_554 S
C1065 C1066 1.523 . S
C1066 C1047 1.368 1_554 S
C1066 C1060 1.368 . S
C1066 C1065 1.523 . S
C1067 C1051 1.429 . S
C1067 C1063 1.431 1_556 S
C1067 C1068 1.523 . S
C1068 C1052 1.368 1_556 S
C1068 C1064 1.368 . S
C1068 C1067 1.523 . S
H1069 C1044 0.950 . S
H1070 C1046 0.950 . S
H1071 C1047 0.949 . S
H1072 C1049 0.950 . S
H1073 C1051 0.950 . S
C1074 C1075 1.349 . S
C1074 C1076 1.327 . S
C1074 H1099 0.950 . S
C1075 C1074 1.349 . S
C1075 C1091 1.349 . S
C1076 C1074 1.327 . S
C1076 C1095 1.429 . S
C1076 H1100 0.950 . S
C1077 C1094 1.574 1_545 S
C1077 C1096 1.368 . S
C1077 H1101 0.949 . S
H1078 C1082 0.949 . S
C1079 C1080 1.349 . S
C1079 C1081 1.327 . S
C1079 H1102 0.950 . S
C1080 C1079 1.349 . S
C1080 C1092 1.349 . S
C1081 C1079 1.327 . S
C1081 C1097 1.429 . S
C1081 H1103 0.950 . S
C1082 H1078 0.949 . S
C1082 C1090 1.574 1_565 S
C1082 C1098 1.368 . S
H1083 C1091 0.950 . S
H1084 C1089 0.950 . S
H1085 C1090 0.949 . S
H1086 C1092 0.950 . S
H1087 C1093 0.950 . S
H1088 C1094 0.949 . S
C1089 H1084 0.950 . S
C1089 C1091 1.327 . S
C1089 C1095 1.429 . S
C1090 C1082 1.574 1_545 S
C1090 H1085 0.949 . S
C1090 C1096 1.368 . S
C1091 C1075 1.349 . S
C1091 H1083 0.950 . S
C1091 C1089 1.327 . S
C1092 C1080 1.349 . S
C1092 H1086 0.950 . S
C1092 C1093 1.327 . S
C1093 H1087 0.950 . S
C1093 C1092 1.327 . S
C1093 C1097 1.429 . S
C1094 C1077 1.574 1_565 S
C1094 H1088 0.949 . S
C1094 C1098 1.368 . S
C1095 C1076 1.429 . S
C1095 C1089 1.429 . S
C1095 C1096 1.523 . S
C1096 C1077 1.368 . S
C1096 C1090 1.368 . S
C1096 C1095 1.523 . S
C1097 C1081 1.429 . S
C1097 C1093 1.429 . S
C1097 C1098 1.523 . S
C1098 C1082 1.368 . S
C1098 C1094 1.368 . S
C1098 C1097 1.523 . S
H1099 C1074 0.950 . S
H1100 C1076 0.950 . S
H1101 C1077 0.949 . S
H1102 C1079 0.950 . S
H1103 C1081 0.950 . S
C1104 C1105 1.349 . S
C1104 C1106 1.327 . S
C1104 H1129 0.950 . S
C1105 C1104 1.349 . S
C1105 C1121 1.349 . S
C1106 C1104 1.327 . S
C1106 C1125 1.429 . S
C1106 H1130 0.950 . S
C1107 C1124 1.574 . S
C1107 C1126 1.368 1_554 S
C1107 H1131 0.949 . S
H1108 C1112 0.949 . S
C1109 C1110 1.349 . S
C1109 C1111 1.327 . S
C1109 H1132 0.950 . S
C1110 C1109 1.349 . S
C1110 C1122 1.349 . S
C1111 C1109 1.327 . S
C1111 C1127 1.429 . S
C1111 H1133 0.950 . S
C1112 H1108 0.949 . S
C1112 C1120 1.574 . S
C1112 C1128 1.368 1_556 S
H1113 C1121 0.950 1_554 S
H1114 C1119 0.946 . S
H1115 C1120 0.949 . S
H1116 C1122 0.950 1_556 S
H1117 C1123 0.946 . S
H1118 C1124 0.949 . S
C1119 H1114 0.946 . S
C1119 C1121 1.328 1_554 S
C1119 C1125 1.431 1_554 S
C1120 C1112 1.574 . S
C1120 H1115 0.949 . S
C1120 C1126 1.368 . S
C1121 C1105 1.349 . S
C1121 H1113 0.950 1_556 S
C1121 C1119 1.328 1_556 S
C1122 C1110 1.349 . S
C1122 H1116 0.950 1_554 S
C1122 C1123 1.328 1_554 S
C1123 H1117 0.946 . S
C1123 C1122 1.328 1_556 S
C1123 C1127 1.431 1_556 S
C1124 C1107 1.574 . S
C1124 H1118 0.949 . S
C1124 C1128 1.368 . S
C1125 C1106 1.429 . S
C1125 C1119 1.431 1_556 S
C1125 C1126 1.523 . S
C1126 C1107 1.368 1_556 S
C1126 C1120 1.368 . S
C1126 C1125 1.523 . S
C1127 C1111 1.429 . S
C1127 C1123 1.431 1_554 S
C1127 C1128 1.523 . S
C1128 C1112 1.368 1_554 S
C1128 C1124 1.368 . S
C1128 C1127 1.523 . S
H1129 C1104 0.950 . S
H1130 C1106 0.950 . S
H1131 C1107 0.949 . S
H1132 C1109 0.950 . S
H1133 C1111 0.950 . S
C1134 C1135 1.349 . S
C1134 C1136 1.327 . S
C1134 H1159 0.950 . S
C1135 C1134 1.349 . S
C1135 C1151 1.349 . S
C1136 C1134 1.327 . S
C1136 C1155 1.429 . S
C1136 H1160 0.950 . S
C1137 C1154 1.574 . S
C1137 C1156 1.368 . S
C1137 H1161 0.949 . S
H1138 C1142 0.949 . S
C1139 C1140 1.349 . S
C1139 C1141 1.327 . S
C1139 H1162 0.950 . S
C1140 C1139 1.349 . S
C1140 C1152 1.349 . S
C1141 C1139 1.327 . S
C1141 C1157 1.429 . S
C1141 H1163 0.950 . S
C1142 H1138 0.949 . S
C1142 C1150 1.574 . S
C1142 C1158 1.368 . S
H1143 C1151 0.950 . S
H1144 C1149 0.950 . S
H1145 C1150 0.949 . S
H1146 C1152 0.950 . S
H1147 C1153 0.950 . S
H1148 C1154 0.949 . S
C1149 H1144 0.950 . S
C1149 C1151 1.327 . S
C1149 C1155 1.429 . S
C1150 C1142 1.574 . S
C1150 H1145 0.949 . S
C1150 C1156 1.368 . S
C1151 C1135 1.349 . S
C1151 H1143 0.950 . S
C1151 C1149 1.327 . S
C1152 C1140 1.349 . S
C1152 H1146 0.950 . S
C1152 C1153 1.327 . S
C1153 H1147 0.950 . S
C1153 C1152 1.327 . S
C1153 C1157 1.429 . S
C1154 C1137 1.574 . S
C1154 H1148 0.949 . S
C1154 C1158 1.368 . S
C1155 C1136 1.429 . S
C1155 C1149 1.429 . S
C1155 C1156 1.523 . S
C1156 C1137 1.368 . S
C1156 C1150 1.368 . S
C1156 C1155 1.523 . S
C1157 C1141 1.429 . S
C1157 C1153 1.429 . S
C1157 C1158 1.523 . S
C1158 C1142 1.368 . S
C1158 C1154 1.368 . S
C1158 C1157 1.523 . S
H1159 C1134 0.950 . S
H1160 C1136 0.950 . S
H1161 C1137 0.949 . S
H1162 C1139 0.950 . S
H1163 C1141 0.950 . S
C1164 C1165 1.349 . S
C1164 C1166 1.327 . S
C1164 H1189 0.950 . S
C1165 C1164 1.349 . S
C1165 C1181 1.349 . S
C1166 C1164 1.327 . S
C1166 C1185 1.429 . S
C1166 H1190 0.950 . S
C1167 C1184 1.574 . S
C1167 C1186 1.368 . S
C1167 H1191 0.949 . S
H1168 C1172 0.949 . S
C1169 C1170 1.349 . S
C1169 C1171 1.327 . S
C1169 H1192 0.950 . S
C1170 C1169 1.349 . S
C1170 C1182 1.349 . S
C1171 C1169 1.327 . S
C1171 C1187 1.429 . S
C1171 H1193 0.950 . S
C1172 H1168 0.949 . S
C1172 C1180 1.574 . S
C1172 C1188 1.368 . S
H1173 C1181 0.950 . S
H1174 C1179 0.950 . S
H1175 C1180 0.949 . S
H1176 C1182 0.950 . S
H1177 C1183 0.950 . S
H1178 C1184 0.949 . S
C1179 H1174 0.950 . S
C1179 C1181 1.327 . S
C1179 C1185 1.429 . S
C1180 C1172 1.574 . S
C1180 H1175 0.949 . S
C1180 C1186 1.368 . S
C1181 C1165 1.349 . S
C1181 H1173 0.950 . S
C1181 C1179 1.327 . S
C1182 C1170 1.349 . S
C1182 H1176 0.950 . S
C1182 C1183 1.327 . S
C1183 H1177 0.950 . S
C1183 C1182 1.327 . S
C1183 C1187 1.429 . S
C1184 C1167 1.574 . S
C1184 H1178 0.949 . S
C1184 C1188 1.368 . S
C1185 C1166 1.429 . S
C1185 C1179 1.429 . S
C1185 C1186 1.523 . S
C1186 C1167 1.368 . S
C1186 C1180 1.368 . S
C1186 C1185 1.523 . S
C1187 C1171 1.429 . S
C1187 C1183 1.429 . S
C1187 C1188 1.523 . S
C1188 C1172 1.368 . S
C1188 C1184 1.368 . S
C1188 C1187 1.523 . S
H1189 C1164 0.950 . S
H1190 C1166 0.950 . S
H1191 C1167 0.949 . S
H1192 C1169 0.950 . S
H1193 C1171 0.950 . S
C1194 C1195 1.349 . S
C1194 C1196 1.327 . S
C1194 H1219 0.950 . S
C1195 C1194 1.349 . S
C1195 C1211 1.349 . S
C1196 C1194 1.327 . S
C1196 C1215 1.429 . S
C1196 H1220 0.950 . S
C1197 C1214 1.574 1_554 S
C1197 C1216 1.368 . S
C1197 H1221 0.949 . S
H1198 C1202 0.949 . S
C1199 C1200 1.349 . S
C1199 C1201 1.327 . S
C1199 H1222 0.950 . S
C1200 C1199 1.349 . S
C1200 C1212 1.349 . S
C1201 C1199 1.327 . S
C1201 C1217 1.429 . S
C1201 H1223 0.950 . S
C1202 H1198 0.949 . S
C1202 C1210 1.574 1_556 S
C1202 C1218 1.368 . S
H1203 C1211 0.950 . S
H1204 C1209 0.950 . S
H1205 C1210 0.949 . S
H1206 C1212 0.950 . S
H1207 C1213 0.950 . S
H1208 C1214 0.949 . S
C1209 H1204 0.950 . S
C1209 C1211 1.327 . S
C1209 C1215 1.429 . S
C1210 C1202 1.574 1_554 S
C1210 H1205 0.949 . S
C1210 C1216 1.368 . S
C1211 C1195 1.349 . S
C1211 H1203 0.950 . S
C1211 C1209 1.327 . S
C1212 C1200 1.349 . S
C1212 H1206 0.950 . S
C1212 C1213 1.327 . S
C1213 H1207 0.950 . S
C1213 C1212 1.327 . S
C1213 C1217 1.429 . S
C1214 C1197 1.574 1_556 S
C1214 H1208 0.949 . S
C1214 C1218 1.368 . S
C1215 C1196 1.429 . S
C1215 C1209 1.429 . S
C1215 C1216 1.523 . S
C1216 C1197 1.368 . S
C1216 C1210 1.368 . S
C1216 C1215 1.523 . S
C1217 C1201 1.429 . S
C1217 C1213 1.429 . S
C1217 C1218 1.523 . S
C1218 C1202 1.368 . S
C1218 C1214 1.368 . S
C1218 C1217 1.523 . S
H1219 C1194 0.950 . S
H1220 C1196 0.950 . S
H1221 C1197 0.949 . S
H1222 C1199 0.950 . S
H1223 C1201 0.950 . S
C1224 C1225 1.349 . S
C1224 C1226 1.327 . S
C1224 H1249 0.950 . S
C1225 C1224 1.349 . S
C1225 C1241 1.349 . S
C1226 C1224 1.327 . S
C1226 C1245 1.429 . S
C1226 H1250 0.950 . S
C1227 C1244 1.574 . S
C1227 C1246 1.368 . S
C1227 H1251 0.949 . S
H1228 C1232 0.949 . S
C1229 C1230 1.349 . S
C1229 C1231 1.327 . S
C1229 H1252 0.950 . S
C1230 C1229 1.349 . S
C1230 C1242 1.349 . S
C1231 C1229 1.327 . S
C1231 C1247 1.429 . S
C1231 H1253 0.950 . S
C1232 H1228 0.949 . S
C1232 C1240 1.574 . S
C1232 C1248 1.368 . S
H1233 C1241 0.950 . S
H1234 C1239 0.950 . S
H1235 C1240 0.949 . S
H1236 C1242 0.950 . S
H1237 C1243 0.950 . S
H1238 C1244 0.949 . S
C1239 H1234 0.950 . S
C1239 C1241 1.327 . S
C1239 C1245 1.429 . S
C1240 C1232 1.574 . S
C1240 H1235 0.949 . S
C1240 C1246 1.368 . S
C1241 C1225 1.349 . S
C1241 H1233 0.950 . S
C1241 C1239 1.327 . S
C1242 C1230 1.349 . S
C1242 H1236 0.950 . S
C1242 C1243 1.327 . S
C1243 H1237 0.950 . S
C1243 C1242 1.327 . S
C1243 C1247 1.429 . S
C1244 C1227 1.574 . S
C1244 H1238 0.949 . S
C1244 C1248 1.368 . S
C1245 C1226 1.429 . S
C1245 C1239 1.429 . S
C1245 C1246 1.523 . S
C1246 C1227 1.368 . S
C1246 C1240 1.368 . S
C1246 C1245 1.523 . S
C1247 C1231 1.429 . S
C1247 C1243 1.429 . S
C1247 C1248 1.523 . S
C1248 C1232 1.368 . S
C1248 C1244 1.368 . S
C1248 C1247 1.523 . S
H1249 C1224 0.950 . S
H1250 C1226 0.950 . S
H1251 C1227 0.949 . S
H1252 C1229 0.950 . S
H1253 C1231 0.950 . S
C1254 C1255 1.349 . S
C1254 C1256 1.327 . S
C1254 H1279 0.950 . S
C1255 C1254 1.349 . S
C1255 C1271 1.349 . S
C1256 C1254 1.327 . S
C1256 C1275 1.429 . S
C1256 H1280 0.950 . S
C1257 C1274 1.574 . S
C1257 C1276 1.368 . S
C1257 H1281 0.949 . S
H1258 C1262 0.949 . S
C1259 C1260 1.349 . S
C1259 C1261 1.327 . S
C1259 H1282 0.950 . S
C1260 C1259 1.349 . S
C1260 C1272 1.349 . S
C1261 C1259 1.327 . S
C1261 C1277 1.429 . S
C1261 H1283 0.950 . S
C1262 H1258 0.949 . S
C1262 C1270 1.574 . S
C1262 C1278 1.368 . S
H1263 C1271 0.950 . S
H1264 C1269 0.950 . S
H1265 C1270 0.949 . S
H1266 C1272 0.950 . S
H1267 C1273 0.950 . S
H1268 C1274 0.949 . S
C1269 H1264 0.950 . S
C1269 C1271 1.327 . S
C1269 C1275 1.429 . S
C1270 C1262 1.574 . S
C1270 H1265 0.949 . S
C1270 C1276 1.368 . S
C1271 C1255 1.349 . S
C1271 H1263 0.950 . S
C1271 C1269 1.327 . S
C1272 C1260 1.349 . S
C1272 H1266 0.950 . S
C1272 C1273 1.327 . S
C1273 H1267 0.950 . S
C1273 C1272 1.327 . S
C1273 C1277 1.429 . S
C1274 C1257 1.574 . S
C1274 H1268 0.949 . S
C1274 C1278 1.368 . S
C1275 C1256 1.429 . S
C1275 C1269 1.429 . S
C1275 C1276 1.523 . S
C1276 C1257 1.368 . S
C1276 C1270 1.368 . S
C1276 C1275 1.523 . S
C1277 C1261 1.429 . S
C1277 C1273 1.429 . S
C1277 C1278 1.523 . S
C1278 C1262 1.368 . S
C1278 C1274 1.368 . S
C1278 C1277 1.523 . S
H1279 C1254 0.950 . S
H1280 C1256 0.950 . S
H1281 C1257 0.949 . S
H1282 C1259 0.950 . S
H1283 C1261 0.950 . S
C1284 C1285 1.349 . S
C1284 C1286 1.327 . S
C1284 H1309 0.950 . S
C1285 C1284 1.349 . S
C1285 C1301 1.349 . S
C1286 C1284 1.327 . S
C1286 C1305 1.429 . S
C1286 H1310 0.950 . S
C1287 C1304 1.574 . S
C1287 C1306 1.368 . S
C1287 H1311 0.949 . S
H1288 C1292 0.949 . S
C1289 C1290 1.349 . S
C1289 C1291 1.327 . S
C1289 H1312 0.950 . S
C1290 C1289 1.349 . S
C1290 C1302 1.349 . S
C1291 C1289 1.327 . S
C1291 C1307 1.429 . S
C1291 H1313 0.950 . S
C1292 H1288 0.949 . S
C1292 C1300 1.574 . S
C1292 C1308 1.368 . S
H1293 C1301 0.950 . S
H1294 C1299 0.950 . S
H1295 C1300 0.949 . S
H1296 C1302 0.950 . S
H1297 C1303 0.950 . S
H1298 C1304 0.949 . S
C1299 H1294 0.950 . S
C1299 C1301 1.327 . S
C1299 C1305 1.429 . S
C1300 C1292 1.574 . S
C1300 H1295 0.949 . S
C1300 C1306 1.368 . S
C1301 C1285 1.349 . S
C1301 H1293 0.950 . S
C1301 C1299 1.327 . S
C1302 C1290 1.349 . S
C1302 H1296 0.950 . S
C1302 C1303 1.327 . S
C1303 H1297 0.950 . S
C1303 C1302 1.327 . S
C1303 C1307 1.429 . S
C1304 C1287 1.574 . S
C1304 H1298 0.949 . S
C1304 C1308 1.368 . S
C1305 C1286 1.429 . S
C1305 C1299 1.429 . S
C1305 C1306 1.523 . S
C1306 C1287 1.368 . S
C1306 C1300 1.368 . S
C1306 C1305 1.523 . S
C1307 C1291 1.429 . S
C1307 C1303 1.429 . S
C1307 C1308 1.523 . S
C1308 C1292 1.368 . S
C1308 C1304 1.368 . S
C1308 C1307 1.523 . S
H1309 C1284 0.950 . S
H1310 C1286 0.950 . S
H1311 C1287 0.949 . S
H1312 C1289 0.950 . S
H1313 C1291 0.950 . S
C1314 C1315 1.349 . S
C1314 C1316 1.327 . S
C1314 H1339 0.950 . S
C1315 C1314 1.349 . S
C1315 C1331 1.349 . S
C1316 C1314 1.327 . S
C1316 C1335 1.429 . S
C1316 H1340 0.950 . S
C1317 C1334 1.574 . S
C1317 C1336 1.368 . S
C1317 H1341 0.949 . S
H1318 C1322 0.949 . S
C1319 C1320 1.349 . S
C1319 C1321 1.327 . S
C1319 H1342 0.950 . S
C1320 C1319 1.349 . S
C1320 C1332 1.349 . S
C1321 C1319 1.327 . S
C1321 C1337 1.429 . S
C1321 H1343 0.950 . S
C1322 H1318 0.949 . S
C1322 C1330 1.574 . S
C1322 C1338 1.368 . S
H1323 C1331 0.950 . S
H1324 C1329 0.950 . S
H1325 C1330 0.949 . S
H1326 C1332 0.950 . S
H1327 C1333 0.950 . S
H1328 C1334 0.949 . S
C1329 H1324 0.950 . S
C1329 C1331 1.327 . S
C1329 C1335 1.429 . S
C1330 C1322 1.574 . S
C1330 H1325 0.949 . S
C1330 C1336 1.368 . S
C1331 C1315 1.349 . S
C1331 H1323 0.950 . S
C1331 C1329 1.327 . S
C1332 C1320 1.349 . S
C1332 H1326 0.950 . S
C1332 C1333 1.327 . S
C1333 H1327 0.950 . S
C1333 C1332 1.327 . S
C1333 C1337 1.429 . S
C1334 C1317 1.574 . S
C1334 H1328 0.949 . S
C1334 C1338 1.368 . S
C1335 C1316 1.429 . S
C1335 C1329 1.429 . S
C1335 C1336 1.523 . S
C1336 C1317 1.368 . S
C1336 C1330 1.368 . S
C1336 C1335 1.523 . S
C1337 C1321 1.429 . S
C1337 C1333 1.429 . S
C1337 C1338 1.523 . S
C1338 C1322 1.368 . S
C1338 C1334 1.368 . S
C1338 C1337 1.523 . S
H1339 C1314 0.950 . S
H1340 C1316 0.950 . S
H1341 C1317 0.949 . S
H1342 C1319 0.950 . S
H1343 C1321 0.950 . S
C1344 C1345 1.349 . S
C1344 C1346 1.327 . S
C1344 H1369 0.950 . S
C1345 C1344 1.349 . S
C1345 C1361 1.349 . S
C1346 C1344 1.327 . S
C1346 C1365 1.429 . S
C1346 H1370 0.950 . S
C1347 C1364 1.574 . S
C1347 C1366 1.368 . S
C1347 H1371 0.949 . S
H1348 C1352 0.949 . S
C1349 C1350 1.349 . S
C1349 C1351 1.327 . S
C1349 H1372 0.950 . S
C1350 C1349 1.349 . S
C1350 C1362 1.349 . S
C1351 C1349 1.327 . S
C1351 C1367 1.429 . S
C1351 H1373 0.950 . S
C1352 H1348 0.949 . S
C1352 C1360 1.574 . S
C1352 C1368 1.368 . S
H1353 C1361 0.950 . S
H1354 C1359 0.950 . S
H1355 C1360 0.949 . S
H1356 C1362 0.950 . S
H1357 C1363 0.950 . S
H1358 C1364 0.949 . S
C1359 H1354 0.950 . S
C1359 C1361 1.327 . S
C1359 C1365 1.429 . S
C1360 C1352 1.574 . S
C1360 H1355 0.949 . S
C1360 C1366 1.368 . S
C1361 C1345 1.349 . S
C1361 H1353 0.950 . S
C1361 C1359 1.327 . S
C1362 C1350 1.349 . S
C1362 H1356 0.950 . S
C1362 C1363 1.327 . S
C1363 H1357 0.950 . S
C1363 C1362 1.327 . S
C1363 C1367 1.429 . S
C1364 C1347 1.574 . S
C1364 H1358 0.949 . S
C1364 C1368 1.368 . S
C1365 C1346 1.429 . S
C1365 C1359 1.429 . S
C1365 C1366 1.523 . S
C1366 C1347 1.368 . S
C1366 C1360 1.368 . S
C1366 C1365 1.523 . S
C1367 C1351 1.429 . S
C1367 C1363 1.429 . S
C1367 C1368 1.523 . S
C1368 C1352 1.368 . S
C1368 C1364 1.368 . S
C1368 C1367 1.523 . S
H1369 C1344 0.950 . S
H1370 C1346 0.950 . S
H1371 C1347 0.949 . S
H1372 C1349 0.950 . S
H1373 C1351 0.950 . S
C1374 C1375 1.349 . S
C1374 C1376 1.327 . S
C1374 H1399 0.950 1_655 S
C1375 C1374 1.349 . S
C1375 C1391 1.349 . S
C1376 C1374 1.327 . S
C1376 C1395 1.429 . S
C1376 H1400 0.950 . S
C1377 C1394 1.574 . S
C1377 C1396 1.368 . S
C1377 H1401 0.949 . S
H1378 C1382 0.949 . S
C1379 C1380 1.349 . S
C1379 C1381 1.327 . S
C1379 H1402 0.950 . S
C1380 C1379 1.349 . S
C1380 C1392 1.349 . S
C1381 C1379 1.327 . S
C1381 C1397 1.429 . S
C1381 H1403 0.950 . S
C1382 H1378 0.949 . S
C1382 C1390 1.574 . S
C1382 C1398 1.368 . S
H1383 C1391 0.950 . S
H1384 C1389 0.950 . S
H1385 C1390 0.949 . S
H1386 C1392 0.950 . S
H1387 C1393 0.950 . S
H1388 C1394 0.949 . S
C1389 H1384 0.950 . S
C1389 C1391 1.327 . S
C1389 C1395 1.429 . S
C1390 C1382 1.574 . S
C1390 H1385 0.949 . S
C1390 C1396 1.368 . S
C1391 C1375 1.349 . S
C1391 H1383 0.950 . S
C1391 C1389 1.327 . S
C1392 C1380 1.349 . S
C1392 H1386 0.950 . S
C1392 C1393 1.327 . S
C1393 H1387 0.950 . S
C1393 C1392 1.327 . S
C1393 C1397 1.429 . S
C1394 C1377 1.574 . S
C1394 H1388 0.949 . S
C1394 C1398 1.368 . S
C1395 C1376 1.429 . S
C1395 C1389 1.429 . S
C1395 C1396 1.523 . S
C1396 C1377 1.368 . S
C1396 C1390 1.368 . S
C1396 C1395 1.523 . S
C1397 C1381 1.429 . S
C1397 C1393 1.429 . S
C1397 C1398 1.523 . S
C1398 C1382 1.368 . S
C1398 C1394 1.368 . S
C1398 C1397 1.523 . S
H1399 C1374 0.950 1_455 S
H1400 C1376 0.950 . S
H1401 C1377 0.949 . S
H1402 C1379 0.950 . S
H1403 C1381 0.950 . S
C1404 C1405 1.349 . S
C1404 C1406 1.327 . S
C1404 H1429 0.950 . S
C1405 C1404 1.349 . S
C1405 C1421 1.349 . S
C1406 C1404 1.327 . S
C1406 C1425 1.429 . S
C1406 H1430 0.950 . S
C1407 C1424 1.574 . S
C1407 C1426 1.368 . S
C1407 H1431 0.949 . S
H1408 C1412 0.949 . S
C1409 C1410 1.349 . S
C1409 C1411 1.327 . S
C1409 H1432 0.950 . S
C1410 C1409 1.349 . S
C1410 C1422 1.349 . S
C1411 C1409 1.327 . S
C1411 C1427 1.429 . S
C1411 H1433 0.950 . S
C1412 H1408 0.949 . S
C1412 C1420 1.574 . S
C1412 C1428 1.368 . S
H1413 C1421 0.950 . S
H1414 C1419 0.950 . S
H1415 C1420 0.949 . S
H1416 C1422 0.950 . S
H1417 C1423 0.950 . S
H1418 C1424 0.949 . S
C1419 H1414 0.950 . S
C1419 C1421 1.327 . S
C1419 C1425 1.429 . S
C1420 C1412 1.574 . S
C1420 H1415 0.949 . S
C1420 C1426 1.368 . S
C1421 C1405 1.349 . S
C1421 H1413 0.950 . S
C1421 C1419 1.327 . S
C1422 C1410 1.349 . S
C1422 H1416 0.950 . S
C1422 C1423 1.327 . S
C1423 H1417 0.950 . S
C1423 C1422 1.327 . S
C1423 C1427 1.429 . S
C1424 C1407 1.574 . S
C1424 H1418 0.949 . S
C1424 C1428 1.368 . S
C1425 C1406 1.429 . S
C1425 C1419 1.429 . S
C1425 C1426 1.523 . S
C1426 C1407 1.368 . S
C1426 C1420 1.368 . S
C1426 C1425 1.523 . S
C1427 C1411 1.429 . S
C1427 C1423 1.429 . S
C1427 C1428 1.523 . S
C1428 C1412 1.368 . S
C1428 C1424 1.368 . S
C1428 C1427 1.523 . S
H1429 C1404 0.950 . S
H1430 C1406 0.950 . S
H1431 C1407 0.949 . S
H1432 C1409 0.950 . S
H1433 C1411 0.950 . S
C1434 C1435 1.349 . S
C1434 C1436 1.327 . S
C1434 H1459 0.950 . S
C1435 C1434 1.349 . S
C1435 C1451 1.349 . S
C1436 C1434 1.327 . S
C1436 C1455 1.429 . S
C1436 H1460 0.950 . S
C1437 C1454 1.574 . S
C1437 C1456 1.368 . S
C1437 H1461 0.949 . S
H1438 C1442 0.949 . S
C1439 C1440 1.349 . S
C1439 C1441 1.327 . S
C1439 H1462 0.950 . S
C1440 C1439 1.349 . S
C1440 C1452 1.349 . S
C1441 C1439 1.327 . S
C1441 C1457 1.429 . S
C1441 H1463 0.950 . S
C1442 H1438 0.949 . S
C1442 C1450 1.574 . S
C1442 C1458 1.368 . S
H1443 C1451 0.950 . S
H1444 C1449 0.950 . S
H1445 C1450 0.949 . S
H1446 C1452 0.950 . S
H1447 C1453 0.950 . S
H1448 C1454 0.949 . S
C1449 H1444 0.950 . S
C1449 C1451 1.327 . S
C1449 C1455 1.429 . S
C1450 C1442 1.574 . S
C1450 H1445 0.949 . S
C1450 C1456 1.368 . S
C1451 C1435 1.349 . S
C1451 H1443 0.950 . S
C1451 C1449 1.327 . S
C1452 C1440 1.349 . S
C1452 H1446 0.950 . S
C1452 C1453 1.327 . S
C1453 H1447 0.950 . S
C1453 C1452 1.327 . S
C1453 C1457 1.429 . S
C1454 C1437 1.574 . S
C1454 H1448 0.949 . S
C1454 C1458 1.368 . S
C1455 C1436 1.429 . S
C1455 C1449 1.429 . S
C1455 C1456 1.523 . S
C1456 C1437 1.368 . S
C1456 C1450 1.368 . S
C1456 C1455 1.523 . S
C1457 C1441 1.429 . S
C1457 C1453 1.429 . S
C1457 C1458 1.523 . S
C1458 C1442 1.368 . S
C1458 C1454 1.368 . S
C1458 C1457 1.523 . S
H1459 C1434 0.950 . S
H1460 C1436 0.950 . S
H1461 C1437 0.949 . S
H1462 C1439 0.950 . S
H1463 C1441 0.950 . S
C1464 C1465 1.349 . S
C1464 C1466 1.327 . S
C1464 H1489 0.950 . S
C1465 C1464 1.349 . S
C1465 C1481 1.349 . S
C1466 C1464 1.327 . S
C1466 C1485 1.429 . S
C1466 H1490 0.950 . S
C1467 C1484 1.574 . S
C1467 C1486 1.368 . S
C1467 H1491 0.949 . S
H1468 C1472 0.949 . S
C1469 C1470 1.349 . S
C1469 C1471 1.327 . S
C1469 H1492 0.950 . S
C1470 C1469 1.349 . S
C1470 C1482 1.349 . S
C1471 C1469 1.327 . S
C1471 C1487 1.429 . S
C1471 H1493 0.950 . S
C1472 H1468 0.949 . S
C1472 C1480 1.574 . S
C1472 C1488 1.368 . S
H1473 C1481 0.950 . S
H1474 C1479 0.950 . S
H1475 C1480 0.949 . S
H1476 C1482 0.950 . S
H1477 C1483 0.950 . S
H1478 C1484 0.949 . S
C1479 H1474 0.950 . S
C1479 C1481 1.327 . S
C1479 C1485 1.429 . S
C1480 C1472 1.574 . S
C1480 H1475 0.949 . S
C1480 C1486 1.368 . S
C1481 C1465 1.349 . S
C1481 H1473 0.950 . S
C1481 C1479 1.327 . S
C1482 C1470 1.349 . S
C1482 H1476 0.950 . S
C1482 C1483 1.327 . S
C1483 H1477 0.950 . S
C1483 C1482 1.327 . S
C1483 C1487 1.429 . S
C1484 C1467 1.574 . S
C1484 H1478 0.949 . S
C1484 C1488 1.368 . S
C1485 C1466 1.429 . S
C1485 C1479 1.429 . S
C1485 C1486 1.523 . S
C1486 C1467 1.368 . S
C1486 C1480 1.368 . S
C1486 C1485 1.523 . S
C1487 C1471 1.429 . S
C1487 C1483 1.429 . S
C1487 C1488 1.523 . S
C1488 C1472 1.368 . S
C1488 C1484 1.368 . S
C1488 C1487 1.523 . S
H1489 C1464 0.950 . S
H1490 C1466 0.950 . S
H1491 C1467 0.949 . S
H1492 C1469 0.950 . S
H1493 C1471 0.950 . S
C1494 C1495 1.349 . S
C1494 C1496 1.327 . S
C1494 H1519 0.950 . S
C1495 C1494 1.349 . S
C1495 C1511 1.349 . S
C1496 C1494 1.327 . S
C1496 C1515 1.429 . S
C1496 H1520 0.950 . S
C1497 C1514 1.574 . S
C1497 C1516 1.368 . S
C1497 H1521 0.949 . S
H1498 C1502 0.949 . S
C1499 C1500 1.349 . S
C1499 C1501 1.327 . S
C1499 H1522 0.950 . S
C1500 C1499 1.349 . S
C1500 C1512 1.349 . S
C1501 C1499 1.327 . S
C1501 C1517 1.429 . S
C1501 H1523 0.950 . S
C1502 H1498 0.949 . S
C1502 C1510 1.574 . S
C1502 C1518 1.368 . S
H1503 C1511 0.950 . S
H1504 C1509 0.950 . S
H1505 C1510 0.949 . S
H1506 C1512 0.950 . S
H1507 C1513 0.950 . S
H1508 C1514 0.949 . S
C1509 H1504 0.950 . S
C1509 C1511 1.327 . S
C1509 C1515 1.429 . S
C1510 C1502 1.574 . S
C1510 H1505 0.949 . S
C1510 C1516 1.368 . S
C1511 C1495 1.349 . S
C1511 H1503 0.950 . S
C1511 C1509 1.327 . S
C1512 C1500 1.349 . S
C1512 H1506 0.950 . S
C1512 C1513 1.327 . S
C1513 H1507 0.950 . S
C1513 C1512 1.327 . S
C1513 C1517 1.429 . S
C1514 C1497 1.574 . S
C1514 H1508 0.949 . S
C1514 C1518 1.368 . S
C1515 C1496 1.429 . S
C1515 C1509 1.429 . S
C1515 C1516 1.523 . S
C1516 C1497 1.368 . S
C1516 C1510 1.368 . S
C1516 C1515 1.523 . S
C1517 C1501 1.429 . S
C1517 C1513 1.429 . S
C1517 C1518 1.523 . S
C1518 C1502 1.368 . S
C1518 C1514 1.368 . S
C1518 C1517 1.523 . S
H1519 C1494 0.950 . S
H1520 C1496 0.950 . S
H1521 C1497 0.949 . S
H1522 C1499 0.950 . S
H1523 C1501 0.950 . S
C1524 C1525 1.349 . S
C1524 C1526 1.327 . S
C1524 H1549 0.950 . S
C1525 C1524 1.349 . S
C1525 C1541 1.349 . S
C1526 C1524 1.327 . S
C1526 C1545 1.429 . S
C1526 H1550 0.950 . S
C1527 C1544 1.574 . S
C1527 C1546 1.368 . S
C1527 H1551 0.949 . S
H1528 C1532 0.949 . S
C1529 C1530 1.349 . S
C1529 C1531 1.327 . S
C1529 H1552 0.950 . S
C1530 C1529 1.349 . S
C1530 C1542 1.349 . S
C1531 C1529 1.327 . S
C1531 C1547 1.429 . S
C1531 H1553 0.950 . S
C1532 H1528 0.949 . S
C1532 C1540 1.574 . S
C1532 C1548 1.368 . S
H1533 C1541 0.950 . S
H1534 C1539 0.950 . S
H1535 C1540 0.949 . S
H1536 C1542 0.950 . S
H1537 C1543 0.950 . S
H1538 C1544 0.949 . S
C1539 H1534 0.950 . S
C1539 C1541 1.327 . S
C1539 C1545 1.429 . S
C1540 C1532 1.574 . S
C1540 H1535 0.949 . S
C1540 C1546 1.368 . S
C1541 C1525 1.349 . S
C1541 H1533 0.950 . S
C1541 C1539 1.327 . S
C1542 C1530 1.349 . S
C1542 H1536 0.950 . S
C1542 C1543 1.327 . S
C1543 H1537 0.950 . S
C1543 C1542 1.327 . S
C1543 C1547 1.429 . S
C1544 C1527 1.574 . S
C1544 H1538 0.949 . S
C1544 C1548 1.368 . S
C1545 C1526 1.429 . S
C1545 C1539 1.429 . S
C1545 C1546 1.523 . S
C1546 C1527 1.368 . S
C1546 C1540 1.368 . S
C1546 C1545 1.523 . S
C1547 C1531 1.429 . S
C1547 C1543 1.429 . S
C1547 C1548 1.523 . S
C1548 C1532 1.368 . S
C1548 C1544 1.368 . S
C1548 C1547 1.523 . S
H1549 C1524 0.950 . S
H1550 C1526 0.950 . S
H1551 C1527 0.949 . S
H1552 C1529 0.950 . S
H1553 C1531 0.950 . S
C1554 C1555 1.349 . S
C1554 C1556 1.327 . S
C1554 H1579 0.950 . S
C1555 C1554 1.349 . S
C1555 C1571 1.349 . S
C1556 C1554 1.327 . S
C1556 C1575 1.429 . S
C1556 H1580 0.950 . S
C1557 C1574 1.574 . S
C1557 C1576 1.368 . S
C1557 H1581 0.949 . S
H1558 C1562 0.949 . S
C1559 C1560 1.349 . S
C1559 C1561 1.327 . S
C1559 H1582 0.950 1_655 S
C1560 C1559 1.349 . S
C1560 C1572 1.349 . S
C1561 C1559 1.327 . S
C1561 C1577 1.429 . S
C1561 H1583 0.950 . S
C1562 H1558 0.949 . S
C1562 C1570 1.574 . S
C1562 C1578 1.368 . S
H1563 C1571 0.994 . S
H1564 C1569 0.950 . S
H1565 C1570 0.949 . S
H1566 C1572 0.950 . S
H1567 C1573 0.950 . S
H1568 C1574 0.949 . S
C1569 H1564 0.950 . S
C1569 C1571 1.327 . S
C1569 C1575 1.429 . S
C1570 C1562 1.574 . S
C1570 H1565 0.949 . S
C1570 C1576 1.368 . S
C1571 C1555 1.349 . S
C1571 H1563 0.994 . S
C1571 C1569 1.327 . S
C1572 C1560 1.349 . S
C1572 H1566 0.950 . S
C1572 C1573 1.327 . S
C1573 H1567 0.950 . S
C1573 C1572 1.327 . S
C1573 C1577 1.429 . S
C1574 C1557 1.574 . S
C1574 H1568 0.949 . S
C1574 C1578 1.368 . S
C1575 C1556 1.429 . S
C1575 C1569 1.429 . S
C1575 C1576 1.523 . S
C1576 C1557 1.368 . S
C1576 C1570 1.368 . S
C1576 C1575 1.523 . S
C1577 C1561 1.429 . S
C1577 C1573 1.429 . S
C1577 C1578 1.523 . S
C1578 C1562 1.368 . S
C1578 C1574 1.368 . S
C1578 C1577 1.523 . S
H1579 C1554 0.950 . S
H1580 C1556 0.950 . S
H1581 C1557 0.949 . S
H1582 C1559 0.950 1_455 S
H1583 C1561 0.950 . S
C1584 C1585 1.349 . S
C1584 C1586 1.327 . S
C1584 H1609 0.950 . S
C1585 C1584 1.349 . S
C1585 C1601 1.349 . S
C1586 C1584 1.327 . S
C1586 C1605 1.429 . S
C1586 H1610 0.950 . S
C1587 C1604 1.574 . S
C1587 C1606 1.368 . S
C1587 H1611 0.949 . S
H1588 C1592 0.949 . S
C1589 C1590 1.349 . S
C1589 C1591 1.327 . S
C1589 H1612 0.950 . S
C1590 C1589 1.349 . S
C1590 C1602 1.349 . S
C1591 C1589 1.327 . S
C1591 C1607 1.429 . S
C1591 H1613 0.950 . S
C1592 H1588 0.949 . S
C1592 C1600 1.574 . S
C1592 C1608 1.368 . S
H1593 C1601 0.950 . S
H1594 C1599 0.950 . S
H1595 C1600 0.949 . S
H1596 C1602 0.950 . S
H1597 C1603 0.950 . S
H1598 C1604 0.949 . S
C1599 H1594 0.950 . S
C1599 C1601 1.327 . S
C1599 C1605 1.429 . S
C1600 C1592 1.574 . S
C1600 H1595 0.949 . S
C1600 C1606 1.368 . S
C1601 C1585 1.349 . S
C1601 H1593 0.950 . S
C1601 C1599 1.327 . S
C1602 C1590 1.349 . S
C1602 H1596 0.950 . S
C1602 C1603 1.327 . S
C1603 H1597 0.950 . S
C1603 C1602 1.327 . S
C1603 C1607 1.429 . S
C1604 C1587 1.574 . S
C1604 H1598 0.949 . S
C1604 C1608 1.368 . S
C1605 C1586 1.429 . S
C1605 C1599 1.429 . S
C1605 C1606 1.523 . S
C1606 C1587 1.368 . S
C1606 C1600 1.368 . S
C1606 C1605 1.523 . S
C1607 C1591 1.429 . S
C1607 C1603 1.429 . S
C1607 C1608 1.523 . S
C1608 C1592 1.368 . S
C1608 C1604 1.368 . S
C1608 C1607 1.523 . S
H1609 C1584 0.950 . S
H1610 C1586 0.950 . S
H1611 C1587 0.949 . S
H1612 C1589 0.950 . S
H1613 C1591 0.950 . S
C1614 C1615 1.349 . S
C1614 C1616 1.327 . S
C1614 H1639 0.950 1_545 S
C1615 C1614 1.349 . S
C1615 C1631 1.349 . S
C1616 C1614 1.327 . S
C1616 C1635 1.429 . S
C1616 H1640 0.950 . S
C1617 C1634 1.574 . S
C1617 C1636 1.368 . S
C1617 H1641 0.949 . S
H1618 C1622 0.949 . S
C1619 C1620 1.349 . S
C1619 C1621 1.327 . S
C1619 H1642 0.950 . S
C1620 C1619 1.349 . S
C1620 C1632 1.349 . S
C1621 C1619 1.327 . S
C1621 C1637 1.429 . S
C1621 H1643 0.950 . S
C1622 H1618 0.949 . S
C1622 C1630 1.574 . S
C1622 C1638 1.368 . S
H1623 C1631 0.950 . S
H1624 C1629 0.950 . S
H1625 C1630 0.949 . S
H1626 C1632 0.950 . S
H1627 C1633 0.950 . S
H1628 C1634 0.949 . S
C1629 H1624 0.950 . S
C1629 C1631 1.327 . S
C1629 C1635 1.429 . S
C1630 C1622 1.574 . S
C1630 H1625 0.949 . S
C1630 C1636 1.368 . S
C1631 C1615 1.349 . S
C1631 H1623 0.950 . S
C1631 C1629 1.327 . S
C1632 C1620 1.349 . S
C1632 H1626 0.950 . S
C1632 C1633 1.327 . S
C1633 H1627 0.950 . S
C1633 C1632 1.327 . S
C1633 C1637 1.429 . S
C1634 C1617 1.574 . S
C1634 H1628 0.949 . S
C1634 C1638 1.368 . S
C1635 C1616 1.429 . S
C1635 C1629 1.429 . S
C1635 C1636 1.523 . S
C1636 C1617 1.368 . S
C1636 C1630 1.368 . S
C1636 C1635 1.523 . S
C1637 C1621 1.429 . S
C1637 C1633 1.429 . S
C1637 C1638 1.523 . S
C1638 C1622 1.368 . S
C1638 C1634 1.368 . S
C1638 C1637 1.523 . S
H1639 C1614 0.950 1_565 S
H1640 C1616 0.950 . S
H1641 C1617 0.949 . S
H1642 C1619 0.950 . S
H1643 C1621 0.950 . S
C1644 C1645 1.349 . S
C1644 C1646 1.327 . S
C1644 H1669 0.950 . S
C1645 C1644 1.349 . S
C1645 C1661 1.349 . S
C1646 C1644 1.327 . S
C1646 C1665 1.429 . S
C1646 H1670 0.950 . S
C1647 C1664 1.574 . S
C1647 C1666 1.368 . S
C1647 H1671 0.949 . S
H1648 C1652 0.949 . S
C1649 C1650 1.349 . S
C1649 C1651 1.327 . S
C1649 H1672 0.950 . S
C1650 C1649 1.349 . S
C1650 C1662 1.349 . S
C1651 C1649 1.327 . S
C1651 C1667 1.429 . S
C1651 H1673 0.950 . S
C1652 H1648 0.949 . S
C1652 C1660 1.574 . S
C1652 C1668 1.368 . S
H1653 C1661 0.950 . S
H1654 C1659 0.950 . S
H1655 C1660 0.949 . S
H1656 C1662 0.950 . S
H1657 C1663 0.950 . S
H1658 C1664 0.949 . S
C1659 H1654 0.950 . S
C1659 C1661 1.327 . S
C1659 C1665 1.429 . S
C1660 C1652 1.574 . S
C1660 H1655 0.949 . S
C1660 C1666 1.368 . S
C1661 C1645 1.349 . S
C1661 H1653 0.950 . S
C1661 C1659 1.327 . S
C1662 C1650 1.349 . S
C1662 H1656 0.950 . S
C1662 C1663 1.327 . S
C1663 H1657 0.950 . S
C1663 C1662 1.327 . S
C1663 C1667 1.429 . S
C1664 C1647 1.574 . S
C1664 H1658 0.949 . S
C1664 C1668 1.368 . S
C1665 C1646 1.429 . S
C1665 C1659 1.429 . S
C1665 C1666 1.523 . S
C1666 C1647 1.368 . S
C1666 C1660 1.368 . S
C1666 C1665 1.523 . S
C1667 C1651 1.429 . S
C1667 C1663 1.429 . S
C1667 C1668 1.523 . S
C1668 C1652 1.368 . S
C1668 C1664 1.368 . S
C1668 C1667 1.523 . S
H1669 C1644 0.950 . S
H1670 C1646 0.950 . S
H1671 C1647 0.949 . S
H1672 C1649 0.950 . S
H1673 C1651 0.950 . S
C1674 C1675 1.349 . S
C1674 C1676 1.327 . S
C1674 H1699 0.950 . S
C1675 C1674 1.349 . S
C1675 C1691 1.348 1_554 S
C1676 C1674 1.327 . S
C1676 C1695 1.429 . S
C1676 H1700 0.950 . S
C1677 C1694 1.574 . S
C1677 C1696 1.368 . S
C1677 H1701 0.949 . S
H1678 C1682 0.949 . S
C1679 C1680 1.349 . S
C1679 C1681 1.327 . S
C1679 H1702 0.950 1_565 S
C1680 C1679 1.349 . S
C1680 C1692 1.349 . S
C1681 C1679 1.327 . S
C1681 C1697 1.429 . S
C1681 H1703 0.950 . S
C1682 H1678 0.949 . S
C1682 C1690 1.574 . S
C1682 C1698 1.368 . S
H1683 C1691 0.956 . S
H1684 C1689 0.950 . S
H1685 C1690 0.949 . S
H1686 C1692 0.950 . S
H1687 C1693 0.950 . S
H1688 C1694 0.949 . S
C1689 H1684 0.950 . S
C1689 C1691 1.322 1_554 S
C1689 C1695 1.429 . S
C1690 C1682 1.574 . S
C1690 H1685 0.949 . S
C1690 C1696 1.368 . S
C1691 C1675 1.348 1_556 S
C1691 H1683 0.956 . S
C1691 C1689 1.322 1_556 S
C1692 C1680 1.349 . S
C1692 H1686 0.950 . S
C1692 C1693 1.327 . S
C1693 H1687 0.950 . S
C1693 C1692 1.327 . S
C1693 C1697 1.429 . S
C1694 C1677 1.574 . S
C1694 H1688 0.949 . S
C1694 C1698 1.368 . S
C1695 C1676 1.429 . S
C1695 C1689 1.429 . S
C1695 C1696 1.523 . S
C1696 C1677 1.368 . S
C1696 C1690 1.368 . S
C1696 C1695 1.523 . S
C1697 C1681 1.429 . S
C1697 C1693 1.429 . S
C1697 C1698 1.523 . S
C1698 C1682 1.368 . S
C1698 C1694 1.368 . S
C1698 C1697 1.523 . S
H1699 C1674 0.950 . S
H1700 C1676 0.950 . S
H1701 C1677 0.949 . S
H1702 C1679 0.950 1_545 S
H1703 C1681 0.950 . S
C1704 C1705 1.349 . S
C1704 C1706 1.327 . S
C1704 H1729 0.950 . S
C1705 C1704 1.349 . S
C1705 C1721 1.349 . S
C1706 C1704 1.327 . S
C1706 C1725 1.429 . S
C1706 H1730 0.950 . S
C1707 C1724 1.574 . S
C1707 C1726 1.368 . S
C1707 H1731 0.949 . S
H1708 C1712 0.949 . S
C1709 C1710 1.349 . S
C1709 C1711 1.327 . S
C1709 H1732 0.950 . S
C1710 C1709 1.349 . S
C1710 C1722 1.349 . S
C1711 C1709 1.327 . S
C1711 C1727 1.429 . S
C1711 H1733 0.950 . S
C1712 H1708 0.949 . S
C1712 C1720 1.574 . S
C1712 C1728 1.368 . S
H1713 C1721 0.950 . S
H1714 C1719 0.950 . S
H1715 C1720 0.949 . S
H1716 C1722 0.950 . S
H1717 C1723 0.950 . S
H1718 C1724 0.949 . S
C1719 H1714 0.950 . S
C1719 C1721 1.327 . S
C1719 C1725 1.429 . S
C1720 C1712 1.574 . S
C1720 H1715 0.949 . S
C1720 C1726 1.368 . S
C1721 C1705 1.349 . S
C1721 H1713 0.950 . S
C1721 C1719 1.327 . S
C1722 C1710 1.349 . S
C1722 H1716 0.950 . S
C1722 C1723 1.327 . S
C1723 H1717 0.950 . S
C1723 C1722 1.327 . S
C1723 C1727 1.429 . S
C1724 C1707 1.574 . S
C1724 H1718 0.949 . S
C1724 C1728 1.368 . S
C1725 C1706 1.429 . S
C1725 C1719 1.429 . S
C1725 C1726 1.523 . S
C1726 C1707 1.368 . S
C1726 C1720 1.368 . S
C1726 C1725 1.523 . S
C1727 C1711 1.429 . S
C1727 C1723 1.429 . S
C1727 C1728 1.523 . S
C1728 C1712 1.368 . S
C1728 C1724 1.368 . S
C1728 C1727 1.523 . S
H1729 C1704 0.950 . S
H1730 C1706 0.950 . S
H1731 C1707 0.949 . S
H1732 C1709 0.950 . S
H1733 C1711 0.950 . S
C1734 C1735 1.349 . S
C1734 C1736 1.327 . S
C1734 H1759 0.950 . S
C1735 C1734 1.349 . S
C1735 C1751 1.349 . S
C1736 C1734 1.327 . S
C1736 C1755 1.429 . S
C1736 H1760 0.950 . S
C1737 C1754 1.574 . S
C1737 C1756 1.368 . S
C1737 H1761 0.949 . S
H1738 C1742 0.949 . S
C1739 C1740 1.349 . S
C1739 C1741 1.327 . S
C1739 H1762 0.950 . S
C1740 C1739 1.349 . S
C1740 C1752 1.349 . S
C1741 C1739 1.327 . S
C1741 C1757 1.429 . S
C1741 H1763 0.950 . S
C1742 H1738 0.949 . S
C1742 C1750 1.574 . S
C1742 C1758 1.368 . S
H1743 C1751 0.950 . S
H1744 C1749 0.950 . S
H1745 C1750 0.949 . S
H1746 C1752 0.950 . S
H1747 C1753 0.950 . S
H1748 C1754 0.949 . S
C1749 H1744 0.950 . S
C1749 C1751 1.327 . S
C1749 C1755 1.429 . S
C1750 C1742 1.574 . S
C1750 H1745 0.949 . S
C1750 C1756 1.368 . S
C1751 C1735 1.349 . S
C1751 H1743 0.950 . S
C1751 C1749 1.327 . S
C1752 C1740 1.349 . S
C1752 H1746 0.950 . S
C1752 C1753 1.327 . S
C1753 H1747 0.950 . S
C1753 C1752 1.327 . S
C1753 C1757 1.429 . S
C1754 C1737 1.574 . S
C1754 H1748 0.949 . S
C1754 C1758 1.368 . S
C1755 C1736 1.429 . S
C1755 C1749 1.429 . S
C1755 C1756 1.523 . S
C1756 C1737 1.368 . S
C1756 C1750 1.368 . S
C1756 C1755 1.523 . S
C1757 C1741 1.429 . S
C1757 C1753 1.429 . S
C1757 C1758 1.523 . S
C1758 C1742 1.368 . S
C1758 C1754 1.368 . S
C1758 C1757 1.523 . S
H1759 C1734 0.950 . S
H1760 C1736 0.950 . S
H1761 C1737 0.949 . S
H1762 C1739 0.950 . S
H1763 C1741 0.950 . S
C1764 C1765 1.349 . S
C1764 C1766 1.327 . S
C1764 H1789 0.950 . S
C1765 C1764 1.349 . S
C1765 C1781 1.349 . S
C1766 C1764 1.327 . S
C1766 C1785 1.429 . S
C1766 H1790 0.950 . S
C1767 C1784 1.574 . S
C1767 C1786 1.368 . S
C1767 H1791 0.949 . S
H1768 C1772 0.949 . S
C1769 C1770 1.349 . S
C1769 C1771 1.327 . S
C1769 H1792 0.950 . S
C1770 C1769 1.349 . S
C1770 C1782 1.349 . S
C1771 C1769 1.327 . S
C1771 C1787 1.429 . S
C1771 H1793 0.950 . S
C1772 H1768 0.949 . S
C1772 C1780 1.574 . S
C1772 C1788 1.368 . S
H1773 C1781 0.950 . S
H1774 C1779 0.950 . S
H1775 C1780 0.949 . S
H1776 C1782 0.950 . S
H1777 C1783 0.950 . S
H1778 C1784 0.949 . S
C1779 H1774 0.950 . S
C1779 C1781 1.327 . S
C1779 C1785 1.429 . S
C1780 C1772 1.574 . S
C1780 H1775 0.949 . S
C1780 C1786 1.368 . S
C1781 C1765 1.349 . S
C1781 H1773 0.950 . S
C1781 C1779 1.327 . S
C1782 C1770 1.349 . S
C1782 H1776 0.950 . S
C1782 C1783 1.327 . S
C1783 H1777 0.950 . S
C1783 C1782 1.327 . S
C1783 C1787 1.429 . S
C1784 C1767 1.574 . S
C1784 H1778 0.949 . S
C1784 C1788 1.368 . S
C1785 C1766 1.429 . S
C1785 C1779 1.429 . S
C1785 C1786 1.523 . S
C1786 C1767 1.368 . S
C1786 C1780 1.368 . S
C1786 C1785 1.523 . S
C1787 C1771 1.429 . S
C1787 C1783 1.429 . S
C1787 C1788 1.523 . S
C1788 C1772 1.368 . S
C1788 C1784 1.368 . S
C1788 C1787 1.523 . S
H1789 C1764 0.950 . S
H1790 C1766 0.950 . S
H1791 C1767 0.949 . S
H1792 C1769 0.950 . S
H1793 C1771 0.950 . S
C1794 C1795 1.349 . S
C1794 C1796 1.327 . S
C1794 H1819 0.950 1_556 S
C1795 C1794 1.349 . S
C1795 C1811 1.349 . S
C1796 C1794 1.327 . S
C1796 C1815 1.429 . S
C1796 H1820 0.950 . S
C1797 C1814 1.574 . S
C1797 C1816 1.368 . S
C1797 H1821 0.949 . S
H1798 C1802 0.949 . S
C1799 C1800 1.349 . S
C1799 C1801 1.327 . S
C1799 H1822 0.950 . S
C1800 C1799 1.349 . S
C1800 C1812 1.349 . S
C1801 C1799 1.327 . S
C1801 C1817 1.429 . S
C1801 H1823 0.950 . S
C1802 H1798 0.949 . S
C1802 C1810 1.574 . S
C1802 C1818 1.368 . S
H1803 C1811 0.950 . S
H1804 C1809 0.950 . S
H1805 C1810 0.949 . S
H1806 C1812 0.950 1_545 S
H1807 C1813 0.950 . S
H1808 C1814 0.949 . S
C1809 H1804 0.950 . S
C1809 C1811 1.327 . S
C1809 C1815 1.429 . S
C1810 C1802 1.574 . S
C1810 H1805 0.949 . S
C1810 C1816 1.368 . S
C1811 C1795 1.349 . S
C1811 H1803 0.950 . S
C1811 C1809 1.327 . S
C1812 C1800 1.349 . S
C1812 H1806 0.950 1_565 S
C1812 C1813 1.327 . S
C1813 H1807 0.950 . S
C1813 C1812 1.327 . S
C1813 C1817 1.429 . S
C1814 C1797 1.574 . S
C1814 H1808 0.949 . S
C1814 C1818 1.368 . S
C1815 C1796 1.429 . S
C1815 C1809 1.429 . S
C1815 C1816 1.523 . S
C1816 C1797 1.368 . S
C1816 C1810 1.368 . S
C1816 C1815 1.523 . S
C1817 C1801 1.429 . S
C1817 C1813 1.429 . S
C1817 C1818 1.523 . S
C1818 C1802 1.368 . S
C1818 C1814 1.368 . S
C1818 C1817 1.523 . S
H1819 C1794 0.950 1_554 S
H1820 C1796 0.950 . S
H1821 C1797 0.949 . S
H1822 C1799 0.950 . S
H1823 C1801 0.950 . S
C1824 C1825 1.349 . S
C1824 C1826 1.327 . S
C1824 H1849 0.950 . S
C1825 C1824 1.349 . S
C1825 C1841 1.349 . S
C1826 C1824 1.327 . S
C1826 C1845 1.429 . S
C1826 H1850 0.950 . S
C1827 C1844 1.574 . S
C1827 C1846 1.368 . S
C1827 H1851 0.949 . S
H1828 C1832 0.949 . S
C1829 C1830 1.349 . S
C1829 C1831 1.327 . S
C1829 H1852 0.950 . S
C1830 C1829 1.349 . S
C1830 C1842 1.349 . S
C1831 C1829 1.327 . S
C1831 C1847 1.429 . S
C1831 H1853 0.950 . S
C1832 H1828 0.949 . S
C1832 C1840 1.574 . S
C1832 C1848 1.368 . S
H1833 C1841 0.950 . S
H1834 C1839 0.950 . S
H1835 C1840 0.949 . S
H1836 C1842 0.950 . S
H1837 C1843 0.950 . S
H1838 C1844 0.949 . S
C1839 H1834 0.950 . S
C1839 C1841 1.327 . S
C1839 C1845 1.429 . S
C1840 C1832 1.574 . S
C1840 H1835 0.949 . S
C1840 C1846 1.368 . S
C1841 C1825 1.349 . S
C1841 H1833 0.950 . S
C1841 C1839 1.327 . S
C1842 C1830 1.349 . S
C1842 H1836 0.950 . S
C1842 C1843 1.327 . S
C1843 H1837 0.950 . S
C1843 C1842 1.327 . S
C1843 C1847 1.429 . S
C1844 C1827 1.574 . S
C1844 H1838 0.949 . S
C1844 C1848 1.368 . S
C1845 C1826 1.429 . S
C1845 C1839 1.429 . S
C1845 C1846 1.523 . S
C1846 C1827 1.368 . S
C1846 C1840 1.368 . S
C1846 C1845 1.523 . S
C1847 C1831 1.429 . S
C1847 C1843 1.429 . S
C1847 C1848 1.523 . S
C1848 C1832 1.368 . S
C1848 C1844 1.368 . S
C1848 C1847 1.523 . S
H1849 C1824 0.950 . S
H1850 C1826 0.950 . S
H1851 C1827 0.949 . S
H1852 C1829 0.950 . S
H1853 C1831 0.950 . S
C1854 C1855 1.349 . S
C1854 C1856 1.327 . S
C1854 H1879 0.950 . S
C1855 C1854 1.349 . S
C1855 C1871 1.349 . S
C1856 C1854 1.327 . S
C1856 C1875 1.429 . S
C1856 H1880 0.950 . S
C1857 C1874 1.574 . S
C1857 C1876 1.368 . S
C1857 H1881 0.949 . S
H1858 C1862 0.949 . S
C1859 C1860 1.349 . S
C1859 C1861 1.327 . S
C1859 H1882 0.950 . S
C1860 C1859 1.349 . S
C1860 C1872 1.349 . S
C1861 C1859 1.327 . S
C1861 C1877 1.429 . S
C1861 H1883 0.950 . S
C1862 H1858 0.949 . S
C1862 C1870 1.574 . S
C1862 C1878 1.368 . S
H1863 C1871 0.950 . S
H1864 C1869 0.950 . S
H1865 C1870 0.949 . S
H1866 C1872 0.950 . S
H1867 C1873 0.950 . S
H1868 C1874 0.949 . S
C1869 H1864 0.950 . S
C1869 C1871 1.327 . S
C1869 C1875 1.429 . S
C1870 C1862 1.574 . S
C1870 H1865 0.949 . S
C1870 C1876 1.368 . S
C1871 C1855 1.349 . S
C1871 H1863 0.950 . S
C1871 C1869 1.327 . S
C1872 C1860 1.349 . S
C1872 H1866 0.950 . S
C1872 C1873 1.327 . S
C1873 H1867 0.950 . S
C1873 C1872 1.327 . S
C1873 C1877 1.429 . S
C1874 C1857 1.574 . S
C1874 H1868 0.949 . S
C1874 C1878 1.368 . S
C1875 C1856 1.429 . S
C1875 C1869 1.429 . S
C1875 C1876 1.523 . S
C1876 C1857 1.368 . S
C1876 C1870 1.368 . S
C1876 C1875 1.523 . S
C1877 C1861 1.429 . S
C1877 C1873 1.429 . S
C1877 C1878 1.523 . S
C1878 C1862 1.368 . S
C1878 C1874 1.368 . S
C1878 C1877 1.523 . S
H1879 C1854 0.950 . S
H1880 C1856 0.950 . S
H1881 C1857 0.949 . S
H1882 C1859 0.950 . S
H1883 C1861 0.950 . S
C1884 C1885 1.349 . S
C1884 C1886 1.327 . S
C1884 H1909 0.950 . S
C1885 C1884 1.349 . S
C1885 C1901 1.349 . S
C1886 C1884 1.327 . S
C1886 C1905 1.429 . S
C1886 H1910 0.950 . S
C1887 C1904 1.574 . S
C1887 C1906 1.368 . S
C1887 H1911 0.949 . S
H1888 C1892 0.949 . S
C1889 C1890 1.349 . S
C1889 C1891 1.327 . S
C1889 H1912 0.950 . S
C1890 C1889 1.349 . S
C1890 C1902 1.349 . S
C1891 C1889 1.327 . S
C1891 C1907 1.429 . S
C1891 H1913 0.950 . S
C1892 H1888 0.949 . S
C1892 C1900 1.574 . S
C1892 C1908 1.368 . S
H1893 C1901 0.911 1_655 S
H1894 C1899 0.950 . S
H1895 C1900 0.949 . S
H1896 C1902 0.950 . S
H1897 C1903 0.950 . S
H1898 C1904 0.949 . S
C1899 H1894 0.950 . S
C1899 C1901 1.327 . S
C1899 C1905 1.429 . S
C1900 C1892 1.574 . S
C1900 H1895 0.949 . S
C1900 C1906 1.368 . S
C1901 C1885 1.349 . S
C1901 H1893 0.911 1_455 S
C1901 C1899 1.327 . S
C1902 C1890 1.349 . S
C1902 H1896 0.950 . S
C1902 C1903 1.327 . S
C1903 H1897 0.950 . S
C1903 C1902 1.327 . S
C1903 C1907 1.429 . S
C1904 C1887 1.574 . S
C1904 H1898 0.949 . S
C1904 C1908 1.368 . S
C1905 C1886 1.429 . S
C1905 C1899 1.429 . S
C1905 C1906 1.523 . S
C1906 C1887 1.368 . S
C1906 C1900 1.368 . S
C1906 C1905 1.523 . S
C1907 C1891 1.429 . S
C1907 C1903 1.429 . S
C1907 C1908 1.523 . S
C1908 C1892 1.368 . S
C1908 C1904 1.368 . S
C1908 C1907 1.523 . S
H1909 C1884 0.950 . S
H1910 C1886 0.950 . S
H1911 C1887 0.949 . S
H1912 C1889 0.950 . S
H1913 C1891 0.950 . S
C1914 C1915 1.349 . S
C1914 C1916 1.327 . S
C1914 H1939 0.950 . S
C1915 C1914 1.349 . S
C1915 C1931 1.349 . S
C1916 C1914 1.327 . S
C1916 C1935 1.429 . S
C1916 H1940 0.950 . S
C1917 C1934 1.574 . S
C1917 C1936 1.368 . S
C1917 H1941 0.949 . S
H1918 C1922 0.949 . S
C1919 C1920 1.349 . S
C1919 C1921 1.327 . S
C1919 H1942 0.950 . S
C1920 C1919 1.349 . S
C1920 C1932 1.349 . S
C1921 C1919 1.327 . S
C1921 C1937 1.429 . S
C1921 H1943 0.950 . S
C1922 H1918 0.949 . S
C1922 C1930 1.574 . S
C1922 C1938 1.368 . S
H1923 C1931 0.950 . S
H1924 C1929 0.950 . S
H1925 C1930 0.949 . S
H1926 C1932 0.950 . S
H1927 C1933 0.950 . S
H1928 C1934 0.949 . S
C1929 H1924 0.950 . S
C1929 C1931 1.327 . S
C1929 C1935 1.429 . S
C1930 C1922 1.574 . S
C1930 H1925 0.949 . S
C1930 C1936 1.368 . S
C1931 C1915 1.349 . S
C1931 H1923 0.950 . S
C1931 C1929 1.327 . S
C1932 C1920 1.349 . S
C1932 H1926 0.950 . S
C1932 C1933 1.327 . S
C1933 H1927 0.950 . S
C1933 C1932 1.327 . S
C1933 C1937 1.429 . S
C1934 C1917 1.574 . S
C1934 H1928 0.949 . S
C1934 C1938 1.368 . S
C1935 C1916 1.429 . S
C1935 C1929 1.429 . S
C1935 C1936 1.523 . S
C1936 C1917 1.368 . S
C1936 C1930 1.368 . S
C1936 C1935 1.523 . S
C1937 C1921 1.429 . S
C1937 C1933 1.429 . S
C1937 C1938 1.523 . S
C1938 C1922 1.368 . S
C1938 C1934 1.368 . S
C1938 C1937 1.523 . S
H1939 C1914 0.950 . S
H1940 C1916 0.950 . S
H1941 C1917 0.949 . S
H1942 C1919 0.950 . S
H1943 C1921 0.950 . S
C1944 C1945 1.349 . S
C1944 C1946 1.327 . S
C1944 H1969 0.950 . S
C1945 C1944 1.349 . S
C1945 C1961 1.349 . S
C1946 C1944 1.327 . S
C1946 C1965 1.429 . S
C1946 H1970 0.950 . S
C1947 C1964 1.574 . S
C1947 C1966 1.368 . S
C1947 H1971 0.949 . S
H1948 C1952 0.949 . S
C1949 C1950 1.349 . S
C1949 C1951 1.327 . S
C1949 H1972 0.950 1_655 S
C1950 C1949 1.349 . S
C1950 C1962 1.349 . S
C1951 C1949 1.327 . S
C1951 C1967 1.429 . S
C1951 H1973 0.950 . S
C1952 H1948 0.949 . S
C1952 C1960 1.574 . S
C1952 C1968 1.368 . S
H1953 C1961 0.950 1_545 S
H1954 C1959 0.950 . S
H1955 C1960 0.949 . S
H1956 C1962 0.950 . S
H1957 C1963 0.950 . S
H1958 C1964 0.949 . S
C1959 H1954 0.950 . S
C1959 C1961 1.327 . S
C1959 C1965 1.429 . S
C1960 C1952 1.574 . S
C1960 H1955 0.949 . S
C1960 C1966 1.368 . S
C1961 C1945 1.349 . S
C1961 H1953 0.950 1_565 S
C1961 C1959 1.327 . S
C1962 C1950 1.349 . S
C1962 H1956 0.950 . S
C1962 C1963 1.327 . S
C1963 H1957 0.950 . S
C1963 C1962 1.327 . S
C1963 C1967 1.429 . S
C1964 C1947 1.574 . S
C1964 H1958 0.949 . S
C1964 C1968 1.368 . S
C1965 C1946 1.429 . S
C1965 C1959 1.429 . S
C1965 C1966 1.523 . S
C1966 C1947 1.368 . S
C1966 C1960 1.368 . S
C1966 C1965 1.523 . S
C1967 C1951 1.429 . S
C1967 C1963 1.429 . S
C1967 C1968 1.523 . S
C1968 C1952 1.368 . S
C1968 C1964 1.368 . S
C1968 C1967 1.523 . S
H1969 C1944 0.950 . S
H1970 C1946 0.950 . S
H1971 C1947 0.949 . S
H1972 C1949 0.950 1_455 S
H1973 C1951 0.950 . S
C1974 C1975 1.349 . S
C1974 C1976 1.327 . S
C1974 H1999 0.950 . S
C1975 C1974 1.349 . S
C1975 C1991 1.349 . S
C1976 C1974 1.327 . S
C1976 C1995 1.429 . S
C1976 H2000 0.950 . S
C1977 C1994 1.574 . S
C1977 C1996 1.368 . S
C1977 H2001 0.949 . S
H1978 C1982 0.949 . S
C1979 C1980 1.349 . S
C1979 C1981 1.327 . S
C1979 H2002 0.950 . S
C1980 C1979 1.349 . S
C1980 C1992 1.349 . S
C1981 C1979 1.327 . S
C1981 C1997 1.429 . S
C1981 H2003 0.950 . S
C1982 H1978 0.949 . S
C1982 C1990 1.574 . S
C1982 C1998 1.368 . S
H1983 C1991 0.950 . S
H1984 C1989 0.950 . S
H1985 C1990 0.949 . S
H1986 C1992 0.950 . S
H1987 C1993 0.950 . S
H1988 C1994 0.949 . S
C1989 H1984 0.950 . S
C1989 C1991 1.327 . S
C1989 C1995 1.429 . S
C1990 C1982 1.574 . S
C1990 H1985 0.949 . S
C1990 C1996 1.368 . S
C1991 C1975 1.349 . S
C1991 H1983 0.950 . S
C1991 C1989 1.327 . S
C1992 C1980 1.349 . S
C1992 H1986 0.950 . S
C1992 C1993 1.327 . S
C1993 H1987 0.950 . S
C1993 C1992 1.327 . S
C1993 C1997 1.429 . S
C1994 C1977 1.574 . S
C1994 H1988 0.949 . S
C1994 C1998 1.368 . S
C1995 C1976 1.429 . S
C1995 C1989 1.429 . S
C1995 C1996 1.523 . S
C1996 C1977 1.368 . S
C1996 C1990 1.368 . S
C1996 C1995 1.523 . S
C1997 C1981 1.429 . S
C1997 C1993 1.429 . S
C1997 C1998 1.523 . S
C1998 C1982 1.368 . S
C1998 C1994 1.368 . S
C1998 C1997 1.523 . S
H1999 C1974 0.950 . S
H2000 C1976 0.950 . S
H2001 C1977 0.949 . S
H2002 C1979 0.950 . S
H2003 C1981 0.950 . S
C2004 C2005 1.349 . S
C2004 C2006 1.327 . S
C2004 H2029 0.906 1_455 S
C2005 C2004 1.349 . S
C2005 C2021 1.349 . S
C2006 C2004 1.327 . S
C2006 C2025 1.429 . S
C2006 H2030 0.950 . S
C2007 C2024 1.574 . S
C2007 C2026 1.368 . S
C2007 H2031 0.949 . S
H2008 C2012 0.949 . S
C2009 C2010 1.349 . S
C2009 C2011 1.327 . S
C2009 H2032 0.950 . S
C2010 C2009 1.349 . S
C2010 C2022 1.349 . S
C2011 C2009 1.327 . S
C2011 C2027 1.429 . S
C2011 H2033 0.950 . S
C2012 H2008 0.949 . S
C2012 C2020 1.574 . S
C2012 C2028 1.368 . S
H2013 C2021 0.950 . S
H2014 C2019 0.950 . S
H2015 C2020 0.949 . S
H2016 C2022 0.950 . S
H2017 C2023 0.950 . S
H2018 C2024 0.949 . S
C2019 H2014 0.950 . S
C2019 C2021 1.327 . S
C2019 C2025 1.429 . S
C2020 C2012 1.574 . S
C2020 H2015 0.949 . S
C2020 C2026 1.368 . S
C2021 C2005 1.349 . S
C2021 H2013 0.950 . S
C2021 C2019 1.327 . S
C2022 C2010 1.349 . S
C2022 H2016 0.950 . S
C2022 C2023 1.327 . S
C2023 H2017 0.950 . S
C2023 C2022 1.327 . S
C2023 C2027 1.429 . S
C2024 C2007 1.574 . S
C2024 H2018 0.949 . S
C2024 C2028 1.368 . S
C2025 C2006 1.429 . S
C2025 C2019 1.429 . S
C2025 C2026 1.523 . S
C2026 C2007 1.368 . S
C2026 C2020 1.368 . S
C2026 C2025 1.523 . S
C2027 C2011 1.429 . S
C2027 C2023 1.429 . S
C2027 C2028 1.523 . S
C2028 C2012 1.368 . S
C2028 C2024 1.368 . S
C2028 C2027 1.523 . S
H2029 C2004 0.906 1_655 S
H2030 C2006 0.950 . S
H2031 C2007 0.949 . S
H2032 C2009 0.950 . S
H2033 C2011 0.950 . S
C2034 C2035 1.349 . S
C2034 C2036 1.327 . S
C2034 H2059 0.950 . S
C2035 C2034 1.349 . S
C2035 C2051 1.349 . S
C2036 C2034 1.327 . S
C2036 C2055 1.429 . S
C2036 H2060 0.950 . S
C2037 C2054 1.574 . S
C2037 C2056 1.368 . S
C2037 H2061 0.949 . S
H2038 C2042 0.949 . S
C2039 C2040 1.349 . S
C2039 C2041 1.327 . S
C2039 H2062 0.950 . S
C2040 C2039 1.349 . S
C2040 C2052 1.349 . S
C2041 C2039 1.327 . S
C2041 C2057 1.429 . S
C2041 H2063 0.950 . S
C2042 H2038 0.949 . S
C2042 C2050 1.574 . S
C2042 C2058 1.368 . S
H2043 C2051 0.950 . S
H2044 C2049 0.950 . S
H2045 C2050 0.949 . S
H2046 C2052 0.950 . S
H2047 C2053 0.950 . S
H2048 C2054 0.949 . S
C2049 H2044 0.950 . S
C2049 C2051 1.327 . S
C2049 C2055 1.429 . S
C2050 C2042 1.574 . S
C2050 H2045 0.949 . S
C2050 C2056 1.368 . S
C2051 C2035 1.349 . S
C2051 H2043 0.950 . S
C2051 C2049 1.327 . S
C2052 C2040 1.349 . S
C2052 H2046 0.950 . S
C2052 C2053 1.327 . S
C2053 H2047 0.950 . S
C2053 C2052 1.327 . S
C2053 C2057 1.429 . S
C2054 C2037 1.574 . S
C2054 H2048 0.949 . S
C2054 C2058 1.368 . S
C2055 C2036 1.429 . S
C2055 C2049 1.429 . S
C2055 C2056 1.523 . S
C2056 C2037 1.368 . S
C2056 C2050 1.368 . S
C2056 C2055 1.523 . S
C2057 C2041 1.429 . S
C2057 C2053 1.429 . S
C2057 C2058 1.523 . S
C2058 C2042 1.368 . S
C2058 C2054 1.368 . S
C2058 C2057 1.523 . S
H2059 C2034 0.950 . S
H2060 C2036 0.950 . S
H2061 C2037 0.949 . S
H2062 C2039 0.950 . S
H2063 C2041 0.950 . S
C2064 C2065 1.349 . S
C2064 C2066 1.327 . S
C2064 H2089 0.950 . S
C2065 C2064 1.349 . S
C2065 C2081 1.349 . S
C2066 C2064 1.327 . S
C2066 C2085 1.429 . S
C2066 H2090 0.950 . S
C2067 C2084 1.574 . S
C2067 C2086 1.368 . S
C2067 H2091 0.949 . S
H2068 C2072 0.949 . S
C2069 C2070 1.349 . S
C2069 C2071 1.327 . S
C2069 H2092 0.950 . S
C2070 C2069 1.349 . S
C2070 C2082 1.349 . S
C2071 C2069 1.327 . S
C2071 C2087 1.429 . S
C2071 H2093 0.950 . S
C2072 H2068 0.949 . S
C2072 C2080 1.574 . S
C2072 C2088 1.368 . S
H2073 C2081 0.950 . S
H2074 C2079 0.950 . S
H2075 C2080 0.949 . S
H2076 C2082 0.950 . S
H2077 C2083 0.950 . S
H2078 C2084 0.949 . S
C2079 H2074 0.950 . S
C2079 C2081 1.327 . S
C2079 C2085 1.429 . S
C2080 C2072 1.574 . S
C2080 H2075 0.949 . S
C2080 C2086 1.368 . S
C2081 C2065 1.349 . S
C2081 H2073 0.950 . S
C2081 C2079 1.327 . S
C2082 C2070 1.349 . S
C2082 H2076 0.950 . S
C2082 C2083 1.327 . S
C2083 H2077 0.950 . S
C2083 C2082 1.327 . S
C2083 C2087 1.429 . S
C2084 C2067 1.574 . S
C2084 H2078 0.949 . S
C2084 C2088 1.368 . S
C2085 C2066 1.429 . S
C2085 C2079 1.429 . S
C2085 C2086 1.523 . S
C2086 C2067 1.368 . S
C2086 C2080 1.368 . S
C2086 C2085 1.523 . S
C2087 C2071 1.429 . S
C2087 C2083 1.429 . S
C2087 C2088 1.523 . S
C2088 C2072 1.368 . S
C2088 C2084 1.368 . S
C2088 C2087 1.523 . S
H2089 C2064 0.950 . S
H2090 C2066 0.950 . S
H2091 C2067 0.949 . S
H2092 C2069 0.950 . S
H2093 C2071 0.950 . S
C2094 C2095 1.349 . S
C2094 C2096 1.327 . S
C2094 H2119 0.950 . S
C2095 C2094 1.349 . S
C2095 C2111 1.349 . S
C2096 C2094 1.327 . S
C2096 C2115 1.429 . S
C2096 H2120 0.950 . S
C2097 C2114 1.574 . S
C2097 C2116 1.368 . S
C2097 H2121 0.949 . S
H2098 C2102 0.949 . S
C2099 C2100 1.349 . S
C2099 C2101 1.327 . S
C2099 H2122 0.950 . S
C2100 C2099 1.349 . S
C2100 C2112 1.349 . S
C2101 C2099 1.327 . S
C2101 C2117 1.429 . S
C2101 H2123 0.950 . S
C2102 H2098 0.949 . S
C2102 C2110 1.574 . S
C2102 C2118 1.368 . S
H2103 C2111 0.950 . S
H2104 C2109 0.950 . S
H2105 C2110 0.949 . S
H2106 C2112 0.950 1_556 S
H2107 C2113 0.950 . S
H2108 C2114 0.949 . S
C2109 H2104 0.950 . S
C2109 C2111 1.327 . S
C2109 C2115 1.429 . S
C2110 C2102 1.574 . S
C2110 H2105 0.949 . S
C2110 C2116 1.368 . S
C2111 C2095 1.349 . S
C2111 H2103 0.950 . S
C2111 C2109 1.327 . S
C2112 C2100 1.349 . S
C2112 H2106 0.950 1_554 S
C2112 C2113 1.327 . S
C2113 H2107 0.950 . S
C2113 C2112 1.327 . S
C2113 C2117 1.429 . S
C2114 C2097 1.574 . S
C2114 H2108 0.949 . S
C2114 C2118 1.368 . S
C2115 C2096 1.429 . S
C2115 C2109 1.429 . S
C2115 C2116 1.523 . S
C2116 C2097 1.368 . S
C2116 C2110 1.368 . S
C2116 C2115 1.523 . S
C2117 C2101 1.429 . S
C2117 C2113 1.429 . S
C2117 C2118 1.523 . S
C2118 C2102 1.368 . S
C2118 C2114 1.368 . S
C2118 C2117 1.523 . S
H2119 C2094 0.950 . S
H2120 C2096 0.950 . S
H2121 C2097 0.949 . S
H2122 C2099 0.950 . S
H2123 C2101 0.950 . S
C2124 C2125 1.349 . S
C2124 C2126 1.327 . S
C2124 H2149 0.950 . S
C2125 C2124 1.349 . S
C2125 C2141 1.349 . S
C2126 C2124 1.327 . S
C2126 C2145 1.429 . S
C2126 H2150 0.950 . S
C2127 C2144 1.574 . S
C2127 C2146 1.368 . S
C2127 H2151 0.949 . S
H2128 C2132 0.949 . S
C2129 C2130 1.349 . S
C2129 C2131 1.327 . S
C2129 H2152 0.950 . S
C2130 C2129 1.349 . S
C2130 C2142 1.349 . S
C2131 C2129 1.327 . S
C2131 C2147 1.429 . S
C2131 H2153 0.950 . S
C2132 H2128 0.949 . S
C2132 C2140 1.574 . S
C2132 C2148 1.368 . S
H2133 C2141 0.950 . S
H2134 C2139 0.950 . S
H2135 C2140 0.949 . S
H2136 C2142 0.950 . S
H2137 C2143 0.950 . S
H2138 C2144 0.949 . S
C2139 H2134 0.950 . S
C2139 C2141 1.327 . S
C2139 C2145 1.429 . S
C2140 C2132 1.574 . S
C2140 H2135 0.949 . S
C2140 C2146 1.368 . S
C2141 C2125 1.349 . S
C2141 H2133 0.950 . S
C2141 C2139 1.327 . S
C2142 C2130 1.349 . S
C2142 H2136 0.950 . S
C2142 C2143 1.327 . S
C2143 H2137 0.950 . S
C2143 C2142 1.327 . S
C2143 C2147 1.429 . S
C2144 C2127 1.574 . S
C2144 H2138 0.949 . S
C2144 C2148 1.368 . S
C2145 C2126 1.429 . S
C2145 C2139 1.429 . S
C2145 C2146 1.523 . S
C2146 C2127 1.368 . S
C2146 C2140 1.368 . S
C2146 C2145 1.523 . S
C2147 C2131 1.429 . S
C2147 C2143 1.429 . S
C2147 C2148 1.523 . S
C2148 C2132 1.368 . S
C2148 C2144 1.368 . S
C2148 C2147 1.523 . S
H2149 C2124 0.950 . S
H2150 C2126 0.950 . S
H2151 C2127 0.949 . S
H2152 C2129 0.950 . S
H2153 C2131 0.950 . S
C2154 C2155 1.349 . S
C2154 C2156 1.327 . S
C2154 H2179 0.950 1_455 S
C2155 C2154 1.349 . S
C2155 C2171 1.349 . S
C2156 C2154 1.327 . S
C2156 C2175 1.429 . S
C2156 H2180 0.950 . S
C2157 C2174 1.574 . S
C2157 C2176 1.368 . S
C2157 H2181 0.949 . S
H2158 C2162 0.949 . S
C2159 C2160 1.349 . S
C2159 C2161 1.327 . S
C2159 H2182 0.950 . S
C2160 C2159 1.349 . S
C2160 C2172 1.349 . S
C2161 C2159 1.327 . S
C2161 C2177 1.429 . S
C2161 H2183 0.950 . S
C2162 H2158 0.949 . S
C2162 C2170 1.574 . S
C2162 C2178 1.368 . S
H2163 C2171 0.950 . S
H2164 C2169 0.950 . S
H2165 C2170 0.949 . S
H2166 C2172 0.950 . S
H2167 C2173 0.950 . S
H2168 C2174 0.949 . S
C2169 H2164 0.950 . S
C2169 C2171 1.327 . S
C2169 C2175 1.429 . S
C2170 C2162 1.574 . S
C2170 H2165 0.949 . S
C2170 C2176 1.368 . S
C2171 C2155 1.349 . S
C2171 H2163 0.950 . S
C2171 C2169 1.327 . S
C2172 C2160 1.349 . S
C2172 H2166 0.950 . S
C2172 C2173 1.327 . S
C2173 H2167 0.950 . S
C2173 C2172 1.327 . S
C2173 C2177 1.429 . S
C2174 C2157 1.574 . S
C2174 H2168 0.949 . S
C2174 C2178 1.368 . S
C2175 C2156 1.429 . S
C2175 C2169 1.429 . S
C2175 C2176 1.523 . S
C2176 C2157 1.368 . S
C2176 C2170 1.368 . S
C2176 C2175 1.523 . S
C2177 C2161 1.429 . S
C2177 C2173 1.429 . S
C2177 C2178 1.523 . S
C2178 C2162 1.368 . S
C2178 C2174 1.368 . S
C2178 C2177 1.523 . S
H2179 C2154 0.950 1_655 S
H2180 C2156 0.950 . S
H2181 C2157 0.949 . S
H2182 C2159 0.950 . S
H2183 C2161 0.950 . S
C2184 C2185 1.349 . S
C2184 C2186 1.327 . S
C2184 H2209 0.950 . S
C2185 C2184 1.349 . S
C2185 C2201 1.349 . S
C2186 C2184 1.327 . S
C2186 C2205 1.429 . S
C2186 H2210 0.950 . S
C2187 C2204 1.574 . S
C2187 C2206 1.368 . S
C2187 H2211 0.949 . S
H2188 C2192 0.949 . S
C2189 C2190 1.349 . S
C2189 C2191 1.327 . S
C2189 H2212 0.950 . S
C2190 C2189 1.349 . S
C2190 C2202 1.349 . S
C2191 C2189 1.327 . S
C2191 C2207 1.429 . S
C2191 H2213 0.950 . S
C2192 H2188 0.949 . S
C2192 C2200 1.574 . S
C2192 C2208 1.368 . S
H2193 C2201 0.950 . S
H2194 C2199 0.950 . S
H2195 C2200 0.949 . S
H2196 C2202 0.950 . S
H2197 C2203 0.950 . S
H2198 C2204 0.949 . S
C2199 H2194 0.950 . S
C2199 C2201 1.327 . S
C2199 C2205 1.429 . S
C2200 C2192 1.574 . S
C2200 H2195 0.949 . S
C2200 C2206 1.368 . S
C2201 C2185 1.349 . S
C2201 H2193 0.950 . S
C2201 C2199 1.327 . S
C2202 C2190 1.349 . S
C2202 H2196 0.950 . S
C2202 C2203 1.327 . S
C2203 H2197 0.950 . S
C2203 C2202 1.327 . S
C2203 C2207 1.429 . S
C2204 C2187 1.574 . S
C2204 H2198 0.949 . S
C2204 C2208 1.368 . S
C2205 C2186 1.429 . S
C2205 C2199 1.429 . S
C2205 C2206 1.523 . S
C2206 C2187 1.368 . S
C2206 C2200 1.368 . S
C2206 C2205 1.523 . S
C2207 C2191 1.429 . S
C2207 C2203 1.429 . S
C2207 C2208 1.523 . S
C2208 C2192 1.368 . S
C2208 C2204 1.368 . S
C2208 C2207 1.523 . S
H2209 C2184 0.950 . S
H2210 C2186 0.950 . S
H2211 C2187 0.949 . S
H2212 C2189 0.950 . S
H2213 C2191 0.950 . S
C2214 C2215 1.349 . S
C2214 C2216 1.327 . S
C2214 H2239 0.950 . S
C2215 C2214 1.349 . S
C2215 C2231 1.349 . S
C2216 C2214 1.327 . S
C2216 C2235 1.429 . S
C2216 H2240 0.950 . S
C2217 C2234 1.574 . S
C2217 C2236 1.368 . S
C2217 H2241 0.949 . S
H2218 C2222 0.949 . S
C2219 C2220 1.349 . S
C2219 C2221 1.327 . S
C2219 H2242 0.950 1_455 S
C2220 C2219 1.349 . S
C2220 C2232 1.349 . S
C2221 C2219 1.327 . S
C2221 C2237 1.429 . S
C2221 H2243 0.950 . S
C2222 H2218 0.949 . S
C2222 C2230 1.574 . S
C2222 C2238 1.368 . S
H2223 C2231 0.976 . S
H2224 C2229 0.950 . S
H2225 C2230 0.949 . S
H2226 C2232 0.950 . S
H2227 C2233 0.950 . S
H2228 C2234 0.949 . S
C2229 H2224 0.950 . S
C2229 C2231 1.327 . S
C2229 C2235 1.429 . S
C2230 C2222 1.574 . S
C2230 H2225 0.949 . S
C2230 C2236 1.368 . S
C2231 C2215 1.349 . S
C2231 H2223 0.976 . S
C2231 C2229 1.327 . S
C2232 C2220 1.349 . S
C2232 H2226 0.950 . S
C2232 C2233 1.327 . S
C2233 H2227 0.950 . S
C2233 C2232 1.327 . S
C2233 C2237 1.429 . S
C2234 C2217 1.574 . S
C2234 H2228 0.949 . S
C2234 C2238 1.368 . S
C2235 C2216 1.429 . S
C2235 C2229 1.429 . S
C2235 C2236 1.523 . S
C2236 C2217 1.368 . S
C2236 C2230 1.368 . S
C2236 C2235 1.523 . S
C2237 C2221 1.429 . S
C2237 C2233 1.429 . S
C2237 C2238 1.523 . S
C2238 C2222 1.368 . S
C2238 C2234 1.368 . S
C2238 C2237 1.523 . S
H2239 C2214 0.950 . S
H2240 C2216 0.950 . S
H2241 C2217 0.949 . S
H2242 C2219 0.950 1_655 S
H2243 C2221 0.950 . S
C2244 C2245 1.349 . S
C2244 C2246 1.327 . S
C2244 H2269 0.950 . S
C2245 C2244 1.349 . S
C2245 C2261 1.349 . S
C2246 C2244 1.327 . S
C2246 C2265 1.429 . S
C2246 H2270 0.950 . S
C2247 C2264 1.574 . S
C2247 C2266 1.368 . S
C2247 H2271 0.949 . S
H2248 C2252 0.949 . S
C2249 C2250 1.349 . S
C2249 C2251 1.327 . S
C2249 H2272 0.950 . S
C2250 C2249 1.349 . S
C2250 C2262 1.349 . S
C2251 C2249 1.327 . S
C2251 C2267 1.429 . S
C2251 H2273 0.950 . S
C2252 H2248 0.949 . S
C2252 C2260 1.574 . S
C2252 C2268 1.368 . S
H2253 C2261 0.950 . S
H2254 C2259 0.950 . S
H2255 C2260 0.949 . S
H2256 C2262 0.950 . S
H2257 C2263 0.950 . S
H2258 C2264 0.949 . S
C2259 H2254 0.950 . S
C2259 C2261 1.327 . S
C2259 C2265 1.429 . S
C2260 C2252 1.574 . S
C2260 H2255 0.949 . S
C2260 C2266 1.368 . S
C2261 C2245 1.349 . S
C2261 H2253 0.950 . S
C2261 C2259 1.327 . S
C2262 C2250 1.349 . S
C2262 H2256 0.950 . S
C2262 C2263 1.327 . S
C2263 H2257 0.950 . S
C2263 C2262 1.327 . S
C2263 C2267 1.429 . S
C2264 C2247 1.574 . S
C2264 H2258 0.949 . S
C2264 C2268 1.368 . S
C2265 C2246 1.429 . S
C2265 C2259 1.429 . S
C2265 C2266 1.523 . S
C2266 C2247 1.368 . S
C2266 C2260 1.368 . S
C2266 C2265 1.523 . S
C2267 C2251 1.429 . S
C2267 C2263 1.429 . S
C2267 C2268 1.523 . S
C2268 C2252 1.368 . S
C2268 C2264 1.368 . S
C2268 C2267 1.523 . S
H2269 C2244 0.950 . S
H2270 C2246 0.950 . S
H2271 C2247 0.949 . S
H2272 C2249 0.950 . S
H2273 C2251 0.950 . S
C2274 C2275 1.349 . S
C2274 C2276 1.327 . S
C2274 H2299 0.950 . S
C2275 C2274 1.349 . S
C2275 C2291 1.349 . S
C2276 C2274 1.327 . S
C2276 C2295 1.429 . S
C2276 H2300 0.950 . S
C2277 C2294 1.574 . S
C2277 C2296 1.368 . S
C2277 H2301 0.949 . S
H2278 C2282 0.949 . S
C2279 C2280 1.349 . S
C2279 C2281 1.327 . S
C2279 H2302 0.950 . S
C2280 C2279 1.349 . S
C2280 C2292 1.349 . S
C2281 C2279 1.327 . S
C2281 C2297 1.429 . S
C2281 H2303 0.950 . S
C2282 H2278 0.949 . S
C2282 C2290 1.574 . S
C2282 C2298 1.368 . S
H2283 C2291 0.950 . S
H2284 C2289 0.950 . S
H2285 C2290 0.949 . S
H2286 C2292 0.950 . S
H2287 C2293 0.950 . S
H2288 C2294 0.949 . S
C2289 H2284 0.950 . S
C2289 C2291 1.327 . S
C2289 C2295 1.429 . S
C2290 C2282 1.574 . S
C2290 H2285 0.949 . S
C2290 C2296 1.368 . S
C2291 C2275 1.349 . S
C2291 H2283 0.950 . S
C2291 C2289 1.327 . S
C2292 C2280 1.349 . S
C2292 H2286 0.950 . S
C2292 C2293 1.327 . S
C2293 H2287 0.950 . S
C2293 C2292 1.327 . S
C2293 C2297 1.429 . S
C2294 C2277 1.574 . S
C2294 H2288 0.949 . S
C2294 C2298 1.368 . S
C2295 C2276 1.429 . S
C2295 C2289 1.429 . S
C2295 C2296 1.523 . S
C2296 C2277 1.368 . S
C2296 C2290 1.368 . S
C2296 C2295 1.523 . S
C2297 C2281 1.429 . S
C2297 C2293 1.429 . S
C2297 C2298 1.523 . S
C2298 C2282 1.368 . S
C2298 C2294 1.368 . S
C2298 C2297 1.523 . S
H2299 C2274 0.950 . S
H2300 C2276 0.950 . S
H2301 C2277 0.949 . S
H2302 C2279 0.950 . S
H2303 C2281 0.950 . S
C2304 C2305 1.349 . S
C2304 C2306 1.327 . S
C2304 H2329 0.950 . S
C2305 C2304 1.349 . S
C2305 C2321 1.349 . S
C2306 C2304 1.327 . S
C2306 C2325 1.429 . S
C2306 H2330 0.950 . S
C2307 C2324 1.574 . S
C2307 C2326 1.368 . S
C2307 H2331 0.949 . S
H2308 C2312 0.949 . S
C2309 C2310 1.349 . S
C2309 C2311 1.327 . S
C2309 H2332 0.950 . S
C2310 C2309 1.349 . S
C2310 C2322 1.349 . S
C2311 C2309 1.327 . S
C2311 C2327 1.429 . S
C2311 H2333 0.950 . S
C2312 H2308 0.949 . S
C2312 C2320 1.574 . S
C2312 C2328 1.368 . S
H2313 C2321 0.950 . S
H2314 C2319 0.950 . S
H2315 C2320 0.949 . S
H2316 C2322 0.950 . S
H2317 C2323 0.950 . S
H2318 C2324 0.949 . S
C2319 H2314 0.950 . S
C2319 C2321 1.327 . S
C2319 C2325 1.429 . S
C2320 C2312 1.574 . S
C2320 H2315 0.949 . S
C2320 C2326 1.368 . S
C2321 C2305 1.349 . S
C2321 H2313 0.950 . S
C2321 C2319 1.327 . S
C2322 C2310 1.349 . S
C2322 H2316 0.950 . S
C2322 C2323 1.327 . S
C2323 H2317 0.950 . S
C2323 C2322 1.327 . S
C2323 C2327 1.429 . S
C2324 C2307 1.574 . S
C2324 H2318 0.949 . S
C2324 C2328 1.368 . S
C2325 C2306 1.429 . S
C2325 C2319 1.429 . S
C2325 C2326 1.523 . S
C2326 C2307 1.368 . S
C2326 C2320 1.368 . S
C2326 C2325 1.523 . S
C2327 C2311 1.429 . S
C2327 C2323 1.429 . S
C2327 C2328 1.523 . S
C2328 C2312 1.368 . S
C2328 C2324 1.368 . S
C2328 C2327 1.523 . S
H2329 C2304 0.950 . S
H2330 C2306 0.950 . S
H2331 C2307 0.949 . S
H2332 C2309 0.950 . S
H2333 C2311 0.950 . S
C2334 C2335 1.349 . S
C2334 C2336 1.327 . S
C2334 H2359 0.950 . S
C2335 C2334 1.349 . S
C2335 C2351 1.349 . S
C2336 C2334 1.327 . S
C2336 C2355 1.429 . S
C2336 H2360 0.950 . S
C2337 C2354 1.574 . S
C2337 C2356 1.368 . S
C2337 H2361 0.949 . S
H2338 C2342 0.949 . S
C2339 C2340 1.349 . S
C2339 C2341 1.327 . S
C2339 H2362 0.950 . S
C2340 C2339 1.349 . S
C2340 C2352 1.353 . S
C2341 C2339 1.327 . S
C2341 C2357 1.429 . S
C2341 H2363 0.950 . S
C2342 H2338 0.949 . S
C2342 C2350 1.574 . S
C2342 C2358 1.368 . S
H2343 C2351 0.950 . S
H2344 C2349 0.950 . S
H2345 C2350 0.949 . S
H2346 C2352 0.909 1_556 S
H2347 C2353 0.950 . S
H2348 C2354 0.949 . S
C2349 H2344 0.950 . S
C2349 C2351 1.327 . S
C2349 C2355 1.429 . S
C2350 C2342 1.574 . S
C2350 H2345 0.949 . S
C2350 C2356 1.368 . S
C2351 C2335 1.349 . S
C2351 H2343 0.950 . S
C2351 C2349 1.327 . S
C2352 C2340 1.353 . S
C2352 H2346 0.909 1_554 S
C2352 C2353 1.365 . S
C2353 H2347 0.950 . S
C2353 C2352 1.365 . S
C2353 C2357 1.429 . S
C2354 C2337 1.574 . S
C2354 H2348 0.949 . S
C2354 C2358 1.368 . S
C2355 C2336 1.429 . S
C2355 C2349 1.429 . S
C2355 C2356 1.523 . S
C2356 C2337 1.368 . S
C2356 C2350 1.368 . S
C2356 C2355 1.523 . S
C2357 C2341 1.429 . S
C2357 C2353 1.429 . S
C2357 C2358 1.523 . S
C2358 C2342 1.368 . S
C2358 C2354 1.368 . S
C2358 C2357 1.523 . S
H2359 C2334 0.950 . S
H2360 C2336 0.950 . S
H2361 C2337 0.949 . S
H2362 C2339 0.950 . S
H2363 C2341 0.950 . S
C2364 C2365 1.349 . S
C2364 C2366 1.327 . S
C2364 H2389 0.950 . S
C2365 C2364 1.349 . S
C2365 C2381 1.349 . S
C2366 C2364 1.327 . S
C2366 C2385 1.429 . S
C2366 H2390 0.950 . S
C2367 C2384 1.574 . S
C2367 C2386 1.368 . S
C2367 H2391 0.949 . S
H2368 C2372 0.949 . S
C2369 C2370 1.349 . S
C2369 C2371 1.327 . S
C2369 H2392 0.950 . S
C2370 C2369 1.349 . S
C2370 C2382 1.349 . S
C2371 C2369 1.327 . S
C2371 C2387 1.429 . S
C2371 H2393 0.950 . S
C2372 H2368 0.949 . S
C2372 C2380 1.574 . S
C2372 C2388 1.368 . S
H2373 C2381 0.950 . S
H2374 C2379 0.950 . S
H2375 C2380 0.949 . S
H2376 C2382 0.950 . S
H2377 C2383 0.950 . S
H2378 C2384 0.949 . S
C2379 H2374 0.950 . S
C2379 C2381 1.327 . S
C2379 C2385 1.429 . S
C2380 C2372 1.574 . S
C2380 H2375 0.949 . S
C2380 C2386 1.368 . S
C2381 C2365 1.349 . S
C2381 H2373 0.950 . S
C2381 C2379 1.327 . S
C2382 C2370 1.349 . S
C2382 H2376 0.950 . S
C2382 C2383 1.327 . S
C2383 H2377 0.950 . S
C2383 C2382 1.327 . S
C2383 C2387 1.429 . S
C2384 C2367 1.574 . S
C2384 H2378 0.949 . S
C2384 C2388 1.368 . S
C2385 C2366 1.429 . S
C2385 C2379 1.429 . S
C2385 C2386 1.523 . S
C2386 C2367 1.368 . S
C2386 C2380 1.368 . S
C2386 C2385 1.523 . S
C2387 C2371 1.429 . S
C2387 C2383 1.429 . S
C2387 C2388 1.523 . S
C2388 C2372 1.368 . S
C2388 C2384 1.368 . S
C2388 C2387 1.523 . S
H2389 C2364 0.950 . S
H2390 C2366 0.950 . S
H2391 C2367 0.949 . S
H2392 C2369 0.950 . S
H2393 C2371 0.950 . S
C2394 C2395 1.349 . S
C2394 C2396 1.327 . S
C2394 H2419 0.950 . S
C2395 C2394 1.349 . S
C2395 C2411 1.349 . S
C2396 C2394 1.327 . S
C2396 C2415 1.429 . S
C2396 H2420 0.950 . S
C2397 C2414 1.574 . S
C2397 C2416 1.368 . S
C2397 H2421 0.949 . S
H2398 C2402 0.949 . S
C2399 C2400 1.349 . S
C2399 C2401 1.327 . S
C2399 H2422 0.950 . S
C2400 C2399 1.349 . S
C2400 C2412 1.349 . S
C2401 C2399 1.327 . S
C2401 C2417 1.429 . S
C2401 H2423 0.950 . S
C2402 H2398 0.949 . S
C2402 C2410 1.574 . S
C2402 C2418 1.368 . S
H2403 C2411 0.950 . S
H2404 C2409 0.950 . S
H2405 C2410 0.949 . S
H2406 C2412 0.950 . S
H2407 C2413 0.950 . S
H2408 C2414 0.949 . S
C2409 H2404 0.950 . S
C2409 C2411 1.327 . S
C2409 C2415 1.429 . S
C2410 C2402 1.574 . S
C2410 H2405 0.949 . S
C2410 C2416 1.368 . S
C2411 C2395 1.349 . S
C2411 H2403 0.950 . S
C2411 C2409 1.327 . S
C2412 C2400 1.349 . S
C2412 H2406 0.950 . S
C2412 C2413 1.327 . S
C2413 H2407 0.950 . S
C2413 C2412 1.327 . S
C2413 C2417 1.429 . S
C2414 C2397 1.574 . S
C2414 H2408 0.949 . S
C2414 C2418 1.368 . S
C2415 C2396 1.429 . S
C2415 C2409 1.429 . S
C2415 C2416 1.523 . S
C2416 C2397 1.368 . S
C2416 C2410 1.368 . S
C2416 C2415 1.523 . S
C2417 C2401 1.429 . S
C2417 C2413 1.429 . S
C2417 C2418 1.523 . S
C2418 C2402 1.368 . S
C2418 C2414 1.368 . S
C2418 C2417 1.523 . S
H2419 C2394 0.950 . S
H2420 C2396 0.950 . S
H2421 C2397 0.949 . S
H2422 C2399 0.950 . S
H2423 C2401 0.950 . S
C2424 C2425 1.349 . S
C2424 C2426 1.327 . S
C2424 H2449 0.950 . S
C2425 C2424 1.349 . S
C2425 C2441 1.349 . S
C2426 C2424 1.327 . S
C2426 C2445 1.429 . S
C2426 H2450 0.950 . S
C2427 C2444 1.574 . S
C2427 C2446 1.368 . S
C2427 H2451 0.949 . S
H2428 C2432 0.949 . S
C2429 C2430 1.349 . S
C2429 C2431 1.327 . S
C2429 H2452 0.950 . S
C2430 C2429 1.349 . S
C2430 C2442 1.349 . S
C2431 C2429 1.327 . S
C2431 C2447 1.429 . S
C2431 H2453 0.950 . S
C2432 H2428 0.949 . S
C2432 C2440 1.574 . S
C2432 C2448 1.368 . S
H2433 C2441 0.950 . S
H2434 C2439 0.950 . S
H2435 C2440 0.949 . S
H2436 C2442 0.950 . S
H2437 C2443 0.950 . S
H2438 C2444 0.949 . S
C2439 H2434 0.950 . S
C2439 C2441 1.327 . S
C2439 C2445 1.429 . S
C2440 C2432 1.574 . S
C2440 H2435 0.949 . S
C2440 C2446 1.368 . S
C2441 C2425 1.349 . S
C2441 H2433 0.950 . S
C2441 C2439 1.327 . S
C2442 C2430 1.349 . S
C2442 H2436 0.950 . S
C2442 C2443 1.327 . S
C2443 H2437 0.950 . S
C2443 C2442 1.327 . S
C2443 C2447 1.429 . S
C2444 C2427 1.574 . S
C2444 H2438 0.949 . S
C2444 C2448 1.368 . S
C2445 C2426 1.429 . S
C2445 C2439 1.429 . S
C2445 C2446 1.523 . S
C2446 C2427 1.368 . S
C2446 C2440 1.368 . S
C2446 C2445 1.523 . S
C2447 C2431 1.429 . S
C2447 C2443 1.429 . S
C2447 C2448 1.523 . S
C2448 C2432 1.368 . S
C2448 C2444 1.368 . S
C2448 C2447 1.523 . S
H2449 C2424 0.950 . S
H2450 C2426 0.950 . S
H2451 C2427 0.949 . S
H2452 C2429 0.950 . S
H2453 C2431 0.950 . S
C2454 C2455 1.349 . S
C2454 C2456 1.327 . S
C2454 H2479 0.950 . S
C2455 C2454 1.349 . S
C2455 C2471 1.349 . S
C2456 C2454 1.327 . S
C2456 C2475 1.429 . S
C2456 H2480 0.950 . S
C2457 C2474 1.574 . S
C2457 C2476 1.368 . S
C2457 H2481 0.949 . S
H2458 C2462 0.949 . S
C2459 C2460 1.349 . S
C2459 C2461 1.327 . S
C2459 H2482 0.950 . S
C2460 C2459 1.349 . S
C2460 C2472 1.349 . S
C2461 C2459 1.327 . S
C2461 C2477 1.429 . S
C2461 H2483 0.950 . S
C2462 H2458 0.949 . S
C2462 C2470 1.574 . S
C2462 C2478 1.368 . S
H2463 C2471 0.950 . S
H2464 C2469 0.950 . S
H2465 C2470 0.949 . S
H2466 C2472 0.950 1_554 S
H2467 C2473 0.950 . S
H2468 C2474 0.949 . S
C2469 H2464 0.950 . S
C2469 C2471 1.327 . S
C2469 C2475 1.429 . S
C2470 C2462 1.574 . S
C2470 H2465 0.949 . S
C2470 C2476 1.368 . S
C2471 C2455 1.349 . S
C2471 H2463 0.950 . S
C2471 C2469 1.327 . S
C2472 C2460 1.349 . S
C2472 H2466 0.950 1_556 S
C2472 C2473 1.327 . S
C2473 H2467 0.950 . S
C2473 C2472 1.327 . S
C2473 C2477 1.429 . S
C2474 C2457 1.574 . S
C2474 H2468 0.949 . S
C2474 C2478 1.368 . S
C2475 C2456 1.429 . S
C2475 C2469 1.429 . S
C2475 C2476 1.523 . S
C2476 C2457 1.368 . S
C2476 C2470 1.368 . S
C2476 C2475 1.523 . S
C2477 C2461 1.429 . S
C2477 C2473 1.429 . S
C2477 C2478 1.523 . S
C2478 C2462 1.368 . S
C2478 C2474 1.368 . S
C2478 C2477 1.523 . S
H2479 C2454 0.950 . S
H2480 C2456 0.950 . S
H2481 C2457 0.949 . S
H2482 C2459 0.950 . S
H2483 C2461 0.950 . S
C2484 C2485 1.349 . S
C2484 C2486 1.327 . S
C2484 H2509 0.950 . S
C2485 C2484 1.349 . S
C2485 C2501 1.349 . S
C2486 C2484 1.327 . S
C2486 C2505 1.429 . S
C2486 H2510 0.950 . S
C2487 C2504 1.574 . S
C2487 C2506 1.368 . S
C2487 H2511 0.949 . S
H2488 C2492 0.949 . S
C2489 C2490 1.349 . S
C2489 C2491 1.327 . S
C2489 H2512 0.950 . S
C2490 C2489 1.349 . S
C2490 C2502 1.349 . S
C2491 C2489 1.327 . S
C2491 C2507 1.429 . S
C2491 H2513 0.950 . S
C2492 H2488 0.949 . S
C2492 C2500 1.574 . S
C2492 C2508 1.368 . S
H2493 C2501 0.950 . S
H2494 C2499 0.950 . S
H2495 C2500 0.949 . S
H2496 C2502 0.950 . S
H2497 C2503 0.950 . S
H2498 C2504 0.949 . S
C2499 H2494 0.950 . S
C2499 C2501 1.327 . S
C2499 C2505 1.429 . S
C2500 C2492 1.574 . S
C2500 H2495 0.949 . S
C2500 C2506 1.368 . S
C2501 C2485 1.349 . S
C2501 H2493 0.950 . S
C2501 C2499 1.327 . S
C2502 C2490 1.349 . S
C2502 H2496 0.950 . S
C2502 C2503 1.327 . S
C2503 H2497 0.950 . S
C2503 C2502 1.327 . S
C2503 C2507 1.429 . S
C2504 C2487 1.574 . S
C2504 H2498 0.949 . S
C2504 C2508 1.368 . S
C2505 C2486 1.429 . S
C2505 C2499 1.429 . S
C2505 C2506 1.523 . S
C2506 C2487 1.368 . S
C2506 C2500 1.368 . S
C2506 C2505 1.523 . S
C2507 C2491 1.429 . S
C2507 C2503 1.429 . S
C2507 C2508 1.523 . S
C2508 C2492 1.368 . S
C2508 C2504 1.368 . S
C2508 C2507 1.523 . S
H2509 C2484 0.950 . S
H2510 C2486 0.950 . S
H2511 C2487 0.949 . S
H2512 C2489 0.950 . S
H2513 C2491 0.950 . S
C2514 C2515 1.349 . S
C2514 C2516 1.327 . S
C2514 H2539 0.950 . S
C2515 C2514 1.349 . S
C2515 C2531 1.349 . S
C2516 C2514 1.327 . S
C2516 C2535 1.429 . S
C2516 H2540 0.950 . S
C2517 C2534 1.574 . S
C2517 C2536 1.368 . S
C2517 H2541 0.949 . S
H2518 C2522 0.949 . S
C2519 C2520 1.349 . S
C2519 C2521 1.327 . S
C2519 H2542 0.950 . S
C2520 C2519 1.349 . S
C2520 C2532 1.349 . S
C2521 C2519 1.327 . S
C2521 C2537 1.429 . S
C2521 H2543 0.950 . S
C2522 H2518 0.949 . S
C2522 C2530 1.574 . S
C2522 C2538 1.368 . S
H2523 C2531 0.950 . S
H2524 C2529 0.950 . S
H2525 C2530 0.949 . S
H2526 C2532 0.950 . S
H2527 C2533 0.950 . S
H2528 C2534 0.949 . S
C2529 H2524 0.950 . S
C2529 C2531 1.327 . S
C2529 C2535 1.429 . S
C2530 C2522 1.574 . S
C2530 H2525 0.949 . S
C2530 C2536 1.368 . S
C2531 C2515 1.349 . S
C2531 H2523 0.950 . S
C2531 C2529 1.327 . S
C2532 C2520 1.349 . S
C2532 H2526 0.950 . S
C2532 C2533 1.327 . S
C2533 H2527 0.950 . S
C2533 C2532 1.327 . S
C2533 C2537 1.429 . S
C2534 C2517 1.574 . S
C2534 H2528 0.949 . S
C2534 C2538 1.368 . S
C2535 C2516 1.429 . S
C2535 C2529 1.429 . S
C2535 C2536 1.523 . S
C2536 C2517 1.368 . S
C2536 C2530 1.368 . S
C2536 C2535 1.523 . S
C2537 C2521 1.429 . S
C2537 C2533 1.429 . S
C2537 C2538 1.523 . S
C2538 C2522 1.368 . S
C2538 C2534 1.368 . S
C2538 C2537 1.523 . S
H2539 C2514 0.950 . S
H2540 C2516 0.950 . S
H2541 C2517 0.949 . S
H2542 C2519 0.950 . S
H2543 C2521 0.950 . S
C2544 C2545 1.349 . S
C2544 C2546 1.327 . S
C2544 H2569 0.950 . S
C2545 C2544 1.349 . S
C2545 C2561 1.349 . S
C2546 C2544 1.327 . S
C2546 C2565 1.429 . S
C2546 H2570 0.950 . S
C2547 C2564 1.574 . S
C2547 C2566 1.368 . S
C2547 H2571 0.949 . S
H2548 C2552 0.949 . S
C2549 C2550 1.349 . S
C2549 C2551 1.327 . S
C2549 H2572 0.950 . S
C2550 C2549 1.349 . S
C2550 C2562 1.349 . S
C2551 C2549 1.327 . S
C2551 C2567 1.429 . S
C2551 H2573 0.950 . S
C2552 H2548 0.949 . S
C2552 C2560 1.574 . S
C2552 C2568 1.368 . S
H2553 C2561 0.950 . S
H2554 C2559 0.950 . S
H2555 C2560 0.949 . S
H2556 C2562 0.950 . S
H2557 C2563 0.950 . S
H2558 C2564 0.949 . S
C2559 H2554 0.950 . S
C2559 C2561 1.327 . S
C2559 C2565 1.429 . S
C2560 C2552 1.574 . S
C2560 H2555 0.949 . S
C2560 C2566 1.368 . S
C2561 C2545 1.349 . S
C2561 H2553 0.950 . S
C2561 C2559 1.327 . S
C2562 C2550 1.349 . S
C2562 H2556 0.950 . S
C2562 C2563 1.327 . S
C2563 H2557 0.950 . S
C2563 C2562 1.327 . S
C2563 C2567 1.429 . S
C2564 C2547 1.574 . S
C2564 H2558 0.949 . S
C2564 C2568 1.368 . S
C2565 C2546 1.429 . S
C2565 C2559 1.429 . S
C2565 C2566 1.523 . S
C2566 C2547 1.368 . S
C2566 C2560 1.368 . S
C2566 C2565 1.523 . S
C2567 C2551 1.429 . S
C2567 C2563 1.429 . S
C2567 C2568 1.523 . S
C2568 C2552 1.368 . S
C2568 C2564 1.368 . S
C2568 C2567 1.523 . S
H2569 C2544 0.950 . S
H2570 C2546 0.950 . S
H2571 C2547 0.949 . S
H2572 C2549 0.950 . S
H2573 C2551 0.950 . S
C2574 C2575 1.349 . S
C2574 C2576 1.327 . S
C2574 H2599 0.950 . S
C2575 C2574 1.349 . S
C2575 C2591 1.349 . S
C2576 C2574 1.327 . S
C2576 C2595 1.429 . S
C2576 H2600 0.950 . S
C2577 C2594 1.574 . S
C2577 C2596 1.368 . S
C2577 H2601 0.949 . S
H2578 C2582 0.949 . S
C2579 C2580 1.349 . S
C2579 C2581 1.327 . S
C2579 H2602 0.950 . S
C2580 C2579 1.349 . S
C2580 C2592 1.349 . S
C2581 C2579 1.327 . S
C2581 C2597 1.429 . S
C2581 H2603 0.950 . S
C2582 H2578 0.949 . S
C2582 C2590 1.574 . S
C2582 C2598 1.368 . S
H2583 C2591 0.950 . S
H2584 C2589 0.950 . S
H2585 C2590 0.949 . S
H2586 C2592 0.950 . S
H2587 C2593 0.950 . S
H2588 C2594 0.949 . S
C2589 H2584 0.950 . S
C2589 C2591 1.327 . S
C2589 C2595 1.429 . S
C2590 C2582 1.574 . S
C2590 H2585 0.949 . S
C2590 C2596 1.368 . S
C2591 C2575 1.349 . S
C2591 H2583 0.950 . S
C2591 C2589 1.327 . S
C2592 C2580 1.349 . S
C2592 H2586 0.950 . S
C2592 C2593 1.327 . S
C2593 H2587 0.950 . S
C2593 C2592 1.327 . S
C2593 C2597 1.429 . S
C2594 C2577 1.574 . S
C2594 H2588 0.949 . S
C2594 C2598 1.368 . S
C2595 C2576 1.429 . S
C2595 C2589 1.429 . S
C2595 C2596 1.523 . S
C2596 C2577 1.368 . S
C2596 C2590 1.368 . S
C2596 C2595 1.523 . S
C2597 C2581 1.429 . S
C2597 C2593 1.429 . S
C2597 C2598 1.523 . S
C2598 C2582 1.368 . S
C2598 C2594 1.368 . S
C2598 C2597 1.523 . S
H2599 C2574 0.950 . S
H2600 C2576 0.950 . S
H2601 C2577 0.949 . S
H2602 C2579 0.950 . S
H2603 C2581 0.950 . S
C2604 C2605 1.349 . S
C2604 C2606 1.327 . S
C2604 H2629 0.950 . S
C2605 C2604 1.349 . S
C2605 C2621 1.349 . S
C2606 C2604 1.327 . S
C2606 C2625 1.429 . S
C2606 H2630 0.950 . S
C2607 C2624 1.574 . S
C2607 C2626 1.368 . S
C2607 H2631 0.949 . S
H2608 C2612 0.949 . S
C2609 C2610 1.349 . S
C2609 C2611 1.327 . S
C2609 H2632 0.950 . S
C2610 C2609 1.349 . S
C2610 C2622 1.349 . S
C2611 C2609 1.327 . S
C2611 C2627 1.429 . S
C2611 H2633 0.950 . S
C2612 H2608 0.949 . S
C2612 C2620 1.574 . S
C2612 C2628 1.368 . S
H2613 C2621 0.950 . S
H2614 C2619 0.950 . S
H2615 C2620 0.949 . S
H2616 C2622 0.950 1_565 S
H2617 C2623 0.950 . S
H2618 C2624 0.949 . S
C2619 H2614 0.950 . S
C2619 C2621 1.327 . S
C2619 C2625 1.429 . S
C2620 C2612 1.574 . S
C2620 H2615 0.949 . S
C2620 C2626 1.368 . S
C2621 C2605 1.349 . S
C2621 H2613 0.950 . S
C2621 C2619 1.327 . S
C2622 C2610 1.349 . S
C2622 H2616 0.950 1_545 S
C2622 C2623 1.327 . S
C2623 H2617 0.950 . S
C2623 C2622 1.327 . S
C2623 C2627 1.429 . S
C2624 C2607 1.574 . S
C2624 H2618 0.949 . S
C2624 C2628 1.368 . S
C2625 C2606 1.429 . S
C2625 C2619 1.429 . S
C2625 C2626 1.523 . S
C2626 C2607 1.368 . S
C2626 C2620 1.368 . S
C2626 C2625 1.523 . S
C2627 C2611 1.429 . S
C2627 C2623 1.429 . S
C2627 C2628 1.523 . S
C2628 C2612 1.368 . S
C2628 C2624 1.368 . S
C2628 C2627 1.523 . S
H2629 C2604 0.950 . S
H2630 C2606 0.950 . S
H2631 C2607 0.949 . S
H2632 C2609 0.950 . S
H2633 C2611 0.950 . S
C2634 C2635 1.349 . S
C2634 C2636 1.327 . S
C2634 H2659 0.950 . S
C2635 C2634 1.349 . S
C2635 C2651 1.349 . S
C2636 C2634 1.327 . S
C2636 C2655 1.429 . S
C2636 H2660 0.950 . S
C2637 C2654 1.574 . S
C2637 C2656 1.368 . S
C2637 H2661 0.949 . S
H2638 C2642 0.949 . S
C2639 C2640 1.349 . S
C2639 C2641 1.327 . S
C2639 H2662 0.950 . S
C2640 C2639 1.349 . S
C2640 C2652 1.349 . S
C2641 C2639 1.327 . S
C2641 C2657 1.429 . S
C2641 H2663 0.950 . S
C2642 H2638 0.949 . S
C2642 C2650 1.574 . S
C2642 C2658 1.368 . S
H2643 C2651 0.950 . S
H2644 C2649 0.950 . S
H2645 C2650 0.949 . S
H2646 C2652 0.950 . S
H2647 C2653 0.950 . S
H2648 C2654 0.949 . S
C2649 H2644 0.950 . S
C2649 C2651 1.327 . S
C2649 C2655 1.429 . S
C2650 C2642 1.574 . S
C2650 H2645 0.949 . S
C2650 C2656 1.368 . S
C2651 C2635 1.349 . S
C2651 H2643 0.950 . S
C2651 C2649 1.327 . S
C2652 C2640 1.349 . S
C2652 H2646 0.950 . S
C2652 C2653 1.327 . S
C2653 H2647 0.950 . S
C2653 C2652 1.327 . S
C2653 C2657 1.429 . S
C2654 C2637 1.574 . S
C2654 H2648 0.949 . S
C2654 C2658 1.368 . S
C2655 C2636 1.429 . S
C2655 C2649 1.429 . S
C2655 C2656 1.523 . S
C2656 C2637 1.368 . S
C2656 C2650 1.368 . S
C2656 C2655 1.523 . S
C2657 C2641 1.429 . S
C2657 C2653 1.429 . S
C2657 C2658 1.523 . S
C2658 C2642 1.368 . S
C2658 C2654 1.368 . S
C2658 C2657 1.523 . S
H2659 C2634 0.950 . S
H2660 C2636 0.950 . S
H2661 C2637 0.949 . S
H2662 C2639 0.950 . S
H2663 C2641 0.950 . S
C2664 C2665 1.349 . S
C2664 C2666 1.327 . S
C2664 H2689 0.950 . S
C2665 C2664 1.349 . S
C2665 C2681 1.349 . S
C2666 C2664 1.327 . S
C2666 C2685 1.429 . S
C2666 H2690 0.950 . S
C2667 C2684 1.574 . S
C2667 C2686 1.368 . S
C2667 H2691 0.949 . S
H2668 C2672 0.949 . S
C2669 C2670 1.349 . S
C2669 C2671 1.327 . S
C2669 H2692 0.950 . S
C2670 C2669 1.349 . S
C2670 C2682 1.349 . S
C2671 C2669 1.327 . S
C2671 C2687 1.429 . S
C2671 H2693 0.950 . S
C2672 H2668 0.949 . S
C2672 C2680 1.574 . S
C2672 C2688 1.368 . S
H2673 C2681 0.950 . S
H2674 C2679 0.950 . S
H2675 C2680 0.949 . S
H2676 C2682 0.950 . S
H2677 C2683 0.950 . S
H2678 C2684 0.949 . S
C2679 H2674 0.950 . S
C2679 C2681 1.327 . S
C2679 C2685 1.429 . S
C2680 C2672 1.574 . S
C2680 H2675 0.949 . S
C2680 C2686 1.368 . S
C2681 C2665 1.349 . S
C2681 H2673 0.950 . S
C2681 C2679 1.327 . S
C2682 C2670 1.349 . S
C2682 H2676 0.950 . S
C2682 C2683 1.327 . S
C2683 H2677 0.950 . S
C2683 C2682 1.327 . S
C2683 C2687 1.429 . S
C2684 C2667 1.574 . S
C2684 H2678 0.949 . S
C2684 C2688 1.368 . S
C2685 C2666 1.429 . S
C2685 C2679 1.429 . S
C2685 C2686 1.523 . S
C2686 C2667 1.368 . S
C2686 C2680 1.368 . S
C2686 C2685 1.523 . S
C2687 C2671 1.429 . S
C2687 C2683 1.429 . S
C2687 C2688 1.523 . S
C2688 C2672 1.368 . S
C2688 C2684 1.368 . S
C2688 C2687 1.523 . S
H2689 C2664 0.950 . S
H2690 C2666 0.950 . S
H2691 C2667 0.949 . S
H2692 C2669 0.950 . S
H2693 C2671 0.950 . S
C2694 C2695 1.349 . S
C2694 C2696 1.327 . S
C2694 H2719 0.950 . S
C2695 C2694 1.349 . S
C2695 C2711 1.349 . S
C2696 C2694 1.327 . S
C2696 C2715 1.429 . S
C2696 H2720 0.950 . S
C2697 C2714 1.574 . S
C2697 C2716 1.368 . S
C2697 H2721 0.949 . S
H2698 C2702 0.949 . S
C2699 C2700 1.349 . S
C2699 C2701 1.327 . S
C2699 H2722 0.950 . S
C2700 C2699 1.349 . S
C2700 C2712 1.349 . S
C2701 C2699 1.327 . S
C2701 C2717 1.429 . S
C2701 H2723 0.950 . S
C2702 H2698 0.949 . S
C2702 C2710 1.574 . S
C2702 C2718 1.368 . S
H2703 C2711 0.950 . S
H2704 C2709 0.950 . S
H2705 C2710 0.949 . S
H2706 C2712 0.950 . S
H2707 C2713 0.950 . S
H2708 C2714 0.949 . S
C2709 H2704 0.950 . S
C2709 C2711 1.327 . S
C2709 C2715 1.429 . S
C2710 C2702 1.574 . S
C2710 H2705 0.949 . S
C2710 C2716 1.368 . S
C2711 C2695 1.349 . S
C2711 H2703 0.950 . S
C2711 C2709 1.327 . S
C2712 C2700 1.349 . S
C2712 H2706 0.950 . S
C2712 C2713 1.327 . S
C2713 H2707 0.950 . S
C2713 C2712 1.327 . S
C2713 C2717 1.429 . S
C2714 C2697 1.574 . S
C2714 H2708 0.949 . S
C2714 C2718 1.368 . S
C2715 C2696 1.429 . S
C2715 C2709 1.429 . S
C2715 C2716 1.523 . S
C2716 C2697 1.368 . S
C2716 C2710 1.368 . S
C2716 C2715 1.523 . S
C2717 C2701 1.429 . S
C2717 C2713 1.429 . S
C2717 C2718 1.523 . S
C2718 C2702 1.368 . S
C2718 C2714 1.368 . S
C2718 C2717 1.523 . S
H2719 C2694 0.950 . S
H2720 C2696 0.950 . S
H2721 C2697 0.949 . S
H2722 C2699 0.950 . S
H2723 C2701 0.950 . S
C2724 C2725 1.349 . S
C2724 C2726 1.327 . S
C2724 H2749 0.950 . S
C2725 C2724 1.349 . S
C2725 C2741 1.349 . S
C2726 C2724 1.327 . S
C2726 C2745 1.429 . S
C2726 H2750 0.950 . S
C2727 C2744 1.574 . S
C2727 C2746 1.368 . S
C2727 H2751 0.949 . S
H2728 C2732 0.949 . S
C2729 C2730 1.349 . S
C2729 C2731 1.327 . S
C2729 H2752 0.950 . S
C2730 C2729 1.349 . S
C2730 C2742 1.349 . S
C2731 C2729 1.327 . S
C2731 C2747 1.429 . S
C2731 H2753 0.950 . S
C2732 H2728 0.949 . S
C2732 C2740 1.574 . S
C2732 C2748 1.368 . S
H2733 C2741 0.950 1_545 S
H2734 C2739 0.950 . S
H2735 C2740 0.949 . S
H2736 C2742 0.950 . S
H2737 C2743 0.950 . S
H2738 C2744 0.949 . S
C2739 H2734 0.950 . S
C2739 C2741 1.327 . S
C2739 C2745 1.429 . S
C2740 C2732 1.574 . S
C2740 H2735 0.949 . S
C2740 C2746 1.368 . S
C2741 C2725 1.349 . S
C2741 H2733 0.950 1_565 S
C2741 C2739 1.327 . S
C2742 C2730 1.349 . S
C2742 H2736 0.950 . S
C2742 C2743 1.327 . S
C2743 H2737 0.950 . S
C2743 C2742 1.327 . S
C2743 C2747 1.429 . S
C2744 C2727 1.574 . S
C2744 H2738 0.949 . S
C2744 C2748 1.368 . S
C2745 C2726 1.429 . S
C2745 C2739 1.429 . S
C2745 C2746 1.523 . S
C2746 C2727 1.368 . S
C2746 C2740 1.368 . S
C2746 C2745 1.523 . S
C2747 C2731 1.429 . S
C2747 C2743 1.429 . S
C2747 C2748 1.523 . S
C2748 C2732 1.368 . S
C2748 C2744 1.368 . S
C2748 C2747 1.523 . S
H2749 C2724 0.950 . S
H2750 C2726 0.950 . S
H2751 C2727 0.949 . S
H2752 C2729 0.950 . S
H2753 C2731 0.950 . S
C2754 C2755 1.349 . S
C2754 C2756 1.327 . S
C2754 H2779 0.915 1_655 S
C2755 C2754 1.349 . S
C2755 C2771 1.349 . S
C2756 C2754 1.327 . S
C2756 C2775 1.429 . S
C2756 H2780 0.950 . S
C2757 C2774 1.574 . S
C2757 C2776 1.368 . S
C2757 H2781 0.949 . S
H2758 C2762 0.949 . S
C2759 C2760 1.349 . S
C2759 C2761 1.327 . S
C2759 H2782 0.950 . S
C2760 C2759 1.349 . S
C2760 C2772 1.349 . S
C2761 C2759 1.327 . S
C2761 C2777 1.429 . S
C2761 H2783 0.950 . S
C2762 H2758 0.949 . S
C2762 C2770 1.574 . S
C2762 C2778 1.368 . S
H2763 C2771 0.950 . S
H2764 C2769 0.950 . S
H2765 C2770 0.949 . S
H2766 C2772 0.950 1_565 S
H2767 C2773 0.950 . S
H2768 C2774 0.949 . S
C2769 H2764 0.950 . S
C2769 C2771 1.327 . S
C2769 C2775 1.429 . S
C2770 C2762 1.574 . S
C2770 H2765 0.949 . S
C2770 C2776 1.368 . S
C2771 C2755 1.349 . S
C2771 H2763 0.950 . S
C2771 C2769 1.327 . S
C2772 C2760 1.349 . S
C2772 H2766 0.950 1_545 S
C2772 C2773 1.327 . S
C2773 H2767 0.950 . S
C2773 C2772 1.327 . S
C2773 C2777 1.429 . S
C2774 C2757 1.574 . S
C2774 H2768 0.949 . S
C2774 C2778 1.368 . S
C2775 C2756 1.429 . S
C2775 C2769 1.429 . S
C2775 C2776 1.523 . S
C2776 C2757 1.368 . S
C2776 C2770 1.368 . S
C2776 C2775 1.523 . S
C2777 C2761 1.429 . S
C2777 C2773 1.429 . S
C2777 C2778 1.523 . S
C2778 C2762 1.368 . S
C2778 C2774 1.368 . S
C2778 C2777 1.523 . S
H2779 C2754 0.915 1_455 S
H2780 C2756 0.950 . S
H2781 C2757 0.949 . S
H2782 C2759 0.950 . S
H2783 C2761 0.950 . S
C2784 C2785 1.349 . S
C2784 C2786 1.327 . S
C2784 H2809 0.950 . S
C2785 C2784 1.349 . S
C2785 C2801 1.349 . S
C2786 C2784 1.327 . S
C2786 C2805 1.429 . S
C2786 H2810 0.950 . S
C2787 C2804 1.574 . S
C2787 C2806 1.368 . S
C2787 H2811 0.949 . S
H2788 C2792 0.949 . S
C2789 C2790 1.349 . S
C2789 C2791 1.327 . S
C2789 H2812 0.950 . S
C2790 C2789 1.349 . S
C2790 C2802 1.349 . S
C2791 C2789 1.327 . S
C2791 C2807 1.429 . S
C2791 H2813 0.950 . S
C2792 H2788 0.949 . S
C2792 C2800 1.574 . S
C2792 C2808 1.368 . S
H2793 C2801 0.950 . S
H2794 C2799 0.950 . S
H2795 C2800 0.949 . S
H2796 C2802 0.950 . S
H2797 C2803 0.950 . S
H2798 C2804 0.949 . S
C2799 H2794 0.950 . S
C2799 C2801 1.327 . S
C2799 C2805 1.429 . S
C2800 C2792 1.574 . S
C2800 H2795 0.949 . S
C2800 C2806 1.368 . S
C2801 C2785 1.349 . S
C2801 H2793 0.950 . S
C2801 C2799 1.327 . S
C2802 C2790 1.349 . S
C2802 H2796 0.950 . S
C2802 C2803 1.327 . S
C2803 H2797 0.950 . S
C2803 C2802 1.327 . S
C2803 C2807 1.429 . S
C2804 C2787 1.574 . S
C2804 H2798 0.949 . S
C2804 C2808 1.368 . S
C2805 C2786 1.429 . S
C2805 C2799 1.429 . S
C2805 C2806 1.523 . S
C2806 C2787 1.368 . S
C2806 C2800 1.368 . S
C2806 C2805 1.523 . S
C2807 C2791 1.429 . S
C2807 C2803 1.429 . S
C2807 C2808 1.523 . S
C2808 C2792 1.368 . S
C2808 C2804 1.368 . S
C2808 C2807 1.523 . S
H2809 C2784 0.950 . S
H2810 C2786 0.950 . S
H2811 C2787 0.949 . S
H2812 C2789 0.950 . S
H2813 C2791 0.950 . S
C2814 C2815 1.349 . S
C2814 C2816 1.327 . S
C2814 H2839 0.950 . S
C2815 C2814 1.349 . S
C2815 C2831 1.349 . S
C2816 C2814 1.327 . S
C2816 C2835 1.429 . S
C2816 H2840 0.950 . S
C2817 C2834 1.574 . S
C2817 C2836 1.368 . S
C2817 H2841 0.949 . S
H2818 C2822 0.949 . S
C2819 C2820 1.349 . S
C2819 C2821 1.327 . S
C2819 H2842 0.950 . S
C2820 C2819 1.349 . S
C2820 C2832 1.349 . S
C2821 C2819 1.327 . S
C2821 C2837 1.429 . S
C2821 H2843 0.950 . S
C2822 H2818 0.949 . S
C2822 C2830 1.574 . S
C2822 C2838 1.368 . S
H2823 C2831 0.950 . S
H2824 C2829 0.950 . S
H2825 C2830 0.949 . S
H2826 C2832 0.950 . S
H2827 C2833 0.950 . S
H2828 C2834 0.949 . S
C2829 H2824 0.950 . S
C2829 C2831 1.327 . S
C2829 C2835 1.429 . S
C2830 C2822 1.574 . S
C2830 H2825 0.949 . S
C2830 C2836 1.368 . S
C2831 C2815 1.349 . S
C2831 H2823 0.950 . S
C2831 C2829 1.327 . S
C2832 C2820 1.349 . S
C2832 H2826 0.950 . S
C2832 C2833 1.327 . S
C2833 H2827 0.950 . S
C2833 C2832 1.327 . S
C2833 C2837 1.429 . S
C2834 C2817 1.574 . S
C2834 H2828 0.949 . S
C2834 C2838 1.368 . S
C2835 C2816 1.429 . S
C2835 C2829 1.429 . S
C2835 C2836 1.523 . S
C2836 C2817 1.368 . S
C2836 C2830 1.368 . S
C2836 C2835 1.523 . S
C2837 C2821 1.429 . S
C2837 C2833 1.429 . S
C2837 C2838 1.523 . S
C2838 C2822 1.368 . S
C2838 C2834 1.368 . S
C2838 C2837 1.523 . S
H2839 C2814 0.950 . S
H2840 C2816 0.950 . S
H2841 C2817 0.949 . S
H2842 C2819 0.950 . S
H2843 C2821 0.950 . S
C2844 C2845 1.349 . S
C2844 C2846 1.327 . S
C2844 H2869 0.950 . S
C2845 C2844 1.349 . S
C2845 C2861 1.349 . S
C2846 C2844 1.327 . S
C2846 C2865 1.429 . S
C2846 H2870 0.950 . S
C2847 C2864 1.574 . S
C2847 C2866 1.368 . S
C2847 H2871 0.949 . S
H2848 C2852 0.949 . S
C2849 C2850 1.349 . S
C2849 C2851 1.327 . S
C2849 H2872 0.950 . S
C2850 C2849 1.349 . S
C2850 C2862 1.349 . S
C2851 C2849 1.327 . S
C2851 C2867 1.429 . S
C2851 H2873 0.950 . S
C2852 H2848 0.949 . S
C2852 C2860 1.574 . S
C2852 C2868 1.368 . S
H2853 C2861 0.950 . S
H2854 C2859 0.950 . S
H2855 C2860 0.949 . S
H2856 C2862 0.950 . S
H2857 C2863 0.950 . S
H2858 C2864 0.949 . S
C2859 H2854 0.950 . S
C2859 C2861 1.327 . S
C2859 C2865 1.429 . S
C2860 C2852 1.574 . S
C2860 H2855 0.949 . S
C2860 C2866 1.368 . S
C2861 C2845 1.349 . S
C2861 H2853 0.950 . S
C2861 C2859 1.327 . S
C2862 C2850 1.349 . S
C2862 H2856 0.950 . S
C2862 C2863 1.327 . S
C2863 H2857 0.950 . S
C2863 C2862 1.327 . S
C2863 C2867 1.429 . S
C2864 C2847 1.574 . S
C2864 H2858 0.949 . S
C2864 C2868 1.368 . S
C2865 C2846 1.429 . S
C2865 C2859 1.429 . S
C2865 C2866 1.523 . S
C2866 C2847 1.368 . S
C2866 C2860 1.368 . S
C2866 C2865 1.523 . S
C2867 C2851 1.429 . S
C2867 C2863 1.429 . S
C2867 C2868 1.523 . S
C2868 C2852 1.368 . S
C2868 C2864 1.368 . S
C2868 C2867 1.523 . S
H2869 C2844 0.950 . S
H2870 C2846 0.950 . S
H2871 C2847 0.949 . S
H2872 C2849 0.950 . S
H2873 C2851 0.950 . S
C2874 C2875 1.349 . S
C2874 C2876 1.327 . S
C2874 H2899 0.950 . S
C2875 C2874 1.349 . S
C2875 C2891 1.349 . S
C2876 C2874 1.327 . S
C2876 C2895 1.429 . S
C2876 H2900 0.950 . S
C2877 C2894 1.574 . S
C2877 C2896 1.368 . S
C2877 H2901 0.949 . S
H2878 C2882 0.949 . S
C2879 C2880 1.349 . S
C2879 C2881 1.327 . S
C2879 H2902 0.950 . S
C2880 C2879 1.349 . S
C2880 C2892 1.349 . S
C2881 C2879 1.327 . S
C2881 C2897 1.429 . S
C2881 H2903 0.950 . S
C2882 H2878 0.949 . S
C2882 C2890 1.574 . S
C2882 C2898 1.368 . S
H2883 C2891 0.950 . S
H2884 C2889 0.950 . S
H2885 C2890 0.949 . S
H2886 C2892 0.950 . S
H2887 C2893 0.950 . S
H2888 C2894 0.949 . S
C2889 H2884 0.950 . S
C2889 C2891 1.327 . S
C2889 C2895 1.429 . S
C2890 C2882 1.574 . S
C2890 H2885 0.949 . S
C2890 C2896 1.368 . S
C2891 C2875 1.349 . S
C2891 H2883 0.950 . S
C2891 C2889 1.327 . S
C2892 C2880 1.349 . S
C2892 H2886 0.950 . S
C2892 C2893 1.327 . S
C2893 H2887 0.950 . S
C2893 C2892 1.327 . S
C2893 C2897 1.429 . S
C2894 C2877 1.574 . S
C2894 H2888 0.949 . S
C2894 C2898 1.368 . S
C2895 C2876 1.429 . S
C2895 C2889 1.429 . S
C2895 C2896 1.523 . S
C2896 C2877 1.368 . S
C2896 C2890 1.368 . S
C2896 C2895 1.523 . S
C2897 C2881 1.429 . S
C2897 C2893 1.429 . S
C2897 C2898 1.523 . S
C2898 C2882 1.368 . S
C2898 C2894 1.368 . S
C2898 C2897 1.523 . S
H2899 C2874 0.950 . S
H2900 C2876 0.950 . S
H2901 C2877 0.949 . S
H2902 C2879 0.950 . S
H2903 C2881 0.950 . S
C2904 C2905 1.349 . S
C2904 C2906 1.327 . S
C2904 H2929 0.950 . S
C2905 C2904 1.349 . S
C2905 C2921 1.349 . S
C2906 C2904 1.327 . S
C2906 C2925 1.429 . S
C2906 H2930 0.950 . S
C2907 C2924 1.574 . S
C2907 C2926 1.368 . S
C2907 H2931 0.949 . S
H2908 C2912 0.949 . S
C2909 C2910 1.349 . S
C2909 C2911 1.327 . S
C2909 H2932 0.950 . S
C2910 C2909 1.349 . S
C2910 C2922 1.349 . S
C2911 C2909 1.327 . S
C2911 C2927 1.429 . S
C2911 H2933 0.950 . S
C2912 H2908 0.949 . S
C2912 C2920 1.574 . S
C2912 C2928 1.368 . S
H2913 C2921 0.950 . S
H2914 C2919 0.950 . S
H2915 C2920 0.949 . S
H2916 C2922 0.950 . S
H2917 C2923 0.950 . S
H2918 C2924 0.949 . S
C2919 H2914 0.950 . S
C2919 C2921 1.327 . S
C2919 C2925 1.429 . S
C2920 C2912 1.574 . S
C2920 H2915 0.949 . S
C2920 C2926 1.368 . S
C2921 C2905 1.349 . S
C2921 H2913 0.950 . S
C2921 C2919 1.327 . S
C2922 C2910 1.349 . S
C2922 H2916 0.950 . S
C2922 C2923 1.327 . S
C2923 H2917 0.950 . S
C2923 C2922 1.327 . S
C2923 C2927 1.429 . S
C2924 C2907 1.574 . S
C2924 H2918 0.949 . S
C2924 C2928 1.368 . S
C2925 C2906 1.429 . S
C2925 C2919 1.429 . S
C2925 C2926 1.523 . S
C2926 C2907 1.368 . S
C2926 C2920 1.368 . S
C2926 C2925 1.523 . S
C2927 C2911 1.429 . S
C2927 C2923 1.429 . S
C2927 C2928 1.523 . S
C2928 C2912 1.368 . S
C2928 C2924 1.368 . S
C2928 C2927 1.523 . S
H2929 C2904 0.950 . S
H2930 C2906 0.950 . S
H2931 C2907 0.949 . S
H2932 C2909 0.950 . S
H2933 C2911 0.950 . S
C2934 C2935 1.349 . S
C2934 C2936 1.327 . S
C2934 H2959 0.950 . S
C2935 C2934 1.349 . S
C2935 C2951 1.349 . S
C2936 C2934 1.327 . S
C2936 C2955 1.429 . S
C2936 H2960 0.950 . S
C2937 C2954 1.574 . S
C2937 C2956 1.368 . S
C2937 H2961 0.949 . S
H2938 C2942 0.949 . S
C2939 C2940 1.349 . S
C2939 C2941 1.327 . S
C2939 H2962 0.950 . S
C2940 C2939 1.349 . S
C2940 C2952 1.349 . S
C2941 C2939 1.327 . S
C2941 C2957 1.429 . S
C2941 H2963 0.950 . S
C2942 H2938 0.949 . S
C2942 C2950 1.574 . S
C2942 C2958 1.368 . S
H2943 C2951 0.950 . S
H2944 C2949 0.950 . S
H2945 C2950 0.949 . S
H2946 C2952 0.950 . S
H2947 C2953 0.950 . S
H2948 C2954 0.949 . S
C2949 H2944 0.950 . S
C2949 C2951 1.327 . S
C2949 C2955 1.429 . S
C2950 C2942 1.574 . S
C2950 H2945 0.949 . S
C2950 C2956 1.368 . S
C2951 C2935 1.349 . S
C2951 H2943 0.950 . S
C2951 C2949 1.327 . S
C2952 C2940 1.349 . S
C2952 H2946 0.950 . S
C2952 C2953 1.327 . S
C2953 H2947 0.950 . S
C2953 C2952 1.327 . S
C2953 C2957 1.429 . S
C2954 C2937 1.574 . S
C2954 H2948 0.949 . S
C2954 C2958 1.368 . S
C2955 C2936 1.429 . S
C2955 C2949 1.429 . S
C2955 C2956 1.523 . S
C2956 C2937 1.368 . S
C2956 C2950 1.368 . S
C2956 C2955 1.523 . S
C2957 C2941 1.429 . S
C2957 C2953 1.429 . S
C2957 C2958 1.523 . S
C2958 C2942 1.368 . S
C2958 C2954 1.368 . S
C2958 C2957 1.523 . S
H2959 C2934 0.950 . S
H2960 C2936 0.950 . S
H2961 C2937 0.949 . S
H2962 C2939 0.950 . S
H2963 C2941 0.950 . S
C2964 C2965 1.349 . S
C2964 C2966 1.327 . S
C2964 H2989 0.950 . S
C2965 C2964 1.349 . S
C2965 C2981 1.349 . S
C2966 C2964 1.327 . S
C2966 C2985 1.429 . S
C2966 H2990 0.950 . S
C2967 C2984 1.574 . S
C2967 C2986 1.368 . S
C2967 H2991 0.949 . S
H2968 C2972 0.949 . S
C2969 C2970 1.349 . S
C2969 C2971 1.327 . S
C2969 H2992 0.950 . S
C2970 C2969 1.349 . S
C2970 C2982 1.349 . S
C2971 C2969 1.327 . S
C2971 C2987 1.429 . S
C2971 H2993 0.950 . S
C2972 H2968 0.949 . S
C2972 C2980 1.574 . S
C2972 C2988 1.368 . S
H2973 C2981 0.950 . S
H2974 C2979 0.950 . S
H2975 C2980 0.949 . S
H2976 C2982 0.950 . S
H2977 C2983 0.950 . S
H2978 C2984 0.949 . S
C2979 H2974 0.950 . S
C2979 C2981 1.327 . S
C2979 C2985 1.429 . S
C2980 C2972 1.574 . S
C2980 H2975 0.949 . S
C2980 C2986 1.368 . S
C2981 C2965 1.349 . S
C2981 H2973 0.950 . S
C2981 C2979 1.327 . S
C2982 C2970 1.349 . S
C2982 H2976 0.950 . S
C2982 C2983 1.327 . S
C2983 H2977 0.950 . S
C2983 C2982 1.327 . S
C2983 C2987 1.429 . S
C2984 C2967 1.574 . S
C2984 H2978 0.949 . S
C2984 C2988 1.368 . S
C2985 C2966 1.429 . S
C2985 C2979 1.429 . S
C2985 C2986 1.523 . S
C2986 C2967 1.368 . S
C2986 C2980 1.368 . S
C2986 C2985 1.523 . S
C2987 C2971 1.429 . S
C2987 C2983 1.429 . S
C2987 C2988 1.523 . S
C2988 C2972 1.368 . S
C2988 C2984 1.368 . S
C2988 C2987 1.523 . S
H2989 C2964 0.950 . S
H2990 C2966 0.950 . S
H2991 C2967 0.949 . S
H2992 C2969 0.950 . S
H2993 C2971 0.950 . S
C2994 C2995 1.349 . S
C2994 C2996 1.327 . S
C2994 H3019 0.950 . S
C2995 C2994 1.349 . S
C2995 C3011 1.349 . S
C2996 C2994 1.327 . S
C2996 C3015 1.429 . S
C2996 H3020 0.950 . S
C2997 C3014 1.574 . S
C2997 C3016 1.368 . S
C2997 H3021 0.949 . S
H2998 C3002 0.949 . S
C2999 C3000 1.349 . S
C2999 C3001 1.327 . S
C2999 H3022 0.950 . S
C3000 C2999 1.349 . S
C3000 C3012 1.349 . S
C3001 C2999 1.327 . S
C3001 C3017 1.429 . S
C3001 H3023 0.950 . S
C3002 H2998 0.949 . S
C3002 C3010 1.574 . S
C3002 C3018 1.368 . S
H3003 C3011 0.950 . S
H3004 C3009 0.950 . S
H3005 C3010 0.949 . S
H3006 C3012 0.950 . S
H3007 C3013 0.950 . S
H3008 C3014 0.949 . S
C3009 H3004 0.950 . S
C3009 C3011 1.327 . S
C3009 C3015 1.429 . S
C3010 C3002 1.574 . S
C3010 H3005 0.949 . S
C3010 C3016 1.368 . S
C3011 C2995 1.349 . S
C3011 H3003 0.950 . S
C3011 C3009 1.327 . S
C3012 C3000 1.349 . S
C3012 H3006 0.950 . S
C3012 C3013 1.327 . S
C3013 H3007 0.950 . S
C3013 C3012 1.327 . S
C3013 C3017 1.429 . S
C3014 C2997 1.574 . S
C3014 H3008 0.949 . S
C3014 C3018 1.368 . S
C3015 C2996 1.429 . S
C3015 C3009 1.429 . S
C3015 C3016 1.523 . S
C3016 C2997 1.368 . S
C3016 C3010 1.368 . S
C3016 C3015 1.523 . S
C3017 C3001 1.429 . S
C3017 C3013 1.429 . S
C3017 C3018 1.523 . S
C3018 C3002 1.368 . S
C3018 C3014 1.368 . S
C3018 C3017 1.523 . S
H3019 C2994 0.950 . S
H3020 C2996 0.950 . S
H3021 C2997 0.949 . S
H3022 C2999 0.950 . S
H3023 C3001 0.950 . S
C3024 C3025 1.349 . S
C3024 C3026 1.327 . S
C3024 H3049 0.950 . S
C3025 C3024 1.349 . S
C3025 C3041 1.349 . S
C3026 C3024 1.327 . S
C3026 C3045 1.429 . S
C3026 H3050 0.950 . S
C3027 C3044 1.574 . S
C3027 C3046 1.368 . S
C3027 H3051 0.949 . S
H3028 C3032 0.949 . S
C3029 C3030 1.349 . S
C3029 C3031 1.327 . S
C3029 H3052 0.950 . S
C3030 C3029 1.349 . S
C3030 C3042 1.349 . S
C3031 C3029 1.327 . S
C3031 C3047 1.429 . S
C3031 H3053 0.950 . S
C3032 H3028 0.949 . S
C3032 C3040 1.574 . S
C3032 C3048 1.368 . S
H3033 C3041 0.950 . S
H3034 C3039 0.950 . S
H3035 C3040 0.949 . S
H3036 C3042 0.950 . S
H3037 C3043 0.950 . S
H3038 C3044 0.949 . S
C3039 H3034 0.950 . S
C3039 C3041 1.327 . S
C3039 C3045 1.429 . S
C3040 C3032 1.574 . S
C3040 H3035 0.949 . S
C3040 C3046 1.368 . S
C3041 C3025 1.349 . S
C3041 H3033 0.950 . S
C3041 C3039 1.327 . S
C3042 C3030 1.349 . S
C3042 H3036 0.950 . S
C3042 C3043 1.327 . S
C3043 H3037 0.950 . S
C3043 C3042 1.327 . S
C3043 C3047 1.429 . S
C3044 C3027 1.574 . S
C3044 H3038 0.949 . S
C3044 C3048 1.368 . S
C3045 C3026 1.429 . S
C3045 C3039 1.429 . S
C3045 C3046 1.523 . S
C3046 C3027 1.368 . S
C3046 C3040 1.368 . S
C3046 C3045 1.523 . S
C3047 C3031 1.429 . S
C3047 C3043 1.429 . S
C3047 C3048 1.523 . S
C3048 C3032 1.368 . S
C3048 C3044 1.368 . S
C3048 C3047 1.523 . S
H3049 C3024 0.950 . S
H3050 C3026 0.950 . S
H3051 C3027 0.949 . S
H3052 C3029 0.950 . S
H3053 C3031 0.950 . S
C3054 C3055 1.349 . S
C3054 C3056 1.327 . S
C3054 H3079 0.950 . S
C3055 C3054 1.349 . S
C3055 C3071 1.349 . S
C3056 C3054 1.327 . S
C3056 C3075 1.429 . S
C3056 H3080 0.950 . S
C3057 C3074 1.574 . S
C3057 C3076 1.368 . S
C3057 H3081 0.949 . S
H3058 C3062 0.949 . S
C3059 C3060 1.349 . S
C3059 C3061 1.327 . S
C3059 H3082 0.950 . S
C3060 C3059 1.349 . S
C3060 C3072 1.349 . S
C3061 C3059 1.327 . S
C3061 C3077 1.429 . S
C3061 H3083 0.950 . S
C3062 H3058 0.949 . S
C3062 C3070 1.574 . S
C3062 C3078 1.368 . S
H3063 C3071 0.950 . S
H3064 C3069 0.950 . S
H3065 C3070 0.949 . S
H3066 C3072 0.950 . S
H3067 C3073 0.950 . S
H3068 C3074 0.949 . S
C3069 H3064 0.950 . S
C3069 C3071 1.327 . S
C3069 C3075 1.429 . S
C3070 C3062 1.574 . S
C3070 H3065 0.949 . S
C3070 C3076 1.368 . S
C3071 C3055 1.349 . S
C3071 H3063 0.950 . S
C3071 C3069 1.327 . S
C3072 C3060 1.349 . S
C3072 H3066 0.950 . S
C3072 C3073 1.327 . S
C3073 H3067 0.950 . S
C3073 C3072 1.327 . S
C3073 C3077 1.429 . S
C3074 C3057 1.574 . S
C3074 H3068 0.949 . S
C3074 C3078 1.368 . S
C3075 C3056 1.429 . S
C3075 C3069 1.429 . S
C3075 C3076 1.523 . S
C3076 C3057 1.368 . S
C3076 C3070 1.368 . S
C3076 C3075 1.523 . S
C3077 C3061 1.429 . S
C3077 C3073 1.429 . S
C3077 C3078 1.523 . S
C3078 C3062 1.368 . S
C3078 C3074 1.368 . S
C3078 C3077 1.523 . S
H3079 C3054 0.950 . S
H3080 C3056 0.950 . S
H3081 C3057 0.949 . S
H3082 C3059 0.950 . S
H3083 C3061 0.950 . S
C3084 C3085 1.349 . S
C3084 C3086 1.327 . S
C3084 H3109 0.950 . S
C3085 C3084 1.349 . S
C3085 C3101 1.349 . S
C3086 C3084 1.327 . S
C3086 C3105 1.429 . S
C3086 H3110 0.950 . S
C3087 C3104 1.574 . S
C3087 C3106 1.368 . S
C3087 H3111 0.949 . S
H3088 C3092 0.949 . S
C3089 C3090 1.349 . S
C3089 C3091 1.327 . S
C3089 H3112 0.950 . S
C3090 C3089 1.349 . S
C3090 C3102 1.349 . S
C3091 C3089 1.327 . S
C3091 C3107 1.429 . S
C3091 H3113 0.950 . S
C3092 H3088 0.949 . S
C3092 C3100 1.574 . S
C3092 C3108 1.368 . S
H3093 C3101 0.950 . S
H3094 C3099 0.950 . S
H3095 C3100 0.949 . S
H3096 C3102 0.950 . S
H3097 C3103 0.950 . S
H3098 C3104 0.949 . S
C3099 H3094 0.950 . S
C3099 C3101 1.327 . S
C3099 C3105 1.429 . S
C3100 C3092 1.574 . S
C3100 H3095 0.949 . S
C3100 C3106 1.368 . S
C3101 C3085 1.349 . S
C3101 H3093 0.950 . S
C3101 C3099 1.327 . S
C3102 C3090 1.349 . S
C3102 H3096 0.950 . S
C3102 C3103 1.327 . S
C3103 H3097 0.950 . S
C3103 C3102 1.327 . S
C3103 C3107 1.429 . S
C3104 C3087 1.574 . S
C3104 H3098 0.949 . S
C3104 C3108 1.368 . S
C3105 C3086 1.429 . S
C3105 C3099 1.429 . S
C3105 C3106 1.523 . S
C3106 C3087 1.368 . S
C3106 C3100 1.368 . S
C3106 C3105 1.523 . S
C3107 C3091 1.429 . S
C3107 C3103 1.429 . S
C3107 C3108 1.523 . S
C3108 C3092 1.368 . S
C3108 C3104 1.368 . S
C3108 C3107 1.523 . S
H3109 C3084 0.950 . S
H3110 C3086 0.950 . S
H3111 C3087 0.949 . S
H3112 C3089 0.950 . S
H3113 C3091 0.950 . S
C3114 C3115 1.349 . S
C3114 C3116 1.327 . S
C3114 H3139 0.950 . S
C3115 C3114 1.349 . S
C3115 C3131 1.349 . S
C3116 C3114 1.327 . S
C3116 C3135 1.429 . S
C3116 H3140 0.950 . S
C3117 C3134 1.574 . S
C3117 C3136 1.368 . S
C3117 H3141 0.949 . S
H3118 C3122 0.949 . S
C3119 C3120 1.349 . S
C3119 C3121 1.327 . S
C3119 H3142 0.950 . S
C3120 C3119 1.349 . S
C3120 C3132 1.349 . S
C3121 C3119 1.327 . S
C3121 C3137 1.429 . S
C3121 H3143 0.950 . S
C3122 H3118 0.949 . S
C3122 C3130 1.574 . S
C3122 C3138 1.368 . S
H3123 C3131 0.950 . S
H3124 C3129 0.950 . S
H3125 C3130 0.949 . S
H3126 C3132 0.950 . S
H3127 C3133 0.950 . S
H3128 C3134 0.949 . S
C3129 H3124 0.950 . S
C3129 C3131 1.327 . S
C3129 C3135 1.429 . S
C3130 C3122 1.574 . S
C3130 H3125 0.949 . S
C3130 C3136 1.368 . S
C3131 C3115 1.349 . S
C3131 H3123 0.950 . S
C3131 C3129 1.327 . S
C3132 C3120 1.349 . S
C3132 H3126 0.950 . S
C3132 C3133 1.327 . S
C3133 H3127 0.950 . S
C3133 C3132 1.327 . S
C3133 C3137 1.429 . S
C3134 C3117 1.574 . S
C3134 H3128 0.949 . S
C3134 C3138 1.368 . S
C3135 C3116 1.429 . S
C3135 C3129 1.429 . S
C3135 C3136 1.523 . S
C3136 C3117 1.368 . S
C3136 C3130 1.368 . S
C3136 C3135 1.523 . S
C3137 C3121 1.429 . S
C3137 C3133 1.429 . S
C3137 C3138 1.523 . S
C3138 C3122 1.368 . S
C3138 C3134 1.368 . S
C3138 C3137 1.523 . S
H3139 C3114 0.950 . S
H3140 C3116 0.950 . S
H3141 C3117 0.949 . S
H3142 C3119 0.950 . S
H3143 C3121 0.950 . S
C3144 C3145 1.349 . S
C3144 C3146 1.327 . S
C3144 H3169 0.950 . S
C3145 C3144 1.349 . S
C3145 C3161 1.349 . S
C3146 C3144 1.327 . S
C3146 C3165 1.429 . S
C3146 H3170 0.950 . S
C3147 C3164 1.574 . S
C3147 C3166 1.368 . S
C3147 H3171 0.949 . S
H3148 C3152 0.949 . S
C3149 C3150 1.349 . S
C3149 C3151 1.327 . S
C3149 H3172 0.950 . S
C3150 C3149 1.349 . S
C3150 C3162 1.349 . S
C3151 C3149 1.327 . S
C3151 C3167 1.429 . S
C3151 H3173 0.950 . S
C3152 H3148 0.949 . S
C3152 C3160 1.574 . S
C3152 C3168 1.368 . S
H3153 C3161 0.950 . S
H3154 C3159 0.950 . S
H3155 C3160 0.949 . S
H3156 C3162 0.950 . S
H3157 C3163 0.950 . S
H3158 C3164 0.949 . S
C3159 H3154 0.950 . S
C3159 C3161 1.327 . S
C3159 C3165 1.429 . S
C3160 C3152 1.574 . S
C3160 H3155 0.949 . S
C3160 C3166 1.368 . S
C3161 C3145 1.349 . S
C3161 H3153 0.950 . S
C3161 C3159 1.327 . S
C3162 C3150 1.349 . S
C3162 H3156 0.950 . S
C3162 C3163 1.327 . S
C3163 H3157 0.950 . S
C3163 C3162 1.327 . S
C3163 C3167 1.429 . S
C3164 C3147 1.574 . S
C3164 H3158 0.949 . S
C3164 C3168 1.368 . S
C3165 C3146 1.429 . S
C3165 C3159 1.429 . S
C3165 C3166 1.523 . S
C3166 C3147 1.368 . S
C3166 C3160 1.368 . S
C3166 C3165 1.523 . S
C3167 C3151 1.429 . S
C3167 C3163 1.429 . S
C3167 C3168 1.523 . S
C3168 C3152 1.368 . S
C3168 C3164 1.368 . S
C3168 C3167 1.523 . S
H3169 C3144 0.950 . S
H3170 C3146 0.950 . S
H3171 C3147 0.949 . S
H3172 C3149 0.950 . S
H3173 C3151 0.950 . S
C3174 C3175 1.349 . S
C3174 C3176 1.327 . S
C3174 H3199 0.950 . S
C3175 C3174 1.349 . S
C3175 C3191 1.349 . S
C3176 C3174 1.327 . S
C3176 C3195 1.429 . S
C3176 H3200 0.950 . S
C3177 C3194 1.574 . S
C3177 C3196 1.368 . S
C3177 H3201 0.949 . S
H3178 C3182 0.949 . S
C3179 C3180 1.349 . S
C3179 C3181 1.327 . S
C3179 H3202 0.950 . S
C3180 C3179 1.349 . S
C3180 C3192 1.349 . S
C3181 C3179 1.327 . S
C3181 C3197 1.429 . S
C3181 H3203 0.950 . S
C3182 H3178 0.949 . S
C3182 C3190 1.574 . S
C3182 C3198 1.368 . S
H3183 C3191 0.950 . S
H3184 C3189 0.950 . S
H3185 C3190 0.949 . S
H3186 C3192 0.950 . S
H3187 C3193 0.950 . S
H3188 C3194 0.949 . S
C3189 H3184 0.950 . S
C3189 C3191 1.327 . S
C3189 C3195 1.429 . S
C3190 C3182 1.574 . S
C3190 H3185 0.949 . S
C3190 C3196 1.368 . S
C3191 C3175 1.349 . S
C3191 H3183 0.950 . S
C3191 C3189 1.327 . S
C3192 C3180 1.349 . S
C3192 H3186 0.950 . S
C3192 C3193 1.327 . S
C3193 H3187 0.950 . S
C3193 C3192 1.327 . S
C3193 C3197 1.429 . S
C3194 C3177 1.574 . S
C3194 H3188 0.949 . S
C3194 C3198 1.368 . S
C3195 C3176 1.429 . S
C3195 C3189 1.429 . S
C3195 C3196 1.523 . S
C3196 C3177 1.368 . S
C3196 C3190 1.368 . S
C3196 C3195 1.523 . S
C3197 C3181 1.429 . S
C3197 C3193 1.429 . S
C3197 C3198 1.523 . S
C3198 C3182 1.368 . S
C3198 C3194 1.368 . S
C3198 C3197 1.523 . S
H3199 C3174 0.950 . S
H3200 C3176 0.950 . S
H3201 C3177 0.949 . S
H3202 C3179 0.950 . S
H3203 C3181 0.950 . S
C3204 C3205 1.349 . S
C3204 C3206 1.327 . S
C3204 H3229 0.950 . S
C3205 C3204 1.349 . S
C3205 C3221 1.349 . S
C3206 C3204 1.327 . S
C3206 C3225 1.429 . S
C3206 H3230 0.950 . S
C3207 C3224 1.574 . S
C3207 C3226 1.368 . S
C3207 H3231 0.949 . S
H3208 C3212 0.949 . S
C3209 C3210 1.349 . S
C3209 C3211 1.327 . S
C3209 H3232 0.950 . S
C3210 C3209 1.349 . S
C3210 C3222 1.349 . S
C3211 C3209 1.327 . S
C3211 C3227 1.429 . S
C3211 H3233 0.950 . S
C3212 H3208 0.949 . S
C3212 C3220 1.574 . S
C3212 C3228 1.368 . S
H3213 C3221 0.950 . S
H3214 C3219 0.950 . S
H3215 C3220 0.949 . S
H3216 C3222 0.950 . S
H3217 C3223 0.950 . S
H3218 C3224 0.949 . S
C3219 H3214 0.950 . S
C3219 C3221 1.327 . S
C3219 C3225 1.429 . S
C3220 C3212 1.574 . S
C3220 H3215 0.949 . S
C3220 C3226 1.368 . S
C3221 C3205 1.349 . S
C3221 H3213 0.950 . S
C3221 C3219 1.327 . S
C3222 C3210 1.349 . S
C3222 H3216 0.950 . S
C3222 C3223 1.327 . S
C3223 H3217 0.950 . S
C3223 C3222 1.327 . S
C3223 C3227 1.429 . S
C3224 C3207 1.574 . S
C3224 H3218 0.949 . S
C3224 C3228 1.368 . S
C3225 C3206 1.429 . S
C3225 C3219 1.429 . S
C3225 C3226 1.523 . S
C3226 C3207 1.368 . S
C3226 C3220 1.368 . S
C3226 C3225 1.523 . S
C3227 C3211 1.429 . S
C3227 C3223 1.429 . S
C3227 C3228 1.523 . S
C3228 C3212 1.368 . S
C3228 C3224 1.368 . S
C3228 C3227 1.523 . S
H3229 C3204 0.950 . S
H3230 C3206 0.950 . S
H3231 C3207 0.949 . S
H3232 C3209 0.950 . S
H3233 C3211 0.950 . S
C3234 C3235 1.349 . S
C3234 C3236 1.327 . S
C3234 H3259 0.950 . S
C3235 C3234 1.349 . S
C3235 C3251 1.349 . S
C3236 C3234 1.327 . S
C3236 C3255 1.429 . S
C3236 H3260 0.950 . S
C3237 C3254 1.574 . S
C3237 C3256 1.368 . S
C3237 H3261 0.949 . S
H3238 C3242 0.949 . S
C3239 C3240 1.349 . S
C3239 C3241 1.327 . S
C3239 H3262 0.950 . S
C3240 C3239 1.349 . S
C3240 C3252 1.349 . S
C3241 C3239 1.327 . S
C3241 C3257 1.429 . S
C3241 H3263 0.950 . S
C3242 H3238 0.949 . S
C3242 C3250 1.574 . S
C3242 C3258 1.368 . S
H3243 C3251 0.950 . S
H3244 C3249 0.950 . S
H3245 C3250 0.949 . S
H3246 C3252 0.950 . S
H3247 C3253 0.950 . S
H3248 C3254 0.949 . S
C3249 H3244 0.950 . S
C3249 C3251 1.327 . S
C3249 C3255 1.429 . S
C3250 C3242 1.574 . S
C3250 H3245 0.949 . S
C3250 C3256 1.368 . S
C3251 C3235 1.349 . S
C3251 H3243 0.950 . S
C3251 C3249 1.327 . S
C3252 C3240 1.349 . S
C3252 H3246 0.950 . S
C3252 C3253 1.327 . S
C3253 H3247 0.950 . S
C3253 C3252 1.327 . S
C3253 C3257 1.429 . S
C3254 C3237 1.574 . S
C3254 H3248 0.949 . S
C3254 C3258 1.368 . S
C3255 C3236 1.429 . S
C3255 C3249 1.429 . S
C3255 C3256 1.523 . S
C3256 C3237 1.368 . S
C3256 C3250 1.368 . S
C3256 C3255 1.523 . S
C3257 C3241 1.429 . S
C3257 C3253 1.429 . S
C3257 C3258 1.523 . S
C3258 C3242 1.368 . S
C3258 C3254 1.368 . S
C3258 C3257 1.523 . S
H3259 C3234 0.950 . S
H3260 C3236 0.950 . S
H3261 C3237 0.949 . S
H3262 C3239 0.950 . S
H3263 C3241 0.950 . S
C3264 C3265 1.349 . S
C3264 C3266 1.327 . S
C3264 H3289 0.950 . S
C3265 C3264 1.349 . S
C3265 C3281 1.349 . S
C3266 C3264 1.327 . S
C3266 C3285 1.429 . S
C3266 H3290 0.950 . S
C3267 C3284 1.574 . S
C3267 C3286 1.368 . S
C3267 H3291 0.949 . S
H3268 C3272 0.949 . S
C3269 C3270 1.349 . S
C3269 C3271 1.327 . S
C3269 H3292 0.950 . S
C3270 C3269 1.349 . S
C3270 C3282 1.349 . S
C3271 C3269 1.327 . S
C3271 C3287 1.429 . S
C3271 H3293 0.950 . S
C3272 H3268 0.949 . S
C3272 C3280 1.574 . S
C3272 C3288 1.368 . S
H3273 C3281 0.950 . S
H3274 C3279 0.950 . S
H3275 C3280 0.949 . S
H3276 C3282 0.950 . S
H3277 C3283 0.950 . S
H3278 C3284 0.949 . S
C3279 H3274 0.950 . S
C3279 C3281 1.327 . S
C3279 C3285 1.429 . S
C3280 C3272 1.574 . S
C3280 H3275 0.949 . S
C3280 C3286 1.368 . S
C3281 C3265 1.349 . S
C3281 H3273 0.950 . S
C3281 C3279 1.327 . S
C3282 C3270 1.349 . S
C3282 H3276 0.950 . S
C3282 C3283 1.327 . S
C3283 H3277 0.950 . S
C3283 C3282 1.327 . S
C3283 C3287 1.429 . S
C3284 C3267 1.574 . S
C3284 H3278 0.949 . S
C3284 C3288 1.368 . S
C3285 C3266 1.429 . S
C3285 C3279 1.429 . S
C3285 C3286 1.523 . S
C3286 C3267 1.368 . S
C3286 C3280 1.368 . S
C3286 C3285 1.523 . S
C3287 C3271 1.429 . S
C3287 C3283 1.429 . S
C3287 C3288 1.523 . S
C3288 C3272 1.368 . S
C3288 C3284 1.368 . S
C3288 C3287 1.523 . S
H3289 C3264 0.950 . S
H3290 C3266 0.950 . S
H3291 C3267 0.949 . S
H3292 C3269 0.950 . S
H3293 C3271 0.950 . S
C3294 C3295 1.349 . S
C3294 C3296 1.327 . S
C3294 H3319 0.950 . S
C3295 C3294 1.349 . S
C3295 C3311 1.349 . S
C3296 C3294 1.327 . S
C3296 C3315 1.429 . S
C3296 H3320 0.950 . S
C3297 C3314 1.574 . S
C3297 C3316 1.368 . S
C3297 H3321 0.949 . S
H3298 C3302 0.949 . S
C3299 C3300 1.349 . S
C3299 C3301 1.327 . S
C3299 H3322 0.950 . S
C3300 C3299 1.349 . S
C3300 C3312 1.349 . S
C3301 C3299 1.327 . S
C3301 C3317 1.429 . S
C3301 H3323 0.950 . S
C3302 H3298 0.949 . S
C3302 C3310 1.574 . S
C3302 C3318 1.368 . S
H3303 C3311 0.950 . S
H3304 C3309 0.950 . S
H3305 C3310 0.949 . S
H3306 C3312 0.950 . S
H3307 C3313 0.950 . S
H3308 C3314 0.949 . S
C3309 H3304 0.950 . S
C3309 C3311 1.327 . S
C3309 C3315 1.429 . S
C3310 C3302 1.574 . S
C3310 H3305 0.949 . S
C3310 C3316 1.368 . S
C3311 C3295 1.349 . S
C3311 H3303 0.950 . S
C3311 C3309 1.327 . S
C3312 C3300 1.349 . S
C3312 H3306 0.950 . S
C3312 C3313 1.327 . S
C3313 H3307 0.950 . S
C3313 C3312 1.327 . S
C3313 C3317 1.429 . S
C3314 C3297 1.574 . S
C3314 H3308 0.949 . S
C3314 C3318 1.368 . S
C3315 C3296 1.429 . S
C3315 C3309 1.429 . S
C3315 C3316 1.523 . S
C3316 C3297 1.368 . S
C3316 C3310 1.368 . S
C3316 C3315 1.523 . S
C3317 C3301 1.429 . S
C3317 C3313 1.429 . S
C3317 C3318 1.523 . S
C3318 C3302 1.368 . S
C3318 C3314 1.368 . S
C3318 C3317 1.523 . S
H3319 C3294 0.950 . S
H3320 C3296 0.950 . S
H3321 C3297 0.949 . S
H3322 C3299 0.950 . S
H3323 C3301 0.950 . S
C3324 C3325 1.349 . S
C3324 C3326 1.327 . S
C3324 H3349 0.950 . S
C3325 C3324 1.349 . S
C3325 C3341 1.349 . S
C3326 C3324 1.327 . S
C3326 C3345 1.429 . S
C3326 H3350 0.950 . S
C3327 C3344 1.574 . S
C3327 C3346 1.368 . S
C3327 H3351 0.949 . S
H3328 C3332 0.949 . S
C3329 C3330 1.349 . S
C3329 C3331 1.327 . S
C3329 H3352 0.950 . S
C3330 C3329 1.349 . S
C3330 C3342 1.349 . S
C3331 C3329 1.327 . S
C3331 C3347 1.429 . S
C3331 H3353 0.950 . S
C3332 H3328 0.949 . S
C3332 C3340 1.574 . S
C3332 C3348 1.368 . S
H3333 C3341 0.950 . S
H3334 C3339 0.950 . S
H3335 C3340 0.949 . S
H3336 C3342 0.950 . S
H3337 C3343 0.950 . S
H3338 C3344 0.949 . S
C3339 H3334 0.950 . S
C3339 C3341 1.327 . S
C3339 C3345 1.429 . S
C3340 C3332 1.574 . S
C3340 H3335 0.949 . S
C3340 C3346 1.368 . S
C3341 C3325 1.349 . S
C3341 H3333 0.950 . S
C3341 C3339 1.327 . S
C3342 C3330 1.349 . S
C3342 H3336 0.950 . S
C3342 C3343 1.327 . S
C3343 H3337 0.950 . S
C3343 C3342 1.327 . S
C3343 C3347 1.429 . S
C3344 C3327 1.574 . S
C3344 H3338 0.949 . S
C3344 C3348 1.368 . S
C3345 C3326 1.429 . S
C3345 C3339 1.429 . S
C3345 C3346 1.523 . S
C3346 C3327 1.368 . S
C3346 C3340 1.368 . S
C3346 C3345 1.523 . S
C3347 C3331 1.429 . S
C3347 C3343 1.429 . S
C3347 C3348 1.523 . S
C3348 C3332 1.368 . S
C3348 C3344 1.368 . S
C3348 C3347 1.523 . S
H3349 C3324 0.950 . S
H3350 C3326 0.950 . S
H3351 C3327 0.949 . S
H3352 C3329 0.950 . S
H3353 C3331 0.950 . S
C3354 C3355 1.349 . S
C3354 C3356 1.327 . S
C3354 H3379 0.950 . S
C3355 C3354 1.349 . S
C3355 C3371 1.349 . S
C3356 C3354 1.327 . S
C3356 C3375 1.429 . S
C3356 H3380 0.950 . S
C3357 C3374 1.574 . S
C3357 C3376 1.368 . S
C3357 H3381 0.949 . S
H3358 C3362 0.949 . S
C3359 C3360 1.349 . S
C3359 C3361 1.327 . S
C3359 H3382 0.950 . S
C3360 C3359 1.349 . S
C3360 C3372 1.349 . S
C3361 C3359 1.327 . S
C3361 C3377 1.429 . S
C3361 H3383 0.950 . S
C3362 H3358 0.949 . S
C3362 C3370 1.574 . S
C3362 C3378 1.368 . S
H3363 C3371 0.950 . S
H3364 C3369 0.950 . S
H3365 C3370 0.949 . S
H3366 C3372 0.950 . S
H3367 C3373 0.950 . S
H3368 C3374 0.949 . S
C3369 H3364 0.950 . S
C3369 C3371 1.327 . S
C3369 C3375 1.429 . S
C3370 C3362 1.574 . S
C3370 H3365 0.949 . S
C3370 C3376 1.368 . S
C3371 C3355 1.349 . S
C3371 H3363 0.950 . S
C3371 C3369 1.327 . S
C3372 C3360 1.349 . S
C3372 H3366 0.950 . S
C3372 C3373 1.327 . S
C3373 H3367 0.950 . S
C3373 C3372 1.327 . S
C3373 C3377 1.429 . S
C3374 C3357 1.574 . S
C3374 H3368 0.949 . S
C3374 C3378 1.368 . S
C3375 C3356 1.429 . S
C3375 C3369 1.429 . S
C3375 C3376 1.523 . S
C3376 C3357 1.368 . S
C3376 C3370 1.368 . S
C3376 C3375 1.523 . S
C3377 C3361 1.429 . S
C3377 C3373 1.429 . S
C3377 C3378 1.523 . S
C3378 C3362 1.368 . S
C3378 C3374 1.368 . S
C3378 C3377 1.523 . S
H3379 C3354 0.950 . S
H3380 C3356 0.950 . S
H3381 C3357 0.949 . S
H3382 C3359 0.950 . S
H3383 C3361 0.950 . S
C3384 C3385 1.349 . S
C3384 C3386 1.327 . S
C3384 H3409 0.950 . S
C3385 C3384 1.349 . S
C3385 C3401 1.349 . S
C3386 C3384 1.327 . S
C3386 C3405 1.429 . S
C3386 H3410 0.950 . S
C3387 C3404 1.574 . S
C3387 C3406 1.368 . S
C3387 H3411 0.949 . S
H3388 C3392 0.949 . S
C3389 C3390 1.349 . S
C3389 C3391 1.327 . S
C3389 H3412 0.950 . S
C3390 C3389 1.349 . S
C3390 C3402 1.349 . S
C3391 C3389 1.327 . S
C3391 C3407 1.429 . S
C3391 H3413 0.950 . S
C3392 H3388 0.949 . S
C3392 C3400 1.574 . S
C3392 C3408 1.368 . S
H3393 C3401 0.950 . S
H3394 C3399 0.950 . S
H3395 C3400 0.949 . S
H3396 C3402 0.950 . S
H3397 C3403 0.950 . S
H3398 C3404 0.949 . S
C3399 H3394 0.950 . S
C3399 C3401 1.327 . S
C3399 C3405 1.429 . S
C3400 C3392 1.574 . S
C3400 H3395 0.949 . S
C3400 C3406 1.368 . S
C3401 C3385 1.349 . S
C3401 H3393 0.950 . S
C3401 C3399 1.327 . S
C3402 C3390 1.349 . S
C3402 H3396 0.950 . S
C3402 C3403 1.327 . S
C3403 H3397 0.950 . S
C3403 C3402 1.327 . S
C3403 C3407 1.429 . S
C3404 C3387 1.574 . S
C3404 H3398 0.949 . S
C3404 C3408 1.368 . S
C3405 C3386 1.429 . S
C3405 C3399 1.429 . S
C3405 C3406 1.523 . S
C3406 C3387 1.368 . S
C3406 C3400 1.368 . S
C3406 C3405 1.523 . S
C3407 C3391 1.429 . S
C3407 C3403 1.429 . S
C3407 C3408 1.523 . S
C3408 C3392 1.368 . S
C3408 C3404 1.368 . S
C3408 C3407 1.523 . S
H3409 C3384 0.950 . S
H3410 C3386 0.950 . S
H3411 C3387 0.949 . S
H3412 C3389 0.950 . S
H3413 C3391 0.950 . S
C3414 C3415 1.349 . S
C3414 C3416 1.327 . S
C3414 H3439 0.950 . S
C3415 C3414 1.349 . S
C3415 C3431 1.349 . S
C3416 C3414 1.327 . S
C3416 C3435 1.429 . S
C3416 H3440 0.950 . S
C3417 C3434 1.574 . S
C3417 C3436 1.368 . S
C3417 H3441 0.949 . S
H3418 C3422 0.949 . S
C3419 C3420 1.349 . S
C3419 C3421 1.327 . S
C3419 H3442 0.950 . S
C3420 C3419 1.349 . S
C3420 C3432 1.349 . S
C3421 C3419 1.327 . S
C3421 C3437 1.429 . S
C3421 H3443 0.950 . S
C3422 H3418 0.949 . S
C3422 C3430 1.574 . S
C3422 C3438 1.368 . S
H3423 C3431 0.950 . S
H3424 C3429 0.950 . S
H3425 C3430 0.949 . S
H3426 C3432 0.950 . S
H3427 C3433 0.950 . S
H3428 C3434 0.949 . S
C3429 H3424 0.950 . S
C3429 C3431 1.327 . S
C3429 C3435 1.429 . S
C3430 C3422 1.574 . S
C3430 H3425 0.949 . S
C3430 C3436 1.368 . S
C3431 C3415 1.349 . S
C3431 H3423 0.950 . S
C3431 C3429 1.327 . S
C3432 C3420 1.349 . S
C3432 H3426 0.950 . S
C3432 C3433 1.327 . S
C3433 H3427 0.950 . S
C3433 C3432 1.327 . S
C3433 C3437 1.429 . S
C3434 C3417 1.574 . S
C3434 H3428 0.949 . S
C3434 C3438 1.368 . S
C3435 C3416 1.429 . S
C3435 C3429 1.429 . S
C3435 C3436 1.523 . S
C3436 C3417 1.368 . S
C3436 C3430 1.368 . S
C3436 C3435 1.523 . S
C3437 C3421 1.429 . S
C3437 C3433 1.429 . S
C3437 C3438 1.523 . S
C3438 C3422 1.368 . S
C3438 C3434 1.368 . S
C3438 C3437 1.523 . S
H3439 C3414 0.950 . S
H3440 C3416 0.950 . S
H3441 C3417 0.949 . S
H3442 C3419 0.950 . S
H3443 C3421 0.950 . S
C3444 C3445 1.349 . S
C3444 C3446 1.327 . S
C3444 H3469 0.950 . S
C3445 C3444 1.349 . S
C3445 C3461 1.349 . S
C3446 C3444 1.327 . S
C3446 C3465 1.429 . S
C3446 H3470 0.950 . S
C3447 C3464 1.574 . S
C3447 C3466 1.368 . S
C3447 H3471 0.949 . S
H3448 C3452 0.949 . S
C3449 C3450 1.349 . S
C3449 C3451 1.327 . S
C3449 H3472 0.950 . S
C3450 C3449 1.349 . S
C3450 C3462 1.349 . S
C3451 C3449 1.327 . S
C3451 C3467 1.429 . S
C3451 H3473 0.950 . S
C3452 H3448 0.949 . S
C3452 C3460 1.574 . S
C3452 C3468 1.368 . S
H3453 C3461 0.950 . S
H3454 C3459 0.950 . S
H3455 C3460 0.949 . S
H3456 C3462 0.950 . S
H3457 C3463 0.950 . S
H3458 C3464 0.949 . S
C3459 H3454 0.950 . S
C3459 C3461 1.327 . S
C3459 C3465 1.429 . S
C3460 C3452 1.574 . S
C3460 H3455 0.949 . S
C3460 C3466 1.368 . S
C3461 C3445 1.349 . S
C3461 H3453 0.950 . S
C3461 C3459 1.327 . S
C3462 C3450 1.349 . S
C3462 H3456 0.950 . S
C3462 C3463 1.327 . S
C3463 H3457 0.950 . S
C3463 C3462 1.327 . S
C3463 C3467 1.429 . S
C3464 C3447 1.574 . S
C3464 H3458 0.949 . S
C3464 C3468 1.368 . S
C3465 C3446 1.429 . S
C3465 C3459 1.429 . S
C3465 C3466 1.523 . S
C3466 C3447 1.368 . S
C3466 C3460 1.368 . S
C3466 C3465 1.523 . S
C3467 C3451 1.429 . S
C3467 C3463 1.429 . S
C3467 C3468 1.523 . S
C3468 C3452 1.368 . S
C3468 C3464 1.368 . S
C3468 C3467 1.523 . S
H3469 C3444 0.950 . S
H3470 C3446 0.950 . S
H3471 C3447 0.949 . S
H3472 C3449 0.950 . S
H3473 C3451 0.950 . S
C3474 C3475 1.349 . S
C3474 C3476 1.327 . S
C3474 H3499 0.950 . S
C3475 C3474 1.349 . S
C3475 C3491 1.349 . S
C3476 C3474 1.327 . S
C3476 C3495 1.429 . S
C3476 H3500 0.950 . S
C3477 C3494 1.574 . S
C3477 C3496 1.368 . S
C3477 H3501 0.949 . S
H3478 C3482 0.949 . S
C3479 C3480 1.349 . S
C3479 C3481 1.327 . S
C3479 H3502 0.950 . S
C3480 C3479 1.349 . S
C3480 C3492 1.349 . S
C3481 C3479 1.327 . S
C3481 C3497 1.429 . S
C3481 H3503 0.950 . S
C3482 H3478 0.949 . S
C3482 C3490 1.574 . S
C3482 C3498 1.368 . S
H3483 C3491 0.950 . S
H3484 C3489 0.950 . S
H3485 C3490 0.949 . S
H3486 C3492 0.950 . S
H3487 C3493 0.950 . S
H3488 C3494 0.949 . S
C3489 H3484 0.950 . S
C3489 C3491 1.327 . S
C3489 C3495 1.429 . S
C3490 C3482 1.574 . S
C3490 H3485 0.949 . S
C3490 C3496 1.368 . S
C3491 C3475 1.349 . S
C3491 H3483 0.950 . S
C3491 C3489 1.327 . S
C3492 C3480 1.349 . S
C3492 H3486 0.950 . S
C3492 C3493 1.327 . S
C3493 H3487 0.950 . S
C3493 C3492 1.327 . S
C3493 C3497 1.429 . S
C3494 C3477 1.574 . S
C3494 H3488 0.949 . S
C3494 C3498 1.368 . S
C3495 C3476 1.429 . S
C3495 C3489 1.429 . S
C3495 C3496 1.523 . S
C3496 C3477 1.368 . S
C3496 C3490 1.368 . S
C3496 C3495 1.523 . S
C3497 C3481 1.429 . S
C3497 C3493 1.429 . S
C3497 C3498 1.523 . S
C3498 C3482 1.368 . S
C3498 C3494 1.368 . S
C3498 C3497 1.523 . S
H3499 C3474 0.950 . S
H3500 C3476 0.950 . S
H3501 C3477 0.949 . S
H3502 C3479 0.950 . S
H3503 C3481 0.950 . S
C625 C82 1.319 . S
C630 C4 1.319 . S
C655 C17 1.319 . S
C660 C101 1.319 . S
C685 C36 1.319 . S
C690 C62 1.319 . S
C715 C69 1.319 . S
C720 C43 1.319 . S
C745 C446 1.319 . S
C750 C114 1.319 . S
C775 C459 1.319 . S
C780 C127 1.319 . S
C805 C134 1.319 . S
C810 C426 1.319 . S
C835 C147 1.319 . S
C840 C433 1.319 . S
C865 C504 1.319 . S
C870 C160 1.319 . S
C895 C517 1.319 . S
C900 C179 1.319 . S
C925 C472 1.319 . S
C930 C192 1.319 . S
C955 C485 1.319 . S
C960 C199 1.319 . S
C985 C212 1.319 . S
C990 C543 1.319 . S
C1015 C231 1.319 . S
C1020 C530 1.319 . S
C1045 C244 1.319 . S
C1050 C303 1.319 . S
C1075 C589 1.319 . S
C1080 C257 1.319 . S
C1105 C602 1.319 . S
C1110 C270 1.319 . S
C1135 C563 1.319 . S
C1140 C283 1.319 . S
C1165 C576 1.319 . S
C1170 C296 1.319 . S
C1195 C400 1.319 . S
C1200 C322 1.319 . S
C1225 C407 1.319 . S
C1230 C335 1.319 . S
C1255 C342 1.319 . S
C1260 C374 1.319 . S
C1285 C355 1.319 . S
C1290 C381 1.319 . S
C1315 C615 1.319 . S
C1320 C556 1.319 . S
C1345 C211 1.095 . S
C1350 C5 1.106 . S
C1375 C18 1.106 1_655 S
C1380 C614 1.095 . S
C1405 C29 1.106 . S
C1410 C278 1.095 . S
C1435 C601 1.095 1_554 S
C1440 C44 1.106 . S
C1465 C55 1.106 . S
C1470 C538 1.095 . S
C1495 C551 1.095 . S
C1500 C70 1.106 . S
C1525 C83 1.106 . S
C1530 C562 1.095 . S
C1555 C265 1.095 1_556 S
C1560 C94 1.106 1_655 S
C1585 C107 1.106 . S
C1590 C3 1.095 . S
C1615 C16 1.095 1_545 S
C1620 C120 1.106 . S
C1645 C135 1.106 . S
C1650 C31 1.095 . S
C1675 C148 1.106 1_554 S
C1680 C42 1.095 1_565 S
C1705 C161 1.106 . S
C1710 C57 1.095 . S
C1735 C68 1.095 1_545 S
C1740 C172 1.106 . S
C1765 C185 1.106 . S
C1770 C81 1.095 . S
C1795 C200 1.106 1_556 S
C1800 C96 1.095 1_565 S
C1825 C213 1.106 . S
C1830 C109 1.095 . S
C1855 C224 1.106 . S
C1860 C471 1.095 . S
C1885 C484 1.095 1_455 S
C1890 C237 1.106 . S
C1915 C499 1.095 . S
C1920 C250 1.106 . S
C1945 C263 1.106 1_565 S
C1950 C198 1.095 1_655 S
C1975 C276 1.106 . S
C1980 C133 1.095 . S
C2005 C458 1.095 1_455 S
C2010 C289 1.106 . S
C2035 C432 1.095 . S
C2040 C304 1.106 . S
C2065 C315 1.106 . S
C2070 C525 1.095 . S
C2095 C328 1.106 . S
C2100 C302 1.095 1_554 S
C2125 C343 1.106 . S
C2130 C588 1.095 . S
C2155 C356 1.106 1_455 S
C2160 C291 1.095 . S
C2185 C367 1.106 . S
C2190 C226 1.095 . S
C2215 C239 1.095 1_556 S
C2220 C382 1.106 1_455 S
C2245 C252 1.095 . S
C2250 C393 1.106 . S
C2275 C575 1.095 . S
C2280 C408 1.106 . S
C2305 C317 1.095 . S
C2310 C419 1.106 . S
C2335 C330 1.095 . S
C2340 C434 1.106 1_554 S
C2365 C447 1.106 . S
C2370 C341 1.095 . S
C2395 C354 1.095 . S
C2400 C460 1.106 . S
C2425 C473 1.106 . S
C2430 C369 1.095 . S
C2455 C380 1.095 . S
C2460 C486 1.106 1_556 S
C2485 C497 1.106 . S
C2490 C395 1.095 . S
C2515 C406 1.095 . S
C2520 C510 1.106 . S
C2545 C523 1.106 . S
C2550 C421 1.095 . S
C2575 C536 1.106 . S
C2580 C159 1.095 . S
C2605 C174 1.095 . S
C2610 C549 1.106 1_545 S
C2635 C564 1.106 . S
C2640 C187 1.095 . S
C2665 C577 1.106 . S
C2670 C512 1.095 . S
C2695 C445 1.095 . S
C2700 C590 1.106 . S
C2725 C603 1.106 1_565 S
C2730 C146 1.095 . S
C2755 C122 1.095 1_655 S
C2760 C616 1.106 1_545 S
C2785 C121 0.872 . S
C2790 C10 0.872 . S
C2815 C23 0.872 . S
C2820 C140 0.872 . S
C2845 C153 0.872 . S
C2850 C30 0.872 . S
C2875 C108 0.872 . S
C2880 C49 0.872 . S
C2905 C56 0.872 . S
C2910 C205 0.872 . S
C2935 C75 0.872 . S
C2940 C166 0.872 . S
C2965 C173 0.872 . S
C2970 C88 0.872 . S
C2995 C186 0.872 . S
C3000 C95 0.872 . S
C3025 C218 0.872 . S
C3030 C238 0.872 . S
C3055 C225 0.872 . S
C3060 C608 0.872 . S
C3085 C251 0.872 . S
C3090 C621 0.872 . S
C3115 C595 0.872 . S
C3120 C264 0.872 . S
C3145 C582 0.872 . S
C3150 C277 0.872 . S
C3175 C537 0.872 . S
C3180 C290 0.872 . S
C3205 C309 0.872 . S
C3210 C569 0.872 . S
C3235 C439 0.872 . S
C3240 C316 0.872 . S
C3265 C452 0.872 . S
C3270 C329 0.872 . S
C3295 C348 0.872 . S
C3300 C465 0.872 . S
C3325 C420 0.872 . S
C3330 C361 0.872 . S
C3355 C511 0.872 . S
C3360 C368 0.872 . S
C3385 C478 0.872 . S
C3390 C387 0.872 . S
C3415 C394 0.872 . S
C3420 C491 0.872 . S
C3445 C498 0.872 . S
C3450 C413 0.872 . S
C3475 C550 0.872 . S
C3480 C524 0.872 . S
