# Generated by pormake.
# Topology xfz, (5)-cn, num edge types: 1
# Building blocks:
#     Node 0, Type 0, BuildingBlock: BEQFEK_clean_sbu_0, # of connection points: 5
#     Node 1, Type 0, BuildingBlock: BEQFEK_clean_sbu_0, # of connection points: 5
#     Node 2, Type 0, BuildingBlock: BEQFEK_clean_sbu_0, # of connection points: 5
#     Node 3, Type 0, BuildingBlock: BEQFEK_clean_sbu_0, # of connection points: 5
#     Node 4, Type 0, BuildingBlock: BEQFEK_clean_sbu_0, # of connection points: 5
#     Node 5, Type 0, BuildingBlock: BEQFEK_clean_sbu_0, # of connection points: 5
#     Node 6, Type 0, BuildingBlock: BEQFEK_clean_sbu_0, # of connection points: 5
#     Node 7, Type 0, BuildingBlock: BEQFEK_clean_sbu_0, # of connection points: 5
#     Node 8, Type 0, BuildingBlock: BEQFEK_clean_sbu_0, # of connection points: 5
#     Node 9, Type 0, BuildingBlock: BEQFEK_clean_sbu_0, # of connection points: 5
#     Node 10, Type 0, BuildingBlock: BEQFEK_clean_sbu_0, # of connection points: 5
#     Node 11, Type 0, BuildingBlock: BEQFEK_clean_sbu_0, # of connection points: 5
#     Node 12, Type 0, BuildingBlock: BEQFEK_clean_sbu_0, # of connection points: 5
#     Node 13, Type 0, BuildingBlock: BEQFEK_clean_sbu_0, # of connection points: 5
#     Node 14, Type 0, BuildingBlock: BEQFEK_clean_sbu_0, # of connection points: 5
#     Node 15, Type 0, BuildingBlock: BEQFEK_clean_sbu_0, # of connection points: 5
#     Edge 16, Type (0, 0), BuildingBlock: ZUJKAS_clean_linker_0, # of connection points: 2
#     Edge 17, Type (0, 0), BuildingBlock: ZUJKAS_clean_linker_0, # of connection points: 2
#     Edge 18, Type (0, 0), BuildingBlock: ZUJKAS_clean_linker_0, # of connection points: 2
#     Edge 19, Type (0, 0), BuildingBlock: ZUJKAS_clean_linker_0, # of connection points: 2
#     Edge 20, Type (0, 0), BuildingBlock: ZUJKAS_clean_linker_0, # of connection points: 2
#     Edge 21, Type (0, 0), BuildingBlock: ZUJKAS_clean_linker_0, # of connection points: 2
#     Edge 22, Type (0, 0), BuildingBlock: ZUJKAS_clean_linker_0, # of connection points: 2
#     Edge 23, Type (0, 0), BuildingBlock: ZUJKAS_clean_linker_0, # of connection points: 2
#     Edge 24, Type (0, 0), BuildingBlock: ZUJKAS_clean_linker_0, # of connection points: 2
#     Edge 25, Type (0, 0), BuildingBlock: ZUJKAS_clean_linker_0, # of connection points: 2
#     Edge 26, Type (0, 0), BuildingBlock: ZUJKAS_clean_linker_0, # of connection points: 2
#     Edge 27, Type (0, 0), BuildingBlock: ZUJKAS_clean_linker_0, # of connection points: 2
#     Edge 28, Type (0, 0), BuildingBlock: ZUJKAS_clean_linker_0, # of connection points: 2
#     Edge 29, Type (0, 0), BuildingBlock: ZUJKAS_clean_linker_0, # of connection points: 2
#     Edge 30, Type (0, 0), BuildingBlock: ZUJKAS_clean_linker_0, # of connection points: 2
#     Edge 31, Type (0, 0), BuildingBlock: ZUJKAS_clean_linker_0, # of connection points: 2
#     Edge 32, Type (0, 0), BuildingBlock: ZUJKAS_clean_linker_0, # of connection points: 2
#     Edge 33, Type (0, 0), BuildingBlock: ZUJKAS_clean_linker_0, # of connection points: 2
#     Edge 34, Type (0, 0), BuildingBlock: ZUJKAS_clean_linker_0, # of connection points: 2
#     Edge 35, Type (0, 0), BuildingBlock: ZUJKAS_clean_linker_0, # of connection points: 2
#     Edge 36, Type (0, 0), BuildingBlock: ZUJKAS_clean_linker_0, # of connection points: 2
#     Edge 37, Type (0, 0), BuildingBlock: ZUJKAS_clean_linker_0, # of connection points: 2
#     Edge 38, Type (0, 0), BuildingBlock: ZUJKAS_clean_linker_0, # of connection points: 2
#     Edge 39, Type (0, 0), BuildingBlock: ZUJKAS_clean_linker_0, # of connection points: 2
#     Edge 40, Type (0, 0), BuildingBlock: ZUJKAS_clean_linker_0, # of connection points: 2
#     Edge 41, Type (0, 0), BuildingBlock: ZUJKAS_clean_linker_0, # of connection points: 2
#     Edge 42, Type (0, 0), BuildingBlock: ZUJKAS_clean_linker_0, # of connection points: 2
#     Edge 43, Type (0, 0), BuildingBlock: ZUJKAS_clean_linker_0, # of connection points: 2
#     Edge 44, Type (0, 0), BuildingBlock: ZUJKAS_clean_linker_0, # of connection points: 2
#     Edge 45, Type (0, 0), BuildingBlock: ZUJKAS_clean_linker_0, # of connection points: 2
#     Edge 46, Type (0, 0), BuildingBlock: ZUJKAS_clean_linker_0, # of connection points: 2
#     Edge 47, Type (0, 0), BuildingBlock: ZUJKAS_clean_linker_0, # of connection points: 2
#     Edge 48, Type (0, 0), BuildingBlock: ZUJKAS_clean_linker_0, # of connection points: 2
#     Edge 49, Type (0, 0), BuildingBlock: ZUJKAS_clean_linker_0, # of connection points: 2
#     Edge 50, Type (0, 0), BuildingBlock: ZUJKAS_clean_linker_0, # of connection points: 2
#     Edge 51, Type (0, 0), BuildingBlock: ZUJKAS_clean_linker_0, # of connection points: 2
#     Edge 52, Type (0, 0), BuildingBlock: ZUJKAS_clean_linker_0, # of connection points: 2
#     Edge 53, Type (0, 0), BuildingBlock: ZUJKAS_clean_linker_0, # of connection points: 2
#     Edge 54, Type (0, 0), BuildingBlock: ZUJKAS_clean_linker_0, # of connection points: 2
#     Edge 55, Type (0, 0), BuildingBlock: ZUJKAS_clean_linker_0, # of connection points: 2
# Relax obj value: 0.368
# Max RMSD: 0.176
# Mean RMSD: 0.176
data_MOF--net-xfz--node1-BEQFEK_clean_sbu_0--edge1-ZUJKAS_clean_linker_0
_symmetry_space_group_name_H-M    P1
_symmetry_Int_Tables_number       1
_symmetry_cell_setting            triclinic
loop_
_symmetry_equiv_pos_as_xyz
'x, y, z'
_cell_length_a     58.651425
_cell_length_b     58.652285
_cell_length_c     65.159062
_cell_angle_alpha  89.994178
_cell_angle_beta   90.015241
_cell_angle_gamma 90.006572
loop_
_atom_site_label
_atom_site_type_symbol
_atom_site_fract_x
_atom_site_fract_y
_atom_site_fract_z
_atom_type_partial_charge
Co0 Co 0.14756 0.46908 0.36349 0.0
Co1 Co 0.19568 0.46095 0.34461 0.0
C2 C 0.15547 0.42924 0.33664 0.0
O3 O 0.14273 0.44021 0.3489 0.0
O4 O 0.17595 0.43556 0.33338 0.0
C5 C 0.10869 0.45934 0.38788 0.0
O6 O 0.11681 0.43847 0.38718 0.0
C7 C 0.23727 0.43365 0.3427 0.0
C8 C 0.26035 0.45487 0.32396 0.0
C9 C 0.25901 0.43416 0.3342 0.0
N10 N 0.22645 0.45314 0.33784 0.0
N11 N 0.24037 0.4658 0.32669 0.0
C12 C 0.22622 0.41442 0.3541 0.0
H13 H 0.23231 0.41435 0.37021 0.0
H14 H 0.23079 0.39784 0.34699 0.0
H15 H 0.20745 0.41647 0.35438 0.0
C16 C 0.17428 0.47289 0.4017 0.0
N17 N 0.17269 0.46812 0.38153 0.0
N18 N 0.19323 0.46526 0.37387 0.0
C19 C 0.20866 0.46846 0.38909 0.0
C20 C 0.1971 0.47337 0.40723 0.0
C21 C 0.15422 0.47729 0.41536 0.0
H22 H 0.14417 0.49179 0.40922 0.0
H23 H 0.14322 0.46196 0.41556 0.0
H24 H 0.15931 0.48099 0.43139 0.0
O25 O 0.1515 0.49376 0.34289 0.0
O26 O 0.18629 0.48956 0.32987 0.0
H27 H 0.23782 0.47802 0.37116 0.0
H28 H 0.24245 0.47866 0.39865 0.0
C29 C 0.2339 0.46945 0.38591 0.0
H30 H 0.24077 0.45186 0.3853 0.0
H31 H 0.23611 0.48176 0.32069 0.0
O32 O 0.11939 0.47528 0.37885 0.0
C33 C 0.16729 0.50019 0.33073 0.0
Co34 Co 0.47235 0.85301 0.65972 0.0
Co35 Co 0.46179 0.80572 0.67944 0.0
C36 C 0.43195 0.84736 0.68664 0.0
O37 O 0.44381 0.85928 0.67437 0.0
O38 O 0.43707 0.82661 0.6902 0.0
C39 C 0.46363 0.89056 0.63366 0.0
O40 O 0.44301 0.88179 0.6334 0.0
C41 C 0.43296 0.76506 0.68253 0.0
C42 C 0.45448 0.74117 0.70014 0.0
C43 C 0.43335 0.74317 0.69074 0.0
N44 N 0.45296 0.77531 0.6867 0.0
N45 N 0.46576 0.76092 0.69723 0.0
C46 C 0.41346 0.77665 0.67196 0.0
H47 H 0.41586 0.79536 0.67176 0.0
H48 H 0.41245 0.77079 0.65581 0.0
H49 H 0.39714 0.77232 0.67965 0.0
C50 C 0.4741 0.82543 0.62181 0.0
N51 N 0.47014 0.82762 0.64209 0.0
N52 N 0.46624 0.8074 0.65011 0.0
C53 C 0.46801 0.79159 0.63502 0.0
C54 C 0.47264 0.80262 0.61656 0.0
C55 C 0.4816 0.84447 0.60806 0.0
H56 H 0.4945 0.8551 0.61599 0.0
H57 H 0.46667 0.85526 0.60424 0.0
H58 H 0.48908 0.83801 0.59355 0.0
O59 O 0.49687 0.84851 0.68027 0.0
O60 O 0.49073 0.81442 0.69417 0.0
H61 H 0.47555 0.76159 0.65257 0.0
H62 H 0.47366 0.75682 0.62515 0.0
C63 C 0.46643 0.7664 0.6383 0.0
H64 H 0.44829 0.76151 0.63996 0.0
H65 H 0.48214 0.76464 0.70255 0.0
O66 O 0.47918 0.88074 0.64395 0.0
C67 C 0.50237 0.83281 0.69289 0.0
Co68 Co 0.85231 0.52849 0.36502 0.0
Co69 Co 0.80588 0.54148 0.3448 0.0
C70 C 0.84852 0.57003 0.33894 0.0
O71 O 0.86002 0.55705 0.35066 0.0
O72 O 0.82746 0.56613 0.33544 0.0
C73 C 0.89295 0.53291 0.38912 0.0
O74 O 0.89062 0.55484 0.38562 0.0
C75 C 0.7667 0.57161 0.34024 0.0
C76 C 0.74071 0.54932 0.32615 0.0
C77 C 0.74426 0.57131 0.33334 0.0
N78 N 0.77587 0.55088 0.33718 0.0
N79 N 0.76031 0.53765 0.32865 0.0
C80 C 0.77885 0.59045 0.3512 0.0
H81 H 0.79271 0.58344 0.36093 0.0
H82 H 0.7668 0.60037 0.36083 0.0
H83 H 0.78662 0.60207 0.33972 0.0
C84 C 0.82416 0.527 0.40226 0.0
N85 N 0.82674 0.53149 0.38214 0.0
N86 N 0.8068 0.53638 0.37402 0.0
C87 C 0.79077 0.53497 0.38894 0.0
C88 C 0.80135 0.52905 0.40731 0.0
C89 C 0.84311 0.51981 0.41624 0.0
H90 H 0.85091 0.50387 0.41036 0.0
H91 H 0.85639 0.53326 0.41644 0.0
H92 H 0.83712 0.517 0.43219 0.0
O93 O 0.84721 0.50445 0.34426 0.0
O94 O 0.81427 0.51296 0.32926 0.0
H95 H 0.76059 0.52734 0.37179 0.0
H96 H 0.75578 0.53175 0.399 0.0
C97 C 0.76571 0.53743 0.38542 0.0
H98 H 0.76172 0.55559 0.38233 0.0
H99 H 0.76294 0.52056 0.32485 0.0
O100 O 0.87866 0.51897 0.38158 0.0
C101 C 0.83184 0.50022 0.33098 0.0
Co102 Co 0.52912 0.14833 0.65773 0.0
Co103 Co 0.5421 0.19475 0.67804 0.0
C104 C 0.5697 0.15145 0.68487 0.0
O105 O 0.55703 0.14012 0.67277 0.0
O106 O 0.56588 0.17254 0.68829 0.0
C107 C 0.53387 0.10784 0.63365 0.0
O108 O 0.55577 0.11062 0.63705 0.0
C109 C 0.57236 0.23439 0.68162 0.0
C110 C 0.5515 0.25869 0.69942 0.0
C111 C 0.57257 0.25619 0.69002 0.0
N112 N 0.55207 0.22467 0.68569 0.0
N113 N 0.53968 0.23929 0.69633 0.0
C114 C 0.59151 0.22238 0.67094 0.0
H115 H 0.59245 0.22816 0.65477 0.0
H116 H 0.608 0.2264 0.67849 0.0
H117 H 0.58872 0.20371 0.67084 0.0
C118 C 0.53028 0.176 0.62012 0.0
N119 N 0.53337 0.17367 0.64049 0.0
N120 N 0.53772 0.19369 0.64868 0.0
C121 C 0.53694 0.2096 0.6336 0.0
C122 C 0.5326 0.19877 0.61499 0.0
C123 C 0.52306 0.15705 0.60613 0.0
H124 H 0.50755 0.14876 0.61238 0.0
H125 H 0.53684 0.14415 0.60534 0.0
H126 H 0.51928 0.16319 0.59039 0.0
O127 O 0.50451 0.15417 0.67786 0.0
O128 O 0.51296 0.18713 0.69286 0.0
H129 H 0.53039 0.23964 0.65145 0.0
H130 H 0.53173 0.24448 0.62399 0.0
C131 C 0.53908 0.23473 0.637 0.0
H132 H 0.55736 0.23925 0.63833 0.0
H133 H 0.52318 0.236 0.70157 0.0
O134 O 0.51971 0.12188 0.64122 0.0
C135 C 0.50003 0.16972 0.6909 0.0
Co136 Co 0.14838 0.53114 0.65917 0.0
Co137 Co 0.19544 0.54253 0.67904 0.0
C138 C 0.15334 0.57129 0.68679 0.0
O139 O 0.14163 0.55913 0.67459 0.0
O140 O 0.17431 0.56684 0.69005 0.0
C141 C 0.11075 0.54 0.63327 0.0
O142 O 0.1194 0.56067 0.63329 0.0
C143 C 0.23596 0.57157 0.68252 0.0
C144 C 0.26003 0.54975 0.69965 0.0
C145 C 0.25791 0.57106 0.69059 0.0
N146 N 0.22579 0.55145 0.68641 0.0
N147 N 0.24028 0.53849 0.69666 0.0
C148 C 0.22427 0.59125 0.67233 0.0
H149 H 0.20555 0.58887 0.67228 0.0
H150 H 0.22994 0.59253 0.65615 0.0
H151 H 0.22871 0.60744 0.6802 0.0
C152 C 0.17587 0.5306 0.62126 0.0
N153 N 0.17365 0.53429 0.64157 0.0
N154 N 0.1938 0.53845 0.64962 0.0
C155 C 0.20962 0.53714 0.63449 0.0
C156 C 0.19865 0.53254 0.61599 0.0
C157 C 0.15697 0.52277 0.60748 0.0
H158 H 0.14662 0.50962 0.61536 0.0
H159 H 0.14589 0.53749 0.60372 0.0
H160 H 0.16358 0.51548 0.59294 0.0
O161 O 0.15348 0.50603 0.67897 0.0
O162 O 0.18698 0.5134 0.69356 0.0
H163 H 0.23976 0.52973 0.6519 0.0
H164 H 0.24445 0.53217 0.6245 0.0
C165 C 0.23479 0.53903 0.63777 0.0
H166 H 0.23942 0.5572 0.63969 0.0
H167 H 0.23665 0.52198 0.7017 0.0
O168 O 0.1207 0.52433 0.64333 0.0
C169 C 0.16916 0.50099 0.69176 0.0
Co170 Co 0.53074 0.85479 0.3646 0.0
Co171 Co 0.54182 0.80761 0.34499 0.0
C172 C 0.57146 0.84972 0.33818 0.0
O173 O 0.55938 0.86171 0.35027 0.0
O174 O 0.56657 0.82884 0.33478 0.0
C175 C 0.53518 0.89642 0.38747 0.0
O176 O 0.55698 0.89473 0.38315 0.0
C177 C 0.57157 0.76814 0.34108 0.0
C178 C 0.54931 0.7422 0.3269 0.0
C179 C 0.57125 0.74568 0.33427 0.0
N180 N 0.55094 0.7774 0.33778 0.0
N181 N 0.53771 0.76186 0.32922 0.0
C182 C 0.59038 0.7803 0.35209 0.0
H183 H 0.58336 0.79428 0.36167 0.0
H184 H 0.60016 0.76829 0.36187 0.0
H185 H 0.60213 0.78793 0.34064 0.0
C186 C 0.52907 0.8274 0.40232 0.0
N187 N 0.53325 0.82943 0.3821 0.0
N188 N 0.53719 0.80919 0.37422 0.0
C189 C 0.53529 0.79346 0.38937 0.0
C190 C 0.52997 0.80455 0.40768 0.0
C191 C 0.52423 0.84711 0.41627 0.0
H192 H 0.5076 0.85482 0.41208 0.0
H193 H 0.53769 0.86018 0.41432 0.0
H194 H 0.52388 0.84194 0.43264 0.0
O195 O 0.50673 0.84989 0.3437 0.0
O196 O 0.51299 0.81582 0.32994 0.0
H197 H 0.52665 0.76359 0.37214 0.0
H198 H 0.52984 0.75874 0.39947 0.0
C199 C 0.53652 0.76827 0.38604 0.0
H200 H 0.55454 0.76331 0.38349 0.0
H201 H 0.52068 0.76457 0.32522 0.0
O202 O 0.52138 0.88146 0.38083 0.0
C203 C 0.50135 0.83419 0.33108 0.0
Co204 Co 0.85345 0.47392 0.65916 0.0
Co205 Co 0.80708 0.46108 0.67963 0.0
C206 C 0.85035 0.4332 0.68605 0.0
O207 O 0.8617 0.44584 0.67393 0.0
O208 O 0.82932 0.43718 0.6896 0.0
C209 C 0.89384 0.46943 0.63488 0.0
O210 O 0.89127 0.44751 0.63831 0.0
C211 C 0.76742 0.43089 0.68299 0.0
C212 C 0.74326 0.45147 0.7012 0.0
C213 C 0.74565 0.43057 0.69146 0.0
N214 N 0.77721 0.45107 0.68734 0.0
N215 N 0.76268 0.46329 0.69824 0.0
C216 C 0.77934 0.41192 0.67196 0.0
H217 H 0.7736 0.41143 0.65576 0.0
H218 H 0.7752 0.39528 0.67916 0.0
H219 H 0.79802 0.4146 0.67196 0.0
C220 C 0.82548 0.47306 0.62169 0.0
N221 N 0.82795 0.46993 0.64203 0.0
N222 N 0.80795 0.46571 0.65034 0.0
C223 C 0.79193 0.46668 0.63536 0.0
C224 C 0.80265 0.47101 0.61672 0.0
C225 C 0.84442 0.47971 0.60748 0.0
H226 H 0.85276 0.49541 0.61327 0.0
H227 H 0.85728 0.46588 0.60708 0.0
H228 H 0.83823 0.4829 0.59165 0.0
O229 O 0.84788 0.49833 0.67958 0.0
O230 O 0.81486 0.49009 0.69456 0.0
H231 H 0.76213 0.47317 0.65355 0.0
H232 H 0.75711 0.47275 0.62609 0.0
C233 C 0.76681 0.46483 0.63887 0.0
H234 H 0.76199 0.4466 0.63976 0.0
H235 H 0.76604 0.47968 0.70371 0.0
O236 O 0.87974 0.48348 0.64252 0.0
C237 C 0.83239 0.50286 0.69268 0.0
Co238 Co 0.46965 0.14838 0.36354 0.0
Co239 Co 0.45855 0.19546 0.3437 0.0
C240 C 0.42948 0.15353 0.33599 0.0
O241 O 0.44164 0.14173 0.34813 0.0
O242 O 0.43403 0.17449 0.33276 0.0
C243 C 0.46081 0.11072 0.3895 0.0
O244 O 0.44008 0.11922 0.38949 0.0
C245 C 0.4298 0.23617 0.34048 0.0
C246 C 0.45158 0.26012 0.3232 0.0
C247 C 0.43038 0.25813 0.33247 0.0
N248 N 0.44978 0.22585 0.33636 0.0
N249 N 0.46272 0.24027 0.32602 0.0
C250 C 0.41014 0.22459 0.35083 0.0
H251 H 0.40911 0.23019 0.36704 0.0
H252 H 0.39389 0.22921 0.34313 0.0
H253 H 0.41236 0.20585 0.35077 0.0
C254 C 0.47024 0.17579 0.40148 0.0
N255 N 0.46661 0.17364 0.38116 0.0
N256 N 0.46263 0.19384 0.37313 0.0
C257 C 0.46401 0.20962 0.38829 0.0
C258 C 0.46844 0.19856 0.40678 0.0
C259 C 0.47788 0.15682 0.41526 0.0
H260 H 0.49104 0.14643 0.40744 0.0
H261 H 0.46307 0.1458 0.41892 0.0
H262 H 0.48511 0.16334 0.42986 0.0
O263 O 0.49484 0.15339 0.34385 0.0
O264 O 0.48765 0.18685 0.32914 0.0
H265 H 0.47146 0.23969 0.37079 0.0
H266 H 0.46975 0.24432 0.39824 0.0
C267 C 0.46243 0.23482 0.38508 0.0
H268 H 0.44428 0.23973 0.38354 0.0
H269 H 0.47914 0.23653 0.32082 0.0
O270 O 0.47639 0.12072 0.37939 0.0
C271 C 0.49999 0.16901 0.33105 0.0
Co272 Co 0.64763 0.97451 0.86308 0.0
Co273 Co 0.69455 0.96015 0.84475 0.0
C274 C 0.65209 0.93266 0.83688 0.0
O275 O 0.64052 0.94634 0.84785 0.0
O276 O 0.67348 0.93551 0.83453 0.0
C277 C 0.61024 0.96937 0.89072 0.0
O278 O 0.61956 0.9495 0.89475 0.0
C279 C 0.73389 0.92996 0.8402 0.0
C280 C 0.76064 0.95316 0.82871 0.0
C281 C 0.75669 0.93069 0.83436 0.0
N282 N 0.72492 0.95093 0.83803 0.0
N283 N 0.74096 0.9647 0.83104 0.0
C284 C 0.72113 0.91037 0.84939 0.0
H285 H 0.70681 0.91667 0.85897 0.0
H286 H 0.73263 0.89964 0.85887 0.0
H287 H 0.71393 0.89974 0.83688 0.0
C288 C 0.67442 0.9759 0.90156 0.0
N289 N 0.67239 0.97134 0.88137 0.0
N290 N 0.69235 0.96513 0.87402 0.0
C291 C 0.7077 0.96534 0.88959 0.0
C292 C 0.69667 0.97185 0.90757 0.0
C293 C 0.65629 0.98671 0.91451 0.0
H294 H 0.64579 0.99847 0.90514 0.0
H295 H 0.64526 0.97323 0.92111 0.0
H296 H 0.66384 0.99647 0.92743 0.0
O297 O 0.65392 0.99885 0.84313 0.0
O298 O 0.68695 0.98894 0.82899 0.0
H299 H 0.73979 0.9704 0.87467 0.0
H300 H 0.74203 0.9633 0.90165 0.0
C301 C 0.73249 0.95998 0.88725 0.0
H302 H 0.73447 0.94177 0.88312 0.0
H303 H 0.73856 0.98204 0.82818 0.0
O304 O 0.61962 0.98265 0.87784 0.0
C305 C 0.66989 0.00245 0.8303 0.0
Co306 Co 0.97778 0.35488 0.16066 0.0
Co307 Co 0.96135 0.30826 0.1783 0.0
C308 C 0.93516 0.35132 0.1862 0.0
O309 O 0.94934 0.36257 0.17544 0.0
O310 O 0.93744 0.32989 0.18865 0.0
C311 C 0.97355 0.3921 0.13296 0.0
O312 O 0.95371 0.38274 0.12888 0.0
C313 C 0.93001 0.26975 0.18308 0.0
C314 C 0.95296 0.24186 0.19263 0.0
C315 C 0.93035 0.24669 0.18811 0.0
N316 N 0.95134 0.27801 0.1846 0.0
N317 N 0.96496 0.2613 0.19046 0.0
C318 C 0.91036 0.28339 0.17506 0.0
H319 H 0.9166 0.29787 0.16564 0.0
H320 H 0.89885 0.27257 0.16569 0.0
H321 H 0.90057 0.29041 0.18819 0.0
C322 C 0.97955 0.32848 0.12214 0.0
N323 N 0.9743 0.33043 0.14218 0.0
N324 N 0.96658 0.3108 0.14904 0.0
C325 C 0.96602 0.29585 0.13318 0.0
C326 C 0.97403 0.30671 0.11553 0.0
C327 C 0.9926 0.34598 0.11018 0.0
H328 H 0.00404 0.35575 0.12046 0.0
H329 H 0.98049 0.35782 0.10263 0.0
H330 H 0.00311 0.33784 0.09806 0.0
O331 O 0.0018 0.34758 0.18058 0.0
O332 O 0.99029 0.31479 0.19432 0.0
H333 H 0.96883 0.26238 0.14591 0.0
H334 H 0.95806 0.2629 0.11985 0.0
C335 C 0.95789 0.27175 0.13488 0.0
H336 H 0.94023 0.27163 0.14088 0.0
H337 H 0.98251 0.26306 0.19259 0.0
O338 O 0.98666 0.38281 0.14604 0.0
C339 C 0.00456 0.33124 0.1932 0.0
Co340 Co 0.35561 0.0274 0.86303 0.0
Co341 Co 0.30852 0.04094 0.84459 0.0
C342 C 0.35065 0.06888 0.83652 0.0
O343 O 0.36235 0.05582 0.84798 0.0
O344 O 0.32944 0.0653 0.83374 0.0
C345 C 0.39262 0.033 0.89107 0.0
O346 O 0.38269 0.05248 0.89542 0.0
C347 C 0.26927 0.07103 0.83899 0.0
C348 C 0.24211 0.04726 0.82937 0.0
C349 C 0.24633 0.07005 0.83366 0.0
N350 N 0.27807 0.04989 0.83784 0.0
N351 N 0.26179 0.03578 0.83194 0.0
C352 C 0.2823 0.09111 0.84695 0.0
H353 H 0.29668 0.08536 0.85675 0.0
H354 H 0.27102 0.10257 0.85593 0.0
H355 H 0.28943 0.10079 0.83381 0.0
C356 C 0.32876 0.02518 0.90134 0.0
N357 N 0.33079 0.03009 0.88123 0.0
N358 N 0.3109 0.03659 0.87396 0.0
C359 C 0.29564 0.03662 0.88959 0.0
C360 C 0.30659 0.02959 0.90752 0.0
C361 C 0.34668 0.01335 0.91381 0.0
H362 H 0.3572 0.00218 0.9039 0.0
H363 H 0.35775 0.02624 0.92126 0.0
H364 H 0.33889 0.00273 0.92603 0.0
O365 O 0.34966 0.00292 0.84317 0.0
O366 O 0.31614 0.01177 0.82937 0.0
H367 H 0.26272 0.03155 0.87626 0.0
H368 H 0.26195 0.04257 0.90222 0.0
C369 C 0.27112 0.04317 0.88736 0.0
H370 H 0.27002 0.06074 0.8812 0.0
H371 H 0.26402 0.01825 0.83004 0.0
O372 O 0.38371 0.01976 0.87788 0.0
C373 C 0.33353 0.99868 0.83065 0.0
Co374 Co 0.02596 0.64738 0.16082 0.0
Co375 Co 0.04041 0.69411 0.17961 0.0
C376 C 0.06761 0.65138 0.18732 0.0
O377 O 0.054 0.63994 0.17615 0.0
O378 O 0.06479 0.67276 0.18982 0.0
C379 C 0.0314 0.61008 0.1333 0.0
O380 O 0.05162 0.61909 0.13018 0.0
C381 C 0.07095 0.73313 0.18454 0.0
C382 C 0.04792 0.76008 0.19592 0.0
C383 C 0.07039 0.75593 0.1904 0.0
N384 N 0.04988 0.72435 0.18656 0.0
N385 N 0.03622 0.7405 0.1935 0.0
C386 C 0.09048 0.72024 0.1754 0.0
H387 H 0.0841 0.70605 0.1657 0.0
H388 H 0.1014 0.73169 0.16606 0.0
H389 H 0.10094 0.71285 0.18794 0.0
C390 C 0.02503 0.67456 0.12253 0.0
N391 N 0.02946 0.67229 0.14273 0.0
N392 N 0.03556 0.69218 0.15032 0.0
C393 C 0.03534 0.70774 0.13494 0.0
C394 C 0.02895 0.69694 0.1168 0.0
C395 C 0.01448 0.65648 0.10935 0.0
H396 H 0.00235 0.64612 0.11844 0.0
H397 H 0.02809 0.64528 0.1032 0.0
H398 H 0.00521 0.66403 0.09614 0.0
O399 O 0.00152 0.65372 0.1807 0.0
O400 O 0.01149 0.68659 0.19513 0.0
H401 H 0.02989 0.73962 0.15009 0.0
H402 H 0.0375 0.74224 0.12325 0.0
C403 C 0.04057 0.73251 0.13759 0.0
H404 H 0.0587 0.7345 0.14203 0.0
H405 H 0.01882 0.73826 0.19623 0.0
O406 O 0.01768 0.6196 0.14571 0.0
C407 C 0.99791 0.66961 0.19361 0.0
Co408 Co 0.64946 0.02803 0.16008 0.0
Co409 Co 0.69595 0.04151 0.17993 0.0
C410 C 0.65266 0.06859 0.18748 0.0
O411 O 0.6413 0.05568 0.1756 0.0
O412 O 0.6739 0.06522 0.1905 0.0
C413 C 0.6083 0.03278 0.13704 0.0
O414 O 0.61066 0.05457 0.14119 0.0
C415 C 0.73431 0.07267 0.18465 0.0
C416 C 0.76144 0.05063 0.19722 0.0
C417 C 0.75698 0.07278 0.19089 0.0
N418 N 0.72587 0.05155 0.18725 0.0
N419 N 0.74212 0.03847 0.19488 0.0
C420 C 0.72124 0.09156 0.17464 0.0
H421 H 0.70723 0.08452 0.16509 0.0
H422 H 0.73265 0.10218 0.16498 0.0
H423 H 0.71358 0.1025 0.18669 0.0
C424 C 0.6765 0.02998 0.12215 0.0
N425 N 0.67444 0.03272 0.14258 0.0
N426 N 0.69447 0.03755 0.15055 0.0
C427 C 0.7101 0.03763 0.13522 0.0
C428 C 0.69909 0.03309 0.11673 0.0
C429 C 0.65747 0.02274 0.10829 0.0
H430 H 0.64968 0.00684 0.11426 0.0
H431 H 0.6442 0.0362 0.10808 0.0
H432 H 0.6634 0.01969 0.09236 0.0
O433 O 0.65582 0.00323 0.17981 0.0
O434 O 0.68874 0.01217 0.19467 0.0
H435 H 0.74116 0.03091 0.1514 0.0
H436 H 0.74486 0.03657 0.12424 0.0
C437 C 0.73511 0.04123 0.13822 0.0
H438 H 0.73828 0.05945 0.14174 0.0
H439 H 0.74014 0.02115 0.19814 0.0
O440 O 0.62286 0.01862 0.14377 0.0
C441 C 0.67156 0.99893 0.19273 0.0
Co442 Co 0.02832 0.3521 0.86214 0.0
Co443 Co 0.0425 0.30545 0.84307 0.0
C444 C 0.06968 0.34839 0.83547 0.0
O445 O 0.05642 0.3598 0.847 0.0
O446 O 0.06648 0.32712 0.83254 0.0
C447 C 0.03371 0.39275 0.88577 0.0
O448 O 0.05559 0.38946 0.88265 0.0
C449 C 0.07322 0.26669 0.83771 0.0
C450 C 0.05006 0.23937 0.82726 0.0
C451 C 0.07265 0.24378 0.83221 0.0
N452 N 0.05204 0.27528 0.83605 0.0
N453 N 0.0383 0.25891 0.82966 0.0
C454 C 0.0929 0.27984 0.84631 0.0
H455 H 0.08667 0.29419 0.8559 0.0
H456 H 0.10406 0.26862 0.85565 0.0
H457 H 0.10305 0.28702 0.83349 0.0
C458 C 0.02835 0.32541 0.90021 0.0
N459 N 0.03215 0.32724 0.87992 0.0
N460 N 0.03825 0.30733 0.87246 0.0
C461 C 0.03873 0.29209 0.88811 0.0
C462 C 0.03269 0.30317 0.90627 0.0
C463 C 0.01823 0.34403 0.91306 0.0
H464 H 0.00407 0.35229 0.9046 0.0
H465 H 0.03149 0.35703 0.9163 0.0
H466 H 0.01138 0.33753 0.9278 0.0
O467 O 0.00387 0.34583 0.84229 0.0
O468 O 0.01328 0.31281 0.82788 0.0
H469 H 0.0338 0.25956 0.87395 0.0
H470 H 0.04338 0.25803 0.90037 0.0
C471 C 0.04493 0.2675 0.88571 0.0
H472 H 0.06279 0.26622 0.88031 0.0
H473 H 0.02081 0.26097 0.82734 0.0
O474 O 0.0193 0.37905 0.87808 0.0
C475 C 0.99991 0.32993 0.82948 0.0
Co476 Co 0.35304 0.97363 0.15996 0.0
Co477 Co 0.30623 0.95927 0.17858 0.0
C478 C 0.3488 0.93263 0.18745 0.0
O479 O 0.3602 0.94625 0.17629 0.0
O480 O 0.32734 0.93511 0.18956 0.0
C481 C 0.39036 0.96459 0.13416 0.0
O482 O 0.38126 0.94412 0.13419 0.0
C483 C 0.26725 0.92887 0.1841 0.0
C484 C 0.23992 0.95228 0.19403 0.0
C485 C 0.24431 0.92957 0.1895 0.0
N486 N 0.27588 0.95007 0.18545 0.0
N487 N 0.2595 0.96397 0.19153 0.0
C488 C 0.28043 0.909 0.17592 0.0
H489 H 0.29483 0.915 0.16628 0.0
H490 H 0.26925 0.89765 0.16672 0.0
H491 H 0.28754 0.89912 0.18895 0.0
C492 C 0.32656 0.97358 0.12159 0.0
N493 N 0.32839 0.96953 0.14186 0.0
N494 N 0.3085 0.96314 0.14918 0.0
C495 C 0.29335 0.96257 0.13346 0.0
C496 C 0.30443 0.96896 0.1154 0.0
C497 C 0.34484 0.9845 0.10887 0.0
H498 H 0.35451 0.99699 0.1182 0.0
H499 H 0.35669 0.97116 0.10326 0.0
H500 H 0.33758 0.99352 0.09541 0.0
O501 O 0.34664 0.99883 0.1789 0.0
O502 O 0.31381 0.98879 0.19344 0.0
H503 H 0.26056 0.96752 0.14711 0.0
H504 H 0.25951 0.95715 0.12093 0.0
C505 C 0.2688 0.95614 0.13572 0.0
H506 H 0.26763 0.93843 0.14153 0.0
H507 H 0.26159 0.98149 0.19359 0.0
O508 O 0.38089 0.98042 0.14438 0.0
C509 C 0.33064 0.00257 0.19168 0.0
Co510 Co 0.97238 0.64862 0.86488 0.0
Co511 Co 0.96039 0.6956 0.84527 0.0
C512 C 0.93149 0.65371 0.83791 0.0
O513 O 0.94412 0.64197 0.84971 0.0
O514 O 0.93564 0.67477 0.83477 0.0
C515 C 0.96357 0.61056 0.89016 0.0
O516 O 0.94264 0.6185 0.88922 0.0
C517 C 0.9306 0.73493 0.84071 0.0
C518 C 0.9532 0.76127 0.82762 0.0
C519 C 0.931 0.75749 0.83419 0.0
N520 N 0.95143 0.72588 0.83802 0.0
N521 N 0.96487 0.74166 0.83009 0.0
C522 C 0.91146 0.7225 0.851 0.0
H523 H 0.91823 0.70854 0.86076 0.0
H524 H 0.90114 0.73433 0.86049 0.0
H525 H 0.9003 0.71482 0.83911 0.0
C526 C 0.97451 0.67622 0.90259 0.0
N527 N 0.96973 0.67391 0.88248 0.0
N528 N 0.96482 0.69397 0.87461 0.0
C529 C 0.96628 0.70978 0.88973 0.0
C530 C 0.97249 0.69898 0.90793 0.0
C531 C 0.98155 0.65697 0.91632 0.0
H532 H 0.99596 0.64757 0.90926 0.0
H533 H 0.96701 0.6451 0.91812 0.0
H534 H 0.98658 0.66289 0.93182 0.0
O535 O 0.99719 0.65365 0.84486 0.0
O536 O 0.98931 0.68705 0.83033 0.0
H537 H 0.97428 0.74023 0.87312 0.0
H538 H 0.96917 0.74465 0.90025 0.0
C539 C 0.96384 0.73489 0.88647 0.0
H540 H 0.94576 0.73889 0.88304 0.0
H541 H 0.98208 0.73915 0.82664 0.0
O542 O 0.97942 0.62108 0.88084 0.0
C543 C 0.0019 0.66934 0.83199 0.0
H544 H 0.89723 0.49126 0.40718 0.0
H545 H 0.93181 0.47459 0.42175 0.0
H546 H 0.96768 0.53775 0.41111 0.0
H547 H 0.93302 0.5547 0.39718 0.0
H548 H 0.96698 0.46822 0.39813 0.0
H549 H 0.99633 0.51879 0.46415 0.0
H550 H 0.9674 0.5204 0.45471 0.0
H551 H 0.98962 0.53745 0.44325 0.0
C552 C 0.91236 0.50176 0.40844 0.0
C553 C 0.9126 0.52416 0.40077 0.0
C554 C 0.93204 0.49226 0.4169 0.0
C555 C 0.95229 0.50496 0.41771 0.0
C556 C 0.95214 0.52779 0.41119 0.0
H557 H 0.0869 0.50021 0.39063 0.0
H558 H 0.04904 0.50748 0.40446 0.0
C559 C 0.93237 0.5374 0.40298 0.0
C560 C 0.97431 0.49334 0.42134 0.0
H561 H 0.02661 0.50149 0.44301 0.0
C562 C 0.97982 0.47497 0.40846 0.0
C563 C 0.991 0.50209 0.43487 0.0
C564 C 0.98565 0.52062 0.45017 0.0
C565 C 0.00214 0.46668 0.40718 0.0
C566 C 0.01929 0.47684 0.41939 0.0
C567 C 0.01341 0.49385 0.43358 0.0
C568 C 0.04362 0.47287 0.41489 0.0
C569 C 0.00752 0.44853 0.39145 0.0
C570 C 0.05337 0.45114 0.4168 0.0
C571 C 0.07497 0.44682 0.40861 0.0
C572 C 0.0871 0.46425 0.39859 0.0
C573 C 0.07788 0.48635 0.39803 0.0
C574 C 0.05632 0.49059 0.40608 0.0
H575 H 0.99269 0.44461 0.38144 0.0
H576 H 0.02196 0.45397 0.38158 0.0
H577 H 0.01258 0.43259 0.39941 0.0
H578 H 0.0439 0.43734 0.42382 0.0
H579 H 0.08179 0.42969 0.40955 0.0
H580 H 0.55647 0.06825 0.62558 0.0
H581 H 0.54028 0.03324 0.61164 0.0
H582 H 0.47629 0.06768 0.60117 0.0
H583 H 0.4922 0.10259 0.61579 0.0
H584 H 0.47057 0.03216 0.62434 0.0
H585 H 0.52228 0.00459 0.55845 0.0
H586 H 0.54066 0.01143 0.57951 0.0
H587 H 0.52326 0.03344 0.56814 0.0
C588 C 0.53914 0.06851 0.61983 0.0
C589 C 0.52546 0.08798 0.62207 0.0
C590 C 0.52996 0.04855 0.61161 0.0
C591 C 0.50713 0.04788 0.6051 0.0
C592 C 0.49397 0.06783 0.60601 0.0
H593 H 0.43423 0.91686 0.61112 0.0
H594 H 0.44159 0.95496 0.59717 0.0
C595 C 0.50303 0.0877 0.61449 0.0
C596 C 0.49606 0.02561 0.60127 0.0
H597 H 0.5055 0.97372 0.57925 0.0
C598 C 0.47769 0.01958 0.61397 0.0
C599 C 0.50528 0.00925 0.58767 0.0
C600 C 0.5238 0.01515 0.57253 0.0
C601 C 0.46983 0.99709 0.61497 0.0
C602 C 0.48045 0.98028 0.6027 0.0
C603 C 0.49751 0.98666 0.58872 0.0
C604 C 0.47684 0.95584 0.60692 0.0
C605 C 0.4516 0.99115 0.63045 0.0
C606 C 0.49454 0.94342 0.61609 0.0
C607 C 0.49045 0.92175 0.624 0.0
C608 C 0.46854 0.91214 0.6229 0.0
C609 C 0.45121 0.92397 0.61245 0.0
C610 C 0.45537 0.94569 0.60445 0.0
H611 H 0.44717 0.0058 0.6405 0.0
H612 H 0.4359 0.98574 0.62228 0.0
H613 H 0.45726 0.97678 0.6403 0.0
H614 H 0.51123 0.95101 0.61814 0.0
H615 H 0.50424 0.91297 0.63173 0.0
H616 H 0.89872 0.51123 0.61718 0.0
H617 H 0.93338 0.52733 0.60225 0.0
H618 H 0.96817 0.4634 0.61201 0.0
H619 H 0.93342 0.44702 0.62628 0.0
H620 H 0.96922 0.53299 0.62508 0.0
H621 H 0.99596 0.48186 0.55854 0.0
H622 H 0.96725 0.48076 0.56856 0.0
H623 H 0.98944 0.46331 0.57957 0.0
C624 C 0.91363 0.50045 0.61566 0.0
C625 C 0.91353 0.47797 0.62315 0.0
C626 C 0.93335 0.50963 0.607 0.0
C627 C 0.95332 0.49654 0.6058 0.0
C628 C 0.95283 0.47367 0.61221 0.0
H629 H 0.08847 0.49935 0.63099 0.0
H630 H 0.05031 0.49245 0.61762 0.0
C631 C 0.93302 0.46438 0.62063 0.0
C632 C 0.9755 0.50771 0.60177 0.0
H633 H 0.02709 0.49855 0.5791 0.0
C634 C 0.98167 0.52598 0.61452 0.0
C635 C 0.99168 0.49863 0.58792 0.0
C636 C 0.9856 0.48022 0.57274 0.0
C637 C 0.00416 0.53388 0.61532 0.0
C638 C 0.02081 0.52339 0.60279 0.0
C639 C 0.01427 0.50645 0.58877 0.0
C640 C 0.04531 0.52697 0.6068 0.0
C641 C 0.01027 0.55198 0.63088 0.0
C642 C 0.0554 0.5485 0.60446 0.0
C643 C 0.07718 0.5526 0.61235 0.0
C644 C 0.08914 0.53516 0.62255 0.0
C645 C 0.07959 0.51322 0.62347 0.0
C646 C 0.05785 0.50918 0.61567 0.0
H647 H 0.99575 0.55628 0.64112 0.0
H648 H 0.0248 0.54626 0.64053 0.0
H649 H 0.01554 0.56776 0.62277 0.0
H650 H 0.04603 0.56234 0.5974 0.0
H651 H 0.08424 0.56961 0.61116 0.0
H652 H 0.55641 0.9369 0.39513 0.0
H653 H 0.53942 0.971 0.41008 0.0
H654 H 0.47733 0.93383 0.42214 0.0
H655 H 0.49402 0.89981 0.40661 0.0
H656 H 0.46941 0.96954 0.3995 0.0
H657 H 0.52227 0.99794 0.46437 0.0
H658 H 0.54019 0.99191 0.4428 0.0
H659 H 0.52381 0.96925 0.45434 0.0
C660 C 0.53934 0.93585 0.40141 0.0
C661 C 0.52639 0.91587 0.39939 0.0
C662 C 0.52973 0.95529 0.41022 0.0
C663 C 0.50718 0.95491 0.4175 0.0
C664 C 0.49479 0.93447 0.41673 0.0
H665 H 0.43167 0.08441 0.41233 0.0
H666 H 0.43945 0.04656 0.42668 0.0
C667 C 0.50429 0.91511 0.40771 0.0
C668 C 0.49541 0.97664 0.42198 0.0
H669 H 0.50407 0.02856 0.44416 0.0
C670 C 0.47647 0.98224 0.40981 0.0
C671 C 0.50453 0.99311 0.43552 0.0
C672 C 0.52367 0.9876 0.45014 0.0
C673 C 0.46799 0.00452 0.40912 0.0
C674 C 0.47858 0.02153 0.42119 0.0
C675 C 0.49611 0.01548 0.43482 0.0
C676 C 0.47468 0.0459 0.41684 0.0
C677 C 0.44922 0.01006 0.39404 0.0
C678 C 0.49223 0.05839 0.40753 0.0
C679 C 0.48791 0.07992 0.39943 0.0
C680 C 0.46591 0.08931 0.40045 0.0
C681 C 0.44871 0.07744 0.41104 0.0
C682 C 0.45311 0.05587 0.41927 0.0
H683 H 0.44476 0.99529 0.38414 0.0
H684 H 0.43367 0.01523 0.40254 0.0
H685 H 0.45435 0.02448 0.38401 0.0
H686 H 0.50899 0.05096 0.40551 0.0
H687 H 0.5016 0.08875 0.3916 0.0
H688 H 0.5933 0.95468 0.92763 0.0
H689 H 0.55748 0.96657 0.94399 0.0
H690 H 0.54386 0.01138 0.89283 0.0
H691 H 0.57982 1.00054 0.87717 0.0
H692 H 0.53218 0.0311 0.92808 0.0
H693 H 0.49699 0.94271 0.92606 0.0
H694 H 0.52199 0.94779 0.9413 0.0
H695 H 0.52363 0.94961 0.9138 0.0
C696 C 0.58261 0.96714 0.92001 0.0
C697 C 0.58913 0.97654 0.90105 0.0
C698 C 0.56218 0.97388 0.92934 0.0
C699 C 0.54781 0.98961 0.9195 0.0
C700 C 0.55471 0.99931 0.90081 0.0
H701 H 0.42336 0.0021 0.87758 0.0
H702 H 0.45955 0.99185 0.89312 0.0
C703 C 0.57521 0.993 0.89177 0.0
C704 C 0.52476 0.99519 0.92732 0.0
H705 H 0.47126 0.97259 0.92878 0.0
C706 C 0.51882 0.01833 0.92876 0.0
C707 C 0.50749 0.97841 0.92867 0.0
C708 C 0.51269 0.95323 0.92732 0.0
C709 C 0.49595 0.02527 0.92834 0.0
C710 C 0.47868 0.00847 0.92739 0.0
C711 C 0.48464 0.98537 0.92916 0.0
C712 C 0.45558 0.01387 0.9196 0.0
C713 C 0.4907 0.05041 0.92666 0.0
C714 C 0.44115 0.02959 0.92936 0.0
C715 C 0.42054 0.03596 0.92013 0.0
C716 C 0.41394 0.02625 0.90132 0.0
C717 C 0.428 0.00987 0.89208 0.0
C718 C 0.44865 0.0039 0.90104 0.0
H719 H 0.50637 0.06094 0.92524 0.0
H720 H 0.47973 0.05377 0.91311 0.0
H721 H 0.48139 0.05606 0.94057 0.0
H722 H 0.44591 0.03713 0.9439 0.0
H723 H 0.40978 0.04838 0.92771 0.0
H724 H 0.95643 0.41049 0.0975 0.0
H725 H 0.96795 0.44636 0.08112 0.0
H726 H 0.01761 0.45708 0.1291 0.0
H727 H 0.00702 0.42113 0.14477 0.0
H728 H 0.96345 0.48663 0.09414 0.0
H729 H 0.05503 0.47688 0.08241 0.0
H730 H 0.03707 0.45256 0.08765 0.0
H731 H 0.04992 0.46854 0.10839 0.0
C732 C 0.97008 0.4204 0.10429 0.0
C733 C 0.98085 0.41307 0.1224 0.0
C734 C 0.97671 0.4408 0.09487 0.0
C735 C 0.9941 0.45419 0.10352 0.0
C736 C 0.00487 0.44668 0.12155 0.0
H737 H 0.99699 0.58151 0.14372 0.0
H738 H 0.98697 0.5455 0.12787 0.0
C739 C 0.99855 0.42621 0.13072 0.0
C740 C 0.99906 0.47743 0.09578 0.0
H741 H 0.04292 0.51539 0.09559 0.0
C742 C 0.98087 0.49281 0.09372 0.0
C743 C 0.02167 0.48565 0.09409 0.0
C744 C 0.04194 0.46986 0.09299 0.0
C745 C 0.98476 0.51637 0.09315 0.0
C746 C 0.00726 0.52462 0.09566 0.0
C747 C 0.02553 0.50921 0.09452 0.0
C748 C 0.01186 0.54796 0.10334 0.0
C749 C 0.96457 0.53212 0.09102 0.0
C750 C 0.02979 0.56116 0.09536 0.0
C751 C 0.03608 0.58158 0.10492 0.0
C752 C 0.02442 0.58915 0.12249 0.0
C753 C 0.00616 0.57624 0.13009 0.0
C754 C 1.00017 0.55574 0.1208 0.0
H755 H 0.95205 0.52497 0.07996 0.0
H756 H 0.95578 0.53362 0.10604 0.0
H757 H 0.96971 0.54937 0.08573 0.0
H758 H 0.03925 0.5554 0.08206 0.0
H759 H 0.05017 0.59131 0.09869 0.0
H760 H 0.41127 0.00556 0.12847 0.0
H761 H 0.44929 0.01227 0.11484 0.0
H762 H 0.4562 0.94065 0.1011 0.0
H763 H 0.41806 0.93368 0.11501 0.0
H764 H 0.48886 0.95638 0.12657 0.0
H765 H 0.48267 0.01462 0.06046 0.0
H766 H 0.46544 0.02466 0.0813 0.0
H767 H 0.45877 0.99779 0.06929 0.0
C768 C 0.42065 0.99128 0.12216 0.0
C769 C 0.41185 0.96903 0.12312 0.0
C770 C 0.44228 0.99521 0.11407 0.0
C771 C 0.45544 0.97701 0.10667 0.0
C772 C 0.44618 0.95495 0.10653 0.0
H773 H 0.60371 0.99235 0.11683 0.0
H774 H 0.56866 0.97628 0.10245 0.0
C775 C 0.42447 0.95099 0.11459 0.0
C776 C 0.48004 0.9806 0.10306 0.0
H777 H 0.51717 0.01837 0.0815 0.0
C778 C 0.49526 0.9694 0.11624 0.0
C779 C 0.48824 0.99757 0.08957 0.0
C780 C 0.4729 0.00916 0.07421 0.0
C781 C 0.51801 0.97634 0.11786 0.0
C782 C 0.52582 0.9946 0.1055 0.0
C783 C 0.51108 0.00448 0.09104 0.0
C784 C 0.54794 0.00573 0.10967 0.0
C785 C 0.53284 0.9654 0.13408 0.0
C786 C 0.54814 0.02814 0.11722 0.0
C787 C 0.56817 0.03749 0.12513 0.0
C788 C 0.58819 0.02442 0.1258 0.0
C789 C 0.58835 0.0026 0.11688 0.0
C790 C 0.56839 0.99341 0.10866 0.0
H791 H 0.52291 0.95429 0.14461 0.0
H792 H 0.54601 0.9547 0.12656 0.0
H793 H 0.54164 0.97859 0.14338 0.0
H794 H 0.53251 0.03795 0.11809 0.0
H795 H 0.56762 0.05441 0.13178 0.0
H796 H 0.93328 0.58175 0.90877 0.0
H797 H 0.94119 0.54366 0.92231 0.0
H798 H 0.01276 0.55289 0.90947 0.0
H799 H 0.00511 0.59092 0.89626 0.0
H800 H 0.95791 0.51227 0.89637 0.0
H801 H 0.01555 0.51804 0.963 0.0
H802 H 0.99839 0.54183 0.95446 0.0
H803 H 0.02542 0.53583 0.94247 0.0
C804 C 0.95077 0.57588 0.90933 0.0
C805 C 0.96854 0.58915 0.90114 0.0
C806 C 0.95526 0.55418 0.91719 0.0
C807 C 0.97758 0.54556 0.91713 0.0
C808 C 0.99549 0.55939 0.91016 0.0
H809 H 0.05594 0.43304 0.89152 0.0
H810 H 0.03976 0.4683 0.90527 0.0
C811 C 0.99103 0.58103 0.90231 0.0
C812 C 0.98174 0.52097 0.92025 0.0
H813 H 0.01972 0.4839 0.94163 0.0
C814 C 0.97092 0.50586 0.90672 0.0
C815 C 0.99874 0.51276 0.93372 0.0
C816 C 0.01 0.52799 0.94937 0.0
C817 C 0.97812 0.48322 0.90488 0.0
C818 C 0.99625 0.47537 0.91737 0.0
C819 C 0.0059 0.49002 0.93203 0.0
C820 C 0.00727 0.45319 0.91332 0.0
C821 C 0.96751 0.46857 0.88835 0.0
C822 C 0.99471 0.43288 0.91416 0.0
C823 C 0.00371 0.41289 0.90587 0.0
C824 C 0.02561 0.41285 0.89712 0.0
C825 C 0.03895 0.43268 0.89804 0.0
C826 C 0.02977 0.45277 0.90599 0.0
H827 H 0.95674 0.47863 0.87765 0.0
H828 H 0.98087 0.45974 0.87927 0.0
H829 H 0.95654 0.45542 0.89558 0.0
H830 H 0.97751 0.43277 0.92021 0.0
H831 H 0.99326 0.39766 0.90572 0.0
H832 H 0.27065 0.40517 0.36579 0.0
H833 H 0.29976 0.37539 0.36557 0.0
H834 H 0.31812 0.39378 0.30367 0.0
H835 H 0.28871 0.4234 0.30365 0.0
H836 H 0.30386 0.33777 0.33856 0.0
H837 H 0.37934 0.3947 0.33435 0.0
H838 H 0.35135 0.40489 0.34132 0.0
H839 H 0.35827 0.39976 0.31486 0.0
C840 C 0.28052 0.40263 0.35198 0.0
C841 C 0.27696 0.41633 0.33455 0.0
C842 C 0.29736 0.38575 0.35197 0.0
C843 C 0.31121 0.38246 0.33466 0.0
C844 C 0.30786 0.39624 0.31731 0.0
H845 H 0.42014 0.28879 0.30252 0.0
H846 H 0.39083 0.31857 0.3031 0.0
C847 C 0.29101 0.41311 0.31731 0.0
C848 C 0.32883 0.36431 0.33462 0.0
H849 H 0.38611 0.35511 0.33004 0.0
C850 C 0.32186 0.34154 0.3368 0.0
C851 C 0.35229 0.36929 0.3323 0.0
C852 C 0.36086 0.39349 0.33075 0.0
C853 C 0.33769 0.32356 0.3363 0.0
C854 C 0.36115 0.32854 0.33392 0.0
C855 C 0.36812 0.35132 0.3318 0.0
C856 C 0.37876 0.31036 0.3336 0.0
C857 C 0.32908 0.29937 0.33783 0.0
C858 C 0.38199 0.29614 0.35068 0.0
C859 C 0.39869 0.27913 0.35037 0.0
C860 C 0.41249 0.27599 0.33296 0.0
C861 C 0.4096 0.29063 0.31607 0.0
C862 C 0.39287 0.30763 0.31638 0.0
H863 H 0.31061 0.29818 0.33421 0.0
H864 H 0.33859 0.28794 0.32729 0.0
H865 H 0.33161 0.29311 0.35374 0.0
H866 H 0.37179 0.29842 0.36438 0.0
H867 H 0.40113 0.2689 0.36399 0.0
H868 H 0.28848 0.58094 0.72072 0.0
H869 H 0.31803 0.61049 0.72064 0.0
H870 H 0.29773 0.63068 0.6597 0.0
H871 H 0.26846 0.60109 0.65957 0.0
H872 H 0.35453 0.61604 0.69364 0.0
H873 H 0.29706 0.69121 0.69105 0.0
H874 H 0.28705 0.663 0.69753 0.0
H875 H 0.29205 0.67059 0.67119 0.0
C876 C 0.29024 0.59177 0.70735 0.0
C877 C 0.27563 0.58912 0.69041 0.0
C878 C 0.3071 0.60865 0.70733 0.0
C879 C 0.30973 0.62315 0.69036 0.0
C880 C 0.29553 0.62018 0.67322 0.0
H881 H 0.40355 0.73248 0.65952 0.0
H882 H 0.37375 0.7034 0.65965 0.0
C883 C 0.27866 0.60332 0.67324 0.0
C884 C 0.32778 0.6409 0.69034 0.0
H885 H 0.33658 0.69835 0.68675 0.0
C886 C 0.35062 0.63405 0.69225 0.0
C887 C 0.32262 0.66438 0.68843 0.0
C888 C 0.29837 0.67283 0.68711 0.0
C889 C 0.36848 0.65001 0.69198 0.0
C890 C 0.36332 0.67349 0.69012 0.0
C891 C 0.34049 0.68034 0.68817 0.0
C892 C 0.38137 0.69124 0.69023 0.0
C893 C 0.39274 0.64157 0.69321 0.0
C894 C 0.39544 0.69421 0.70745 0.0
C895 C 0.41234 0.71105 0.70751 0.0
C896 C 0.41528 0.72546 0.69047 0.0
C897 C 0.40123 0.72234 0.6732 0.0
C898 C 0.38433 0.70551 0.67315 0.0
H899 H 0.39404 0.6232 0.68924 0.0
H900 H 0.40401 0.65142 0.68278 0.0
H901 H 0.39911 0.64378 0.70913 0.0
H902 H 0.39323 0.68363 0.72092 0.0
H903 H 0.42292 0.713 0.72102 0.0
H904 H 0.56653 0.70005 0.34034 0.0
H905 H 0.59647 0.67095 0.34102 0.0
H906 H 0.64716 0.72265 0.32958 0.0
H907 H 0.61737 0.75173 0.32867 0.0
H908 H 0.62696 0.6596 0.30992 0.0
H909 H 0.67329 0.68892 0.37941 0.0
H910 H 0.64489 0.69857 0.37317 0.0
H911 H 0.66916 0.7105 0.3602 0.0
C912 C 0.58408 0.70523 0.33809 0.0
C913 C 0.58961 0.7283 0.335 0.0
C914 C 0.60116 0.6886 0.33851 0.0
C915 C 0.6241 0.69469 0.3358 0.0
C916 C 0.62965 0.71765 0.33234 0.0
H917 H 0.75035 0.61741 0.32755 0.0
H918 H 0.72124 0.64724 0.32836 0.0
C919 C 0.61258 0.7343 0.33193 0.0
C920 C 0.64206 0.67686 0.33571 0.0
H921 H 0.69074 0.65952 0.35995 0.0
C922 C 0.64085 0.65952 0.32091 0.0
C923 C 0.66023 0.67686 0.35001 0.0
C924 C 0.66195 0.69458 0.36673 0.0
C925 C 0.65746 0.64232 0.31984 0.0
C926 C 0.67556 0.64223 0.33421 0.0
C927 C 0.67685 0.65963 0.34896 0.0
C928 C 0.69325 0.62413 0.33423 0.0
C929 C 0.65575 0.62467 0.30306 0.0
C930 C 0.68722 0.60127 0.33753 0.0
C931 C 0.70386 0.5842 0.33724 0.0
C932 C 0.72691 0.58969 0.33397 0.0
C933 C 0.73291 0.61263 0.33076 0.0
C934 C 0.71624 0.62971 0.33102 0.0
H935 H 0.64465 0.63051 0.29028 0.0
H936 H 0.67284 0.62048 0.29678 0.0
H937 H 0.64823 0.60883 0.30946 0.0
H938 H 0.66964 0.59662 0.34039 0.0
H939 H 0.6987 0.56669 0.33979 0.0
H940 H 0.73543 0.40101 0.65991 0.0
H941 H 0.70646 0.37109 0.65958 0.0
H942 H 0.6865 0.38943 0.72107 0.0
H943 H 0.71572 0.41923 0.72164 0.0
H944 H 0.70101 0.33336 0.68614 0.0
H945 H 0.62629 0.39134 0.68904 0.0
H946 H 0.65463 0.40119 0.68284 0.0
H947 H 0.64678 0.39598 0.70909 0.0
C948 C 0.72528 0.3984 0.67354 0.0
C949 C 0.72826 0.4122 0.69099 0.0
C950 C 0.70852 0.38143 0.67323 0.0
C951 C 0.6942 0.37815 0.69022 0.0
C952 C 0.69712 0.39189 0.70766 0.0
H953 H 0.58339 0.28619 0.72032 0.0
H954 H 0.61338 0.31525 0.72021 0.0
C955 C 0.71387 0.40886 0.70798 0.0
C956 C 0.67634 0.36023 0.68979 0.0
H957 H 0.61884 0.35184 0.69324 0.0
C958 C 0.68303 0.33738 0.68758 0.0
C959 C 0.6529 0.36554 0.69165 0.0
C960 C 0.64463 0.38985 0.6931 0.0
C961 C 0.66692 0.31963 0.68768 0.0
C962 C 0.64349 0.32494 0.6897 0.0
C963 C 0.63681 0.3478 0.69178 0.0
C964 C 0.6256 0.30703 0.68977 0.0
C965 C 0.67517 0.29532 0.68613 0.0
C966 C 0.62228 0.29301 0.67257 0.0
C967 C 0.60515 0.2764 0.6726 0.0
C968 C 0.59104 0.27348 0.68985 0.0
C969 C 0.59412 0.28787 0.70687 0.0
C970 C 0.61125 0.30446 0.70684 0.0
H971 H 0.6936 0.29383 0.68987 0.0
H972 H 0.66539 0.28401 0.69658 0.0
H973 H 0.67266 0.28915 0.67019 0.0
H974 H 0.63268 0.29517 0.65898 0.0
H975 H 0.60262 0.26637 0.65888 0.0
H976 H 0.935 0.80298 0.84153 0.0
H977 H 0.90472 0.83172 0.8421 0.0
H978 H 0.8551 0.77994 0.82751 0.0
H979 H 0.88526 0.75121 0.82676 0.0
H980 H 0.87532 0.84425 0.81079 0.0
H981 H 0.8266 0.81103 0.87745 0.0
H982 H 0.85528 0.80186 0.8717 0.0
H983 H 0.83157 0.79046 0.85753 0.0
C984 C 0.91761 0.7977 0.83855 0.0
C985 C 0.91246 0.7747 0.83465 0.0
C986 C 0.90033 0.81413 0.83891 0.0
C987 C 0.87757 0.8079 0.83531 0.0
C988 C 0.87243 0.78503 0.83097 0.0
H989 H 0.75105 0.88498 0.82592 0.0
H990 H 0.78023 0.85519 0.8263 0.0
C991 C 0.88971 0.76858 0.83065 0.0
C992 C 0.85938 0.82552 0.83531 0.0
H993 H 0.80956 0.84116 0.85859 0.0
C994 C 0.86099 0.84363 0.8213 0.0
C995 C 0.84064 0.82463 0.84898 0.0
C996 C 0.83844 0.80608 0.8649 0.0
C997 C 0.84426 0.86073 0.82041 0.0
C998 C 0.8256 0.85991 0.83414 0.0
C999 C 0.82389 0.84174 0.84808 0.0
C1000 C 0.80783 0.87793 0.83442 0.0
C1001 C 0.8465 0.8793 0.8045 0.0
C1002 C 0.8136 0.90055 0.83913 0.0
C1003 C 0.79691 0.91758 0.83913 0.0
C1004 C 0.77406 0.91228 0.83469 0.0
C1005 C 0.76831 0.88957 0.83005 0.0
C1006 C 0.78503 0.87254 0.83006 0.0
H1007 H 0.85819 0.87428 0.79188 0.0
H1008 H 0.82963 0.88366 0.79781 0.0
H1009 H 0.85354 0.89484 0.81186 0.0
H1010 H 0.83102 0.90504 0.84288 0.0
H1011 H 0.80189 0.93489 0.84279 0.0
H1012 H 0.80231 0.06975 0.18258 0.0
H1013 H 0.83049 0.10056 0.1818 0.0
H1014 H 0.77801 0.14919 0.19697 0.0
H1015 H 0.74991 0.11843 0.19838 0.0
H1016 H 0.83059 0.1405 0.15693 0.0
H1017 H 0.82786 0.1612 0.24015 0.0
H1018 H 0.81632 0.13506 0.22985 0.0
H1019 H 0.80075 0.16128 0.22731 0.0
C1020 C 0.79678 0.08701 0.1858 0.0
C1021 C 0.77379 0.09168 0.1902 0.0
C1022 C 0.81288 0.10458 0.18528 0.0
C1023 C 0.80638 0.12713 0.18945 0.0
C1024 C 0.78344 0.13188 0.19388 0.0
H1025 H 0.88516 0.25305 0.19822 0.0
H1026 H 0.85449 0.22482 0.19718 0.0
C1027 C 0.76731 0.1143 0.19436 0.0
C1028 C 0.82363 0.14563 0.18903 0.0
H1029 H 0.85053 0.18498 0.21916 0.0
C1030 C 0.83498 0.15024 0.17053 0.0
C1031 C 0.82922 0.15837 0.20677 0.0
C1032 C 0.81807 0.15368 0.22721 0.0
C1033 C 0.85171 0.16733 0.16925 0.0
C1034 C 0.85758 0.17981 0.18707 0.0
C1035 C 0.84602 0.1754 0.20552 0.0
C1036 C 0.87608 0.19711 0.18705 0.0
C1037 C 0.86267 0.17208 0.14874 0.0
C1038 C 0.89849 0.19088 0.18199 0.0
C1039 C 0.91599 0.20705 0.18232 0.0
C1040 C 0.91147 0.22982 0.18771 0.0
C1041 C 0.88911 0.23592 0.19322 0.0
C1042 C 0.87158 0.21972 0.19288 0.0
H1043 H 0.85187 0.16602 0.13584 0.0
H1044 H 0.86597 0.19058 0.14669 0.0
H1045 H 0.87921 0.16295 0.14788 0.0
H1046 H 0.90251 0.17341 0.17799 0.0
H1047 H 0.93308 0.20174 0.17822 0.0
H1048 H 0.06934 0.1988 0.84182 0.0
H1049 H 0.0997 0.17018 0.84225 0.0
H1050 H 0.14821 0.22112 0.82302 0.0
H1051 H 0.11792 0.24976 0.82237 0.0
H1052 H 0.12727 0.15607 0.81004 0.0
H1053 H 0.17953 0.19268 0.87305 0.0
H1054 H 0.15051 0.20146 0.86825 0.0
H1055 H 0.17329 0.21213 0.85251 0.0
C1056 C 0.0865 0.20394 0.83777 0.0
C1057 C 0.09131 0.22669 0.83256 0.0
C1058 C 0.10383 0.18757 0.83806 0.0
C1059 C 0.12631 0.19361 0.83309 0.0
C1060 C 0.13111 0.21623 0.8275 0.0
H1061 H 0.25191 0.11504 0.82262 0.0
H1062 H 0.223 0.1451 0.82247 0.0
C1063 C 0.11378 0.23262 0.82723 0.0
C1064 C 0.1445 0.176 0.83305 0.0
H1065 H 0.1953 0.16128 0.85507 0.0
C1066 C 0.14211 0.15717 0.81993 0.0
C1067 C 0.1639 0.17752 0.84591 0.0
C1068 C 0.16696 0.19692 0.86087 0.0
C1069 C 0.15868 0.13991 0.81917 0.0
C1070 C 0.17798 0.14133 0.83214 0.0
C1071 C 0.18049 0.16025 0.84514 0.0
C1072 C 0.19559 0.12316 0.83262 0.0
C1073 C 0.15557 0.12049 0.80423 0.0
C1074 C 0.18984 0.1009 0.83861 0.0
C1075 C 0.20638 0.08375 0.8389 0.0
C1076 C 0.22908 0.08856 0.83348 0.0
C1077 C 0.2348 0.11088 0.82751 0.0
C1078 C 0.21823 0.12805 0.82723 0.0
H1079 H 0.14336 0.12493 0.79182 0.0
H1080 H 0.17207 0.11557 0.79716 0.0
H1081 H 0.14872 0.10547 0.81254 0.0
H1082 H 0.17255 0.09682 0.84316 0.0
H1083 H 0.20144 0.06673 0.8436 0.0
H1084 H 0.25026 0.88438 0.19975 0.0
H1085 H 0.22163 0.85409 0.19938 0.0
H1086 H 0.17058 0.90246 0.18013 0.0
H1087 H 0.19922 0.93281 0.18016 0.0
H1088 H 0.1571 0.87465 0.2131 0.0
H1089 H 0.19247 0.82294 0.14915 0.0
H1090 H 0.21229 0.82951 0.16933 0.0
H1091 H 0.20098 0.85209 0.15373 0.0
C1092 C 0.23311 0.8885 0.19492 0.0
C1093 C 0.22718 0.91092 0.18943 0.0
C1094 C 0.21671 0.87116 0.19483 0.0
C1095 C 0.19407 0.87592 0.18933 0.0
C1096 C 0.188 0.89836 0.18425 0.0
H1097 H 0.06675 0.80104 0.18146 0.0
H1098 H 0.09689 0.82987 0.18139 0.0
C1099 C 0.20438 0.91569 0.18431 0.0
C1100 C 0.17647 0.85772 0.18956 0.0
H1101 H 0.16126 0.80718 0.16733 0.0
C1102 C 0.15797 0.85992 0.20306 0.0
C1103 C 0.17771 0.83847 0.17651 0.0
C1104 C 0.19681 0.8356 0.16122 0.0
C1105 C 0.14076 0.84331 0.20402 0.0
C1106 C 0.14184 0.82418 0.19081 0.0
C1107 C 0.16045 0.82186 0.17743 0.0
C1108 C 0.12365 0.80657 0.19049 0.0
C1109 C 0.12179 0.84619 0.21945 0.0
C1110 C 0.12875 0.78376 0.19515 0.0
C1111 C 0.11155 0.7672 0.19509 0.0
C1112 C 0.08897 0.77311 0.19013 0.0
C1113 C 0.08396 0.79596 0.18539 0.0
C1114 C 0.10115 0.81247 0.18541 0.0
H1115 H 0.1267 0.85802 0.23201 0.0
H1116 H 0.10662 0.85343 0.21163 0.0
H1117 H 0.11688 0.82956 0.22629 0.0
H1118 H 0.14598 0.77884 0.19917 0.0
H1119 H 0.11589 0.74994 0.19941 0.0
H1120 H 0.19659 0.52147 0.30362 0.0
H1121 H 0.18742 0.55203 0.2792 0.0
H1122 H 0.11786 0.55222 0.30064 0.0
H1123 H 0.12694 0.52254 0.32529 0.0
H1124 H 0.15924 0.55239 0.24769 0.0
H1125 H 0.13007 0.61892 0.30116 0.0
H1126 H 0.14503 0.59384 0.30987 0.0
H1127 H 0.11461 0.59311 0.3058 0.0
C1128 C 0.17943 0.5283 0.30334 0.0
C1129 C 0.16258 0.51959 0.31659 0.0
C1130 C 0.1742 0.54575 0.28934 0.0
C1131 C 0.15203 0.55487 0.28833 0.0
C1132 C 0.13526 0.54612 0.30152 0.0
H1133 H 0.07415 0.60536 0.18931 0.0
H1134 H 0.09871 0.58432 0.21253 0.0
C1135 C 0.14048 0.52892 0.31556 0.0
C1136 C 0.14575 0.57234 0.27266 0.0
H1137 H 0.11493 0.62129 0.26649 0.0
C1138 C 0.14993 0.56768 0.25185 0.0
C1139 C 0.13412 0.5927 0.27793 0.0
C1140 C 0.13096 0.60004 0.29993 0.0
C1141 C 0.14145 0.58191 0.23622 0.0
C1142 C 0.12778 0.60097 0.24148 0.0
C1143 C 0.125 0.6065 0.26231 0.0
C1144 C 0.11462 0.61417 0.22585 0.0
C1145 C 0.14714 0.57617 0.21424 0.0
C1146 C 0.11489 0.63817 0.22566 0.0
C1147 C 0.10038 0.65042 0.21253 0.0
C1148 C 0.08527 0.63891 0.19932 0.0
C1149 C 0.08563 0.6149 0.1991 0.0
C1150 C 0.09991 0.60274 0.21232 0.0
H1151 H 0.16408 0.56777 0.21316 0.0
H1152 H 0.13429 0.564 0.20822 0.0
H1153 H 0.14724 0.59159 0.20436 0.0
H1154 H 0.12596 0.64745 0.23602 0.0
H1155 H 0.10053 0.66887 0.21317 0.0
H1156 H 0.52655 0.8722 0.69746 0.0
H1157 H 0.55601 0.88087 0.72239 0.0
H1158 H 0.55225 0.81222 0.74585 0.0
H1159 H 0.52183 0.80351 0.72114 0.0
H1160 H 0.55313 0.84117 0.77649 0.0
H1161 H 0.62205 0.86632 0.72393 0.0
H1162 H 0.59706 0.88264 0.71821 0.0
H1163 H 0.59666 0.85209 0.71495 0.0
C1164 C 0.5321 0.85874 0.70768 0.0
C1165 C 0.52178 0.83707 0.70714 0.0
C1166 C 0.5492 0.86372 0.72189 0.0
C1167 C 0.55688 0.84709 0.73575 0.0
C1168 C 0.54681 0.82531 0.7352 0.0
H1169 H 0.66986 0.89884 0.81213 0.0
H1170 H 0.64872 0.87298 0.78944 0.0
C1171 C 0.52944 0.82034 0.72103 0.0
C1172 C 0.57416 0.85325 0.75165 0.0
H1173 H 0.62375 0.88296 0.75814 0.0
C1174 C 0.5688 0.84991 0.77245 0.0
C1175 C 0.595 0.86409 0.74656 0.0
C1176 C 0.60312 0.86623 0.72468 0.0
C1177 C 0.5828 0.85853 0.78817 0.0
C1178 C 0.60235 0.87156 0.783 0.0
C1179 C 0.60857 0.87343 0.76225 0.0
C1180 C 0.61533 0.88506 0.79856 0.0
C1181 C 0.57629 0.85371 0.81014 0.0
C1182 C 0.60374 0.90035 0.81144 0.0
C1183 C 0.61573 0.91484 0.82459 0.0
C1184 C 0.63973 0.91487 0.82493 0.0
C1185 C 0.6514 0.89925 0.81234 0.0
C1186 C 0.63931 0.88449 0.7993 0.0
H1187 H 0.5676 0.83694 0.81147 0.0
H1188 H 0.59139 0.85372 0.82042 0.0
H1189 H 0.56413 0.86692 0.81548 0.0
H1190 H 0.58536 0.90181 0.81077 0.0
H1191 H 0.60607 0.92674 0.83387 0.0
H1192 H 0.86241 0.46545 0.33471 0.0
H1193 H 0.87396 0.4381 0.30852 0.0
H1194 H 0.82296 0.46471 0.26736 0.0
H1195 H 0.81103 0.49224 0.2937 0.0
H1196 H 0.82923 0.41445 0.26664 0.0
H1197 H 0.90983 0.46316 0.25815 0.0
H1198 H 0.9035 0.45468 0.28402 0.0
H1199 H 0.88516 0.47461 0.27111 0.0
C1200 C 0.85335 0.46534 0.32022 0.0
C1201 C 0.83596 0.48129 0.31624 0.0
C1202 C 0.86002 0.44967 0.30525 0.0
C1203 C 0.84961 0.44964 0.28587 0.0
C1204 C 0.83129 0.46452 0.2822 0.0
H1205 H 0.92118 0.39522 0.1801 0.0
H1206 H 0.89709 0.41832 0.20243 0.0
C1207 C 0.82448 0.48022 0.29728 0.0
C1208 C 0.85926 0.43536 0.26914 0.0
H1209 H 0.90796 0.4274 0.24138 0.0
C1210 C 0.84637 0.41732 0.26097 0.0
C1211 C 0.88151 0.43934 0.26156 0.0
C1212 C 0.89578 0.45911 0.26899 0.0
C1213 C 0.85546 0.40275 0.24583 0.0
C1214 C 0.87809 0.40619 0.23888 0.0
C1215 C 0.89066 0.42462 0.24673 0.0
C1216 C 0.88944 0.39099 0.22366 0.0
C1217 C 0.84071 0.38396 0.2373 0.0
C1218 C 0.89274 0.36769 0.22777 0.0
C1219 C 0.90644 0.3543 0.21486 0.0
C1220 C 0.91739 0.36407 0.19776 0.0
C1221 C 0.91315 0.38714 0.19318 0.0
C1222 C 0.89935 0.4004 0.20596 0.0
H1223 H 0.82229 0.38763 0.23957 0.0
H1224 H 0.84394 0.3814 0.22066 0.0
H1225 H 0.84469 0.3678 0.2454 0.0
H1226 H 0.88569 0.36008 0.24151 0.0
H1227 H 0.90944 0.33665 0.21893 0.0
H1228 H 0.33503 0.09306 0.80314 0.0
H1229 H 0.3579 0.11612 0.77939 0.0
H1230 H 0.41665 0.1076 0.81837 0.0
H1231 H 0.39415 0.08445 0.84201 0.0
H1232 H 0.388 0.15656 0.78322 0.0
H1233 H 0.43369 0.0767 0.76285 0.0
H1234 H 0.40713 0.0767 0.77683 0.0
H1235 H 0.43336 0.08337 0.78976 0.0
C1236 C 0.35268 0.09651 0.8069 0.0
C1237 C 0.36281 0.08658 0.82434 0.0
C1238 C 0.36573 0.1097 0.7933 0.0
C1239 C 0.38908 0.11323 0.79694 0.0
C1240 C 0.39876 0.1048 0.81511 0.0
H1241 H 0.49148 0.19039 0.7281 0.0
H1242 H 0.46284 0.17908 0.7536 0.0
C1243 C 0.38581 0.09158 0.82863 0.0
C1244 C 0.40386 0.12357 0.78091 0.0
H1245 H 0.44763 0.11078 0.74834 0.0
C1246 C 0.40104 0.14661 0.77555 0.0
C1247 C 0.42067 0.11046 0.77074 0.0
C1248 C 0.42385 0.08539 0.77515 0.0
C1249 C 0.41485 0.15693 0.76046 0.0
C1250 C 0.43199 0.14389 0.75063 0.0
C1251 C 0.43458 0.12083 0.75592 0.0
C1252 C 0.44719 0.15333 0.73441 0.0
C1253 C 0.41075 0.18153 0.75488 0.0
C1254 C 0.44783 0.14285 0.71506 0.0
C1255 C 0.46424 0.14911 0.70059 0.0
C1256 C 0.4805 0.16604 0.70509 0.0
C1257 C 0.47914 0.1774 0.72408 0.0
C1258 C 0.46271 0.17099 0.73867 0.0
H1259 H 0.39373 0.1875 0.7601 0.0
H1260 H 0.42389 0.19231 0.76237 0.0
H1261 H 0.41207 0.18409 0.73803 0.0
H1262 H 0.43605 0.12921 0.71139 0.0
H1263 H 0.46464 0.14008 0.68609 0.0
H1264 H 0.13732 0.46731 0.68804 0.0
H1265 H 0.12646 0.43891 0.71356 0.0
H1266 H 0.18041 0.46197 0.75339 0.0
H1267 H 0.19165 0.49054 0.72772 0.0
H1268 H 0.17275 0.41183 0.75219 0.0
H1269 H 0.09426 0.46225 0.76662 0.0
H1270 H 0.0989 0.45501 0.74016 0.0
H1271 H 0.1185 0.47373 0.75303 0.0
C1272 C 0.14716 0.46621 0.70207 0.0
C1273 C 0.1652 0.48147 0.70591 0.0
C1274 C 0.14088 0.44993 0.71667 0.0
C1275 C 0.15236 0.44859 0.73551 0.0
C1276 C 0.17127 0.46279 0.73896 0.0
H1277 H 0.08595 0.39127 0.8426 0.0
H1278 H 0.10948 0.41453 0.81993 0.0
C1279 C 0.17767 0.4791 0.72427 0.0
C1280 C 0.14328 0.43369 0.75206 0.0
H1281 H 0.09615 0.42572 0.78194 0.0
C1282 C 0.15608 0.41489 0.75883 0.0
C1283 C 0.12166 0.4379 0.7609 0.0
C1284 C 0.10757 0.45842 0.75498 0.0
C1285 C 0.14749 0.39983 0.77382 0.0
C1286 C 0.12546 0.40359 0.78207 0.0
C1287 C 0.11299 0.42272 0.77559 0.0
C1288 C 0.11464 0.38803 0.79731 0.0
C1289 C 0.16214 0.3802 0.78084 0.0
C1290 C 0.11019 0.36508 0.79251 0.0
C1291 C 0.09681 0.35159 0.8056 0.0
C1292 C 0.08734 0.36091 0.82359 0.0
C1293 C 0.09282 0.38354 0.82883 0.0
C1294 C 0.10629 0.39691 0.81586 0.0
H1295 H 0.18048 0.38337 0.77765 0.0
H1296 H 0.15997 0.37701 0.79752 0.0
H1297 H 0.15702 0.36456 0.77244 0.0
H1298 H 0.11604 0.35792 0.77813 0.0
H1299 H 0.09282 0.33429 0.80102 0.0
H1300 H 0.48037 0.80421 0.30429 0.0
H1301 H 0.44996 0.81285 0.27954 0.0
H1302 H 0.44933 0.88278 0.30004 0.0
H1303 H 0.47871 0.87418 0.32508 0.0
H1304 H 0.4074 0.86855 0.29454 0.0
H1305 H 0.45848 0.84498 0.22591 0.0
H1306 H 0.45394 0.8223 0.24394 0.0
H1307 H 0.4708 0.84662 0.25121 0.0
C1308 C 0.47361 0.82138 0.30358 0.0
C1309 C 0.48211 0.83849 0.31667 0.0
C1310 C 0.45633 0.82635 0.2893 0.0
C1311 C 0.44756 0.84861 0.28759 0.0
C1312 C 0.45573 0.86548 0.30098 0.0
H1313 H 0.39487 0.92781 0.19094 0.0
H1314 H 0.41592 0.90364 0.21452 0.0
C1315 C 0.47265 0.8605 0.31534 0.0
C1316 C 0.43024 0.85496 0.27179 0.0
H1317 H 0.42195 0.85986 0.22004 0.0
C1318 C 0.41046 0.86645 0.27824 0.0
C1319 C 0.43425 0.85231 0.25048 0.0
C1320 C 0.45558 0.84107 0.24239 0.0
C1321 C 0.3953 0.87642 0.26412 0.0
C1322 C 0.3995 0.87411 0.2428 0.0
C1323 C 0.41864 0.86156 0.23634 0.0
C1324 C 0.38611 0.88696 0.2271 0.0
C1325 C 0.37581 0.89056 0.2723 0.0
C1326 C 0.36221 0.88528 0.22572 0.0
C1327 C 0.34994 0.89952 0.21234 0.0
C1328 C 0.36139 0.91537 0.1998 0.0
C1329 C 0.38538 0.91593 0.20037 0.0
C1330 C 0.39753 0.90201 0.21389 0.0
H1331 H 0.37808 0.89485 0.28878 0.0
H1332 H 0.37404 0.9067 0.26354 0.0
H1333 H 0.35969 0.8808 0.27077 0.0
H1334 H 0.35299 0.87334 0.23527 0.0
H1335 H 0.3315 0.89845 0.21215 0.0
H1336 H 0.86409 0.53672 0.68932 0.0
H1337 H 0.87482 0.56486 0.71511 0.0
H1338 H 0.82097 0.54112 0.75468 0.0
H1339 H 0.8099 0.51274 0.72877 0.0
H1340 H 0.82868 0.59184 0.75331 0.0
H1341 H 0.90663 0.54077 0.76852 0.0
H1342 H 0.90202 0.5479 0.74202 0.0
H1343 H 0.88232 0.52937 0.75497 0.0
C1344 C 0.85425 0.53761 0.70336 0.0
C1345 C 0.83628 0.52221 0.70704 0.0
C1346 C 0.86044 0.55375 0.7181 0.0
C1347 C 0.84893 0.55485 0.73693 0.0
C1348 C 0.83012 0.54049 0.74025 0.0
H1349 H 0.91375 0.61144 0.84509 0.0
H1350 H 0.89025 0.58859 0.82206 0.0
C1351 C 0.82382 0.52429 0.72542 0.0
C1352 C 0.85791 0.56966 0.75359 0.0
H1353 H 0.90466 0.57715 0.78406 0.0
C1354 C 0.84522 0.58861 0.76016 0.0
C1355 C 0.87936 0.56525 0.76268 0.0
C1356 C 0.89335 0.54462 0.75687 0.0
C1357 C 0.85376 0.6036 0.77524 0.0
C1358 C 0.8756 0.5996 0.78378 0.0
C1359 C 0.88797 0.58033 0.77748 0.0
C1360 C 0.88633 0.61503 0.79918 0.0
C1361 C 0.83927 0.62345 0.78202 0.0
C1362 C 0.89144 0.63783 0.79434 0.0
C1363 C 0.90484 0.65109 0.80762 0.0
C1364 C 0.91362 0.64167 0.82586 0.0
C1365 C 0.90741 0.61924 0.83113 0.0
C1366 C 0.89396 0.6061 0.81796 0.0
H1367 H 0.82097 0.62065 0.7784 0.0
H1368 H 0.84104 0.62648 0.79877 0.0
H1369 H 0.84492 0.63905 0.77385 0.0
H1370 H 0.88612 0.64502 0.7798 0.0
H1371 H 0.90941 0.66823 0.80301 0.0
H1372 H 0.53458 0.13852 0.33619 0.0
H1373 H 0.56365 0.12748 0.31141 0.0
H1374 H 0.53887 0.17835 0.26916 0.0
H1375 H 0.50978 0.18985 0.29417 0.0
H1376 H 0.55325 0.10965 0.27418 0.0
H1377 H 0.60803 0.18605 0.26426 0.0
H1378 H 0.58887 0.18269 0.28576 0.0
H1379 H 0.57803 0.19117 0.26113 0.0
C1380 C 0.53552 0.14771 0.3218 0.0
C1381 C 0.51971 0.16501 0.31715 0.0
C1382 C 0.55221 0.14135 0.30762 0.0
C1383 C 0.55356 0.15209 0.28841 0.0
C1384 C 0.53846 0.17006 0.284 0.0
H1385 H 0.60913 0.08382 0.18153 0.0
H1386 H 0.58603 0.10662 0.20495 0.0
C1387 C 0.52176 0.17657 0.29831 0.0
C1388 C 0.56915 0.14269 0.27247 0.0
H1389 H 0.61409 0.15536 0.24094 0.0
C1390 C 0.56656 0.11968 0.26697 0.0
C1391 C 0.58664 0.1557 0.26311 0.0
C1392 C 0.59078 0.18022 0.26895 0.0
C1393 C 0.58082 0.10935 0.2524 0.0
C1394 C 0.59798 0.12245 0.24268 0.0
C1395 C 0.60079 0.14542 0.24826 0.0
C1396 C 0.61312 0.11217 0.22689 0.0
C1397 C 0.57763 0.08433 0.24778 0.0
C1398 C 0.6364 0.10872 0.2309 0.0
C1399 C 0.6498 0.09573 0.21742 0.0
C1400 C 0.64009 0.08594 0.19972 0.0
C1401 C 0.61715 0.09084 0.19511 0.0
C1402 C 0.60386 0.10386 0.20851 0.0
H1403 H 0.56751 0.07559 0.25986 0.0
H1404 H 0.56841 0.08246 0.233 0.0
H1405 H 0.59434 0.07557 0.24632 0.0
H1406 H 0.64392 0.11506 0.24497 0.0
H1407 H 0.6674 0.09235 0.22144 0.0
H1408 H 0.59391 0.16623 0.71855 0.0
H1409 H 0.61778 0.14306 0.74131 0.0
H1410 H 0.60931 0.08534 0.70106 0.0
H1411 H 0.58529 0.10815 0.67845 0.0
H1412 H 0.59677 0.07612 0.74044 0.0
H1413 H 0.68235 0.11638 0.73967 0.0
H1414 H 0.65935 0.13587 0.74456 0.0
H1415 H 0.6612 0.12183 0.7201 0.0
C1416 C 0.59758 0.14877 0.71427 0.0
C1417 C 0.58748 0.13903 0.69673 0.0
C1418 C 0.61134 0.13555 0.72727 0.0
C1419 C 0.61546 0.11245 0.72286 0.0
C1420 C 0.6064 0.10311 0.70479 0.0
H1421 H 0.69071 0.00881 0.79279 0.0
H1422 H 0.67997 0.03676 0.76634 0.0
C1423 C 0.59263 0.11622 0.69186 0.0
C1424 C 0.62668 0.09727 0.73815 0.0
H1425 H 0.6754 0.08891 0.7661 0.0
C1426 C 0.61404 0.07885 0.74589 0.0
C1427 C 0.64925 0.10073 0.74523 0.0
C1428 C 0.66395 0.11964 0.73685 0.0
C1429 C 0.62309 0.06413 0.76076 0.0
C1430 C 0.64534 0.06802 0.76838 0.0
C1431 C 0.65828 0.08608 0.76034 0.0
C1432 C 0.65478 0.05372 0.78516 0.0
C1433 C 0.60871 0.04449 0.7683 0.0
C1434 C 0.64482 0.0546 0.80469 0.0
C1435 C 0.6508 0.03871 0.81971 0.0
C1436 C 0.66701 0.02161 0.81559 0.0
C1437 C 0.67818 0.02175 0.79647 0.0
C1438 C 0.67206 0.03769 0.78134 0.0
H1439 H 0.59428 0.04079 0.75775 0.0
H1440 H 0.61916 0.02882 0.77001 0.0
H1441 H 0.60153 0.04882 0.78357 0.0
H1442 H 0.63162 0.06699 0.80803 0.0
H1443 H 0.64203 0.0393 0.83433 0.0
H1444 H 0.11672 0.40507 0.3449 0.0
H1445 H 0.0952 0.38095 0.32117 0.0
H1446 H 0.14802 0.38864 0.27576 0.0
H1447 H 0.16992 0.41259 0.29952 0.0
H1448 H 0.09754 0.40509 0.26775 0.0
H1449 H 0.10769 0.31467 0.29214 0.0
H1450 H 0.10483 0.33645 0.31152 0.0
H1451 H 0.12997 0.3356 0.29593 0.0
C1452 C 0.1241 0.40112 0.33008 0.0
C1453 C 0.14501 0.41087 0.32407 0.0
C1454 C 0.11178 0.38727 0.31657 0.0
C1455 C 0.12006 0.38296 0.29677 0.0
C1456 C 0.14146 0.39161 0.29107 0.0
H1457 H 0.0467 0.34818 0.18538 0.0
H1458 H 0.07633 0.35784 0.21026 0.0
C1459 C 0.15397 0.40526 0.30469 0.0
C1460 C 0.10489 0.37246 0.2812 0.0
H1461 H 0.08106 0.32214 0.26568 0.0
C1462 C 0.09407 0.38693 0.26714 0.0
C1463 C 0.10006 0.34887 0.28083 0.0
C1464 C 0.11123 0.33282 0.29582 0.0
C1465 C 0.07832 0.37853 0.2528 0.0
C1466 C 0.07385 0.35478 0.25196 0.0
C1467 C 0.08463 0.34027 0.26615 0.0
C1468 C 0.05779 0.34502 0.23656 0.0
C1469 C 0.06604 0.3954 0.23921 0.0
C1470 C 0.03826 0.33293 0.24279 0.0
C1471 C 0.02151 0.32678 0.22842 0.0
C1472 C 0.02397 0.33286 0.20767 0.0
C1473 C 0.04423 0.34352 0.20132 0.0
C1474 C 0.0611 0.34922 0.21555 0.0
H1475 H 0.06617 0.41282 0.2459 0.0
H1476 H 0.07476 0.39627 0.22412 0.0
H1477 H 0.04805 0.39025 0.23664 0.0
H1478 H 0.03541 0.32931 0.25889 0.0
H1479 H 0.00602 0.31864 0.23374 0.0
H1480 H 0.4129 0.88902 0.6792 0.0
H1481 H 0.38945 0.91165 0.70248 0.0
H1482 H 0.38697 0.8555 0.74507 0.0
H1483 H 0.41045 0.83252 0.72175 0.0
H1484 H 0.34375 0.88435 0.74023 0.0
H1485 H 0.42343 0.93256 0.75655 0.0
H1486 H 0.41592 0.92977 0.72991 0.0
H1487 H 0.42359 0.90489 0.74442 0.0
C1488 C 0.407 0.88123 0.6933 0.0
C1489 C 0.41387 0.85902 0.69872 0.0
C1490 C 0.39356 0.89423 0.70659 0.0
C1491 C 0.38674 0.88537 0.72561 0.0
C1492 C 0.39208 0.86265 0.73045 0.0
H1493 H 0.3622 0.96259 0.83529 0.0
H1494 H 0.37201 0.93363 0.81002 0.0
C1495 C 0.40551 0.84954 0.7171 0.0
C1496 C 0.37658 0.9007 0.74127 0.0
H1497 H 0.38976 0.94595 0.77203 0.0
C1498 C 0.35374 0.89784 0.74722 0.0
C1499 C 0.38974 0.91814 0.75047 0.0
C1500 C 0.41458 0.92153 0.7452 0.0
C1501 C 0.34368 0.91218 0.76205 0.0
C1502 C 0.35682 0.9298 0.77103 0.0
C1503 C 0.37966 0.9325 0.76508 0.0
C1504 C 0.34783 0.94522 0.78725 0.0
C1505 C 0.31928 0.90815 0.76832 0.0
C1506 C 0.33047 0.9611 0.78309 0.0
C1507 C 0.3247 0.97781 0.79765 0.0
C1508 C 0.3364 0.97901 0.81649 0.0
C1509 C 0.35295 0.96234 0.82089 0.0
C1510 C 0.35859 0.9457 0.80646 0.0
H1511 H 0.31294 0.89127 0.76307 0.0
H1512 H 0.31746 0.90921 0.78526 0.0
H1513 H 0.30833 0.92155 0.76144 0.0
H1514 H 0.32216 0.96129 0.76825 0.0
H1515 H 0.31197 0.99046 0.79373 0.0
H1516 H 0.96073 0.64234 0.18892 0.0
H1517 H 0.93237 0.63224 0.21467 0.0
H1518 H 0.96306 0.67932 0.25733 0.0
H1519 H 0.99153 0.68983 0.23137 0.0
H1520 H 0.94499 0.61219 0.25107 0.0
H1521 H 0.89423 0.69049 0.26575 0.0
H1522 H 0.91138 0.68682 0.24296 0.0
H1523 H 0.92467 0.69396 0.26694 0.0
C1524 C 0.96124 0.65094 0.20362 0.0
C1525 C 0.97855 0.66679 0.20811 0.0
C1526 C 0.94495 0.64514 0.21834 0.0
C1527 C 0.94551 0.65501 0.23794 0.0
C1528 C 0.96204 0.67172 0.24221 0.0
H1529 H 0.89203 0.58539 0.34501 0.0
H1530 H 0.91479 0.60889 0.32186 0.0
C1531 C 0.97836 0.67768 0.22736 0.0
C1532 C 0.93048 0.64571 0.25433 0.0
H1533 H 0.88757 0.65892 0.28788 0.0
C1534 C 0.93244 0.62245 0.25909 0.0
C1535 C 0.91403 0.65905 0.26474 0.0
C1536 C 0.91072 0.68394 0.25979 0.0
C1537 C 0.91848 0.61215 0.2739 0.0
C1538 C 0.90228 0.62551 0.28457 0.0
C1539 C 0.90014 0.64877 0.2798 0.0
C1540 C 0.88734 0.61514 0.30044 0.0
C1541 C 0.92094 0.58688 0.27778 0.0
C1542 C 0.86401 0.6118 0.29661 0.0
C1543 C 0.85083 0.59836 0.3099 0.0
C1544 C 0.86081 0.58801 0.32722 0.0
C1545 C 0.88379 0.59285 0.33173 0.0
C1546 C 0.89688 0.6063 0.3185 0.0
H1547 H 0.93064 0.57824 0.26537 0.0
H1548 H 0.93021 0.5842 0.29242 0.0
H1549 H 0.90396 0.57864 0.27915 0.0
H1550 H 0.85631 0.61852 0.28276 0.0
H1551 H 0.8332 0.59506 0.30596 0.0
H1552 H 0.6923 0.99067 0.22996 0.0
H1553 H 0.68143 0.96175 0.25537 0.0
H1554 H 0.63233 0.93406 0.21289 0.0
H1555 H 0.64278 0.9629 0.18768 0.0
H1556 H 0.61354 0.94568 0.24989 0.0
H1557 H 0.69082 0.89261 0.2619 0.0
H1558 H 0.69522 0.92285 0.26399 0.0
H1559 H 0.68719 0.91076 0.23972 0.0
C1560 C 0.6796 0.97806 0.22586 0.0
C1561 C 0.6683 0.97924 0.20682 0.0
C1562 C 0.67344 0.96148 0.24039 0.0
C1563 C 0.6561 0.94564 0.23604 0.0
C1564 C 0.64573 0.94608 0.21663 0.0
H1565 H 0.5943 0.83386 0.30412 0.0
H1566 H 0.61765 0.85637 0.28032 0.0
C1567 C 0.65175 0.96264 0.20221 0.0
C1568 C 0.64678 0.93033 0.25223 0.0
H1569 H 0.6598 0.88643 0.28483 0.0
C1570 C 0.62368 0.93271 0.25747 0.0
C1571 C 0.65997 0.91332 0.26208 0.0
C1572 C 0.68464 0.90951 0.25657 0.0
C1573 C 0.61344 0.91872 0.27229 0.0
C1574 C 0.62668 0.902 0.28244 0.0
C1575 C 0.64974 0.89938 0.27713 0.0
C1576 C 0.61642 0.8872 0.29849 0.0
C1577 C 0.58838 0.92174 0.27682 0.0
C1578 C 0.60884 0.8968 0.31697 0.0
C1579 C 0.59549 0.88406 0.33055 0.0
C1580 C 0.58946 0.86137 0.32596 0.0
C1581 C 0.59856 0.85126 0.30815 0.0
C1582 C 0.61191 0.8641 0.29451 0.0
H1583 H 0.57964 0.93197 0.26481 0.0
H1584 H 0.57974 0.90495 0.27808 0.0
H1585 H 0.58638 0.93072 0.29171 0.0
H1586 H 0.61232 0.91453 0.32043 0.0
H1587 H 0.58901 0.89238 0.34419 0.0
H1588 H 0.9628 0.35705 0.83492 0.0
H1589 H 0.93437 0.36792 0.80948 0.0
H1590 H 0.96457 0.32171 0.7658 0.0
H1591 H 0.99315 0.31044 0.79145 0.0
H1592 H 0.9474 0.38872 0.77327 0.0
H1593 H 0.89532 0.3115 0.75752 0.0
H1594 H 0.91244 0.31455 0.78042 0.0
H1595 H 0.92573 0.30768 0.7564 0.0
C1596 C 0.96317 0.34878 0.82006 0.0
C1597 C 0.98039 0.33298 0.81519 0.0
C1598 C 0.94685 0.35503 0.80552 0.0
C1599 C 0.94728 0.34566 0.78572 0.0
C1600 C 0.96367 0.32894 0.78107 0.0
H1601 H 0.89384 0.41786 0.67995 0.0
H1602 H 0.91655 0.39396 0.70282 0.0
C1603 C 0.98004 0.32254 0.79574 0.0
C1604 C 0.93229 0.35552 0.76956 0.0
H1605 H 0.8888 0.34373 0.73617 0.0
C1606 C 0.9346 0.37884 0.76518 0.0
C1607 C 0.91552 0.34267 0.75907 0.0
C1608 C 0.91187 0.31774 0.76363 0.0
C1609 C 0.92067 0.38968 0.75066 0.0
C1610 C 0.90411 0.37682 0.73992 0.0
C1611 C 0.90163 0.3535 0.74432 0.0
C1612 C 0.88919 0.38775 0.72433 0.0
C1613 C 0.92353 0.41497 0.74716 0.0
C1614 C 0.86594 0.39132 0.72833 0.0
C1615 C 0.85279 0.405 0.71521 0.0
C1616 C 0.86272 0.41536 0.69788 0.0
C1617 C 0.88565 0.4104 0.69325 0.0
C1618 C 0.8987 0.39672 0.70631 0.0
H1619 H 0.93351 0.42319 0.75962 0.0
H1620 H 0.9327 0.41778 0.73248 0.0
H1621 H 0.90668 0.42353 0.74606 0.0
H1622 H 0.85827 0.38451 0.74216 0.0
H1623 H 0.8352 0.4084 0.71924 0.0
H1624 H 0.31022 0.00979 0.22925 0.0
H1625 H 0.32054 0.03898 0.25466 0.0
H1626 H 0.36752 0.06886 0.21147 0.0
H1627 H 0.35757 0.03986 0.18625 0.0
H1628 H 0.38745 0.05652 0.2485 0.0
H1629 H 0.3095 0.10846 0.26145 0.0
H1630 H 0.30583 0.07804 0.26281 0.0
H1631 H 0.31343 0.09105 0.23883 0.0
C1632 C 0.32229 0.02295 0.225 0.0
C1633 C 0.3332 0.02235 0.20577 0.0
C1634 C 0.32815 0.03966 0.23953 0.0
C1635 C 0.3448 0.05616 0.23496 0.0
C1636 C 0.35466 0.05631 0.21536 0.0
H1637 H 0.40684 0.16881 0.30158 0.0
H1638 H 0.38343 0.14594 0.27807 0.0
C1639 C 0.34894 0.03966 0.20095 0.0
C1640 C 0.35409 0.07154 0.25109 0.0
H1641 H 0.34103 0.11559 0.28349 0.0
C1642 C 0.37727 0.06943 0.25612 0.0
C1643 C 0.34084 0.08846 0.26096 0.0
C1644 C 0.31605 0.09187 0.2557 0.0
C1645 C 0.38755 0.08366 0.27073 0.0
C1646 C 0.37428 0.10036 0.28085 0.0
C1647 C 0.35111 0.10267 0.27579 0.0
C1648 C 0.38461 0.11541 0.29666 0.0
C1649 C 0.41269 0.0809 0.27508 0.0
C1650 C 0.39224 0.10609 0.31525 0.0
C1651 C 0.40562 0.11903 0.32864 0.0
C1652 C 0.41165 0.14164 0.32376 0.0
C1653 C 0.40257 0.15147 0.30582 0.0
C1654 C 0.38918 0.13843 0.29236 0.0
H1655 H 0.42137 0.07049 0.26317 0.0
H1656 H 0.42121 0.09778 0.27598 0.0
H1657 H 0.41492 0.07226 0.2901 0.0
H1658 H 0.38874 0.08842 0.31894 0.0
H1659 H 0.41209 0.11093 0.3424 0.0
H1660 H 0.01198 0.69211 0.79607 0.0
H1661 H 0.04056 0.68127 0.77026 0.0
H1662 H 0.06405 0.62712 0.80964 0.0
H1663 H 0.03571 0.63761 0.83532 0.0
H1664 H 0.09145 0.67342 0.77201 0.0
H1665 H 0.04011 0.59587 0.7558 0.0
H1666 H 0.02869 0.62014 0.76939 0.0
H1667 H 0.04698 0.60026 0.78238 0.0
C1668 C 0.02352 0.67817 0.79939 0.0
C1669 C 0.02131 0.66555 0.81768 0.0
C1670 C 0.03984 0.67201 0.78463 0.0
C1671 C 0.05419 0.65319 0.78793 0.0
C1672 C 0.05295 0.64152 0.80667 0.0
H1673 H 0.16768 0.59251 0.72219 0.0
H1674 H 0.14446 0.61568 0.74549 0.0
C1675 C 0.03669 0.64757 0.82135 0.0
C1676 C 0.06909 0.64433 0.7713 0.0
H1677 H 0.07661 0.59785 0.74051 0.0
C1678 C 0.08818 0.65698 0.76499 0.0
C1679 C 0.06465 0.62299 0.76201 0.0
C1680 C 0.0439 0.60905 0.76756 0.0
C1681 C 0.10328 0.64851 0.74997 0.0
C1682 C 0.09922 0.62678 0.74122 0.0
C1683 C 0.07982 0.61446 0.74725 0.0
C1684 C 0.11471 0.61615 0.72583 0.0
C1685 C 0.1233 0.66293 0.74347 0.0
C1686 C 0.10591 0.60895 0.70687 0.0
C1687 C 0.11904 0.59558 0.69364 0.0
C1688 C 0.14134 0.58901 0.69904 0.0
C1689 C 0.15064 0.59736 0.71748 0.0
C1690 C 0.13739 0.61069 0.73081 0.0
H1691 H 0.12066 0.68119 0.74734 0.0
H1692 H 0.13881 0.65698 0.75162 0.0
H1693 H 0.12638 0.66141 0.72672 0.0
H1694 H 0.08848 0.61293 0.70266 0.0
H1695 H 0.11133 0.58959 0.67952 0.0
H1696 H 0.22681 0.49813 0.60338 0.0
H1697 H 0.2362 0.48795 0.56772 0.0
H1698 H 0.19971 0.54721 0.54633 0.0
H1699 H 0.19048 0.55735 0.58182 0.0
H1700 H 0.20289 0.47835 0.53833 0.0
H1701 H 0.25761 0.54912 0.51137 0.0
H1702 H 0.253 0.54324 0.53828 0.0
H1703 H 0.23205 0.55879 0.52376 0.0
C1704 C 0.22153 0.50934 0.59105 0.0
C1705 C 0.20829 0.52872 0.59526 0.0
C1706 C 0.22674 0.50345 0.57071 0.0
C1707 C 0.21895 0.51698 0.55432 0.0
C1708 C 0.2064 0.5368 0.55867 0.0
H1709 H 0.19015 0.51352 0.42691 0.0
H1710 H 0.19952 0.52285 0.46254 0.0
C1711 C 0.2011 0.54257 0.57893 0.0
C1712 C 0.22159 0.50927 0.53267 0.0
H1713 H 0.23908 0.52692 0.48522 0.0
C1714 C 0.21121 0.48872 0.52676 0.0
C1715 C 0.23232 0.52287 0.51756 0.0
C1716 C 0.24457 0.54464 0.52307 0.0
C1717 C 0.21014 0.48203 0.50605 0.0
C1718 C 0.22022 0.49603 0.49082 0.0
C1719 C 0.23139 0.51615 0.49685 0.0
C1720 C 0.21735 0.49123 0.4685 0.0
C1721 C 0.19704 0.46073 0.50056 0.0
C1722 C 0.22505 0.47073 0.45965 0.0
C1723 C 0.2196 0.46536 0.43923 0.0
C1724 C 0.20644 0.48042 0.42741 0.0
C1725 C 0.20013 0.50154 0.43583 0.0
C1726 C 0.2055 0.50688 0.45616 0.0
H1727 H 0.18637 0.45457 0.51351 0.0
H1728 H 0.18581 0.46378 0.48711 0.0
H1729 H 0.20922 0.44699 0.49649 0.0
H1730 H 0.23467 0.45861 0.46871 0.0
H1731 H 0.22475 0.44903 0.433 0.0
H1732 H 0.49007 0.81035 0.42791 0.0
H1733 H 0.48156 0.80067 0.46359 0.0
H1734 H 0.5467 0.76699 0.46881 0.0
H1735 H 0.55546 0.77727 0.433 0.0
H1736 H 0.47865 0.7611 0.48614 0.0
H1737 H 0.55042 0.81509 0.51374 0.0
H1738 H 0.54087 0.81552 0.48744 0.0
H1739 H 0.55812 0.79235 0.49663 0.0
C1740 C 0.50243 0.80061 0.43661 0.0
C1741 C 0.52353 0.79479 0.42787 0.0
C1742 C 0.49756 0.79505 0.45699 0.0
C1743 C 0.51367 0.78353 0.46908 0.0
C1744 C 0.5342 0.77634 0.45994 0.0
H1745 H 0.50749 0.77489 0.60413 0.0
H1746 H 0.51784 0.76533 0.56853 0.0
C1747 C 0.53911 0.78197 0.43946 0.0
C1748 C 0.50926 0.78052 0.49144 0.0
H1749 H 0.52697 0.79852 0.53876 0.0
C1750 C 0.48938 0.76904 0.49766 0.0
C1751 C 0.52321 0.79093 0.50654 0.0
C1752 C 0.54425 0.80433 0.50085 0.0
C1753 C 0.48281 0.76819 0.51841 0.0
C1754 C 0.49631 0.77931 0.53337 0.0
C1755 C 0.51667 0.78993 0.52729 0.0
C1756 C 0.48861 0.78212 0.555 0.0
C1757 C 0.46126 0.75567 0.52411 0.0
C1758 C 0.46865 0.79449 0.55925 0.0
C1759 C 0.46279 0.7999 0.57947 0.0
C1760 C 0.47671 0.793 0.59586 0.0
C1761 C 0.49625 0.77995 0.59175 0.0
C1762 C 0.50223 0.77465 0.57145 0.0
H1763 H 0.45691 0.74244 0.51255 0.0
H1764 H 0.46287 0.74742 0.53939 0.0
H1765 H 0.44691 0.76798 0.52476 0.0
H1766 H 0.45816 0.80093 0.54685 0.0
H1767 H 0.44788 0.81035 0.58227 0.0
H1768 H 0.78533 0.55725 0.43729 0.0
H1769 H 0.77793 0.54674 0.4733 0.0
H1770 H 0.78874 0.47597 0.45828 0.0
H1771 H 0.79622 0.48647 0.42247 0.0
H1772 H 0.74728 0.51112 0.49444 0.0
H1773 H 0.84066 0.4959 0.49985 0.0
H1774 H 0.82802 0.51241 0.47942 0.0
H1775 H 0.82636 0.48185 0.47898 0.0
C1776 C 0.78529 0.53941 0.44162 0.0
C1777 C 0.79114 0.52261 0.42723 0.0
C1778 C 0.78117 0.53343 0.46215 0.0
C1779 C 0.783 0.51059 0.46847 0.0
C1780 C 0.78732 0.49368 0.45373 0.0
H1781 H 0.80542 0.44252 0.58423 0.0
H1782 H 0.79713 0.45159 0.54827 0.0
C1783 C 0.79144 0.49965 0.4333 0.0
C1784 C 0.78313 0.50462 0.49063 0.0
H1785 H 0.81854 0.48598 0.52867 0.0
C1786 C 0.76282 0.50567 0.502 0.0
C1787 C 0.80347 0.49762 0.50044 0.0
C1788 C 0.82595 0.49701 0.48916 0.0
C1789 C 0.76224 0.49927 0.52286 0.0
C1790 C 0.78259 0.49203 0.53261 0.0
C1791 C 0.80289 0.49131 0.5212 0.0
C1792 C 0.7836 0.4852 0.55463 0.0
C1793 C 0.73979 0.49978 0.53412 0.0
C1794 C 0.77817 0.50078 0.57031 0.0
C1795 C 0.78264 0.49543 0.59091 0.0
C1796 C 0.79272 0.4745 0.59609 0.0
C1797 C 0.79724 0.45858 0.58057 0.0
C1798 C 0.79266 0.46384 0.56004 0.0
H1799 H 0.72511 0.49958 0.52334 0.0
H1800 H 0.73825 0.48505 0.54474 0.0
H1801 H 0.73875 0.51566 0.54332 0.0
H1802 H 0.77171 0.51756 0.56656 0.0
H1803 H 0.77956 0.50815 0.60263 0.0
H1804 H 0.4428 0.19087 0.44047 0.0
H1805 H 0.45307 0.1987 0.47622 0.0
H1806 H 0.51389 0.23335 0.45591 0.0
H1807 H 0.50334 0.22576 0.42003 0.0
H1808 H 0.49158 0.18102 0.49299 0.0
H1809 H 0.49187 0.27507 0.50225 0.0
H1810 H 0.47753 0.26097 0.48124 0.0
H1811 H 0.50791 0.26488 0.48063 0.0
C1812 C 0.45792 0.20088 0.44367 0.0
C1813 C 0.47212 0.20803 0.42758 0.0
C1814 C 0.46386 0.20524 0.46407 0.0
C1815 C 0.48418 0.21676 0.46882 0.0
C1816 C 0.49789 0.22487 0.45267 0.0
H1817 H 0.55908 0.19283 0.58145 0.0
H1818 H 0.54851 0.20031 0.54566 0.0
C1819 C 0.49187 0.22057 0.43218 0.0
C1820 C 0.49224 0.21763 0.4905 0.0
H1821 H 0.50854 0.25337 0.52937 0.0
C1822 C 0.49519 0.19688 0.50093 0.0
C1823 C 0.49688 0.23829 0.50094 0.0
C1824 C 0.49321 0.2611 0.49079 0.0
C1825 C 0.50278 0.19617 0.52134 0.0
C1826 C 0.508 0.21677 0.53162 0.0
C1827 C 0.50478 0.23759 0.52138 0.0
C1828 C 0.51648 0.21662 0.55314 0.0
C1829 C 0.50489 0.17331 0.53184 0.0
C1830 C 0.50258 0.22441 0.56924 0.0
C1831 C 0.50875 0.22035 0.58972 0.0
C1832 C 0.52895 0.20854 0.59431 0.0
C1833 C 0.54356 0.20219 0.57824 0.0
C1834 C 0.53745 0.20631 0.55783 0.0
H1835 H 0.49537 0.15976 0.52355 0.0
H1836 H 0.52312 0.16827 0.53239 0.0
H1837 H 0.49846 0.17418 0.54786 0.0
H1838 H 0.48631 0.23236 0.56595 0.0
H1839 H 0.49707 0.22506 0.60187 0.0
H1840 H 0.68385 0.94922 0.94174 0.0
H1841 H 0.69147 0.95998 0.9774 0.0
H1842 H 0.73587 0.01384 0.95661 0.0
H1843 H 0.72851 0.00273 0.92074 0.0
H1844 H 0.75099 0.9911 0.99393 0.0
H1845 H 0.66075 0.01909 0.99764 0.0
H1846 H 0.6642 0.98987 0.99005 0.0
H1847 H 0.67473 0.01227 0.97375 0.0
C1848 C 0.69579 0.96289 0.94484 0.0
C1849 C 0.70571 0.97508 0.92859 0.0
C1850 C 0.69999 0.96915 0.96518 0.0
C1851 C 0.7139 0.98798 0.96967 0.0
C1852 C 0.72505 0.99928 0.95349 0.0
H1853 H 0.69424 0.06135 0.08421 0.0
H1854 H 0.70173 0.05238 0.0481 0.0
C1855 C 0.72095 0.99288 0.93305 0.0
C1856 C 0.71492 0.99702 0.991 0.0
H1857 H 0.68109 0.01834 0.02907 0.0
C1858 C 0.73577 0.99719 1.00161 0.0
C1859 C 0.69513 0.00537 1.00089 0.0
C1860 C 0.67247 0.00689 0.98997 0.0
C1861 C 0.73717 0.00485 0.0221 0.0
C1862 C 0.71714 0.01226 0.03227 0.0
C1863 C 0.69647 0.0126 0.02139 0.0
C1864 C 0.7168 0.01937 0.05425 0.0
C1865 C 0.76011 0.00517 0.03255 0.0
C1866 C 0.7234 0.00418 0.06988 0.0
C1867 C 0.71943 0.00951 0.09056 0.0
C1868 C 0.70864 0.03002 0.09591 0.0
C1869 C 0.70298 0.04563 0.08042 0.0
C1870 C 0.7071 0.04041 0.05981 0.0
H1871 H 0.77424 0.00584 0.02122 0.0
H1872 H 0.76167 0.01996 0.04309 0.0
H1873 H 0.76214 0.98932 0.04167 0.0
H1874 H 0.73036 0.98761 0.06606 0.0
H1875 H 0.72341 0.997 0.10225 0.0
H1876 H 0.00742 0.26648 0.91948 0.0
H1877 H 0.99815 0.25668 0.95518 0.0
H1878 H 0.04131 0.31148 0.97629 0.0
H1879 H 0.05169 0.32015 0.94088 0.0
H1880 H 0.04413 0.27805 1.00204 0.0
H1881 H 0.95232 0.29284 0.98595 0.0
H1882 H 0.96449 0.26963 0.97179 0.0
H1883 H 0.97413 0.29832 0.96716 0.0
C1884 C 0.01547 0.27588 0.93181 0.0
C1885 C 0.03018 0.29415 0.92746 0.0
C1886 C 0.00984 0.27057 0.95221 0.0
C1887 C 0.0184 0.28381 0.96852 0.0
C1888 C 0.03427 0.30107 0.9641 0.0
H1889 H 0.95984 0.32692 0.08049 0.0
H1890 H 0.97017 0.3172 0.04534 0.0
C1891 C 0.04019 0.30607 0.94383 0.0
C1892 C 0.01007 0.28099 0.99005 0.0
H1893 H 0.96225 0.2844 0.01993 0.0
C1894 C 0.0262 0.27924 1.00594 0.0
C1895 C 0.98665 0.28278 0.99524 0.0
C1896 C 0.96839 0.28621 0.97919 0.0
C1897 C 0.01978 0.28031 0.02673 0.0
C1898 C 0.99637 0.28218 0.03192 0.0
C1899 C 0.98016 0.28281 0.01603 0.0
C1900 C 0.9885 0.2864 0.0534 0.0
C1901 C 0.03832 0.28091 0.04281 0.0
C1902 C 0.99464 0.27202 0.06981 0.0
C1903 C 0.98911 0.2779 0.09011 0.0
C1904 C 0.97689 0.29798 0.09426 0.0
C1905 C 0.96947 0.31146 0.07775 0.0
C1906 C 0.9753 0.30583 0.05761 0.0
H1907 H 0.05524 0.28491 0.03605 0.0
H1908 H 0.03451 0.29381 0.05479 0.0
H1909 H 0.03955 0.26396 0.05027 0.0
H1910 H 0.00424 0.25657 0.067 0.0
H1911 H 0.99522 0.26729 0.10255 0.0
H1912 H 0.26726 0.99358 0.10237 0.0
H1913 H 0.25686 0.00257 0.06674 0.0
H1914 H 0.31295 0.96134 0.04529 0.0
H1915 H 0.32236 0.95138 0.08059 0.0
H1916 H 0.28008 0.0258 0.0406 0.0
H1917 H 0.2668 0.94192 1.00493 0.0
H1918 H 0.26834 0.94534 0.03241 0.0
H1919 H 0.294 0.94206 0.01739 0.0
C1920 C 0.27672 0.98574 0.08997 0.0
C1921 C 0.29545 0.97158 0.0942 0.0
C1922 C 0.27095 0.99107 0.06961 0.0
C1923 C 0.28386 0.98238 0.05314 0.0
C1924 C 0.30219 0.96773 0.0575 0.0
H1925 H 0.32489 0.04564 0.94277 0.0
H1926 H 0.31482 0.03537 0.97783 0.0
C1927 C 0.30773 0.9622 0.07774 0.0
C1928 C 0.27998 0.99041 0.03165 0.0
H1929 H 0.27988 0.97205 0.98188 0.0
C1930 C 0.27954 0.01399 0.02781 0.0
C1931 C 0.27869 0.97519 0.01479 0.0
C1932 C 0.27671 0.94974 0.01765 0.0
C1933 C 0.27944 0.02268 1.00769 0.0
C1934 C 0.28064 0.00743 0.99085 0.0
C1935 C 0.27944 0.98387 0.99468 0.0
C1936 C 0.28518 0.01537 0.96945 0.0
C1937 C 0.27826 0.04817 1.0048 0.0
C1938 C 0.27223 0.00729 0.95277 0.0
C1939 C 0.27836 0.01278 0.93252 0.0
C1940 C 0.29752 0.02649 0.92864 0.0
C1941 C 0.30995 0.03514 0.94533 0.0
C1942 C 0.30403 0.02946 0.96544 0.0
H1943 H 0.26838 0.05629 0.01738 0.0
H1944 H 0.29576 0.05535 1.0053 0.0
H1945 H 0.27028 0.05281 0.98993 0.0
H1946 H 0.25774 0.9962 0.95537 0.0
H1947 H 0.26876 0.00548 0.91994 0.0
H1948 H 0.94435 0.71998 0.93545 0.0
H1949 H 0.95332 0.72971 0.97131 0.0
H1950 H 0.02298 0.70864 0.96165 0.0
H1951 H 0.0141 0.69951 0.92593 0.0
H1952 H 0.96647 0.69941 0.99959 0.0
H1953 H 0.03329 0.76542 0.99451 0.0
H1954 H 0.01562 0.75787 0.97286 0.0
H1955 H 0.04045 0.74114 0.97912 0.0
C1956 C 0.9617 0.7182 0.94091 0.0
C1957 C 0.97858 0.7091 0.92803 0.0
C1958 C 0.96681 0.7236 0.96138 0.0
C1959 C 0.98892 0.72018 0.96922 0.0
C1960 C 0.00597 0.71204 0.95597 0.0
H1961 H 0.05084 0.68462 0.08202 0.0
H1962 H 0.0405 0.69444 0.04662 0.0
C1963 C 1.00088 0.7067 0.93556 0.0
C1964 C 0.99368 0.72244 0.99163 0.0
H1965 H 0.03244 0.74344 0.02607 0.0
C1966 C 0.98056 0.70947 1.00541 0.0
C1967 C 0.01212 0.73551 0.99934 0.0
C1968 C 0.026 0.75095 0.98568 0.0
C1969 C 0.98611 0.70829 0.02638 0.0
C1970 C 0.00521 0.72044 0.03383 0.0
C1971 C 0.01783 0.73409 0.02029 0.0
C1972 C 0.01331 0.7174 0.05524 0.0
C1973 C 0.97222 0.69318 0.04034 0.0
C1974 C 0.00186 0.72759 0.07182 0.0
C1975 C 0.00795 0.7222 0.09208 0.0
C1976 C 0.02547 0.70645 0.09597 0.0
C1977 C 0.03747 0.69702 0.07936 0.0
C1978 C 0.03154 0.70256 0.05919 0.0
H1979 H 0.95866 0.6838 0.03193 0.0
H1980 H 0.9835 0.68062 0.04807 0.0
H1981 H 0.9641 0.7037 0.05246 0.0
H1982 H 0.98768 0.73902 0.06906 0.0
H1983 H 0.99822 0.72935 0.10465 0.0
loop_
_geom_bond_atom_site_label_1
_geom_bond_atom_site_label_2
_geom_bond_distance
_geom_bond_site_symmetry_2
_ccdc_geom_bond_type
Co0 O3 1.970 . S
Co0 N17 1.989 . S
Co0 O25 1.967 . S
Co0 O32 1.920 . S
Co1 O4 1.966 . S
Co1 N10 2.022 . S
Co1 N18 1.993 . S
Co1 O26 1.941 . S
C2 O3 1.258 . S
C2 O4 1.263 . S
O3 Co0 1.970 . S
O3 C2 1.258 . S
O4 Co1 1.966 . S
O4 C2 1.263 . S
C5 O6 1.235 . S
C5 O32 1.289 . S
O6 C5 1.235 . S
C7 C9 1.400 . S
C7 N10 1.351 . S
C7 C12 1.501 . S
C8 C9 1.387 . S
C8 N11 1.341 . S
C9 C7 1.400 . S
C9 C8 1.387 . S
N10 Co1 2.022 . S
N10 C7 1.351 . S
N10 N11 1.365 . S
N11 C8 1.341 . S
N11 N10 1.365 . S
N11 H31 0.862 . S
C12 C7 1.501 . S
C12 H13 0.961 . S
C12 H14 0.961 . S
C12 H15 0.960 . S
H13 C12 0.961 . S
H14 C12 0.961 . S
H15 C12 0.960 . S
C16 N17 1.342 . S
C16 C20 1.401 . S
C16 C21 1.499 . S
N17 Co0 1.989 . S
N17 C16 1.342 . S
N17 N18 1.388 . S
N18 Co1 1.993 . S
N18 N17 1.388 . S
N18 C19 1.346 . S
C19 N18 1.346 . S
C19 C20 1.396 . S
C19 C29 1.510 . S
C20 C16 1.401 . S
C20 C19 1.396 . S
C21 C16 1.499 . S
C21 H22 0.959 . S
C21 H23 0.960 . S
C21 H24 0.961 . S
H22 C21 0.959 . S
H23 C21 0.960 . S
H24 C21 0.961 . S
O25 Co0 1.967 . S
O25 C33 1.258 . S
O26 Co1 1.941 . S
O26 C33 1.266 . S
H27 C29 0.959 . S
H28 C29 0.961 . S
C29 C19 1.510 . S
C29 H27 0.959 . S
C29 H28 0.961 . S
C29 H30 0.960 . S
H30 C29 0.960 . S
H31 N11 0.862 . S
O32 Co0 1.920 . S
O32 C5 1.289 . S
C33 O25 1.258 . S
C33 O26 1.266 . S
Co34 O37 1.970 . S
Co34 N51 1.989 . S
Co34 O59 1.967 . S
Co34 O66 1.920 . S
Co35 O38 1.966 . S
Co35 N44 2.022 . S
Co35 N52 1.993 . S
Co35 O60 1.941 . S
C36 O37 1.258 . S
C36 O38 1.263 . S
O37 Co34 1.970 . S
O37 C36 1.258 . S
O38 Co35 1.966 . S
O38 C36 1.263 . S
C39 O40 1.235 . S
C39 O66 1.289 . S
O40 C39 1.235 . S
C41 C43 1.400 . S
C41 N44 1.351 . S
C41 C46 1.501 . S
C42 C43 1.387 . S
C42 N45 1.341 . S
C43 C41 1.400 . S
C43 C42 1.387 . S
N44 Co35 2.022 . S
N44 C41 1.351 . S
N44 N45 1.365 . S
N45 C42 1.341 . S
N45 N44 1.365 . S
N45 H65 0.862 . S
C46 C41 1.501 . S
C46 H47 0.961 . S
C46 H48 0.961 . S
C46 H49 0.960 . S
H47 C46 0.961 . S
H48 C46 0.961 . S
H49 C46 0.960 . S
C50 N51 1.342 . S
C50 C54 1.401 . S
C50 C55 1.499 . S
N51 Co34 1.989 . S
N51 C50 1.342 . S
N51 N52 1.388 . S
N52 Co35 1.993 . S
N52 N51 1.388 . S
N52 C53 1.346 . S
C53 N52 1.346 . S
C53 C54 1.396 . S
C53 C63 1.510 . S
C54 C50 1.401 . S
C54 C53 1.396 . S
C55 C50 1.499 . S
C55 H56 0.959 . S
C55 H57 0.960 . S
C55 H58 0.961 . S
H56 C55 0.959 . S
H57 C55 0.960 . S
H58 C55 0.961 . S
O59 Co34 1.967 . S
O59 C67 1.258 . S
O60 Co35 1.941 . S
O60 C67 1.266 . S
H61 C63 0.959 . S
H62 C63 0.961 . S
C63 C53 1.510 . S
C63 H61 0.959 . S
C63 H62 0.961 . S
C63 H64 0.960 . S
H64 C63 0.960 . S
H65 N45 0.862 . S
O66 Co34 1.920 . S
O66 C39 1.289 . S
C67 O59 1.258 . S
C67 O60 1.266 . S
Co68 O71 1.970 . S
Co68 N85 1.989 . S
Co68 O93 1.967 . S
Co68 O100 1.920 . S
Co69 O72 1.966 . S
Co69 N78 2.022 . S
Co69 N86 1.993 . S
Co69 O94 1.941 . S
C70 O71 1.258 . S
C70 O72 1.263 . S
O71 Co68 1.970 . S
O71 C70 1.258 . S
O72 Co69 1.966 . S
O72 C70 1.263 . S
C73 O74 1.235 . S
C73 O100 1.289 . S
O74 C73 1.235 . S
C75 C77 1.400 . S
C75 N78 1.351 . S
C75 C80 1.501 . S
C76 C77 1.387 . S
C76 N79 1.341 . S
C77 C75 1.400 . S
C77 C76 1.387 . S
N78 Co69 2.022 . S
N78 C75 1.351 . S
N78 N79 1.365 . S
N79 C76 1.341 . S
N79 N78 1.365 . S
N79 H99 0.862 . S
C80 C75 1.501 . S
C80 H81 0.961 . S
C80 H82 0.961 . S
C80 H83 0.960 . S
H81 C80 0.961 . S
H82 C80 0.961 . S
H83 C80 0.960 . S
C84 N85 1.342 . S
C84 C88 1.401 . S
C84 C89 1.499 . S
N85 Co68 1.989 . S
N85 C84 1.342 . S
N85 N86 1.388 . S
N86 Co69 1.993 . S
N86 N85 1.388 . S
N86 C87 1.346 . S
C87 N86 1.346 . S
C87 C88 1.396 . S
C87 C97 1.510 . S
C88 C84 1.401 . S
C88 C87 1.396 . S
C89 C84 1.499 . S
C89 H90 0.959 . S
C89 H91 0.960 . S
C89 H92 0.961 . S
H90 C89 0.959 . S
H91 C89 0.960 . S
H92 C89 0.961 . S
O93 Co68 1.967 . S
O93 C101 1.258 . S
O94 Co69 1.941 . S
O94 C101 1.266 . S
H95 C97 0.959 . S
H96 C97 0.961 . S
C97 C87 1.510 . S
C97 H95 0.959 . S
C97 H96 0.961 . S
C97 H98 0.960 . S
H98 C97 0.960 . S
H99 N79 0.862 . S
O100 Co68 1.920 . S
O100 C73 1.289 . S
C101 O93 1.258 . S
C101 O94 1.266 . S
Co102 O105 1.970 . S
Co102 N119 1.989 . S
Co102 O127 1.967 . S
Co102 O134 1.920 . S
Co103 O106 1.966 . S
Co103 N112 2.022 . S
Co103 N120 1.993 . S
Co103 O128 1.941 . S
C104 O105 1.258 . S
C104 O106 1.263 . S
O105 Co102 1.970 . S
O105 C104 1.258 . S
O106 Co103 1.966 . S
O106 C104 1.263 . S
C107 O108 1.235 . S
C107 O134 1.289 . S
O108 C107 1.235 . S
C109 C111 1.400 . S
C109 N112 1.351 . S
C109 C114 1.501 . S
C110 C111 1.387 . S
C110 N113 1.341 . S
C111 C109 1.400 . S
C111 C110 1.387 . S
N112 Co103 2.022 . S
N112 C109 1.351 . S
N112 N113 1.365 . S
N113 C110 1.341 . S
N113 N112 1.365 . S
N113 H133 0.862 . S
C114 C109 1.501 . S
C114 H115 0.961 . S
C114 H116 0.961 . S
C114 H117 0.960 . S
H115 C114 0.961 . S
H116 C114 0.961 . S
H117 C114 0.960 . S
C118 N119 1.342 . S
C118 C122 1.401 . S
C118 C123 1.499 . S
N119 Co102 1.989 . S
N119 C118 1.342 . S
N119 N120 1.388 . S
N120 Co103 1.993 . S
N120 N119 1.388 . S
N120 C121 1.346 . S
C121 N120 1.346 . S
C121 C122 1.396 . S
C121 C131 1.510 . S
C122 C118 1.401 . S
C122 C121 1.396 . S
C123 C118 1.499 . S
C123 H124 0.959 . S
C123 H125 0.960 . S
C123 H126 0.961 . S
H124 C123 0.959 . S
H125 C123 0.960 . S
H126 C123 0.961 . S
O127 Co102 1.967 . S
O127 C135 1.258 . S
O128 Co103 1.941 . S
O128 C135 1.266 . S
H129 C131 0.959 . S
H130 C131 0.961 . S
C131 C121 1.510 . S
C131 H129 0.959 . S
C131 H130 0.961 . S
C131 H132 0.960 . S
H132 C131 0.960 . S
H133 N113 0.862 . S
O134 Co102 1.920 . S
O134 C107 1.289 . S
C135 O127 1.258 . S
C135 O128 1.266 . S
Co136 O139 1.970 . S
Co136 N153 1.989 . S
Co136 O161 1.967 . S
Co136 O168 1.920 . S
Co137 O140 1.966 . S
Co137 N146 2.022 . S
Co137 N154 1.993 . S
Co137 O162 1.941 . S
C138 O139 1.258 . S
C138 O140 1.263 . S
O139 Co136 1.970 . S
O139 C138 1.258 . S
O140 Co137 1.966 . S
O140 C138 1.263 . S
C141 O142 1.235 . S
C141 O168 1.289 . S
O142 C141 1.235 . S
C143 C145 1.400 . S
C143 N146 1.351 . S
C143 C148 1.501 . S
C144 C145 1.387 . S
C144 N147 1.341 . S
C145 C143 1.400 . S
C145 C144 1.387 . S
N146 Co137 2.022 . S
N146 C143 1.351 . S
N146 N147 1.365 . S
N147 C144 1.341 . S
N147 N146 1.365 . S
N147 H167 0.862 . S
C148 C143 1.501 . S
C148 H149 0.961 . S
C148 H150 0.961 . S
C148 H151 0.960 . S
H149 C148 0.961 . S
H150 C148 0.961 . S
H151 C148 0.960 . S
C152 N153 1.342 . S
C152 C156 1.401 . S
C152 C157 1.499 . S
N153 Co136 1.989 . S
N153 C152 1.342 . S
N153 N154 1.388 . S
N154 Co137 1.993 . S
N154 N153 1.388 . S
N154 C155 1.346 . S
C155 N154 1.346 . S
C155 C156 1.396 . S
C155 C165 1.510 . S
C156 C152 1.401 . S
C156 C155 1.396 . S
C157 C152 1.499 . S
C157 H158 0.959 . S
C157 H159 0.960 . S
C157 H160 0.961 . S
H158 C157 0.959 . S
H159 C157 0.960 . S
H160 C157 0.961 . S
O161 Co136 1.967 . S
O161 C169 1.258 . S
O162 Co137 1.941 . S
O162 C169 1.266 . S
H163 C165 0.959 . S
H164 C165 0.961 . S
C165 C155 1.510 . S
C165 H163 0.959 . S
C165 H164 0.961 . S
C165 H166 0.960 . S
H166 C165 0.960 . S
H167 N147 0.862 . S
O168 Co136 1.920 . S
O168 C141 1.289 . S
C169 O161 1.258 . S
C169 O162 1.266 . S
Co170 O173 1.970 . S
Co170 N187 1.989 . S
Co170 O195 1.967 . S
Co170 O202 1.920 . S
Co171 O174 1.966 . S
Co171 N180 2.022 . S
Co171 N188 1.993 . S
Co171 O196 1.941 . S
C172 O173 1.258 . S
C172 O174 1.263 . S
O173 Co170 1.970 . S
O173 C172 1.258 . S
O174 Co171 1.966 . S
O174 C172 1.263 . S
C175 O176 1.235 . S
C175 O202 1.289 . S
O176 C175 1.235 . S
C177 C179 1.400 . S
C177 N180 1.351 . S
C177 C182 1.501 . S
C178 C179 1.387 . S
C178 N181 1.341 . S
C179 C177 1.400 . S
C179 C178 1.387 . S
N180 Co171 2.022 . S
N180 C177 1.351 . S
N180 N181 1.365 . S
N181 C178 1.341 . S
N181 N180 1.365 . S
N181 H201 0.862 . S
C182 C177 1.501 . S
C182 H183 0.961 . S
C182 H184 0.961 . S
C182 H185 0.960 . S
H183 C182 0.961 . S
H184 C182 0.961 . S
H185 C182 0.960 . S
C186 N187 1.342 . S
C186 C190 1.401 . S
C186 C191 1.499 . S
N187 Co170 1.989 . S
N187 C186 1.342 . S
N187 N188 1.388 . S
N188 Co171 1.993 . S
N188 N187 1.388 . S
N188 C189 1.346 . S
C189 N188 1.346 . S
C189 C190 1.396 . S
C189 C199 1.510 . S
C190 C186 1.401 . S
C190 C189 1.396 . S
C191 C186 1.499 . S
C191 H192 0.959 . S
C191 H193 0.960 . S
C191 H194 0.961 . S
H192 C191 0.959 . S
H193 C191 0.960 . S
H194 C191 0.961 . S
O195 Co170 1.967 . S
O195 C203 1.258 . S
O196 Co171 1.941 . S
O196 C203 1.266 . S
H197 C199 0.959 . S
H198 C199 0.961 . S
C199 C189 1.510 . S
C199 H197 0.959 . S
C199 H198 0.961 . S
C199 H200 0.960 . S
H200 C199 0.960 . S
H201 N181 0.862 . S
O202 Co170 1.920 . S
O202 C175 1.289 . S
C203 O195 1.258 . S
C203 O196 1.266 . S
Co204 O207 1.970 . S
Co204 N221 1.989 . S
Co204 O229 1.967 . S
Co204 O236 1.920 . S
Co205 O208 1.966 . S
Co205 N214 2.022 . S
Co205 N222 1.993 . S
Co205 O230 1.941 . S
C206 O207 1.258 . S
C206 O208 1.263 . S
O207 Co204 1.970 . S
O207 C206 1.258 . S
O208 Co205 1.966 . S
O208 C206 1.263 . S
C209 O210 1.235 . S
C209 O236 1.289 . S
O210 C209 1.235 . S
C211 C213 1.400 . S
C211 N214 1.351 . S
C211 C216 1.501 . S
C212 C213 1.387 . S
C212 N215 1.341 . S
C213 C211 1.400 . S
C213 C212 1.387 . S
N214 Co205 2.022 . S
N214 C211 1.351 . S
N214 N215 1.365 . S
N215 C212 1.341 . S
N215 N214 1.365 . S
N215 H235 0.862 . S
C216 C211 1.501 . S
C216 H217 0.961 . S
C216 H218 0.961 . S
C216 H219 0.960 . S
H217 C216 0.961 . S
H218 C216 0.961 . S
H219 C216 0.960 . S
C220 N221 1.342 . S
C220 C224 1.401 . S
C220 C225 1.499 . S
N221 Co204 1.989 . S
N221 C220 1.342 . S
N221 N222 1.388 . S
N222 Co205 1.993 . S
N222 N221 1.388 . S
N222 C223 1.346 . S
C223 N222 1.346 . S
C223 C224 1.396 . S
C223 C233 1.510 . S
C224 C220 1.401 . S
C224 C223 1.396 . S
C225 C220 1.499 . S
C225 H226 0.959 . S
C225 H227 0.960 . S
C225 H228 0.961 . S
H226 C225 0.959 . S
H227 C225 0.960 . S
H228 C225 0.961 . S
O229 Co204 1.967 . S
O229 C237 1.258 . S
O230 Co205 1.941 . S
O230 C237 1.266 . S
H231 C233 0.959 . S
H232 C233 0.961 . S
C233 C223 1.510 . S
C233 H231 0.959 . S
C233 H232 0.961 . S
C233 H234 0.960 . S
H234 C233 0.960 . S
H235 N215 0.862 . S
O236 Co204 1.920 . S
O236 C209 1.289 . S
C237 O229 1.258 . S
C237 O230 1.266 . S
Co238 O241 1.970 . S
Co238 N255 1.989 . S
Co238 O263 1.967 . S
Co238 O270 1.920 . S
Co239 O242 1.966 . S
Co239 N248 2.022 . S
Co239 N256 1.993 . S
Co239 O264 1.941 . S
C240 O241 1.258 . S
C240 O242 1.263 . S
O241 Co238 1.970 . S
O241 C240 1.258 . S
O242 Co239 1.966 . S
O242 C240 1.263 . S
C243 O244 1.235 . S
C243 O270 1.289 . S
O244 C243 1.235 . S
C245 C247 1.400 . S
C245 N248 1.351 . S
C245 C250 1.501 . S
C246 C247 1.387 . S
C246 N249 1.341 . S
C247 C245 1.400 . S
C247 C246 1.387 . S
N248 Co239 2.022 . S
N248 C245 1.351 . S
N248 N249 1.365 . S
N249 C246 1.341 . S
N249 N248 1.365 . S
N249 H269 0.862 . S
C250 C245 1.501 . S
C250 H251 0.961 . S
C250 H252 0.961 . S
C250 H253 0.960 . S
H251 C250 0.961 . S
H252 C250 0.961 . S
H253 C250 0.960 . S
C254 N255 1.342 . S
C254 C258 1.401 . S
C254 C259 1.499 . S
N255 Co238 1.989 . S
N255 C254 1.342 . S
N255 N256 1.388 . S
N256 Co239 1.993 . S
N256 N255 1.388 . S
N256 C257 1.346 . S
C257 N256 1.346 . S
C257 C258 1.396 . S
C257 C267 1.510 . S
C258 C254 1.401 . S
C258 C257 1.396 . S
C259 C254 1.499 . S
C259 H260 0.959 . S
C259 H261 0.960 . S
C259 H262 0.961 . S
H260 C259 0.959 . S
H261 C259 0.960 . S
H262 C259 0.961 . S
O263 Co238 1.967 . S
O263 C271 1.258 . S
O264 Co239 1.941 . S
O264 C271 1.266 . S
H265 C267 0.959 . S
H266 C267 0.961 . S
C267 C257 1.510 . S
C267 H265 0.959 . S
C267 H266 0.961 . S
C267 H268 0.960 . S
H268 C267 0.960 . S
H269 N249 0.862 . S
O270 Co238 1.920 . S
O270 C243 1.289 . S
C271 O263 1.258 . S
C271 O264 1.266 . S
Co272 O275 1.970 . S
Co272 N289 1.989 . S
Co272 O297 1.967 . S
Co272 O304 1.920 . S
Co273 O276 1.966 . S
Co273 N282 2.022 . S
Co273 N290 1.993 . S
Co273 O298 1.941 . S
C274 O275 1.258 . S
C274 O276 1.263 . S
O275 Co272 1.970 . S
O275 C274 1.258 . S
O276 Co273 1.966 . S
O276 C274 1.263 . S
C277 O278 1.235 . S
C277 O304 1.289 . S
O278 C277 1.235 . S
C279 C281 1.400 . S
C279 N282 1.351 . S
C279 C284 1.501 . S
C280 C281 1.387 . S
C280 N283 1.341 . S
C281 C279 1.400 . S
C281 C280 1.387 . S
N282 Co273 2.022 . S
N282 C279 1.351 . S
N282 N283 1.365 . S
N283 C280 1.341 . S
N283 N282 1.365 . S
N283 H303 0.862 . S
C284 C279 1.501 . S
C284 H285 0.961 . S
C284 H286 0.961 . S
C284 H287 0.960 . S
H285 C284 0.961 . S
H286 C284 0.961 . S
H287 C284 0.960 . S
C288 N289 1.342 . S
C288 C292 1.401 . S
C288 C293 1.499 . S
N289 Co272 1.989 . S
N289 C288 1.342 . S
N289 N290 1.388 . S
N290 Co273 1.993 . S
N290 N289 1.388 . S
N290 C291 1.346 . S
C291 N290 1.346 . S
C291 C292 1.396 . S
C291 C301 1.510 . S
C292 C288 1.401 . S
C292 C291 1.396 . S
C293 C288 1.499 . S
C293 H294 0.959 . S
C293 H295 0.960 . S
C293 H296 0.961 1_565 S
H294 C293 0.959 . S
H295 C293 0.960 . S
H296 C293 0.961 1_545 S
O297 Co272 1.967 . S
O297 C305 1.258 . S
O298 Co273 1.941 . S
O298 C305 1.266 . S
H299 C301 0.959 . S
H300 C301 0.961 . S
C301 C291 1.510 . S
C301 H299 0.959 . S
C301 H300 0.961 . S
C301 H302 0.960 . S
H302 C301 0.960 . S
H303 N283 0.862 . S
O304 Co272 1.920 . S
O304 C277 1.289 . S
C305 O297 1.258 . S
C305 O298 1.266 . S
Co306 O309 1.970 . S
Co306 N323 1.989 . S
Co306 O331 1.967 . S
Co306 O338 1.920 . S
Co307 O310 1.966 . S
Co307 N316 2.022 . S
Co307 N324 1.993 . S
Co307 O332 1.941 . S
C308 O309 1.258 . S
C308 O310 1.263 . S
O309 Co306 1.970 . S
O309 C308 1.258 . S
O310 Co307 1.966 . S
O310 C308 1.263 . S
C311 O312 1.235 . S
C311 O338 1.289 . S
O312 C311 1.235 . S
C313 C315 1.400 . S
C313 N316 1.351 . S
C313 C318 1.501 . S
C314 C315 1.387 . S
C314 N317 1.341 . S
C315 C313 1.400 . S
C315 C314 1.387 . S
N316 Co307 2.022 . S
N316 C313 1.351 . S
N316 N317 1.365 . S
N317 C314 1.341 . S
N317 N316 1.365 . S
N317 H337 0.862 . S
C318 C313 1.501 . S
C318 H319 0.961 . S
C318 H320 0.961 . S
C318 H321 0.960 . S
H319 C318 0.961 . S
H320 C318 0.961 . S
H321 C318 0.960 . S
C322 N323 1.342 . S
C322 C326 1.401 . S
C322 C327 1.499 . S
N323 Co306 1.989 . S
N323 C322 1.342 . S
N323 N324 1.388 . S
N324 Co307 1.993 . S
N324 N323 1.388 . S
N324 C325 1.346 . S
C325 N324 1.346 . S
C325 C326 1.396 . S
C325 C335 1.510 . S
C326 C322 1.401 . S
C326 C325 1.396 . S
C327 C322 1.499 . S
C327 H328 0.959 . S
C327 H329 0.960 . S
C327 H330 0.961 1_655 S
H328 C327 0.959 . S
H329 C327 0.960 . S
H330 C327 0.961 1_455 S
O331 Co306 1.967 . S
O331 C339 1.258 . S
O332 Co307 1.941 . S
O332 C339 1.266 . S
H333 C335 0.959 . S
H334 C335 0.961 . S
C335 C325 1.510 . S
C335 H333 0.959 . S
C335 H334 0.961 . S
C335 H336 0.960 . S
H336 C335 0.960 . S
H337 N317 0.862 . S
O338 Co306 1.920 . S
O338 C311 1.289 . S
C339 O331 1.258 . S
C339 O332 1.266 . S
Co340 O343 1.970 . S
Co340 N357 1.989 . S
Co340 O365 1.967 . S
Co340 O372 1.920 . S
Co341 O344 1.966 . S
Co341 N350 2.022 . S
Co341 N358 1.993 . S
Co341 O366 1.941 . S
C342 O343 1.258 . S
C342 O344 1.263 . S
O343 Co340 1.970 . S
O343 C342 1.258 . S
O344 Co341 1.966 . S
O344 C342 1.263 . S
C345 O346 1.235 . S
C345 O372 1.289 . S
O346 C345 1.235 . S
C347 C349 1.400 . S
C347 N350 1.351 . S
C347 C352 1.501 . S
C348 C349 1.387 . S
C348 N351 1.341 . S
C349 C347 1.400 . S
C349 C348 1.387 . S
N350 Co341 2.022 . S
N350 C347 1.351 . S
N350 N351 1.365 . S
N351 C348 1.341 . S
N351 N350 1.365 . S
N351 H371 0.862 . S
C352 C347 1.501 . S
C352 H353 0.961 . S
C352 H354 0.961 . S
C352 H355 0.960 . S
H353 C352 0.961 . S
H354 C352 0.961 . S
H355 C352 0.960 . S
C356 N357 1.342 . S
C356 C360 1.401 . S
C356 C361 1.499 . S
N357 Co340 1.989 . S
N357 C356 1.342 . S
N357 N358 1.388 . S
N358 Co341 1.993 . S
N358 N357 1.388 . S
N358 C359 1.346 . S
C359 N358 1.346 . S
C359 C360 1.396 . S
C359 C369 1.510 . S
C360 C356 1.401 . S
C360 C359 1.396 . S
C361 C356 1.499 . S
C361 H362 0.959 . S
C361 H363 0.960 . S
C361 H364 0.961 1_545 S
H362 C361 0.959 . S
H363 C361 0.960 . S
H364 C361 0.961 1_565 S
O365 Co340 1.967 . S
O365 C373 1.258 . S
O366 Co341 1.941 . S
O366 C373 1.266 . S
H367 C369 0.959 . S
H368 C369 0.961 . S
C369 C359 1.510 . S
C369 H367 0.959 . S
C369 H368 0.961 . S
C369 H370 0.960 . S
H370 C369 0.960 . S
H371 N351 0.862 . S
O372 Co340 1.920 . S
O372 C345 1.289 . S
C373 O365 1.258 . S
C373 O366 1.266 . S
Co374 O377 1.970 . S
Co374 N391 1.989 . S
Co374 O399 1.967 . S
Co374 O406 1.920 . S
Co375 O378 1.966 . S
Co375 N384 2.022 . S
Co375 N392 1.993 . S
Co375 O400 1.941 . S
C376 O377 1.258 . S
C376 O378 1.263 . S
O377 Co374 1.970 . S
O377 C376 1.258 . S
O378 Co375 1.966 . S
O378 C376 1.263 . S
C379 O380 1.235 . S
C379 O406 1.289 . S
O380 C379 1.235 . S
C381 C383 1.400 . S
C381 N384 1.351 . S
C381 C386 1.501 . S
C382 C383 1.387 . S
C382 N385 1.341 . S
C383 C381 1.400 . S
C383 C382 1.387 . S
N384 Co375 2.022 . S
N384 C381 1.351 . S
N384 N385 1.365 . S
N385 C382 1.341 . S
N385 N384 1.365 . S
N385 H405 0.862 . S
C386 C381 1.501 . S
C386 H387 0.961 . S
C386 H388 0.961 . S
C386 H389 0.960 . S
H387 C386 0.961 . S
H388 C386 0.961 . S
H389 C386 0.960 . S
C390 N391 1.342 . S
C390 C394 1.401 . S
C390 C395 1.499 . S
N391 Co374 1.989 . S
N391 C390 1.342 . S
N391 N392 1.388 . S
N392 Co375 1.993 . S
N392 N391 1.388 . S
N392 C393 1.346 . S
C393 N392 1.346 . S
C393 C394 1.396 . S
C393 C403 1.510 . S
C394 C390 1.401 . S
C394 C393 1.396 . S
C395 C390 1.499 . S
C395 H396 0.959 . S
C395 H397 0.960 . S
C395 H398 0.961 1_455 S
H396 C395 0.959 . S
H397 C395 0.960 . S
H398 C395 0.961 1_655 S
O399 Co374 1.967 . S
O399 C407 1.258 . S
O400 Co375 1.941 . S
O400 C407 1.266 . S
H401 C403 0.959 . S
H402 C403 0.961 . S
C403 C393 1.510 . S
C403 H401 0.959 . S
C403 H402 0.961 . S
C403 H404 0.960 . S
H404 C403 0.960 . S
H405 N385 0.862 . S
O406 Co374 1.920 . S
O406 C379 1.289 . S
C407 O399 1.258 . S
C407 O400 1.266 . S
Co408 O411 1.970 . S
Co408 N425 1.989 . S
Co408 O433 1.967 . S
Co408 O440 1.920 . S
Co409 O412 1.966 . S
Co409 N418 2.022 . S
Co409 N426 1.993 . S
Co409 O434 1.941 . S
C410 O411 1.258 . S
C410 O412 1.263 . S
O411 Co408 1.970 . S
O411 C410 1.258 . S
O412 Co409 1.966 . S
O412 C410 1.263 . S
C413 O414 1.235 . S
C413 O440 1.289 . S
O414 C413 1.235 . S
C415 C417 1.400 . S
C415 N418 1.351 . S
C415 C420 1.501 . S
C416 C417 1.387 . S
C416 N419 1.341 . S
C417 C415 1.400 . S
C417 C416 1.387 . S
N418 Co409 2.022 . S
N418 C415 1.351 . S
N418 N419 1.365 . S
N419 C416 1.341 . S
N419 N418 1.365 . S
N419 H439 0.862 . S
C420 C415 1.501 . S
C420 H421 0.961 . S
C420 H422 0.961 . S
C420 H423 0.960 . S
H421 C420 0.961 . S
H422 C420 0.961 . S
H423 C420 0.960 . S
C424 N425 1.342 . S
C424 C428 1.401 . S
C424 C429 1.499 . S
N425 Co408 1.989 . S
N425 C424 1.342 . S
N425 N426 1.388 . S
N426 Co409 1.993 . S
N426 N425 1.388 . S
N426 C427 1.346 . S
C427 N426 1.346 . S
C427 C428 1.396 . S
C427 C437 1.510 . S
C428 C424 1.401 . S
C428 C427 1.396 . S
C429 C424 1.499 . S
C429 H430 0.959 . S
C429 H431 0.960 . S
C429 H432 0.961 1_545 S
H430 C429 0.959 . S
H431 C429 0.960 . S
H432 C429 0.961 1_565 S
O433 Co408 1.967 . S
O433 C441 1.258 . S
O434 Co409 1.941 . S
O434 C441 1.266 . S
H435 C437 0.959 . S
H436 C437 0.961 . S
C437 C427 1.510 . S
C437 H435 0.959 . S
C437 H436 0.961 . S
C437 H438 0.960 . S
H438 C437 0.960 . S
H439 N419 0.862 . S
O440 Co408 1.920 . S
O440 C413 1.289 . S
C441 O433 1.258 . S
C441 O434 1.266 . S
Co442 O445 1.970 . S
Co442 N459 1.989 . S
Co442 O467 1.967 . S
Co442 O474 1.920 . S
Co443 O446 1.966 . S
Co443 N452 2.022 . S
Co443 N460 1.993 . S
Co443 O468 1.941 . S
C444 O445 1.258 . S
C444 O446 1.263 . S
O445 Co442 1.970 . S
O445 C444 1.258 . S
O446 Co443 1.966 . S
O446 C444 1.263 . S
C447 O448 1.235 . S
C447 O474 1.289 . S
O448 C447 1.235 . S
C449 C451 1.400 . S
C449 N452 1.351 . S
C449 C454 1.501 . S
C450 C451 1.387 . S
C450 N453 1.341 . S
C451 C449 1.400 . S
C451 C450 1.387 . S
N452 Co443 2.022 . S
N452 C449 1.351 . S
N452 N453 1.365 . S
N453 C450 1.341 . S
N453 N452 1.365 . S
N453 H473 0.862 . S
C454 C449 1.501 . S
C454 H455 0.961 . S
C454 H456 0.961 . S
C454 H457 0.960 . S
H455 C454 0.961 . S
H456 C454 0.961 . S
H457 C454 0.960 . S
C458 N459 1.342 . S
C458 C462 1.401 . S
C458 C463 1.499 . S
N459 Co442 1.989 . S
N459 C458 1.342 . S
N459 N460 1.388 . S
N460 Co443 1.993 . S
N460 N459 1.388 . S
N460 C461 1.346 . S
C461 N460 1.346 . S
C461 C462 1.396 . S
C461 C471 1.510 . S
C462 C458 1.401 . S
C462 C461 1.396 . S
C463 C458 1.499 . S
C463 H464 0.959 . S
C463 H465 0.960 . S
C463 H466 0.961 1_455 S
H464 C463 0.959 . S
H465 C463 0.960 . S
H466 C463 0.961 1_655 S
O467 Co442 1.967 . S
O467 C475 1.258 . S
O468 Co443 1.941 . S
O468 C475 1.266 . S
H469 C471 0.959 . S
H470 C471 0.961 . S
C471 C461 1.510 . S
C471 H469 0.959 . S
C471 H470 0.961 . S
C471 H472 0.960 . S
H472 C471 0.960 . S
H473 N453 0.862 . S
O474 Co442 1.920 . S
O474 C447 1.289 . S
C475 O467 1.258 . S
C475 O468 1.266 . S
Co476 O479 1.970 . S
Co476 N493 1.989 . S
Co476 O501 1.967 . S
Co476 O508 1.920 . S
Co477 O480 1.966 . S
Co477 N486 2.022 . S
Co477 N494 1.993 . S
Co477 O502 1.941 . S
C478 O479 1.258 . S
C478 O480 1.263 . S
O479 Co476 1.970 . S
O479 C478 1.258 . S
O480 Co477 1.966 . S
O480 C478 1.263 . S
C481 O482 1.235 . S
C481 O508 1.289 . S
O482 C481 1.235 . S
C483 C485 1.400 . S
C483 N486 1.351 . S
C483 C488 1.501 . S
C484 C485 1.387 . S
C484 N487 1.341 . S
C485 C483 1.400 . S
C485 C484 1.387 . S
N486 Co477 2.022 . S
N486 C483 1.351 . S
N486 N487 1.365 . S
N487 C484 1.341 . S
N487 N486 1.365 . S
N487 H507 0.862 . S
C488 C483 1.501 . S
C488 H489 0.961 . S
C488 H490 0.961 . S
C488 H491 0.960 . S
H489 C488 0.961 . S
H490 C488 0.961 . S
H491 C488 0.960 . S
C492 N493 1.342 . S
C492 C496 1.401 . S
C492 C497 1.499 . S
N493 Co476 1.989 . S
N493 C492 1.342 . S
N493 N494 1.388 . S
N494 Co477 1.993 . S
N494 N493 1.388 . S
N494 C495 1.346 . S
C495 N494 1.346 . S
C495 C496 1.396 . S
C495 C505 1.510 . S
C496 C492 1.401 . S
C496 C495 1.396 . S
C497 C492 1.499 . S
C497 H498 0.959 . S
C497 H499 0.960 . S
C497 H500 0.961 1_565 S
H498 C497 0.959 . S
H499 C497 0.960 . S
H500 C497 0.961 1_545 S
O501 Co476 1.967 . S
O501 C509 1.258 . S
O502 Co477 1.941 . S
O502 C509 1.266 . S
H503 C505 0.959 . S
H504 C505 0.961 . S
C505 C495 1.510 . S
C505 H503 0.959 . S
C505 H504 0.961 . S
C505 H506 0.960 . S
H506 C505 0.960 . S
H507 N487 0.862 . S
O508 Co476 1.920 . S
O508 C481 1.289 . S
C509 O501 1.258 . S
C509 O502 1.266 . S
Co510 O513 1.970 . S
Co510 N527 1.989 . S
Co510 O535 1.967 . S
Co510 O542 1.920 . S
Co511 O514 1.966 . S
Co511 N520 2.022 . S
Co511 N528 1.993 . S
Co511 O536 1.941 . S
C512 O513 1.258 . S
C512 O514 1.263 . S
O513 Co510 1.970 . S
O513 C512 1.258 . S
O514 Co511 1.966 . S
O514 C512 1.263 . S
C515 O516 1.235 . S
C515 O542 1.289 . S
O516 C515 1.235 . S
C517 C519 1.400 . S
C517 N520 1.351 . S
C517 C522 1.501 . S
C518 C519 1.387 . S
C518 N521 1.341 . S
C519 C517 1.400 . S
C519 C518 1.387 . S
N520 Co511 2.022 . S
N520 C517 1.351 . S
N520 N521 1.365 . S
N521 C518 1.341 . S
N521 N520 1.365 . S
N521 H541 0.862 . S
C522 C517 1.501 . S
C522 H523 0.961 . S
C522 H524 0.961 . S
C522 H525 0.960 . S
H523 C522 0.961 . S
H524 C522 0.961 . S
H525 C522 0.960 . S
C526 N527 1.342 . S
C526 C530 1.401 . S
C526 C531 1.499 . S
N527 Co510 1.989 . S
N527 C526 1.342 . S
N527 N528 1.388 . S
N528 Co511 1.993 . S
N528 N527 1.388 . S
N528 C529 1.346 . S
C529 N528 1.346 . S
C529 C530 1.396 . S
C529 C539 1.510 . S
C530 C526 1.401 . S
C530 C529 1.396 . S
C531 C526 1.499 . S
C531 H532 0.959 . S
C531 H533 0.960 . S
C531 H534 0.961 1_655 S
H532 C531 0.959 . S
H533 C531 0.960 . S
H534 C531 0.961 1_455 S
O535 Co510 1.967 . S
O535 C543 1.258 . S
O536 Co511 1.941 . S
O536 C543 1.266 . S
H537 C539 0.959 . S
H538 C539 0.961 . S
C539 C529 1.510 . S
C539 H537 0.959 . S
C539 H538 0.961 . S
C539 H540 0.960 . S
H540 C539 0.960 . S
H541 N521 0.862 . S
O542 Co510 1.920 . S
O542 C515 1.289 . S
C543 O535 1.258 . S
C543 O536 1.266 . S
H544 C552 0.929 . S
H545 C554 0.930 . S
H546 C556 0.930 . S
H547 C559 0.929 . S
H548 C562 0.930 . S
H549 C564 0.960 . S
H550 C564 0.960 . S
H551 C564 0.960 . S
C552 H544 0.929 . S
C552 C553 1.377 . S
C552 C554 1.384 . S
C553 C552 1.377 . S
C553 C559 1.390 . S
C554 H545 0.930 . S
C554 C552 1.384 . S
C554 C555 1.372 . S
C555 C554 1.372 . S
C555 C556 1.400 . S
C555 C560 1.490 . S
C556 H546 0.930 . S
C556 C555 1.400 . S
C556 C559 1.386 . S
H557 C573 0.930 . S
H558 C574 0.931 . S
C559 H547 0.929 . S
C559 C553 1.390 . S
C559 C556 1.386 . S
C560 C555 1.490 . S
C560 C562 1.395 . S
C560 C563 1.403 . S
H561 C567 0.930 . S
C562 H548 0.930 . S
C562 C560 1.395 . S
C562 C565 1.403 1_655 S
C563 C560 1.403 . S
C563 C564 1.524 . S
C563 C567 1.400 1_655 S
C564 H549 0.960 . S
C564 H550 0.960 . S
C564 H551 0.960 . S
C564 C563 1.524 . S
C565 C562 1.403 1_455 S
C565 C566 1.392 . S
C565 C569 1.495 . S
C566 C565 1.392 . S
C566 C567 1.385 . S
C566 C568 1.478 . S
C567 H561 0.930 . S
C567 C563 1.400 1_455 S
C567 C566 1.385 . S
C568 C566 1.478 . S
C568 C570 1.381 . S
C568 C574 1.383 . S
C569 C565 1.495 . S
C569 H575 0.959 . S
C569 H576 0.961 . S
C569 H577 0.960 . S
C570 C568 1.381 . S
C570 C571 1.394 . S
C570 H578 0.930 . S
C571 C570 1.394 . S
C571 C572 1.383 . S
C571 H579 0.929 . S
C572 C571 1.383 . S
C572 C573 1.377 . S
C573 H557 0.930 . S
C573 C572 1.377 . S
C573 C574 1.379 . S
C574 H558 0.931 . S
C574 C568 1.383 . S
C574 C573 1.379 . S
H575 C569 0.959 . S
H576 C569 0.961 . S
H577 C569 0.960 . S
H578 C570 0.930 . S
H579 C571 0.929 . S
H580 C588 0.929 . S
H581 C590 0.930 . S
H582 C592 0.930 . S
H583 C595 0.929 . S
H584 C598 0.930 . S
H585 C600 0.960 . S
H586 C600 0.960 . S
H587 C600 0.960 . S
C588 H580 0.929 . S
C588 C589 1.377 . S
C588 C590 1.384 . S
C589 C588 1.377 . S
C589 C595 1.390 . S
C590 H581 0.930 . S
C590 C588 1.384 . S
C590 C591 1.372 . S
C591 C590 1.372 . S
C591 C592 1.400 . S
C591 C596 1.490 . S
C592 H582 0.930 . S
C592 C591 1.400 . S
C592 C595 1.386 . S
H593 C609 0.930 . S
H594 C610 0.931 . S
C595 H583 0.929 . S
C595 C589 1.390 . S
C595 C592 1.386 . S
C596 C591 1.490 . S
C596 C598 1.395 . S
C596 C599 1.403 . S
H597 C603 0.930 . S
C598 H584 0.930 . S
C598 C596 1.395 . S
C598 C601 1.403 1_545 S
C599 C596 1.403 . S
C599 C600 1.524 . S
C599 C603 1.400 1_545 S
C600 H585 0.960 . S
C600 H586 0.960 . S
C600 H587 0.960 . S
C600 C599 1.524 . S
C601 C598 1.403 1_565 S
C601 C602 1.392 . S
C601 C605 1.495 . S
C602 C601 1.392 . S
C602 C603 1.385 . S
C602 C604 1.478 . S
C603 H597 0.930 . S
C603 C599 1.400 1_565 S
C603 C602 1.385 . S
C604 C602 1.478 . S
C604 C606 1.381 . S
C604 C610 1.383 . S
C605 C601 1.495 . S
C605 H611 0.959 . S
C605 H612 0.961 . S
C605 H613 0.960 . S
C606 C604 1.381 . S
C606 C607 1.394 . S
C606 H614 0.930 . S
C607 C606 1.394 . S
C607 C608 1.383 . S
C607 H615 0.929 . S
C608 C607 1.383 . S
C608 C609 1.377 . S
C609 H593 0.930 . S
C609 C608 1.377 . S
C609 C610 1.379 . S
C610 H594 0.931 . S
C610 C604 1.383 . S
C610 C609 1.379 . S
H611 C605 0.959 . S
H612 C605 0.961 . S
H613 C605 0.960 . S
H614 C606 0.930 . S
H615 C607 0.929 . S
H616 C624 0.929 . S
H617 C626 0.930 . S
H618 C628 0.930 . S
H619 C631 0.929 . S
H620 C634 0.930 . S
H621 C636 0.960 . S
H622 C636 0.960 . S
H623 C636 0.960 . S
C624 H616 0.929 . S
C624 C625 1.377 . S
C624 C626 1.384 . S
C625 C624 1.377 . S
C625 C631 1.390 . S
C626 H617 0.930 . S
C626 C624 1.384 . S
C626 C627 1.372 . S
C627 C626 1.372 . S
C627 C628 1.400 . S
C627 C632 1.490 . S
C628 H618 0.930 . S
C628 C627 1.400 . S
C628 C631 1.386 . S
H629 C645 0.930 . S
H630 C646 0.931 . S
C631 H619 0.929 . S
C631 C625 1.390 . S
C631 C628 1.386 . S
C632 C627 1.490 . S
C632 C634 1.395 . S
C632 C635 1.403 . S
H633 C639 0.930 . S
C634 H620 0.930 . S
C634 C632 1.395 . S
C634 C637 1.403 1_655 S
C635 C632 1.403 . S
C635 C636 1.524 . S
C635 C639 1.400 1_655 S
C636 H621 0.960 . S
C636 H622 0.960 . S
C636 H623 0.960 . S
C636 C635 1.524 . S
C637 C634 1.403 1_455 S
C637 C638 1.392 . S
C637 C641 1.495 . S
C638 C637 1.392 . S
C638 C639 1.385 . S
C638 C640 1.478 . S
C639 H633 0.930 . S
C639 C635 1.400 1_455 S
C639 C638 1.385 . S
C640 C638 1.478 . S
C640 C642 1.381 . S
C640 C646 1.383 . S
C641 C637 1.495 . S
C641 H647 0.959 . S
C641 H648 0.961 . S
C641 H649 0.960 . S
C642 C640 1.381 . S
C642 C643 1.394 . S
C642 H650 0.930 . S
C643 C642 1.394 . S
C643 C644 1.383 . S
C643 H651 0.929 . S
C644 C643 1.383 . S
C644 C645 1.377 . S
C645 H629 0.930 . S
C645 C644 1.377 . S
C645 C646 1.379 . S
C646 H630 0.931 . S
C646 C640 1.383 . S
C646 C645 1.379 . S
H647 C641 0.959 . S
H648 C641 0.961 . S
H649 C641 0.960 . S
H650 C642 0.930 . S
H651 C643 0.929 . S
H652 C660 0.929 . S
H653 C662 0.930 . S
H654 C664 0.930 . S
H655 C667 0.929 . S
H656 C670 0.930 . S
H657 C672 0.960 . S
H658 C672 0.960 . S
H659 C672 0.960 . S
C660 H652 0.929 . S
C660 C661 1.377 . S
C660 C662 1.384 . S
C661 C660 1.377 . S
C661 C667 1.390 . S
C662 H653 0.930 . S
C662 C660 1.384 . S
C662 C663 1.372 . S
C663 C662 1.372 . S
C663 C664 1.400 . S
C663 C668 1.490 . S
C664 H654 0.930 . S
C664 C663 1.400 . S
C664 C667 1.386 . S
H665 C681 0.930 . S
H666 C682 0.931 . S
C667 H655 0.929 . S
C667 C661 1.390 . S
C667 C664 1.386 . S
C668 C663 1.490 . S
C668 C670 1.395 . S
C668 C671 1.403 . S
H669 C675 0.930 . S
C670 H656 0.930 . S
C670 C668 1.395 . S
C670 C673 1.403 1_565 S
C671 C668 1.403 . S
C671 C672 1.524 . S
C671 C675 1.400 1_565 S
C672 H657 0.960 . S
C672 H658 0.960 . S
C672 H659 0.960 . S
C672 C671 1.524 . S
C673 C670 1.403 1_545 S
C673 C674 1.392 . S
C673 C677 1.495 . S
C674 C673 1.392 . S
C674 C675 1.385 . S
C674 C676 1.478 . S
C675 H669 0.930 . S
C675 C671 1.400 1_545 S
C675 C674 1.385 . S
C676 C674 1.478 . S
C676 C678 1.381 . S
C676 C682 1.383 . S
C677 C673 1.495 . S
C677 H683 0.959 . S
C677 H684 0.961 . S
C677 H685 0.960 . S
C678 C676 1.381 . S
C678 C679 1.394 . S
C678 H686 0.930 . S
C679 C678 1.394 . S
C679 C680 1.383 . S
C679 H687 0.929 . S
C680 C679 1.383 . S
C680 C681 1.377 . S
C681 H665 0.930 . S
C681 C680 1.377 . S
C681 C682 1.379 . S
C682 H666 0.931 . S
C682 C676 1.383 . S
C682 C681 1.379 . S
H683 C677 0.959 . S
H684 C677 0.961 . S
H685 C677 0.960 . S
H686 C678 0.930 . S
H687 C679 0.929 . S
H688 C696 0.929 . S
H689 C698 0.930 . S
H690 C700 0.930 . S
H691 C703 0.929 . S
H692 C706 0.930 . S
H693 C708 0.960 . S
H694 C708 0.960 . S
H695 C708 0.960 . S
C696 H688 0.929 . S
C696 C697 1.377 . S
C696 C698 1.384 . S
C697 C696 1.377 . S
C697 C703 1.390 . S
C698 H689 0.930 . S
C698 C696 1.384 . S
C698 C699 1.372 . S
C699 C698 1.372 . S
C699 C700 1.400 . S
C699 C704 1.490 . S
C700 H690 0.930 . S
C700 C699 1.400 . S
C700 C703 1.386 . S
H701 C717 0.930 . S
H702 C718 0.931 . S
C703 H691 0.929 . S
C703 C697 1.390 . S
C703 C700 1.386 . S
C704 C699 1.490 . S
C704 C706 1.395 1_565 S
C704 C707 1.403 . S
H705 C711 0.930 . S
C706 H692 0.930 . S
C706 C704 1.395 1_545 S
C706 C709 1.403 . S
C707 C704 1.403 . S
C707 C708 1.524 . S
C707 C711 1.400 . S
C708 H693 0.960 . S
C708 H694 0.960 . S
C708 H695 0.960 . S
C708 C707 1.524 . S
C709 C706 1.403 . S
C709 C710 1.392 . S
C709 C713 1.495 . S
C710 C709 1.392 . S
C710 C711 1.385 1_545 S
C710 C712 1.478 . S
C711 H705 0.930 . S
C711 C707 1.400 . S
C711 C710 1.385 1_565 S
C712 C710 1.478 . S
C712 C714 1.381 . S
C712 C718 1.383 . S
C713 C709 1.495 . S
C713 H719 0.959 . S
C713 H720 0.961 . S
C713 H721 0.960 . S
C714 C712 1.381 . S
C714 C715 1.394 . S
C714 H722 0.930 . S
C715 C714 1.394 . S
C715 C716 1.383 . S
C715 H723 0.929 . S
C716 C715 1.383 . S
C716 C717 1.377 . S
C717 H701 0.930 . S
C717 C716 1.377 . S
C717 C718 1.379 . S
C718 H702 0.931 . S
C718 C712 1.383 . S
C718 C717 1.379 . S
H719 C713 0.959 . S
H720 C713 0.961 . S
H721 C713 0.960 . S
H722 C714 0.930 . S
H723 C715 0.929 . S
H724 C732 0.929 . S
H725 C734 0.930 . S
H726 C736 0.930 . S
H727 C739 0.929 . S
H728 C742 0.930 . S
H729 C744 0.960 . S
H730 C744 0.960 . S
H731 C744 0.960 . S
C732 H724 0.929 . S
C732 C733 1.377 . S
C732 C734 1.384 . S
C733 C732 1.377 . S
C733 C739 1.390 . S
C734 H725 0.930 . S
C734 C732 1.384 . S
C734 C735 1.372 . S
C735 C734 1.372 . S
C735 C736 1.400 . S
C735 C740 1.490 . S
C736 H726 0.930 . S
C736 C735 1.400 . S
C736 C739 1.386 . S
H737 C753 0.930 . S
H738 C754 0.931 . S
C739 H727 0.929 . S
C739 C733 1.390 . S
C739 C736 1.386 . S
C740 C735 1.490 . S
C740 C742 1.395 . S
C740 C743 1.403 1_655 S
H741 C747 0.930 . S
C742 H728 0.930 . S
C742 C740 1.395 . S
C742 C745 1.403 . S
C743 C740 1.403 1_455 S
C743 C744 1.524 . S
C743 C747 1.400 . S
C744 H729 0.960 . S
C744 H730 0.960 . S
C744 H731 0.960 . S
C744 C743 1.524 . S
C745 C742 1.403 . S
C745 C746 1.416 . S
C745 C749 1.495 . S
C746 C745 1.416 . S
C746 C747 1.364 1_655 S
C746 C748 1.474 1_655 S
C747 H741 0.930 . S
C747 C743 1.400 . S
C747 C746 1.364 1_455 S
C748 C746 1.474 1_455 S
C748 C750 1.381 . S
C748 C754 1.383 . S
C749 C745 1.495 . S
C749 H755 0.959 . S
C749 H756 0.961 . S
C749 H757 0.960 . S
C750 C748 1.381 . S
C750 C751 1.394 . S
C750 H758 0.930 . S
C751 C750 1.394 . S
C751 C752 1.383 . S
C751 H759 0.929 . S
C752 C751 1.383 . S
C752 C753 1.377 . S
C753 H737 0.930 . S
C753 C752 1.377 . S
C753 C754 1.379 . S
C754 H738 0.931 . S
C754 C748 1.383 . S
C754 C753 1.379 . S
H755 C749 0.959 . S
H756 C749 0.961 . S
H757 C749 0.960 . S
H758 C750 0.930 . S
H759 C751 0.929 . S
H760 C768 0.929 . S
H761 C770 0.930 . S
H762 C772 0.930 . S
H763 C775 0.929 . S
H764 C778 0.930 . S
H765 C780 0.960 . S
H766 C780 0.960 . S
H767 C780 0.960 1_565 S
C768 H760 0.929 . S
C768 C769 1.377 1_545 S
C768 C770 1.384 . S
C769 C768 1.377 1_565 S
C769 C775 1.390 . S
C770 H761 0.930 . S
C770 C768 1.384 . S
C770 C771 1.372 1_545 S
C771 C770 1.372 1_565 S
C771 C772 1.400 . S
C771 C776 1.490 . S
C772 H762 0.930 . S
C772 C771 1.400 . S
C772 C775 1.386 . S
H773 C789 0.930 . S
H774 C790 0.931 . S
C775 H763 0.929 . S
C775 C769 1.390 . S
C775 C772 1.386 . S
C776 C771 1.490 . S
C776 C778 1.395 . S
C776 C779 1.403 1_565 S
H777 C783 0.930 . S
C778 H764 0.930 . S
C778 C776 1.395 . S
C778 C781 1.403 . S
C779 C776 1.403 1_545 S
C779 C780 1.524 . S
C779 C783 1.400 . S
C780 H765 0.960 . S
C780 H766 0.960 . S
C780 H767 0.960 1_545 S
C780 C779 1.524 . S
C781 C778 1.403 . S
C781 C782 1.392 1_565 S
C781 C785 1.495 . S
C782 C781 1.392 1_545 S
C782 C783 1.385 . S
C782 C784 1.478 . S
C783 H777 0.930 . S
C783 C779 1.400 . S
C783 C782 1.385 . S
C784 C782 1.478 . S
C784 C786 1.381 . S
C784 C790 1.383 1_545 S
C785 C781 1.495 . S
C785 H791 0.959 . S
C785 H792 0.961 . S
C785 H793 0.960 1_565 S
C786 C784 1.381 . S
C786 C787 1.394 . S
C786 H794 0.930 . S
C787 C786 1.394 . S
C787 C788 1.383 . S
C787 H795 0.929 . S
C788 C787 1.383 . S
C788 C789 1.377 1_545 S
C789 H773 0.930 . S
C789 C788 1.377 1_565 S
C789 C790 1.379 . S
C790 H774 0.931 . S
C790 C784 1.383 1_565 S
C790 C789 1.379 . S
H791 C785 0.959 . S
H792 C785 0.961 . S
H793 C785 0.960 1_545 S
H794 C786 0.930 . S
H795 C787 0.929 . S
H796 C804 0.929 . S
H797 C806 0.930 . S
H798 C808 0.930 . S
H799 C811 0.929 . S
H800 C814 0.930 . S
H801 C816 0.960 . S
H802 C816 0.960 . S
H803 C816 0.960 . S
C804 H796 0.929 . S
C804 C805 1.377 . S
C804 C806 1.384 . S
C805 C804 1.377 . S
C805 C811 1.390 1_655 S
C806 H797 0.930 . S
C806 C804 1.384 . S
C806 C807 1.372 . S
C807 C806 1.372 . S
C807 C808 1.400 1_655 S
C807 C812 1.490 . S
C808 H798 0.930 . S
C808 C807 1.400 1_455 S
C808 C811 1.386 . S
H809 C825 0.930 . S
H810 C826 0.931 . S
C811 H799 0.929 . S
C811 C805 1.390 1_455 S
C811 C808 1.386 . S
C812 C807 1.490 . S
C812 C814 1.395 . S
C812 C815 1.403 1_655 S
H813 C819 0.930 . S
C814 H800 0.930 . S
C814 C812 1.395 . S
C814 C817 1.403 . S
C815 C812 1.403 1_455 S
C815 C816 1.524 . S
C815 C819 1.400 . S
C816 H801 0.960 . S
C816 H802 0.960 . S
C816 H803 0.960 . S
C816 C815 1.524 . S
C817 C814 1.403 . S
C817 C818 1.383 1_655 S
C817 C821 1.495 . S
C818 C817 1.383 1_455 S
C818 C819 1.392 . S
C818 C820 1.480 . S
C819 H813 0.930 . S
C819 C815 1.400 . S
C819 C818 1.392 . S
C820 C818 1.480 . S
C820 C822 1.381 1_455 S
C820 C826 1.383 . S
C821 C817 1.495 . S
C821 H827 0.959 . S
C821 H828 0.961 . S
C821 H829 0.960 . S
C822 C820 1.381 1_655 S
C822 C823 1.394 . S
C822 H830 0.930 . S
C823 C822 1.394 . S
C823 C824 1.383 1_655 S
C823 H831 0.929 . S
C824 C823 1.383 1_455 S
C824 C825 1.377 . S
C825 H809 0.930 . S
C825 C824 1.377 . S
C825 C826 1.379 . S
C826 H810 0.931 . S
C826 C820 1.383 . S
C826 C825 1.379 . S
H827 C821 0.959 . S
H828 C821 0.961 . S
H829 C821 0.960 . S
H830 C822 0.930 . S
H831 C823 0.929 . S
H832 C840 0.929 . S
H833 C842 0.930 . S
H834 C844 0.930 . S
H835 C847 0.929 . S
H836 C850 0.930 . S
H837 C852 0.960 . S
H838 C852 0.960 . S
H839 C852 0.960 . S
C840 H832 0.929 . S
C840 C841 1.377 . S
C840 C842 1.384 . S
C841 C840 1.377 . S
C841 C847 1.390 . S
C842 H833 0.930 . S
C842 C840 1.384 . S
C842 C843 1.372 . S
C843 C842 1.372 . S
C843 C844 1.400 . S
C843 C848 1.490 . S
C844 H834 0.930 . S
C844 C843 1.400 . S
C844 C847 1.386 . S
H845 C861 0.930 . S
H846 C862 0.931 . S
C847 H835 0.929 . S
C847 C841 1.390 . S
C847 C844 1.386 . S
C848 C843 1.490 . S
C848 C850 1.395 . S
C848 C851 1.403 . S
H849 C855 0.930 . S
C850 H836 0.930 . S
C850 C848 1.395 . S
C850 C853 1.403 . S
C851 C848 1.403 . S
C851 C852 1.524 . S
C851 C855 1.400 . S
C852 H837 0.960 . S
C852 H838 0.960 . S
C852 H839 0.960 . S
C852 C851 1.524 . S
C853 C850 1.403 . S
C853 C854 1.392 . S
C853 C857 1.495 . S
C854 C853 1.392 . S
C854 C855 1.385 . S
C854 C856 1.478 . S
C855 H849 0.930 . S
C855 C851 1.400 . S
C855 C854 1.385 . S
C856 C854 1.478 . S
C856 C858 1.381 . S
C856 C862 1.383 . S
C857 C853 1.495 . S
C857 H863 0.959 . S
C857 H864 0.961 . S
C857 H865 0.960 . S
C858 C856 1.381 . S
C858 C859 1.394 . S
C858 H866 0.930 . S
C859 C858 1.394 . S
C859 C860 1.383 . S
C859 H867 0.929 . S
C860 C859 1.383 . S
C860 C861 1.377 . S
C861 H845 0.930 . S
C861 C860 1.377 . S
C861 C862 1.379 . S
C862 H846 0.931 . S
C862 C856 1.383 . S
C862 C861 1.379 . S
H863 C857 0.959 . S
H864 C857 0.961 . S
H865 C857 0.960 . S
H866 C858 0.930 . S
H867 C859 0.929 . S
H868 C876 0.929 . S
H869 C878 0.930 . S
H870 C880 0.930 . S
H871 C883 0.929 . S
H872 C886 0.930 . S
H873 C888 0.960 . S
H874 C888 0.960 . S
H875 C888 0.960 . S
C876 H868 0.929 . S
C876 C877 1.377 . S
C876 C878 1.384 . S
C877 C876 1.377 . S
C877 C883 1.390 . S
C878 H869 0.930 . S
C878 C876 1.384 . S
C878 C879 1.372 . S
C879 C878 1.372 . S
C879 C880 1.400 . S
C879 C884 1.490 . S
C880 H870 0.930 . S
C880 C879 1.400 . S
C880 C883 1.386 . S
H881 C897 0.930 . S
H882 C898 0.931 . S
C883 H871 0.929 . S
C883 C877 1.390 . S
C883 C880 1.386 . S
C884 C879 1.490 . S
C884 C886 1.395 . S
C884 C887 1.403 . S
H885 C891 0.930 . S
C886 H872 0.930 . S
C886 C884 1.395 . S
C886 C889 1.403 . S
C887 C884 1.403 . S
C887 C888 1.524 . S
C887 C891 1.400 . S
C888 H873 0.960 . S
C888 H874 0.960 . S
C888 H875 0.960 . S
C888 C887 1.524 . S
C889 C886 1.403 . S
C889 C890 1.392 . S
C889 C893 1.495 . S
C890 C889 1.392 . S
C890 C891 1.385 . S
C890 C892 1.478 . S
C891 H885 0.930 . S
C891 C887 1.400 . S
C891 C890 1.385 . S
C892 C890 1.478 . S
C892 C894 1.381 . S
C892 C898 1.383 . S
C893 C889 1.495 . S
C893 H899 0.959 . S
C893 H900 0.961 . S
C893 H901 0.960 . S
C894 C892 1.381 . S
C894 C895 1.394 . S
C894 H902 0.930 . S
C895 C894 1.394 . S
C895 C896 1.383 . S
C895 H903 0.929 . S
C896 C895 1.383 . S
C896 C897 1.377 . S
C897 H881 0.930 . S
C897 C896 1.377 . S
C897 C898 1.379 . S
C898 H882 0.931 . S
C898 C892 1.383 . S
C898 C897 1.379 . S
H899 C893 0.959 . S
H900 C893 0.961 . S
H901 C893 0.960 . S
H902 C894 0.930 . S
H903 C895 0.929 . S
H904 C912 0.929 . S
H905 C914 0.930 . S
H906 C916 0.930 . S
H907 C919 0.929 . S
H908 C922 0.930 . S
H909 C924 0.960 . S
H910 C924 0.960 . S
H911 C924 0.960 . S
C912 H904 0.929 . S
C912 C913 1.377 . S
C912 C914 1.384 . S
C913 C912 1.377 . S
C913 C919 1.390 . S
C914 H905 0.930 . S
C914 C912 1.384 . S
C914 C915 1.372 . S
C915 C914 1.372 . S
C915 C916 1.400 . S
C915 C920 1.490 . S
C916 H906 0.930 . S
C916 C915 1.400 . S
C916 C919 1.386 . S
H917 C933 0.930 . S
H918 C934 0.931 . S
C919 H907 0.929 . S
C919 C913 1.390 . S
C919 C916 1.386 . S
C920 C915 1.490 . S
C920 C922 1.395 . S
C920 C923 1.403 . S
H921 C927 0.930 . S
C922 H908 0.930 . S
C922 C920 1.395 . S
C922 C925 1.403 . S
C923 C920 1.403 . S
C923 C924 1.524 . S
C923 C927 1.400 . S
C924 H909 0.960 . S
C924 H910 0.960 . S
C924 H911 0.960 . S
C924 C923 1.524 . S
C925 C922 1.403 . S
C925 C926 1.392 . S
C925 C929 1.495 . S
C926 C925 1.392 . S
C926 C927 1.385 . S
C926 C928 1.478 . S
C927 H921 0.930 . S
C927 C923 1.400 . S
C927 C926 1.385 . S
C928 C926 1.478 . S
C928 C930 1.381 . S
C928 C934 1.383 . S
C929 C925 1.495 . S
C929 H935 0.959 . S
C929 H936 0.961 . S
C929 H937 0.960 . S
C930 C928 1.381 . S
C930 C931 1.394 . S
C930 H938 0.930 . S
C931 C930 1.394 . S
C931 C932 1.383 . S
C931 H939 0.929 . S
C932 C931 1.383 . S
C932 C933 1.377 . S
C933 H917 0.930 . S
C933 C932 1.377 . S
C933 C934 1.379 . S
C934 H918 0.931 . S
C934 C928 1.383 . S
C934 C933 1.379 . S
H935 C929 0.959 . S
H936 C929 0.961 . S
H937 C929 0.960 . S
H938 C930 0.930 . S
H939 C931 0.929 . S
H940 C948 0.929 . S
H941 C950 0.930 . S
H942 C952 0.930 . S
H943 C955 0.929 . S
H944 C958 0.930 . S
H945 C960 0.960 . S
H946 C960 0.960 . S
H947 C960 0.960 . S
C948 H940 0.929 . S
C948 C949 1.377 . S
C948 C950 1.384 . S
C949 C948 1.377 . S
C949 C955 1.390 . S
C950 H941 0.930 . S
C950 C948 1.384 . S
C950 C951 1.372 . S
C951 C950 1.372 . S
C951 C952 1.400 . S
C951 C956 1.490 . S
C952 H942 0.930 . S
C952 C951 1.400 . S
C952 C955 1.386 . S
H953 C969 0.930 . S
H954 C970 0.931 . S
C955 H943 0.929 . S
C955 C949 1.390 . S
C955 C952 1.386 . S
C956 C951 1.490 . S
C956 C958 1.395 . S
C956 C959 1.403 . S
H957 C963 0.930 . S
C958 H944 0.930 . S
C958 C956 1.395 . S
C958 C961 1.403 . S
C959 C956 1.403 . S
C959 C960 1.524 . S
C959 C963 1.400 . S
C960 H945 0.960 . S
C960 H946 0.960 . S
C960 H947 0.960 . S
C960 C959 1.524 . S
C961 C958 1.403 . S
C961 C962 1.392 . S
C961 C965 1.495 . S
C962 C961 1.392 . S
C962 C963 1.385 . S
C962 C964 1.478 . S
C963 H957 0.930 . S
C963 C959 1.400 . S
C963 C962 1.385 . S
C964 C962 1.478 . S
C964 C966 1.381 . S
C964 C970 1.383 . S
C965 C961 1.495 . S
C965 H971 0.959 . S
C965 H972 0.961 . S
C965 H973 0.960 . S
C966 C964 1.381 . S
C966 C967 1.394 . S
C966 H974 0.930 . S
C967 C966 1.394 . S
C967 C968 1.383 . S
C967 H975 0.929 . S
C968 C967 1.383 . S
C968 C969 1.377 . S
C969 H953 0.930 . S
C969 C968 1.377 . S
C969 C970 1.379 . S
C970 H954 0.931 . S
C970 C964 1.383 . S
C970 C969 1.379 . S
H971 C965 0.959 . S
H972 C965 0.961 . S
H973 C965 0.960 . S
H974 C966 0.930 . S
H975 C967 0.929 . S
H976 C984 0.929 . S
H977 C986 0.930 . S
H978 C988 0.930 . S
H979 C991 0.929 . S
H980 C994 0.930 . S
H981 C996 0.960 . S
H982 C996 0.960 . S
H983 C996 0.960 . S
C984 H976 0.929 . S
C984 C985 1.377 . S
C984 C986 1.384 . S
C985 C984 1.377 . S
C985 C991 1.390 . S
C986 H977 0.930 . S
C986 C984 1.384 . S
C986 C987 1.372 . S
C987 C986 1.372 . S
C987 C988 1.400 . S
C987 C992 1.490 . S
C988 H978 0.930 . S
C988 C987 1.400 . S
C988 C991 1.386 . S
H989 C1005 0.930 . S
H990 C1006 0.931 . S
C991 H979 0.929 . S
C991 C985 1.390 . S
C991 C988 1.386 . S
C992 C987 1.490 . S
C992 C994 1.395 . S
C992 C995 1.403 . S
H993 C999 0.930 . S
C994 H980 0.930 . S
C994 C992 1.395 . S
C994 C997 1.403 . S
C995 C992 1.403 . S
C995 C996 1.524 . S
C995 C999 1.400 . S
C996 H981 0.960 . S
C996 H982 0.960 . S
C996 H983 0.960 . S
C996 C995 1.524 . S
C997 C994 1.403 . S
C997 C998 1.392 . S
C997 C1001 1.495 . S
C998 C997 1.392 . S
C998 C999 1.385 . S
C998 C1000 1.478 . S
C999 H993 0.930 . S
C999 C995 1.400 . S
C999 C998 1.385 . S
C1000 C998 1.478 . S
C1000 C1002 1.381 . S
C1000 C1006 1.383 . S
C1001 C997 1.495 . S
C1001 H1007 0.959 . S
C1001 H1008 0.961 . S
C1001 H1009 0.960 . S
C1002 C1000 1.381 . S
C1002 C1003 1.394 . S
C1002 H1010 0.930 . S
C1003 C1002 1.394 . S
C1003 C1004 1.383 . S
C1003 H1011 0.929 . S
C1004 C1003 1.383 . S
C1004 C1005 1.377 . S
C1005 H989 0.930 . S
C1005 C1004 1.377 . S
C1005 C1006 1.379 . S
C1006 H990 0.931 . S
C1006 C1000 1.383 . S
C1006 C1005 1.379 . S
H1007 C1001 0.959 . S
H1008 C1001 0.961 . S
H1009 C1001 0.960 . S
H1010 C1002 0.930 . S
H1011 C1003 0.929 . S
H1012 C1020 0.929 . S
H1013 C1022 0.930 . S
H1014 C1024 0.930 . S
H1015 C1027 0.929 . S
H1016 C1030 0.930 . S
H1017 C1032 0.960 . S
H1018 C1032 0.960 . S
H1019 C1032 0.960 . S
C1020 H1012 0.929 . S
C1020 C1021 1.377 . S
C1020 C1022 1.384 . S
C1021 C1020 1.377 . S
C1021 C1027 1.390 . S
C1022 H1013 0.930 . S
C1022 C1020 1.384 . S
C1022 C1023 1.372 . S
C1023 C1022 1.372 . S
C1023 C1024 1.400 . S
C1023 C1028 1.490 . S
C1024 H1014 0.930 . S
C1024 C1023 1.400 . S
C1024 C1027 1.386 . S
H1025 C1041 0.930 . S
H1026 C1042 0.931 . S
C1027 H1015 0.929 . S
C1027 C1021 1.390 . S
C1027 C1024 1.386 . S
C1028 C1023 1.490 . S
C1028 C1030 1.395 . S
C1028 C1031 1.403 . S
H1029 C1035 0.930 . S
C1030 H1016 0.930 . S
C1030 C1028 1.395 . S
C1030 C1033 1.403 . S
C1031 C1028 1.403 . S
C1031 C1032 1.524 . S
C1031 C1035 1.400 . S
C1032 H1017 0.960 . S
C1032 H1018 0.960 . S
C1032 H1019 0.960 . S
C1032 C1031 1.524 . S
C1033 C1030 1.403 . S
C1033 C1034 1.392 . S
C1033 C1037 1.495 . S
C1034 C1033 1.392 . S
C1034 C1035 1.385 . S
C1034 C1036 1.478 . S
C1035 H1029 0.930 . S
C1035 C1031 1.400 . S
C1035 C1034 1.385 . S
C1036 C1034 1.478 . S
C1036 C1038 1.381 . S
C1036 C1042 1.383 . S
C1037 C1033 1.495 . S
C1037 H1043 0.959 . S
C1037 H1044 0.961 . S
C1037 H1045 0.960 . S
C1038 C1036 1.381 . S
C1038 C1039 1.394 . S
C1038 H1046 0.930 . S
C1039 C1038 1.394 . S
C1039 C1040 1.383 . S
C1039 H1047 0.929 . S
C1040 C1039 1.383 . S
C1040 C1041 1.377 . S
C1041 H1025 0.930 . S
C1041 C1040 1.377 . S
C1041 C1042 1.379 . S
C1042 H1026 0.931 . S
C1042 C1036 1.383 . S
C1042 C1041 1.379 . S
H1043 C1037 0.959 . S
H1044 C1037 0.961 . S
H1045 C1037 0.960 . S
H1046 C1038 0.930 . S
H1047 C1039 0.929 . S
H1048 C1056 0.929 . S
H1049 C1058 0.930 . S
H1050 C1060 0.930 . S
H1051 C1063 0.929 . S
H1052 C1066 0.930 . S
H1053 C1068 0.960 . S
H1054 C1068 0.960 . S
H1055 C1068 0.960 . S
C1056 H1048 0.929 . S
C1056 C1057 1.377 . S
C1056 C1058 1.384 . S
C1057 C1056 1.377 . S
C1057 C1063 1.390 . S
C1058 H1049 0.930 . S
C1058 C1056 1.384 . S
C1058 C1059 1.372 . S
C1059 C1058 1.372 . S
C1059 C1060 1.400 . S
C1059 C1064 1.490 . S
C1060 H1050 0.930 . S
C1060 C1059 1.400 . S
C1060 C1063 1.386 . S
H1061 C1077 0.930 . S
H1062 C1078 0.931 . S
C1063 H1051 0.929 . S
C1063 C1057 1.390 . S
C1063 C1060 1.386 . S
C1064 C1059 1.490 . S
C1064 C1066 1.395 . S
C1064 C1067 1.403 . S
H1065 C1071 0.930 . S
C1066 H1052 0.930 . S
C1066 C1064 1.395 . S
C1066 C1069 1.403 . S
C1067 C1064 1.403 . S
C1067 C1068 1.524 . S
C1067 C1071 1.400 . S
C1068 H1053 0.960 . S
C1068 H1054 0.960 . S
C1068 H1055 0.960 . S
C1068 C1067 1.524 . S
C1069 C1066 1.403 . S
C1069 C1070 1.392 . S
C1069 C1073 1.495 . S
C1070 C1069 1.392 . S
C1070 C1071 1.385 . S
C1070 C1072 1.478 . S
C1071 H1065 0.930 . S
C1071 C1067 1.400 . S
C1071 C1070 1.385 . S
C1072 C1070 1.478 . S
C1072 C1074 1.381 . S
C1072 C1078 1.383 . S
C1073 C1069 1.495 . S
C1073 H1079 0.959 . S
C1073 H1080 0.961 . S
C1073 H1081 0.960 . S
C1074 C1072 1.381 . S
C1074 C1075 1.394 . S
C1074 H1082 0.930 . S
C1075 C1074 1.394 . S
C1075 C1076 1.383 . S
C1075 H1083 0.929 . S
C1076 C1075 1.383 . S
C1076 C1077 1.377 . S
C1077 H1061 0.930 . S
C1077 C1076 1.377 . S
C1077 C1078 1.379 . S
C1078 H1062 0.931 . S
C1078 C1072 1.383 . S
C1078 C1077 1.379 . S
H1079 C1073 0.959 . S
H1080 C1073 0.961 . S
H1081 C1073 0.960 . S
H1082 C1074 0.930 . S
H1083 C1075 0.929 . S
H1084 C1092 0.929 . S
H1085 C1094 0.930 . S
H1086 C1096 0.930 . S
H1087 C1099 0.929 . S
H1088 C1102 0.930 . S
H1089 C1104 0.960 . S
H1090 C1104 0.960 . S
H1091 C1104 0.960 . S
C1092 H1084 0.929 . S
C1092 C1093 1.377 . S
C1092 C1094 1.384 . S
C1093 C1092 1.377 . S
C1093 C1099 1.390 . S
C1094 H1085 0.930 . S
C1094 C1092 1.384 . S
C1094 C1095 1.372 . S
C1095 C1094 1.372 . S
C1095 C1096 1.400 . S
C1095 C1100 1.490 . S
C1096 H1086 0.930 . S
C1096 C1095 1.400 . S
C1096 C1099 1.386 . S
H1097 C1113 0.930 . S
H1098 C1114 0.931 . S
C1099 H1087 0.929 . S
C1099 C1093 1.390 . S
C1099 C1096 1.386 . S
C1100 C1095 1.490 . S
C1100 C1102 1.395 . S
C1100 C1103 1.403 . S
H1101 C1107 0.930 . S
C1102 H1088 0.930 . S
C1102 C1100 1.395 . S
C1102 C1105 1.403 . S
C1103 C1100 1.403 . S
C1103 C1104 1.524 . S
C1103 C1107 1.400 . S
C1104 H1089 0.960 . S
C1104 H1090 0.960 . S
C1104 H1091 0.960 . S
C1104 C1103 1.524 . S
C1105 C1102 1.403 . S
C1105 C1106 1.392 . S
C1105 C1109 1.495 . S
C1106 C1105 1.392 . S
C1106 C1107 1.385 . S
C1106 C1108 1.478 . S
C1107 H1101 0.930 . S
C1107 C1103 1.400 . S
C1107 C1106 1.385 . S
C1108 C1106 1.478 . S
C1108 C1110 1.381 . S
C1108 C1114 1.383 . S
C1109 C1105 1.495 . S
C1109 H1115 0.959 . S
C1109 H1116 0.961 . S
C1109 H1117 0.960 . S
C1110 C1108 1.381 . S
C1110 C1111 1.394 . S
C1110 H1118 0.930 . S
C1111 C1110 1.394 . S
C1111 C1112 1.383 . S
C1111 H1119 0.929 . S
C1112 C1111 1.383 . S
C1112 C1113 1.377 . S
C1113 H1097 0.930 . S
C1113 C1112 1.377 . S
C1113 C1114 1.379 . S
C1114 H1098 0.931 . S
C1114 C1108 1.383 . S
C1114 C1113 1.379 . S
H1115 C1109 0.959 . S
H1116 C1109 0.961 . S
H1117 C1109 0.960 . S
H1118 C1110 0.930 . S
H1119 C1111 0.929 . S
H1120 C1128 0.929 . S
H1121 C1130 0.930 . S
H1122 C1132 0.930 . S
H1123 C1135 0.929 . S
H1124 C1138 0.930 . S
H1125 C1140 0.960 . S
H1126 C1140 0.960 . S
H1127 C1140 0.960 . S
C1128 H1120 0.929 . S
C1128 C1129 1.377 . S
C1128 C1130 1.384 . S
C1129 C1128 1.377 . S
C1129 C1135 1.390 . S
C1130 H1121 0.930 . S
C1130 C1128 1.384 . S
C1130 C1131 1.372 . S
C1131 C1130 1.372 . S
C1131 C1132 1.400 . S
C1131 C1136 1.490 . S
C1132 H1122 0.930 . S
C1132 C1131 1.400 . S
C1132 C1135 1.386 . S
H1133 C1149 0.930 . S
H1134 C1150 0.931 . S
C1135 H1123 0.929 . S
C1135 C1129 1.390 . S
C1135 C1132 1.386 . S
C1136 C1131 1.490 . S
C1136 C1138 1.395 . S
C1136 C1139 1.403 . S
H1137 C1143 0.930 . S
C1138 H1124 0.930 . S
C1138 C1136 1.395 . S
C1138 C1141 1.403 . S
C1139 C1136 1.403 . S
C1139 C1140 1.524 . S
C1139 C1143 1.400 . S
C1140 H1125 0.960 . S
C1140 H1126 0.960 . S
C1140 H1127 0.960 . S
C1140 C1139 1.524 . S
C1141 C1138 1.403 . S
C1141 C1142 1.392 . S
C1141 C1145 1.495 . S
C1142 C1141 1.392 . S
C1142 C1143 1.385 . S
C1142 C1144 1.478 . S
C1143 H1137 0.930 . S
C1143 C1139 1.400 . S
C1143 C1142 1.385 . S
C1144 C1142 1.478 . S
C1144 C1146 1.381 . S
C1144 C1150 1.383 . S
C1145 C1141 1.495 . S
C1145 H1151 0.959 . S
C1145 H1152 0.961 . S
C1145 H1153 0.960 . S
C1146 C1144 1.381 . S
C1146 C1147 1.394 . S
C1146 H1154 0.930 . S
C1147 C1146 1.394 . S
C1147 C1148 1.383 . S
C1147 H1155 0.929 . S
C1148 C1147 1.383 . S
C1148 C1149 1.377 . S
C1149 H1133 0.930 . S
C1149 C1148 1.377 . S
C1149 C1150 1.379 . S
C1150 H1134 0.931 . S
C1150 C1144 1.383 . S
C1150 C1149 1.379 . S
H1151 C1145 0.959 . S
H1152 C1145 0.961 . S
H1153 C1145 0.960 . S
H1154 C1146 0.930 . S
H1155 C1147 0.929 . S
H1156 C1164 0.929 . S
H1157 C1166 0.930 . S
H1158 C1168 0.930 . S
H1159 C1171 0.929 . S
H1160 C1174 0.930 . S
H1161 C1176 0.960 . S
H1162 C1176 0.960 . S
H1163 C1176 0.960 . S
C1164 H1156 0.929 . S
C1164 C1165 1.377 . S
C1164 C1166 1.384 . S
C1165 C1164 1.377 . S
C1165 C1171 1.390 . S
C1166 H1157 0.930 . S
C1166 C1164 1.384 . S
C1166 C1167 1.372 . S
C1167 C1166 1.372 . S
C1167 C1168 1.400 . S
C1167 C1172 1.490 . S
C1168 H1158 0.930 . S
C1168 C1167 1.400 . S
C1168 C1171 1.386 . S
H1169 C1185 0.930 . S
H1170 C1186 0.931 . S
C1171 H1159 0.929 . S
C1171 C1165 1.390 . S
C1171 C1168 1.386 . S
C1172 C1167 1.490 . S
C1172 C1174 1.395 . S
C1172 C1175 1.403 . S
H1173 C1179 0.930 . S
C1174 H1160 0.930 . S
C1174 C1172 1.395 . S
C1174 C1177 1.403 . S
C1175 C1172 1.403 . S
C1175 C1176 1.524 . S
C1175 C1179 1.400 . S
C1176 H1161 0.960 . S
C1176 H1162 0.960 . S
C1176 H1163 0.960 . S
C1176 C1175 1.524 . S
C1177 C1174 1.403 . S
C1177 C1178 1.392 . S
C1177 C1181 1.495 . S
C1178 C1177 1.392 . S
C1178 C1179 1.385 . S
C1178 C1180 1.478 . S
C1179 H1173 0.930 . S
C1179 C1175 1.400 . S
C1179 C1178 1.385 . S
C1180 C1178 1.478 . S
C1180 C1182 1.381 . S
C1180 C1186 1.383 . S
C1181 C1177 1.495 . S
C1181 H1187 0.959 . S
C1181 H1188 0.961 . S
C1181 H1189 0.960 . S
C1182 C1180 1.381 . S
C1182 C1183 1.394 . S
C1182 H1190 0.930 . S
C1183 C1182 1.394 . S
C1183 C1184 1.383 . S
C1183 H1191 0.929 . S
C1184 C1183 1.383 . S
C1184 C1185 1.377 . S
C1185 H1169 0.930 . S
C1185 C1184 1.377 . S
C1185 C1186 1.379 . S
C1186 H1170 0.931 . S
C1186 C1180 1.383 . S
C1186 C1185 1.379 . S
H1187 C1181 0.959 . S
H1188 C1181 0.961 . S
H1189 C1181 0.960 . S
H1190 C1182 0.930 . S
H1191 C1183 0.929 . S
H1192 C1200 0.929 . S
H1193 C1202 0.930 . S
H1194 C1204 0.930 . S
H1195 C1207 0.929 . S
H1196 C1210 0.930 . S
H1197 C1212 0.960 . S
H1198 C1212 0.960 . S
H1199 C1212 0.960 . S
C1200 H1192 0.929 . S
C1200 C1201 1.377 . S
C1200 C1202 1.384 . S
C1201 C1200 1.377 . S
C1201 C1207 1.390 . S
C1202 H1193 0.930 . S
C1202 C1200 1.384 . S
C1202 C1203 1.372 . S
C1203 C1202 1.372 . S
C1203 C1204 1.400 . S
C1203 C1208 1.490 . S
C1204 H1194 0.930 . S
C1204 C1203 1.400 . S
C1204 C1207 1.386 . S
H1205 C1221 0.930 . S
H1206 C1222 0.931 . S
C1207 H1195 0.929 . S
C1207 C1201 1.390 . S
C1207 C1204 1.386 . S
C1208 C1203 1.490 . S
C1208 C1210 1.395 . S
C1208 C1211 1.403 . S
H1209 C1215 0.930 . S
C1210 H1196 0.930 . S
C1210 C1208 1.395 . S
C1210 C1213 1.403 . S
C1211 C1208 1.403 . S
C1211 C1212 1.524 . S
C1211 C1215 1.400 . S
C1212 H1197 0.960 . S
C1212 H1198 0.960 . S
C1212 H1199 0.960 . S
C1212 C1211 1.524 . S
C1213 C1210 1.403 . S
C1213 C1214 1.392 . S
C1213 C1217 1.495 . S
C1214 C1213 1.392 . S
C1214 C1215 1.385 . S
C1214 C1216 1.478 . S
C1215 H1209 0.930 . S
C1215 C1211 1.400 . S
C1215 C1214 1.385 . S
C1216 C1214 1.478 . S
C1216 C1218 1.381 . S
C1216 C1222 1.383 . S
C1217 C1213 1.495 . S
C1217 H1223 0.959 . S
C1217 H1224 0.961 . S
C1217 H1225 0.960 . S
C1218 C1216 1.381 . S
C1218 C1219 1.394 . S
C1218 H1226 0.930 . S
C1219 C1218 1.394 . S
C1219 C1220 1.383 . S
C1219 H1227 0.929 . S
C1220 C1219 1.383 . S
C1220 C1221 1.377 . S
C1221 H1205 0.930 . S
C1221 C1220 1.377 . S
C1221 C1222 1.379 . S
C1222 H1206 0.931 . S
C1222 C1216 1.383 . S
C1222 C1221 1.379 . S
H1223 C1217 0.959 . S
H1224 C1217 0.961 . S
H1225 C1217 0.960 . S
H1226 C1218 0.930 . S
H1227 C1219 0.929 . S
H1228 C1236 0.929 . S
H1229 C1238 0.930 . S
H1230 C1240 0.930 . S
H1231 C1243 0.929 . S
H1232 C1246 0.930 . S
H1233 C1248 0.960 . S
H1234 C1248 0.960 . S
H1235 C1248 0.960 . S
C1236 H1228 0.929 . S
C1236 C1237 1.377 . S
C1236 C1238 1.384 . S
C1237 C1236 1.377 . S
C1237 C1243 1.390 . S
C1238 H1229 0.930 . S
C1238 C1236 1.384 . S
C1238 C1239 1.372 . S
C1239 C1238 1.372 . S
C1239 C1240 1.400 . S
C1239 C1244 1.490 . S
C1240 H1230 0.930 . S
C1240 C1239 1.400 . S
C1240 C1243 1.386 . S
H1241 C1257 0.930 . S
H1242 C1258 0.931 . S
C1243 H1231 0.929 . S
C1243 C1237 1.390 . S
C1243 C1240 1.386 . S
C1244 C1239 1.490 . S
C1244 C1246 1.395 . S
C1244 C1247 1.403 . S
H1245 C1251 0.930 . S
C1246 H1232 0.930 . S
C1246 C1244 1.395 . S
C1246 C1249 1.403 . S
C1247 C1244 1.403 . S
C1247 C1248 1.524 . S
C1247 C1251 1.400 . S
C1248 H1233 0.960 . S
C1248 H1234 0.960 . S
C1248 H1235 0.960 . S
C1248 C1247 1.524 . S
C1249 C1246 1.403 . S
C1249 C1250 1.392 . S
C1249 C1253 1.495 . S
C1250 C1249 1.392 . S
C1250 C1251 1.385 . S
C1250 C1252 1.478 . S
C1251 H1245 0.930 . S
C1251 C1247 1.400 . S
C1251 C1250 1.385 . S
C1252 C1250 1.478 . S
C1252 C1254 1.381 . S
C1252 C1258 1.383 . S
C1253 C1249 1.495 . S
C1253 H1259 0.959 . S
C1253 H1260 0.961 . S
C1253 H1261 0.960 . S
C1254 C1252 1.381 . S
C1254 C1255 1.394 . S
C1254 H1262 0.930 . S
C1255 C1254 1.394 . S
C1255 C1256 1.383 . S
C1255 H1263 0.929 . S
C1256 C1255 1.383 . S
C1256 C1257 1.377 . S
C1257 H1241 0.930 . S
C1257 C1256 1.377 . S
C1257 C1258 1.379 . S
C1258 H1242 0.931 . S
C1258 C1252 1.383 . S
C1258 C1257 1.379 . S
H1259 C1253 0.959 . S
H1260 C1253 0.961 . S
H1261 C1253 0.960 . S
H1262 C1254 0.930 . S
H1263 C1255 0.929 . S
H1264 C1272 0.929 . S
H1265 C1274 0.930 . S
H1266 C1276 0.930 . S
H1267 C1279 0.929 . S
H1268 C1282 0.930 . S
H1269 C1284 0.960 . S
H1270 C1284 0.960 . S
H1271 C1284 0.960 . S
C1272 H1264 0.929 . S
C1272 C1273 1.377 . S
C1272 C1274 1.384 . S
C1273 C1272 1.377 . S
C1273 C1279 1.390 . S
C1274 H1265 0.930 . S
C1274 C1272 1.384 . S
C1274 C1275 1.372 . S
C1275 C1274 1.372 . S
C1275 C1276 1.400 . S
C1275 C1280 1.490 . S
C1276 H1266 0.930 . S
C1276 C1275 1.400 . S
C1276 C1279 1.386 . S
H1277 C1293 0.930 . S
H1278 C1294 0.931 . S
C1279 H1267 0.929 . S
C1279 C1273 1.390 . S
C1279 C1276 1.386 . S
C1280 C1275 1.490 . S
C1280 C1282 1.395 . S
C1280 C1283 1.403 . S
H1281 C1287 0.930 . S
C1282 H1268 0.930 . S
C1282 C1280 1.395 . S
C1282 C1285 1.403 . S
C1283 C1280 1.403 . S
C1283 C1284 1.524 . S
C1283 C1287 1.400 . S
C1284 H1269 0.960 . S
C1284 H1270 0.960 . S
C1284 H1271 0.960 . S
C1284 C1283 1.524 . S
C1285 C1282 1.403 . S
C1285 C1286 1.392 . S
C1285 C1289 1.495 . S
C1286 C1285 1.392 . S
C1286 C1287 1.385 . S
C1286 C1288 1.478 . S
C1287 H1281 0.930 . S
C1287 C1283 1.400 . S
C1287 C1286 1.385 . S
C1288 C1286 1.478 . S
C1288 C1290 1.381 . S
C1288 C1294 1.383 . S
C1289 C1285 1.495 . S
C1289 H1295 0.959 . S
C1289 H1296 0.961 . S
C1289 H1297 0.960 . S
C1290 C1288 1.381 . S
C1290 C1291 1.394 . S
C1290 H1298 0.930 . S
C1291 C1290 1.394 . S
C1291 C1292 1.383 . S
C1291 H1299 0.929 . S
C1292 C1291 1.383 . S
C1292 C1293 1.377 . S
C1293 H1277 0.930 . S
C1293 C1292 1.377 . S
C1293 C1294 1.379 . S
C1294 H1278 0.931 . S
C1294 C1288 1.383 . S
C1294 C1293 1.379 . S
H1295 C1289 0.959 . S
H1296 C1289 0.961 . S
H1297 C1289 0.960 . S
H1298 C1290 0.930 . S
H1299 C1291 0.929 . S
H1300 C1308 0.929 . S
H1301 C1310 0.930 . S
H1302 C1312 0.930 . S
H1303 C1315 0.929 . S
H1304 C1318 0.930 . S
H1305 C1320 0.960 . S
H1306 C1320 0.960 . S
H1307 C1320 0.960 . S
C1308 H1300 0.929 . S
C1308 C1309 1.377 . S
C1308 C1310 1.384 . S
C1309 C1308 1.377 . S
C1309 C1315 1.390 . S
C1310 H1301 0.930 . S
C1310 C1308 1.384 . S
C1310 C1311 1.372 . S
C1311 C1310 1.372 . S
C1311 C1312 1.400 . S
C1311 C1316 1.490 . S
C1312 H1302 0.930 . S
C1312 C1311 1.400 . S
C1312 C1315 1.386 . S
H1313 C1329 0.930 . S
H1314 C1330 0.931 . S
C1315 H1303 0.929 . S
C1315 C1309 1.390 . S
C1315 C1312 1.386 . S
C1316 C1311 1.490 . S
C1316 C1318 1.395 . S
C1316 C1319 1.403 . S
H1317 C1323 0.930 . S
C1318 H1304 0.930 . S
C1318 C1316 1.395 . S
C1318 C1321 1.403 . S
C1319 C1316 1.403 . S
C1319 C1320 1.524 . S
C1319 C1323 1.400 . S
C1320 H1305 0.960 . S
C1320 H1306 0.960 . S
C1320 H1307 0.960 . S
C1320 C1319 1.524 . S
C1321 C1318 1.403 . S
C1321 C1322 1.392 . S
C1321 C1325 1.495 . S
C1322 C1321 1.392 . S
C1322 C1323 1.385 . S
C1322 C1324 1.478 . S
C1323 H1317 0.930 . S
C1323 C1319 1.400 . S
C1323 C1322 1.385 . S
C1324 C1322 1.478 . S
C1324 C1326 1.381 . S
C1324 C1330 1.383 . S
C1325 C1321 1.495 . S
C1325 H1331 0.959 . S
C1325 H1332 0.961 . S
C1325 H1333 0.960 . S
C1326 C1324 1.381 . S
C1326 C1327 1.394 . S
C1326 H1334 0.930 . S
C1327 C1326 1.394 . S
C1327 C1328 1.383 . S
C1327 H1335 0.929 . S
C1328 C1327 1.383 . S
C1328 C1329 1.377 . S
C1329 H1313 0.930 . S
C1329 C1328 1.377 . S
C1329 C1330 1.379 . S
C1330 H1314 0.931 . S
C1330 C1324 1.383 . S
C1330 C1329 1.379 . S
H1331 C1325 0.959 . S
H1332 C1325 0.961 . S
H1333 C1325 0.960 . S
H1334 C1326 0.930 . S
H1335 C1327 0.929 . S
H1336 C1344 0.929 . S
H1337 C1346 0.930 . S
H1338 C1348 0.930 . S
H1339 C1351 0.929 . S
H1340 C1354 0.930 . S
H1341 C1356 0.960 . S
H1342 C1356 0.960 . S
H1343 C1356 0.960 . S
C1344 H1336 0.929 . S
C1344 C1345 1.377 . S
C1344 C1346 1.384 . S
C1345 C1344 1.377 . S
C1345 C1351 1.390 . S
C1346 H1337 0.930 . S
C1346 C1344 1.384 . S
C1346 C1347 1.372 . S
C1347 C1346 1.372 . S
C1347 C1348 1.400 . S
C1347 C1352 1.490 . S
C1348 H1338 0.930 . S
C1348 C1347 1.400 . S
C1348 C1351 1.386 . S
H1349 C1365 0.930 . S
H1350 C1366 0.931 . S
C1351 H1339 0.929 . S
C1351 C1345 1.390 . S
C1351 C1348 1.386 . S
C1352 C1347 1.490 . S
C1352 C1354 1.395 . S
C1352 C1355 1.403 . S
H1353 C1359 0.930 . S
C1354 H1340 0.930 . S
C1354 C1352 1.395 . S
C1354 C1357 1.403 . S
C1355 C1352 1.403 . S
C1355 C1356 1.524 . S
C1355 C1359 1.400 . S
C1356 H1341 0.960 . S
C1356 H1342 0.960 . S
C1356 H1343 0.960 . S
C1356 C1355 1.524 . S
C1357 C1354 1.403 . S
C1357 C1358 1.392 . S
C1357 C1361 1.495 . S
C1358 C1357 1.392 . S
C1358 C1359 1.385 . S
C1358 C1360 1.478 . S
C1359 H1353 0.930 . S
C1359 C1355 1.400 . S
C1359 C1358 1.385 . S
C1360 C1358 1.478 . S
C1360 C1362 1.381 . S
C1360 C1366 1.383 . S
C1361 C1357 1.495 . S
C1361 H1367 0.959 . S
C1361 H1368 0.961 . S
C1361 H1369 0.960 . S
C1362 C1360 1.381 . S
C1362 C1363 1.394 . S
C1362 H1370 0.930 . S
C1363 C1362 1.394 . S
C1363 C1364 1.383 . S
C1363 H1371 0.929 . S
C1364 C1363 1.383 . S
C1364 C1365 1.377 . S
C1365 H1349 0.930 . S
C1365 C1364 1.377 . S
C1365 C1366 1.379 . S
C1366 H1350 0.931 . S
C1366 C1360 1.383 . S
C1366 C1365 1.379 . S
H1367 C1361 0.959 . S
H1368 C1361 0.961 . S
H1369 C1361 0.960 . S
H1370 C1362 0.930 . S
H1371 C1363 0.929 . S
H1372 C1380 0.929 . S
H1373 C1382 0.930 . S
H1374 C1384 0.930 . S
H1375 C1387 0.929 . S
H1376 C1390 0.930 . S
H1377 C1392 0.960 . S
H1378 C1392 0.960 . S
H1379 C1392 0.960 . S
C1380 H1372 0.929 . S
C1380 C1381 1.377 . S
C1380 C1382 1.384 . S
C1381 C1380 1.377 . S
C1381 C1387 1.390 . S
C1382 H1373 0.930 . S
C1382 C1380 1.384 . S
C1382 C1383 1.372 . S
C1383 C1382 1.372 . S
C1383 C1384 1.400 . S
C1383 C1388 1.490 . S
C1384 H1374 0.930 . S
C1384 C1383 1.400 . S
C1384 C1387 1.386 . S
H1385 C1401 0.930 . S
H1386 C1402 0.931 . S
C1387 H1375 0.929 . S
C1387 C1381 1.390 . S
C1387 C1384 1.386 . S
C1388 C1383 1.490 . S
C1388 C1390 1.395 . S
C1388 C1391 1.403 . S
H1389 C1395 0.930 . S
C1390 H1376 0.930 . S
C1390 C1388 1.395 . S
C1390 C1393 1.403 . S
C1391 C1388 1.403 . S
C1391 C1392 1.524 . S
C1391 C1395 1.400 . S
C1392 H1377 0.960 . S
C1392 H1378 0.960 . S
C1392 H1379 0.960 . S
C1392 C1391 1.524 . S
C1393 C1390 1.403 . S
C1393 C1394 1.392 . S
C1393 C1397 1.495 . S
C1394 C1393 1.392 . S
C1394 C1395 1.385 . S
C1394 C1396 1.478 . S
C1395 H1389 0.930 . S
C1395 C1391 1.400 . S
C1395 C1394 1.385 . S
C1396 C1394 1.478 . S
C1396 C1398 1.381 . S
C1396 C1402 1.383 . S
C1397 C1393 1.495 . S
C1397 H1403 0.959 . S
C1397 H1404 0.961 . S
C1397 H1405 0.960 . S
C1398 C1396 1.381 . S
C1398 C1399 1.394 . S
C1398 H1406 0.930 . S
C1399 C1398 1.394 . S
C1399 C1400 1.383 . S
C1399 H1407 0.929 . S
C1400 C1399 1.383 . S
C1400 C1401 1.377 . S
C1401 H1385 0.930 . S
C1401 C1400 1.377 . S
C1401 C1402 1.379 . S
C1402 H1386 0.931 . S
C1402 C1396 1.383 . S
C1402 C1401 1.379 . S
H1403 C1397 0.959 . S
H1404 C1397 0.961 . S
H1405 C1397 0.960 . S
H1406 C1398 0.930 . S
H1407 C1399 0.929 . S
H1408 C1416 0.929 . S
H1409 C1418 0.930 . S
H1410 C1420 0.930 . S
H1411 C1423 0.929 . S
H1412 C1426 0.930 . S
H1413 C1428 0.960 . S
H1414 C1428 0.960 . S
H1415 C1428 0.960 . S
C1416 H1408 0.929 . S
C1416 C1417 1.377 . S
C1416 C1418 1.384 . S
C1417 C1416 1.377 . S
C1417 C1423 1.390 . S
C1418 H1409 0.930 . S
C1418 C1416 1.384 . S
C1418 C1419 1.372 . S
C1419 C1418 1.372 . S
C1419 C1420 1.400 . S
C1419 C1424 1.490 . S
C1420 H1410 0.930 . S
C1420 C1419 1.400 . S
C1420 C1423 1.386 . S
H1421 C1437 0.930 1_565 S
H1422 C1438 0.931 . S
C1423 H1411 0.929 . S
C1423 C1417 1.390 . S
C1423 C1420 1.386 . S
C1424 C1419 1.490 . S
C1424 C1426 1.395 . S
C1424 C1427 1.403 . S
H1425 C1431 0.930 . S
C1426 H1412 0.930 . S
C1426 C1424 1.395 . S
C1426 C1429 1.403 . S
C1427 C1424 1.403 . S
C1427 C1428 1.524 . S
C1427 C1431 1.400 . S
C1428 H1413 0.960 . S
C1428 H1414 0.960 . S
C1428 H1415 0.960 . S
C1428 C1427 1.524 . S
C1429 C1426 1.403 . S
C1429 C1430 1.392 . S
C1429 C1433 1.495 . S
C1430 C1429 1.392 . S
C1430 C1431 1.385 . S
C1430 C1432 1.478 . S
C1431 H1425 0.930 . S
C1431 C1427 1.400 . S
C1431 C1430 1.385 . S
C1432 C1430 1.478 . S
C1432 C1434 1.381 . S
C1432 C1438 1.383 . S
C1433 C1429 1.495 . S
C1433 H1439 0.959 . S
C1433 H1440 0.961 . S
C1433 H1441 0.960 . S
C1434 C1432 1.381 . S
C1434 C1435 1.394 . S
C1434 H1442 0.930 . S
C1435 C1434 1.394 . S
C1435 C1436 1.383 . S
C1435 H1443 0.929 . S
C1436 C1435 1.383 . S
C1436 C1437 1.377 . S
C1437 H1421 0.930 1_545 S
C1437 C1436 1.377 . S
C1437 C1438 1.379 . S
C1438 H1422 0.931 . S
C1438 C1432 1.383 . S
C1438 C1437 1.379 . S
H1439 C1433 0.959 . S
H1440 C1433 0.961 . S
H1441 C1433 0.960 . S
H1442 C1434 0.930 . S
H1443 C1435 0.929 . S
H1444 C1452 0.929 . S
H1445 C1454 0.930 . S
H1446 C1456 0.930 . S
H1447 C1459 0.929 . S
H1448 C1462 0.930 . S
H1449 C1464 0.960 . S
H1450 C1464 0.960 . S
H1451 C1464 0.960 . S
C1452 H1444 0.929 . S
C1452 C1453 1.377 . S
C1452 C1454 1.384 . S
C1453 C1452 1.377 . S
C1453 C1459 1.390 . S
C1454 H1445 0.930 . S
C1454 C1452 1.384 . S
C1454 C1455 1.372 . S
C1455 C1454 1.372 . S
C1455 C1456 1.400 . S
C1455 C1460 1.490 . S
C1456 H1446 0.930 . S
C1456 C1455 1.400 . S
C1456 C1459 1.386 . S
H1457 C1473 0.930 . S
H1458 C1474 0.931 . S
C1459 H1447 0.929 . S
C1459 C1453 1.390 . S
C1459 C1456 1.386 . S
C1460 C1455 1.490 . S
C1460 C1462 1.395 . S
C1460 C1463 1.403 . S
H1461 C1467 0.930 . S
C1462 H1448 0.930 . S
C1462 C1460 1.395 . S
C1462 C1465 1.403 . S
C1463 C1460 1.403 . S
C1463 C1464 1.524 . S
C1463 C1467 1.400 . S
C1464 H1449 0.960 . S
C1464 H1450 0.960 . S
C1464 H1451 0.960 . S
C1464 C1463 1.524 . S
C1465 C1462 1.403 . S
C1465 C1466 1.392 . S
C1465 C1469 1.495 . S
C1466 C1465 1.392 . S
C1466 C1467 1.385 . S
C1466 C1468 1.478 . S
C1467 H1461 0.930 . S
C1467 C1463 1.400 . S
C1467 C1466 1.385 . S
C1468 C1466 1.478 . S
C1468 C1470 1.381 . S
C1468 C1474 1.383 . S
C1469 C1465 1.495 . S
C1469 H1475 0.959 . S
C1469 H1476 0.961 . S
C1469 H1477 0.960 . S
C1470 C1468 1.381 . S
C1470 C1471 1.394 . S
C1470 H1478 0.930 . S
C1471 C1470 1.394 . S
C1471 C1472 1.383 . S
C1471 H1479 0.929 1_455 S
C1472 C1471 1.383 . S
C1472 C1473 1.377 . S
C1473 H1457 0.930 . S
C1473 C1472 1.377 . S
C1473 C1474 1.379 . S
C1474 H1458 0.931 . S
C1474 C1468 1.383 . S
C1474 C1473 1.379 . S
H1475 C1469 0.959 . S
H1476 C1469 0.961 . S
H1477 C1469 0.960 . S
H1478 C1470 0.930 . S
H1479 C1471 0.929 1_655 S
H1480 C1488 0.929 . S
H1481 C1490 0.930 . S
H1482 C1492 0.930 . S
H1483 C1495 0.929 . S
H1484 C1498 0.930 . S
H1485 C1500 0.960 . S
H1486 C1500 0.960 . S
H1487 C1500 0.960 . S
C1488 H1480 0.929 . S
C1488 C1489 1.377 . S
C1488 C1490 1.384 . S
C1489 C1488 1.377 . S
C1489 C1495 1.390 . S
C1490 H1481 0.930 . S
C1490 C1488 1.384 . S
C1490 C1491 1.372 . S
C1491 C1490 1.372 . S
C1491 C1492 1.400 . S
C1491 C1496 1.490 . S
C1492 H1482 0.930 . S
C1492 C1491 1.400 . S
C1492 C1495 1.386 . S
H1493 C1509 0.930 . S
H1494 C1510 0.931 . S
C1495 H1483 0.929 . S
C1495 C1489 1.390 . S
C1495 C1492 1.386 . S
C1496 C1491 1.490 . S
C1496 C1498 1.395 . S
C1496 C1499 1.403 . S
H1497 C1503 0.930 . S
C1498 H1484 0.930 . S
C1498 C1496 1.395 . S
C1498 C1501 1.403 . S
C1499 C1496 1.403 . S
C1499 C1500 1.524 . S
C1499 C1503 1.400 . S
C1500 H1485 0.960 . S
C1500 H1486 0.960 . S
C1500 H1487 0.960 . S
C1500 C1499 1.524 . S
C1501 C1498 1.403 . S
C1501 C1502 1.392 . S
C1501 C1505 1.495 . S
C1502 C1501 1.392 . S
C1502 C1503 1.385 . S
C1502 C1504 1.478 . S
C1503 H1497 0.930 . S
C1503 C1499 1.400 . S
C1503 C1502 1.385 . S
C1504 C1502 1.478 . S
C1504 C1506 1.381 . S
C1504 C1510 1.383 . S
C1505 C1501 1.495 . S
C1505 H1511 0.959 . S
C1505 H1512 0.961 . S
C1505 H1513 0.960 . S
C1506 C1504 1.381 . S
C1506 C1507 1.394 . S
C1506 H1514 0.930 . S
C1507 C1506 1.394 . S
C1507 C1508 1.383 . S
C1507 H1515 0.929 . S
C1508 C1507 1.383 . S
C1508 C1509 1.377 . S
C1509 H1493 0.930 . S
C1509 C1508 1.377 . S
C1509 C1510 1.379 . S
C1510 H1494 0.931 . S
C1510 C1504 1.383 . S
C1510 C1509 1.379 . S
H1511 C1505 0.959 . S
H1512 C1505 0.961 . S
H1513 C1505 0.960 . S
H1514 C1506 0.930 . S
H1515 C1507 0.929 . S
H1516 C1524 0.929 . S
H1517 C1526 0.930 . S
H1518 C1528 0.930 . S
H1519 C1531 0.929 1_455 S
H1520 C1534 0.930 . S
H1521 C1536 0.960 . S
H1522 C1536 0.960 . S
H1523 C1536 0.960 . S
C1524 H1516 0.929 . S
C1524 C1525 1.377 . S
C1524 C1526 1.384 . S
C1525 C1524 1.377 . S
C1525 C1531 1.390 . S
C1526 H1517 0.930 . S
C1526 C1524 1.384 . S
C1526 C1527 1.372 . S
C1527 C1526 1.372 . S
C1527 C1528 1.400 . S
C1527 C1532 1.490 . S
C1528 H1518 0.930 . S
C1528 C1527 1.400 . S
C1528 C1531 1.386 . S
H1529 C1545 0.930 . S
H1530 C1546 0.931 . S
C1531 H1519 0.929 1_655 S
C1531 C1525 1.390 . S
C1531 C1528 1.386 . S
C1532 C1527 1.490 . S
C1532 C1534 1.395 . S
C1532 C1535 1.403 . S
H1533 C1539 0.930 . S
C1534 H1520 0.930 . S
C1534 C1532 1.395 . S
C1534 C1537 1.403 . S
C1535 C1532 1.403 . S
C1535 C1536 1.524 . S
C1535 C1539 1.400 . S
C1536 H1521 0.960 . S
C1536 H1522 0.960 . S
C1536 H1523 0.960 . S
C1536 C1535 1.524 . S
C1537 C1534 1.403 . S
C1537 C1538 1.392 . S
C1537 C1541 1.495 . S
C1538 C1537 1.392 . S
C1538 C1539 1.385 . S
C1538 C1540 1.478 . S
C1539 H1533 0.930 . S
C1539 C1535 1.400 . S
C1539 C1538 1.385 . S
C1540 C1538 1.478 . S
C1540 C1542 1.381 . S
C1540 C1546 1.383 . S
C1541 C1537 1.495 . S
C1541 H1547 0.959 . S
C1541 H1548 0.961 . S
C1541 H1549 0.960 . S
C1542 C1540 1.381 . S
C1542 C1543 1.394 . S
C1542 H1550 0.930 . S
C1543 C1542 1.394 . S
C1543 C1544 1.383 . S
C1543 H1551 0.929 . S
C1544 C1543 1.383 . S
C1544 C1545 1.377 . S
C1545 H1529 0.930 . S
C1545 C1544 1.377 . S
C1545 C1546 1.379 . S
C1546 H1530 0.931 . S
C1546 C1540 1.383 . S
C1546 C1545 1.379 . S
H1547 C1541 0.959 . S
H1548 C1541 0.961 . S
H1549 C1541 0.960 . S
H1550 C1542 0.930 . S
H1551 C1543 0.929 . S
H1552 C1560 0.929 1_545 S
H1553 C1562 0.930 . S
H1554 C1564 0.930 . S
H1555 C1567 0.929 . S
H1556 C1570 0.930 . S
H1557 C1572 0.960 . S
H1558 C1572 0.960 . S
H1559 C1572 0.960 . S
C1560 H1552 0.929 1_565 S
C1560 C1561 1.377 . S
C1560 C1562 1.384 . S
C1561 C1560 1.377 . S
C1561 C1567 1.390 . S
C1562 H1553 0.930 . S
C1562 C1560 1.384 . S
C1562 C1563 1.372 . S
C1563 C1562 1.372 . S
C1563 C1564 1.400 . S
C1563 C1568 1.490 . S
C1564 H1554 0.930 . S
C1564 C1563 1.400 . S
C1564 C1567 1.386 . S
H1565 C1581 0.930 . S
H1566 C1582 0.931 . S
C1567 H1555 0.929 . S
C1567 C1561 1.390 . S
C1567 C1564 1.386 . S
C1568 C1563 1.490 . S
C1568 C1570 1.395 . S
C1568 C1571 1.403 . S
H1569 C1575 0.930 . S
C1570 H1556 0.930 . S
C1570 C1568 1.395 . S
C1570 C1573 1.403 . S
C1571 C1568 1.403 . S
C1571 C1572 1.524 . S
C1571 C1575 1.400 . S
C1572 H1557 0.960 . S
C1572 H1558 0.960 . S
C1572 H1559 0.960 . S
C1572 C1571 1.524 . S
C1573 C1570 1.403 . S
C1573 C1574 1.392 . S
C1573 C1577 1.495 . S
C1574 C1573 1.392 . S
C1574 C1575 1.385 . S
C1574 C1576 1.478 . S
C1575 H1569 0.930 . S
C1575 C1571 1.400 . S
C1575 C1574 1.385 . S
C1576 C1574 1.478 . S
C1576 C1578 1.381 . S
C1576 C1582 1.383 . S
C1577 C1573 1.495 . S
C1577 H1583 0.959 . S
C1577 H1584 0.961 . S
C1577 H1585 0.960 . S
C1578 C1576 1.381 . S
C1578 C1579 1.394 . S
C1578 H1586 0.930 . S
C1579 C1578 1.394 . S
C1579 C1580 1.383 . S
C1579 H1587 0.929 . S
C1580 C1579 1.383 . S
C1580 C1581 1.377 . S
C1581 H1565 0.930 . S
C1581 C1580 1.377 . S
C1581 C1582 1.379 . S
C1582 H1566 0.931 . S
C1582 C1576 1.383 . S
C1582 C1581 1.379 . S
H1583 C1577 0.959 . S
H1584 C1577 0.961 . S
H1585 C1577 0.960 . S
H1586 C1578 0.930 . S
H1587 C1579 0.929 . S
H1588 C1596 0.929 . S
H1589 C1598 0.930 . S
H1590 C1600 0.930 . S
H1591 C1603 0.929 1_455 S
H1592 C1606 0.930 . S
H1593 C1608 0.960 . S
H1594 C1608 0.960 . S
H1595 C1608 0.960 . S
C1596 H1588 0.929 . S
C1596 C1597 1.377 . S
C1596 C1598 1.384 . S
C1597 C1596 1.377 . S
C1597 C1603 1.390 . S
C1598 H1589 0.930 . S
C1598 C1596 1.384 . S
C1598 C1599 1.372 . S
C1599 C1598 1.372 . S
C1599 C1600 1.400 . S
C1599 C1604 1.490 . S
C1600 H1590 0.930 . S
C1600 C1599 1.400 . S
C1600 C1603 1.386 . S
H1601 C1617 0.930 . S
H1602 C1618 0.931 . S
C1603 H1591 0.929 1_655 S
C1603 C1597 1.390 . S
C1603 C1600 1.386 . S
C1604 C1599 1.490 . S
C1604 C1606 1.395 . S
C1604 C1607 1.403 . S
H1605 C1611 0.930 . S
C1606 H1592 0.930 . S
C1606 C1604 1.395 . S
C1606 C1609 1.403 . S
C1607 C1604 1.403 . S
C1607 C1608 1.524 . S
C1607 C1611 1.400 . S
C1608 H1593 0.960 . S
C1608 H1594 0.960 . S
C1608 H1595 0.960 . S
C1608 C1607 1.524 . S
C1609 C1606 1.403 . S
C1609 C1610 1.392 . S
C1609 C1613 1.495 . S
C1610 C1609 1.392 . S
C1610 C1611 1.385 . S
C1610 C1612 1.478 . S
C1611 H1605 0.930 . S
C1611 C1607 1.400 . S
C1611 C1610 1.385 . S
C1612 C1610 1.478 . S
C1612 C1614 1.381 . S
C1612 C1618 1.383 . S
C1613 C1609 1.495 . S
C1613 H1619 0.959 . S
C1613 H1620 0.961 . S
C1613 H1621 0.960 . S
C1614 C1612 1.381 . S
C1614 C1615 1.394 . S
C1614 H1622 0.930 . S
C1615 C1614 1.394 . S
C1615 C1616 1.383 . S
C1615 H1623 0.929 . S
C1616 C1615 1.383 . S
C1616 C1617 1.377 . S
C1617 H1601 0.930 . S
C1617 C1616 1.377 . S
C1617 C1618 1.379 . S
C1618 H1602 0.931 . S
C1618 C1612 1.383 . S
C1618 C1617 1.379 . S
H1619 C1613 0.959 . S
H1620 C1613 0.961 . S
H1621 C1613 0.960 . S
H1622 C1614 0.930 . S
H1623 C1615 0.929 . S
H1624 C1632 0.929 1_565 S
H1625 C1634 0.930 . S
H1626 C1636 0.930 . S
H1627 C1639 0.929 . S
H1628 C1642 0.930 . S
H1629 C1644 0.960 . S
H1630 C1644 0.960 . S
H1631 C1644 0.960 . S
C1632 H1624 0.929 1_545 S
C1632 C1633 1.377 . S
C1632 C1634 1.384 . S
C1633 C1632 1.377 . S
C1633 C1639 1.390 . S
C1634 H1625 0.930 . S
C1634 C1632 1.384 . S
C1634 C1635 1.372 . S
C1635 C1634 1.372 . S
C1635 C1636 1.400 . S
C1635 C1640 1.490 . S
C1636 H1626 0.930 . S
C1636 C1635 1.400 . S
C1636 C1639 1.386 . S
H1637 C1653 0.930 . S
H1638 C1654 0.931 . S
C1639 H1627 0.929 . S
C1639 C1633 1.390 . S
C1639 C1636 1.386 . S
C1640 C1635 1.490 . S
C1640 C1642 1.395 . S
C1640 C1643 1.403 . S
H1641 C1647 0.930 . S
C1642 H1628 0.930 . S
C1642 C1640 1.395 . S
C1642 C1645 1.403 . S
C1643 C1640 1.403 . S
C1643 C1644 1.524 . S
C1643 C1647 1.400 . S
C1644 H1629 0.960 . S
C1644 H1630 0.960 . S
C1644 H1631 0.960 . S
C1644 C1643 1.524 . S
C1645 C1642 1.403 . S
C1645 C1646 1.392 . S
C1645 C1649 1.495 . S
C1646 C1645 1.392 . S
C1646 C1647 1.385 . S
C1646 C1648 1.478 . S
C1647 H1641 0.930 . S
C1647 C1643 1.400 . S
C1647 C1646 1.385 . S
C1648 C1646 1.478 . S
C1648 C1650 1.381 . S
C1648 C1654 1.383 . S
C1649 C1645 1.495 . S
C1649 H1655 0.959 . S
C1649 H1656 0.961 . S
C1649 H1657 0.960 . S
C1650 C1648 1.381 . S
C1650 C1651 1.394 . S
C1650 H1658 0.930 . S
C1651 C1650 1.394 . S
C1651 C1652 1.383 . S
C1651 H1659 0.929 . S
C1652 C1651 1.383 . S
C1652 C1653 1.377 . S
C1653 H1637 0.930 . S
C1653 C1652 1.377 . S
C1653 C1654 1.379 . S
C1654 H1638 0.931 . S
C1654 C1648 1.383 . S
C1654 C1653 1.379 . S
H1655 C1649 0.959 . S
H1656 C1649 0.961 . S
H1657 C1649 0.960 . S
H1658 C1650 0.930 . S
H1659 C1651 0.929 . S
H1660 C1668 0.929 1_655 S
H1661 C1670 0.930 . S
H1662 C1672 0.930 . S
H1663 C1675 0.929 . S
H1664 C1678 0.930 . S
H1665 C1680 0.960 . S
H1666 C1680 0.960 . S
H1667 C1680 0.960 . S
C1668 H1660 0.929 1_455 S
C1668 C1669 1.377 . S
C1668 C1670 1.384 . S
C1669 C1668 1.377 . S
C1669 C1675 1.390 . S
C1670 H1661 0.930 . S
C1670 C1668 1.384 . S
C1670 C1671 1.372 . S
C1671 C1670 1.372 . S
C1671 C1672 1.400 . S
C1671 C1676 1.490 . S
C1672 H1662 0.930 . S
C1672 C1671 1.400 . S
C1672 C1675 1.386 . S
H1673 C1689 0.930 . S
H1674 C1690 0.931 . S
C1675 H1663 0.929 . S
C1675 C1669 1.390 . S
C1675 C1672 1.386 . S
C1676 C1671 1.490 . S
C1676 C1678 1.395 . S
C1676 C1679 1.403 . S
H1677 C1683 0.930 . S
C1678 H1664 0.930 . S
C1678 C1676 1.395 . S
C1678 C1681 1.403 . S
C1679 C1676 1.403 . S
C1679 C1680 1.524 . S
C1679 C1683 1.400 . S
C1680 H1665 0.960 . S
C1680 H1666 0.960 . S
C1680 H1667 0.960 . S
C1680 C1679 1.524 . S
C1681 C1678 1.403 . S
C1681 C1682 1.392 . S
C1681 C1685 1.495 . S
C1682 C1681 1.392 . S
C1682 C1683 1.385 . S
C1682 C1684 1.478 . S
C1683 H1677 0.930 . S
C1683 C1679 1.400 . S
C1683 C1682 1.385 . S
C1684 C1682 1.478 . S
C1684 C1686 1.381 . S
C1684 C1690 1.383 . S
C1685 C1681 1.495 . S
C1685 H1691 0.959 . S
C1685 H1692 0.961 . S
C1685 H1693 0.960 . S
C1686 C1684 1.381 . S
C1686 C1687 1.394 . S
C1686 H1694 0.930 . S
C1687 C1686 1.394 . S
C1687 C1688 1.383 . S
C1687 H1695 0.929 . S
C1688 C1687 1.383 . S
C1688 C1689 1.377 . S
C1689 H1673 0.930 . S
C1689 C1688 1.377 . S
C1689 C1690 1.379 . S
C1690 H1674 0.931 . S
C1690 C1684 1.383 . S
C1690 C1689 1.379 . S
H1691 C1685 0.959 . S
H1692 C1685 0.961 . S
H1693 C1685 0.960 . S
H1694 C1686 0.930 . S
H1695 C1687 0.929 . S
H1696 C1704 0.929 . S
H1697 C1706 0.930 . S
H1698 C1708 0.930 . S
H1699 C1711 0.929 . S
H1700 C1714 0.930 . S
H1701 C1716 0.960 . S
H1702 C1716 0.960 . S
H1703 C1716 0.960 . S
C1704 H1696 0.929 . S
C1704 C1705 1.377 . S
C1704 C1706 1.384 . S
C1705 C1704 1.377 . S
C1705 C1711 1.390 . S
C1706 H1697 0.930 . S
C1706 C1704 1.384 . S
C1706 C1707 1.372 . S
C1707 C1706 1.372 . S
C1707 C1708 1.400 . S
C1707 C1712 1.490 . S
C1708 H1698 0.930 . S
C1708 C1707 1.400 . S
C1708 C1711 1.386 . S
H1709 C1725 0.930 . S
H1710 C1726 0.931 . S
C1711 H1699 0.929 . S
C1711 C1705 1.390 . S
C1711 C1708 1.386 . S
C1712 C1707 1.490 . S
C1712 C1714 1.395 . S
C1712 C1715 1.403 . S
H1713 C1719 0.930 . S
C1714 H1700 0.930 . S
C1714 C1712 1.395 . S
C1714 C1717 1.403 . S
C1715 C1712 1.403 . S
C1715 C1716 1.524 . S
C1715 C1719 1.400 . S
C1716 H1701 0.960 . S
C1716 H1702 0.960 . S
C1716 H1703 0.960 . S
C1716 C1715 1.524 . S
C1717 C1714 1.403 . S
C1717 C1718 1.392 . S
C1717 C1721 1.495 . S
C1718 C1717 1.392 . S
C1718 C1719 1.385 . S
C1718 C1720 1.478 . S
C1719 H1713 0.930 . S
C1719 C1715 1.400 . S
C1719 C1718 1.385 . S
C1720 C1718 1.478 . S
C1720 C1722 1.381 . S
C1720 C1726 1.383 . S
C1721 C1717 1.495 . S
C1721 H1727 0.959 . S
C1721 H1728 0.961 . S
C1721 H1729 0.960 . S
C1722 C1720 1.381 . S
C1722 C1723 1.394 . S
C1722 H1730 0.930 . S
C1723 C1722 1.394 . S
C1723 C1724 1.383 . S
C1723 H1731 0.929 . S
C1724 C1723 1.383 . S
C1724 C1725 1.377 . S
C1725 H1709 0.930 . S
C1725 C1724 1.377 . S
C1725 C1726 1.379 . S
C1726 H1710 0.931 . S
C1726 C1720 1.383 . S
C1726 C1725 1.379 . S
H1727 C1721 0.959 . S
H1728 C1721 0.961 . S
H1729 C1721 0.960 . S
H1730 C1722 0.930 . S
H1731 C1723 0.929 . S
H1732 C1740 0.929 . S
H1733 C1742 0.930 . S
H1734 C1744 0.930 . S
H1735 C1747 0.929 . S
H1736 C1750 0.930 . S
H1737 C1752 0.960 . S
H1738 C1752 0.960 . S
H1739 C1752 0.960 . S
C1740 H1732 0.929 . S
C1740 C1741 1.377 . S
C1740 C1742 1.384 . S
C1741 C1740 1.377 . S
C1741 C1747 1.390 . S
C1742 H1733 0.930 . S
C1742 C1740 1.384 . S
C1742 C1743 1.372 . S
C1743 C1742 1.372 . S
C1743 C1744 1.400 . S
C1743 C1748 1.490 . S
C1744 H1734 0.930 . S
C1744 C1743 1.400 . S
C1744 C1747 1.386 . S
H1745 C1761 0.930 . S
H1746 C1762 0.931 . S
C1747 H1735 0.929 . S
C1747 C1741 1.390 . S
C1747 C1744 1.386 . S
C1748 C1743 1.490 . S
C1748 C1750 1.395 . S
C1748 C1751 1.403 . S
H1749 C1755 0.930 . S
C1750 H1736 0.930 . S
C1750 C1748 1.395 . S
C1750 C1753 1.403 . S
C1751 C1748 1.403 . S
C1751 C1752 1.524 . S
C1751 C1755 1.400 . S
C1752 H1737 0.960 . S
C1752 H1738 0.960 . S
C1752 H1739 0.960 . S
C1752 C1751 1.524 . S
C1753 C1750 1.403 . S
C1753 C1754 1.392 . S
C1753 C1757 1.495 . S
C1754 C1753 1.392 . S
C1754 C1755 1.385 . S
C1754 C1756 1.478 . S
C1755 H1749 0.930 . S
C1755 C1751 1.400 . S
C1755 C1754 1.385 . S
C1756 C1754 1.478 . S
C1756 C1758 1.381 . S
C1756 C1762 1.383 . S
C1757 C1753 1.495 . S
C1757 H1763 0.959 . S
C1757 H1764 0.961 . S
C1757 H1765 0.960 . S
C1758 C1756 1.381 . S
C1758 C1759 1.394 . S
C1758 H1766 0.930 . S
C1759 C1758 1.394 . S
C1759 C1760 1.383 . S
C1759 H1767 0.929 . S
C1760 C1759 1.383 . S
C1760 C1761 1.377 . S
C1761 H1745 0.930 . S
C1761 C1760 1.377 . S
C1761 C1762 1.379 . S
C1762 H1746 0.931 . S
C1762 C1756 1.383 . S
C1762 C1761 1.379 . S
H1763 C1757 0.959 . S
H1764 C1757 0.961 . S
H1765 C1757 0.960 . S
H1766 C1758 0.930 . S
H1767 C1759 0.929 . S
H1768 C1776 0.929 . S
H1769 C1778 0.930 . S
H1770 C1780 0.930 . S
H1771 C1783 0.929 . S
H1772 C1786 0.930 . S
H1773 C1788 0.960 . S
H1774 C1788 0.960 . S
H1775 C1788 0.960 . S
C1776 H1768 0.929 . S
C1776 C1777 1.377 . S
C1776 C1778 1.384 . S
C1777 C1776 1.377 . S
C1777 C1783 1.390 . S
C1778 H1769 0.930 . S
C1778 C1776 1.384 . S
C1778 C1779 1.372 . S
C1779 C1778 1.372 . S
C1779 C1780 1.400 . S
C1779 C1784 1.490 . S
C1780 H1770 0.930 . S
C1780 C1779 1.400 . S
C1780 C1783 1.386 . S
H1781 C1797 0.930 . S
H1782 C1798 0.931 . S
C1783 H1771 0.929 . S
C1783 C1777 1.390 . S
C1783 C1780 1.386 . S
C1784 C1779 1.490 . S
C1784 C1786 1.395 . S
C1784 C1787 1.403 . S
H1785 C1791 0.930 . S
C1786 H1772 0.930 . S
C1786 C1784 1.395 . S
C1786 C1789 1.403 . S
C1787 C1784 1.403 . S
C1787 C1788 1.524 . S
C1787 C1791 1.400 . S
C1788 H1773 0.960 . S
C1788 H1774 0.960 . S
C1788 H1775 0.960 . S
C1788 C1787 1.524 . S
C1789 C1786 1.403 . S
C1789 C1790 1.392 . S
C1789 C1793 1.495 . S
C1790 C1789 1.392 . S
C1790 C1791 1.385 . S
C1790 C1792 1.478 . S
C1791 H1785 0.930 . S
C1791 C1787 1.400 . S
C1791 C1790 1.385 . S
C1792 C1790 1.478 . S
C1792 C1794 1.381 . S
C1792 C1798 1.383 . S
C1793 C1789 1.495 . S
C1793 H1799 0.959 . S
C1793 H1800 0.961 . S
C1793 H1801 0.960 . S
C1794 C1792 1.381 . S
C1794 C1795 1.394 . S
C1794 H1802 0.930 . S
C1795 C1794 1.394 . S
C1795 C1796 1.383 . S
C1795 H1803 0.929 . S
C1796 C1795 1.383 . S
C1796 C1797 1.377 . S
C1797 H1781 0.930 . S
C1797 C1796 1.377 . S
C1797 C1798 1.379 . S
C1798 H1782 0.931 . S
C1798 C1792 1.383 . S
C1798 C1797 1.379 . S
H1799 C1793 0.959 . S
H1800 C1793 0.961 . S
H1801 C1793 0.960 . S
H1802 C1794 0.930 . S
H1803 C1795 0.929 . S
H1804 C1812 0.929 . S
H1805 C1814 0.930 . S
H1806 C1816 0.930 . S
H1807 C1819 0.929 . S
H1808 C1822 0.930 . S
H1809 C1824 0.960 . S
H1810 C1824 0.960 . S
H1811 C1824 0.960 . S
C1812 H1804 0.929 . S
C1812 C1813 1.377 . S
C1812 C1814 1.384 . S
C1813 C1812 1.377 . S
C1813 C1819 1.390 . S
C1814 H1805 0.930 . S
C1814 C1812 1.384 . S
C1814 C1815 1.372 . S
C1815 C1814 1.372 . S
C1815 C1816 1.400 . S
C1815 C1820 1.490 . S
C1816 H1806 0.930 . S
C1816 C1815 1.400 . S
C1816 C1819 1.386 . S
H1817 C1833 0.930 . S
H1818 C1834 0.931 . S
C1819 H1807 0.929 . S
C1819 C1813 1.390 . S
C1819 C1816 1.386 . S
C1820 C1815 1.490 . S
C1820 C1822 1.395 . S
C1820 C1823 1.403 . S
H1821 C1827 0.930 . S
C1822 H1808 0.930 . S
C1822 C1820 1.395 . S
C1822 C1825 1.403 . S
C1823 C1820 1.403 . S
C1823 C1824 1.524 . S
C1823 C1827 1.400 . S
C1824 H1809 0.960 . S
C1824 H1810 0.960 . S
C1824 H1811 0.960 . S
C1824 C1823 1.524 . S
C1825 C1822 1.403 . S
C1825 C1826 1.392 . S
C1825 C1829 1.495 . S
C1826 C1825 1.392 . S
C1826 C1827 1.385 . S
C1826 C1828 1.478 . S
C1827 H1821 0.930 . S
C1827 C1823 1.400 . S
C1827 C1826 1.385 . S
C1828 C1826 1.478 . S
C1828 C1830 1.381 . S
C1828 C1834 1.383 . S
C1829 C1825 1.495 . S
C1829 H1835 0.959 . S
C1829 H1836 0.961 . S
C1829 H1837 0.960 . S
C1830 C1828 1.381 . S
C1830 C1831 1.394 . S
C1830 H1838 0.930 . S
C1831 C1830 1.394 . S
C1831 C1832 1.383 . S
C1831 H1839 0.929 . S
C1832 C1831 1.383 . S
C1832 C1833 1.377 . S
C1833 H1817 0.930 . S
C1833 C1832 1.377 . S
C1833 C1834 1.379 . S
C1834 H1818 0.931 . S
C1834 C1828 1.383 . S
C1834 C1833 1.379 . S
H1835 C1829 0.959 . S
H1836 C1829 0.961 . S
H1837 C1829 0.960 . S
H1838 C1830 0.930 . S
H1839 C1831 0.929 . S
H1840 C1848 0.929 . S
H1841 C1850 0.930 . S
H1842 C1852 0.930 . S
H1843 C1855 0.929 1_545 S
H1844 C1858 0.930 . S
H1845 C1860 0.960 . S
H1846 C1860 0.960 . S
H1847 C1860 0.960 1_545 S
C1848 H1840 0.929 . S
C1848 C1849 1.377 . S
C1848 C1850 1.384 . S
C1849 C1848 1.377 . S
C1849 C1855 1.390 . S
C1850 H1841 0.930 . S
C1850 C1848 1.384 . S
C1850 C1851 1.372 . S
C1851 C1850 1.372 . S
C1851 C1852 1.400 1_565 S
C1851 C1856 1.490 . S
C1852 H1842 0.930 . S
C1852 C1851 1.400 1_545 S
C1852 C1855 1.386 1_545 S
H1853 C1869 0.930 . S
H1854 C1870 0.931 . S
C1855 H1843 0.929 1_565 S
C1855 C1849 1.390 . S
C1855 C1852 1.386 1_565 S
C1856 C1851 1.490 . S
C1856 C1858 1.395 . S
C1856 C1859 1.403 . S
H1857 C1863 0.930 . S
C1858 H1844 0.930 . S
C1858 C1856 1.395 . S
C1858 C1861 1.403 1_566 S
C1859 C1856 1.403 . S
C1859 C1860 1.524 . S
C1859 C1863 1.400 1_566 S
C1860 H1845 0.960 . S
C1860 H1846 0.960 . S
C1860 H1847 0.960 1_565 S
C1860 C1859 1.524 . S
C1861 C1858 1.403 1_544 S
C1861 C1862 1.392 . S
C1861 C1865 1.495 . S
C1862 C1861 1.392 . S
C1862 C1863 1.385 . S
C1862 C1864 1.478 . S
C1863 H1857 0.930 . S
C1863 C1859 1.400 1_544 S
C1863 C1862 1.385 . S
C1864 C1862 1.478 . S
C1864 C1866 1.381 1_545 S
C1864 C1870 1.383 . S
C1865 C1861 1.495 . S
C1865 H1871 0.959 . S
C1865 H1872 0.961 . S
C1865 H1873 0.960 1_545 S
C1866 C1864 1.381 1_565 S
C1866 C1867 1.394 1_565 S
C1866 H1874 0.930 . S
C1867 C1866 1.394 1_545 S
C1867 C1868 1.383 . S
C1867 H1875 0.929 1_545 S
C1868 C1867 1.383 . S
C1868 C1869 1.377 . S
C1869 H1853 0.930 . S
C1869 C1868 1.377 . S
C1869 C1870 1.379 . S
C1870 H1854 0.931 . S
C1870 C1864 1.383 . S
C1870 C1869 1.379 . S
H1871 C1865 0.959 . S
H1872 C1865 0.961 . S
H1873 C1865 0.960 1_565 S
H1874 C1866 0.930 . S
H1875 C1867 0.929 1_565 S
H1876 C1884 0.929 . S
H1877 C1886 0.930 . S
H1878 C1888 0.930 . S
H1879 C1891 0.929 . S
H1880 C1894 0.930 . S
H1881 C1896 0.960 . S
H1882 C1896 0.960 . S
H1883 C1896 0.960 . S
C1884 H1876 0.929 . S
C1884 C1885 1.377 . S
C1884 C1886 1.384 . S
C1885 C1884 1.377 . S
C1885 C1891 1.390 . S
C1886 H1877 0.930 . S
C1886 C1884 1.384 . S
C1886 C1887 1.372 . S
C1887 C1886 1.372 . S
C1887 C1888 1.400 . S
C1887 C1892 1.490 . S
C1888 H1878 0.930 . S
C1888 C1887 1.400 . S
C1888 C1891 1.386 . S
H1889 C1905 0.930 . S
H1890 C1906 0.931 . S
C1891 H1879 0.929 . S
C1891 C1885 1.390 . S
C1891 C1888 1.386 . S
C1892 C1887 1.490 . S
C1892 C1894 1.395 . S
C1892 C1895 1.403 1_455 S
H1893 C1899 0.930 . S
C1894 H1880 0.930 . S
C1894 C1892 1.395 . S
C1894 C1897 1.403 1_556 S
C1895 C1892 1.403 1_655 S
C1895 C1896 1.524 . S
C1895 C1899 1.400 1_556 S
C1896 H1881 0.960 . S
C1896 H1882 0.960 . S
C1896 H1883 0.960 . S
C1896 C1895 1.524 . S
C1897 C1894 1.403 1_554 S
C1897 C1898 1.392 1_455 S
C1897 C1901 1.495 . S
C1898 C1897 1.392 1_655 S
C1898 C1899 1.385 . S
C1898 C1900 1.478 . S
C1899 H1893 0.930 . S
C1899 C1895 1.400 1_554 S
C1899 C1898 1.385 . S
C1900 C1898 1.478 . S
C1900 C1902 1.381 . S
C1900 C1906 1.383 . S
C1901 C1897 1.495 . S
C1901 H1907 0.959 . S
C1901 H1908 0.961 . S
C1901 H1909 0.960 . S
C1902 C1900 1.381 . S
C1902 C1903 1.394 . S
C1902 H1910 0.930 . S
C1903 C1902 1.394 . S
C1903 C1904 1.383 . S
C1903 H1911 0.929 . S
C1904 C1903 1.383 . S
C1904 C1905 1.377 . S
C1905 H1889 0.930 . S
C1905 C1904 1.377 . S
C1905 C1906 1.379 . S
C1906 H1890 0.931 . S
C1906 C1900 1.383 . S
C1906 C1905 1.379 . S
H1907 C1901 0.959 . S
H1908 C1901 0.961 . S
H1909 C1901 0.960 . S
H1910 C1902 0.930 . S
H1911 C1903 0.929 . S
H1912 C1920 0.929 . S
H1913 C1922 0.930 1_545 S
H1914 C1924 0.930 . S
H1915 C1927 0.929 . S
H1916 C1930 0.930 . S
H1917 C1932 0.960 1_556 S
H1918 C1932 0.960 . S
H1919 C1932 0.960 . S
C1920 H1912 0.929 . S
C1920 C1921 1.377 . S
C1920 C1922 1.384 . S
C1921 C1920 1.377 . S
C1921 C1927 1.390 . S
C1922 H1913 0.930 1_565 S
C1922 C1920 1.384 . S
C1922 C1923 1.372 . S
C1923 C1922 1.372 . S
C1923 C1924 1.400 . S
C1923 C1928 1.490 . S
C1924 H1914 0.930 . S
C1924 C1923 1.400 . S
C1924 C1927 1.386 . S
H1925 C1941 0.930 . S
H1926 C1942 0.931 . S
C1927 H1915 0.929 . S
C1927 C1921 1.390 . S
C1927 C1924 1.386 . S
C1928 C1923 1.490 . S
C1928 C1930 1.395 1_565 S
C1928 C1931 1.403 . S
H1929 C1935 0.930 . S
C1930 H1916 0.930 . S
C1930 C1928 1.395 1_545 S
C1930 C1933 1.403 1_554 S
C1931 C1928 1.403 . S
C1931 C1932 1.524 . S
C1931 C1935 1.400 1_554 S
C1932 H1917 0.960 1_554 S
C1932 H1918 0.960 . S
C1932 H1919 0.960 . S
C1932 C1931 1.524 . S
C1933 C1930 1.403 1_556 S
C1933 C1934 1.392 . S
C1933 C1937 1.495 . S
C1934 C1933 1.392 . S
C1934 C1935 1.385 1_545 S
C1934 C1936 1.478 . S
C1935 H1929 0.930 . S
C1935 C1931 1.400 1_556 S
C1935 C1934 1.385 1_565 S
C1936 C1934 1.478 . S
C1936 C1938 1.381 . S
C1936 C1942 1.383 . S
C1937 C1933 1.495 . S
C1937 H1943 0.959 1_556 S
C1937 H1944 0.961 . S
C1937 H1945 0.960 . S
C1938 C1936 1.381 . S
C1938 C1939 1.394 . S
C1938 H1946 0.930 . S
C1939 C1938 1.394 . S
C1939 C1940 1.383 . S
C1939 H1947 0.929 . S
C1940 C1939 1.383 . S
C1940 C1941 1.377 . S
C1941 H1925 0.930 . S
C1941 C1940 1.377 . S
C1941 C1942 1.379 . S
C1942 H1926 0.931 . S
C1942 C1936 1.383 . S
C1942 C1941 1.379 . S
H1943 C1937 0.959 1_554 S
H1944 C1937 0.961 . S
H1945 C1937 0.960 . S
H1946 C1938 0.930 . S
H1947 C1939 0.929 . S
H1948 C1956 0.929 . S
H1949 C1958 0.930 . S
H1950 C1960 0.930 . S
H1951 C1963 0.908 1_455 S
H1952 C1966 0.930 . S
H1953 C1968 0.960 . S
H1954 C1968 0.960 1_655 S
H1955 C1968 0.960 . S
C1956 H1948 0.929 . S
C1956 C1957 1.377 . S
C1956 C1958 1.384 . S
C1957 C1956 1.377 . S
C1957 C1963 1.418 . S
C1958 H1949 0.930 . S
C1958 C1956 1.384 . S
C1958 C1959 1.372 . S
C1959 C1958 1.372 . S
C1959 C1960 1.400 1_655 S
C1959 C1964 1.490 . S
C1960 H1950 0.930 . S
C1960 C1959 1.400 1_455 S
C1960 C1963 1.380 1_455 S
H1961 C1977 0.930 . S
H1962 C1978 0.931 . S
C1963 H1951 0.908 1_655 S
C1963 C1957 1.418 . S
C1963 C1960 1.380 1_655 S
C1964 C1959 1.490 . S
C1964 C1966 1.395 . S
C1964 C1967 1.403 1_655 S
H1965 C1971 0.930 . S
C1966 H1952 0.930 . S
C1966 C1964 1.395 . S
C1966 C1969 1.403 1_556 S
C1967 C1964 1.403 1_455 S
C1967 C1968 1.524 . S
C1967 C1971 1.400 1_556 S
C1968 H1953 0.960 . S
C1968 H1954 0.960 1_455 S
C1968 H1955 0.960 . S
C1968 C1967 1.524 . S
C1969 C1966 1.403 1_554 S
C1969 C1970 1.392 1_655 S
C1969 C1973 1.495 . S
C1970 C1969 1.392 1_455 S
C1970 C1971 1.385 . S
C1970 C1972 1.478 . S
C1971 H1965 0.930 . S
C1971 C1967 1.400 1_554 S
C1971 C1970 1.385 . S
C1972 C1970 1.478 . S
C1972 C1974 1.381 1_455 S
C1972 C1978 1.383 . S
C1973 C1969 1.495 . S
C1973 H1979 0.959 . S
C1973 H1980 0.961 1_655 S
C1973 H1981 0.960 . S
C1974 C1972 1.381 1_655 S
C1974 C1975 1.400 . S
C1974 H1982 0.930 . S
C1975 C1974 1.400 . S
C1975 C1976 1.361 1_655 S
C1975 H1983 0.946 . S
C1976 C1975 1.361 1_455 S
C1976 C1977 1.377 . S
C1977 H1961 0.930 . S
C1977 C1976 1.377 . S
C1977 C1978 1.379 . S
C1978 H1962 0.931 . S
C1978 C1972 1.383 . S
C1978 C1977 1.379 . S
H1979 C1973 0.959 . S
H1980 C1973 0.961 1_455 S
H1981 C1973 0.960 . S
H1982 C1974 0.930 . S
H1983 C1975 0.946 . S
C553 C73 0.358 . S
C572 C5 0.273 . S
C589 C107 0.341 . S
C608 C39 0.316 . S
C625 C209 0.357 . S
C644 C141 0.274 . S
C661 C175 0.343 . S
C680 C243 0.332 . S
C697 C277 0.349 . S
C716 C345 0.291 . S
C733 C311 0.377 . S
C752 C379 0.456 . S
C769 C481 0.380 . S
C788 C413 0.381 . S
C805 C515 0.352 . S
C824 C447 0.395 . S
C841 C9 1.465 . S
C860 C247 1.478 . S
C877 C145 1.465 . S
C896 C43 1.450 . S
C913 C179 1.466 . S
C932 C77 1.449 . S
C949 C213 1.466 . S
C968 C111 1.477 . S
C985 C519 1.468 . S
C1004 C281 1.447 . S
C1021 C417 1.463 . S
C1040 C315 1.470 . S
C1057 C451 1.468 . S
C1076 C349 1.447 . S
C1093 C485 1.468 . S
C1112 C383 1.447 . S
C1129 C33 1.147 . S
C1148 C376 1.157 . S
C1165 C67 1.138 . S
C1184 C274 1.147 . S
C1201 C101 1.136 . S
C1220 C308 1.190 . S
C1237 C342 1.168 . S
C1256 C135 1.158 . S
C1273 C169 1.133 . S
C1292 C444 1.193 . S
C1309 C203 1.141 . S
C1328 C478 1.193 . S
C1345 C237 1.145 . S
C1364 C512 1.169 . S
C1381 C271 1.148 . S
C1400 C410 1.166 . S
C1417 C104 1.176 . S
C1436 C305 1.120 1_545 S
C1453 C2 1.168 . S
C1472 C339 1.119 1_455 S
C1489 C36 1.168 . S
C1508 C373 1.176 1_565 S
C1525 C407 1.146 1_655 S
C1544 C70 1.154 . S
C1561 C441 1.137 1_565 S
C1580 C172 1.170 . S
C1597 C475 1.146 1_655 S
C1616 C206 1.155 . S
C1633 C509 1.147 1_545 S
C1652 C240 1.147 . S
C1669 C543 1.133 1_455 S
C1688 C138 1.179 . S
C1705 C156 1.802 . S
C1724 C20 1.786 . S
C1741 C190 1.798 . S
C1760 C54 1.807 . S
C1777 C88 1.798 . S
C1796 C224 1.808 . S
C1813 C258 1.801 . S
C1832 C122 1.784 . S
C1849 C292 1.799 . S
C1868 C428 1.808 . S
C1885 C462 1.801 . S
C1904 C326 1.800 . S
C1921 C496 1.802 . S
C1940 C360 1.796 . S
C1957 C530 1.802 . S
C1976 C394 1.784 . S
