# Generated by pormake.
# Topology uml, (4)-cn, num edge types: 1
# Building blocks:
#     Node 0, Type 0, BuildingBlock: MUDLON_clean_sbu_0, # of connection points: 4
#     Node 1, Type 0, BuildingBlock: MUDLON_clean_sbu_0, # of connection points: 4
#     Node 2, Type 0, BuildingBlock: MUDLON_clean_sbu_0, # of connection points: 4
#     Node 3, Type 0, BuildingBlock: MUDLON_clean_sbu_0, # of connection points: 4
#     Node 4, Type 0, BuildingBlock: MUDLON_clean_sbu_0, # of connection points: 4
#     Node 5, Type 0, BuildingBlock: MUDLON_clean_sbu_0, # of connection points: 4
#     Node 6, Type 0, BuildingBlock: MUDLON_clean_sbu_0, # of connection points: 4
#     Node 7, Type 0, BuildingBlock: MUDLON_clean_sbu_0, # of connection points: 4
#     Node 8, Type 0, BuildingBlock: MUDLON_clean_sbu_0, # of connection points: 4
#     Node 9, Type 0, BuildingBlock: MUDLON_clean_sbu_0, # of connection points: 4
#     Node 10, Type 0, BuildingBlock: MUDLON_clean_sbu_0, # of connection points: 4
#     Node 11, Type 0, BuildingBlock: MUDLON_clean_sbu_0, # of connection points: 4
#     Node 12, Type 0, BuildingBlock: MUDLON_clean_sbu_0, # of connection points: 4
#     Node 13, Type 0, BuildingBlock: MUDLON_clean_sbu_0, # of connection points: 4
#     Node 14, Type 0, BuildingBlock: MUDLON_clean_sbu_0, # of connection points: 4
#     Node 15, Type 0, BuildingBlock: MUDLON_clean_sbu_0, # of connection points: 4
#     Node 16, Type 0, BuildingBlock: MUDLON_clean_sbu_0, # of connection points: 4
#     Node 17, Type 0, BuildingBlock: MUDLON_clean_sbu_0, # of connection points: 4
#     Node 18, Type 0, BuildingBlock: MUDLON_clean_sbu_0, # of connection points: 4
#     Node 19, Type 0, BuildingBlock: MUDLON_clean_sbu_0, # of connection points: 4
#     Node 20, Type 0, BuildingBlock: MUDLON_clean_sbu_0, # of connection points: 4
#     Node 21, Type 0, BuildingBlock: MUDLON_clean_sbu_0, # of connection points: 4
#     Node 22, Type 0, BuildingBlock: MUDLON_clean_sbu_0, # of connection points: 4
#     Node 23, Type 0, BuildingBlock: MUDLON_clean_sbu_0, # of connection points: 4
#     Node 24, Type 0, BuildingBlock: MUDLON_clean_sbu_0, # of connection points: 4
#     Node 25, Type 0, BuildingBlock: MUDLON_clean_sbu_0, # of connection points: 4
#     Node 26, Type 0, BuildingBlock: MUDLON_clean_sbu_0, # of connection points: 4
#     Node 27, Type 0, BuildingBlock: MUDLON_clean_sbu_0, # of connection points: 4
#     Node 28, Type 0, BuildingBlock: MUDLON_clean_sbu_0, # of connection points: 4
#     Node 29, Type 0, BuildingBlock: MUDLON_clean_sbu_0, # of connection points: 4
#     Node 30, Type 0, BuildingBlock: MUDLON_clean_sbu_0, # of connection points: 4
#     Node 31, Type 0, BuildingBlock: MUDLON_clean_sbu_0, # of connection points: 4
#     Node 32, Type 0, BuildingBlock: MUDLON_clean_sbu_0, # of connection points: 4
#     Node 33, Type 0, BuildingBlock: MUDLON_clean_sbu_0, # of connection points: 4
#     Node 34, Type 0, BuildingBlock: MUDLON_clean_sbu_0, # of connection points: 4
#     Node 35, Type 0, BuildingBlock: MUDLON_clean_sbu_0, # of connection points: 4
#     Edge 36, Type (0, 0), BuildingBlock: UVAHIK_clean_linker_0, # of connection points: 2
#     Edge 37, Type (0, 0), BuildingBlock: UVAHIK_clean_linker_0, # of connection points: 2
#     Edge 38, Type (0, 0), BuildingBlock: UVAHIK_clean_linker_0, # of connection points: 2
#     Edge 39, Type (0, 0), BuildingBlock: UVAHIK_clean_linker_0, # of connection points: 2
#     Edge 40, Type (0, 0), BuildingBlock: UVAHIK_clean_linker_0, # of connection points: 2
#     Edge 41, Type (0, 0), BuildingBlock: UVAHIK_clean_linker_0, # of connection points: 2
#     Edge 42, Type (0, 0), BuildingBlock: UVAHIK_clean_linker_0, # of connection points: 2
#     Edge 43, Type (0, 0), BuildingBlock: UVAHIK_clean_linker_0, # of connection points: 2
#     Edge 44, Type (0, 0), BuildingBlock: UVAHIK_clean_linker_0, # of connection points: 2
#     Edge 45, Type (0, 0), BuildingBlock: UVAHIK_clean_linker_0, # of connection points: 2
#     Edge 46, Type (0, 0), BuildingBlock: UVAHIK_clean_linker_0, # of connection points: 2
#     Edge 47, Type (0, 0), BuildingBlock: UVAHIK_clean_linker_0, # of connection points: 2
#     Edge 48, Type (0, 0), BuildingBlock: UVAHIK_clean_linker_0, # of connection points: 2
#     Edge 49, Type (0, 0), BuildingBlock: UVAHIK_clean_linker_0, # of connection points: 2
#     Edge 50, Type (0, 0), BuildingBlock: UVAHIK_clean_linker_0, # of connection points: 2
#     Edge 51, Type (0, 0), BuildingBlock: UVAHIK_clean_linker_0, # of connection points: 2
#     Edge 52, Type (0, 0), BuildingBlock: UVAHIK_clean_linker_0, # of connection points: 2
#     Edge 53, Type (0, 0), BuildingBlock: UVAHIK_clean_linker_0, # of connection points: 2
#     Edge 54, Type (0, 0), BuildingBlock: UVAHIK_clean_linker_0, # of connection points: 2
#     Edge 55, Type (0, 0), BuildingBlock: UVAHIK_clean_linker_0, # of connection points: 2
#     Edge 56, Type (0, 0), BuildingBlock: UVAHIK_clean_linker_0, # of connection points: 2
#     Edge 57, Type (0, 0), BuildingBlock: UVAHIK_clean_linker_0, # of connection points: 2
#     Edge 58, Type (0, 0), BuildingBlock: UVAHIK_clean_linker_0, # of connection points: 2
#     Edge 59, Type (0, 0), BuildingBlock: UVAHIK_clean_linker_0, # of connection points: 2
#     Edge 60, Type (0, 0), BuildingBlock: UVAHIK_clean_linker_0, # of connection points: 2
#     Edge 61, Type (0, 0), BuildingBlock: UVAHIK_clean_linker_0, # of connection points: 2
#     Edge 62, Type (0, 0), BuildingBlock: UVAHIK_clean_linker_0, # of connection points: 2
#     Edge 63, Type (0, 0), BuildingBlock: UVAHIK_clean_linker_0, # of connection points: 2
#     Edge 64, Type (0, 0), BuildingBlock: UVAHIK_clean_linker_0, # of connection points: 2
#     Edge 65, Type (0, 0), BuildingBlock: UVAHIK_clean_linker_0, # of connection points: 2
#     Edge 66, Type (0, 0), BuildingBlock: UVAHIK_clean_linker_0, # of connection points: 2
#     Edge 67, Type (0, 0), BuildingBlock: UVAHIK_clean_linker_0, # of connection points: 2
#     Edge 68, Type (0, 0), BuildingBlock: UVAHIK_clean_linker_0, # of connection points: 2
#     Edge 69, Type (0, 0), BuildingBlock: UVAHIK_clean_linker_0, # of connection points: 2
#     Edge 70, Type (0, 0), BuildingBlock: UVAHIK_clean_linker_0, # of connection points: 2
#     Edge 71, Type (0, 0), BuildingBlock: UVAHIK_clean_linker_0, # of connection points: 2
#     Edge 72, Type (0, 0), BuildingBlock: UVAHIK_clean_linker_0, # of connection points: 2
#     Edge 73, Type (0, 0), BuildingBlock: UVAHIK_clean_linker_0, # of connection points: 2
#     Edge 74, Type (0, 0), BuildingBlock: UVAHIK_clean_linker_0, # of connection points: 2
#     Edge 75, Type (0, 0), BuildingBlock: UVAHIK_clean_linker_0, # of connection points: 2
#     Edge 76, Type (0, 0), BuildingBlock: UVAHIK_clean_linker_0, # of connection points: 2
#     Edge 77, Type (0, 0), BuildingBlock: UVAHIK_clean_linker_0, # of connection points: 2
#     Edge 78, Type (0, 0), BuildingBlock: UVAHIK_clean_linker_0, # of connection points: 2
#     Edge 79, Type (0, 0), BuildingBlock: UVAHIK_clean_linker_0, # of connection points: 2
#     Edge 80, Type (0, 0), BuildingBlock: UVAHIK_clean_linker_0, # of connection points: 2
#     Edge 81, Type (0, 0), BuildingBlock: UVAHIK_clean_linker_0, # of connection points: 2
#     Edge 82, Type (0, 0), BuildingBlock: UVAHIK_clean_linker_0, # of connection points: 2
#     Edge 83, Type (0, 0), BuildingBlock: UVAHIK_clean_linker_0, # of connection points: 2
#     Edge 84, Type (0, 0), BuildingBlock: UVAHIK_clean_linker_0, # of connection points: 2
#     Edge 85, Type (0, 0), BuildingBlock: UVAHIK_clean_linker_0, # of connection points: 2
#     Edge 86, Type (0, 0), BuildingBlock: UVAHIK_clean_linker_0, # of connection points: 2
#     Edge 87, Type (0, 0), BuildingBlock: UVAHIK_clean_linker_0, # of connection points: 2
#     Edge 88, Type (0, 0), BuildingBlock: UVAHIK_clean_linker_0, # of connection points: 2
#     Edge 89, Type (0, 0), BuildingBlock: UVAHIK_clean_linker_0, # of connection points: 2
#     Edge 90, Type (0, 0), BuildingBlock: UVAHIK_clean_linker_0, # of connection points: 2
#     Edge 91, Type (0, 0), BuildingBlock: UVAHIK_clean_linker_0, # of connection points: 2
#     Edge 92, Type (0, 0), BuildingBlock: UVAHIK_clean_linker_0, # of connection points: 2
#     Edge 93, Type (0, 0), BuildingBlock: UVAHIK_clean_linker_0, # of connection points: 2
#     Edge 94, Type (0, 0), BuildingBlock: UVAHIK_clean_linker_0, # of connection points: 2
#     Edge 95, Type (0, 0), BuildingBlock: UVAHIK_clean_linker_0, # of connection points: 2
#     Edge 96, Type (0, 0), BuildingBlock: UVAHIK_clean_linker_0, # of connection points: 2
#     Edge 97, Type (0, 0), BuildingBlock: UVAHIK_clean_linker_0, # of connection points: 2
#     Edge 98, Type (0, 0), BuildingBlock: UVAHIK_clean_linker_0, # of connection points: 2
#     Edge 99, Type (0, 0), BuildingBlock: UVAHIK_clean_linker_0, # of connection points: 2
#     Edge 100, Type (0, 0), BuildingBlock: UVAHIK_clean_linker_0, # of connection points: 2
#     Edge 101, Type (0, 0), BuildingBlock: UVAHIK_clean_linker_0, # of connection points: 2
#     Edge 102, Type (0, 0), BuildingBlock: UVAHIK_clean_linker_0, # of connection points: 2
#     Edge 103, Type (0, 0), BuildingBlock: UVAHIK_clean_linker_0, # of connection points: 2
#     Edge 104, Type (0, 0), BuildingBlock: UVAHIK_clean_linker_0, # of connection points: 2
#     Edge 105, Type (0, 0), BuildingBlock: UVAHIK_clean_linker_0, # of connection points: 2
#     Edge 106, Type (0, 0), BuildingBlock: UVAHIK_clean_linker_0, # of connection points: 2
#     Edge 107, Type (0, 0), BuildingBlock: UVAHIK_clean_linker_0, # of connection points: 2
# Relax obj value: 0.069
# Max RMSD: 0.179
# Mean RMSD: 0.174
data_MOF--net-uml--node1-MUDLON_clean_sbu_0--edge1-UVAHIK_clean_linker_0
_symmetry_space_group_name_H-M    P1
_symmetry_Int_Tables_number       1
_symmetry_cell_setting            triclinic
loop_
_symmetry_equiv_pos_as_xyz
'x, y, z'
_cell_length_a     130.97177
_cell_length_b     130.92838
_cell_length_c     38.351702
_cell_angle_alpha  89.988888
_cell_angle_beta   89.940253
_cell_angle_gamma 120.00296
loop_
_atom_site_label
_atom_site_type_symbol
_atom_site_fract_x
_atom_site_fract_y
_atom_site_fract_z
_atom_type_partial_charge
Mg0 Mg 0.36351 0.10775 0.16625 0.0
C1 C 0.35292 0.12305 0.15679 0.0
O2 O 0.34467 0.11276 0.14522 0.0
C3 C 0.38288 0.10206 0.16845 0.0
O4 O 0.37491 0.09406 0.18924 0.0
C5 C 0.34856 0.0983 0.23306 0.0
O6 O 0.34182 0.10159 0.21698 0.0
O7 O 0.35757 0.09929 0.21734 0.0
O8 O 0.36257 0.12402 0.16758 0.0
O9 O 0.35297 0.09812 0.12085 0.0
C10 C 0.35644 0.09306 0.09938 0.0
O11 O 0.36558 0.09195 0.1075 0.0
O12 O 0.38098 0.10998 0.15599 0.0
Mg13 Mg 0.9023 0.25744 0.17501 0.0
C14 C 0.88529 0.23255 0.19517 0.0
O15 O 0.89417 0.23539 0.21639 0.0
C16 C 0.9082 0.28265 0.17443 0.0
O17 O 0.91518 0.28259 0.19892 0.0
C18 C 0.91691 0.25815 0.24111 0.0
O19 O 0.92242 0.25451 0.22035 0.0
O20 O 0.90905 0.26011 0.22857 0.0
O21 O 0.88581 0.24038 0.17431 0.0
O22 O 0.91292 0.25597 0.13333 0.0
C23 C 0.91925 0.2648 0.11383 0.0
O24 O 0.92093 0.2752 0.12283 0.0
O25 O 0.90082 0.27287 0.16048 0.0
Mg26 Mg 0.75333 0.64741 0.16557 0.0
C27 C 0.7791 0.65851 0.16039 0.0
O28 O 0.77677 0.66684 0.15173 0.0
C29 C 0.73429 0.62362 0.13368 0.0
O30 O 0.74208 0.62605 0.10885 0.0
C31 C 0.75737 0.66442 0.22827 0.0
O32 O 0.76537 0.67282 0.20855 0.0
O33 O 0.75124 0.65407 0.21588 0.0
O34 O 0.77054 0.64835 0.16832 0.0
O35 O 0.75358 0.65666 0.1175 0.0
C36 C 0.75823 0.65426 0.09187 0.0
O37 O 0.76276 0.64745 0.0975 0.0
O38 O 0.73721 0.63023 0.16049 0.0
Mg39 Mg 0.1105 0.36081 0.34182 0.0
C40 C 0.12405 0.34857 0.34388 0.0
O41 O 0.11294 0.34022 0.34566 0.0
C42 C 0.10551 0.38065 0.33995 0.0
O43 O 0.09846 0.37352 0.31575 0.0
C44 C 0.09692 0.34603 0.27634 0.0
O45 O 0.09272 0.33684 0.2972 0.0
O46 O 0.10369 0.35627 0.28865 0.0
O47 O 0.12638 0.35925 0.34234 0.0
O48 O 0.09968 0.34925 0.38414 0.0
C49 C 0.09438 0.35254 0.40525 0.0
O50 O 0.0938 0.36203 0.39793 0.0
O51 O 0.11271 0.37812 0.35453 0.0
Mg52 Mg 0.64958 0.75408 0.34292 0.0
C53 C 0.66054 0.77975 0.34392 0.0
O54 O 0.66928 0.77756 0.34625 0.0
C55 C 0.63247 0.72879 0.34329 0.0
O56 O 0.6417 0.72978 0.32666 0.0
C57 C 0.6658 0.75631 0.27929 0.0
O58 O 0.67479 0.76201 0.30049 0.0
O59 O 0.65537 0.75218 0.29092 0.0
O60 O 0.65007 0.77103 0.34224 0.0
O61 O 0.65968 0.75479 0.38902 0.0
C62 C 0.65513 0.75679 0.41568 0.0
O63 O 0.64603 0.7583 0.4109 0.0
O64 O 0.63262 0.73818 0.35284 0.0
Mg65 Mg 0.2571 0.89978 0.3444 0.0
C66 C 0.23185 0.88348 0.34854 0.0
O67 O 0.23317 0.8941 0.35025 0.0
C68 C 0.28288 0.90837 0.34129 0.0
O69 O 0.28184 0.91581 0.32069 0.0
C70 C 0.26083 0.91632 0.27873 0.0
O71 O 0.26578 0.92554 0.29942 0.0
O72 O 0.25698 0.90605 0.29138 0.0
O73 O 0.24106 0.88255 0.34587 0.0
O74 O 0.25485 0.90839 0.3901 0.0
C75 C 0.26288 0.91732 0.40604 0.0
O76 O 0.27332 0.92355 0.39161 0.0
O77 O 0.27357 0.89982 0.35423 0.0
Mg78 Mg 0.65336 0.90385 0.84734 0.0
C79 C 0.66274 0.92105 0.90812 0.0
O80 O 0.65555 0.92432 0.89513 0.0
C81 C 0.6683 0.91381 0.78171 0.0
O82 O 0.6753 0.91127 0.79954 0.0
C83 C 0.63157 0.90667 0.84504 0.0
O84 O 0.636 0.91137 0.81454 0.0
O85 O 0.63641 0.90197 0.8625 0.0
O86 O 0.66444 0.91363 0.8914 0.0
O87 O 0.65388 0.88738 0.84568 0.0
C88 C 0.66355 0.88812 0.85524 0.0
O89 O 0.67211 0.89836 0.86607 0.0
O90 O 0.65882 0.9122 0.79591 0.0
Mg91 Mg 0.10733 0.75088 0.84887 0.0
C92 C 0.12688 0.77502 0.87182 0.0
O93 O 0.12021 0.77197 0.89982 0.0
C94 C 0.10251 0.72572 0.84585 0.0
O95 O 0.09623 0.72561 0.81903 0.0
C96 C 0.10618 0.74914 0.77223 0.0
O97 O 0.11643 0.75023 0.78016 0.0
O98 O 0.09957 0.74888 0.79702 0.0
O99 O 0.12406 0.7676 0.84707 0.0
O100 O 0.09746 0.75229 0.89255 0.0
C101 C 0.08986 0.7432 0.909 0.0
O102 O 0.08647 0.73272 0.89588 0.0
O103 O 0.10879 0.73538 0.86202 0.0
Mg104 Mg 0.2596 0.35962 0.84042 0.0
C105 C 0.23872 0.36309 0.86122 0.0
O106 O 0.24406 0.36605 0.89159 0.0
C107 C 0.27883 0.37993 0.88029 0.0
O108 O 0.27107 0.37451 0.90521 0.0
C109 C 0.26493 0.35898 0.76532 0.0
O110 O 0.26876 0.37023 0.7707 0.0
O111 O 0.26081 0.35192 0.7911 0.0
O112 O 0.24365 0.36091 0.83595 0.0
O113 O 0.25774 0.34921 0.88692 0.0
C114 C 0.24777 0.34272 0.90124 0.0
O115 O 0.23817 0.34065 0.88457 0.0
O116 O 0.27608 0.37615 0.84917 0.0
Mg117 Mg 0.89876 0.6462 0.67423 0.0
C118 C 0.87856 0.64876 0.70388 0.0
O119 O 0.88538 0.65195 0.7315 0.0
C120 C 0.89633 0.62385 0.64085 0.0
O121 O 0.89166 0.62689 0.61547 0.0
C122 C 0.907 0.64856 0.74786 0.0
O123 O 0.90046 0.63707 0.74433 0.0
O124 O 0.90845 0.65508 0.72151 0.0
O125 O 0.88148 0.64504 0.67715 0.0
O126 O 0.90688 0.65566 0.62601 0.0
C127 C 0.89972 0.65406 0.60141 0.0
O128 O 0.88835 0.6478 0.60775 0.0
O129 O 0.8991 0.62972 0.66915 0.0
Mg130 Mg 0.36476 0.25836 0.67572 0.0
C131 C 0.35379 0.23287 0.66066 0.0
O132 O 0.34585 0.23553 0.65025 0.0
C133 C 0.38484 0.28325 0.68612 0.0
O134 O 0.37716 0.28317 0.70833 0.0
C135 C 0.36319 0.25803 0.75191 0.0
O136 O 0.37231 0.25677 0.74465 0.0
O137 O 0.35749 0.25909 0.72659 0.0
O138 O 0.36348 0.24105 0.67297 0.0
O139 O 0.35623 0.25968 0.62812 0.0
C140 C 0.36322 0.26275 0.6021 0.0
O141 O 0.37396 0.26467 0.60709 0.0
O142 O 0.38252 0.27367 0.67102 0.0
Mg143 Mg 0.75574 0.1073 0.66568 0.0
C144 C 0.76007 0.10807 0.59194 0.0
O145 O 0.76128 0.11831 0.60094 0.0
C146 C 0.76061 0.09457 0.72565 0.0
O147 O 0.77009 0.09718 0.70736 0.0
C148 C 0.73202 0.0997 0.63905 0.0
O149 O 0.73442 0.09159 0.62851 0.0
O150 O 0.73963 0.10823 0.65744 0.0
O151 O 0.75782 0.10046 0.61578 0.0
O152 O 0.77234 0.12401 0.67206 0.0
C153 C 0.78144 0.12347 0.66305 0.0
O154 O 0.77995 0.11343 0.65089 0.0
O155 O 0.75308 0.09703 0.71329 0.0
Mg156 Mg 0.02618 0.43868 0.49668 0.0
C157 C 0.01672 0.45496 0.48739 0.0
O158 O 0.00837 0.445 0.47429 0.0
C159 C 0.04497 0.43216 0.49942 0.0
O160 O 0.03671 0.42411 0.51942 0.0
C161 C 0.01178 0.43075 0.56452 0.0
O162 O 1.00666 0.43616 0.55029 0.0
O163 O 0.01959 0.42984 0.54717 0.0
O164 O 0.02602 0.45533 0.49903 0.0
O165 O 0.01616 0.42989 0.44968 0.0
C166 C 0.0178 0.42257 0.43215 0.0
O167 O 0.02445 0.41864 0.44521 0.0
O168 O 0.04344 0.44035 0.48724 0.0
Mg169 Mg 0.5682 0.58957 0.50442 0.0
C170 C 0.546 0.56766 0.53319 0.0
O171 O 0.55064 0.57215 0.56367 0.0
C172 C 0.57802 0.61343 0.47667 0.0
O173 O 0.58636 0.61072 0.47298 0.0
C174 C 0.57825 0.58387 0.56962 0.0
O175 O 0.57538 0.57412 0.55243 0.0
O176 O 0.57681 0.5918 0.55505 0.0
O177 O 0.55094 0.57348 0.50565 0.0
O178 O 0.57641 0.58689 0.45827 0.0
C179 C 0.56957 0.58439 0.43212 0.0
O180 O 0.55913 0.58326 0.43713 0.0
O181 O 0.56842 0.60599 0.49143 0.0
Mg182 Mg 0.42194 0.98522 0.49648 0.0
C183 C 0.44737 0.99409 0.48367 0.0
O184 O 0.44549 1.00189 0.46787 0.0
C185 C 0.39771 0.97004 0.47645 0.0
O186 O 0.39977 0.98094 0.47492 0.0
C187 C 0.42851 1.00088 0.56103 0.0
O188 O 0.43873 0.00637 0.54488 0.0
O189 O 0.41981 0.99232 0.54582 0.0
O190 O 0.43878 0.98538 0.49895 0.0
O191 O 0.42262 0.99434 0.44789 0.0
C192 C 0.4232 0.98854 0.42202 0.0
O193 O 0.42359 0.97887 0.42838 0.0
O194 O 0.40585 0.96828 0.48769 0.0
Mg195 Mg 0.77633 0.69454 0.66841 0.0
C196 C 0.79642 0.69177 0.69629 0.0
O197 O 0.79115 0.6915 0.72573 0.0
C198 C 0.77067 0.71395 0.66966 0.0
O199 O 0.76321 0.70669 0.64641 0.0
C200 C 0.76576 0.68013 0.60094 0.0
O201 O 0.76572 0.67158 0.61899 0.0
O202 O 0.76912 0.69002 0.61559 0.0
O203 O 0.79262 0.69379 0.66806 0.0
O204 O 0.76593 0.68258 0.71052 0.0
C205 C 0.75991 0.68512 0.73118 0.0
O206 O 0.75827 0.69396 0.72336 0.0
O207 O 0.77821 0.7116 0.6826 0.0
Mg208 Mg 0.31722 0.08644 0.66939 0.0
C209 C 0.32443 0.11097 0.64961 0.0
O210 O 0.33209 0.10895 0.63344 0.0
C211 C 0.30356 0.06304 0.70118 0.0
O212 O 0.31464 0.06579 0.70414 0.0
C213 C 0.3319 0.08592 0.60501 0.0
O214 O 0.34092 0.08982 0.62636 0.0
O215 O 0.3219 0.08369 0.61677 0.0
O216 O 0.31617 0.10261 0.66694 0.0
O217 O 0.32923 0.08968 0.7129 0.0
C218 C 0.32561 0.09273 0.73962 0.0
O219 O 0.31642 0.09416 0.73609 0.0
O220 O 0.30125 0.07026 0.68569 0.0
Mg221 Mg 0.92687 0.23666 0.67889 0.0
C222 C 0.90107 0.22092 0.68384 0.0
O223 O 0.90273 0.23128 0.69341 0.0
C224 C 0.95056 0.2448 0.70517 0.0
O225 O 0.94866 0.25367 0.70923 0.0
C226 C 0.92222 0.24785 0.61435 0.0
O227 O 0.91281 0.24585 0.63208 0.0
O228 O 0.92967 0.24561 0.62846 0.0
O229 O 0.91004 0.22005 0.67571 0.0
O230 O 0.92532 0.24513 0.72628 0.0
C231 C 0.92308 0.23826 0.75228 0.0
O232 O 0.92152 0.22767 0.74651 0.0
O233 O 0.94263 0.23545 0.69052 0.0
Mg234 Mg 0.3171 0.23383 0.17868 0.0
C235 C 0.33551 0.25006 0.23691 0.0
O236 O 0.34306 0.25641 0.21244 0.0
C237 C 0.33386 0.24364 0.11631 0.0
O238 O 0.33894 0.23856 0.13276 0.0
C239 C 0.30121 0.24211 0.20169 0.0
O240 O 0.31186 0.25056 0.20982 0.0
O241 O 0.30007 0.23306 0.18571 0.0
O242 O 0.32559 0.24131 0.22858 0.0
O243 O 0.31701 0.21704 0.17493 0.0
C244 C 0.32613 0.21729 0.18757 0.0
O245 O 0.33422 0.22709 0.20219 0.0
O246 O 0.32512 0.24372 0.13059 0.0
Mg247 Mg 0.77757 0.08578 0.16637 0.0
C248 C 0.80029 0.10791 0.19108 0.0
O249 O 0.79763 0.10229 0.22105 0.0
C250 C 0.77908 0.06782 0.21109 0.0
O251 O 0.77999 0.07556 0.23448 0.0
C252 C 0.77493 0.08147 0.09032 0.0
O253 O 0.78438 0.08085 0.098 0.0
O254 O 0.7695 0.08328 0.11494 0.0
O255 O 0.79394 0.10281 0.16455 0.0
O256 O 0.76701 0.0863 0.20948 0.0
C257 C 0.7688 0.09585 0.22355 0.0
O258 O 0.77597 0.10593 0.20826 0.0
O259 O 0.77902 0.07025 0.17896 0.0
Mg260 Mg 0.92441 0.69233 0.17696 0.0
C261 C 0.90272 0.69439 0.15564 0.0
O262 O 0.90793 0.6974 0.12508 0.0
C263 C 0.95022 0.70995 0.176 0.0
O264 O 0.94969 0.70141 0.15668 0.0
C265 C 0.92876 0.69258 0.09989 0.0
O266 O 0.93261 0.70382 0.10581 0.0
O267 O 0.92496 0.68542 0.12548 0.0
O268 O 0.90796 0.69269 0.18099 0.0
O269 O 0.92264 0.6808 0.22038 0.0
C270 C 0.93106 0.6832 0.24144 0.0
O271 O 0.94166 0.69188 0.23395 0.0
O272 O 0.94062 0.70902 0.18709 0.0
Mg273 Mg 0.57029 0.98222 0.01695 0.0
C274 C 0.54767 0.98134 0.99096 0.0
O275 O 0.55122 0.9795 0.96075 0.0
C276 C 0.57636 0.96275 0.01605 0.0
O277 O 0.58339 0.96934 0.04114 0.0
C278 C 0.57272 0.98151 0.09401 0.0
O279 O 0.56312 0.97141 0.08768 0.0
O280 O 0.57823 0.98822 0.06839 0.0
O281 O 0.5535 0.98202 0.01827 0.0
O282 O 0.58053 0.9936 0.97389 0.0
C283 C 0.57854 1.00141 0.96126 0.0
O284 O 0.5714 1.00405 0.97796 0.0
O285 O 0.56915 0.9655 1.00283 0.0
Mg286 Mg 0.029 0.59084 0.02239 0.0
C287 C 0.02954 0.5689 0.99575 0.0
O288 O 0.03228 0.57465 0.966 0.0
C289 C 0.04848 0.60888 0.9778 0.0
O290 O 0.04163 0.60119 0.95435 0.0
C291 C 0.03008 0.59317 0.09909 0.0
O292 O 0.03944 0.59242 0.09111 0.0
O293 O 0.02349 0.59299 0.07441 0.0
O294 O 0.02844 0.57386 0.02289 0.0
O295 O 0.01784 0.59042 0.97972 0.0
C296 C 0.00991 0.58089 0.96604 0.0
O297 O 1.00689 0.57082 0.98153 0.0
O298 O 0.04597 0.60642 0.00992 0.0
Mg299 Mg 0.4192 0.4395 0.02197 0.0
C300 C 0.42946 0.43248 0.962 0.0
O301 O 0.43912 0.44165 0.97359 0.0
C302 C 0.42002 0.4249 0.08495 0.0
O303 O 0.42483 0.42096 0.06254 0.0
C304 C 0.40043 0.44002 0.97767 0.0
O305 O 0.40767 0.44038 0.95331 0.0
O306 O 0.40345 0.44055 0.00948 0.0
O307 O 0.41997 0.4288 0.97937 0.0
O308 O 0.4359 0.45637 0.02168 0.0
C309 C 0.44432 0.45669 0.03922 0.0
O310 O 0.44224 0.44735 0.05745 0.0
O311 O 0.41674 0.43204 0.07452 0.0
Mg312 Mg 0.69718 0.77586 0.83968 0.0
C313 C 0.68679 0.79135 0.83195 0.0
O314 O 0.67806 0.78088 0.82351 0.0
C315 C 0.71643 0.76997 0.84099 0.0
O316 O 0.7088 0.7624 0.86339 0.0
C317 C 0.68216 0.76547 0.90657 0.0
O318 O 0.67403 0.76623 0.8886 0.0
O319 O 0.69196 0.76827 0.89203 0.0
O320 O 0.69669 0.79234 0.83998 0.0
O321 O 0.68588 0.76574 0.79599 0.0
C322 C 0.68913 0.76052 0.7744 0.0
O323 O 0.69847 0.75967 0.78162 0.0
O324 O 0.71438 0.7777 0.82783 0.0
Mg325 Mg 0.23422 0.92221 0.83986 0.0
C326 C 0.21877 0.89701 0.84488 0.0
O327 O 0.2296 0.89906 0.84902 0.0
C328 C 0.24296 0.94789 0.84027 0.0
O329 O 0.25047 0.94682 0.86047 0.0
C330 C 0.2506 0.92498 0.90502 0.0
O331 O 0.25917 0.92696 0.88334 0.0
O332 O 0.24074 0.92307 0.89309 0.0
O333 O 0.21726 0.9058 0.84008 0.0
O334 O 0.24286 0.91968 0.79472 0.0
C335 C 0.25198 0.92756 0.77904 0.0
O336 O 0.25839 0.93795 0.79358 0.0
O337 O 0.23418 0.93855 0.82831 0.0
Mg338 Mg 0.08938 0.31559 0.8386 0.0
C339 C 0.11527 0.3273 0.8327 0.0
O340 O 0.11273 0.33537 0.82272 0.0
C341 C 0.06441 0.29707 0.84027 0.0
O342 O 0.06478 0.30581 0.8581 0.0
C343 C 0.09373 0.33131 0.904 0.0
O344 O 0.10329 0.33899 0.88738 0.0
O345 O 0.08654 0.32168 0.889 0.0
O346 O 0.10682 0.31712 0.84087 0.0
O347 O 0.08939 0.32483 0.79121 0.0
C348 C 0.09115 0.31994 0.76497 0.0
O349 O 0.09286 0.31101 0.77061 0.0
O350 O 0.07409 0.29809 0.82949 0.0
Mg351 Mg 0.44694 0.03048 1.00084 0.0
C352 C 0.4603 0.01809 1.00082 0.0
O353 O 0.44919 0.00984 0.99761 0.0
C354 C 0.44203 0.05039 1.00039 0.0
O355 O 0.43505 0.04348 0.9757 0.0
C356 C 0.43288 0.01704 0.9338 0.0
O357 O 0.42647 0.00808 0.95455 0.0
O358 O 0.44105 0.02661 0.94666 0.0
O359 O 0.46271 0.02877 1.00325 0.0
O360 O 0.43545 0.01845 0.04136 0.0
C361 C 0.42974 0.02151 0.06159 0.0
O362 O 0.42917 0.03099 0.05398 0.0
O363 O 0.44913 0.0477 0.01478 0.0
Mg364 Mg 0.98391 0.4199 1.00446 0.0
C365 C 0.99115 0.44462 0.98531 0.0
O366 O 0.99746 0.44206 0.96423 0.0
C367 C 0.96562 0.39438 1.00662 0.0
O368 O 0.97316 0.39463 0.98351 0.0
C369 C 0.99706 0.41796 0.93755 0.0
O370 O 1.00551 0.41914 0.95849 0.0
O371 O 0.98799 0.41778 0.95028 0.0
O372 O 0.98385 0.43663 1.0058 0.0
O373 O 0.99612 0.42189 0.04619 0.0
C374 C 0.99538 0.41309 0.06259 0.0
O375 O 0.98856 0.40244 0.0502 0.0
O376 O 0.96736 0.40412 0.01926 0.0
Mg377 Mg 0.59113 0.56506 0.00807 0.0
C378 C 0.56575 0.54893 0.99913 0.0
O379 O 0.56768 0.55898 0.9857 0.0
C380 C 0.61664 0.57298 1.00703 0.0
O381 O 0.61574 0.58045 0.98613 0.0
C382 C 0.59096 0.57938 0.94213 0.0
O383 O 0.58889 0.5859 0.96379 0.0
O384 O 0.59232 0.57106 0.95407 0.0
O385 O 0.57451 0.54832 0.01106 0.0
O386 O 0.58938 0.5754 0.05013 0.0
C387 C 0.59788 0.58136 0.07101 0.0
O388 O 0.60836 0.58299 0.0634 0.0
O389 O 0.60722 0.56447 0.01967 0.0
Mg390 Mg 0.98427 0.56774 0.52424 0.0
C391 C 0.98714 0.56726 0.59864 0.0
O392 O 0.97789 0.55717 0.58987 0.0
C393 C 1.0016 0.57874 0.46341 0.0
O394 O 0.00708 0.57413 0.48011 0.0
C395 C 0.96838 0.57587 0.54868 0.0
O396 O 0.979 0.58415 0.55779 0.0
O397 O 0.96729 0.56701 0.53169 0.0
O398 O 0.99288 0.57461 0.5745 0.0
O399 O 0.98398 0.55091 0.51815 0.0
C400 C 0.99315 0.55097 0.52959 0.0
O401 O 1.00145 0.56064 0.54424 0.0
O402 O 0.99242 0.57809 0.47704 0.0
Mg403 Mg 0.4431 0.41903 0.52395 0.0
C404 C 0.45731 0.44442 0.51197 0.0
O405 O 0.44628 0.44181 0.5083 0.0
C406 C 0.44655 0.40108 0.56388 0.0
O407 O 0.44905 0.40902 0.58825 0.0
C408 C 0.4368 0.41258 0.44977 0.0
O409 O 0.44485 0.4096 0.45569 0.0
O410 O 0.43353 0.41659 0.47504 0.0
O411 O 0.45935 0.43604 0.5181 0.0
O412 O 0.43456 0.42033 0.57174 0.0
C413 C 0.44157 0.42738 0.5947 0.0
O414 O 0.45276 0.43395 0.58656 0.0
O415 O 0.44475 0.40337 0.53296 0.0
Mg416 Mg 0.59138 0.02647 0.52176 0.0
C417 C 0.57022 0.02755 0.49187 0.0
O418 O 0.57478 0.02695 0.46196 0.0
C419 C 0.61134 0.04834 0.55484 0.0
O420 O 0.60373 0.04471 0.58069 0.0
C421 C 0.59717 0.02346 0.44819 0.0
O422 O 0.60349 0.03495 0.45206 0.0
O423 O 0.59131 0.01721 0.47419 0.0
O424 O 0.57577 0.02843 0.51993 0.0
O425 O 0.59026 0.01736 0.5707 0.0
C426 C 0.58157 0.01481 0.59082 0.0
O427 O 0.57289 0.01616 0.57926 0.0
O428 O 0.60823 0.04287 0.52589 0.0
Mg429 Mg 0.2355 0.31513 0.33662 0.0
C430 C 0.21125 0.31203 0.31677 0.0
O431 O 0.21355 0.3091 0.28619 0.0
C432 C 0.23314 0.29357 0.29979 0.0
O433 O 0.22974 0.29796 0.2745 0.0
C434 C 0.24167 0.31656 0.41164 0.0
O435 O 0.23363 0.3054 0.40765 0.0
O436 O 0.24486 0.32327 0.38498 0.0
O437 O 0.21837 0.31407 0.34185 0.0
O438 O 0.24391 0.32494 0.28913 0.0
C439 C 0.24071 0.33159 0.27439 0.0
O440 O 0.23335 0.33401 0.29069 0.0
O441 O 0.23526 0.29845 0.32968 0.0
Mg442 Mg 0.69454 0.9255 0.33871 0.0
C443 C 0.69171 0.90206 0.315 0.0
O444 O 0.68929 0.90548 0.28547 0.0
C445 C 0.71461 0.95083 0.34187 0.0
O446 O 0.70828 0.95088 0.36838 0.0
C447 C 0.69479 0.92733 0.41538 0.0
O448 O 0.70425 0.9267 0.40785 0.0
O449 O 0.68839 0.92729 0.39032 0.0
O450 O 0.69495 0.90902 0.34103 0.0
O451 O 0.68328 0.92362 0.29448 0.0
C452 C 0.68467 0.93256 0.27738 0.0
O453 O 0.69168 0.94316 0.28991 0.0
O454 O 0.71139 0.94117 0.32584 0.0
Mg455 Mg 0.08648 0.77027 0.34046 0.0
C456 C 0.07855 0.75318 0.27853 0.0
O457 O 0.06802 0.74942 0.29192 0.0
C458 C 0.09246 0.76073 0.40549 0.0
O459 O 0.10217 0.76392 0.38773 0.0
C460 C 0.06127 0.76435 0.34219 0.0
O461 O 0.0612 0.75669 0.36446 0.0
O462 O 0.0711 0.77208 0.32926 0.0
O463 O 0.08757 0.76081 0.29509 0.0
O464 O 0.10341 0.78678 0.34155 0.0
C465 C 0.11227 0.78599 0.33151 0.0
O466 O 0.1105 0.77573 0.32049 0.0
O467 O 0.08424 0.7618 0.39142 0.0
C468 C 0.34429 0.08723 0.55301 0.0
C469 C 0.33349 0.08521 0.56684 0.0
C470 C 0.34592 0.08725 0.51684 0.0
C471 C 0.32942 0.07865 0.43225 0.0
H472 H 0.3595 0.10209 0.39362 0.0
C473 C 0.336 0.09278 0.28704 0.0
C474 C 0.3464 0.09472 0.27036 0.0
C475 C 0.33438 0.09038 0.32283 0.0
C476 C 0.35109 0.09539 0.40399 0.0
H477 H 0.31588 0.08151 0.55326 0.0
H478 H 0.31878 0.08182 0.49068 0.0
H479 H 0.35684 0.10026 0.45666 0.0
H480 H 0.36313 0.09541 0.27829 0.0
H481 H 0.3603 0.0913 0.3408 0.0
H482 H 0.32359 0.07407 0.37939 0.0
C483 C 0.32595 0.08314 0.50757 0.0
C484 C 0.34956 0.0943 0.44023 0.0
C485 C 0.32431 0.08303 0.54364 0.0
C486 C 0.35501 0.09395 0.29024 0.0
C487 C 0.35343 0.09167 0.32613 0.0
C488 C 0.33092 0.07981 0.39603 0.0
C489 C 0.33681 0.08533 0.49357 0.0
C490 C 0.33867 0.08599 0.45492 0.0
C491 C 0.34315 0.08998 0.34293 0.0
C492 C 0.34174 0.08827 0.38144 0.0
H493 H 0.35154 0.08889 0.57009 0.0
H494 H 0.35434 0.08878 0.50716 0.0
H495 H 0.32098 0.07197 0.44245 0.0
H496 H 0.32919 0.09331 0.27256 0.0
H497 H 0.32639 0.08921 0.33499 0.0
C498 C 0.93176 0.25071 0.55538 0.0
C499 C 0.92333 0.25124 0.57691 0.0
C500 C 0.93192 0.25263 0.51936 0.0
C501 C 0.91233 0.25186 0.44811 0.0
H502 H 0.94119 0.26673 0.39382 0.0
C503 C 0.91217 0.26177 0.30173 0.0
C504 C 0.91892 0.25892 0.27944 0.0
C505 C 0.91338 0.26168 0.33795 0.0
C506 C 0.93305 0.26247 0.40859 0.0
H507 H 0.90883 0.25477 0.57753 0.0
H508 H 0.9093 0.25842 0.51513 0.0
H509 H 0.94218 0.26536 0.45716 0.0
H510 H 0.93251 0.25407 0.278 0.0
H511 H 0.93463 0.25393 0.34133 0.0
H512 H 0.90321 0.24899 0.39966 0.0
C513 C 0.9156 0.25619 0.52581 0.0
C514 C 0.93361 0.26168 0.44495 0.0
C515 C 0.91538 0.2542 0.56174 0.0
C516 C 0.92717 0.25631 0.29435 0.0
C517 C 0.92842 0.25628 0.33067 0.0
C518 C 0.91178 0.25272 0.41189 0.0
C519 C 0.9237 0.25519 0.50396 0.0
C520 C 0.92324 0.25634 0.46524 0.0
C521 C 0.92141 0.25879 0.35294 0.0
C522 C 0.92212 0.25803 0.39162 0.0
H523 H 0.93799 0.24841 0.56612 0.0
H524 H 0.93823 0.25167 0.50347 0.0
H525 H 0.90414 0.24744 0.4626 0.0
H526 H 0.90577 0.26389 0.29127 0.0
H527 H 0.90798 0.26385 0.35427 0.0
C528 C 0.766 0.68854 0.54183 0.0
C529 C 0.76307 0.67867 0.563 0.0
C530 C 0.7644 0.68732 0.50566 0.0
C531 C 0.74828 0.666 0.43564 0.0
H532 H 0.77483 0.68707 0.3777 0.0
C533 C 0.7503 0.657 0.2889 0.0
C534 C 0.75644 0.66655 0.26593 0.0
C535 C 0.75032 0.65884 0.32485 0.0
C536 C 0.76722 0.68124 0.39328 0.0
H537 H 0.7558 0.65971 0.56272 0.0
H538 H 0.75282 0.65758 0.49962 0.0
H539 H 0.77611 0.68958 0.44073 0.0
H540 H 0.76704 0.68559 0.2628 0.0
H541 H 0.76672 0.68887 0.3253 0.0
H542 H 0.73929 0.65773 0.38837 0.0
C543 C 0.75641 0.66627 0.51107 0.0
C544 C 0.76799 0.68266 0.42954 0.0
C545 C 0.75816 0.6675 0.54722 0.0
C546 C 0.76228 0.67803 0.27974 0.0
C547 C 0.76218 0.67989 0.31571 0.0
C548 C 0.74744 0.66467 0.39933 0.0
C549 C 0.75968 0.67619 0.48981 0.0
C550 C 0.75858 0.67499 0.45117 0.0
C551 C 0.75636 0.67031 0.33891 0.0
C552 C 0.75695 0.67218 0.37757 0.0
H553 H 0.76981 0.69728 0.55306 0.0
H554 H 0.7669 0.69512 0.49002 0.0
H555 H 0.74083 0.66004 0.45159 0.0
H556 H 0.74578 0.64802 0.27928 0.0
H557 H 0.7459 0.6512 0.34165 0.0
C558 C 0.08344 0.32385 0.96153 0.0
C559 C 0.09204 0.33316 0.94132 0.0
C560 C 0.08265 0.32519 0.99748 0.0
C561 C 0.09089 0.34726 0.06772 0.0
H562 H 0.08949 0.3226 0.127 0.0
C563 C 0.10064 0.35412 0.21541 0.0
C564 C 0.09466 0.34448 0.23818 0.0
C565 C 0.0992 0.3526 0.17929 0.0
C566 C 0.08966 0.32949 0.11096 0.0
H567 H 0.10624 0.35134 0.94298 0.0
H568 H 0.10475 0.35371 1.00563 0.0
H569 H 0.08881 0.32029 0.06389 0.0
H570 H 0.08219 0.32572 0.24069 0.0
H571 H 0.07944 0.3231 0.17774 0.0
H572 H 0.09168 0.35646 0.11466 0.0
C573 C 0.09864 0.34536 0.99364 0.0
C574 C 0.0893 0.32816 0.07469 0.0
C575 C 0.09953 0.34399 0.95773 0.0
C576 C 0.08697 0.33333 0.22393 0.0
C577 C 0.08547 0.33182 0.18775 0.0
C578 C 0.09113 0.34854 0.10401 0.0
C579 C 0.09033 0.33591 0.01404 0.0
C580 C 0.09004 0.33709 0.05262 0.0
C581 C 0.09168 0.34141 0.16487 0.0
C582 C 0.09066 0.33974 0.12618 0.0
H583 H 0.07752 0.31538 0.9498 0.0
H584 H 0.07606 0.31779 0.01239 0.0
H585 H 0.09132 0.35423 0.05143 0.0
H586 H 0.10667 0.36284 0.22539 0.0
H587 H 0.10429 0.36018 0.16268 0.0
C588 C 0.65816 0.75114 0.21805 0.0
C589 C 0.66772 0.75557 0.24134 0.0
C590 C 0.65995 0.75116 0.18207 0.0
C591 C 0.68325 0.7656 0.11438 0.0
H592 H 0.65975 0.74116 0.05516 0.0
C593 C 0.68994 0.76429 0.96545 0.0
C594 C 0.68042 0.76257 0.94438 0.0
C595 C 0.68856 0.76255 1.00157 0.0
C596 C 0.66637 0.74808 0.07134 0.0
H597 H 0.68667 0.76316 0.24492 0.0
H598 H 0.68978 0.7629 0.18223 0.0
H599 H 0.65722 0.73959 0.11832 0.0
H600 H 0.66187 0.75729 0.94482 0.0
H601 H 0.65944 0.75413 1.00775 0.0
H602 H 0.69241 0.77401 0.06725 0.0
C603 C 0.68089 0.75967 0.19171 0.0
C604 C 0.66491 0.74721 0.10761 0.0
C605 C 0.67911 0.75973 0.22775 0.0
C606 C 0.66939 0.75871 0.96022 0.0
C607 C 0.66798 0.75685 0.9963 0.0
C608 C 0.68475 0.76639 0.07813 0.0
C609 C 0.67135 0.75551 0.16829 0.0
C610 C 0.67326 0.75604 0.12968 0.0
C611 C 0.67759 0.75892 0.01749 0.0
C612 C 0.67627 0.75771 0.05614 0.0
H613 H 0.64927 0.74791 0.22749 0.0
H614 H 0.65239 0.74806 0.16504 0.0
H615 H 0.68978 0.77268 0.1303 0.0
H616 H 0.69857 0.76727 0.95419 0.0
H617 H 0.69611 0.7641 0.0171 0.0
C618 C 0.25465 0.90775 0.21873 0.0
C619 C 0.26001 0.91774 0.24046 0.0
C620 C 0.25394 0.90893 0.1827 0.0
C621 C 0.26705 0.93013 0.10943 0.0
H622 H 0.23836 0.90777 0.06189 0.0
C623 C 0.26291 0.92682 0.95789 0.0
C624 C 0.25218 0.92478 0.94344 0.0
C625 C 0.26418 0.92639 0.99414 0.0
C626 C 0.24642 0.91415 0.0747 0.0
H627 H 0.26887 0.93684 0.24099 0.0
H628 H 0.26754 0.9389 0.17798 0.0
H629 H 0.23982 0.90644 0.12476 0.0
H630 H 0.23443 0.92086 0.95612 0.0
H631 H 0.23665 0.92021 0.01882 0.0
H632 H 0.27356 0.93794 0.0592 0.0
C633 C 0.26398 0.93014 0.18891 0.0
C634 C 0.24731 0.9133 0.11081 0.0
C635 C 0.26467 0.92896 0.22509 0.0
C636 C 0.24281 0.92242 0.96617 0.0
C637 C 0.24406 0.92197 1.00225 0.0
C638 C 0.26617 0.93096 0.07318 0.0
C639 C 0.25857 0.92013 0.16723 0.0
C640 C 0.25764 0.92126 0.12872 0.0
C641 C 0.25473 0.92386 0.01679 0.0
C642 C 0.25582 0.92299 0.05534 0.0
H643 H 0.251 0.89896 0.2295 0.0
H644 H 0.24988 0.90103 0.16687 0.0
H645 H 0.27518 0.93634 0.12226 0.0
H646 H 0.27032 0.92866 0.94122 0.0
H647 H 0.27249 0.92779 1.00436 0.0
C648 C 0.66261 0.91809 0.72297 0.0
C649 C 0.67096 0.91745 0.74454 0.0
C650 C 0.66484 0.92058 0.68728 0.0
C651 C 0.68904 0.93297 0.62177 0.0
H652 H 0.66451 0.91351 0.55586 0.0
C653 C 0.69948 0.92854 0.47896 0.0
C654 C 0.69169 0.92774 0.45248 0.0
C655 C 0.69662 0.92848 0.51407 0.0
C656 C 0.67141 0.91916 0.57386 0.0
H657 H 0.68834 0.91923 0.74547 0.0
H658 H 0.69221 0.92356 0.68362 0.0
H659 H 0.66018 0.91139 0.61829 0.0
H660 H 0.67477 0.92636 0.44237 0.0
H661 H 0.66975 0.9263 0.50404 0.0
H662 H 0.70033 0.94062 0.57755 0.0
C663 C 0.68396 0.92222 0.6942 0.0
C664 C 0.66892 0.91794 0.6097 0.0
C665 C 0.68171 0.91967 0.72973 0.0
C666 C 0.68097 0.927 0.4621 0.0
C667 C 0.67807 0.92689 0.49743 0.0
C668 C 0.69152 0.9342 0.58603 0.0
C669 C 0.67552 0.92259 0.67239 0.0
C670 C 0.67778 0.92467 0.63415 0.0
C671 C 0.68587 0.92761 0.52387 0.0
C672 C 0.68281 0.92714 0.56161 0.0
H673 H 0.65423 0.91642 0.73349 0.0
H674 H 0.65819 0.92091 0.67133 0.0
H675 H 0.69601 0.93847 0.63978 0.0
H676 H 0.70781 0.92909 0.47264 0.0
H677 H 0.70276 0.92884 0.53359 0.0
C678 C 0.08233 0.75578 0.46403 0.0
C679 C 0.09165 0.75711 0.4426 0.0
C680 C 0.0822 0.75339 0.49973 0.0
C681 C 0.09537 0.7426 0.56573 0.0
H682 H 0.08848 0.76101 0.63091 0.0
C683 C 0.11011 0.74825 0.70881 0.0
C684 C 0.10273 0.74851 0.73503 0.0
C685 C 0.1073 0.74804 0.67362 0.0
C686 C 0.09024 0.75565 0.61312 0.0
H687 H 0.10797 0.75665 0.44188 0.0
H688 H 0.10775 0.7525 0.5038 0.0
H689 H 0.08612 0.76273 0.56839 0.0
H690 H 0.08649 0.74867 0.74461 0.0
H691 H 0.08153 0.74827 0.6828 0.0
H692 H 0.09967 0.73565 0.61027 0.0
C693 C 0.10048 0.75322 0.49309 0.0
C694 C 0.08889 0.75664 0.57723 0.0
C695 C 0.10065 0.75567 0.45753 0.0
C696 C 0.09237 0.74847 0.72509 0.0
C697 C 0.08956 0.7483 0.68967 0.0
C698 C 0.0967 0.7416 0.60153 0.0
C699 C 0.09134 0.75219 0.51477 0.0
C700 C 0.09166 0.7503 0.55304 0.0
C701 C 0.09702 0.7481 0.66349 0.0
C702 C 0.09439 0.74829 0.62569 0.0
H703 H 0.07525 0.75684 0.45342 0.0
H704 H 0.07497 0.75253 0.51559 0.0
H705 H 0.09735 0.73741 0.54792 0.0
H706 H 0.11818 0.7483 0.7154 0.0
H707 H 0.11336 0.7481 0.65429 0.0
C708 C 0.25344 0.33338 0.45304 0.0
C709 C 0.24612 0.32123 0.4471 0.0
C710 C 0.25683 0.33772 0.48702 0.0
C711 C 0.25868 0.32859 0.5778 0.0
H712 H 0.25702 0.35635 0.60338 0.0
C713 C 0.25868 0.34251 0.72166 0.0
C714 C 0.26453 0.35464 0.72926 0.0
C715 C 0.25751 0.33859 0.68709 0.0
C716 C 0.25771 0.34869 0.59664 0.0
H717 H 0.23691 0.3041 0.47228 0.0
H718 H 0.24274 0.31163 0.53116 0.0
H719 H 0.25333 0.34945 0.54331 0.0
H720 H 0.27416 0.37214 0.70645 0.0
H721 H 0.27228 0.36532 0.64657 0.0
H722 H 0.26293 0.32776 0.63131 0.0
C723 C 0.24596 0.31783 0.50968 0.0
C724 C 0.2556 0.34473 0.56209 0.0
C725 C 0.24255 0.31351 0.47581 0.0
C726 C 0.2695 0.36273 0.7016 0.0
C727 C 0.26836 0.35882 0.66715 0.0
C728 C 0.26081 0.33255 0.61239 0.0
C729 C 0.25303 0.33 0.51582 0.0
C730 C 0.25597 0.33458 0.55223 0.0
C731 C 0.26218 0.3467 0.65933 0.0
C732 C 0.26028 0.34262 0.62232 0.0
H733 H 0.25636 0.33958 0.43153 0.0
H734 H 0.2624 0.34713 0.49075 0.0
H735 H 0.25921 0.32083 0.57106 0.0
H736 H 0.25472 0.33605 0.74232 0.0
H737 H 0.25261 0.3292 0.68206 0.0
C738 C 0.91717 0.66596 0.78836 0.0
C739 C 0.91143 0.65371 0.78288 0.0
C740 C 0.92041 0.67062 0.82205 0.0
C741 C 0.92477 0.66309 0.91259 0.0
H742 H 0.91859 0.68813 0.93836 0.0
C743 C 0.92347 0.67631 0.05628 0.0
C744 C 0.92823 0.68837 0.06362 0.0
C745 C 0.92243 0.67239 0.02176 0.0
C746 C 0.92053 0.68124 0.93153 0.0
H747 H 0.90489 0.63679 0.80854 0.0
H748 H 0.91039 0.64486 0.86697 0.0
H749 H 0.91528 0.68096 0.87855 0.0
H750 H 0.93591 0.70579 0.04037 0.0
H751 H 0.93418 0.69898 0.98048 0.0
H752 H 0.92983 0.66328 0.96581 0.0
C753 C 0.91253 0.65091 0.84533 0.0
C754 C 0.91865 0.67714 0.89714 0.0
C755 C 0.90931 0.64627 0.81173 0.0
C756 C 0.93214 0.69642 0.03572 0.0
C757 C 0.93108 0.69251 1.00129 0.0
C758 C 0.92662 0.66718 0.94702 0.0
C759 C 0.91799 0.66314 0.85104 0.0
C760 C 0.92066 0.66795 0.88724 0.0
C761 C 0.92611 0.68044 0.99381 0.0
C762 C 0.92446 0.67627 0.95698 0.0
H763 H 0.91896 0.67194 0.76672 0.0
H764 H 0.92475 0.68009 0.82541 0.0
H765 H 0.92658 0.65613 0.90581 0.0
H766 H 0.92036 0.66986 0.07713 0.0
H767 H 0.91846 0.66302 0.01694 0.0
C768 C 0.34745 0.24831 0.06517 0.0
C769 C 0.33737 0.24783 0.07986 0.0
C770 C 0.3502 0.25111 0.02994 0.0
C771 C 0.3365 0.2502 0.94529 0.0
H772 H 0.36896 0.26907 0.91487 0.0
C773 C 0.34995 0.25905 0.7983 0.0
C774 C 0.35987 0.25816 0.78895 0.0
C775 C 0.34699 0.25901 0.83358 0.0
C776 C 0.35985 0.26371 0.92286 0.0
H777 H 0.32243 0.25019 0.06896 0.0
H778 H 0.32727 0.25508 1.00732 0.0
H779 H 0.36437 0.26703 0.97692 0.0
H780 H 0.37442 0.25653 0.80956 0.0
H781 H 0.36925 0.25634 0.87029 0.0
H782 H 0.33202 0.24667 0.89113 0.0
C783 C 0.33299 0.25322 0.02314 0.0
C784 C 0.35721 0.26255 0.95849 0.0
C785 C 0.33028 0.25051 0.05855 0.0
C786 C 0.36675 0.25728 0.81564 0.0
C787 C 0.36382 0.25726 0.85066 0.0
C788 C 0.33914 0.25134 0.90954 0.0
C789 C 0.34293 0.25343 0.00831 0.0
C790 C 0.34554 0.2556 0.97024 0.0
C791 C 0.35393 0.25815 0.86022 0.0
C792 C 0.35089 0.2579 0.8979 0.0
H793 H 0.3531 0.24629 0.08073 0.0
H794 H 0.35785 0.25105 0.01938 0.0
H795 H 0.32742 0.2447 0.95341 0.0
H796 H 0.34447 0.25975 0.77842 0.0
H797 H 0.33935 0.25977 0.83999 0.0
C798 C 0.7508 0.08993 0.78452 0.0
C799 C 0.75952 0.09033 0.76218 0.0
C800 C 0.75065 0.08727 0.81997 0.0
C801 C 0.76214 0.07437 0.88445 0.0
H802 H 0.75899 0.09519 0.94995 0.0
C803 C 0.77754 0.07881 0.02695 0.0
C804 C 0.77121 0.08069 0.05335 0.0
C805 C 0.77459 0.07865 0.99188 0.0
C806 C 0.75968 0.08915 0.93213 0.0
H807 H 0.77465 0.08779 0.75946 0.0
H808 H 0.77435 0.08312 0.8211 0.0
H809 H 0.75644 0.09706 0.88774 0.0
H810 H 0.75661 0.08366 0.06348 0.0
H811 H 0.75136 0.08327 1.00207 0.0
H812 H 0.76552 0.06655 0.92871 0.0
C813 C 0.7676 0.08483 0.81124 0.0
C814 C 0.75823 0.09023 0.8964 0.0
C815 C 0.7678 0.08756 0.77587 0.0
C816 C 0.76169 0.08221 0.0438 0.0
C817 C 0.75872 0.08205 0.00858 0.0
C818 C 0.76355 0.07326 0.92016 0.0
C819 C 0.75916 0.08487 0.83388 0.0
C820 C 0.75965 0.08299 0.87206 0.0
C821 C 0.7652 0.08035 0.98213 0.0
C822 C 0.76256 0.08078 0.94445 0.0
H823 H 0.74428 0.09201 0.77489 0.0
H824 H 0.74393 0.08723 0.83659 0.0
H825 H 0.7631 0.06852 0.86648 0.0
H826 H 0.78495 0.07763 0.03325 0.0
H827 H 0.77991 0.07751 0.97234 0.0
C828 C 0.9899 0.41788 0.87677 0.0
C829 C 0.99827 0.41758 0.89903 0.0
C830 C 0.99119 0.41801 0.84053 0.0
C831 C 0.01357 0.42476 0.77115 0.0
H832 H 0.98593 0.40927 0.71201 0.0
C833 C 0.0169 0.42409 0.62018 0.0
C834 C 0.00944 0.42702 0.6017 0.0
C835 C 0.01536 0.42176 0.65609 0.0
C836 C 0.99374 0.41369 0.72815 0.0
H837 H 0.01451 0.41697 0.90033 0.0
H838 H 0.01665 0.41696 0.83704 0.0
H839 H 0.98368 0.40731 0.77515 0.0
H840 H 0.99425 0.42938 0.60644 0.0
H841 H 0.9915 0.42522 0.66876 0.0
H842 H 0.0236 0.43111 0.72395 0.0
C843 C 0.00917 0.41732 0.84765 0.0
C844 C 0.99245 0.4126 0.76444 0.0
C845 C 0.00791 0.41725 0.88401 0.0
C846 C 1.00016 0.42716 0.61978 0.0
C847 C 0.99855 0.42472 0.65555 0.0
C848 C 0.01486 0.42577 0.73481 0.0
C849 C 1.00085 0.41777 0.82536 0.0
C850 C 1.00233 0.41827 0.78654 0.0
C851 C 1.00623 0.42217 0.6743 0.0
C852 C 1.00494 0.42038 0.71285 0.0
H853 H 0.9824 0.41821 0.88731 0.0
H854 H 0.98471 0.41859 0.82443 0.0
H855 H 0.02138 0.4294 0.78717 0.0
H856 H 0.02415 0.42392 0.60713 0.0
H857 H 0.02136 0.41971 0.66966 0.0
C858 C 0.58258 0.59432 0.62741 0.0
C859 C 0.58168 0.58497 0.607 0.0
C860 C 0.58472 0.59476 0.66332 0.0
C861 C 0.5957 0.58299 0.73278 0.0
H862 H 0.57635 0.58998 0.79373 0.0
C863 C 0.59231 0.57348 0.88073 0.0
C864 C 0.59113 0.58119 0.90376 0.0
C865 C 0.59201 0.5748 0.84461 0.0
C866 C 0.58198 0.5882 0.77718 0.0
H867 H 0.58268 0.56894 0.6084 0.0
H868 H 0.58646 0.56974 0.67089 0.0
H869 H 0.57455 0.59088 0.73071 0.0
H870 H 0.58891 0.5965 0.9066 0.0
H871 H 0.58859 0.59895 0.84355 0.0
H872 H 0.60315 0.58031 0.77915 0.0
C873 C 0.58555 0.57676 0.65911 0.0
C874 C 0.58093 0.5887 0.74096 0.0
C875 C 0.58333 0.57628 0.62325 0.0
C876 C 0.5898 0.59038 0.88967 0.0
C877 C 0.58954 0.59173 0.85345 0.0
C878 C 0.59681 0.58256 0.769 0.0
C879 C 0.5861 0.58591 0.67972 0.0
C880 C 0.58769 0.58598 0.71828 0.0
C881 C 0.59057 0.58391 0.83039 0.0
C882 C 0.58987 0.58503 0.79175 0.0
H883 H 0.58136 0.60118 0.61583 0.0
H884 H 0.58523 0.60201 0.67831 0.0
H885 H 0.60118 0.58103 0.71611 0.0
H886 H 0.59329 0.56626 0.89056 0.0
H887 H 0.59263 0.56848 0.82785 0.0
C888 C 0.42211 0.00553 0.88023 0.0
C889 C 0.43127 0.01585 0.89534 0.0
C890 C 0.42106 1.00428 0.84387 0.0
C891 C 0.43892 0.01505 0.76392 0.0
H892 H 0.40894 1.00227 0.7161 0.0
C893 C 0.43686 0.01367 0.61396 0.0
C894 C 0.42763 1.00361 0.59816 0.0
C895 C 0.43669 0.01561 0.64979 0.0
C896 C 0.41738 0.00573 0.72902 0.0
H897 H 0.44635 0.03303 0.88384 0.0
H898 H 0.44454 0.03081 0.82077 0.0
H899 H 0.40972 1.0045 0.77948 0.0
H900 H 0.41078 0.98785 0.60761 0.0
H901 H 0.4106 0.99107 0.67013 0.0
H902 H 0.4466 0.01604 0.71399 0.0
C903 C 0.43822 0.02365 0.83698 0.0
C904 C 0.41781 0.00703 0.76539 0.0
C905 C 0.43921 0.02494 0.87321 0.0
C906 C 0.41802 0.99573 0.61888 0.0
C907 C 0.4179 0.99761 0.65482 0.0
C908 C 0.43848 0.01366 0.72771 0.0
C909 C 0.42921 0.01327 0.82184 0.0
C910 C 0.42861 0.01175 0.78323 0.0
C911 C 0.42735 0.00747 0.67092 0.0
C912 C 0.42772 0.00904 0.70964 0.0
H913 H 0.41583 0.99836 0.89647 0.0
H914 H 0.41406 0.99615 0.83302 0.0
H915 H 0.44735 0.01852 0.77691 0.0
H916 H 0.44436 0.01998 0.59875 0.0
H917 H 0.44399 0.02347 0.66096 0.0
C918 C 0.60262 0.02528 0.38491 0.0
C919 C 0.59598 0.01817 0.41309 0.0
C920 C 0.60087 0.02068 0.35114 0.0
C921 C 0.57832 0.99682 0.29689 0.0
H922 H 0.60413 0.00633 0.23147 0.0
C923 C 0.5705 0.97738 0.15819 0.0
C924 C 0.57651 0.98518 0.13058 0.0
C925 C 0.57346 0.98093 0.19284 0.0
C926 C 0.59681 1.00367 0.24931 0.0
H927 H 0.58252 1.0005 0.4279 0.0
H928 H 0.57952 0.99243 0.36892 0.0
H929 H 0.60829 0.01312 0.29181 0.0
H930 H 0.59057 1.00281 0.1179 0.0
H931 H 0.59567 0.00908 0.17848 0.0
H932 H 0.56683 0.98751 0.25443 0.0
C933 C 0.58599 1.00163 0.37294 0.0
C934 C 0.5992 0.00755 0.28395 0.0
C935 C 0.58777 0.00623 0.40681 0.0
C936 C 0.58577 0.99656 0.13851 0.0
C937 C 0.58872 1.00014 0.17328 0.0
C938 C 0.57594 0.99295 0.26229 0.0
C939 C 0.59241 0.00884 0.34459 0.0
C940 C 0.58997 1.00423 0.30815 0.0
C941 C 0.5825 0.99241 0.20091 0.0
C942 C 0.58515 0.99636 0.23797 0.0
H943 H 0.60902 0.03451 0.38874 0.0
H944 H 0.60588 0.02653 0.32997 0.0
H945 H 0.57098 0.99426 0.31458 0.0
H946 H 0.56338 0.96851 0.1531 0.0
H947 H 0.56863 0.97466 0.21335 0.0
C948 C 0.9978 0.58542 0.40572 0.0
C949 C 1.00517 0.58318 0.42722 0.0
C950 C 1.00056 0.58827 0.37043 0.0
C951 C 0.02494 0.59863 0.30598 0.0
H952 H 0.99991 0.58143 0.23906 0.0
C953 C 0.03468 0.59379 0.16262 0.0
C954 C 0.02719 0.59374 0.13629 0.0
C955 C 0.03194 0.59388 0.19779 0.0
C956 C 0.00698 0.58647 0.25731 0.0
H957 H 0.02144 0.58263 0.42864 0.0
H958 H 0.02625 0.58764 0.36739 0.0
H959 H 0.99537 0.57941 0.30127 0.0
H960 H 0.01098 0.59391 0.12646 0.0
H961 H 1.00623 0.59418 0.18812 0.0
H962 H 0.03657 0.60558 0.26219 0.0
C963 C 0.01836 0.58723 0.37775 0.0
C964 C 1.00437 0.58531 0.29304 0.0
C965 C 0.01557 0.5843 0.4129 0.0
C966 C 0.01693 0.59393 0.14608 0.0
C967 C 0.01418 0.59402 0.18143 0.0
C968 C 0.02753 0.59983 0.27031 0.0
C969 C 0.01079 0.58905 0.3559 0.0
C970 C 0.01336 0.5912 0.31785 0.0
C971 C 0.02165 0.59395 0.20776 0.0
C972 C 0.01864 0.59358 0.2455 0.0
H973 H 0.98971 0.58463 0.41586 0.0
H974 H 0.99461 0.58975 0.35442 0.0
H975 H 0.03204 0.60346 0.32433 0.0
H976 H 0.04264 0.59361 0.15615 0.0
H977 H 0.0378 0.59361 0.2172 0.0
C978 C 0.42421 0.41518 0.13515 0.0
C979 C 0.41947 0.42203 0.12268 0.0
C980 C 0.42445 0.41319 0.17096 0.0
C981 C 0.42371 0.42578 0.25686 0.0
H982 H 0.4192 0.39604 0.29199 0.0
C983 C 0.4259 0.41753 0.40475 0.0
C984 C 0.43252 0.41214 0.41362 0.0
C985 C 0.42285 0.41793 0.3699 0.0
C986 C 0.42055 0.40442 0.28261 0.0
H987 H 0.41094 0.43188 0.13825 0.0
H988 H 0.41121 0.42828 0.20051 0.0
H989 H 0.41662 0.39819 0.22998 0.0
H990 H 0.4408 0.40263 0.39283 0.0
H991 H 0.43553 0.40335 0.33252 0.0
H992 H 0.42779 0.43205 0.30943 0.0
C993 C 0.41494 0.42461 0.18267 0.0
C994 C 0.41908 0.40567 0.24699 0.0
C995 C 0.41471 0.4266 0.14688 0.0
C996 C 0.4357 0.40687 0.38701 0.0
C997 C 0.43261 0.40721 0.35234 0.0
C998 C 0.42516 0.42453 0.29249 0.0
C999 C 0.41993 0.41799 0.19526 0.0
C1000 C 0.42079 0.41641 0.23353 0.0
C1001 C 0.42627 0.41287 0.3432 0.0
C1002 C 0.42375 0.41388 0.30578 0.0
H1003 H 0.42799 0.41155 0.11733 0.0
H1004 H 0.42849 0.40817 0.17964 0.0
H1005 H 0.42526 0.43424 0.24745 0.0
H1006 H 0.42331 0.42169 0.42457 0.0
H1007 H 0.41785 0.42226 0.36383 0.0
C1008 C 0.32034 0.19676 0.16679 0.0
C1009 C 0.32821 0.20715 0.18455 0.0
C1010 C 0.32284 0.18756 0.1631 0.0
C1011 C 0.34785 0.18177 0.16532 0.0
H1012 H 0.32353 0.14913 0.1775 0.0
C1013 C 0.35846 0.14376 0.1745 0.0
C1014 C 0.35056 0.13303 0.15836 0.0
C1015 C 0.35577 0.15286 0.17699 0.0
C1016 C 0.33041 0.15819 0.17359 0.0
H1017 H 0.34477 0.21588 0.21293 0.0
H1018 H 0.349 0.19993 0.20676 0.0
H1019 H 0.3185 0.16468 0.18261 0.0
H1020 H 0.33377 0.12358 0.13148 0.0
H1021 H 0.32923 0.1394 0.13533 0.0
H1022 H 0.35977 0.17532 0.15626 0.0
C1023 C 0.34101 0.19891 0.19514 0.0
C1024 C 0.32751 0.16711 0.17651 0.0
C1025 C 0.33852 0.20805 0.19889 0.0
C1026 C 0.34004 0.13169 0.14432 0.0
C1027 C 0.33738 0.14075 0.14674 0.0
C1028 C 0.35075 0.17286 0.16233 0.0
C1029 C 0.33328 0.18858 0.17696 0.0
C1030 C 0.33621 0.17902 0.1726 0.0
C1031 C 0.34514 0.15143 0.16335 0.0
C1032 C 0.34208 0.16095 0.16653 0.0
H1033 H 0.31235 0.1958 0.15538 0.0
H1034 H 0.31672 0.17974 0.14877 0.0
H1035 H 0.35475 0.19084 0.16158 0.0
H1036 H 0.36662 0.14508 0.18568 0.0
H1037 H 0.36192 0.16092 0.19025 0.0
C1038 C 0.81073 0.12734 0.15942 0.0
C1039 C 0.80951 0.12058 0.18932 0.0
C1040 C 0.81862 0.13952 0.159 0.0
C1041 C 0.83492 0.16489 0.21922 0.0
H1042 H 0.8525 0.18101 0.13612 0.0
C1043 C 0.87413 0.21247 0.2218 0.0
C1044 C 0.87537 0.22018 0.19449 0.0
C1045 C 0.86548 0.20056 0.22056 0.0
C1046 C 0.84753 0.17666 0.1594 0.0
H1047 H 0.81598 0.12133 0.2418 0.0
H1048 H 0.82993 0.14245 0.24079 0.0
H1049 H 0.83918 0.1597 0.13484 0.0
H1050 H 0.86832 0.2214 0.14457 0.0
H1051 H 0.85314 0.20046 0.14229 0.0
H1052 H 0.84344 0.18182 0.24393 0.0
C1053 C 0.82457 0.13841 0.2179 0.0
C1054 C 0.83989 0.16442 0.15871 0.0
C1055 C 0.81664 0.12625 0.21839 0.0
C1056 C 0.86757 0.21571 0.16609 0.0
C1057 C 0.85894 0.20371 0.16466 0.0
C1058 C 0.8426 0.17709 0.21995 0.0
C1059 C 0.82554 0.14526 0.18842 0.0
C1060 C 0.83355 0.15835 0.18873 0.0
C1061 C 0.85786 0.19598 0.19184 0.0
C1062 C 0.84908 0.18312 0.19016 0.0
H1063 H 0.80534 0.12328 0.13659 0.0
H1064 H 0.81901 0.14447 0.13594 0.0
H1065 H 0.82999 0.16061 0.24261 0.0
H1066 H 0.87998 0.2156 0.2441 0.0
H1067 H 0.86499 0.19486 0.24175 0.0
C1068 C 0.88331 0.6844 0.18717 0.0
C1069 C 0.89028 0.69152 0.15943 0.0
C1070 C 0.87128 0.68073 0.18897 0.0
C1071 C 0.84913 0.68817 0.16058 0.0
H1072 H 0.82664 0.65481 0.1711 0.0
C1073 C 0.79977 0.67053 0.13933 0.0
C1074 C 0.79151 0.66117 0.15998 0.0
C1075 C 0.81168 0.67385 0.14012 0.0
C1076 C 0.83276 0.66417 0.16873 0.0
H1077 H 0.89014 0.70065 0.11242 0.0
H1078 H 0.8692 0.69451 0.11616 0.0
H1079 H 0.84776 0.66172 0.17223 0.0
H1080 H 0.78922 0.64778 0.1973 0.0
H1081 H 0.81019 0.65381 0.19972 0.0
H1082 H 0.83432 0.69078 0.158 0.0
C1083 C 0.87304 0.69168 0.13629 0.0
C1084 C 0.84488 0.66812 0.16925 0.0
C1085 C 0.88503 0.69518 0.13413 0.0
C1086 C 0.79539 0.655 0.18099 0.0
C1087 C 0.80742 0.65846 0.18226 0.0
C1088 C 0.83705 0.68427 0.16062 0.0
C1089 C 0.86601 0.68428 0.16345 0.0
C1090 C 0.85318 0.68014 0.16471 0.0
C1091 C 0.81576 0.66805 0.16213 0.0
C1092 C 0.82867 0.67219 0.16409 0.0
H1093 H 0.88706 0.68136 0.207 0.0
H1094 H 0.86609 0.67511 0.21033 0.0
H1095 H 0.85533 0.6975 0.15756 0.0
H1096 H 0.79704 0.67536 0.12245 0.0
H1097 H 0.81769 0.681 0.12335 0.0
C1098 C 0.14534 0.35377 0.33771 0.0
C1099 C 0.13339 0.34529 0.34255 0.0
C1100 C 0.15389 0.35033 0.3352 0.0
C1101 C 0.15687 0.32421 0.31484 0.0
H1102 H 0.18732 0.34192 0.35973 0.0
C1103 C 0.19456 0.31397 0.29184 0.0
C1104 C 0.20158 0.31477 0.3206 0.0
C1105 C 0.18622 0.31764 0.29454 0.0
C1106 C 0.17882 0.33682 0.34724 0.0
H1107 H 0.12115 0.32657 0.34936 0.0
H1108 H 0.13595 0.32067 0.34538 0.0
H1109 H 0.17304 0.34866 0.36467 0.0
H1110 H 0.20508 0.31981 0.37506 0.0
H1111 H 0.19043 0.32604 0.37987 0.0
H1112 H 0.16251 0.31224 0.29797 0.0
C1113 C 0.13874 0.32994 0.34284 0.0
C1114 C 0.17069 0.34078 0.34971 0.0
C1115 C 0.13024 0.33336 0.34536 0.0
C1116 C 0.19984 0.31908 0.35235 0.0
C1117 C 0.19151 0.32276 0.35503 0.0
C1118 C 0.16499 0.32027 0.31231 0.0
C1119 C 0.15066 0.33834 0.33738 0.0
C1120 C 0.15957 0.33447 0.33375 0.0
C1121 C 0.18468 0.32221 0.32606 0.0
C1122 C 0.17606 0.32648 0.32861 0.0
H1123 H 0.14806 0.36303 0.33541 0.0
H1124 H 0.16299 0.35703 0.3308 0.0
H1125 H 0.14845 0.31921 0.30181 0.0
H1126 H 0.19569 0.31076 0.26693 0.0
H1127 H 0.18119 0.31718 0.2716 0.0
C1128 C 0.65415 0.79501 0.34046 0.0
C1129 C 0.66315 0.79217 0.34275 0.0
C1130 C 0.65691 0.80684 0.33899 0.0
C1131 C 0.68127 0.83735 0.35751 0.0
H1132 H 0.6643 0.84663 0.29424 0.0
C1133 C 0.68968 0.88522 0.35179 0.0
C1134 C 0.68929 0.88976 0.31888 0.0
C1135 C 0.68636 0.87332 0.35573 0.0
C1136 C 0.6692 0.84421 0.31186 0.0
H1137 H 0.68213 0.79957 0.3452 0.0
H1138 H 0.68688 0.81997 0.34215 0.0
H1139 H 0.65857 0.82588 0.29935 0.0
H1140 H 0.68543 0.88536 0.26414 0.0
H1141 H 0.67992 0.86474 0.27087 0.0
H1142 H 0.69214 0.85569 0.36922 0.0
C1143 C 0.67769 0.81315 0.34212 0.0
C1144 C 0.66579 0.83227 0.31516 0.0
C1145 C 0.67494 0.8014 0.34362 0.0
C1146 C 0.68579 0.88217 0.28991 0.0
C1147 C 0.68251 0.87029 0.29383 0.0
C1148 C 0.68469 0.84928 0.35417 0.0
C1149 C 0.66874 0.81606 0.33983 0.0
C1150 C 0.67186 0.82869 0.33777 0.0
C1151 C 0.68261 0.86566 0.32685 0.0
C1152 C 0.67877 0.8529 0.33108 0.0
H1153 H 0.64498 0.78812 0.33979 0.0
H1154 H 0.64978 0.80876 0.33753 0.0
H1155 H 0.68605 0.83492 0.37557 0.0
H1156 H 0.69226 0.89079 0.37471 0.0
H1157 H 0.68645 0.87007 0.38162 0.0
C1158 C 0.21009 0.87453 0.35627 0.0
C1159 C 0.2198 0.87304 0.349 0.0
C1160 C 0.19862 0.86495 0.35559 0.0
C1161 C 0.18063 0.83539 0.31804 0.0
H1162 H 0.15785 0.83227 0.38809 0.0
C1163 C 0.13403 0.79454 0.32458 0.0
C1164 C 0.12449 0.79614 0.33337 0.0
C1165 C 0.14562 0.80387 0.32687 0.0
C1166 C 0.16405 0.83309 0.36804 0.0
H1167 H 0.22502 0.86021 0.33566 0.0
H1168 H 0.20486 0.84338 0.33438 0.0
H1169 H 0.17822 0.84831 0.39233 0.0
H1170 H 0.1197 0.80888 0.35125 0.0
H1171 H 0.13999 0.82529 0.35468 0.0
H1172 H 0.16647 0.82029 0.29344 0.0
C1173 C 0.2062 0.85204 0.34045 0.0
C1174 C 0.17574 0.84226 0.37056 0.0
C1175 C 0.21774 0.86166 0.34138 0.0
C1176 C 0.12684 0.80735 0.34435 0.0
C1177 C 0.13848 0.81673 0.34652 0.0
C1178 C 0.16892 0.82625 0.31542 0.0
C1179 C 0.1965 0.85359 0.34746 0.0
C1180 C 0.18417 0.84354 0.34555 0.0
C1181 C 0.14803 0.81509 0.33784 0.0
C1182 C 0.16047 0.82497 0.34038 0.0
H1183 H 0.21133 0.88316 0.36228 0.0
H1184 H 0.19137 0.86649 0.36068 0.0
H1185 H 0.18685 0.83623 0.29803 0.0
H1186 H 0.13258 0.78602 0.31621 0.0
H1187 H 0.15271 0.80219 0.32056 0.0
C1188 C 0.67643 0.87924 0.86351 0.0
C1189 C 0.66552 0.87791 0.85314 0.0
C1190 C 0.67864 0.86989 0.8608 0.0
C1191 C 0.66399 0.83745 0.85355 0.0
H1192 H 0.69475 0.8439 0.82133 0.0
C1193 C 0.67381 0.80007 0.82291 0.0
C1194 C 0.68479 0.80155 0.83309 0.0
C1195 C 0.67156 0.80942 0.8249 0.0
C1196 C 0.68616 0.84196 0.83078 0.0
H1197 H 0.64834 0.86558 0.83202 0.0
H1198 H 0.65223 0.84918 0.82716 0.0
H1199 H 0.69042 0.85994 0.82536 0.0
H1200 H 0.70206 0.81413 0.8531 0.0
H1201 H 0.6981 0.83048 0.85688 0.0
H1202 H 0.65974 0.81948 0.85909 0.0
C1203 C 0.65904 0.8575 0.83765 0.0
C1204 C 0.68366 0.85116 0.83305 0.0
C1205 C 0.65682 0.8669 0.8403 0.0
C1206 C 0.69353 0.81269 0.84496 0.0
C1207 C 0.69126 0.82208 0.84699 0.0
C1208 C 0.66649 0.82825 0.85132 0.0
C1209 C 0.67002 0.85891 0.84767 0.0
C1210 C 0.67255 0.84903 0.84453 0.0
C1211 C 0.6802 0.82053 0.8372 0.0
C1212 C 0.67761 0.83038 0.83989 0.0
H1213 H 0.68334 0.88756 0.87367 0.0
H1214 H 0.68711 0.87125 0.86935 0.0
H1215 H 0.65541 0.83551 0.863 0.0
H1216 H 0.66688 0.79165 0.81343 0.0
H1217 H 0.66303 0.80794 0.81651 0.0
C1218 C 0.21117 0.87539 0.85079 0.0
C1219 C 0.20882 0.88465 0.84563 0.0
C1220 C 0.20206 0.86367 0.85148 0.0
C1221 C 0.17007 0.84493 0.866 0.0
H1222 H 0.17526 0.8209 0.8244 0.0
C1223 C 0.13962 0.79543 0.89538 0.0
C1224 C 0.13671 0.78734 0.86784 0.0
C1225 C 0.14821 0.80728 0.89107 0.0
C1226 C 0.1736 0.82748 0.83587 0.0
H1227 H 0.19494 0.8888 0.83717 0.0
H1228 H 0.1789 0.86821 0.83823 0.0
H1229 H 0.19021 0.84161 0.81841 0.0
H1230 H 0.14074 0.78542 0.81422 0.0
H1231 H 0.15571 0.80613 0.80662 0.0
H1232 H 0.15338 0.83078 0.88314 0.0
C1233 C 0.18787 0.87008 0.84198 0.0
C1234 C 0.18224 0.83937 0.83277 0.0
C1235 C 0.19705 0.88188 0.84124 0.0
C1236 C 0.1428 0.79138 0.83605 0.0
C1237 C 0.1514 0.80327 0.83171 0.0
C1238 C 0.16142 0.83302 0.86912 0.0
C1239 C 0.19028 0.86083 0.84699 0.0
C1240 C 0.18066 0.84825 0.84818 0.0
C1241 C 0.15413 0.8114 0.85907 0.0
C1242 C 0.16312 0.82412 0.85445 0.0
H1243 H 0.22011 0.87715 0.85444 0.0
H1244 H 0.20425 0.85684 0.85609 0.0
H1245 H 0.16858 0.8515 0.87837 0.0
H1246 H 0.13515 0.79263 0.92029 0.0
H1247 H 0.15024 0.81322 0.91295 0.0
C1248 C 0.13107 0.32209 0.84524 0.0
C1249 C 0.12783 0.33045 0.83573 0.0
C1250 C 0.14302 0.32541 0.84869 0.0
C1251 C 0.17241 0.35165 0.86353 0.0
H1252 H 0.18453 0.33245 0.82495 0.0
C1253 C 0.22039 0.36181 0.88647 0.0
C1254 C 0.22631 0.36039 0.8579 0.0
C1255 C 0.20837 0.35818 0.88437 0.0
C1256 C 0.18129 0.33794 0.83571 0.0
H1257 H 0.13464 0.34885 0.82215 0.0
H1258 H 0.15526 0.35455 0.82809 0.0
H1259 H 0.1635 0.32579 0.82042 0.0
H1260 H 0.22422 0.35426 0.8044 0.0
H1261 H 0.20333 0.34805 0.80072 0.0
H1262 H 0.19019 0.3639 0.87837 0.0
C1263 C 0.14864 0.34547 0.83325 0.0
C1264 C 0.16922 0.33405 0.83347 0.0
C1265 C 0.13677 0.34215 0.8296 0.0
C1266 C 0.21996 0.35549 0.82694 0.0
C1267 C 0.20794 0.35182 0.82491 0.0
C1268 C 0.18446 0.35551 0.86596 0.0
C1269 C 0.15193 0.33718 0.843 0.0
C1270 C 0.16465 0.34092 0.84703 0.0
C1271 C 0.20196 0.353 0.85371 0.0
C1272 C 0.18908 0.34875 0.85182 0.0
H1273 H 0.12441 0.31301 0.85017 0.0
H1274 H 0.14527 0.31882 0.85639 0.0
H1275 H 0.16916 0.3571 0.8746 0.0
H1276 H 0.22496 0.36549 0.91077 0.0
H1277 H 0.20402 0.35915 0.90712 0.0
C1278 C 0.81002 0.68649 0.72709 0.0
C1279 C 0.80558 0.68824 0.6957 0.0
C1280 C 0.81774 0.68201 0.72696 0.0
C1281 C 0.83759 0.67659 0.66999 0.0
H1282 H 0.83347 0.6542 0.74256 0.0
C1283 C 0.86347 0.65133 0.67034 0.0
C1284 C 0.86865 0.65121 0.70236 0.0
C1285 C 0.8552 0.65512 0.66858 0.0
C1286 C 0.83478 0.66049 0.72223 0.0
H1287 H 0.80601 0.6869 0.63942 0.0
H1288 H 0.81934 0.67895 0.63918 0.0
H1289 H 0.82067 0.66272 0.74119 0.0
H1290 H 0.8688 0.65455 0.7578 0.0
H1291 H 0.85434 0.66104 0.75477 0.0
H1292 H 0.8517 0.67426 0.65101 0.0
C1293 C 0.81699 0.68117 0.66395 0.0
C1294 C 0.82747 0.66543 0.72151 0.0
C1295 C 0.80931 0.68572 0.66408 0.0
C1296 C 0.865 0.65452 0.73271 0.0
C1297 C 0.85667 0.65821 0.731 0.0
C1298 C 0.84487 0.67158 0.67062 0.0
C1299 C 0.82117 0.67909 0.69544 0.0
C1300 C 0.82884 0.67365 0.69559 0.0
C1301 C 0.85182 0.65876 0.69884 0.0
C1302 C 0.84362 0.66355 0.69693 0.0
H1303 H 0.8074 0.6884 0.75193 0.0
H1304 H 0.82097 0.6808 0.75169 0.0
H1305 H 0.83902 0.68297 0.64987 0.0
H1306 H 0.86611 0.64887 0.64643 0.0
H1307 H 0.85152 0.65531 0.64347 0.0
C1308 C 0.35786 0.21657 0.67711 0.0
C1309 C 0.35111 0.22044 0.65884 0.0
C1310 C 0.35477 0.20464 0.67637 0.0
C1311 C 0.33844 0.17753 0.62412 0.0
H1312 H 0.33754 0.16117 0.70939 0.0
C1313 C 0.3338 0.13133 0.62489 0.0
C1314 C 0.32616 0.12307 0.64949 0.0
C1315 C 0.33635 0.14304 0.62598 0.0
C1316 C 0.33767 0.1656 0.68541 0.0
H1317 H 0.33595 0.21483 0.62504 0.0
H1318 H 0.3307 0.1942 0.62347 0.0
H1319 H 0.34345 0.18211 0.71145 0.0
H1320 H 0.3151 0.12062 0.6944 0.0
H1321 H 0.31964 0.14121 0.69644 0.0
H1322 H 0.33269 0.16109 0.59804 0.0
C1323 C 0.33835 0.20033 0.63839 0.0
C1324 C 0.34119 0.17762 0.68653 0.0
C1325 C 0.34135 0.21217 0.63944 0.0
C1326 C 0.32097 0.12676 0.67497 0.0
C1327 C 0.32365 0.13856 0.67632 0.0
C1328 C 0.33505 0.16558 0.62295 0.0
C1329 C 0.34497 0.1964 0.65696 0.0
C1330 C 0.34158 0.18372 0.65589 0.0
C1331 C 0.33143 0.14684 0.65191 0.0
C1332 C 0.33462 0.15946 0.65356 0.0
H1333 H 0.3654 0.22271 0.69239 0.0
H1334 H 0.3601 0.20189 0.69073 0.0
H1335 H 0.33872 0.18198 0.60002 0.0
H1336 H 0.33796 0.1288 0.60492 0.0
H1337 H 0.34245 0.14921 0.60699 0.0
C1338 C 0.80325 0.1324 0.65684 0.0
C1339 C 0.79357 0.13371 0.66614 0.0
C1340 C 0.81476 0.14183 0.6596 0.0
C1341 C 0.83221 0.17429 0.6639 0.0
H1342 H 0.85678 0.16849 0.69769 0.0
C1343 C 0.87933 0.21219 0.69197 0.0
C1344 C 0.88888 0.2107 0.68239 0.0
C1345 C 0.86777 0.20279 0.69034 0.0
C1346 C 0.85006 0.17024 0.6878 0.0
H1347 H 0.78845 0.14604 0.68565 0.0
H1348 H 0.80867 0.1626 0.69063 0.0
H1349 H 0.83645 0.15232 0.69519 0.0
H1350 H 0.8937 0.19806 0.66371 0.0
H1351 H 0.87341 0.18157 0.66061 0.0
H1352 H 0.84583 0.19221 0.65638 0.0
C1353 C 0.80729 0.15423 0.68093 0.0
C1354 C 0.83838 0.16097 0.68643 0.0
C1355 C 0.7957 0.14474 0.67823 0.0
C1356 C 0.88656 0.1995 0.67133 0.0
C1357 C 0.87493 0.19005 0.66972 0.0
C1358 C 0.84389 0.18356 0.66525 0.0
C1359 C 0.81696 0.15287 0.67173 0.0
C1360 C 0.82931 0.16286 0.67435 0.0
C1361 C 0.86538 0.19161 0.67907 0.0
C1362 C 0.85297 0.18166 0.67719 0.0
H1363 H 0.80197 0.12406 0.6473 0.0
H1364 H 0.82195 0.14049 0.65172 0.0
H1365 H 0.8255 0.17603 0.65395 0.0
H1366 H 0.88076 0.22066 0.70079 0.0
H1367 H 0.86068 0.20428 0.69834 0.0
C1368 C 0.02281 0.47555 0.50784 0.0
C1369 C 0.01482 0.46521 0.49011 0.0
C1370 C 0.02049 0.48486 0.51163 0.0
C1371 C 1.00239 0.49698 0.47537 0.0
H1372 H 0.00838 0.51275 0.56475 0.0
C1373 C 0.98685 0.53047 0.50755 0.0
C1374 C 0.99492 0.54067 0.52571 0.0
C1375 C 0.989 0.52106 0.50325 0.0
C1376 C 1.00675 0.50852 0.5395 0.0
H1377 H 0.99821 0.45665 0.462 0.0
H1378 H 0.99419 0.47275 0.46878 0.0
H1379 H 0.0132 0.49719 0.55635 0.0
H1380 H 0.01154 0.5489 0.55379 0.0
H1381 H 0.01528 0.53269 0.54608 0.0
H1382 H 0.99595 0.50833 0.45852 0.0
C1383 C 1.0023 0.47376 0.4795 0.0
C1384 C 0.00955 0.49961 0.53466 0.0
C1385 C 1.00459 0.46448 0.4758 0.0
C1386 C 1.00509 0.54119 0.53972 0.0
C1387 C 0.00722 0.53182 0.5355 0.0
C1388 C 0.99959 0.5059 0.4802 0.0
C1389 C 0.01017 0.48405 0.49766 0.0
C1390 C 0.00742 0.49373 0.50253 0.0
C1391 C 0.99924 0.52164 0.51716 0.0
C1392 C 1.00177 0.51182 0.5123 0.0
H1393 H 0.03077 0.4764 0.51915 0.0
H1394 H 0.02682 0.49271 0.52542 0.0
H1395 H 1.00076 0.49274 0.45014 0.0
H1396 H 0.97893 0.52979 0.49644 0.0
H1397 H 0.98261 0.51329 0.48926 0.0
C1398 C 0.46386 0.46591 0.50964 0.0
C1399 C 0.46682 0.45698 0.51218 0.0
C1400 C 0.47252 0.47779 0.51181 0.0
C1401 C 0.50418 0.49858 0.50112 0.0
H1402 H 0.49766 0.51891 0.55932 0.0
C1403 C 0.533 0.54951 0.49815 0.0
C1404 C 0.53616 0.55529 0.5306 0.0
C1405 C 0.52456 0.53751 0.49606 0.0
C1406 C 0.49965 0.51335 0.5431 0.0
H1407 H 0.48132 0.45361 0.51824 0.0
H1408 H 0.49657 0.4745 0.52164 0.0
H1409 H 0.48325 0.4979 0.55559 0.0
H1410 H 0.53266 0.55301 0.58618 0.0
H1411 H 0.51782 0.53212 0.58243 0.0
H1412 H 0.52057 0.51408 0.48859 0.0
C1413 C 0.48747 0.47221 0.51804 0.0
C1414 C 0.49135 0.50133 0.54074 0.0
C1415 C 0.47874 0.46026 0.51618 0.0
C1416 C 0.53043 0.54885 0.56077 0.0
C1417 C 0.5219 0.53688 0.55862 0.0
C1418 C 0.51243 0.51065 0.50321 0.0
C1419 C 0.48442 0.4811 0.51633 0.0
C1420 C 0.49349 0.4938 0.51962 0.0
C1421 C 0.51899 0.53102 0.5263 0.0
C1422 C 0.51025 0.51818 0.52416 0.0
H1423 H 0.45478 0.46375 0.50645 0.0
H1424 H 0.46989 0.48441 0.50984 0.0
H1425 H 0.50605 0.49303 0.4845 0.0
H1426 H 0.53725 0.55417 0.47437 0.0
H1427 H 0.52239 0.5333 0.47072 0.0
C1428 C 0.5514 0.0216 0.52435 0.0
C1429 C 0.55797 0.0254 0.49324 0.0
C1430 C 0.53943 0.01823 0.52472 0.0
C1431 C 0.51694 0.02184 0.47892 0.0
H1432 H 0.49459 0.99119 0.51699 0.0
C1433 C 0.46736 1.00253 0.45751 0.0
C1434 C 0.45951 0.99602 0.48442 0.0
C1435 C 0.47921 0.00565 0.45925 0.0
C1436 C 0.50069 0.99985 0.50673 0.0
H1437 H 0.55721 0.02902 0.43844 0.0
H1438 H 0.53639 0.02347 0.43937 0.0
H1439 H 0.51572 0.99818 0.51998 0.0
H1440 H 0.45783 0.98741 0.53399 0.0
H1441 H 0.4787 0.99318 0.53778 0.0
H1442 H 0.50212 0.02376 0.46644 0.0
C1443 C 0.5405 0.02298 0.46335 0.0
C1444 C 0.5128 1.00383 0.50837 0.0
C1445 C 0.55241 0.02615 0.46282 0.0
C1446 C 0.46368 0.99236 0.51275 0.0
C1447 C 0.47565 0.99567 0.51484 0.0
C1448 C 0.50488 0.01796 0.47774 0.0
C1449 C 0.53384 0.0188 0.49416 0.0
C1450 C 0.52104 0.01481 0.49409 0.0
C1451 C 0.48363 1.00256 0.48836 0.0
C1452 C 0.49654 0.00682 0.49113 0.0
H1453 H 0.55539 0.02085 0.54822 0.0
H1454 H 0.53454 0.01514 0.54889 0.0
H1455 H 0.5231 0.03041 0.46816 0.0
H1456 H 0.46437 0.00535 0.43511 0.0
H1457 H 0.48492 0.01059 0.43776 0.0
C1458 C 0.46634 1.00275 0.99911 0.0
C1459 C 0.4696 0.01473 1.00089 0.0
C1460 C 0.47487 0.99933 0.99828 0.0
C1461 C 0.50609 0.00933 0.01837 0.0
H1462 H 0.50069 0.98346 0.95744 0.0
C1463 C 0.53488 0.98721 0.02441 0.0
C1464 C 0.53807 0.98426 0.99255 0.0
C1465 C 0.52654 0.99093 0.02545 0.0
C1466 C 0.5024 0.99075 0.97442 0.0
H1467 H 0.48447 0.03253 1.00361 0.0
H1468 H 0.49946 0.02655 1.00189 0.0
H1469 H 0.4866 0.99042 0.95847 0.0
H1470 H 0.53484 0.98275 0.93682 0.0
H1471 H 0.52038 0.98926 0.93861 0.0
H1472 H 0.52203 0.00978 0.03384 0.0
C1473 C 0.49024 0.01979 1.00141 0.0
C1474 C 0.49424 0.99467 0.97531 0.0
C1475 C 0.48166 0.02323 1.00225 0.0
C1476 C 0.53255 0.98489 0.96185 0.0
C1477 C 0.52422 0.98861 0.9629 0.0
C1478 C 0.51427 0.0054 0.01751 0.0
C1479 C 0.48693 0.00778 0.99913 0.0
C1480 C 0.49592 1.00397 0.99744 0.0
C1481 C 0.52118 0.99178 0.99466 0.0
C1482 C 0.51251 0.99602 0.9956 0.0
H1483 H 0.45715 0.99593 0.99827 0.0
H1484 H 0.47197 0.99 0.99724 0.0
H1485 H 0.50764 0.01645 0.0359 0.0
H1486 H 0.53894 0.98683 0.04858 0.0
H1487 H 0.52429 0.99312 0.05045 0.0
C1488 C 0.02757 0.55076 0.96704 0.0
C1489 C 0.02618 0.55624 0.99671 0.0
C1490 C 0.02344 0.53861 0.96684 0.0
C1491 C 0.01315 0.51235 0.02475 0.0
H1492 H 0.99915 0.49531 0.93918 0.0
C1493 C 0.98994 0.46116 0.01521 0.0
C1494 C 0.99336 0.4569 0.98644 0.0
C1495 C 0.99316 0.47311 0.01718 0.0
C1496 C 1.00308 0.49994 0.96324 0.0
H1497 H 0.01951 0.55324 0.04974 0.0
H1498 H 0.01213 0.53208 0.0492 0.0
H1499 H 1.00673 0.51648 0.9416 0.0
H1500 H 1.00249 0.46178 0.9367 0.0
H1501 H 0.00794 0.48244 0.93997 0.0
H1502 H 0.00938 0.4957 0.04633 0.0
C1503 C 0.01658 0.53716 0.02619 0.0
C1504 C 0.0075 0.51212 0.9646 0.0
C1505 C 0.02079 0.54933 0.02647 0.0
C1506 C 0.99972 0.46475 0.95927 0.0
C1507 C 1.0028 0.47661 0.96104 0.0
C1508 C 0.00864 0.50013 0.02344 0.0
C1509 C 0.01771 0.5316 0.99621 0.0
C1510 C 0.01273 0.51854 0.99523 0.0
C1511 C 0.99971 0.48099 0.99018 0.0
C1512 C 1.00368 0.49381 0.99253 0.0
H1513 H 0.03173 0.55581 0.94371 0.0
H1514 H 0.02471 0.53472 0.94352 0.0
H1515 H 0.01722 0.51698 0.04868 0.0
H1516 H 0.98508 0.45535 0.03663 0.0
H1517 H 0.99057 0.4762 0.03985 0.0
C1518 C 0.46568 0.46644 0.05512 0.0
C1519 C 0.45658 0.46677 0.03662 0.0
C1520 C 0.4774 0.4754 0.05125 0.0
C1521 C 0.49729 0.49917 0.99078 0.0
H1522 H 0.51863 0.50938 0.06971 0.0
C1523 C 0.5443 0.53963 0.98494 0.0
C1524 C 0.55347 0.53891 1.00172 0.0
C1525 C 0.53258 0.53065 0.98862 0.0
C1526 C 0.51283 0.50652 0.04731 0.0
H1527 H 0.45269 0.47697 1.0 0.0
H1528 H 0.47318 0.49277 0.99366 0.0
H1529 H 0.49793 0.49467 0.07812 0.0
H1530 H 0.55749 0.52805 0.03519 0.0
H1531 H 0.53694 0.51228 0.04163 0.0
H1532 H 0.5122 0.51113 0.96008 0.0
C1533 C 0.47125 0.48544 0.01078 0.0
C1534 C 0.50093 0.49809 0.05212 0.0
C1535 C 0.45948 0.47643 0.01462 0.0
C1536 C 0.55064 0.52887 0.02189 0.0
C1537 C 0.53886 0.51989 0.02578 0.0
C1538 C 0.50918 0.50764 0.98602 0.0
C1539 C 0.48038 0.48499 0.02884 0.0
C1540 C 0.49299 0.49427 0.02391 0.0
C1541 C 0.52969 0.52071 0.00932 0.0
C1542 C 0.5171 0.51142 0.01422 0.0
H1543 H 0.46381 0.45913 0.07223 0.0
H1544 H 0.48416 0.47461 0.06519 0.0
H1545 H 0.49152 0.49631 0.96832 0.0
H1546 H 0.54613 0.54723 0.96918 0.0
H1547 H 0.52575 0.53165 0.9759 0.0
C1548 C 0.44575 0.06587 0.04563 0.0
C1549 C 0.43991 0.05965 0.01533 0.0
C1550 C 0.44242 0.07332 0.06219 0.0
C1551 C 0.42385 0.08757 0.05075 0.0
H1552 H 0.42147 0.08504 0.15142 0.0
C1553 C 0.39377 0.0909 0.16709 0.0
C1554 C 0.39268 0.10047 0.15526 0.0
C1555 C 0.40183 0.08824 0.15169 0.0
C1556 C 0.42202 0.08583 0.12329 0.0
H1557 H 0.42635 0.05684 0.97788 0.0
H1558 H 0.4204 0.06947 1.00686 0.0
H1559 H 0.43113 0.07613 0.11988 0.0
H1560 H 0.39969 0.11514 0.119 0.0
H1561 H 0.41402 0.11069 0.09261 0.0
H1562 H 0.41404 0.09658 0.05397 0.0
C1563 C 0.42769 0.06883 0.01774 0.0
C1564 C 0.42775 0.08085 0.10515 0.0
C1565 C 0.43106 0.06148 1.00115 0.0
C1566 C 0.40028 0.10768 0.1287 0.0
C1567 C 0.40843 0.10505 0.11335 0.0
C1568 C 0.41801 0.09245 0.06886 0.0
C1569 C 0.43314 0.07468 0.04891 0.0
C1570 C 0.42849 0.08139 0.06852 0.0
C1571 C 0.40913 0.09513 0.12413 0.0
C1572 C 0.41674 0.09138 0.10534 0.0
H1573 H 0.45263 0.06469 0.05723 0.0
H1574 H 0.44697 0.07782 0.08579 0.0
H1575 H 0.42444 0.0884 0.02263 0.0
H1576 H 0.38807 0.08513 0.18747 0.0
H1577 H 0.40193 0.08043 0.16047 0.0
C1578 C 0.91947 0.30472 0.1737 0.0
C1579 C 0.91049 0.2941 0.15956 0.0
C1580 C 0.92289 0.31551 0.15743 0.0
C1581 C 0.92257 0.32784 0.07081 0.0
H1582 H 0.93627 0.35708 0.12306 0.0
C1583 C 0.94898 0.38221 0.04844 0.0
C1584 C 0.95641 0.38286 0.02098 0.0
C1585 C 0.94123 0.37134 0.06411 0.0
C1586 C 0.93231 0.34903 0.1079 0.0
H1587 H 0.89763 0.28661 0.11796 0.0
H1588 H 0.90338 0.30551 0.08991 0.0
H1589 H 0.92613 0.33835 0.15383 0.0
H1590 H 0.96119 0.37248 0.98779 0.0
H1591 H 0.94802 0.35376 0.01531 0.0
H1592 H 0.9286 0.33852 0.02485 0.0
C1593 C 0.90799 0.30546 0.11327 0.0
C1594 C 0.92662 0.33824 0.12566 0.0
C1595 C 0.90461 0.29461 0.12953 0.0
C1596 C 0.9556 0.37235 0.00883 0.0
C1597 C 0.94793 0.36153 0.02453 0.0
C1598 C 0.92816 0.33863 0.05303 0.0
C1599 C 0.91736 0.31604 0.1266 0.0
C1600 C 0.92196 0.32748 0.10746 0.0
C1601 C 0.94075 0.36086 0.05275 0.0
C1602 C 0.93341 0.34939 0.07135 0.0
H1603 H 0.92423 0.3047 0.19677 0.0
H1604 H 0.93024 0.32337 0.16832 0.0
H1605 H 0.91918 0.3198 0.05576 0.0
H1606 H 0.94935 0.39013 0.05841 0.0
H1607 H 0.93572 0.37117 0.0854 0.0
C1608 C 0.71821 0.60791 0.09694 0.0
C1609 C 0.72166 0.61489 0.12727 0.0
C1610 C 0.70629 0.60125 0.08769 0.0
C1611 C 0.67938 0.60269 0.09667 0.0
H1612 H 0.66373 0.57151 0.05504 0.0
C1613 C 0.63841 0.5866 0.01094 0.0
C1614 C 0.62846 0.57576 0.01991 0.0
C1615 C 0.64939 0.59005 0.02572 0.0
C1616 C 0.66798 0.58018 0.06684 0.0
H1617 H 0.71514 0.61971 0.1728 0.0
H1618 H 0.69441 0.60818 0.1565 0.0
H1619 H 0.68359 0.57949 0.07984 0.0
H1620 H 0.62244 0.55981 0.05044 0.0
H1621 H 0.64187 0.56579 0.07577 0.0
H1622 H 0.66401 0.60358 0.08281 0.0
C1623 C 0.70095 0.60793 0.13976 0.0
C1624 C 0.67934 0.58477 0.08085 0.0
C1625 C 0.71284 0.61449 0.14918 0.0
C1626 C 0.62991 0.56822 0.04299 0.0
C1627 C 0.64101 0.57162 0.05746 0.0
C1628 C 0.66815 0.5982 0.08224 0.0
C1629 C 0.69756 0.60151 0.10842 0.0
C1630 C 0.68519 0.59612 0.09573 0.0
C1631 C 0.6508 0.5827 0.04953 0.0
C1632 C 0.66238 0.58696 0.06683 0.0
H1633 H 0.72476 0.60798 0.07949 0.0
H1634 H 0.70397 0.59644 0.06332 0.0
H1635 H 0.68368 0.6115 0.10755 0.0
H1636 H 0.63767 0.59265 0.99323 0.0
H1637 H 0.65681 0.59857 0.01879 0.0
C1638 C 0.06286 0.43791 0.4618 0.0
C1639 C 0.05482 0.4305 0.48723 0.0
C1640 C 0.07118 0.43533 0.44747 0.0
C1641 C 0.08446 0.41592 0.45911 0.0
H1642 H 0.08829 0.4191 0.35881 0.0
C1643 C 0.09477 0.39195 0.33891 0.0
C1644 C 0.10341 0.39 0.35413 0.0
C1645 C 0.09132 0.39935 0.35481 0.0
C1646 C 0.08731 0.41811 0.38685 0.0
H1647 H 0.04957 0.41483 0.51851 0.0
H1648 H 0.06374 0.41022 0.49327 0.0
H1649 H 0.07753 0.42717 0.38875 0.0
H1650 H 0.1157 0.3949 0.39715 0.0
H1651 H 0.10989 0.40808 0.42458 0.0
H1652 H 0.09356 0.40618 0.45695 0.0
C1653 C 0.06385 0.41815 0.48462 0.0
C1654 C 0.08126 0.42292 0.40415 0.0
C1655 C 0.05562 0.42075 0.49898 0.0
C1656 C 0.10899 0.39617 0.38475 0.0
C1657 C 0.10557 0.40365 0.40065 0.0
C1658 C 0.09042 0.41103 0.44177 0.0
C1659 C 0.07162 0.42526 0.45819 0.0
C1660 C 0.07948 0.42162 0.44045 0.0
C1661 C 0.09647 0.40511 0.38634 0.0
C1662 C 0.09166 0.41178 0.40526 0.0
H1663 H 0.06252 0.44552 0.45221 0.0
H1664 H 0.07713 0.44112 0.42758 0.0
H1665 H 0.0835 0.41495 0.48716 0.0
H1666 H 0.09026 0.38736 0.31532 0.0
H1667 H 0.08419 0.40007 0.34312 0.0
C1668 C 0.62239 0.70688 0.33854 0.0
C1669 C 0.62287 0.71689 0.35365 0.0
C1670 C 0.61443 0.6956 0.35067 0.0
C1671 C 0.598 0.67998 0.42938 0.0
H1672 H 0.58545 0.65318 0.36669 0.0
C1673 C 0.57431 0.63062 0.47562 0.0
C1674 C 0.57987 0.62469 0.46188 0.0
C1675 C 0.57697 0.6417 0.46232 0.0
C1676 C 0.5888 0.66058 0.38453 0.0
H1677 H 0.61505 0.72284 0.39274 0.0
H1678 H 0.601 0.70297 0.41399 0.0
H1679 H 0.59448 0.67309 0.34284 0.0
H1680 H 0.59221 0.62548 0.42272 0.0
H1681 H 0.59657 0.64447 0.39923 0.0
H1682 H 0.59251 0.66734 0.47104 0.0
C1683 C 0.60689 0.70393 0.39281 0.0
C1684 C 0.59403 0.67199 0.37089 0.0
C1685 C 0.61487 0.7153 0.38046 0.0
C1686 C 0.58781 0.62984 0.43402 0.0
C1687 C 0.59026 0.6407 0.42036 0.0
C1688 C 0.59265 0.66851 0.44305 0.0
C1689 C 0.60669 0.69394 0.37834 0.0
C1690 C 0.59913 0.68187 0.39307 0.0
C1691 C 0.58498 0.64682 0.4345 0.0
C1692 C 0.5884 0.65872 0.42069 0.0
H1693 H 0.62841 0.70777 0.31785 0.0
H1694 H 0.61471 0.68818 0.3392 0.0
H1695 H 0.60187 0.68737 0.44725 0.0
H1696 H 0.56818 0.62687 0.49718 0.0
H1697 H 0.57278 0.64626 0.4737 0.0
C1698 C 0.30482 0.92022 0.33655 0.0
C1699 C 0.29479 0.91089 0.35225 0.0
C1700 C 0.31609 0.92364 0.34896 0.0
C1701 C 0.33157 0.92323 0.42866 0.0
H1702 H 0.35848 0.93713 0.36621 0.0
C1703 C 0.38091 0.94895 0.47483 0.0
C1704 C 0.3866 0.96051 0.46153 0.0
C1705 C 0.36991 0.94042 0.46143 0.0
C1706 C 0.35105 0.93316 0.38397 0.0
H1707 H 0.2888 0.89754 0.3927 0.0
H1708 H 0.3086 0.90346 0.41427 0.0
H1709 H 0.33862 0.92625 0.34219 0.0
H1710 H 0.38554 0.97207 0.423 0.0
H1711 H 0.36671 0.95723 0.39921 0.0
H1712 H 0.34414 0.93047 0.4704 0.0
C1713 C 0.30769 0.90821 0.39251 0.0
C1714 C 0.33966 0.927 0.37025 0.0
C1715 C 0.29635 0.90477 0.37999 0.0
C1716 C 0.38134 0.96326 0.43395 0.0
C1717 C 0.37058 0.95474 0.42014 0.0
C1718 C 0.34301 0.92932 0.44242 0.0
C1719 C 0.3177 0.91781 0.37743 0.0
C1720 C 0.32974 0.92236 0.39232 0.0
C1721 C 0.36467 0.94328 0.43391 0.0
C1722 C 0.35283 0.93472 0.42013 0.0
H1723 H 0.30398 0.92516 0.31517 0.0
H1724 H 0.32353 0.93119 0.337 0.0
H1725 H 0.32416 0.91985 0.44648 0.0
H1726 H 0.38478 0.94663 0.49617 0.0
H1727 H 0.3655 0.93163 0.47251 0.0
C1728 C 0.58503 0.94947 0.017 0.0
C1729 C 0.57831 0.95358 0.99972 0.0
C1730 C 0.58834 0.94212 0.99993 0.0
C1731 C 0.5952 0.93632 0.91275 0.0
H1732 H 0.59525 0.90953 0.9556 0.0
C1733 C 0.61592 0.91236 0.84126 0.0
C1734 C 0.62252 0.90878 0.8615 0.0
C1735 C 0.60857 0.9159 0.85714 0.0
C1736 C 0.59543 0.91706 0.94331 0.0
H1737 H 0.56941 0.95279 0.95128 0.0
H1738 H 0.57534 0.94008 0.92132 0.0
H1739 H 0.58598 0.91922 0.98576 0.0
H1740 H 0.62629 0.90581 0.91437 0.0
H1741 H 0.61384 0.91233 0.94208 0.0
H1742 H 0.60513 0.93466 0.8712 0.0
C1743 C 0.57802 0.94255 0.94814 0.0
C1744 C 0.59004 0.92256 0.96058 0.0
C1745 C 0.57456 0.94977 0.9654 0.0
C1746 C 0.62125 0.90842 0.89796 0.0
C1747 C 0.61404 0.91214 0.91388 0.0
C1748 C 0.60073 0.93094 0.89571 0.0
C1749 C 0.58514 0.93884 0.96501 0.0
C1750 C 0.58996 0.93232 0.94562 0.0
C1751 C 0.60776 0.91617 0.89375 0.0
C1752 C 0.60105 0.92129 0.91087 0.0
H1753 H 0.58805 0.95223 0.04345 0.0
H1754 H 0.59388 0.93947 0.01357 0.0
H1755 H 0.59545 0.94393 0.90076 0.0
H1756 H 0.61664 0.91266 0.81309 0.0
H1757 H 0.60367 0.91864 0.84063 0.0
C1758 C 0.10368 0.71351 0.8947 0.0
C1759 C 0.1008 0.7144 0.85993 0.0
C1760 C 0.10054 0.70249 0.9092 0.0
C1761 C 0.09109 0.67141 0.88708 0.0
H1762 H 0.07409 0.66409 0.97474 0.0
C1763 C 0.05937 0.62369 0.93082 0.0
C1764 C 0.05765 0.62088 0.96653 0.0
C1765 C 0.06673 0.6353 0.91975 0.0
C1766 C 0.07902 0.666 0.95063 0.0
H1767 H 0.09288 0.70448 0.81271 0.0
H1768 H 0.08755 0.68535 0.83779 0.0
H1769 H 0.08337 0.68411 0.95175 0.0
H1770 H 0.06287 0.62806 0.01861 0.0
H1771 H 0.07596 0.64833 0.99926 0.0
H1772 H 0.08665 0.65331 0.88566 0.0
C1773 C 0.09221 0.69313 0.85392 0.0
C1774 C 0.08434 0.67751 0.9374 0.0
C1775 C 0.09522 0.70411 0.83957 0.0
C1776 C 0.06395 0.62991 0.9909 0.0
C1777 C 0.07138 0.64156 0.97979 0.0
C1778 C 0.08586 0.65993 0.90043 0.0
C1779 C 0.0946 0.69215 0.88911 0.0
C1780 C 0.0902 0.68029 0.90508 0.0
C1781 C 0.07267 0.64446 0.94405 0.0
C1782 C 0.0795 0.65699 0.93199 0.0
H1783 H 0.10793 0.72126 0.91115 0.0
H1784 H 0.10259 0.70203 0.93631 0.0
H1785 H 0.0957 0.67331 0.86237 0.0
H1786 H 0.05466 0.61699 0.91126 0.0
H1787 H 0.06733 0.63714 0.89207 0.0
C1788 C 0.37983 0.43509 0.99399 0.0
C1789 C 0.38828 0.43715 0.96816 0.0
C1790 C 0.36802 0.43088 0.98497 0.0
C1791 C 0.34794 0.42607 0.90981 0.0
H1792 H 0.32489 0.40067 0.96756 0.0
C1793 C 0.30016 0.3933 0.86433 0.0
C1794 C 0.29109 0.38905 0.88937 0.0
C1795 C 0.31194 0.4007 0.87415 0.0
C1796 C 0.33116 0.40788 0.9514 0.0
H1797 H 0.39098 0.43689 0.9124 0.0
H1798 H 0.37047 0.42946 0.89681 0.0
H1799 H 0.34551 0.41096 0.98466 0.0
H1800 H 0.28728 0.38981 0.94407 0.0
H1801 H 0.30771 0.40279 0.96099 0.0
H1802 H 0.33353 0.42275 0.87613 0.0
C1803 C 0.37293 0.43118 0.92403 0.0
C1804 C 0.34303 0.41381 0.96126 0.0
C1805 C 0.38472 0.4354 0.93303 0.0
C1806 C 0.29403 0.39282 0.92411 0.0
C1807 C 0.30578 0.40022 0.93389 0.0
C1808 C 0.33604 0.42011 0.89989 0.0
C1809 C 0.36436 0.42862 0.94991 0.0
C1810 C 0.35161 0.42292 0.94048 0.0
C1811 C 0.31492 0.40403 0.90922 0.0
C1812 C 0.32751 0.41087 0.92043 0.0
H1813 H 0.38225 0.43638 0.02129 0.0
H1814 H 0.36171 0.4292 1.00557 0.0
H1815 H 0.35426 0.43314 0.89338 0.0
H1816 H 0.29823 0.39056 0.83736 0.0
H1817 H 0.31875 0.4034 0.85447 0.0
C1818 C 0.89698 0.60845 0.60334 0.0
C1819 C 0.90016 0.61508 0.63432 0.0
C1820 C 0.90188 0.6014 0.59485 0.0
C1821 C 0.91991 0.5889 0.63121 0.0
H1822 H 0.92972 0.59047 0.53496 0.0
C1823 C 0.95909 0.58366 0.58926 0.0
C1824 C 0.95813 0.57703 0.55938 0.0
C1825 C 0.95002 0.58576 0.59874 0.0
C1826 C 0.92685 0.58975 0.5618 0.0
H1827 H 0.91069 0.61912 0.68129 0.0
H1828 H 0.91941 0.60712 0.66626 0.0
H1829 H 0.9175 0.59892 0.55128 0.0
H1830 H 0.94681 0.5672 0.51625 0.0
H1831 H 0.93091 0.57118 0.53242 0.0
H1832 H 0.92985 0.5803 0.64187 0.0
C1833 C 0.91296 0.60713 0.64867 0.0
C1834 C 0.91982 0.59459 0.57124 0.0
C1835 C 0.90798 0.6141 0.65729 0.0
C1836 C 0.94775 0.57231 0.53948 0.0
C1837 C 0.93871 0.57463 0.54863 0.0
C1838 C 0.92704 0.58419 0.62182 0.0
C1839 C 0.91017 0.60086 0.61699 0.0
C1840 C 0.91646 0.59447 0.60625 0.0
C1841 C 0.93981 0.58145 0.57828 0.0
C1842 C 0.93081 0.5848 0.58716 0.0
H1843 H 0.89092 0.60894 0.58513 0.0
H1844 H 0.89931 0.59652 0.57059 0.0
H1845 H 0.91729 0.58836 0.65824 0.0
H1846 H 0.96696 0.58737 0.60524 0.0
H1847 H 0.9512 0.59115 0.62148 0.0
C1848 C 0.44332 0.38601 0.60925 0.0
C1849 C 0.44383 0.389 0.57382 0.0
C1850 C 0.43923 0.37435 0.61943 0.0
C1851 C 0.42076 0.34368 0.58705 0.0
H1852 H 0.43048 0.33612 0.67421 0.0
C1853 C 0.39931 0.29589 0.64006 0.0
C1854 C 0.39475 0.29469 0.674 0.0
C1855 C 0.40716 0.30707 0.6265 0.0
C1856 C 0.42771 0.3381 0.64976 0.0
H1857 H 0.44103 0.3821 0.52118 0.0
H1858 H 0.43428 0.36177 0.53885 0.0
H1859 H 0.44116 0.35625 0.6518 0.0
H1860 H 0.39537 0.3042 0.72092 0.0
H1861 H 0.40932 0.32366 0.69762 0.0
H1862 H 0.40733 0.32545 0.58516 0.0
C1863 C 0.43671 0.36841 0.55891 0.0
C1864 C 0.43377 0.34966 0.63695 0.0
C1865 C 0.44069 0.3801 0.54871 0.0
C1866 C 0.39873 0.30483 0.69471 0.0
C1867 C 0.40675 0.31597 0.68139 0.0
C1868 C 0.41482 0.33208 0.59962 0.0
C1869 C 0.43566 0.36531 0.59449 0.0
C1870 C 0.43019 0.3527 0.60585 0.0
C1871 C 0.4108 0.31725 0.64684 0.0
C1872 C 0.41806 0.32922 0.63151 0.0
H1873 H 0.44561 0.3926 0.62939 0.0
H1874 H 0.4384 0.37239 0.64705 0.0
H1875 H 0.41758 0.34562 0.56334 0.0
H1876 H 0.39634 0.28826 0.62332 0.0
H1877 H 0.4102 0.30779 0.59985 0.0
C1878 C 0.62722 0.06369 0.59276 0.0
C1879 C 0.62384 0.05742 0.56115 0.0
C1880 C 0.63915 0.07113 0.60071 0.0
C1881 C 0.66952 0.08552 0.56213 0.0
H1882 H 0.67872 0.0832 0.65659 0.0
C1883 C 0.71507 0.09254 0.59831 0.0
C1884 C 0.72058 0.09858 0.62912 0.0
C1885 C 0.70374 0.09018 0.58983 0.0
C1886 C 0.67629 0.08413 0.63028 0.0
H1887 H 0.63039 0.05442 0.51252 0.0
H1888 H 0.65111 0.0671 0.52658 0.0
H1889 H 0.65788 0.07399 0.64183 0.0
H1890 H 0.71867 0.10717 0.67487 0.0
H1891 H 0.69856 0.10277 0.66038 0.0
H1892 H 0.68799 0.09513 0.55033 0.0
C1893 C 0.64459 0.0665 0.54511 0.0
C1894 C 0.66432 0.07886 0.62174 0.0
C1895 C 0.63266 0.05914 0.53706 0.0
C1896 C 0.71464 0.10255 0.65088 0.0
C1897 C 0.70314 0.09997 0.64269 0.0
C1898 C 0.68148 0.09068 0.57061 0.0
C1899 C 0.64802 0.07242 0.57735 0.0
C1900 C 0.66075 0.07924 0.58733 0.0
C1901 C 0.69754 0.09365 0.61222 0.0
C1902 C 0.68499 0.08982 0.60458 0.0
H1903 H 0.62065 0.06263 0.61183 0.0
H1904 H 0.64141 0.07571 0.62546 0.0
H1905 H 0.66715 0.08626 0.53558 0.0
H1906 H 0.71944 0.08941 0.58093 0.0
H1907 H 0.69964 0.08519 0.56639 0.0
C1908 C 0.72713 0.75862 0.83962 0.0
C1909 C 0.7259 0.76802 0.82693 0.0
C1910 C 0.73478 0.75554 0.82348 0.0
C1911 C 0.74892 0.75785 0.73811 0.0
H1912 H 0.76292 0.74225 0.78857 0.0
C1913 C 0.77552 0.73026 0.71296 0.0
C1914 C 0.76888 0.72344 0.68441 0.0
C1915 C 0.77269 0.7381 0.72937 0.0
C1916 C 0.75928 0.74676 0.77395 0.0
H1917 H 0.73228 0.78199 0.78835 0.0
H1918 H 0.74589 0.77681 0.76062 0.0
H1919 H 0.75424 0.75204 0.82064 0.0
H1920 H 0.75436 0.71991 0.64991 0.0
H1921 H 0.74929 0.73324 0.67869 0.0
H1922 H 0.75409 0.75269 0.69142 0.0
C1923 C 0.74071 0.77162 0.78264 0.0
C1924 C 0.75412 0.75225 0.79243 0.0
C1925 C 0.73298 0.77467 0.79873 0.0
C1926 C 0.75969 0.72501 0.67181 0.0
C1927 C 0.75682 0.73277 0.68825 0.0
C1928 C 0.75418 0.75246 0.71964 0.0
C1929 C 0.7415 0.76183 0.79429 0.0
C1930 C 0.74855 0.75756 0.77478 0.0
C1931 C 0.76312 0.73927 0.71768 0.0
C1932 C 0.75911 0.74652 0.73727 0.0
H1933 H 0.72182 0.75329 0.86127 0.0
H1934 H 0.73496 0.74786 0.83302 0.0
H1935 H 0.74469 0.76177 0.72347 0.0
H1936 H 0.78269 0.72929 0.7233 0.0
H1937 H 0.77787 0.74309 0.7516 0.0
C1938 C 0.25509 0.96984 0.84404 0.0
C1939 C 0.24562 0.95981 0.82883 0.0
C1940 C 0.25861 0.98111 0.83133 0.0
C1941 C 0.25807 0.99657 0.75162 0.0
H1942 H 0.27201 0.02356 0.81366 0.0
C1943 C 0.28282 0.04563 0.70337 0.0
C1944 C 0.29431 0.05191 0.717 0.0
C1945 C 0.27461 0.03457 0.71728 0.0
C1946 C 0.26807 0.01611 0.796 0.0
H1947 H 0.23216 0.95385 0.78884 0.0
H1948 H 0.23825 0.97366 0.76671 0.0
H1949 H 0.26137 1.00371 0.83798 0.0
H1950 H 0.30603 0.05178 0.75666 0.0
H1951 H 0.29175 0.03281 0.78123 0.0
H1952 H 0.26505 0.00911 0.70965 0.0
C1953 C 0.24303 0.97273 0.78835 0.0
C1954 C 0.26203 1.00472 0.80991 0.0
C1955 C 0.23948 0.96139 0.8012 0.0
C1956 C 0.29727 0.04714 0.74546 0.0
C1957 C 0.28906 0.0363 0.75972 0.0
C1958 C 0.26405 0.00801 0.73767 0.0
C1959 C 0.25275 0.98273 0.80301 0.0
C1960 C 0.25733 0.99478 0.78797 0.0
C1961 C 0.27769 0.0298 0.74559 0.0
C1962 C 0.26946 0.01787 0.75978 0.0
H1963 H 0.26005 0.96898 0.86532 0.0
H1964 H 0.26624 0.98853 0.84297 0.0
H1965 H 0.25463 0.98915 0.7339 0.0
H1966 H 0.28032 0.04908 0.68134 0.0
H1967 H 0.26589 0.02974 0.70591 0.0
C1968 C 0.05162 0.28004 0.80046 0.0
C1969 C 0.05279 0.28714 0.82942 0.0
C1970 C 0.0404 0.27196 0.78744 0.0
C1971 C 0.00825 0.25722 0.80946 0.0
H1972 H 1.00394 0.25884 0.70999 0.0
C1973 C 0.96636 0.2527 0.74983 0.0
C1974 C 0.96145 0.24577 0.7199 0.0
C1975 C 0.97707 0.25459 0.76317 0.0
C1976 C 1.00502 0.25808 0.7377 0.0
H1977 H 0.0431 0.29086 0.86846 0.0
H1978 H 0.02377 0.27698 0.846 0.0
H1979 H 0.02388 0.2679 0.73408 0.0
H1980 H 0.96382 0.23526 0.68061 0.0
H1981 H 0.98297 0.23894 0.70355 0.0
H1982 H 0.98941 0.24809 0.81328 0.0
C1983 C 0.0314 0.27749 0.83328 0.0
C1984 C 0.01645 0.26326 0.75155 0.0
C1985 C 0.04254 0.28555 0.84608 0.0
C1986 C 0.9674 0.24058 0.70383 0.0
C1987 C 0.97834 0.24273 0.71682 0.0
C1988 C 0.99688 0.25217 0.79567 0.0
C1989 C 0.03014 0.27075 0.80337 0.0
C1990 C 0.0182 0.26329 0.7878 0.0
C1991 C 0.98327 0.2498 0.74661 0.0
C1992 C 0.99514 0.2529 0.75983 0.0
H1993 H 0.05935 0.28109 0.78695 0.0
H1994 H 0.03975 0.26684 0.76453 0.0
H1995 H 0.00924 0.25681 0.83737 0.0
H1996 H 0.96196 0.25677 0.76287 0.0
H1997 H 0.98069 0.26018 0.7859 0.0
C1998 C 0.29195 0.24956 0.24344 0.0
C1999 C 0.29102 0.24328 0.21277 0.0
C2000 C 0.28305 0.25187 0.25315 0.0
C2001 C 0.2612 0.25775 0.21643 0.0
H2002 H 0.2506 0.2551 0.31218 0.0
C2003 C 0.2333 0.27848 0.25972 0.0
C2004 C 0.23631 0.28439 0.29195 0.0
C2005 C 0.2376 0.271 0.25031 0.0
C2006 C 0.25352 0.256 0.28537 0.0
H2007 H 0.2799 0.23429 0.16845 0.0
H2008 H 0.26431 0.2387 0.18499 0.0
H2009 H 0.26244 0.24631 0.29501 0.0
H2010 H 0.2459 0.28671 0.34008 0.0
H2011 H 0.25365 0.27399 0.32346 0.0
H2012 H 0.25294 0.26804 0.20703 0.0
C2013 C 0.27194 0.24166 0.20168 0.0
C2014 C 0.26023 0.25087 0.2755 0.0
C2015 C 0.2808 0.23909 0.19231 0.0
C2016 C 0.24334 0.28226 0.31513 0.0
C2017 C 0.24775 0.27488 0.30558 0.0
C2018 C 0.25461 0.26303 0.22638 0.0
C2019 C 0.27305 0.24817 0.2321 0.0
C2020 C 0.26436 0.25191 0.24111 0.0
C2021 C 0.24514 0.26931 0.27274 0.0
C2022 C 0.2509 0.26247 0.26121 0.0
H2023 H 0.29971 0.25286 0.2598 0.0
H2024 H 0.28422 0.257 0.2765 0.0
H2025 H 0.26437 0.25882 0.18984 0.0
H2026 H 0.22783 0.27986 0.24133 0.0
H2027 H 0.23517 0.26669 0.22515 0.0
C2028 C 0.72885 0.97244 0.34844 0.0
C2029 C 0.72427 0.96216 0.32806 0.0
C2030 C 0.73695 0.98342 0.33435 0.0
C2031 C 0.74537 0.99915 0.2511 0.0
H2032 H 0.77173 0.02309 0.30383 0.0
C2033 C 0.77332 0.04672 0.19811 0.0
C2034 C 0.77607 0.05577 0.22244 0.0
C2035 C 0.76891 0.03505 0.20923 0.0
C2036 C 0.76436 0.01655 0.28879 0.0
H2037 H 0.72487 0.95533 0.27705 0.0
H2038 H 0.73896 0.97457 0.25232 0.0
H2039 H 0.76043 1.0031 0.32692 0.0
H2040 H 0.7768 0.05966 0.27769 0.0
H2041 H 0.76898 0.03946 0.29689 0.0
H2042 H 0.74892 0.01265 0.21368 0.0
C2043 C 0.73626 0.9741 0.27926 0.0
C2044 C 0.75791 0.00507 0.30202 0.0
C2045 C 0.72827 0.96307 0.29351 0.0
C2046 C 0.7748 0.05294 0.25815 0.0
C2047 C 0.77036 0.04131 0.26923 0.0
C2048 C 0.75175 0.01066 0.23799 0.0
C2049 C 0.74057 0.98442 0.29938 0.0
C2050 C 0.74821 0.99628 0.28364 0.0
C2051 C 0.76712 0.03214 0.24495 0.0
C2052 C 0.7612 0.01959 0.25697 0.0
H2053 H 0.72597 0.97206 0.37513 0.0
H2054 H 0.74 0.9912 0.35048 0.0
H2055 H 0.73786 0.99262 0.23646 0.0
H2056 H 0.77422 0.04858 0.1704 0.0
H2057 H 0.76671 0.02827 0.18977 0.0
C2058 C 0.04966 0.76913 0.2994 0.0
C2059 C 0.04994 0.76261 0.32816 0.0
C2060 C 0.03893 0.76624 0.28332 0.0
C2061 C 0.01676 0.75234 0.23962 0.0
H2062 H 0.98733 0.73886 0.29097 0.0
C2063 C 0.97223 0.71981 0.17743 0.0
C2064 C 0.96182 0.71931 0.18922 0.0
C2065 C 0.98308 0.72745 0.19291 0.0
C2066 C 0.99545 0.74278 0.27611 0.0
H2067 H 0.03907 0.7483 0.36356 0.0
H2068 H 0.02053 0.74318 0.33546 0.0
H2069 H 1.00595 0.74834 0.32244 0.0
H2070 H 0.95478 0.72693 0.2255 0.0
H2071 H 0.97379 0.74044 0.25223 0.0
H2072 H 1.00627 0.74679 0.19329 0.0
C2073 C 0.02852 0.75063 0.3254 0.0
C2074 C 1.00616 0.74809 0.29423 0.0
C2075 C 0.03921 0.75352 0.34145 0.0
C2076 C 0.96262 0.72707 0.21582 0.0
C2077 C 0.97351 0.73475 0.23134 0.0
C2078 C 1.00606 0.74709 0.22149 0.0
C2079 C 0.02824 0.75676 0.29565 0.0
C2080 C 0.01695 0.75265 0.2763 0.0
C2081 C 0.98385 0.73485 0.22057 0.0
C2082 C 0.99525 0.74194 0.23951 0.0
H2083 H 0.05776 0.77621 0.28852 0.0
H2084 H 0.03905 0.77129 0.26081 0.0
H2085 H 0.02486 0.75568 0.22483 0.0
H2086 H 0.97197 0.71397 0.15699 0.0
H2087 H 0.99078 0.72713 0.18414 0.0
C2088 C 0.34415 0.09452 0.05161 0.0
C2089 C 0.35189 0.09072 0.0631 0.0
C2090 C 0.34145 0.09416 0.01619 0.0
C2091 C 0.34222 0.0815 0.93052 0.0
H2092 H 0.34407 0.11011 0.89496 0.0
C2093 C 0.33787 0.08882 0.78262 0.0
C2094 C 0.33058 0.09357 0.77492 0.0
C2095 C 0.34135 0.08862 0.81714 0.0
C2096 C 0.34342 0.10201 0.90444 0.0
H2097 H 0.36229 0.08288 0.04651 0.0
H2098 H 0.35751 0.08219 0.98476 0.0
H2099 H 0.34733 0.10855 0.95667 0.0
H2100 H 0.32154 0.10212 0.79723 0.0
H2101 H 0.32748 0.1017 0.85671 0.0
H2102 H 0.33813 0.07492 0.87817 0.0
C2103 C 0.35356 0.08549 1.00315 0.0
C2104 C 0.34526 0.10111 0.93989 0.0
C2105 C 0.35632 0.08591 0.03857 0.0
C2106 C 0.32716 0.0984 0.80217 0.0
C2107 C 0.33064 0.09823 0.83639 0.0
C2108 C 0.34031 0.08238 0.89494 0.0
C2109 C 0.34637 0.08993 0.99143 0.0
C2110 C 0.34454 0.0908 0.95348 0.0
C2111 C 0.33767 0.09324 0.84448 0.0
C2112 C 0.34073 0.0926 0.88156 0.0
H2113 H 0.34054 0.09824 0.06974 0.0
H2114 H 0.33569 0.09743 0.00807 0.0
H2115 H 0.34158 0.07343 0.9402 0.0
H2116 H 0.3406 0.08498 0.76221 0.0
H2117 H 0.34686 0.0848 0.82244 0.0
C2118 C 0.91917 0.25168 0.06581 0.0
C2119 C 0.92261 0.26305 0.07825 0.0
C2120 C 0.9207 0.24988 0.03064 0.0
C2121 C 0.92319 0.26329 0.94419 0.0
H2122 H 0.93138 0.24006 0.91383 0.0
C2123 C 0.92745 0.25392 0.79759 0.0
C2124 C 0.92299 0.24202 0.7887 0.0
C2125 C 0.92819 0.25728 0.8327 0.0
C2126 C 0.92898 0.24651 0.92185 0.0
H2127 H 0.93094 0.28153 0.06371 0.0
H2128 H 0.9337 0.27838 1.00261 0.0
H2129 H 0.93182 0.24444 0.97573 0.0
H2130 H 0.91537 0.22428 0.80961 0.0
H2131 H 0.91647 0.23007 0.87012 0.0
H2132 H 0.92015 0.26521 0.89028 0.0
C2133 C 0.92963 0.27083 0.0199 0.0
C2134 C 0.92925 0.24903 0.95738 0.0
C2135 C 0.92814 0.27264 0.05505 0.0
C2136 C 0.91898 0.23355 0.81548 0.0
C2137 C 0.91969 0.23688 0.85032 0.0
C2138 C 0.92289 0.26075 0.9086 0.0
C2139 C 0.92569 0.25941 1.00708 0.0
C2140 C 0.92622 0.25733 0.96907 0.0
C2141 C 0.92449 0.24879 0.85952 0.0
C2142 C 0.9256 0.25219 0.89703 0.0
H2143 H 0.91486 0.24409 0.08289 0.0
H2144 H 0.9175 0.24095 0.02164 0.0
H2145 H 0.92067 0.26964 0.9523 0.0
H2146 H 0.93064 0.26066 0.77756 0.0
H2147 H 0.93195 0.26654 0.83887 0.0
C2148 C 0.7521 0.66432 0.04699 0.0
C2149 C 0.75815 0.65835 0.05582 0.0
C2150 C 0.75167 0.66744 0.01216 0.0
C2151 C 0.76686 0.67153 0.92685 0.0
H2152 H 0.73763 0.66682 0.88688 0.0
C2153 C 0.7616 0.67291 0.77884 0.0
C2154 C 0.75707 0.68 0.76682 0.0
C2155 C 0.76077 0.66986 0.8141 0.0
C2156 C 0.74587 0.66825 0.89776 0.0
H2157 H 0.76859 0.65107 0.03493 0.0
H2158 H 0.76774 0.65632 0.97502 0.0
H2159 H 0.73853 0.66318 0.94914 0.0
H2160 H 0.74745 0.6888 0.78216 0.0
H2161 H 0.74594 0.68338 0.84364 0.0
H2162 H 0.77417 0.67645 0.87563 0.0
C2163 C 0.76345 0.65879 0.99472 0.0
C2164 C 0.74641 0.66622 0.93345 0.0
C2165 C 0.76387 0.6557 0.02924 0.0
C2166 C 0.75106 0.68335 0.79053 0.0
C2167 C 0.75017 0.68023 0.82579 0.0
C2168 C 0.76629 0.67347 0.89129 0.0
C2169 C 0.75735 0.66468 0.9856 0.0
C2170 C 0.75688 0.6677 0.94835 0.0
C2171 C 0.75534 0.67376 0.83816 0.0
C2172 C 0.75577 0.67172 0.87619 0.0
H2173 H 0.74758 0.66646 0.06683 0.0
H2174 H 0.74697 0.67205 1.00608 0.0
H2175 H 0.77515 0.67303 0.93751 0.0
H2176 H 0.76626 0.67015 0.76136 0.0
H2177 H 0.76465 0.66467 0.82272 0.0
C2178 C 0.08787 0.33227 0.72048 0.0
C2179 C 0.09108 0.32378 0.72861 0.0
C2180 C 0.08754 0.33539 0.68562 0.0
C2181 C 0.09921 0.33462 0.59817 0.0
H2182 H 0.07304 0.33753 0.56297 0.0
C2183 C 0.0937 0.33855 0.45124 0.0
C2184 C 0.09119 0.34735 0.44075 0.0
C2185 C 0.09263 0.33515 0.48625 0.0
C2186 C 0.08046 0.33683 0.57246 0.0
H2187 H 0.09649 0.31196 0.70642 0.0
H2188 H 0.09588 0.31732 0.64636 0.0
H2189 H 0.07383 0.33347 0.62492 0.0
H2190 H 0.08485 0.35892 0.45863 0.0
H2191 H 0.08306 0.35304 0.51959 0.0
H2192 H 0.10589 0.338 0.54605 0.0
C2193 C 0.09373 0.32169 0.66667 0.0
C2194 C 0.08092 0.33455 0.60797 0.0
C2195 C 0.09401 0.31856 0.70124 0.0
C2196 C 0.0869 0.35214 0.46576 0.0
C2197 C 0.08583 0.34874 0.50078 0.0
C2198 C 0.09875 0.33689 0.56281 0.0
C2199 C 0.0905 0.33013 0.65833 0.0
C2200 C 0.09026 0.3333 0.62116 0.0
C2201 C 0.08902 0.34046 0.51163 0.0
C2202 C 0.08932 0.33792 0.54939 0.0
H2203 H 0.08553 0.33643 0.74096 0.0
H2204 H 0.08509 0.34198 0.68004 0.0
H2205 H 0.10665 0.33395 0.60755 0.0
H2206 H 0.09696 0.33462 0.43268 0.0
H2207 H 0.09491 0.32855 0.49358 0.0
C2208 C 0.67552 0.76055 0.72834 0.0
C2209 C 0.68401 0.75761 0.7388 0.0
C2210 C 0.67214 0.7596 0.69334 0.0
C2211 C 0.67309 0.74687 0.60741 0.0
H2212 H 0.67108 0.77351 0.57166 0.0
C2213 C 0.66774 0.75361 0.45937 0.0
C2214 C 0.65942 0.75709 0.45167 0.0
C2215 C 0.67115 0.75348 0.49403 0.0
C2216 C 0.67152 0.76595 0.58123 0.0
H2217 H 0.6951 0.75071 0.72086 0.0
H2218 H 0.68925 0.7491 0.65994 0.0
H2219 H 0.67531 0.77285 0.63306 0.0
H2220 H 0.64829 0.76327 0.47437 0.0
H2221 H 0.65415 0.763 0.53404 0.0
H2222 H 0.66927 0.74001 0.55528 0.0
C2223 C 0.68517 0.75211 0.67875 0.0
C2224 C 0.67389 0.76555 0.61653 0.0
C2225 C 0.68855 0.75308 0.71375 0.0
C2226 C 0.65473 0.76056 0.47922 0.0
C2227 C 0.65815 0.76048 0.51357 0.0
C2228 C 0.6707 0.74728 0.57196 0.0
C2229 C 0.67717 0.75567 0.66794 0.0
C2230 C 0.67459 0.75595 0.6302 0.0
C2231 C 0.66638 0.75693 0.52152 0.0
C2232 C 0.66976 0.75678 0.55854 0.0
H2233 H 0.6718 0.76403 0.74691 0.0
H2234 H 0.66577 0.76218 0.68604 0.0
H2235 H 0.67352 0.73933 0.61709 0.0
H2236 H 0.67149 0.75086 0.43875 0.0
H2237 H 0.67757 0.75077 0.49929 0.0
C2238 C 0.24361 0.91955 0.72048 0.0
C2239 C 0.25358 0.92593 0.74161 0.0
C2240 C 0.24476 0.9189 0.68448 0.0
C2241 C 0.26672 0.93229 0.61087 0.0
H2242 H 0.24155 0.90611 0.56114 0.0
C2243 C 0.26703 0.93001 0.4594 0.0
C2244 C 0.26125 0.91887 0.44351 0.0
C2245 C 0.26599 0.93113 0.49547 0.0
C2246 C 0.24885 0.9134 0.57429 0.0
H2247 H 0.2726 0.93642 0.74172 0.0
H2248 H 0.27478 0.93449 0.67919 0.0
H2249 H 0.24072 0.90676 0.62345 0.0
H2250 H 0.25017 0.90014 0.45298 0.0
H2251 H 0.24903 0.9019 0.51527 0.0
H2252 H 0.27537 0.93833 0.56171 0.0
C2253 C 0.26597 0.93042 0.68997 0.0
C2254 C 0.24821 0.91395 0.61054 0.0
C2255 C 0.26477 0.93141 0.72602 0.0
C2256 C 0.25452 0.90889 0.46434 0.0
C2257 C 0.25381 0.90995 0.50036 0.0
C2258 C 0.26757 0.93152 0.5746 0.0
C2259 C 0.25596 0.92425 0.66844 0.0
C2260 C 0.25704 0.92347 0.62958 0.0
C2261 C 0.25946 0.92109 0.51671 0.0
C2262 C 0.25861 0.92208 0.55557 0.0
H2263 H 0.23483 0.91545 0.7316 0.0
H2264 H 0.23675 0.91441 0.66933 0.0
H2265 H 0.27366 0.93991 0.62401 0.0
H2266 H 0.27231 0.93785 0.44393 0.0
H2267 H 0.27031 0.93991 0.50648 0.0
C2268 C 0.67721 0.92072 0.2225 0.0
C2269 C 0.6804 0.93117 0.24092 0.0
C2270 C 0.67494 0.91999 0.1867 0.0
C2271 C 0.68047 0.93924 0.10881 0.0
H2272 H 0.65938 0.90935 0.06456 0.0
C2273 C 0.66598 0.93294 0.96258 0.0
C2274 C 0.66675 0.92396 0.9448 0.0
C2275 C 0.66811 0.93453 0.99851 0.0
C2276 C 0.66534 0.91774 0.07659 0.0
H2277 H 0.68306 0.94884 0.23652 0.0
H2278 H 0.67851 0.9474 0.17448 0.0
H2279 H 0.66092 0.91044 0.12787 0.0
H2280 H 0.67076 0.90984 0.95071 0.0
H2281 H 0.67425 0.9125 0.01344 0.0
H2282 H 0.68452 0.94653 0.05711 0.0
C2283 C 0.67821 0.93989 0.1873 0.0
C2284 C 0.66629 0.91839 0.11294 0.0
C2285 C 0.68069 0.94068 0.22304 0.0
C2286 C 0.67013 0.91688 0.96352 0.0
C2287 C 0.67204 0.91832 0.99949 0.0
C2288 C 0.67934 0.93863 0.07244 0.0
C2289 C 0.67558 0.92963 0.16839 0.0
C2290 C 0.67399 0.92911 0.12965 0.0
C2291 C 0.67085 0.92702 0.01743 0.0
C2292 C 0.67189 0.92784 0.05599 0.0
H2293 H 0.67702 0.91326 0.23536 0.0
H2294 H 0.67314 0.912 0.17325 0.0
H2295 H 0.68666 0.94762 0.12042 0.0
H2296 H 0.66339 0.93853 0.94891 0.0
H2297 H 0.66713 0.9413 0.01175 0.0
C2298 C 0.07015 0.74122 0.22406 0.0
C2299 C 0.07975 0.75035 0.24184 0.0
C2300 C 0.07084 0.73956 0.18824 0.0
C2301 C 0.09223 0.74893 0.11359 0.0
H2302 H 0.06418 0.73955 0.05806 0.0
C2303 C 0.09394 0.75469 0.96448 0.0
C2304 C 0.08685 0.74429 0.94559 0.0
C2305 C 0.09242 0.7551 1.00044 0.0
C2306 C 0.07206 0.74213 0.07332 0.0
H2307 H 0.09772 0.76475 0.236 0.0
H2308 H 0.09881 0.76217 0.17379 0.0
H2309 H 0.06311 0.7405 0.12146 0.0
H2310 H 0.07214 0.72641 0.94936 0.0
H2311 H 0.06926 0.7273 0.01219 0.0
H2312 H 0.10123 0.75102 0.0651 0.0
C2313 C 0.09081 0.75603 0.18737 0.0
C2314 C 0.07146 0.74259 0.10972 0.0
C2315 C 0.09018 0.75755 0.22322 0.0
C2316 C 0.07775 0.73454 0.96316 0.0
C2317 C 0.07609 0.73504 0.99908 0.0
C2318 C 0.09287 0.74869 0.07724 0.0
C2319 C 0.08109 0.74711 0.16918 0.0
C2320 C 0.08156 0.74605 0.13043 0.0
C2321 C 0.08364 0.74521 0.01819 0.0
C2322 C 0.08281 0.74535 0.05675 0.0
H2323 H 0.062 0.73549 0.23769 0.0
H2324 H 0.06326 0.73242 0.17548 0.0
H2325 H 0.10015 0.75136 0.12843 0.0
H2326 H 0.10105 0.76236 0.95185 0.0
H2327 H 0.09827 0.7631 0.01455 0.0
C2328 C 0.23635 0.33767 0.21705 0.0
C2329 C 0.2434 0.33459 0.23698 0.0
C2330 C 0.23772 0.33892 0.18089 0.0
C2331 C 0.25023 0.33053 0.10596 0.0
H2332 H 0.24244 0.35142 0.05564 0.0
C2333 C 0.2571 0.34089 0.95637 0.0
C2334 C 0.24719 0.33984 0.93883 0.0
C2335 C 0.25703 0.33981 0.99274 0.0
C2336 C 0.2446 0.34551 0.0694 0.0
H2337 H 0.25783 0.33097 0.23474 0.0
H2338 H 0.26064 0.33372 0.17184 0.0
H2339 H 0.24255 0.3516 0.11912 0.0
H2340 H 0.22932 0.3365 0.94569 0.0
H2341 H 0.22934 0.33487 0.00907 0.0
H2342 H 0.25263 0.32479 0.05568 0.0
C2343 C 0.25373 0.33475 0.18391 0.0
C2344 C 0.24461 0.34556 0.10584 0.0
C2345 C 0.25222 0.3333 0.22008 0.0
C2346 C 0.23709 0.3373 0.95831 0.0
C2347 C 0.23711 0.33645 0.99463 0.0
C2348 C 0.25044 0.33067 0.06943 0.0
C2349 C 0.24634 0.33734 0.16365 0.0
C2350 C 0.24722 0.33793 0.12473 0.0
C2351 C 0.24714 0.33791 0.01222 0.0
C2352 C 0.24744 0.33803 0.05086 0.0
H2353 H 0.22938 0.33859 0.22915 0.0
H2354 H 0.23169 0.34069 0.16641 0.0
H2355 H 0.25211 0.32439 0.11935 0.0
H2356 H 0.26503 0.34286 0.9421 0.0
H2357 H 0.26488 0.34098 1.00575 0.0
C2358 C 0.89555 0.65543 0.53865 0.0
C2359 C 0.90385 0.65798 0.56527 0.0
C2360 C 0.89912 0.65821 0.50402 0.0
C2361 C 0.92369 0.66454 0.44389 0.0
H2362 H 0.90694 0.67489 0.38327 0.0
C2363 C 0.9376 0.68147 0.30153 0.0
C2364 C 0.92847 0.67808 0.27703 0.0
C2365 C 0.93502 0.67836 0.33668 0.0
C2366 C 0.91162 0.67187 0.39976 0.0
H2367 H 0.92249 0.66567 0.57635 0.0
H2368 H 0.9288 0.67078 0.51562 0.0
H2369 H 0.90208 0.67185 0.44499 0.0
H2370 H 0.9095 0.66808 0.26996 0.0
H2371 H 0.90504 0.66265 0.33117 0.0
H2372 H 0.93336 0.66478 0.39834 0.0
C2373 C 0.91948 0.66643 0.52163 0.0
C2374 C 0.90884 0.67014 0.4352 0.0
C2375 C 0.91588 0.6636 0.55646 0.0
C2376 C 0.91675 0.67091 0.28811 0.0
C2377 C 0.91418 0.66786 0.32324 0.0
C2378 C 0.92654 0.66637 0.40835 0.0
C2379 C 0.91112 0.66369 0.49496 0.0
C2380 C 0.91472 0.6663 0.45768 0.0
C2381 C 0.92326 0.67185 0.34807 0.0
C2382 C 0.92042 0.66991 0.38585 0.0
H2383 H 0.8862 0.65105 0.54438 0.0
H2384 H 0.89241 0.65577 0.48422 0.0
H2385 H 0.92832 0.66146 0.46035 0.0
H2386 H 0.94673 0.68697 0.29387 0.0
H2387 H 0.94221 0.68156 0.3552 0.0
C2388 C 0.34779 0.25689 0.55524 0.0
C2389 C 0.35956 0.26361 0.56623 0.0
C2390 C 0.34492 0.25659 0.51983 0.0
C2391 C 0.35911 0.26159 0.43285 0.0
H2392 H 0.33005 0.25903 0.39908 0.0
C2393 C 0.34964 0.26141 0.28543 0.0
C2394 C 0.33831 0.25286 0.27442 0.0
C2395 C 0.35219 0.26365 0.32105 0.0
C2396 C 0.33818 0.25968 0.40814 0.0
H2397 H 0.37739 0.27591 0.54934 0.0
H2398 H 0.37238 0.27568 0.48832 0.0
H2399 H 0.33432 0.26129 0.46154 0.0
H2400 H 0.32069 0.24015 0.29231 0.0
H2401 H 0.32515 0.24401 0.35401 0.0
H2402 H 0.36296 0.25991 0.37963 0.0
C2403 C 0.36539 0.2703 0.50651 0.0
C2404 C 0.34061 0.26095 0.44396 0.0
C2405 C 0.36826 0.2705 0.5416 0.0
C2406 C 0.32954 0.24678 0.29979 0.0
C2407 C 0.33206 0.24905 0.33525 0.0
C2408 C 0.35671 0.26037 0.39713 0.0
C2409 C 0.35376 0.26307 0.4949 0.0
C2410 C 0.35111 0.2619 0.45679 0.0
C2411 C 0.34343 0.25744 0.34639 0.0
C2412 C 0.3462 0.25934 0.38431 0.0
H2413 H 0.34092 0.25146 0.57365 0.0
H2414 H 0.33587 0.25089 0.51183 0.0
H2415 H 0.36716 0.26202 0.44175 0.0
H2416 H 0.35658 0.26628 0.26661 0.0
H2417 H 0.36101 0.27026 0.32877 0.0
C2418 C 0.7566 0.09401 0.54237 0.0
C2419 C 0.76051 0.10552 0.55451 0.0
C2420 C 0.75618 0.09176 0.50644 0.0
C2421 C 0.75502 0.10473 0.42151 0.0
H2422 H 0.76571 0.08442 0.38228 0.0
C2423 C 0.7674 0.10626 0.27662 0.0
C2424 C 0.7648 0.09569 0.25985 0.0
C2425 C 0.76521 0.10638 0.31227 0.0
C2426 C 0.76251 0.08997 0.39285 0.0
H2427 H 0.76748 0.12372 0.53851 0.0
H2428 H 0.76691 0.11985 0.47657 0.0
H2429 H 0.76541 0.08653 0.44552 0.0
H2430 H 0.75736 0.07684 0.26725 0.0
H2431 H 0.75347 0.07706 0.32939 0.0
H2432 H 0.75233 0.10837 0.36896 0.0
C2433 C 0.76389 0.1125 0.49448 0.0
C2434 C 0.76235 0.09118 0.42911 0.0
C2435 C 0.7643 0.11473 0.53013 0.0
C2436 C 0.75948 0.08515 0.27929 0.0
C2437 C 0.75734 0.08528 0.315 0.0
C2438 C 0.75519 0.10354 0.38536 0.0
C2439 C 0.75963 0.10098 0.48209 0.0
C2440 C 0.75883 0.09877 0.44383 0.0
C2441 C 0.76039 0.09593 0.33205 0.0
C2442 C 0.75914 0.09632 0.37054 0.0
H2443 H 0.7536 0.08673 0.56052 0.0
H2444 H 0.75285 0.08278 0.49772 0.0
H2445 H 0.75198 0.11043 0.432 0.0
H2446 H 0.77153 0.11454 0.2625 0.0
H2447 H 0.76776 0.11476 0.32461 0.0
C2448 C 1.003 0.4249 0.11756 0.0
C2449 C 1.00001 0.41458 0.0987 0.0
C2450 C 1.00546 0.42558 0.15327 0.0
C2451 C 1.0006 0.40615 0.23024 0.0
H2452 H 0.02127 0.43597 0.27551 0.0
C2453 C 0.01474 0.41132 0.37637 0.0
C2454 C 0.01411 0.42025 0.39503 0.0
C2455 C 0.01272 0.41012 0.34033 0.0
C2456 C 0.01541 0.42759 0.26322 0.0
H2457 H 0.99795 0.39712 0.1022 0.0
H2458 H 1.00279 0.3985 0.16399 0.0
H2459 H 0.01955 0.43517 0.2122 0.0
H2460 H 0.01057 0.43471 0.39045 0.0
H2461 H 0.00725 0.43271 0.32756 0.0
H2462 H 0.99678 0.39859 0.28158 0.0
C2463 C 1.0028 0.40594 0.15162 0.0
C2464 C 0.01438 0.42712 0.22686 0.0
C2465 C 1.00016 0.40519 0.116 0.0
C2466 C 0.01109 0.42771 0.37697 0.0
C2467 C 0.00928 0.42664 0.34089 0.0
C2468 C 1.0018 0.4066 0.26659 0.0
C2469 C 1.00518 0.41603 0.17104 0.0
C2470 C 1.00685 0.41641 0.20977 0.0
C2471 C 0.01025 0.41795 0.32211 0.0
C2472 C 0.00911 0.41735 0.28348 0.0
H2473 H 1.00287 0.43227 0.10518 0.0
H2474 H 0.00708 0.43346 0.16712 0.0
H2475 H 0.99453 0.39778 0.21835 0.0
H2476 H 0.01706 0.40544 0.38947 0.0
H2477 H 0.01354 0.40335 0.32651 0.0
C2478 C 0.60481 0.58959 0.13092 0.0
C2479 C 0.59555 0.58414 0.10668 0.0
C2480 C 0.60247 0.59037 0.16614 0.0
C2481 C 0.57865 0.57509 0.23053 0.0
H2482 H 0.5983 0.60168 0.29022 0.0
C2483 C 0.56472 0.57896 0.36962 0.0
C2484 C 0.57326 0.58358 0.39613 0.0
C2485 C 0.56796 0.57899 0.33497 0.0
C2486 C 0.59283 0.59412 0.27399 0.0
H2487 H 0.5766 0.5759 0.10024 0.0
H2488 H 0.57256 0.57742 0.16154 0.0
H2489 H 0.60275 0.60268 0.22794 0.0
H2490 H 0.59195 0.59168 0.40699 0.0
H2491 H 0.59766 0.59168 0.34597 0.0
H2492 H 0.56874 0.56652 0.27635 0.0
C2493 C 0.58162 0.58087 0.15341 0.0
C2494 C 0.59535 0.59471 0.23825 0.0
C2495 C 0.58395 0.5801 0.11817 0.0
C2496 C 0.58516 0.58802 0.38718 0.0
C2497 C 0.58843 0.58811 0.35223 0.0
C2498 C 0.57615 0.5745 0.26613 0.0
C2499 C 0.59082 0.5857 0.17801 0.0
C2500 C 0.58821 0.58524 0.21602 0.0
C2501 C 0.57985 0.58365 0.3257 0.0
C2502 C 0.58313 0.58404 0.28829 0.0
H2503 H 0.61385 0.59282 0.12301 0.0
H2504 H 0.60977 0.59412 0.18431 0.0
H2505 H 0.57315 0.56751 0.21441 0.0
H2506 H 0.55547 0.57547 0.37553 0.0
H2507 H 0.56112 0.57563 0.31527 0.0
C2508 C 0.42567 0.98634 0.35853 0.0
C2509 C 0.4234 0.99225 0.38538 0.0
C2510 C 0.42566 0.98939 0.32372 0.0
C2511 C 0.41449 1.00335 0.26354 0.0
H2512 H 0.4391 0.00524 0.20296 0.0
C2513 C 0.42182 0.02104 0.12146 0.0
C2514 C 0.42611 0.01615 0.09677 0.0
C2515 C 0.42038 0.01749 0.15639 0.0
C2516 C 0.43204 1.00456 0.2193 0.0
H2517 H 0.41928 0.00601 0.39661 0.0
H2518 H 0.41925 0.01139 0.33524 0.0
H2519 H 0.43929 1.00106 0.26464 0.0
H2520 H 0.43144 1.00307 0.08908 0.0
H2521 H 0.42867 0.99669 0.14978 0.0
H2522 H 0.40722 0.00681 0.218 0.0
C2523 C 0.421 1.00434 0.34142 0.0
C2524 C 0.4322 1.00223 0.25477 0.0
C2525 C 0.4211 1.00133 0.37652 0.0
C2526 C 0.42821 0.00709 0.10742 0.0
C2527 C 0.42673 1.00351 0.14233 0.0
C2528 C 0.41431 0.00565 0.22791 0.0
C2529 C 0.42333 0.99842 0.31466 0.0
C2530 C 0.42339 1.00152 0.2773 0.0
C2531 C 0.42315 0.00893 0.16748 0.0
C2532 C 0.42306 0.00622 0.20529 0.0
H2533 H 0.42746 0.97929 0.36431 0.0
H2534 H 0.42731 0.98454 0.30379 0.0
H2535 H 0.40751 1.00274 0.28015 0.0
H2536 H 0.4201 0.02803 0.11422 0.0
H2537 H 0.41766 0.0219 0.17496 0.0
C2538 C 0.5765 0.01054 0.90634 0.0
C2539 C 0.58207 0.00543 0.92482 0.0
C2540 C 0.57826 0.01253 0.87046 0.0
C2541 C 0.58751 1.00211 0.79298 0.0
H2542 H 0.58459 0.02694 0.74732 0.0
C2543 C 0.59144 0.01135 0.64229 0.0
C2544 C 0.58209 0.01245 0.62842 0.0
C2545 C 0.59252 0.01057 0.67846 0.0
C2546 C 0.58543 0.01997 0.75976 0.0
H2547 H 0.59445 0.99906 0.92046 0.0
H2548 H 0.59788 1.00294 0.85809 0.0
H2549 H 0.58553 0.02661 0.81071 0.0
H2550 H 0.56634 0.01318 0.64173 0.0
H2551 H 0.56837 0.01202 0.70439 0.0
H2552 H 0.58754 0.99563 0.74154 0.0
C2553 C 0.59184 0.00507 0.87107 0.0
C2554 C 0.5859 0.01972 0.79611 0.0
C2555 C 0.58996 1.00296 0.90694 0.0
C2556 C 0.57368 0.01238 0.6514 0.0
C2557 C 0.57486 0.01179 0.68736 0.0
C2558 C 0.58722 1.00248 0.75651 0.0
C2559 C 0.58577 0.0096 0.85215 0.0
C2560 C 0.58666 0.01063 0.81333 0.0
C2561 C 0.58439 0.01108 0.70129 0.0
C2562 C 0.58589 0.01125 0.73964 0.0
H2563 H 0.57029 0.01247 0.91918 0.0
H2564 H 0.57327 0.01586 0.85692 0.0
H2565 H 0.58794 0.99488 0.80516 0.0
H2566 H 0.59807 0.01139 0.62531 0.0
H2567 H 0.59994 0.01 0.68862 0.0
C2568 C 0.9842 0.56099 0.66091 0.0
C2569 C 0.99011 0.56995 0.63604 0.0
C2570 C 0.98619 0.56338 0.69644 0.0
C2571 C 0.00712 0.58442 0.76046 0.0
H2572 H 0.98012 0.56876 0.82227 0.0
C2573 C 0.0114 0.59142 0.90988 0.0
C2574 C 1.00594 0.58101 0.92989 0.0
C2575 C 0.00896 0.59118 0.87428 0.0
C2576 C 0.98776 0.57316 0.8054 0.0
H2577 H 1.00296 0.58847 0.62908 0.0
H2578 H 1.00642 0.5927 0.69164 0.0
H2579 H 0.97727 0.56644 0.7594 0.0
H2580 H 0.99322 0.56229 0.92839 0.0
H2581 H 0.98891 0.56189 0.86645 0.0
H2582 H 0.01761 0.59104 0.80666 0.0
C2583 C 1.00028 0.58378 0.68341 0.0
C2584 C 0.98613 0.57182 0.76933 0.0
C2585 C 0.99829 0.58136 0.6476 0.0
C2586 C 0.99757 0.57047 0.91381 0.0
C2587 C 0.99507 0.57025 0.87828 0.0
C2588 C 0.00874 0.5858 0.79661 0.0
C2589 C 0.99411 0.57482 0.70825 0.0
C2590 C 0.99582 0.57722 0.74641 0.0
C2591 C 1.00093 0.58054 0.85792 0.0
C2592 C 0.99909 0.58 0.81951 0.0
H2593 H 0.97793 0.55207 0.65298 0.0
H2594 H 0.98151 0.5562 0.71471 0.0
H2595 H 0.01478 0.58863 0.74362 0.0
H2596 H 0.01791 0.5997 0.92138 0.0
H2597 H 0.0135 0.59929 0.85942 0.0
C2598 C 0.42663 0.41842 0.64349 0.0
C2599 C 0.43796 0.42683 0.63167 0.0
C2600 C 0.42403 0.41708 0.67934 0.0
C2601 C 0.43884 0.42099 0.76281 0.0
H2602 H 0.41314 0.42299 0.80607 0.0
C2603 C 0.43977 0.4326 0.90703 0.0
C2604 C 0.42923 0.42816 0.92608 0.0
C2605 C 0.43958 0.43015 0.87154 0.0
C2606 C 0.42022 0.42215 0.79442 0.0
H2607 H 0.45519 0.44081 0.64823 0.0
H2608 H 0.45069 0.43836 0.71008 0.0
H2609 H 0.41474 0.42325 0.74239 0.0
H2610 H 0.41021 0.41715 0.923 0.0
H2611 H 0.4099 0.41267 0.86097 0.0
H2612 H 0.44443 0.41994 0.81434 0.0
C2613 C 0.44387 0.43274 0.69182 0.0
C2614 C 0.42114 0.42234 0.75795 0.0
C2615 C 0.44641 0.43416 0.65628 0.0
C2616 C 0.4185 0.4207 0.90911 0.0
C2617 C 0.41831 0.41823 0.87346 0.0
C2618 C 0.43786 0.42066 0.79908 0.0
C2619 C 0.43276 0.42403 0.70381 0.0
C2620 C 0.43067 0.42214 0.7419 0.0
C2621 C 0.42885 0.42313 0.85406 0.0
C2622 C 0.42877 0.42162 0.81546 0.0
H2623 H 0.41993 0.41263 0.62522 0.0
H2624 H 0.41538 0.41034 0.68798 0.0
H2625 H 0.44617 0.42061 0.75104 0.0
H2626 H 0.44819 0.43839 0.91919 0.0
H2627 H 0.44787 0.43422 0.85752 0.0
loop_
_geom_bond_atom_site_label_1
_geom_bond_atom_site_label_2
_geom_bond_distance
_geom_bond_site_symmetry_2
_ccdc_geom_bond_type
Mg0 O7 2.141 . S
Mg0 O8 2.048 . S
Mg0 O9 2.048 . S
Mg0 O12 2.141 . S
C1 O2 1.313 . S
C1 O8 1.195 . S
O2 C1 1.313 . S
C3 O4 1.245 . S
C3 O12 1.289 . S
O4 C3 1.245 . S
C5 O6 1.245 . S
C5 O7 1.289 . S
O6 C5 1.245 . S
O7 Mg0 2.141 . S
O7 C5 1.289 . S
O8 Mg0 2.048 . S
O8 C1 1.195 . S
O9 Mg0 2.048 . S
O9 C10 1.195 . S
C10 O9 1.195 . S
C10 O11 1.313 . S
O11 C10 1.313 . S
O12 Mg0 2.141 . S
O12 C3 1.289 . S
Mg13 O20 2.141 . S
Mg13 O21 2.048 . S
Mg13 O22 2.048 . S
Mg13 O25 2.141 . S
C14 O15 1.313 . S
C14 O21 1.195 . S
O15 C14 1.313 . S
C16 O17 1.245 . S
C16 O25 1.289 . S
O17 C16 1.245 . S
C18 O19 1.245 . S
C18 O20 1.289 . S
O19 C18 1.245 . S
O20 Mg13 2.141 . S
O20 C18 1.289 . S
O21 Mg13 2.048 . S
O21 C14 1.195 . S
O22 Mg13 2.048 . S
O22 C23 1.195 . S
C23 O22 1.195 . S
C23 O24 1.313 . S
O24 C23 1.313 . S
O25 Mg13 2.141 . S
O25 C16 1.289 . S
Mg26 O33 2.141 . S
Mg26 O34 2.048 . S
Mg26 O35 2.048 . S
Mg26 O38 2.141 . S
C27 O28 1.313 . S
C27 O34 1.195 . S
O28 C27 1.313 . S
C29 O30 1.245 . S
C29 O38 1.289 . S
O30 C29 1.245 . S
C31 O32 1.245 . S
C31 O33 1.289 . S
O32 C31 1.245 . S
O33 Mg26 2.141 . S
O33 C31 1.289 . S
O34 Mg26 2.048 . S
O34 C27 1.195 . S
O35 Mg26 2.048 . S
O35 C36 1.195 . S
C36 O35 1.195 . S
C36 O37 1.313 . S
O37 C36 1.313 . S
O38 Mg26 2.141 . S
O38 C29 1.289 . S
Mg39 O46 2.141 . S
Mg39 O47 2.048 . S
Mg39 O48 2.048 . S
Mg39 O51 2.141 . S
C40 O41 1.313 . S
C40 O47 1.195 . S
O41 C40 1.313 . S
C42 O43 1.245 . S
C42 O51 1.289 . S
O43 C42 1.245 . S
C44 O45 1.245 . S
C44 O46 1.289 . S
O45 C44 1.245 . S
O46 Mg39 2.141 . S
O46 C44 1.289 . S
O47 Mg39 2.048 . S
O47 C40 1.195 . S
O48 Mg39 2.048 . S
O48 C49 1.195 . S
C49 O48 1.195 . S
C49 O50 1.313 . S
O50 C49 1.313 . S
O51 Mg39 2.141 . S
O51 C42 1.289 . S
Mg52 O59 2.141 . S
Mg52 O60 2.048 . S
Mg52 O61 2.048 . S
Mg52 O64 2.141 . S
C53 O54 1.313 . S
C53 O60 1.195 . S
O54 C53 1.313 . S
C55 O56 1.245 . S
C55 O64 1.289 . S
O56 C55 1.245 . S
C57 O58 1.245 . S
C57 O59 1.289 . S
O58 C57 1.245 . S
O59 Mg52 2.141 . S
O59 C57 1.289 . S
O60 Mg52 2.048 . S
O60 C53 1.195 . S
O61 Mg52 2.048 . S
O61 C62 1.195 . S
C62 O61 1.195 . S
C62 O63 1.313 . S
O63 C62 1.313 . S
O64 Mg52 2.141 . S
O64 C55 1.289 . S
Mg65 O72 2.141 . S
Mg65 O73 2.048 . S
Mg65 O74 2.048 . S
Mg65 O77 2.141 . S
C66 O67 1.313 . S
C66 O73 1.195 . S
O67 C66 1.313 . S
C68 O69 1.245 . S
C68 O77 1.289 . S
O69 C68 1.245 . S
C70 O71 1.245 . S
C70 O72 1.289 . S
O71 C70 1.245 . S
O72 Mg65 2.141 . S
O72 C70 1.289 . S
O73 Mg65 2.048 . S
O73 C66 1.195 . S
O74 Mg65 2.048 . S
O74 C75 1.195 . S
C75 O74 1.195 . S
C75 O76 1.313 . S
O76 C75 1.313 . S
O77 Mg65 2.141 . S
O77 C68 1.289 . S
Mg78 O85 2.141 . S
Mg78 O86 2.048 . S
Mg78 O87 2.048 . S
Mg78 O90 2.141 . S
C79 O80 1.313 . S
C79 O86 1.195 . S
O80 C79 1.313 . S
C81 O82 1.245 . S
C81 O90 1.289 . S
O82 C81 1.245 . S
C83 O84 1.245 . S
C83 O85 1.289 . S
O84 C83 1.245 . S
O85 Mg78 2.141 . S
O85 C83 1.289 . S
O86 Mg78 2.048 . S
O86 C79 1.195 . S
O87 Mg78 2.048 . S
O87 C88 1.195 . S
C88 O87 1.195 . S
C88 O89 1.313 . S
O89 C88 1.313 . S
O90 Mg78 2.141 . S
O90 C81 1.289 . S
Mg91 O98 2.141 . S
Mg91 O99 2.048 . S
Mg91 O100 2.048 . S
Mg91 O103 2.141 . S
C92 O93 1.313 . S
C92 O99 1.195 . S
O93 C92 1.313 . S
C94 O95 1.245 . S
C94 O103 1.289 . S
O95 C94 1.245 . S
C96 O97 1.245 . S
C96 O98 1.289 . S
O97 C96 1.245 . S
O98 Mg91 2.141 . S
O98 C96 1.289 . S
O99 Mg91 2.048 . S
O99 C92 1.195 . S
O100 Mg91 2.048 . S
O100 C101 1.195 . S
C101 O100 1.195 . S
C101 O102 1.313 . S
O102 C101 1.313 . S
O103 Mg91 2.141 . S
O103 C94 1.289 . S
Mg104 O111 2.141 . S
Mg104 O112 2.048 . S
Mg104 O113 2.048 . S
Mg104 O116 2.141 . S
C105 O106 1.313 . S
C105 O112 1.195 . S
O106 C105 1.313 . S
C107 O108 1.245 . S
C107 O116 1.289 . S
O108 C107 1.245 . S
C109 O110 1.245 . S
C109 O111 1.289 . S
O110 C109 1.245 . S
O111 Mg104 2.141 . S
O111 C109 1.289 . S
O112 Mg104 2.048 . S
O112 C105 1.195 . S
O113 Mg104 2.048 . S
O113 C114 1.195 . S
C114 O113 1.195 . S
C114 O115 1.313 . S
O115 C114 1.313 . S
O116 Mg104 2.141 . S
O116 C107 1.289 . S
Mg117 O124 2.141 . S
Mg117 O125 2.048 . S
Mg117 O126 2.048 . S
Mg117 O129 2.141 . S
C118 O119 1.313 . S
C118 O125 1.195 . S
O119 C118 1.313 . S
C120 O121 1.245 . S
C120 O129 1.289 . S
O121 C120 1.245 . S
C122 O123 1.245 . S
C122 O124 1.289 . S
O123 C122 1.245 . S
O124 Mg117 2.141 . S
O124 C122 1.289 . S
O125 Mg117 2.048 . S
O125 C118 1.195 . S
O126 Mg117 2.048 . S
O126 C127 1.195 . S
C127 O126 1.195 . S
C127 O128 1.313 . S
O128 C127 1.313 . S
O129 Mg117 2.141 . S
O129 C120 1.289 . S
Mg130 O137 2.141 . S
Mg130 O138 2.048 . S
Mg130 O139 2.048 . S
Mg130 O142 2.141 . S
C131 O132 1.313 . S
C131 O138 1.195 . S
O132 C131 1.313 . S
C133 O134 1.245 . S
C133 O142 1.289 . S
O134 C133 1.245 . S
C135 O136 1.245 . S
C135 O137 1.289 . S
O136 C135 1.245 . S
O137 Mg130 2.141 . S
O137 C135 1.289 . S
O138 Mg130 2.048 . S
O138 C131 1.195 . S
O139 Mg130 2.048 . S
O139 C140 1.195 . S
C140 O139 1.195 . S
C140 O141 1.313 . S
O141 C140 1.313 . S
O142 Mg130 2.141 . S
O142 C133 1.289 . S
Mg143 O150 2.141 . S
Mg143 O151 2.048 . S
Mg143 O152 2.048 . S
Mg143 O155 2.141 . S
C144 O145 1.313 . S
C144 O151 1.195 . S
O145 C144 1.313 . S
C146 O147 1.245 . S
C146 O155 1.289 . S
O147 C146 1.245 . S
C148 O149 1.245 . S
C148 O150 1.289 . S
O149 C148 1.245 . S
O150 Mg143 2.141 . S
O150 C148 1.289 . S
O151 Mg143 2.048 . S
O151 C144 1.195 . S
O152 Mg143 2.048 . S
O152 C153 1.195 . S
C153 O152 1.195 . S
C153 O154 1.313 . S
O154 C153 1.313 . S
O155 Mg143 2.141 . S
O155 C146 1.289 . S
Mg156 O163 2.141 . S
Mg156 O164 2.048 . S
Mg156 O165 2.048 . S
Mg156 O168 2.141 . S
C157 O158 1.313 . S
C157 O164 1.195 1_655 S
O158 C157 1.313 . S
C159 O160 1.245 . S
C159 O168 1.289 . S
O160 C159 1.245 . S
C161 O162 1.245 1_455 S
C161 O163 1.289 . S
O162 C161 1.245 1_655 S
O163 Mg156 2.141 . S
O163 C161 1.289 . S
O164 Mg156 2.048 . S
O164 C157 1.195 1_455 S
O165 Mg156 2.048 . S
O165 C166 1.195 . S
C166 O165 1.195 . S
C166 O167 1.313 1_455 S
O167 C166 1.313 1_655 S
O168 Mg156 2.141 . S
O168 C159 1.289 . S
Mg169 O176 2.141 . S
Mg169 O177 2.048 . S
Mg169 O178 2.048 . S
Mg169 O181 2.141 . S
C170 O171 1.313 . S
C170 O177 1.195 . S
O171 C170 1.313 . S
C172 O173 1.245 . S
C172 O181 1.289 . S
O173 C172 1.245 . S
C174 O175 1.245 . S
C174 O176 1.289 . S
O175 C174 1.245 . S
O176 Mg169 2.141 . S
O176 C174 1.289 . S
O177 Mg169 2.048 . S
O177 C170 1.195 . S
O178 Mg169 2.048 . S
O178 C179 1.195 . S
C179 O178 1.195 . S
C179 O180 1.313 . S
O180 C179 1.313 . S
O181 Mg169 2.141 . S
O181 C172 1.289 . S
Mg182 O189 2.141 . S
Mg182 O190 2.048 . S
Mg182 O191 2.048 . S
Mg182 O194 2.141 . S
C183 O184 1.313 . S
C183 O190 1.195 1_545 S
O184 C183 1.313 . S
C185 O186 1.245 . S
C185 O194 1.289 . S
O186 C185 1.245 . S
C187 O188 1.245 1_565 S
C187 O189 1.289 . S
O188 C187 1.245 1_545 S
O189 Mg182 2.141 . S
O189 C187 1.289 . S
O190 Mg182 2.048 . S
O190 C183 1.195 1_565 S
O191 Mg182 2.048 . S
O191 C192 1.195 . S
C192 O191 1.195 . S
C192 O193 1.313 1_565 S
O193 C192 1.313 1_545 S
O194 Mg182 2.141 . S
O194 C185 1.289 . S
Mg195 O202 2.141 . S
Mg195 O203 2.048 . S
Mg195 O204 2.048 . S
Mg195 O207 2.141 . S
C196 O197 1.313 . S
C196 O203 1.195 . S
O197 C196 1.313 . S
C198 O199 1.245 . S
C198 O207 1.289 . S
O199 C198 1.245 . S
C200 O201 1.245 . S
C200 O202 1.289 . S
O201 C200 1.245 . S
O202 Mg195 2.141 . S
O202 C200 1.289 . S
O203 Mg195 2.048 . S
O203 C196 1.195 . S
O204 Mg195 2.048 . S
O204 C205 1.195 . S
C205 O204 1.195 . S
C205 O206 1.313 . S
O206 C205 1.313 . S
O207 Mg195 2.141 . S
O207 C198 1.289 . S
Mg208 O215 2.141 . S
Mg208 O216 2.048 . S
Mg208 O217 2.048 . S
Mg208 O220 2.141 . S
C209 O210 1.313 . S
C209 O216 1.195 . S
O210 C209 1.313 . S
C211 O212 1.245 . S
C211 O220 1.289 . S
O212 C211 1.245 . S
C213 O214 1.245 . S
C213 O215 1.289 . S
O214 C213 1.245 . S
O215 Mg208 2.141 . S
O215 C213 1.289 . S
O216 Mg208 2.048 . S
O216 C209 1.195 . S
O217 Mg208 2.048 . S
O217 C218 1.195 . S
C218 O217 1.195 . S
C218 O219 1.313 . S
O219 C218 1.313 . S
O220 Mg208 2.141 . S
O220 C211 1.289 . S
Mg221 O228 2.141 . S
Mg221 O229 2.048 . S
Mg221 O230 2.048 . S
Mg221 O233 2.141 . S
C222 O223 1.313 . S
C222 O229 1.195 . S
O223 C222 1.313 . S
C224 O225 1.245 . S
C224 O233 1.289 . S
O225 C224 1.245 . S
C226 O227 1.245 . S
C226 O228 1.289 . S
O227 C226 1.245 . S
O228 Mg221 2.141 . S
O228 C226 1.289 . S
O229 Mg221 2.048 . S
O229 C222 1.195 . S
O230 Mg221 2.048 . S
O230 C231 1.195 . S
C231 O230 1.195 . S
C231 O232 1.313 . S
O232 C231 1.313 . S
O233 Mg221 2.141 . S
O233 C224 1.289 . S
Mg234 O241 2.141 . S
Mg234 O242 2.048 . S
Mg234 O243 2.048 . S
Mg234 O246 2.141 . S
C235 O236 1.313 . S
C235 O242 1.195 . S
O236 C235 1.313 . S
C237 O238 1.245 . S
C237 O246 1.289 . S
O238 C237 1.245 . S
C239 O240 1.245 . S
C239 O241 1.289 . S
O240 C239 1.245 . S
O241 Mg234 2.141 . S
O241 C239 1.289 . S
O242 Mg234 2.048 . S
O242 C235 1.195 . S
O243 Mg234 2.048 . S
O243 C244 1.195 . S
C244 O243 1.195 . S
C244 O245 1.313 . S
O245 C244 1.313 . S
O246 Mg234 2.141 . S
O246 C237 1.289 . S
Mg247 O254 2.141 . S
Mg247 O255 2.048 . S
Mg247 O256 2.048 . S
Mg247 O259 2.141 . S
C248 O249 1.313 . S
C248 O255 1.195 . S
O249 C248 1.313 . S
C250 O251 1.245 . S
C250 O259 1.289 . S
O251 C250 1.245 . S
C252 O253 1.245 . S
C252 O254 1.289 . S
O253 C252 1.245 . S
O254 Mg247 2.141 . S
O254 C252 1.289 . S
O255 Mg247 2.048 . S
O255 C248 1.195 . S
O256 Mg247 2.048 . S
O256 C257 1.195 . S
C257 O256 1.195 . S
C257 O258 1.313 . S
O258 C257 1.313 . S
O259 Mg247 2.141 . S
O259 C250 1.289 . S
Mg260 O267 2.141 . S
Mg260 O268 2.048 . S
Mg260 O269 2.048 . S
Mg260 O272 2.141 . S
C261 O262 1.313 . S
C261 O268 1.195 . S
O262 C261 1.313 . S
C263 O264 1.245 . S
C263 O272 1.289 . S
O264 C263 1.245 . S
C265 O266 1.245 . S
C265 O267 1.289 . S
O266 C265 1.245 . S
O267 Mg260 2.141 . S
O267 C265 1.289 . S
O268 Mg260 2.048 . S
O268 C261 1.195 . S
O269 Mg260 2.048 . S
O269 C270 1.195 . S
C270 O269 1.195 . S
C270 O271 1.313 . S
O271 C270 1.313 . S
O272 Mg260 2.141 . S
O272 C263 1.289 . S
Mg273 O280 2.171 . S
Mg273 O281 2.051 1_565 S
Mg273 O282 2.018 1_554 S
Mg273 O285 2.140 1_554 S
C274 O275 1.313 1_554 S
C274 O281 1.195 1_565 S
O275 C274 1.313 1_556 S
C276 O277 1.245 . S
C276 O285 1.289 . S
O277 C276 1.245 . S
C278 O279 1.245 . S
C278 O280 1.289 . S
O279 C278 1.245 . S
O280 Mg273 2.171 . S
O280 C278 1.289 . S
O281 Mg273 2.051 1_545 S
O281 C274 1.195 1_545 S
O282 Mg273 2.018 1_556 S
O282 C283 1.195 . S
C283 O282 1.195 . S
C283 O284 1.313 . S
O284 C283 1.313 . S
O285 Mg273 2.140 1_556 S
O285 C276 1.289 . S
Mg286 O293 2.171 . S
Mg286 O294 2.051 1_455 S
Mg286 O295 2.018 1_554 S
Mg286 O298 2.140 1_554 S
C287 O288 1.313 1_554 S
C287 O294 1.195 1_455 S
O288 C287 1.313 1_556 S
C289 O290 1.245 . S
C289 O298 1.289 . S
O290 C289 1.245 . S
C291 O292 1.245 . S
C291 O293 1.289 . S
O292 C291 1.245 . S
O293 Mg286 2.171 . S
O293 C291 1.289 . S
O294 Mg286 2.051 1_655 S
O294 C287 1.195 1_655 S
O295 Mg286 2.018 1_556 S
O295 C296 1.195 . S
C296 O295 1.195 . S
C296 O297 1.313 . S
O297 C296 1.313 . S
O298 Mg286 2.140 1_556 S
O298 C289 1.289 . S
Mg299 O306 2.141 1_554 S
Mg299 O307 2.034 1_554 S
Mg299 O308 2.049 . S
Mg299 O311 2.155 . S
C300 O301 1.313 . S
C300 O307 1.195 . S
O301 C300 1.313 . S
C302 O303 1.245 . S
C302 O311 1.289 . S
O303 C302 1.245 . S
C304 O305 1.245 . S
C304 O306 1.289 . S
O305 C304 1.245 . S
O306 Mg299 2.141 1_556 S
O306 C304 1.289 . S
O307 Mg299 2.034 1_556 S
O307 C300 1.195 . S
O308 Mg299 2.049 . S
O308 C309 1.195 . S
C309 O308 1.195 . S
C309 O310 1.313 1_554 S
O310 C309 1.313 1_556 S
O311 Mg299 2.155 . S
O311 C302 1.289 . S
Mg312 O319 2.141 . S
Mg312 O320 2.048 . S
Mg312 O321 2.048 . S
Mg312 O324 2.141 . S
C313 O314 1.313 . S
C313 O320 1.195 . S
O314 C313 1.313 . S
C315 O316 1.245 . S
C315 O324 1.289 . S
O316 C315 1.245 . S
C317 O318 1.245 . S
C317 O319 1.289 . S
O318 C317 1.245 . S
O319 Mg312 2.141 . S
O319 C317 1.289 . S
O320 Mg312 2.048 . S
O320 C313 1.195 . S
O321 Mg312 2.048 . S
O321 C322 1.195 . S
C322 O321 1.195 . S
C322 O323 1.313 . S
O323 C322 1.313 . S
O324 Mg312 2.141 . S
O324 C315 1.289 . S
Mg325 O332 2.141 . S
Mg325 O333 2.048 . S
Mg325 O334 2.048 . S
Mg325 O337 2.141 . S
C326 O327 1.313 . S
C326 O333 1.195 . S
O327 C326 1.313 . S
C328 O329 1.245 . S
C328 O337 1.289 . S
O329 C328 1.245 . S
C330 O331 1.245 . S
C330 O332 1.289 . S
O331 C330 1.245 . S
O332 Mg325 2.141 . S
O332 C330 1.289 . S
O333 Mg325 2.048 . S
O333 C326 1.195 . S
O334 Mg325 2.048 . S
O334 C335 1.195 . S
C335 O334 1.195 . S
C335 O336 1.313 . S
O336 C335 1.313 . S
O337 Mg325 2.141 . S
O337 C328 1.289 . S
Mg338 O345 2.141 . S
Mg338 O346 2.048 . S
Mg338 O347 2.048 . S
Mg338 O350 2.141 . S
C339 O340 1.313 . S
C339 O346 1.195 . S
O340 C339 1.313 . S
C341 O342 1.245 . S
C341 O350 1.289 . S
O342 C341 1.245 . S
C343 O344 1.245 . S
C343 O345 1.289 . S
O344 C343 1.245 . S
O345 Mg338 2.141 . S
O345 C343 1.289 . S
O346 Mg338 2.048 . S
O346 C339 1.195 . S
O347 Mg338 2.048 . S
O347 C348 1.195 . S
C348 O347 1.195 . S
C348 O349 1.313 . S
O349 C348 1.313 . S
O350 Mg338 2.141 . S
O350 C341 1.289 . S
Mg351 O358 2.155 . S
Mg351 O359 2.049 . S
Mg351 O360 2.034 1_556 S
Mg351 O363 2.141 1_556 S
C352 O353 1.258 1_546 S
C352 O359 1.302 . S
O353 C352 1.258 1_564 S
C354 O355 1.245 . S
C354 O363 1.289 . S
O355 C354 1.245 . S
C356 O357 1.245 1_545 S
C356 O358 1.289 . S
O357 C356 1.245 1_565 S
O358 Mg351 2.155 . S
O358 C356 1.289 . S
O359 Mg351 2.049 . S
O359 C352 1.302 . S
O360 Mg351 2.034 1_554 S
O360 C361 1.195 . S
C361 O360 1.195 . S
C361 O362 1.313 1_545 S
O362 C361 1.313 1_565 S
O363 Mg351 2.141 1_554 S
O363 C354 1.289 . S
Mg364 O371 2.155 . S
Mg364 O372 2.049 . S
Mg364 O373 2.034 1_556 S
Mg364 O376 2.141 1_556 S
C365 O366 1.216 1_656 S
C365 O372 1.251 . S
O366 C365 1.216 1_454 S
C367 O368 1.245 . S
C367 O376 1.289 . S
O368 C367 1.245 . S
C369 O370 1.245 1_655 S
C369 O371 1.289 . S
O370 C369 1.245 1_455 S
O371 Mg364 2.155 . S
O371 C369 1.289 . S
O372 Mg364 2.049 . S
O372 C365 1.251 . S
O373 Mg364 2.034 1_554 S
O373 C374 1.195 . S
C374 O373 1.195 . S
C374 O375 1.313 1_655 S
O375 C374 1.313 1_455 S
O376 Mg364 2.141 1_554 S
O376 C367 1.289 . S
Mg377 O384 2.155 . S
Mg377 O385 2.049 . S
Mg377 O386 2.034 1_556 S
Mg377 O389 2.141 1_556 S
C378 O379 1.313 1_556 S
C378 O385 1.195 . S
O379 C378 1.313 1_554 S
C380 O381 1.245 . S
C380 O389 1.289 . S
O381 C380 1.245 . S
C382 O383 1.245 . S
C382 O384 1.289 . S
O383 C382 1.245 . S
O384 Mg377 2.155 . S
O384 C382 1.289 . S
O385 Mg377 2.049 . S
O385 C378 1.195 . S
O386 Mg377 2.034 1_554 S
O386 C387 1.195 . S
C387 O386 1.195 . S
C387 O388 1.313 . S
O388 C387 1.313 . S
O389 Mg377 2.141 1_554 S
O389 C380 1.289 . S
Mg390 O397 2.141 . S
Mg390 O398 2.048 . S
Mg390 O399 2.048 . S
Mg390 O402 2.141 . S
C391 O392 1.313 1_655 S
C391 O398 1.195 . S
O392 C391 1.313 1_455 S
C393 O394 1.245 1_655 S
C393 O402 1.289 . S
O394 C393 1.245 1_455 S
C395 O396 1.245 . S
C395 O397 1.289 . S
O396 C395 1.245 . S
O397 Mg390 2.141 . S
O397 C395 1.289 . S
O398 Mg390 2.048 . S
O398 C391 1.195 . S
O399 Mg390 2.048 . S
O399 C400 1.195 1_655 S
C400 O399 1.195 1_455 S
C400 O401 1.313 . S
O401 C400 1.313 . S
O402 Mg390 2.141 . S
O402 C393 1.289 . S
Mg403 O410 2.141 . S
Mg403 O411 2.048 . S
Mg403 O412 2.048 . S
Mg403 O415 2.141 . S
C404 O405 1.313 . S
C404 O411 1.195 . S
O405 C404 1.313 . S
C406 O407 1.245 . S
C406 O415 1.289 . S
O407 C406 1.245 . S
C408 O409 1.245 . S
C408 O410 1.289 . S
O409 C408 1.245 . S
O410 Mg403 2.141 . S
O410 C408 1.289 . S
O411 Mg403 2.048 . S
O411 C404 1.195 . S
O412 Mg403 2.048 . S
O412 C413 1.195 . S
C413 O412 1.195 . S
C413 O414 1.313 . S
O414 C413 1.313 . S
O415 Mg403 2.141 . S
O415 C406 1.289 . S
Mg416 O423 2.141 . S
Mg416 O424 2.048 1_545 S
Mg416 O425 2.050 . S
Mg416 O428 2.141 . S
C417 O418 1.391 . S
C417 O424 1.124 1_545 S
O418 C417 1.391 . S
C419 O420 1.245 . S
C419 O428 1.289 . S
O420 C419 1.245 . S
C421 O422 1.245 . S
C421 O423 1.289 . S
O422 C421 1.245 . S
O423 Mg416 2.141 . S
O423 C421 1.289 . S
O424 Mg416 2.048 1_565 S
O424 C417 1.124 1_565 S
O425 Mg416 2.050 . S
O425 C426 1.270 . S
C426 O425 1.270 . S
C426 O427 1.313 . S
O427 C426 1.313 . S
O428 Mg416 2.141 . S
O428 C419 1.289 . S
Mg429 O436 2.141 . S
Mg429 O437 2.048 . S
Mg429 O438 2.048 . S
Mg429 O441 2.141 . S
C430 O431 1.313 . S
C430 O437 1.195 . S
O431 C430 1.313 . S
C432 O433 1.245 . S
C432 O441 1.289 . S
O433 C432 1.245 . S
C434 O435 1.245 . S
C434 O436 1.289 . S
O435 C434 1.245 . S
O436 Mg429 2.141 . S
O436 C434 1.289 . S
O437 Mg429 2.048 . S
O437 C430 1.195 . S
O438 Mg429 2.048 . S
O438 C439 1.195 . S
C439 O438 1.195 . S
C439 O440 1.313 . S
O440 C439 1.313 . S
O441 Mg429 2.141 . S
O441 C432 1.289 . S
Mg442 O449 2.141 . S
Mg442 O450 2.048 . S
Mg442 O451 2.048 . S
Mg442 O454 2.141 . S
C443 O444 1.313 . S
C443 O450 1.195 . S
O444 C443 1.313 . S
C445 O446 1.245 . S
C445 O454 1.289 . S
O446 C445 1.245 . S
C447 O448 1.245 . S
C447 O449 1.289 . S
O448 C447 1.245 . S
O449 Mg442 2.141 . S
O449 C447 1.289 . S
O450 Mg442 2.048 . S
O450 C443 1.195 . S
O451 Mg442 2.048 . S
O451 C452 1.195 . S
C452 O451 1.195 . S
C452 O453 1.313 . S
O453 C452 1.313 . S
O454 Mg442 2.141 . S
O454 C445 1.289 . S
Mg455 O462 2.141 . S
Mg455 O463 2.048 . S
Mg455 O464 2.048 . S
Mg455 O467 2.141 . S
C456 O457 1.313 . S
C456 O463 1.195 . S
O457 C456 1.313 . S
C458 O459 1.245 . S
C458 O467 1.289 . S
O459 C458 1.245 . S
C460 O461 1.245 . S
C460 O462 1.289 . S
O461 C460 1.245 . S
O462 Mg455 2.141 . S
O462 C460 1.289 . S
O463 Mg455 2.048 . S
O463 C456 1.195 . S
O464 Mg455 2.048 . S
O464 C465 1.195 . S
C465 O464 1.195 . S
C465 O466 1.313 . S
O466 C465 1.313 . S
O467 Mg455 2.141 . S
O467 C458 1.289 . S
C468 C469 1.349 . S
C468 C470 1.327 . S
C468 H493 0.950 . S
C469 C468 1.349 . S
C469 C485 1.349 . S
C470 C468 1.327 . S
C470 C489 1.429 . S
C470 H494 0.950 . S
C471 C488 1.574 . S
C471 C490 1.368 . S
C471 H495 0.949 . S
H472 C476 0.949 . S
C473 C474 1.349 . S
C473 C475 1.327 . S
C473 H496 0.950 . S
C474 C473 1.349 . S
C474 C486 1.349 . S
C475 C473 1.327 . S
C475 C491 1.429 . S
C475 H497 0.950 . S
C476 H472 0.949 . S
C476 C484 1.574 . S
C476 C492 1.368 . S
H477 C485 0.950 . S
H478 C483 0.950 . S
H479 C484 0.949 . S
H480 C486 0.950 . S
H481 C487 0.950 . S
H482 C488 0.949 . S
C483 H478 0.950 . S
C483 C485 1.327 . S
C483 C489 1.429 . S
C484 C476 1.574 . S
C484 H479 0.949 . S
C484 C490 1.368 . S
C485 C469 1.349 . S
C485 H477 0.950 . S
C485 C483 1.327 . S
C486 C474 1.349 . S
C486 H480 0.950 . S
C486 C487 1.327 . S
C487 H481 0.950 . S
C487 C486 1.327 . S
C487 C491 1.429 . S
C488 C471 1.574 . S
C488 H482 0.949 . S
C488 C492 1.368 . S
C489 C470 1.429 . S
C489 C483 1.429 . S
C489 C490 1.523 . S
C490 C471 1.368 . S
C490 C484 1.368 . S
C490 C489 1.523 . S
C491 C475 1.429 . S
C491 C487 1.429 . S
C491 C492 1.523 . S
C492 C476 1.368 . S
C492 C488 1.368 . S
C492 C491 1.523 . S
H493 C468 0.950 . S
H494 C470 0.950 . S
H495 C471 0.949 . S
H496 C473 0.950 . S
H497 C475 0.950 . S
C498 C499 1.349 . S
C498 C500 1.327 . S
C498 H523 0.950 . S
C499 C498 1.349 . S
C499 C515 1.349 . S
C500 C498 1.327 . S
C500 C519 1.429 . S
C500 H524 0.950 . S
C501 C518 1.574 . S
C501 C520 1.368 . S
C501 H525 0.949 . S
H502 C506 0.949 . S
C503 C504 1.349 . S
C503 C505 1.327 . S
C503 H526 0.950 . S
C504 C503 1.349 . S
C504 C516 1.349 . S
C505 C503 1.327 . S
C505 C521 1.429 . S
C505 H527 0.950 . S
C506 H502 0.949 . S
C506 C514 1.574 . S
C506 C522 1.368 . S
H507 C515 0.950 . S
H508 C513 0.950 . S
H509 C514 0.949 . S
H510 C516 0.950 . S
H511 C517 0.950 . S
H512 C518 0.949 . S
C513 H508 0.950 . S
C513 C515 1.327 . S
C513 C519 1.429 . S
C514 C506 1.574 . S
C514 H509 0.949 . S
C514 C520 1.368 . S
C515 C499 1.349 . S
C515 H507 0.950 . S
C515 C513 1.327 . S
C516 C504 1.349 . S
C516 H510 0.950 . S
C516 C517 1.327 . S
C517 H511 0.950 . S
C517 C516 1.327 . S
C517 C521 1.429 . S
C518 C501 1.574 . S
C518 H512 0.949 . S
C518 C522 1.368 . S
C519 C500 1.429 . S
C519 C513 1.429 . S
C519 C520 1.523 . S
C520 C501 1.368 . S
C520 C514 1.368 . S
C520 C519 1.523 . S
C521 C505 1.429 . S
C521 C517 1.429 . S
C521 C522 1.523 . S
C522 C506 1.368 . S
C522 C518 1.368 . S
C522 C521 1.523 . S
H523 C498 0.950 . S
H524 C500 0.950 . S
H525 C501 0.949 . S
H526 C503 0.950 . S
H527 C505 0.950 . S
C528 C529 1.349 . S
C528 C530 1.327 . S
C528 H553 0.950 . S
C529 C528 1.349 . S
C529 C545 1.349 . S
C530 C528 1.327 . S
C530 C549 1.429 . S
C530 H554 0.950 . S
C531 C548 1.574 . S
C531 C550 1.368 . S
C531 H555 0.949 . S
H532 C536 0.949 . S
C533 C534 1.349 . S
C533 C535 1.327 . S
C533 H556 0.950 . S
C534 C533 1.349 . S
C534 C546 1.349 . S
C535 C533 1.327 . S
C535 C551 1.429 . S
C535 H557 0.950 . S
C536 H532 0.949 . S
C536 C544 1.574 . S
C536 C552 1.368 . S
H537 C545 0.950 . S
H538 C543 0.950 . S
H539 C544 0.949 . S
H540 C546 0.950 . S
H541 C547 0.950 . S
H542 C548 0.949 . S
C543 H538 0.950 . S
C543 C545 1.327 . S
C543 C549 1.429 . S
C544 C536 1.574 . S
C544 H539 0.949 . S
C544 C550 1.368 . S
C545 C529 1.349 . S
C545 H537 0.950 . S
C545 C543 1.327 . S
C546 C534 1.349 . S
C546 H540 0.950 . S
C546 C547 1.327 . S
C547 H541 0.950 . S
C547 C546 1.327 . S
C547 C551 1.429 . S
C548 C531 1.574 . S
C548 H542 0.949 . S
C548 C552 1.368 . S
C549 C530 1.429 . S
C549 C543 1.429 . S
C549 C550 1.523 . S
C550 C531 1.368 . S
C550 C544 1.368 . S
C550 C549 1.523 . S
C551 C535 1.429 . S
C551 C547 1.429 . S
C551 C552 1.523 . S
C552 C536 1.368 . S
C552 C548 1.368 . S
C552 C551 1.523 . S
H553 C528 0.950 . S
H554 C530 0.950 . S
H555 C531 0.949 . S
H556 C533 0.950 . S
H557 C535 0.950 . S
C558 C559 1.349 . S
C558 C560 1.327 . S
C558 H583 0.950 . S
C559 C558 1.349 . S
C559 C575 1.349 . S
C560 C558 1.327 . S
C560 C579 1.429 1_556 S
C560 H584 0.950 1_556 S
C561 C578 1.574 . S
C561 C580 1.368 . S
C561 H585 0.949 . S
H562 C566 0.949 . S
C563 C564 1.349 . S
C563 C565 1.327 . S
C563 H586 0.950 . S
C564 C563 1.349 . S
C564 C576 1.349 . S
C565 C563 1.327 . S
C565 C581 1.429 . S
C565 H587 0.950 . S
C566 H562 0.949 . S
C566 C574 1.574 . S
C566 C582 1.368 . S
H567 C575 0.950 . S
H568 C573 0.950 . S
H569 C574 0.949 . S
H570 C576 0.950 . S
H571 C577 0.950 . S
H572 C578 0.949 . S
C573 H568 0.950 . S
C573 C575 1.327 . S
C573 C579 1.429 1_556 S
C574 C566 1.574 . S
C574 H569 0.949 . S
C574 C580 1.368 . S
C575 C559 1.349 . S
C575 H567 0.950 . S
C575 C573 1.327 . S
C576 C564 1.349 . S
C576 H570 0.950 . S
C576 C577 1.327 . S
C577 H571 0.950 . S
C577 C576 1.327 . S
C577 C581 1.429 . S
C578 C561 1.574 . S
C578 H572 0.949 . S
C578 C582 1.368 . S
C579 C560 1.429 1_554 S
C579 C573 1.429 1_554 S
C579 C580 1.523 . S
C580 C561 1.368 . S
C580 C574 1.368 . S
C580 C579 1.523 . S
C581 C565 1.429 . S
C581 C577 1.429 . S
C581 C582 1.523 . S
C582 C566 1.368 . S
C582 C578 1.368 . S
C582 C581 1.523 . S
H583 C558 0.950 . S
H584 C560 0.950 1_554 S
H585 C561 0.949 . S
H586 C563 0.950 . S
H587 C565 0.950 . S
C588 C589 1.349 . S
C588 C590 1.327 . S
C588 H613 0.950 . S
C589 C588 1.349 . S
C589 C605 1.349 . S
C590 C588 1.327 . S
C590 C609 1.429 . S
C590 H614 0.950 . S
C591 C608 1.574 . S
C591 C610 1.368 . S
C591 H615 0.949 . S
H592 C596 0.949 . S
C593 C594 1.349 . S
C593 C595 1.327 . S
C593 H616 0.950 . S
C594 C593 1.349 . S
C594 C606 1.349 . S
C595 C593 1.327 . S
C595 C611 1.429 1_556 S
C595 H617 0.950 1_556 S
C596 H592 0.949 . S
C596 C604 1.574 . S
C596 C612 1.368 . S
H597 C605 0.950 . S
H598 C603 0.950 . S
H599 C604 0.949 . S
H600 C606 0.950 . S
H601 C607 0.950 . S
H602 C608 0.949 . S
C603 H598 0.950 . S
C603 C605 1.327 . S
C603 C609 1.429 . S
C604 C596 1.574 . S
C604 H599 0.949 . S
C604 C610 1.368 . S
C605 C589 1.349 . S
C605 H597 0.950 . S
C605 C603 1.327 . S
C606 C594 1.349 . S
C606 H600 0.950 . S
C606 C607 1.327 . S
C607 H601 0.950 . S
C607 C606 1.327 . S
C607 C611 1.429 1_556 S
C608 C591 1.574 . S
C608 H602 0.949 . S
C608 C612 1.368 . S
C609 C590 1.429 . S
C609 C603 1.429 . S
C609 C610 1.523 . S
C610 C591 1.368 . S
C610 C604 1.368 . S
C610 C609 1.523 . S
C611 C595 1.429 1_554 S
C611 C607 1.429 1_554 S
C611 C612 1.523 . S
C612 C596 1.368 . S
C612 C608 1.368 . S
C612 C611 1.523 . S
H613 C588 0.950 . S
H614 C590 0.950 . S
H615 C591 0.949 . S
H616 C593 0.950 . S
H617 C595 0.950 1_554 S
C618 C619 1.349 . S
C618 C620 1.327 . S
C618 H643 0.950 . S
C619 C618 1.349 . S
C619 C635 1.349 . S
C620 C618 1.327 . S
C620 C639 1.429 . S
C620 H644 0.950 . S
C621 C638 1.574 . S
C621 C640 1.368 . S
C621 H645 0.949 . S
H622 C626 0.949 . S
C623 C624 1.349 . S
C623 C625 1.327 . S
C623 H646 0.950 . S
C624 C623 1.349 . S
C624 C636 1.349 . S
C625 C623 1.327 . S
C625 C641 1.429 1_556 S
C625 H647 0.950 1_556 S
C626 H622 0.949 . S
C626 C634 1.574 . S
C626 C642 1.368 . S
H627 C635 0.950 . S
H628 C633 0.950 . S
H629 C634 0.949 . S
H630 C636 0.950 . S
H631 C637 0.950 1_554 S
H632 C638 0.949 . S
C633 H628 0.950 . S
C633 C635 1.327 . S
C633 C639 1.429 . S
C634 C626 1.574 . S
C634 H629 0.949 . S
C634 C640 1.368 . S
C635 C619 1.349 . S
C635 H627 0.950 . S
C635 C633 1.327 . S
C636 C624 1.349 . S
C636 H630 0.950 . S
C636 C637 1.327 . S
C637 H631 0.950 1_556 S
C637 C636 1.327 . S
C637 C641 1.429 1_556 S
C638 C621 1.574 . S
C638 H632 0.949 . S
C638 C642 1.368 . S
C639 C620 1.429 . S
C639 C633 1.429 . S
C639 C640 1.523 . S
C640 C621 1.368 . S
C640 C634 1.368 . S
C640 C639 1.523 . S
C641 C625 1.429 1_554 S
C641 C637 1.429 1_554 S
C641 C642 1.523 . S
C642 C626 1.368 . S
C642 C638 1.368 . S
C642 C641 1.523 . S
H643 C618 0.950 . S
H644 C620 0.950 . S
H645 C621 0.949 . S
H646 C623 0.950 . S
H647 C625 0.950 1_554 S
C648 C649 1.349 . S
C648 C650 1.327 . S
C648 H673 0.950 . S
C649 C648 1.349 . S
C649 C665 1.349 . S
C650 C648 1.327 . S
C650 C669 1.429 . S
C650 H674 0.950 . S
C651 C668 1.574 . S
C651 C670 1.368 . S
C651 H675 0.949 . S
H652 C656 0.949 . S
C653 C654 1.349 . S
C653 C655 1.327 . S
C653 H676 0.950 . S
C654 C653 1.349 . S
C654 C666 1.349 . S
C655 C653 1.327 . S
C655 C671 1.429 . S
C655 H677 0.950 . S
C656 H652 0.949 . S
C656 C664 1.574 . S
C656 C672 1.368 . S
H657 C665 0.950 . S
H658 C663 0.950 . S
H659 C664 0.949 . S
H660 C666 0.950 . S
H661 C667 0.950 . S
H662 C668 0.949 . S
C663 H658 0.950 . S
C663 C665 1.327 . S
C663 C669 1.429 . S
C664 C656 1.574 . S
C664 H659 0.949 . S
C664 C670 1.368 . S
C665 C649 1.349 . S
C665 H657 0.950 . S
C665 C663 1.327 . S
C666 C654 1.349 . S
C666 H660 0.950 . S
C666 C667 1.327 . S
C667 H661 0.950 . S
C667 C666 1.327 . S
C667 C671 1.429 . S
C668 C651 1.574 . S
C668 H662 0.949 . S
C668 C672 1.368 . S
C669 C650 1.429 . S
C669 C663 1.429 . S
C669 C670 1.523 . S
C670 C651 1.368 . S
C670 C664 1.368 . S
C670 C669 1.523 . S
C671 C655 1.429 . S
C671 C667 1.429 . S
C671 C672 1.523 . S
C672 C656 1.368 . S
C672 C668 1.368 . S
C672 C671 1.523 . S
H673 C648 0.950 . S
H674 C650 0.950 . S
H675 C651 0.949 . S
H676 C653 0.950 . S
H677 C655 0.950 . S
C678 C679 1.349 . S
C678 C680 1.327 . S
C678 H703 0.950 . S
C679 C678 1.349 . S
C679 C695 1.349 . S
C680 C678 1.327 . S
C680 C699 1.429 . S
C680 H704 0.950 . S
C681 C698 1.574 . S
C681 C700 1.368 . S
C681 H705 0.949 . S
H682 C686 0.949 . S
C683 C684 1.349 . S
C683 C685 1.327 . S
C683 H706 0.950 . S
C684 C683 1.349 . S
C684 C696 1.349 . S
C685 C683 1.327 . S
C685 C701 1.429 . S
C685 H707 0.950 . S
C686 H682 0.949 . S
C686 C694 1.574 . S
C686 C702 1.368 . S
H687 C695 0.950 . S
H688 C693 0.950 . S
H689 C694 0.949 . S
H690 C696 0.950 . S
H691 C697 0.950 . S
H692 C698 0.949 . S
C693 H688 0.950 . S
C693 C695 1.327 . S
C693 C699 1.429 . S
C694 C686 1.574 . S
C694 H689 0.949 . S
C694 C700 1.368 . S
C695 C679 1.349 . S
C695 H687 0.950 . S
C695 C693 1.327 . S
C696 C684 1.349 . S
C696 H690 0.950 . S
C696 C697 1.327 . S
C697 H691 0.950 . S
C697 C696 1.327 . S
C697 C701 1.429 . S
C698 C681 1.574 . S
C698 H692 0.949 . S
C698 C702 1.368 . S
C699 C680 1.429 . S
C699 C693 1.429 . S
C699 C700 1.523 . S
C700 C681 1.368 . S
C700 C694 1.368 . S
C700 C699 1.523 . S
C701 C685 1.429 . S
C701 C697 1.429 . S
C701 C702 1.523 . S
C702 C686 1.368 . S
C702 C698 1.368 . S
C702 C701 1.523 . S
H703 C678 0.950 . S
H704 C680 0.950 . S
H705 C681 0.949 . S
H706 C683 0.950 . S
H707 C685 0.950 . S
C708 C709 1.349 . S
C708 C710 1.327 . S
C708 H733 0.950 . S
C709 C708 1.349 . S
C709 C725 1.349 . S
C710 C708 1.327 . S
C710 C729 1.429 . S
C710 H734 0.950 . S
C711 C728 1.574 . S
C711 C730 1.368 . S
C711 H735 0.949 . S
H712 C716 0.949 . S
C713 C714 1.349 . S
C713 C715 1.327 . S
C713 H736 0.950 . S
C714 C713 1.349 . S
C714 C726 1.349 . S
C715 C713 1.327 . S
C715 C731 1.429 . S
C715 H737 0.950 . S
C716 H712 0.949 . S
C716 C724 1.574 . S
C716 C732 1.368 . S
H717 C725 0.950 . S
H718 C723 0.950 . S
H719 C724 0.949 . S
H720 C726 0.950 . S
H721 C727 0.950 . S
H722 C728 0.949 . S
C723 H718 0.950 . S
C723 C725 1.327 . S
C723 C729 1.429 . S
C724 C716 1.574 . S
C724 H719 0.949 . S
C724 C730 1.368 . S
C725 C709 1.349 . S
C725 H717 0.950 . S
C725 C723 1.327 . S
C726 C714 1.349 . S
C726 H720 0.950 . S
C726 C727 1.327 . S
C727 H721 0.950 . S
C727 C726 1.327 . S
C727 C731 1.429 . S
C728 C711 1.574 . S
C728 H722 0.949 . S
C728 C732 1.368 . S
C729 C710 1.429 . S
C729 C723 1.429 . S
C729 C730 1.523 . S
C730 C711 1.368 . S
C730 C724 1.368 . S
C730 C729 1.523 . S
C731 C715 1.429 . S
C731 C727 1.429 . S
C731 C732 1.523 . S
C732 C716 1.368 . S
C732 C728 1.368 . S
C732 C731 1.523 . S
H733 C708 0.950 . S
H734 C710 0.950 . S
H735 C711 0.949 . S
H736 C713 0.950 . S
H737 C715 0.950 . S
C738 C739 1.349 . S
C738 C740 1.327 . S
C738 H763 0.950 . S
C739 C738 1.349 . S
C739 C755 1.349 . S
C740 C738 1.327 . S
C740 C759 1.429 . S
C740 H764 0.950 . S
C741 C758 1.574 . S
C741 C760 1.368 . S
C741 H765 0.949 . S
H742 C746 0.949 . S
C743 C744 1.349 . S
C743 C745 1.327 . S
C743 H766 0.950 . S
C744 C743 1.349 . S
C744 C756 1.349 . S
C745 C743 1.327 . S
C745 C761 1.429 1_554 S
C745 H767 0.950 . S
C746 H742 0.949 . S
C746 C754 1.574 . S
C746 C762 1.368 . S
H747 C755 0.950 . S
H748 C753 0.950 . S
H749 C754 0.949 . S
H750 C756 0.950 . S
H751 C757 0.950 1_556 S
H752 C758 0.949 . S
C753 H748 0.950 . S
C753 C755 1.327 . S
C753 C759 1.429 . S
C754 C746 1.574 . S
C754 H749 0.949 . S
C754 C760 1.368 . S
C755 C739 1.349 . S
C755 H747 0.950 . S
C755 C753 1.327 . S
C756 C744 1.349 . S
C756 H750 0.950 . S
C756 C757 1.327 . S
C757 H751 0.950 1_554 S
C757 C756 1.327 . S
C757 C761 1.429 1_554 S
C758 C741 1.574 . S
C758 H752 0.949 . S
C758 C762 1.368 . S
C759 C740 1.429 . S
C759 C753 1.429 . S
C759 C760 1.523 . S
C760 C741 1.368 . S
C760 C754 1.368 . S
C760 C759 1.523 . S
C761 C745 1.429 1_556 S
C761 C757 1.429 1_556 S
C761 C762 1.523 . S
C762 C746 1.368 . S
C762 C758 1.368 . S
C762 C761 1.523 . S
H763 C738 0.950 . S
H764 C740 0.950 . S
H765 C741 0.949 . S
H766 C743 0.950 . S
H767 C745 0.950 . S
C768 C769 1.349 . S
C768 C770 1.327 . S
C768 H793 0.950 . S
C769 C768 1.349 . S
C769 C785 1.349 . S
C770 C768 1.327 . S
C770 C789 1.429 1_554 S
C770 H794 0.950 . S
C771 C788 1.574 . S
C771 C790 1.368 . S
C771 H795 0.949 . S
H772 C776 0.949 . S
C773 C774 1.349 . S
C773 C775 1.327 . S
C773 H796 0.950 . S
C774 C773 1.349 . S
C774 C786 1.349 . S
C775 C773 1.327 . S
C775 C791 1.429 . S
C775 H797 0.950 . S
C776 H772 0.949 . S
C776 C784 1.574 . S
C776 C792 1.368 . S
H777 C785 0.950 . S
H778 C783 0.950 1_556 S
H779 C784 0.949 . S
H780 C786 0.950 . S
H781 C787 0.950 . S
H782 C788 0.949 . S
C783 H778 0.950 1_554 S
C783 C785 1.327 . S
C783 C789 1.429 1_554 S
C784 C776 1.574 . S
C784 H779 0.949 . S
C784 C790 1.368 . S
C785 C769 1.349 . S
C785 H777 0.950 . S
C785 C783 1.327 . S
C786 C774 1.349 . S
C786 H780 0.950 . S
C786 C787 1.327 . S
C787 H781 0.950 . S
C787 C786 1.327 . S
C787 C791 1.429 . S
C788 C771 1.574 . S
C788 H782 0.949 . S
C788 C792 1.368 . S
C789 C770 1.429 1_556 S
C789 C783 1.429 1_556 S
C789 C790 1.523 . S
C790 C771 1.368 . S
C790 C784 1.368 . S
C790 C789 1.523 . S
C791 C775 1.429 . S
C791 C787 1.429 . S
C791 C792 1.523 . S
C792 C776 1.368 . S
C792 C788 1.368 . S
C792 C791 1.523 . S
H793 C768 0.950 . S
H794 C770 0.950 . S
H795 C771 0.949 . S
H796 C773 0.950 . S
H797 C775 0.950 . S
C798 C799 1.349 . S
C798 C800 1.327 . S
C798 H823 0.950 . S
C799 C798 1.349 . S
C799 C815 1.349 . S
C800 C798 1.327 . S
C800 C819 1.429 . S
C800 H824 0.950 . S
C801 C818 1.574 . S
C801 C820 1.368 . S
C801 H825 0.949 . S
H802 C806 0.949 . S
C803 C804 1.349 . S
C803 C805 1.327 . S
C803 H826 0.950 . S
C804 C803 1.349 . S
C804 C816 1.349 . S
C805 C803 1.327 . S
C805 C821 1.429 1_554 S
C805 H827 0.950 1_554 S
C806 H802 0.949 . S
C806 C814 1.574 . S
C806 C822 1.368 . S
H807 C815 0.950 . S
H808 C813 0.950 . S
H809 C814 0.949 . S
H810 C816 0.950 . S
H811 C817 0.950 . S
H812 C818 0.949 . S
C813 H808 0.950 . S
C813 C815 1.327 . S
C813 C819 1.429 . S
C814 C806 1.574 . S
C814 H809 0.949 . S
C814 C820 1.368 . S
C815 C799 1.349 . S
C815 H807 0.950 . S
C815 C813 1.327 . S
C816 C804 1.349 . S
C816 H810 0.950 . S
C816 C817 1.327 . S
C817 H811 0.950 . S
C817 C816 1.327 . S
C817 C821 1.429 1_554 S
C818 C801 1.574 . S
C818 H812 0.949 . S
C818 C822 1.368 . S
C819 C800 1.429 . S
C819 C813 1.429 . S
C819 C820 1.523 . S
C820 C801 1.368 . S
C820 C814 1.368 . S
C820 C819 1.523 . S
C821 C805 1.429 1_556 S
C821 C817 1.429 1_556 S
C821 C822 1.523 . S
C822 C806 1.368 . S
C822 C818 1.368 . S
C822 C821 1.523 . S
H823 C798 0.950 . S
H824 C800 0.950 . S
H825 C801 0.949 . S
H826 C803 0.950 . S
H827 C805 0.950 1_556 S
C828 C829 1.349 . S
C828 C830 1.327 . S
C828 H853 0.950 . S
C829 C828 1.349 . S
C829 C845 1.302 1_655 S
C830 C828 1.327 . S
C830 C849 1.429 . S
C830 H854 0.950 . S
C831 C848 1.574 . S
C831 C850 1.368 1_455 S
C831 H855 0.949 . S
H832 C836 0.949 . S
C833 C834 1.349 . S
C833 C835 1.327 . S
C833 H856 0.950 . S
C834 C833 1.349 . S
C834 C846 1.349 1_455 S
C835 C833 1.327 . S
C835 C851 1.429 . S
C835 H857 0.950 . S
C836 H832 0.949 . S
C836 C844 1.574 . S
C836 C852 1.333 1_655 S
H837 C845 0.989 . S
H838 C843 0.950 . S
H839 C844 0.949 . S
H840 C846 0.950 . S
H841 C847 0.950 . S
H842 C848 0.949 . S
C843 H838 0.950 . S
C843 C845 1.344 . S
C843 C849 1.429 1_455 S
C844 C836 1.574 . S
C844 H839 0.949 . S
C844 C850 1.368 . S
C845 C829 1.302 1_455 S
C845 H837 0.989 . S
C845 C843 1.344 . S
C846 C834 1.349 1_655 S
C846 H840 0.950 . S
C846 C847 1.327 . S
C847 H841 0.950 . S
C847 C846 1.327 . S
C847 C851 1.429 1_655 S
C848 C831 1.574 . S
C848 H842 0.949 . S
C848 C852 1.399 . S
C849 C830 1.429 . S
C849 C843 1.429 1_655 S
C849 C850 1.523 . S
C850 C831 1.368 1_655 S
C850 C844 1.368 . S
C850 C849 1.523 . S
C851 C835 1.429 . S
C851 C847 1.429 1_455 S
C851 C852 1.534 . S
C852 C836 1.333 1_455 S
C852 C848 1.399 . S
C852 C851 1.534 . S
H853 C828 0.950 . S
H854 C830 0.950 . S
H855 C831 0.949 . S
H856 C833 0.950 . S
H857 C835 0.950 . S
C858 C859 1.349 . S
C858 C860 1.327 . S
C858 H883 0.950 . S
C859 C858 1.349 . S
C859 C875 1.349 . S
C860 C858 1.327 . S
C860 C879 1.429 . S
C860 H884 0.950 . S
C861 C878 1.574 . S
C861 C880 1.368 . S
C861 H885 0.949 . S
H862 C866 0.949 . S
C863 C864 1.349 . S
C863 C865 1.327 . S
C863 H886 0.950 . S
C864 C863 1.349 . S
C864 C876 1.349 . S
C865 C863 1.327 . S
C865 C881 1.429 . S
C865 H887 0.950 . S
C866 H862 0.949 . S
C866 C874 1.574 . S
C866 C882 1.368 . S
H867 C875 0.950 . S
H868 C873 0.950 . S
H869 C874 0.949 . S
H870 C876 0.950 . S
H871 C877 0.950 . S
H872 C878 0.949 . S
C873 H868 0.950 . S
C873 C875 1.327 . S
C873 C879 1.429 . S
C874 C866 1.574 . S
C874 H869 0.949 . S
C874 C880 1.368 . S
C875 C859 1.349 . S
C875 H867 0.950 . S
C875 C873 1.327 . S
C876 C864 1.349 . S
C876 H870 0.950 . S
C876 C877 1.327 . S
C877 H871 0.950 . S
C877 C876 1.327 . S
C877 C881 1.429 . S
C878 C861 1.574 . S
C878 H872 0.949 . S
C878 C882 1.368 . S
C879 C860 1.429 . S
C879 C873 1.429 . S
C879 C880 1.523 . S
C880 C861 1.368 . S
C880 C874 1.368 . S
C880 C879 1.523 . S
C881 C865 1.429 . S
C881 C877 1.429 . S
C881 C882 1.523 . S
C882 C866 1.368 . S
C882 C878 1.368 . S
C882 C881 1.523 . S
H883 C858 0.950 . S
H884 C860 0.950 . S
H885 C861 0.949 . S
H886 C863 0.950 . S
H887 C865 0.950 . S
C888 C889 1.346 1_565 S
C888 C890 1.328 . S
C888 H913 0.952 . S
C889 C888 1.346 1_545 S
C889 C905 1.349 . S
C890 C888 1.328 . S
C890 C909 1.429 1_565 S
C890 H914 0.950 . S
C891 C908 1.574 . S
C891 C910 1.368 . S
C891 H915 0.949 . S
H892 C896 0.949 . S
C893 C894 1.349 1_545 S
C893 C895 1.327 . S
C893 H916 0.950 . S
C894 C893 1.349 1_565 S
C894 C906 1.349 . S
C895 C893 1.327 . S
C895 C911 1.429 1_545 S
C895 H917 0.950 . S
C896 H892 0.949 . S
C896 C904 1.574 . S
C896 C912 1.389 . S
H897 C905 0.950 . S
H898 C903 0.950 . S
H899 C904 0.949 . S
H900 C906 0.950 . S
H901 C907 0.950 . S
H902 C908 0.949 . S
C903 H898 0.950 . S
C903 C905 1.327 . S
C903 C909 1.429 . S
C904 C896 1.574 . S
C904 H899 0.949 . S
C904 C910 1.368 1_565 S
C905 C889 1.349 . S
C905 H897 0.950 . S
C905 C903 1.327 . S
C906 C894 1.349 . S
C906 H900 0.950 . S
C906 C907 1.327 . S
C907 H901 0.950 . S
C907 C906 1.327 . S
C907 C911 1.429 . S
C908 C891 1.574 . S
C908 H902 0.949 . S
C908 C912 1.344 1_545 S
C909 C890 1.429 1_545 S
C909 C903 1.429 . S
C909 C910 1.523 . S
C910 C891 1.368 . S
C910 C904 1.368 1_545 S
C910 C909 1.523 . S
C911 C895 1.429 1_565 S
C911 C907 1.429 . S
C911 C912 1.532 . S
C912 C896 1.389 . S
C912 C908 1.344 1_565 S
C912 C911 1.532 . S
H913 C888 0.952 . S
H914 C890 0.950 . S
H915 C891 0.949 . S
H916 C893 0.950 . S
H917 C895 0.950 . S
C918 C919 1.349 . S
C918 C920 1.327 . S
C918 H943 0.950 . S
C919 C918 1.349 . S
C919 C935 1.349 1_545 S
C920 C918 1.327 . S
C920 C939 1.429 . S
C920 H944 0.950 . S
C921 C938 1.574 . S
C921 C940 1.350 1_565 S
C921 H945 0.949 . S
H922 C926 0.949 . S
C923 C924 1.349 . S
C923 C925 1.327 . S
C923 H946 0.950 . S
C924 C923 1.349 . S
C924 C936 1.383 . S
C925 C923 1.327 . S
C925 C941 1.429 . S
C925 H947 0.950 . S
C926 H922 0.949 . S
C926 C934 1.574 . S
C926 C942 1.368 1_545 S
H927 C935 0.950 . S
H928 C933 0.950 . S
H929 C934 0.949 . S
H930 C936 0.938 1_545 S
H931 C937 0.950 . S
H932 C938 0.949 . S
C933 H928 0.950 . S
C933 C935 1.327 . S
C933 C939 1.429 1_565 S
C934 C926 1.574 . S
C934 H929 0.949 . S
C934 C940 1.382 . S
C935 C919 1.349 1_565 S
C935 H927 0.950 . S
C935 C933 1.327 . S
C936 C924 1.383 . S
C936 H930 0.938 1_565 S
C936 C937 1.316 1_565 S
C937 H931 0.950 . S
C937 C936 1.316 1_545 S
C937 C941 1.429 1_545 S
C938 C921 1.574 . S
C938 H932 0.949 . S
C938 C942 1.368 . S
C939 C920 1.429 . S
C939 C933 1.429 1_545 S
C939 C940 1.533 . S
C940 C921 1.350 1_545 S
C940 C934 1.382 . S
C940 C939 1.533 . S
C941 C925 1.429 . S
C941 C937 1.429 1_565 S
C941 C942 1.523 . S
C942 C926 1.368 1_565 S
C942 C938 1.368 . S
C942 C941 1.523 . S
H943 C918 0.950 . S
H944 C920 0.950 . S
H945 C921 0.949 . S
H946 C923 0.950 . S
H947 C925 0.950 . S
C948 C949 1.349 . S
C948 C950 1.327 . S
C948 H973 0.950 . S
C949 C948 1.349 . S
C949 C965 1.349 1_655 S
C950 C948 1.327 . S
C950 C969 1.429 . S
C950 H974 0.950 . S
C951 C968 1.574 . S
C951 C970 1.323 1_455 S
C951 H975 0.949 . S
H952 C956 0.949 . S
C953 C954 1.349 . S
C953 C955 1.327 . S
C953 H976 0.950 . S
C954 C953 1.349 . S
C954 C966 1.349 1_455 S
C955 C953 1.327 . S
C955 C971 1.429 . S
C955 H977 0.950 . S
C956 H952 0.949 . S
C956 C964 1.574 . S
C956 C972 1.368 1_655 S
H957 C965 0.950 . S
H958 C963 0.950 . S
H959 C964 0.949 . S
H960 C966 0.950 . S
H961 C967 0.950 . S
H962 C968 0.949 . S
C963 H958 0.950 . S
C963 C965 1.327 . S
C963 C969 1.429 1_455 S
C964 C956 1.574 . S
C964 H959 0.949 . S
C964 C970 1.408 . S
C965 C949 1.349 1_455 S
C965 H957 0.950 . S
C965 C963 1.327 . S
C966 C954 1.349 1_655 S
C966 H960 0.950 . S
C966 C967 1.327 . S
C967 H961 0.950 . S
C967 C966 1.327 . S
C967 C971 1.429 1_655 S
C968 C951 1.574 . S
C968 H962 0.949 . S
C968 C972 1.368 . S
C969 C950 1.429 . S
C969 C963 1.429 1_655 S
C969 C970 1.535 . S
C970 C951 1.323 1_655 S
C970 C964 1.408 . S
C970 C969 1.535 . S
C971 C955 1.429 . S
C971 C967 1.429 1_455 S
C971 C972 1.523 . S
C972 C956 1.368 1_455 S
C972 C968 1.368 . S
C972 C971 1.523 . S
H973 C948 0.950 . S
H974 C950 0.950 . S
H975 C951 0.949 . S
H976 C953 0.950 . S
H977 C955 0.950 . S
C978 C979 1.349 . S
C978 C980 1.327 . S
C978 H1003 0.950 . S
C979 C978 1.349 . S
C979 C995 1.349 . S
C980 C978 1.327 . S
C980 C999 1.429 . S
C980 H1004 0.950 . S
C981 C998 1.574 . S
C981 C1000 1.368 . S
C981 H1005 0.949 . S
H982 C986 0.949 . S
C983 C984 1.349 . S
C983 C985 1.327 . S
C983 H1006 0.950 . S
C984 C983 1.349 . S
C984 C996 1.349 . S
C985 C983 1.327 . S
C985 C1001 1.429 . S
C985 H1007 0.950 . S
C986 H982 0.949 . S
C986 C994 1.574 . S
C986 C1002 1.368 . S
H987 C995 0.950 . S
H988 C993 0.950 . S
H989 C994 0.949 . S
H990 C996 0.950 . S
H991 C997 0.950 . S
H992 C998 0.949 . S
C993 H988 0.950 . S
C993 C995 1.327 . S
C993 C999 1.429 . S
C994 C986 1.574 . S
C994 H989 0.949 . S
C994 C1000 1.368 . S
C995 C979 1.349 . S
C995 H987 0.950 . S
C995 C993 1.327 . S
C996 C984 1.349 . S
C996 H990 0.950 . S
C996 C997 1.327 . S
C997 H991 0.950 . S
C997 C996 1.327 . S
C997 C1001 1.429 . S
C998 C981 1.574 . S
C998 H992 0.949 . S
C998 C1002 1.368 . S
C999 C980 1.429 . S
C999 C993 1.429 . S
C999 C1000 1.523 . S
C1000 C981 1.368 . S
C1000 C994 1.368 . S
C1000 C999 1.523 . S
C1001 C985 1.429 . S
C1001 C997 1.429 . S
C1001 C1002 1.523 . S
C1002 C986 1.368 . S
C1002 C998 1.368 . S
C1002 C1001 1.523 . S
H1003 C978 0.950 . S
H1004 C980 0.950 . S
H1005 C981 0.949 . S
H1006 C983 0.950 . S
H1007 C985 0.950 . S
C1008 C1009 1.349 . S
C1008 C1010 1.327 . S
C1008 H1033 0.950 . S
C1009 C1008 1.349 . S
C1009 C1025 1.349 . S
C1010 C1008 1.327 . S
C1010 C1029 1.429 . S
C1010 H1034 0.950 . S
C1011 C1028 1.574 . S
C1011 C1030 1.368 . S
C1011 H1035 0.949 . S
H1012 C1016 0.949 . S
C1013 C1014 1.349 . S
C1013 C1015 1.327 . S
C1013 H1036 0.950 . S
C1014 C1013 1.349 . S
C1014 C1026 1.349 . S
C1015 C1013 1.327 . S
C1015 C1031 1.429 . S
C1015 H1037 0.950 . S
C1016 H1012 0.949 . S
C1016 C1024 1.574 . S
C1016 C1032 1.368 . S
H1017 C1025 0.950 . S
H1018 C1023 0.950 . S
H1019 C1024 0.949 . S
H1020 C1026 0.950 . S
H1021 C1027 0.950 . S
H1022 C1028 0.949 . S
C1023 H1018 0.950 . S
C1023 C1025 1.327 . S
C1023 C1029 1.429 . S
C1024 C1016 1.574 . S
C1024 H1019 0.949 . S
C1024 C1030 1.368 . S
C1025 C1009 1.349 . S
C1025 H1017 0.950 . S
C1025 C1023 1.327 . S
C1026 C1014 1.349 . S
C1026 H1020 0.950 . S
C1026 C1027 1.327 . S
C1027 H1021 0.950 . S
C1027 C1026 1.327 . S
C1027 C1031 1.429 . S
C1028 C1011 1.574 . S
C1028 H1022 0.949 . S
C1028 C1032 1.368 . S
C1029 C1010 1.429 . S
C1029 C1023 1.429 . S
C1029 C1030 1.523 . S
C1030 C1011 1.368 . S
C1030 C1024 1.368 . S
C1030 C1029 1.523 . S
C1031 C1015 1.429 . S
C1031 C1027 1.429 . S
C1031 C1032 1.523 . S
C1032 C1016 1.368 . S
C1032 C1028 1.368 . S
C1032 C1031 1.523 . S
H1033 C1008 0.950 . S
H1034 C1010 0.950 . S
H1035 C1011 0.949 . S
H1036 C1013 0.950 . S
H1037 C1015 0.950 . S
C1038 C1039 1.349 . S
C1038 C1040 1.327 . S
C1038 H1063 0.950 . S
C1039 C1038 1.349 . S
C1039 C1055 1.349 . S
C1040 C1038 1.327 . S
C1040 C1059 1.429 . S
C1040 H1064 0.950 . S
C1041 C1058 1.574 . S
C1041 C1060 1.368 . S
C1041 H1065 0.949 . S
H1042 C1046 0.949 . S
C1043 C1044 1.349 . S
C1043 C1045 1.327 . S
C1043 H1066 0.950 . S
C1044 C1043 1.349 . S
C1044 C1056 1.349 . S
C1045 C1043 1.327 . S
C1045 C1061 1.429 . S
C1045 H1067 0.950 . S
C1046 H1042 0.949 . S
C1046 C1054 1.574 . S
C1046 C1062 1.368 . S
H1047 C1055 0.950 . S
H1048 C1053 0.950 . S
H1049 C1054 0.949 . S
H1050 C1056 0.950 . S
H1051 C1057 0.950 . S
H1052 C1058 0.949 . S
C1053 H1048 0.950 . S
C1053 C1055 1.327 . S
C1053 C1059 1.429 . S
C1054 C1046 1.574 . S
C1054 H1049 0.949 . S
C1054 C1060 1.368 . S
C1055 C1039 1.349 . S
C1055 H1047 0.950 . S
C1055 C1053 1.327 . S
C1056 C1044 1.349 . S
C1056 H1050 0.950 . S
C1056 C1057 1.327 . S
C1057 H1051 0.950 . S
C1057 C1056 1.327 . S
C1057 C1061 1.429 . S
C1058 C1041 1.574 . S
C1058 H1052 0.949 . S
C1058 C1062 1.368 . S
C1059 C1040 1.429 . S
C1059 C1053 1.429 . S
C1059 C1060 1.523 . S
C1060 C1041 1.368 . S
C1060 C1054 1.368 . S
C1060 C1059 1.523 . S
C1061 C1045 1.429 . S
C1061 C1057 1.429 . S
C1061 C1062 1.523 . S
C1062 C1046 1.368 . S
C1062 C1058 1.368 . S
C1062 C1061 1.523 . S
H1063 C1038 0.950 . S
H1064 C1040 0.950 . S
H1065 C1041 0.949 . S
H1066 C1043 0.950 . S
H1067 C1045 0.950 . S
C1068 C1069 1.349 . S
C1068 C1070 1.327 . S
C1068 H1093 0.950 . S
C1069 C1068 1.349 . S
C1069 C1085 1.349 . S
C1070 C1068 1.327 . S
C1070 C1089 1.429 . S
C1070 H1094 0.950 . S
C1071 C1088 1.574 . S
C1071 C1090 1.368 . S
C1071 H1095 0.949 . S
H1072 C1076 0.949 . S
C1073 C1074 1.349 . S
C1073 C1075 1.327 . S
C1073 H1096 0.950 . S
C1074 C1073 1.349 . S
C1074 C1086 1.349 . S
C1075 C1073 1.327 . S
C1075 C1091 1.429 . S
C1075 H1097 0.950 . S
C1076 H1072 0.949 . S
C1076 C1084 1.574 . S
C1076 C1092 1.368 . S
H1077 C1085 0.950 . S
H1078 C1083 0.950 . S
H1079 C1084 0.949 . S
H1080 C1086 0.950 . S
H1081 C1087 0.950 . S
H1082 C1088 0.949 . S
C1083 H1078 0.950 . S
C1083 C1085 1.327 . S
C1083 C1089 1.429 . S
C1084 C1076 1.574 . S
C1084 H1079 0.949 . S
C1084 C1090 1.368 . S
C1085 C1069 1.349 . S
C1085 H1077 0.950 . S
C1085 C1083 1.327 . S
C1086 C1074 1.349 . S
C1086 H1080 0.950 . S
C1086 C1087 1.327 . S
C1087 H1081 0.950 . S
C1087 C1086 1.327 . S
C1087 C1091 1.429 . S
C1088 C1071 1.574 . S
C1088 H1082 0.949 . S
C1088 C1092 1.368 . S
C1089 C1070 1.429 . S
C1089 C1083 1.429 . S
C1089 C1090 1.523 . S
C1090 C1071 1.368 . S
C1090 C1084 1.368 . S
C1090 C1089 1.523 . S
C1091 C1075 1.429 . S
C1091 C1087 1.429 . S
C1091 C1092 1.523 . S
C1092 C1076 1.368 . S
C1092 C1088 1.368 . S
C1092 C1091 1.523 . S
H1093 C1068 0.950 . S
H1094 C1070 0.950 . S
H1095 C1071 0.949 . S
H1096 C1073 0.950 . S
H1097 C1075 0.950 . S
C1098 C1099 1.349 . S
C1098 C1100 1.327 . S
C1098 H1123 0.950 . S
C1099 C1098 1.349 . S
C1099 C1115 1.349 . S
C1100 C1098 1.327 . S
C1100 C1119 1.429 . S
C1100 H1124 0.950 . S
C1101 C1118 1.574 . S
C1101 C1120 1.368 . S
C1101 H1125 0.949 . S
H1102 C1106 0.949 . S
C1103 C1104 1.349 . S
C1103 C1105 1.327 . S
C1103 H1126 0.950 . S
C1104 C1103 1.349 . S
C1104 C1116 1.349 . S
C1105 C1103 1.327 . S
C1105 C1121 1.429 . S
C1105 H1127 0.950 . S
C1106 H1102 0.949 . S
C1106 C1114 1.574 . S
C1106 C1122 1.368 . S
H1107 C1115 0.950 . S
H1108 C1113 0.950 . S
H1109 C1114 0.949 . S
H1110 C1116 0.950 . S
H1111 C1117 0.950 . S
H1112 C1118 0.949 . S
C1113 H1108 0.950 . S
C1113 C1115 1.327 . S
C1113 C1119 1.429 . S
C1114 C1106 1.574 . S
C1114 H1109 0.949 . S
C1114 C1120 1.368 . S
C1115 C1099 1.349 . S
C1115 H1107 0.950 . S
C1115 C1113 1.327 . S
C1116 C1104 1.349 . S
C1116 H1110 0.950 . S
C1116 C1117 1.327 . S
C1117 H1111 0.950 . S
C1117 C1116 1.327 . S
C1117 C1121 1.429 . S
C1118 C1101 1.574 . S
C1118 H1112 0.949 . S
C1118 C1122 1.368 . S
C1119 C1100 1.429 . S
C1119 C1113 1.429 . S
C1119 C1120 1.523 . S
C1120 C1101 1.368 . S
C1120 C1114 1.368 . S
C1120 C1119 1.523 . S
C1121 C1105 1.429 . S
C1121 C1117 1.429 . S
C1121 C1122 1.523 . S
C1122 C1106 1.368 . S
C1122 C1118 1.368 . S
C1122 C1121 1.523 . S
H1123 C1098 0.950 . S
H1124 C1100 0.950 . S
H1125 C1101 0.949 . S
H1126 C1103 0.950 . S
H1127 C1105 0.950 . S
C1128 C1129 1.349 . S
C1128 C1130 1.327 . S
C1128 H1153 0.950 . S
C1129 C1128 1.349 . S
C1129 C1145 1.349 . S
C1130 C1128 1.327 . S
C1130 C1149 1.429 . S
C1130 H1154 0.950 . S
C1131 C1148 1.574 . S
C1131 C1150 1.368 . S
C1131 H1155 0.949 . S
H1132 C1136 0.949 . S
C1133 C1134 1.349 . S
C1133 C1135 1.327 . S
C1133 H1156 0.950 . S
C1134 C1133 1.349 . S
C1134 C1146 1.349 . S
C1135 C1133 1.327 . S
C1135 C1151 1.429 . S
C1135 H1157 0.950 . S
C1136 H1132 0.949 . S
C1136 C1144 1.574 . S
C1136 C1152 1.368 . S
H1137 C1145 0.950 . S
H1138 C1143 0.950 . S
H1139 C1144 0.949 . S
H1140 C1146 0.950 . S
H1141 C1147 0.950 . S
H1142 C1148 0.949 . S
C1143 H1138 0.950 . S
C1143 C1145 1.327 . S
C1143 C1149 1.429 . S
C1144 C1136 1.574 . S
C1144 H1139 0.949 . S
C1144 C1150 1.368 . S
C1145 C1129 1.349 . S
C1145 H1137 0.950 . S
C1145 C1143 1.327 . S
C1146 C1134 1.349 . S
C1146 H1140 0.950 . S
C1146 C1147 1.327 . S
C1147 H1141 0.950 . S
C1147 C1146 1.327 . S
C1147 C1151 1.429 . S
C1148 C1131 1.574 . S
C1148 H1142 0.949 . S
C1148 C1152 1.368 . S
C1149 C1130 1.429 . S
C1149 C1143 1.429 . S
C1149 C1150 1.523 . S
C1150 C1131 1.368 . S
C1150 C1144 1.368 . S
C1150 C1149 1.523 . S
C1151 C1135 1.429 . S
C1151 C1147 1.429 . S
C1151 C1152 1.523 . S
C1152 C1136 1.368 . S
C1152 C1148 1.368 . S
C1152 C1151 1.523 . S
H1153 C1128 0.950 . S
H1154 C1130 0.950 . S
H1155 C1131 0.949 . S
H1156 C1133 0.950 . S
H1157 C1135 0.950 . S
C1158 C1159 1.349 . S
C1158 C1160 1.327 . S
C1158 H1183 0.950 . S
C1159 C1158 1.349 . S
C1159 C1175 1.349 . S
C1160 C1158 1.327 . S
C1160 C1179 1.429 . S
C1160 H1184 0.950 . S
C1161 C1178 1.574 . S
C1161 C1180 1.368 . S
C1161 H1185 0.949 . S
H1162 C1166 0.949 . S
C1163 C1164 1.349 . S
C1163 C1165 1.327 . S
C1163 H1186 0.950 . S
C1164 C1163 1.349 . S
C1164 C1176 1.349 . S
C1165 C1163 1.327 . S
C1165 C1181 1.429 . S
C1165 H1187 0.950 . S
C1166 H1162 0.949 . S
C1166 C1174 1.574 . S
C1166 C1182 1.368 . S
H1167 C1175 0.950 . S
H1168 C1173 0.950 . S
H1169 C1174 0.949 . S
H1170 C1176 0.950 . S
H1171 C1177 0.950 . S
H1172 C1178 0.949 . S
C1173 H1168 0.950 . S
C1173 C1175 1.327 . S
C1173 C1179 1.429 . S
C1174 C1166 1.574 . S
C1174 H1169 0.949 . S
C1174 C1180 1.368 . S
C1175 C1159 1.349 . S
C1175 H1167 0.950 . S
C1175 C1173 1.327 . S
C1176 C1164 1.349 . S
C1176 H1170 0.950 . S
C1176 C1177 1.327 . S
C1177 H1171 0.950 . S
C1177 C1176 1.327 . S
C1177 C1181 1.429 . S
C1178 C1161 1.574 . S
C1178 H1172 0.949 . S
C1178 C1182 1.368 . S
C1179 C1160 1.429 . S
C1179 C1173 1.429 . S
C1179 C1180 1.523 . S
C1180 C1161 1.368 . S
C1180 C1174 1.368 . S
C1180 C1179 1.523 . S
C1181 C1165 1.429 . S
C1181 C1177 1.429 . S
C1181 C1182 1.523 . S
C1182 C1166 1.368 . S
C1182 C1178 1.368 . S
C1182 C1181 1.523 . S
H1183 C1158 0.950 . S
H1184 C1160 0.950 . S
H1185 C1161 0.949 . S
H1186 C1163 0.950 . S
H1187 C1165 0.950 . S
C1188 C1189 1.349 . S
C1188 C1190 1.327 . S
C1188 H1213 0.950 . S
C1189 C1188 1.349 . S
C1189 C1205 1.349 . S
C1190 C1188 1.327 . S
C1190 C1209 1.429 . S
C1190 H1214 0.950 . S
C1191 C1208 1.574 . S
C1191 C1210 1.368 . S
C1191 H1215 0.949 . S
H1192 C1196 0.949 . S
C1193 C1194 1.349 . S
C1193 C1195 1.327 . S
C1193 H1216 0.950 . S
C1194 C1193 1.349 . S
C1194 C1206 1.349 . S
C1195 C1193 1.327 . S
C1195 C1211 1.429 . S
C1195 H1217 0.950 . S
C1196 H1192 0.949 . S
C1196 C1204 1.574 . S
C1196 C1212 1.368 . S
H1197 C1205 0.950 . S
H1198 C1203 0.950 . S
H1199 C1204 0.949 . S
H1200 C1206 0.950 . S
H1201 C1207 0.950 . S
H1202 C1208 0.949 . S
C1203 H1198 0.950 . S
C1203 C1205 1.327 . S
C1203 C1209 1.429 . S
C1204 C1196 1.574 . S
C1204 H1199 0.949 . S
C1204 C1210 1.368 . S
C1205 C1189 1.349 . S
C1205 H1197 0.950 . S
C1205 C1203 1.327 . S
C1206 C1194 1.349 . S
C1206 H1200 0.950 . S
C1206 C1207 1.327 . S
C1207 H1201 0.950 . S
C1207 C1206 1.327 . S
C1207 C1211 1.429 . S
C1208 C1191 1.574 . S
C1208 H1202 0.949 . S
C1208 C1212 1.368 . S
C1209 C1190 1.429 . S
C1209 C1203 1.429 . S
C1209 C1210 1.523 . S
C1210 C1191 1.368 . S
C1210 C1204 1.368 . S
C1210 C1209 1.523 . S
C1211 C1195 1.429 . S
C1211 C1207 1.429 . S
C1211 C1212 1.523 . S
C1212 C1196 1.368 . S
C1212 C1208 1.368 . S
C1212 C1211 1.523 . S
H1213 C1188 0.950 . S
H1214 C1190 0.950 . S
H1215 C1191 0.949 . S
H1216 C1193 0.950 . S
H1217 C1195 0.950 . S
C1218 C1219 1.349 . S
C1218 C1220 1.327 . S
C1218 H1243 0.950 . S
C1219 C1218 1.349 . S
C1219 C1235 1.349 . S
C1220 C1218 1.327 . S
C1220 C1239 1.429 . S
C1220 H1244 0.950 . S
C1221 C1238 1.574 . S
C1221 C1240 1.368 . S
C1221 H1245 0.949 . S
H1222 C1226 0.949 . S
C1223 C1224 1.349 . S
C1223 C1225 1.327 . S
C1223 H1246 0.950 . S
C1224 C1223 1.349 . S
C1224 C1236 1.349 . S
C1225 C1223 1.327 . S
C1225 C1241 1.429 . S
C1225 H1247 0.950 . S
C1226 H1222 0.949 . S
C1226 C1234 1.574 . S
C1226 C1242 1.368 . S
H1227 C1235 0.950 . S
H1228 C1233 0.950 . S
H1229 C1234 0.949 . S
H1230 C1236 0.950 . S
H1231 C1237 0.950 . S
H1232 C1238 0.949 . S
C1233 H1228 0.950 . S
C1233 C1235 1.327 . S
C1233 C1239 1.429 . S
C1234 C1226 1.574 . S
C1234 H1229 0.949 . S
C1234 C1240 1.368 . S
C1235 C1219 1.349 . S
C1235 H1227 0.950 . S
C1235 C1233 1.327 . S
C1236 C1224 1.349 . S
C1236 H1230 0.950 . S
C1236 C1237 1.327 . S
C1237 H1231 0.950 . S
C1237 C1236 1.327 . S
C1237 C1241 1.429 . S
C1238 C1221 1.574 . S
C1238 H1232 0.949 . S
C1238 C1242 1.368 . S
C1239 C1220 1.429 . S
C1239 C1233 1.429 . S
C1239 C1240 1.523 . S
C1240 C1221 1.368 . S
C1240 C1234 1.368 . S
C1240 C1239 1.523 . S
C1241 C1225 1.429 . S
C1241 C1237 1.429 . S
C1241 C1242 1.523 . S
C1242 C1226 1.368 . S
C1242 C1238 1.368 . S
C1242 C1241 1.523 . S
H1243 C1218 0.950 . S
H1244 C1220 0.950 . S
H1245 C1221 0.949 . S
H1246 C1223 0.950 . S
H1247 C1225 0.950 . S
C1248 C1249 1.349 . S
C1248 C1250 1.327 . S
C1248 H1273 0.950 . S
C1249 C1248 1.349 . S
C1249 C1265 1.349 . S
C1250 C1248 1.327 . S
C1250 C1269 1.429 . S
C1250 H1274 0.950 . S
C1251 C1268 1.574 . S
C1251 C1270 1.368 . S
C1251 H1275 0.949 . S
H1252 C1256 0.949 . S
C1253 C1254 1.349 . S
C1253 C1255 1.327 . S
C1253 H1276 0.950 . S
C1254 C1253 1.349 . S
C1254 C1266 1.349 . S
C1255 C1253 1.327 . S
C1255 C1271 1.429 . S
C1255 H1277 0.950 . S
C1256 H1252 0.949 . S
C1256 C1264 1.574 . S
C1256 C1272 1.368 . S
H1257 C1265 0.950 . S
H1258 C1263 0.950 . S
H1259 C1264 0.949 . S
H1260 C1266 0.950 . S
H1261 C1267 0.950 . S
H1262 C1268 0.949 . S
C1263 H1258 0.950 . S
C1263 C1265 1.327 . S
C1263 C1269 1.429 . S
C1264 C1256 1.574 . S
C1264 H1259 0.949 . S
C1264 C1270 1.368 . S
C1265 C1249 1.349 . S
C1265 H1257 0.950 . S
C1265 C1263 1.327 . S
C1266 C1254 1.349 . S
C1266 H1260 0.950 . S
C1266 C1267 1.327 . S
C1267 H1261 0.950 . S
C1267 C1266 1.327 . S
C1267 C1271 1.429 . S
C1268 C1251 1.574 . S
C1268 H1262 0.949 . S
C1268 C1272 1.368 . S
C1269 C1250 1.429 . S
C1269 C1263 1.429 . S
C1269 C1270 1.523 . S
C1270 C1251 1.368 . S
C1270 C1264 1.368 . S
C1270 C1269 1.523 . S
C1271 C1255 1.429 . S
C1271 C1267 1.429 . S
C1271 C1272 1.523 . S
C1272 C1256 1.368 . S
C1272 C1268 1.368 . S
C1272 C1271 1.523 . S
H1273 C1248 0.950 . S
H1274 C1250 0.950 . S
H1275 C1251 0.949 . S
H1276 C1253 0.950 . S
H1277 C1255 0.950 . S
C1278 C1279 1.349 . S
C1278 C1280 1.327 . S
C1278 H1303 0.950 . S
C1279 C1278 1.349 . S
C1279 C1295 1.349 . S
C1280 C1278 1.327 . S
C1280 C1299 1.429 . S
C1280 H1304 0.950 . S
C1281 C1298 1.574 . S
C1281 C1300 1.368 . S
C1281 H1305 0.949 . S
H1282 C1286 0.949 . S
C1283 C1284 1.349 . S
C1283 C1285 1.327 . S
C1283 H1306 0.950 . S
C1284 C1283 1.349 . S
C1284 C1296 1.349 . S
C1285 C1283 1.327 . S
C1285 C1301 1.429 . S
C1285 H1307 0.950 . S
C1286 H1282 0.949 . S
C1286 C1294 1.574 . S
C1286 C1302 1.368 . S
H1287 C1295 0.950 . S
H1288 C1293 0.950 . S
H1289 C1294 0.949 . S
H1290 C1296 0.950 . S
H1291 C1297 0.950 . S
H1292 C1298 0.949 . S
C1293 H1288 0.950 . S
C1293 C1295 1.327 . S
C1293 C1299 1.429 . S
C1294 C1286 1.574 . S
C1294 H1289 0.949 . S
C1294 C1300 1.368 . S
C1295 C1279 1.349 . S
C1295 H1287 0.950 . S
C1295 C1293 1.327 . S
C1296 C1284 1.349 . S
C1296 H1290 0.950 . S
C1296 C1297 1.327 . S
C1297 H1291 0.950 . S
C1297 C1296 1.327 . S
C1297 C1301 1.429 . S
C1298 C1281 1.574 . S
C1298 H1292 0.949 . S
C1298 C1302 1.368 . S
C1299 C1280 1.429 . S
C1299 C1293 1.429 . S
C1299 C1300 1.523 . S
C1300 C1281 1.368 . S
C1300 C1294 1.368 . S
C1300 C1299 1.523 . S
C1301 C1285 1.429 . S
C1301 C1297 1.429 . S
C1301 C1302 1.523 . S
C1302 C1286 1.368 . S
C1302 C1298 1.368 . S
C1302 C1301 1.523 . S
H1303 C1278 0.950 . S
H1304 C1280 0.950 . S
H1305 C1281 0.949 . S
H1306 C1283 0.950 . S
H1307 C1285 0.950 . S
C1308 C1309 1.349 . S
C1308 C1310 1.327 . S
C1308 H1333 0.950 . S
C1309 C1308 1.349 . S
C1309 C1325 1.349 . S
C1310 C1308 1.327 . S
C1310 C1329 1.429 . S
C1310 H1334 0.950 . S
C1311 C1328 1.574 . S
C1311 C1330 1.368 . S
C1311 H1335 0.949 . S
H1312 C1316 0.949 . S
C1313 C1314 1.349 . S
C1313 C1315 1.327 . S
C1313 H1336 0.950 . S
C1314 C1313 1.349 . S
C1314 C1326 1.349 . S
C1315 C1313 1.327 . S
C1315 C1331 1.429 . S
C1315 H1337 0.950 . S
C1316 H1312 0.949 . S
C1316 C1324 1.574 . S
C1316 C1332 1.368 . S
H1317 C1325 0.950 . S
H1318 C1323 0.950 . S
H1319 C1324 0.949 . S
H1320 C1326 0.950 . S
H1321 C1327 0.950 . S
H1322 C1328 0.949 . S
C1323 H1318 0.950 . S
C1323 C1325 1.327 . S
C1323 C1329 1.429 . S
C1324 C1316 1.574 . S
C1324 H1319 0.949 . S
C1324 C1330 1.368 . S
C1325 C1309 1.349 . S
C1325 H1317 0.950 . S
C1325 C1323 1.327 . S
C1326 C1314 1.349 . S
C1326 H1320 0.950 . S
C1326 C1327 1.327 . S
C1327 H1321 0.950 . S
C1327 C1326 1.327 . S
C1327 C1331 1.429 . S
C1328 C1311 1.574 . S
C1328 H1322 0.949 . S
C1328 C1332 1.368 . S
C1329 C1310 1.429 . S
C1329 C1323 1.429 . S
C1329 C1330 1.523 . S
C1330 C1311 1.368 . S
C1330 C1324 1.368 . S
C1330 C1329 1.523 . S
C1331 C1315 1.429 . S
C1331 C1327 1.429 . S
C1331 C1332 1.523 . S
C1332 C1316 1.368 . S
C1332 C1328 1.368 . S
C1332 C1331 1.523 . S
H1333 C1308 0.950 . S
H1334 C1310 0.950 . S
H1335 C1311 0.949 . S
H1336 C1313 0.950 . S
H1337 C1315 0.950 . S
C1338 C1339 1.349 . S
C1338 C1340 1.327 . S
C1338 H1363 0.950 . S
C1339 C1338 1.349 . S
C1339 C1355 1.349 . S
C1340 C1338 1.327 . S
C1340 C1359 1.429 . S
C1340 H1364 0.950 . S
C1341 C1358 1.574 . S
C1341 C1360 1.368 . S
C1341 H1365 0.949 . S
H1342 C1346 0.949 . S
C1343 C1344 1.349 . S
C1343 C1345 1.327 . S
C1343 H1366 0.950 . S
C1344 C1343 1.349 . S
C1344 C1356 1.349 . S
C1345 C1343 1.327 . S
C1345 C1361 1.429 . S
C1345 H1367 0.950 . S
C1346 H1342 0.949 . S
C1346 C1354 1.574 . S
C1346 C1362 1.368 . S
H1347 C1355 0.950 . S
H1348 C1353 0.950 . S
H1349 C1354 0.949 . S
H1350 C1356 0.950 . S
H1351 C1357 0.950 . S
H1352 C1358 0.949 . S
C1353 H1348 0.950 . S
C1353 C1355 1.327 . S
C1353 C1359 1.429 . S
C1354 C1346 1.574 . S
C1354 H1349 0.949 . S
C1354 C1360 1.368 . S
C1355 C1339 1.349 . S
C1355 H1347 0.950 . S
C1355 C1353 1.327 . S
C1356 C1344 1.349 . S
C1356 H1350 0.950 . S
C1356 C1357 1.327 . S
C1357 H1351 0.950 . S
C1357 C1356 1.327 . S
C1357 C1361 1.429 . S
C1358 C1341 1.574 . S
C1358 H1352 0.949 . S
C1358 C1362 1.368 . S
C1359 C1340 1.429 . S
C1359 C1353 1.429 . S
C1359 C1360 1.523 . S
C1360 C1341 1.368 . S
C1360 C1354 1.368 . S
C1360 C1359 1.523 . S
C1361 C1345 1.429 . S
C1361 C1357 1.429 . S
C1361 C1362 1.523 . S
C1362 C1346 1.368 . S
C1362 C1358 1.368 . S
C1362 C1361 1.523 . S
H1363 C1338 0.950 . S
H1364 C1340 0.950 . S
H1365 C1341 0.949 . S
H1366 C1343 0.950 . S
H1367 C1345 0.950 . S
C1368 C1369 1.349 1_455 S
C1368 C1370 1.327 . S
C1368 H1393 0.950 . S
C1369 C1368 1.349 1_655 S
C1369 C1385 1.349 . S
C1370 C1368 1.327 . S
C1370 C1389 1.352 1_455 S
C1370 H1394 0.950 . S
C1371 C1388 1.574 . S
C1371 C1390 1.399 . S
C1371 H1395 0.949 . S
H1372 C1376 0.949 . S
C1373 C1374 1.349 1_655 S
C1373 C1375 1.327 . S
C1373 H1396 0.950 . S
C1374 C1373 1.349 1_455 S
C1374 C1386 1.349 . S
C1375 C1373 1.327 . S
C1375 C1391 1.355 1_655 S
C1375 H1397 0.950 . S
C1376 H1372 0.949 . S
C1376 C1384 1.574 . S
C1376 C1392 1.397 . S
H1377 C1385 0.950 . S
H1378 C1383 0.950 . S
H1379 C1384 0.949 . S
H1380 C1386 0.950 . S
H1381 C1387 0.950 . S
H1382 C1388 0.949 . S
C1383 H1378 0.950 . S
C1383 C1385 1.327 . S
C1383 C1389 1.455 . S
C1384 C1376 1.574 . S
C1384 H1379 0.949 . S
C1384 C1390 1.355 1_455 S
C1385 C1369 1.349 . S
C1385 H1377 0.950 . S
C1385 C1383 1.327 . S
C1386 C1374 1.349 . S
C1386 H1380 0.950 . S
C1386 C1387 1.327 . S
C1387 H1381 0.950 . S
C1387 C1386 1.327 . S
C1387 C1391 1.454 . S
C1388 C1371 1.574 . S
C1388 H1382 0.949 . S
C1388 C1392 1.356 1_655 S
C1389 C1370 1.352 1_655 S
C1389 C1383 1.455 . S
C1389 C1390 1.555 . S
C1390 C1371 1.399 . S
C1390 C1384 1.355 1_655 S
C1390 C1389 1.555 . S
C1391 C1375 1.355 1_455 S
C1391 C1387 1.454 . S
C1391 C1392 1.555 . S
C1392 C1376 1.397 . S
C1392 C1388 1.356 1_455 S
C1392 C1391 1.555 . S
H1393 C1368 0.950 . S
H1394 C1370 0.950 . S
H1395 C1371 0.949 . S
H1396 C1373 0.950 . S
H1397 C1375 0.950 . S
C1398 C1399 1.349 . S
C1398 C1400 1.327 . S
C1398 H1423 0.950 . S
C1399 C1398 1.349 . S
C1399 C1415 1.349 . S
C1400 C1398 1.327 . S
C1400 C1419 1.429 . S
C1400 H1424 0.950 . S
C1401 C1418 1.574 . S
C1401 C1420 1.368 . S
C1401 H1425 0.949 . S
H1402 C1406 0.949 . S
C1403 C1404 1.349 . S
C1403 C1405 1.327 . S
C1403 H1426 0.950 . S
C1404 C1403 1.349 . S
C1404 C1416 1.349 . S
C1405 C1403 1.327 . S
C1405 C1421 1.429 . S
C1405 H1427 0.950 . S
C1406 H1402 0.949 . S
C1406 C1414 1.574 . S
C1406 C1422 1.368 . S
H1407 C1415 0.950 . S
H1408 C1413 0.950 . S
H1409 C1414 0.949 . S
H1410 C1416 0.950 . S
H1411 C1417 0.950 . S
H1412 C1418 0.949 . S
C1413 H1408 0.950 . S
C1413 C1415 1.327 . S
C1413 C1419 1.429 . S
C1414 C1406 1.574 . S
C1414 H1409 0.949 . S
C1414 C1420 1.368 . S
C1415 C1399 1.349 . S
C1415 H1407 0.950 . S
C1415 C1413 1.327 . S
C1416 C1404 1.349 . S
C1416 H1410 0.950 . S
C1416 C1417 1.327 . S
C1417 H1411 0.950 . S
C1417 C1416 1.327 . S
C1417 C1421 1.429 . S
C1418 C1401 1.574 . S
C1418 H1412 0.949 . S
C1418 C1422 1.368 . S
C1419 C1400 1.429 . S
C1419 C1413 1.429 . S
C1419 C1420 1.523 . S
C1420 C1401 1.368 . S
C1420 C1414 1.368 . S
C1420 C1419 1.523 . S
C1421 C1405 1.429 . S
C1421 C1417 1.429 . S
C1421 C1422 1.523 . S
C1422 C1406 1.368 . S
C1422 C1418 1.368 . S
C1422 C1421 1.523 . S
H1423 C1398 0.950 . S
H1424 C1400 0.950 . S
H1425 C1401 0.949 . S
H1426 C1403 0.950 . S
H1427 C1405 0.950 . S
C1428 C1429 1.349 . S
C1428 C1430 1.327 . S
C1428 H1453 0.950 . S
C1429 C1428 1.349 . S
C1429 C1445 1.349 1_565 S
C1430 C1428 1.327 . S
C1430 C1449 1.540 . S
C1430 H1454 0.950 . S
C1431 C1448 1.574 . S
C1431 C1450 1.326 1_545 S
C1431 H1455 0.949 . S
H1432 C1436 0.949 . S
C1433 C1434 1.349 . S
C1433 C1435 1.327 . S
C1433 H1456 0.950 . S
C1434 C1433 1.349 . S
C1434 C1446 1.349 1_545 S
C1435 C1433 1.327 . S
C1435 C1451 1.547 . S
C1435 H1457 0.950 . S
C1436 H1432 0.949 . S
C1436 C1444 1.574 . S
C1436 C1452 1.320 1_565 S
H1437 C1445 0.950 . S
H1438 C1443 0.950 . S
H1439 C1444 0.949 . S
H1440 C1446 0.950 . S
H1441 C1447 0.950 . S
H1442 C1448 0.949 . S
C1443 H1438 0.950 . S
C1443 C1445 1.327 . S
C1443 C1449 1.385 1_545 S
C1444 C1436 1.574 . S
C1444 H1439 0.949 . S
C1444 C1450 1.393 . S
C1445 C1429 1.349 1_545 S
C1445 H1437 0.950 . S
C1445 C1443 1.327 . S
C1446 C1434 1.349 1_565 S
C1446 H1440 0.950 . S
C1446 C1447 1.327 . S
C1447 H1441 0.950 . S
C1447 C1446 1.327 . S
C1447 C1451 1.383 1_565 S
C1448 C1431 1.574 . S
C1448 H1442 0.949 . S
C1448 C1452 1.397 . S
C1449 C1430 1.540 . S
C1449 C1443 1.385 1_565 S
C1449 C1450 1.488 . S
C1450 C1431 1.326 1_565 S
C1450 C1444 1.393 . S
C1450 C1449 1.488 . S
C1451 C1435 1.547 . S
C1451 C1447 1.383 1_545 S
C1451 C1452 1.488 . S
C1452 C1436 1.320 1_545 S
C1452 C1448 1.397 . S
C1452 C1451 1.488 . S
H1453 C1428 0.950 . S
H1454 C1430 0.950 . S
H1455 C1431 0.949 . S
H1456 C1433 0.950 . S
H1457 C1435 0.950 . S
C1458 C1459 1.352 1_565 S
C1458 C1460 1.327 . S
C1458 H1483 0.950 . S
C1459 C1458 1.352 1_545 S
C1459 C1475 1.348 1_556 S
C1460 C1458 1.327 . S
C1460 C1479 1.431 1_565 S
C1460 H1484 0.950 . S
C1461 C1478 1.574 . S
C1461 C1480 1.364 1_554 S
C1461 H1485 0.949 . S
H1462 C1466 0.949 . S
C1463 C1464 1.358 1_545 S
C1463 C1465 1.327 . S
C1463 H1486 0.950 . S
C1464 C1463 1.358 1_565 S
C1464 C1476 1.345 1_554 S
C1465 C1463 1.327 . S
C1465 C1481 1.424 . S
C1465 H1487 0.950 . S
C1466 H1462 0.949 . S
C1466 C1474 1.574 . S
C1466 C1482 1.374 1_566 S
H1467 C1475 0.950 . S
H1468 C1473 0.950 . S
H1469 C1474 0.949 . S
H1470 C1476 0.950 . S
H1471 C1477 0.950 . S
H1472 C1478 0.949 . S
C1473 H1468 0.950 . S
C1473 C1475 1.327 . S
C1473 C1479 1.423 1_554 S
C1474 C1466 1.574 . S
C1474 H1469 0.949 . S
C1474 C1480 1.376 1_565 S
C1475 C1459 1.348 1_554 S
C1475 H1467 0.950 . S
C1475 C1473 1.327 . S
C1476 C1464 1.345 1_556 S
C1476 H1470 0.950 . S
C1476 C1477 1.327 . S
C1477 H1471 0.950 . S
C1477 C1476 1.327 . S
C1477 C1481 1.440 1_566 S
C1478 C1461 1.574 . S
C1478 H1472 0.949 . S
C1478 C1482 1.358 . S
C1479 C1460 1.431 1_545 S
C1479 C1473 1.423 1_556 S
C1479 C1480 1.522 . S
C1480 C1461 1.364 1_556 S
C1480 C1474 1.376 1_545 S
C1480 C1479 1.522 . S
C1481 C1465 1.424 . S
C1481 C1477 1.440 1_544 S
C1481 C1482 1.522 . S
C1482 C1466 1.374 1_544 S
C1482 C1478 1.358 . S
C1482 C1481 1.522 . S
H1483 C1458 0.950 . S
H1484 C1460 0.950 . S
H1485 C1461 0.949 . S
H1486 C1463 0.950 . S
H1487 C1465 0.950 . S
C1488 C1489 1.341 1_556 S
C1488 C1490 1.327 . S
C1488 H1513 0.950 . S
C1489 C1488 1.341 1_554 S
C1489 C1505 1.351 1_455 S
C1490 C1488 1.327 . S
C1490 C1509 1.430 1_456 S
C1490 H1514 0.950 . S
C1491 C1508 1.574 . S
C1491 C1510 1.365 . S
C1491 H1515 0.949 . S
H1492 C1496 0.949 . S
C1493 C1494 1.343 1_554 S
C1493 C1495 1.327 . S
C1493 H1516 0.950 . S
C1494 C1493 1.343 1_556 S
C1494 C1506 1.350 1_655 S
C1495 C1493 1.327 . S
C1495 C1511 1.427 1_554 S
C1495 H1517 0.950 . S
C1496 H1492 0.949 . S
C1496 C1504 1.574 . S
C1496 C1512 1.371 1_455 S
H1497 C1505 0.950 . S
H1498 C1503 0.950 . S
H1499 C1504 0.949 . S
H1500 C1506 0.950 . S
H1501 C1507 0.950 . S
H1502 C1508 0.949 . S
C1503 H1498 0.950 . S
C1503 C1505 1.327 . S
C1503 C1509 1.420 . S
C1504 C1496 1.574 . S
C1504 H1499 0.949 . S
C1504 C1510 1.376 1_456 S
C1505 C1489 1.351 1_655 S
C1505 H1497 0.950 . S
C1505 C1503 1.327 . S
C1506 C1494 1.350 1_455 S
C1506 H1500 0.950 . S
C1506 C1507 1.327 . S
C1507 H1501 0.950 . S
C1507 C1506 1.327 . S
C1507 C1511 1.436 1_455 S
C1508 C1491 1.574 . S
C1508 H1502 0.949 . S
C1508 C1512 1.361 1_554 S
C1509 C1490 1.430 1_654 S
C1509 C1503 1.420 . S
C1509 C1510 1.523 . S
C1510 C1491 1.365 . S
C1510 C1504 1.376 1_654 S
C1510 C1509 1.523 . S
C1511 C1495 1.427 1_556 S
C1511 C1507 1.436 1_655 S
C1511 C1512 1.523 . S
C1512 C1496 1.371 1_655 S
C1512 C1508 1.361 1_556 S
C1512 C1511 1.523 . S
H1513 C1488 0.950 . S
H1514 C1490 0.950 . S
H1515 C1491 0.949 . S
H1516 C1493 0.950 . S
H1517 C1495 0.950 . S
C1518 C1519 1.349 . S
C1518 C1520 1.327 . S
C1518 H1543 0.950 . S
C1519 C1518 1.349 . S
C1519 C1535 1.349 1_554 S
C1520 C1518 1.327 . S
C1520 C1539 1.429 . S
C1520 H1544 0.950 . S
C1521 C1538 1.574 . S
C1521 C1540 1.368 1_556 S
C1521 H1545 0.949 . S
H1522 C1526 0.949 . S
C1523 C1524 1.349 . S
C1523 C1525 1.327 . S
C1523 H1546 0.950 . S
C1524 C1523 1.349 . S
C1524 C1536 1.349 1_556 S
C1525 C1523 1.327 . S
C1525 C1541 1.429 . S
C1525 H1547 0.950 . S
C1526 H1522 0.949 . S
C1526 C1534 1.574 . S
C1526 C1542 1.368 1_554 S
H1527 C1535 0.950 . S
H1528 C1533 0.950 . S
H1529 C1534 0.949 . S
H1530 C1536 0.950 . S
H1531 C1537 0.950 . S
H1532 C1538 0.949 . S
C1533 H1528 0.950 . S
C1533 C1535 1.327 . S
C1533 C1539 1.429 1_556 S
C1534 C1526 1.574 . S
C1534 H1529 0.949 . S
C1534 C1540 1.368 . S
C1535 C1519 1.349 1_556 S
C1535 H1527 0.950 . S
C1535 C1533 1.327 . S
C1536 C1524 1.349 1_554 S
C1536 H1530 0.950 . S
C1536 C1537 1.327 . S
C1537 H1531 0.950 . S
C1537 C1536 1.327 . S
C1537 C1541 1.429 1_554 S
C1538 C1521 1.574 . S
C1538 H1532 0.949 . S
C1538 C1542 1.368 . S
C1539 C1520 1.429 . S
C1539 C1533 1.429 1_554 S
C1539 C1540 1.523 . S
C1540 C1521 1.368 1_554 S
C1540 C1534 1.368 . S
C1540 C1539 1.523 . S
C1541 C1525 1.429 . S
C1541 C1537 1.429 1_556 S
C1541 C1542 1.523 . S
C1542 C1526 1.368 1_556 S
C1542 C1538 1.368 . S
C1542 C1541 1.523 . S
H1543 C1518 0.950 . S
H1544 C1520 0.950 . S
H1545 C1521 0.949 . S
H1546 C1523 0.950 . S
H1547 C1525 0.950 . S
C1548 C1549 1.349 . S
C1548 C1550 1.327 . S
C1548 H1573 0.950 . S
C1549 C1548 1.349 . S
C1549 C1565 1.349 . S
C1550 C1548 1.327 . S
C1550 C1569 1.429 . S
C1550 H1574 0.950 . S
C1551 C1568 1.574 . S
C1551 C1570 1.368 . S
C1551 H1575 0.949 . S
H1552 C1556 0.949 . S
C1553 C1554 1.349 . S
C1553 C1555 1.327 . S
C1553 H1576 0.950 . S
C1554 C1553 1.349 . S
C1554 C1566 1.349 . S
C1555 C1553 1.327 . S
C1555 C1571 1.429 . S
C1555 H1577 0.950 . S
C1556 H1552 0.949 . S
C1556 C1564 1.574 . S
C1556 C1572 1.368 . S
H1557 C1565 0.950 1_556 S
H1558 C1563 0.950 . S
H1559 C1564 0.949 . S
H1560 C1566 0.950 . S
H1561 C1567 0.950 . S
H1562 C1568 0.949 . S
C1563 H1558 0.950 . S
C1563 C1565 1.327 . S
C1563 C1569 1.429 . S
C1564 C1556 1.574 . S
C1564 H1559 0.949 . S
C1564 C1570 1.368 . S
C1565 C1549 1.349 . S
C1565 H1557 0.950 1_554 S
C1565 C1563 1.327 . S
C1566 C1554 1.349 . S
C1566 H1560 0.950 . S
C1566 C1567 1.327 . S
C1567 H1561 0.950 . S
C1567 C1566 1.327 . S
C1567 C1571 1.429 . S
C1568 C1551 1.574 . S
C1568 H1562 0.949 . S
C1568 C1572 1.368 . S
C1569 C1550 1.429 . S
C1569 C1563 1.429 . S
C1569 C1570 1.523 . S
C1570 C1551 1.368 . S
C1570 C1564 1.368 . S
C1570 C1569 1.523 . S
C1571 C1555 1.429 . S
C1571 C1567 1.429 . S
C1571 C1572 1.523 . S
C1572 C1556 1.368 . S
C1572 C1568 1.368 . S
C1572 C1571 1.523 . S
H1573 C1548 0.950 . S
H1574 C1550 0.950 . S
H1575 C1551 0.949 . S
H1576 C1553 0.950 . S
H1577 C1555 0.950 . S
C1578 C1579 1.349 . S
C1578 C1580 1.327 . S
C1578 H1603 0.950 . S
C1579 C1578 1.349 . S
C1579 C1595 1.349 . S
C1580 C1578 1.327 . S
C1580 C1599 1.429 . S
C1580 H1604 0.950 . S
C1581 C1598 1.574 . S
C1581 C1600 1.368 . S
C1581 H1605 0.949 . S
H1582 C1586 0.949 . S
C1583 C1584 1.349 . S
C1583 C1585 1.327 . S
C1583 H1606 0.950 1_554 S
C1584 C1583 1.349 . S
C1584 C1596 1.349 . S
C1585 C1583 1.327 . S
C1585 C1601 1.429 . S
C1585 H1607 0.950 . S
C1586 H1582 0.949 . S
C1586 C1594 1.574 . S
C1586 C1602 1.368 . S
H1587 C1595 0.950 . S
H1588 C1593 0.950 . S
H1589 C1594 0.949 . S
H1590 C1596 0.950 . S
H1591 C1597 0.950 . S
H1592 C1598 0.949 . S
C1593 H1588 0.950 . S
C1593 C1595 1.327 . S
C1593 C1599 1.429 . S
C1594 C1586 1.574 . S
C1594 H1589 0.949 . S
C1594 C1600 1.368 . S
C1595 C1579 1.349 . S
C1595 H1587 0.950 . S
C1595 C1593 1.327 . S
C1596 C1584 1.349 . S
C1596 H1590 0.950 . S
C1596 C1597 1.327 . S
C1597 H1591 0.950 . S
C1597 C1596 1.327 . S
C1597 C1601 1.429 . S
C1598 C1581 1.574 . S
C1598 H1592 0.949 . S
C1598 C1602 1.368 . S
C1599 C1580 1.429 . S
C1599 C1593 1.429 . S
C1599 C1600 1.523 . S
C1600 C1581 1.368 . S
C1600 C1594 1.368 . S
C1600 C1599 1.523 . S
C1601 C1585 1.429 . S
C1601 C1597 1.429 . S
C1601 C1602 1.523 . S
C1602 C1586 1.368 . S
C1602 C1598 1.368 . S
C1602 C1601 1.523 . S
H1603 C1578 0.950 . S
H1604 C1580 0.950 . S
H1605 C1581 0.949 . S
H1606 C1583 0.950 1_556 S
H1607 C1585 0.950 . S
C1608 C1609 1.349 . S
C1608 C1610 1.327 . S
C1608 H1633 0.950 . S
C1609 C1608 1.349 . S
C1609 C1625 1.349 . S
C1610 C1608 1.327 . S
C1610 C1629 1.429 . S
C1610 H1634 0.950 . S
C1611 C1628 1.574 . S
C1611 C1630 1.368 . S
C1611 H1635 0.949 . S
H1612 C1616 0.949 . S
C1613 C1614 1.349 . S
C1613 C1615 1.327 . S
C1613 H1636 0.950 . S
C1614 C1613 1.349 . S
C1614 C1626 1.349 1_554 S
C1615 C1613 1.327 . S
C1615 C1631 1.429 . S
C1615 H1637 0.950 . S
C1616 H1612 0.949 . S
C1616 C1624 1.574 . S
C1616 C1632 1.368 . S
H1617 C1625 0.950 . S
H1618 C1623 0.950 . S
H1619 C1624 0.949 . S
H1620 C1626 0.950 . S
H1621 C1627 0.950 1_556 S
H1622 C1628 0.949 . S
C1623 H1618 0.950 . S
C1623 C1625 1.327 . S
C1623 C1629 1.429 . S
C1624 C1616 1.574 . S
C1624 H1619 0.949 . S
C1624 C1630 1.368 . S
C1625 C1609 1.349 . S
C1625 H1617 0.950 . S
C1625 C1623 1.327 . S
C1626 C1614 1.349 1_556 S
C1626 H1620 0.950 . S
C1626 C1627 1.327 1_556 S
C1627 H1621 0.950 1_554 S
C1627 C1626 1.327 1_554 S
C1627 C1631 1.429 . S
C1628 C1611 1.574 . S
C1628 H1622 0.949 . S
C1628 C1632 1.368 . S
C1629 C1610 1.429 . S
C1629 C1623 1.429 . S
C1629 C1630 1.523 . S
C1630 C1611 1.368 . S
C1630 C1624 1.368 . S
C1630 C1629 1.523 . S
C1631 C1615 1.429 . S
C1631 C1627 1.429 . S
C1631 C1632 1.523 . S
C1632 C1616 1.368 . S
C1632 C1628 1.368 . S
C1632 C1631 1.523 . S
H1633 C1608 0.950 . S
H1634 C1610 0.950 . S
H1635 C1611 0.949 . S
H1636 C1613 0.950 . S
H1637 C1615 0.950 . S
C1638 C1639 1.349 . S
C1638 C1640 1.327 . S
C1638 H1663 0.950 . S
C1639 C1638 1.349 . S
C1639 C1655 1.349 . S
C1640 C1638 1.327 . S
C1640 C1659 1.429 . S
C1640 H1664 0.950 . S
C1641 C1658 1.574 . S
C1641 C1660 1.368 . S
C1641 H1665 0.949 . S
H1642 C1646 0.949 . S
C1643 C1644 1.349 . S
C1643 C1645 1.327 . S
C1643 H1666 0.950 . S
C1644 C1643 1.349 . S
C1644 C1656 1.349 . S
C1645 C1643 1.327 . S
C1645 C1661 1.429 . S
C1645 H1667 0.950 . S
C1646 H1642 0.949 . S
C1646 C1654 1.574 . S
C1646 C1662 1.368 . S
H1647 C1655 0.950 . S
H1648 C1653 0.950 . S
H1649 C1654 0.949 . S
H1650 C1656 0.950 . S
H1651 C1657 0.950 . S
H1652 C1658 0.949 . S
C1653 H1648 0.950 . S
C1653 C1655 1.327 . S
C1653 C1659 1.429 . S
C1654 C1646 1.574 . S
C1654 H1649 0.949 . S
C1654 C1660 1.368 . S
C1655 C1639 1.349 . S
C1655 H1647 0.950 . S
C1655 C1653 1.327 . S
C1656 C1644 1.349 . S
C1656 H1650 0.950 . S
C1656 C1657 1.327 . S
C1657 H1651 0.950 . S
C1657 C1656 1.327 . S
C1657 C1661 1.429 . S
C1658 C1641 1.574 . S
C1658 H1652 0.949 . S
C1658 C1662 1.368 . S
C1659 C1640 1.429 . S
C1659 C1653 1.429 . S
C1659 C1660 1.523 . S
C1660 C1641 1.368 . S
C1660 C1654 1.368 . S
C1660 C1659 1.523 . S
C1661 C1645 1.429 . S
C1661 C1657 1.429 . S
C1661 C1662 1.523 . S
C1662 C1646 1.368 . S
C1662 C1658 1.368 . S
C1662 C1661 1.523 . S
H1663 C1638 0.950 . S
H1664 C1640 0.950 . S
H1665 C1641 0.949 . S
H1666 C1643 0.950 . S
H1667 C1645 0.950 . S
C1668 C1669 1.349 . S
C1668 C1670 1.327 . S
C1668 H1693 0.950 . S
C1669 C1668 1.349 . S
C1669 C1685 1.349 . S
C1670 C1668 1.327 . S
C1670 C1689 1.429 . S
C1670 H1694 0.950 . S
C1671 C1688 1.574 . S
C1671 C1690 1.368 . S
C1671 H1695 0.949 . S
H1672 C1676 0.949 . S
C1673 C1674 1.349 . S
C1673 C1675 1.327 . S
C1673 H1696 0.950 . S
C1674 C1673 1.349 . S
C1674 C1686 1.349 . S
C1675 C1673 1.327 . S
C1675 C1691 1.429 . S
C1675 H1697 0.950 . S
C1676 H1672 0.949 . S
C1676 C1684 1.574 . S
C1676 C1692 1.368 . S
H1677 C1685 0.950 . S
H1678 C1683 0.950 . S
H1679 C1684 0.949 . S
H1680 C1686 0.950 . S
H1681 C1687 0.950 . S
H1682 C1688 0.949 . S
C1683 H1678 0.950 . S
C1683 C1685 1.327 . S
C1683 C1689 1.429 . S
C1684 C1676 1.574 . S
C1684 H1679 0.949 . S
C1684 C1690 1.368 . S
C1685 C1669 1.349 . S
C1685 H1677 0.950 . S
C1685 C1683 1.327 . S
C1686 C1674 1.349 . S
C1686 H1680 0.950 . S
C1686 C1687 1.327 . S
C1687 H1681 0.950 . S
C1687 C1686 1.327 . S
C1687 C1691 1.429 . S
C1688 C1671 1.574 . S
C1688 H1682 0.949 . S
C1688 C1692 1.368 . S
C1689 C1670 1.429 . S
C1689 C1683 1.429 . S
C1689 C1690 1.523 . S
C1690 C1671 1.368 . S
C1690 C1684 1.368 . S
C1690 C1689 1.523 . S
C1691 C1675 1.429 . S
C1691 C1687 1.429 . S
C1691 C1692 1.523 . S
C1692 C1676 1.368 . S
C1692 C1688 1.368 . S
C1692 C1691 1.523 . S
H1693 C1668 0.950 . S
H1694 C1670 0.950 . S
H1695 C1671 0.949 . S
H1696 C1673 0.950 . S
H1697 C1675 0.950 . S
C1698 C1699 1.349 . S
C1698 C1700 1.327 . S
C1698 H1723 0.950 . S
C1699 C1698 1.349 . S
C1699 C1715 1.349 . S
C1700 C1698 1.327 . S
C1700 C1719 1.429 . S
C1700 H1724 0.950 . S
C1701 C1718 1.574 . S
C1701 C1720 1.368 . S
C1701 H1725 0.949 . S
H1702 C1706 0.949 . S
C1703 C1704 1.349 . S
C1703 C1705 1.327 . S
C1703 H1726 0.950 . S
C1704 C1703 1.349 . S
C1704 C1716 1.349 . S
C1705 C1703 1.327 . S
C1705 C1721 1.429 . S
C1705 H1727 0.950 . S
C1706 H1702 0.949 . S
C1706 C1714 1.574 . S
C1706 C1722 1.368 . S
H1707 C1715 0.950 . S
H1708 C1713 0.950 . S
H1709 C1714 0.949 . S
H1710 C1716 0.950 . S
H1711 C1717 0.950 . S
H1712 C1718 0.949 . S
C1713 H1708 0.950 . S
C1713 C1715 1.327 . S
C1713 C1719 1.429 . S
C1714 C1706 1.574 . S
C1714 H1709 0.949 . S
C1714 C1720 1.368 . S
C1715 C1699 1.349 . S
C1715 H1707 0.950 . S
C1715 C1713 1.327 . S
C1716 C1704 1.349 . S
C1716 H1710 0.950 . S
C1716 C1717 1.327 . S
C1717 H1711 0.950 . S
C1717 C1716 1.327 . S
C1717 C1721 1.429 . S
C1718 C1701 1.574 . S
C1718 H1712 0.949 . S
C1718 C1722 1.368 . S
C1719 C1700 1.429 . S
C1719 C1713 1.429 . S
C1719 C1720 1.523 . S
C1720 C1701 1.368 . S
C1720 C1714 1.368 . S
C1720 C1719 1.523 . S
C1721 C1705 1.429 . S
C1721 C1717 1.429 . S
C1721 C1722 1.523 . S
C1722 C1706 1.368 . S
C1722 C1718 1.368 . S
C1722 C1721 1.523 . S
H1723 C1698 0.950 . S
H1724 C1700 0.950 . S
H1725 C1701 0.949 . S
H1726 C1703 0.950 . S
H1727 C1705 0.950 . S
C1728 C1729 1.349 . S
C1728 C1730 1.327 . S
C1728 H1753 0.950 . S
C1729 C1728 1.349 . S
C1729 C1745 1.349 . S
C1730 C1728 1.327 . S
C1730 C1749 1.429 . S
C1730 H1754 0.950 . S
C1731 C1748 1.574 . S
C1731 C1750 1.368 . S
C1731 H1755 0.949 . S
H1732 C1736 0.949 . S
C1733 C1734 1.349 . S
C1733 C1735 1.327 . S
C1733 H1756 0.950 . S
C1734 C1733 1.349 . S
C1734 C1746 1.349 . S
C1735 C1733 1.327 . S
C1735 C1751 1.429 . S
C1735 H1757 0.950 . S
C1736 H1732 0.949 . S
C1736 C1744 1.574 . S
C1736 C1752 1.368 . S
H1737 C1745 0.950 . S
H1738 C1743 0.950 . S
H1739 C1744 0.949 . S
H1740 C1746 0.950 . S
H1741 C1747 0.950 . S
H1742 C1748 0.949 . S
C1743 H1738 0.950 . S
C1743 C1745 1.327 . S
C1743 C1749 1.429 . S
C1744 C1736 1.574 . S
C1744 H1739 0.949 . S
C1744 C1750 1.368 . S
C1745 C1729 1.349 . S
C1745 H1737 0.950 . S
C1745 C1743 1.327 . S
C1746 C1734 1.349 . S
C1746 H1740 0.950 . S
C1746 C1747 1.327 . S
C1747 H1741 0.950 . S
C1747 C1746 1.327 . S
C1747 C1751 1.429 . S
C1748 C1731 1.574 . S
C1748 H1742 0.949 . S
C1748 C1752 1.368 . S
C1749 C1730 1.429 . S
C1749 C1743 1.429 . S
C1749 C1750 1.523 . S
C1750 C1731 1.368 . S
C1750 C1744 1.368 . S
C1750 C1749 1.523 . S
C1751 C1735 1.429 . S
C1751 C1747 1.429 . S
C1751 C1752 1.523 . S
C1752 C1736 1.368 . S
C1752 C1748 1.368 . S
C1752 C1751 1.523 . S
H1753 C1728 0.950 . S
H1754 C1730 0.950 . S
H1755 C1731 0.949 . S
H1756 C1733 0.950 . S
H1757 C1735 0.950 . S
C1758 C1759 1.349 . S
C1758 C1760 1.327 . S
C1758 H1783 0.950 . S
C1759 C1758 1.349 . S
C1759 C1775 1.349 . S
C1760 C1758 1.327 . S
C1760 C1779 1.429 . S
C1760 H1784 0.950 . S
C1761 C1778 1.574 . S
C1761 C1780 1.368 . S
C1761 H1785 0.949 . S
H1762 C1766 0.949 . S
C1763 C1764 1.349 . S
C1763 C1765 1.327 . S
C1763 H1786 0.950 . S
C1764 C1763 1.349 . S
C1764 C1776 1.349 . S
C1765 C1763 1.327 . S
C1765 C1781 1.429 . S
C1765 H1787 0.950 . S
C1766 H1762 0.949 . S
C1766 C1774 1.574 . S
C1766 C1782 1.368 . S
H1767 C1775 0.950 . S
H1768 C1773 0.950 . S
H1769 C1774 0.949 . S
H1770 C1776 0.950 . S
H1771 C1777 0.950 . S
H1772 C1778 0.949 . S
C1773 H1768 0.950 . S
C1773 C1775 1.327 . S
C1773 C1779 1.429 . S
C1774 C1766 1.574 . S
C1774 H1769 0.949 . S
C1774 C1780 1.368 . S
C1775 C1759 1.349 . S
C1775 H1767 0.950 . S
C1775 C1773 1.327 . S
C1776 C1764 1.349 . S
C1776 H1770 0.950 . S
C1776 C1777 1.327 . S
C1777 H1771 0.950 . S
C1777 C1776 1.327 . S
C1777 C1781 1.429 . S
C1778 C1761 1.574 . S
C1778 H1772 0.949 . S
C1778 C1782 1.368 . S
C1779 C1760 1.429 . S
C1779 C1773 1.429 . S
C1779 C1780 1.523 . S
C1780 C1761 1.368 . S
C1780 C1774 1.368 . S
C1780 C1779 1.523 . S
C1781 C1765 1.429 . S
C1781 C1777 1.429 . S
C1781 C1782 1.523 . S
C1782 C1766 1.368 . S
C1782 C1778 1.368 . S
C1782 C1781 1.523 . S
H1783 C1758 0.950 . S
H1784 C1760 0.950 . S
H1785 C1761 0.949 . S
H1786 C1763 0.950 . S
H1787 C1765 0.950 . S
C1788 C1789 1.350 1_554 S
C1788 C1790 1.328 1_554 S
C1788 H1813 0.949 . S
C1789 C1788 1.350 1_556 S
C1789 C1805 1.349 . S
C1790 C1788 1.328 1_556 S
C1790 C1809 1.429 . S
C1790 H1814 0.950 1_556 S
C1791 C1808 1.574 . S
C1791 C1810 1.368 . S
C1791 H1815 0.949 . S
H1792 C1796 0.949 . S
C1793 C1794 1.349 . S
C1793 C1795 1.327 . S
C1793 H1816 0.950 . S
C1794 C1793 1.349 . S
C1794 C1806 1.349 . S
C1795 C1793 1.327 . S
C1795 C1811 1.429 . S
C1795 H1817 0.950 . S
C1796 H1792 0.949 . S
C1796 C1804 1.574 . S
C1796 C1812 1.368 . S
H1797 C1805 0.950 . S
H1798 C1803 0.950 . S
H1799 C1804 0.949 . S
H1800 C1806 0.950 . S
H1801 C1807 0.950 . S
H1802 C1808 0.949 . S
C1803 H1798 0.950 . S
C1803 C1805 1.327 . S
C1803 C1809 1.429 . S
C1804 C1796 1.574 . S
C1804 H1799 0.949 . S
C1804 C1810 1.368 . S
C1805 C1789 1.349 . S
C1805 H1797 0.950 . S
C1805 C1803 1.327 . S
C1806 C1794 1.349 . S
C1806 H1800 0.950 . S
C1806 C1807 1.327 . S
C1807 H1801 0.950 . S
C1807 C1806 1.327 . S
C1807 C1811 1.429 . S
C1808 C1791 1.574 . S
C1808 H1802 0.949 . S
C1808 C1812 1.368 . S
C1809 C1790 1.429 . S
C1809 C1803 1.429 . S
C1809 C1810 1.523 . S
C1810 C1791 1.368 . S
C1810 C1804 1.368 . S
C1810 C1809 1.523 . S
C1811 C1795 1.429 . S
C1811 C1807 1.429 . S
C1811 C1812 1.523 . S
C1812 C1796 1.368 . S
C1812 C1808 1.368 . S
C1812 C1811 1.523 . S
H1813 C1788 0.949 . S
H1814 C1790 0.950 1_554 S
H1815 C1791 0.949 . S
H1816 C1793 0.950 . S
H1817 C1795 0.950 . S
C1818 C1819 1.349 . S
C1818 C1820 1.327 . S
C1818 H1843 0.950 . S
C1819 C1818 1.349 . S
C1819 C1835 1.349 . S
C1820 C1818 1.327 . S
C1820 C1839 1.429 . S
C1820 H1844 0.950 . S
C1821 C1838 1.574 . S
C1821 C1840 1.368 . S
C1821 H1845 0.949 . S
H1822 C1826 0.949 . S
C1823 C1824 1.349 . S
C1823 C1825 1.327 . S
C1823 H1846 0.950 . S
C1824 C1823 1.349 . S
C1824 C1836 1.349 . S
C1825 C1823 1.327 . S
C1825 C1841 1.429 . S
C1825 H1847 0.950 . S
C1826 H1822 0.949 . S
C1826 C1834 1.574 . S
C1826 C1842 1.368 . S
H1827 C1835 0.950 . S
H1828 C1833 0.950 . S
H1829 C1834 0.949 . S
H1830 C1836 0.950 . S
H1831 C1837 0.950 . S
H1832 C1838 0.949 . S
C1833 H1828 0.950 . S
C1833 C1835 1.327 . S
C1833 C1839 1.429 . S
C1834 C1826 1.574 . S
C1834 H1829 0.949 . S
C1834 C1840 1.368 . S
C1835 C1819 1.349 . S
C1835 H1827 0.950 . S
C1835 C1833 1.327 . S
C1836 C1824 1.349 . S
C1836 H1830 0.950 . S
C1836 C1837 1.327 . S
C1837 H1831 0.950 . S
C1837 C1836 1.327 . S
C1837 C1841 1.429 . S
C1838 C1821 1.574 . S
C1838 H1832 0.949 . S
C1838 C1842 1.368 . S
C1839 C1820 1.429 . S
C1839 C1833 1.429 . S
C1839 C1840 1.523 . S
C1840 C1821 1.368 . S
C1840 C1834 1.368 . S
C1840 C1839 1.523 . S
C1841 C1825 1.429 . S
C1841 C1837 1.429 . S
C1841 C1842 1.523 . S
C1842 C1826 1.368 . S
C1842 C1838 1.368 . S
C1842 C1841 1.523 . S
H1843 C1818 0.950 . S
H1844 C1820 0.950 . S
H1845 C1821 0.949 . S
H1846 C1823 0.950 . S
H1847 C1825 0.950 . S
C1848 C1849 1.349 . S
C1848 C1850 1.327 . S
C1848 H1873 0.950 . S
C1849 C1848 1.349 . S
C1849 C1865 1.349 . S
C1850 C1848 1.327 . S
C1850 C1869 1.429 . S
C1850 H1874 0.950 . S
C1851 C1868 1.574 . S
C1851 C1870 1.368 . S
C1851 H1875 0.949 . S
H1852 C1856 0.949 . S
C1853 C1854 1.349 . S
C1853 C1855 1.327 . S
C1853 H1876 0.950 . S
C1854 C1853 1.349 . S
C1854 C1866 1.349 . S
C1855 C1853 1.327 . S
C1855 C1871 1.429 . S
C1855 H1877 0.950 . S
C1856 H1852 0.949 . S
C1856 C1864 1.574 . S
C1856 C1872 1.368 . S
H1857 C1865 0.950 . S
H1858 C1863 0.950 . S
H1859 C1864 0.949 . S
H1860 C1866 0.950 . S
H1861 C1867 0.950 . S
H1862 C1868 0.949 . S
C1863 H1858 0.950 . S
C1863 C1865 1.327 . S
C1863 C1869 1.429 . S
C1864 C1856 1.574 . S
C1864 H1859 0.949 . S
C1864 C1870 1.368 . S
C1865 C1849 1.349 . S
C1865 H1857 0.950 . S
C1865 C1863 1.327 . S
C1866 C1854 1.349 . S
C1866 H1860 0.950 . S
C1866 C1867 1.327 . S
C1867 H1861 0.950 . S
C1867 C1866 1.327 . S
C1867 C1871 1.429 . S
C1868 C1851 1.574 . S
C1868 H1862 0.949 . S
C1868 C1872 1.368 . S
C1869 C1850 1.429 . S
C1869 C1863 1.429 . S
C1869 C1870 1.523 . S
C1870 C1851 1.368 . S
C1870 C1864 1.368 . S
C1870 C1869 1.523 . S
C1871 C1855 1.429 . S
C1871 C1867 1.429 . S
C1871 C1872 1.523 . S
C1872 C1856 1.368 . S
C1872 C1868 1.368 . S
C1872 C1871 1.523 . S
H1873 C1848 0.950 . S
H1874 C1850 0.950 . S
H1875 C1851 0.949 . S
H1876 C1853 0.950 . S
H1877 C1855 0.950 . S
C1878 C1879 1.349 . S
C1878 C1880 1.327 . S
C1878 H1903 0.950 . S
C1879 C1878 1.349 . S
C1879 C1895 1.349 . S
C1880 C1878 1.327 . S
C1880 C1899 1.429 . S
C1880 H1904 0.950 . S
C1881 C1898 1.574 . S
C1881 C1900 1.368 . S
C1881 H1905 0.949 . S
H1882 C1886 0.949 . S
C1883 C1884 1.349 . S
C1883 C1885 1.327 . S
C1883 H1906 0.950 . S
C1884 C1883 1.349 . S
C1884 C1896 1.349 . S
C1885 C1883 1.327 . S
C1885 C1901 1.429 . S
C1885 H1907 0.950 . S
C1886 H1882 0.949 . S
C1886 C1894 1.574 . S
C1886 C1902 1.368 . S
H1887 C1895 0.950 . S
H1888 C1893 0.950 . S
H1889 C1894 0.949 . S
H1890 C1896 0.950 . S
H1891 C1897 0.950 . S
H1892 C1898 0.949 . S
C1893 H1888 0.950 . S
C1893 C1895 1.327 . S
C1893 C1899 1.429 . S
C1894 C1886 1.574 . S
C1894 H1889 0.949 . S
C1894 C1900 1.368 . S
C1895 C1879 1.349 . S
C1895 H1887 0.950 . S
C1895 C1893 1.327 . S
C1896 C1884 1.349 . S
C1896 H1890 0.950 . S
C1896 C1897 1.327 . S
C1897 H1891 0.950 . S
C1897 C1896 1.327 . S
C1897 C1901 1.429 . S
C1898 C1881 1.574 . S
C1898 H1892 0.949 . S
C1898 C1902 1.368 . S
C1899 C1880 1.429 . S
C1899 C1893 1.429 . S
C1899 C1900 1.523 . S
C1900 C1881 1.368 . S
C1900 C1894 1.368 . S
C1900 C1899 1.523 . S
C1901 C1885 1.429 . S
C1901 C1897 1.429 . S
C1901 C1902 1.523 . S
C1902 C1886 1.368 . S
C1902 C1898 1.368 . S
C1902 C1901 1.523 . S
H1903 C1878 0.950 . S
H1904 C1880 0.950 . S
H1905 C1881 0.949 . S
H1906 C1883 0.950 . S
H1907 C1885 0.950 . S
C1908 C1909 1.349 . S
C1908 C1910 1.327 . S
C1908 H1933 0.950 . S
C1909 C1908 1.349 . S
C1909 C1925 1.349 . S
C1910 C1908 1.327 . S
C1910 C1929 1.429 . S
C1910 H1934 0.950 . S
C1911 C1928 1.574 . S
C1911 C1930 1.368 . S
C1911 H1935 0.949 . S
H1912 C1916 0.949 . S
C1913 C1914 1.349 . S
C1913 C1915 1.327 . S
C1913 H1936 0.950 . S
C1914 C1913 1.349 . S
C1914 C1926 1.349 . S
C1915 C1913 1.327 . S
C1915 C1931 1.429 . S
C1915 H1937 0.950 . S
C1916 H1912 0.949 . S
C1916 C1924 1.574 . S
C1916 C1932 1.368 . S
H1917 C1925 0.950 . S
H1918 C1923 0.950 . S
H1919 C1924 0.949 . S
H1920 C1926 0.950 . S
H1921 C1927 0.950 . S
H1922 C1928 0.949 . S
C1923 H1918 0.950 . S
C1923 C1925 1.327 . S
C1923 C1929 1.429 . S
C1924 C1916 1.574 . S
C1924 H1919 0.949 . S
C1924 C1930 1.368 . S
C1925 C1909 1.349 . S
C1925 H1917 0.950 . S
C1925 C1923 1.327 . S
C1926 C1914 1.349 . S
C1926 H1920 0.950 . S
C1926 C1927 1.327 . S
C1927 H1921 0.950 . S
C1927 C1926 1.327 . S
C1927 C1931 1.429 . S
C1928 C1911 1.574 . S
C1928 H1922 0.949 . S
C1928 C1932 1.368 . S
C1929 C1910 1.429 . S
C1929 C1923 1.429 . S
C1929 C1930 1.523 . S
C1930 C1911 1.368 . S
C1930 C1924 1.368 . S
C1930 C1929 1.523 . S
C1931 C1915 1.429 . S
C1931 C1927 1.429 . S
C1931 C1932 1.523 . S
C1932 C1916 1.368 . S
C1932 C1928 1.368 . S
C1932 C1931 1.523 . S
H1933 C1908 0.950 . S
H1934 C1910 0.950 . S
H1935 C1911 0.949 . S
H1936 C1913 0.950 . S
H1937 C1915 0.950 . S
C1938 C1939 1.349 . S
C1938 C1940 1.327 . S
C1938 H1963 0.950 . S
C1939 C1938 1.349 . S
C1939 C1955 1.349 . S
C1940 C1938 1.327 . S
C1940 C1959 1.429 . S
C1940 H1964 0.950 . S
C1941 C1958 1.574 1_565 S
C1941 C1960 1.368 . S
C1941 H1965 0.949 . S
H1942 C1946 0.949 . S
C1943 C1944 1.349 . S
C1943 C1945 1.327 . S
C1943 H1966 0.950 . S
C1944 C1943 1.349 . S
C1944 C1956 1.349 . S
C1945 C1943 1.327 . S
C1945 C1961 1.429 . S
C1945 H1967 0.950 . S
C1946 H1942 0.949 . S
C1946 C1954 1.574 1_545 S
C1946 C1962 1.368 . S
H1947 C1955 0.950 . S
H1948 C1953 0.950 . S
H1949 C1954 0.949 . S
H1950 C1956 0.950 . S
H1951 C1957 0.950 . S
H1952 C1958 0.949 . S
C1953 H1948 0.950 . S
C1953 C1955 1.327 . S
C1953 C1959 1.429 . S
C1954 C1946 1.574 1_565 S
C1954 H1949 0.949 . S
C1954 C1960 1.368 . S
C1955 C1939 1.349 . S
C1955 H1947 0.950 . S
C1955 C1953 1.327 . S
C1956 C1944 1.349 . S
C1956 H1950 0.950 . S
C1956 C1957 1.327 . S
C1957 H1951 0.950 . S
C1957 C1956 1.327 . S
C1957 C1961 1.429 . S
C1958 C1941 1.574 1_545 S
C1958 H1952 0.949 . S
C1958 C1962 1.368 . S
C1959 C1940 1.429 . S
C1959 C1953 1.429 . S
C1959 C1960 1.523 . S
C1960 C1941 1.368 . S
C1960 C1954 1.368 . S
C1960 C1959 1.523 . S
C1961 C1945 1.429 . S
C1961 C1957 1.429 . S
C1961 C1962 1.523 . S
C1962 C1946 1.368 . S
C1962 C1958 1.368 . S
C1962 C1961 1.523 . S
H1963 C1938 0.950 . S
H1964 C1940 0.950 . S
H1965 C1941 0.949 . S
H1966 C1943 0.950 . S
H1967 C1945 0.950 . S
C1968 C1969 1.349 . S
C1968 C1970 1.327 . S
C1968 H1993 0.950 . S
C1969 C1968 1.349 . S
C1969 C1985 1.349 . S
C1970 C1968 1.327 . S
C1970 C1989 1.429 . S
C1970 H1994 0.950 . S
C1971 C1988 1.574 1_455 S
C1971 C1990 1.368 . S
C1971 H1995 0.949 . S
H1972 C1976 0.949 . S
C1973 C1974 1.349 . S
C1973 C1975 1.327 . S
C1973 H1996 0.950 . S
C1974 C1973 1.349 . S
C1974 C1986 1.349 . S
C1975 C1973 1.327 . S
C1975 C1991 1.429 . S
C1975 H1997 0.950 . S
C1976 H1972 0.949 . S
C1976 C1984 1.574 1_655 S
C1976 C1992 1.368 . S
H1977 C1985 0.950 . S
H1978 C1983 0.950 . S
H1979 C1984 0.949 . S
H1980 C1986 0.950 . S
H1981 C1987 0.950 . S
H1982 C1988 0.949 . S
C1983 H1978 0.950 . S
C1983 C1985 1.327 . S
C1983 C1989 1.429 . S
C1984 C1976 1.574 1_455 S
C1984 H1979 0.949 . S
C1984 C1990 1.368 . S
C1985 C1969 1.349 . S
C1985 H1977 0.950 . S
C1985 C1983 1.327 . S
C1986 C1974 1.349 . S
C1986 H1980 0.950 . S
C1986 C1987 1.327 . S
C1987 H1981 0.950 . S
C1987 C1986 1.327 . S
C1987 C1991 1.429 . S
C1988 C1971 1.574 1_655 S
C1988 H1982 0.949 . S
C1988 C1992 1.368 . S
C1989 C1970 1.429 . S
C1989 C1983 1.429 . S
C1989 C1990 1.523 . S
C1990 C1971 1.368 . S
C1990 C1984 1.368 . S
C1990 C1989 1.523 . S
C1991 C1975 1.429 . S
C1991 C1987 1.429 . S
C1991 C1992 1.523 . S
C1992 C1976 1.368 . S
C1992 C1988 1.368 . S
C1992 C1991 1.523 . S
H1993 C1968 0.950 . S
H1994 C1970 0.950 . S
H1995 C1971 0.949 . S
H1996 C1973 0.950 . S
H1997 C1975 0.950 . S
C1998 C1999 1.349 . S
C1998 C2000 1.327 . S
C1998 H2023 0.950 . S
C1999 C1998 1.349 . S
C1999 C2015 1.349 . S
C2000 C1998 1.327 . S
C2000 C2019 1.429 . S
C2000 H2024 0.950 . S
C2001 C2018 1.574 . S
C2001 C2020 1.368 . S
C2001 H2025 0.949 . S
H2002 C2006 0.949 . S
C2003 C2004 1.349 . S
C2003 C2005 1.327 . S
C2003 H2026 0.950 . S
C2004 C2003 1.349 . S
C2004 C2016 1.349 . S
C2005 C2003 1.327 . S
C2005 C2021 1.429 . S
C2005 H2027 0.950 . S
C2006 H2002 0.949 . S
C2006 C2014 1.574 . S
C2006 C2022 1.368 . S
H2007 C2015 0.950 . S
H2008 C2013 0.950 . S
H2009 C2014 0.949 . S
H2010 C2016 0.950 . S
H2011 C2017 0.950 . S
H2012 C2018 0.949 . S
C2013 H2008 0.950 . S
C2013 C2015 1.327 . S
C2013 C2019 1.429 . S
C2014 C2006 1.574 . S
C2014 H2009 0.949 . S
C2014 C2020 1.368 . S
C2015 C1999 1.349 . S
C2015 H2007 0.950 . S
C2015 C2013 1.327 . S
C2016 C2004 1.349 . S
C2016 H2010 0.950 . S
C2016 C2017 1.327 . S
C2017 H2011 0.950 . S
C2017 C2016 1.327 . S
C2017 C2021 1.429 . S
C2018 C2001 1.574 . S
C2018 H2012 0.949 . S
C2018 C2022 1.368 . S
C2019 C2000 1.429 . S
C2019 C2013 1.429 . S
C2019 C2020 1.523 . S
C2020 C2001 1.368 . S
C2020 C2014 1.368 . S
C2020 C2019 1.523 . S
C2021 C2005 1.429 . S
C2021 C2017 1.429 . S
C2021 C2022 1.523 . S
C2022 C2006 1.368 . S
C2022 C2018 1.368 . S
C2022 C2021 1.523 . S
H2023 C1998 0.950 . S
H2024 C2000 0.950 . S
H2025 C2001 0.949 . S
H2026 C2003 0.950 . S
H2027 C2005 0.950 . S
C2028 C2029 1.349 . S
C2028 C2030 1.327 . S
C2028 H2053 0.950 . S
C2029 C2028 1.349 . S
C2029 C2045 1.349 . S
C2030 C2028 1.327 . S
C2030 C2049 1.429 . S
C2030 H2054 0.950 . S
C2031 C2048 1.574 1_565 S
C2031 C2050 1.368 . S
C2031 H2055 0.949 . S
H2032 C2036 0.949 . S
C2033 C2034 1.349 . S
C2033 C2035 1.327 . S
C2033 H2056 0.950 . S
C2034 C2033 1.349 . S
C2034 C2046 1.349 . S
C2035 C2033 1.327 . S
C2035 C2051 1.429 . S
C2035 H2057 0.950 . S
C2036 H2032 0.949 . S
C2036 C2044 1.574 1_545 S
C2036 C2052 1.368 . S
H2037 C2045 0.950 . S
H2038 C2043 0.950 . S
H2039 C2044 0.949 . S
H2040 C2046 0.950 . S
H2041 C2047 0.950 . S
H2042 C2048 0.949 . S
C2043 H2038 0.950 . S
C2043 C2045 1.327 . S
C2043 C2049 1.429 . S
C2044 C2036 1.574 1_565 S
C2044 H2039 0.949 . S
C2044 C2050 1.368 . S
C2045 C2029 1.349 . S
C2045 H2037 0.950 . S
C2045 C2043 1.327 . S
C2046 C2034 1.349 . S
C2046 H2040 0.950 . S
C2046 C2047 1.327 . S
C2047 H2041 0.950 . S
C2047 C2046 1.327 . S
C2047 C2051 1.429 . S
C2048 C2031 1.574 1_545 S
C2048 H2042 0.949 . S
C2048 C2052 1.368 . S
C2049 C2030 1.429 . S
C2049 C2043 1.429 . S
C2049 C2050 1.523 . S
C2050 C2031 1.368 . S
C2050 C2044 1.368 . S
C2050 C2049 1.523 . S
C2051 C2035 1.429 . S
C2051 C2047 1.429 . S
C2051 C2052 1.523 . S
C2052 C2036 1.368 . S
C2052 C2048 1.368 . S
C2052 C2051 1.523 . S
H2053 C2028 0.950 . S
H2054 C2030 0.950 . S
H2055 C2031 0.949 . S
H2056 C2033 0.950 . S
H2057 C2035 0.950 . S
C2058 C2059 1.349 . S
C2058 C2060 1.327 . S
C2058 H2083 0.950 . S
C2059 C2058 1.349 . S
C2059 C2075 1.349 . S
C2060 C2058 1.327 . S
C2060 C2079 1.429 . S
C2060 H2084 0.950 . S
C2061 C2078 1.574 1_455 S
C2061 C2080 1.368 . S
C2061 H2085 0.949 . S
H2062 C2066 0.949 . S
C2063 C2064 1.349 . S
C2063 C2065 1.327 . S
C2063 H2086 0.950 . S
C2064 C2063 1.349 . S
C2064 C2076 1.349 . S
C2065 C2063 1.327 . S
C2065 C2081 1.429 . S
C2065 H2087 0.950 . S
C2066 H2062 0.949 . S
C2066 C2074 1.574 1_655 S
C2066 C2082 1.368 . S
H2067 C2075 0.950 . S
H2068 C2073 0.950 . S
H2069 C2074 0.949 . S
H2070 C2076 0.950 . S
H2071 C2077 0.950 . S
H2072 C2078 0.949 . S
C2073 H2068 0.950 . S
C2073 C2075 1.327 . S
C2073 C2079 1.429 . S
C2074 C2066 1.574 1_455 S
C2074 H2069 0.949 . S
C2074 C2080 1.368 . S
C2075 C2059 1.349 . S
C2075 H2067 0.950 . S
C2075 C2073 1.327 . S
C2076 C2064 1.349 . S
C2076 H2070 0.950 . S
C2076 C2077 1.327 . S
C2077 H2071 0.950 . S
C2077 C2076 1.327 . S
C2077 C2081 1.429 . S
C2078 C2061 1.574 1_655 S
C2078 H2072 0.949 . S
C2078 C2082 1.368 . S
C2079 C2060 1.429 . S
C2079 C2073 1.429 . S
C2079 C2080 1.523 . S
C2080 C2061 1.368 . S
C2080 C2074 1.368 . S
C2080 C2079 1.523 . S
C2081 C2065 1.429 . S
C2081 C2077 1.429 . S
C2081 C2082 1.523 . S
C2082 C2066 1.368 . S
C2082 C2078 1.368 . S
C2082 C2081 1.523 . S
H2083 C2058 0.950 . S
H2084 C2060 0.950 . S
H2085 C2061 0.949 . S
H2086 C2063 0.950 . S
H2087 C2065 0.950 . S
C2088 C2089 1.349 . S
C2088 C2090 1.327 . S
C2088 H2113 0.950 . S
C2089 C2088 1.349 . S
C2089 C2105 1.349 . S
C2090 C2088 1.327 . S
C2090 C2109 1.429 1_554 S
C2090 H2114 0.950 1_554 S
C2091 C2108 1.574 . S
C2091 C2110 1.368 . S
C2091 H2115 0.949 . S
H2092 C2096 0.949 . S
C2093 C2094 1.349 . S
C2093 C2095 1.327 . S
C2093 H2116 0.950 . S
C2094 C2093 1.349 . S
C2094 C2106 1.349 . S
C2095 C2093 1.327 . S
C2095 C2111 1.429 . S
C2095 H2117 0.950 . S
C2096 H2092 0.949 . S
C2096 C2104 1.574 . S
C2096 C2112 1.368 . S
H2097 C2105 0.950 . S
H2098 C2103 0.953 . S
H2099 C2104 0.949 . S
H2100 C2106 0.950 . S
H2101 C2107 0.950 . S
H2102 C2108 0.949 . S
C2103 H2098 0.953 . S
C2103 C2105 1.327 . S
C2103 C2109 1.429 1_554 S
C2104 C2096 1.574 . S
C2104 H2099 0.949 . S
C2104 C2110 1.368 . S
C2105 C2089 1.349 . S
C2105 H2097 0.950 . S
C2105 C2103 1.327 . S
C2106 C2094 1.349 . S
C2106 H2100 0.950 . S
C2106 C2107 1.327 . S
C2107 H2101 0.950 . S
C2107 C2106 1.327 . S
C2107 C2111 1.429 . S
C2108 C2091 1.574 . S
C2108 H2102 0.949 . S
C2108 C2112 1.368 . S
C2109 C2090 1.429 1_556 S
C2109 C2103 1.429 1_556 S
C2109 C2110 1.523 . S
C2110 C2091 1.368 . S
C2110 C2104 1.368 . S
C2110 C2109 1.523 . S
C2111 C2095 1.429 . S
C2111 C2107 1.429 . S
C2111 C2112 1.523 . S
C2112 C2096 1.368 . S
C2112 C2108 1.368 . S
C2112 C2111 1.523 . S
H2113 C2088 0.950 . S
H2114 C2090 0.950 1_556 S
H2115 C2091 0.949 . S
H2116 C2093 0.950 . S
H2117 C2095 0.950 . S
C2118 C2119 1.349 . S
C2118 C2120 1.327 . S
C2118 H2143 0.950 . S
C2119 C2118 1.349 . S
C2119 C2135 1.349 . S
C2120 C2118 1.327 . S
C2120 C2139 1.429 1_554 S
C2120 H2144 0.950 1_554 S
C2121 C2138 1.574 . S
C2121 C2140 1.368 . S
C2121 H2145 0.949 . S
H2122 C2126 0.949 . S
C2123 C2124 1.349 . S
C2123 C2125 1.327 . S
C2123 H2146 0.950 . S
C2124 C2123 1.349 . S
C2124 C2136 1.349 . S
C2125 C2123 1.327 . S
C2125 C2141 1.429 . S
C2125 H2147 0.950 . S
C2126 H2122 0.949 . S
C2126 C2134 1.574 . S
C2126 C2142 1.368 . S
H2127 C2135 0.950 . S
H2128 C2133 0.950 1_556 S
H2129 C2134 0.949 . S
H2130 C2136 0.950 . S
H2131 C2137 0.950 . S
H2132 C2138 0.949 . S
C2133 H2128 0.950 1_554 S
C2133 C2135 1.327 . S
C2133 C2139 1.429 1_554 S
C2134 C2126 1.574 . S
C2134 H2129 0.949 . S
C2134 C2140 1.368 . S
C2135 C2119 1.349 . S
C2135 H2127 0.950 . S
C2135 C2133 1.327 . S
C2136 C2124 1.349 . S
C2136 H2130 0.950 . S
C2136 C2137 1.327 . S
C2137 H2131 0.950 . S
C2137 C2136 1.327 . S
C2137 C2141 1.429 . S
C2138 C2121 1.574 . S
C2138 H2132 0.949 . S
C2138 C2142 1.368 . S
C2139 C2120 1.429 1_556 S
C2139 C2133 1.429 1_556 S
C2139 C2140 1.523 . S
C2140 C2121 1.368 . S
C2140 C2134 1.368 . S
C2140 C2139 1.523 . S
C2141 C2125 1.429 . S
C2141 C2137 1.429 . S
C2141 C2142 1.523 . S
C2142 C2126 1.368 . S
C2142 C2138 1.368 . S
C2142 C2141 1.523 . S
H2143 C2118 0.950 . S
H2144 C2120 0.950 1_556 S
H2145 C2121 0.949 . S
H2146 C2123 0.950 . S
H2147 C2125 0.950 . S
C2148 C2149 1.349 . S
C2148 C2150 1.327 . S
C2148 H2173 0.950 . S
C2149 C2148 1.349 . S
C2149 C2165 1.349 . S
C2150 C2148 1.327 . S
C2150 C2169 1.429 1_554 S
C2150 H2174 0.950 1_554 S
C2151 C2168 1.574 . S
C2151 C2170 1.368 . S
C2151 H2175 0.949 . S
H2152 C2156 0.949 . S
C2153 C2154 1.349 . S
C2153 C2155 1.327 . S
C2153 H2176 0.950 . S
C2154 C2153 1.349 . S
C2154 C2166 1.349 . S
C2155 C2153 1.327 . S
C2155 C2171 1.429 . S
C2155 H2177 0.950 . S
C2156 H2152 0.949 . S
C2156 C2164 1.574 . S
C2156 C2172 1.368 . S
H2157 C2165 0.950 . S
H2158 C2163 0.949 1_556 S
H2159 C2164 0.949 . S
H2160 C2166 0.950 . S
H2161 C2167 0.950 . S
H2162 C2168 0.949 . S
C2163 H2158 0.949 1_554 S
C2163 C2165 1.327 . S
C2163 C2169 1.429 1_554 S
C2164 C2156 1.574 . S
C2164 H2159 0.949 . S
C2164 C2170 1.368 . S
C2165 C2149 1.349 . S
C2165 H2157 0.950 . S
C2165 C2163 1.327 . S
C2166 C2154 1.349 . S
C2166 H2160 0.950 . S
C2166 C2167 1.327 . S
C2167 H2161 0.950 . S
C2167 C2166 1.327 . S
C2167 C2171 1.429 . S
C2168 C2151 1.574 . S
C2168 H2162 0.949 . S
C2168 C2172 1.368 . S
C2169 C2150 1.429 1_556 S
C2169 C2163 1.429 1_556 S
C2169 C2170 1.523 . S
C2170 C2151 1.368 . S
C2170 C2164 1.368 . S
C2170 C2169 1.523 . S
C2171 C2155 1.429 . S
C2171 C2167 1.429 . S
C2171 C2172 1.523 . S
C2172 C2156 1.368 . S
C2172 C2168 1.368 . S
C2172 C2171 1.523 . S
H2173 C2148 0.950 . S
H2174 C2150 0.950 1_556 S
H2175 C2151 0.949 . S
H2176 C2153 0.950 . S
H2177 C2155 0.950 . S
C2178 C2179 1.349 . S
C2178 C2180 1.327 . S
C2178 H2203 0.950 . S
C2179 C2178 1.349 . S
C2179 C2195 1.349 . S
C2180 C2178 1.327 . S
C2180 C2199 1.429 . S
C2180 H2204 0.950 . S
C2181 C2198 1.574 . S
C2181 C2200 1.368 . S
C2181 H2205 0.949 . S
H2182 C2186 0.949 . S
C2183 C2184 1.349 . S
C2183 C2185 1.327 . S
C2183 H2206 0.950 . S
C2184 C2183 1.349 . S
C2184 C2196 1.349 . S
C2185 C2183 1.327 . S
C2185 C2201 1.429 . S
C2185 H2207 0.950 . S
C2186 H2182 0.949 . S
C2186 C2194 1.574 . S
C2186 C2202 1.368 . S
H2187 C2195 0.950 . S
H2188 C2193 0.950 . S
H2189 C2194 0.949 . S
H2190 C2196 0.950 . S
H2191 C2197 0.950 . S
H2192 C2198 0.949 . S
C2193 H2188 0.950 . S
C2193 C2195 1.327 . S
C2193 C2199 1.429 . S
C2194 C2186 1.574 . S
C2194 H2189 0.949 . S
C2194 C2200 1.368 . S
C2195 C2179 1.349 . S
C2195 H2187 0.950 . S
C2195 C2193 1.327 . S
C2196 C2184 1.349 . S
C2196 H2190 0.950 . S
C2196 C2197 1.327 . S
C2197 H2191 0.950 . S
C2197 C2196 1.327 . S
C2197 C2201 1.429 . S
C2198 C2181 1.574 . S
C2198 H2192 0.949 . S
C2198 C2202 1.368 . S
C2199 C2180 1.429 . S
C2199 C2193 1.429 . S
C2199 C2200 1.523 . S
C2200 C2181 1.368 . S
C2200 C2194 1.368 . S
C2200 C2199 1.523 . S
C2201 C2185 1.429 . S
C2201 C2197 1.429 . S
C2201 C2202 1.523 . S
C2202 C2186 1.368 . S
C2202 C2198 1.368 . S
C2202 C2201 1.523 . S
H2203 C2178 0.950 . S
H2204 C2180 0.950 . S
H2205 C2181 0.949 . S
H2206 C2183 0.950 . S
H2207 C2185 0.950 . S
C2208 C2209 1.349 . S
C2208 C2210 1.327 . S
C2208 H2233 0.950 . S
C2209 C2208 1.349 . S
C2209 C2225 1.349 . S
C2210 C2208 1.327 . S
C2210 C2229 1.429 . S
C2210 H2234 0.950 . S
C2211 C2228 1.574 . S
C2211 C2230 1.368 . S
C2211 H2235 0.949 . S
H2212 C2216 0.949 . S
C2213 C2214 1.349 . S
C2213 C2215 1.327 . S
C2213 H2236 0.950 . S
C2214 C2213 1.349 . S
C2214 C2226 1.349 . S
C2215 C2213 1.327 . S
C2215 C2231 1.429 . S
C2215 H2237 0.950 . S
C2216 H2212 0.949 . S
C2216 C2224 1.574 . S
C2216 C2232 1.368 . S
H2217 C2225 0.950 . S
H2218 C2223 0.950 . S
H2219 C2224 0.949 . S
H2220 C2226 0.950 . S
H2221 C2227 0.950 . S
H2222 C2228 0.949 . S
C2223 H2218 0.950 . S
C2223 C2225 1.327 . S
C2223 C2229 1.429 . S
C2224 C2216 1.574 . S
C2224 H2219 0.949 . S
C2224 C2230 1.368 . S
C2225 C2209 1.349 . S
C2225 H2217 0.950 . S
C2225 C2223 1.327 . S
C2226 C2214 1.349 . S
C2226 H2220 0.950 . S
C2226 C2227 1.327 . S
C2227 H2221 0.950 . S
C2227 C2226 1.327 . S
C2227 C2231 1.429 . S
C2228 C2211 1.574 . S
C2228 H2222 0.949 . S
C2228 C2232 1.368 . S
C2229 C2210 1.429 . S
C2229 C2223 1.429 . S
C2229 C2230 1.523 . S
C2230 C2211 1.368 . S
C2230 C2224 1.368 . S
C2230 C2229 1.523 . S
C2231 C2215 1.429 . S
C2231 C2227 1.429 . S
C2231 C2232 1.523 . S
C2232 C2216 1.368 . S
C2232 C2228 1.368 . S
C2232 C2231 1.523 . S
H2233 C2208 0.950 . S
H2234 C2210 0.950 . S
H2235 C2211 0.949 . S
H2236 C2213 0.950 . S
H2237 C2215 0.950 . S
C2238 C2239 1.349 . S
C2238 C2240 1.327 . S
C2238 H2263 0.950 . S
C2239 C2238 1.349 . S
C2239 C2255 1.349 . S
C2240 C2238 1.327 . S
C2240 C2259 1.429 . S
C2240 H2264 0.950 . S
C2241 C2258 1.574 . S
C2241 C2260 1.368 . S
C2241 H2265 0.949 . S
H2242 C2246 0.949 . S
C2243 C2244 1.349 . S
C2243 C2245 1.327 . S
C2243 H2266 0.950 . S
C2244 C2243 1.349 . S
C2244 C2256 1.349 . S
C2245 C2243 1.327 . S
C2245 C2261 1.429 . S
C2245 H2267 0.950 . S
C2246 H2242 0.949 . S
C2246 C2254 1.574 . S
C2246 C2262 1.368 . S
H2247 C2255 0.950 . S
H2248 C2253 0.950 . S
H2249 C2254 0.949 . S
H2250 C2256 0.950 . S
H2251 C2257 0.950 . S
H2252 C2258 0.949 . S
C2253 H2248 0.950 . S
C2253 C2255 1.327 . S
C2253 C2259 1.429 . S
C2254 C2246 1.574 . S
C2254 H2249 0.949 . S
C2254 C2260 1.368 . S
C2255 C2239 1.349 . S
C2255 H2247 0.950 . S
C2255 C2253 1.327 . S
C2256 C2244 1.349 . S
C2256 H2250 0.950 . S
C2256 C2257 1.327 . S
C2257 H2251 0.950 . S
C2257 C2256 1.327 . S
C2257 C2261 1.429 . S
C2258 C2241 1.574 . S
C2258 H2252 0.949 . S
C2258 C2262 1.368 . S
C2259 C2240 1.429 . S
C2259 C2253 1.429 . S
C2259 C2260 1.523 . S
C2260 C2241 1.368 . S
C2260 C2254 1.368 . S
C2260 C2259 1.523 . S
C2261 C2245 1.429 . S
C2261 C2257 1.429 . S
C2261 C2262 1.523 . S
C2262 C2246 1.368 . S
C2262 C2258 1.368 . S
C2262 C2261 1.523 . S
H2263 C2238 0.950 . S
H2264 C2240 0.950 . S
H2265 C2241 0.949 . S
H2266 C2243 0.950 . S
H2267 C2245 0.950 . S
C2268 C2269 1.349 . S
C2268 C2270 1.327 . S
C2268 H2293 0.950 . S
C2269 C2268 1.349 . S
C2269 C2285 1.349 . S
C2270 C2268 1.327 . S
C2270 C2289 1.429 . S
C2270 H2294 0.950 . S
C2271 C2288 1.574 . S
C2271 C2290 1.368 . S
C2271 H2295 0.949 . S
H2272 C2276 0.949 . S
C2273 C2274 1.349 . S
C2273 C2275 1.327 . S
C2273 H2296 0.950 . S
C2274 C2273 1.349 . S
C2274 C2286 1.349 . S
C2275 C2273 1.327 . S
C2275 C2291 1.429 1_556 S
C2275 H2297 0.953 . S
C2276 H2272 0.949 . S
C2276 C2284 1.574 . S
C2276 C2292 1.368 . S
H2277 C2285 0.950 . S
H2278 C2283 0.950 . S
H2279 C2284 0.949 . S
H2280 C2286 0.950 . S
H2281 C2287 0.950 1_554 S
H2282 C2288 0.949 . S
C2283 H2278 0.950 . S
C2283 C2285 1.327 . S
C2283 C2289 1.429 . S
C2284 C2276 1.574 . S
C2284 H2279 0.949 . S
C2284 C2290 1.368 . S
C2285 C2269 1.349 . S
C2285 H2277 0.950 . S
C2285 C2283 1.327 . S
C2286 C2274 1.349 . S
C2286 H2280 0.950 . S
C2286 C2287 1.327 . S
C2287 H2281 0.950 1_556 S
C2287 C2286 1.327 . S
C2287 C2291 1.429 1_556 S
C2288 C2271 1.574 . S
C2288 H2282 0.949 . S
C2288 C2292 1.368 . S
C2289 C2270 1.429 . S
C2289 C2283 1.429 . S
C2289 C2290 1.523 . S
C2290 C2271 1.368 . S
C2290 C2284 1.368 . S
C2290 C2289 1.523 . S
C2291 C2275 1.429 1_554 S
C2291 C2287 1.429 1_554 S
C2291 C2292 1.523 . S
C2292 C2276 1.368 . S
C2292 C2288 1.368 . S
C2292 C2291 1.523 . S
H2293 C2268 0.950 . S
H2294 C2270 0.950 . S
H2295 C2271 0.949 . S
H2296 C2273 0.950 . S
H2297 C2275 0.953 . S
C2298 C2299 1.349 . S
C2298 C2300 1.327 . S
C2298 H2323 0.950 . S
C2299 C2298 1.349 . S
C2299 C2315 1.349 . S
C2300 C2298 1.327 . S
C2300 C2319 1.429 . S
C2300 H2324 0.950 . S
C2301 C2318 1.574 . S
C2301 C2320 1.368 . S
C2301 H2325 0.949 . S
H2302 C2306 0.949 . S
C2303 C2304 1.349 . S
C2303 C2305 1.327 . S
C2303 H2326 0.950 . S
C2304 C2303 1.349 . S
C2304 C2316 1.349 . S
C2305 C2303 1.327 . S
C2305 C2321 1.429 1_556 S
C2305 H2327 0.950 1_556 S
C2306 H2302 0.949 . S
C2306 C2314 1.574 . S
C2306 C2322 1.368 . S
H2307 C2315 0.950 . S
H2308 C2313 0.950 . S
H2309 C2314 0.949 . S
H2310 C2316 0.950 . S
H2311 C2317 0.950 1_554 S
H2312 C2318 0.949 . S
C2313 H2308 0.950 . S
C2313 C2315 1.327 . S
C2313 C2319 1.429 . S
C2314 C2306 1.574 . S
C2314 H2309 0.949 . S
C2314 C2320 1.368 . S
C2315 C2299 1.349 . S
C2315 H2307 0.950 . S
C2315 C2313 1.327 . S
C2316 C2304 1.349 . S
C2316 H2310 0.950 . S
C2316 C2317 1.327 . S
C2317 H2311 0.950 1_556 S
C2317 C2316 1.327 . S
C2317 C2321 1.429 1_556 S
C2318 C2301 1.574 . S
C2318 H2312 0.949 . S
C2318 C2322 1.368 . S
C2319 C2300 1.429 . S
C2319 C2313 1.429 . S
C2319 C2320 1.523 . S
C2320 C2301 1.368 . S
C2320 C2314 1.368 . S
C2320 C2319 1.523 . S
C2321 C2305 1.429 1_554 S
C2321 C2317 1.429 1_554 S
C2321 C2322 1.523 . S
C2322 C2306 1.368 . S
C2322 C2318 1.368 . S
C2322 C2321 1.523 . S
H2323 C2298 0.950 . S
H2324 C2300 0.950 . S
H2325 C2301 0.949 . S
H2326 C2303 0.950 . S
H2327 C2305 0.950 1_554 S
C2328 C2329 1.349 . S
C2328 C2330 1.327 . S
C2328 H2353 0.950 . S
C2329 C2328 1.349 . S
C2329 C2345 1.349 . S
C2330 C2328 1.327 . S
C2330 C2349 1.429 . S
C2330 H2354 0.950 . S
C2331 C2348 1.574 . S
C2331 C2350 1.368 . S
C2331 H2355 0.949 . S
H2332 C2336 0.949 . S
C2333 C2334 1.349 . S
C2333 C2335 1.327 . S
C2333 H2356 0.950 . S
C2334 C2333 1.349 . S
C2334 C2346 1.349 . S
C2335 C2333 1.327 . S
C2335 C2351 1.429 1_556 S
C2335 H2357 0.950 1_556 S
C2336 H2332 0.949 . S
C2336 C2344 1.574 . S
C2336 C2352 1.368 . S
H2337 C2345 0.950 . S
H2338 C2343 0.950 . S
H2339 C2344 0.949 . S
H2340 C2346 0.950 . S
H2341 C2347 0.951 1_554 S
H2342 C2348 0.949 . S
C2343 H2338 0.950 . S
C2343 C2345 1.327 . S
C2343 C2349 1.429 . S
C2344 C2336 1.574 . S
C2344 H2339 0.949 . S
C2344 C2350 1.368 . S
C2345 C2329 1.349 . S
C2345 H2337 0.950 . S
C2345 C2343 1.327 . S
C2346 C2334 1.349 . S
C2346 H2340 0.950 . S
C2346 C2347 1.327 . S
C2347 H2341 0.951 1_556 S
C2347 C2346 1.327 . S
C2347 C2351 1.429 1_556 S
C2348 C2331 1.574 . S
C2348 H2342 0.949 . S
C2348 C2352 1.368 . S
C2349 C2330 1.429 . S
C2349 C2343 1.429 . S
C2349 C2350 1.523 . S
C2350 C2331 1.368 . S
C2350 C2344 1.368 . S
C2350 C2349 1.523 . S
C2351 C2335 1.429 1_554 S
C2351 C2347 1.429 1_554 S
C2351 C2352 1.523 . S
C2352 C2336 1.368 . S
C2352 C2348 1.368 . S
C2352 C2351 1.523 . S
H2353 C2328 0.950 . S
H2354 C2330 0.950 . S
H2355 C2331 0.949 . S
H2356 C2333 0.950 . S
H2357 C2335 0.950 1_554 S
C2358 C2359 1.349 . S
C2358 C2360 1.327 . S
C2358 H2383 0.950 . S
C2359 C2358 1.349 . S
C2359 C2375 1.349 . S
C2360 C2358 1.327 . S
C2360 C2379 1.429 . S
C2360 H2384 0.950 . S
C2361 C2378 1.574 . S
C2361 C2380 1.368 . S
C2361 H2385 0.949 . S
H2362 C2366 0.949 . S
C2363 C2364 1.349 . S
C2363 C2365 1.327 . S
C2363 H2386 0.950 . S
C2364 C2363 1.349 . S
C2364 C2376 1.349 . S
C2365 C2363 1.327 . S
C2365 C2381 1.429 . S
C2365 H2387 0.950 . S
C2366 H2362 0.949 . S
C2366 C2374 1.574 . S
C2366 C2382 1.368 . S
H2367 C2375 0.950 . S
H2368 C2373 0.950 . S
H2369 C2374 0.949 . S
H2370 C2376 0.950 . S
H2371 C2377 0.950 . S
H2372 C2378 0.949 . S
C2373 H2368 0.950 . S
C2373 C2375 1.327 . S
C2373 C2379 1.429 . S
C2374 C2366 1.574 . S
C2374 H2369 0.949 . S
C2374 C2380 1.368 . S
C2375 C2359 1.349 . S
C2375 H2367 0.950 . S
C2375 C2373 1.327 . S
C2376 C2364 1.349 . S
C2376 H2370 0.950 . S
C2376 C2377 1.327 . S
C2377 H2371 0.950 . S
C2377 C2376 1.327 . S
C2377 C2381 1.429 . S
C2378 C2361 1.574 . S
C2378 H2372 0.949 . S
C2378 C2382 1.368 . S
C2379 C2360 1.429 . S
C2379 C2373 1.429 . S
C2379 C2380 1.523 . S
C2380 C2361 1.368 . S
C2380 C2374 1.368 . S
C2380 C2379 1.523 . S
C2381 C2365 1.429 . S
C2381 C2377 1.429 . S
C2381 C2382 1.523 . S
C2382 C2366 1.368 . S
C2382 C2378 1.368 . S
C2382 C2381 1.523 . S
H2383 C2358 0.950 . S
H2384 C2360 0.950 . S
H2385 C2361 0.949 . S
H2386 C2363 0.950 . S
H2387 C2365 0.950 . S
C2388 C2389 1.349 . S
C2388 C2390 1.327 . S
C2388 H2413 0.950 . S
C2389 C2388 1.349 . S
C2389 C2405 1.349 . S
C2390 C2388 1.327 . S
C2390 C2409 1.429 . S
C2390 H2414 0.950 . S
C2391 C2408 1.574 . S
C2391 C2410 1.368 . S
C2391 H2415 0.949 . S
H2392 C2396 0.949 . S
C2393 C2394 1.349 . S
C2393 C2395 1.327 . S
C2393 H2416 0.950 . S
C2394 C2393 1.349 . S
C2394 C2406 1.349 . S
C2395 C2393 1.327 . S
C2395 C2411 1.429 . S
C2395 H2417 0.950 . S
C2396 H2392 0.949 . S
C2396 C2404 1.574 . S
C2396 C2412 1.368 . S
H2397 C2405 0.950 . S
H2398 C2403 0.950 . S
H2399 C2404 0.949 . S
H2400 C2406 0.950 . S
H2401 C2407 0.950 . S
H2402 C2408 0.949 . S
C2403 H2398 0.950 . S
C2403 C2405 1.327 . S
C2403 C2409 1.429 . S
C2404 C2396 1.574 . S
C2404 H2399 0.949 . S
C2404 C2410 1.368 . S
C2405 C2389 1.349 . S
C2405 H2397 0.950 . S
C2405 C2403 1.327 . S
C2406 C2394 1.349 . S
C2406 H2400 0.950 . S
C2406 C2407 1.327 . S
C2407 H2401 0.950 . S
C2407 C2406 1.327 . S
C2407 C2411 1.429 . S
C2408 C2391 1.574 . S
C2408 H2402 0.949 . S
C2408 C2412 1.368 . S
C2409 C2390 1.429 . S
C2409 C2403 1.429 . S
C2409 C2410 1.523 . S
C2410 C2391 1.368 . S
C2410 C2404 1.368 . S
C2410 C2409 1.523 . S
C2411 C2395 1.429 . S
C2411 C2407 1.429 . S
C2411 C2412 1.523 . S
C2412 C2396 1.368 . S
C2412 C2408 1.368 . S
C2412 C2411 1.523 . S
H2413 C2388 0.950 . S
H2414 C2390 0.950 . S
H2415 C2391 0.949 . S
H2416 C2393 0.950 . S
H2417 C2395 0.950 . S
C2418 C2419 1.349 . S
C2418 C2420 1.327 . S
C2418 H2443 0.950 . S
C2419 C2418 1.349 . S
C2419 C2435 1.349 . S
C2420 C2418 1.327 . S
C2420 C2439 1.429 . S
C2420 H2444 0.950 . S
C2421 C2438 1.574 . S
C2421 C2440 1.368 . S
C2421 H2445 0.949 . S
H2422 C2426 0.949 . S
C2423 C2424 1.349 . S
C2423 C2425 1.327 . S
C2423 H2446 0.950 . S
C2424 C2423 1.349 . S
C2424 C2436 1.349 . S
C2425 C2423 1.327 . S
C2425 C2441 1.429 . S
C2425 H2447 0.950 . S
C2426 H2422 0.949 . S
C2426 C2434 1.574 . S
C2426 C2442 1.368 . S
H2427 C2435 0.950 . S
H2428 C2433 0.950 . S
H2429 C2434 0.949 . S
H2430 C2436 0.950 . S
H2431 C2437 0.950 . S
H2432 C2438 0.949 . S
C2433 H2428 0.950 . S
C2433 C2435 1.327 . S
C2433 C2439 1.429 . S
C2434 C2426 1.574 . S
C2434 H2429 0.949 . S
C2434 C2440 1.368 . S
C2435 C2419 1.349 . S
C2435 H2427 0.950 . S
C2435 C2433 1.327 . S
C2436 C2424 1.349 . S
C2436 H2430 0.950 . S
C2436 C2437 1.327 . S
C2437 H2431 0.950 . S
C2437 C2436 1.327 . S
C2437 C2441 1.429 . S
C2438 C2421 1.574 . S
C2438 H2432 0.949 . S
C2438 C2442 1.368 . S
C2439 C2420 1.429 . S
C2439 C2433 1.429 . S
C2439 C2440 1.523 . S
C2440 C2421 1.368 . S
C2440 C2434 1.368 . S
C2440 C2439 1.523 . S
C2441 C2425 1.429 . S
C2441 C2437 1.429 . S
C2441 C2442 1.523 . S
C2442 C2426 1.368 . S
C2442 C2438 1.368 . S
C2442 C2441 1.523 . S
H2443 C2418 0.950 . S
H2444 C2420 0.950 . S
H2445 C2421 0.949 . S
H2446 C2423 0.950 . S
H2447 C2425 0.950 . S
C2448 C2449 1.349 . S
C2448 C2450 1.327 . S
C2448 H2473 0.950 . S
C2449 C2448 1.349 . S
C2449 C2465 1.349 . S
C2450 C2448 1.327 . S
C2450 C2469 1.429 . S
C2450 H2474 0.950 . S
C2451 C2468 1.566 1_655 S
C2451 C2470 1.368 . S
C2451 H2475 0.949 . S
H2452 C2456 0.949 . S
C2453 C2454 1.349 . S
C2453 C2455 1.327 . S
C2453 H2476 0.950 . S
C2454 C2453 1.349 . S
C2454 C2466 1.349 . S
C2455 C2453 1.327 . S
C2455 C2471 1.429 . S
C2455 H2477 0.950 . S
C2456 H2452 0.949 . S
C2456 C2464 1.574 . S
C2456 C2472 1.344 1_655 S
H2457 C2465 0.950 . S
H2458 C2463 0.950 . S
H2459 C2464 0.949 . S
H2460 C2466 0.950 . S
H2461 C2467 0.950 . S
H2462 C2468 0.996 . S
C2463 H2458 0.950 . S
C2463 C2465 1.327 . S
C2463 C2469 1.429 . S
C2464 C2456 1.574 . S
C2464 H2459 0.949 . S
C2464 C2470 1.368 . S
C2465 C2449 1.349 . S
C2465 H2457 0.950 . S
C2465 C2463 1.327 . S
C2466 C2454 1.349 . S
C2466 H2460 0.950 . S
C2466 C2467 1.327 . S
C2467 H2461 0.950 . S
C2467 C2466 1.327 . S
C2467 C2471 1.429 . S
C2468 C2451 1.566 1_455 S
C2468 H2462 0.996 . S
C2468 C2472 1.350 . S
C2469 C2450 1.429 . S
C2469 C2463 1.429 . S
C2469 C2470 1.523 . S
C2470 C2451 1.368 . S
C2470 C2464 1.368 . S
C2470 C2469 1.523 . S
C2471 C2455 1.429 . S
C2471 C2467 1.429 . S
C2471 C2472 1.529 . S
C2472 C2456 1.344 1_455 S
C2472 C2468 1.350 . S
C2472 C2471 1.529 . S
H2473 C2448 0.950 . S
H2474 C2450 0.950 . S
H2475 C2451 0.949 . S
H2476 C2453 0.950 . S
H2477 C2455 0.950 . S
C2478 C2479 1.349 . S
C2478 C2480 1.327 . S
C2478 H2503 0.950 . S
C2479 C2478 1.349 . S
C2479 C2495 1.349 . S
C2480 C2478 1.327 . S
C2480 C2499 1.429 . S
C2480 H2504 0.950 . S
C2481 C2498 1.574 . S
C2481 C2500 1.368 . S
C2481 H2505 0.949 . S
H2482 C2486 0.949 . S
C2483 C2484 1.349 . S
C2483 C2485 1.327 . S
C2483 H2506 0.950 . S
C2484 C2483 1.349 . S
C2484 C2496 1.349 . S
C2485 C2483 1.327 . S
C2485 C2501 1.429 . S
C2485 H2507 0.950 . S
C2486 H2482 0.949 . S
C2486 C2494 1.574 . S
C2486 C2502 1.368 . S
H2487 C2495 0.950 . S
H2488 C2493 0.950 . S
H2489 C2494 0.949 . S
H2490 C2496 0.950 . S
H2491 C2497 0.950 . S
H2492 C2498 0.949 . S
C2493 H2488 0.950 . S
C2493 C2495 1.327 . S
C2493 C2499 1.429 . S
C2494 C2486 1.574 . S
C2494 H2489 0.949 . S
C2494 C2500 1.368 . S
C2495 C2479 1.349 . S
C2495 H2487 0.950 . S
C2495 C2493 1.327 . S
C2496 C2484 1.349 . S
C2496 H2490 0.950 . S
C2496 C2497 1.327 . S
C2497 H2491 0.950 . S
C2497 C2496 1.327 . S
C2497 C2501 1.429 . S
C2498 C2481 1.574 . S
C2498 H2492 0.949 . S
C2498 C2502 1.368 . S
C2499 C2480 1.429 . S
C2499 C2493 1.429 . S
C2499 C2500 1.523 . S
C2500 C2481 1.368 . S
C2500 C2494 1.368 . S
C2500 C2499 1.523 . S
C2501 C2485 1.429 . S
C2501 C2497 1.429 . S
C2501 C2502 1.523 . S
C2502 C2486 1.368 . S
C2502 C2498 1.368 . S
C2502 C2501 1.523 . S
H2503 C2478 0.950 . S
H2504 C2480 0.950 . S
H2505 C2481 0.949 . S
H2506 C2483 0.950 . S
H2507 C2485 0.950 . S
C2508 C2509 1.349 1_545 S
C2508 C2510 1.327 . S
C2508 H2533 0.950 . S
C2509 C2508 1.349 1_565 S
C2509 C2525 1.349 . S
C2510 C2508 1.327 . S
C2510 C2529 1.429 1_545 S
C2510 H2534 0.950 . S
C2511 C2528 1.574 . S
C2511 C2530 1.376 . S
C2511 H2535 0.949 . S
H2512 C2516 0.949 . S
C2513 C2514 1.343 1_565 S
C2513 C2515 1.330 . S
C2513 H2536 0.954 . S
C2514 C2513 1.343 1_545 S
C2514 C2526 1.349 . S
C2515 C2513 1.330 . S
C2515 C2531 1.429 1_565 S
C2515 H2537 0.950 . S
C2516 H2512 0.949 . S
C2516 C2524 1.574 . S
C2516 C2532 1.368 . S
H2517 C2525 0.950 . S
H2518 C2523 0.950 . S
H2519 C2524 0.949 . S
H2520 C2526 0.950 . S
H2521 C2527 0.950 . S
H2522 C2528 0.949 . S
C2523 H2518 0.950 . S
C2523 C2525 1.327 . S
C2523 C2529 1.429 . S
C2524 C2516 1.574 . S
C2524 H2519 0.949 . S
C2524 C2530 1.358 1_545 S
C2525 C2509 1.349 . S
C2525 H2517 0.950 . S
C2525 C2523 1.327 . S
C2526 C2514 1.349 . S
C2526 H2520 0.950 . S
C2526 C2527 1.327 . S
C2527 H2521 0.950 . S
C2527 C2526 1.327 . S
C2527 C2531 1.429 . S
C2528 C2511 1.574 . S
C2528 H2522 0.949 . S
C2528 C2532 1.368 1_565 S
C2529 C2510 1.429 1_565 S
C2529 C2523 1.429 . S
C2529 C2530 1.527 . S
C2530 C2511 1.376 . S
C2530 C2524 1.358 1_565 S
C2530 C2529 1.527 . S
C2531 C2515 1.429 1_545 S
C2531 C2527 1.429 . S
C2531 C2532 1.523 . S
C2532 C2516 1.368 . S
C2532 C2528 1.368 1_545 S
C2532 C2531 1.523 . S
H2533 C2508 0.950 . S
H2534 C2510 0.950 . S
H2535 C2511 0.949 . S
H2536 C2513 0.954 . S
H2537 C2515 0.950 . S
C2538 C2539 1.349 . S
C2538 C2540 1.327 . S
C2538 H2563 0.950 . S
C2539 C2538 1.349 . S
C2539 C2555 1.349 . S
C2540 C2538 1.327 . S
C2540 C2559 1.429 . S
C2540 H2564 0.950 . S
C2541 C2558 1.577 . S
C2541 C2560 1.373 1_545 S
C2541 H2565 0.942 . S
H2542 C2546 0.949 . S
C2543 C2544 1.349 . S
C2543 C2545 1.327 . S
C2543 H2566 0.950 . S
C2544 C2543 1.349 . S
C2544 C2556 1.349 . S
C2545 C2543 1.327 . S
C2545 C2561 1.429 . S
C2545 H2567 0.950 . S
C2546 H2542 0.949 . S
C2546 C2554 1.574 . S
C2546 C2562 1.377 1_565 S
H2547 C2555 0.950 . S
H2548 C2553 0.950 . S
H2549 C2554 0.949 . S
H2550 C2556 0.950 . S
H2551 C2557 0.975 1_565 S
H2552 C2558 0.949 . S
C2553 H2548 0.950 . S
C2553 C2555 1.327 . S
C2553 C2559 1.429 . S
C2554 C2546 1.574 . S
C2554 H2549 0.949 . S
C2554 C2560 1.368 . S
C2555 C2539 1.349 . S
C2555 H2547 0.950 . S
C2555 C2553 1.327 . S
C2556 C2544 1.349 . S
C2556 H2550 0.950 . S
C2556 C2557 1.343 . S
C2557 H2551 0.975 1_545 S
C2557 C2556 1.343 . S
C2557 C2561 1.400 . S
C2558 C2541 1.577 . S
C2558 H2552 0.949 . S
C2558 C2562 1.357 . S
C2559 C2540 1.429 . S
C2559 C2553 1.429 . S
C2559 C2560 1.523 . S
C2560 C2541 1.373 1_565 S
C2560 C2554 1.368 . S
C2560 C2559 1.523 . S
C2561 C2545 1.429 . S
C2561 C2557 1.400 . S
C2561 C2562 1.528 . S
C2562 C2546 1.377 1_545 S
C2562 C2558 1.357 . S
C2562 C2561 1.528 . S
H2563 C2538 0.950 . S
H2564 C2540 0.950 . S
H2565 C2541 0.942 . S
H2566 C2543 0.950 . S
H2567 C2545 0.950 . S
C2568 C2569 1.349 . S
C2568 C2570 1.327 . S
C2568 H2593 0.950 . S
C2569 C2568 1.349 . S
C2569 C2585 1.349 . S
C2570 C2568 1.327 . S
C2570 C2589 1.429 . S
C2570 H2594 0.950 . S
C2571 C2588 1.566 1_655 S
C2571 C2590 1.348 . S
C2571 H2595 1.000 . S
H2572 C2576 0.949 . S
C2573 C2574 1.349 . S
C2573 C2575 1.327 . S
C2573 H2596 0.950 . S
C2574 C2573 1.349 . S
C2574 C2586 1.349 . S
C2575 C2573 1.327 . S
C2575 C2591 1.429 . S
C2575 H2597 0.950 . S
C2576 H2572 0.949 . S
C2576 C2584 1.574 . S
C2576 C2592 1.368 . S
H2577 C2585 0.950 . S
H2578 C2583 0.950 . S
H2579 C2584 0.949 . S
H2580 C2586 0.950 . S
H2581 C2587 0.950 . S
H2582 C2588 0.949 . S
C2583 H2578 0.950 . S
C2583 C2585 1.327 . S
C2583 C2589 1.429 . S
C2584 C2576 1.574 . S
C2584 H2579 0.949 . S
C2584 C2590 1.343 1_455 S
C2585 C2569 1.349 . S
C2585 H2577 0.950 . S
C2585 C2583 1.327 . S
C2586 C2574 1.349 . S
C2586 H2580 0.950 . S
C2586 C2587 1.327 . S
C2587 H2581 0.950 . S
C2587 C2586 1.327 . S
C2587 C2591 1.429 . S
C2588 C2571 1.566 1_455 S
C2588 H2582 0.949 . S
C2588 C2592 1.368 . S
C2589 C2570 1.429 . S
C2589 C2583 1.429 . S
C2589 C2590 1.529 . S
C2590 C2571 1.348 . S
C2590 C2584 1.343 1_655 S
C2590 C2589 1.529 . S
C2591 C2575 1.429 . S
C2591 C2587 1.429 . S
C2591 C2592 1.523 . S
C2592 C2576 1.368 . S
C2592 C2588 1.368 . S
C2592 C2591 1.523 . S
H2593 C2568 0.950 . S
H2594 C2570 0.950 . S
H2595 C2571 1.000 . S
H2596 C2573 0.950 . S
H2597 C2575 0.950 . S
C2598 C2599 1.349 . S
C2598 C2600 1.327 . S
C2598 H2623 0.950 . S
C2599 C2598 1.349 . S
C2599 C2615 1.349 . S
C2600 C2598 1.327 . S
C2600 C2619 1.429 . S
C2600 H2624 0.950 . S
C2601 C2618 1.574 . S
C2601 C2620 1.368 . S
C2601 H2625 0.949 . S
H2602 C2606 0.949 . S
C2603 C2604 1.349 . S
C2603 C2605 1.327 . S
C2603 H2626 0.950 . S
C2604 C2603 1.349 . S
C2604 C2616 1.349 . S
C2605 C2603 1.327 . S
C2605 C2621 1.429 . S
C2605 H2627 0.950 . S
C2606 H2602 0.949 . S
C2606 C2614 1.574 . S
C2606 C2622 1.368 . S
H2607 C2615 0.950 . S
H2608 C2613 0.950 . S
H2609 C2614 0.949 . S
H2610 C2616 0.950 . S
H2611 C2617 0.950 . S
H2612 C2618 0.949 . S
C2613 H2608 0.950 . S
C2613 C2615 1.327 . S
C2613 C2619 1.429 . S
C2614 C2606 1.574 . S
C2614 H2609 0.949 . S
C2614 C2620 1.368 . S
C2615 C2599 1.349 . S
C2615 H2607 0.950 . S
C2615 C2613 1.327 . S
C2616 C2604 1.349 . S
C2616 H2610 0.950 . S
C2616 C2617 1.327 . S
C2617 H2611 0.950 . S
C2617 C2616 1.327 . S
C2617 C2621 1.429 . S
C2618 C2601 1.574 . S
C2618 H2612 0.949 . S
C2618 C2622 1.368 . S
C2619 C2600 1.429 . S
C2619 C2613 1.429 . S
C2619 C2620 1.523 . S
C2620 C2601 1.368 . S
C2620 C2614 1.368 . S
C2620 C2619 1.523 . S
C2621 C2605 1.429 . S
C2621 C2617 1.429 . S
C2621 C2622 1.523 . S
C2622 C2606 1.368 . S
C2622 C2618 1.368 . S
C2622 C2621 1.523 . S
H2623 C2598 0.950 . S
H2624 C2600 0.950 . S
H2625 C2601 0.949 . S
H2626 C2603 0.950 . S
H2627 C2605 0.950 . S
C469 C213 1.769 . S
C474 C5 1.769 . S
C499 C226 1.769 . S
C504 C18 1.769 . S
C529 C200 1.769 . S
C534 C31 1.769 . S
C559 C343 1.728 . S
C564 C44 1.729 . S
C589 C57 1.729 . S
C594 C317 1.729 . S
C619 C70 1.728 . S
C624 C330 1.728 . S
C649 C81 1.769 . S
C654 C447 1.801 . S
C679 C458 1.769 . S
C684 C96 1.800 . S
C709 C434 1.801 . S
C714 C109 1.800 . S
C739 C122 1.760 . S
C744 C265 1.760 . S
C769 C237 1.729 . S
C774 C135 1.760 . S
C799 C146 1.728 . S
C804 C252 1.759 . S
C829 C369 1.633 . S
C834 C161 1.629 . S
C859 C174 1.633 . S
C864 C382 1.629 . S
C889 C356 1.633 . S
C894 C187 1.629 . S
C919 C421 1.665 . S
C924 C278 1.661 . S
C949 C393 1.633 . S
C954 C291 1.662 . S
C979 C302 1.633 . S
C984 C408 1.661 . S
C1009 C244 1.797 . S
C1014 C1 1.796 . S
C1039 C248 1.746 . S
C1044 C14 1.797 . S
C1069 C261 1.745 . S
C1074 C27 1.796 . S
C1099 C40 1.794 . S
C1104 C430 1.743 . S
C1129 C53 1.795 . S
C1134 C443 1.743 . S
C1159 C66 1.795 . S
C1164 C465 1.794 . S
C1189 C88 1.797 . S
C1194 C313 1.797 . S
C1219 C326 1.797 . S
C1224 C92 1.744 . S
C1249 C339 1.797 . S
C1254 C105 1.744 . S
C1279 C196 1.794 . S
C1284 C118 1.743 . S
C1309 C131 1.743 . S
C1314 C209 1.795 . S
C1339 C153 1.795 . S
C1344 C222 1.794 . S
C1369 C157 1.796 . S
C1374 C400 1.796 . S
C1399 C404 1.744 . S
C1404 C170 1.796 . S
C1429 C417 1.775 1_565 S
C1434 C183 1.797 . S
C1459 C352 1.733 . S
C1464 C274 1.736 . S
C1489 C287 1.747 . S
C1494 C365 1.844 . S
C1519 C309 1.791 . S
C1524 C378 1.791 . S
C1549 C354 1.845 . S
C1554 C3 1.848 . S
C1579 C16 1.847 . S
C1584 C367 1.846 . S
C1609 C29 1.847 . S
C1614 C380 1.846 . S
C1639 C159 1.806 . S
C1644 C42 1.805 . S
C1669 C55 1.805 . S
C1674 C172 1.806 . S
C1699 C68 1.805 . S
C1704 C185 1.806 . S
C1729 C276 1.804 . S
C1734 C83 1.848 . S
C1759 C94 1.801 . S
C1764 C289 1.805 . S
C1789 C304 1.845 . S
C1794 C107 1.801 . S
C1819 C120 1.762 . S
C1824 C395 1.806 . S
C1849 C406 1.761 . S
C1854 C133 1.762 . S
C1879 C419 1.761 . S
C1884 C148 1.805 . S
C1909 C315 1.825 . S
C1914 C198 1.825 . S
C1939 C328 1.825 . S
C1944 C211 1.825 . S
C1969 C341 1.825 . S
C1974 C224 1.824 . S
C1999 C239 1.825 . S
C2004 C432 1.781 . S
C2029 C445 1.780 . S
C2034 C250 1.781 . S
C2059 C460 1.824 . S
C2064 C263 1.781 . S
C2089 C10 0.776 . S
C2094 C218 0.776 . S
C2119 C23 0.775 . S
C2124 C231 0.775 . S
C2149 C36 0.775 . S
C2154 C205 0.775 . S
C2179 C348 0.817 . S
C2184 C49 0.817 . S
C2209 C322 0.817 . S
C2214 C62 0.817 . S
C2239 C335 0.817 . S
C2244 C75 0.817 . S
C2269 C452 0.777 . S
C2274 C79 0.776 . S
C2299 C456 0.775 . S
C2304 C101 0.776 . S
C2329 C439 0.776 . S
C2334 C114 0.776 . S
C2359 C127 0.820 . S
C2364 C270 0.820 . S
C2389 C140 0.820 . S
C2394 C235 0.817 . S
C2419 C144 0.817 . S
C2424 C257 0.820 . S
C2449 C374 0.924 . S
C2454 C166 0.928 . S
C2479 C387 0.923 . S
C2484 C179 0.927 . S
C2509 C192 0.924 . S
C2514 C361 0.928 . S
C2539 C283 0.930 . S
C2544 C426 0.934 . S
C2569 C391 0.924 . S
C2574 C296 0.935 . S
C2599 C413 0.930 . S
C2604 C300 0.927 . S
