# Generated by pormake.
# Topology umn, (4)-cn, num edge types: 1
# Building blocks:
#     Node 0, Type 0, BuildingBlock: CEKHIL_clean_sbu_0, # of connection points: 4
#     Node 1, Type 0, BuildingBlock: CEKHIL_clean_sbu_0, # of connection points: 4
#     Node 2, Type 0, BuildingBlock: CEKHIL_clean_sbu_0, # of connection points: 4
#     Node 3, Type 0, BuildingBlock: CEKHIL_clean_sbu_0, # of connection points: 4
#     Node 4, Type 0, BuildingBlock: CEKHIL_clean_sbu_0, # of connection points: 4
#     Node 5, Type 0, BuildingBlock: CEKHIL_clean_sbu_0, # of connection points: 4
#     Node 6, Type 0, BuildingBlock: CEKHIL_clean_sbu_0, # of connection points: 4
#     Node 7, Type 0, BuildingBlock: CEKHIL_clean_sbu_0, # of connection points: 4
#     Node 8, Type 0, BuildingBlock: CEKHIL_clean_sbu_0, # of connection points: 4
#     Node 9, Type 0, BuildingBlock: CEKHIL_clean_sbu_0, # of connection points: 4
#     Node 10, Type 0, BuildingBlock: CEKHIL_clean_sbu_0, # of connection points: 4
#     Node 11, Type 0, BuildingBlock: CEKHIL_clean_sbu_0, # of connection points: 4
#     Node 12, Type 0, BuildingBlock: CEKHIL_clean_sbu_0, # of connection points: 4
#     Node 13, Type 0, BuildingBlock: CEKHIL_clean_sbu_0, # of connection points: 4
#     Node 14, Type 0, BuildingBlock: CEKHIL_clean_sbu_0, # of connection points: 4
#     Node 15, Type 0, BuildingBlock: CEKHIL_clean_sbu_0, # of connection points: 4
#     Node 16, Type 0, BuildingBlock: CEKHIL_clean_sbu_0, # of connection points: 4
#     Node 17, Type 0, BuildingBlock: CEKHIL_clean_sbu_0, # of connection points: 4
#     Node 18, Type 0, BuildingBlock: CEKHIL_clean_sbu_0, # of connection points: 4
#     Node 19, Type 0, BuildingBlock: CEKHIL_clean_sbu_0, # of connection points: 4
#     Node 20, Type 0, BuildingBlock: CEKHIL_clean_sbu_0, # of connection points: 4
#     Node 21, Type 0, BuildingBlock: CEKHIL_clean_sbu_0, # of connection points: 4
#     Node 22, Type 0, BuildingBlock: CEKHIL_clean_sbu_0, # of connection points: 4
#     Node 23, Type 0, BuildingBlock: CEKHIL_clean_sbu_0, # of connection points: 4
#     Node 24, Type 0, BuildingBlock: CEKHIL_clean_sbu_0, # of connection points: 4
#     Node 25, Type 0, BuildingBlock: CEKHIL_clean_sbu_0, # of connection points: 4
#     Node 26, Type 0, BuildingBlock: CEKHIL_clean_sbu_0, # of connection points: 4
#     Node 27, Type 0, BuildingBlock: CEKHIL_clean_sbu_0, # of connection points: 4
#     Node 28, Type 0, BuildingBlock: CEKHIL_clean_sbu_0, # of connection points: 4
#     Node 29, Type 0, BuildingBlock: CEKHIL_clean_sbu_0, # of connection points: 4
#     Node 30, Type 0, BuildingBlock: CEKHIL_clean_sbu_0, # of connection points: 4
#     Node 31, Type 0, BuildingBlock: CEKHIL_clean_sbu_0, # of connection points: 4
#     Node 32, Type 0, BuildingBlock: CEKHIL_clean_sbu_0, # of connection points: 4
#     Node 33, Type 0, BuildingBlock: CEKHIL_clean_sbu_0, # of connection points: 4
#     Node 34, Type 0, BuildingBlock: CEKHIL_clean_sbu_0, # of connection points: 4
#     Node 35, Type 0, BuildingBlock: CEKHIL_clean_sbu_0, # of connection points: 4
#     Edge 36, Type (0, 0), BuildingBlock: CIFDUS_clean_linker_0, # of connection points: 2
#     Edge 37, Type (0, 0), BuildingBlock: CIFDUS_clean_linker_0, # of connection points: 2
#     Edge 38, Type (0, 0), BuildingBlock: CIFDUS_clean_linker_0, # of connection points: 2
#     Edge 39, Type (0, 0), BuildingBlock: CIFDUS_clean_linker_0, # of connection points: 2
#     Edge 40, Type (0, 0), BuildingBlock: CIFDUS_clean_linker_0, # of connection points: 2
#     Edge 41, Type (0, 0), BuildingBlock: CIFDUS_clean_linker_0, # of connection points: 2
#     Edge 42, Type (0, 0), BuildingBlock: CIFDUS_clean_linker_0, # of connection points: 2
#     Edge 43, Type (0, 0), BuildingBlock: CIFDUS_clean_linker_0, # of connection points: 2
#     Edge 44, Type (0, 0), BuildingBlock: CIFDUS_clean_linker_0, # of connection points: 2
#     Edge 45, Type (0, 0), BuildingBlock: CIFDUS_clean_linker_0, # of connection points: 2
#     Edge 46, Type (0, 0), BuildingBlock: CIFDUS_clean_linker_0, # of connection points: 2
#     Edge 47, Type (0, 0), BuildingBlock: CIFDUS_clean_linker_0, # of connection points: 2
#     Edge 48, Type (0, 0), BuildingBlock: CIFDUS_clean_linker_0, # of connection points: 2
#     Edge 49, Type (0, 0), BuildingBlock: CIFDUS_clean_linker_0, # of connection points: 2
#     Edge 50, Type (0, 0), BuildingBlock: CIFDUS_clean_linker_0, # of connection points: 2
#     Edge 51, Type (0, 0), BuildingBlock: CIFDUS_clean_linker_0, # of connection points: 2
#     Edge 52, Type (0, 0), BuildingBlock: CIFDUS_clean_linker_0, # of connection points: 2
#     Edge 53, Type (0, 0), BuildingBlock: CIFDUS_clean_linker_0, # of connection points: 2
#     Edge 54, Type (0, 0), BuildingBlock: CIFDUS_clean_linker_0, # of connection points: 2
#     Edge 55, Type (0, 0), BuildingBlock: CIFDUS_clean_linker_0, # of connection points: 2
#     Edge 56, Type (0, 0), BuildingBlock: CIFDUS_clean_linker_0, # of connection points: 2
#     Edge 57, Type (0, 0), BuildingBlock: CIFDUS_clean_linker_0, # of connection points: 2
#     Edge 58, Type (0, 0), BuildingBlock: CIFDUS_clean_linker_0, # of connection points: 2
#     Edge 59, Type (0, 0), BuildingBlock: CIFDUS_clean_linker_0, # of connection points: 2
#     Edge 60, Type (0, 0), BuildingBlock: CIFDUS_clean_linker_0, # of connection points: 2
#     Edge 61, Type (0, 0), BuildingBlock: CIFDUS_clean_linker_0, # of connection points: 2
#     Edge 62, Type (0, 0), BuildingBlock: CIFDUS_clean_linker_0, # of connection points: 2
#     Edge 63, Type (0, 0), BuildingBlock: CIFDUS_clean_linker_0, # of connection points: 2
#     Edge 64, Type (0, 0), BuildingBlock: CIFDUS_clean_linker_0, # of connection points: 2
#     Edge 65, Type (0, 0), BuildingBlock: CIFDUS_clean_linker_0, # of connection points: 2
#     Edge 66, Type (0, 0), BuildingBlock: CIFDUS_clean_linker_0, # of connection points: 2
#     Edge 67, Type (0, 0), BuildingBlock: CIFDUS_clean_linker_0, # of connection points: 2
#     Edge 68, Type (0, 0), BuildingBlock: CIFDUS_clean_linker_0, # of connection points: 2
#     Edge 69, Type (0, 0), BuildingBlock: CIFDUS_clean_linker_0, # of connection points: 2
#     Edge 70, Type (0, 0), BuildingBlock: CIFDUS_clean_linker_0, # of connection points: 2
#     Edge 71, Type (0, 0), BuildingBlock: CIFDUS_clean_linker_0, # of connection points: 2
#     Edge 72, Type (0, 0), BuildingBlock: CIFDUS_clean_linker_0, # of connection points: 2
#     Edge 73, Type (0, 0), BuildingBlock: CIFDUS_clean_linker_0, # of connection points: 2
#     Edge 74, Type (0, 0), BuildingBlock: CIFDUS_clean_linker_0, # of connection points: 2
#     Edge 75, Type (0, 0), BuildingBlock: CIFDUS_clean_linker_0, # of connection points: 2
#     Edge 76, Type (0, 0), BuildingBlock: CIFDUS_clean_linker_0, # of connection points: 2
#     Edge 77, Type (0, 0), BuildingBlock: CIFDUS_clean_linker_0, # of connection points: 2
#     Edge 78, Type (0, 0), BuildingBlock: CIFDUS_clean_linker_0, # of connection points: 2
#     Edge 79, Type (0, 0), BuildingBlock: CIFDUS_clean_linker_0, # of connection points: 2
#     Edge 80, Type (0, 0), BuildingBlock: CIFDUS_clean_linker_0, # of connection points: 2
#     Edge 81, Type (0, 0), BuildingBlock: CIFDUS_clean_linker_0, # of connection points: 2
#     Edge 82, Type (0, 0), BuildingBlock: CIFDUS_clean_linker_0, # of connection points: 2
#     Edge 83, Type (0, 0), BuildingBlock: CIFDUS_clean_linker_0, # of connection points: 2
#     Edge 84, Type (0, 0), BuildingBlock: CIFDUS_clean_linker_0, # of connection points: 2
#     Edge 85, Type (0, 0), BuildingBlock: CIFDUS_clean_linker_0, # of connection points: 2
#     Edge 86, Type (0, 0), BuildingBlock: CIFDUS_clean_linker_0, # of connection points: 2
#     Edge 87, Type (0, 0), BuildingBlock: CIFDUS_clean_linker_0, # of connection points: 2
#     Edge 88, Type (0, 0), BuildingBlock: CIFDUS_clean_linker_0, # of connection points: 2
#     Edge 89, Type (0, 0), BuildingBlock: CIFDUS_clean_linker_0, # of connection points: 2
#     Edge 90, Type (0, 0), BuildingBlock: CIFDUS_clean_linker_0, # of connection points: 2
#     Edge 91, Type (0, 0), BuildingBlock: CIFDUS_clean_linker_0, # of connection points: 2
#     Edge 92, Type (0, 0), BuildingBlock: CIFDUS_clean_linker_0, # of connection points: 2
#     Edge 93, Type (0, 0), BuildingBlock: CIFDUS_clean_linker_0, # of connection points: 2
#     Edge 94, Type (0, 0), BuildingBlock: CIFDUS_clean_linker_0, # of connection points: 2
#     Edge 95, Type (0, 0), BuildingBlock: CIFDUS_clean_linker_0, # of connection points: 2
#     Edge 96, Type (0, 0), BuildingBlock: CIFDUS_clean_linker_0, # of connection points: 2
#     Edge 97, Type (0, 0), BuildingBlock: CIFDUS_clean_linker_0, # of connection points: 2
#     Edge 98, Type (0, 0), BuildingBlock: CIFDUS_clean_linker_0, # of connection points: 2
#     Edge 99, Type (0, 0), BuildingBlock: CIFDUS_clean_linker_0, # of connection points: 2
#     Edge 100, Type (0, 0), BuildingBlock: CIFDUS_clean_linker_0, # of connection points: 2
#     Edge 101, Type (0, 0), BuildingBlock: CIFDUS_clean_linker_0, # of connection points: 2
#     Edge 102, Type (0, 0), BuildingBlock: CIFDUS_clean_linker_0, # of connection points: 2
#     Edge 103, Type (0, 0), BuildingBlock: CIFDUS_clean_linker_0, # of connection points: 2
#     Edge 104, Type (0, 0), BuildingBlock: CIFDUS_clean_linker_0, # of connection points: 2
#     Edge 105, Type (0, 0), BuildingBlock: CIFDUS_clean_linker_0, # of connection points: 2
#     Edge 106, Type (0, 0), BuildingBlock: CIFDUS_clean_linker_0, # of connection points: 2
#     Edge 107, Type (0, 0), BuildingBlock: CIFDUS_clean_linker_0, # of connection points: 2
# Relax obj value: 0.181
# Max RMSD: 0.212
# Mean RMSD: 0.212
data_MOF--net-umn--node1-CEKHIL_clean_sbu_0--edge1-CIFDUS_clean_linker_0
_symmetry_space_group_name_H-M    P1
_symmetry_Int_Tables_number       1
_symmetry_cell_setting            triclinic
loop_
_symmetry_equiv_pos_as_xyz
'x, y, z'
_cell_length_a     71.757891
_cell_length_b     71.72073
_cell_length_c     31.308756
_cell_angle_alpha  89.8727
_cell_angle_beta   90.066505
_cell_angle_gamma 119.93478
loop_
_atom_site_label
_atom_site_type_symbol
_atom_site_fract_x
_atom_site_fract_y
_atom_site_fract_z
_atom_type_partial_charge
Co0 Co 0.37308 0.10779 0.23361 0.0
O1 O 0.38099 0.13726 0.22533 0.0
O2 O 0.34777 0.10957 0.22049 0.0
C3 C 0.39888 0.10793 0.19117 0.0
O4 O 0.35964 0.07547 0.23973 0.0
Co5 Co 0.40569 0.09993 0.28309 0.0
O6 O 0.38505 0.06966 0.26868 0.0
C7 C 0.37505 0.1072 0.33242 0.0
C8 C 0.36081 0.13025 0.21775 0.0
C9 C 0.36623 0.06287 0.25365 0.0
O10 O 0.36736 0.10922 0.2967 0.0
O11 O 0.3916 0.10485 0.33445 0.0
O12 O 0.38143 0.10613 0.1752 0.0
O13 O 0.40165 0.11266 0.23164 0.0
Co14 Co 0.88655 0.26341 0.21995 0.0
O15 O 0.85697 0.24226 0.21093 0.0
O16 O 0.8841 0.23577 0.20936 0.0
C17 C 0.88795 0.28943 0.17564 0.0
O18 O 0.91877 0.28145 0.22769 0.0
Co19 Co 0.89485 0.30482 0.26679 0.0
O20 O 0.92516 0.31269 0.25753 0.0
C21 C 0.88603 0.26698 0.31859 0.0
C22 C 0.86352 0.22851 0.20599 0.0
C23 C 0.93152 0.30016 0.2433 0.0
O24 O 0.88418 0.25679 0.2836 0.0
O25 O 0.88879 0.28606 0.31911 0.0
O26 O 0.88927 0.27329 0.16077 0.0
O27 O 0.88267 0.28767 0.21576 0.0
Co28 Co 0.73518 0.62635 0.23059 0.0
O29 O 0.75677 0.61797 0.23332 0.0
O30 O 0.76319 0.65144 0.22613 0.0
C31 C 0.71354 0.60194 0.18075 0.0
O32 O 0.71718 0.64079 0.22497 0.0
Co33 Co 0.68947 0.59572 0.26214 0.0
O34 O 0.68279 0.61413 0.22559 0.0
C35 C 0.72195 0.62499 0.32454 0.0
C36 C 0.77063 0.63823 0.22803 0.0
C37 C 0.69704 0.6336 0.21871 0.0
O38 O 0.73625 0.63076 0.29498 0.0
O39 O 0.70222 0.61072 0.31822 0.0
O40 O 0.73097 0.61935 0.17026 0.0
O41 O 0.71114 0.59813 0.22173 0.0
Co42 Co 0.09808 0.3595 0.29393 0.0
O43 O 0.12691 0.36455 0.29631 0.0
O44 O 0.09743 0.33257 0.30206 0.0
C45 C 0.1024 0.38558 0.34079 0.0
O46 O 0.06612 0.34873 0.29429 0.0
Co47 Co 0.0908 0.39405 0.25285 0.0
O48 O 0.06275 0.37784 0.28233 0.0
C49 C 0.09378 0.36303 0.19625 0.0
C50 C 0.11833 0.34399 0.30234 0.0
C51 C 0.055 0.35823 0.29313 0.0
O52 O 0.09654 0.35445 0.22998 0.0
O53 O 0.09241 0.38016 0.19763 0.0
O54 O 0.09955 0.36718 0.35359 0.0
O55 O 0.10567 0.38902 0.2998 0.0
Co56 Co 0.63441 0.7369 0.29839 0.0
O57 O 0.62858 0.75972 0.30996 0.0
O58 O 0.66097 0.76297 0.3105 0.0
C59 C 0.60852 0.71147 0.34164 0.0
O60 O 0.64621 0.71691 0.28867 0.0
Co61 Co 0.59934 0.69729 0.25011 0.0
O62 O 0.62028 0.68716 0.25638 0.0
C63 C 0.63023 0.73489 0.19977 0.0
C64 C 0.64912 0.77181 0.31585 0.0
C65 C 0.63924 0.69839 0.27132 0.0
O66 O 0.63906 0.74444 0.23506 0.0
O67 O 0.61309 0.71641 0.19873 0.0
O68 O 0.62667 0.72629 0.35699 0.0
O69 O 0.60536 0.71422 0.30178 0.0
Co70 Co 0.26172 0.89436 0.29502 0.0
O71 O 0.2379 0.8657 0.30035 0.0
O72 O 0.23574 0.89541 0.30507 0.0
C73 C 0.28481 0.89082 0.33985 0.0
O74 O 0.28324 0.92628 0.29232 0.0
Co75 Co 0.30238 0.89978 0.25019 0.0
O76 O 0.31499 0.92886 0.2756 0.0
C77 C 0.26679 0.89554 0.19661 0.0
C78 C 0.22613 0.8745 0.3065 0.0
C79 C 0.30376 0.93711 0.28774 0.0
O80 O 0.25667 0.89453 0.23119 0.0
O81 O 0.28499 0.89622 0.19683 0.0
O82 O 0.26969 0.89392 0.35441 0.0
O83 O 0.28351 0.88675 0.29909 0.0
Co84 Co 0.62978 0.88914 0.81241 0.0
O85 O 0.62626 0.86109 0.82023 0.0
O86 O 0.65764 0.89142 0.81796 0.0
C87 C 0.60536 0.88647 0.86189 0.0
O88 O 0.63893 0.92069 0.80598 0.0
Co89 Co 0.59209 0.89179 0.77288 0.0
O90 O 0.6085 0.9217 0.79395 0.0
C91 C 0.62209 0.88789 0.71481 0.0
C92 C 0.64706 0.87059 0.82254 0.0
C93 C 0.62852 0.9309 0.80215 0.0
O94 O 0.63216 0.88724 0.74823 0.0
O95 O 0.60459 0.88852 0.71723 0.0
O96 O 0.62449 0.89071 0.8726 0.0
O97 O 0.60031 0.88076 0.8221 0.0
Co98 Co 0.099 0.73727 0.81401 0.0
O99 O 0.12754 0.76022 0.82551 0.0
O100 O 0.09804 0.7628 0.8292 0.0
C101 C 0.10034 0.71131 0.85336 0.0
O102 O 0.06718 0.71687 0.80476 0.0
Co103 Co 0.09499 0.69959 0.75982 0.0
O104 O 0.06393 0.68786 0.77037 0.0
C105 C 0.10063 0.73802 0.71502 0.0
C106 C 0.11884 0.77199 0.83297 0.0
C107 C 0.05579 0.69831 0.78732 0.0
O108 O 0.10132 0.74618 0.75192 0.0
O109 O 0.09955 0.71976 0.71054 0.0
O110 O 0.09691 0.72561 0.87116 0.0
O111 O 0.10597 0.71498 0.81337 0.0
Co112 Co 0.25146 0.36088 0.81346 0.0
O113 O 0.23027 0.36971 0.81464 0.0
O114 O 0.22403 0.33677 0.82905 0.0
C115 C 0.27749 0.38848 0.85196 0.0
O116 O 0.26955 0.34654 0.81634 0.0
Co117 Co 0.29299 0.38921 0.76236 0.0
O118 O 0.30251 0.37115 0.79276 0.0
C119 C 0.25498 0.35723 0.71541 0.0
C120 C 0.21673 0.35009 0.82597 0.0
C121 C 0.28956 0.35317 0.81002 0.0
O122 O 0.24489 0.35178 0.75131 0.0
O123 O 0.27422 0.37303 0.71193 0.0
O124 O 0.26121 0.37251 0.87052 0.0
O125 O 0.27579 0.38894 0.8106 0.0
Co126 Co 0.88633 0.62635 0.74126 0.0
O127 O 0.85679 0.61897 0.73712 0.0
O128 O 0.88465 0.65177 0.72801 0.0
C129 C 0.88431 0.59956 0.69921 0.0
O130 O 0.91872 0.63918 0.74214 0.0
Co131 Co 0.89615 0.59449 0.78884 0.0
O132 O 0.92438 0.61199 0.76056 0.0
C133 C 0.8898 0.62537 0.83971 0.0
C134 C 0.86389 0.63904 0.7279 0.0
C135 C 0.93097 0.631 0.74683 0.0
O136 O 0.88715 0.63305 0.80451 0.0
O137 O 0.89219 0.60881 0.8409 0.0
O138 O 0.88566 0.61677 0.68283 0.0
O139 O 0.88104 0.59764 0.74029 0.0
Co140 Co 0.36285 0.25749 0.74449 0.0
O141 O 0.37228 0.23707 0.73603 0.0
O142 O 0.33852 0.22983 0.73026 0.0
C143 C 0.38825 0.28435 0.70306 0.0
O144 O 0.3479 0.27493 0.75091 0.0
Co145 Co 0.39426 0.29841 0.79505 0.0
O146 O 0.37135 0.30554 0.78479 0.0
C147 C 0.36425 0.25959 0.84324 0.0
C148 C 0.35239 0.2232 0.72763 0.0
C149 C 0.35301 0.29312 0.76815 0.0
O150 O 0.3569 0.24983 0.80746 0.0
O151 O 0.38039 0.2787 0.84563 0.0
O152 O 0.37138 0.26832 0.68633 0.0
O153 O 0.39079 0.2821 0.74349 0.0
Co154 Co 0.73424 0.09844 0.72803 0.0
O155 O 0.75736 0.12701 0.71805 0.0
O156 O 0.75978 0.09747 0.71244 0.0
C157 C 0.70896 0.10083 0.68825 0.0
O158 O 0.71342 0.06659 0.73545 0.0
Co159 Co 0.69641 0.09427 0.78152 0.0
O160 O 0.68363 0.06365 0.76566 0.0
C161 C 0.73371 0.09749 0.82708 0.0
C162 C 0.76897 0.11831 0.70924 0.0
C163 C 0.69417 0.05532 0.74993 0.0
O164 O 0.74258 0.09955 0.79035 0.0
O165 O 0.71542 0.09637 0.83135 0.0
O166 O 0.72324 0.09733 0.67071 0.0
O167 O 0.71224 0.10589 0.72857 0.0
Co168 Co 0.03566 0.43901 0.55306 0.0
O169 O 0.04487 0.46915 0.55712 0.0
O170 O 0.01103 0.44285 0.55124 0.0
C171 C 0.05915 0.44143 0.50133 0.0
O172 O 0.02031 0.40657 0.54662 0.0
Co173 Co 0.06568 0.42232 0.58064 0.0
O174 O 0.04613 0.39762 0.54452 0.0
C175 C 0.03818 0.42644 0.64611 0.0
C176 C 0.02466 0.46336 0.55361 0.0
C177 C 0.02676 0.39311 0.5391 0.0
O178 O 0.03218 0.43529 0.61756 0.0
O179 O 0.05194 0.42046 0.63811 0.0
O180 O 0.0419 0.4421 0.49228 0.0
O181 O 0.0634 0.44236 0.54204 0.0
Co182 Co 0.56144 0.59388 0.55851 0.0
O183 O 0.53237 0.57072 0.55359 0.0
O184 O 0.56144 0.56769 0.54497 0.0
C185 C 0.55878 0.61871 0.51751 0.0
O186 O 0.59351 0.61447 0.56029 0.0
Co187 Co 0.56844 0.63347 0.60969 0.0
O188 O 0.59734 0.64594 0.58352 0.0
C189 C 0.56464 0.59663 0.6576 0.0
C190 C 0.54056 0.55858 0.54523 0.0
C191 C 0.60489 0.63471 0.56779 0.0
O192 O 0.5624 0.58734 0.62134 0.0
O193 O 0.56594 0.61504 0.66093 0.0
O194 O 0.56064 0.60328 0.50049 0.0
O195 O 0.55499 0.61657 0.55849 0.0
Co196 Co 0.39817 0.95917 0.56667 0.0
O197 O 0.41936 0.95028 0.56632 0.0
O198 O 0.426 0.9836 0.55505 0.0
C199 C 0.3733 0.93277 0.52389 0.0
O200 O 0.38033 0.97379 0.56348 0.0
Co201 Co 0.35481 0.92958 0.61123 0.0
O202 O 0.34648 0.94862 0.58095 0.0
C203 C 0.39164 0.95914 0.66443 0.0
C204 C 0.43318 0.97018 0.55739 0.0
C205 C 0.36015 0.96712 0.56672 0.0
O206 O 0.40288 0.96623 0.63006 0.0
O207 O 0.3723 0.94329 0.66444 0.0
O208 O 0.39009 0.94928 0.50797 0.0
O209 O 0.3737 0.93112 0.56526 0.0
Co210 Co 0.77507 0.70496 0.62339 0.0
O211 O 0.80471 0.71317 0.63112 0.0
O212 O 0.77735 0.67978 0.63536 0.0
C213 C 0.77489 0.73022 0.66737 0.0
O214 O 0.74261 0.69085 0.61788 0.0
Co215 Co 0.76501 0.73697 0.57757 0.0
O216 O 0.73556 0.71667 0.59652 0.0
C217 C 0.76978 0.70513 0.52599 0.0
C218 C 0.79796 0.69298 0.6383 0.0
C219 C 0.72944 0.69743 0.60798 0.0
O220 O 0.77651 0.69998 0.55971 0.0
O221 O 0.76431 0.71961 0.52609 0.0
O222 O 0.77339 0.71271 0.68234 0.0
O223 O 0.77941 0.73342 0.6268 0.0
Co224 Co 0.29268 0.06911 0.62431 0.0
O225 O 0.28347 0.0897 0.63265 0.0
O226 O 0.31724 0.09686 0.63731 0.0
C227 C 0.26766 0.04267 0.66706 0.0
O228 O 0.30733 0.05137 0.61777 0.0
Co229 Co 0.26052 0.02808 0.57513 0.0
O230 O 0.28298 0.02041 0.5862 0.0
C231 C 0.29055 0.06631 0.52553 0.0
C232 C 0.30345 0.10359 0.64017 0.0
C233 C 0.3016 0.03278 0.60172 0.0
O234 O 0.29804 0.07629 0.56106 0.0
O235 O 0.27434 0.04721 0.52376 0.0
O236 O 0.28473 0.05882 0.68291 0.0
O237 O 0.26467 0.04461 0.6267 0.0
Co238 Co 0.92135 0.22732 0.61858 0.0
O239 O 0.89873 0.19857 0.62965 0.0
O240 O 0.89495 0.22743 0.62937 0.0
C241 C 0.94632 0.22695 0.66329 0.0
O242 O 0.94117 0.25918 0.60898 0.0
Co243 Co 0.96131 0.23209 0.57192 0.0
O244 O 0.97114 0.26308 0.57745 0.0
C245 C 0.92419 0.22537 0.52014 0.0
C246 C 0.88634 0.20675 0.63468 0.0
C247 C 0.95975 0.27076 0.59183 0.0
O248 O 0.91437 0.22442 0.55514 0.0
O249 O 0.94277 0.22691 0.51962 0.0
O250 O 0.93126 0.23021 0.67752 0.0
O251 O 0.94414 0.22107 0.62346 0.0
Co252 Co 0.29055 0.21851 0.13928 0.0
O253 O 0.28306 0.18918 0.14762 0.0
O254 O 0.31642 0.21666 0.14364 0.0
C255 C 0.26844 0.21933 0.19049 0.0
O256 O 0.30384 0.25077 0.13128 0.0
Co257 Co 0.25581 0.22607 0.10186 0.0
O258 O 0.27704 0.25659 0.11143 0.0
C259 C 0.28321 0.21904 0.04228 0.0
C260 C 0.30352 0.19608 0.14877 0.0
C261 C 0.29669 0.26336 0.12046 0.0
O262 O 0.29172 0.21561 0.07525 0.0
O263 O 0.26745 0.22259 0.04527 0.0
O264 O 0.2871 0.22171 0.19941 0.0
O265 O 0.2621 0.2135 0.15123 0.0
Co266 Co 0.77095 0.0676 0.14849 0.0
O267 O 0.80088 0.08903 0.15097 0.0
O268 O 0.77386 0.09515 0.16182 0.0
C269 C 0.77197 0.04184 0.18936 0.0
O270 O 0.7385 0.04922 0.14925 0.0
Co271 Co 0.75903 0.02612 0.09878 0.0
O272 O 0.73126 0.0162 0.12845 0.0
C273 C 0.76488 0.06362 0.05001 0.0
C274 C 0.79451 0.10263 0.1599 0.0
C275 C 0.72556 0.02901 0.14381 0.0
O276 O 0.76926 0.0738 0.08572 0.0
O277 O 0.76148 0.04435 0.0472 0.0
O278 O 0.77203 0.05829 0.20647 0.0
O279 O 0.77487 0.04328 0.14811 0.0
Co280 Co 0.9269 0.70521 0.13434 0.0
O281 O 0.90547 0.71319 0.14361 0.0
O282 O 0.89977 0.67985 0.14744 0.0
C283 C 0.95291 0.73058 0.17687 0.0
O284 O 0.94562 0.69173 0.12703 0.0
Co285 Co 0.96752 0.73842 0.08527 0.0
O286 O 0.97688 0.71742 0.09884 0.0
C287 C 0.92954 0.70807 0.03563 0.0
C288 C 0.89227 0.69299 0.15106 0.0
C289 C 0.9648 0.69843 0.11314 0.0
O290 O 0.91969 0.70004 0.07111 0.0
O291 O 0.9484 0.72464 0.034 0.0
O292 O 0.9372 0.71316 0.19282 0.0
O293 O 0.95068 0.7336 0.13666 0.0
Co294 Co 0.56108 0.96936 0.05462 0.0
O295 O 0.53298 0.9646 0.04132 0.0
O296 O 0.5627 0.99651 0.04243 0.0
C297 C 0.56011 0.94353 1.01103 0.0
O298 O 0.59263 0.98025 0.06622 0.0
Co299 Co 0.56405 0.93442 0.10399 0.0
O300 O 0.5953 0.95345 0.09751 0.0
C301 C 0.5599 0.96688 0.1532 0.0
C302 C 0.54205 0.98525 0.03609 0.0
C303 C 0.60369 0.9726 0.08331 0.0
O304 O 0.55745 0.97401 0.11716 0.0
O305 O 0.56191 0.95015 0.15584 0.0
O306 O 0.56462 0.96227 0.99682 0.0
O307 O 0.55333 0.93958 0.05047 0.0
Co308 Co 0.02501 0.59179 0.06039 0.0
O309 O 0.02884 0.56747 0.05268 0.0
O310 O -0.00205 0.56707 0.0443 0.0
C311 C 0.05365 0.61592 0.0212 0.0
O312 O 0.01582 0.6142 0.06454 0.0
Co313 Co 0.0592 0.62937 0.11391 0.0
O314 O 0.04488 0.64428 0.08861 0.0
C315 C 0.02421 0.59293 0.15945 0.0
C316 C 0.00863 0.55682 0.04248 0.0
C317 C 0.026 0.63443 0.0729 0.0
O318 O 0.01698 0.58428 0.12272 0.0
O319 O 0.04195 0.61068 0.16372 0.0
O320 O 0.03589 0.60192 1.00317 0.0
O321 O 0.05474 0.61276 0.06194 0.0
Co322 Co 0.39708 0.43109 0.06277 0.0
O323 O 0.42019 0.46017 0.05734 0.0
O324 O 0.42311 0.43108 0.0479 0.0
C325 C 0.37215 0.43408 0.02314 0.0
O326 O 0.37649 0.39894 0.06483 0.0
Co327 Co 0.35758 0.42356 0.11488 0.0
O328 O 0.34489 0.39489 0.08753 0.0
C329 C 0.39486 0.42765 0.16165 0.0
C330 C 0.43222 0.45197 0.04803 0.0
C331 C 0.35622 0.38742 0.072 0.0
O332 O 0.40407 0.43013 0.12521 0.0
O333 O 0.37634 0.42606 0.16546 0.0
O334 O 0.38726 0.43197 1.00528 0.0
O335 O 0.37454 0.43769 0.06412 0.0
Co336 Co 0.70338 0.7696 0.89842 0.0
O337 O 0.70697 0.79748 0.88744 0.0
O338 O 0.67564 0.76707 0.88865 0.0
C339 C 0.72922 0.77195 0.85286 0.0
O340 O 0.69415 0.73821 0.90775 0.0
Co341 Co 0.74041 0.76781 0.94403 0.0
O342 O 0.72387 0.73719 0.9272 0.0
C343 C 0.70903 0.77242 0.9968 0.0
C344 C 0.68625 0.78784 0.88315 0.0
C345 C 0.70412 0.72794 0.91653 0.0
O346 O 0.69946 0.77231 0.96196 0.0
O347 O 0.72672 0.77207 0.9969 0.0
O348 O 0.71037 0.76736 0.83926 0.0
O349 O 0.73298 0.77803 0.89266 0.0
Co350 Co 0.22697 0.92894 0.89455 0.0
O351 O 0.19838 0.90546 0.8863 0.0
O352 O 0.22787 0.9028 0.88562 0.0
C353 C 0.2252 0.95277 0.84881 0.0
O354 O 0.25877 0.94987 0.90144 0.0
Co355 Co 0.23119 0.96929 0.93895 0.0
O356 O 0.26203 0.98079 0.92636 0.0
C357 C 0.22601 0.93337 0.99283 0.0
C358 C 0.20704 0.89344 0.88224 0.0
C359 C 0.27017 0.9695 0.91373 0.0
O360 O 0.2253 0.92327 0.95841 0.0
O361 O 0.22683 0.95163 0.99233 0.0
O362 O 0.22852 0.93767 0.83494 0.0
O363 O 0.21989 0.95103 0.88894 0.0
Co364 Co 0.05803 0.28644 0.89693 0.0
O365 O 0.07878 0.27717 0.89193 0.0
O366 O 0.08614 0.31109 0.88848 0.0
C367 C 0.03301 0.26254 0.85052 0.0
O368 O 0.04065 0.30146 0.90042 0.0
Co369 Co 0.01486 0.25426 0.93968 0.0
O370 O 0.00811 0.2772 0.92646 0.0
C371 C 0.05124 0.28279 0.99502 0.0
C372 C 0.09296 0.29735 0.88699 0.0
C373 C 0.02155 0.29597 0.91291 0.0
O374 O 0.06272 0.29059 0.96113 0.0
O375 O 0.0319 0.26697 0.99385 0.0
O376 O 0.04997 0.27965 0.83696 0.0
O377 O 0.03337 0.25872 0.89106 0.0
Co378 Co 0.43755 0.03702 0.9615 0.0
O379 O 0.46593 0.04108 0.96596 0.0
O380 O 0.4358 0.00963 0.9713 0.0
C381 C 0.44202 0.06379 1.00655 0.0
O382 O 0.40583 0.02745 0.95955 0.0
Co383 Co 0.4328 0.07283 0.91728 0.0
O384 O 0.40379 0.05699 0.94316 0.0
C385 C 0.4352 0.0406 0.86325 0.0
C386 C 0.45673 0.02049 0.9723 0.0
C387 C 0.39525 0.03744 0.95511 0.0
O388 O 0.43674 0.03168 0.89771 0.0
O389 O 0.43482 0.05828 0.86351 0.0
O390 O 0.43856 0.0454 0.0209 0.0
O391 O 0.44588 0.0666 0.96568 0.0
Co392 Co 0.96153 0.40373 0.95089 0.0
O393 O 0.95582 0.4272 0.95464 0.0
O394 O 0.98783 0.42993 0.96235 0.0
C395 C 0.93449 0.38001 0.99427 0.0
O396 O 0.97345 0.38343 0.95127 0.0
Co397 Co 0.9296 0.36154 0.90679 0.0
O398 O 0.9453 0.35038 0.94016 0.0
C399 C 0.96224 0.39671 0.85387 0.0
C400 C 0.97621 0.43919 0.96271 0.0
C401 C 0.96461 0.36286 0.95168 0.0
O402 O 0.96788 0.40885 0.88714 0.0
O403 O 0.94714 0.37704 0.85459 0.0
O404 O 0.95213 0.39563 1.0097 0.0
O405 O 0.93236 0.38092 0.95305 0.0
Co406 Co 0.5884 0.56127 0.98338 0.0
O407 O 0.56469 0.53287 0.99131 0.0
O408 O 0.56252 0.5626 0.9943 0.0
C409 C 0.61179 0.55825 0.02793 0.0
O410 O 0.61005 0.59307 0.97717 0.0
Co411 Co 0.62698 0.56448 0.93577 0.0
O412 O 0.64053 0.59475 0.95428 0.0
C413 C 0.59186 0.56237 0.88454 0.0
C414 C 0.55295 0.5417 0.99703 0.0
C415 C 0.63007 0.60376 0.96683 0.0
O416 O 0.58208 0.56031 0.9201 0.0
O417 O 0.6101 0.56324 0.88279 0.0
O418 O 0.5972 0.56219 0.04216 0.0
O419 O 0.60991 0.55301 0.98763 0.0
Co420 Co 0.95927 0.55738 0.48229 0.0
O421 O 0.95112 0.52762 0.48591 0.0
O422 O 0.98405 0.55483 0.49715 0.0
C423 C 0.93201 0.55565 0.52219 0.0
O424 O 0.97287 0.58986 0.48202 0.0
Co425 Co 0.92929 0.56862 0.43181 0.0
O426 O 0.94675 0.59659 0.46098 0.0
C427 C 0.96105 0.5626 0.3838 0.0
C428 C 0.97096 0.53414 0.49607 0.0
C429 C 0.96538 0.60263 0.4761 0.0
O430 O 0.96716 0.55867 0.41972 0.0
O431 O 0.94503 0.56576 0.38078 0.0
O432 O 0.94869 0.55642 0.53989 0.0
O433 O 0.93082 0.55278 0.48098 0.0
Co434 Co 0.43049 0.40197 0.48566 0.0
O435 O 0.45909 0.42524 0.49449 0.0
O436 O 0.42964 0.42789 0.49832 0.0
C437 C 0.43254 0.3772 0.52779 0.0
O438 O 0.39864 0.38098 0.47855 0.0
Co439 Co 0.42662 0.36332 0.43528 0.0
O440 O 0.39607 0.35073 0.45149 0.0
C441 C 0.42976 0.39981 0.38671 0.0
C442 C 0.45051 0.43717 0.50094 0.0
C443 C 0.38754 0.3614 0.46559 0.0
O444 O 0.43172 0.40919 0.42275 0.0
O445 O 0.42868 0.38148 0.3839 0.0
O446 O 0.42928 0.39193 0.54396 0.0
O447 O 0.43776 0.3799 0.48751 0.0
Co448 Co 0.59072 0.03384 0.47519 0.0
O449 O 0.56903 0.04196 0.47598 0.0
O450 O 0.56344 0.00926 0.49032 0.0
C451 C 0.61614 0.06152 0.51453 0.0
O452 O 0.60968 0.02042 0.4783 0.0
Co453 Co 0.63188 0.06316 0.42426 0.0
O454 O 0.64241 0.04645 0.45662 0.0
C455 C 0.59447 0.03071 0.37689 0.0
C456 C 0.55576 0.02226 0.48717 0.0
C457 C 0.63 0.02817 0.47344 0.0
O458 O 0.58455 0.02485 0.41292 0.0
O459 O 0.61345 0.04697 0.37338 0.0
O460 O 0.59989 0.04528 0.53247 0.0
O461 O 0.61464 0.06222 0.47311 0.0
Co462 Co 0.22229 0.29436 0.39348 0.0
O463 O 0.19446 0.2906 0.38297 0.0
O464 O 0.22484 0.32192 0.3802 0.0
C465 C 0.21884 0.26741 0.35059 0.0
O466 O 0.25373 0.30348 0.40168 0.0
Co467 Co 0.22428 0.25913 0.44374 0.0
O468 O 0.25417 0.27366 0.42252 0.0
C469 C 0.22232 0.29289 0.49233 0.0
C470 C 0.20402 0.3111 0.37563 0.0
C471 C 0.26368 0.29317 0.41016 0.0
O472 O 0.22058 0.30029 0.45607 0.0
O473 O 0.22307 0.27547 0.49552 0.0
O474 O 0.22377 0.2861 0.33558 0.0
O475 O 0.21306 0.26426 0.39073 0.0
Co476 Co 0.69421 0.92435 0.40977 0.0
O477 O 0.70004 0.90148 0.39872 0.0
O478 O 0.66766 0.89825 0.39781 0.0
C479 C 0.72013 0.9496 0.36643 0.0
O480 O 0.68242 0.94439 0.41879 0.0
Co481 Co 0.72903 0.96421 0.45765 0.0
O482 O 0.70848 0.97468 0.44916 0.0
C483 C 0.69856 0.92657 0.50828 0.0
C484 C 0.6795 0.88938 0.39276 0.0
C485 C 0.68947 0.96326 0.43459 0.0
O486 O 0.68956 0.91701 0.47313 0.0
O487 O 0.71568 0.94505 0.50914 0.0
O488 O 0.70199 0.93474 0.35112 0.0
O489 O 0.72326 0.94701 0.4064 0.0
Co490 Co 0.07159 0.76817 0.39022 0.0
O491 O 0.09461 0.7964 0.3768 0.0
O492 O 0.09696 0.76674 0.37543 0.0
C493 C 0.04585 0.76939 0.34994 0.0
O494 O 0.05099 0.73654 0.40182 0.0
Co495 Co 0.03416 0.76549 0.44327 0.0
O496 O 0.02221 0.73422 0.43563 0.0
C497 C 0.07221 0.77054 0.48892 0.0
C498 C 0.10619 0.78746 0.36986 0.0
C499 C 0.03254 0.72563 0.42002 0.0
O500 O 0.08068 0.77141 0.45226 0.0
O501 O 0.05392 0.76944 0.49288 0.0
O502 O 0.05981 0.76522 0.33302 0.0
O503 O 0.04962 0.77563 0.38956 0.0
H504 H 0.29336 0.96509 0.25245 0.0
H505 H 0.34009 0.96082 0.33236 0.0
H506 H 0.36343 -0.00019 0.32916 0.0
H507 H 0.37172 0.03412 0.29912 0.0
H508 H 0.32624 0.03936 0.21666 0.0
H509 H 0.30116 0.00069 0.22485 0.0
C510 C 0.30841 0.9729 0.26997 0.0
C511 C 0.31511 0.96043 0.29288 0.0
C512 C 0.32209 0.99521 0.2666 0.0
C513 C 0.33475 0.97035 0.3148 0.0
C514 C 0.34811 0.99252 0.31266 0.0
C515 C 0.35639 0.02691 0.2826 0.0
C516 C 0.35101 0.03955 0.25669 0.0
C517 C 0.34219 0.00496 0.28767 0.0
C518 C 0.33086 0.02991 0.23639 0.0
C519 C 0.3165 0.00786 0.24125 0.0
H520 H 0.02829 0.32254 0.2496 0.0
H521 H 0.03021 0.36702 0.34427 0.0
H522 H 0.9913 0.35175 0.33829 0.0
H523 H 0.95812 0.32899 0.30046 0.0
H524 H 0.95572 0.28561 0.2024 0.0
H525 H 0.99378 0.29741 0.21493 0.0
C526 C 0.01996 0.32832 0.26977 0.0
C527 C 0.03173 0.34561 0.29761 0.0
C528 C -0.00216 0.32018 0.26456 0.0
C529 C 0.02118 0.35354 0.32299 0.0
C530 C -0.00092 0.34499 0.31921 0.0
C531 C 0.96588 0.32215 0.28153 0.0
C532 C 0.95433 0.30687 0.24977 0.0
C533 C 0.98748 0.32892 0.28895 0.0
C534 C 0.96444 0.29767 0.22655 0.0
C535 C 0.98611 0.30432 0.23386 0.0
H536 H 0.70843 0.6691 0.26484 0.0
H537 H 0.66703 0.63038 0.16251 0.0
H538 H 0.64598 0.64853 0.16857 0.0
H539 H 0.63657 0.67137 0.20943 0.0
H540 H 0.67628 0.70871 0.31508 0.0
H541 H 0.70085 0.69489 0.30173 0.0
C542 C 0.69528 0.66529 0.24291 0.0
C543 C 0.68922 0.64869 0.21306 0.0
C544 C 0.68263 0.67494 0.24823 0.0
C545 C 0.67193 0.64333 0.18537 0.0
C546 C 0.65979 0.65347 0.18924 0.0
C547 C 0.65055 0.67645 0.22973 0.0
C548 C 0.65435 0.69053 0.26394 0.0
C549 C 0.66444 0.66854 0.22182 0.0
C550 C 0.67289 0.69755 0.28902 0.0
C551 C 0.68695 0.68977 0.28125 0.0
H552 H 0.66679 0.95714 0.76474 0.0
H553 H 0.61547 0.95674 0.83716 0.0
H554 H 0.63109 0.99536 0.82562 0.0
H555 H 0.65783 0.0283 0.79219 0.0
H556 H 0.70936 0.02961 0.71851 0.0
H557 H 0.69474 0.99117 0.73242 0.0
C558 C 0.6594 0.96571 0.77875 0.0
C559 C 0.6402 0.9544 0.80201 0.0
C560 C 0.66809 0.98775 0.77081 0.0
C561 C 0.63036 0.96534 0.81933 0.0
C562 C 0.63915 0.98729 0.81244 0.0
C563 C 0.66589 0.02027 0.77875 0.0
C564 C 0.68458 0.0318 0.75401 0.0
C565 C 0.6577 -0.0015 0.78747 0.0
C566 C 0.69483 0.02105 0.73737 0.0
C567 C 0.6866 -0.00085 0.7456 0.0
H568 H 0.02911 0.66568 0.73598 0.0
H569 H 0.02998 0.71119 0.82724 0.0
H570 H 0.99125 0.6963 0.8173 0.0
H571 H 0.95681 0.66856 0.78612 0.0
H572 H 0.95654 0.62233 0.69804 0.0
H573 H 0.99573 0.6398 0.70222 0.0
C574 C 0.02091 0.67236 0.75397 0.0
C575 C 0.03237 0.68929 0.78289 0.0
C576 C -0.00113 0.66385 0.74798 0.0
C577 C 0.02148 0.69798 0.80515 0.0
C578 C -0.00062 0.68956 0.79931 0.0
C579 C 0.96552 0.66283 0.76695 0.0
C580 C 0.95415 0.6445 0.74136 0.0
C581 C 0.98789 0.67237 0.77107 0.0
C582 C 0.96524 0.63664 0.71745 0.0
C583 C 0.98751 0.64645 0.72023 0.0
H584 H 0.35113 0.31725 0.83116 0.0
H585 H 0.31753 0.28222 0.71812 0.0
H586 H 0.29159 0.2948 0.72664 0.0
H587 H 0.28156 0.31941 0.76161 0.0
H588 H 0.31719 0.35603 0.87135 0.0
H589 H 0.33911 0.33864 0.86973 0.0
C590 C 0.33815 0.31237 0.80825 0.0
C591 C 0.33653 0.29939 0.77332 0.0
C592 C 0.32359 0.31969 0.81331 0.0
C593 C 0.31924 0.29253 0.74482 0.0
C594 C 0.30444 0.29966 0.74978 0.0
C595 C 0.29364 0.32288 0.78596 0.0
C596 C 0.29776 0.33855 0.81698 0.0
C597 C 0.30679 0.31365 0.78335 0.0
C598 C 0.31371 0.34365 0.84781 0.0
C599 C 0.32634 0.33395 0.84648 0.0
H600 H 0.99141 0.36976 0.58644 0.0
H601 H 0.02822 0.36589 0.48158 0.0
H602 H 0.00891 0.32666 0.48712 0.0
H603 H 0.98585 0.29458 0.52837 0.0
H604 H 0.95042 0.29799 0.63647 0.0
H605 H 0.96508 0.33658 0.62345 0.0
C606 C 0.99455 0.36019 0.56388 0.0
C607 C 0.01099 0.3704 0.5335 0.0
C608 C 0.98422 0.33781 0.56883 0.0
C609 C 0.01544 0.35812 0.50492 0.0
C610 C 0.00463 0.33581 0.50847 0.0
C611 C 0.98135 0.30375 0.54923 0.0
C612 C 0.96763 0.29372 0.5841 0.0
C613 C 0.98978 0.32566 0.54156 0.0
C614 C 0.9613 0.30557 0.60989 0.0
C615 C 0.96959 0.32753 0.60234 0.0
H616 H 0.63225 0.62367 0.60307 0.0
H617 H 0.62882 0.6707 0.5225 0.0
H618 H 0.66774 0.69408 0.52727 0.0
H619 H 0.70147 0.70251 0.55979 0.0
H620 H 0.70599 0.65691 0.64323 0.0
H621 H 0.66755 0.6314 0.63232 0.0
C622 C 0.64027 0.63876 0.58561 0.0
C623 C 0.62808 0.64558 0.56211 0.0
C624 C 0.66249 0.65247 0.59004 0.0
C625 C 0.63819 0.66526 0.54033 0.0
C626 C 0.6603 0.67865 0.54345 0.0
C627 C 0.69413 0.68708 0.57603 0.0
C628 C 0.70639 0.68179 0.60321 0.0
C629 C 0.6724 0.6727 0.56937 0.0
C630 C 0.69673 0.66144 0.62273 0.0
C631 C 0.67485 0.64687 0.6163 0.0
H632 H 0.30125 0.00606 0.54191 0.0
H633 H 0.33797 0.04428 0.64955 0.0
H634 H 0.36251 0.02986 0.64256 0.0
H635 H 0.37038 0.0029 0.61101 0.0
H636 H 0.33135 0.96316 0.50727 0.0
H637 H 0.31093 0.9821 0.50667 0.0
C638 C 0.3146 0.01126 0.564 0.0
C639 C 0.3175 0.02569 0.59702 0.0
C640 C 0.32827 0.00282 0.55999 0.0
C641 C 0.33528 0.03288 0.62435 0.0
C642 C 0.34927 0.02468 0.62028 0.0
C643 C 0.35786 -0.00098 0.58746 0.0
C644 C 0.35233 0.98201 0.55885 0.0
C645 C 0.34556 0.00923 0.58886 0.0
C646 C 0.33584 0.97646 0.52906 0.0
C647 C 0.3241 0.9871 0.52908 0.0
H648 H 0.36873 0.36105 0.10674 0.0
H649 H 0.31941 0.36214 0.02983 0.0
H650 H 0.2969 0.32315 0.03702 0.0
H651 H 0.28985 0.28999 0.07113 0.0
H652 H 0.33789 0.28811 0.1513 0.0
H653 H 0.36245 0.32648 0.13729 0.0
C654 C 0.35332 0.35253 0.09057 0.0
C655 C 0.34563 0.36411 0.06747 0.0
C656 C 0.34013 0.33029 0.09647 0.0
C657 C 0.32553 0.35328 0.04739 0.0
C658 C 0.31264 0.33113 0.05188 0.0
C659 C 0.30564 0.29792 0.08588 0.0
C660 C 0.31188 0.28639 0.11308 0.0
C661 C 0.3195 0.31967 0.07757 0.0
C662 C 0.33264 0.29678 0.13076 0.0
C663 C 0.34667 0.31863 0.12259 0.0
H664 H 0.62762 0.96683 0.14223 0.0
H665 H 0.631 0.01145 0.04554 0.0
H666 H 0.66905 0.03548 0.06238 0.0
H667 H 0.7019 0.04187 0.10025 0.0
H668 H 0.69822 0.99582 0.19337 0.0
H669 H 0.65926 0.97446 0.18349 0.0
C670 C 0.63665 0.98174 0.12454 0.0
C671 C 0.62669 0.98713 0.09194 0.0
C672 C 0.65825 0.99537 0.13453 0.0
C673 C 0.63846 0.00681 0.07029 0.0
C674 C 0.66012 0.02058 0.0801 0.0
C675 C 0.69233 0.02758 0.11941 0.0
C676 C 0.70251 0.02042 0.14796 0.0
C677 C 0.67022 0.01486 0.11178 0.0
C678 C 0.69038 0.00162 0.17183 0.0
C679 C 0.66827 0.98932 0.16569 0.0
H680 H 0.00074 0.7054 0.07233 0.0
H681 H 0.94637 0.65685 0.14308 0.0
H682 H 0.95918 0.63136 0.13147 0.0
H683 H 0.98692 0.62369 0.10379 0.0
H684 H 0.04149 0.6732 0.03572 0.0
H685 H 0.02703 0.6975 0.04252 0.0
C686 C 0.99163 0.6893 0.08554 0.0
C687 C 0.97276 0.68313 0.10903 0.0
C688 C -0.00109 0.67484 0.07842 0.0
C689 C 0.96109 0.66207 0.12526 0.0
C690 C 0.96831 0.64747 0.11838 0.0
C691 C 0.99523 0.63961 0.08953 0.0
C692 C 0.015 0.64677 0.06892 0.0
C693 C 0.98724 0.65372 0.09509 0.0
C694 C 0.0261 0.6675 0.05137 0.0
C695 C 0.01797 0.68139 0.05562 0.0
H696 H 0.67081 0.63005 0.94093 0.0
H697 H 0.61389 0.63066 0.98375 0.0
H698 H 0.63133 0.6693 0.96855 0.0
H699 H 0.6628 0.70272 0.94214 0.0
H700 H 0.71895 0.70084 0.8989 0.0
H701 H 0.70129 0.6624 0.91394 0.0
C702 C 0.66212 0.63852 0.94728 0.0
C703 C 0.64105 0.62743 0.96351 0.0
C704 C 0.67192 0.66035 0.93747 0.0
C705 C 0.63018 0.63883 0.9715 0.0
C706 C 0.64006 0.66085 0.96243 0.0
C707 C 0.67093 0.69373 0.93527 0.0
C708 C 0.69203 0.70441 0.91921 0.0
C709 C 0.66084 0.67171 0.9449 0.0
C710 C 0.70266 0.69283 0.91118 0.0
C711 C 0.69265 0.67095 0.92004 0.0
H712 H 0.36855 -0.00229 0.92463 0.0
H713 H 0.36995 0.0512 0.99029 0.0
H714 H 0.33101 0.03466 0.9827 0.0
H715 H 0.29749 0.00664 0.95327 0.0
H716 H 0.29545 0.95328 0.88528 0.0
H717 H 0.33406 0.96843 0.89721 0.0
C718 C 0.36016 0.00538 0.93816 0.0
C719 C 0.37182 0.02546 0.95825 0.0
C720 C 0.33793 0.99617 0.93227 0.0
C721 C 0.36108 0.03565 0.97491 0.0
C722 C 0.33893 0.02631 0.97025 0.0
C723 C 0.3054 -0.00171 0.94071 0.0
C724 C 0.29363 0.97898 0.91795 0.0
C725 C 0.32735 0.0069 0.94803 0.0
C726 C 0.30419 0.96829 0.90256 0.0
C727 C 0.32621 0.97685 0.90961 0.0
H728 H 0.99452 0.29633 0.97089 0.0
H729 H 0.03586 0.33323 0.86656 0.0
H730 H 0.02451 0.36014 0.87513 0.0
H731 H -0.00019 0.3707 0.9078 0.0
H732 H 0.95727 0.33199 1.00895 0.0
H733 H 0.97268 0.30835 1.00724 0.0
C734 C 0.00099 0.3102 0.94979 0.0
C735 C 0.01547 0.31258 0.91731 0.0
C736 C 0.99448 0.32536 0.95501 0.0
C737 C 0.02437 0.33098 0.89128 0.0
C738 C 0.01797 0.34634 0.89632 0.0
C739 C 0.99456 0.3575 0.93033 0.0
C740 C 0.97773 0.35297 0.95877 0.0
C741 C 0.00273 0.34344 0.92759 0.0
C742 C 0.97043 0.33566 0.98725 0.0
C743 C 0.97903 0.32209 0.98589 0.0
H744 H 0.00164 0.70102 0.47653 0.0
H745 H 0.04409 0.69829 0.3822 0.0
H746 H 0.02932 0.65991 0.39731 0.0
H747 H 0.0022 0.62669 0.43345 0.0
H748 H 0.95882 0.62988 0.52432 0.0
H749 H 0.97669 0.66895 0.51556 0.0
C750 C 0.00766 0.69209 0.45897 0.0
C751 C 0.02363 0.7024 0.4276 0.0
C752 C -0.00077 0.67028 0.46793 0.0
C753 C 0.03157 0.69065 0.40606 0.0
C754 C 0.02324 0.66877 0.41487 0.0
C755 C -0.00275 0.63615 0.4523 0.0
C756 C 0.9796 0.62579 0.48 0.0
C757 C 0.0069 0.65839 0.44542 0.0
C758 C 0.97267 0.63782 0.50343 0.0
C759 C 0.98267 0.66001 0.49797 0.0
H760 H 0.28979 0.33339 0.43978 0.0
H761 H 0.28964 0.27789 0.38646 0.0
H762 H 0.32793 0.2938 0.40177 0.0
H763 H 0.36052 0.32229 0.43274 0.0
H764 H 0.36173 0.37832 0.48656 0.0
H765 H 0.32349 0.36297 0.4698 0.0
C766 C 0.29835 0.32511 0.43063 0.0
C767 C 0.28718 0.30468 0.41166 0.0
C768 C 0.32021 0.33408 0.44069 0.0
C769 C 0.29812 0.29373 0.40082 0.0
C770 C 0.31988 0.30271 0.40992 0.0
C771 C 0.35253 0.33123 0.44117 0.0
C772 C 0.36401 0.35143 0.46104 0.0
C773 C 0.33092 0.32263 0.43056 0.0
C774 C 0.35324 0.36266 0.47154 0.0
C775 C 0.33146 0.354 0.46158 0.0
H776 H 0.69444 0.99512 0.48707 0.0
H777 H 0.65041 0.94912 0.39576 0.0
H778 H 0.62563 0.96285 0.40644 0.0
H779 H 0.61831 0.9902 0.43697 0.0
H780 H 0.66373 0.03731 0.52442 0.0
H781 H 0.68598 0.02033 0.52128 0.0
C782 C 0.67948 0.9881 0.46928 0.0
C783 C 0.67446 0.97145 0.43998 0.0
C784 C 0.66543 0.99599 0.47563 0.0
C785 C 0.65475 0.96218 0.41807 0.0
C786 C 0.64055 0.96992 0.42433 0.0
C787 C 0.6327 0.99616 0.45641 0.0
C788 C 0.63941 0.01463 0.48137 0.0
C789 C 0.64588 0.98702 0.45261 0.0
C790 C 0.6583 0.02284 0.50558 0.0
C791 C 0.67109 0.01334 0.5033 0.0
H792 H 0.33395 0.09202 0.51753 0.0
H793 H 0.27557 0.06162 0.44331 0.0
H794 H 0.29663 0.07378 0.37727 0.0
H795 H 0.33173 0.09042 0.34039 0.0
H796 H 0.39007 0.11736 0.41467 0.0
H797 H 0.36906 0.10937 0.48061 0.0
C798 C 0.32579 0.08844 0.48692 0.0
C799 C 0.30309 0.07612 0.48556 0.0
C800 C 0.3381 0.09474 0.44895 0.0
C801 C 0.29292 0.07117 0.44545 0.0
C802 C 0.30501 0.07807 0.40762 0.0
C803 C 0.33991 0.09494 0.37096 0.0
C804 C 0.36257 0.10474 0.37236 0.0
C805 C 0.32762 0.08951 0.40892 0.0
C806 C 0.37275 0.10994 0.41247 0.0
C807 C 0.36069 0.10531 0.45025 0.0
H808 H 0.89903 0.24352 0.50768 0.0
H809 H 0.92944 0.21367 0.43952 0.0
H810 H 0.9181 0.22177 0.37147 0.0
H811 H 0.90218 0.24003 0.33095 0.0
H812 H 0.87511 0.27309 0.3992 0.0
H813 H 0.88231 0.26096 0.46722 0.0
C814 C 0.90281 0.23837 0.47798 0.0
C815 C 0.91491 0.22772 0.47896 0.0
C816 C 0.89695 0.24386 0.43879 0.0
C817 C 0.92008 0.22173 0.43993 0.0
C818 C 0.91364 0.22644 0.40092 0.0
C819 C 0.89744 0.24423 0.36067 0.0
C820 C 0.88784 0.25731 0.35973 0.0
C821 C 0.90242 0.23787 0.39987 0.0
C822 C 0.88237 0.26299 0.39877 0.0
C823 C 0.88656 0.25609 0.43776 0.0
H824 H 0.73079 0.6786 0.49215 0.0
H825 H 0.798 0.70025 0.47409 0.0
H826 H 0.78939 0.67705 0.41079 0.0
H827 H 0.76241 0.65091 0.35944 0.0
H828 H 0.69497 0.62746 0.38263 0.0
H829 H 0.70394 0.65065 0.4449 0.0
C830 C 0.74355 0.6783 0.47414 0.0
C831 C 0.76506 0.69148 0.48717 0.0
C832 C 0.73837 0.66437 0.43879 0.0
C833 C 0.78138 0.6905 0.46432 0.0
C834 C 0.77641 0.67716 0.42822 0.0
C835 C 0.74965 0.65067 0.37839 0.0
C836 C 0.72795 0.63725 0.36589 0.0
C837 C 0.75492 0.66401 0.41499 0.0
C838 C 0.71176 0.6373 0.39123 0.0
C839 C 0.71688 0.65076 0.42687 0.0
H840 H 0.07157 0.31972 0.18409 0.0
H841 H 0.10638 0.3796 0.11538 0.0
H842 H 0.09817 0.35986 0.04765 0.0
H843 H 0.07942 0.3256 1.00753 0.0
H844 H 0.04144 0.26616 0.07617 0.0
H845 H 0.05255 0.28559 0.14406 0.0
C846 C 0.0776 0.32846 0.15432 0.0
C847 C 0.08984 0.35117 0.15496 0.0
C848 C 0.07213 0.317 0.11536 0.0
C849 C 0.09703 0.36219 0.11592 0.0
C850 C 0.09232 0.35087 0.07716 0.0
C851 C 0.07388 0.31682 0.03736 0.0
C852 C 0.05984 0.29428 0.03654 0.0
C853 C 0.07969 0.32827 0.0764 0.0
C854 C 0.05237 0.28337 0.07565 0.0
C855 C 0.05868 0.29453 0.11456 0.0
H856 H 0.67361 0.75951 0.18694 0.0
H857 H 0.61313 0.73037 0.11958 0.0
H858 H 0.63224 0.74138 0.05132 0.0
H859 H 0.66606 0.7566 1.01032 0.0
H860 H 0.72648 0.78287 0.07742 0.0
H861 H 0.70758 0.77582 0.14579 0.0
C862 C 0.66459 0.75596 0.15737 0.0
C863 C 0.64185 0.74428 0.15865 0.0
C864 C 0.67574 0.76166 0.11796 0.0
C865 C 0.63055 0.7394 0.11977 0.0
C866 C 0.64151 0.74564 0.08063 0.0
C867 C 0.67519 0.76116 0.03983 0.0
C868 C 0.69781 0.77044 0.03839 0.0
C869 C 0.6641 0.7564 0.07923 0.0
C870 C 0.70916 0.77578 0.07727 0.0
C871 C 0.69831 0.7717 0.1165 0.0
H872 H 0.24094 0.9129 0.18307 0.0
H873 H 0.27338 0.88471 0.1163 0.0
H874 H 0.26165 0.89191 0.04785 0.0
H875 H 0.24433 0.90847 1.0066 0.0
H876 H 0.21482 0.93968 0.07314 0.0
H877 H 0.22305 0.92893 0.14174 0.0
C878 C 0.24518 0.90801 0.15359 0.0
C879 C 0.25794 0.89808 0.15506 0.0
C880 C 0.23896 0.91287 0.11414 0.0
C881 C 0.26358 0.8923 0.11632 0.0
C882 C 0.25688 0.89646 0.07708 0.0
C883 C 0.23933 0.9126 0.03607 0.0
C884 C 0.22872 0.92472 0.03449 0.0
C885 C 0.24484 0.90703 0.07553 0.0
C886 C 0.22287 0.93031 0.07322 0.0
C887 C 0.22765 0.9242 0.11253 0.0
H888 H 0.66465 0.90307 0.69856 0.0
H889 H 0.60363 0.87939 0.63482 0.0
H890 H 0.62172 0.88707 0.56537 0.0
H891 H 0.65526 0.90303 0.52264 0.0
H892 H 0.71635 0.92975 0.58721 0.0
H893 H 0.69791 0.91821 0.65609 0.0
C894 C 0.65519 0.89923 0.66952 0.0
C895 C 0.63266 0.89045 0.67222 0.0
C896 C 0.66582 0.90436 0.62963 0.0
C897 C 0.6209 0.88605 0.63398 0.0
C898 C 0.63128 0.8905 0.59415 0.0
C899 C 0.66453 0.90595 0.55172 0.0
C900 C 0.68725 0.91706 0.54953 0.0
C901 C 0.65378 0.89997 0.59154 0.0
C902 C 0.69894 0.92116 0.58777 0.0
C903 C 0.68836 0.91461 0.62725 0.0
H904 H 0.06849 0.77879 0.57354 0.0
H905 H 0.09877 0.75365 0.49087 0.0
H906 H 0.11105 0.74206 0.55267 0.0
H907 H 0.11072 0.73619 0.6307 0.0
H908 H 0.08287 0.76379 0.71348 0.0
H909 H 0.07246 0.77727 0.65178 0.0
C910 C 0.07808 0.77111 0.56906 0.0
C911 C 0.08253 0.76708 0.52734 0.0
C912 C 0.08549 0.7647 0.60502 0.0
C913 C 0.09513 0.75716 0.5224 0.0
C914 C 0.10208 0.75034 0.55786 0.0
C915 C 0.10267 0.74544 0.63524 0.0
C916 C 0.09754 0.74879 0.6769 0.0
C917 C 0.09699 0.75359 0.59938 0.0
C918 C 0.0872 0.76098 0.68198 0.0
C919 C 0.08107 0.76863 0.64658 0.0
H920 H 0.21413 0.28208 0.57813 0.0
H921 H 0.24202 0.33642 0.49218 0.0
H922 H 0.25419 0.36109 0.55239 0.0
H923 H 0.25899 0.36766 0.63007 0.0
H924 H 0.22851 0.31379 0.71654 0.0
H925 H 0.21532 0.28888 0.65626 0.0
C926 C 0.22264 0.2993 0.57262 0.0
C927 C 0.22712 0.30722 0.53038 0.0
C928 C 0.22929 0.31367 0.60774 0.0
C929 C 0.23811 0.3297 0.5241 0.0
C930 C 0.24525 0.34394 0.55865 0.0
C931 C 0.24924 0.35049 0.63568 0.0
C932 C 0.24486 0.3427 0.67793 0.0
C933 C 0.24122 0.33616 0.60068 0.0
C934 C 0.23205 0.32034 0.68446 0.0
C935 C 0.22457 0.30601 0.6499 0.0
H936 H 0.9047 0.66467 0.02625 0.0
H937 H 0.93382 0.72381 0.95408 0.0
H938 H 0.92205 0.70334 0.88734 0.0
H939 H 0.90604 0.6686 0.84918 0.0
H940 H 0.88035 0.60963 0.92148 0.0
H941 H 0.88807 0.62994 0.98817 0.0
C942 C 0.90809 0.67311 0.99596 0.0
C943 C 0.91992 0.69583 0.99535 0.0
C944 C 0.90203 0.66118 0.95757 0.0
C945 C 0.92464 0.7064 0.95562 0.0
C946 C 0.91797 0.69467 0.9174 0.0
C947 C 0.90178 0.66014 0.87951 0.0
C948 C 0.89241 0.63751 0.88014 0.0
C949 C 0.90701 0.67205 0.91791 0.0
C950 C 0.88748 0.62695 0.91989 0.0
C951 C 0.89193 0.6386 0.95811 0.0
H952 H 0.3252 0.23114 0.02885 0.0
H953 H 0.26671 0.21492 0.96098 0.0
H954 H 0.28635 0.22385 0.89307 0.0
H955 H 0.32079 0.23879 0.85334 0.0
H956 H 0.37966 0.25881 0.92279 0.0
H957 H 0.3593 0.24572 0.98951 0.0
C958 C 0.31659 0.22914 0.99918 0.0
C959 C 0.29432 0.22202 1.00023 0.0
C960 C 0.32818 0.23513 0.96042 0.0
C961 C 0.28371 0.22015 0.96132 0.0
C962 C 0.295 0.22534 0.92243 0.0
C963 C 0.3291 0.23988 0.88301 0.0
C964 C 0.35174 0.24945 0.88294 0.0
C965 C 0.31731 0.23316 0.92161 0.0
C966 C 0.3623 0.25136 0.92185 0.0
C967 C 0.35063 0.24393 0.96003 0.0
H968 H 0.73072 0.10483 0.91276 0.0
H969 H 0.75867 0.07881 0.82629 0.0
H970 H 0.77101 0.06618 0.88645 0.0
H971 H 0.77208 0.06037 0.96436 0.0
H972 H 0.74704 0.08922 0.05084 0.0
H973 H 0.73562 0.10279 0.99067 0.0
C974 C 0.73977 0.09668 0.90709 0.0
C975 C 0.74365 0.09282 0.86476 0.0
C976 C 0.74731 0.08974 0.94212 0.0
C977 C 0.75553 0.08225 0.85831 0.0
C978 C 0.76251 0.07483 0.89283 0.0
C979 C 0.76436 0.06984 0.96998 0.0
C980 C 0.76043 0.07366 1.01227 0.0
C981 C 0.75823 0.07816 0.93497 0.0
C982 C 0.75048 0.08612 0.01878 0.0
C983 C 0.74379 0.09382 0.98428 0.0
H984 H 0.01393 0.44212 0.68406 0.0
H985 H 0.03597 0.39663 0.70332 0.0
H986 H 0.01398 0.38308 0.76742 0.0
H987 H 0.98737 0.383 0.81738 0.0
H988 H 0.96728 0.43005 0.80274 0.0
H989 H 0.98934 0.44397 0.73783 0.0
C990 C 0.01414 0.42941 0.70252 0.0
C991 C 0.02677 0.4205 0.68841 0.0
C992 C 0.0015 0.42173 0.74012 0.0
C993 C 0.0267 0.40404 0.71316 0.0
C994 C 0.01394 0.3961 0.74985 0.0
C995 C 0.98777 0.39624 0.79978 0.0
C996 C 0.97536 0.4052 0.81428 0.0
C997 C 0.00106 0.4046 0.76338 0.0
C998 C 0.97646 0.42271 0.79189 0.0
C999 C 0.98914 0.4307 0.75484 0.0
H1000 H 0.59802 0.55665 0.79932 0.0
H1001 H 0.56568 0.57964 0.88174 0.0
H1002 H 0.55418 0.59204 0.82006 0.0
H1003 H 0.55485 0.59843 0.74218 0.0
H1004 H 0.58444 0.57274 0.65921 0.0
H1005 H 0.59518 0.55943 0.72084 0.0
C1006 C 0.58823 0.56412 0.80374 0.0
C1007 C 0.58286 0.56716 0.84547 0.0
C1008 C 0.58118 0.57094 0.76774 0.0
C1009 C 0.57003 0.57684 0.85025 0.0
C1010 C 0.5635 0.58413 0.81485 0.0
C1011 C 0.56344 0.58972 0.7376 0.0
C1012 C 0.56884 0.58673 0.69591 0.0
C1013 C 0.56921 0.58157 0.77339 0.0
C1014 C 0.57988 0.57522 0.69076 0.0
C1015 C 0.58618 0.56766 0.72612 0.0
H1016 H 0.41534 0.99718 0.85205 0.0
H1017 H 0.44557 0.0569 0.78172 0.0
H1018 H 0.43656 0.03692 0.71431 0.0
H1019 H 0.41814 0.00237 0.67505 0.0
H1020 H 0.38477 0.94293 0.74573 0.0
H1021 H 0.39701 0.96279 0.81301 0.0
C1022 C 0.42027 0.00587 0.822 0.0
C1023 C 0.43139 0.02861 0.82215 0.0
C1024 C 0.41433 0.99424 0.78328 0.0
C1025 C 0.43713 0.03948 0.78272 0.0
C1026 C 0.43193 0.02802 0.74411 0.0
C1027 C 0.41383 0.99374 0.70518 0.0
C1028 C 0.40073 0.97109 0.7052 0.0
C1029 C 0.42028 0.00539 0.74392 0.0
C1030 C 0.39488 0.96027 0.74466 0.0
C1031 C 0.40186 0.97166 0.78319 0.0
H1032 H 0.55514 0.95584 0.23898 0.0
H1033 H 0.57518 0.01002 0.15409 0.0
H1034 H 0.58753 0.03454 0.21458 0.0
H1035 H 0.59492 0.04123 0.292 0.0
H1036 H 0.57193 0.98708 0.37766 0.0
H1037 H 0.55858 0.96228 0.31723 0.0
C1038 C 0.5619 0.97296 0.23377 0.0
C1039 C 0.56416 0.98089 0.19167 0.0
C1040 C 0.56869 0.98719 0.26911 0.0
C1041 C 0.57297 0.00324 0.18588 0.0
C1042 C 0.58025 0.01742 0.22059 0.0
C1043 C 0.58678 0.024 0.29741 0.0
C1044 C 0.58455 0.01612 0.33945 0.0
C1045 C 0.57854 0.00967 0.26237 0.0
C1046 C 0.57378 0.99367 0.34576 0.0
C1047 C 0.56621 0.97942 0.31111 0.0
H1048 H 0.94993 0.55642 0.29853 0.0
H1049 H 0.00423 0.57829 0.38339 0.0
H1050 H 0.02864 0.58919 0.32248 0.0
H1051 H 0.03503 0.59465 0.24453 0.0
H1052 H 0.98051 0.57003 0.15957 0.0
H1053 H 0.95605 0.55805 0.22043 0.0
C1054 C 0.96707 0.56332 0.30365 0.0
C1055 C 0.97512 0.56654 0.3457 0.0
C1056 C 0.98114 0.56921 0.26821 0.0
C1057 C -0.00255 0.57542 0.35154 0.0
C1058 C 0.01151 0.58182 0.31662 0.0
C1059 C 0.0178 0.58642 0.23935 0.0
C1060 C 0.00975 0.58337 0.19729 0.0
C1061 C 0.00362 0.57909 0.27473 0.0
C1062 C 0.98728 0.57252 0.19139 0.0
C1063 C 0.9732 0.56574 0.2263 0.0
H1064 H 0.39361 0.43756 0.24632 0.0
H1065 H 0.41868 0.40783 0.16214 0.0
H1066 H 0.43233 0.39707 0.22317 0.0
H1067 H 0.43542 0.39412 0.3014 0.0
H1068 H 0.41302 0.42651 0.38514 0.0
H1069 H 0.40048 0.43825 0.32401 0.0
C1070 C 0.40226 0.42894 0.24135 0.0
C1071 C 0.40498 0.42349 0.19952 0.0
C1072 C 0.41062 0.42317 0.27678 0.0
C1073 C 0.41642 0.41241 0.19382 0.0
C1074 C 0.42418 0.40612 0.22883 0.0
C1075 C 0.42808 0.404 0.30624 0.0
C1076 C 0.4252 0.40929 0.34813 0.0
C1077 C 0.42115 0.41114 0.27059 0.0
C1078 C 0.41568 0.42223 0.35348 0.0
C1079 C 0.40831 0.42888 0.31841 0.0
H1080 H 0.34427 0.20591 0.1683 0.0
H1081 H 0.28011 0.15244 0.14949 0.0
H1082 H 0.29213 0.12725 0.16923 0.0
H1083 H 0.32059 0.12042 0.19382 0.0
H1084 H 0.38468 0.17389 0.21345 0.0
H1085 H 0.37292 0.19902 0.19166 0.0
C1086 C 0.333 0.18874 0.16818 0.0
C1087 C 0.31139 0.18105 0.15757 0.0
C1088 C 0.33993 0.17434 0.18008 0.0
C1089 C 0.29687 0.15877 0.15771 0.0
C1090 C 0.30369 0.14433 0.16907 0.0
C1091 C 0.33195 0.13757 0.19341 0.0
C1092 C 0.3534 0.14528 0.20537 0.0
C1093 C 0.32512 0.15195 0.18076 0.0
C1094 C 0.36801 0.16754 0.20447 0.0
C1095 C 0.36134 0.18195 0.19194 0.0
H1096 H 0.78605 0.13496 0.17431 0.0
H1097 H 0.83819 0.12161 0.16263 0.0
H1098 H 0.86424 0.1594 0.1758 0.0
H1099 H 0.87222 0.19626 0.19101 0.0
H1100 H 0.81996 0.2095 0.20197 0.0
H1101 H 0.79401 0.17177 0.18871 0.0
C1102 C 0.80311 0.14032 0.17466 0.0
C1103 C 0.81016 0.12552 0.16759 0.0
C1104 C 0.81801 0.16206 0.18213 0.0
C1105 C 0.83233 0.13271 0.16799 0.0
C1106 C 0.84725 0.15431 0.17554 0.0
C1107 C 0.85516 0.19087 0.19046 0.0
C1108 C 0.84805 0.20564 0.1975 0.0
C1109 C 0.84027 0.16913 0.1827 0.0
C1110 C 0.82588 0.19845 0.19663 0.0
C1111 C 0.811 0.17687 0.18907 0.0
H1112 H 0.80144 0.67813 0.20457 0.0
H1113 H 0.79087 0.61457 0.23194 0.0
H1114 H 0.8277 0.6258 0.2102 0.0
H1115 H 0.86249 0.6534 0.18063 0.0
H1116 H 0.87237 0.71669 0.15261 0.0
H1117 H 0.83614 0.70573 0.17699 0.0
C1118 C 0.80725 0.66678 0.20626 0.0
C1119 C 0.79348 0.64558 0.21981 0.0
C1120 C 0.82824 0.67321 0.19305 0.0
C1121 C 0.80121 0.63103 0.22163 0.0
C1122 C 0.82222 0.63739 0.20901 0.0
C1123 C 0.85666 0.66473 0.17974 0.0
C1124 C 0.87004 0.68576 0.16464 0.0
C1125 C 0.83578 0.65837 0.19405 0.0
C1126 C 0.86236 0.70036 0.16399 0.0
C1127 C 0.84166 0.69415 0.17803 0.0
H1128 H 0.16134 0.36512 0.31599 0.0
H1129 H 0.10551 0.30148 0.31135 0.0
H1130 H 0.12747 0.28589 0.33333 0.0
H1131 H 0.16191 0.29043 0.35615 0.0
H1132 H 0.21793 0.35386 0.36189 0.0
H1133 H 0.19633 0.36959 0.33724 0.0
C1134 C 0.15401 0.34782 0.31944 0.0
C1135 C 0.13183 0.33444 0.31216 0.0
C1136 C 0.16666 0.33902 0.33261 0.0
C1137 C 0.12253 0.31209 0.31686 0.0
C1138 C 0.13505 0.30318 0.32952 0.0
C1139 C 0.16946 0.30772 0.35213 0.0
C1140 C 0.19144 0.32102 0.36111 0.0
C1141 C 0.15703 0.31653 0.33796 0.0
C1142 C 0.201 0.34334 0.35534 0.0
C1143 C 0.18867 0.35229 0.34121 0.0
H1144 H 0.70119 0.86836 0.37576 0.0
H1145 H 0.63722 0.85977 0.37949 0.0
H1146 H 0.62227 0.82262 0.35536 0.0
H1147 H 0.62744 0.79281 0.33303 0.0
H1148 H 0.69141 0.8014 0.32925 0.0
H1149 H 0.70636 0.83854 0.35346 0.0
C1150 C 0.68396 0.85836 0.37143 0.0
C1151 C 0.67031 0.86677 0.37944 0.0
C1152 C 0.67552 0.83712 0.3574 0.0
C1153 C 0.64805 0.85364 0.37357 0.0
C1154 C 0.6395 0.83243 0.35972 0.0
C1155 C 0.64467 0.80281 0.33738 0.0
C1156 C 0.65832 0.7944 0.32932 0.0
C1157 C 0.65311 0.82405 0.35144 0.0
C1158 C 0.68058 0.80753 0.33521 0.0
C1159 C 0.68913 0.82873 0.3491 0.0
H1160 H 0.1282 0.83041 0.35604 0.0
H1161 H 0.13491 0.77385 0.35351 0.0
H1162 H 0.17256 0.7959 0.33219 0.0
H1163 H 0.20356 0.83123 0.31584 0.0
H1164 H 0.19693 0.88782 0.31932 0.0
H1165 H 0.15902 0.86563 0.33858 0.0
C1166 C 0.13787 0.82287 0.35078 0.0
C1167 C 0.12882 0.80054 0.35644 0.0
C1168 C 0.15943 0.83562 0.3387 0.0
C1169 C 0.14153 0.79102 0.34942 0.0
C1170 C 0.16304 0.80361 0.33723 0.0
C1171 C 0.19381 0.83872 0.32061 0.0
C1172 C 0.20302 0.86114 0.31623 0.0
C1173 C 0.17215 0.82592 0.33198 0.0
C1174 C 0.1902 0.8706 0.32255 0.0
C1175 C 0.16856 0.85793 0.33361 0.0
H1176 H 0.6281 0.82775 0.83657 0.0
H1177 H 0.69021 0.88549 0.82927 0.0
H1178 H 0.70776 0.86476 0.84742 0.0
H1179 H 0.70531 0.83047 0.86644 0.0
H1180 H 0.64317 0.77277 0.8741 0.0
H1181 H 0.62567 0.7934 0.85477 0.0
C1182 C 0.64549 0.83582 0.83877 0.0
C1183 C 0.65786 0.85812 0.83162 0.0
C1184 C 0.6554 0.82386 0.84945 0.0
C1185 C 0.68035 0.86833 0.83463 0.0
C1186 C 0.69037 0.8565 0.84507 0.0
C1187 C 0.68792 0.82238 0.86394 0.0
C1188 C 0.67552 0.80014 0.8718 0.0
C1189 C 0.67803 0.8343 0.85278 0.0
C1190 C 0.65305 0.78989 0.86827 0.0
C1191 C 0.64305 0.80166 0.85719 0.0
H1192 H 0.16207 0.79427 0.84278 0.0
H1193 H 0.10563 0.80108 0.84806 0.0
H1194 H 0.12811 0.83931 0.86442 0.0
H1195 H 0.16371 0.87073 0.87583 0.0
H1196 H 0.2202 0.86403 0.87027 0.0
H1197 H 0.19766 0.82562 0.85537 0.0
C1198 C 0.15466 0.80409 0.84762 0.0
C1199 C 0.13223 0.7949 0.84415 0.0
C1200 C 0.16766 0.82601 0.85684 0.0
C1201 C 0.12287 0.80781 0.85055 0.0
C1202 C 0.1357 0.82965 0.85985 0.0
C1203 C 0.17112 0.86088 0.87142 0.0
C1204 C 0.19359 0.87019 0.87401 0.0
C1205 C 0.15811 0.83891 0.86284 0.0
C1206 C 0.20294 0.85722 0.86835 0.0
C1207 C 0.19007 0.83529 0.85983 0.0
H1208 H 0.12481 0.33705 0.864 0.0
H1209 H 0.1119 0.27264 0.89121 0.0
H1210 H 0.14911 0.28326 0.8747 0.0
H1211 H 0.18516 0.31067 0.85142 0.0
H1212 H 0.19792 0.37495 0.82326 0.0
H1213 H 0.16089 0.3645 0.84108 0.0
C1214 C 0.13018 0.32538 0.86652 0.0
C1215 C 0.11567 0.30413 0.87876 0.0
C1216 C 0.15153 0.33152 0.85657 0.0
C1217 C 0.12279 0.28913 0.88174 0.0
C1218 C 0.14405 0.29516 0.87227 0.0
C1219 C 0.17982 0.32237 0.84912 0.0
C1220 C 0.19422 0.34351 0.83597 0.0
C1221 C 0.15852 0.31627 0.85939 0.0
C1222 C 0.18711 0.35853 0.83322 0.0
C1223 C 0.16596 0.3526 0.84347 0.0
H1224 H 0.87378 0.67807 0.69534 0.0
H1225 H 0.8202 0.6163 0.73086 0.0
H1226 H 0.79504 0.62722 0.70484 0.0
H1227 H 0.78818 0.65414 0.67129 0.0
H1228 H 0.84168 0.71601 0.63617 0.0
H1229 H 0.8669 0.70513 0.66228 0.0
C1230 C 0.8566 0.66708 0.69768 0.0
C1231 C 0.84888 0.64645 0.71504 0.0
C1232 C 0.84219 0.67338 0.68231 0.0
C1233 C 0.82657 0.63231 0.71764 0.0
C1234 C 0.81215 0.63849 0.70264 0.0
C1235 C 0.80536 0.66517 0.66908 0.0
C1236 C 0.81305 0.68578 0.6517 0.0
C1237 C 0.81977 0.65892 0.68463 0.0
C1238 C 0.83535 0.7 0.6494 0.0
C1239 C 0.84979 0.69384 0.66442 0.0
H1240 H 0.31366 0.19235 0.69748 0.0
H1241 H 0.37775 0.20497 0.72633 0.0
H1242 H 0.36858 0.16935 0.70051 0.0
H1243 H 0.34236 0.13455 0.66961 0.0
H1244 H 0.27826 0.12198 0.64083 0.0
H1245 H 0.2875 0.15765 0.66634 0.0
C1246 C 0.32556 0.18725 0.69832 0.0
C1247 C 0.34629 0.20123 0.71387 0.0
C1248 C 0.32025 0.1668 0.68312 0.0
C1249 C 0.36163 0.19447 0.71453 0.0
C1250 C 0.35643 0.17412 0.69967 0.0
C1251 C 0.33048 0.13969 0.66868 0.0
C1252 C 0.3097 0.12567 0.65334 0.0
C1253 C 0.33582 0.16018 0.68374 0.0
C1254 C 0.29441 0.13248 0.65253 0.0
C1255 C 0.29964 0.15287 0.6672 0.0
H1256 H 0.86541 0.16376 0.64836 0.0
H1257 H 0.85653 0.21903 0.64949 0.0
H1258 H 0.81935 0.19633 0.673 0.0
H1259 H 0.78976 0.16106 0.69393 0.0
H1260 H 0.79846 0.10568 0.69267 0.0
H1261 H 0.83559 0.12831 0.66852 0.0
C1262 C 0.85533 0.17085 0.65361 0.0
C1263 C 0.86368 0.19304 0.64725 0.0
C1264 C 0.83408 0.15775 0.66723 0.0
C1265 C 0.85045 0.20199 0.65416 0.0
C1266 C 0.82923 0.18904 0.66767 0.0
C1267 C 0.79977 0.15391 0.68847 0.0
C1268 C 0.79144 0.13175 0.69519 0.0
C1269 C 0.82095 0.16695 0.67448 0.0
C1270 C 0.80455 0.12272 0.68777 0.0
C1271 C 0.82574 0.13563 0.67395 0.0
H1272 H 0.98473 0.45573 0.53441 0.0
H1273 H 0.04914 0.50706 0.56078 0.0
H1274 H 0.03824 0.53371 0.54568 0.0
H1275 H 0.01062 0.54236 0.52213 0.0
H1276 H 0.94651 0.4906 0.49454 0.0
H1277 H 0.95716 0.46423 0.5127 0.0
C1278 C -0.00365 0.47274 0.53728 0.0
C1279 C 0.01768 0.47941 0.54866 0.0
C1280 C 0.99008 0.48792 0.52789 0.0
C1281 C 0.03258 0.50152 0.55206 0.0
C1282 C 0.02639 0.51677 0.54328 0.0
C1283 C -0.00099 0.52531 0.52009 0.0
C1284 C 0.97786 0.51847 0.50682 0.0
C1285 C 0.00524 0.51015 0.5306 0.0
C1286 C 0.96294 0.49632 0.50451 0.0
C1287 C 0.96898 0.4812 0.51499 0.0
H1288 H 0.49702 0.53639 0.54152 0.0
H1289 H 0.55288 0.52891 0.52931 0.0
H1290 H 0.52973 0.4906 0.5148 0.0
H1291 H 0.49385 0.45947 0.50548 0.0
H1292 H 0.43785 0.46671 0.51713 0.0
H1293 H 0.46096 0.50508 0.53207 0.0
C1294 C 0.50414 0.52638 0.53571 0.0
C1295 C 0.52662 0.53545 0.53649 0.0
C1296 C 0.49076 0.50442 0.52733 0.0
C1297 C 0.53561 0.5223 0.52886 0.0
C1298 C 0.5224 0.50041 0.52058 0.0
C1299 C 0.48665 0.46941 0.51133 0.0
C1300 C 0.46417 0.46029 0.51026 0.0
C1301 C 0.49998 0.49134 0.51973 0.0
C1302 C 0.45512 0.47338 0.51781 0.0
C1303 C 0.46831 0.49529 0.52633 0.0
H1304 H 0.52523 0.98355 0.5185 0.0
H1305 H 0.53584 0.04588 0.47942 0.0
H1306 H 0.49907 0.03551 0.49908 0.0
H1307 H 0.46393 0.00883 0.52729 0.0
H1308 H 0.45299 0.94635 0.56595 0.0
H1309 H 0.48992 0.95677 0.54688 0.0
C1310 C 0.51945 0.99481 0.51413 0.0
C1311 C 0.53321 0.01541 0.49749 0.0
C1312 C 0.49829 0.98879 0.52569 0.0
C1313 C 0.52555 0.02989 0.49215 0.0
C1314 C 0.50454 0.02401 0.50346 0.0
C1315 C 0.46966 -0.00246 0.53179 0.0
C1316 C 0.4558 0.9769 0.54806 0.0
C1317 C 0.4908 0.00354 0.52038 0.0
C1318 C 0.46339 0.96238 0.55348 0.0
C1319 C 0.48448 0.96829 0.5425 0.0
H1320 H 0.49981 0.04048 0.98297 0.0
H1321 H 0.4427 0.97772 0.98399 0.0
H1322 H 0.46431 0.96131 1.00346 0.0
H1323 H 0.4992 0.96498 0.02159 0.0
H1324 H 0.5562 0.02783 0.02164 0.0
H1325 H 0.53471 0.04411 1.00035 0.0
C1326 C 0.49207 0.02318 0.98722 0.0
C1327 C 0.46969 0.0103 0.98206 0.0
C1328 C 0.50453 0.01394 0.99878 0.0
C1329 C 0.4599 0.98796 0.9878 0.0
C1330 C 0.47224 0.97858 0.99899 0.0
C1331 C 0.50695 0.98225 0.01693 0.0
C1332 C 0.52924 0.99521 0.02325 0.0
C1333 C 0.49452 0.99146 1.00483 0.0
C1334 C 0.53905 0.01753 0.01704 0.0
C1335 C 0.52679 0.02683 1.00484 0.0
H1336 H 0.0292 0.53486 0.02574 0.0
H1337 H 0.96623 0.52873 0.02461 0.0
H1338 H 0.95065 0.49185 0.99787 0.0
H1339 H 0.95507 0.46131 0.97585 0.0
H1340 H 0.01835 0.46809 0.97719 0.0
H1341 H 0.03374 0.50499 1.00245 0.0
C1342 C 0.01204 0.52547 0.01982 0.0
C1343 C -0.00116 0.53443 0.02739 0.0
C1344 C 0.00331 0.50449 1.00422 0.0
C1345 C 0.97669 0.52212 0.01916 0.0
C1346 C 0.96781 0.50108 1.00381 0.0
C1347 C 0.97225 0.47094 0.98135 0.0
C1348 C 0.98556 0.46199 0.97471 0.0
C1349 C 0.98098 0.49211 0.99625 0.0
C1350 C 0.00776 0.4746 0.98209 0.0
C1351 C 0.01657 0.49568 0.99665 0.0
H1352 H 0.45421 0.49553 0.04231 0.0
H1353 H 0.46169 0.43963 0.03066 0.0
H1354 H 0.49969 0.46269 1.01349 0.0
H1355 H 0.53055 0.49844 1.00212 0.0
H1356 H 0.52354 0.55461 1.01336 0.0
H1357 H 0.48533 0.53159 0.03034 0.0
C1358 C 0.46416 0.48839 0.03605 0.0
C1359 C 0.45518 0.46591 0.0378 0.0
C1360 C 0.48596 0.50174 0.02611 0.0
C1361 C 0.46823 0.45688 0.02951 0.0
C1362 C 0.48994 0.47005 0.01969 0.0
C1363 C 0.52071 0.50571 1.00823 0.0
C1364 C 0.52984 0.5282 1.00655 0.0
C1365 C 0.49893 0.49246 0.01794 0.0
C1366 C 0.51685 0.53733 1.01448 0.0
C1367 C 0.49505 0.52419 0.02421 0.0
H1368 H 0.4453 0.06605 0.0928 0.0
H1369 H 0.43021 0.09376 0.98511 0.0
H1370 H 0.41708 0.11139 0.03379 0.0
H1371 H 0.40612 0.11541 0.1065 0.0
H1372 H 0.4226 0.08903 0.21438 0.0
H1373 H 0.43929 0.07463 0.16616 0.0
C1374 C 0.43949 0.07627 0.07994 0.0
C1375 C 0.43837 0.07824 0.03519 0.0
C1376 C 0.43213 0.08647 0.10822 0.0
C1377 C 0.4311 0.09179 0.0192 0.0
C1378 C 0.4235 0.1018 0.04712 0.0
C1379 C 0.41376 0.10686 0.11955 0.0
C1380 C 0.41296 0.10313 0.16402 0.0
C1381 C 0.42336 0.09873 0.09159 0.0
C1382 C 0.42305 0.0922 0.18045 0.0
C1383 C 0.43245 0.08383 0.15278 0.0
H1384 H 0.88322 0.29048 0.08975 0.0
H1385 H 0.90701 0.33177 0.19998 0.0
H1386 H 0.92231 0.36352 0.15331 0.0
H1387 H 0.93168 0.37933 0.08085 0.0
H1388 H 0.90581 0.33821 0.97072 0.0
H1389 H 0.88837 0.30663 0.01758 0.0
C1390 C 0.89147 0.30646 0.10361 0.0
C1391 C 0.89411 0.30873 0.1484 0.0
C1392 C 0.89997 0.32464 0.0765 0.0
C1393 C 0.90467 0.32953 0.1658 0.0
C1394 C 0.91354 0.34769 0.13902 0.0
C1395 C 0.92195 0.36348 0.06702 0.0
C1396 C 0.92046 0.36117 0.02208 0.0
C1397 C 0.91169 0.34542 0.09429 0.0
C1398 C 0.90749 0.34053 1.00496 0.0
C1399 C 0.89755 0.32243 0.03184 0.0
H1400 H 0.65525 0.5744 1.0152 0.0
H1401 H 0.60527 0.54532 0.11 0.0
H1402 H 0.63196 0.55383 0.16597 0.0
H1403 H 0.66986 0.57363 0.18985 0.0
H1404 H 0.71987 0.60411 0.09528 0.0
H1405 H 0.69324 0.59088 0.03832 0.0
C1406 C 0.65024 0.56938 0.04787 0.0
C1407 C 0.62826 0.55918 0.05824 0.0
C1408 C 0.66583 0.57493 0.08051 0.0
C1409 C 0.62209 0.55318 0.10105 0.0
C1410 C 0.63738 0.55815 0.13327 0.0
C1411 C 0.67493 0.57701 0.15678 0.0
C1412 C 0.69691 0.59012 0.1472 0.0
C1413 C 0.65937 0.56966 0.12372 0.0
C1414 C 0.70308 0.59428 0.10391 0.0
C1415 C 0.68782 0.58673 0.07106 0.0
H1416 H 0.08608 0.41312 0.33155 0.0
H1417 H 0.11495 0.39017 0.42301 0.0
H1418 H 0.10644 0.40731 0.48095 0.0
H1419 H 0.08692 0.42526 0.5074 0.0
H1420 H 0.05638 0.44658 0.41628 0.0
H1421 H 0.06937 0.43398 0.35747 0.0
C1422 C 0.09094 0.41232 0.36398 0.0
C1423 C 0.1011 0.40028 0.37274 0.0
C1424 C 0.08536 0.42173 0.39778 0.0
C1425 C 0.10706 0.39928 0.41523 0.0
C1426 C 0.10211 0.40901 0.44859 0.0
C1427 C 0.08345 0.42749 0.47468 0.0
C1428 C 0.07048 0.4367 0.4666 0.0
C1429 C 0.09064 0.41973 0.44057 0.0
C1430 C 0.06616 0.43938 0.42375 0.0
C1431 C 0.07357 0.43213 0.38986 0.0
H1432 H 0.55569 0.62089 0.43165 0.0
H1433 H 0.57476 0.66068 0.54427 0.0
H1434 H 0.59104 0.69303 0.49924 0.0
H1435 H 0.60303 0.70985 0.42772 0.0
H1436 H 0.58192 0.66998 0.31524 0.0
H1437 H 0.56303 0.63779 0.36024 0.0
C1438 C 0.56307 0.63665 0.44643 0.0
C1439 C 0.56437 0.6383 0.49148 0.0
C1440 C 0.57215 0.65514 0.42024 0.0
C1441 C 0.57371 0.65885 0.50991 0.0
C1442 C 0.5831 0.67737 0.48406 0.0
C1443 C 0.59399 0.69412 0.41303 0.0
C1444 C 0.59405 0.69231 0.36806 0.0
C1445 C 0.58295 0.6757 0.43921 0.0
C1446 C 0.5821 0.67186 0.34957 0.0
C1447 C 0.5714 0.65344 0.37539 0.0
H1448 H 0.37309 0.92713 0.43811 0.0
H1449 H 0.33069 0.90882 0.54688 0.0
H1450 H 0.29948 0.89296 0.49909 0.0
H1451 H 0.28448 0.88753 0.42612 0.0
H1452 H 0.32664 0.90359 0.31743 0.0
H1453 H 0.35772 0.91687 0.3654 0.0
C1454 C 0.357 0.91937 0.45144 0.0
C1455 C 0.35428 0.91954 0.49614 0.0
C1456 C 0.33912 0.91001 0.4237 0.0
C1457 C 0.33331 0.90912 0.51278 0.0
C1458 C 0.31545 0.9001 0.48537 0.0
C1459 C 0.30045 0.89362 0.41288 0.0
C1460 C 0.30324 0.89492 0.36807 0.0
C1461 C 0.31818 0.90095 0.44075 0.0
C1462 C 0.324 0.90256 0.35159 0.0
C1463 C 0.34179 0.91023 0.37911 0.0
H1464 H 0.57649 0.90101 0.85044 0.0
H1465 H 0.60499 0.88007 0.94676 0.0
H1466 H 0.59082 0.89295 1.00299 0.0
H1467 H 0.57488 0.91515 0.02493 0.0
H1468 H 0.54838 0.93803 0.92824 0.0
H1469 H 0.5569 0.91956 0.87299 0.0
C1470 C 0.57911 0.89879 0.8837 0.0
C1471 C 0.59194 0.88969 0.89416 0.0
C1472 C 0.57146 0.90695 0.91626 0.0
C1473 C 0.59526 0.88711 0.93765 0.0
C1474 C 0.58723 0.89458 0.97001 0.0
C1475 C 0.57038 0.91548 0.99198 0.0
C1476 C 0.56096 0.92793 0.98088 0.0
C1477 C 0.57596 0.90527 0.95979 0.0
C1478 C 0.55565 0.92856 0.93775 0.0
C1479 C 0.56061 0.91806 0.90595 0.0
H1480 H 0.05956 0.61911 0.93568 0.0
H1481 H 0.08199 0.6567 0.05098 0.0
H1482 H 0.09993 0.68976 1.00825 0.0
H1483 H 0.10531 0.70801 0.93831 0.0
H1484 H 0.08446 0.67028 0.82301 0.0
H1485 H 0.07007 0.63715 0.86547 0.0
C1486 C 0.06875 0.63452 0.95152 0.0
C1487 C 0.06897 0.63544 0.99663 0.0
C1488 C 0.07916 0.6534 0.92666 0.0
C1489 C 0.08126 0.65549 1.01651 0.0
C1490 C 0.09146 0.67442 0.99199 0.0
C1491 C 0.09799 0.69252 0.92242 0.0
C1492 C 0.09575 0.69158 0.8775 0.0
C1493 C 0.0899 0.67359 0.94711 0.0
C1494 C 0.08643 0.67146 0.85737 0.0
C1495 C 0.07808 0.65252 0.88174 0.0
H1496 H 0.28054 0.39518 0.93761 0.0
H1497 H 0.31913 0.41271 0.82322 0.0
H1498 H 0.3519 0.42989 0.86668 0.0
H1499 H 0.3694 0.43665 0.9373 0.0
H1500 H 0.33097 0.42048 0.05172 0.0
H1501 H 0.29827 0.40626 1.00814 0.0
C1502 C 0.29613 0.40305 0.92209 0.0
C1503 C 0.29734 0.40235 0.87708 0.0
C1504 C 0.31489 0.41301 0.94736 0.0
C1505 C 0.31767 0.41287 0.85762 0.0
C1506 C 0.33642 0.42263 0.88255 0.0
C1507 C 0.35389 0.43032 0.95279 0.0
C1508 C 0.35264 0.42932 0.99787 0.0
C1509 C 0.33521 0.4223 0.92745 0.0
C1510 C 0.33244 0.42134 0.01727 0.0
C1511 C 0.31372 0.41312 0.99227 0.0
H1512 H 0.88164 0.59564 0.61305 0.0
H1513 H 0.89911 0.57247 0.72474 0.0
H1514 H 0.91403 0.55543 0.67899 0.0
H1515 H 0.92538 0.5504 0.60752 0.0
H1516 H 0.90652 0.57216 0.49569 0.0
H1517 H 0.8886 0.58626 0.5412 0.0
C1518 C 0.88842 0.58657 0.62745 0.0
C1519 C 0.8896 0.58567 0.67242 0.0
C1520 C 0.89682 0.5767 0.60086 0.0
C1521 C 0.89813 0.57359 0.69041 0.0
C1522 C 0.90674 0.56391 0.66418 0.0
C1523 C 0.91705 0.55794 0.593 0.0
C1524 C 0.9176 0.56053 0.54817 0.0
C1525 C 0.90668 0.56586 0.61942 0.0
C1526 C 0.90647 0.57005 0.52995 0.0
C1527 C 0.89631 0.5782 0.55606 0.0
H1528 H 0.39456 0.28656 0.61748 0.0
H1529 H 0.41185 0.32625 0.7301 0.0
H1530 H 0.42879 0.35866 0.68524 0.0
H1531 H 0.4353 0.37544 0.61376 0.0
H1532 H 0.41917 0.33586 0.50113 0.0
H1533 H 0.40539 0.30361 0.54618 0.0
C1534 C 0.40235 0.30233 0.63226 0.0
C1535 C 0.40179 0.30399 0.67716 0.0
C1536 C 0.41213 0.32084 0.60619 0.0
C1537 C 0.41211 0.3245 0.69579 0.0
C1538 C 0.42167 0.34303 0.67005 0.0
C1539 C 0.42909 0.35977 0.59903 0.0
C1540 C 0.42805 0.35805 0.55402 0.0
C1541 C 0.42129 0.34136 0.62521 0.0
C1542 C 0.42018 0.33767 0.53552 0.0
C1543 C 0.41217 0.31922 0.56136 0.0
H1544 H 0.61858 0.06671 0.60046 0.0
H1545 H 0.65813 0.08642 0.48729 0.0
H1546 H 0.69051 0.10178 0.53193 0.0
H1547 H 0.70728 0.10597 0.60295 0.0
H1548 H 0.66784 0.0875 0.71615 0.0
H1549 H 0.63565 0.07554 0.6717 0.0
C1550 C 0.6343 0.0747 0.58546 0.0
C1551 C 0.63587 0.07499 0.54038 0.0
C1552 C 0.65282 0.08359 0.61142 0.0
C1553 C 0.65637 0.08571 0.52168 0.0
C1554 C 0.67491 0.09444 0.5473 0.0
C1555 C 0.69166 0.09967 0.61798 0.0
C1556 C 0.68994 0.09744 0.66291 0.0
C1557 C 0.67329 0.0929 0.59215 0.0
C1558 C 0.66964 0.08945 0.68183 0.0
C1559 C 0.65123 0.08247 0.65631 0.0
H1560 H 0.78082 0.73582 0.75295 0.0
H1561 H 0.75641 0.75446 0.64499 0.0
H1562 H 0.74152 0.77058 0.6934 0.0
H1563 H 0.73218 0.77584 0.76676 0.0
H1564 H 0.75836 0.75915 0.87463 0.0
H1565 H 0.77608 0.74603 0.82601 0.0
C1566 C 0.77256 0.74376 0.73995 0.0
C1567 C 0.76951 0.7437 0.6953 0.0
C1568 C 0.76426 0.7532 0.76806 0.0
C1569 C 0.75899 0.75425 0.67903 0.0
C1570 C 0.75037 0.76336 0.70681 0.0
C1571 C 0.74211 0.7697 0.77965 0.0
C1572 C 0.7437 0.76823 0.82442 0.0
C1573 C 0.75242 0.76242 0.7514 0.0
C1574 C 0.7568 0.76045 0.84051 0.0
C1575 C 0.76683 0.75283 0.81262 0.0
H1576 H 0.26131 0.04164 0.75237 0.0
H1577 H 0.24491 0.00024 0.64251 0.0
H1578 H 0.22896 0.96855 0.68948 0.0
H1579 H 0.22296 0.95298 0.76227 0.0
H1580 H 0.23801 0.99437 0.87187 0.0
H1581 H 0.25103 0.02574 0.82458 0.0
C1582 C 0.2539 0.02564 0.73863 0.0
C1583 C 0.25443 0.0233 0.69391 0.0
C1584 C 0.24469 0.00755 0.76589 0.0
C1585 C 0.24464 0.0025 0.67665 0.0
C1586 C 0.23567 0.9844 0.7036 0.0
C1587 C 0.22879 0.96885 0.77581 0.0
C1588 C 0.2297 0.97135 0.82069 0.0
C1589 C 0.23608 0.98677 0.74832 0.0
C1590 C 0.23709 0.99196 0.83763 0.0
C1591 C 0.24465 0.00991 0.81052 0.0
H1592 H 0.94516 0.2216 0.7491 0.0
H1593 H 0.98841 0.24105 0.64164 0.0
H1594 H 0.01899 0.25244 0.69052 0.0
H1595 H 0.0336 0.25987 0.76412 0.0
H1596 H 0.99015 0.23896 0.87141 0.0
H1597 H 0.95941 0.22488 0.82237 0.0
C1598 C 0.96127 0.22805 0.73632 0.0
C1599 C 0.96452 0.23062 0.69168 0.0
C1600 C 0.9787 0.23438 0.76468 0.0
C1601 C 0.98544 0.2388 0.67569 0.0
C1602 C 0.00293 0.24544 0.70373 0.0
C1603 C 0.01737 0.25192 0.7768 0.0
C1604 C 0.0142 0.25063 0.82153 0.0
C1605 C -0.00021 0.24374 0.7483 0.0
C1606 C 0.99308 0.24013 0.83732 0.0
C1607 C 0.9755 0.2322 0.8092 0.0
H1608 H 0.23531 0.22867 0.18562 0.0
H1609 H 0.2735 0.21604 0.27498 0.0
H1610 H 0.25861 0.22605 0.33434 0.0
H1611 H 0.23865 0.2434 0.36072 0.0
H1612 H 0.20144 0.25747 0.27199 0.0
H1613 H 0.2113 0.24148 0.21374 0.0
C1614 C 0.23994 0.22763 0.21813 0.0
C1615 C 0.25575 0.22186 0.22546 0.0
C1616 C 0.23144 0.23376 0.25277 0.0
C1617 C 0.26161 0.22072 0.26803 0.0
C1618 C 0.25306 0.22643 0.3023 0.0
C1619 C 0.23205 0.2422 0.32903 0.0
C1620 C 0.2192 0.25147 0.32089 0.0
C1621 C 0.23848 0.23366 0.29509 0.0
C1622 C 0.21122 0.25024 0.27922 0.0
C1623 C 0.21706 0.24131 0.24567 0.0
H1624 H 0.77495 0.03968 0.27535 0.0
H1625 H 0.75386 -0.00042 0.16314 0.0
H1626 H 0.73674 0.96739 0.20852 0.0
H1627 H 0.7249 0.95091 0.28023 0.0
H1628 H 0.74779 0.99097 0.3923 0.0
H1629 H 0.76729 0.02292 0.34692 0.0
C1630 C 0.7669 0.02388 0.26072 0.0
C1631 C 0.76535 0.02212 0.2157 0.0
C1632 C 0.75731 0.00546 0.2871 0.0
C1633 C 0.75514 0.00149 0.19748 0.0
C1634 C 0.74527 0.98307 0.22353 0.0
C1635 C 0.73443 0.96662 0.29475 0.0
C1636 C 0.73473 0.96857 0.33971 0.0
C1637 C 0.74578 0.98489 0.26836 0.0
C1638 C 0.74731 0.98899 0.35796 0.0
C1639 C 0.75836 0.00727 0.33193 0.0
H1640 H 0.04407 0.77447 0.26474 0.0
H1641 H 0.00484 0.7559 0.3782 0.0
H1642 H 0.97254 0.74387 0.33405 0.0
H1643 H 0.95532 0.7351 0.26284 0.0
H1644 H 0.9947 0.75498 0.14951 0.0
H1645 H 0.02719 0.77033 0.19391 0.0
C1646 C 0.02846 0.76813 0.27985 0.0
C1647 C 0.02681 0.7659 0.32474 0.0
C1648 C 0.01005 0.76138 0.25421 0.0
C1649 C 0.00655 0.75786 0.34387 0.0
C1650 C 0.98809 0.75085 0.31854 0.0
C1651 C 0.97104 0.74315 0.24785 0.0
C1652 C 0.97259 0.74368 0.20282 0.0
C1653 C 0.98961 0.75201 0.27366 0.0
C1654 C 0.99304 0.75434 0.18393 0.0
C1655 C 0.01161 0.76299 0.20938 0.0
loop_
_geom_bond_atom_site_label_1
_geom_bond_atom_site_label_2
_geom_bond_distance
_geom_bond_site_symmetry_2
_ccdc_geom_bond_type
Co0 O1 2.216 . S
Co0 O2 2.091 . S
Co0 O4 2.004 . S
Co0 O10 2.021 . S
Co0 O12 2.137 . S
Co0 O13 2.244 . S
O1 Co0 2.216 . S
O1 C8 1.247 . S
O2 Co0 2.091 . S
O2 C8 1.261 . S
C3 O12 1.247 . S
C3 O13 1.272 . S
O4 Co0 2.004 . S
O4 C9 1.259 . S
Co5 O6 2.061 . S
Co5 O11 2.052 . S
Co5 O13 2.135 . S
O6 Co5 2.061 . S
O6 C9 1.235 . S
C7 O10 1.238 . S
C7 O11 1.241 . S
C8 O1 1.247 . S
C8 O2 1.261 . S
C9 O4 1.259 . S
C9 O6 1.235 . S
O10 Co0 2.021 . S
O10 C7 1.238 . S
O11 Co5 2.052 . S
O11 C7 1.241 . S
O12 Co0 2.137 . S
O12 C3 1.247 . S
O13 Co0 2.244 . S
O13 C3 1.272 . S
O13 Co5 2.135 . S
Co14 O15 2.216 . S
Co14 O16 2.091 . S
Co14 O18 2.004 . S
Co14 O24 2.021 . S
Co14 O26 2.137 . S
Co14 O27 2.244 . S
O15 Co14 2.216 . S
O15 C22 1.247 . S
O16 Co14 2.091 . S
O16 C22 1.261 . S
C17 O26 1.247 . S
C17 O27 1.272 . S
O18 Co14 2.004 . S
O18 C23 1.259 . S
Co19 O20 2.061 . S
Co19 O25 2.052 . S
Co19 O27 2.135 . S
O20 Co19 2.061 . S
O20 C23 1.235 . S
C21 O24 1.238 . S
C21 O25 1.241 . S
C22 O15 1.247 . S
C22 O16 1.261 . S
C23 O18 1.259 . S
C23 O20 1.235 . S
O24 Co14 2.021 . S
O24 C21 1.238 . S
O25 Co19 2.052 . S
O25 C21 1.241 . S
O26 Co14 2.137 . S
O26 C17 1.247 . S
O27 Co14 2.244 . S
O27 C17 1.272 . S
O27 Co19 2.135 . S
Co28 O29 2.216 . S
Co28 O30 2.091 . S
Co28 O32 2.004 . S
Co28 O38 2.021 . S
Co28 O40 2.137 . S
Co28 O41 2.244 . S
O29 Co28 2.216 . S
O29 C36 1.247 . S
O30 Co28 2.091 . S
O30 C36 1.261 . S
C31 O40 1.247 . S
C31 O41 1.272 . S
O32 Co28 2.004 . S
O32 C37 1.259 . S
Co33 O34 2.061 . S
Co33 O39 2.052 . S
Co33 O41 2.135 . S
O34 Co33 2.061 . S
O34 C37 1.235 . S
C35 O38 1.238 . S
C35 O39 1.241 . S
C36 O29 1.247 . S
C36 O30 1.261 . S
C37 O32 1.259 . S
C37 O34 1.235 . S
O38 Co28 2.021 . S
O38 C35 1.238 . S
O39 Co33 2.052 . S
O39 C35 1.241 . S
O40 Co28 2.137 . S
O40 C31 1.247 . S
O41 Co28 2.244 . S
O41 C31 1.272 . S
O41 Co33 2.135 . S
Co42 O43 2.216 . S
Co42 O44 2.091 . S
Co42 O46 2.004 . S
Co42 O52 2.021 . S
Co42 O54 2.137 . S
Co42 O55 2.244 . S
O43 Co42 2.216 . S
O43 C50 1.247 . S
O44 Co42 2.091 . S
O44 C50 1.261 . S
C45 O54 1.247 . S
C45 O55 1.272 . S
O46 Co42 2.004 . S
O46 C51 1.259 . S
Co47 O48 2.061 . S
Co47 O53 2.052 . S
Co47 O55 2.135 . S
O48 Co47 2.061 . S
O48 C51 1.235 . S
C49 O52 1.238 . S
C49 O53 1.241 . S
C50 O43 1.247 . S
C50 O44 1.261 . S
C51 O46 1.259 . S
C51 O48 1.235 . S
O52 Co42 2.021 . S
O52 C49 1.238 . S
O53 Co47 2.052 . S
O53 C49 1.241 . S
O54 Co42 2.137 . S
O54 C45 1.247 . S
O55 Co42 2.244 . S
O55 C45 1.272 . S
O55 Co47 2.135 . S
Co56 O57 2.216 . S
Co56 O58 2.091 . S
Co56 O60 2.004 . S
Co56 O66 2.021 . S
Co56 O68 2.137 . S
Co56 O69 2.244 . S
O57 Co56 2.216 . S
O57 C64 1.247 . S
O58 Co56 2.091 . S
O58 C64 1.261 . S
C59 O68 1.247 . S
C59 O69 1.272 . S
O60 Co56 2.004 . S
O60 C65 1.259 . S
Co61 O62 2.061 . S
Co61 O67 2.052 . S
Co61 O69 2.135 . S
O62 Co61 2.061 . S
O62 C65 1.235 . S
C63 O66 1.238 . S
C63 O67 1.241 . S
C64 O57 1.247 . S
C64 O58 1.261 . S
C65 O60 1.259 . S
C65 O62 1.235 . S
O66 Co56 2.021 . S
O66 C63 1.238 . S
O67 Co61 2.052 . S
O67 C63 1.241 . S
O68 Co56 2.137 . S
O68 C59 1.247 . S
O69 Co56 2.244 . S
O69 C59 1.272 . S
O69 Co61 2.135 . S
Co70 O71 2.216 . S
Co70 O72 2.091 . S
Co70 O74 2.004 . S
Co70 O80 2.021 . S
Co70 O82 2.137 . S
Co70 O83 2.244 . S
O71 Co70 2.216 . S
O71 C78 1.247 . S
O72 Co70 2.091 . S
O72 C78 1.261 . S
C73 O82 1.247 . S
C73 O83 1.272 . S
O74 Co70 2.004 . S
O74 C79 1.259 . S
Co75 O76 2.061 . S
Co75 O81 2.052 . S
Co75 O83 2.135 . S
O76 Co75 2.061 . S
O76 C79 1.235 . S
C77 O80 1.238 . S
C77 O81 1.241 . S
C78 O71 1.247 . S
C78 O72 1.261 . S
C79 O74 1.259 . S
C79 O76 1.235 . S
O80 Co70 2.021 . S
O80 C77 1.238 . S
O81 Co75 2.052 . S
O81 C77 1.241 . S
O82 Co70 2.137 . S
O82 C73 1.247 . S
O83 Co70 2.244 . S
O83 C73 1.272 . S
O83 Co75 2.135 . S
Co84 O85 2.216 . S
Co84 O86 2.091 . S
Co84 O88 2.004 . S
Co84 O94 2.021 . S
Co84 O96 2.137 . S
Co84 O97 2.244 . S
O85 Co84 2.216 . S
O85 C92 1.247 . S
O86 Co84 2.091 . S
O86 C92 1.261 . S
C87 O96 1.247 . S
C87 O97 1.272 . S
O88 Co84 2.004 . S
O88 C93 1.259 . S
Co89 O90 2.061 . S
Co89 O95 2.052 . S
Co89 O97 2.135 . S
O90 Co89 2.061 . S
O90 C93 1.235 . S
C91 O94 1.238 . S
C91 O95 1.241 . S
C92 O85 1.247 . S
C92 O86 1.261 . S
C93 O88 1.259 . S
C93 O90 1.235 . S
O94 Co84 2.021 . S
O94 C91 1.238 . S
O95 Co89 2.052 . S
O95 C91 1.241 . S
O96 Co84 2.137 . S
O96 C87 1.247 . S
O97 Co84 2.244 . S
O97 C87 1.272 . S
O97 Co89 2.135 . S
Co98 O99 2.216 . S
Co98 O100 2.091 . S
Co98 O102 2.004 . S
Co98 O108 2.021 . S
Co98 O110 2.137 . S
Co98 O111 2.244 . S
O99 Co98 2.216 . S
O99 C106 1.247 . S
O100 Co98 2.091 . S
O100 C106 1.261 . S
C101 O110 1.247 . S
C101 O111 1.272 . S
O102 Co98 2.004 . S
O102 C107 1.259 . S
Co103 O104 2.061 . S
Co103 O109 2.052 . S
Co103 O111 2.135 . S
O104 Co103 2.061 . S
O104 C107 1.235 . S
C105 O108 1.238 . S
C105 O109 1.241 . S
C106 O99 1.247 . S
C106 O100 1.261 . S
C107 O102 1.259 . S
C107 O104 1.235 . S
O108 Co98 2.021 . S
O108 C105 1.238 . S
O109 Co103 2.052 . S
O109 C105 1.241 . S
O110 Co98 2.137 . S
O110 C101 1.247 . S
O111 Co98 2.244 . S
O111 C101 1.272 . S
O111 Co103 2.135 . S
Co112 O113 2.216 . S
Co112 O114 2.091 . S
Co112 O116 2.004 . S
Co112 O122 2.021 . S
Co112 O124 2.137 . S
Co112 O125 2.244 . S
O113 Co112 2.216 . S
O113 C120 1.247 . S
O114 Co112 2.091 . S
O114 C120 1.261 . S
C115 O124 1.247 . S
C115 O125 1.272 . S
O116 Co112 2.004 . S
O116 C121 1.259 . S
Co117 O118 2.061 . S
Co117 O123 2.052 . S
Co117 O125 2.135 . S
O118 Co117 2.061 . S
O118 C121 1.235 . S
C119 O122 1.238 . S
C119 O123 1.241 . S
C120 O113 1.247 . S
C120 O114 1.261 . S
C121 O116 1.259 . S
C121 O118 1.235 . S
O122 Co112 2.021 . S
O122 C119 1.238 . S
O123 Co117 2.052 . S
O123 C119 1.241 . S
O124 Co112 2.137 . S
O124 C115 1.247 . S
O125 Co112 2.244 . S
O125 C115 1.272 . S
O125 Co117 2.135 . S
Co126 O127 2.216 . S
Co126 O128 2.091 . S
Co126 O130 2.004 . S
Co126 O136 2.021 . S
Co126 O138 2.137 . S
Co126 O139 2.244 . S
O127 Co126 2.216 . S
O127 C134 1.247 . S
O128 Co126 2.091 . S
O128 C134 1.261 . S
C129 O138 1.247 . S
C129 O139 1.272 . S
O130 Co126 2.004 . S
O130 C135 1.259 . S
Co131 O132 2.061 . S
Co131 O137 2.052 . S
Co131 O139 2.135 . S
O132 Co131 2.061 . S
O132 C135 1.235 . S
C133 O136 1.238 . S
C133 O137 1.241 . S
C134 O127 1.247 . S
C134 O128 1.261 . S
C135 O130 1.259 . S
C135 O132 1.235 . S
O136 Co126 2.021 . S
O136 C133 1.238 . S
O137 Co131 2.052 . S
O137 C133 1.241 . S
O138 Co126 2.137 . S
O138 C129 1.247 . S
O139 Co126 2.244 . S
O139 C129 1.272 . S
O139 Co131 2.135 . S
Co140 O141 2.216 . S
Co140 O142 2.091 . S
Co140 O144 2.004 . S
Co140 O150 2.021 . S
Co140 O152 2.137 . S
Co140 O153 2.244 . S
O141 Co140 2.216 . S
O141 C148 1.247 . S
O142 Co140 2.091 . S
O142 C148 1.261 . S
C143 O152 1.247 . S
C143 O153 1.272 . S
O144 Co140 2.004 . S
O144 C149 1.259 . S
Co145 O146 2.061 . S
Co145 O151 2.052 . S
Co145 O153 2.135 . S
O146 Co145 2.061 . S
O146 C149 1.235 . S
C147 O150 1.238 . S
C147 O151 1.241 . S
C148 O141 1.247 . S
C148 O142 1.261 . S
C149 O144 1.259 . S
C149 O146 1.235 . S
O150 Co140 2.021 . S
O150 C147 1.238 . S
O151 Co145 2.052 . S
O151 C147 1.241 . S
O152 Co140 2.137 . S
O152 C143 1.247 . S
O153 Co140 2.244 . S
O153 C143 1.272 . S
O153 Co145 2.135 . S
Co154 O155 2.216 . S
Co154 O156 2.091 . S
Co154 O158 2.004 . S
Co154 O164 2.021 . S
Co154 O166 2.137 . S
Co154 O167 2.244 . S
O155 Co154 2.216 . S
O155 C162 1.247 . S
O156 Co154 2.091 . S
O156 C162 1.261 . S
C157 O166 1.247 . S
C157 O167 1.272 . S
O158 Co154 2.004 . S
O158 C163 1.259 . S
Co159 O160 2.061 . S
Co159 O165 2.052 . S
Co159 O167 2.135 . S
O160 Co159 2.061 . S
O160 C163 1.235 . S
C161 O164 1.238 . S
C161 O165 1.241 . S
C162 O155 1.247 . S
C162 O156 1.261 . S
C163 O158 1.259 . S
C163 O160 1.235 . S
O164 Co154 2.021 . S
O164 C161 1.238 . S
O165 Co159 2.052 . S
O165 C161 1.241 . S
O166 Co154 2.137 . S
O166 C157 1.247 . S
O167 Co154 2.244 . S
O167 C157 1.272 . S
O167 Co159 2.135 . S
Co168 O169 2.216 . S
Co168 O170 2.091 . S
Co168 O172 2.004 . S
Co168 O178 2.021 . S
Co168 O180 2.137 . S
Co168 O181 2.244 . S
O169 Co168 2.216 . S
O169 C176 1.247 . S
O170 Co168 2.091 . S
O170 C176 1.261 . S
C171 O180 1.247 . S
C171 O181 1.272 . S
O172 Co168 2.004 . S
O172 C177 1.259 . S
Co173 O174 2.061 . S
Co173 O179 2.052 . S
Co173 O181 2.135 . S
O174 Co173 2.061 . S
O174 C177 1.235 . S
C175 O178 1.238 . S
C175 O179 1.241 . S
C176 O169 1.247 . S
C176 O170 1.261 . S
C177 O172 1.259 . S
C177 O174 1.235 . S
O178 Co168 2.021 . S
O178 C175 1.238 . S
O179 Co173 2.052 . S
O179 C175 1.241 . S
O180 Co168 2.137 . S
O180 C171 1.247 . S
O181 Co168 2.244 . S
O181 C171 1.272 . S
O181 Co173 2.135 . S
Co182 O183 2.216 . S
Co182 O184 2.091 . S
Co182 O186 2.004 . S
Co182 O192 2.021 . S
Co182 O194 2.137 . S
Co182 O195 2.244 . S
O183 Co182 2.216 . S
O183 C190 1.247 . S
O184 Co182 2.091 . S
O184 C190 1.261 . S
C185 O194 1.247 . S
C185 O195 1.272 . S
O186 Co182 2.004 . S
O186 C191 1.259 . S
Co187 O188 2.061 . S
Co187 O193 2.052 . S
Co187 O195 2.135 . S
O188 Co187 2.061 . S
O188 C191 1.235 . S
C189 O192 1.238 . S
C189 O193 1.241 . S
C190 O183 1.247 . S
C190 O184 1.261 . S
C191 O186 1.259 . S
C191 O188 1.235 . S
O192 Co182 2.021 . S
O192 C189 1.238 . S
O193 Co187 2.052 . S
O193 C189 1.241 . S
O194 Co182 2.137 . S
O194 C185 1.247 . S
O195 Co182 2.244 . S
O195 C185 1.272 . S
O195 Co187 2.135 . S
Co196 O197 2.216 . S
Co196 O198 2.091 . S
Co196 O200 2.004 . S
Co196 O206 2.021 . S
Co196 O208 2.137 . S
Co196 O209 2.244 . S
O197 Co196 2.216 . S
O197 C204 1.247 . S
O198 Co196 2.091 . S
O198 C204 1.261 . S
C199 O208 1.247 . S
C199 O209 1.272 . S
O200 Co196 2.004 . S
O200 C205 1.259 . S
Co201 O202 2.061 . S
Co201 O207 2.052 . S
Co201 O209 2.135 . S
O202 Co201 2.061 . S
O202 C205 1.235 . S
C203 O206 1.238 . S
C203 O207 1.241 . S
C204 O197 1.247 . S
C204 O198 1.261 . S
C205 O200 1.259 . S
C205 O202 1.235 . S
O206 Co196 2.021 . S
O206 C203 1.238 . S
O207 Co201 2.052 . S
O207 C203 1.241 . S
O208 Co196 2.137 . S
O208 C199 1.247 . S
O209 Co196 2.244 . S
O209 C199 1.272 . S
O209 Co201 2.135 . S
Co210 O211 2.216 . S
Co210 O212 2.091 . S
Co210 O214 2.004 . S
Co210 O220 2.021 . S
Co210 O222 2.137 . S
Co210 O223 2.244 . S
O211 Co210 2.216 . S
O211 C218 1.247 . S
O212 Co210 2.091 . S
O212 C218 1.261 . S
C213 O222 1.247 . S
C213 O223 1.272 . S
O214 Co210 2.004 . S
O214 C219 1.259 . S
Co215 O216 2.061 . S
Co215 O221 2.052 . S
Co215 O223 2.135 . S
O216 Co215 2.061 . S
O216 C219 1.235 . S
C217 O220 1.238 . S
C217 O221 1.241 . S
C218 O211 1.247 . S
C218 O212 1.261 . S
C219 O214 1.259 . S
C219 O216 1.235 . S
O220 Co210 2.021 . S
O220 C217 1.238 . S
O221 Co215 2.052 . S
O221 C217 1.241 . S
O222 Co210 2.137 . S
O222 C213 1.247 . S
O223 Co210 2.244 . S
O223 C213 1.272 . S
O223 Co215 2.135 . S
Co224 O225 2.216 . S
Co224 O226 2.091 . S
Co224 O228 2.004 . S
Co224 O234 2.021 . S
Co224 O236 2.137 . S
Co224 O237 2.244 . S
O225 Co224 2.216 . S
O225 C232 1.247 . S
O226 Co224 2.091 . S
O226 C232 1.261 . S
C227 O236 1.247 . S
C227 O237 1.272 . S
O228 Co224 2.004 . S
O228 C233 1.259 . S
Co229 O230 2.061 . S
Co229 O235 2.052 . S
Co229 O237 2.135 . S
O230 Co229 2.061 . S
O230 C233 1.235 . S
C231 O234 1.238 . S
C231 O235 1.241 . S
C232 O225 1.247 . S
C232 O226 1.261 . S
C233 O228 1.259 . S
C233 O230 1.235 . S
O234 Co224 2.021 . S
O234 C231 1.238 . S
O235 Co229 2.052 . S
O235 C231 1.241 . S
O236 Co224 2.137 . S
O236 C227 1.247 . S
O237 Co224 2.244 . S
O237 C227 1.272 . S
O237 Co229 2.135 . S
Co238 O239 2.216 . S
Co238 O240 2.091 . S
Co238 O242 2.004 . S
Co238 O248 2.021 . S
Co238 O250 2.137 . S
Co238 O251 2.244 . S
O239 Co238 2.216 . S
O239 C246 1.247 . S
O240 Co238 2.091 . S
O240 C246 1.261 . S
C241 O250 1.247 . S
C241 O251 1.272 . S
O242 Co238 2.004 . S
O242 C247 1.259 . S
Co243 O244 2.061 . S
Co243 O249 2.052 . S
Co243 O251 2.135 . S
O244 Co243 2.061 . S
O244 C247 1.235 . S
C245 O248 1.238 . S
C245 O249 1.241 . S
C246 O239 1.247 . S
C246 O240 1.261 . S
C247 O242 1.259 . S
C247 O244 1.235 . S
O248 Co238 2.021 . S
O248 C245 1.238 . S
O249 Co243 2.052 . S
O249 C245 1.241 . S
O250 Co238 2.137 . S
O250 C241 1.247 . S
O251 Co238 2.244 . S
O251 C241 1.272 . S
O251 Co243 2.135 . S
Co252 O253 2.216 . S
Co252 O254 2.091 . S
Co252 O256 2.004 . S
Co252 O262 2.021 . S
Co252 O264 2.137 . S
Co252 O265 2.244 . S
O253 Co252 2.216 . S
O253 C260 1.247 . S
O254 Co252 2.091 . S
O254 C260 1.261 . S
C255 O264 1.247 . S
C255 O265 1.272 . S
O256 Co252 2.004 . S
O256 C261 1.259 . S
Co257 O258 2.061 . S
Co257 O263 2.052 . S
Co257 O265 2.135 . S
O258 Co257 2.061 . S
O258 C261 1.235 . S
C259 O262 1.238 . S
C259 O263 1.241 . S
C260 O253 1.247 . S
C260 O254 1.261 . S
C261 O256 1.259 . S
C261 O258 1.235 . S
O262 Co252 2.021 . S
O262 C259 1.238 . S
O263 Co257 2.052 . S
O263 C259 1.241 . S
O264 Co252 2.137 . S
O264 C255 1.247 . S
O265 Co252 2.244 . S
O265 C255 1.272 . S
O265 Co257 2.135 . S
Co266 O267 2.216 . S
Co266 O268 2.091 . S
Co266 O270 2.004 . S
Co266 O276 2.021 . S
Co266 O278 2.137 . S
Co266 O279 2.244 . S
O267 Co266 2.216 . S
O267 C274 1.247 . S
O268 Co266 2.091 . S
O268 C274 1.261 . S
C269 O278 1.247 . S
C269 O279 1.272 . S
O270 Co266 2.004 . S
O270 C275 1.259 . S
Co271 O272 2.061 . S
Co271 O277 2.052 . S
Co271 O279 2.135 . S
O272 Co271 2.061 . S
O272 C275 1.235 . S
C273 O276 1.238 . S
C273 O277 1.241 . S
C274 O267 1.247 . S
C274 O268 1.261 . S
C275 O270 1.259 . S
C275 O272 1.235 . S
O276 Co266 2.021 . S
O276 C273 1.238 . S
O277 Co271 2.052 . S
O277 C273 1.241 . S
O278 Co266 2.137 . S
O278 C269 1.247 . S
O279 Co266 2.244 . S
O279 C269 1.272 . S
O279 Co271 2.135 . S
Co280 O281 2.216 . S
Co280 O282 2.091 . S
Co280 O284 2.004 . S
Co280 O290 2.021 . S
Co280 O292 2.137 . S
Co280 O293 2.244 . S
O281 Co280 2.216 . S
O281 C288 1.247 . S
O282 Co280 2.091 . S
O282 C288 1.261 . S
C283 O292 1.247 . S
C283 O293 1.272 . S
O284 Co280 2.004 . S
O284 C289 1.259 . S
Co285 O286 2.061 . S
Co285 O291 2.052 . S
Co285 O293 2.135 . S
O286 Co285 2.061 . S
O286 C289 1.235 . S
C287 O290 1.238 . S
C287 O291 1.241 . S
C288 O281 1.247 . S
C288 O282 1.261 . S
C289 O284 1.259 . S
C289 O286 1.235 . S
O290 Co280 2.021 . S
O290 C287 1.238 . S
O291 Co285 2.052 . S
O291 C287 1.241 . S
O292 Co280 2.137 . S
O292 C283 1.247 . S
O293 Co280 2.244 . S
O293 C283 1.272 . S
O293 Co285 2.135 . S
Co294 O295 2.216 . S
Co294 O296 2.091 . S
Co294 O298 2.004 . S
Co294 O304 2.021 . S
Co294 O306 2.137 . S
Co294 O307 2.244 . S
O295 Co294 2.216 . S
O295 C302 1.247 . S
O296 Co294 2.091 . S
O296 C302 1.261 . S
C297 O306 1.247 . S
C297 O307 1.272 . S
O298 Co294 2.004 . S
O298 C303 1.259 . S
Co299 O300 2.061 . S
Co299 O305 2.052 . S
Co299 O307 2.135 . S
O300 Co299 2.061 . S
O300 C303 1.235 . S
C301 O304 1.238 . S
C301 O305 1.241 . S
C302 O295 1.247 . S
C302 O296 1.261 . S
C303 O298 1.259 . S
C303 O300 1.235 . S
O304 Co294 2.021 . S
O304 C301 1.238 . S
O305 Co299 2.052 . S
O305 C301 1.241 . S
O306 Co294 2.137 . S
O306 C297 1.247 . S
O307 Co294 2.244 . S
O307 C297 1.272 . S
O307 Co299 2.135 . S
Co308 O309 2.216 . S
Co308 O310 2.091 . S
Co308 O312 2.004 . S
Co308 O318 2.021 . S
Co308 O320 2.137 . S
Co308 O321 2.244 . S
O309 Co308 2.216 . S
O309 C316 1.247 . S
O310 Co308 2.091 . S
O310 C316 1.261 . S
C311 O320 1.247 . S
C311 O321 1.272 . S
O312 Co308 2.004 . S
O312 C317 1.259 . S
Co313 O314 2.061 . S
Co313 O319 2.052 . S
Co313 O321 2.135 . S
O314 Co313 2.061 . S
O314 C317 1.235 . S
C315 O318 1.238 . S
C315 O319 1.241 . S
C316 O309 1.247 . S
C316 O310 1.261 . S
C317 O312 1.259 . S
C317 O314 1.235 . S
O318 Co308 2.021 . S
O318 C315 1.238 . S
O319 Co313 2.052 . S
O319 C315 1.241 . S
O320 Co308 2.137 . S
O320 C311 1.247 . S
O321 Co308 2.244 . S
O321 C311 1.272 . S
O321 Co313 2.135 . S
Co322 O323 2.216 . S
Co322 O324 2.091 . S
Co322 O326 2.004 . S
Co322 O332 2.021 . S
Co322 O334 2.137 . S
Co322 O335 2.244 . S
O323 Co322 2.216 . S
O323 C330 1.247 . S
O324 Co322 2.091 . S
O324 C330 1.261 . S
C325 O334 1.247 . S
C325 O335 1.272 . S
O326 Co322 2.004 . S
O326 C331 1.259 . S
Co327 O328 2.061 . S
Co327 O333 2.052 . S
Co327 O335 2.135 . S
O328 Co327 2.061 . S
O328 C331 1.235 . S
C329 O332 1.238 . S
C329 O333 1.241 . S
C330 O323 1.247 . S
C330 O324 1.261 . S
C331 O326 1.259 . S
C331 O328 1.235 . S
O332 Co322 2.021 . S
O332 C329 1.238 . S
O333 Co327 2.052 . S
O333 C329 1.241 . S
O334 Co322 2.137 . S
O334 C325 1.247 . S
O335 Co322 2.244 . S
O335 C325 1.272 . S
O335 Co327 2.135 . S
Co336 O337 2.216 . S
Co336 O338 2.091 . S
Co336 O340 2.004 . S
Co336 O346 2.021 . S
Co336 O348 2.137 . S
Co336 O349 2.244 . S
O337 Co336 2.216 . S
O337 C344 1.247 . S
O338 Co336 2.091 . S
O338 C344 1.261 . S
C339 O348 1.247 . S
C339 O349 1.272 . S
O340 Co336 2.004 . S
O340 C345 1.259 . S
Co341 O342 2.061 . S
Co341 O347 2.052 . S
Co341 O349 2.135 . S
O342 Co341 2.061 . S
O342 C345 1.235 . S
C343 O346 1.238 . S
C343 O347 1.241 . S
C344 O337 1.247 . S
C344 O338 1.261 . S
C345 O340 1.259 . S
C345 O342 1.235 . S
O346 Co336 2.021 . S
O346 C343 1.238 . S
O347 Co341 2.052 . S
O347 C343 1.241 . S
O348 Co336 2.137 . S
O348 C339 1.247 . S
O349 Co336 2.244 . S
O349 C339 1.272 . S
O349 Co341 2.135 . S
Co350 O351 2.216 . S
Co350 O352 2.091 . S
Co350 O354 2.004 . S
Co350 O360 2.021 . S
Co350 O362 2.137 . S
Co350 O363 2.244 . S
O351 Co350 2.216 . S
O351 C358 1.247 . S
O352 Co350 2.091 . S
O352 C358 1.261 . S
C353 O362 1.247 . S
C353 O363 1.272 . S
O354 Co350 2.004 . S
O354 C359 1.259 . S
Co355 O356 2.061 . S
Co355 O361 2.052 . S
Co355 O363 2.135 . S
O356 Co355 2.061 . S
O356 C359 1.235 . S
C357 O360 1.238 . S
C357 O361 1.241 . S
C358 O351 1.247 . S
C358 O352 1.261 . S
C359 O354 1.259 . S
C359 O356 1.235 . S
O360 Co350 2.021 . S
O360 C357 1.238 . S
O361 Co355 2.052 . S
O361 C357 1.241 . S
O362 Co350 2.137 . S
O362 C353 1.247 . S
O363 Co350 2.244 . S
O363 C353 1.272 . S
O363 Co355 2.135 . S
Co364 O365 2.216 . S
Co364 O366 2.091 . S
Co364 O368 2.004 . S
Co364 O374 2.021 . S
Co364 O376 2.137 . S
Co364 O377 2.244 . S
O365 Co364 2.216 . S
O365 C372 1.247 . S
O366 Co364 2.091 . S
O366 C372 1.261 . S
C367 O376 1.247 . S
C367 O377 1.272 . S
O368 Co364 2.004 . S
O368 C373 1.259 . S
Co369 O370 2.061 . S
Co369 O375 2.052 . S
Co369 O377 2.135 . S
O370 Co369 2.061 . S
O370 C373 1.235 . S
C371 O374 1.238 . S
C371 O375 1.241 . S
C372 O365 1.247 . S
C372 O366 1.261 . S
C373 O368 1.259 . S
C373 O370 1.235 . S
O374 Co364 2.021 . S
O374 C371 1.238 . S
O375 Co369 2.052 . S
O375 C371 1.241 . S
O376 Co364 2.137 . S
O376 C367 1.247 . S
O377 Co364 2.244 . S
O377 C367 1.272 . S
O377 Co369 2.135 . S
Co378 O379 2.216 . S
Co378 O380 2.091 . S
Co378 O382 2.004 . S
Co378 O388 2.021 . S
Co378 O390 2.137 . S
Co378 O391 2.244 . S
O379 Co378 2.216 . S
O379 C386 1.247 . S
O380 Co378 2.091 . S
O380 C386 1.261 . S
C381 O390 1.247 . S
C381 O391 1.272 . S
O382 Co378 2.004 . S
O382 C387 1.259 . S
Co383 O384 2.061 . S
Co383 O389 2.052 . S
Co383 O391 2.135 . S
O384 Co383 2.061 . S
O384 C387 1.235 . S
C385 O388 1.238 . S
C385 O389 1.241 . S
C386 O379 1.247 . S
C386 O380 1.261 . S
C387 O382 1.259 . S
C387 O384 1.235 . S
O388 Co378 2.021 . S
O388 C385 1.238 . S
O389 Co383 2.052 . S
O389 C385 1.241 . S
O390 Co378 2.137 . S
O390 C381 1.247 . S
O391 Co378 2.244 . S
O391 C381 1.272 . S
O391 Co383 2.135 . S
Co392 O393 2.216 . S
Co392 O394 2.091 . S
Co392 O396 2.004 . S
Co392 O402 2.021 . S
Co392 O404 2.137 . S
Co392 O405 2.244 . S
O393 Co392 2.216 . S
O393 C400 1.247 . S
O394 Co392 2.091 . S
O394 C400 1.261 . S
C395 O404 1.247 . S
C395 O405 1.272 . S
O396 Co392 2.004 . S
O396 C401 1.259 . S
Co397 O398 2.061 . S
Co397 O403 2.052 . S
Co397 O405 2.135 . S
O398 Co397 2.061 . S
O398 C401 1.235 . S
C399 O402 1.238 . S
C399 O403 1.241 . S
C400 O393 1.247 . S
C400 O394 1.261 . S
C401 O396 1.259 . S
C401 O398 1.235 . S
O402 Co392 2.021 . S
O402 C399 1.238 . S
O403 Co397 2.052 . S
O403 C399 1.241 . S
O404 Co392 2.137 . S
O404 C395 1.247 . S
O405 Co392 2.244 . S
O405 C395 1.272 . S
O405 Co397 2.135 . S
Co406 O407 2.216 . S
Co406 O408 2.091 . S
Co406 O410 2.004 . S
Co406 O416 2.021 . S
Co406 O418 2.137 . S
Co406 O419 2.244 . S
O407 Co406 2.216 . S
O407 C414 1.247 . S
O408 Co406 2.091 . S
O408 C414 1.261 . S
C409 O418 1.247 . S
C409 O419 1.272 . S
O410 Co406 2.004 . S
O410 C415 1.259 . S
Co411 O412 2.061 . S
Co411 O417 2.052 . S
Co411 O419 2.135 . S
O412 Co411 2.061 . S
O412 C415 1.235 . S
C413 O416 1.238 . S
C413 O417 1.241 . S
C414 O407 1.247 . S
C414 O408 1.261 . S
C415 O410 1.259 . S
C415 O412 1.235 . S
O416 Co406 2.021 . S
O416 C413 1.238 . S
O417 Co411 2.052 . S
O417 C413 1.241 . S
O418 Co406 2.137 . S
O418 C409 1.247 . S
O419 Co406 2.244 . S
O419 C409 1.272 . S
O419 Co411 2.135 . S
Co420 O421 2.216 . S
Co420 O422 2.091 . S
Co420 O424 2.004 . S
Co420 O430 2.021 . S
Co420 O432 2.137 . S
Co420 O433 2.244 . S
O421 Co420 2.216 . S
O421 C428 1.247 . S
O422 Co420 2.091 . S
O422 C428 1.261 . S
C423 O432 1.247 . S
C423 O433 1.272 . S
O424 Co420 2.004 . S
O424 C429 1.259 . S
Co425 O426 2.061 . S
Co425 O431 2.052 . S
Co425 O433 2.135 . S
O426 Co425 2.061 . S
O426 C429 1.235 . S
C427 O430 1.238 . S
C427 O431 1.241 . S
C428 O421 1.247 . S
C428 O422 1.261 . S
C429 O424 1.259 . S
C429 O426 1.235 . S
O430 Co420 2.021 . S
O430 C427 1.238 . S
O431 Co425 2.052 . S
O431 C427 1.241 . S
O432 Co420 2.137 . S
O432 C423 1.247 . S
O433 Co420 2.244 . S
O433 C423 1.272 . S
O433 Co425 2.135 . S
Co434 O435 2.216 . S
Co434 O436 2.091 . S
Co434 O438 2.004 . S
Co434 O444 2.021 . S
Co434 O446 2.137 . S
Co434 O447 2.244 . S
O435 Co434 2.216 . S
O435 C442 1.247 . S
O436 Co434 2.091 . S
O436 C442 1.261 . S
C437 O446 1.247 . S
C437 O447 1.272 . S
O438 Co434 2.004 . S
O438 C443 1.259 . S
Co439 O440 2.061 . S
Co439 O445 2.052 . S
Co439 O447 2.135 . S
O440 Co439 2.061 . S
O440 C443 1.235 . S
C441 O444 1.238 . S
C441 O445 1.241 . S
C442 O435 1.247 . S
C442 O436 1.261 . S
C443 O438 1.259 . S
C443 O440 1.235 . S
O444 Co434 2.021 . S
O444 C441 1.238 . S
O445 Co439 2.052 . S
O445 C441 1.241 . S
O446 Co434 2.137 . S
O446 C437 1.247 . S
O447 Co434 2.244 . S
O447 C437 1.272 . S
O447 Co439 2.135 . S
Co448 O449 2.216 . S
Co448 O450 2.091 . S
Co448 O452 2.004 . S
Co448 O458 2.021 . S
Co448 O460 2.137 . S
Co448 O461 2.244 . S
O449 Co448 2.216 . S
O449 C456 1.247 . S
O450 Co448 2.091 . S
O450 C456 1.261 . S
C451 O460 1.247 . S
C451 O461 1.272 . S
O452 Co448 2.004 . S
O452 C457 1.259 . S
Co453 O454 2.061 . S
Co453 O459 2.052 . S
Co453 O461 2.135 . S
O454 Co453 2.061 . S
O454 C457 1.235 . S
C455 O458 1.238 . S
C455 O459 1.241 . S
C456 O449 1.247 . S
C456 O450 1.261 . S
C457 O452 1.259 . S
C457 O454 1.235 . S
O458 Co448 2.021 . S
O458 C455 1.238 . S
O459 Co453 2.052 . S
O459 C455 1.241 . S
O460 Co448 2.137 . S
O460 C451 1.247 . S
O461 Co448 2.244 . S
O461 C451 1.272 . S
O461 Co453 2.135 . S
Co462 O463 2.216 . S
Co462 O464 2.091 . S
Co462 O466 2.004 . S
Co462 O472 2.021 . S
Co462 O474 2.137 . S
Co462 O475 2.244 . S
O463 Co462 2.216 . S
O463 C470 1.247 . S
O464 Co462 2.091 . S
O464 C470 1.261 . S
C465 O474 1.247 . S
C465 O475 1.272 . S
O466 Co462 2.004 . S
O466 C471 1.259 . S
Co467 O468 2.061 . S
Co467 O473 2.052 . S
Co467 O475 2.135 . S
O468 Co467 2.061 . S
O468 C471 1.235 . S
C469 O472 1.238 . S
C469 O473 1.241 . S
C470 O463 1.247 . S
C470 O464 1.261 . S
C471 O466 1.259 . S
C471 O468 1.235 . S
O472 Co462 2.021 . S
O472 C469 1.238 . S
O473 Co467 2.052 . S
O473 C469 1.241 . S
O474 Co462 2.137 . S
O474 C465 1.247 . S
O475 Co462 2.244 . S
O475 C465 1.272 . S
O475 Co467 2.135 . S
Co476 O477 2.216 . S
Co476 O478 2.091 . S
Co476 O480 2.004 . S
Co476 O486 2.021 . S
Co476 O488 2.137 . S
Co476 O489 2.244 . S
O477 Co476 2.216 . S
O477 C484 1.247 . S
O478 Co476 2.091 . S
O478 C484 1.261 . S
C479 O488 1.247 . S
C479 O489 1.272 . S
O480 Co476 2.004 . S
O480 C485 1.259 . S
Co481 O482 2.061 . S
Co481 O487 2.052 . S
Co481 O489 2.135 . S
O482 Co481 2.061 . S
O482 C485 1.235 . S
C483 O486 1.238 . S
C483 O487 1.241 . S
C484 O477 1.247 . S
C484 O478 1.261 . S
C485 O480 1.259 . S
C485 O482 1.235 . S
O486 Co476 2.021 . S
O486 C483 1.238 . S
O487 Co481 2.052 . S
O487 C483 1.241 . S
O488 Co476 2.137 . S
O488 C479 1.247 . S
O489 Co476 2.244 . S
O489 C479 1.272 . S
O489 Co481 2.135 . S
Co490 O491 2.216 . S
Co490 O492 2.091 . S
Co490 O494 2.004 . S
Co490 O500 2.021 . S
Co490 O502 2.137 . S
Co490 O503 2.244 . S
O491 Co490 2.216 . S
O491 C498 1.247 . S
O492 Co490 2.091 . S
O492 C498 1.261 . S
C493 O502 1.247 . S
C493 O503 1.272 . S
O494 Co490 2.004 . S
O494 C499 1.259 . S
Co495 O496 2.061 . S
Co495 O501 2.052 . S
Co495 O503 2.135 . S
O496 Co495 2.061 . S
O496 C499 1.235 . S
C497 O500 1.238 . S
C497 O501 1.241 . S
C498 O491 1.247 . S
C498 O492 1.261 . S
C499 O494 1.259 . S
C499 O496 1.235 . S
O500 Co490 2.021 . S
O500 C497 1.238 . S
O501 Co495 2.052 . S
O501 C497 1.241 . S
O502 Co490 2.137 . S
O502 C493 1.247 . S
O503 Co490 2.244 . S
O503 C493 1.272 . S
O503 Co495 2.135 . S
H504 C510 0.930 . S
H505 C513 0.930 . S
H506 C514 0.930 . S
H507 C515 0.930 . S
H508 C518 0.930 . S
H509 C519 0.930 . S
C510 H504 0.930 . S
C510 C511 1.355 . S
C510 C512 1.415 . S
C511 C510 1.355 . S
C511 C513 1.419 . S
C512 C510 1.415 . S
C512 C517 1.425 1_565 S
C512 C519 1.409 1_565 S
C513 H505 0.930 . S
C513 C511 1.419 . S
C513 C514 1.362 . S
C514 H506 0.930 . S
C514 C513 1.362 . S
C514 C517 1.409 1_565 S
C515 H507 0.930 . S
C515 C516 1.355 . S
C515 C517 1.415 . S
C516 C515 1.355 . S
C516 C518 1.419 . S
C517 C512 1.425 1_545 S
C517 C514 1.409 1_545 S
C517 C515 1.415 . S
C518 H508 0.930 . S
C518 C516 1.419 . S
C518 C519 1.362 . S
C519 H509 0.930 . S
C519 C512 1.409 1_545 S
C519 C518 1.362 . S
H520 C526 0.930 . S
H521 C529 0.930 . S
H522 C530 0.930 . S
H523 C531 0.930 . S
H524 C534 0.930 . S
H525 C535 0.930 . S
C526 H520 0.930 . S
C526 C527 1.355 . S
C526 C528 1.415 . S
C527 C526 1.355 . S
C527 C529 1.419 . S
C528 C526 1.415 . S
C528 C533 1.425 1_455 S
C528 C535 1.409 1_455 S
C529 H521 0.930 . S
C529 C527 1.419 . S
C529 C530 1.362 . S
C530 H522 0.930 . S
C530 C529 1.362 . S
C530 C533 1.409 1_455 S
C531 H523 0.930 . S
C531 C532 1.355 . S
C531 C533 1.415 . S
C532 C531 1.355 . S
C532 C534 1.419 . S
C533 C528 1.425 1_655 S
C533 C530 1.409 1_655 S
C533 C531 1.415 . S
C534 H524 0.930 . S
C534 C532 1.419 . S
C534 C535 1.362 . S
C535 H525 0.930 . S
C535 C528 1.409 1_655 S
C535 C534 1.362 . S
H536 C542 0.930 . S
H537 C545 0.930 . S
H538 C546 0.930 . S
H539 C547 0.930 . S
H540 C550 0.930 . S
H541 C551 0.930 . S
C542 H536 0.930 . S
C542 C543 1.355 . S
C542 C544 1.415 . S
C543 C542 1.355 . S
C543 C545 1.419 . S
C544 C542 1.415 . S
C544 C549 1.425 . S
C544 C551 1.409 . S
C545 H537 0.930 . S
C545 C543 1.419 . S
C545 C546 1.362 . S
C546 H538 0.930 . S
C546 C545 1.362 . S
C546 C549 1.409 . S
C547 H539 0.930 . S
C547 C548 1.355 . S
C547 C549 1.415 . S
C548 C547 1.355 . S
C548 C550 1.419 . S
C549 C544 1.425 . S
C549 C546 1.409 . S
C549 C547 1.415 . S
C550 H540 0.930 . S
C550 C548 1.419 . S
C550 C551 1.362 . S
C551 H541 0.930 . S
C551 C544 1.409 . S
C551 C550 1.362 . S
H552 C558 0.930 . S
H553 C561 0.930 . S
H554 C562 0.930 . S
H555 C563 0.930 . S
H556 C566 0.930 . S
H557 C567 0.930 . S
C558 H552 0.930 . S
C558 C559 1.355 . S
C558 C560 1.415 . S
C559 C558 1.355 . S
C559 C561 1.419 . S
C560 C558 1.415 . S
C560 C565 1.425 1_565 S
C560 C567 1.409 1_565 S
C561 H553 0.930 . S
C561 C559 1.419 . S
C561 C562 1.362 . S
C562 H554 0.930 . S
C562 C561 1.362 . S
C562 C565 1.409 1_565 S
C563 H555 0.930 . S
C563 C564 1.355 . S
C563 C565 1.415 . S
C564 C563 1.355 . S
C564 C566 1.419 . S
C565 C560 1.425 1_545 S
C565 C562 1.409 1_545 S
C565 C563 1.415 . S
C566 H556 0.930 . S
C566 C564 1.419 . S
C566 C567 1.362 . S
C567 H557 0.930 . S
C567 C560 1.409 1_545 S
C567 C566 1.362 . S
H568 C574 0.930 . S
H569 C577 0.930 . S
H570 C578 0.930 . S
H571 C579 0.930 . S
H572 C582 0.930 . S
H573 C583 0.930 . S
C574 H568 0.930 . S
C574 C575 1.355 . S
C574 C576 1.415 . S
C575 C574 1.355 . S
C575 C577 1.419 . S
C576 C574 1.415 . S
C576 C581 1.425 1_455 S
C576 C583 1.409 1_455 S
C577 H569 0.930 . S
C577 C575 1.419 . S
C577 C578 1.362 . S
C578 H570 0.930 . S
C578 C577 1.362 . S
C578 C581 1.409 1_455 S
C579 H571 0.930 . S
C579 C580 1.355 . S
C579 C581 1.415 . S
C580 C579 1.355 . S
C580 C582 1.419 . S
C581 C576 1.425 1_655 S
C581 C578 1.409 1_655 S
C581 C579 1.415 . S
C582 H572 0.930 . S
C582 C580 1.419 . S
C582 C583 1.362 . S
C583 H573 0.930 . S
C583 C576 1.409 1_655 S
C583 C582 1.362 . S
H584 C590 0.930 . S
H585 C593 0.930 . S
H586 C594 0.930 . S
H587 C595 0.930 . S
H588 C598 0.930 . S
H589 C599 0.930 . S
C590 H584 0.930 . S
C590 C591 1.355 . S
C590 C592 1.415 . S
C591 C590 1.355 . S
C591 C593 1.419 . S
C592 C590 1.415 . S
C592 C597 1.425 . S
C592 C599 1.409 . S
C593 H585 0.930 . S
C593 C591 1.419 . S
C593 C594 1.362 . S
C594 H586 0.930 . S
C594 C593 1.362 . S
C594 C597 1.409 . S
C595 H587 0.930 . S
C595 C596 1.355 . S
C595 C597 1.415 . S
C596 C595 1.355 . S
C596 C598 1.419 . S
C597 C592 1.425 . S
C597 C594 1.409 . S
C597 C595 1.415 . S
C598 H588 0.930 . S
C598 C596 1.419 . S
C598 C599 1.362 . S
C599 H589 0.930 . S
C599 C592 1.409 . S
C599 C598 1.362 . S
H600 C606 0.930 1_455 S
H601 C609 0.935 1_455 S
H602 C610 0.930 . S
H603 C611 0.930 . S
H604 C614 0.930 . S
H605 C615 0.930 . S
C606 H600 0.930 1_655 S
C606 C607 1.354 1_655 S
C606 C608 1.414 . S
C607 C606 1.354 1_455 S
C607 C609 1.416 1_455 S
C608 C606 1.414 . S
C608 C613 1.425 . S
C608 C615 1.409 . S
C609 H601 0.935 1_655 S
C609 C607 1.416 1_655 S
C609 C610 1.364 . S
C610 H602 0.930 . S
C610 C609 1.364 . S
C610 C613 1.409 . S
C611 H603 0.930 . S
C611 C612 1.355 . S
C611 C613 1.415 . S
C612 C611 1.355 . S
C612 C614 1.419 . S
C613 C608 1.425 . S
C613 C610 1.409 . S
C613 C611 1.415 . S
C614 H604 0.930 . S
C614 C612 1.419 . S
C614 C615 1.362 . S
C615 H605 0.930 . S
C615 C608 1.409 . S
C615 C614 1.362 . S
H616 C622 0.930 . S
H617 C625 0.930 . S
H618 C626 0.930 . S
H619 C627 0.930 . S
H620 C630 0.930 . S
H621 C631 0.930 . S
C622 H616 0.930 . S
C622 C623 1.355 . S
C622 C624 1.415 . S
C623 C622 1.355 . S
C623 C625 1.419 . S
C624 C622 1.415 . S
C624 C629 1.425 . S
C624 C631 1.409 . S
C625 H617 0.930 . S
C625 C623 1.419 . S
C625 C626 1.362 . S
C626 H618 0.930 . S
C626 C625 1.362 . S
C626 C629 1.409 . S
C627 H619 0.930 . S
C627 C628 1.355 . S
C627 C629 1.415 . S
C628 C627 1.355 . S
C628 C630 1.419 . S
C629 C624 1.425 . S
C629 C626 1.409 . S
C629 C627 1.415 . S
C630 H620 0.930 . S
C630 C628 1.419 . S
C630 C631 1.362 . S
C631 H621 0.930 . S
C631 C624 1.409 . S
C631 C630 1.362 . S
H632 C638 0.930 . S
H633 C641 0.930 . S
H634 C642 0.930 . S
H635 C643 0.930 . S
H636 C646 0.930 . S
H637 C647 0.930 . S
C638 H632 0.930 . S
C638 C639 1.355 . S
C638 C640 1.415 . S
C639 C638 1.355 . S
C639 C641 1.419 . S
C640 C638 1.415 . S
C640 C645 1.425 . S
C640 C647 1.409 1_545 S
C641 H633 0.930 . S
C641 C639 1.419 . S
C641 C642 1.362 . S
C642 H634 0.930 . S
C642 C641 1.362 . S
C642 C645 1.409 . S
C643 H635 0.930 . S
C643 C644 1.355 1_545 S
C643 C645 1.415 . S
C644 C643 1.355 1_565 S
C644 C646 1.419 . S
C645 C640 1.425 . S
C645 C642 1.409 . S
C645 C643 1.415 . S
C646 H636 0.930 . S
C646 C644 1.419 . S
C646 C647 1.362 . S
C647 H637 0.930 . S
C647 C640 1.409 1_565 S
C647 C646 1.362 . S
H648 C654 0.930 . S
H649 C657 0.930 . S
H650 C658 0.930 . S
H651 C659 0.930 . S
H652 C662 0.930 . S
H653 C663 0.930 . S
C654 H648 0.930 . S
C654 C655 1.355 . S
C654 C656 1.415 . S
C655 C654 1.355 . S
C655 C657 1.419 . S
C656 C654 1.415 . S
C656 C661 1.425 . S
C656 C663 1.409 . S
C657 H649 0.930 . S
C657 C655 1.419 . S
C657 C658 1.362 . S
C658 H650 0.930 . S
C658 C657 1.362 . S
C658 C661 1.409 . S
C659 H651 0.930 . S
C659 C660 1.355 . S
C659 C661 1.415 . S
C660 C659 1.355 . S
C660 C662 1.419 . S
C661 C656 1.425 . S
C661 C658 1.409 . S
C661 C659 1.415 . S
C662 H652 0.930 . S
C662 C660 1.419 . S
C662 C663 1.362 . S
C663 H653 0.930 . S
C663 C656 1.409 . S
C663 C662 1.362 . S
H664 C670 0.930 . S
H665 C673 0.930 . S
H666 C674 0.930 . S
H667 C675 0.930 . S
H668 C678 0.930 . S
H669 C679 0.930 . S
C670 H664 0.930 . S
C670 C671 1.355 . S
C670 C672 1.415 1_565 S
C671 C670 1.355 . S
C671 C673 1.419 1_565 S
C672 C670 1.415 1_545 S
C672 C677 1.425 . S
C672 C679 1.409 1_545 S
C673 H665 0.930 . S
C673 C671 1.419 1_545 S
C673 C674 1.362 . S
C674 H666 0.930 . S
C674 C673 1.362 . S
C674 C677 1.409 . S
C675 H667 0.930 . S
C675 C676 1.355 . S
C675 C677 1.415 . S
C676 C675 1.355 . S
C676 C678 1.419 . S
C677 C672 1.425 . S
C677 C674 1.409 . S
C677 C675 1.415 . S
C678 H668 0.930 . S
C678 C676 1.419 . S
C678 C679 1.362 1_545 S
C679 H669 0.930 . S
C679 C672 1.409 1_565 S
C679 C678 1.362 1_565 S
H680 C686 0.930 . S
H681 C689 0.930 . S
H682 C690 0.930 . S
H683 C691 0.930 . S
H684 C694 0.930 . S
H685 C695 0.930 . S
C686 H680 0.930 . S
C686 C687 1.355 . S
C686 C688 1.415 . S
C687 C686 1.355 . S
C687 C689 1.419 . S
C688 C686 1.415 . S
C688 C693 1.425 . S
C688 C695 1.409 1_655 S
C689 H681 0.930 . S
C689 C687 1.419 . S
C689 C690 1.362 . S
C690 H682 0.930 . S
C690 C689 1.362 . S
C690 C693 1.409 . S
C691 H683 0.930 . S
C691 C692 1.355 1_655 S
C691 C693 1.415 . S
C692 C691 1.355 1_455 S
C692 C694 1.419 . S
C693 C688 1.425 . S
C693 C690 1.409 . S
C693 C691 1.415 . S
C694 H684 0.930 . S
C694 C692 1.419 . S
C694 C695 1.362 . S
C695 H685 0.930 . S
C695 C688 1.409 1_455 S
C695 C694 1.362 . S
H696 C702 0.930 . S
H697 C705 0.930 . S
H698 C706 0.930 . S
H699 C707 0.930 . S
H700 C710 0.930 . S
H701 C711 0.930 . S
C702 H696 0.930 . S
C702 C703 1.355 . S
C702 C704 1.415 . S
C703 C702 1.355 . S
C703 C705 1.419 . S
C704 C702 1.415 . S
C704 C709 1.425 . S
C704 C711 1.409 . S
C705 H697 0.930 . S
C705 C703 1.419 . S
C705 C706 1.362 . S
C706 H698 0.930 . S
C706 C705 1.362 . S
C706 C709 1.409 . S
C707 H699 0.930 . S
C707 C708 1.355 . S
C707 C709 1.415 . S
C708 C707 1.355 . S
C708 C710 1.419 . S
C709 C704 1.425 . S
C709 C706 1.409 . S
C709 C707 1.415 . S
C710 H700 0.930 . S
C710 C708 1.419 . S
C710 C711 1.362 . S
C711 H701 0.930 . S
C711 C704 1.409 . S
C711 C710 1.362 . S
H712 C718 0.930 . S
H713 C721 0.930 . S
H714 C722 0.930 . S
H715 C723 0.930 . S
H716 C726 0.930 . S
H717 C727 0.930 . S
C718 H712 0.930 . S
C718 C719 1.355 1_565 S
C718 C720 1.415 . S
C719 C718 1.355 1_545 S
C719 C721 1.419 . S
C720 C718 1.415 . S
C720 C725 1.425 . S
C720 C727 1.409 . S
C721 H713 0.930 . S
C721 C719 1.419 . S
C721 C722 1.362 . S
C722 H714 0.930 . S
C722 C721 1.362 . S
C722 C725 1.409 1_545 S
C723 H715 0.930 . S
C723 C724 1.355 . S
C723 C725 1.415 . S
C724 C723 1.355 . S
C724 C726 1.419 . S
C725 C720 1.425 . S
C725 C722 1.409 1_565 S
C725 C723 1.415 . S
C726 H716 0.930 . S
C726 C724 1.419 . S
C726 C727 1.362 . S
C727 H717 0.930 . S
C727 C720 1.409 . S
C727 C726 1.362 . S
H728 C734 0.930 . S
H729 C737 0.930 . S
H730 C738 0.930 . S
H731 C739 0.930 . S
H732 C742 0.930 . S
H733 C743 0.930 . S
C734 H728 0.930 . S
C734 C735 1.355 . S
C734 C736 1.415 . S
C735 C734 1.355 . S
C735 C737 1.419 . S
C736 C734 1.415 . S
C736 C741 1.425 . S
C736 C743 1.409 . S
C737 H729 0.930 . S
C737 C735 1.419 . S
C737 C738 1.362 . S
C738 H730 0.930 . S
C738 C737 1.362 . S
C738 C741 1.409 . S
C739 H731 0.930 . S
C739 C740 1.355 1_455 S
C739 C741 1.415 . S
C740 C739 1.355 1_655 S
C740 C742 1.419 . S
C741 C736 1.425 . S
C741 C738 1.409 . S
C741 C739 1.415 . S
C742 H732 0.930 . S
C742 C740 1.419 . S
C742 C743 1.362 1_655 S
C743 H733 0.930 . S
C743 C736 1.409 . S
C743 C742 1.362 1_455 S
H744 C750 0.930 . S
H745 C753 0.930 . S
H746 C754 0.930 . S
H747 C755 0.930 . S
H748 C758 0.930 . S
H749 C759 0.930 . S
C750 H744 0.930 . S
C750 C751 1.355 . S
C750 C752 1.415 . S
C751 C750 1.355 . S
C751 C753 1.419 . S
C752 C750 1.415 . S
C752 C757 1.425 . S
C752 C759 1.409 1_455 S
C753 H745 0.930 . S
C753 C751 1.419 . S
C753 C754 1.362 . S
C754 H746 0.930 . S
C754 C753 1.362 . S
C754 C757 1.409 . S
C755 H747 0.930 . S
C755 C756 1.355 1_455 S
C755 C757 1.415 . S
C756 C755 1.355 1_655 S
C756 C758 1.419 . S
C757 C752 1.425 . S
C757 C754 1.409 . S
C757 C755 1.415 . S
C758 H748 0.930 . S
C758 C756 1.419 . S
C758 C759 1.362 . S
C759 H749 0.930 . S
C759 C752 1.409 1_655 S
C759 C758 1.362 . S
H760 C766 0.930 . S
H761 C769 0.930 . S
H762 C770 0.930 . S
H763 C771 0.930 . S
H764 C774 0.930 . S
H765 C775 0.930 . S
C766 H760 0.930 . S
C766 C767 1.355 . S
C766 C768 1.415 . S
C767 C766 1.355 . S
C767 C769 1.419 . S
C768 C766 1.415 . S
C768 C773 1.425 . S
C768 C775 1.409 . S
C769 H761 0.930 . S
C769 C767 1.419 . S
C769 C770 1.362 . S
C770 H762 0.930 . S
C770 C769 1.362 . S
C770 C773 1.409 . S
C771 H763 0.930 . S
C771 C772 1.355 . S
C771 C773 1.415 . S
C772 C771 1.355 . S
C772 C774 1.419 . S
C773 C768 1.425 . S
C773 C770 1.409 . S
C773 C771 1.415 . S
C774 H764 0.930 . S
C774 C772 1.419 . S
C774 C775 1.362 . S
C775 H765 0.930 . S
C775 C768 1.409 . S
C775 C774 1.362 . S
H776 C782 0.930 . S
H777 C785 0.930 . S
H778 C786 0.930 . S
H779 C787 0.930 . S
H780 C790 0.930 . S
H781 C791 0.930 . S
C782 H776 0.930 . S
C782 C783 1.355 . S
C782 C784 1.415 . S
C783 C782 1.355 . S
C783 C785 1.419 . S
C784 C782 1.415 . S
C784 C789 1.425 . S
C784 C791 1.409 1_565 S
C785 H777 0.930 . S
C785 C783 1.419 . S
C785 C786 1.362 . S
C786 H778 0.930 . S
C786 C785 1.362 . S
C786 C789 1.409 . S
C787 H779 0.930 . S
C787 C788 1.355 1_565 S
C787 C789 1.415 . S
C788 C787 1.355 1_545 S
C788 C790 1.419 . S
C789 C784 1.425 . S
C789 C786 1.409 . S
C789 C787 1.415 . S
C790 H780 0.930 . S
C790 C788 1.419 . S
C790 C791 1.362 . S
C791 H781 0.930 . S
C791 C784 1.409 1_545 S
C791 C790 1.362 . S
H792 C798 0.930 . S
H793 C801 0.930 . S
H794 C802 0.930 . S
H795 C803 0.930 . S
H796 C806 0.930 . S
H797 C807 0.930 . S
C798 H792 0.930 . S
C798 C799 1.355 . S
C798 C800 1.415 . S
C799 C798 1.355 . S
C799 C801 1.419 . S
C800 C798 1.415 . S
C800 C805 1.425 . S
C800 C807 1.409 . S
C801 H793 0.930 . S
C801 C799 1.419 . S
C801 C802 1.362 . S
C802 H794 0.930 . S
C802 C801 1.362 . S
C802 C805 1.409 . S
C803 H795 0.930 . S
C803 C804 1.355 . S
C803 C805 1.415 . S
C804 C803 1.355 . S
C804 C806 1.419 . S
C805 C800 1.425 . S
C805 C802 1.409 . S
C805 C803 1.415 . S
C806 H796 0.930 . S
C806 C804 1.419 . S
C806 C807 1.362 . S
C807 H797 0.930 . S
C807 C800 1.409 . S
C807 C806 1.362 . S
H808 C814 0.930 . S
H809 C817 0.930 . S
H810 C818 0.930 . S
H811 C819 0.930 . S
H812 C822 0.930 . S
H813 C823 0.930 . S
C814 H808 0.930 . S
C814 C815 1.355 . S
C814 C816 1.415 . S
C815 C814 1.355 . S
C815 C817 1.419 . S
C816 C814 1.415 . S
C816 C821 1.425 . S
C816 C823 1.409 . S
C817 H809 0.930 . S
C817 C815 1.419 . S
C817 C818 1.362 . S
C818 H810 0.930 . S
C818 C817 1.362 . S
C818 C821 1.409 . S
C819 H811 0.930 . S
C819 C820 1.355 . S
C819 C821 1.415 . S
C820 C819 1.355 . S
C820 C822 1.419 . S
C821 C816 1.425 . S
C821 C818 1.409 . S
C821 C819 1.415 . S
C822 H812 0.930 . S
C822 C820 1.419 . S
C822 C823 1.362 . S
C823 H813 0.930 . S
C823 C816 1.409 . S
C823 C822 1.362 . S
H824 C830 0.930 . S
H825 C833 0.930 . S
H826 C834 0.930 . S
H827 C835 0.930 . S
H828 C838 0.930 . S
H829 C839 0.930 . S
C830 H824 0.930 . S
C830 C831 1.355 . S
C830 C832 1.415 . S
C831 C830 1.355 . S
C831 C833 1.419 . S
C832 C830 1.415 . S
C832 C837 1.425 . S
C832 C839 1.409 . S
C833 H825 0.930 . S
C833 C831 1.419 . S
C833 C834 1.362 . S
C834 H826 0.930 . S
C834 C833 1.362 . S
C834 C837 1.409 . S
C835 H827 0.930 . S
C835 C836 1.355 . S
C835 C837 1.415 . S
C836 C835 1.355 . S
C836 C838 1.419 . S
C837 C832 1.425 . S
C837 C834 1.409 . S
C837 C835 1.415 . S
C838 H828 0.930 . S
C838 C836 1.419 . S
C838 C839 1.362 . S
C839 H829 0.930 . S
C839 C832 1.409 . S
C839 C838 1.362 . S
H840 C846 0.930 . S
H841 C849 0.930 . S
H842 C850 0.930 . S
H843 C851 0.930 . S
H844 C854 0.930 . S
H845 C855 0.930 . S
C846 H840 0.930 . S
C846 C847 1.355 . S
C846 C848 1.415 . S
C847 C846 1.355 . S
C847 C849 1.419 . S
C848 C846 1.415 . S
C848 C853 1.425 . S
C848 C855 1.409 . S
C849 H841 0.930 . S
C849 C847 1.419 . S
C849 C850 1.362 . S
C850 H842 0.930 . S
C850 C849 1.362 . S
C850 C853 1.409 . S
C851 H843 0.930 . S
C851 C852 1.355 . S
C851 C853 1.415 . S
C852 C851 1.355 . S
C852 C854 1.419 . S
C853 C848 1.425 . S
C853 C850 1.409 . S
C853 C851 1.415 . S
C854 H844 0.930 . S
C854 C852 1.419 . S
C854 C855 1.362 . S
C855 H845 0.930 . S
C855 C848 1.409 . S
C855 C854 1.362 . S
H856 C862 0.930 . S
H857 C865 0.930 . S
H858 C866 0.930 . S
H859 C867 0.930 . S
H860 C870 0.930 . S
H861 C871 0.930 . S
C862 H856 0.930 . S
C862 C863 1.355 . S
C862 C864 1.415 . S
C863 C862 1.355 . S
C863 C865 1.419 . S
C864 C862 1.415 . S
C864 C869 1.425 . S
C864 C871 1.409 . S
C865 H857 0.930 . S
C865 C863 1.419 . S
C865 C866 1.362 . S
C866 H858 0.930 . S
C866 C865 1.362 . S
C866 C869 1.409 . S
C867 H859 0.930 . S
C867 C868 1.355 . S
C867 C869 1.415 . S
C868 C867 1.355 . S
C868 C870 1.419 . S
C869 C864 1.425 . S
C869 C866 1.409 . S
C869 C867 1.415 . S
C870 H860 0.930 . S
C870 C868 1.419 . S
C870 C871 1.362 . S
C871 H861 0.930 . S
C871 C864 1.409 . S
C871 C870 1.362 . S
H872 C878 0.930 . S
H873 C881 0.930 . S
H874 C882 0.930 . S
H875 C883 0.930 . S
H876 C886 0.930 . S
H877 C887 0.930 . S
C878 H872 0.930 . S
C878 C879 1.355 . S
C878 C880 1.415 . S
C879 C878 1.355 . S
C879 C881 1.419 . S
C880 C878 1.415 . S
C880 C885 1.425 . S
C880 C887 1.409 . S
C881 H873 0.930 . S
C881 C879 1.419 . S
C881 C882 1.362 . S
C882 H874 0.930 . S
C882 C881 1.362 . S
C882 C885 1.409 . S
C883 H875 0.930 . S
C883 C884 1.355 . S
C883 C885 1.415 . S
C884 C883 1.355 . S
C884 C886 1.419 . S
C885 C880 1.425 . S
C885 C882 1.409 . S
C885 C883 1.415 . S
C886 H876 0.930 . S
C886 C884 1.419 . S
C886 C887 1.362 . S
C887 H877 0.930 . S
C887 C880 1.409 . S
C887 C886 1.362 . S
H888 C894 0.930 . S
H889 C897 0.930 . S
H890 C898 0.930 . S
H891 C899 0.930 . S
H892 C902 0.930 . S
H893 C903 0.930 . S
C894 H888 0.930 . S
C894 C895 1.355 . S
C894 C896 1.415 . S
C895 C894 1.355 . S
C895 C897 1.419 . S
C896 C894 1.415 . S
C896 C901 1.425 . S
C896 C903 1.409 . S
C897 H889 0.930 . S
C897 C895 1.419 . S
C897 C898 1.362 . S
C898 H890 0.930 . S
C898 C897 1.362 . S
C898 C901 1.409 . S
C899 H891 0.930 . S
C899 C900 1.355 . S
C899 C901 1.415 . S
C900 C899 1.355 . S
C900 C902 1.419 . S
C901 C896 1.425 . S
C901 C898 1.409 . S
C901 C899 1.415 . S
C902 H892 0.930 . S
C902 C900 1.419 . S
C902 C903 1.362 . S
C903 H893 0.930 . S
C903 C896 1.409 . S
C903 C902 1.362 . S
H904 C910 0.930 . S
H905 C913 0.930 . S
H906 C914 0.930 . S
H907 C915 0.930 . S
H908 C918 0.930 . S
H909 C919 0.930 . S
C910 H904 0.930 . S
C910 C911 1.355 . S
C910 C912 1.415 . S
C911 C910 1.355 . S
C911 C913 1.419 . S
C912 C910 1.415 . S
C912 C917 1.425 . S
C912 C919 1.409 . S
C913 H905 0.930 . S
C913 C911 1.419 . S
C913 C914 1.362 . S
C914 H906 0.930 . S
C914 C913 1.362 . S
C914 C917 1.409 . S
C915 H907 0.930 . S
C915 C916 1.355 . S
C915 C917 1.415 . S
C916 C915 1.355 . S
C916 C918 1.419 . S
C917 C912 1.425 . S
C917 C914 1.409 . S
C917 C915 1.415 . S
C918 H908 0.930 . S
C918 C916 1.419 . S
C918 C919 1.362 . S
C919 H909 0.930 . S
C919 C912 1.409 . S
C919 C918 1.362 . S
H920 C926 0.930 . S
H921 C929 0.930 . S
H922 C930 0.930 . S
H923 C931 0.930 . S
H924 C934 0.930 . S
H925 C935 0.930 . S
C926 H920 0.930 . S
C926 C927 1.355 . S
C926 C928 1.415 . S
C927 C926 1.355 . S
C927 C929 1.419 . S
C928 C926 1.415 . S
C928 C933 1.425 . S
C928 C935 1.409 . S
C929 H921 0.930 . S
C929 C927 1.419 . S
C929 C930 1.362 . S
C930 H922 0.930 . S
C930 C929 1.362 . S
C930 C933 1.409 . S
C931 H923 0.930 . S
C931 C932 1.355 . S
C931 C933 1.415 . S
C932 C931 1.355 . S
C932 C934 1.419 . S
C933 C928 1.425 . S
C933 C930 1.409 . S
C933 C931 1.415 . S
C934 H924 0.930 . S
C934 C932 1.419 . S
C934 C935 1.362 . S
C935 H925 0.930 . S
C935 C928 1.409 . S
C935 C934 1.362 . S
H936 C942 0.930 . S
H937 C945 0.930 . S
H938 C946 0.930 . S
H939 C947 0.930 . S
H940 C950 0.930 . S
H941 C951 0.930 . S
C942 H936 0.930 . S
C942 C943 1.355 . S
C942 C944 1.415 . S
C943 C942 1.355 . S
C943 C945 1.419 . S
C944 C942 1.415 . S
C944 C949 1.425 . S
C944 C951 1.409 . S
C945 H937 0.930 . S
C945 C943 1.419 . S
C945 C946 1.362 . S
C946 H938 0.930 . S
C946 C945 1.362 . S
C946 C949 1.409 . S
C947 H939 0.930 . S
C947 C948 1.355 . S
C947 C949 1.415 . S
C948 C947 1.355 . S
C948 C950 1.419 . S
C949 C944 1.425 . S
C949 C946 1.409 . S
C949 C947 1.415 . S
C950 H940 0.930 . S
C950 C948 1.419 . S
C950 C951 1.362 . S
C951 H941 0.930 . S
C951 C944 1.409 . S
C951 C950 1.362 . S
H952 C958 0.930 . S
H953 C961 0.930 1_554 S
H954 C962 0.930 . S
H955 C963 0.930 . S
H956 C966 0.930 . S
H957 C967 0.930 . S
C958 H952 0.930 . S
C958 C959 1.355 . S
C958 C960 1.415 . S
C959 C958 1.355 . S
C959 C961 1.419 . S
C960 C958 1.415 . S
C960 C965 1.425 . S
C960 C967 1.409 . S
C961 H953 0.930 1_556 S
C961 C959 1.419 . S
C961 C962 1.362 . S
C962 H954 0.930 . S
C962 C961 1.362 . S
C962 C965 1.409 . S
C963 H955 0.930 . S
C963 C964 1.355 . S
C963 C965 1.415 . S
C964 C963 1.355 . S
C964 C966 1.419 . S
C965 C960 1.425 . S
C965 C962 1.409 . S
C965 C963 1.415 . S
C966 H956 0.930 . S
C966 C964 1.419 . S
C966 C967 1.362 . S
C967 H957 0.930 . S
C967 C960 1.409 . S
C967 C966 1.362 . S
H968 C974 0.930 . S
H969 C977 0.930 . S
H970 C978 0.930 . S
H971 C979 0.930 . S
H972 C982 0.930 1_554 S
H973 C983 0.930 . S
C974 H968 0.930 . S
C974 C975 1.355 . S
C974 C976 1.415 . S
C975 C974 1.355 . S
C975 C977 1.419 . S
C976 C974 1.415 . S
C976 C981 1.425 . S
C976 C983 1.409 . S
C977 H969 0.930 . S
C977 C975 1.419 . S
C977 C978 1.362 . S
C978 H970 0.930 . S
C978 C977 1.362 . S
C978 C981 1.409 . S
C979 H971 0.930 . S
C979 C980 1.355 . S
C979 C981 1.415 . S
C980 C979 1.355 . S
C980 C982 1.419 . S
C981 C976 1.425 . S
C981 C978 1.409 . S
C981 C979 1.415 . S
C982 H972 0.930 1_556 S
C982 C980 1.419 . S
C982 C983 1.362 . S
C983 H973 0.930 . S
C983 C976 1.409 . S
C983 C982 1.362 . S
H984 C990 0.930 . S
H985 C993 0.930 . S
H986 C994 0.930 . S
H987 C995 0.930 . S
H988 C998 0.930 . S
H989 C999 0.930 . S
C990 H984 0.930 . S
C990 C991 1.355 . S
C990 C992 1.415 . S
C991 C990 1.355 . S
C991 C993 1.419 . S
C992 C990 1.415 . S
C992 C997 1.425 1_455 S
C992 C999 1.409 1_455 S
C993 H985 0.930 . S
C993 C991 1.419 . S
C993 C994 1.362 . S
C994 H986 0.930 . S
C994 C993 1.362 . S
C994 C997 1.409 1_455 S
C995 H987 0.930 . S
C995 C996 1.355 . S
C995 C997 1.415 . S
C996 C995 1.355 . S
C996 C998 1.419 . S
C997 C992 1.425 1_655 S
C997 C994 1.409 1_655 S
C997 C995 1.415 . S
C998 H988 0.930 . S
C998 C996 1.419 . S
C998 C999 1.362 . S
C999 H989 0.930 . S
C999 C992 1.409 1_655 S
C999 C998 1.362 . S
H1000 C1006 0.930 . S
H1001 C1009 0.930 . S
H1002 C1010 0.930 . S
H1003 C1011 0.930 . S
H1004 C1014 0.930 . S
H1005 C1015 0.930 . S
C1006 H1000 0.930 . S
C1006 C1007 1.355 . S
C1006 C1008 1.415 . S
C1007 C1006 1.355 . S
C1007 C1009 1.419 . S
C1008 C1006 1.415 . S
C1008 C1013 1.425 . S
C1008 C1015 1.409 . S
C1009 H1001 0.930 . S
C1009 C1007 1.419 . S
C1009 C1010 1.362 . S
C1010 H1002 0.930 . S
C1010 C1009 1.362 . S
C1010 C1013 1.409 . S
C1011 H1003 0.930 . S
C1011 C1012 1.355 . S
C1011 C1013 1.415 . S
C1012 C1011 1.355 . S
C1012 C1014 1.419 . S
C1013 C1008 1.425 . S
C1013 C1010 1.409 . S
C1013 C1011 1.415 . S
C1014 H1004 0.930 . S
C1014 C1012 1.419 . S
C1014 C1015 1.362 . S
C1015 H1005 0.930 . S
C1015 C1008 1.409 . S
C1015 C1014 1.362 . S
H1016 C1022 0.930 . S
H1017 C1025 0.930 . S
H1018 C1026 0.930 . S
H1019 C1027 0.930 . S
H1020 C1030 0.930 . S
H1021 C1031 0.930 . S
C1022 H1016 0.930 . S
C1022 C1023 1.355 . S
C1022 C1024 1.393 1_545 S
C1023 C1022 1.355 . S
C1023 C1025 1.419 . S
C1024 C1022 1.393 1_565 S
C1024 C1029 1.454 1_565 S
C1024 C1031 1.418 . S
C1025 H1017 0.930 . S
C1025 C1023 1.419 . S
C1025 C1026 1.362 . S
C1026 H1018 0.930 . S
C1026 C1025 1.362 . S
C1026 C1029 1.417 . S
C1027 H1019 0.930 . S
C1027 C1028 1.355 . S
C1027 C1029 1.395 1_565 S
C1028 C1027 1.355 . S
C1028 C1030 1.419 . S
C1029 C1024 1.454 1_545 S
C1029 C1026 1.417 . S
C1029 C1027 1.395 1_545 S
C1030 H1020 0.930 . S
C1030 C1028 1.419 . S
C1030 C1031 1.362 . S
C1031 H1021 0.930 . S
C1031 C1024 1.418 . S
C1031 C1030 1.362 . S
H1032 C1038 0.930 . S
H1033 C1041 0.930 . S
H1034 C1042 0.930 . S
H1035 C1043 0.930 . S
H1036 C1046 0.930 . S
H1037 C1047 0.930 . S
C1038 H1032 0.930 . S
C1038 C1039 1.355 . S
C1038 C1040 1.415 . S
C1039 C1038 1.355 . S
C1039 C1041 1.419 . S
C1040 C1038 1.415 . S
C1040 C1045 1.425 1_565 S
C1040 C1047 1.409 . S
C1041 H1033 0.930 . S
C1041 C1039 1.419 . S
C1041 C1042 1.362 1_565 S
C1042 H1034 0.930 . S
C1042 C1041 1.362 1_545 S
C1042 C1045 1.409 . S
C1043 H1035 0.930 . S
C1043 C1044 1.355 . S
C1043 C1045 1.415 . S
C1044 C1043 1.355 . S
C1044 C1046 1.419 . S
C1045 C1040 1.425 1_545 S
C1045 C1042 1.409 . S
C1045 C1043 1.415 . S
C1046 H1036 0.930 . S
C1046 C1044 1.419 . S
C1046 C1047 1.362 1_545 S
C1047 H1037 0.930 . S
C1047 C1040 1.409 . S
C1047 C1046 1.362 1_565 S
H1048 C1054 0.930 . S
H1049 C1057 0.930 . S
H1050 C1058 0.930 . S
H1051 C1059 0.930 . S
H1052 C1062 0.930 . S
H1053 C1063 0.930 . S
C1054 H1048 0.930 . S
C1054 C1055 1.355 . S
C1054 C1056 1.415 . S
C1055 C1054 1.355 . S
C1055 C1057 1.419 . S
C1056 C1054 1.415 . S
C1056 C1061 1.425 1_655 S
C1056 C1063 1.409 . S
C1057 H1049 0.930 . S
C1057 C1055 1.419 . S
C1057 C1058 1.362 1_655 S
C1058 H1050 0.930 . S
C1058 C1057 1.362 1_455 S
C1058 C1061 1.409 . S
C1059 H1051 0.930 . S
C1059 C1060 1.355 . S
C1059 C1061 1.415 . S
C1060 C1059 1.355 . S
C1060 C1062 1.419 . S
C1061 C1056 1.425 1_455 S
C1061 C1058 1.409 . S
C1061 C1059 1.415 . S
C1062 H1052 0.930 . S
C1062 C1060 1.419 . S
C1062 C1063 1.362 1_455 S
C1063 H1053 0.930 . S
C1063 C1056 1.409 . S
C1063 C1062 1.362 1_655 S
H1064 C1070 0.930 . S
H1065 C1073 0.930 . S
H1066 C1074 0.930 . S
H1067 C1075 0.930 . S
H1068 C1078 0.930 . S
H1069 C1079 0.930 . S
C1070 H1064 0.930 . S
C1070 C1071 1.355 . S
C1070 C1072 1.415 . S
C1071 C1070 1.355 . S
C1071 C1073 1.419 . S
C1072 C1070 1.415 . S
C1072 C1077 1.425 . S
C1072 C1079 1.409 . S
C1073 H1065 0.930 . S
C1073 C1071 1.419 . S
C1073 C1074 1.362 . S
C1074 H1066 0.930 . S
C1074 C1073 1.362 . S
C1074 C1077 1.409 . S
C1075 H1067 0.930 . S
C1075 C1076 1.355 . S
C1075 C1077 1.415 . S
C1076 C1075 1.355 . S
C1076 C1078 1.419 . S
C1077 C1072 1.425 . S
C1077 C1074 1.409 . S
C1077 C1075 1.415 . S
C1078 H1068 0.930 . S
C1078 C1076 1.419 . S
C1078 C1079 1.362 . S
C1079 H1069 0.930 . S
C1079 C1072 1.409 . S
C1079 C1078 1.362 . S
H1080 C1086 0.930 . S
H1081 C1089 0.930 . S
H1082 C1090 0.930 . S
H1083 C1091 0.930 . S
H1084 C1094 0.930 . S
H1085 C1095 0.930 . S
C1086 H1080 0.930 . S
C1086 C1087 1.355 . S
C1086 C1088 1.415 . S
C1087 C1086 1.355 . S
C1087 C1089 1.419 . S
C1088 C1086 1.415 . S
C1088 C1093 1.425 . S
C1088 C1095 1.409 . S
C1089 H1081 0.930 . S
C1089 C1087 1.419 . S
C1089 C1090 1.362 . S
C1090 H1082 0.930 . S
C1090 C1089 1.362 . S
C1090 C1093 1.409 . S
C1091 H1083 0.930 . S
C1091 C1092 1.355 . S
C1091 C1093 1.415 . S
C1092 C1091 1.355 . S
C1092 C1094 1.419 . S
C1093 C1088 1.425 . S
C1093 C1090 1.409 . S
C1093 C1091 1.415 . S
C1094 H1084 0.930 . S
C1094 C1092 1.419 . S
C1094 C1095 1.362 . S
C1095 H1085 0.930 . S
C1095 C1088 1.409 . S
C1095 C1094 1.362 . S
H1096 C1102 0.930 . S
H1097 C1105 0.930 . S
H1098 C1106 0.930 . S
H1099 C1107 0.930 . S
H1100 C1110 0.930 . S
H1101 C1111 0.930 . S
C1102 H1096 0.930 . S
C1102 C1103 1.355 . S
C1102 C1104 1.415 . S
C1103 C1102 1.355 . S
C1103 C1105 1.419 . S
C1104 C1102 1.415 . S
C1104 C1109 1.425 . S
C1104 C1111 1.409 . S
C1105 H1097 0.930 . S
C1105 C1103 1.419 . S
C1105 C1106 1.362 . S
C1106 H1098 0.930 . S
C1106 C1105 1.362 . S
C1106 C1109 1.409 . S
C1107 H1099 0.930 . S
C1107 C1108 1.355 . S
C1107 C1109 1.415 . S
C1108 C1107 1.355 . S
C1108 C1110 1.419 . S
C1109 C1104 1.425 . S
C1109 C1106 1.409 . S
C1109 C1107 1.415 . S
C1110 H1100 0.930 . S
C1110 C1108 1.419 . S
C1110 C1111 1.362 . S
C1111 H1101 0.930 . S
C1111 C1104 1.409 . S
C1111 C1110 1.362 . S
H1112 C1118 0.930 . S
H1113 C1121 0.930 . S
H1114 C1122 0.930 . S
H1115 C1123 0.930 . S
H1116 C1126 0.930 . S
H1117 C1127 0.930 . S
C1118 H1112 0.930 . S
C1118 C1119 1.355 . S
C1118 C1120 1.415 . S
C1119 C1118 1.355 . S
C1119 C1121 1.419 . S
C1120 C1118 1.415 . S
C1120 C1125 1.425 . S
C1120 C1127 1.409 . S
C1121 H1113 0.930 . S
C1121 C1119 1.419 . S
C1121 C1122 1.362 . S
C1122 H1114 0.930 . S
C1122 C1121 1.362 . S
C1122 C1125 1.409 . S
C1123 H1115 0.930 . S
C1123 C1124 1.355 . S
C1123 C1125 1.415 . S
C1124 C1123 1.355 . S
C1124 C1126 1.419 . S
C1125 C1120 1.425 . S
C1125 C1122 1.409 . S
C1125 C1123 1.415 . S
C1126 H1116 0.930 . S
C1126 C1124 1.419 . S
C1126 C1127 1.362 . S
C1127 H1117 0.930 . S
C1127 C1120 1.409 . S
C1127 C1126 1.362 . S
H1128 C1134 0.930 . S
H1129 C1137 0.930 . S
H1130 C1138 0.930 . S
H1131 C1139 0.930 . S
H1132 C1142 0.930 . S
H1133 C1143 0.930 . S
C1134 H1128 0.930 . S
C1134 C1135 1.355 . S
C1134 C1136 1.415 . S
C1135 C1134 1.355 . S
C1135 C1137 1.419 . S
C1136 C1134 1.415 . S
C1136 C1141 1.425 . S
C1136 C1143 1.409 . S
C1137 H1129 0.930 . S
C1137 C1135 1.419 . S
C1137 C1138 1.362 . S
C1138 H1130 0.930 . S
C1138 C1137 1.362 . S
C1138 C1141 1.409 . S
C1139 H1131 0.930 . S
C1139 C1140 1.355 . S
C1139 C1141 1.415 . S
C1140 C1139 1.355 . S
C1140 C1142 1.419 . S
C1141 C1136 1.425 . S
C1141 C1138 1.409 . S
C1141 C1139 1.415 . S
C1142 H1132 0.930 . S
C1142 C1140 1.419 . S
C1142 C1143 1.362 . S
C1143 H1133 0.930 . S
C1143 C1136 1.409 . S
C1143 C1142 1.362 . S
H1144 C1150 0.930 . S
H1145 C1153 0.930 . S
H1146 C1154 0.930 . S
H1147 C1155 0.930 . S
H1148 C1158 0.930 . S
H1149 C1159 0.930 . S
C1150 H1144 0.930 . S
C1150 C1151 1.355 . S
C1150 C1152 1.415 . S
C1151 C1150 1.355 . S
C1151 C1153 1.419 . S
C1152 C1150 1.415 . S
C1152 C1157 1.425 . S
C1152 C1159 1.409 . S
C1153 H1145 0.930 . S
C1153 C1151 1.419 . S
C1153 C1154 1.362 . S
C1154 H1146 0.930 . S
C1154 C1153 1.362 . S
C1154 C1157 1.409 . S
C1155 H1147 0.930 . S
C1155 C1156 1.355 . S
C1155 C1157 1.415 . S
C1156 C1155 1.355 . S
C1156 C1158 1.419 . S
C1157 C1152 1.425 . S
C1157 C1154 1.409 . S
C1157 C1155 1.415 . S
C1158 H1148 0.930 . S
C1158 C1156 1.419 . S
C1158 C1159 1.362 . S
C1159 H1149 0.930 . S
C1159 C1152 1.409 . S
C1159 C1158 1.362 . S
H1160 C1166 0.930 . S
H1161 C1169 0.930 . S
H1162 C1170 0.930 . S
H1163 C1171 0.930 . S
H1164 C1174 0.930 . S
H1165 C1175 0.930 . S
C1166 H1160 0.930 . S
C1166 C1167 1.355 . S
C1166 C1168 1.415 . S
C1167 C1166 1.355 . S
C1167 C1169 1.419 . S
C1168 C1166 1.415 . S
C1168 C1173 1.425 . S
C1168 C1175 1.409 . S
C1169 H1161 0.930 . S
C1169 C1167 1.419 . S
C1169 C1170 1.362 . S
C1170 H1162 0.930 . S
C1170 C1169 1.362 . S
C1170 C1173 1.409 . S
C1171 H1163 0.930 . S
C1171 C1172 1.355 . S
C1171 C1173 1.415 . S
C1172 C1171 1.355 . S
C1172 C1174 1.419 . S
C1173 C1168 1.425 . S
C1173 C1170 1.409 . S
C1173 C1171 1.415 . S
C1174 H1164 0.930 . S
C1174 C1172 1.419 . S
C1174 C1175 1.362 . S
C1175 H1165 0.930 . S
C1175 C1168 1.409 . S
C1175 C1174 1.362 . S
H1176 C1182 0.930 . S
H1177 C1185 0.930 . S
H1178 C1186 0.930 . S
H1179 C1187 0.930 . S
H1180 C1190 0.930 . S
H1181 C1191 0.930 . S
C1182 H1176 0.930 . S
C1182 C1183 1.355 . S
C1182 C1184 1.415 . S
C1183 C1182 1.355 . S
C1183 C1185 1.419 . S
C1184 C1182 1.415 . S
C1184 C1189 1.425 . S
C1184 C1191 1.409 . S
C1185 H1177 0.930 . S
C1185 C1183 1.419 . S
C1185 C1186 1.362 . S
C1186 H1178 0.930 . S
C1186 C1185 1.362 . S
C1186 C1189 1.409 . S
C1187 H1179 0.930 . S
C1187 C1188 1.355 . S
C1187 C1189 1.415 . S
C1188 C1187 1.355 . S
C1188 C1190 1.419 . S
C1189 C1184 1.425 . S
C1189 C1186 1.409 . S
C1189 C1187 1.415 . S
C1190 H1180 0.930 . S
C1190 C1188 1.419 . S
C1190 C1191 1.362 . S
C1191 H1181 0.930 . S
C1191 C1184 1.409 . S
C1191 C1190 1.362 . S
H1192 C1198 0.930 . S
H1193 C1201 0.930 . S
H1194 C1202 0.930 . S
H1195 C1203 0.930 . S
H1196 C1206 0.930 . S
H1197 C1207 0.930 . S
C1198 H1192 0.930 . S
C1198 C1199 1.355 . S
C1198 C1200 1.415 . S
C1199 C1198 1.355 . S
C1199 C1201 1.419 . S
C1200 C1198 1.415 . S
C1200 C1205 1.425 . S
C1200 C1207 1.409 . S
C1201 H1193 0.930 . S
C1201 C1199 1.419 . S
C1201 C1202 1.362 . S
C1202 H1194 0.930 . S
C1202 C1201 1.362 . S
C1202 C1205 1.409 . S
C1203 H1195 0.930 . S
C1203 C1204 1.355 . S
C1203 C1205 1.415 . S
C1204 C1203 1.355 . S
C1204 C1206 1.419 . S
C1205 C1200 1.425 . S
C1205 C1202 1.409 . S
C1205 C1203 1.415 . S
C1206 H1196 0.930 . S
C1206 C1204 1.419 . S
C1206 C1207 1.362 . S
C1207 H1197 0.930 . S
C1207 C1200 1.409 . S
C1207 C1206 1.362 . S
H1208 C1214 0.930 . S
H1209 C1217 0.930 . S
H1210 C1218 0.930 . S
H1211 C1219 0.930 . S
H1212 C1222 0.930 . S
H1213 C1223 0.930 . S
C1214 H1208 0.930 . S
C1214 C1215 1.355 . S
C1214 C1216 1.415 . S
C1215 C1214 1.355 . S
C1215 C1217 1.419 . S
C1216 C1214 1.415 . S
C1216 C1221 1.425 . S
C1216 C1223 1.409 . S
C1217 H1209 0.930 . S
C1217 C1215 1.419 . S
C1217 C1218 1.362 . S
C1218 H1210 0.930 . S
C1218 C1217 1.362 . S
C1218 C1221 1.409 . S
C1219 H1211 0.930 . S
C1219 C1220 1.355 . S
C1219 C1221 1.415 . S
C1220 C1219 1.355 . S
C1220 C1222 1.419 . S
C1221 C1216 1.425 . S
C1221 C1218 1.409 . S
C1221 C1219 1.415 . S
C1222 H1212 0.930 . S
C1222 C1220 1.419 . S
C1222 C1223 1.362 . S
C1223 H1213 0.930 . S
C1223 C1216 1.409 . S
C1223 C1222 1.362 . S
H1224 C1230 0.930 . S
H1225 C1233 0.930 . S
H1226 C1234 0.930 . S
H1227 C1235 0.930 . S
H1228 C1238 0.930 . S
H1229 C1239 0.930 . S
C1230 H1224 0.930 . S
C1230 C1231 1.355 . S
C1230 C1232 1.415 . S
C1231 C1230 1.355 . S
C1231 C1233 1.419 . S
C1232 C1230 1.415 . S
C1232 C1237 1.425 . S
C1232 C1239 1.409 . S
C1233 H1225 0.930 . S
C1233 C1231 1.419 . S
C1233 C1234 1.362 . S
C1234 H1226 0.930 . S
C1234 C1233 1.362 . S
C1234 C1237 1.409 . S
C1235 H1227 0.930 . S
C1235 C1236 1.355 . S
C1235 C1237 1.415 . S
C1236 C1235 1.355 . S
C1236 C1238 1.419 . S
C1237 C1232 1.425 . S
C1237 C1234 1.409 . S
C1237 C1235 1.415 . S
C1238 H1228 0.930 . S
C1238 C1236 1.419 . S
C1238 C1239 1.362 . S
C1239 H1229 0.930 . S
C1239 C1232 1.409 . S
C1239 C1238 1.362 . S
H1240 C1246 0.930 . S
H1241 C1249 0.930 . S
H1242 C1250 0.930 . S
H1243 C1251 0.930 . S
H1244 C1254 0.930 . S
H1245 C1255 0.930 . S
C1246 H1240 0.930 . S
C1246 C1247 1.355 . S
C1246 C1248 1.415 . S
C1247 C1246 1.355 . S
C1247 C1249 1.419 . S
C1248 C1246 1.415 . S
C1248 C1253 1.425 . S
C1248 C1255 1.409 . S
C1249 H1241 0.930 . S
C1249 C1247 1.419 . S
C1249 C1250 1.362 . S
C1250 H1242 0.930 . S
C1250 C1249 1.362 . S
C1250 C1253 1.409 . S
C1251 H1243 0.930 . S
C1251 C1252 1.355 . S
C1251 C1253 1.415 . S
C1252 C1251 1.355 . S
C1252 C1254 1.419 . S
C1253 C1248 1.425 . S
C1253 C1250 1.409 . S
C1253 C1251 1.415 . S
C1254 H1244 0.930 . S
C1254 C1252 1.419 . S
C1254 C1255 1.362 . S
C1255 H1245 0.930 . S
C1255 C1248 1.409 . S
C1255 C1254 1.362 . S
H1256 C1262 0.930 . S
H1257 C1265 0.930 . S
H1258 C1266 0.930 . S
H1259 C1267 0.930 . S
H1260 C1270 0.930 . S
H1261 C1271 0.930 . S
C1262 H1256 0.930 . S
C1262 C1263 1.355 . S
C1262 C1264 1.415 . S
C1263 C1262 1.355 . S
C1263 C1265 1.419 . S
C1264 C1262 1.415 . S
C1264 C1269 1.425 . S
C1264 C1271 1.409 . S
C1265 H1257 0.930 . S
C1265 C1263 1.419 . S
C1265 C1266 1.362 . S
C1266 H1258 0.930 . S
C1266 C1265 1.362 . S
C1266 C1269 1.409 . S
C1267 H1259 0.930 . S
C1267 C1268 1.355 . S
C1267 C1269 1.415 . S
C1268 C1267 1.355 . S
C1268 C1270 1.419 . S
C1269 C1264 1.425 . S
C1269 C1266 1.409 . S
C1269 C1267 1.415 . S
C1270 H1260 0.930 . S
C1270 C1268 1.419 . S
C1270 C1271 1.362 . S
C1271 H1261 0.930 . S
C1271 C1264 1.409 . S
C1271 C1270 1.362 . S
H1272 C1278 0.930 . S
H1273 C1281 0.930 . S
H1274 C1282 0.930 . S
H1275 C1283 0.930 . S
H1276 C1286 0.930 . S
H1277 C1287 0.930 . S
C1278 H1272 0.930 . S
C1278 C1279 1.355 1_655 S
C1278 C1280 1.415 . S
C1279 C1278 1.355 1_455 S
C1279 C1281 1.419 . S
C1280 C1278 1.415 . S
C1280 C1285 1.425 1_655 S
C1280 C1287 1.409 . S
C1281 H1273 0.930 . S
C1281 C1279 1.419 . S
C1281 C1282 1.362 . S
C1282 H1274 0.930 . S
C1282 C1281 1.362 . S
C1282 C1285 1.409 . S
C1283 H1275 0.930 . S
C1283 C1284 1.355 1_455 S
C1283 C1285 1.415 . S
C1284 C1283 1.355 1_655 S
C1284 C1286 1.419 . S
C1285 C1280 1.425 1_455 S
C1285 C1282 1.409 . S
C1285 C1283 1.415 . S
C1286 H1276 0.930 . S
C1286 C1284 1.419 . S
C1286 C1287 1.362 . S
C1287 H1277 0.930 . S
C1287 C1280 1.409 . S
C1287 C1286 1.362 . S
H1288 C1294 0.930 . S
H1289 C1297 0.930 . S
H1290 C1298 0.930 . S
H1291 C1299 0.930 . S
H1292 C1302 0.930 . S
H1293 C1303 0.930 . S
C1294 H1288 0.930 . S
C1294 C1295 1.355 . S
C1294 C1296 1.415 . S
C1295 C1294 1.355 . S
C1295 C1297 1.419 . S
C1296 C1294 1.415 . S
C1296 C1301 1.425 . S
C1296 C1303 1.409 . S
C1297 H1289 0.930 . S
C1297 C1295 1.419 . S
C1297 C1298 1.362 . S
C1298 H1290 0.930 . S
C1298 C1297 1.362 . S
C1298 C1301 1.409 . S
C1299 H1291 0.930 . S
C1299 C1300 1.355 . S
C1299 C1301 1.415 . S
C1300 C1299 1.355 . S
C1300 C1302 1.419 . S
C1301 C1296 1.425 . S
C1301 C1298 1.409 . S
C1301 C1299 1.415 . S
C1302 H1292 0.930 . S
C1302 C1300 1.419 . S
C1302 C1303 1.362 . S
C1303 H1293 0.930 . S
C1303 C1296 1.409 . S
C1303 C1302 1.362 . S
H1304 C1310 0.930 . S
H1305 C1313 0.930 . S
H1306 C1314 0.930 . S
H1307 C1315 0.930 . S
H1308 C1318 0.930 . S
H1309 C1319 0.930 . S
C1310 H1304 0.930 . S
C1310 C1311 1.355 1_565 S
C1310 C1312 1.415 . S
C1311 C1310 1.355 1_545 S
C1311 C1313 1.419 . S
C1312 C1310 1.415 . S
C1312 C1317 1.425 1_565 S
C1312 C1319 1.409 . S
C1313 H1305 0.930 . S
C1313 C1311 1.419 . S
C1313 C1314 1.362 . S
C1314 H1306 0.930 . S
C1314 C1313 1.362 . S
C1314 C1317 1.409 . S
C1315 H1307 0.930 . S
C1315 C1316 1.355 1_545 S
C1315 C1317 1.415 . S
C1316 C1315 1.355 1_565 S
C1316 C1318 1.419 . S
C1317 C1312 1.425 1_545 S
C1317 C1314 1.409 . S
C1317 C1315 1.415 . S
C1318 H1308 0.930 . S
C1318 C1316 1.419 . S
C1318 C1319 1.362 . S
C1319 H1309 0.930 . S
C1319 C1312 1.409 . S
C1319 C1318 1.362 . S
H1320 C1326 0.930 . S
H1321 C1329 0.940 1_565 S
H1322 C1330 0.930 . S
H1323 C1331 0.930 . S
H1324 C1334 0.940 1_545 S
H1325 C1335 0.930 . S
C1326 H1320 0.930 . S
C1326 C1327 1.355 . S
C1326 C1328 1.415 . S
C1327 C1326 1.355 . S
C1327 C1329 1.432 1_556 S
C1328 C1326 1.415 . S
C1328 C1333 1.425 1_546 S
C1328 C1335 1.409 . S
C1329 H1321 0.940 1_545 S
C1329 C1327 1.432 1_554 S
C1329 C1330 1.341 1_545 S
C1330 H1322 0.930 . S
C1330 C1329 1.341 1_565 S
C1330 C1333 1.409 . S
C1331 H1323 0.930 . S
C1331 C1332 1.355 . S
C1331 C1333 1.415 . S
C1332 C1331 1.355 . S
C1332 C1334 1.432 1_554 S
C1333 C1328 1.425 1_564 S
C1333 C1330 1.409 . S
C1333 C1331 1.415 . S
C1334 H1324 0.940 1_565 S
C1334 C1332 1.432 1_556 S
C1334 C1335 1.341 1_565 S
C1335 H1325 0.930 . S
C1335 C1328 1.409 . S
C1335 C1334 1.341 1_545 S
H1336 C1342 0.930 . S
H1337 C1345 0.930 . S
H1338 C1346 0.930 . S
H1339 C1347 0.930 . S
H1340 C1350 0.930 . S
H1341 C1351 0.930 . S
C1342 H1336 0.930 . S
C1342 C1343 1.355 . S
C1342 C1344 1.415 . S
C1343 C1342 1.355 . S
C1343 C1345 1.419 1_455 S
C1344 C1342 1.415 . S
C1344 C1349 1.425 1_454 S
C1344 C1351 1.409 . S
C1345 H1337 0.930 . S
C1345 C1343 1.419 1_655 S
C1345 C1346 1.362 1_554 S
C1346 H1338 0.930 . S
C1346 C1345 1.362 1_556 S
C1346 C1349 1.409 . S
C1347 H1339 0.930 . S
C1347 C1348 1.355 . S
C1347 C1349 1.415 . S
C1348 C1347 1.355 . S
C1348 C1350 1.419 1_655 S
C1349 C1344 1.425 1_656 S
C1349 C1346 1.409 . S
C1349 C1347 1.415 . S
C1350 H1340 0.930 . S
C1350 C1348 1.419 1_455 S
C1350 C1351 1.362 1_556 S
C1351 H1341 0.930 . S
C1351 C1344 1.409 . S
C1351 C1350 1.362 1_554 S
H1352 C1358 0.930 . S
H1353 C1361 0.930 . S
H1354 C1362 0.930 . S
H1355 C1363 0.930 . S
H1356 C1366 0.930 . S
H1357 C1367 0.930 . S
C1358 H1352 0.930 . S
C1358 C1359 1.355 . S
C1358 C1360 1.415 . S
C1359 C1358 1.355 . S
C1359 C1361 1.419 1_554 S
C1360 C1358 1.415 . S
C1360 C1365 1.425 1_554 S
C1360 C1367 1.409 . S
C1361 H1353 0.930 . S
C1361 C1359 1.419 1_556 S
C1361 C1362 1.362 . S
C1362 H1354 0.930 . S
C1362 C1361 1.362 . S
C1362 C1365 1.409 . S
C1363 H1355 0.930 . S
C1363 C1364 1.355 . S
C1363 C1365 1.415 . S
C1364 C1363 1.355 . S
C1364 C1366 1.419 1_556 S
C1365 C1360 1.425 1_556 S
C1365 C1362 1.409 . S
C1365 C1363 1.415 . S
C1366 H1356 0.930 . S
C1366 C1364 1.419 1_554 S
C1366 C1367 1.362 . S
C1367 H1357 0.930 . S
C1367 C1360 1.409 . S
C1367 C1366 1.362 . S
H1368 C1374 0.930 . S
H1369 C1377 0.930 . S
H1370 C1378 0.930 . S
H1371 C1379 0.930 . S
H1372 C1382 0.930 . S
H1373 C1383 0.930 . S
C1374 H1368 0.930 . S
C1374 C1375 1.355 . S
C1374 C1376 1.415 . S
C1375 C1374 1.355 . S
C1375 C1377 1.419 . S
C1376 C1374 1.415 . S
C1376 C1381 1.425 . S
C1376 C1383 1.409 . S
C1377 H1369 0.930 . S
C1377 C1375 1.419 . S
C1377 C1378 1.362 . S
C1378 H1370 0.930 . S
C1378 C1377 1.362 . S
C1378 C1381 1.409 . S
C1379 H1371 0.930 . S
C1379 C1380 1.355 . S
C1379 C1381 1.415 . S
C1380 C1379 1.355 . S
C1380 C1382 1.419 . S
C1381 C1376 1.425 . S
C1381 C1378 1.409 . S
C1381 C1379 1.415 . S
C1382 H1372 0.930 . S
C1382 C1380 1.419 . S
C1382 C1383 1.362 . S
C1383 H1373 0.930 . S
C1383 C1376 1.409 . S
C1383 C1382 1.362 . S
H1384 C1390 0.930 . S
H1385 C1393 0.930 . S
H1386 C1394 0.930 . S
H1387 C1395 0.930 . S
H1388 C1398 0.930 1_556 S
H1389 C1399 0.930 . S
C1390 H1384 0.930 . S
C1390 C1391 1.355 . S
C1390 C1392 1.415 . S
C1391 C1390 1.355 . S
C1391 C1393 1.419 . S
C1392 C1390 1.415 . S
C1392 C1397 1.425 . S
C1392 C1399 1.409 . S
C1393 H1385 0.930 . S
C1393 C1391 1.419 . S
C1393 C1394 1.362 . S
C1394 H1386 0.930 . S
C1394 C1393 1.362 . S
C1394 C1397 1.409 . S
C1395 H1387 0.930 . S
C1395 C1396 1.355 . S
C1395 C1397 1.415 . S
C1396 C1395 1.355 . S
C1396 C1398 1.419 . S
C1397 C1392 1.425 . S
C1397 C1394 1.409 . S
C1397 C1395 1.415 . S
C1398 H1388 0.930 1_554 S
C1398 C1396 1.419 . S
C1398 C1399 1.362 . S
C1399 H1389 0.930 . S
C1399 C1392 1.409 . S
C1399 C1398 1.362 . S
H1400 C1406 0.930 . S
H1401 C1409 0.930 . S
H1402 C1410 0.930 . S
H1403 C1411 0.930 . S
H1404 C1414 0.930 . S
H1405 C1415 0.930 . S
C1406 H1400 0.930 . S
C1406 C1407 1.355 . S
C1406 C1408 1.415 . S
C1407 C1406 1.355 . S
C1407 C1409 1.419 . S
C1408 C1406 1.415 . S
C1408 C1413 1.425 . S
C1408 C1415 1.409 . S
C1409 H1401 0.930 . S
C1409 C1407 1.419 . S
C1409 C1410 1.362 . S
C1410 H1402 0.930 . S
C1410 C1409 1.362 . S
C1410 C1413 1.409 . S
C1411 H1403 0.930 . S
C1411 C1412 1.355 . S
C1411 C1413 1.415 . S
C1412 C1411 1.355 . S
C1412 C1414 1.419 . S
C1413 C1408 1.425 . S
C1413 C1410 1.409 . S
C1413 C1411 1.415 . S
C1414 H1404 0.930 . S
C1414 C1412 1.419 . S
C1414 C1415 1.362 . S
C1415 H1405 0.930 . S
C1415 C1408 1.409 . S
C1415 C1414 1.362 . S
H1416 C1422 0.930 . S
H1417 C1425 0.930 . S
H1418 C1426 0.930 . S
H1419 C1427 0.930 . S
H1420 C1430 0.930 . S
H1421 C1431 0.930 . S
C1422 H1416 0.930 . S
C1422 C1423 1.355 . S
C1422 C1424 1.415 . S
C1423 C1422 1.355 . S
C1423 C1425 1.419 . S
C1424 C1422 1.415 . S
C1424 C1429 1.425 . S
C1424 C1431 1.409 . S
C1425 H1417 0.930 . S
C1425 C1423 1.419 . S
C1425 C1426 1.362 . S
C1426 H1418 0.930 . S
C1426 C1425 1.362 . S
C1426 C1429 1.409 . S
C1427 H1419 0.930 . S
C1427 C1428 1.355 . S
C1427 C1429 1.415 . S
C1428 C1427 1.355 . S
C1428 C1430 1.419 . S
C1429 C1424 1.425 . S
C1429 C1426 1.409 . S
C1429 C1427 1.415 . S
C1430 H1420 0.930 . S
C1430 C1428 1.419 . S
C1430 C1431 1.362 . S
C1431 H1421 0.930 . S
C1431 C1424 1.409 . S
C1431 C1430 1.362 . S
H1432 C1438 0.930 . S
H1433 C1441 0.930 . S
H1434 C1442 0.930 . S
H1435 C1443 0.930 . S
H1436 C1446 0.930 . S
H1437 C1447 0.930 . S
C1438 H1432 0.930 . S
C1438 C1439 1.355 . S
C1438 C1440 1.415 . S
C1439 C1438 1.355 . S
C1439 C1441 1.419 . S
C1440 C1438 1.415 . S
C1440 C1445 1.425 . S
C1440 C1447 1.409 . S
C1441 H1433 0.930 . S
C1441 C1439 1.419 . S
C1441 C1442 1.362 . S
C1442 H1434 0.930 . S
C1442 C1441 1.362 . S
C1442 C1445 1.409 . S
C1443 H1435 0.930 . S
C1443 C1444 1.355 . S
C1443 C1445 1.415 . S
C1444 C1443 1.355 . S
C1444 C1446 1.419 . S
C1445 C1440 1.425 . S
C1445 C1442 1.409 . S
C1445 C1443 1.415 . S
C1446 H1436 0.930 . S
C1446 C1444 1.419 . S
C1446 C1447 1.362 . S
C1447 H1437 0.930 . S
C1447 C1440 1.409 . S
C1447 C1446 1.362 . S
H1448 C1454 0.930 . S
H1449 C1457 0.930 . S
H1450 C1458 0.930 . S
H1451 C1459 0.930 . S
H1452 C1462 0.930 . S
H1453 C1463 0.930 . S
C1454 H1448 0.930 . S
C1454 C1455 1.355 . S
C1454 C1456 1.415 . S
C1455 C1454 1.355 . S
C1455 C1457 1.419 . S
C1456 C1454 1.415 . S
C1456 C1461 1.425 . S
C1456 C1463 1.409 . S
C1457 H1449 0.930 . S
C1457 C1455 1.419 . S
C1457 C1458 1.362 . S
C1458 H1450 0.930 . S
C1458 C1457 1.362 . S
C1458 C1461 1.409 . S
C1459 H1451 0.930 . S
C1459 C1460 1.355 . S
C1459 C1461 1.415 . S
C1460 C1459 1.355 . S
C1460 C1462 1.419 . S
C1461 C1456 1.425 . S
C1461 C1458 1.409 . S
C1461 C1459 1.415 . S
C1462 H1452 0.930 . S
C1462 C1460 1.419 . S
C1462 C1463 1.362 . S
C1463 H1453 0.930 . S
C1463 C1456 1.409 . S
C1463 C1462 1.362 . S
H1464 C1470 0.930 . S
H1465 C1473 0.930 . S
H1466 C1474 0.930 . S
H1467 C1475 0.930 . S
H1468 C1478 0.930 . S
H1469 C1479 0.930 . S
C1470 H1464 0.930 . S
C1470 C1471 1.355 . S
C1470 C1472 1.415 . S
C1471 C1470 1.355 . S
C1471 C1473 1.419 . S
C1472 C1470 1.415 . S
C1472 C1477 1.425 . S
C1472 C1479 1.409 . S
C1473 H1465 0.930 . S
C1473 C1471 1.419 . S
C1473 C1474 1.362 . S
C1474 H1466 0.930 . S
C1474 C1473 1.362 . S
C1474 C1477 1.409 . S
C1475 H1467 0.930 . S
C1475 C1476 1.355 . S
C1475 C1477 1.415 . S
C1476 C1475 1.355 . S
C1476 C1478 1.419 . S
C1477 C1472 1.425 . S
C1477 C1474 1.409 . S
C1477 C1475 1.415 . S
C1478 H1468 0.930 . S
C1478 C1476 1.419 . S
C1478 C1479 1.362 . S
C1479 H1469 0.930 . S
C1479 C1472 1.409 . S
C1479 C1478 1.362 . S
H1480 C1486 0.930 . S
H1481 C1489 0.930 1_554 S
H1482 C1490 0.930 . S
H1483 C1491 0.930 . S
H1484 C1494 0.930 . S
H1485 C1495 0.930 . S
C1486 H1480 0.930 . S
C1486 C1487 1.355 . S
C1486 C1488 1.415 . S
C1487 C1486 1.355 . S
C1487 C1489 1.419 . S
C1488 C1486 1.415 . S
C1488 C1493 1.425 . S
C1488 C1495 1.409 . S
C1489 H1481 0.930 1_556 S
C1489 C1487 1.419 . S
C1489 C1490 1.362 . S
C1490 H1482 0.930 . S
C1490 C1489 1.362 . S
C1490 C1493 1.409 . S
C1491 H1483 0.930 . S
C1491 C1492 1.355 . S
C1491 C1493 1.415 . S
C1492 C1491 1.355 . S
C1492 C1494 1.419 . S
C1493 C1488 1.425 . S
C1493 C1490 1.409 . S
C1493 C1491 1.415 . S
C1494 H1484 0.930 . S
C1494 C1492 1.419 . S
C1494 C1495 1.362 . S
C1495 H1485 0.930 . S
C1495 C1488 1.409 . S
C1495 C1494 1.362 . S
H1496 C1502 0.930 . S
H1497 C1505 0.930 . S
H1498 C1506 0.930 . S
H1499 C1507 0.930 . S
H1500 C1510 0.925 1_554 S
H1501 C1511 0.930 . S
C1502 H1496 0.930 . S
C1502 C1503 1.355 . S
C1502 C1504 1.415 . S
C1503 C1502 1.355 . S
C1503 C1505 1.419 . S
C1504 C1502 1.415 . S
C1504 C1509 1.425 . S
C1504 C1511 1.409 . S
C1505 H1497 0.930 . S
C1505 C1503 1.419 . S
C1505 C1506 1.362 . S
C1506 H1498 0.930 . S
C1506 C1505 1.362 . S
C1506 C1509 1.409 . S
C1507 H1499 0.930 . S
C1507 C1508 1.355 . S
C1507 C1509 1.415 . S
C1508 C1507 1.355 . S
C1508 C1510 1.419 . S
C1509 C1504 1.425 . S
C1509 C1506 1.409 . S
C1509 C1507 1.415 . S
C1510 H1500 0.925 1_556 S
C1510 C1508 1.419 . S
C1510 C1511 1.362 . S
C1511 H1501 0.930 . S
C1511 C1504 1.409 . S
C1511 C1510 1.362 . S
H1512 C1518 0.930 . S
H1513 C1521 0.930 . S
H1514 C1522 0.930 . S
H1515 C1523 0.930 . S
H1516 C1526 0.930 . S
H1517 C1527 0.930 . S
C1518 H1512 0.930 . S
C1518 C1519 1.355 . S
C1518 C1520 1.415 . S
C1519 C1518 1.355 . S
C1519 C1521 1.419 . S
C1520 C1518 1.415 . S
C1520 C1525 1.425 . S
C1520 C1527 1.409 . S
C1521 H1513 0.930 . S
C1521 C1519 1.419 . S
C1521 C1522 1.362 . S
C1522 H1514 0.930 . S
C1522 C1521 1.362 . S
C1522 C1525 1.409 . S
C1523 H1515 0.930 . S
C1523 C1524 1.355 . S
C1523 C1525 1.415 . S
C1524 C1523 1.355 . S
C1524 C1526 1.419 . S
C1525 C1520 1.425 . S
C1525 C1522 1.409 . S
C1525 C1523 1.415 . S
C1526 H1516 0.930 . S
C1526 C1524 1.419 . S
C1526 C1527 1.362 . S
C1527 H1517 0.930 . S
C1527 C1520 1.409 . S
C1527 C1526 1.362 . S
H1528 C1534 0.930 . S
H1529 C1537 0.930 . S
H1530 C1538 0.930 . S
H1531 C1539 0.930 . S
H1532 C1542 0.930 . S
H1533 C1543 0.930 . S
C1534 H1528 0.930 . S
C1534 C1535 1.355 . S
C1534 C1536 1.415 . S
C1535 C1534 1.355 . S
C1535 C1537 1.419 . S
C1536 C1534 1.415 . S
C1536 C1541 1.425 . S
C1536 C1543 1.409 . S
C1537 H1529 0.930 . S
C1537 C1535 1.419 . S
C1537 C1538 1.362 . S
C1538 H1530 0.930 . S
C1538 C1537 1.362 . S
C1538 C1541 1.409 . S
C1539 H1531 0.930 . S
C1539 C1540 1.355 . S
C1539 C1541 1.415 . S
C1540 C1539 1.355 . S
C1540 C1542 1.419 . S
C1541 C1536 1.425 . S
C1541 C1538 1.409 . S
C1541 C1539 1.415 . S
C1542 H1532 0.930 . S
C1542 C1540 1.419 . S
C1542 C1543 1.362 . S
C1543 H1533 0.930 . S
C1543 C1536 1.409 . S
C1543 C1542 1.362 . S
H1544 C1550 0.930 . S
H1545 C1553 0.930 . S
H1546 C1554 0.930 . S
H1547 C1555 0.930 . S
H1548 C1558 0.930 . S
H1549 C1559 0.930 . S
C1550 H1544 0.930 . S
C1550 C1551 1.355 . S
C1550 C1552 1.415 . S
C1551 C1550 1.355 . S
C1551 C1553 1.419 . S
C1552 C1550 1.415 . S
C1552 C1557 1.425 . S
C1552 C1559 1.409 . S
C1553 H1545 0.930 . S
C1553 C1551 1.419 . S
C1553 C1554 1.362 . S
C1554 H1546 0.930 . S
C1554 C1553 1.362 . S
C1554 C1557 1.409 . S
C1555 H1547 0.930 . S
C1555 C1556 1.355 . S
C1555 C1557 1.415 . S
C1556 C1555 1.355 . S
C1556 C1558 1.419 . S
C1557 C1552 1.425 . S
C1557 C1554 1.409 . S
C1557 C1555 1.415 . S
C1558 H1548 0.930 . S
C1558 C1556 1.419 . S
C1558 C1559 1.362 . S
C1559 H1549 0.930 . S
C1559 C1552 1.409 . S
C1559 C1558 1.362 . S
H1560 C1566 0.930 . S
H1561 C1569 0.930 . S
H1562 C1570 0.930 . S
H1563 C1571 0.930 . S
H1564 C1574 0.930 . S
H1565 C1575 0.930 . S
C1566 H1560 0.930 . S
C1566 C1567 1.355 . S
C1566 C1568 1.415 . S
C1567 C1566 1.355 . S
C1567 C1569 1.419 . S
C1568 C1566 1.415 . S
C1568 C1573 1.425 . S
C1568 C1575 1.409 . S
C1569 H1561 0.930 . S
C1569 C1567 1.419 . S
C1569 C1570 1.362 . S
C1570 H1562 0.930 . S
C1570 C1569 1.362 . S
C1570 C1573 1.409 . S
C1571 H1563 0.930 . S
C1571 C1572 1.355 . S
C1571 C1573 1.415 . S
C1572 C1571 1.355 . S
C1572 C1574 1.419 . S
C1573 C1568 1.425 . S
C1573 C1570 1.409 . S
C1573 C1571 1.415 . S
C1574 H1564 0.930 . S
C1574 C1572 1.419 . S
C1574 C1575 1.362 . S
C1575 H1565 0.930 . S
C1575 C1568 1.409 . S
C1575 C1574 1.362 . S
H1576 C1582 0.930 . S
H1577 C1585 0.930 . S
H1578 C1586 0.930 . S
H1579 C1587 0.930 . S
H1580 C1590 0.930 . S
H1581 C1591 0.930 . S
C1582 H1576 0.930 . S
C1582 C1583 1.355 . S
C1582 C1584 1.415 . S
C1583 C1582 1.355 . S
C1583 C1585 1.419 1_545 S
C1584 C1582 1.415 . S
C1584 C1589 1.425 1_545 S
C1584 C1591 1.409 . S
C1585 H1577 0.930 . S
C1585 C1583 1.419 1_565 S
C1585 C1586 1.362 . S
C1586 H1578 0.930 . S
C1586 C1585 1.362 . S
C1586 C1589 1.409 . S
C1587 H1579 0.930 . S
C1587 C1588 1.355 . S
C1587 C1589 1.415 . S
C1588 C1587 1.355 . S
C1588 C1590 1.419 1_565 S
C1589 C1584 1.425 1_565 S
C1589 C1586 1.409 . S
C1589 C1587 1.415 . S
C1590 H1580 0.930 . S
C1590 C1588 1.419 1_545 S
C1590 C1591 1.362 . S
C1591 H1581 0.930 . S
C1591 C1584 1.409 . S
C1591 C1590 1.362 . S
H1592 C1598 0.930 . S
H1593 C1601 0.930 . S
H1594 C1602 0.930 . S
H1595 C1603 0.930 . S
H1596 C1606 0.930 . S
H1597 C1607 0.930 . S
C1598 H1592 0.930 . S
C1598 C1599 1.355 . S
C1598 C1600 1.415 . S
C1599 C1598 1.355 . S
C1599 C1601 1.419 1_655 S
C1600 C1598 1.415 . S
C1600 C1605 1.425 1_655 S
C1600 C1607 1.409 . S
C1601 H1593 0.930 . S
C1601 C1599 1.419 1_455 S
C1601 C1602 1.362 . S
C1602 H1594 0.930 . S
C1602 C1601 1.362 . S
C1602 C1605 1.409 . S
C1603 H1595 0.930 . S
C1603 C1604 1.355 . S
C1603 C1605 1.415 . S
C1604 C1603 1.355 . S
C1604 C1606 1.419 1_455 S
C1605 C1600 1.425 1_455 S
C1605 C1602 1.409 . S
C1605 C1603 1.415 . S
C1606 H1596 0.930 . S
C1606 C1604 1.419 1_655 S
C1606 C1607 1.362 . S
C1607 H1597 0.930 . S
C1607 C1600 1.409 . S
C1607 C1606 1.362 . S
H1608 C1614 0.930 . S
H1609 C1617 0.930 . S
H1610 C1618 0.930 . S
H1611 C1619 0.930 . S
H1612 C1622 0.930 . S
H1613 C1623 0.930 . S
C1614 H1608 0.930 . S
C1614 C1615 1.355 . S
C1614 C1616 1.415 . S
C1615 C1614 1.355 . S
C1615 C1617 1.419 . S
C1616 C1614 1.415 . S
C1616 C1621 1.425 . S
C1616 C1623 1.409 . S
C1617 H1609 0.930 . S
C1617 C1615 1.419 . S
C1617 C1618 1.362 . S
C1618 H1610 0.930 . S
C1618 C1617 1.362 . S
C1618 C1621 1.409 . S
C1619 H1611 0.930 . S
C1619 C1620 1.355 . S
C1619 C1621 1.415 . S
C1620 C1619 1.355 . S
C1620 C1622 1.419 . S
C1621 C1616 1.425 . S
C1621 C1618 1.409 . S
C1621 C1619 1.415 . S
C1622 H1612 0.930 . S
C1622 C1620 1.419 . S
C1622 C1623 1.362 . S
C1623 H1613 0.930 . S
C1623 C1616 1.409 . S
C1623 C1622 1.362 . S
H1624 C1630 0.930 . S
H1625 C1633 0.943 . S
H1626 C1634 0.930 . S
H1627 C1635 0.930 . S
H1628 C1638 0.943 . S
H1629 C1639 0.930 . S
C1630 H1624 0.930 . S
C1630 C1631 1.355 . S
C1630 C1632 1.415 . S
C1631 C1630 1.355 . S
C1631 C1633 1.383 1_545 S
C1632 C1630 1.415 . S
C1632 C1637 1.425 1_545 S
C1632 C1639 1.409 . S
C1633 H1625 0.943 . S
C1633 C1631 1.383 1_565 S
C1633 C1634 1.386 . S
C1634 H1626 0.930 . S
C1634 C1633 1.386 . S
C1634 C1637 1.409 . S
C1635 H1627 0.930 . S
C1635 C1636 1.355 . S
C1635 C1637 1.415 . S
C1636 C1635 1.355 . S
C1636 C1638 1.383 1_565 S
C1637 C1632 1.425 1_565 S
C1637 C1634 1.409 . S
C1637 C1635 1.415 . S
C1638 H1628 0.943 . S
C1638 C1636 1.383 1_545 S
C1638 C1639 1.387 . S
C1639 H1629 0.930 . S
C1639 C1632 1.409 . S
C1639 C1638 1.387 . S
H1640 C1646 0.930 . S
H1641 C1649 0.930 . S
H1642 C1650 0.930 . S
H1643 C1651 0.930 . S
H1644 C1654 0.930 . S
H1645 C1655 0.930 . S
C1646 H1640 0.930 . S
C1646 C1647 1.355 . S
C1646 C1648 1.415 . S
C1647 C1646 1.355 . S
C1647 C1649 1.419 . S
C1648 C1646 1.415 . S
C1648 C1653 1.425 1_455 S
C1648 C1655 1.409 . S
C1649 H1641 0.930 . S
C1649 C1647 1.419 . S
C1649 C1650 1.362 1_455 S
C1650 H1642 0.930 . S
C1650 C1649 1.362 1_655 S
C1650 C1653 1.409 . S
C1651 H1643 0.930 . S
C1651 C1652 1.355 . S
C1651 C1653 1.415 . S
C1652 C1651 1.355 . S
C1652 C1654 1.419 . S
C1653 C1648 1.425 1_655 S
C1653 C1650 1.409 . S
C1653 C1651 1.415 . S
C1654 H1644 0.930 . S
C1654 C1652 1.419 . S
C1654 C1655 1.362 1_655 S
C1655 H1645 0.930 . S
C1655 C1648 1.409 . S
C1655 C1654 1.362 1_455 S
C511 C79 0.848 . S
C516 C9 0.917 . S
C527 C51 0.845 . S
C532 C23 0.912 . S
C543 C37 0.877 . S
C548 C65 0.913 . S
C559 C93 0.906 . S
C564 C163 0.889 . S
C575 C107 0.917 . S
C580 C135 0.848 . S
C591 C149 0.889 . S
C596 C121 0.850 . S
C607 C177 0.888 . S
C612 C247 0.906 . S
C623 C191 0.897 . S
C628 C219 0.847 . S
C639 C233 0.920 . S
C644 C205 0.858 . S
C655 C331 0.851 . S
C660 C261 0.919 . S
C671 C303 0.901 . S
C676 C275 0.845 . S
C687 C289 0.884 . S
C692 C317 0.853 . S
C703 C415 0.876 . S
C708 C345 0.859 . S
C719 C387 0.844 . S
C724 C359 0.909 . S
C735 C373 0.898 . S
C740 C401 0.898 . S
C751 C499 0.920 . S
C756 C429 0.854 . S
C767 C471 0.851 . S
C772 C443 0.888 . S
C783 C485 0.920 . S
C788 C457 0.856 . S
C799 C231 1.739 . S
C804 C7 1.704 . S
C815 C245 1.713 . S
C820 C21 1.737 . S
C831 C217 1.670 . S
C836 C35 1.659 . S
C847 C49 1.717 . S
C852 C371 1.658 1_554 S
C863 C63 1.724 . S
C868 C343 1.731 1_554 S
C879 C77 1.738 . S
C884 C357 1.712 1_554 S
C895 C91 1.711 . S
C900 C483 1.737 . S
C911 C497 1.730 . S
C916 C105 1.670 . S
C927 C469 1.697 . S
C932 C119 1.652 . S
C943 C287 1.689 1_556 S
C948 C133 1.739 . S
C959 C259 1.661 1_556 S
C964 C147 1.667 . S
C975 C161 1.702 . S
C980 C273 1.652 1_556 S
C991 C175 1.676 . S
C996 C399 1.734 . S
C1007 C413 1.652 . S
C1012 C189 1.696 . S
C1023 C385 1.729 . S
C1028 C203 1.668 . S
C1039 C301 1.690 . S
C1044 C455 1.652 . S
C1055 C427 1.665 . S
C1060 C315 1.663 . S
C1071 C329 1.697 . S
C1076 C441 1.652 . S
C1087 C260 1.615 . S
C1092 C8 1.615 . S
C1103 C274 1.607 . S
C1108 C22 1.607 . S
C1119 C36 1.616 . S
C1124 C288 1.616 . S
C1135 C50 1.601 . S
C1140 C470 1.601 . S
C1151 C484 1.582 . S
C1156 C64 1.582 . S
C1167 C498 1.582 . S
C1172 C78 1.582 . S
C1183 C92 1.581 . S
C1188 C344 1.581 . S
C1199 C106 1.591 . S
C1204 C358 1.591 . S
C1215 C372 1.606 . S
C1220 C120 1.606 . S
C1231 C134 1.603 . S
C1236 C218 1.603 . S
C1247 C148 1.598 . S
C1252 C232 1.598 . S
C1263 C246 1.605 . S
C1268 C162 1.605 . S
C1279 C176 1.609 . S
C1284 C428 1.609 . S
C1295 C190 1.601 . S
C1300 C442 1.601 . S
C1311 C456 1.616 . S
C1316 C204 1.616 . S
C1327 C386 1.580 . S
C1332 C302 1.580 . S
C1343 C316 1.583 . S
C1348 C400 1.583 . S
C1359 C330 1.587 . S
C1364 C414 1.587 . S
C1375 C381 1.685 1_554 S
C1380 C3 1.625 . S
C1391 C17 1.681 . S
C1396 C395 1.668 1_554 S
C1407 C409 1.656 1_554 S
C1412 C31 1.634 . S
C1423 C45 1.674 . S
C1428 C171 1.624 . S
C1439 C185 1.691 . S
C1444 C59 1.630 . S
C1455 C199 1.669 . S
C1460 C73 1.680 . S
C1471 C87 1.633 . S
C1476 C297 1.655 1_556 S
C1487 C311 1.692 1_556 S
C1492 C101 1.648 . S
C1503 C115 1.647 . S
C1508 C325 1.692 1_556 S
C1519 C129 1.684 . S
C1524 C423 1.625 . S
C1535 C143 1.691 . S
C1540 C437 1.651 . S
C1551 C451 1.688 . S
C1556 C157 1.657 . S
C1567 C213 1.626 . S
C1572 C339 1.669 . S
C1583 C227 1.660 . S
C1588 C353 1.686 . S
C1599 C241 1.658 . S
C1604 C367 1.688 . S
C1615 C255 1.625 . S
C1620 C465 1.671 . S
C1631 C269 1.689 . S
C1636 C479 1.654 . S
C1647 C493 1.693 . S
C1652 C283 1.635 . S
