# Generated by pormake.
# Topology mok, (4)-cn, num edge types: 1
# Building blocks:
#     Node 0, Type 0, BuildingBlock: ICAMEG_clean_sbu_1, # of connection points: 4
#     Node 1, Type 0, BuildingBlock: ICAMEG_clean_sbu_1, # of connection points: 4
#     Node 2, Type 0, BuildingBlock: ICAMEG_clean_sbu_1, # of connection points: 4
#     Node 3, Type 0, BuildingBlock: ICAMEG_clean_sbu_1, # of connection points: 4
#     Node 4, Type 0, BuildingBlock: ICAMEG_clean_sbu_1, # of connection points: 4
#     Node 5, Type 0, BuildingBlock: ICAMEG_clean_sbu_1, # of connection points: 4
#     Node 6, Type 0, BuildingBlock: ICAMEG_clean_sbu_1, # of connection points: 4
#     Node 7, Type 0, BuildingBlock: ICAMEG_clean_sbu_1, # of connection points: 4
#     Edge 8, Type (0, 0), BuildingBlock: OJICUG_clean_linker_0, # of connection points: 2
#     Edge 9, Type (0, 0), BuildingBlock: OJICUG_clean_linker_0, # of connection points: 2
#     Edge 10, Type (0, 0), BuildingBlock: OJICUG_clean_linker_0, # of connection points: 2
#     Edge 11, Type (0, 0), BuildingBlock: OJICUG_clean_linker_0, # of connection points: 2
#     Edge 12, Type (0, 0), BuildingBlock: OJICUG_clean_linker_0, # of connection points: 2
#     Edge 13, Type (0, 0), BuildingBlock: OJICUG_clean_linker_0, # of connection points: 2
#     Edge 14, Type (0, 0), BuildingBlock: OJICUG_clean_linker_0, # of connection points: 2
#     Edge 15, Type (0, 0), BuildingBlock: OJICUG_clean_linker_0, # of connection points: 2
#     Edge 16, Type (0, 0), BuildingBlock: OJICUG_clean_linker_0, # of connection points: 2
#     Edge 17, Type (0, 0), BuildingBlock: OJICUG_clean_linker_0, # of connection points: 2
#     Edge 18, Type (0, 0), BuildingBlock: OJICUG_clean_linker_0, # of connection points: 2
#     Edge 19, Type (0, 0), BuildingBlock: OJICUG_clean_linker_0, # of connection points: 2
#     Edge 20, Type (0, 0), BuildingBlock: OJICUG_clean_linker_0, # of connection points: 2
#     Edge 21, Type (0, 0), BuildingBlock: OJICUG_clean_linker_0, # of connection points: 2
#     Edge 22, Type (0, 0), BuildingBlock: OJICUG_clean_linker_0, # of connection points: 2
#     Edge 23, Type (0, 0), BuildingBlock: OJICUG_clean_linker_0, # of connection points: 2
# Relax obj value: 0.014
# Max RMSD: 0.046
# Mean RMSD: 0.046
data_MOF--net-mok--node1-ICAMEG_clean_sbu_1--edge1-OJICUG_clean_linker_0
_symmetry_space_group_name_H-M    P1
_symmetry_Int_Tables_number       1
_symmetry_cell_setting            triclinic
loop_
_symmetry_equiv_pos_as_xyz
'x, y, z'
_cell_length_a     43.188942
_cell_length_b     11.049288
_cell_length_c     22.470702
_cell_angle_alpha  89.992058
_cell_angle_beta   89.986111
_cell_angle_gamma 90.031941
loop_
_atom_site_label
_atom_site_type_symbol
_atom_site_fract_x
_atom_site_fract_y
_atom_site_fract_z
_atom_type_partial_charge
Co0 Co 0.64202 0.47621 0.06045 0.0
Co1 Co 0.62318 0.18851 0.01309 0.0
O2 O 0.61707 0.32813 0.066 0.0
C3 C 0.63285 0.42525 0.19135 0.0
O4 O 0.61825 0.3243 0.17942 0.0
C5 C 0.55938 0.15449 0.06031 0.0
O6 O 0.56979 0.19549 0.11139 0.0
O7 O 0.61784 0.29591 0.94247 0.0
O8 O 0.642 0.46553 0.97174 0.0
H9 H 0.67565 0.82001 0.9271 0.0
H10 H 0.58163 0.47668 0.12542 0.0
O11 O 0.64291 0.49334 0.14978 0.0
H12 H 0.57267 0.79592 0.9734 0.0
H13 H 0.68497 0.87811 0.1278 0.0
H14 H 0.69428 0.54637 0.98304 0.0
H15 H 0.6211 0.67978 0.98408 0.0
H16 H 0.64713 0.70978 0.12771 0.0
O17 O 0.57693 0.15698 0.01457 0.0
H18 H 0.66977 0.98978 0.99814 0.0
H19 H 0.58661 0.09608 0.9121 0.0
H20 H 0.73096 0.71478 0.97931 0.0
H21 H 0.53322 0.59273 0.1174 0.0
H22 H 0.7272 0.88132 0.05333 0.0
H23 H 0.52842 0.75267 0.0405 0.0
O24 O 0.68042 0.38059 0.06424 0.0
H25 H 0.59612 0.82893 0.14018 0.0
H26 H 0.6601 0.19658 0.12644 0.0
H27 H 0.66055 0.07772 0.21872 0.0
H28 H 0.62761 0.89414 0.22694 0.0
H29 H 0.59732 0.94866 0.04782 0.0
H30 H 0.58972 0.91952 0.84576 0.0
H31 H 0.63496 0.78446 0.85138 0.0
O32 O 0.66979 0.21572 0.00968 0.0
C33 C 0.62972 0.39938 0.93176 0.0
C34 C 0.65586 0.87939 0.92448 0.0
C35 C 0.6077 0.93574 0.87833 0.0
N36 N 0.62795 0.05291 0.95929 0.0
C37 C 0.65266 0.97646 0.96381 0.0
C38 C 0.60588 0.0345 0.91665 0.0
C39 C 0.63308 0.85906 0.88182 0.0
C40 C 0.58011 0.54798 0.09286 0.0
N41 N 0.60449 0.57258 0.05603 0.0
C42 C 0.55248 0.61288 0.08819 0.0
C43 C 0.54976 0.70265 0.045 0.0
C44 C 0.5746 0.72671 0.00727 0.0
C45 C 0.60198 0.66084 0.01365 0.0
C46 C 0.68659 0.80688 0.09511 0.0
C47 C 0.69135 0.62066 0.01372 0.0
C48 C 0.66529 0.71151 0.09485 0.0
N49 N 0.66797 0.61942 0.05472 0.0
C50 C 0.71275 0.71502 0.0122 0.0
C51 C 0.71047 0.8084 0.05346 0.0
C52 C 0.68899 0.28887 0.03438 0.0
C53 C 0.61039 0.90929 0.13741 0.0
C54 C 0.64651 0.11517 0.12848 0.0
C55 C 0.64655 0.04871 0.18141 0.0
C56 C 0.62803 0.9459 0.18605 0.0
N57 N 0.6282 0.0817 0.08175 0.0
C58 C 0.61135 0.97702 0.08499 0.0
Co59 Co 0.37004 0.51964 0.06453 0.0
Co60 Co 0.38586 0.81205 0.01568 0.0
O61 O 0.39315 0.6728 0.06885 0.0
C62 C 0.37662 0.58053 0.19529 0.0
O63 O 0.3916 0.68039 0.18285 0.0
C64 C 0.45012 0.84675 0.06042 0.0
O65 O 0.44025 0.80353 0.11148 0.0
O66 O 0.39052 0.70437 0.94489 0.0
O67 O 0.37311 0.52259 0.97624 0.0
H68 H 0.32684 0.16235 0.92671 0.0
H69 H 0.42943 0.53895 0.13282 0.0
O70 O 0.3669 0.51082 0.15405 0.0
H71 H 0.44438 0.20219 0.99223 0.0
H72 H 0.32396 0.13429 0.14446 0.0
H73 H 0.32217 0.43146 0.98156 0.0
H74 H 0.39441 0.30927 0.99705 0.0
H75 H 0.36394 0.29403 0.13835 0.0
O76 O 0.43204 0.8462 0.01538 0.0
H77 H 0.33594 -0.00187 0.999 0.0
H78 H 0.42215 0.92002 0.91626 0.0
H79 H 0.28278 0.27255 0.98505 0.0
H80 H 0.47927 0.43216 0.13071 0.0
H81 H 0.28271 0.12447 0.06809 0.0
H82 H 0.48718 0.26391 0.05949 0.0
O83 O 0.33018 0.60725 0.06205 0.0
H84 H 0.41407 0.16816 0.14382 0.0
H85 H 0.34879 0.80406 0.12842 0.0
H86 H 0.34902 0.92062 0.22157 0.0
H87 H 0.38279 0.10178 0.23066 0.0
H88 H 0.41184 0.0518 0.05039 0.0
H89 H 0.41614 0.09745 0.851 0.0
H90 H 0.36741 0.21598 0.85407 0.0
O91 O 0.33977 0.78172 0.01441 0.0
C92 C 0.383 0.59389 0.93604 0.0
C93 C 0.34822 0.11199 0.92586 0.0
C94 C 0.39815 0.07431 0.88252 0.0
N95 N 0.37955 0.94837 0.96213 0.0
C96 C 0.35325 0.0168 0.96562 0.0
C97 C 0.40165 0.97517 0.92052 0.0
C98 C 0.37098 0.14164 0.88459 0.0
C99 C 0.43218 0.46367 0.10295 0.0
N100 N 0.40863 0.42935 0.06603 0.0
C101 C 0.46066 0.40403 0.10156 0.0
C102 C 0.4651 0.30945 0.06155 0.0
C103 C 0.4411 0.27509 0.02379 0.0
C104 C 0.41282 0.33597 0.02688 0.0
C105 C 0.32401 0.19752 0.10783 0.0
C106 C 0.32344 0.3645 0.01646 0.0
C107 C 0.34655 0.28817 0.10417 0.0
N108 N 0.34563 0.37213 0.05967 0.0
C109 C 0.30058 0.27555 0.01878 0.0
C110 C 0.30074 0.19214 0.06509 0.0
C111 C 0.32121 0.7025 0.03559 0.0
C112 C 0.39955 0.08853 0.14072 0.0
C113 C 0.36268 0.88484 0.13094 0.0
C114 C 0.36303 0.94983 0.18429 0.0
C115 C 0.38203 0.05122 0.18943 0.0
N116 N 0.38109 0.9184 0.08436 0.0
C117 C 0.39808 0.02262 0.0878 0.0
Co118 Co 0.64205 0.52344 0.56601 0.0
Co119 Co 0.62569 0.81485 0.61469 0.0
O120 O 0.61838 0.67494 0.56202 0.0
C121 C 0.6338 0.58136 0.43536 0.0
O122 O 0.61878 0.68097 0.44793 0.0
C123 C 0.56132 0.84684 0.57084 0.0
O124 O 0.5711 0.8031 0.51986 0.0
O125 O 0.6215 0.70742 0.68569 0.0
O126 O 0.64033 0.52788 0.65454 0.0
H127 H 0.68306 0.17381 0.69905 0.0
H128 H 0.58183 0.53675 0.50037 0.0
O129 O 0.64398 0.51248 0.47649 0.0
H130 H 0.56978 0.20451 0.64466 0.0
H131 H 0.68623 0.13273 0.48833 0.0
H132 H 0.69242 0.44217 0.64523 0.0
H133 H 0.61932 0.31393 0.6364 0.0
H134 H 0.64692 0.29499 0.49451 0.0
O135 O 0.57949 0.84736 0.61572 0.0
H136 H 0.67402 0.00748 0.62769 0.0
H137 H 0.59018 0.91826 0.71607 0.0
H138 H 0.7313 0.28085 0.64162 0.0
H139 H 0.53235 0.42743 0.50586 0.0
H140 H 0.72892 0.12597 0.56169 0.0
H141 H 0.52592 0.26146 0.579 0.0
O142 O 0.68139 0.61428 0.56551 0.0
H143 H 0.5965 0.17086 0.48723 0.0
H144 H 0.66171 0.80658 0.50055 0.0
H145 H 0.66083 0.92337 0.40752 0.0
H146 H 0.62718 0.1049 0.39954 0.0
H147 H 0.59922 0.05381 0.58037 0.0
H148 H 0.59585 0.09693 0.78085 0.0
H149 H 0.64348 0.22174 0.77457 0.0
O150 O 0.672 0.78639 0.61525 0.0
C151 C 0.62993 0.59808 0.69472 0.0
C152 C 0.66226 0.12003 0.70166 0.0
C153 C 0.61352 0.07567 0.74838 0.0
N154 N 0.63182 0.95169 0.66788 0.0
C155 C 0.65738 0.02376 0.66247 0.0
C156 C 0.61021 0.97586 0.71074 0.0
C157 C 0.64004 0.14663 0.74447 0.0
C158 C 0.57969 0.46247 0.53106 0.0
N159 N 0.60381 0.43079 0.56716 0.0
C160 C 0.55142 0.40139 0.53436 0.0
C161 C 0.54781 0.30811 0.57543 0.0
C162 C 0.5724 0.27642 0.61231 0.0
C163 C 0.60044 0.3386 0.60729 0.0
C164 C 0.68718 0.19877 0.52367 0.0
C165 C 0.69023 0.37253 0.61176 0.0
C166 C 0.66502 0.29069 0.5274 0.0
N167 N 0.66705 0.37751 0.5704 0.0
C168 C 0.71277 0.28231 0.6093 0.0
C169 C 0.7113 0.19526 0.5647 0.0
C170 C 0.69055 0.70904 0.59225 0.0
C171 C 0.61101 0.09121 0.48986 0.0
C172 C 0.64785 0.88736 0.49851 0.0
C173 C 0.64712 0.95252 0.4452 0.0
C174 C 0.62819 0.05414 0.44069 0.0
N175 N 0.62986 0.92093 0.54566 0.0
C176 C 0.61279 0.02496 0.54266 0.0
Co177 Co 0.3697 0.47502 0.57034 0.0
Co178 Co 0.38847 0.18673 0.61711 0.0
O179 O 0.39459 0.32689 0.56448 0.0
C180 C 0.37862 0.4247 0.43933 0.0
O181 O 0.39335 0.32398 0.45107 0.0
C182 C 0.45234 0.1547 0.57042 0.0
O183 O 0.44199 0.19593 0.51934 0.0
O184 O 0.39364 0.29348 0.68789 0.0
O185 O 0.36985 0.46399 0.659 0.0
H186 H 0.33582 0.81841 0.70311 0.0
H187 H 0.43004 0.47579 0.5052 0.0
O188 O 0.36865 0.49253 0.48104 0.0
H189 H 0.43913 0.7948 0.6573 0.0
H190 H 0.32639 0.8756 0.50254 0.0
H191 H 0.31753 0.54484 0.64807 0.0
H192 H 0.3907 0.67848 0.64672 0.0
H193 H 0.36463 0.70887 0.50343 0.0
O194 O 0.43468 0.15617 0.61599 0.0
H195 H 0.34201 0.98709 0.63153 0.0
H196 H 0.42487 0.09479 0.71836 0.0
H197 H 0.28022 0.71128 0.65071 0.0
H198 H 0.47848 0.5919 0.51317 0.0
H199 H 0.2837 0.87673 0.57608 0.0
H200 H 0.48335 0.75173 0.59009 0.0
O201 O 0.33133 0.37932 0.56656 0.0
H202 H 0.41577 0.82753 0.49006 0.0
H203 H 0.35168 0.19465 0.50362 0.0
H204 H 0.35114 0.07529 0.4115 0.0
H205 H 0.38411 0.89193 0.4034 0.0
H206 H 0.41465 0.94768 0.58227 0.0
H207 H 0.42142 0.91942 0.7854 0.0
H208 H 0.37614 0.78455 0.77973 0.0
O209 O 0.34185 0.21293 0.62009 0.0
C210 C 0.38202 0.39717 0.6988 0.0
C211 C 0.35562 0.87781 0.70577 0.0
C212 C 0.4036 0.93502 0.75245 0.0
N213 N 0.38369 0.05086 0.67075 0.0
C214 C 0.35901 0.97423 0.66611 0.0
C215 C 0.40561 0.03307 0.71373 0.0
C216 C 0.3782 0.85837 0.74891 0.0
C217 C 0.43159 0.54701 0.53779 0.0
N218 N 0.40724 0.57147 0.57469 0.0
C219 C 0.45924 0.61196 0.54243 0.0
C220 C 0.46199 0.70167 0.58563 0.0
C221 C 0.43718 0.72563 0.62342 0.0
C222 C 0.40979 0.65967 0.61709 0.0
C223 C 0.32483 0.80454 0.53538 0.0
C224 C 0.32034 0.61893 0.61721 0.0
C225 C 0.34638 0.71015 0.53611 0.0
N226 N 0.34377 0.61812 0.57631 0.0
C227 C 0.29862 0.71215 0.61815 0.0
C228 C 0.30075 0.80506 0.57658 0.0
C229 C 0.32272 0.28648 0.59556 0.0
C230 C 0.40149 0.90778 0.49278 0.0
C231 C 0.36531 0.11338 0.5016 0.0
C232 C 0.36521 0.04662 0.44878 0.0
C233 C 0.38374 0.94393 0.4442 0.0
N234 N 0.38367 0.08023 0.54831 0.0
C235 C 0.40058 0.97579 0.5451 0.0
Co236 Co 0.14168 0.97217 0.06264 0.0
Co237 Co 0.1231 0.6836 0.01588 0.0
O238 O 0.11685 0.82365 0.06853 0.0
C239 C 0.13286 0.92164 0.19369 0.0
O240 O 0.11809 0.82091 0.18202 0.0
C241 C 0.05919 0.64938 0.06261 0.0
O242 O 0.06941 0.69043 0.11382 0.0
O243 O 0.1178 0.79037 0.94509 0.0
O244 O 0.14149 0.96121 0.97396 0.0
H245 H 0.17623 0.31698 0.9295 0.0
H246 H 0.08137 0.97181 0.12772 0.0
O247 O 0.14277 0.98957 0.15193 0.0
H248 H 0.07208 0.29131 0.97589 0.0
H249 H 0.18512 0.37243 0.1308 0.0
H250 H 0.19374 0.04281 0.98468 0.0
H251 H 0.12062 0.17585 0.98647 0.0
H252 H 0.14682 0.20575 0.12974 0.0
O253 O 0.07689 0.65198 0.01708 0.0
H254 H 0.1698 0.48505 0.0013 0.0
H255 H 0.08675 0.59095 0.91469 0.0
H256 H 0.23122 0.20899 0.9824 0.0
H257 H 0.03282 0.08692 0.11969 0.0
H258 H 0.22779 0.37397 0.05723 0.0
H259 H 0.02784 0.24674 0.04285 0.0
O260 O 0.18009 0.87708 0.06643 0.0
H261 H 0.09603 0.32419 0.14305 0.0
H262 H 0.15986 0.69227 0.12939 0.0
H263 H 0.1604 0.57322 0.22162 0.0
H264 H 0.12754 0.38942 0.22979 0.0
H265 H 0.09723 0.44383 0.05067 0.0
H266 H 0.09043 0.41597 0.84748 0.0
H267 H 0.13595 0.28244 0.85288 0.0
O268 O 0.16972 0.71065 0.01285 0.0
C269 C 0.12934 0.89428 0.93417 0.0
C270 C 0.15632 0.37578 0.92697 0.0
C271 C 0.10823 0.43189 0.88043 0.0
N272 N 0.128 0.54787 0.96222 0.0
C273 C 0.1528 0.47187 0.96676 0.0
C274 C 0.10609 0.52969 0.91926 0.0
C275 C 0.13376 0.35595 0.88383 0.0
C276 C 0.07977 0.04313 0.09519 0.0
N277 N 0.10411 0.06818 0.05835 0.0
C278 C 0.05206 0.10751 0.09052 0.0
C279 C 0.04926 0.19729 0.04737 0.0
C280 C 0.07408 0.22201 0.00971 0.0
C281 C 0.10153 0.15655 0.01604 0.0
C282 C 0.18662 0.30164 0.09783 0.0
C283 C 0.19097 0.1167 0.01565 0.0
C284 C 0.16503 0.2073 0.09698 0.0
N285 N 0.16757 0.11558 0.05662 0.0
C286 C 0.21278 0.20977 0.01489 0.0
C287 C 0.2107 0.30238 0.05661 0.0
C288 C 0.18878 0.78452 0.0374 0.0
C289 C 0.11027 0.40464 0.1403 0.0
C290 C 0.1463 0.61076 0.13142 0.0
C291 C 0.1464 0.54418 0.18431 0.0
C292 C 0.12792 0.44125 0.18893 0.0
N293 N 0.12802 0.57714 0.08467 0.0
C294 C 0.11121 0.47237 0.08789 0.0
Co295 Co 0.86841 0.01546 0.05672 0.0
Co296 Co 0.88694 0.30547 0.01082 0.0
O297 O 0.89267 0.16538 0.06362 0.0
C298 C 0.87529 0.06867 0.18788 0.0
O299 O 0.88976 0.17007 0.17627 0.0
C300 C 0.95031 0.33977 0.06021 0.0
O301 O 0.9395 0.29853 0.11096 0.0
O302 O 0.89306 0.19917 0.94008 0.0
O303 O 0.87043 0.02543 0.96819 0.0
H304 H 0.83305 0.66499 0.91895 0.0
H305 H 0.92778 0.02126 0.12514 0.0
O306 O 0.86587 -0.00021 0.14608 0.0
H307 H 0.94028 0.69682 0.97677 0.0
H308 H 0.82217 0.62114 0.12665 0.0
H309 H 0.8196 0.93838 0.97341 0.0
H310 H 0.89126 0.81017 0.98369 0.0
H311 H 0.86134 0.7846 0.12644 0.0
O312 O 0.93312 0.33746 0.01397 0.0
H313 H 0.83908 0.49911 0.99203 0.0
H314 H 0.92493 0.40241 0.91273 0.0
H315 H 0.78153 0.77534 0.97015 0.0
H316 H 0.97677 0.90837 0.12073 0.0
H317 H 0.78147 0.61795 0.04885 0.0
H318 H 0.98339 0.74618 0.04563 0.0
O319 O 0.82939 0.10798 0.05691 0.0
H320 H 0.91221 0.66478 0.1393 0.0
H321 H 0.84834 0.29735 0.12205 0.0
H322 H 0.8464 0.41664 0.21415 0.0
H323 H 0.87931 0.59987 0.22422 0.0
H324 H 0.91238 0.54502 0.04691 0.0
H325 H 0.92155 0.57657 0.84512 0.0
H326 H 0.8748 0.70393 0.84596 0.0
O327 O 0.84051 0.27783 0.00626 0.0
C328 C 0.88239 0.09398 0.92882 0.0
C329 C 0.85357 0.60934 0.91875 0.0
C330 C 0.90317 0.55902 0.87669 0.0
N331 N 0.88243 0.44131 0.95704 0.0
C332 C 0.85694 0.51433 0.95923 0.0
C333 C 0.90514 0.46176 0.91587 0.0
C334 C 0.87696 0.63159 0.87757 0.0
C335 C 0.93005 0.94885 0.09338 0.0
N336 N 0.90634 0.92127 0.0555 0.0
C337 C 0.95802 0.88571 0.09076 0.0
C338 C 0.96174 0.79457 0.04859 0.0
C339 C 0.93757 0.76718 0.00987 0.0
C340 C 0.90983 0.83148 0.01415 0.0
C341 C 0.82204 0.68916 0.09215 0.0
C342 C 0.82108 0.86725 0.00608 0.0
C343 C 0.84413 0.7818 0.09179 0.0
N344 N 0.84312 0.87069 0.04965 0.0
C345 C 0.79888 0.77595 0.00476 0.0
C346 C 0.79914 0.68718 0.04855 0.0
C347 C 0.82123 0.2021 0.02853 0.0
C348 C 0.898 0.58438 0.13578 0.0
C349 C 0.86197 0.37864 0.1249 0.0
C350 C 0.86105 0.44535 0.1777 0.0
C351 C 0.87955 0.54799 0.18338 0.0
N352 N 0.8811 0.41179 0.07933 0.0
C353 C 0.89786 0.51654 0.08338 0.0
Co354 Co 0.14184 0.01688 0.56851 0.0
Co355 Co 0.12567 0.30903 0.61703 0.0
O356 O 0.11864 0.16963 0.56385 0.0
C357 C 0.13548 0.0774 0.43769 0.0
O358 O 0.12056 0.17735 0.45004 0.0
C359 C 0.06176 0.34315 0.57093 0.0
O360 O 0.07202 0.30007 0.52016 0.0
O361 O 0.12073 0.20137 0.6878 0.0
O362 O 0.1386 0.02014 0.65681 0.0
H363 H 0.18416 0.6601 0.70673 0.0
H364 H 0.08259 0.03459 0.49962 0.0
O365 O 0.14512 0.00768 0.479 0.0
H366 H 0.06758 0.69871 0.64079 0.0
H367 H 0.1883 0.63137 0.48973 0.0
H368 H 0.18954 0.92992 0.65201 0.0
H369 H 0.11746 0.80665 0.63622 0.0
H370 H 0.14832 0.79108 0.49494 0.0
O371 O 0.07949 0.34273 0.61649 0.0
H372 H 0.17543 0.49573 0.63436 0.0
H373 H 0.08894 0.41653 0.71586 0.0
H374 H 0.22882 0.77088 0.64954 0.0
H375 H 0.03287 0.92674 0.5014 0.0
H376 H 0.22925 0.62232 0.56672 0.0
H377 H 0.0249 0.759 0.57299 0.0
O378 O 0.18162 0.10522 0.57114 0.0
H379 H 0.09812 0.66553 0.48862 0.0
H380 H 0.16316 0.30123 0.50472 0.0
H381 H 0.1634 0.4182 0.41171 0.0
H382 H 0.12976 0.5995 0.40224 0.0
H383 H 0.09986 0.54871 0.58196 0.0
H384 H 0.09465 0.59374 0.78136 0.0
H385 H 0.14332 0.71295 0.77893 0.0
O386 O 0.17176 0.27919 0.61899 0.0
C387 C 0.12841 0.09114 0.69683 0.0
C388 C 0.16281 0.60942 0.70733 0.0
C389 C 0.11276 0.57097 0.75003 0.0
N390 N 0.1317 0.44543 0.67063 0.0
C391 C 0.15799 0.51418 0.6675 0.0
C392 C 0.10944 0.47191 0.71193 0.0
C393 C 0.1399 0.63865 0.74833 0.0
C394 C 0.07983 0.95951 0.52964 0.0
N395 N 0.10332 0.92595 0.56687 0.0
C396 C 0.05141 0.89929 0.53085 0.0
C397 C 0.04694 0.80499 0.57103 0.0
C398 C 0.07087 0.77143 0.60911 0.0
C399 C 0.09911 0.8328 0.60617 0.0
C400 C 0.18812 0.69492 0.52622 0.0
C401 C 0.18837 0.86265 0.61724 0.0
C402 C 0.16558 0.78554 0.52938 0.0
N403 N 0.16633 0.8698 0.57375 0.0
C404 C 0.2112 0.77367 0.61547 0.0
C405 C 0.21122 0.68993 0.56932 0.0
C406 C 0.19044 0.2005 0.59779 0.0
C407 C 0.11259 0.58587 0.49188 0.0
C408 C 0.14932 0.38204 0.50207 0.0
C409 C 0.14924 0.44728 0.44878 0.0
C410 C 0.13031 0.54876 0.44343 0.0
N411 N 0.13073 0.41544 0.54839 0.0
C412 C 0.11379 0.5197 0.54476 0.0
Co413 Co 0.87181 0.97422 0.56274 0.0
Co414 Co 0.8878 0.68194 0.61156 0.0
O415 O 0.89501 0.82128 0.55827 0.0
C416 C 0.87778 0.91342 0.43185 0.0
O417 O 0.89329 0.81459 0.44378 0.0
C418 C 0.95217 0.6481 0.5676 0.0
O419 O 0.94243 0.69014 0.51623 0.0
O420 O 0.89219 0.78977 0.6823 0.0
O421 O 0.87504 0.97174 0.65095 0.0
H422 H 0.82956 0.32835 0.69952 0.0
H423 H 0.93095 0.95657 0.49346 0.0
O424 O 0.86829 0.9828 0.47338 0.0
H425 H 0.94627 0.29172 0.63487 0.0
H426 H 0.82613 0.36008 0.48319 0.0
H427 H 0.8235 0.061 0.64526 0.0
H428 H 0.89632 0.18427 0.63037 0.0
H429 H 0.86611 0.20048 0.48971 0.0
O430 O 0.93397 0.64908 0.61242 0.0
H431 H 0.83863 0.49249 0.62706 0.0
H432 H 0.92374 0.5774 0.71215 0.0
H433 H 0.784 0.21982 0.64134 0.0
H434 H 0.98072 0.06415 0.49505 0.0
H435 H 0.7844 0.36861 0.55862 0.0
H436 H 0.98884 0.23163 0.56672 0.0
O437 O 0.83207 0.88584 0.56546 0.0
H438 H 0.91648 0.32568 0.48386 0.0
H439 H 0.85102 0.6891 0.49858 0.0
H440 H 0.85143 0.57212 0.40555 0.0
H441 H 0.88525 0.39116 0.39685 0.0
H442 H 0.91411 0.4426 0.57714 0.0
H443 H 0.91786 0.4006 0.77793 0.0
H444 H 0.86964 0.27885 0.77378 0.0
O445 O 0.84165 0.71076 0.61249 0.0
C446 C 0.88488 0.90041 0.6911 0.0
C447 C 0.85069 0.38033 0.70096 0.0
C448 C 0.90005 0.42209 0.74578 0.0
N449 N 0.88163 0.54568 0.6652 0.0
C450 C 0.85566 0.4754 0.66108 0.0
C451 C 0.90348 0.52088 0.70753 0.0
C452 C 0.87318 0.35293 0.7431 0.0
C453 C 0.93377 0.03153 0.52351 0.0
N454 N 0.91035 0.06508 0.56088 0.0
C455 C 0.96223 0.09158 0.52463 0.0
C456 C 0.96679 0.18569 0.56488 0.0
C457 C 0.94292 0.21918 0.60313 0.0
C458 C 0.91464 0.15805 0.60024 0.0
C459 C 0.82598 0.29645 0.51965 0.0
C460 C 0.82494 0.12848 0.61059 0.0
C461 C 0.84851 0.20595 0.52354 0.0
N462 N 0.84734 0.12143 0.56775 0.0
C463 C 0.80204 0.2173 0.60803 0.0
C464 C 0.80244 0.30113 0.5619 0.0
C465 C 0.82308 0.78985 0.59129 0.0
C466 C 0.90193 0.40517 0.48681 0.0
C467 C 0.86497 0.60853 0.49618 0.0
C468 C 0.86542 0.54327 0.44291 0.0
C469 C 0.88444 0.44199 0.43799 0.0
N470 N 0.88332 0.57535 0.54289 0.0
C471 C 0.90038 0.47137 0.53964 0.0
C472 C 0.76668 0.13432 0.01035 0.0
C473 C 0.78766 0.22705 0.02515 0.0
H474 H 0.71928 0.08139 -9e-05 0.0
C475 C 0.77606 0.34042 0.04141 0.0
H476 H 0.77491 0.04569 0.99785 0.0
C477 C 0.74408 0.36012 0.04425 0.0
C478 C 0.72292 0.26719 0.0297 0.0
H479 H 0.7918 0.4119 0.05437 0.0
H480 H 0.73601 0.44817 0.05849 0.0
C481 C 0.7347 0.15465 0.0117 0.0
C482 C 0.24356 0.85836 0.04551 0.0
C483 C 0.2227 0.76289 0.03382 0.0
H484 H 0.29094 0.91391 0.05417 0.0
C485 C 0.23477 0.64823 0.02038 0.0
H486 H 0.23526 0.94801 0.05635 0.0
C487 C 0.26682 0.6287 0.02068 0.0
C488 C 0.28749 0.72431 0.03246 0.0
H489 H 0.21952 0.57309 0.01097 0.0
H490 H 0.27538 0.53874 0.01152 0.0
C491 C 0.27554 0.83952 0.04405 0.0
C492 C 0.76864 0.8663 0.59996 0.0
C493 C 0.78929 0.76841 0.59454 0.0
H494 H 0.72145 0.92437 0.60494 0.0
C495 C 0.77723 0.65114 0.58989 0.0
H496 H 0.77715 0.95796 0.60347 0.0
C497 C 0.74521 0.63229 0.58919 0.0
C498 C 0.72447 0.73014 0.59475 0.0
H499 H 0.79254 0.57453 0.58482 0.0
H500 H 0.73678 0.54077 0.58398 0.0
C501 C 0.73662 0.84719 0.60094 0.0
C502 C 0.23586 0.33869 0.58856 0.0
C503 C 0.22411 0.22339 0.60086 0.0
H504 H 0.27597 0.44821 0.57569 0.0
C505 C 0.24493 0.12869 0.61315 0.0
H506 H 0.22031 0.41229 0.57799 0.0
C507 C 0.27695 0.14922 0.61327 0.0
C508 C 0.28883 0.26395 0.59916 0.0
H509 H 0.23651 0.03869 0.62284 0.0
H510 H 0.29232 0.07477 0.62314 0.0
C511 C 0.26781 0.35852 0.58697 0.0
C512 C 0.63559 0.38 0.2998 0.0
C513 C 0.63528 0.46541 0.25358 0.0
H514 H 0.6359 0.35006 0.39376 0.0
C515 C 0.63598 0.58934 0.26748 0.0
H516 H 0.63515 0.2839 0.29019 0.0
C517 C 0.63592 0.62723 0.32676 0.0
C518 C 0.63589 0.54175 0.37298 0.0
H519 H 0.63555 0.65698 0.23263 0.0
H520 H 0.63569 0.7233 0.33644 0.0
C521 C 0.63623 0.41785 0.35901 0.0
C522 C 0.37484 0.41699 0.27171 0.0
C523 C 0.37452 0.54086 0.25768 0.0
H524 H 0.37677 0.2832 0.34053 0.0
C525 C 0.37412 0.62635 0.30388 0.0
H526 H 0.37555 0.34917 0.23704 0.0
C527 C 0.3744 0.58851 0.36318 0.0
C528 C 0.37581 0.46468 0.37711 0.0
H529 H 0.37387 0.72241 0.29416 0.0
H530 H 0.37456 0.65622 0.39799 0.0
C531 C 0.3758 0.37924 0.33092 0.0
C532 C 0.36149 0.58339 0.83437 0.0
C533 C 0.38378 0.5457 0.87537 0.0
H534 H 0.34362 0.56675 0.74627 0.0
C535 C 0.40468 0.45378 0.85971 0.0
H536 H 0.34449 0.65117 0.84655 0.0
C537 C 0.40405 0.40372 0.80243 0.0
C538 C 0.38232 0.4445 0.76039 0.0
H539 H 0.42146 0.42101 0.89171 0.0
H540 H 0.42066 0.33409 0.79097 0.0
C541 C 0.36093 0.53429 0.77721 0.0
C542 C 0.60775 0.40885 0.8281 0.0
C543 C 0.62973 0.44719 0.87022 0.0
H544 H 0.59044 0.42864 0.73888 0.0
C545 C 0.65168 0.53521 0.85355 0.0
H546 H 0.59069 0.34073 0.83945 0.0
C547 C 0.65147 0.5848 0.79645 0.0
C548 C 0.62898 0.54935 0.75533 0.0
H549 H 0.66916 0.5659 0.88459 0.0
H550 H 0.66883 0.65136 0.78447 0.0
C551 C 0.60746 0.45947 0.7709 0.0
C552 C 0.13744 0.08528 0.26982 0.0
C553 C 0.13585 0.96149 0.2559 0.0
H554 H 0.13828 0.21916 0.33881 0.0
C555 C 0.13589 0.87602 0.3021 0.0
H556 H 0.13728 0.15303 0.23502 0.0
C557 C 0.13703 0.91374 0.36131 0.0
C558 C 0.13752 0.03761 0.37532 0.0
H559 H 0.13479 0.78 0.2925 0.0
H560 H 0.13632 0.84594 0.39601 0.0
C561 C 0.13791 0.12309 0.32911 0.0
C562 C 0.87452 0.86652 0.32335 0.0
C563 C 0.87441 0.95216 0.36951 0.0
H564 H 0.87429 0.83656 0.22923 0.0
C565 C 0.87272 0.07585 0.35542 0.0
H566 H 0.87574 0.77058 0.33308 0.0
C567 C 0.87236 0.11351 0.2962 0.0
C568 C 0.87302 0.02808 0.25005 0.0
H569 H 0.87287 0.14393 0.38998 0.0
H570 H 0.87194 0.20959 0.28652 0.0
C571 C 0.87349 0.90418 0.26404 0.0
C572 C 0.86305 0.90893 0.79235 0.0
C573 C 0.8854 0.94805 0.75184 0.0
H574 H 0.84478 0.92335 0.88007 0.0
C575 C 0.90606 0.04044 0.76812 0.0
H576 H 0.84618 0.841 0.77962 0.0
C577 C 0.9051 0.08958 0.82562 0.0
C578 C 0.88328 0.04727 0.86716 0.0
H579 H 0.92289 0.07433 0.73647 0.0
H580 H 0.92148 0.15974 0.8376 0.0
C581 C 0.86218 0.95694 0.84965 0.0
C582 C 0.15049 0.0312 0.85566 0.0
C583 C 0.12901 0.9417 0.87256 0.0
H584 H 0.16704 0.14777 0.78623 0.0
C585 C 0.10717 0.90135 0.8306 0.0
H586 H 0.16788 0.06334 0.88652 0.0
C587 C 0.10655 0.9515 0.77331 0.0
C588 C 0.12757 0.04307 0.75756 0.0
H589 H 0.09049 0.83195 0.84213 0.0
H590 H 0.0897 0.91899 0.74136 0.0
C591 C 0.14995 0.08032 0.79849 0.0
C592 C 0.49287 0.95701 0.11284 0.0
C593 C 0.47878 0.92163 0.05915 0.0
H594 H 0.52855 0.05946 0.1553 0.0
C595 C 0.4911 0.96595 0.00535 0.0
H596 H 0.48391 0.92603 0.1552 0.0
C597 C 0.5171 0.04246 0.00541 0.0
C598 C 0.53087 0.07876 0.05932 0.0
H599 H 0.48069 0.94133 0.96321 0.0
H600 H 0.5263 0.07372 0.96328 0.0
C601 C 0.51836 0.03498 0.11293 0.0
C602 C 0.52028 0.96545 0.62572 0.0
C603 C 0.53275 0.92191 0.57195 0.0
H604 H 0.48496 0.07261 0.66765 0.0
C605 C 0.51898 0.9584 0.51816 0.0
H606 H 0.53048 0.93998 0.66793 0.0
C607 C 0.49358 0.03665 0.51794 0.0
C608 C 0.48086 0.07944 0.57153 0.0
H609 H 0.52811 0.9281 0.47582 0.0
H610 H 0.48361 0.06198 0.47552 0.0
C611 C 0.49435 0.0421 0.62554 0.0
C612 C 0.01792 0.53364 0.00693 0.0
C613 C 0.0307 0.57361 0.06112 0.0
H614 H 0.98245 0.42916 0.96392 0.0
C615 C 0.01729 0.53295 0.11455 0.0
H616 H 0.02781 0.56234 0.96494 0.0
C617 C 0.99192 0.45428 0.11397 0.0
C618 C 0.97888 0.4152 0.05995 0.0
H619 H 0.02669 0.56036 0.15715 0.0
H620 H 0.98222 0.42568 0.15615 0.0
C621 C 0.99205 0.45662 0.00635 0.0
C622 C 0.01958 0.45781 0.62478 0.0
C623 C 0.03316 0.4181 0.57128 0.0
H624 H 0.98326 0.56126 0.66583 0.0
C625 C 0.02029 0.45749 0.51716 0.0
H626 H 0.02905 0.42995 0.66725 0.0
C627 C 0.99466 0.53456 0.51635 0.0
C628 C 0.98083 0.57357 0.56964 0.0
H629 H 0.03028 0.43018 0.47504 0.0
H630 H 0.98542 0.5621 0.47365 0.0
C631 C 0.99348 0.53365 0.62396 0.0
loop_
_geom_bond_atom_site_label_1
_geom_bond_atom_site_label_2
_geom_bond_distance
_geom_bond_site_symmetry_2
_ccdc_geom_bond_type
Co0 O2 2.143 . S
Co0 O8 2.074 1_554 S
Co0 O11 2.093 . S
Co0 O24 2.097 . S
Co0 N41 2.151 . S
Co0 N49 2.214 . S
Co1 O2 2.160 . S
Co1 O7 2.058 1_554 S
Co1 O17 2.057 . S
Co1 O32 2.037 . S
Co1 N36 2.145 1_554 S
Co1 N57 2.257 . S
O2 Co0 2.143 . S
O2 Co1 2.160 . S
C3 O4 1.278 . S
C3 O11 1.224 . S
O4 C3 1.278 . S
C5 O6 1.245 . S
C5 O17 1.232 . S
O6 C5 1.245 . S
O7 Co1 2.058 1_556 S
O7 C33 1.269 . S
O8 Co0 2.074 1_556 S
O8 C33 1.257 . S
H9 C34 0.930 . S
H10 C40 0.930 . S
O11 Co0 2.093 . S
O11 C3 1.224 . S
H12 C44 0.929 1_556 S
H13 C46 0.930 . S
H14 C47 0.930 1_556 S
H15 C45 0.929 1_556 S
H16 C48 0.928 . S
O17 Co1 2.057 . S
O17 C5 1.232 . S
H18 C37 0.929 . S
H19 C38 0.929 . S
H20 C50 0.932 . S
H21 C42 0.929 . S
H22 C51 0.930 . S
H23 C43 0.931 . S
O24 Co0 2.097 . S
O24 C52 1.214 . S
H25 C53 0.929 . S
H26 C54 0.929 . S
H27 C55 0.930 . S
H28 C56 0.929 . S
H29 C58 0.930 . S
H30 C35 0.930 . S
H31 C39 0.930 . S
O32 Co1 2.037 . S
O32 C52 1.234 . S
C33 O7 1.269 . S
C33 O8 1.257 . S
C34 H9 0.930 . S
C34 C37 1.388 1_565 S
C34 C39 1.418 . S
C35 H30 0.930 . S
C35 C38 1.404 . S
C35 C39 1.353 . S
N36 Co1 2.145 1_556 S
N36 C37 1.397 . S
N36 C38 1.334 1_545 S
C37 H18 0.929 . S
C37 C34 1.388 1_545 S
C37 N36 1.397 . S
C38 H19 0.929 . S
C38 C35 1.404 . S
C38 N36 1.334 1_565 S
C39 H31 0.930 . S
C39 C34 1.418 . S
C39 C35 1.353 . S
C40 H10 0.930 . S
C40 N41 1.330 . S
C40 C42 1.446 . S
N41 Co0 2.151 . S
N41 C40 1.330 . S
N41 C45 1.418 . S
C42 H21 0.929 . S
C42 C40 1.446 . S
C42 C43 1.332 . S
C43 H23 0.931 . S
C43 C42 1.332 . S
C43 C44 1.267 . S
C44 H12 0.929 1_554 S
C44 C43 1.267 . S
C44 C45 1.251 . S
C45 H15 0.929 1_554 S
C45 N41 1.418 . S
C45 C44 1.251 . S
C46 H13 0.930 . S
C46 C48 1.406 . S
C46 C51 1.261 . S
C47 H14 0.930 1_554 S
C47 N49 1.325 . S
C47 C50 1.357 1_554 S
C48 H16 0.928 . S
C48 C46 1.406 . S
C48 N49 1.261 . S
N49 Co0 2.214 . S
N49 C47 1.325 . S
N49 C48 1.261 . S
C50 H20 0.932 . S
C50 C47 1.357 1_556 S
C50 C51 1.312 1_556 S
C51 H22 0.930 . S
C51 C46 1.261 . S
C51 C50 1.312 1_554 S
C52 O24 1.214 . S
C52 O32 1.234 . S
C53 H25 0.929 . S
C53 C56 1.391 . S
C53 C58 1.391 1_565 S
C54 H26 0.929 . S
C54 C55 1.390 . S
C54 N57 1.391 1_565 S
C55 H27 0.930 . S
C55 C54 1.390 . S
C55 C56 1.392 . S
C56 H28 0.929 . S
C56 C53 1.391 . S
C56 C55 1.392 . S
N57 Co1 2.257 . S
N57 C54 1.391 1_545 S
N57 C58 1.388 . S
C58 H29 0.930 . S
C58 C53 1.391 1_545 S
C58 N57 1.388 . S
Co59 O61 2.143 . S
Co59 O67 2.074 1_554 S
Co59 O70 2.093 . S
Co59 O83 2.097 . S
Co59 N100 2.151 . S
Co59 N108 2.214 . S
Co60 O61 2.160 . S
Co60 O66 2.058 1_554 S
Co60 O76 2.057 . S
Co60 O91 2.037 . S
Co60 N95 2.145 1_554 S
Co60 N116 2.257 . S
O61 Co59 2.143 . S
O61 Co60 2.160 . S
C62 O63 1.278 . S
C62 O70 1.224 . S
O63 C62 1.278 . S
C64 O65 1.245 . S
C64 O76 1.232 . S
O65 C64 1.245 . S
O66 Co60 2.058 1_556 S
O66 C92 1.269 . S
O67 Co59 2.074 1_556 S
O67 C92 1.257 . S
H68 C93 0.930 . S
H69 C99 0.930 . S
O70 Co59 2.093 . S
O70 C62 1.224 . S
H71 C103 0.929 1_556 S
H72 C105 0.930 . S
H73 C106 0.930 1_556 S
H74 C104 0.929 1_556 S
H75 C107 0.928 . S
O76 Co60 2.057 . S
O76 C64 1.232 . S
H77 C96 0.929 . S
H78 C97 0.929 . S
H79 C109 0.932 . S
H80 C101 0.929 . S
H81 C110 0.930 . S
H82 C102 0.931 . S
O83 Co59 2.097 . S
O83 C111 1.214 . S
H84 C112 0.929 . S
H85 C113 0.929 . S
H86 C114 0.930 . S
H87 C115 0.929 . S
H88 C117 0.930 . S
H89 C94 0.930 . S
H90 C98 0.930 . S
O91 Co60 2.037 . S
O91 C111 1.234 . S
C92 O66 1.269 . S
C92 O67 1.257 . S
C93 H68 0.930 . S
C93 C96 1.388 1_545 S
C93 C98 1.418 . S
C94 H89 0.930 . S
C94 C97 1.404 . S
C94 C98 1.353 . S
N95 Co60 2.145 1_556 S
N95 C96 1.397 . S
N95 C97 1.334 1_565 S
C96 H77 0.929 . S
C96 C93 1.388 1_565 S
C96 N95 1.397 . S
C97 H78 0.929 . S
C97 C94 1.404 . S
C97 N95 1.334 1_545 S
C98 H90 0.930 . S
C98 C93 1.418 . S
C98 C94 1.353 . S
C99 H69 0.930 . S
C99 N100 1.330 . S
C99 C101 1.446 . S
N100 Co59 2.151 . S
N100 C99 1.330 . S
N100 C104 1.418 . S
C101 H80 0.929 . S
C101 C99 1.446 . S
C101 C102 1.332 . S
C102 H82 0.931 . S
C102 C101 1.332 . S
C102 C103 1.267 . S
C103 H71 0.929 1_554 S
C103 C102 1.267 . S
C103 C104 1.251 . S
C104 H74 0.929 1_554 S
C104 N100 1.418 . S
C104 C103 1.251 . S
C105 H72 0.930 . S
C105 C107 1.406 . S
C105 C110 1.261 . S
C106 H73 0.930 1_554 S
C106 N108 1.325 . S
C106 C109 1.357 1_554 S
C107 H75 0.928 . S
C107 C105 1.406 . S
C107 N108 1.261 . S
N108 Co59 2.214 . S
N108 C106 1.325 . S
N108 C107 1.261 . S
C109 H79 0.932 . S
C109 C106 1.357 1_556 S
C109 C110 1.312 1_556 S
C110 H81 0.930 . S
C110 C105 1.261 . S
C110 C109 1.312 1_554 S
C111 O83 1.214 . S
C111 O91 1.234 . S
C112 H84 0.929 . S
C112 C115 1.391 . S
C112 C117 1.391 1_545 S
C113 H85 0.929 . S
C113 C114 1.390 . S
C113 N116 1.391 1_545 S
C114 H86 0.930 . S
C114 C113 1.390 . S
C114 C115 1.392 . S
C115 H87 0.929 . S
C115 C112 1.391 . S
C115 C114 1.392 . S
N116 Co60 2.257 . S
N116 C113 1.391 1_565 S
N116 C117 1.388 . S
C117 H88 0.930 . S
C117 C112 1.391 1_565 S
C117 N116 1.388 . S
Co118 O120 2.143 . S
Co118 O126 2.074 . S
Co118 O129 2.093 . S
Co118 O142 2.097 . S
Co118 N159 2.151 . S
Co118 N167 2.214 . S
Co119 O120 2.160 . S
Co119 O125 2.058 . S
Co119 O135 2.057 . S
Co119 O150 2.037 . S
Co119 N154 2.145 . S
Co119 N175 2.257 . S
O120 Co118 2.143 . S
O120 Co119 2.160 . S
C121 O122 1.278 . S
C121 O129 1.224 . S
O122 C121 1.278 . S
C123 O124 1.245 . S
C123 O135 1.232 . S
O124 C123 1.245 . S
O125 Co119 2.058 . S
O125 C151 1.269 . S
O126 Co118 2.074 . S
O126 C151 1.257 . S
H127 C152 0.930 . S
H128 C158 0.930 . S
O129 Co118 2.093 . S
O129 C121 1.224 . S
H130 C162 0.929 . S
H131 C164 0.930 . S
H132 C165 0.930 . S
H133 C163 0.929 . S
H134 C166 0.928 . S
O135 Co119 2.057 . S
O135 C123 1.232 . S
H136 C155 0.929 . S
H137 C156 0.929 . S
H138 C168 0.931 . S
H139 C160 0.929 . S
H140 C169 0.930 . S
H141 C161 0.931 . S
O142 Co118 2.097 . S
O142 C170 1.214 . S
H143 C171 0.929 . S
H144 C172 0.929 . S
H145 C173 0.930 . S
H146 C174 0.929 . S
H147 C176 0.930 . S
H148 C153 0.930 . S
H149 C157 0.930 . S
O150 Co119 2.037 . S
O150 C170 1.234 . S
C151 O125 1.269 . S
C151 O126 1.257 . S
C152 H127 0.930 . S
C152 C155 1.388 1_545 S
C152 C157 1.418 . S
C153 H148 0.930 . S
C153 C156 1.404 . S
C153 C157 1.353 . S
N154 Co119 2.145 . S
N154 C155 1.397 . S
N154 C156 1.334 1_565 S
C155 H136 0.929 . S
C155 C152 1.388 1_565 S
C155 N154 1.397 . S
C156 H137 0.929 . S
C156 C153 1.404 . S
C156 N154 1.334 1_545 S
C157 H149 0.930 . S
C157 C152 1.418 . S
C157 C153 1.353 . S
C158 H128 0.930 . S
C158 N159 1.330 . S
C158 C160 1.446 . S
N159 Co118 2.151 . S
N159 C158 1.330 . S
N159 C163 1.418 . S
C160 H139 0.929 . S
C160 C158 1.446 . S
C160 C161 1.332 . S
C161 H141 0.931 . S
C161 C160 1.332 . S
C161 C162 1.267 . S
C162 H130 0.929 . S
C162 C161 1.267 . S
C162 C163 1.251 . S
C163 H133 0.929 . S
C163 N159 1.418 . S
C163 C162 1.251 . S
C164 H131 0.930 . S
C164 C166 1.406 . S
C164 C169 1.261 . S
C165 H132 0.930 . S
C165 N167 1.325 . S
C165 C168 1.357 . S
C166 H134 0.928 . S
C166 C164 1.406 . S
C166 N167 1.261 . S
N167 Co118 2.214 . S
N167 C165 1.325 . S
N167 C166 1.261 . S
C168 H138 0.931 . S
C168 C165 1.357 . S
C168 C169 1.312 . S
C169 H140 0.930 . S
C169 C164 1.261 . S
C169 C168 1.312 . S
C170 O142 1.214 . S
C170 O150 1.234 . S
C171 H143 0.929 . S
C171 C174 1.391 . S
C171 C176 1.391 1_545 S
C172 H144 0.929 . S
C172 C173 1.390 . S
C172 N175 1.391 1_545 S
C173 H145 0.930 . S
C173 C172 1.390 . S
C173 C174 1.392 . S
C174 H146 0.929 . S
C174 C171 1.391 . S
C174 C173 1.392 . S
N175 Co119 2.257 . S
N175 C172 1.391 1_565 S
N175 C176 1.388 . S
C176 H147 0.930 . S
C176 C171 1.391 1_565 S
C176 N175 1.388 . S
Co177 O179 2.143 . S
Co177 O185 2.074 . S
Co177 O188 2.093 . S
Co177 O201 2.097 . S
Co177 N218 2.151 . S
Co177 N226 2.214 . S
Co178 O179 2.160 . S
Co178 O184 2.058 . S
Co178 O194 2.057 . S
Co178 O209 2.037 . S
Co178 N213 2.145 . S
Co178 N234 2.257 . S
O179 Co177 2.143 . S
O179 Co178 2.160 . S
C180 O181 1.278 . S
C180 O188 1.224 . S
O181 C180 1.278 . S
C182 O183 1.245 . S
C182 O194 1.232 . S
O183 C182 1.245 . S
O184 Co178 2.058 . S
O184 C210 1.269 . S
O185 Co177 2.074 . S
O185 C210 1.257 . S
H186 C211 0.930 . S
H187 C217 0.930 . S
O188 Co177 2.093 . S
O188 C180 1.224 . S
H189 C221 0.929 . S
H190 C223 0.930 . S
H191 C224 0.930 . S
H192 C222 0.929 . S
H193 C225 0.928 . S
O194 Co178 2.057 . S
O194 C182 1.232 . S
H195 C214 0.929 . S
H196 C215 0.929 . S
H197 C227 0.931 . S
H198 C219 0.929 . S
H199 C228 0.930 . S
H200 C220 0.931 . S
O201 Co177 2.097 . S
O201 C229 1.214 . S
H202 C230 0.929 . S
H203 C231 0.929 . S
H204 C232 0.930 . S
H205 C233 0.929 . S
H206 C235 0.930 . S
H207 C212 0.930 . S
H208 C216 0.930 . S
O209 Co178 2.037 . S
O209 C229 1.234 . S
C210 O184 1.269 . S
C210 O185 1.257 . S
C211 H186 0.930 . S
C211 C214 1.388 1_565 S
C211 C216 1.418 . S
C212 H207 0.930 . S
C212 C215 1.404 . S
C212 C216 1.353 . S
N213 Co178 2.145 . S
N213 C214 1.397 . S
N213 C215 1.334 1_545 S
C214 H195 0.929 . S
C214 C211 1.388 1_545 S
C214 N213 1.397 . S
C215 H196 0.929 . S
C215 C212 1.404 . S
C215 N213 1.334 1_565 S
C216 H208 0.930 . S
C216 C211 1.418 . S
C216 C212 1.353 . S
C217 H187 0.930 . S
C217 N218 1.330 . S
C217 C219 1.446 . S
N218 Co177 2.151 . S
N218 C217 1.330 . S
N218 C222 1.418 . S
C219 H198 0.929 . S
C219 C217 1.446 . S
C219 C220 1.332 . S
C220 H200 0.931 . S
C220 C219 1.332 . S
C220 C221 1.267 . S
C221 H189 0.929 . S
C221 C220 1.267 . S
C221 C222 1.251 . S
C222 H192 0.929 . S
C222 N218 1.418 . S
C222 C221 1.251 . S
C223 H190 0.930 . S
C223 C225 1.406 . S
C223 C228 1.261 . S
C224 H191 0.930 . S
C224 N226 1.325 . S
C224 C227 1.357 . S
C225 H193 0.928 . S
C225 C223 1.406 . S
C225 N226 1.261 . S
N226 Co177 2.214 . S
N226 C224 1.325 . S
N226 C225 1.261 . S
C227 H197 0.931 . S
C227 C224 1.357 . S
C227 C228 1.312 . S
C228 H199 0.930 . S
C228 C223 1.261 . S
C228 C227 1.312 . S
C229 O201 1.214 . S
C229 O209 1.234 . S
C230 H202 0.929 . S
C230 C233 1.391 . S
C230 C235 1.391 1_565 S
C231 H203 0.929 . S
C231 C232 1.390 . S
C231 N234 1.391 1_565 S
C232 H204 0.930 . S
C232 C231 1.390 . S
C232 C233 1.392 . S
C233 H205 0.929 . S
C233 C230 1.391 . S
C233 C232 1.392 . S
N234 Co178 2.257 . S
N234 C231 1.391 1_545 S
N234 C235 1.388 . S
C235 H206 0.930 . S
C235 C230 1.391 1_545 S
C235 N234 1.388 . S
Co236 O238 2.143 . S
Co236 O244 2.074 1_554 S
Co236 O247 2.093 . S
Co236 O260 2.097 . S
Co236 N277 2.151 1_565 S
Co236 N285 2.214 1_565 S
Co237 O238 2.160 . S
Co237 O243 2.058 1_554 S
Co237 O253 2.057 . S
Co237 O268 2.037 . S
Co237 N272 2.145 1_554 S
Co237 N293 2.257 . S
O238 Co236 2.143 . S
O238 Co237 2.160 . S
C239 O240 1.278 . S
C239 O247 1.224 . S
O240 C239 1.278 . S
C241 O242 1.245 . S
C241 O253 1.232 . S
O242 C241 1.245 . S
O243 Co237 2.058 1_556 S
O243 C269 1.269 . S
O244 Co236 2.074 1_556 S
O244 C269 1.257 . S
H245 C270 0.930 . S
H246 C276 0.930 . S
O247 Co236 2.093 . S
O247 C239 1.224 . S
H248 C280 0.929 1_556 S
H249 C282 0.930 . S
H250 C283 0.930 1_556 S
H251 C281 0.929 1_556 S
H252 C284 0.928 . S
O253 Co237 2.057 . S
O253 C241 1.232 . S
H254 C273 0.929 . S
H255 C274 0.929 . S
H256 C286 0.932 . S
H257 C278 0.929 . S
H258 C287 0.930 . S
H259 C279 0.931 . S
O260 Co236 2.097 . S
O260 C288 1.214 . S
H261 C289 0.929 . S
H262 C290 0.929 . S
H263 C291 0.930 . S
H264 C292 0.929 . S
H265 C294 0.930 . S
H266 C271 0.930 . S
H267 C275 0.930 . S
O268 Co237 2.037 . S
O268 C288 1.234 . S
C269 O243 1.269 . S
C269 O244 1.257 . S
C270 H245 0.930 . S
C270 C273 1.388 . S
C270 C275 1.418 . S
C271 H266 0.930 . S
C271 C274 1.404 . S
C271 C275 1.353 . S
N272 Co237 2.145 1_556 S
N272 C273 1.397 . S
N272 C274 1.334 . S
C273 H254 0.929 . S
C273 C270 1.388 . S
C273 N272 1.397 . S
C274 H255 0.929 . S
C274 C271 1.404 . S
C274 N272 1.334 . S
C275 H267 0.930 . S
C275 C270 1.418 . S
C275 C271 1.353 . S
C276 H246 0.930 . S
C276 N277 1.330 . S
C276 C278 1.446 . S
N277 Co236 2.151 1_545 S
N277 C276 1.330 . S
N277 C281 1.418 . S
C278 H257 0.929 . S
C278 C276 1.446 . S
C278 C279 1.332 . S
C279 H259 0.931 . S
C279 C278 1.332 . S
C279 C280 1.267 . S
C280 H248 0.929 1_554 S
C280 C279 1.267 . S
C280 C281 1.251 . S
C281 H251 0.929 1_554 S
C281 N277 1.418 . S
C281 C280 1.251 . S
C282 H249 0.930 . S
C282 C284 1.406 . S
C282 C287 1.261 . S
C283 H250 0.930 1_554 S
C283 N285 1.325 . S
C283 C286 1.357 1_554 S
C284 H252 0.928 . S
C284 C282 1.406 . S
C284 N285 1.261 . S
N285 Co236 2.214 1_545 S
N285 C283 1.325 . S
N285 C284 1.261 . S
C286 H256 0.932 . S
C286 C283 1.357 1_556 S
C286 C287 1.312 1_556 S
C287 H258 0.930 . S
C287 C282 1.261 . S
C287 C286 1.312 1_554 S
C288 O260 1.214 . S
C288 O268 1.234 . S
C289 H261 0.929 . S
C289 C292 1.391 . S
C289 C294 1.391 . S
C290 H262 0.929 . S
C290 C291 1.390 . S
C290 N293 1.391 . S
C291 H263 0.930 . S
C291 C290 1.390 . S
C291 C292 1.392 . S
C292 H264 0.929 . S
C292 C289 1.391 . S
C292 C291 1.392 . S
N293 Co237 2.257 . S
N293 C290 1.391 . S
N293 C294 1.388 . S
C294 H265 0.930 . S
C294 C289 1.391 . S
C294 N293 1.388 . S
Co295 O297 2.143 . S
Co295 O303 2.074 1_554 S
Co295 O306 2.093 . S
Co295 O319 2.097 . S
Co295 N336 2.151 1_545 S
Co295 N344 2.214 1_545 S
Co296 O297 2.160 . S
Co296 O302 2.058 1_554 S
Co296 O312 2.057 . S
Co296 O327 2.037 . S
Co296 N331 2.145 1_554 S
Co296 N352 2.257 . S
O297 Co295 2.143 . S
O297 Co296 2.160 . S
C298 O299 1.278 . S
C298 O306 1.224 . S
O299 C298 1.278 . S
C300 O301 1.245 . S
C300 O312 1.232 . S
O301 C300 1.245 . S
O302 Co296 2.058 1_556 S
O302 C328 1.269 . S
O303 Co295 2.074 1_556 S
O303 C328 1.257 . S
H304 C329 0.930 . S
H305 C335 0.930 . S
O306 Co295 2.093 . S
O306 C298 1.224 . S
H307 C339 0.929 1_556 S
H308 C341 0.930 . S
H309 C342 0.930 1_556 S
H310 C340 0.929 1_556 S
H311 C343 0.928 . S
O312 Co296 2.057 . S
O312 C300 1.232 . S
H313 C332 0.929 . S
H314 C333 0.929 . S
H315 C345 0.932 . S
H316 C337 0.929 . S
H317 C346 0.930 . S
H318 C338 0.931 . S
O319 Co295 2.097 . S
O319 C347 1.214 . S
H320 C348 0.929 . S
H321 C349 0.929 . S
H322 C350 0.930 . S
H323 C351 0.929 . S
H324 C353 0.930 . S
H325 C330 0.930 . S
H326 C334 0.930 . S
O327 Co296 2.037 . S
O327 C347 1.234 . S
C328 O302 1.269 . S
C328 O303 1.257 . S
C329 H304 0.930 . S
C329 C332 1.388 . S
C329 C334 1.418 . S
C330 H325 0.930 . S
C330 C333 1.404 . S
C330 C334 1.353 . S
N331 Co296 2.145 1_556 S
N331 C332 1.397 . S
N331 C333 1.334 . S
C332 H313 0.929 . S
C332 C329 1.388 . S
C332 N331 1.397 . S
C333 H314 0.929 . S
C333 C330 1.404 . S
C333 N331 1.334 . S
C334 H326 0.930 . S
C334 C329 1.418 . S
C334 C330 1.353 . S
C335 H305 0.930 . S
C335 N336 1.330 . S
C335 C337 1.446 . S
N336 Co295 2.151 1_565 S
N336 C335 1.330 . S
N336 C340 1.418 . S
C337 H316 0.929 . S
C337 C335 1.446 . S
C337 C338 1.332 . S
C338 H318 0.931 . S
C338 C337 1.332 . S
C338 C339 1.267 . S
C339 H307 0.929 1_554 S
C339 C338 1.267 . S
C339 C340 1.251 . S
C340 H310 0.929 1_554 S
C340 N336 1.418 . S
C340 C339 1.251 . S
C341 H308 0.930 . S
C341 C343 1.406 . S
C341 C346 1.261 . S
C342 H309 0.930 1_554 S
C342 N344 1.325 . S
C342 C345 1.357 1_554 S
C343 H311 0.928 . S
C343 C341 1.406 . S
C343 N344 1.261 . S
N344 Co295 2.214 1_565 S
N344 C342 1.325 . S
N344 C343 1.261 . S
C345 H315 0.932 . S
C345 C342 1.357 1_556 S
C345 C346 1.312 1_556 S
C346 H317 0.930 . S
C346 C341 1.261 . S
C346 C345 1.312 1_554 S
C347 O319 1.214 . S
C347 O327 1.234 . S
C348 H320 0.929 . S
C348 C351 1.391 . S
C348 C353 1.391 . S
C349 H321 0.929 . S
C349 C350 1.390 . S
C349 N352 1.391 . S
C350 H322 0.930 . S
C350 C349 1.390 . S
C350 C351 1.392 . S
C351 H323 0.929 . S
C351 C348 1.391 . S
C351 C350 1.392 . S
N352 Co296 2.257 . S
N352 C349 1.391 . S
N352 C353 1.388 . S
C353 H324 0.930 . S
C353 C348 1.391 . S
C353 N352 1.388 . S
Co354 O356 2.143 . S
Co354 O362 2.074 . S
Co354 O365 2.093 . S
Co354 O378 2.097 . S
Co354 N395 2.151 1_545 S
Co354 N403 2.214 1_545 S
Co355 O356 2.160 . S
Co355 O361 2.058 . S
Co355 O371 2.057 . S
Co355 O386 2.037 . S
Co355 N390 2.145 . S
Co355 N411 2.257 . S
O356 Co354 2.143 . S
O356 Co355 2.160 . S
C357 O358 1.278 . S
C357 O365 1.224 . S
O358 C357 1.278 . S
C359 O360 1.245 . S
C359 O371 1.232 . S
O360 C359 1.245 . S
O361 Co355 2.058 . S
O361 C387 1.269 . S
O362 Co354 2.074 . S
O362 C387 1.257 . S
H363 C388 0.930 . S
H364 C394 0.930 . S
O365 Co354 2.093 . S
O365 C357 1.224 . S
H366 C398 0.929 . S
H367 C400 0.930 . S
H368 C401 0.930 . S
H369 C399 0.929 . S
H370 C402 0.928 . S
O371 Co355 2.057 . S
O371 C359 1.232 . S
H372 C391 0.929 . S
H373 C392 0.929 . S
H374 C404 0.931 . S
H375 C396 0.929 . S
H376 C405 0.930 . S
H377 C397 0.931 . S
O378 Co354 2.097 . S
O378 C406 1.214 . S
H379 C407 0.929 . S
H380 C408 0.929 . S
H381 C409 0.930 . S
H382 C410 0.929 . S
H383 C412 0.930 . S
H384 C389 0.930 . S
H385 C393 0.930 . S
O386 Co355 2.037 . S
O386 C406 1.234 . S
C387 O361 1.269 . S
C387 O362 1.257 . S
C388 H363 0.930 . S
C388 C391 1.388 . S
C388 C393 1.418 . S
C389 H384 0.930 . S
C389 C392 1.404 . S
C389 C393 1.353 . S
N390 Co355 2.145 . S
N390 C391 1.397 . S
N390 C392 1.334 . S
C391 H372 0.929 . S
C391 C388 1.388 . S
C391 N390 1.397 . S
C392 H373 0.929 . S
C392 C389 1.404 . S
C392 N390 1.334 . S
C393 H385 0.930 . S
C393 C388 1.418 . S
C393 C389 1.353 . S
C394 H364 0.930 . S
C394 N395 1.330 . S
C394 C396 1.446 . S
N395 Co354 2.151 1_565 S
N395 C394 1.330 . S
N395 C399 1.418 . S
C396 H375 0.929 . S
C396 C394 1.446 . S
C396 C397 1.332 . S
C397 H377 0.931 . S
C397 C396 1.332 . S
C397 C398 1.267 . S
C398 H366 0.929 . S
C398 C397 1.267 . S
C398 C399 1.251 . S
C399 H369 0.929 . S
C399 N395 1.418 . S
C399 C398 1.251 . S
C400 H367 0.930 . S
C400 C402 1.406 . S
C400 C405 1.261 . S
C401 H368 0.930 . S
C401 N403 1.325 . S
C401 C404 1.357 . S
C402 H370 0.928 . S
C402 C400 1.406 . S
C402 N403 1.261 . S
N403 Co354 2.214 1_565 S
N403 C401 1.325 . S
N403 C402 1.261 . S
C404 H374 0.931 . S
C404 C401 1.357 . S
C404 C405 1.312 . S
C405 H376 0.930 . S
C405 C400 1.261 . S
C405 C404 1.312 . S
C406 O378 1.214 . S
C406 O386 1.234 . S
C407 H379 0.929 . S
C407 C410 1.391 . S
C407 C412 1.391 . S
C408 H380 0.929 . S
C408 C409 1.390 . S
C408 N411 1.391 . S
C409 H381 0.930 . S
C409 C408 1.390 . S
C409 C410 1.392 . S
C410 H382 0.929 . S
C410 C407 1.391 . S
C410 C409 1.392 . S
N411 Co355 2.257 . S
N411 C408 1.391 . S
N411 C412 1.388 . S
C412 H383 0.930 . S
C412 C407 1.391 . S
C412 N411 1.388 . S
Co413 O415 2.143 . S
Co413 O421 2.074 . S
Co413 O424 2.093 . S
Co413 O437 2.097 . S
Co413 N454 2.151 1_565 S
Co413 N462 2.214 1_565 S
Co414 O415 2.160 . S
Co414 O420 2.058 . S
Co414 O430 2.057 . S
Co414 O445 2.037 . S
Co414 N449 2.145 . S
Co414 N470 2.257 . S
O415 Co413 2.143 . S
O415 Co414 2.160 . S
C416 O417 1.278 . S
C416 O424 1.224 . S
O417 C416 1.278 . S
C418 O419 1.245 . S
C418 O430 1.232 . S
O419 C418 1.245 . S
O420 Co414 2.058 . S
O420 C446 1.269 . S
O421 Co413 2.074 . S
O421 C446 1.257 . S
H422 C447 0.930 . S
H423 C453 0.930 . S
O424 Co413 2.093 . S
O424 C416 1.224 . S
H425 C457 0.929 . S
H426 C459 0.930 . S
H427 C460 0.930 . S
H428 C458 0.929 . S
H429 C461 0.928 . S
O430 Co414 2.057 . S
O430 C418 1.232 . S
H431 C450 0.929 . S
H432 C451 0.929 . S
H433 C463 0.931 . S
H434 C455 0.929 . S
H435 C464 0.930 . S
H436 C456 0.931 . S
O437 Co413 2.097 . S
O437 C465 1.214 . S
H438 C466 0.929 . S
H439 C467 0.929 . S
H440 C468 0.930 . S
H441 C469 0.929 . S
H442 C471 0.930 . S
H443 C448 0.930 . S
H444 C452 0.930 . S
O445 Co414 2.037 . S
O445 C465 1.234 . S
C446 O420 1.269 . S
C446 O421 1.257 . S
C447 H422 0.930 . S
C447 C450 1.388 . S
C447 C452 1.418 . S
C448 H443 0.930 . S
C448 C451 1.404 . S
C448 C452 1.353 . S
N449 Co414 2.145 . S
N449 C450 1.397 . S
N449 C451 1.334 . S
C450 H431 0.929 . S
C450 C447 1.388 . S
C450 N449 1.397 . S
C451 H432 0.929 . S
C451 C448 1.404 . S
C451 N449 1.334 . S
C452 H444 0.930 . S
C452 C447 1.418 . S
C452 C448 1.353 . S
C453 H423 0.930 . S
C453 N454 1.330 . S
C453 C455 1.446 . S
N454 Co413 2.151 1_545 S
N454 C453 1.330 . S
N454 C458 1.418 . S
C455 H434 0.929 . S
C455 C453 1.446 . S
C455 C456 1.332 . S
C456 H436 0.931 . S
C456 C455 1.332 . S
C456 C457 1.267 . S
C457 H425 0.929 . S
C457 C456 1.267 . S
C457 C458 1.251 . S
C458 H428 0.929 . S
C458 N454 1.418 . S
C458 C457 1.251 . S
C459 H426 0.930 . S
C459 C461 1.406 . S
C459 C464 1.261 . S
C460 H427 0.930 . S
C460 N462 1.325 . S
C460 C463 1.357 . S
C461 H429 0.928 . S
C461 C459 1.406 . S
C461 N462 1.261 . S
N462 Co413 2.214 1_545 S
N462 C460 1.325 . S
N462 C461 1.261 . S
C463 H433 0.931 . S
C463 C460 1.357 . S
C463 C464 1.312 . S
C464 H435 0.930 . S
C464 C459 1.261 . S
C464 C463 1.312 . S
C465 O437 1.214 . S
C465 O445 1.234 . S
C466 H438 0.929 . S
C466 C469 1.391 . S
C466 C471 1.391 . S
C467 H439 0.929 . S
C467 C468 1.390 . S
C467 N470 1.391 . S
C468 H440 0.930 . S
C468 C467 1.390 . S
C468 C469 1.392 . S
C469 H441 0.929 . S
C469 C466 1.391 . S
C469 C468 1.392 . S
N470 Co414 2.257 . S
N470 C467 1.391 . S
N470 C471 1.388 . S
C471 H442 0.930 . S
C471 C466 1.391 . S
C471 N470 1.388 . S
C472 C473 1.387 1_556 S
C472 H476 0.950 . S
C472 C481 1.390 . S
C473 C472 1.387 1_554 S
C473 C475 1.387 . S
H474 C481 0.950 . S
C475 C473 1.387 . S
C475 C477 1.390 . S
C475 H479 0.950 . S
H476 C472 0.950 . S
C477 C475 1.390 . S
C477 C478 1.387 . S
C477 H480 0.950 . S
C478 C477 1.387 . S
C478 C481 1.387 1_554 S
H479 C475 0.950 . S
H480 C477 0.950 . S
C481 C472 1.390 . S
C481 H474 0.950 . S
C481 C478 1.387 1_556 S
C482 C483 1.387 1_556 S
C482 H486 0.950 . S
C482 C491 1.390 . S
C483 C482 1.387 1_554 S
C483 C485 1.387 . S
H484 C491 0.950 . S
C485 C483 1.387 . S
C485 C487 1.390 . S
C485 H489 0.950 . S
H486 C482 0.950 . S
C487 C485 1.390 . S
C487 C488 1.387 . S
C487 H490 0.950 . S
C488 C487 1.387 . S
C488 C491 1.387 1_554 S
H489 C485 0.950 . S
H490 C487 0.950 . S
C491 C482 1.390 . S
C491 H484 0.950 . S
C491 C488 1.387 1_556 S
C492 C493 1.387 . S
C492 H496 0.950 . S
C492 C501 1.390 . S
C493 C492 1.387 . S
C493 C495 1.387 . S
H494 C501 0.950 . S
C495 C493 1.387 . S
C495 C497 1.390 . S
C495 H499 0.950 . S
H496 C492 0.950 . S
C497 C495 1.390 . S
C497 C498 1.387 . S
C497 H500 0.950 . S
C498 C497 1.387 . S
C498 C501 1.387 . S
H499 C495 0.950 . S
H500 C497 0.950 . S
C501 C492 1.390 . S
C501 H494 0.950 . S
C501 C498 1.387 . S
C502 C503 1.387 . S
C502 H506 0.950 . S
C502 C511 1.390 . S
C503 C502 1.387 . S
C503 C505 1.387 . S
H504 C511 0.950 . S
C505 C503 1.387 . S
C505 C507 1.390 . S
C505 H509 0.950 . S
H506 C502 0.950 . S
C507 C505 1.390 . S
C507 C508 1.387 . S
C507 H510 0.950 . S
C508 C507 1.387 . S
C508 C511 1.387 . S
H509 C505 0.950 . S
H510 C507 0.950 . S
C511 C502 1.390 . S
C511 H504 0.950 . S
C511 C508 1.387 . S
C512 C513 1.387 . S
C512 H516 0.950 . S
C512 C521 1.390 . S
C513 C512 1.387 . S
C513 C515 1.387 . S
H514 C521 0.950 . S
C515 C513 1.387 . S
C515 C517 1.390 . S
C515 H519 0.950 . S
H516 C512 0.950 . S
C517 C515 1.390 . S
C517 C518 1.387 . S
C517 H520 0.950 . S
C518 C517 1.387 . S
C518 C521 1.387 . S
H519 C515 0.950 . S
H520 C517 0.950 . S
C521 C512 1.390 . S
C521 H514 0.950 . S
C521 C518 1.387 . S
C522 C523 1.387 . S
C522 H526 0.950 . S
C522 C531 1.390 . S
C523 C522 1.387 . S
C523 C525 1.387 . S
H524 C531 0.950 . S
C525 C523 1.387 . S
C525 C527 1.390 . S
C525 H529 0.950 . S
H526 C522 0.950 . S
C527 C525 1.390 . S
C527 C528 1.387 . S
C527 H530 0.950 . S
C528 C527 1.387 . S
C528 C531 1.387 . S
H529 C525 0.950 . S
H530 C527 0.950 . S
C531 C522 1.390 . S
C531 H524 0.950 . S
C531 C528 1.387 . S
C532 C533 1.387 . S
C532 H536 0.950 . S
C532 C541 1.390 . S
C533 C532 1.387 . S
C533 C535 1.387 . S
H534 C541 0.950 . S
C535 C533 1.387 . S
C535 C537 1.390 . S
C535 H539 0.950 . S
H536 C532 0.950 . S
C537 C535 1.390 . S
C537 C538 1.387 . S
C537 H540 0.950 . S
C538 C537 1.387 . S
C538 C541 1.387 . S
H539 C535 0.950 . S
H540 C537 0.950 . S
C541 C532 1.390 . S
C541 H534 0.950 . S
C541 C538 1.387 . S
C542 C543 1.387 . S
C542 H546 0.950 . S
C542 C551 1.390 . S
C543 C542 1.387 . S
C543 C545 1.387 . S
H544 C551 0.950 . S
C545 C543 1.387 . S
C545 C547 1.390 . S
C545 H549 0.950 . S
H546 C542 0.950 . S
C547 C545 1.390 . S
C547 C548 1.387 . S
C547 H550 0.950 . S
C548 C547 1.387 . S
C548 C551 1.387 . S
H549 C545 0.950 . S
H550 C547 0.950 . S
C551 C542 1.390 . S
C551 H544 0.950 . S
C551 C548 1.387 . S
C552 C553 1.387 . S
C552 H556 0.950 . S
C552 C561 1.390 1_565 S
C553 C552 1.387 . S
C553 C555 1.387 . S
H554 C561 0.950 . S
C555 C553 1.387 . S
C555 C557 1.390 1_565 S
C555 H559 0.950 . S
H556 C552 0.950 . S
C557 C555 1.390 1_545 S
C557 C558 1.387 . S
C557 H560 0.950 . S
C558 C557 1.387 . S
C558 C561 1.387 . S
H559 C555 0.950 . S
H560 C557 0.950 . S
C561 C552 1.390 1_545 S
C561 H554 0.950 . S
C561 C558 1.387 . S
C562 C563 1.387 . S
C562 H566 0.950 . S
C562 C571 1.390 1_565 S
C563 C562 1.387 . S
C563 C565 1.387 . S
H564 C571 0.950 . S
C565 C563 1.387 . S
C565 C567 1.390 1_565 S
C565 H569 0.950 . S
H566 C562 0.950 . S
C567 C565 1.390 1_545 S
C567 C568 1.387 . S
C567 H570 0.950 . S
C568 C567 1.387 . S
C568 C571 1.387 . S
H569 C565 0.950 . S
H570 C567 0.950 . S
C571 C562 1.390 1_545 S
C571 H564 0.950 . S
C571 C568 1.387 . S
C572 C573 1.387 . S
C572 H576 0.950 . S
C572 C581 1.390 1_565 S
C573 C572 1.387 . S
C573 C575 1.387 . S
H574 C581 0.950 . S
C575 C573 1.387 . S
C575 C577 1.390 1_565 S
C575 H579 0.950 . S
H576 C572 0.950 . S
C577 C575 1.390 1_545 S
C577 C578 1.387 . S
C577 H580 0.950 . S
C578 C577 1.387 . S
C578 C581 1.387 . S
H579 C575 0.950 . S
H580 C577 0.950 . S
C581 C572 1.390 1_545 S
C581 H574 0.950 . S
C581 C578 1.387 . S
C582 C583 1.387 . S
C582 H586 0.950 . S
C582 C591 1.390 1_565 S
C583 C582 1.387 . S
C583 C585 1.387 . S
H584 C591 0.950 . S
C585 C583 1.387 . S
C585 C587 1.390 1_565 S
C585 H589 0.950 . S
H586 C582 0.950 . S
C587 C585 1.390 1_545 S
C587 C588 1.387 . S
C587 H590 0.950 . S
C588 C587 1.387 . S
C588 C591 1.387 . S
H589 C585 0.950 . S
H590 C587 0.950 . S
C591 C582 1.390 1_545 S
C591 H584 0.950 . S
C591 C588 1.387 . S
C592 C593 1.387 . S
C592 H596 0.950 . S
C592 C601 1.390 1_565 S
C593 C592 1.387 . S
C593 C595 1.387 1_554 S
H594 C601 0.950 . S
C595 C593 1.387 1_556 S
C595 C597 1.390 1_565 S
C595 H599 0.950 . S
H596 C592 0.950 . S
C597 C595 1.390 1_545 S
C597 C598 1.387 1_556 S
C597 H600 0.950 . S
C598 C597 1.387 1_554 S
C598 C601 1.387 . S
H599 C595 0.950 . S
H600 C597 0.950 . S
C601 C592 1.390 1_545 S
C601 H594 0.950 . S
C601 C598 1.387 . S
C602 C603 1.387 . S
C602 H606 0.950 . S
C602 C611 1.390 1_565 S
C603 C602 1.387 . S
C603 C605 1.387 . S
H604 C611 0.950 . S
C605 C603 1.387 . S
C605 C607 1.390 1_565 S
C605 H609 0.950 . S
H606 C602 0.950 . S
C607 C605 1.390 1_545 S
C607 C608 1.387 . S
C607 H610 0.950 . S
C608 C607 1.387 . S
C608 C611 1.387 . S
H609 C605 0.950 . S
H610 C607 0.950 . S
C611 C602 1.390 1_545 S
C611 H604 0.950 . S
C611 C608 1.387 . S
C612 C613 1.387 1_556 S
C612 H616 0.950 . S
C612 C621 1.390 1_455 S
C613 C612 1.387 1_554 S
C613 C615 1.387 . S
H614 C621 0.950 . S
C615 C613 1.387 . S
C615 C617 1.390 1_455 S
C615 H619 0.950 . S
H616 C612 0.950 . S
C617 C615 1.390 1_655 S
C617 C618 1.387 . S
C617 H620 0.950 . S
C618 C617 1.387 . S
C618 C621 1.387 1_554 S
H619 C615 0.950 . S
H620 C617 0.950 . S
C621 C612 1.390 1_655 S
C621 H614 0.950 . S
C621 C618 1.387 1_556 S
C622 C623 1.387 . S
C622 H626 0.950 . S
C622 C631 1.390 1_455 S
C623 C622 1.387 . S
C623 C625 1.387 . S
H624 C631 0.950 . S
C625 C623 1.387 . S
C625 C627 1.390 1_455 S
C625 H629 0.950 . S
H626 C622 0.950 . S
C627 C625 1.390 1_655 S
C627 C628 1.387 . S
C627 H630 0.950 . S
C628 C627 1.387 . S
C628 C631 1.387 . S
H629 C625 0.950 . S
H630 C627 0.950 . S
C631 C622 1.390 1_655 S
C631 H624 0.950 . S
C631 C628 1.387 . S
C473 C347 1.516 . S
C478 C52 1.516 . S
C483 C288 1.516 . S
C488 C111 1.516 . S
C493 C465 1.515 . S
C498 C170 1.515 . S
C503 C406 1.515 . S
C508 C229 1.515 . S
C513 C3 1.497 . S
C518 C121 1.497 . S
C523 C62 1.497 . S
C528 C180 1.497 . S
C533 C92 1.515 . S
C538 C210 1.515 . S
C543 C33 1.515 . S
C548 C151 1.515 . S
C553 C239 1.497 . S
C558 C357 1.497 . S
C563 C416 1.497 . S
C568 C298 1.497 . S
C573 C446 1.515 . S
C578 C328 1.515 . S
C583 C269 1.515 . S
C588 C387 1.515 . S
C593 C64 1.510 . S
C598 C5 1.510 . S
C603 C123 1.510 . S
C608 C182 1.510 . S
C613 C241 1.510 . S
C618 C300 1.510 . S
C623 C359 1.510 . S
C628 C418 1.510 . S
