# Generated by pormake.
# Topology umo, (4)-cn, num edge types: 1
# Building blocks:
#     Node 0, Type 0, BuildingBlock: CEKHIL_clean_sbu_0, # of connection points: 4
#     Node 1, Type 0, BuildingBlock: CEKHIL_clean_sbu_0, # of connection points: 4
#     Node 2, Type 0, BuildingBlock: CEKHIL_clean_sbu_0, # of connection points: 4
#     Node 3, Type 0, BuildingBlock: CEKHIL_clean_sbu_0, # of connection points: 4
#     Node 4, Type 0, BuildingBlock: CEKHIL_clean_sbu_0, # of connection points: 4
#     Node 5, Type 0, BuildingBlock: CEKHIL_clean_sbu_0, # of connection points: 4
#     Node 6, Type 0, BuildingBlock: CEKHIL_clean_sbu_0, # of connection points: 4
#     Node 7, Type 0, BuildingBlock: CEKHIL_clean_sbu_0, # of connection points: 4
#     Node 8, Type 0, BuildingBlock: CEKHIL_clean_sbu_0, # of connection points: 4
#     Node 9, Type 0, BuildingBlock: CEKHIL_clean_sbu_0, # of connection points: 4
#     Node 10, Type 0, BuildingBlock: CEKHIL_clean_sbu_0, # of connection points: 4
#     Node 11, Type 0, BuildingBlock: CEKHIL_clean_sbu_0, # of connection points: 4
#     Edge 12, Type (0, 0), BuildingBlock: EYOCIG_clean_linker_4, # of connection points: 2
#     Edge 13, Type (0, 0), BuildingBlock: EYOCIG_clean_linker_4, # of connection points: 2
#     Edge 14, Type (0, 0), BuildingBlock: EYOCIG_clean_linker_4, # of connection points: 2
#     Edge 15, Type (0, 0), BuildingBlock: EYOCIG_clean_linker_4, # of connection points: 2
#     Edge 16, Type (0, 0), BuildingBlock: EYOCIG_clean_linker_4, # of connection points: 2
#     Edge 17, Type (0, 0), BuildingBlock: EYOCIG_clean_linker_4, # of connection points: 2
#     Edge 18, Type (0, 0), BuildingBlock: EYOCIG_clean_linker_4, # of connection points: 2
#     Edge 19, Type (0, 0), BuildingBlock: EYOCIG_clean_linker_4, # of connection points: 2
#     Edge 20, Type (0, 0), BuildingBlock: EYOCIG_clean_linker_4, # of connection points: 2
#     Edge 21, Type (0, 0), BuildingBlock: EYOCIG_clean_linker_4, # of connection points: 2
#     Edge 22, Type (0, 0), BuildingBlock: EYOCIG_clean_linker_4, # of connection points: 2
#     Edge 23, Type (0, 0), BuildingBlock: EYOCIG_clean_linker_4, # of connection points: 2
#     Edge 24, Type (0, 0), BuildingBlock: EYOCIG_clean_linker_4, # of connection points: 2
#     Edge 25, Type (0, 0), BuildingBlock: EYOCIG_clean_linker_4, # of connection points: 2
#     Edge 26, Type (0, 0), BuildingBlock: EYOCIG_clean_linker_4, # of connection points: 2
#     Edge 27, Type (0, 0), BuildingBlock: EYOCIG_clean_linker_4, # of connection points: 2
#     Edge 28, Type (0, 0), BuildingBlock: EYOCIG_clean_linker_4, # of connection points: 2
#     Edge 29, Type (0, 0), BuildingBlock: EYOCIG_clean_linker_4, # of connection points: 2
#     Edge 30, Type (0, 0), BuildingBlock: EYOCIG_clean_linker_4, # of connection points: 2
#     Edge 31, Type (0, 0), BuildingBlock: EYOCIG_clean_linker_4, # of connection points: 2
#     Edge 32, Type (0, 0), BuildingBlock: EYOCIG_clean_linker_4, # of connection points: 2
#     Edge 33, Type (0, 0), BuildingBlock: EYOCIG_clean_linker_4, # of connection points: 2
#     Edge 34, Type (0, 0), BuildingBlock: EYOCIG_clean_linker_4, # of connection points: 2
#     Edge 35, Type (0, 0), BuildingBlock: EYOCIG_clean_linker_4, # of connection points: 2
# Relax obj value: 0.181
# Max RMSD: 0.259
# Mean RMSD: 0.259
data_MOF--net-umo--node1-CEKHIL_clean_sbu_0--edge1-EYOCIG_clean_linker_4
_symmetry_space_group_name_H-M    P1
_symmetry_Int_Tables_number       1
_symmetry_cell_setting            triclinic
loop_
_symmetry_equiv_pos_as_xyz
'x, y, z'
_cell_length_a     38.736632
_cell_length_b     38.747568
_cell_length_c     28.008552
_cell_angle_alpha  90.033826
_cell_angle_beta   89.988916
_cell_angle_gamma 119.94071
loop_
_atom_site_label
_atom_site_type_symbol
_atom_site_fract_x
_atom_site_fract_y
_atom_site_fract_z
_atom_type_partial_charge
Co0 Co 0.14561 0.51756 0.39554 0.0
O1 O 0.09581 0.46801 0.39204 0.0
O2 O 0.1029 0.52802 0.38167 0.0
C3 C 0.18209 0.49997 0.34928 0.0
O4 O 0.19062 0.57468 0.39517 0.0
Co5 Co 0.21786 0.5201 0.44675 0.0
O6 O 0.24257 0.57828 0.43571 0.0
C7 C 0.15608 0.52242 0.50397 0.0
C8 C 0.07975 0.48965 0.38224 0.0
C9 C 0.22542 0.59426 0.41363 0.0
O10 O 0.13847 0.52302 0.46556 0.0
O11 O 0.18611 0.51716 0.50495 0.0
O12 O 0.15858 0.511 0.33063 0.0
O13 O 0.17952 0.49496 0.39524 0.0
Co14 Co 0.61723 0.15035 0.56156 0.0
O15 O 0.61809 0.10111 0.5571 0.0
O16 O 0.56455 0.10731 0.54725 0.0
C17 C 0.67095 0.18748 0.51521 0.0
O18 O 0.604 0.19474 0.56225 0.0
Co19 Co 0.68596 0.22257 0.61317 0.0
O20 O 0.65185 0.24673 0.60311 0.0
C21 C 0.62177 0.16051 0.67001 0.0
C22 C 0.58045 0.08472 0.54699 0.0
C23 C 0.61858 0.22926 0.58138 0.0
O24 O 0.60444 0.14236 0.63148 0.0
O25 O 0.6566 0.19118 0.67134 0.0
O26 O 0.63642 0.16393 0.49673 0.0
O27 O 0.67371 0.18481 0.56114 0.0
Co28 Co 0.45622 0.62183 0.72876 0.0
O29 O 0.50599 0.62209 0.7248 0.0
O30 O 0.44611 0.56873 0.71555 0.0
C31 C 0.4731 0.67516 0.68149 0.0
O32 O 0.39891 0.60931 0.72943 0.0
Co33 Co 0.45401 0.69204 0.77894 0.0
O34 O 0.39564 0.6578 0.77012 0.0
C35 C 0.45135 0.62812 0.83705 0.0
C36 C 0.48457 0.58434 0.71551 0.0
C37 C 0.37944 0.6243 0.74886 0.0
O38 O 0.4515 0.60997 0.79892 0.0
O39 O 0.45619 0.66325 0.83762 0.0
O40 O 0.46188 0.64039 0.66351 0.0
O41 O 0.47862 0.67828 0.72737 0.0
Co42 Co 0.8239 0.46132 0.89502 0.0
O43 O 0.87368 0.51082 0.8915 0.0
O44 O 0.86639 0.45074 0.88061 0.0
C45 C 0.7873 0.47908 0.84933 0.0
O46 O 0.77873 0.40424 0.8947 0.0
Co47 Co 0.7524 0.45908 0.94743 0.0
O48 O 0.72725 0.40091 0.93606 0.0
C49 C 0.81411 0.45568 1.00354 0.0
C50 C 0.88961 0.4891 0.88149 0.0
C51 C 0.74406 0.38478 0.91353 0.0
O52 O 0.83158 0.45569 0.96477 0.0
O53 O 0.78395 0.46072 1.00529 0.0
O54 O 0.81064 0.46799 0.83035 0.0
O55 O 0.79015 0.48414 0.89532 0.0
Co56 Co 0.35169 0.82865 0.06164 0.0
O57 O 0.35132 0.87811 0.05776 0.0
O58 O 0.40444 0.87134 0.04679 0.0
C59 C 0.29743 0.79159 0.01613 0.0
O60 O 0.3641 0.7838 0.06158 0.0
Co61 Co 0.28274 0.75713 0.11442 0.0
O62 O 0.31595 0.73221 0.10269 0.0
C63 C 0.34798 0.81905 0.1702 0.0
C64 C 0.38885 0.89423 0.04723 0.0
C65 C 0.34894 0.74913 0.08033 0.0
O66 O 0.36518 0.83663 0.13139 0.0
O67 O 0.31291 0.78878 0.17209 0.0
O68 O 0.33173 0.81504 0.99705 0.0
O69 O 0.29524 0.79459 0.06209 0.0
Co70 Co 0.51331 0.35693 0.22825 0.0
O71 O 0.46389 0.35748 0.2239 0.0
O72 O 0.52417 0.41006 0.21395 0.0
C73 C 0.49559 0.30272 0.18222 0.0
O74 O 0.57046 0.36898 0.22891 0.0
Co75 Co 0.51548 0.28715 0.27967 0.0
O76 O 0.57387 0.32115 0.27079 0.0
C77 C 0.51869 0.35198 0.33659 0.0
C78 C 0.48581 0.39508 0.21399 0.0
C79 C 0.59001 0.35432 0.24887 0.0
O80 O 0.51839 0.36972 0.29817 0.0
O81 O 0.51376 0.31682 0.33774 0.0
O82 O 0.50712 0.33727 0.16345 0.0
O83 O 0.4904 0.30038 0.22815 0.0
Co84 Co 0.45663 0.82854 0.46268 0.0
O85 O 0.50625 0.8781 0.46685 0.0
O86 O 0.44625 0.87125 0.47677 0.0
C87 C 0.47377 0.79167 0.50883 0.0
O88 O 0.39947 0.78358 0.46194 0.0
Co89 Co 0.45491 0.75682 0.41083 0.0
O90 O 0.39666 0.73204 0.42116 0.0
C91 C 0.45214 0.81875 0.3542 0.0
C92 C 0.48468 0.89424 0.47653 0.0
C93 C 0.38025 0.74902 0.44277 0.0
O94 O 0.45176 0.8363 0.39275 0.0
O95 O 0.45715 0.78856 0.3529 0.0
O96 O 0.4626 0.81504 0.52757 0.0
O97 O 0.47921 0.79463 0.46295 0.0
Co98 Co 0.61755 0.46129 0.62959 0.0
O99 O 0.6183 0.51134 0.63384 0.0
O100 O 0.56477 0.45167 0.64346 0.0
C101 C 0.6711 0.47799 0.6764 0.0
O102 O 0.6043 0.40372 0.62915 0.0
Co103 Co 0.68668 0.45755 0.57909 0.0
O104 O 0.65223 0.39932 0.58872 0.0
C105 C 0.62336 0.45634 0.52124 0.0
C106 C 0.58065 0.49012 0.64385 0.0
C107 C 0.61886 0.38367 0.61021 0.0
O108 O 0.60532 0.45655 0.55946 0.0
O109 O 0.65834 0.46078 0.52058 0.0
O110 O 0.63646 0.46697 0.69462 0.0
O111 O 0.67401 0.48326 0.63046 0.0
Co112 Co 0.14562 0.62209 0.79685 0.0
O113 O 0.09627 0.62277 0.80094 0.0
O114 O 0.1027 0.56941 0.81124 0.0
C115 C 0.18249 0.6759 0.84309 0.0
O116 O 0.19017 0.60917 0.79673 0.0
Co117 Co 0.21792 0.69091 0.74538 0.0
O118 O 0.24226 0.65704 0.75606 0.0
C119 C 0.15598 0.62675 0.68844 0.0
C120 C 0.08001 0.5852 0.81132 0.0
C121 C 0.22484 0.6239 0.77804 0.0
O122 O 0.13791 0.60924 0.72692 0.0
O123 O 0.18646 0.6617 0.6872 0.0
O124 O 0.15898 0.64143 0.86165 0.0
O125 O 0.17991 0.67854 0.79712 0.0
Co126 Co 0.5126 0.1502 0.96266 0.0
O127 O 0.46277 0.10082 0.96663 0.0
O128 O 0.52261 0.10721 0.97625 0.0
C129 C 0.49565 0.18682 1.00957 0.0
O130 O 0.56992 0.19499 0.96207 0.0
Co131 Co 0.51458 0.22219 0.91175 0.0
O132 O 0.57283 0.24674 0.9218 0.0
C133 C 0.51726 0.16062 0.85422 0.0
C134 C 0.48415 0.08446 0.97623 0.0
C135 C 0.5892 0.22962 0.94311 0.0
O136 O 0.51739 0.14274 0.89257 0.0
O137 O 0.51239 0.19091 0.85332 0.0
O138 O 0.50685 0.16333 0.02778 0.0
O139 O 0.49015 0.18423 0.96368 0.0
Co140 Co 0.35237 0.51791 0.13009 0.0
O141 O 0.35321 0.46868 0.13427 0.0
O142 O 0.40572 0.52907 0.14385 0.0
C143 C 0.29858 0.50022 0.17684 0.0
O144 O 0.3638 0.5748 0.12958 0.0
Co145 Co 0.28177 0.5188 0.07907 0.0
O146 O 0.31499 0.57717 0.08856 0.0
C147 C 0.34676 0.52308 0.02162 0.0
C148 C 0.39083 0.49073 0.14401 0.0
C149 C 0.34827 0.5938 0.1103 0.0
O150 O 0.36471 0.52296 0.05995 0.0
O151 O 0.31145 0.51778 0.02065 0.0
O152 O 0.33333 0.51187 0.19514 0.0
O153 O 0.29579 0.49467 0.13095 0.0
Co154 Co 0.82362 0.35652 0.29623 0.0
O155 O 0.87296 0.35573 0.30063 0.0
O156 O 0.86664 0.40913 0.31098 0.0
C157 C 0.7863 0.3025 0.342 0.0
O158 O 0.77929 0.36977 0.29593 0.0
Co159 Co 0.7511 0.28803 0.24435 0.0
O160 O 0.72691 0.322 0.25549 0.0
C161 C 0.81397 0.35164 0.18773 0.0
C162 C 0.8893 0.39331 0.31113 0.0
C163 C 0.74457 0.35518 0.2774 0.0
O164 O 0.83166 0.36941 0.22631 0.0
O165 O 0.7834 0.31674 0.18646 0.0
O166 O 0.80983 0.33686 0.36089 0.0
O167 O 0.78908 0.30011 0.29604 0.0
C168 C 0.26885 0.67115 0.41985 0.0
C169 C 0.24527 0.63666 0.41331 0.0
C170 C 0.30362 0.70603 0.43291 0.0
C171 C 0.33789 0.72943 0.44109 0.0
C172 C 0.58396 0.27167 0.58955 0.0
C173 C 0.59531 0.24846 0.58217 0.0
C174 C 0.58402 0.30669 0.60214 0.0
C175 C 0.59547 0.34125 0.60943 0.0
C176 C 0.26771 0.5897 0.77173 0.0
C177 C 0.24433 0.60094 0.77826 0.0
C178 C 0.30267 0.58974 0.75904 0.0
C179 C 0.33708 0.60113 0.75087 0.0
C180 C 0.70041 0.30788 0.91984 0.0
C181 C 0.72402 0.34237 0.91322 0.0
C182 C 0.66579 0.27287 0.93304 0.0
C183 C 0.63159 0.24925 0.94137 0.0
C184 C 0.38194 0.70536 0.08743 0.0
C185 C 0.3714 0.72918 0.08031 0.0
C186 C 0.38164 0.67045 0.10081 0.0
C187 C 0.37074 0.63614 0.10877 0.0
C188 C 0.702 0.38967 0.27114 0.0
C189 C 0.72533 0.37838 0.27768 0.0
C190 C 0.66688 0.38935 0.25857 0.0
C191 C 0.63238 0.37761 0.25059 0.0
C192 C 0.14087 0.57907 0.61485 0.0
C193 C 0.14846 0.60163 0.64781 0.0
C194 C 0.14088 0.55394 0.57855 0.0
C195 C 0.14859 0.53939 0.54524 0.0
C196 C 0.57384 0.145 0.74349 0.0
C197 C 0.59647 0.15274 0.71055 0.0
C198 C 0.54869 0.14506 0.77976 0.0
C199 C 0.53419 0.15294 0.81301 0.0
C200 C 0.39385 0.55605 0.9476 0.0
C201 C 0.3715 0.54087 0.98071 0.0
C202 C 0.41896 0.58131 0.91136 0.0
C203 C 0.43389 0.60363 0.87819 0.0
C204 C 0.83014 0.39859 0.11326 0.0
C205 C 0.82208 0.37637 0.14664 0.0
C206 C 0.8301 0.42364 0.07692 0.0
C207 C 0.82209 0.4384 0.04411 0.0
C208 C 0.3961 0.83498 0.24352 0.0
C209 C 0.37341 0.82709 0.21064 0.0
C210 C 0.42115 0.83487 0.27985 0.0
C211 C 0.43545 0.82676 0.31307 0.0
C212 C 0.55153 0.39936 0.41036 0.0
C213 C 0.53642 0.37691 0.37733 0.0
C214 C 0.57667 0.42444 0.44669 0.0
C215 C 0.59883 0.43912 0.48006 0.0
C216 C 0.9642 0.43454 0.33999 0.0
C217 C 0.93001 0.41568 0.32681 0.0
C218 C 0.00408 0.45527 0.35636 0.0
C219 C 0.03868 0.47159 0.36807 0.0
C220 C 0.51937 0.96983 0.50251 0.0
C221 C 0.50288 0.93526 0.49075 0.0
C222 C 0.53979 0.00972 0.51869 0.0
C223 C 0.55816 0.04398 0.53157 0.0
C224 C 0.51951 0.54374 0.68915 0.0
C225 C 0.50293 0.5617 0.70109 0.0
C226 C 0.53997 0.52437 0.67267 0.0
C227 C 0.55837 0.50854 0.65954 0.0
C228 C 0.00518 0.54396 0.84006 0.0
C229 C 0.03934 0.56283 0.82693 0.0
C230 C 0.96532 0.5233 0.85624 0.0
C231 C 0.93069 0.50708 0.86766 0.0
C232 C 0.44955 0.00915 1.00318 0.0
C233 C 0.46577 0.04357 0.99094 0.0
C234 C 0.42956 0.96934 0.01953 0.0
C235 C 0.41129 0.93501 0.03212 0.0
C236 C 0.43278 0.45741 0.17125 0.0
C237 C 0.41415 0.47321 0.1589 0.0
C238 C 0.45259 0.43725 0.18729 0.0
C239 C 0.46818 0.41838 0.19941 0.0
C240 C 0.22567 0.48999 0.28477 0.0
C241 C 0.20796 0.49308 0.31863 0.0
C242 C 0.24541 0.48995 0.242 0.0
C243 C 0.26598 0.49307 0.20789 0.0
C244 C 0.74324 0.24909 0.40664 0.0
C245 C 0.76063 0.26969 0.37256 0.0
C246 C 0.72391 0.22979 0.44975 0.0
C247 C 0.70355 0.21274 0.48413 0.0
C248 C 0.48313 0.72797 0.61596 0.0
C249 C 0.48004 0.7075 0.65014 0.0
C250 C 0.48326 0.74773 0.57318 0.0
C251 C 0.48043 0.76561 0.53936 0.0
C252 C 0.74387 0.48924 0.78489 0.0
C253 C 0.76146 0.48615 0.81888 0.0
C254 C 0.72422 0.48897 0.74192 0.0
C255 C 0.70367 0.48546 0.70765 0.0
C256 C 0.24406 0.74825 0.9516 0.0
C257 C 0.26457 0.76573 0.98571 0.0
C258 C 0.22484 0.72892 0.90845 0.0
C259 C 0.20779 0.70855 0.87408 0.0
C260 C 0.48495 0.24895 0.1178 0.0
C261 C 0.48824 0.26978 0.15168 0.0
C262 C 0.48504 0.22935 0.07495 0.0
C263 C 0.48836 0.2121 0.04076 0.0
loop_
_geom_bond_atom_site_label_1
_geom_bond_atom_site_label_2
_geom_bond_distance
_geom_bond_site_symmetry_2
_ccdc_geom_bond_type
Co0 O1 2.216 . S
Co0 O2 2.091 . S
Co0 O4 2.004 . S
Co0 O10 2.021 . S
Co0 O12 2.137 . S
Co0 O13 2.244 . S
O1 Co0 2.216 . S
O1 C8 1.247 . S
O2 Co0 2.091 . S
O2 C8 1.261 . S
C3 O12 1.247 . S
C3 O13 1.272 . S
O4 Co0 2.004 . S
O4 C9 1.259 . S
Co5 O6 2.061 . S
Co5 O11 2.052 . S
Co5 O13 2.135 . S
O6 Co5 2.061 . S
O6 C9 1.235 . S
C7 O10 1.238 . S
C7 O11 1.241 . S
C8 O1 1.247 . S
C8 O2 1.261 . S
C9 O4 1.259 . S
C9 O6 1.235 . S
O10 Co0 2.021 . S
O10 C7 1.238 . S
O11 Co5 2.052 . S
O11 C7 1.241 . S
O12 Co0 2.137 . S
O12 C3 1.247 . S
O13 Co0 2.244 . S
O13 C3 1.272 . S
O13 Co5 2.135 . S
Co14 O15 2.216 . S
Co14 O16 2.091 . S
Co14 O18 2.004 . S
Co14 O24 2.021 . S
Co14 O26 2.137 . S
Co14 O27 2.244 . S
O15 Co14 2.216 . S
O15 C22 1.247 . S
O16 Co14 2.091 . S
O16 C22 1.261 . S
C17 O26 1.247 . S
C17 O27 1.272 . S
O18 Co14 2.004 . S
O18 C23 1.259 . S
Co19 O20 2.061 . S
Co19 O25 2.052 . S
Co19 O27 2.135 . S
O20 Co19 2.061 . S
O20 C23 1.235 . S
C21 O24 1.238 . S
C21 O25 1.241 . S
C22 O15 1.247 . S
C22 O16 1.261 . S
C23 O18 1.259 . S
C23 O20 1.235 . S
O24 Co14 2.021 . S
O24 C21 1.238 . S
O25 Co19 2.052 . S
O25 C21 1.241 . S
O26 Co14 2.137 . S
O26 C17 1.247 . S
O27 Co14 2.244 . S
O27 C17 1.272 . S
O27 Co19 2.135 . S
Co28 O29 2.216 . S
Co28 O30 2.091 . S
Co28 O32 2.004 . S
Co28 O38 2.021 . S
Co28 O40 2.137 . S
Co28 O41 2.244 . S
O29 Co28 2.216 . S
O29 C36 1.247 . S
O30 Co28 2.091 . S
O30 C36 1.261 . S
C31 O40 1.247 . S
C31 O41 1.272 . S
O32 Co28 2.004 . S
O32 C37 1.259 . S
Co33 O34 2.061 . S
Co33 O39 2.052 . S
Co33 O41 2.135 . S
O34 Co33 2.061 . S
O34 C37 1.235 . S
C35 O38 1.238 . S
C35 O39 1.241 . S
C36 O29 1.247 . S
C36 O30 1.261 . S
C37 O32 1.259 . S
C37 O34 1.235 . S
O38 Co28 2.021 . S
O38 C35 1.238 . S
O39 Co33 2.052 . S
O39 C35 1.241 . S
O40 Co28 2.137 . S
O40 C31 1.247 . S
O41 Co28 2.244 . S
O41 C31 1.272 . S
O41 Co33 2.135 . S
Co42 O43 2.216 . S
Co42 O44 2.091 . S
Co42 O46 2.004 . S
Co42 O52 2.021 . S
Co42 O54 2.137 . S
Co42 O55 2.244 . S
O43 Co42 2.216 . S
O43 C50 1.247 . S
O44 Co42 2.091 . S
O44 C50 1.261 . S
C45 O54 1.247 . S
C45 O55 1.272 . S
O46 Co42 2.004 . S
O46 C51 1.259 . S
Co47 O48 2.061 . S
Co47 O53 2.052 . S
Co47 O55 2.135 . S
O48 Co47 2.061 . S
O48 C51 1.235 . S
C49 O52 1.238 . S
C49 O53 1.241 . S
C50 O43 1.247 . S
C50 O44 1.261 . S
C51 O46 1.259 . S
C51 O48 1.235 . S
O52 Co42 2.021 . S
O52 C49 1.238 . S
O53 Co47 2.052 . S
O53 C49 1.241 . S
O54 Co42 2.137 . S
O54 C45 1.247 . S
O55 Co42 2.244 . S
O55 C45 1.272 . S
O55 Co47 2.135 . S
Co56 O57 2.216 . S
Co56 O58 2.091 . S
Co56 O60 2.004 . S
Co56 O66 2.021 . S
Co56 O68 2.137 1_554 S
Co56 O69 2.244 . S
O57 Co56 2.216 . S
O57 C64 1.247 . S
O58 Co56 2.091 . S
O58 C64 1.261 . S
C59 O68 1.247 1_554 S
C59 O69 1.272 . S
O60 Co56 2.004 . S
O60 C65 1.259 . S
Co61 O62 2.061 . S
Co61 O67 2.052 . S
Co61 O69 2.135 . S
O62 Co61 2.061 . S
O62 C65 1.235 . S
C63 O66 1.238 . S
C63 O67 1.241 . S
C64 O57 1.247 . S
C64 O58 1.261 . S
C65 O60 1.259 . S
C65 O62 1.235 . S
O66 Co56 2.021 . S
O66 C63 1.238 . S
O67 Co61 2.052 . S
O67 C63 1.241 . S
O68 Co56 2.137 1_556 S
O68 C59 1.247 1_556 S
O69 Co56 2.244 . S
O69 C59 1.272 . S
O69 Co61 2.135 . S
Co70 O71 2.216 . S
Co70 O72 2.091 . S
Co70 O74 2.004 . S
Co70 O80 2.021 . S
Co70 O82 2.137 . S
Co70 O83 2.244 . S
O71 Co70 2.216 . S
O71 C78 1.247 . S
O72 Co70 2.091 . S
O72 C78 1.261 . S
C73 O82 1.247 . S
C73 O83 1.272 . S
O74 Co70 2.004 . S
O74 C79 1.259 . S
Co75 O76 2.061 . S
Co75 O81 2.052 . S
Co75 O83 2.135 . S
O76 Co75 2.061 . S
O76 C79 1.235 . S
C77 O80 1.238 . S
C77 O81 1.241 . S
C78 O71 1.247 . S
C78 O72 1.261 . S
C79 O74 1.259 . S
C79 O76 1.235 . S
O80 Co70 2.021 . S
O80 C77 1.238 . S
O81 Co75 2.052 . S
O81 C77 1.241 . S
O82 Co70 2.137 . S
O82 C73 1.247 . S
O83 Co70 2.244 . S
O83 C73 1.272 . S
O83 Co75 2.135 . S
Co84 O85 2.216 . S
Co84 O86 2.091 . S
Co84 O88 2.004 . S
Co84 O94 2.021 . S
Co84 O96 2.137 . S
Co84 O97 2.244 . S
O85 Co84 2.216 . S
O85 C92 1.247 . S
O86 Co84 2.091 . S
O86 C92 1.261 . S
C87 O96 1.247 . S
C87 O97 1.272 . S
O88 Co84 2.004 . S
O88 C93 1.259 . S
Co89 O90 2.061 . S
Co89 O95 2.052 . S
Co89 O97 2.135 . S
O90 Co89 2.061 . S
O90 C93 1.235 . S
C91 O94 1.238 . S
C91 O95 1.241 . S
C92 O85 1.247 . S
C92 O86 1.261 . S
C93 O88 1.259 . S
C93 O90 1.235 . S
O94 Co84 2.021 . S
O94 C91 1.238 . S
O95 Co89 2.052 . S
O95 C91 1.241 . S
O96 Co84 2.137 . S
O96 C87 1.247 . S
O97 Co84 2.244 . S
O97 C87 1.272 . S
O97 Co89 2.135 . S
Co98 O99 2.216 . S
Co98 O100 2.091 . S
Co98 O102 2.004 . S
Co98 O108 2.021 . S
Co98 O110 2.137 . S
Co98 O111 2.244 . S
O99 Co98 2.216 . S
O99 C106 1.247 . S
O100 Co98 2.091 . S
O100 C106 1.261 . S
C101 O110 1.247 . S
C101 O111 1.272 . S
O102 Co98 2.004 . S
O102 C107 1.259 . S
Co103 O104 2.061 . S
Co103 O109 2.052 . S
Co103 O111 2.135 . S
O104 Co103 2.061 . S
O104 C107 1.235 . S
C105 O108 1.238 . S
C105 O109 1.241 . S
C106 O99 1.247 . S
C106 O100 1.261 . S
C107 O102 1.259 . S
C107 O104 1.235 . S
O108 Co98 2.021 . S
O108 C105 1.238 . S
O109 Co103 2.052 . S
O109 C105 1.241 . S
O110 Co98 2.137 . S
O110 C101 1.247 . S
O111 Co98 2.244 . S
O111 C101 1.272 . S
O111 Co103 2.135 . S
Co112 O113 2.216 . S
Co112 O114 2.091 . S
Co112 O116 2.004 . S
Co112 O122 2.021 . S
Co112 O124 2.137 . S
Co112 O125 2.244 . S
O113 Co112 2.216 . S
O113 C120 1.247 . S
O114 Co112 2.091 . S
O114 C120 1.261 . S
C115 O124 1.247 . S
C115 O125 1.272 . S
O116 Co112 2.004 . S
O116 C121 1.259 . S
Co117 O118 2.061 . S
Co117 O123 2.052 . S
Co117 O125 2.135 . S
O118 Co117 2.061 . S
O118 C121 1.235 . S
C119 O122 1.238 . S
C119 O123 1.241 . S
C120 O113 1.247 . S
C120 O114 1.261 . S
C121 O116 1.259 . S
C121 O118 1.235 . S
O122 Co112 2.021 . S
O122 C119 1.238 . S
O123 Co117 2.052 . S
O123 C119 1.241 . S
O124 Co112 2.137 . S
O124 C115 1.247 . S
O125 Co112 2.244 . S
O125 C115 1.272 . S
O125 Co117 2.135 . S
Co126 O127 2.216 . S
Co126 O128 2.091 . S
Co126 O130 2.004 . S
Co126 O136 2.021 . S
Co126 O138 2.137 1_556 S
Co126 O139 2.244 . S
O127 Co126 2.216 . S
O127 C134 1.247 . S
O128 Co126 2.091 . S
O128 C134 1.261 . S
C129 O138 1.247 1_556 S
C129 O139 1.272 . S
O130 Co126 2.004 . S
O130 C135 1.259 . S
Co131 O132 2.061 . S
Co131 O137 2.052 . S
Co131 O139 2.135 . S
O132 Co131 2.061 . S
O132 C135 1.235 . S
C133 O136 1.238 . S
C133 O137 1.241 . S
C134 O127 1.247 . S
C134 O128 1.261 . S
C135 O130 1.259 . S
C135 O132 1.235 . S
O136 Co126 2.021 . S
O136 C133 1.238 . S
O137 Co131 2.052 . S
O137 C133 1.241 . S
O138 Co126 2.137 1_554 S
O138 C129 1.247 1_554 S
O139 Co126 2.244 . S
O139 C129 1.272 . S
O139 Co131 2.135 . S
Co140 O141 2.216 . S
Co140 O142 2.091 . S
Co140 O144 2.004 . S
Co140 O150 2.021 . S
Co140 O152 2.137 . S
Co140 O153 2.244 . S
O141 Co140 2.216 . S
O141 C148 1.247 . S
O142 Co140 2.091 . S
O142 C148 1.261 . S
C143 O152 1.247 . S
C143 O153 1.272 . S
O144 Co140 2.004 . S
O144 C149 1.259 . S
Co145 O146 2.061 . S
Co145 O151 2.052 . S
Co145 O153 2.135 . S
O146 Co145 2.061 . S
O146 C149 1.235 . S
C147 O150 1.238 . S
C147 O151 1.241 . S
C148 O141 1.247 . S
C148 O142 1.261 . S
C149 O144 1.259 . S
C149 O146 1.235 . S
O150 Co140 2.021 . S
O150 C147 1.238 . S
O151 Co145 2.052 . S
O151 C147 1.241 . S
O152 Co140 2.137 . S
O152 C143 1.247 . S
O153 Co140 2.244 . S
O153 C143 1.272 . S
O153 Co145 2.135 . S
Co154 O155 2.216 . S
Co154 O156 2.091 . S
Co154 O158 2.004 . S
Co154 O164 2.021 . S
Co154 O166 2.137 . S
Co154 O167 2.244 . S
O155 Co154 2.216 . S
O155 C162 1.247 . S
O156 Co154 2.091 . S
O156 C162 1.261 . S
C157 O166 1.247 . S
C157 O167 1.272 . S
O158 Co154 2.004 . S
O158 C163 1.259 . S
Co159 O160 2.061 . S
Co159 O165 2.052 . S
Co159 O167 2.135 . S
O160 Co159 2.061 . S
O160 C163 1.235 . S
C161 O164 1.238 . S
C161 O165 1.241 . S
C162 O155 1.247 . S
C162 O156 1.261 . S
C163 O158 1.259 . S
C163 O160 1.235 . S
O164 Co154 2.021 . S
O164 C161 1.238 . S
O165 Co159 2.052 . S
O165 C161 1.241 . S
O166 Co154 2.137 . S
O166 C157 1.247 . S
O167 Co154 2.244 . S
O167 C157 1.272 . S
O167 Co159 2.135 . S
C168 C169 1.170 . S
C168 C170 1.380 . S
C169 C168 1.170 . S
C170 C168 1.380 . S
C170 C171 1.170 . S
C171 C170 1.170 . S
C172 C173 1.170 . S
C172 C174 1.380 . S
C173 C172 1.170 . S
C174 C172 1.380 . S
C174 C175 1.170 . S
C175 C174 1.170 . S
C176 C177 1.170 . S
C176 C178 1.380 . S
C177 C176 1.170 . S
C178 C176 1.380 . S
C178 C179 1.170 . S
C179 C178 1.170 . S
C180 C181 1.170 . S
C180 C182 1.380 . S
C181 C180 1.170 . S
C182 C180 1.380 . S
C182 C183 1.170 . S
C183 C182 1.170 . S
C184 C185 1.170 . S
C184 C186 1.380 . S
C185 C184 1.170 . S
C186 C184 1.380 . S
C186 C187 1.170 . S
C187 C186 1.170 . S
C188 C189 1.170 . S
C188 C190 1.380 . S
C189 C188 1.170 . S
C190 C188 1.380 . S
C190 C191 1.170 . S
C191 C190 1.170 . S
C192 C193 1.170 . S
C192 C194 1.380 . S
C193 C192 1.170 . S
C194 C192 1.380 . S
C194 C195 1.170 . S
C195 C194 1.170 . S
C196 C197 1.170 . S
C196 C198 1.380 . S
C197 C196 1.170 . S
C198 C196 1.380 . S
C198 C199 1.170 . S
C199 C198 1.170 . S
C200 C201 1.170 . S
C200 C202 1.380 . S
C201 C200 1.170 . S
C202 C200 1.380 . S
C202 C203 1.170 . S
C203 C202 1.170 . S
C204 C205 1.170 . S
C204 C206 1.380 . S
C205 C204 1.170 . S
C206 C204 1.380 . S
C206 C207 1.170 . S
C207 C206 1.170 . S
C208 C209 1.170 . S
C208 C210 1.380 . S
C209 C208 1.170 . S
C210 C208 1.380 . S
C210 C211 1.170 . S
C211 C210 1.170 . S
C212 C213 1.170 . S
C212 C214 1.380 . S
C213 C212 1.170 . S
C214 C212 1.380 . S
C214 C215 1.170 . S
C215 C214 1.170 . S
C216 C217 1.170 . S
C216 C218 1.380 1_655 S
C217 C216 1.170 . S
C218 C216 1.380 1_455 S
C218 C219 1.170 . S
C219 C218 1.170 . S
C220 C221 1.170 . S
C220 C222 1.380 1_565 S
C221 C220 1.170 . S
C222 C220 1.380 1_545 S
C222 C223 1.170 . S
C223 C222 1.170 . S
C224 C225 1.170 . S
C224 C226 1.380 . S
C225 C224 1.170 . S
C226 C224 1.380 . S
C226 C227 1.170 . S
C227 C226 1.170 . S
C228 C229 1.170 . S
C228 C230 1.380 1_455 S
C229 C228 1.170 . S
C230 C228 1.380 1_655 S
C230 C231 1.170 . S
C231 C230 1.170 . S
C232 C233 1.170 . S
C232 C234 1.380 1_546 S
C233 C232 1.170 . S
C234 C232 1.380 1_564 S
C234 C235 1.170 . S
C235 C234 1.170 . S
C236 C237 1.170 . S
C236 C238 1.380 . S
C237 C236 1.170 . S
C238 C236 1.380 . S
C238 C239 1.170 . S
C239 C238 1.170 . S
C240 C241 1.170 . S
C240 C242 1.380 . S
C241 C240 1.170 . S
C242 C240 1.380 . S
C242 C243 1.170 . S
C243 C242 1.170 . S
C244 C245 1.170 . S
C244 C246 1.380 . S
C245 C244 1.170 . S
C246 C244 1.380 . S
C246 C247 1.170 . S
C247 C246 1.170 . S
C248 C249 1.170 . S
C248 C250 1.380 . S
C249 C248 1.170 . S
C250 C248 1.380 . S
C250 C251 1.170 . S
C251 C250 1.170 . S
C252 C253 1.170 . S
C252 C254 1.380 . S
C253 C252 1.170 . S
C254 C252 1.380 . S
C254 C255 1.170 . S
C255 C254 1.170 . S
C256 C257 1.170 . S
C256 C258 1.380 . S
C257 C256 1.170 . S
C258 C256 1.380 . S
C258 C259 1.170 . S
C259 C258 1.170 . S
C260 C261 1.170 . S
C260 C262 1.380 . S
C261 C260 1.170 . S
C262 C260 1.380 . S
C262 C263 1.170 . S
C263 C262 1.170 . S
C169 C9 0.956 . S
C171 C93 0.915 . S
C173 C23 0.966 . S
C175 C107 0.967 . S
C177 C121 0.976 . S
C179 C37 0.936 . S
C181 C51 0.955 . S
C183 C135 0.915 . S
C185 C65 0.938 . S
C187 C149 0.918 . S
C189 C163 0.977 . S
C191 C79 0.945 . S
C193 C119 1.596 . S
C195 C7 1.623 . S
C197 C21 1.608 . S
C199 C133 1.636 . S
C201 C147 1.593 1_556 S
C203 C35 1.600 . S
C205 C161 1.642 . S
C207 C49 1.617 1_554 S
C209 C63 1.618 . S
C211 C91 1.642 . S
C213 C77 1.592 . S
C215 C105 1.611 . S
C217 C162 1.391 . S
C219 C8 1.399 . S
C221 C92 1.399 . S
C223 C22 1.392 . S
C225 C36 1.399 . S
C227 C106 1.393 . S
C229 C120 1.391 . S
C231 C50 1.399 . S
C233 C134 1.397 . S
C235 C64 1.394 . S
C237 C148 1.395 . S
C239 C78 1.395 . S
C241 C3 1.580 . S
C243 C143 1.555 . S
C245 C157 1.581 . S
C247 C17 1.552 . S
C249 C31 1.545 . S
C251 C87 1.579 . S
C253 C45 1.579 . S
C255 C101 1.559 . S
C257 C59 1.580 1_556 S
C259 C115 1.557 . S
C261 C73 1.579 . S
C263 C129 1.559 1_554 S
