# Generated by pormake.
# Topology ukr, (4)-cn, num edge types: 1
# Building blocks:
#     Node 0, Type 0, BuildingBlock: CEKHIL_clean_sbu_0, # of connection points: 4
#     Node 1, Type 0, BuildingBlock: CEKHIL_clean_sbu_0, # of connection points: 4
#     Node 2, Type 0, BuildingBlock: CEKHIL_clean_sbu_0, # of connection points: 4
#     Node 3, Type 0, BuildingBlock: CEKHIL_clean_sbu_0, # of connection points: 4
#     Node 4, Type 0, BuildingBlock: CEKHIL_clean_sbu_0, # of connection points: 4
#     Node 5, Type 0, BuildingBlock: CEKHIL_clean_sbu_0, # of connection points: 4
#     Node 6, Type 0, BuildingBlock: CEKHIL_clean_sbu_0, # of connection points: 4
#     Node 7, Type 0, BuildingBlock: CEKHIL_clean_sbu_0, # of connection points: 4
#     Node 8, Type 0, BuildingBlock: CEKHIL_clean_sbu_0, # of connection points: 4
#     Node 9, Type 0, BuildingBlock: CEKHIL_clean_sbu_0, # of connection points: 4
#     Node 10, Type 0, BuildingBlock: CEKHIL_clean_sbu_0, # of connection points: 4
#     Node 11, Type 0, BuildingBlock: CEKHIL_clean_sbu_0, # of connection points: 4
#     Node 12, Type 0, BuildingBlock: CEKHIL_clean_sbu_0, # of connection points: 4
#     Node 13, Type 0, BuildingBlock: CEKHIL_clean_sbu_0, # of connection points: 4
#     Node 14, Type 0, BuildingBlock: CEKHIL_clean_sbu_0, # of connection points: 4
#     Node 15, Type 0, BuildingBlock: CEKHIL_clean_sbu_0, # of connection points: 4
#     Node 16, Type 0, BuildingBlock: CEKHIL_clean_sbu_0, # of connection points: 4
#     Node 17, Type 0, BuildingBlock: CEKHIL_clean_sbu_0, # of connection points: 4
#     Node 18, Type 0, BuildingBlock: CEKHIL_clean_sbu_0, # of connection points: 4
#     Node 19, Type 0, BuildingBlock: CEKHIL_clean_sbu_0, # of connection points: 4
#     Node 20, Type 0, BuildingBlock: CEKHIL_clean_sbu_0, # of connection points: 4
#     Node 21, Type 0, BuildingBlock: CEKHIL_clean_sbu_0, # of connection points: 4
#     Node 22, Type 0, BuildingBlock: CEKHIL_clean_sbu_0, # of connection points: 4
#     Node 23, Type 0, BuildingBlock: CEKHIL_clean_sbu_0, # of connection points: 4
#     Node 24, Type 0, BuildingBlock: CEKHIL_clean_sbu_0, # of connection points: 4
#     Node 25, Type 0, BuildingBlock: CEKHIL_clean_sbu_0, # of connection points: 4
#     Node 26, Type 0, BuildingBlock: CEKHIL_clean_sbu_0, # of connection points: 4
#     Node 27, Type 0, BuildingBlock: CEKHIL_clean_sbu_0, # of connection points: 4
#     Node 28, Type 0, BuildingBlock: CEKHIL_clean_sbu_0, # of connection points: 4
#     Node 29, Type 0, BuildingBlock: CEKHIL_clean_sbu_0, # of connection points: 4
#     Node 30, Type 0, BuildingBlock: CEKHIL_clean_sbu_0, # of connection points: 4
#     Node 31, Type 0, BuildingBlock: CEKHIL_clean_sbu_0, # of connection points: 4
#     Node 32, Type 0, BuildingBlock: CEKHIL_clean_sbu_0, # of connection points: 4
#     Node 33, Type 0, BuildingBlock: CEKHIL_clean_sbu_0, # of connection points: 4
#     Node 34, Type 0, BuildingBlock: CEKHIL_clean_sbu_0, # of connection points: 4
#     Node 35, Type 0, BuildingBlock: CEKHIL_clean_sbu_0, # of connection points: 4
#     Node 36, Type 0, BuildingBlock: CEKHIL_clean_sbu_0, # of connection points: 4
#     Node 37, Type 0, BuildingBlock: CEKHIL_clean_sbu_0, # of connection points: 4
#     Node 38, Type 0, BuildingBlock: CEKHIL_clean_sbu_0, # of connection points: 4
#     Node 39, Type 0, BuildingBlock: CEKHIL_clean_sbu_0, # of connection points: 4
#     Node 40, Type 0, BuildingBlock: CEKHIL_clean_sbu_0, # of connection points: 4
#     Node 41, Type 0, BuildingBlock: CEKHIL_clean_sbu_0, # of connection points: 4
#     Node 42, Type 0, BuildingBlock: CEKHIL_clean_sbu_0, # of connection points: 4
#     Node 43, Type 0, BuildingBlock: CEKHIL_clean_sbu_0, # of connection points: 4
#     Node 44, Type 0, BuildingBlock: CEKHIL_clean_sbu_0, # of connection points: 4
#     Node 45, Type 0, BuildingBlock: CEKHIL_clean_sbu_0, # of connection points: 4
#     Node 46, Type 0, BuildingBlock: CEKHIL_clean_sbu_0, # of connection points: 4
#     Node 47, Type 0, BuildingBlock: CEKHIL_clean_sbu_0, # of connection points: 4
#     Edge 48, Type (0, 0), BuildingBlock: KIFKEQ_clean_linker_1, # of connection points: 2
#     Edge 49, Type (0, 0), BuildingBlock: KIFKEQ_clean_linker_1, # of connection points: 2
#     Edge 50, Type (0, 0), BuildingBlock: KIFKEQ_clean_linker_1, # of connection points: 2
#     Edge 51, Type (0, 0), BuildingBlock: KIFKEQ_clean_linker_1, # of connection points: 2
#     Edge 52, Type (0, 0), BuildingBlock: KIFKEQ_clean_linker_1, # of connection points: 2
#     Edge 53, Type (0, 0), BuildingBlock: KIFKEQ_clean_linker_1, # of connection points: 2
#     Edge 54, Type (0, 0), BuildingBlock: KIFKEQ_clean_linker_1, # of connection points: 2
#     Edge 55, Type (0, 0), BuildingBlock: KIFKEQ_clean_linker_1, # of connection points: 2
#     Edge 56, Type (0, 0), BuildingBlock: KIFKEQ_clean_linker_1, # of connection points: 2
#     Edge 57, Type (0, 0), BuildingBlock: KIFKEQ_clean_linker_1, # of connection points: 2
#     Edge 58, Type (0, 0), BuildingBlock: KIFKEQ_clean_linker_1, # of connection points: 2
#     Edge 59, Type (0, 0), BuildingBlock: KIFKEQ_clean_linker_1, # of connection points: 2
#     Edge 60, Type (0, 0), BuildingBlock: KIFKEQ_clean_linker_1, # of connection points: 2
#     Edge 61, Type (0, 0), BuildingBlock: KIFKEQ_clean_linker_1, # of connection points: 2
#     Edge 62, Type (0, 0), BuildingBlock: KIFKEQ_clean_linker_1, # of connection points: 2
#     Edge 63, Type (0, 0), BuildingBlock: KIFKEQ_clean_linker_1, # of connection points: 2
#     Edge 64, Type (0, 0), BuildingBlock: KIFKEQ_clean_linker_1, # of connection points: 2
#     Edge 65, Type (0, 0), BuildingBlock: KIFKEQ_clean_linker_1, # of connection points: 2
#     Edge 66, Type (0, 0), BuildingBlock: KIFKEQ_clean_linker_1, # of connection points: 2
#     Edge 67, Type (0, 0), BuildingBlock: KIFKEQ_clean_linker_1, # of connection points: 2
#     Edge 68, Type (0, 0), BuildingBlock: KIFKEQ_clean_linker_1, # of connection points: 2
#     Edge 69, Type (0, 0), BuildingBlock: KIFKEQ_clean_linker_1, # of connection points: 2
#     Edge 70, Type (0, 0), BuildingBlock: KIFKEQ_clean_linker_1, # of connection points: 2
#     Edge 71, Type (0, 0), BuildingBlock: KIFKEQ_clean_linker_1, # of connection points: 2
#     Edge 72, Type (0, 0), BuildingBlock: KIFKEQ_clean_linker_1, # of connection points: 2
#     Edge 73, Type (0, 0), BuildingBlock: KIFKEQ_clean_linker_1, # of connection points: 2
#     Edge 74, Type (0, 0), BuildingBlock: KIFKEQ_clean_linker_1, # of connection points: 2
#     Edge 75, Type (0, 0), BuildingBlock: KIFKEQ_clean_linker_1, # of connection points: 2
#     Edge 76, Type (0, 0), BuildingBlock: KIFKEQ_clean_linker_1, # of connection points: 2
#     Edge 77, Type (0, 0), BuildingBlock: KIFKEQ_clean_linker_1, # of connection points: 2
#     Edge 78, Type (0, 0), BuildingBlock: KIFKEQ_clean_linker_1, # of connection points: 2
#     Edge 79, Type (0, 0), BuildingBlock: KIFKEQ_clean_linker_1, # of connection points: 2
#     Edge 80, Type (0, 0), BuildingBlock: KIFKEQ_clean_linker_1, # of connection points: 2
#     Edge 81, Type (0, 0), BuildingBlock: KIFKEQ_clean_linker_1, # of connection points: 2
#     Edge 82, Type (0, 0), BuildingBlock: KIFKEQ_clean_linker_1, # of connection points: 2
#     Edge 83, Type (0, 0), BuildingBlock: KIFKEQ_clean_linker_1, # of connection points: 2
#     Edge 84, Type (0, 0), BuildingBlock: KIFKEQ_clean_linker_1, # of connection points: 2
#     Edge 85, Type (0, 0), BuildingBlock: KIFKEQ_clean_linker_1, # of connection points: 2
#     Edge 86, Type (0, 0), BuildingBlock: KIFKEQ_clean_linker_1, # of connection points: 2
#     Edge 87, Type (0, 0), BuildingBlock: KIFKEQ_clean_linker_1, # of connection points: 2
#     Edge 88, Type (0, 0), BuildingBlock: KIFKEQ_clean_linker_1, # of connection points: 2
#     Edge 89, Type (0, 0), BuildingBlock: KIFKEQ_clean_linker_1, # of connection points: 2
#     Edge 90, Type (0, 0), BuildingBlock: KIFKEQ_clean_linker_1, # of connection points: 2
#     Edge 91, Type (0, 0), BuildingBlock: KIFKEQ_clean_linker_1, # of connection points: 2
#     Edge 92, Type (0, 0), BuildingBlock: KIFKEQ_clean_linker_1, # of connection points: 2
#     Edge 93, Type (0, 0), BuildingBlock: KIFKEQ_clean_linker_1, # of connection points: 2
#     Edge 94, Type (0, 0), BuildingBlock: KIFKEQ_clean_linker_1, # of connection points: 2
#     Edge 95, Type (0, 0), BuildingBlock: KIFKEQ_clean_linker_1, # of connection points: 2
#     Edge 96, Type (0, 0), BuildingBlock: KIFKEQ_clean_linker_1, # of connection points: 2
#     Edge 97, Type (0, 0), BuildingBlock: KIFKEQ_clean_linker_1, # of connection points: 2
#     Edge 98, Type (0, 0), BuildingBlock: KIFKEQ_clean_linker_1, # of connection points: 2
#     Edge 99, Type (0, 0), BuildingBlock: KIFKEQ_clean_linker_1, # of connection points: 2
#     Edge 100, Type (0, 0), BuildingBlock: KIFKEQ_clean_linker_1, # of connection points: 2
#     Edge 101, Type (0, 0), BuildingBlock: KIFKEQ_clean_linker_1, # of connection points: 2
#     Edge 102, Type (0, 0), BuildingBlock: KIFKEQ_clean_linker_1, # of connection points: 2
#     Edge 103, Type (0, 0), BuildingBlock: KIFKEQ_clean_linker_1, # of connection points: 2
#     Edge 104, Type (0, 0), BuildingBlock: KIFKEQ_clean_linker_1, # of connection points: 2
#     Edge 105, Type (0, 0), BuildingBlock: KIFKEQ_clean_linker_1, # of connection points: 2
#     Edge 106, Type (0, 0), BuildingBlock: KIFKEQ_clean_linker_1, # of connection points: 2
#     Edge 107, Type (0, 0), BuildingBlock: KIFKEQ_clean_linker_1, # of connection points: 2
#     Edge 108, Type (0, 0), BuildingBlock: KIFKEQ_clean_linker_1, # of connection points: 2
#     Edge 109, Type (0, 0), BuildingBlock: KIFKEQ_clean_linker_1, # of connection points: 2
#     Edge 110, Type (0, 0), BuildingBlock: KIFKEQ_clean_linker_1, # of connection points: 2
#     Edge 111, Type (0, 0), BuildingBlock: KIFKEQ_clean_linker_1, # of connection points: 2
#     Edge 112, Type (0, 0), BuildingBlock: KIFKEQ_clean_linker_1, # of connection points: 2
#     Edge 113, Type (0, 0), BuildingBlock: KIFKEQ_clean_linker_1, # of connection points: 2
#     Edge 114, Type (0, 0), BuildingBlock: KIFKEQ_clean_linker_1, # of connection points: 2
#     Edge 115, Type (0, 0), BuildingBlock: KIFKEQ_clean_linker_1, # of connection points: 2
#     Edge 116, Type (0, 0), BuildingBlock: KIFKEQ_clean_linker_1, # of connection points: 2
#     Edge 117, Type (0, 0), BuildingBlock: KIFKEQ_clean_linker_1, # of connection points: 2
#     Edge 118, Type (0, 0), BuildingBlock: KIFKEQ_clean_linker_1, # of connection points: 2
#     Edge 119, Type (0, 0), BuildingBlock: KIFKEQ_clean_linker_1, # of connection points: 2
#     Edge 120, Type (0, 0), BuildingBlock: KIFKEQ_clean_linker_1, # of connection points: 2
#     Edge 121, Type (0, 0), BuildingBlock: KIFKEQ_clean_linker_1, # of connection points: 2
#     Edge 122, Type (0, 0), BuildingBlock: KIFKEQ_clean_linker_1, # of connection points: 2
#     Edge 123, Type (0, 0), BuildingBlock: KIFKEQ_clean_linker_1, # of connection points: 2
#     Edge 124, Type (0, 0), BuildingBlock: KIFKEQ_clean_linker_1, # of connection points: 2
#     Edge 125, Type (0, 0), BuildingBlock: KIFKEQ_clean_linker_1, # of connection points: 2
#     Edge 126, Type (0, 0), BuildingBlock: KIFKEQ_clean_linker_1, # of connection points: 2
#     Edge 127, Type (0, 0), BuildingBlock: KIFKEQ_clean_linker_1, # of connection points: 2
#     Edge 128, Type (0, 0), BuildingBlock: KIFKEQ_clean_linker_1, # of connection points: 2
#     Edge 129, Type (0, 0), BuildingBlock: KIFKEQ_clean_linker_1, # of connection points: 2
#     Edge 130, Type (0, 0), BuildingBlock: KIFKEQ_clean_linker_1, # of connection points: 2
#     Edge 131, Type (0, 0), BuildingBlock: KIFKEQ_clean_linker_1, # of connection points: 2
#     Edge 132, Type (0, 0), BuildingBlock: KIFKEQ_clean_linker_1, # of connection points: 2
#     Edge 133, Type (0, 0), BuildingBlock: KIFKEQ_clean_linker_1, # of connection points: 2
#     Edge 134, Type (0, 0), BuildingBlock: KIFKEQ_clean_linker_1, # of connection points: 2
#     Edge 135, Type (0, 0), BuildingBlock: KIFKEQ_clean_linker_1, # of connection points: 2
#     Edge 136, Type (0, 0), BuildingBlock: KIFKEQ_clean_linker_1, # of connection points: 2
#     Edge 137, Type (0, 0), BuildingBlock: KIFKEQ_clean_linker_1, # of connection points: 2
#     Edge 138, Type (0, 0), BuildingBlock: KIFKEQ_clean_linker_1, # of connection points: 2
#     Edge 139, Type (0, 0), BuildingBlock: KIFKEQ_clean_linker_1, # of connection points: 2
#     Edge 140, Type (0, 0), BuildingBlock: KIFKEQ_clean_linker_1, # of connection points: 2
#     Edge 141, Type (0, 0), BuildingBlock: KIFKEQ_clean_linker_1, # of connection points: 2
#     Edge 142, Type (0, 0), BuildingBlock: KIFKEQ_clean_linker_1, # of connection points: 2
#     Edge 143, Type (0, 0), BuildingBlock: KIFKEQ_clean_linker_1, # of connection points: 2
# Relax obj value: 0.467
# Max RMSD: 0.181
# Mean RMSD: 0.181
data_MOF--net-ukr--node1-CEKHIL_clean_sbu_0--edge1-KIFKEQ_clean_linker_1
_symmetry_space_group_name_H-M    P1
_symmetry_Int_Tables_number       1
_symmetry_cell_setting            triclinic
loop_
_symmetry_equiv_pos_as_xyz
'x, y, z'
_cell_length_a     69.324836
_cell_length_b     69.33287
_cell_length_c     69.351413
_cell_angle_alpha  89.975322
_cell_angle_beta   90.043725
_cell_angle_gamma 89.989384
loop_
_atom_site_label
_atom_site_type_symbol
_atom_site_fract_x
_atom_site_fract_y
_atom_site_fract_z
_atom_type_partial_charge
Co0 Co 0.09314 0.26806 0.20035 0.0
O1 O 0.06893 0.27791 0.20927 0.0
O2 O 0.07899 0.27854 0.17882 0.0
C3 C 0.09259 0.2396 0.216 0.0
O4 O 0.11658 0.25879 0.18556 0.0
Co5 Co 0.12684 0.25921 0.22864 0.0
O6 O 0.13806 0.2456 0.20596 0.0
C7 C 0.11522 0.29929 0.22062 0.0
C8 C 0.06573 0.28259 0.1914 0.0
C9 C 0.13188 0.24886 0.18894 0.0
O10 O 0.1055 0.29382 0.2058 0.0
O11 O 0.12306 0.28763 0.23258 0.0
O12 O 0.08321 0.24158 0.19986 0.0
O13 O 0.09985 0.25523 0.22295 0.0
Co14 Co 0.23435 0.59053 0.70551 0.0
O15 O 0.22781 0.5654 0.71471 0.0
O16 O 0.22094 0.57652 0.68548 0.0
C17 C 0.2651 0.59121 0.7158 0.0
O18 O 0.23962 0.61531 0.69083 0.0
Co19 Co 0.24538 0.62285 0.73457 0.0
O20 O 0.2551 0.63571 0.71077 0.0
C21 C 0.20516 0.60991 0.73142 0.0
C22 C 0.22011 0.56247 0.6979 0.0
C23 C 0.24957 0.63066 0.69396 0.0
O24 O 0.20919 0.60095 0.7157 0.0
O25 O 0.2179 0.61781 0.74219 0.0
O26 O 0.26079 0.58246 0.69978 0.0
O27 O 0.25059 0.59688 0.72594 0.0
Co28 Co 0.89815 0.72958 0.19124 0.0
O29 O 0.92166 0.72007 0.20212 0.0
O30 O 0.91396 0.71879 0.17102 0.0
C31 C 0.89785 0.75826 0.20642 0.0
O32 O 0.87559 0.73852 0.17475 0.0
Co33 Co 0.86284 0.73866 0.21739 0.0
O34 O 0.85342 0.75232 0.19397 0.0
C35 C 0.87427 0.6984 0.2098 0.0
C36 C 0.92628 0.71511 0.18468 0.0
C37 C 0.8603 0.74873 0.1773 0.0
O38 O 0.88563 0.70382 0.19621 0.0
O39 O 0.86527 0.71005 0.22092 0.0
O40 O 0.90805 0.75601 0.19086 0.0
O41 O 0.89006 0.74281 0.21321 0.0
Co42 Co 0.75997 0.39864 0.69851 0.0
O43 O 0.76895 0.42345 0.70646 0.0
O44 O 0.7737 0.41071 0.67743 0.0
C45 C 0.7296 0.40108 0.70965 0.0
O46 O 0.75215 0.37384 0.68503 0.0
Co47 Co 0.74698 0.36854 0.72911 0.0
O48 O 0.73591 0.3553 0.70613 0.0
C49 C 0.78799 0.37836 0.7249 0.0
C50 C 0.77613 0.42505 0.68926 0.0
C51 C 0.74128 0.35932 0.689 0.0
O52 O 0.78446 0.38658 0.70864 0.0
O53 O 0.77481 0.37214 0.73622 0.0
O54 O 0.73413 0.4087 0.69313 0.0
O55 O 0.74387 0.39455 0.71962 0.0
Co56 Co 0.09317 0.73428 0.78847 0.0
O57 O 0.06883 0.72749 0.77742 0.0
O58 O 0.07696 0.72283 0.80802 0.0
C59 C 0.09558 0.76399 0.77566 0.0
O60 O 0.11653 0.74024 0.8051 0.0
Co61 Co 0.12856 0.74239 0.76215 0.0
O62 O 0.13933 0.75363 0.78631 0.0
C63 C 0.11431 0.70275 0.76717 0.0
C64 C 0.06413 0.72121 0.79442 0.0
C65 C 0.13246 0.74949 0.80287 0.0
O66 O 0.10381 0.70816 0.78144 0.0
O67 O 0.12372 0.71443 0.75641 0.0
O68 O 0.08531 0.76128 0.79111 0.0
O69 O 0.10193 0.74857 0.76748 0.0
Co70 Co 0.76091 0.59225 0.28888 0.0
O71 O 0.76743 0.56633 0.28222 0.0
O72 O 0.7766 0.58126 0.30912 0.0
C73 C 0.72928 0.59099 0.28185 0.0
O74 O 0.75628 0.61848 0.3009 0.0
Co75 Co 0.74578 0.62063 0.25764 0.0
O76 O 0.73819 0.63618 0.28059 0.0
C77 C 0.78643 0.60859 0.25766 0.0
C78 C 0.7767 0.56584 0.29847 0.0
C79 C 0.74557 0.63317 0.29718 0.0
O80 O 0.78451 0.60179 0.27481 0.0
O81 O 0.77227 0.6148 0.24755 0.0
O82 O 0.7355 0.58438 0.29827 0.0
O83 O 0.74248 0.59567 0.26962 0.0
Co84 Co 0.90303 0.25921 0.79239 0.0
O85 O 0.92746 0.26911 0.7841 0.0
O86 O 0.9155 0.27208 0.8137 0.0
C87 C 0.90547 0.22948 0.77958 0.0
O88 O 0.87898 0.25038 0.80648 0.0
Co89 Co 0.87164 0.2469 0.76286 0.0
O90 O 0.85918 0.23506 0.7859 0.0
C91 C 0.88119 0.28788 0.76818 0.0
C92 C 0.92941 0.27546 0.80161 0.0
C93 C 0.86416 0.23981 0.80296 0.0
O94 O 0.89018 0.28392 0.78392 0.0
O95 O 0.87463 0.27502 0.75668 0.0
O96 O 0.9137 0.2333 0.79601 0.0
O97 O 0.89827 0.24411 0.77066 0.0
Co98 Co 0.23273 0.40514 0.29629 0.0
O99 O 0.22438 0.43076 0.29036 0.0
O100 O 0.21781 0.41507 0.31758 0.0
C101 C 0.26372 0.40807 0.28717 0.0
O102 O 0.23942 0.37915 0.30785 0.0
Co103 Co 0.24728 0.3775 0.26423 0.0
O104 O 0.25665 0.36189 0.28652 0.0
C105 C 0.20622 0.38782 0.26652 0.0
C106 C 0.21608 0.43053 0.30714 0.0
C107 C 0.25021 0.3647 0.30352 0.0
O108 O 0.2088 0.3945 0.28363 0.0
O109 O 0.22005 0.38232 0.25561 0.0
O110 O 0.25832 0.41423 0.30404 0.0
O111 O 0.24998 0.40272 0.27585 0.0
Co112 Co 0.19672 0.09492 0.26007 0.0
O113 O 0.20549 0.06969 0.26675 0.0
O114 O 0.17554 0.08047 0.27099 0.0
C115 C 0.20991 0.09688 0.23054 0.0
O116 O 0.18248 0.11984 0.25435 0.0
Co117 Co 0.22685 0.12751 0.25346 0.0
O118 O 0.20382 0.14254 0.24516 0.0
C119 C 0.22039 0.11197 0.29218 0.0
C120 C 0.18806 0.06663 0.27286 0.0
C121 C 0.18656 0.13671 0.24778 0.0
O122 O 0.20448 0.10437 0.28645 0.0
O123 O 0.23257 0.11978 0.28075 0.0
O124 O 0.19363 0.08786 0.23291 0.0
O125 O 0.21859 0.10194 0.24618 0.0
Co126 Co 0.40381 0.70039 0.76411 0.0
O127 O 0.42805 0.70918 0.77389 0.0
O128 O 0.41556 0.6801 0.77916 0.0
C129 C 0.40723 0.71049 0.73348 0.0
O130 O 0.37967 0.68607 0.75589 0.0
Co131 Co 0.37347 0.72957 0.74864 0.0
O132 O 0.36072 0.70587 0.73852 0.0
C133 C 0.38181 0.72727 0.79013 0.0
C134 C 0.42954 0.6923 0.78186 0.0
C135 C 0.36514 0.68912 0.74476 0.0
O136 O 0.39052 0.7111 0.78761 0.0
O137 O 0.37587 0.73791 0.77627 0.0
O138 O 0.41505 0.69433 0.73895 0.0
O139 O 0.3999 0.72081 0.74708 0.0
Co140 Co 0.79391 0.90017 0.25807 0.0
O141 O 0.78442 0.92533 0.26365 0.0
O142 O 0.81377 0.91485 0.27114 0.0
C143 C 0.78367 0.89844 0.2274 0.0
O144 O 0.80861 0.87519 0.25372 0.0
Co145 Co 0.76455 0.86765 0.2483 0.0
O146 O 0.78834 0.85454 0.23893 0.0
C147 C 0.76738 0.88273 0.28773 0.0
C148 C 0.80105 0.92867 0.27154 0.0
C149 C 0.80524 0.85961 0.24419 0.0
O150 O 0.78354 0.89075 0.28353 0.0
O151 O 0.75651 0.87458 0.27522 0.0
O152 O 0.79972 0.9073 0.23137 0.0
O153 O 0.77354 0.89326 0.24209 0.0
Co154 Co 0.59293 0.29546 0.76943 0.0
O155 O 0.56906 0.28573 0.7794 0.0
O156 O 0.57724 0.3167 0.77825 0.0
C157 C 0.59363 0.27787 0.74209 0.0
O158 O 0.61576 0.311 0.75964 0.0
Co159 Co 0.62827 0.26851 0.76276 0.0
O160 O 0.63814 0.29083 0.74766 0.0
C161 C 0.61613 0.27894 0.80219 0.0
C162 C 0.56464 0.3036 0.78284 0.0
C163 C 0.63125 0.30773 0.74997 0.0
O164 O 0.60507 0.29237 0.79573 0.0
O165 O 0.62507 0.26692 0.79143 0.0
O166 O 0.58347 0.29362 0.74279 0.0
O167 O 0.60109 0.27248 0.75822 0.0
Co168 Co 0.20504 0.90405 0.73018 0.0
O169 O 0.21403 0.92914 0.72335 0.0
O170 O 0.18581 0.91683 0.71451 0.0
C171 C 0.21265 0.90498 0.76167 0.0
O172 O 0.19078 0.87898 0.73529 0.0
Co173 Co 0.23418 0.87333 0.74501 0.0
O174 O 0.21011 0.85978 0.75298 0.0
C175 C 0.23418 0.88471 0.70424 0.0
C176 C 0.19789 0.93119 0.71407 0.0
C177 C 0.19363 0.86404 0.74594 0.0
O178 O 0.21775 0.89301 0.7065 0.0
O179 O 0.24411 0.87785 0.71821 0.0
O180 O 0.19677 0.91297 0.75565 0.0
O181 O 0.22419 0.89912 0.74834 0.0
Co182 Co 0.59245 0.70091 0.23226 0.0
O183 O 0.56822 0.70997 0.22259 0.0
O184 O 0.57903 0.67988 0.21997 0.0
C185 C 0.59086 0.71426 0.26178 0.0
O186 O 0.61611 0.68609 0.24099 0.0
Co187 Co 0.62505 0.72949 0.24365 0.0
O188 O 0.63678 0.70621 0.25577 0.0
C189 C 0.6149 0.72362 0.20286 0.0
C190 C 0.5655 0.69242 0.21664 0.0
C191 C 0.63117 0.68925 0.25133 0.0
O192 O 0.60521 0.70843 0.20725 0.0
O193 O 0.62218 0.73506 0.21537 0.0
O194 O 0.58201 0.69809 0.25832 0.0
O195 O 0.5982 0.72271 0.24694 0.0
Co196 Co 0.79419 0.09386 0.72794 0.0
O197 O 0.7834 0.06912 0.72237 0.0
O198 O 0.81379 0.07746 0.71677 0.0
C199 C 0.78188 0.09705 0.75776 0.0
O200 O 0.81056 0.11774 0.73273 0.0
Co201 Co 0.76746 0.12912 0.73552 0.0
O202 O 0.7916 0.14018 0.74649 0.0
C203 C 0.77106 0.11285 0.69649 0.0
C204 C 0.80035 0.06437 0.716 0.0
C205 C 0.80821 0.13357 0.74213 0.0
O206 O 0.78611 0.10327 0.7016 0.0
O207 O 0.76058 0.12246 0.70823 0.0
O208 O 0.79757 0.08709 0.75518 0.0
O209 O 0.77335 0.10276 0.74228 0.0
Co210 Co 0.39672 0.2973 0.22917 0.0
O211 O 0.42035 0.28635 0.22018 0.0
O212 O 0.41289 0.31751 0.21884 0.0
C213 C 0.39555 0.28202 0.25776 0.0
O214 O 0.37406 0.31384 0.23769 0.0
Co215 Co 0.36109 0.27118 0.23705 0.0
O216 O 0.35149 0.29452 0.25071 0.0
C217 C 0.37398 0.27865 0.19728 0.0
C218 C 0.42518 0.30378 0.21536 0.0
C219 C 0.35857 0.31121 0.24757 0.0
O220 O 0.38479 0.29253 0.20309 0.0
O221 O 0.36483 0.26733 0.20863 0.0
O222 O 0.40596 0.2975 0.25585 0.0
O223 O 0.38818 0.27532 0.24207 0.0
Co224 Co 0.25874 0.20433 0.09022 0.0
O225 O 0.26459 0.21243 0.06459 0.0
O226 O 0.2734 0.1844 0.07735 0.0
C227 C 0.22741 0.21269 0.09034 0.0
O228 O 0.25447 0.19089 0.1159 0.0
Co229 Co 0.24585 0.23459 0.12069 0.0
O230 O 0.23781 0.21107 0.1351 0.0
C231 C 0.28599 0.23368 0.10722 0.0
C232 C 0.27343 0.19605 0.06262 0.0
C233 C 0.24434 0.19434 0.13106 0.0
O234 O 0.28317 0.21694 0.09977 0.0
O235 O 0.27246 0.24402 0.11435 0.0
O236 O 0.23268 0.19639 0.0827 0.0
O237 O 0.24126 0.22403 0.09534 0.0
Co238 Co 0.25797 0.7955 0.90018 0.0
O239 O 0.26744 0.78635 0.92442 0.0
O240 O 0.27114 0.81623 0.91327 0.0
C241 C 0.228 0.78321 0.90189 0.0
O242 O 0.24971 0.81028 0.87637 0.0
Co243 Co 0.24574 0.7668 0.86802 0.0
O244 O 0.23456 0.79032 0.8558 0.0
C245 C 0.28661 0.7714 0.8783 0.0
C246 C 0.27423 0.80364 0.92681 0.0
C247 C 0.23943 0.80721 0.86124 0.0
O248 O 0.28267 0.78699 0.8875 0.0
O249 O 0.27376 0.76018 0.87127 0.0
O250 O 0.23202 0.79933 0.9106 0.0
O251 O 0.24256 0.77416 0.89472 0.0
Co252 Co 0.70277 0.76395 0.3979 0.0
O253 O 0.71425 0.76985 0.4222 0.0
O254 O 0.68355 0.77507 0.41477 0.0
C255 C 0.71531 0.73426 0.39454 0.0
O256 O 0.68586 0.75883 0.37449 0.0
Co257 Co 0.72888 0.75668 0.36213 0.0
O258 O 0.70458 0.74564 0.35149 0.0
C259 C 0.72452 0.79581 0.37792 0.0
C260 C 0.69741 0.77614 0.4274 0.0
C261 C 0.68805 0.74973 0.35847 0.0
O262 O 0.71001 0.79032 0.38805 0.0
O263 O 0.73511 0.78429 0.36816 0.0
O264 O 0.69993 0.73675 0.40497 0.0
O265 O 0.72354 0.7498 0.38855 0.0
Co266 Co 0.73433 0.19995 0.90058 0.0
O267 O 0.72877 0.20522 0.92706 0.0
O268 O 0.71899 0.17918 0.91102 0.0
C269 C 0.76599 0.20693 0.90108 0.0
O270 O 0.73805 0.18918 0.87366 0.0
Co271 Co 0.74846 0.23239 0.87311 0.0
O272 O 0.75609 0.21007 0.85666 0.0
C273 C 0.70821 0.2319 0.88642 0.0
C274 C 0.71951 0.18895 0.927 0.0
C275 C 0.74873 0.19338 0.8591 0.0
O276 O 0.71039 0.21451 0.89256 0.0
O277 O 0.72213 0.24221 0.88004 0.0
O278 O 0.76001 0.1902 0.90709 0.0
O279 O 0.75264 0.21936 0.89743 0.0
Co280 Co 0.29063 0.22998 0.39858 0.0
O281 O 0.28215 0.22387 0.42402 0.0
O282 O 0.3109 0.21634 0.41208 0.0
C283 C 0.2808 0.26085 0.39785 0.0
O284 O 0.30447 0.23473 0.37323 0.0
Co285 Co 0.26048 0.24103 0.36722 0.0
O286 O 0.28395 0.25034 0.35348 0.0
C287 C 0.26317 0.20112 0.38112 0.0
C288 C 0.29885 0.21576 0.42645 0.0
C289 C 0.30088 0.24465 0.35796 0.0
O290 O 0.27955 0.20491 0.38893 0.0
O291 O 0.25229 0.21398 0.37355 0.0
O292 O 0.29708 0.25643 0.40608 0.0
O293 O 0.27025 0.24643 0.39274 0.0
Co294 Co 0.73092 0.7937 0.08725 0.0
O295 O 0.72082 0.78657 0.06258 0.0
O296 O 0.71586 0.81478 0.07705 0.0
C297 C 0.76153 0.7838 0.08297 0.0
O298 O 0.73949 0.80644 0.1121 0.0
Co299 Co 0.74657 0.76271 0.1156 0.0
O300 O 0.7571 0.78554 0.12956 0.0
C301 C 0.70495 0.76574 0.10814 0.0
C302 C 0.71295 0.80357 0.06232 0.0
C303 C 0.75087 0.80253 0.12621 0.0
O304 O 0.7075 0.78227 0.10012 0.0
O305 O 0.71882 0.75472 0.11335 0.0
O306 O 0.75599 0.80038 0.07615 0.0
O307 O 0.74796 0.77302 0.08972 0.0
Co308 Co 0.69142 0.22773 0.59466 0.0
O309 O 0.69901 0.22174 0.56891 0.0
O310 O 0.67032 0.21495 0.58159 0.0
C311 C 0.70223 0.25828 0.59555 0.0
O312 O 0.67844 0.2325 0.62048 0.0
Co313 Co 0.72303 0.23722 0.62511 0.0
O314 O 0.70043 0.24416 0.64137 0.0
C315 C 0.71916 0.19803 0.60983 0.0
C316 C 0.682 0.2142 0.56694 0.0
C317 C 0.68308 0.23996 0.63682 0.0
O318 O 0.70219 0.20216 0.60357 0.0
O319 O 0.73074 0.21064 0.61671 0.0
O320 O 0.68556 0.25452 0.58778 0.0
O321 O 0.71245 0.24346 0.60012 0.0
Co322 Co 0.29783 0.75897 0.59562 0.0
O323 O 0.28678 0.76678 0.57163 0.0
O324 O 0.31759 0.77038 0.57961 0.0
C325 C 0.28425 0.72956 0.59711 0.0
O326 O 0.31442 0.75189 0.61872 0.0
Co327 Co 0.27146 0.75036 0.63087 0.0
O328 O 0.29538 0.73819 0.64113 0.0
C329 C 0.27741 0.79032 0.61782 0.0
C330 C 0.3039 0.77277 0.56698 0.0
C331 C 0.31202 0.74218 0.63435 0.0
O332 O 0.29143 0.78494 0.60699 0.0
O333 O 0.26655 0.77863 0.62709 0.0
O334 O 0.29978 0.73217 0.58693 0.0
O335 O 0.27651 0.74497 0.60402 0.0
Co336 Co 0.89732 0.72561 0.79654 0.0
O337 O 0.92087 0.71654 0.78538 0.0
O338 O 0.91318 0.71419 0.8164 0.0
C339 C 0.89679 0.75487 0.78253 0.0
O340 O 0.87485 0.734 0.81335 0.0
Co341 Co 0.86192 0.73548 0.77074 0.0
O342 O 0.85277 0.7486 0.79457 0.0
C343 C 0.87337 0.69503 0.77695 0.0
C344 C 0.92557 0.71111 0.80268 0.0
C345 C 0.85972 0.74453 0.81112 0.0
O346 O 0.88474 0.70001 0.79074 0.0
O347 O 0.86441 0.70704 0.76618 0.0
O348 O 0.90717 0.75201 0.79788 0.0
O349 O 0.88913 0.73965 0.7751 0.0
Co350 Co 0.76138 0.39917 0.28786 0.0
O351 O 0.76805 0.42359 0.27687 0.0
O352 O 0.76984 0.41633 0.30801 0.0
C353 C 0.73344 0.39469 0.27188 0.0
O354 O 0.75505 0.37602 0.30459 0.0
Co355 Co 0.75772 0.36239 0.26241 0.0
O356 O 0.74505 0.35156 0.28581 0.0
C357 C 0.7958 0.37954 0.27027 0.0
C358 C 0.77241 0.42888 0.29432 0.0
C359 C 0.74722 0.35936 0.30232 0.0
O360 O 0.78863 0.38993 0.28382 0.0
O361 O 0.78565 0.3691 0.25893 0.0
O362 O 0.73378 0.40553 0.2872 0.0
O363 O 0.75003 0.38894 0.26584 0.0
Co364 Co 0.09333 0.25955 0.7928 0.0
O365 O 0.06849 0.26624 0.78306 0.0
O366 O 0.0794 0.27417 0.81209 0.0
C367 C 0.09308 0.22844 0.78372 0.0
O368 O 0.11797 0.25421 0.80785 0.0
Co369 Co 0.12537 0.24635 0.76431 0.0
O370 O 0.13779 0.23724 0.78855 0.0
C371 C 0.11253 0.28672 0.76492 0.0
C372 C 0.06554 0.27478 0.79943 0.0
C373 C 0.13292 0.24352 0.80515 0.0
O374 O 0.10428 0.28395 0.78129 0.0
O375 O 0.11991 0.27315 0.75484 0.0
O376 O 0.0846 0.23354 0.79964 0.0
O377 O 0.09926 0.24238 0.77312 0.0
Co378 Co 0.22999 0.59191 0.29508 0.0
O379 O 0.22225 0.56711 0.28594 0.0
O380 O 0.21618 0.57851 0.31524 0.0
C381 C 0.26057 0.59102 0.28434 0.0
O382 O 0.23637 0.61641 0.30973 0.0
Co383 Co 0.24232 0.62384 0.26614 0.0
O384 O 0.25223 0.63661 0.28992 0.0
C385 C 0.20166 0.61213 0.26905 0.0
C386 C 0.21455 0.56455 0.30281 0.0
C387 C 0.24655 0.63162 0.30669 0.0
O388 O 0.20525 0.60333 0.28497 0.0
O389 O 0.21476 0.61944 0.2583 0.0
O390 O 0.25613 0.58268 0.30054 0.0
O391 O 0.24623 0.59753 0.27446 0.0
Co392 Co 0.90022 0.2633 0.20194 0.0
O393 O 0.92585 0.26756 0.21086 0.0
O394 O 0.91471 0.27679 0.18226 0.0
C395 C 0.89754 0.2323 0.21076 0.0
O396 O 0.87468 0.26047 0.18788 0.0
Co397 Co 0.86852 0.25374 0.2322 0.0
O398 O 0.85273 0.24869 0.20876 0.0
C399 C 0.88516 0.29245 0.23048 0.0
C400 C 0.92891 0.2762 0.19455 0.0
C401 C 0.85791 0.25351 0.19176 0.0
O402 O 0.89206 0.28861 0.21372 0.0
O403 O 0.87734 0.27974 0.24132 0.0
O404 O 0.90612 0.23666 0.19467 0.0
O405 O 0.89335 0.24665 0.22178 0.0
Co406 Co 0.23053 0.39771 0.69276 0.0
O407 O 0.22169 0.42172 0.70306 0.0
O408 O 0.21874 0.4127 0.67243 0.0
C409 C 0.25998 0.39771 0.70647 0.0
O410 O 0.23849 0.37446 0.67681 0.0
Co411 Co 0.24071 0.36342 0.7199 0.0
O412 O 0.25302 0.35288 0.6962 0.0
C413 C 0.20031 0.37545 0.71445 0.0
C414 C 0.21577 0.42558 0.68572 0.0
C415 C 0.24871 0.35919 0.67946 0.0
O416 O 0.20501 0.38556 0.69964 0.0
O417 O 0.21256 0.36713 0.72548 0.0
O418 O 0.25702 0.40733 0.69064 0.0
O419 O 0.24482 0.3904 0.71433 0.0
Co420 Co 0.0926 0.73546 0.20578 0.0
O421 O 0.06764 0.72891 0.21552 0.0
O422 O 0.07732 0.72437 0.18535 0.0
C423 C 0.09498 0.76504 0.21886 0.0
O424 O 0.11677 0.74117 0.19034 0.0
Co425 Co 0.12697 0.74302 0.23363 0.0
O426 O 0.13917 0.75396 0.21001 0.0
C427 C 0.11195 0.70373 0.2283 0.0
C428 C 0.06379 0.72278 0.19823 0.0
C429 C 0.13283 0.75002 0.19319 0.0
O430 O 0.10254 0.70917 0.21327 0.0
O431 O 0.12087 0.71535 0.23952 0.0
O432 O 0.08527 0.76264 0.20297 0.0
O433 O 0.10062 0.74942 0.22719 0.0
Co434 Co 0.75385 0.58892 0.70347 0.0
O435 O 0.75965 0.56358 0.71267 0.0
O436 O 0.76831 0.57507 0.68407 0.0
C437 C 0.72258 0.58964 0.71208 0.0
O438 O 0.74968 0.61395 0.68882 0.0
Co439 Co 0.74122 0.62105 0.73207 0.0
O440 O 0.73318 0.63436 0.70788 0.0
C441 C 0.78133 0.6073 0.73176 0.0
C442 C 0.76837 0.56086 0.69633 0.0
C443 C 0.73972 0.62939 0.69141 0.0
O444 O 0.77843 0.5989 0.71548 0.0
O445 O 0.76788 0.61511 0.74168 0.0
O446 O 0.72766 0.58121 0.69611 0.0
O447 O 0.73657 0.59512 0.72301 0.0
Co448 Co 0.79434 0.89961 0.73517 0.0
O449 O 0.78654 0.92497 0.72757 0.0
O450 O 0.81507 0.9118 0.72109 0.0
C451 C 0.78447 0.90081 0.76605 0.0
O452 O 0.80762 0.87424 0.74126 0.0
Co453 Co 0.76377 0.86945 0.74814 0.0
O454 O 0.78695 0.85528 0.75757 0.0
C455 C 0.76663 0.88077 0.70739 0.0
C456 C 0.80345 0.92645 0.71969 0.0
C457 C 0.80388 0.85925 0.75153 0.0
O458 O 0.78304 0.88879 0.71064 0.0
O459 O 0.75574 0.87413 0.72072 0.0
O460 O 0.80092 0.90841 0.76119 0.0
O461 O 0.77381 0.89515 0.75191 0.0
Co462 Co 0.59261 0.28319 0.23373 0.0
O463 O 0.5668 0.27413 0.23036 0.0
O464 O 0.57736 0.30307 0.22159 0.0
C465 C 0.59707 0.27355 0.26431 0.0
O466 O 0.61787 0.2978 0.23579 0.0
Co467 Co 0.62576 0.25388 0.24101 0.0
O468 O 0.641 0.27763 0.24643 0.0
C469 C 0.60731 0.25601 0.20308 0.0
C470 C 0.56322 0.29077 0.22253 0.0
C471 C 0.63497 0.2945 0.24218 0.0
O472 O 0.59982 0.27233 0.20772 0.0
O473 O 0.61625 0.24521 0.21509 0.0
O474 O 0.58784 0.28951 0.2608 0.0
O475 O 0.60081 0.26303 0.24946 0.0
Co476 Co 0.19978 0.09131 0.72917 0.0
O477 O 0.20816 0.06706 0.71903 0.0
O478 O 0.17896 0.07969 0.71476 0.0
C479 C 0.21077 0.08783 0.75949 0.0
O480 O 0.18576 0.11539 0.738 0.0
Co481 Co 0.22945 0.12156 0.74372 0.0
O482 O 0.20613 0.13398 0.75504 0.0
C483 C 0.22588 0.11335 0.70233 0.0
C484 C 0.19099 0.06566 0.71164 0.0
C485 C 0.18916 0.12962 0.74939 0.0
O486 O 0.20977 0.10466 0.70535 0.0
O487 O 0.23694 0.11927 0.71586 0.0
O488 O 0.19449 0.07998 0.75446 0.0
O489 O 0.22073 0.09513 0.74559 0.0
Co490 Co 0.39764 0.69973 0.23049 0.0
O491 O 0.42167 0.71119 0.22344 0.0
O492 O 0.41501 0.67994 0.22134 0.0
C493 C 0.3937 0.7151 0.25879 0.0
O494 O 0.37467 0.68281 0.23729 0.0
Co495 Co 0.36108 0.72547 0.23504 0.0
O496 O 0.35101 0.70211 0.24833 0.0
C497 C 0.37709 0.71758 0.19659 0.0
C498 C 0.42727 0.69393 0.21881 0.0
C499 C 0.35847 0.68545 0.24597 0.0
O500 O 0.38768 0.70403 0.2035 0.0
O501 O 0.36692 0.72895 0.20696 0.0
O502 O 0.40474 0.69995 0.25788 0.0
O503 O 0.38762 0.72149 0.24244 0.0
Co504 Co 0.79078 0.09327 0.26264 0.0
O505 O 0.78279 0.06851 0.27192 0.0
O506 O 0.81299 0.07936 0.27194 0.0
C507 C 0.77431 0.09348 0.23462 0.0
O508 O 0.80462 0.11742 0.25385 0.0
Co509 Co 0.76123 0.12643 0.25617 0.0
O510 O 0.78322 0.13904 0.24262 0.0
C511 C 0.77146 0.11406 0.29547 0.0
C512 C 0.80086 0.06566 0.27598 0.0
C513 C 0.80051 0.13318 0.24501 0.0
O514 O 0.78604 0.10464 0.28898 0.0
O515 O 0.75875 0.12196 0.28466 0.0
O516 O 0.79067 0.08434 0.23581 0.0
O517 O 0.76761 0.09985 0.25073 0.0
Co518 Co 0.39943 0.29091 0.75946 0.0
O519 O 0.42429 0.28133 0.76637 0.0
O520 O 0.41317 0.31034 0.7741 0.0
C521 C 0.39985 0.28182 0.72838 0.0
O522 O 0.37475 0.3058 0.7539 0.0
Co523 Co 0.36764 0.26212 0.74623 0.0
O524 O 0.35513 0.28626 0.73692 0.0
C525 C 0.37978 0.26333 0.78678 0.0
C526 C 0.42711 0.29777 0.77483 0.0
C527 C 0.35986 0.30292 0.74317 0.0
O528 O 0.38831 0.27953 0.78383 0.0
O529 O 0.37246 0.25308 0.77329 0.0
O530 O 0.40832 0.29773 0.73354 0.0
O531 O 0.39369 0.27115 0.74228 0.0
Co532 Co 0.20952 0.9016 0.25951 0.0
O533 O 0.2187 0.92672 0.26629 0.0
O534 O 0.18891 0.91605 0.27126 0.0
C535 C 0.2217 0.9 0.22954 0.0
O536 O 0.19457 0.8772 0.25365 0.0
Co537 Co 0.23825 0.86826 0.25106 0.0
O538 O 0.21466 0.85455 0.24202 0.0
C539 C 0.23323 0.88237 0.29059 0.0
C540 C 0.2014 0.92996 0.27272 0.0
C541 C 0.19772 0.86077 0.24569 0.0
O542 O 0.21784 0.89137 0.28545 0.0
O543 O 0.24464 0.87415 0.27866 0.0
O544 O 0.20572 0.90933 0.23266 0.0
O545 O 0.23081 0.8944 0.24476 0.0
Co546 Co 0.59002 0.70589 0.75931 0.0
O547 O 0.56595 0.71612 0.768 0.0
O548 O 0.57716 0.687 0.77522 0.0
C549 C 0.58749 0.71457 0.72819 0.0
O550 O 0.61366 0.69011 0.75225 0.0
Co551 Co 0.62185 0.73284 0.74304 0.0
O552 O 0.63311 0.70817 0.73364 0.0
C553 C 0.61355 0.73256 0.78467 0.0
C554 C 0.56354 0.6998 0.77688 0.0
C555 C 0.62804 0.69194 0.74067 0.0
O556 O 0.60326 0.71725 0.78259 0.0
O557 O 0.62063 0.74195 0.77044 0.0
O558 O 0.57898 0.699 0.73426 0.0
O559 O 0.59506 0.72524 0.7414 0.0
Co560 Co 0.7332 0.79115 0.90322 0.0
O561 O 0.72362 0.78167 0.92723 0.0
O562 O 0.71796 0.81095 0.91556 0.0
C563 C 0.76383 0.78097 0.90659 0.0
O564 O 0.74138 0.80622 0.87945 0.0
Co565 Co 0.74892 0.76297 0.87216 0.0
O566 O 0.75945 0.78703 0.86058 0.0
C567 C 0.70715 0.76526 0.87969 0.0
C568 C 0.71546 0.7984 0.92928 0.0
C569 C 0.753 0.80362 0.86522 0.0
O570 O 0.70967 0.78067 0.88971 0.0
O571 O 0.7211 0.75511 0.8731 0.0
O572 O 0.75839 0.79701 0.91464 0.0
O573 O 0.75027 0.77089 0.89884 0.0
Co574 Co 0.72771 0.20187 0.09338 0.0
O575 O 0.72137 0.21133 0.06827 0.0
O576 O 0.71975 0.18063 0.07722 0.0
C577 C 0.75549 0.21826 0.09737 0.0
O578 O 0.73376 0.18679 0.11777 0.0
Co579 Co 0.72982 0.23044 0.12796 0.0
O580 O 0.73961 0.20746 0.14211 0.0
C581 C 0.69257 0.22086 0.11034 0.0
C582 C 0.71733 0.19358 0.06386 0.0
C583 C 0.73898 0.19041 0.1352 0.0
O584 O 0.70022 0.20621 0.10194 0.0
O585 O 0.70237 0.23362 0.11937 0.0
O586 O 0.75541 0.20231 0.08748 0.0
O587 O 0.73876 0.22461 0.10229 0.0
Co588 Co 0.29612 0.23144 0.58699 0.0
O589 O 0.28842 0.22147 0.56245 0.0
O590 O 0.31742 0.21755 0.57565 0.0
C591 C 0.28466 0.26163 0.58361 0.0
O592 O 0.30951 0.24014 0.61146 0.0
Co593 Co 0.26569 0.2453 0.61681 0.0
O594 O 0.28862 0.2565 0.63007 0.0
C595 C 0.27017 0.20398 0.60848 0.0
C596 C 0.30574 0.21442 0.56133 0.0
C597 C 0.30571 0.25107 0.62594 0.0
O598 O 0.28628 0.20731 0.59991 0.0
O599 O 0.25881 0.21729 0.61433 0.0
O600 O 0.3012 0.25699 0.57608 0.0
O601 O 0.27482 0.24747 0.59057 0.0
Co602 Co 0.26054 0.7873 0.09062 0.0
O603 O 0.26553 0.77832 0.0651 0.0
O604 O 0.27469 0.80678 0.07662 0.0
C605 C 0.22928 0.77889 0.09224 0.0
O606 O 0.25724 0.80169 0.11586 0.0
Co607 Co 0.24893 0.75838 0.12282 0.0
O608 O 0.24141 0.78245 0.13663 0.0
C609 C 0.28853 0.75878 0.10776 0.0
C610 C 0.2743 0.79464 0.06233 0.0
C611 C 0.24782 0.79896 0.13159 0.0
O612 O 0.28534 0.77517 0.09971 0.0
O613 O 0.27536 0.74873 0.1159 0.0
O614 O 0.23421 0.79489 0.08376 0.0
O615 O 0.24334 0.76777 0.09718 0.0
Co616 Co 0.70063 0.75986 0.59373 0.0
O617 O 0.71119 0.76875 0.56981 0.0
O618 O 0.68064 0.77232 0.57894 0.0
C619 C 0.71333 0.72999 0.59366 0.0
O620 O 0.68432 0.75207 0.61669 0.0
Co621 Co 0.72708 0.74864 0.62816 0.0
O622 O 0.70293 0.73702 0.63857 0.0
C623 C 0.72269 0.78931 0.6168 0.0
C624 C 0.69395 0.7751 0.56606 0.0
C625 C 0.68642 0.74178 0.63197 0.0
O626 O 0.70803 0.78503 0.60628 0.0
O627 O 0.73335 0.77673 0.62511 0.0
O628 O 0.69778 0.7336 0.5838 0.0
O629 O 0.72172 0.74484 0.60107 0.0
Co630 Co 0.26141 0.1934 0.89968 0.0
O631 O 0.27058 0.20261 0.92403 0.0
O632 O 0.27365 0.17249 0.91345 0.0
C633 C 0.2318 0.20673 0.9007 0.0
O634 O 0.25326 0.1785 0.87585 0.0
Co635 Co 0.25045 0.222 0.86688 0.0
O636 O 0.23854 0.19864 0.85511 0.0
C637 C 0.29107 0.21643 0.87798 0.0
C638 C 0.27673 0.18516 0.92691 0.0
C639 C 0.24307 0.18169 0.86068 0.0
O640 O 0.28664 0.20109 0.88742 0.0
O641 O 0.27859 0.2278 0.87051 0.0
O642 O 0.2351 0.19053 0.90958 0.0
O643 O 0.24678 0.21513 0.89361 0.0
Co644 Co 0.2912 0.76076 0.40366 0.0
O645 O 0.28448 0.76906 0.42908 0.0
O646 O 0.31332 0.7728 0.41551 0.0
C647 C 0.27869 0.73087 0.40455 0.0
O648 O 0.30356 0.7535 0.37822 0.0
Co649 Co 0.25898 0.7514 0.3739 0.0
O650 O 0.28095 0.74193 0.358 0.0
C651 C 0.26614 0.79141 0.38536 0.0
C652 C 0.30209 0.77533 0.43029 0.0
C653 C 0.29851 0.74535 0.36236 0.0
O654 O 0.2823 0.78632 0.39294 0.0
O655 O 0.25366 0.77936 0.37909 0.0
O656 O 0.29544 0.73427 0.41232 0.0
O657 O 0.26915 0.74596 0.39929 0.0
Co658 Co 0.708 0.23449 0.40485 0.0
O659 O 0.71554 0.2283 0.43067 0.0
O660 O 0.68762 0.22016 0.41723 0.0
C661 C 0.71673 0.26572 0.40475 0.0
O662 O 0.69482 0.23899 0.37915 0.0
Co663 Co 0.73829 0.24707 0.37437 0.0
O664 O 0.71497 0.25511 0.35953 0.0
C665 C 0.73649 0.20666 0.38705 0.0
C666 C 0.69888 0.21986 0.43223 0.0
C667 C 0.69824 0.24869 0.36373 0.0
O668 O 0.72017 0.2099 0.39524 0.0
O669 O 0.74699 0.21997 0.37973 0.0
O670 O 0.70039 0.26058 0.41239 0.0
O671 O 0.728 0.25175 0.39986 0.0
H672 H 0.95523 0.28669 0.22101 0.0
H673 H 0.94528 0.2853 0.15955 0.0
H674 H 0.98823 0.29601 0.21576 0.0
H675 H 0.97886 0.29523 0.15406 0.0
H676 H 0.04351 0.27202 0.16099 0.0
H677 H 0.00897 0.27798 0.15783 0.0
H678 H 0.01175 0.31814 0.20547 0.0
H679 H 0.04597 0.31095 0.2094 0.0
C680 C 0.96007 0.28877 0.2063 0.0
C681 C 0.94786 0.28488 0.19068 0.0
C682 C 0.979 0.29445 0.20325 0.0
C683 C 0.9863 0.2964 0.18444 0.0
C684 C 0.9737 0.29372 0.16872 0.0
C685 C 0.95453 0.28809 0.17183 0.0
C686 C 0.03677 0.28256 0.17035 0.0
C687 C 0.04706 0.29067 0.18574 0.0
C688 C 0.017 0.28611 0.16848 0.0
C689 C 0.00748 0.29808 0.18181 0.0
C690 C 0.01855 0.30832 0.1954 0.0
C691 C 0.03811 0.3043 0.19764 0.0
H692 H 0.21075 0.54789 0.66224 0.0
H693 H 0.21048 0.53437 0.72304 0.0
H694 H 0.20155 0.51453 0.65489 0.0
H695 H 0.20192 0.50145 0.7159 0.0
H696 H 0.18767 0.44367 0.70562 0.0
H697 H 0.18026 0.47803 0.70451 0.0
H698 H 0.21929 0.48466 0.65633 0.0
H699 H 0.2255 0.45002 0.65673 0.0
C700 C 0.20837 0.5379 0.67401 0.0
C701 C 0.21164 0.54357 0.69319 0.0
C702 C 0.20317 0.51882 0.66982 0.0
C703 C 0.20105 0.50524 0.68477 0.0
C704 C 0.20307 0.51146 0.70397 0.0
C705 C 0.20827 0.53036 0.7081 0.0
C706 C 0.194 0.45244 0.69434 0.0
C707 C 0.20735 0.44448 0.68146 0.0
C708 C 0.18988 0.4721 0.69374 0.0
C709 C 0.19972 0.48423 0.68079 0.0
C710 C 0.21146 0.4758 0.66652 0.0
C711 C 0.21512 0.45597 0.66677 0.0
H712 H 0.04918 0.71319 0.16269 0.0
H713 H 0.03513 0.71456 0.22336 0.0
H714 H 0.01599 0.70354 0.15529 0.0
H715 H 0.00231 0.70554 0.2161 0.0
H716 H 0.95063 0.72519 0.15573 0.0
H717 H 0.98552 0.72052 0.15599 0.0
H718 H 0.97994 0.68233 0.205 0.0
H719 H 0.94526 0.68811 0.20538 0.0
C720 C 0.03909 0.71118 0.17443 0.0
C721 C 0.04462 0.71489 0.19357 0.0
C722 C 0.02011 0.70569 0.1702 0.0
C723 C 0.00646 0.70374 0.18507 0.0
C724 C 0.01244 0.7065 0.20426 0.0
C725 C 0.03126 0.71197 0.20844 0.0
C726 C 0.95688 0.71529 0.1661 0.0
C727 C 0.94553 0.70733 0.1808 0.0
C728 C 0.97686 0.71253 0.16624 0.0
C729 C 0.98557 0.70152 0.18092 0.0
C730 C 0.97372 0.69142 0.19391 0.0
C731 C 0.95389 0.6946 0.19408 0.0
H732 H 0.80503 0.44387 0.70728 0.0
H733 H 0.76628 0.44745 0.65878 0.0
H734 H 0.81175 0.47829 0.7046 0.0
H735 H 0.7719 0.48214 0.65676 0.0
H736 H 0.77841 0.53347 0.72207 0.0
H737 H 0.78842 0.50079 0.71564 0.0
H738 H 0.78906 0.51278 0.65443 0.0
H739 H 0.77857 0.54595 0.66105 0.0
C740 C 0.79849 0.45199 0.69562 0.0
C741 C 0.78499 0.44328 0.68338 0.0
C742 C 0.80219 0.47168 0.69414 0.0
C743 C 0.79181 0.48308 0.68094 0.0
C744 C 0.78012 0.47384 0.66714 0.0
C745 C 0.77683 0.45397 0.66829 0.0
C746 C 0.78099 0.52928 0.70724 0.0
C747 C 0.7774 0.54212 0.69205 0.0
C748 C 0.78703 0.51054 0.70352 0.0
C749 C 0.7896 0.50409 0.68447 0.0
C750 C 0.78711 0.51729 0.66924 0.0
C751 C 0.78115 0.53624 0.67302 0.0
H752 H 0.94894 0.72005 0.83282 0.0
H753 H 0.94602 0.68622 0.78073 0.0
H754 H 0.98391 0.71627 0.83342 0.0
H755 H 0.9808 0.68123 0.78192 0.0
H756 H 0.03651 0.71415 0.76778 0.0
H757 H 0.00347 0.70481 0.77317 0.0
H758 H 0.01455 0.70009 0.83439 0.0
H759 H 0.04798 0.71017 0.8289 0.0
C760 C 0.95574 0.71105 0.82202 0.0
C761 C 0.94503 0.70377 0.8065 0.0
C762 C 0.97579 0.70879 0.82237 0.0
C763 C 0.98524 0.69893 0.80736 0.0
C764 C 0.97404 0.68948 0.79332 0.0
C765 C 0.95413 0.6922 0.79268 0.0
C766 C 0.03204 0.7109 0.78239 0.0
C767 C 0.04476 0.71318 0.79795 0.0
C768 C 0.01306 0.70526 0.78549 0.0
C769 C 0.00627 0.70161 0.80425 0.0
C770 C 0.01928 0.70295 0.81979 0.0
C771 C 0.0384 0.70867 0.81665 0.0
H772 H 0.80603 0.54698 0.28133 0.0
H773 H 0.76622 0.54396 0.32892 0.0
H774 H 0.81285 0.51261 0.28469 0.0
H775 H 0.77192 0.50936 0.33163 0.0
H776 H 0.7798 0.44573 0.32936 0.0
H777 H 0.7891 0.4793 0.33524 0.0
H778 H 0.79051 0.48928 0.27368 0.0
H779 H 0.78182 0.45608 0.26795 0.0
C780 C 0.7993 0.539 0.29295 0.0
C781 C 0.78555 0.54782 0.30479 0.0
C782 C 0.80302 0.51933 0.29479 0.0
C783 C 0.79241 0.50812 0.30796 0.0
C784 C 0.78035 0.51751 0.32132 0.0
C785 C 0.77702 0.53732 0.31978 0.0
C786 C 0.78244 0.4551 0.31715 0.0
C787 C 0.77979 0.44842 0.2982 0.0
C788 C 0.78778 0.47428 0.32051 0.0
C789 C 0.79059 0.48701 0.30496 0.0
C790 C 0.78888 0.47989 0.28605 0.0
C791 C 0.78358 0.46085 0.28273 0.0
H792 H 0.03982 0.28687 0.77297 0.0
H793 H 0.04882 0.283 0.83445 0.0
H794 H 0.0065 0.29507 0.77806 0.0
H795 H 0.015 0.29193 0.83982 0.0
H796 H 0.95194 0.26602 0.83212 0.0
H797 H 0.98601 0.27393 0.83559 0.0
H798 H 0.98118 0.31442 0.78833 0.0
H799 H 0.94751 0.30516 0.78403 0.0
C800 C 0.03472 0.28829 0.78767 0.0
C801 C 0.04674 0.28387 0.8033 0.0
C802 C 0.01556 0.2933 0.79066 0.0
C803 C 0.00787 0.29404 0.80941 0.0
C804 C 0.02038 0.29121 0.82519 0.0
C805 C 0.03974 0.2862 0.82214 0.0
C806 C 0.95811 0.27704 0.82292 0.0
C807 C 0.94745 0.28469 0.80755 0.0
C808 C 0.97762 0.28171 0.82495 0.0
C809 C 0.98655 0.29438 0.81181 0.0
C810 C 0.97495 0.30407 0.79823 0.0
C811 C 0.95567 0.2989 0.79581 0.0
H812 H 0.22663 0.45331 0.33689 0.0
H813 H 0.18389 0.44659 0.29226 0.0
H814 H 0.21752 0.48703 0.34066 0.0
H815 H 0.17366 0.47997 0.29681 0.0
H816 H 0.20086 0.53824 0.27768 0.0
H817 H 0.19247 0.50518 0.2843 0.0
H818 H 0.19865 0.51563 0.34551 0.0
H819 H 0.2076 0.54913 0.33861 0.0
C820 C 0.21455 0.45886 0.32865 0.0
C821 C 0.20612 0.44772 0.31409 0.0
C822 C 0.20921 0.47817 0.33085 0.0
C823 C 0.19524 0.48639 0.31859 0.0
C824 C 0.1849 0.47423 0.30604 0.0
C825 C 0.19062 0.45513 0.30349 0.0
C826 C 0.20002 0.53363 0.29259 0.0
C827 C 0.20535 0.54605 0.3076 0.0
C828 C 0.19491 0.51465 0.29647 0.0
C829 C 0.19506 0.50759 0.31549 0.0
C830 C 0.19866 0.52056 0.33069 0.0
C831 C 0.20373 0.53972 0.32676 0.0
H832 H 0.1652 0.9444 0.2795 0.0
H833 H 0.22577 0.95862 0.283 0.0
H834 H 0.15695 0.97788 0.28725 0.0
H835 H 0.21772 0.99171 0.29028 0.0
H836 H 0.20548 0.04957 0.30303 0.0
H837 H 0.20422 0.01534 0.31107 0.0
H838 H 0.15971 0.00718 0.2681 0.0
H839 H 0.16028 0.04171 0.26105 0.0
C840 C 0.17672 0.95458 0.2823 0.0
C841 C 0.19612 0.94905 0.28034 0.0
C842 C 0.172 0.97371 0.28668 0.0
C843 C 0.18664 0.9875 0.28932 0.0
C844 C 0.20602 0.98149 0.28866 0.0
C845 C 0.21068 0.96251 0.28422 0.0
C846 C 0.19489 0.04051 0.29595 0.0
C847 C 0.18315 0.04796 0.2813 0.0
C848 C 0.19422 0.02094 0.30044 0.0
C849 C 0.18232 0.00845 0.28979 0.0
C850 C 0.16904 0.01638 0.2766 0.0
C851 C 0.16939 0.03612 0.27246 0.0
H852 H 0.53702 0.72593 0.78828 0.0
H853 H 0.54925 0.66485 0.78883 0.0
H854 H 0.50452 0.71972 0.7988 0.0
H855 H 0.51638 0.65845 0.80007 0.0
H856 H 0.45253 0.66157 0.77483 0.0
H857 H 0.48673 0.65987 0.78264 0.0
H858 H 0.48053 0.70939 0.82007 0.0
H859 H 0.44663 0.71181 0.81092 0.0
C860 C 0.53285 0.71114 0.79117 0.0
C861 C 0.54546 0.69585 0.78727 0.0
C862 C 0.5142 0.70754 0.79752 0.0
C863 C 0.50765 0.6885 0.80014 0.0
C864 C 0.52087 0.67325 0.79792 0.0
C865 C 0.53968 0.67691 0.79154 0.0
C866 C 0.4584 0.67159 0.78529 0.0
C867 C 0.44729 0.68706 0.79199 0.0
C868 C 0.47801 0.6706 0.78988 0.0
C869 C 0.48655 0.68494 0.80148 0.0
C870 C 0.47454 0.69856 0.81054 0.0
C871 C 0.45513 0.6999 0.80545 0.0
H872 H 0.8309 0.04381 0.26372 0.0
H873 H 0.78483 0.04579 0.30539 0.0
H874 H 0.83528 0.00948 0.27007 0.0
H875 H 0.79009 0.01185 0.313 0.0
H876 H 0.77456 0.9539 0.2843 0.0
H877 H 0.7793 0.9872 0.29278 0.0
H878 H 0.84109 0.98003 0.28738 0.0
H879 H 0.83606 0.94617 0.27824 0.0
C880 C 0.82232 0.03701 0.27488 0.0
C881 C 0.80721 0.04708 0.28374 0.0
C882 C 0.82491 0.01738 0.27866 0.0
C883 C 0.81261 0.00775 0.29164 0.0
C884 C 0.79933 0.01867 0.30242 0.0
C885 C 0.79634 0.03809 0.29816 0.0
C886 C 0.7892 0.95929 0.28523 0.0
C887 C 0.80491 0.94763 0.28021 0.0
C888 C 0.792 0.97842 0.29041 0.0
C889 C 0.81062 0.98644 0.29071 0.0
C890 C 0.82654 0.97434 0.28708 0.0
C891 C 0.8237 0.95499 0.28193 0.0
H892 H 0.54458 0.285 0.81063 0.0
H893 H 0.54149 0.33304 0.77124 0.0
H894 H 0.51014 0.28794 0.81706 0.0
H895 H 0.50677 0.33522 0.77648 0.0
H896 H 0.4432 0.33297 0.78362 0.0
H897 H 0.47672 0.33883 0.79341 0.0
H898 H 0.48637 0.27721 0.79565 0.0
H899 H 0.45332 0.27158 0.78653 0.0
C900 C 0.53652 0.29644 0.80366 0.0
C901 C 0.54543 0.30855 0.79018 0.0
C902 C 0.51681 0.29809 0.80724 0.0
C903 C 0.50554 0.31136 0.79678 0.0
C904 C 0.51493 0.32482 0.78481 0.0
C905 C 0.53482 0.32352 0.78168 0.0
C906 C 0.45246 0.32078 0.78676 0.0
C907 C 0.44583 0.30183 0.78401 0.0
C908 C 0.47164 0.32411 0.79226 0.0
C909 C 0.48434 0.30852 0.79521 0.0
C910 C 0.47709 0.28963 0.79382 0.0
C911 C 0.45811 0.28636 0.78831 0.0
H912 H 0.16055 0.04268 0.71988 0.0
H913 H 0.20919 0.0487 0.68169 0.0
H914 H 0.15826 0.00858 0.71176 0.0
H915 H 0.20612 0.01495 0.67227 0.0
H916 H 0.22359 0.95788 0.70243 0.0
H917 H 0.21717 0.99066 0.69293 0.0
H918 H 0.15581 0.97915 0.69378 0.0
H919 H 0.1625 0.94591 0.70391 0.0
C920 C 0.17007 0.03687 0.70894 0.0
C921 C 0.1853 0.04797 0.70168 0.0
C922 C 0.16873 0.01733 0.70416 0.0
C923 C 0.18246 0.00885 0.69183 0.0
C924 C 0.19577 0.02088 0.68234 0.0
C925 C 0.19748 0.04021 0.6876 0.0
C926 C 0.20873 0.96219 0.70021 0.0
C927 C 0.19353 0.94954 0.70434 0.0
C928 C 0.20499 0.98101 0.69445 0.0
C929 C 0.18591 0.98771 0.6927 0.0
C930 C 0.17066 0.97452 0.69523 0.0
C931 C 0.17447 0.9555 0.70096 0.0
H932 H 0.4536 0.72121 0.20985 0.0
H933 H 0.44538 0.65945 0.21125 0.0
H934 H 0.48714 0.71678 0.20217 0.0
H935 H 0.47938 0.65485 0.20274 0.0
H936 H 0.5434 0.66162 0.22608 0.0
H937 H 0.50891 0.65861 0.21993 0.0
H938 H 0.5117 0.7075 0.18124 0.0
H939 H 0.54586 0.71127 0.18873 0.0
C940 C 0.45891 0.70662 0.20812 0.0
C941 C 0.44695 0.69068 0.21152 0.0
C942 C 0.4782 0.70404 0.20339 0.0
C943 C 0.48609 0.68541 0.20179 0.0
C944 C 0.47382 0.66939 0.20406 0.0
C945 C 0.45437 0.67201 0.20889 0.0
C946 C 0.53666 0.6713 0.21581 0.0
C947 C 0.54696 0.68692 0.20818 0.0
C948 C 0.51691 0.66955 0.21218 0.0
C949 C 0.50737 0.68322 0.20056 0.0
C950 C 0.51845 0.69718 0.19083 0.0
C951 C 0.538 0.69928 0.19497 0.0
H952 H 0.8352 0.04665 0.7093 0.0
H953 H 0.77362 0.03746 0.70721 0.0
H954 H 0.84045 0.01234 0.70252 0.0
H955 H 0.77867 0.00363 0.70108 0.0
H956 H 0.78554 0.94438 0.6902 0.0
H957 H 0.78904 0.97824 0.68131 0.0
H958 H 0.83632 0.98368 0.72168 0.0
H959 H 0.83354 0.94943 0.7294 0.0
C960 C 0.82283 0.03738 0.70706 0.0
C961 C 0.80401 0.04461 0.70909 0.0
C962 C 0.82582 0.01775 0.70325 0.0
C963 C 0.81002 0.00515 0.70131 0.0
C964 C 0.79125 0.01282 0.70213 0.0
C965 C 0.78831 0.03227 0.70593 0.0
C966 C 0.79718 0.95272 0.69649 0.0
C967 C 0.80916 0.94459 0.71056 0.0
C968 C 0.79911 0.97211 0.69156 0.0
C969 C 0.81253 0.98385 0.70127 0.0
C970 C 0.82584 0.97511 0.7139 0.0
C971 C 0.82423 0.95552 0.71841 0.0
H972 H 0.54852 0.32598 0.21176 0.0
H973 H 0.53408 0.26557 0.21679 0.0
H974 H 0.51506 0.33311 0.20259 0.0
H975 H 0.50111 0.27256 0.20807 0.0
H976 H 0.44442 0.28257 0.18905 0.0
H977 H 0.47913 0.2829 0.18352 0.0
H978 H 0.48443 0.33279 0.22053 0.0
H979 H 0.44948 0.33301 0.22508 0.0
C980 C 0.53828 0.31423 0.21065 0.0
C981 C 0.54379 0.29526 0.21521 0.0
C982 C 0.51918 0.31831 0.20543 0.0
C983 C 0.50544 0.30341 0.2045 0.0
C984 C 0.51133 0.28437 0.20824 0.0
C985 C 0.53024 0.28036 0.21352 0.0
C986 C 0.45298 0.29403 0.19536 0.0
C987 C 0.44452 0.30754 0.20775 0.0
C988 C 0.47282 0.29419 0.19229 0.0
C989 C 0.48457 0.30747 0.20212 0.0
C990 C 0.47579 0.32235 0.21277 0.0
C991 C 0.4558 0.32245 0.21546 0.0
H992 H 0.28464 0.22084 0.03494 0.0
H993 H 0.28221 0.16009 0.04842 0.0
H994 H 0.29344 0.21346 0.00217 0.0
H995 H 0.29156 0.15244 0.01516 0.0
H996 H 0.2665 0.15606 0.95094 0.0
H997 H 0.27353 0.15477 0.9854 0.0
H998 H 0.31455 0.20127 0.9786 0.0
H999 H 0.30633 0.20335 0.94447 0.0
C1000 C 0.28646 0.20584 0.03094 0.0
C1001 C 0.28237 0.19103 0.04406 0.0
C1002 C 0.2918 0.20155 0.01214 0.0
C1003 C 0.29317 0.18229 0.00591 0.0
C1004 C 0.29046 0.16741 0.01946 0.0
C1005 C 0.28518 0.17176 0.03848 0.0
C1006 C 0.27749 0.1655 0.95679 0.0
C1007 C 0.2856 0.18007 0.94538 0.0
C1008 C 0.28164 0.16472 0.97651 0.0
C1009 C 0.29418 0.17834 0.98488 0.0
C1010 C 0.30434 0.19101 0.97272 0.0
C1011 C 0.29975 0.19216 0.95319 0.0
H1012 H 0.28369 0.76908 0.03462 0.0
H1013 H 0.28411 0.83002 0.04746 0.0
H1014 H 0.29213 0.77578 0.0016 0.0
H1015 H 0.2931 0.83695 0.01396 0.0
H1016 H 0.2659 0.83348 0.95061 0.0
H1017 H 0.27413 0.83502 0.98477 0.0
H1018 H 0.31322 0.78694 0.97742 0.0
H1019 H 0.30378 0.78467 0.94361 0.0
C1020 C 0.28604 0.78395 0.03042 0.0
C1021 C 0.28284 0.79905 0.04344 0.0
C1022 C 0.29119 0.78784 0.01147 0.0
C1023 C 0.29325 0.80696 0.00502 0.0
C1024 C 0.29144 0.82208 0.01845 0.0
C1025 C 0.28635 0.81813 0.03759 0.0
C1026 C 0.27675 0.82373 0.95625 0.0
C1027 C 0.28392 0.80869 0.94484 0.0
C1028 C 0.28159 0.82465 0.97579 0.0
C1029 C 0.29388 0.81068 0.98396 0.0
C1030 C 0.30321 0.79749 0.97169 0.0
C1031 C 0.29791 0.79622 0.95235 0.0
H1032 H 0.66342 0.76746 0.54283 0.0
H1033 H 0.71511 0.80176 0.54708 0.0
H1034 H 0.66139 0.77458 0.50846 0.0
H1035 H 0.71239 0.81028 0.51308 0.0
H1036 H 0.66323 0.78526 0.44537 0.0
H1037 H 0.65883 0.79291 0.47959 0.0
H1038 H 0.72067 0.79009 0.48773 0.0
H1039 H 0.72492 0.78331 0.454 0.0
C1040 C 0.67385 0.77723 0.5365 0.0
C1041 C 0.68967 0.78373 0.54727 0.0
C1042 C 0.67265 0.78144 0.51682 0.0
C1043 C 0.68709 0.79255 0.50783 0.0
C1044 C 0.70145 0.80108 0.51938 0.0
C1045 C 0.70298 0.79634 0.53884 0.0
C1046 C 0.67583 0.78674 0.4545 0.0
C1047 C 0.69439 0.78337 0.44713 0.0
C1048 C 0.67332 0.79104 0.47409 0.0
C1049 C 0.68936 0.79203 0.48653 0.0
C1050 C 0.70794 0.78982 0.4787 0.0
C1051 C 0.7104 0.78562 0.45928 0.0
H1052 H 0.71484 0.15778 0.04709 0.0
H1053 H 0.70472 0.21835 0.03652 0.0
H1054 H 0.70785 0.15081 0.01314 0.0
H1055 H 0.6982 0.21161 0.003 0.0
H1056 H 0.73371 0.16106 0.95007 0.0
H1057 H 0.72651 0.15747 0.9843 0.0
H1058 H 0.67903 0.19752 0.9783 0.0
H1059 H 0.68709 0.20177 0.94426 0.0
C1060 C 0.71081 0.16952 0.0376 0.0
C1061 C 0.71068 0.18864 0.0443 0.0
C1062 C 0.70683 0.16555 0.0182 0.0
C1063 C 0.70251 0.18063 0.00531 0.0
C1064 C 0.70115 0.19955 0.01248 0.0
C1065 C 0.70519 0.20349 0.03171 0.0
C1066 C 0.72127 0.16843 0.956 0.0
C1067 C 0.71099 0.18177 0.94484 0.0
C1068 C 0.71706 0.16636 0.97558 0.0
C1069 C 0.70248 0.17759 0.98413 0.0
C1070 C 0.69066 0.18904 0.97222 0.0
C1071 C 0.69513 0.19138 0.95276 0.0
H1072 H 0.28917 0.18358 0.54428 0.0
H1073 H 0.33571 0.22436 0.53845 0.0
H1074 H 0.29275 0.17446 0.51051 0.0
H1075 H 0.33845 0.21647 0.50432 0.0
H1076 H 0.33473 0.20791 0.44147 0.0
H1077 H 0.34188 0.19852 0.47485 0.0
H1078 H 0.28064 0.19479 0.48634 0.0
H1079 H 0.27377 0.2036 0.45346 0.0
C1080 C 0.30056 0.19013 0.53582 0.0
C1081 C 0.31198 0.20481 0.54364 0.0
C1082 C 0.30256 0.18504 0.51649 0.0
C1083 C 0.31535 0.19528 0.50451 0.0
C1084 C 0.3284 0.20831 0.51304 0.0
C1085 C 0.3268 0.21294 0.53258 0.0
C1086 C 0.32291 0.20454 0.45111 0.0
C1087 C 0.3037 0.20686 0.44509 0.0
C1088 C 0.32698 0.19921 0.47019 0.0
C1089 C 0.31187 0.19601 0.48338 0.0
C1090 C 0.29273 0.19683 0.47668 0.0
C1091 C 0.28872 0.2022 0.45781 0.0
H1092 H 0.72183 0.83414 0.03989 0.0
H1093 H 0.68174 0.78704 0.04583 0.0
H1094 H 0.71315 0.83741 0.00605 0.0
H1095 H 0.67172 0.79116 0.01234 0.0
H1096 H 0.70109 0.773 0.955 0.0
H1097 H 0.69108 0.77954 0.98756 0.0
H1098 H 0.69559 0.84089 0.97684 0.0
H1099 H 0.70632 0.83405 0.9439 0.0
C1100 C 0.71036 0.82522 0.03413 0.0
C1101 C 0.7027 0.8101 0.0451 0.0
C1102 C 0.70525 0.82712 0.01474 0.0
C1103 C 0.6922 0.81406 0.00624 0.0
C1104 C 0.68235 0.80098 0.01824 0.0
C1105 C 0.68793 0.79867 0.03742 0.0
C1106 C 0.69954 0.78791 0.95942 0.0
C1107 C 0.705 0.803 0.94715 0.0
C1108 C 0.69349 0.79174 0.97813 0.0
C1109 C 0.69276 0.81081 0.98505 0.0
C1110 C 0.69634 0.82603 0.97208 0.0
C1111 C 0.7024 0.82214 0.95322 0.0
H1112 H 0.6986 0.18357 0.54995 0.0
H1113 H 0.65432 0.22653 0.54223 0.0
H1114 H 0.69809 0.17667 0.51546 0.0
H1115 H 0.65437 0.22044 0.50753 0.0
H1116 H 0.66225 0.21136 0.44445 0.0
H1117 H 0.65263 0.20181 0.47713 0.0
H1118 H 0.71272 0.19962 0.49378 0.0
H1119 H 0.72213 0.20891 0.46152 0.0
C1120 C 0.68821 0.19097 0.54089 0.0
C1121 C 0.6766 0.20563 0.54847 0.0
C1122 C 0.68799 0.18714 0.52117 0.0
C1123 C 0.67663 0.19842 0.50872 0.0
C1124 C 0.66329 0.21148 0.51672 0.0
C1125 C 0.66325 0.21502 0.53657 0.0
C1126 C 0.67333 0.20835 0.45505 0.0
C1127 C 0.69291 0.21114 0.45062 0.0
C1128 C 0.66783 0.20292 0.47372 0.0
C1129 C 0.68188 0.19996 0.48806 0.0
C1130 C 0.70149 0.20146 0.48307 0.0
C1131 C 0.70692 0.20705 0.4646 0.0
H1132 H 0.3327 0.7638 0.45165 0.0
H1133 H 0.28648 0.80533 0.44951 0.0
H1134 H 0.33737 0.77057 0.48583 0.0
H1135 H 0.29199 0.81335 0.48331 0.0
H1136 H 0.3386 0.77911 0.54889 0.0
H1137 H 0.34328 0.788 0.515 0.0
H1138 H 0.28144 0.79342 0.50832 0.0
H1139 H 0.277 0.78524 0.54175 0.0
C1140 C 0.32421 0.77508 0.45835 0.0
C1141 C 0.309 0.7838 0.44831 0.0
C1142 C 0.32693 0.77908 0.47791 0.0
C1143 C 0.31462 0.79209 0.48749 0.0
C1144 C 0.30125 0.80276 0.47654 0.0
C1145 C 0.29815 0.7983 0.45719 0.0
C1146 C 0.32612 0.78271 0.54018 0.0
C1147 C 0.30741 0.78111 0.54778 0.0
C1148 C 0.32878 0.78774 0.5208 0.0
C1149 C 0.31276 0.7913 0.50882 0.0
C1150 C 0.29421 0.79109 0.51701 0.0
C1151 C 0.29159 0.78609 0.53623 0.0
H1152 H 0.17683 0.37218 0.28695 0.0
H1153 H 0.19155 0.39427 0.23075 0.0
H1154 H 0.14826 0.35711 0.27369 0.0
H1155 H 0.162 0.38061 0.21747 0.0
H1156 H 0.13821 0.32109 0.19822 0.0
H1157 H 0.15506 0.34987 0.20854 0.0
H1158 H 0.11903 0.35256 0.2595 0.0
H1159 H 0.10338 0.32264 0.24958 0.0
C1160 C 0.17341 0.37452 0.27188 0.0
C1161 C 0.18651 0.38394 0.25975 0.0
C1162 C 0.15688 0.36597 0.26418 0.0
C1163 C 0.15292 0.36708 0.24424 0.0
C1164 C 0.1649 0.37873 0.23269 0.0
C1165 C 0.18174 0.38674 0.2403 0.0
C1166 C 0.13348 0.32831 0.21124 0.0
C1167 C 0.11972 0.31973 0.22322 0.0
C1168 C 0.1431 0.34494 0.21725 0.0
C1169 C 0.13888 0.35343 0.23526 0.0
C1170 C 0.12323 0.34609 0.24594 0.0
C1171 C 0.11402 0.32912 0.24016 0.0
H1172 H 0.10536 0.68051 0.73618 0.0
H1173 H 0.13301 0.67939 0.79179 0.0
H1174 H 0.11997 0.64954 0.72814 0.0
H1175 H 0.14919 0.64969 0.78344 0.0
H1176 H 0.17851 0.62535 0.70766 0.0
H1177 H 0.14945 0.64185 0.71747 0.0
H1178 H 0.15642 0.61931 0.77538 0.0
H1179 H 0.18674 0.60447 0.7656 0.0
C1180 C 0.11427 0.67331 0.74682 0.0
C1181 C 0.11826 0.68219 0.7645 0.0
C1182 C 0.12292 0.65571 0.74216 0.0
C1183 C 0.13651 0.64724 0.75473 0.0
C1184 C 0.13888 0.65542 0.77323 0.0
C1185 C 0.12967 0.67262 0.7781 0.0
C1186 C 0.17347 0.62353 0.72233 0.0
C1187 C 0.18492 0.61405 0.73598 0.0
C1188 C 0.15663 0.63294 0.72807 0.0
C1189 C 0.15066 0.63262 0.74753 0.0
C1190 C 0.16091 0.62076 0.76051 0.0
C1191 C 0.17816 0.61198 0.7549 0.0
H1192 H 0.79891 0.6029 0.22096 0.0
H1193 H 0.81744 0.62256 0.27696 0.0
H1194 H 0.82765 0.61695 0.2064 0.0
H1195 H 0.8453 0.63792 0.26251 0.0
H1196 H 0.84871 0.67816 0.18893 0.0
H1197 H 0.8329 0.64872 0.19905 0.0
H1198 H 0.87364 0.64307 0.24611 0.0
H1199 H 0.88856 0.6735 0.23637 0.0
C1200 C 0.80942 0.6099 0.23018 0.0
C1201 C 0.80589 0.61202 0.24997 0.0
C1202 C 0.8258 0.61812 0.22185 0.0
C1203 C 0.83853 0.62928 0.23307 0.0
C1204 C 0.83597 0.62949 0.25325 0.0
C1205 C 0.81988 0.62076 0.26164 0.0
C1206 C 0.85466 0.67017 0.20099 0.0
C1207 C 0.86968 0.67794 0.21196 0.0
C1208 C 0.84567 0.65316 0.20684 0.0
C1209 C 0.85166 0.64355 0.22376 0.0
C1210 C 0.86824 0.65032 0.23338 0.0
C1211 C 0.87697 0.66759 0.2277 0.0
H1212 H 0.86061 0.3119 0.79082 0.0
H1213 H 0.88895 0.30823 0.7357 0.0
H1214 H 0.84307 0.34015 0.78011 0.0
H1215 H 0.87284 0.3377 0.72524 0.0
H1216 H 0.81416 0.35991 0.70269 0.0
H1217 H 0.84281 0.34344 0.71401 0.0
H1218 H 0.83603 0.37029 0.77002 0.0
H1219 H 0.80624 0.38527 0.75884 0.0
C1220 C 0.86376 0.31781 0.7767 0.0
C1221 C 0.87585 0.3079 0.76397 0.0
C1222 C 0.85376 0.33415 0.77047 0.0
C1223 C 0.85602 0.34114 0.75147 0.0
C1224 C 0.87004 0.3324 0.73965 0.0
C1225 C 0.87953 0.31568 0.74568 0.0
C1226 C 0.81916 0.36265 0.71725 0.0
C1227 C 0.80796 0.37353 0.73001 0.0
C1228 C 0.83574 0.35327 0.72383 0.0
C1229 C 0.84169 0.355 0.74323 0.0
C1230 C 0.83158 0.36789 0.75525 0.0
C1231 C 0.81464 0.37672 0.74882 0.0
H1232 H 0.28511 0.17302 0.36559 0.0
H1233 H 0.22872 0.18421 0.38913 0.0
H1234 H 0.27335 0.14378 0.35079 0.0
H1235 H 0.21702 0.15377 0.37601 0.0
H1236 H 0.25132 0.10081 0.31352 0.0
H1237 H 0.26101 0.11467 0.34434 0.0
H1238 H 0.20706 0.14625 0.34626 0.0
H1239 H 0.197 0.13081 0.31673 0.0
C1240 C 0.27038 0.16862 0.36836 0.0
C1241 C 0.25767 0.18094 0.37802 0.0
C1242 C 0.26352 0.15167 0.35996 0.0
C1243 C 0.24387 0.1465 0.36149 0.0
C1244 C 0.23196 0.15762 0.37364 0.0
C1245 C 0.23867 0.17496 0.3814 0.0
C1246 C 0.24129 0.11005 0.32117 0.0
C1247 C 0.22357 0.11502 0.31283 0.0
C1248 C 0.24691 0.11827 0.33868 0.0
C1249 C 0.23532 0.13241 0.34756 0.0
C1250 C 0.2166 0.13555 0.34013 0.0
C1251 C 0.21073 0.12674 0.32303 0.0
H1252 H 0.30698 0.73925 0.88738 0.0
H1253 H 0.31082 0.79367 0.85764 0.0
H1254 H 0.33733 0.72897 0.87288 0.0
H1255 H 0.33997 0.78307 0.84163 0.0
H1256 H 0.38701 0.76197 0.80748 0.0
H1257 H 0.37054 0.77358 0.83626 0.0
H1258 H 0.34491 0.71704 0.84367 0.0
H1259 H 0.36289 0.70536 0.81616 0.0
C1260 C 0.31461 0.7491 0.87794 0.0
C1261 C 0.30671 0.76713 0.87343 0.0
C1262 C 0.33186 0.74317 0.8694 0.0
C1263 C 0.34099 0.75483 0.85547 0.0
C1264 C 0.3337 0.77358 0.8523 0.0
C1265 C 0.31684 0.77973 0.86139 0.0
C1266 C 0.37838 0.75197 0.81583 0.0
C1267 C 0.37597 0.73289 0.80965 0.0
C1268 C 0.36871 0.75863 0.83218 0.0
C1269 C 0.35572 0.74655 0.84209 0.0
C1270 C 0.35476 0.72693 0.83672 0.0
C1271 C 0.365 0.72014 0.82079 0.0
H1272 H 0.75548 0.817 0.38911 0.0
H1273 H 0.70131 0.82028 0.35887 0.0
H1274 H 0.76543 0.84763 0.37494 0.0
H1275 H 0.71155 0.84965 0.34322 0.0
H1276 H 0.73333 0.89177 0.30485 0.0
H1277 H 0.72175 0.87941 0.33564 0.0
H1278 H 0.77776 0.85338 0.34555 0.0
H1279 H 0.78944 0.86742 0.31589 0.0
C1280 C 0.74553 0.82466 0.3798 0.0
C1281 C 0.72777 0.81641 0.37485 0.0
C1282 C 0.75128 0.84205 0.37141 0.0
C1283 C 0.73977 0.85089 0.35715 0.0
C1284 C 0.72102 0.84356 0.35402 0.0
C1285 C 0.71505 0.82655 0.36294 0.0
C1286 C 0.74326 0.88406 0.31415 0.0
C1287 C 0.76212 0.88019 0.30803 0.0
C1288 C 0.73661 0.87673 0.33169 0.0
C1289 C 0.74844 0.86454 0.34289 0.0
C1290 C 0.76801 0.86259 0.33758 0.0
C1291 C 0.77481 0.87055 0.3204 0.0
H1292 H 0.67618 0.21294 0.87426 0.0
H1293 H 0.69636 0.26872 0.89291 0.0
H1294 H 0.64738 0.22766 0.86102 0.0
H1295 H 0.66679 0.28355 0.881 0.0
H1296 H 0.64154 0.30108 0.82125 0.0
H1297 H 0.65894 0.2913 0.84989 0.0
H1298 H 0.61879 0.24416 0.85811 0.0
H1299 H 0.60226 0.25352 0.82843 0.0
C1300 C 0.67398 0.22828 0.8763 0.0
C1301 C 0.68862 0.23979 0.88413 0.0
C1302 C 0.65733 0.23682 0.8688 0.0
C1303 C 0.65487 0.25702 0.86935 0.0
C1304 C 0.66847 0.26809 0.87959 0.0
C1305 C 0.68536 0.25961 0.88658 0.0
C1306 C 0.63598 0.28917 0.82972 0.0
C1307 C 0.62071 0.27799 0.82276 0.0
C1308 C 0.64595 0.28347 0.84625 0.0
C1309 C 0.64068 0.2665 0.85619 0.0
C1310 C 0.62369 0.25689 0.85052 0.0
C1311 C 0.61399 0.2624 0.83371 0.0
H1312 H 0.24872 0.81378 0.60517 0.0
H1313 H 0.2998 0.81227 0.6405 0.0
H1314 H 0.2398 0.84488 0.6191 0.0
H1315 H 0.29045 0.84223 0.6557 0.0
H1316 H 0.21308 0.86944 0.67526 0.0
H1317 H 0.22569 0.85239 0.64757 0.0
H1318 H 0.283 0.87355 0.66078 0.0
H1319 H 0.27028 0.88911 0.68961 0.0
C1320 C 0.25825 0.82045 0.61561 0.0
C1321 C 0.27486 0.81084 0.62191 0.0
C1322 C 0.25306 0.83812 0.62382 0.0
C1323 C 0.26399 0.84598 0.63907 0.0
C1324 C 0.28159 0.83698 0.64398 0.0
C1325 C 0.28701 0.81965 0.63536 0.0
C1326 C 0.22827 0.87086 0.67186 0.0
C1327 C 0.24081 0.88015 0.68467 0.0
C1328 C 0.23561 0.86114 0.65585 0.0
C1329 C 0.25562 0.86094 0.65211 0.0
C1330 C 0.26768 0.87259 0.6636 0.0
C1331 C 0.26041 0.88173 0.67999 0.0
H1332 H 0.6784 0.78783 0.12621 0.0
H1333 H 0.68801 0.73066 0.10383 0.0
H1334 H 0.65065 0.77637 0.14399 0.0
H1335 H 0.65907 0.71922 0.12015 0.0
H1336 H 0.63626 0.70071 0.17991 0.0
H1337 H 0.65303 0.71058 0.15092 0.0
H1338 H 0.62121 0.7644 0.15097 0.0
H1339 H 0.60587 0.75488 0.18115 0.0
C1340 C 0.67396 0.77294 0.12444 0.0
C1341 C 0.68543 0.76002 0.11402 0.0
C1342 C 0.6579 0.76628 0.13457 0.0
C1343 C 0.65269 0.7466 0.13405 0.0
C1344 C 0.66299 0.73425 0.12163 0.0
C1345 C 0.67945 0.74081 0.11205 0.0
C1346 C 0.63253 0.7144 0.17333 0.0
C1347 C 0.62003 0.72715 0.18269 0.0
C1348 C 0.64207 0.72013 0.15657 0.0
C1349 C 0.63895 0.73863 0.14863 0.0
C1350 C 0.62463 0.7504 0.15696 0.0
C1351 C 0.61559 0.74489 0.1741 0.0
H1352 H 0.73961 0.09932 0.67763 0.0
H1353 H 0.79162 0.13239 0.67001 0.0
H1354 H 0.72684 0.11208 0.64741 0.0
H1355 H 0.77861 0.14647 0.64086 0.0
H1356 H 0.75249 0.18118 0.59813 0.0
H1357 H 0.76612 0.15144 0.61104 0.0
H1358 H 0.71281 0.14116 0.64195 0.0
H1359 H 0.699 0.16984 0.62762 0.0
C1360 C 0.74852 0.10889 0.66907 0.0
C1361 C 0.76648 0.11503 0.676 0.0
C1362 C 0.74114 0.11646 0.6519 0.0
C1363 C 0.75125 0.13096 0.64189 0.0
C1364 C 0.77022 0.13537 0.6479 0.0
C1365 C 0.77779 0.12735 0.66475 0.0
C1366 C 0.74351 0.17196 0.607 0.0
C1367 C 0.72486 0.17779 0.61217 0.0
C1368 C 0.75136 0.15505 0.61463 0.0
C1369 C 0.74098 0.14417 0.62829 0.0
C1370 C 0.72145 0.14896 0.63157 0.0
C1371 C 0.71342 0.16554 0.6234 0.0
H1372 H 0.30027 0.26958 0.1007 0.0
H1373 H 0.31593 0.21312 0.12153 0.0
H1374 H 0.32965 0.283 0.11459 0.0
H1375 H 0.34433 0.22648 0.13686 0.0
H1376 H 0.38744 0.25078 0.17343 0.0
H1377 H 0.37306 0.24139 0.14267 0.0
H1378 H 0.33524 0.29105 0.14589 0.0
H1379 H 0.35073 0.30084 0.17559 0.0
C1380 C 0.3103 0.26 0.10792 0.0
C1381 C 0.30581 0.24044 0.1104 0.0
C1382 C 0.32704 0.26768 0.11608 0.0
C1383 C 0.33911 0.25608 0.12761 0.0
C1384 C 0.33557 0.23604 0.12816 0.0
C1385 C 0.31916 0.22828 0.11944 0.0
C1386 C 0.37667 0.26005 0.16692 0.0
C1387 C 0.37005 0.27644 0.17668 0.0
C1388 C 0.36821 0.25459 0.14945 0.0
C1389 C 0.35247 0.26503 0.14194 0.0
C1390 C 0.34733 0.28256 0.15092 0.0
C1391 C 0.35614 0.28824 0.16809 0.0
H1392 H 0.7957 0.60101 0.76762 0.0
H1393 H 0.81117 0.62154 0.71105 0.0
H1394 H 0.82539 0.61447 0.78081 0.0
H1395 H 0.8399 0.6365 0.72419 0.0
H1396 H 0.88509 0.6711 0.74834 0.0
H1397 H 0.86904 0.64127 0.73864 0.0
H1398 H 0.83229 0.64542 0.78899 0.0
H1399 H 0.84942 0.67412 0.79906 0.0
C1400 C 0.80574 0.60809 0.75798 0.0
C1401 C 0.80117 0.61052 0.73843 0.0
C1402 C 0.82265 0.61603 0.76552 0.0
C1403 C 0.83485 0.62729 0.75381 0.0
C1404 C 0.83108 0.62796 0.73382 0.0
C1405 C 0.81449 0.61945 0.72618 0.0
C1406 C 0.87417 0.66495 0.75768 0.0
C1407 C 0.8684 0.67469 0.7744 0.0
C1408 C 0.86475 0.64804 0.75203 0.0
C1409 C 0.84887 0.64108 0.76263 0.0
C1410 C 0.84446 0.65001 0.78038 0.0
C1411 C 0.85423 0.6666 0.78623 0.0
H1412 H 0.87231 0.32206 0.20863 0.0
H1413 H 0.89255 0.30804 0.26571 0.0
H1414 H 0.85786 0.35134 0.22072 0.0
H1415 H 0.87968 0.33841 0.27785 0.0
H1416 H 0.81838 0.3594 0.29442 0.0
H1417 H 0.84885 0.34486 0.28592 0.0
H1418 H 0.85118 0.38014 0.23436 0.0
H1419 H 0.81956 0.39336 0.24243 0.0
C1420 C 0.87451 0.32583 0.22364 0.0
C1421 C 0.88301 0.31267 0.23638 0.0
C1422 C 0.86629 0.34279 0.23069 0.0
C1423 C 0.86682 0.34707 0.25058 0.0
C1424 C 0.8781 0.33522 0.26266 0.0
C1425 C 0.8857 0.31791 0.25571 0.0
C1426 C 0.82583 0.36453 0.28167 0.0
C1427 C 0.8167 0.3772 0.26893 0.0
C1428 C 0.84348 0.35625 0.27671 0.0
C1429 C 0.8524 0.36072 0.25897 0.0
C1430 C 0.84443 0.37566 0.2477 0.0
C1431 C 0.82646 0.3835 0.25241 0.0
H1432 H 0.1291 0.31596 0.78471 0.0
H1433 H 0.10423 0.30142 0.72965 0.0
H1434 H 0.1441 0.34421 0.77063 0.0
H1435 H 0.11778 0.33066 0.7156 0.0
H1436 H 0.17866 0.38801 0.74442 0.0
H1437 H 0.14886 0.3732 0.7559 0.0
H1438 H 0.14836 0.33649 0.70536 0.0
H1439 H 0.17706 0.35247 0.69354 0.0
C1440 C 0.12609 0.31942 0.76976 0.0
C1441 C 0.11589 0.30647 0.75813 0.0
C1442 C 0.13462 0.33574 0.76159 0.0
C1443 C 0.13272 0.33959 0.74168 0.0
C1444 C 0.12026 0.32783 0.73075 0.0
C1445 C 0.11228 0.31119 0.7388 0.0
C1446 C 0.17152 0.37738 0.73547 0.0
C1447 C 0.17998 0.37125 0.71819 0.0
C1448 C 0.15461 0.36867 0.74212 0.0
C1449 C 0.14638 0.35311 0.73197 0.0
C1450 C 0.15398 0.34842 0.71368 0.0
C1451 C 0.17056 0.35753 0.70682 0.0
H1452 H 0.18374 0.60538 0.23487 0.0
H1453 H 0.1749 0.62911 0.29158 0.0
H1454 H 0.15358 0.6198 0.22394 0.0
H1455 H 0.14596 0.64515 0.28056 0.0
H1456 H 0.10201 0.68253 0.25967 0.0
H1457 H 0.1164 0.65186 0.26913 0.0
H1458 H 0.14648 0.64989 0.21438 0.0
H1459 H 0.13054 0.67931 0.20463 0.0
C1460 C 0.17506 0.61346 0.24505 0.0
C1461 C 0.18159 0.61642 0.26394 0.0
C1462 C 0.1579 0.62196 0.23878 0.0
C1463 C 0.14749 0.6344 0.25103 0.0
C1464 C 0.15326 0.63573 0.27052 0.0
C1465 C 0.17003 0.62661 0.27694 0.0
C1466 C 0.11102 0.6749 0.24944 0.0
C1467 C 0.11536 0.68315 0.23153 0.0
C1468 C 0.11956 0.65748 0.25492 0.0
C1469 C 0.13337 0.64858 0.24295 0.0
C1470 C 0.13601 0.656 0.22417 0.0
C1471 C 0.1269 0.67303 0.21847 0.0
H1472 H 0.78849 0.86371 0.68004 0.0
H1473 H 0.73189 0.88718 0.69041 0.0
H1474 H 0.77659 0.84716 0.65171 0.0
H1475 H 0.72004 0.87213 0.66094 0.0
H1476 H 0.75398 0.81066 0.60708 0.0
H1477 H 0.76413 0.84073 0.62229 0.0
H1478 H 0.71076 0.84153 0.65479 0.0
H1479 H 0.7003 0.81264 0.63821 0.0
C1480 C 0.77367 0.86606 0.67563 0.0
C1481 C 0.76099 0.87636 0.68747 0.0
C1482 C 0.76675 0.85663 0.65924 0.0
C1483 C 0.74706 0.85772 0.65414 0.0
C1484 C 0.73505 0.8702 0.66477 0.0
C1485 C 0.74185 0.87907 0.68153 0.0
C1486 C 0.74421 0.81788 0.6169 0.0
C1487 C 0.72644 0.80951 0.62161 0.0
C1488 C 0.75008 0.83496 0.62585 0.0
C1489 C 0.73864 0.84344 0.64035 0.0
C1490 C 0.72007 0.83577 0.64369 0.0
C1491 C 0.71399 0.81906 0.63426 0.0
H1492 H 0.61822 0.27893 0.17355 0.0
H1493 H 0.6001 0.221 0.18688 0.0
H1494 H 0.63125 0.26808 0.14319 0.0
H1495 H 0.61142 0.21007 0.15547 0.0
H1496 H 0.66779 0.24896 0.09879 0.0
H1497 H 0.63679 0.25588 0.11384 0.0
H1498 H 0.64123 0.20236 0.14588 0.0
H1499 H 0.67091 0.19496 0.12933 0.0
C1500 C 0.61616 0.26399 0.16945 0.0
C1501 C 0.60866 0.25069 0.18263 0.0
C1502 C 0.62357 0.25764 0.15185 0.0
C1503 C 0.62319 0.23787 0.14692 0.0
C1504 C 0.61293 0.22519 0.15905 0.0
C1505 C 0.60618 0.23144 0.17697 0.0
C1506 C 0.66144 0.23831 0.10831 0.0
C1507 C 0.67165 0.22156 0.11314 0.0
C1508 C 0.64384 0.24238 0.11725 0.0
C1509 C 0.63677 0.23026 0.13197 0.0
C1510 C 0.64595 0.21229 0.13482 0.0
C1511 C 0.66314 0.20793 0.12532 0.0
H1512 H 0.2369 0.18448 0.60173 0.0
H1513 H 0.29251 0.17966 0.62909 0.0
H1514 H 0.22607 0.15541 0.61826 0.0
H1515 H 0.28146 0.15185 0.64708 0.0
H1516 H 0.25982 0.10676 0.68403 0.0
H1517 H 0.27098 0.12202 0.65441 0.0
H1518 H 0.21523 0.1497 0.64833 0.0
H1519 H 0.2039 0.1329 0.67677 0.0
C1520 C 0.24689 0.17689 0.61107 0.0
C1521 C 0.26544 0.18422 0.61432 0.0
C1522 C 0.24065 0.16039 0.62079 0.0
C1523 C 0.25256 0.15145 0.63464 0.0
C1524 C 0.27175 0.15801 0.63654 0.0
C1525 C 0.27817 0.1741 0.62628 0.0
C1526 C 0.24987 0.1156 0.67583 0.0
C1527 C 0.23111 0.11886 0.6826 0.0
C1528 C 0.25628 0.12458 0.65899 0.0
C1529 C 0.24432 0.13771 0.64908 0.0
C1530 C 0.225 0.13966 0.65522 0.0
C1531 C 0.21841 0.13012 0.67167 0.0
H1532 H 0.31863 0.77994 0.12058 0.0
H1533 H 0.30306 0.72294 0.10134 0.0
H1534 H 0.34777 0.76732 0.13498 0.0
H1535 H 0.33326 0.71022 0.11413 0.0
H1536 H 0.35575 0.69373 0.17489 0.0
H1537 H 0.34034 0.70235 0.14486 0.0
H1538 H 0.37653 0.75318 0.14099 0.0
H1539 H 0.39066 0.74501 0.17219 0.0
C1540 C 0.32201 0.76481 0.11862 0.0
C1541 C 0.30851 0.75229 0.11037 0.0
C1542 C 0.33888 0.75746 0.12679 0.0
C1543 C 0.34274 0.73746 0.12644 0.0
C1544 C 0.33043 0.72551 0.11554 0.0
C1545 C 0.31322 0.73277 0.108 0.0
C1546 C 0.36087 0.70633 0.16717 0.0
C1547 C 0.37411 0.71885 0.17577 0.0
C1548 C 0.35208 0.71136 0.14979 0.0
C1549 C 0.35661 0.72895 0.14059 0.0
C1550 C 0.37202 0.73998 0.14798 0.0
C1551 C 0.38038 0.7352 0.1657 0.0
H1552 H 0.77227 0.19082 0.39046 0.0
H1553 H 0.71371 0.17779 0.37414 0.0
H1554 H 0.78314 0.16069 0.37603 0.0
H1555 H 0.72443 0.14878 0.35814 0.0
H1556 H 0.7434 0.10382 0.32076 0.0
H1557 H 0.73672 0.11953 0.35149 0.0
H1558 H 0.78935 0.1527 0.34525 0.0
H1559 H 0.79655 0.13556 0.31576 0.0
C1560 C 0.76171 0.18125 0.38404 0.0
C1561 C 0.74224 0.18665 0.38311 0.0
C1562 C 0.76792 0.16408 0.37553 0.0
C1563 C 0.7549 0.15245 0.36512 0.0
C1564 C 0.73508 0.15707 0.36595 0.0
C1565 C 0.72882 0.17388 0.37508 0.0
C1566 C 0.75387 0.11385 0.3266 0.0
C1567 C 0.7704 0.11865 0.31605 0.0
C1568 C 0.74995 0.12313 0.34404 0.0
C1569 C 0.76203 0.13807 0.35071 0.0
C1570 C 0.77958 0.14133 0.34092 0.0
C1571 C 0.78379 0.13155 0.32385 0.0
H1572 H 0.31246 0.24747 0.88834 0.0
H1573 H 0.31438 0.19447 0.85605 0.0
H1574 H 0.34216 0.25822 0.87285 0.0
H1575 H 0.34285 0.20556 0.83919 0.0
H1576 H 0.38702 0.22828 0.80265 0.0
H1577 H 0.37305 0.21551 0.83226 0.0
H1578 H 0.34749 0.27142 0.84356 0.0
H1579 H 0.36302 0.28424 0.81504 0.0
C1580 C 0.31961 0.23796 0.87823 0.0
C1581 C 0.31128 0.22025 0.87323 0.0
C1582 C 0.33646 0.24418 0.8691 0.0
C1583 C 0.34473 0.23317 0.85415 0.0
C1584 C 0.33722 0.21457 0.8506 0.0
C1585 C 0.32075 0.20812 0.86021 0.0
C1586 C 0.37901 0.2379 0.812 0.0
C1587 C 0.37585 0.25712 0.80662 0.0
C1588 C 0.37076 0.23057 0.82885 0.0
C1589 C 0.35844 0.24213 0.84013 0.0
C1590 C 0.35687 0.26191 0.83552 0.0
C1591 C 0.3657 0.26936 0.81903 0.0
H1592 H 0.29115 0.81546 0.36777 0.0
H1593 H 0.23374 0.81273 0.39137 0.0
H1594 H 0.28283 0.84448 0.35039 0.0
H1595 H 0.22563 0.84306 0.37555 0.0
H1596 H 0.20831 0.86618 0.31561 0.0
H1597 H 0.21677 0.85002 0.3453 0.0
H1598 H 0.27423 0.87446 0.34213 0.0
H1599 H 0.26594 0.88897 0.3112 0.0
C1600 C 0.27699 0.82171 0.36997 0.0
C1601 C 0.26296 0.81178 0.38053 0.0
C1602 C 0.27213 0.83854 0.36004 0.0
C1603 C 0.25321 0.84606 0.36091 0.0
C1604 C 0.24003 0.83735 0.37371 0.0
C1605 C 0.24471 0.82011 0.38304 0.0
C1606 C 0.22255 0.8685 0.32163 0.0
C1607 C 0.23658 0.87847 0.31111 0.0
C1608 C 0.2275 0.85928 0.33883 0.0
C1609 C 0.24651 0.86028 0.34609 0.0
C1610 C 0.25974 0.87253 0.33668 0.0
C1611 C 0.25496 0.88113 0.31908 0.0
H1612 H 0.61357 0.71117 0.81794 0.0
H1613 H 0.6265 0.76793 0.79566 0.0
H1614 H 0.63006 0.71932 0.84802 0.0
H1615 H 0.64306 0.77592 0.82539 0.0
H1616 H 0.67503 0.78825 0.87754 0.0
H1617 H 0.6451 0.78078 0.86042 0.0
H1618 H 0.66521 0.72254 0.85101 0.0
H1619 H 0.69477 0.72988 0.86818 0.0
C1620 C 0.61944 0.72554 0.81965 0.0
C1621 C 0.61922 0.73873 0.80426 0.0
C1622 C 0.6289 0.7302 0.83686 0.0
C1623 C 0.63812 0.74815 0.83896 0.0
C1624 C 0.63605 0.762 0.82432 0.0
C1625 C 0.62675 0.75732 0.80713 0.0
C1626 C 0.67275 0.77369 0.87234 0.0
C1627 C 0.68744 0.75978 0.87373 0.0
C1628 C 0.65564 0.76943 0.86251 0.0
C1629 C 0.65292 0.75117 0.85411 0.0
C1630 C 0.66676 0.73673 0.85737 0.0
C1631 C 0.68386 0.74101 0.86702 0.0
H1632 H 0.09534 0.20561 0.19579 0.0
H1633 H 0.10791 0.2318 0.2509 0.0
H1634 H 0.11625 0.17827 0.20421 0.0
H1635 H 0.12883 0.20477 0.25906 0.0
H1636 H 0.1881 0.17587 0.24551 0.0
H1637 H 0.16168 0.19812 0.23892 0.0
H1638 H 0.12239 0.15025 0.23292 0.0
H1639 H 0.14886 0.12773 0.23985 0.0
C1640 C 0.10197 0.20519 0.20993 0.0
C1641 C 0.10019 0.22088 0.22264 0.0
C1642 C 0.11398 0.18963 0.21469 0.0
C1643 C 0.12431 0.1897 0.23213 0.0
C1644 C 0.12117 0.20457 0.24544 0.0
C1645 C 0.10914 0.21996 0.24078 0.0
C1646 C 0.17387 0.17003 0.24278 0.0
C1647 C 0.17054 0.15006 0.24333 0.0
C1648 C 0.15875 0.18276 0.2391 0.0
C1649 C 0.14006 0.17581 0.2356 0.0
C1650 C 0.13671 0.15587 0.23565 0.0
C1651 C 0.15182 0.14307 0.23969 0.0
H1652 H 0.36487 0.65308 0.7607 0.0
H1653 H 0.33825 0.68733 0.71584 0.0
H1654 H 0.34412 0.62597 0.75229 0.0
H1655 H 0.31745 0.66014 0.70754 0.0
H1656 H 0.29096 0.6036 0.68886 0.0
H1657 H 0.31799 0.62564 0.69459 0.0
H1658 H 0.30823 0.62148 0.75596 0.0
H1659 H 0.28118 0.59976 0.7502 0.0
C1660 C 0.3547 0.6548 0.74896 0.0
C1661 C 0.35304 0.67246 0.73911 0.0
C1662 C 0.34283 0.63926 0.74417 0.0
C1663 C 0.32921 0.64096 0.72928 0.0
C1664 C 0.32799 0.65837 0.71896 0.0
C1665 C 0.33973 0.674 0.72387 0.0
C1666 C 0.29508 0.60687 0.70357 0.0
C1667 C 0.28413 0.59994 0.71913 0.0
C1668 C 0.31036 0.61965 0.70683 0.0
C1669 C 0.31511 0.62533 0.72571 0.0
C1670 C 0.305 0.61723 0.74128 0.0
C1671 C 0.28955 0.60479 0.738 0.0
H1672 H 0.84021 0.85587 0.2622 0.0
H1673 H 0.8074 0.83586 0.21311 0.0
H1674 H 0.8669 0.83457 0.25295 0.0
H1675 H 0.83408 0.81492 0.20382 0.0
H1676 H 0.89018 0.78953 0.18388 0.0
H1677 H 0.87017 0.81723 0.19288 0.0
H1678 H 0.86833 0.79672 0.25164 0.0
H1679 H 0.88794 0.76889 0.24256 0.0
C1680 C 0.83878 0.84706 0.24938 0.0
C1681 C 0.82166 0.84731 0.23852 0.0
C1682 C 0.85403 0.83495 0.24409 0.0
C1683 C 0.85255 0.82327 0.22761 0.0
C1684 C 0.83567 0.82398 0.21644 0.0
C1685 C 0.82032 0.83577 0.22191 0.0
C1686 C 0.88608 0.79136 0.19883 0.0
C1687 C 0.89058 0.77718 0.21257 0.0
C1688 C 0.87451 0.80707 0.20394 0.0
C1689 C 0.86767 0.80899 0.22292 0.0
C1690 C 0.87354 0.79564 0.23695 0.0
C1691 C 0.88473 0.77974 0.23177 0.0
H1692 H 0.65757 0.3073 0.7207 0.0
H1693 H 0.62897 0.34561 0.76068 0.0
H1694 H 0.67703 0.33417 0.70895 0.0
H1695 H 0.64862 0.37245 0.74896 0.0
H1696 H 0.71324 0.39718 0.74473 0.0
H1697 H 0.68535 0.37724 0.75265 0.0
H1698 H 0.67505 0.3675 0.69202 0.0
H1699 H 0.70278 0.38791 0.68409 0.0
C1700 C 0.65532 0.32148 0.72686 0.0
C1701 C 0.64192 0.32429 0.74179 0.0
C1702 C 0.6663 0.3369 0.71997 0.0
C1703 C 0.66427 0.35537 0.72804 0.0
C1704 C 0.65044 0.35833 0.74252 0.0
C1705 C 0.63923 0.34297 0.74921 0.0
C1706 C 0.70451 0.39143 0.73311 0.0
C1707 C 0.71002 0.39413 0.71385 0.0
C1708 C 0.68858 0.38001 0.73762 0.0
C1709 C 0.67816 0.37074 0.72294 0.0
C1710 C 0.68289 0.37448 0.70358 0.0
C1711 C 0.6986 0.38631 0.69906 0.0
H1712 H 0.10539 0.79281 0.80059 0.0
H1713 H 0.10708 0.77639 0.74059 0.0
H1714 H 0.12736 0.81966 0.79381 0.0
H1715 H 0.12874 0.80328 0.73376 0.0
H1716 H 0.19022 0.83901 0.77611 0.0
H1717 H 0.163 0.81804 0.78371 0.0
H1718 H 0.13214 0.83998 0.73424 0.0
H1719 H 0.15936 0.86106 0.7266 0.0
C1720 C 0.10988 0.7954 0.78586 0.0
C1721 C 0.10452 0.78266 0.77106 0.0
C1722 C 0.1226 0.81059 0.78202 0.0
C1723 C 0.1298 0.81344 0.76329 0.0
C1724 C 0.12329 0.8015 0.74829 0.0
C1725 C 0.11091 0.78614 0.75219 0.0
C1726 C 0.17763 0.83938 0.76685 0.0
C1727 C 0.17702 0.85152 0.75062 0.0
C1728 C 0.16196 0.82756 0.77135 0.0
C1729 C 0.14545 0.82748 0.7596 0.0
C1730 C 0.14472 0.83977 0.74351 0.0
C1731 C 0.16029 0.85181 0.73915 0.0
H1732 H 0.65987 0.68863 0.27854 0.0
H1733 H 0.62792 0.65175 0.23967 0.0
H1734 H 0.67965 0.66117 0.28822 0.0
H1735 H 0.64763 0.62436 0.24951 0.0
H1736 H 0.70939 0.59544 0.24871 0.0
H1737 H 0.68234 0.61721 0.24335 0.0
H1738 H 0.67933 0.62853 0.30452 0.0
H1739 H 0.70641 0.60647 0.30988 0.0
C1740 C 0.65698 0.67467 0.27215 0.0
C1741 C 0.64252 0.67247 0.25809 0.0
C1742 C 0.66816 0.6589 0.27788 0.0
C1743 C 0.66517 0.64064 0.26959 0.0
C1744 C 0.65031 0.6383 0.25604 0.0
C1745 C 0.63905 0.65401 0.25041 0.0
C1746 C 0.70244 0.602 0.26107 0.0
C1747 C 0.70987 0.59925 0.27967 0.0
C1748 C 0.68698 0.61449 0.25802 0.0
C1749 C 0.67886 0.62469 0.27351 0.0
C1750 C 0.68543 0.62093 0.29233 0.0
C1751 C 0.70073 0.60812 0.29541 0.0
H1752 H 0.89396 0.20117 0.80433 0.0
H1753 H 0.89963 0.21499 0.74392 0.0
H1754 H 0.87276 0.17415 0.79611 0.0
H1755 H 0.87878 0.18786 0.73567 0.0
H1756 H 0.8447 0.1324 0.72701 0.0
H1757 H 0.87276 0.15135 0.73715 0.0
H1758 H 0.83866 0.17774 0.78204 0.0
H1759 H 0.81069 0.15901 0.77193 0.0
C1760 C 0.89141 0.19787 0.78927 0.0
C1761 C 0.89841 0.21008 0.77472 0.0
C1762 C 0.87911 0.18257 0.78459 0.0
C1763 C 0.87401 0.17906 0.76527 0.0
C1764 C 0.88256 0.19016 0.75066 0.0
C1765 C 0.89451 0.20565 0.75536 0.0
C1766 C 0.84326 0.14216 0.73912 0.0
C1767 C 0.82543 0.14444 0.74849 0.0
C1768 C 0.85931 0.15294 0.74493 0.0
C1769 C 0.8579 0.16589 0.76044 0.0
C1770 C 0.84024 0.16766 0.77021 0.0
C1771 C 0.82415 0.15714 0.76423 0.0
H1772 H 0.36233 0.34898 0.23664 0.0
H1773 H 0.33201 0.31195 0.27659 0.0
H1774 H 0.34401 0.37668 0.24849 0.0
H1775 H 0.31376 0.33957 0.28831 0.0
H1776 H 0.28165 0.40556 0.25275 0.0
H1777 H 0.30875 0.38459 0.24498 0.0
H1778 H 0.31615 0.37166 0.30547 0.0
H1779 H 0.28904 0.39292 0.31324 0.0
C1780 C 0.35191 0.34678 0.24807 0.0
C1781 C 0.3484 0.32822 0.25547 0.0
C1782 C 0.34146 0.36264 0.25485 0.0
C1783 C 0.32751 0.36029 0.26934 0.0
C1784 C 0.3246 0.34188 0.2773 0.0
C1785 C 0.33487 0.32601 0.27039 0.0
C1786 C 0.28961 0.39888 0.26443 0.0
C1787 C 0.28333 0.40085 0.28355 0.0
C1788 C 0.30511 0.38685 0.26 0.0
C1789 C 0.31441 0.37633 0.27461 0.0
C1790 C 0.30912 0.37952 0.29393 0.0
C1791 C 0.29379 0.39186 0.29839 0.0
H1792 H 0.21435 0.19217 0.15636 0.0
H1793 H 0.26282 0.1596 0.13453 0.0
H1794 H 0.20577 0.16528 0.17734 0.0
H1795 H 0.25421 0.1327 0.15571 0.0
H1796 H 0.18603 0.10809 0.20132 0.0
H1797 H 0.19426 0.13003 0.17488 0.0
H1798 H 0.25397 0.12892 0.19259 0.0
H1799 H 0.24572 0.10725 0.21909 0.0
C1800 C 0.22321 0.1793 0.15608 0.0
C1801 C 0.23939 0.17808 0.14394 0.0
C1802 C 0.21814 0.16382 0.16791 0.0
C1803 C 0.22926 0.14689 0.16802 0.0
C1804 C 0.2454 0.14561 0.15586 0.0
C1805 C 0.25032 0.161 0.14379 0.0
C1806 C 0.20099 0.11206 0.19915 0.0
C1807 C 0.21528 0.106 0.21216 0.0
C1808 C 0.20565 0.12475 0.18418 0.0
C1809 C 0.22471 0.13125 0.18182 0.0
C1810 C 0.23919 0.12404 0.19401 0.0
C1811 C 0.23448 0.11166 0.20915 0.0
H1812 H 0.34886 0.75616 0.63203 0.0
H1813 H 0.31411 0.71315 0.66083 0.0
H1814 H 0.37668 0.74667 0.65157 0.0
H1815 H 0.34187 0.70374 0.68026 0.0
H1816 H 0.39622 0.68346 0.70715 0.0
H1817 H 0.37579 0.68948 0.67896 0.0
H1818 H 0.38208 0.75084 0.68758 0.0
H1819 H 0.40217 0.74481 0.71581 0.0
C1820 C 0.34722 0.74454 0.64234 0.0
C1821 C 0.32922 0.7356 0.64511 0.0
C1822 C 0.36314 0.73912 0.65349 0.0
C1823 C 0.36143 0.72445 0.66736 0.0
C1824 C 0.34367 0.71492 0.66949 0.0
C1825 C 0.32771 0.7205 0.65855 0.0
C1826 C 0.39391 0.6982 0.70248 0.0
C1827 C 0.40073 0.71371 0.71356 0.0
C1828 C 0.38205 0.70164 0.68651 0.0
C1829 C 0.37723 0.72062 0.68123 0.0
C1830 C 0.38566 0.73608 0.69123 0.0
C1831 C 0.39717 0.73264 0.70737 0.0
H1832 H 0.74892 0.89066 0.21182 0.0
H1833 H 0.81004 0.88491 0.20152 0.0
H1834 H 0.74223 0.86911 0.18489 0.0
H1835 H 0.80337 0.86303 0.17455 0.0
H1836 H 0.77984 0.80254 0.15316 0.0
H1837 H 0.7892 0.82893 0.17456 0.0
H1838 H 0.74546 0.86521 0.14903 0.0
H1839 H 0.73598 0.83895 0.12774 0.0
C1840 C 0.76088 0.88522 0.20337 0.0
C1841 C 0.77994 0.88954 0.20856 0.0
C1842 C 0.75707 0.87287 0.18799 0.0
C1843 C 0.77229 0.86434 0.17772 0.0
C1844 C 0.79139 0.86938 0.18231 0.0
C1845 C 0.79519 0.88207 0.19754 0.0
C1846 C 0.77225 0.81615 0.15208 0.0
C1847 C 0.75699 0.81855 0.13892 0.0
C1848 C 0.77777 0.83132 0.16417 0.0
C1849 C 0.76805 0.8491 0.1634 0.0
C1850 C 0.75311 0.85162 0.14997 0.0
C1851 C 0.7477 0.83655 0.1378 0.0
H1852 H 0.61079 0.24324 0.7375 0.0
H1853 H 0.59412 0.29437 0.706 0.0
H1854 H 0.63042 0.23281 0.71036 0.0
H1855 H 0.6138 0.28368 0.67856 0.0
H1856 H 0.64461 0.24592 0.62982 0.0
H1857 H 0.61944 0.25379 0.65345 0.0
H1858 H 0.66172 0.25128 0.69908 0.0
H1859 H 0.6868 0.24373 0.67569 0.0
C1860 C 0.61092 0.25201 0.72456 0.0
C1861 C 0.60112 0.26973 0.72393 0.0
C1862 C 0.62221 0.24605 0.70908 0.0
C1863 C 0.62381 0.2576 0.69257 0.0
C1864 C 0.61274 0.27453 0.69119 0.0
C1865 C 0.60146 0.28061 0.70683 0.0
C1866 C 0.64847 0.24695 0.64492 0.0
C1867 C 0.66767 0.24412 0.65094 0.0
C1868 C 0.63411 0.25155 0.65836 0.0
C1869 C 0.63867 0.25297 0.67802 0.0
C1870 C 0.65781 0.25004 0.684 0.0
C1871 C 0.67217 0.2458 0.6706 0.0
H1872 H 0.24569 0.89923 0.78137 0.0
H1873 H 0.18406 0.89123 0.7849 0.0
H1874 H 0.25017 0.8777 0.80878 0.0
H1875 H 0.18853 0.86933 0.81229 0.0
H1876 H 0.2124 0.8083 0.8324 0.0
H1877 H 0.20373 0.8358 0.81218 0.0
H1878 H 0.24349 0.87176 0.84389 0.0
H1879 H 0.25229 0.84435 0.86405 0.0
C1880 C 0.23307 0.89339 0.78851 0.0
C1881 C 0.21456 0.89694 0.78117 0.0
C1882 C 0.23562 0.88104 0.80416 0.0
C1883 C 0.2197 0.87174 0.81255 0.0
C1884 C 0.20104 0.87627 0.80601 0.0
C1885 C 0.19846 0.88897 0.79053 0.0
C1886 C 0.21922 0.82209 0.83513 0.0
C1887 C 0.23327 0.82404 0.84963 0.0
C1888 C 0.21407 0.83789 0.82371 0.0
C1889 C 0.22296 0.8559 0.82649 0.0
C1890 C 0.2365 0.85801 0.84139 0.0
C1891 C 0.24153 0.84228 0.8529 0.0
H1892 H 0.60102 0.6896 0.29064 0.0
H1893 H 0.59838 0.74993 0.27553 0.0
H1894 H 0.62208 0.69738 0.31792 0.0
H1895 H 0.61905 0.75775 0.30295 0.0
H1896 H 0.65192 0.76563 0.35941 0.0
H1897 H 0.62383 0.75622 0.3401 0.0
H1898 H 0.65703 0.7103 0.31432 0.0
H1899 H 0.68507 0.71974 0.33336 0.0
C1900 C 0.60422 0.70458 0.29369 0.0
C1901 C 0.59811 0.71921 0.28108 0.0
C1902 C 0.61641 0.709 0.30914 0.0
C1903 C 0.62227 0.72814 0.31241 0.0
C1904 C 0.61465 0.74291 0.30084 0.0
C1905 C 0.60282 0.73845 0.28518 0.0
C1906 C 0.65313 0.75343 0.34974 0.0
C1907 C 0.67074 0.74359 0.34767 0.0
C1908 C 0.63708 0.74805 0.33875 0.0
C1909 C 0.63827 0.73248 0.32585 0.0
C1910 C 0.65565 0.72219 0.32435 0.0
C1911 C 0.67176 0.72776 0.33506 0.0
H1912 H 0.80663 0.10908 0.78594 0.0
H1913 H 0.74643 0.10697 0.77017 0.0
H1914 H 0.79889 0.13135 0.81229 0.0
H1915 H 0.73866 0.12896 0.79647 0.0
H1916 H 0.73017 0.15897 0.85425 0.0
H1917 H 0.73886 0.13274 0.83249 0.0
H1918 H 0.78698 0.16615 0.81135 0.0
H1919 H 0.77837 0.19242 0.83314 0.0
C1920 C 0.79169 0.11283 0.78857 0.0
C1921 C 0.77707 0.10625 0.77621 0.0
C1922 C 0.7873 0.12575 0.80343 0.0
C1923 C 0.76819 0.13195 0.80631 0.0
C1924 C 0.75347 0.12432 0.79468 0.0
C1925 C 0.7579 0.11172 0.77967 0.0
C1926 C 0.74258 0.16075 0.84494 0.0
C1927 C 0.75345 0.17787 0.84527 0.0
C1928 C 0.74756 0.14572 0.83252 0.0
C1929 C 0.76364 0.14738 0.82034 0.0
C1930 C 0.77465 0.16439 0.82078 0.0
C1931 C 0.76955 0.17952 0.83306 0.0
H1932 H 0.38661 0.30478 0.2885 0.0
H1933 H 0.38516 0.24596 0.26819 0.0
H1934 H 0.36558 0.29592 0.31547 0.0
H1935 H 0.36453 0.23702 0.29531 0.0
H1936 H 0.33568 0.22651 0.35398 0.0
H1937 H 0.36238 0.23575 0.3328 0.0
H1938 H 0.32964 0.28487 0.31294 0.0
H1939 H 0.3029 0.27561 0.33387 0.0
C1940 C 0.38243 0.28983 0.29026 0.0
C1941 C 0.38752 0.27599 0.2764 0.0
C1942 C 0.37026 0.28482 0.30554 0.0
C1943 C 0.3634 0.26582 0.30735 0.0
C1944 C 0.36974 0.25172 0.2943 0.0
C1945 C 0.38153 0.25682 0.27883 0.0
C1946 C 0.33423 0.23931 0.34513 0.0
C1947 C 0.31713 0.2502 0.34538 0.0
C1948 C 0.3495 0.24459 0.33308 0.0
C1949 C 0.34807 0.26107 0.32139 0.0
C1950 C 0.33118 0.27223 0.322 0.0
C1951 C 0.3158 0.26678 0.33378 0.0
H1952 H 0.20858 0.24644 0.09418 0.0
H1953 H 0.20413 0.18568 0.10694 0.0
H1954 H 0.18203 0.25311 0.11619 0.0
H1955 H 0.17765 0.19238 0.12938 0.0
H1956 H 0.12777 0.25862 0.15099 0.0
H1957 H 0.14681 0.24734 0.12371 0.0
H1958 H 0.1796 0.21043 0.16169 0.0
H1959 H 0.16054 0.22162 0.1891 0.0
C1960 C 0.2014 0.23445 0.10119 0.0
C1961 C 0.20823 0.21558 0.09881 0.0
C1962 C 0.18624 0.23826 0.11382 0.0
C1963 C 0.1779 0.22327 0.12458 0.0
C1964 C 0.18391 0.20418 0.12128 0.0
C1965 C 0.19885 0.20033 0.10828 0.0
C1966 C 0.13892 0.24796 0.15355 0.0
C1967 C 0.14283 0.24123 0.17229 0.0
C1968 C 0.14978 0.24151 0.1379 0.0
C1969 C 0.16463 0.22802 0.1406 0.0
C1970 C 0.16807 0.22068 0.15918 0.0
C1971 C 0.15732 0.22727 0.1749 0.0
H1972 H 0.20072 0.80893 0.89014 0.0
H1973 H 0.21262 0.74805 0.89529 0.0
H1974 H 0.1739 0.80181 0.86827 0.0
H1975 H 0.18561 0.7409 0.87384 0.0
H1976 H 0.15915 0.77826 0.80561 0.0
H1977 H 0.1779 0.78759 0.83389 0.0
H1978 H 0.14892 0.74406 0.86767 0.0
H1979 H 0.12998 0.73472 0.83938 0.0
C1980 C 0.19701 0.79401 0.88733 0.0
C1981 C 0.20863 0.77899 0.89438 0.0
C1982 C 0.18184 0.78996 0.87466 0.0
C1983 C 0.17784 0.77083 0.86927 0.0
C1984 C 0.18832 0.75576 0.87784 0.0
C1985 C 0.20372 0.75983 0.89014 0.0
C1986 C 0.1567 0.77073 0.81908 0.0
C1987 C 0.14326 0.75559 0.82021 0.0
C1988 C 0.16724 0.77625 0.83532 0.0
C1989 C 0.16474 0.76661 0.85296 0.0
C1990 C 0.15106 0.75173 0.85422 0.0
C1991 C 0.14028 0.74639 0.83804 0.0
H1992 H 0.69028 0.70592 0.3836 0.0
H1993 H 0.75043 0.72199 0.38322 0.0
H1994 H 0.69726 0.67946 0.36121 0.0
H1995 H 0.75745 0.69553 0.36115 0.0
H1996 H 0.76483 0.63743 0.33128 0.0
H1997 H 0.75696 0.65913 0.35783 0.0
H1998 H 0.70804 0.68068 0.32581 0.0
H1999 H 0.71586 0.65899 0.2992 0.0
C2000 C 0.70507 0.70334 0.37928 0.0
C2001 C 0.71988 0.71582 0.38519 0.0
C2002 C 0.70902 0.6884 0.36631 0.0
C2003 C 0.72787 0.68556 0.3594 0.0
C2004 C 0.74283 0.69731 0.36635 0.0
C2005 C 0.73883 0.7124 0.37899 0.0
C2006 C 0.75239 0.64678 0.32989 0.0
C2007 C 0.74108 0.64665 0.31305 0.0
C2008 C 0.74789 0.65917 0.3451 0.0
C2009 C 0.73185 0.67147 0.3439 0.0
C2010 C 0.72035 0.67115 0.32721 0.0
C2011 C 0.72498 0.65892 0.31188 0.0
H2012 H 0.78532 0.24044 0.89684 0.0
H2013 H 0.78892 0.17954 0.88446 0.0
H2014 H 0.81198 0.24659 0.87484 0.0
H2015 H 0.81565 0.18568 0.86223 0.0
H2016 H 0.83553 0.21252 0.80289 0.0
H2017 H 0.81545 0.20244 0.82997 0.0
H2018 H 0.84659 0.24112 0.86756 0.0
H2019 H 0.86655 0.25138 0.84056 0.0
C2020 C 0.7923 0.22831 0.8899 0.0
C2021 C 0.78516 0.20955 0.89239 0.0
C2022 C 0.80754 0.23181 0.87727 0.0
C2023 C 0.81578 0.21663 0.86669 0.0
C2024 C 0.80946 0.19766 0.87011 0.0
C2025 C 0.79436 0.19412 0.88303 0.0
C2026 C 0.83814 0.21885 0.81693 0.0
C2027 C 0.85245 0.23299 0.81947 0.0
C2028 C 0.82679 0.21288 0.83249 0.0
C2029 C 0.82946 0.22102 0.85087 0.0
C2030 C 0.84413 0.23471 0.85352 0.0
C2031 C 0.85555 0.24058 0.83803 0.0
H2032 H 0.2462 0.27699 0.39036 0.0
H2033 H 0.30743 0.2866 0.3845 0.0
H2034 H 0.23977 0.30416 0.36901 0.0
H2035 H 0.30102 0.31384 0.36288 0.0
H2036 H 0.2784 0.33697 0.30303 0.0
H2037 H 0.28704 0.31467 0.32893 0.0
H2038 H 0.24321 0.33985 0.36527 0.0
H2039 H 0.23444 0.36202 0.33948 0.0
C2040 C 0.25825 0.28534 0.38495 0.0
C2041 C 0.27727 0.27986 0.38916 0.0
C2042 C 0.25459 0.30085 0.3727 0.0
C2043 C 0.26991 0.31102 0.36419 0.0
C2044 C 0.28896 0.30615 0.36917 0.0
C2045 C 0.29262 0.29078 0.38173 0.0
C2046 C 0.27059 0.33774 0.31654 0.0
C2047 C 0.25557 0.35112 0.31909 0.0
C2048 C 0.27571 0.32513 0.33144 0.0
C2049 C 0.26582 0.32559 0.34912 0.0
C2050 C 0.25101 0.33914 0.35176 0.0
C2051 C 0.24599 0.35181 0.33695 0.0
H2052 H 0.7793 0.74936 0.08693 0.0
H2053 H 0.78788 0.81049 0.09488 0.0
H2054 H 0.80754 0.74272 0.10682 0.0
H2055 H 0.81608 0.80386 0.11508 0.0
H2056 H 0.86281 0.73608 0.13999 0.0
H2057 H 0.84343 0.74658 0.11244 0.0
H2058 H 0.81505 0.78871 0.14845 0.0
H2059 H 0.83432 0.77828 0.17594 0.0
C2060 C 0.78772 0.76137 0.09233 0.0
C2061 C 0.78148 0.7804 0.08938 0.0
C2062 C 0.80387 0.75759 0.10372 0.0
C2063 C 0.81387 0.77278 0.11265 0.0
C2064 C 0.80854 0.7919 0.10844 0.0
C2065 C 0.79255 0.79569 0.09671 0.0
C2066 C 0.85262 0.74776 0.14196 0.0
C2067 C 0.84987 0.75615 0.16021 0.0
C2068 C 0.84155 0.75376 0.12619 0.0
C2069 C 0.82777 0.76845 0.12831 0.0
C2070 C 0.82573 0.7775 0.14632 0.0
C2071 C 0.8366 0.77135 0.16213 0.0
H2072 H 0.71124 0.33383 0.68931 0.0
H2073 H 0.75574 0.35709 0.65236 0.0
H2074 H 0.7006 0.31279 0.66323 0.0
H2075 H 0.74497 0.33604 0.62626 0.0
H2076 H 0.73784 0.27266 0.60185 0.0
H2077 H 0.74629 0.29996 0.62232 0.0
H2078 H 0.68585 0.31315 0.62966 0.0
H2079 H 0.6774 0.28577 0.60895 0.0
C2080 C 0.71873 0.33449 0.67562 0.0
C2081 C 0.73452 0.34694 0.673 0.0
C2082 C 0.71245 0.32262 0.66061 0.0
C2083 C 0.72193 0.32284 0.64271 0.0
C2084 C 0.73745 0.33555 0.63994 0.0
C2085 C 0.74361 0.34758 0.65489 0.0
C2086 C 0.7264 0.28178 0.60735 0.0
C2087 C 0.707 0.27721 0.60381 0.0
C2088 C 0.73123 0.2974 0.61905 0.0
C2089 C 0.71672 0.30857 0.62769 0.0
C2090 C 0.6973 0.30467 0.62327 0.0
C2091 C 0.69247 0.28917 0.61127 0.0
H2092 H 0.27988 0.65559 0.69159 0.0
H2093 H 0.23215 0.63269 0.65864 0.0
H2094 H 0.28888 0.67597 0.66433 0.0
H2095 H 0.24115 0.65323 0.6314 0.0
H2096 H 0.24861 0.71727 0.60675 0.0
H2097 H 0.24071 0.69026 0.62791 0.0
H2098 H 0.30069 0.67347 0.62894 0.0
H2099 H 0.30853 0.70038 0.60739 0.0
C2100 C 0.27132 0.65491 0.67853 0.0
C2101 C 0.25516 0.64273 0.67733 0.0
C2102 C 0.27663 0.66638 0.66285 0.0
C2103 C 0.26575 0.66606 0.64576 0.0
C2104 C 0.24976 0.6537 0.64444 0.0
C2105 C 0.24462 0.642 0.66002 0.0
C2106 C 0.25996 0.70737 0.61094 0.0
C2107 C 0.27912 0.71075 0.6054 0.0
C2108 C 0.25546 0.69195 0.62305 0.0
C2109 C 0.27012 0.67991 0.63013 0.0
C2110 C 0.28916 0.68263 0.62369 0.0
C2111 C 0.2936 0.69785 0.61122 0.0
H2112 H 0.83827 0.85492 0.73284 0.0
H2113 H 0.80581 0.83419 0.78184 0.0
H2114 H 0.86439 0.83256 0.74075 0.0
H2115 H 0.83201 0.81197 0.78976 0.0
H2116 H 0.88888 0.78458 0.80702 0.0
H2117 H 0.8682 0.81239 0.80004 0.0
H2118 H 0.86532 0.79524 0.74027 0.0
H2119 H 0.8856 0.7673 0.74733 0.0
C2120 C 0.83678 0.84571 0.74537 0.0
C2121 C 0.8199 0.84614 0.75659 0.0
C2122 C 0.85172 0.83295 0.74987 0.0
C2123 C 0.85022 0.82065 0.76589 0.0
C2124 C 0.83361 0.82147 0.77745 0.0
C2125 C 0.81854 0.83401 0.77278 0.0
C2126 C 0.88436 0.78717 0.79229 0.0
C2127 C 0.88887 0.77393 0.77765 0.0
C2128 C 0.87237 0.80292 0.78836 0.0
C2129 C 0.86513 0.80586 0.76965 0.0
C2130 C 0.87083 0.79338 0.75477 0.0
C2131 C 0.88244 0.77744 0.75879 0.0
H2132 H 0.62526 0.33241 0.24736 0.0
H2133 H 0.67424 0.29394 0.24417 0.0
H2134 H 0.64708 0.35959 0.25333 0.0
H2135 H 0.69586 0.32109 0.24987 0.0
H2136 H 0.7293 0.37518 0.23848 0.0
H2137 H 0.70388 0.35244 0.23022 0.0
H2138 H 0.67256 0.36856 0.28149 0.0
H2139 H 0.6983 0.39137 0.29002 0.0
C2140 C 0.64066 0.32979 0.24776 0.0
C2141 C 0.64807 0.31105 0.24517 0.0
C2142 C 0.65307 0.34531 0.25129 0.0
C2143 C 0.67308 0.34239 0.25191 0.0
C2144 C 0.68047 0.32371 0.24924 0.0
C2145 C 0.66809 0.30818 0.24605 0.0
C2146 C 0.71681 0.37421 0.24781 0.0
C2147 C 0.71587 0.38487 0.26501 0.0
C2148 C 0.70233 0.36114 0.2431 0.0
C2149 C 0.6865 0.35858 0.25538 0.0
C2150 C 0.68469 0.37033 0.2718 0.0
C2151 C 0.69934 0.3834 0.27663 0.0
H2152 H 0.18886 0.15679 0.77808 0.0
H2153 H 0.15187 0.12835 0.73666 0.0
H2154 H 0.16175 0.17668 0.78846 0.0
H2155 H 0.12483 0.14813 0.74722 0.0
H2156 H 0.09774 0.21062 0.7496 0.0
H2157 H 0.11887 0.18335 0.74305 0.0
H2158 H 0.12868 0.17616 0.80416 0.0
H2159 H 0.10719 0.20349 0.81069 0.0
C2160 C 0.17495 0.1547 0.77126 0.0
C2161 C 0.17263 0.14121 0.7563 0.0
C2162 C 0.15937 0.16591 0.7774 0.0
C2163 C 0.14118 0.16392 0.76864 0.0
C2164 C 0.13871 0.15002 0.75413 0.0
C2165 C 0.15424 0.13874 0.74808 0.0
C2166 C 0.10381 0.2027 0.76164 0.0
C2167 C 0.10079 0.20898 0.7806 0.0
C2168 C 0.11593 0.18712 0.75792 0.0
C2169 C 0.12553 0.17774 0.7731 0.0
C2170 C 0.12151 0.18322 0.7922 0.0
C2171 C 0.10904 0.19865 0.79595 0.0
H2172 H 0.36081 0.64796 0.23377 0.0
H2173 H 0.33234 0.68477 0.27521 0.0
H2174 H 0.34134 0.62061 0.24481 0.0
H2175 H 0.31311 0.65749 0.28625 0.0
H2176 H 0.2876 0.60359 0.30996 0.0
H2177 H 0.31546 0.62393 0.30224 0.0
H2178 H 0.30459 0.61558 0.24149 0.0
H2179 H 0.27664 0.59565 0.24922 0.0
C2180 C 0.35061 0.65014 0.24539 0.0
C2181 C 0.34788 0.66854 0.25344 0.0
C2182 C 0.33952 0.63451 0.2517 0.0
C2183 C 0.32583 0.63695 0.26642 0.0
C2184 C 0.32375 0.65515 0.27505 0.0
C2185 C 0.33458 0.67081 0.26855 0.0
C2186 C 0.29168 0.60549 0.295 0.0
C2187 C 0.28009 0.59809 0.28014 0.0
C2188 C 0.30747 0.61725 0.29059 0.0
C2189 C 0.31207 0.62138 0.27128 0.0
C2190 C 0.30147 0.6125 0.25649 0.0
C2191 C 0.28549 0.60112 0.26089 0.0
H2192 H 0.8384 0.13096 0.25535 0.0
H2193 H 0.79914 0.16231 0.21834 0.0
H2194 H 0.86479 0.15174 0.24497 0.0
H2195 H 0.82571 0.18307 0.20796 0.0
H2196 H 0.89149 0.21483 0.24495 0.0
H2197 H 0.86967 0.18798 0.25136 0.0
H2198 H 0.85906 0.18192 0.1903 0.0
H2199 H 0.88131 0.20869 0.18386 0.0
C2200 C 0.83542 0.14214 0.24485 0.0
C2201 C 0.81662 0.14515 0.23784 0.0
C2202 C 0.85055 0.15401 0.23893 0.0
C2203 C 0.84725 0.16893 0.22568 0.0
C2204 C 0.82864 0.1715 0.21806 0.0
C2205 C 0.81342 0.15978 0.22416 0.0
C2206 C 0.88498 0.20732 0.23289 0.0
C2207 C 0.88815 0.21361 0.21394 0.0
C2208 C 0.8725 0.192 0.23653 0.0
C2209 C 0.86266 0.18298 0.22131 0.0
C2210 C 0.86648 0.18871 0.20225 0.0
C2211 C 0.87934 0.20382 0.19857 0.0
H2212 H 0.28985 0.38827 0.68269 0.0
H2213 H 0.2723 0.38906 0.74237 0.0
H2214 H 0.31733 0.36767 0.69113 0.0
H2215 H 0.2998 0.36878 0.75086 0.0
H2216 H 0.35704 0.33815 0.76085 0.0
H2217 H 0.3365 0.36531 0.75141 0.0
H2218 H 0.31565 0.33264 0.70268 0.0
H2219 H 0.33601 0.30556 0.71205 0.0
C2220 C 0.29234 0.3847 0.6977 0.0
C2221 C 0.27907 0.39025 0.71193 0.0
C2222 C 0.3079 0.37276 0.70249 0.0
C2223 C 0.31058 0.36654 0.72162 0.0
C2224 C 0.29818 0.37346 0.73604 0.0
C2225 C 0.28246 0.38506 0.7312 0.0
C2226 C 0.34816 0.33684 0.74806 0.0
C2227 C 0.34793 0.31963 0.73735 0.0
C2228 C 0.33645 0.35237 0.74267 0.0
C2229 C 0.32459 0.3511 0.72627 0.0
C2230 C 0.32484 0.33412 0.71523 0.0
C2231 C 0.33631 0.31852 0.72077 0.0
H2232 H 0.19739 0.8221 0.23814 0.0
H2233 H 0.16009 0.872 0.24173 0.0
H2234 H 0.16934 0.80181 0.23143 0.0
H2235 H 0.13212 0.85152 0.2347 0.0
H2236 H 0.10115 0.7965 0.19553 0.0
H2237 H 0.12489 0.82219 0.20139 0.0
H2238 H 0.13543 0.7995 0.25833 0.0
H2239 H 0.11164 0.7742 0.25279 0.0
C2240 C 0.18328 0.82877 0.23733 0.0
C2241 C 0.18094 0.84861 0.2407 0.0
C2242 C 0.16729 0.81717 0.23349 0.0
C2243 C 0.14875 0.82524 0.23262 0.0
C2244 C 0.14636 0.84511 0.23529 0.0
C2245 C 0.16234 0.85671 0.23943 0.0
C2246 C 0.10798 0.79748 0.20955 0.0
C2247 C 0.10466 0.78333 0.22368 0.0
C2248 C 0.1216 0.81205 0.21282 0.0
C2249 C 0.13198 0.81249 0.23019 0.0
C2250 C 0.12761 0.79926 0.24479 0.0
C2251 C 0.11397 0.78489 0.24162 0.0
H2252 H 0.70481 0.5965 0.74592 0.0
H2253 H 0.69822 0.60363 0.68445 0.0
H2254 H 0.67853 0.61911 0.75145 0.0
H2255 H 0.67183 0.62648 0.68994 0.0
H2256 H 0.62533 0.65568 0.75611 0.0
H2257 H 0.64389 0.62712 0.74734 0.0
H2258 H 0.67376 0.65992 0.70364 0.0
H2259 H 0.65513 0.68845 0.71221 0.0
C2260 C 0.6972 0.60239 0.73359 0.0
C2261 C 0.70343 0.59831 0.71479 0.0
C2262 C 0.68217 0.61535 0.73674 0.0
C2263 C 0.67326 0.62471 0.72113 0.0
C2264 C 0.67857 0.61957 0.70224 0.0
C2265 C 0.69346 0.60631 0.69908 0.0
C2266 C 0.63577 0.6568 0.74454 0.0
C2267 C 0.63895 0.67445 0.73506 0.0
C2268 C 0.64636 0.64041 0.73952 0.0
C2269 C 0.66024 0.64127 0.7248 0.0
C2270 C 0.66298 0.65874 0.71487 0.0
C2271 C 0.65248 0.67516 0.71997 0.0
H2272 H 0.78251 0.8058 0.83917 0.0
H2273 H 0.73741 0.83991 0.86544 0.0
H2274 H 0.79148 0.83321 0.81909 0.0
H2275 H 0.74655 0.86737 0.8454 0.0
H2276 H 0.7499 0.89413 0.78264 0.0
H2277 H 0.74355 0.87298 0.80996 0.0
H2278 H 0.80482 0.86699 0.81963 0.0
H2279 H 0.81114 0.88837 0.79224 0.0
C2280 C 0.77458 0.81916 0.84075 0.0
C2281 C 0.75905 0.82056 0.85371 0.0
C2282 C 0.77989 0.83495 0.82941 0.0
C2283 C 0.76972 0.85244 0.83071 0.0
C2284 C 0.75457 0.85403 0.84405 0.0
C2285 C 0.74935 0.83829 0.8555 0.0
C2286 C 0.76197 0.88886 0.79106 0.0
C2287 C 0.78097 0.8929 0.78542 0.0
C2288 C 0.75835 0.87674 0.80669 0.0
C2289 C 0.7737 0.86819 0.81681 0.0
C2290 C 0.79273 0.87328 0.81198 0.0
C2291 C 0.79635 0.8857 0.79649 0.0
H2292 H 0.60853 0.23928 0.27892 0.0
H2293 H 0.61045 0.30058 0.28963 0.0
H2294 H 0.63169 0.23393 0.30487 0.0
H2295 H 0.63386 0.29524 0.3156 0.0
H2296 H 0.69608 0.2765 0.3358 0.0
H2297 H 0.66893 0.28335 0.31435 0.0
H2298 H 0.63628 0.23747 0.34092 0.0
H2299 H 0.66333 0.23055 0.36235 0.0
C2300 C 0.61356 0.25155 0.28719 0.0
C2301 C 0.60766 0.2703 0.28241 0.0
C2302 C 0.62681 0.24849 0.30201 0.0
C2303 C 0.63464 0.26419 0.31213 0.0
C2304 C 0.62811 0.28292 0.30791 0.0
C2305 C 0.61457 0.28595 0.29325 0.0
C2306 C 0.68312 0.26785 0.33704 0.0
C2307 C 0.68193 0.25285 0.35062 0.0
C2308 C 0.66752 0.27193 0.32493 0.0
C2309 C 0.65051 0.26096 0.32605 0.0
C2310 C 0.64926 0.24609 0.33973 0.0
C2311 C 0.66475 0.24215 0.35197 0.0
H2312 H 0.18418 0.09873 0.78631 0.0
H2313 H 0.24541 0.09356 0.77637 0.0
H2314 H 0.19052 0.11923 0.81435 0.0
H2315 H 0.25177 0.11367 0.8045 0.0
H2316 H 0.21397 0.18056 0.83407 0.0
H2317 H 0.20461 0.15346 0.81364 0.0
H2318 H 0.24801 0.11791 0.84074 0.0
H2319 H 0.25742 0.14497 0.86123 0.0
C2320 C 0.19898 0.10124 0.79065 0.0
C2321 C 0.21435 0.09456 0.77927 0.0
C2322 C 0.2026 0.11315 0.80653 0.0
C2323 C 0.22162 0.11814 0.81147 0.0
C2324 C 0.23697 0.10996 0.8011 0.0
C2325 C 0.23335 0.09842 0.78504 0.0
C2326 C 0.22144 0.16694 0.83576 0.0
C2327 C 0.23662 0.16499 0.84907 0.0
C2328 C 0.21592 0.15136 0.82424 0.0
C2329 C 0.22558 0.13359 0.82567 0.0
C2330 C 0.24036 0.13147 0.83935 0.0
C2331 C 0.24574 0.14697 0.85104 0.0
H2332 H 0.33696 0.74007 0.36953 0.0
H2333 H 0.29451 0.73845 0.32384 0.0
H2334 H 0.36239 0.73278 0.34611 0.0
H2335 H 0.31996 0.73144 0.30059 0.0
H2336 H 0.37196 0.74703 0.26382 0.0
H2337 H 0.34981 0.75365 0.29019 0.0
H2338 H 0.3706 0.70345 0.32056 0.0
H2339 H 0.39275 0.69646 0.2938 0.0
C2340 C 0.33306 0.73815 0.35452 0.0
C2341 C 0.31376 0.74004 0.34847 0.0
C2342 C 0.34758 0.73387 0.34122 0.0
C2343 C 0.34306 0.73176 0.32163 0.0
C2344 C 0.32376 0.73322 0.31564 0.0
C2345 C 0.30922 0.73717 0.32895 0.0
C2346 C 0.3721 0.73755 0.27624 0.0
C2347 C 0.38394 0.72111 0.27668 0.0
C2348 C 0.35935 0.74131 0.29126 0.0
C2349 C 0.35835 0.72887 0.30714 0.0
C2350 C 0.37115 0.7132 0.30836 0.0
C2351 C 0.38385 0.70928 0.29314 0.0
H2352 H 0.74914 0.1535 0.12501 0.0
H2353 H 0.74026 0.19042 0.17445 0.0
H2354 H 0.75682 0.12653 0.14667 0.0
H2355 H 0.74766 0.16356 0.19581 0.0
H2356 H 0.7391 0.10884 0.22822 0.0
H2357 H 0.73002 0.1305 0.20209 0.0
H2358 H 0.78439 0.11953 0.17391 0.0
H2359 H 0.79368 0.0978 0.2003 0.0
C2360 C 0.74878 0.15585 0.14044 0.0
C2361 C 0.74401 0.17408 0.14802 0.0
C2362 C 0.75323 0.14045 0.15277 0.0
C2363 C 0.75259 0.14298 0.17283 0.0
C2364 C 0.74798 0.1612 0.18036 0.0
C2365 C 0.74386 0.1766 0.16812 0.0
C2366 C 0.74892 0.11061 0.2162 0.0
C2367 C 0.76717 0.10181 0.21639 0.0
C2368 C 0.74375 0.12307 0.20132 0.0
C2369 C 0.75666 0.12689 0.18623 0.0
C2370 C 0.77421 0.11678 0.18543 0.0
C2371 C 0.77947 0.10431 0.20047 0.0
H2372 H 0.38693 0.30922 0.70326 0.0
H2373 H 0.3939 0.2478 0.7106 0.0
H2374 H 0.36587 0.30349 0.67543 0.0
H2375 H 0.37321 0.24205 0.68277 0.0
H2376 H 0.30557 0.27929 0.65361 0.0
H2377 H 0.3321 0.2886 0.67485 0.0
H2378 H 0.36912 0.24696 0.64707 0.0
H2379 H 0.3427 0.23752 0.62592 0.0
C2380 C 0.38461 0.29455 0.69841 0.0
C2381 C 0.39207 0.27891 0.7089 0.0
C2382 C 0.37239 0.29128 0.68269 0.0
C2383 C 0.36785 0.27233 0.67705 0.0
C2384 C 0.37658 0.2568 0.68669 0.0
C2385 C 0.38844 0.26006 0.70257 0.0
C2386 C 0.31939 0.27217 0.65197 0.0
C2387 C 0.32192 0.25745 0.63827 0.0
C2388 C 0.33463 0.27769 0.66397 0.0
C2389 C 0.35265 0.26849 0.66257 0.0
C2390 C 0.35535 0.2542 0.6485 0.0
C2391 C 0.34019 0.2488 0.63642 0.0
H2392 H 0.2565 0.88868 0.21609 0.0
H2393 H 0.19584 0.88905 0.202 0.0
H2394 H 0.26252 0.86607 0.18979 0.0
H2395 H 0.20182 0.86616 0.17579 0.0
H2396 H 0.21924 0.80277 0.15835 0.0
H2397 H 0.21251 0.83063 0.17878 0.0
H2398 H 0.26035 0.86116 0.15317 0.0
H2399 H 0.26711 0.83332 0.13262 0.0
C2400 C 0.24457 0.88436 0.20696 0.0
C2401 C 0.22575 0.89062 0.21097 0.0
C2402 C 0.248 0.87142 0.19195 0.0
C2403 C 0.2326 0.86426 0.18092 0.0
C2404 C 0.21391 0.8714 0.1842 0.0
C2405 C 0.21053 0.88464 0.19902 0.0
C2406 C 0.22835 0.8154 0.15709 0.0
C2407 C 0.24384 0.81578 0.14404 0.0
C2408 C 0.22433 0.83143 0.1686 0.0
C2409 C 0.23586 0.84806 0.16743 0.0
C2410 C 0.25127 0.8485 0.15432 0.0
C2411 C 0.25512 0.83257 0.1426 0.0
H2412 H 0.68345 0.71379 0.65967 0.0
H2413 H 0.64964 0.75526 0.62756 0.0
H2414 H 0.65487 0.70495 0.67817 0.0
H2415 H 0.6211 0.7463 0.64606 0.0
H2416 H 0.59929 0.68606 0.70386 0.0
H2417 H 0.62103 0.69055 0.6764 0.0
H2418 H 0.61413 0.75228 0.68118 0.0
H2419 H 0.59281 0.74776 0.7087 0.0
C2420 C 0.66992 0.72092 0.65646 0.0
C2421 C 0.6689 0.73548 0.64239 0.0
C2422 C 0.65349 0.71566 0.66687 0.0
C2423 C 0.63578 0.72494 0.66351 0.0
C2424 C 0.6346 0.73897 0.64896 0.0
C2425 C 0.65096 0.7441 0.63842 0.0
C2426 C 0.60175 0.70051 0.69844 0.0
C2427 C 0.59442 0.71661 0.70829 0.0
C2428 C 0.61437 0.70308 0.68291 0.0
C2429 C 0.6194 0.72176 0.67681 0.0
C2430 C 0.61043 0.73772 0.68547 0.0
C2431 C 0.59818 0.73516 0.70119 0.0
H2432 H 0.8632 0.73196 0.84838 0.0
H2433 H 0.83411 0.77436 0.81306 0.0
H2434 H 0.84505 0.74302 0.87649 0.0
H2435 H 0.81601 0.78529 0.8411 0.0
H2436 H 0.79025 0.80754 0.89477 0.0
H2437 H 0.81819 0.80063 0.8743 0.0
H2438 H 0.80944 0.73958 0.88318 0.0
H2439 H 0.78148 0.74652 0.90326 0.0
C2440 C 0.85311 0.74377 0.84665 0.0
C2441 C 0.84982 0.75205 0.82843 0.0
C2442 C 0.84278 0.75011 0.86275 0.0
C2443 C 0.82917 0.76502 0.86098 0.0
C2444 C 0.82659 0.77393 0.84296 0.0
C2445 C 0.83675 0.76747 0.82684 0.0
C2446 C 0.7949 0.79271 0.89305 0.0
C2447 C 0.78381 0.77751 0.90053 0.0
C2448 C 0.81071 0.78875 0.88117 0.0
C2449 C 0.81583 0.76957 0.87701 0.0
C2450 C 0.80592 0.7545 0.88622 0.0
C2451 C 0.78994 0.75845 0.89774 0.0
H2452 H 0.81882 0.25129 0.19423 0.0
H2453 H 0.8658 0.24835 0.1534 0.0
H2454 H 0.79595 0.24462 0.16842 0.0
H2455 H 0.84269 0.24143 0.12747 0.0
H2456 H 0.79167 0.20209 0.09937 0.0
H2457 H 0.81821 0.21258 0.12036 0.0
H2458 H 0.78491 0.2623 0.13748 0.0
H2459 H 0.75864 0.25204 0.1166 0.0
C2460 C 0.82426 0.24931 0.17972 0.0
C2461 C 0.84409 0.25043 0.17583 0.0
C2462 C 0.81115 0.24558 0.16494 0.0
C2463 C 0.81759 0.24263 0.14598 0.0
C2464 C 0.83741 0.24368 0.14199 0.0
C2465 C 0.85056 0.24775 0.15678 0.0
C2466 C 0.79027 0.21551 0.10723 0.0
C2467 C 0.77301 0.22611 0.10658 0.0
C2468 C 0.80542 0.2215 0.11921 0.0
C2469 C 0.8034 0.23807 0.13071 0.0
C2470 C 0.78668 0.24931 0.12897 0.0
C2471 C 0.77168 0.24344 0.11698 0.0
H2472 H 0.23469 0.36073 0.6426 0.0
H2473 H 0.27842 0.3334 0.6777 0.0
H2474 H 0.24492 0.34145 0.61492 0.0
H2475 H 0.28859 0.31422 0.65005 0.0
H2476 H 0.31046 0.28887 0.59538 0.0
H2477 H 0.30312 0.31638 0.61625 0.0
H2478 H 0.24221 0.30533 0.60923 0.0
H2479 H 0.24958 0.27775 0.58871 0.0
C2480 C 0.2466 0.35077 0.64436 0.0
C2481 C 0.25556 0.34838 0.66241 0.0
C2482 C 0.25245 0.33977 0.62852 0.0
C2483 C 0.26757 0.32641 0.63034 0.0
C2484 C 0.27705 0.3246 0.64816 0.0
C2485 C 0.27105 0.33539 0.66406 0.0
C2486 C 0.29553 0.29286 0.59764 0.0
C2487 C 0.28055 0.28127 0.59046 0.0
C2488 C 0.29133 0.30843 0.60976 0.0
C2489 C 0.27211 0.31284 0.61449 0.0
C2490 C 0.25715 0.30234 0.60575 0.0
C2491 C 0.26135 0.28659 0.59397 0.0
H2492 H 0.20582 0.80659 0.10736 0.0
H2493 H 0.21116 0.74515 0.09897 0.0
H2494 H 0.17948 0.80112 0.13028 0.0
H2495 H 0.18475 0.73967 0.12153 0.0
H2496 H 0.12964 0.73673 0.15624 0.0
H2497 H 0.14931 0.74558 0.12843 0.0
H2498 H 0.18149 0.78548 0.16379 0.0
H2499 H 0.16185 0.77671 0.19166 0.0
C2500 C 0.20081 0.79199 0.10981 0.0
C2501 C 0.21036 0.77626 0.10138 0.0
C2502 C 0.18594 0.78886 0.12308 0.0
C2503 C 0.18019 0.76997 0.12774 0.0
C2504 C 0.18878 0.75437 0.1181 0.0
C2505 C 0.20385 0.75749 0.10518 0.0
C2506 C 0.14082 0.74749 0.15808 0.0
C2507 C 0.14436 0.75583 0.17622 0.0
C2508 C 0.15204 0.75255 0.14214 0.0
C2509 C 0.16684 0.76624 0.14396 0.0
C2510 C 0.17 0.77506 0.16193 0.0
C2511 C 0.15892 0.76984 0.17793 0.0
H2512 H 0.75893 0.63089 0.65701 0.0
H2513 H 0.7105 0.65549 0.68757 0.0
H2514 H 0.75202 0.65178 0.62941 0.0
H2515 H 0.70362 0.67624 0.65998 0.0
H2516 H 0.68749 0.70173 0.60262 0.0
H2517 H 0.69334 0.67446 0.62432 0.0
H2518 H 0.75401 0.68849 0.62555 0.0
H2519 H 0.7481 0.71585 0.6042 0.0
C2520 C 0.74676 0.64066 0.65779 0.0
C2521 C 0.73541 0.64173 0.67455 0.0
C2522 C 0.74281 0.65257 0.642 0.0
C2523 C 0.72724 0.66551 0.64254 0.0
C2524 C 0.71557 0.6662 0.65908 0.0
C2525 C 0.71967 0.65451 0.67497 0.0
C2526 C 0.70215 0.69851 0.60695 0.0
C2527 C 0.71738 0.71079 0.60173 0.0
C2528 C 0.70546 0.68308 0.61953 0.0
C2529 C 0.7241 0.6795 0.62671 0.0
C2530 C 0.73954 0.69084 0.62015 0.0
C2531 C 0.73617 0.70646 0.60791 0.0
H2532 H 0.15723 0.21276 0.80784 0.0
H2533 H 0.13488 0.26082 0.84065 0.0
H2534 H 0.17715 0.20329 0.83518 0.0
H2535 H 0.15498 0.25126 0.8681 0.0
H2536 H 0.21879 0.24264 0.89312 0.0
H2537 H 0.19144 0.25112 0.87265 0.0
H2538 H 0.17503 0.19111 0.86978 0.0
H2539 H 0.20237 0.18266 0.89054 0.0
C2540 C 0.15655 0.22131 0.8209 0.0
C2541 C 0.14468 0.23771 0.82199 0.0
C2542 C 0.16776 0.2157 0.83666 0.0
C2543 C 0.16751 0.22648 0.8538 0.0
C2544 C 0.15543 0.24271 0.85504 0.0
C2545 C 0.14397 0.24818 0.83934 0.0
C2546 C 0.20888 0.23138 0.88871 0.0
C2547 C 0.2126 0.21204 0.89341 0.0
C2548 C 0.19325 0.23622 0.877 0.0
C2549 C 0.18125 0.22174 0.86948 0.0
C2550 C 0.18416 0.20252 0.87531 0.0
C2551 C 0.19964 0.19772 0.88735 0.0
H2552 H 0.30378 0.70277 0.39322 0.0
H2553 H 0.24326 0.7173 0.39525 0.0
H2554 H 0.29657 0.67601 0.37137 0.0
H2555 H 0.23603 0.69044 0.37365 0.0
H2556 H 0.22926 0.63298 0.34209 0.0
H2557 H 0.23764 0.65374 0.36933 0.0
H2558 H 0.28442 0.67821 0.33636 0.0
H2559 H 0.27609 0.65756 0.3091 0.0
C2560 C 0.28888 0.69979 0.38958 0.0
C2561 C 0.27404 0.71204 0.39591 0.0
C2562 C 0.28479 0.68464 0.37692 0.0
C2563 C 0.26578 0.6813 0.37072 0.0
C2564 C 0.2508 0.69263 0.37828 0.0
C2565 C 0.25492 0.70797 0.39065 0.0
C2566 C 0.24141 0.64271 0.3407 0.0
C2567 C 0.25189 0.6438 0.32337 0.0
C2568 C 0.24617 0.65456 0.35628 0.0
C2569 C 0.26171 0.66748 0.35496 0.0
C2570 C 0.27252 0.6682 0.33784 0.0
C2571 C 0.2676 0.65655 0.32217 0.0
H2572 H 0.7588 0.36484 0.33959 0.0
H2573 H 0.72106 0.32995 0.30427 0.0
H2574 H 0.74947 0.34615 0.36797 0.0
H2575 H 0.71168 0.31142 0.33271 0.0
H2576 H 0.75048 0.28422 0.39877 0.0
H2577 H 0.75614 0.31044 0.37597 0.0
H2578 H 0.69483 0.31503 0.36596 0.0
H2579 H 0.68915 0.28901 0.38917 0.0
C2580 C 0.74837 0.35333 0.33791 0.0
C2581 C 0.74083 0.34871 0.31965 0.0
C2582 C 0.74304 0.34267 0.35416 0.0
C2583 C 0.72982 0.32743 0.35252 0.0
C2584 C 0.72173 0.32326 0.33441 0.0
C2585 C 0.72728 0.33372 0.3181 0.0
C2586 C 0.73819 0.29139 0.39228 0.0
C2587 C 0.71941 0.28473 0.39577 0.0
C2588 C 0.74141 0.30634 0.37921 0.0
C2589 C 0.72592 0.31461 0.36911 0.0
C2590 C 0.707 0.30881 0.37354 0.0
C2591 C 0.70375 0.29412 0.38697 0.0
loop_
_geom_bond_atom_site_label_1
_geom_bond_atom_site_label_2
_geom_bond_distance
_geom_bond_site_symmetry_2
_ccdc_geom_bond_type
Co0 O1 2.216 . S
Co0 O2 2.091 . S
Co0 O4 2.004 . S
Co0 O10 2.021 . S
Co0 O12 2.137 . S
Co0 O13 2.244 . S
O1 Co0 2.216 . S
O1 C8 1.247 . S
O2 Co0 2.091 . S
O2 C8 1.261 . S
C3 O12 1.247 . S
C3 O13 1.272 . S
O4 Co0 2.004 . S
O4 C9 1.259 . S
Co5 O6 2.061 . S
Co5 O11 2.052 . S
Co5 O13 2.135 . S
O6 Co5 2.061 . S
O6 C9 1.235 . S
C7 O10 1.238 . S
C7 O11 1.241 . S
C8 O1 1.247 . S
C8 O2 1.261 . S
C9 O4 1.259 . S
C9 O6 1.235 . S
O10 Co0 2.021 . S
O10 C7 1.238 . S
O11 Co5 2.052 . S
O11 C7 1.241 . S
O12 Co0 2.137 . S
O12 C3 1.247 . S
O13 Co0 2.244 . S
O13 C3 1.272 . S
O13 Co5 2.135 . S
Co14 O15 2.216 . S
Co14 O16 2.091 . S
Co14 O18 2.004 . S
Co14 O24 2.021 . S
Co14 O26 2.137 . S
Co14 O27 2.244 . S
O15 Co14 2.216 . S
O15 C22 1.247 . S
O16 Co14 2.091 . S
O16 C22 1.261 . S
C17 O26 1.247 . S
C17 O27 1.272 . S
O18 Co14 2.004 . S
O18 C23 1.259 . S
Co19 O20 2.061 . S
Co19 O25 2.052 . S
Co19 O27 2.135 . S
O20 Co19 2.061 . S
O20 C23 1.235 . S
C21 O24 1.238 . S
C21 O25 1.241 . S
C22 O15 1.247 . S
C22 O16 1.261 . S
C23 O18 1.259 . S
C23 O20 1.235 . S
O24 Co14 2.021 . S
O24 C21 1.238 . S
O25 Co19 2.052 . S
O25 C21 1.241 . S
O26 Co14 2.137 . S
O26 C17 1.247 . S
O27 Co14 2.244 . S
O27 C17 1.272 . S
O27 Co19 2.135 . S
Co28 O29 2.216 . S
Co28 O30 2.091 . S
Co28 O32 2.004 . S
Co28 O38 2.021 . S
Co28 O40 2.137 . S
Co28 O41 2.244 . S
O29 Co28 2.216 . S
O29 C36 1.247 . S
O30 Co28 2.091 . S
O30 C36 1.261 . S
C31 O40 1.247 . S
C31 O41 1.272 . S
O32 Co28 2.004 . S
O32 C37 1.259 . S
Co33 O34 2.061 . S
Co33 O39 2.052 . S
Co33 O41 2.135 . S
O34 Co33 2.061 . S
O34 C37 1.235 . S
C35 O38 1.238 . S
C35 O39 1.241 . S
C36 O29 1.247 . S
C36 O30 1.261 . S
C37 O32 1.259 . S
C37 O34 1.235 . S
O38 Co28 2.021 . S
O38 C35 1.238 . S
O39 Co33 2.052 . S
O39 C35 1.241 . S
O40 Co28 2.137 . S
O40 C31 1.247 . S
O41 Co28 2.244 . S
O41 C31 1.272 . S
O41 Co33 2.135 . S
Co42 O43 2.216 . S
Co42 O44 2.091 . S
Co42 O46 2.004 . S
Co42 O52 2.021 . S
Co42 O54 2.137 . S
Co42 O55 2.244 . S
O43 Co42 2.216 . S
O43 C50 1.247 . S
O44 Co42 2.091 . S
O44 C50 1.261 . S
C45 O54 1.247 . S
C45 O55 1.272 . S
O46 Co42 2.004 . S
O46 C51 1.259 . S
Co47 O48 2.061 . S
Co47 O53 2.052 . S
Co47 O55 2.135 . S
O48 Co47 2.061 . S
O48 C51 1.235 . S
C49 O52 1.238 . S
C49 O53 1.241 . S
C50 O43 1.247 . S
C50 O44 1.261 . S
C51 O46 1.259 . S
C51 O48 1.235 . S
O52 Co42 2.021 . S
O52 C49 1.238 . S
O53 Co47 2.052 . S
O53 C49 1.241 . S
O54 Co42 2.137 . S
O54 C45 1.247 . S
O55 Co42 2.244 . S
O55 C45 1.272 . S
O55 Co47 2.135 . S
Co56 O57 2.216 . S
Co56 O58 2.091 . S
Co56 O60 2.004 . S
Co56 O66 2.021 . S
Co56 O68 2.137 . S
Co56 O69 2.244 . S
O57 Co56 2.216 . S
O57 C64 1.247 . S
O58 Co56 2.091 . S
O58 C64 1.261 . S
C59 O68 1.247 . S
C59 O69 1.272 . S
O60 Co56 2.004 . S
O60 C65 1.259 . S
Co61 O62 2.061 . S
Co61 O67 2.052 . S
Co61 O69 2.135 . S
O62 Co61 2.061 . S
O62 C65 1.235 . S
C63 O66 1.238 . S
C63 O67 1.241 . S
C64 O57 1.247 . S
C64 O58 1.261 . S
C65 O60 1.259 . S
C65 O62 1.235 . S
O66 Co56 2.021 . S
O66 C63 1.238 . S
O67 Co61 2.052 . S
O67 C63 1.241 . S
O68 Co56 2.137 . S
O68 C59 1.247 . S
O69 Co56 2.244 . S
O69 C59 1.272 . S
O69 Co61 2.135 . S
Co70 O71 2.216 . S
Co70 O72 2.091 . S
Co70 O74 2.004 . S
Co70 O80 2.021 . S
Co70 O82 2.137 . S
Co70 O83 2.244 . S
O71 Co70 2.216 . S
O71 C78 1.247 . S
O72 Co70 2.091 . S
O72 C78 1.261 . S
C73 O82 1.247 . S
C73 O83 1.272 . S
O74 Co70 2.004 . S
O74 C79 1.259 . S
Co75 O76 2.061 . S
Co75 O81 2.052 . S
Co75 O83 2.135 . S
O76 Co75 2.061 . S
O76 C79 1.235 . S
C77 O80 1.238 . S
C77 O81 1.241 . S
C78 O71 1.247 . S
C78 O72 1.261 . S
C79 O74 1.259 . S
C79 O76 1.235 . S
O80 Co70 2.021 . S
O80 C77 1.238 . S
O81 Co75 2.052 . S
O81 C77 1.241 . S
O82 Co70 2.137 . S
O82 C73 1.247 . S
O83 Co70 2.244 . S
O83 C73 1.272 . S
O83 Co75 2.135 . S
Co84 O85 2.216 . S
Co84 O86 2.091 . S
Co84 O88 2.004 . S
Co84 O94 2.021 . S
Co84 O96 2.137 . S
Co84 O97 2.244 . S
O85 Co84 2.216 . S
O85 C92 1.247 . S
O86 Co84 2.091 . S
O86 C92 1.261 . S
C87 O96 1.247 . S
C87 O97 1.272 . S
O88 Co84 2.004 . S
O88 C93 1.259 . S
Co89 O90 2.061 . S
Co89 O95 2.052 . S
Co89 O97 2.135 . S
O90 Co89 2.061 . S
O90 C93 1.235 . S
C91 O94 1.238 . S
C91 O95 1.241 . S
C92 O85 1.247 . S
C92 O86 1.261 . S
C93 O88 1.259 . S
C93 O90 1.235 . S
O94 Co84 2.021 . S
O94 C91 1.238 . S
O95 Co89 2.052 . S
O95 C91 1.241 . S
O96 Co84 2.137 . S
O96 C87 1.247 . S
O97 Co84 2.244 . S
O97 C87 1.272 . S
O97 Co89 2.135 . S
Co98 O99 2.216 . S
Co98 O100 2.091 . S
Co98 O102 2.004 . S
Co98 O108 2.021 . S
Co98 O110 2.137 . S
Co98 O111 2.244 . S
O99 Co98 2.216 . S
O99 C106 1.247 . S
O100 Co98 2.091 . S
O100 C106 1.261 . S
C101 O110 1.247 . S
C101 O111 1.272 . S
O102 Co98 2.004 . S
O102 C107 1.259 . S
Co103 O104 2.061 . S
Co103 O109 2.052 . S
Co103 O111 2.135 . S
O104 Co103 2.061 . S
O104 C107 1.235 . S
C105 O108 1.238 . S
C105 O109 1.241 . S
C106 O99 1.247 . S
C106 O100 1.261 . S
C107 O102 1.259 . S
C107 O104 1.235 . S
O108 Co98 2.021 . S
O108 C105 1.238 . S
O109 Co103 2.052 . S
O109 C105 1.241 . S
O110 Co98 2.137 . S
O110 C101 1.247 . S
O111 Co98 2.244 . S
O111 C101 1.272 . S
O111 Co103 2.135 . S
Co112 O113 2.216 . S
Co112 O114 2.091 . S
Co112 O116 2.004 . S
Co112 O122 2.021 . S
Co112 O124 2.137 . S
Co112 O125 2.244 . S
O113 Co112 2.216 . S
O113 C120 1.247 . S
O114 Co112 2.091 . S
O114 C120 1.261 . S
C115 O124 1.247 . S
C115 O125 1.272 . S
O116 Co112 2.004 . S
O116 C121 1.259 . S
Co117 O118 2.061 . S
Co117 O123 2.052 . S
Co117 O125 2.135 . S
O118 Co117 2.061 . S
O118 C121 1.235 . S
C119 O122 1.238 . S
C119 O123 1.241 . S
C120 O113 1.247 . S
C120 O114 1.261 . S
C121 O116 1.259 . S
C121 O118 1.235 . S
O122 Co112 2.021 . S
O122 C119 1.238 . S
O123 Co117 2.052 . S
O123 C119 1.241 . S
O124 Co112 2.137 . S
O124 C115 1.247 . S
O125 Co112 2.244 . S
O125 C115 1.272 . S
O125 Co117 2.135 . S
Co126 O127 2.216 . S
Co126 O128 2.091 . S
Co126 O130 2.004 . S
Co126 O136 2.021 . S
Co126 O138 2.137 . S
Co126 O139 2.244 . S
O127 Co126 2.216 . S
O127 C134 1.247 . S
O128 Co126 2.091 . S
O128 C134 1.261 . S
C129 O138 1.247 . S
C129 O139 1.272 . S
O130 Co126 2.004 . S
O130 C135 1.259 . S
Co131 O132 2.061 . S
Co131 O137 2.052 . S
Co131 O139 2.135 . S
O132 Co131 2.061 . S
O132 C135 1.235 . S
C133 O136 1.238 . S
C133 O137 1.241 . S
C134 O127 1.247 . S
C134 O128 1.261 . S
C135 O130 1.259 . S
C135 O132 1.235 . S
O136 Co126 2.021 . S
O136 C133 1.238 . S
O137 Co131 2.052 . S
O137 C133 1.241 . S
O138 Co126 2.137 . S
O138 C129 1.247 . S
O139 Co126 2.244 . S
O139 C129 1.272 . S
O139 Co131 2.135 . S
Co140 O141 2.216 . S
Co140 O142 2.091 . S
Co140 O144 2.004 . S
Co140 O150 2.021 . S
Co140 O152 2.137 . S
Co140 O153 2.244 . S
O141 Co140 2.216 . S
O141 C148 1.247 . S
O142 Co140 2.091 . S
O142 C148 1.261 . S
C143 O152 1.247 . S
C143 O153 1.272 . S
O144 Co140 2.004 . S
O144 C149 1.259 . S
Co145 O146 2.061 . S
Co145 O151 2.052 . S
Co145 O153 2.135 . S
O146 Co145 2.061 . S
O146 C149 1.235 . S
C147 O150 1.238 . S
C147 O151 1.241 . S
C148 O141 1.247 . S
C148 O142 1.261 . S
C149 O144 1.259 . S
C149 O146 1.235 . S
O150 Co140 2.021 . S
O150 C147 1.238 . S
O151 Co145 2.052 . S
O151 C147 1.241 . S
O152 Co140 2.137 . S
O152 C143 1.247 . S
O153 Co140 2.244 . S
O153 C143 1.272 . S
O153 Co145 2.135 . S
Co154 O155 2.216 . S
Co154 O156 2.091 . S
Co154 O158 2.004 . S
Co154 O164 2.021 . S
Co154 O166 2.137 . S
Co154 O167 2.244 . S
O155 Co154 2.216 . S
O155 C162 1.247 . S
O156 Co154 2.091 . S
O156 C162 1.261 . S
C157 O166 1.247 . S
C157 O167 1.272 . S
O158 Co154 2.004 . S
O158 C163 1.259 . S
Co159 O160 2.061 . S
Co159 O165 2.052 . S
Co159 O167 2.135 . S
O160 Co159 2.061 . S
O160 C163 1.235 . S
C161 O164 1.238 . S
C161 O165 1.241 . S
C162 O155 1.247 . S
C162 O156 1.261 . S
C163 O158 1.259 . S
C163 O160 1.235 . S
O164 Co154 2.021 . S
O164 C161 1.238 . S
O165 Co159 2.052 . S
O165 C161 1.241 . S
O166 Co154 2.137 . S
O166 C157 1.247 . S
O167 Co154 2.244 . S
O167 C157 1.272 . S
O167 Co159 2.135 . S
Co168 O169 2.216 . S
Co168 O170 2.091 . S
Co168 O172 2.004 . S
Co168 O178 2.021 . S
Co168 O180 2.137 . S
Co168 O181 2.244 . S
O169 Co168 2.216 . S
O169 C176 1.247 . S
O170 Co168 2.091 . S
O170 C176 1.261 . S
C171 O180 1.247 . S
C171 O181 1.272 . S
O172 Co168 2.004 . S
O172 C177 1.259 . S
Co173 O174 2.061 . S
Co173 O179 2.052 . S
Co173 O181 2.135 . S
O174 Co173 2.061 . S
O174 C177 1.235 . S
C175 O178 1.238 . S
C175 O179 1.241 . S
C176 O169 1.247 . S
C176 O170 1.261 . S
C177 O172 1.259 . S
C177 O174 1.235 . S
O178 Co168 2.021 . S
O178 C175 1.238 . S
O179 Co173 2.052 . S
O179 C175 1.241 . S
O180 Co168 2.137 . S
O180 C171 1.247 . S
O181 Co168 2.244 . S
O181 C171 1.272 . S
O181 Co173 2.135 . S
Co182 O183 2.216 . S
Co182 O184 2.091 . S
Co182 O186 2.004 . S
Co182 O192 2.021 . S
Co182 O194 2.137 . S
Co182 O195 2.244 . S
O183 Co182 2.216 . S
O183 C190 1.247 . S
O184 Co182 2.091 . S
O184 C190 1.261 . S
C185 O194 1.247 . S
C185 O195 1.272 . S
O186 Co182 2.004 . S
O186 C191 1.259 . S
Co187 O188 2.061 . S
Co187 O193 2.052 . S
Co187 O195 2.135 . S
O188 Co187 2.061 . S
O188 C191 1.235 . S
C189 O192 1.238 . S
C189 O193 1.241 . S
C190 O183 1.247 . S
C190 O184 1.261 . S
C191 O186 1.259 . S
C191 O188 1.235 . S
O192 Co182 2.021 . S
O192 C189 1.238 . S
O193 Co187 2.052 . S
O193 C189 1.241 . S
O194 Co182 2.137 . S
O194 C185 1.247 . S
O195 Co182 2.244 . S
O195 C185 1.272 . S
O195 Co187 2.135 . S
Co196 O197 2.216 . S
Co196 O198 2.091 . S
Co196 O200 2.004 . S
Co196 O206 2.021 . S
Co196 O208 2.137 . S
Co196 O209 2.244 . S
O197 Co196 2.216 . S
O197 C204 1.247 . S
O198 Co196 2.091 . S
O198 C204 1.261 . S
C199 O208 1.247 . S
C199 O209 1.272 . S
O200 Co196 2.004 . S
O200 C205 1.259 . S
Co201 O202 2.061 . S
Co201 O207 2.052 . S
Co201 O209 2.135 . S
O202 Co201 2.061 . S
O202 C205 1.235 . S
C203 O206 1.238 . S
C203 O207 1.241 . S
C204 O197 1.247 . S
C204 O198 1.261 . S
C205 O200 1.259 . S
C205 O202 1.235 . S
O206 Co196 2.021 . S
O206 C203 1.238 . S
O207 Co201 2.052 . S
O207 C203 1.241 . S
O208 Co196 2.137 . S
O208 C199 1.247 . S
O209 Co196 2.244 . S
O209 C199 1.272 . S
O209 Co201 2.135 . S
Co210 O211 2.216 . S
Co210 O212 2.091 . S
Co210 O214 2.004 . S
Co210 O220 2.021 . S
Co210 O222 2.137 . S
Co210 O223 2.244 . S
O211 Co210 2.216 . S
O211 C218 1.247 . S
O212 Co210 2.091 . S
O212 C218 1.261 . S
C213 O222 1.247 . S
C213 O223 1.272 . S
O214 Co210 2.004 . S
O214 C219 1.259 . S
Co215 O216 2.061 . S
Co215 O221 2.052 . S
Co215 O223 2.135 . S
O216 Co215 2.061 . S
O216 C219 1.235 . S
C217 O220 1.238 . S
C217 O221 1.241 . S
C218 O211 1.247 . S
C218 O212 1.261 . S
C219 O214 1.259 . S
C219 O216 1.235 . S
O220 Co210 2.021 . S
O220 C217 1.238 . S
O221 Co215 2.052 . S
O221 C217 1.241 . S
O222 Co210 2.137 . S
O222 C213 1.247 . S
O223 Co210 2.244 . S
O223 C213 1.272 . S
O223 Co215 2.135 . S
Co224 O225 2.216 . S
Co224 O226 2.091 . S
Co224 O228 2.004 . S
Co224 O234 2.021 . S
Co224 O236 2.137 . S
Co224 O237 2.244 . S
O225 Co224 2.216 . S
O225 C232 1.247 . S
O226 Co224 2.091 . S
O226 C232 1.261 . S
C227 O236 1.247 . S
C227 O237 1.272 . S
O228 Co224 2.004 . S
O228 C233 1.259 . S
Co229 O230 2.061 . S
Co229 O235 2.052 . S
Co229 O237 2.135 . S
O230 Co229 2.061 . S
O230 C233 1.235 . S
C231 O234 1.238 . S
C231 O235 1.241 . S
C232 O225 1.247 . S
C232 O226 1.261 . S
C233 O228 1.259 . S
C233 O230 1.235 . S
O234 Co224 2.021 . S
O234 C231 1.238 . S
O235 Co229 2.052 . S
O235 C231 1.241 . S
O236 Co224 2.137 . S
O236 C227 1.247 . S
O237 Co224 2.244 . S
O237 C227 1.272 . S
O237 Co229 2.135 . S
Co238 O239 2.216 . S
Co238 O240 2.091 . S
Co238 O242 2.004 . S
Co238 O248 2.021 . S
Co238 O250 2.137 . S
Co238 O251 2.244 . S
O239 Co238 2.216 . S
O239 C246 1.247 . S
O240 Co238 2.091 . S
O240 C246 1.261 . S
C241 O250 1.247 . S
C241 O251 1.272 . S
O242 Co238 2.004 . S
O242 C247 1.259 . S
Co243 O244 2.061 . S
Co243 O249 2.052 . S
Co243 O251 2.135 . S
O244 Co243 2.061 . S
O244 C247 1.235 . S
C245 O248 1.238 . S
C245 O249 1.241 . S
C246 O239 1.247 . S
C246 O240 1.261 . S
C247 O242 1.259 . S
C247 O244 1.235 . S
O248 Co238 2.021 . S
O248 C245 1.238 . S
O249 Co243 2.052 . S
O249 C245 1.241 . S
O250 Co238 2.137 . S
O250 C241 1.247 . S
O251 Co238 2.244 . S
O251 C241 1.272 . S
O251 Co243 2.135 . S
Co252 O253 2.216 . S
Co252 O254 2.091 . S
Co252 O256 2.004 . S
Co252 O262 2.021 . S
Co252 O264 2.137 . S
Co252 O265 2.244 . S
O253 Co252 2.216 . S
O253 C260 1.247 . S
O254 Co252 2.091 . S
O254 C260 1.261 . S
C255 O264 1.247 . S
C255 O265 1.272 . S
O256 Co252 2.004 . S
O256 C261 1.259 . S
Co257 O258 2.061 . S
Co257 O263 2.052 . S
Co257 O265 2.135 . S
O258 Co257 2.061 . S
O258 C261 1.235 . S
C259 O262 1.238 . S
C259 O263 1.241 . S
C260 O253 1.247 . S
C260 O254 1.261 . S
C261 O256 1.259 . S
C261 O258 1.235 . S
O262 Co252 2.021 . S
O262 C259 1.238 . S
O263 Co257 2.052 . S
O263 C259 1.241 . S
O264 Co252 2.137 . S
O264 C255 1.247 . S
O265 Co252 2.244 . S
O265 C255 1.272 . S
O265 Co257 2.135 . S
Co266 O267 2.216 . S
Co266 O268 2.091 . S
Co266 O270 2.004 . S
Co266 O276 2.021 . S
Co266 O278 2.137 . S
Co266 O279 2.244 . S
O267 Co266 2.216 . S
O267 C274 1.247 . S
O268 Co266 2.091 . S
O268 C274 1.261 . S
C269 O278 1.247 . S
C269 O279 1.272 . S
O270 Co266 2.004 . S
O270 C275 1.259 . S
Co271 O272 2.061 . S
Co271 O277 2.052 . S
Co271 O279 2.135 . S
O272 Co271 2.061 . S
O272 C275 1.235 . S
C273 O276 1.238 . S
C273 O277 1.241 . S
C274 O267 1.247 . S
C274 O268 1.261 . S
C275 O270 1.259 . S
C275 O272 1.235 . S
O276 Co266 2.021 . S
O276 C273 1.238 . S
O277 Co271 2.052 . S
O277 C273 1.241 . S
O278 Co266 2.137 . S
O278 C269 1.247 . S
O279 Co266 2.244 . S
O279 C269 1.272 . S
O279 Co271 2.135 . S
Co280 O281 2.216 . S
Co280 O282 2.091 . S
Co280 O284 2.004 . S
Co280 O290 2.021 . S
Co280 O292 2.137 . S
Co280 O293 2.244 . S
O281 Co280 2.216 . S
O281 C288 1.247 . S
O282 Co280 2.091 . S
O282 C288 1.261 . S
C283 O292 1.247 . S
C283 O293 1.272 . S
O284 Co280 2.004 . S
O284 C289 1.259 . S
Co285 O286 2.061 . S
Co285 O291 2.052 . S
Co285 O293 2.135 . S
O286 Co285 2.061 . S
O286 C289 1.235 . S
C287 O290 1.238 . S
C287 O291 1.241 . S
C288 O281 1.247 . S
C288 O282 1.261 . S
C289 O284 1.259 . S
C289 O286 1.235 . S
O290 Co280 2.021 . S
O290 C287 1.238 . S
O291 Co285 2.052 . S
O291 C287 1.241 . S
O292 Co280 2.137 . S
O292 C283 1.247 . S
O293 Co280 2.244 . S
O293 C283 1.272 . S
O293 Co285 2.135 . S
Co294 O295 2.216 . S
Co294 O296 2.091 . S
Co294 O298 2.004 . S
Co294 O304 2.021 . S
Co294 O306 2.137 . S
Co294 O307 2.244 . S
O295 Co294 2.216 . S
O295 C302 1.247 . S
O296 Co294 2.091 . S
O296 C302 1.261 . S
C297 O306 1.247 . S
C297 O307 1.272 . S
O298 Co294 2.004 . S
O298 C303 1.259 . S
Co299 O300 2.061 . S
Co299 O305 2.052 . S
Co299 O307 2.135 . S
O300 Co299 2.061 . S
O300 C303 1.235 . S
C301 O304 1.238 . S
C301 O305 1.241 . S
C302 O295 1.247 . S
C302 O296 1.261 . S
C303 O298 1.259 . S
C303 O300 1.235 . S
O304 Co294 2.021 . S
O304 C301 1.238 . S
O305 Co299 2.052 . S
O305 C301 1.241 . S
O306 Co294 2.137 . S
O306 C297 1.247 . S
O307 Co294 2.244 . S
O307 C297 1.272 . S
O307 Co299 2.135 . S
Co308 O309 2.216 . S
Co308 O310 2.091 . S
Co308 O312 2.004 . S
Co308 O318 2.021 . S
Co308 O320 2.137 . S
Co308 O321 2.244 . S
O309 Co308 2.216 . S
O309 C316 1.247 . S
O310 Co308 2.091 . S
O310 C316 1.261 . S
C311 O320 1.247 . S
C311 O321 1.272 . S
O312 Co308 2.004 . S
O312 C317 1.259 . S
Co313 O314 2.061 . S
Co313 O319 2.052 . S
Co313 O321 2.135 . S
O314 Co313 2.061 . S
O314 C317 1.235 . S
C315 O318 1.238 . S
C315 O319 1.241 . S
C316 O309 1.247 . S
C316 O310 1.261 . S
C317 O312 1.259 . S
C317 O314 1.235 . S
O318 Co308 2.021 . S
O318 C315 1.238 . S
O319 Co313 2.052 . S
O319 C315 1.241 . S
O320 Co308 2.137 . S
O320 C311 1.247 . S
O321 Co308 2.244 . S
O321 C311 1.272 . S
O321 Co313 2.135 . S
Co322 O323 2.216 . S
Co322 O324 2.091 . S
Co322 O326 2.004 . S
Co322 O332 2.021 . S
Co322 O334 2.137 . S
Co322 O335 2.244 . S
O323 Co322 2.216 . S
O323 C330 1.247 . S
O324 Co322 2.091 . S
O324 C330 1.261 . S
C325 O334 1.247 . S
C325 O335 1.272 . S
O326 Co322 2.004 . S
O326 C331 1.259 . S
Co327 O328 2.061 . S
Co327 O333 2.052 . S
Co327 O335 2.135 . S
O328 Co327 2.061 . S
O328 C331 1.235 . S
C329 O332 1.238 . S
C329 O333 1.241 . S
C330 O323 1.247 . S
C330 O324 1.261 . S
C331 O326 1.259 . S
C331 O328 1.235 . S
O332 Co322 2.021 . S
O332 C329 1.238 . S
O333 Co327 2.052 . S
O333 C329 1.241 . S
O334 Co322 2.137 . S
O334 C325 1.247 . S
O335 Co322 2.244 . S
O335 C325 1.272 . S
O335 Co327 2.135 . S
Co336 O337 2.216 . S
Co336 O338 2.091 . S
Co336 O340 2.004 . S
Co336 O346 2.021 . S
Co336 O348 2.137 . S
Co336 O349 2.244 . S
O337 Co336 2.216 . S
O337 C344 1.247 . S
O338 Co336 2.091 . S
O338 C344 1.261 . S
C339 O348 1.247 . S
C339 O349 1.272 . S
O340 Co336 2.004 . S
O340 C345 1.259 . S
Co341 O342 2.061 . S
Co341 O347 2.052 . S
Co341 O349 2.135 . S
O342 Co341 2.061 . S
O342 C345 1.235 . S
C343 O346 1.238 . S
C343 O347 1.241 . S
C344 O337 1.247 . S
C344 O338 1.261 . S
C345 O340 1.259 . S
C345 O342 1.235 . S
O346 Co336 2.021 . S
O346 C343 1.238 . S
O347 Co341 2.052 . S
O347 C343 1.241 . S
O348 Co336 2.137 . S
O348 C339 1.247 . S
O349 Co336 2.244 . S
O349 C339 1.272 . S
O349 Co341 2.135 . S
Co350 O351 2.216 . S
Co350 O352 2.091 . S
Co350 O354 2.004 . S
Co350 O360 2.021 . S
Co350 O362 2.137 . S
Co350 O363 2.244 . S
O351 Co350 2.216 . S
O351 C358 1.247 . S
O352 Co350 2.091 . S
O352 C358 1.261 . S
C353 O362 1.247 . S
C353 O363 1.272 . S
O354 Co350 2.004 . S
O354 C359 1.259 . S
Co355 O356 2.061 . S
Co355 O361 2.052 . S
Co355 O363 2.135 . S
O356 Co355 2.061 . S
O356 C359 1.235 . S
C357 O360 1.238 . S
C357 O361 1.241 . S
C358 O351 1.247 . S
C358 O352 1.261 . S
C359 O354 1.259 . S
C359 O356 1.235 . S
O360 Co350 2.021 . S
O360 C357 1.238 . S
O361 Co355 2.052 . S
O361 C357 1.241 . S
O362 Co350 2.137 . S
O362 C353 1.247 . S
O363 Co350 2.244 . S
O363 C353 1.272 . S
O363 Co355 2.135 . S
Co364 O365 2.216 . S
Co364 O366 2.091 . S
Co364 O368 2.004 . S
Co364 O374 2.021 . S
Co364 O376 2.137 . S
Co364 O377 2.244 . S
O365 Co364 2.216 . S
O365 C372 1.247 . S
O366 Co364 2.091 . S
O366 C372 1.261 . S
C367 O376 1.247 . S
C367 O377 1.272 . S
O368 Co364 2.004 . S
O368 C373 1.259 . S
Co369 O370 2.061 . S
Co369 O375 2.052 . S
Co369 O377 2.135 . S
O370 Co369 2.061 . S
O370 C373 1.235 . S
C371 O374 1.238 . S
C371 O375 1.241 . S
C372 O365 1.247 . S
C372 O366 1.261 . S
C373 O368 1.259 . S
C373 O370 1.235 . S
O374 Co364 2.021 . S
O374 C371 1.238 . S
O375 Co369 2.052 . S
O375 C371 1.241 . S
O376 Co364 2.137 . S
O376 C367 1.247 . S
O377 Co364 2.244 . S
O377 C367 1.272 . S
O377 Co369 2.135 . S
Co378 O379 2.216 . S
Co378 O380 2.091 . S
Co378 O382 2.004 . S
Co378 O388 2.021 . S
Co378 O390 2.137 . S
Co378 O391 2.244 . S
O379 Co378 2.216 . S
O379 C386 1.247 . S
O380 Co378 2.091 . S
O380 C386 1.261 . S
C381 O390 1.247 . S
C381 O391 1.272 . S
O382 Co378 2.004 . S
O382 C387 1.259 . S
Co383 O384 2.061 . S
Co383 O389 2.052 . S
Co383 O391 2.135 . S
O384 Co383 2.061 . S
O384 C387 1.235 . S
C385 O388 1.238 . S
C385 O389 1.241 . S
C386 O379 1.247 . S
C386 O380 1.261 . S
C387 O382 1.259 . S
C387 O384 1.235 . S
O388 Co378 2.021 . S
O388 C385 1.238 . S
O389 Co383 2.052 . S
O389 C385 1.241 . S
O390 Co378 2.137 . S
O390 C381 1.247 . S
O391 Co378 2.244 . S
O391 C381 1.272 . S
O391 Co383 2.135 . S
Co392 O393 2.216 . S
Co392 O394 2.091 . S
Co392 O396 2.004 . S
Co392 O402 2.021 . S
Co392 O404 2.137 . S
Co392 O405 2.244 . S
O393 Co392 2.216 . S
O393 C400 1.247 . S
O394 Co392 2.091 . S
O394 C400 1.261 . S
C395 O404 1.247 . S
C395 O405 1.272 . S
O396 Co392 2.004 . S
O396 C401 1.259 . S
Co397 O398 2.061 . S
Co397 O403 2.052 . S
Co397 O405 2.135 . S
O398 Co397 2.061 . S
O398 C401 1.235 . S
C399 O402 1.238 . S
C399 O403 1.241 . S
C400 O393 1.247 . S
C400 O394 1.261 . S
C401 O396 1.259 . S
C401 O398 1.235 . S
O402 Co392 2.021 . S
O402 C399 1.238 . S
O403 Co397 2.052 . S
O403 C399 1.241 . S
O404 Co392 2.137 . S
O404 C395 1.247 . S
O405 Co392 2.244 . S
O405 C395 1.272 . S
O405 Co397 2.135 . S
Co406 O407 2.216 . S
Co406 O408 2.091 . S
Co406 O410 2.004 . S
Co406 O416 2.021 . S
Co406 O418 2.137 . S
Co406 O419 2.244 . S
O407 Co406 2.216 . S
O407 C414 1.247 . S
O408 Co406 2.091 . S
O408 C414 1.261 . S
C409 O418 1.247 . S
C409 O419 1.272 . S
O410 Co406 2.004 . S
O410 C415 1.259 . S
Co411 O412 2.061 . S
Co411 O417 2.052 . S
Co411 O419 2.135 . S
O412 Co411 2.061 . S
O412 C415 1.235 . S
C413 O416 1.238 . S
C413 O417 1.241 . S
C414 O407 1.247 . S
C414 O408 1.261 . S
C415 O410 1.259 . S
C415 O412 1.235 . S
O416 Co406 2.021 . S
O416 C413 1.238 . S
O417 Co411 2.052 . S
O417 C413 1.241 . S
O418 Co406 2.137 . S
O418 C409 1.247 . S
O419 Co406 2.244 . S
O419 C409 1.272 . S
O419 Co411 2.135 . S
Co420 O421 2.216 . S
Co420 O422 2.091 . S
Co420 O424 2.004 . S
Co420 O430 2.021 . S
Co420 O432 2.137 . S
Co420 O433 2.244 . S
O421 Co420 2.216 . S
O421 C428 1.247 . S
O422 Co420 2.091 . S
O422 C428 1.261 . S
C423 O432 1.247 . S
C423 O433 1.272 . S
O424 Co420 2.004 . S
O424 C429 1.259 . S
Co425 O426 2.061 . S
Co425 O431 2.052 . S
Co425 O433 2.135 . S
O426 Co425 2.061 . S
O426 C429 1.235 . S
C427 O430 1.238 . S
C427 O431 1.241 . S
C428 O421 1.247 . S
C428 O422 1.261 . S
C429 O424 1.259 . S
C429 O426 1.235 . S
O430 Co420 2.021 . S
O430 C427 1.238 . S
O431 Co425 2.052 . S
O431 C427 1.241 . S
O432 Co420 2.137 . S
O432 C423 1.247 . S
O433 Co420 2.244 . S
O433 C423 1.272 . S
O433 Co425 2.135 . S
Co434 O435 2.216 . S
Co434 O436 2.091 . S
Co434 O438 2.004 . S
Co434 O444 2.021 . S
Co434 O446 2.137 . S
Co434 O447 2.244 . S
O435 Co434 2.216 . S
O435 C442 1.247 . S
O436 Co434 2.091 . S
O436 C442 1.261 . S
C437 O446 1.247 . S
C437 O447 1.272 . S
O438 Co434 2.004 . S
O438 C443 1.259 . S
Co439 O440 2.061 . S
Co439 O445 2.052 . S
Co439 O447 2.135 . S
O440 Co439 2.061 . S
O440 C443 1.235 . S
C441 O444 1.238 . S
C441 O445 1.241 . S
C442 O435 1.247 . S
C442 O436 1.261 . S
C443 O438 1.259 . S
C443 O440 1.235 . S
O444 Co434 2.021 . S
O444 C441 1.238 . S
O445 Co439 2.052 . S
O445 C441 1.241 . S
O446 Co434 2.137 . S
O446 C437 1.247 . S
O447 Co434 2.244 . S
O447 C437 1.272 . S
O447 Co439 2.135 . S
Co448 O449 2.216 . S
Co448 O450 2.091 . S
Co448 O452 2.004 . S
Co448 O458 2.021 . S
Co448 O460 2.137 . S
Co448 O461 2.244 . S
O449 Co448 2.216 . S
O449 C456 1.247 . S
O450 Co448 2.091 . S
O450 C456 1.261 . S
C451 O460 1.247 . S
C451 O461 1.272 . S
O452 Co448 2.004 . S
O452 C457 1.259 . S
Co453 O454 2.061 . S
Co453 O459 2.052 . S
Co453 O461 2.135 . S
O454 Co453 2.061 . S
O454 C457 1.235 . S
C455 O458 1.238 . S
C455 O459 1.241 . S
C456 O449 1.247 . S
C456 O450 1.261 . S
C457 O452 1.259 . S
C457 O454 1.235 . S
O458 Co448 2.021 . S
O458 C455 1.238 . S
O459 Co453 2.052 . S
O459 C455 1.241 . S
O460 Co448 2.137 . S
O460 C451 1.247 . S
O461 Co448 2.244 . S
O461 C451 1.272 . S
O461 Co453 2.135 . S
Co462 O463 2.216 . S
Co462 O464 2.091 . S
Co462 O466 2.004 . S
Co462 O472 2.021 . S
Co462 O474 2.137 . S
Co462 O475 2.244 . S
O463 Co462 2.216 . S
O463 C470 1.247 . S
O464 Co462 2.091 . S
O464 C470 1.261 . S
C465 O474 1.247 . S
C465 O475 1.272 . S
O466 Co462 2.004 . S
O466 C471 1.259 . S
Co467 O468 2.061 . S
Co467 O473 2.052 . S
Co467 O475 2.135 . S
O468 Co467 2.061 . S
O468 C471 1.235 . S
C469 O472 1.238 . S
C469 O473 1.241 . S
C470 O463 1.247 . S
C470 O464 1.261 . S
C471 O466 1.259 . S
C471 O468 1.235 . S
O472 Co462 2.021 . S
O472 C469 1.238 . S
O473 Co467 2.052 . S
O473 C469 1.241 . S
O474 Co462 2.137 . S
O474 C465 1.247 . S
O475 Co462 2.244 . S
O475 C465 1.272 . S
O475 Co467 2.135 . S
Co476 O477 2.216 . S
Co476 O478 2.091 . S
Co476 O480 2.004 . S
Co476 O486 2.021 . S
Co476 O488 2.137 . S
Co476 O489 2.244 . S
O477 Co476 2.216 . S
O477 C484 1.247 . S
O478 Co476 2.091 . S
O478 C484 1.261 . S
C479 O488 1.247 . S
C479 O489 1.272 . S
O480 Co476 2.004 . S
O480 C485 1.259 . S
Co481 O482 2.061 . S
Co481 O487 2.052 . S
Co481 O489 2.135 . S
O482 Co481 2.061 . S
O482 C485 1.235 . S
C483 O486 1.238 . S
C483 O487 1.241 . S
C484 O477 1.247 . S
C484 O478 1.261 . S
C485 O480 1.259 . S
C485 O482 1.235 . S
O486 Co476 2.021 . S
O486 C483 1.238 . S
O487 Co481 2.052 . S
O487 C483 1.241 . S
O488 Co476 2.137 . S
O488 C479 1.247 . S
O489 Co476 2.244 . S
O489 C479 1.272 . S
O489 Co481 2.135 . S
Co490 O491 2.216 . S
Co490 O492 2.091 . S
Co490 O494 2.004 . S
Co490 O500 2.021 . S
Co490 O502 2.137 . S
Co490 O503 2.244 . S
O491 Co490 2.216 . S
O491 C498 1.247 . S
O492 Co490 2.091 . S
O492 C498 1.261 . S
C493 O502 1.247 . S
C493 O503 1.272 . S
O494 Co490 2.004 . S
O494 C499 1.259 . S
Co495 O496 2.061 . S
Co495 O501 2.052 . S
Co495 O503 2.135 . S
O496 Co495 2.061 . S
O496 C499 1.235 . S
C497 O500 1.238 . S
C497 O501 1.241 . S
C498 O491 1.247 . S
C498 O492 1.261 . S
C499 O494 1.259 . S
C499 O496 1.235 . S
O500 Co490 2.021 . S
O500 C497 1.238 . S
O501 Co495 2.052 . S
O501 C497 1.241 . S
O502 Co490 2.137 . S
O502 C493 1.247 . S
O503 Co490 2.244 . S
O503 C493 1.272 . S
O503 Co495 2.135 . S
Co504 O505 2.216 . S
Co504 O506 2.091 . S
Co504 O508 2.004 . S
Co504 O514 2.021 . S
Co504 O516 2.137 . S
Co504 O517 2.244 . S
O505 Co504 2.216 . S
O505 C512 1.247 . S
O506 Co504 2.091 . S
O506 C512 1.261 . S
C507 O516 1.247 . S
C507 O517 1.272 . S
O508 Co504 2.004 . S
O508 C513 1.259 . S
Co509 O510 2.061 . S
Co509 O515 2.052 . S
Co509 O517 2.135 . S
O510 Co509 2.061 . S
O510 C513 1.235 . S
C511 O514 1.238 . S
C511 O515 1.241 . S
C512 O505 1.247 . S
C512 O506 1.261 . S
C513 O508 1.259 . S
C513 O510 1.235 . S
O514 Co504 2.021 . S
O514 C511 1.238 . S
O515 Co509 2.052 . S
O515 C511 1.241 . S
O516 Co504 2.137 . S
O516 C507 1.247 . S
O517 Co504 2.244 . S
O517 C507 1.272 . S
O517 Co509 2.135 . S
Co518 O519 2.216 . S
Co518 O520 2.091 . S
Co518 O522 2.004 . S
Co518 O528 2.021 . S
Co518 O530 2.137 . S
Co518 O531 2.244 . S
O519 Co518 2.216 . S
O519 C526 1.247 . S
O520 Co518 2.091 . S
O520 C526 1.261 . S
C521 O530 1.247 . S
C521 O531 1.272 . S
O522 Co518 2.004 . S
O522 C527 1.259 . S
Co523 O524 2.061 . S
Co523 O529 2.052 . S
Co523 O531 2.135 . S
O524 Co523 2.061 . S
O524 C527 1.235 . S
C525 O528 1.238 . S
C525 O529 1.241 . S
C526 O519 1.247 . S
C526 O520 1.261 . S
C527 O522 1.259 . S
C527 O524 1.235 . S
O528 Co518 2.021 . S
O528 C525 1.238 . S
O529 Co523 2.052 . S
O529 C525 1.241 . S
O530 Co518 2.137 . S
O530 C521 1.247 . S
O531 Co518 2.244 . S
O531 C521 1.272 . S
O531 Co523 2.135 . S
Co532 O533 2.216 . S
Co532 O534 2.091 . S
Co532 O536 2.004 . S
Co532 O542 2.021 . S
Co532 O544 2.137 . S
Co532 O545 2.244 . S
O533 Co532 2.216 . S
O533 C540 1.247 . S
O534 Co532 2.091 . S
O534 C540 1.261 . S
C535 O544 1.247 . S
C535 O545 1.272 . S
O536 Co532 2.004 . S
O536 C541 1.259 . S
Co537 O538 2.061 . S
Co537 O543 2.052 . S
Co537 O545 2.135 . S
O538 Co537 2.061 . S
O538 C541 1.235 . S
C539 O542 1.238 . S
C539 O543 1.241 . S
C540 O533 1.247 . S
C540 O534 1.261 . S
C541 O536 1.259 . S
C541 O538 1.235 . S
O542 Co532 2.021 . S
O542 C539 1.238 . S
O543 Co537 2.052 . S
O543 C539 1.241 . S
O544 Co532 2.137 . S
O544 C535 1.247 . S
O545 Co532 2.244 . S
O545 C535 1.272 . S
O545 Co537 2.135 . S
Co546 O547 2.216 . S
Co546 O548 2.091 . S
Co546 O550 2.004 . S
Co546 O556 2.021 . S
Co546 O558 2.137 . S
Co546 O559 2.244 . S
O547 Co546 2.216 . S
O547 C554 1.247 . S
O548 Co546 2.091 . S
O548 C554 1.261 . S
C549 O558 1.247 . S
C549 O559 1.272 . S
O550 Co546 2.004 . S
O550 C555 1.259 . S
Co551 O552 2.061 . S
Co551 O557 2.052 . S
Co551 O559 2.135 . S
O552 Co551 2.061 . S
O552 C555 1.235 . S
C553 O556 1.238 . S
C553 O557 1.241 . S
C554 O547 1.247 . S
C554 O548 1.261 . S
C555 O550 1.259 . S
C555 O552 1.235 . S
O556 Co546 2.021 . S
O556 C553 1.238 . S
O557 Co551 2.052 . S
O557 C553 1.241 . S
O558 Co546 2.137 . S
O558 C549 1.247 . S
O559 Co546 2.244 . S
O559 C549 1.272 . S
O559 Co551 2.135 . S
Co560 O561 2.216 . S
Co560 O562 2.091 . S
Co560 O564 2.004 . S
Co560 O570 2.021 . S
Co560 O572 2.137 . S
Co560 O573 2.244 . S
O561 Co560 2.216 . S
O561 C568 1.247 . S
O562 Co560 2.091 . S
O562 C568 1.261 . S
C563 O572 1.247 . S
C563 O573 1.272 . S
O564 Co560 2.004 . S
O564 C569 1.259 . S
Co565 O566 2.061 . S
Co565 O571 2.052 . S
Co565 O573 2.135 . S
O566 Co565 2.061 . S
O566 C569 1.235 . S
C567 O570 1.238 . S
C567 O571 1.241 . S
C568 O561 1.247 . S
C568 O562 1.261 . S
C569 O564 1.259 . S
C569 O566 1.235 . S
O570 Co560 2.021 . S
O570 C567 1.238 . S
O571 Co565 2.052 . S
O571 C567 1.241 . S
O572 Co560 2.137 . S
O572 C563 1.247 . S
O573 Co560 2.244 . S
O573 C563 1.272 . S
O573 Co565 2.135 . S
Co574 O575 2.216 . S
Co574 O576 2.091 . S
Co574 O578 2.004 . S
Co574 O584 2.021 . S
Co574 O586 2.137 . S
Co574 O587 2.244 . S
O575 Co574 2.216 . S
O575 C582 1.247 . S
O576 Co574 2.091 . S
O576 C582 1.261 . S
C577 O586 1.247 . S
C577 O587 1.272 . S
O578 Co574 2.004 . S
O578 C583 1.259 . S
Co579 O580 2.061 . S
Co579 O585 2.052 . S
Co579 O587 2.135 . S
O580 Co579 2.061 . S
O580 C583 1.235 . S
C581 O584 1.238 . S
C581 O585 1.241 . S
C582 O575 1.247 . S
C582 O576 1.261 . S
C583 O578 1.259 . S
C583 O580 1.235 . S
O584 Co574 2.021 . S
O584 C581 1.238 . S
O585 Co579 2.052 . S
O585 C581 1.241 . S
O586 Co574 2.137 . S
O586 C577 1.247 . S
O587 Co574 2.244 . S
O587 C577 1.272 . S
O587 Co579 2.135 . S
Co588 O589 2.216 . S
Co588 O590 2.091 . S
Co588 O592 2.004 . S
Co588 O598 2.021 . S
Co588 O600 2.137 . S
Co588 O601 2.244 . S
O589 Co588 2.216 . S
O589 C596 1.247 . S
O590 Co588 2.091 . S
O590 C596 1.261 . S
C591 O600 1.247 . S
C591 O601 1.272 . S
O592 Co588 2.004 . S
O592 C597 1.259 . S
Co593 O594 2.061 . S
Co593 O599 2.052 . S
Co593 O601 2.135 . S
O594 Co593 2.061 . S
O594 C597 1.235 . S
C595 O598 1.238 . S
C595 O599 1.241 . S
C596 O589 1.247 . S
C596 O590 1.261 . S
C597 O592 1.259 . S
C597 O594 1.235 . S
O598 Co588 2.021 . S
O598 C595 1.238 . S
O599 Co593 2.052 . S
O599 C595 1.241 . S
O600 Co588 2.137 . S
O600 C591 1.247 . S
O601 Co588 2.244 . S
O601 C591 1.272 . S
O601 Co593 2.135 . S
Co602 O603 2.216 . S
Co602 O604 2.091 . S
Co602 O606 2.004 . S
Co602 O612 2.021 . S
Co602 O614 2.137 . S
Co602 O615 2.244 . S
O603 Co602 2.216 . S
O603 C610 1.247 . S
O604 Co602 2.091 . S
O604 C610 1.261 . S
C605 O614 1.247 . S
C605 O615 1.272 . S
O606 Co602 2.004 . S
O606 C611 1.259 . S
Co607 O608 2.061 . S
Co607 O613 2.052 . S
Co607 O615 2.135 . S
O608 Co607 2.061 . S
O608 C611 1.235 . S
C609 O612 1.238 . S
C609 O613 1.241 . S
C610 O603 1.247 . S
C610 O604 1.261 . S
C611 O606 1.259 . S
C611 O608 1.235 . S
O612 Co602 2.021 . S
O612 C609 1.238 . S
O613 Co607 2.052 . S
O613 C609 1.241 . S
O614 Co602 2.137 . S
O614 C605 1.247 . S
O615 Co602 2.244 . S
O615 C605 1.272 . S
O615 Co607 2.135 . S
Co616 O617 2.216 . S
Co616 O618 2.091 . S
Co616 O620 2.004 . S
Co616 O626 2.021 . S
Co616 O628 2.137 . S
Co616 O629 2.244 . S
O617 Co616 2.216 . S
O617 C624 1.247 . S
O618 Co616 2.091 . S
O618 C624 1.261 . S
C619 O628 1.247 . S
C619 O629 1.272 . S
O620 Co616 2.004 . S
O620 C625 1.259 . S
Co621 O622 2.061 . S
Co621 O627 2.052 . S
Co621 O629 2.135 . S
O622 Co621 2.061 . S
O622 C625 1.235 . S
C623 O626 1.238 . S
C623 O627 1.241 . S
C624 O617 1.247 . S
C624 O618 1.261 . S
C625 O620 1.259 . S
C625 O622 1.235 . S
O626 Co616 2.021 . S
O626 C623 1.238 . S
O627 Co621 2.052 . S
O627 C623 1.241 . S
O628 Co616 2.137 . S
O628 C619 1.247 . S
O629 Co616 2.244 . S
O629 C619 1.272 . S
O629 Co621 2.135 . S
Co630 O631 2.216 . S
Co630 O632 2.091 . S
Co630 O634 2.004 . S
Co630 O640 2.021 . S
Co630 O642 2.137 . S
Co630 O643 2.244 . S
O631 Co630 2.216 . S
O631 C638 1.247 . S
O632 Co630 2.091 . S
O632 C638 1.261 . S
C633 O642 1.247 . S
C633 O643 1.272 . S
O634 Co630 2.004 . S
O634 C639 1.259 . S
Co635 O636 2.061 . S
Co635 O641 2.052 . S
Co635 O643 2.135 . S
O636 Co635 2.061 . S
O636 C639 1.235 . S
C637 O640 1.238 . S
C637 O641 1.241 . S
C638 O631 1.247 . S
C638 O632 1.261 . S
C639 O634 1.259 . S
C639 O636 1.235 . S
O640 Co630 2.021 . S
O640 C637 1.238 . S
O641 Co635 2.052 . S
O641 C637 1.241 . S
O642 Co630 2.137 . S
O642 C633 1.247 . S
O643 Co630 2.244 . S
O643 C633 1.272 . S
O643 Co635 2.135 . S
Co644 O645 2.216 . S
Co644 O646 2.091 . S
Co644 O648 2.004 . S
Co644 O654 2.021 . S
Co644 O656 2.137 . S
Co644 O657 2.244 . S
O645 Co644 2.216 . S
O645 C652 1.247 . S
O646 Co644 2.091 . S
O646 C652 1.261 . S
C647 O656 1.247 . S
C647 O657 1.272 . S
O648 Co644 2.004 . S
O648 C653 1.259 . S
Co649 O650 2.061 . S
Co649 O655 2.052 . S
Co649 O657 2.135 . S
O650 Co649 2.061 . S
O650 C653 1.235 . S
C651 O654 1.238 . S
C651 O655 1.241 . S
C652 O645 1.247 . S
C652 O646 1.261 . S
C653 O648 1.259 . S
C653 O650 1.235 . S
O654 Co644 2.021 . S
O654 C651 1.238 . S
O655 Co649 2.052 . S
O655 C651 1.241 . S
O656 Co644 2.137 . S
O656 C647 1.247 . S
O657 Co644 2.244 . S
O657 C647 1.272 . S
O657 Co649 2.135 . S
Co658 O659 2.216 . S
Co658 O660 2.091 . S
Co658 O662 2.004 . S
Co658 O668 2.021 . S
Co658 O670 2.137 . S
Co658 O671 2.244 . S
O659 Co658 2.216 . S
O659 C666 1.247 . S
O660 Co658 2.091 . S
O660 C666 1.261 . S
C661 O670 1.247 . S
C661 O671 1.272 . S
O662 Co658 2.004 . S
O662 C667 1.259 . S
Co663 O664 2.061 . S
Co663 O669 2.052 . S
Co663 O671 2.135 . S
O664 Co663 2.061 . S
O664 C667 1.235 . S
C665 O668 1.238 . S
C665 O669 1.241 . S
C666 O659 1.247 . S
C666 O660 1.261 . S
C667 O662 1.259 . S
C667 O664 1.235 . S
O668 Co658 2.021 . S
O668 C665 1.238 . S
O669 Co663 2.052 . S
O669 C665 1.241 . S
O670 Co658 2.137 . S
O670 C661 1.247 . S
O671 Co658 2.244 . S
O671 C661 1.272 . S
O671 Co663 2.135 . S
H672 C680 0.950 . S
H673 C685 0.950 . S
H674 C682 0.950 . S
H675 C684 0.950 . S
H676 C686 0.950 . S
H677 C688 0.950 . S
H678 C690 0.950 . S
H679 C691 0.950 . S
C680 H672 0.950 . S
C680 C681 1.386 . S
C680 C682 1.391 . S
C681 C680 1.386 . S
C681 C685 1.393 . S
C682 H674 0.950 . S
C682 C680 1.391 . S
C682 C683 1.400 . S
C683 C682 1.400 . S
C683 C684 1.398 . S
C683 C689 1.491 1_655 S
C684 H675 0.950 . S
C684 C683 1.398 . S
C684 C685 1.391 . S
C685 H673 0.950 . S
C685 C681 1.393 . S
C685 C684 1.391 . S
C686 H676 0.950 . S
C686 C687 1.386 . S
C686 C688 1.391 . S
C687 C686 1.386 . S
C687 C691 1.393 . S
C688 H677 0.950 . S
C688 C686 1.391 . S
C688 C689 1.400 . S
C689 C683 1.491 1_455 S
C689 C688 1.400 . S
C689 C690 1.398 . S
C690 H678 0.950 . S
C690 C689 1.398 . S
C690 C691 1.391 . S
C691 H679 0.950 . S
C691 C687 1.393 . S
C691 C690 1.391 . S
H692 C700 0.950 . S
H693 C705 0.950 . S
H694 C702 0.950 . S
H695 C704 0.950 . S
H696 C706 0.950 . S
H697 C708 0.950 . S
H698 C710 0.950 . S
H699 C711 0.950 . S
C700 H692 0.950 . S
C700 C701 1.386 . S
C700 C702 1.391 . S
C701 C700 1.386 . S
C701 C705 1.393 . S
C702 H694 0.950 . S
C702 C700 1.391 . S
C702 C703 1.400 . S
C703 C702 1.400 . S
C703 C704 1.398 . S
C703 C709 1.491 . S
C704 H695 0.950 . S
C704 C703 1.398 . S
C704 C705 1.391 . S
C705 H693 0.950 . S
C705 C701 1.393 . S
C705 C704 1.391 . S
C706 H696 0.950 . S
C706 C707 1.386 . S
C706 C708 1.391 . S
C707 C706 1.386 . S
C707 C711 1.393 . S
C708 H697 0.950 . S
C708 C706 1.391 . S
C708 C709 1.400 . S
C709 C703 1.491 . S
C709 C708 1.400 . S
C709 C710 1.398 . S
C710 H698 0.950 . S
C710 C709 1.398 . S
C710 C711 1.391 . S
C711 H699 0.950 . S
C711 C707 1.393 . S
C711 C710 1.391 . S
H712 C720 0.950 . S
H713 C725 0.950 . S
H714 C722 0.950 . S
H715 C724 0.950 . S
H716 C726 0.950 . S
H717 C728 0.950 . S
H718 C730 0.950 . S
H719 C731 0.950 . S
C720 H712 0.950 . S
C720 C721 1.386 . S
C720 C722 1.391 . S
C721 C720 1.386 . S
C721 C725 1.393 . S
C722 H714 0.950 . S
C722 C720 1.391 . S
C722 C723 1.400 . S
C723 C722 1.400 . S
C723 C724 1.398 . S
C723 C729 1.491 1_455 S
C724 H715 0.950 . S
C724 C723 1.398 . S
C724 C725 1.391 . S
C725 H713 0.950 . S
C725 C721 1.393 . S
C725 C724 1.391 . S
C726 H716 0.950 . S
C726 C727 1.386 . S
C726 C728 1.391 . S
C727 C726 1.386 . S
C727 C731 1.393 . S
C728 H717 0.950 . S
C728 C726 1.391 . S
C728 C729 1.400 . S
C729 C723 1.491 1_655 S
C729 C728 1.400 . S
C729 C730 1.398 . S
C730 H718 0.950 . S
C730 C729 1.398 . S
C730 C731 1.391 . S
C731 H719 0.950 . S
C731 C727 1.393 . S
C731 C730 1.391 . S
H732 C740 0.950 . S
H733 C745 0.950 . S
H734 C742 0.950 . S
H735 C744 0.950 . S
H736 C746 0.950 . S
H737 C748 0.950 . S
H738 C750 0.950 . S
H739 C751 0.950 . S
C740 H732 0.950 . S
C740 C741 1.386 . S
C740 C742 1.391 . S
C741 C740 1.386 . S
C741 C745 1.393 . S
C742 H734 0.950 . S
C742 C740 1.391 . S
C742 C743 1.400 . S
C743 C742 1.400 . S
C743 C744 1.398 . S
C743 C749 1.491 . S
C744 H735 0.950 . S
C744 C743 1.398 . S
C744 C745 1.391 . S
C745 H733 0.950 . S
C745 C741 1.393 . S
C745 C744 1.391 . S
C746 H736 0.950 . S
C746 C747 1.386 . S
C746 C748 1.391 . S
C747 C746 1.386 . S
C747 C751 1.393 . S
C748 H737 0.950 . S
C748 C746 1.391 . S
C748 C749 1.400 . S
C749 C743 1.491 . S
C749 C748 1.400 . S
C749 C750 1.398 . S
C750 H738 0.950 . S
C750 C749 1.398 . S
C750 C751 1.391 . S
C751 H739 0.950 . S
C751 C747 1.393 . S
C751 C750 1.391 . S
H752 C760 0.950 . S
H753 C765 0.950 . S
H754 C762 0.950 . S
H755 C764 0.950 . S
H756 C766 0.950 . S
H757 C768 0.950 . S
H758 C770 0.950 . S
H759 C771 0.950 . S
C760 H752 0.950 . S
C760 C761 1.386 . S
C760 C762 1.391 . S
C761 C760 1.386 . S
C761 C765 1.393 . S
C762 H754 0.950 . S
C762 C760 1.391 . S
C762 C763 1.400 . S
C763 C762 1.400 . S
C763 C764 1.398 . S
C763 C769 1.491 1_655 S
C764 H755 0.950 . S
C764 C763 1.398 . S
C764 C765 1.391 . S
C765 H753 0.950 . S
C765 C761 1.393 . S
C765 C764 1.391 . S
C766 H756 0.950 . S
C766 C767 1.386 . S
C766 C768 1.391 . S
C767 C766 1.386 . S
C767 C771 1.393 . S
C768 H757 0.950 . S
C768 C766 1.391 . S
C768 C769 1.400 . S
C769 C763 1.491 1_455 S
C769 C768 1.400 . S
C769 C770 1.398 . S
C770 H758 0.950 . S
C770 C769 1.398 . S
C770 C771 1.391 . S
C771 H759 0.950 . S
C771 C767 1.393 . S
C771 C770 1.391 . S
H772 C780 0.950 . S
H773 C785 0.950 . S
H774 C782 0.950 . S
H775 C784 0.950 . S
H776 C786 0.950 . S
H777 C788 0.950 . S
H778 C790 0.950 . S
H779 C791 0.950 . S
C780 H772 0.950 . S
C780 C781 1.386 . S
C780 C782 1.391 . S
C781 C780 1.386 . S
C781 C785 1.393 . S
C782 H774 0.950 . S
C782 C780 1.391 . S
C782 C783 1.400 . S
C783 C782 1.400 . S
C783 C784 1.398 . S
C783 C789 1.491 . S
C784 H775 0.950 . S
C784 C783 1.398 . S
C784 C785 1.391 . S
C785 H773 0.950 . S
C785 C781 1.393 . S
C785 C784 1.391 . S
C786 H776 0.950 . S
C786 C787 1.386 . S
C786 C788 1.391 . S
C787 C786 1.386 . S
C787 C791 1.393 . S
C788 H777 0.950 . S
C788 C786 1.391 . S
C788 C789 1.400 . S
C789 C783 1.491 . S
C789 C788 1.400 . S
C789 C790 1.398 . S
C790 H778 0.950 . S
C790 C789 1.398 . S
C790 C791 1.391 . S
C791 H779 0.950 . S
C791 C787 1.393 . S
C791 C790 1.391 . S
H792 C800 0.950 . S
H793 C805 0.950 . S
H794 C802 0.950 . S
H795 C804 0.950 . S
H796 C806 0.950 . S
H797 C808 0.950 . S
H798 C810 0.950 . S
H799 C811 0.950 . S
C800 H792 0.950 . S
C800 C801 1.386 . S
C800 C802 1.391 . S
C801 C800 1.386 . S
C801 C805 1.393 . S
C802 H794 0.950 . S
C802 C800 1.391 . S
C802 C803 1.400 . S
C803 C802 1.400 . S
C803 C804 1.398 . S
C803 C809 1.491 1_455 S
C804 H795 0.950 . S
C804 C803 1.398 . S
C804 C805 1.391 . S
C805 H793 0.950 . S
C805 C801 1.393 . S
C805 C804 1.391 . S
C806 H796 0.950 . S
C806 C807 1.386 . S
C806 C808 1.391 . S
C807 C806 1.386 . S
C807 C811 1.393 . S
C808 H797 0.950 . S
C808 C806 1.391 . S
C808 C809 1.400 . S
C809 C803 1.491 1_655 S
C809 C808 1.400 . S
C809 C810 1.398 . S
C810 H798 0.950 . S
C810 C809 1.398 . S
C810 C811 1.391 . S
C811 H799 0.950 . S
C811 C807 1.393 . S
C811 C810 1.391 . S
H812 C820 0.950 . S
H813 C825 0.950 . S
H814 C822 0.950 . S
H815 C824 0.950 . S
H816 C826 0.950 . S
H817 C828 0.950 . S
H818 C830 0.950 . S
H819 C831 0.950 . S
C820 H812 0.950 . S
C820 C821 1.386 . S
C820 C822 1.391 . S
C821 C820 1.386 . S
C821 C825 1.393 . S
C822 H814 0.950 . S
C822 C820 1.391 . S
C822 C823 1.400 . S
C823 C822 1.400 . S
C823 C824 1.398 . S
C823 C829 1.491 . S
C824 H815 0.950 . S
C824 C823 1.398 . S
C824 C825 1.391 . S
C825 H813 0.950 . S
C825 C821 1.393 . S
C825 C824 1.391 . S
C826 H816 0.950 . S
C826 C827 1.386 . S
C826 C828 1.391 . S
C827 C826 1.386 . S
C827 C831 1.393 . S
C828 H817 0.950 . S
C828 C826 1.391 . S
C828 C829 1.400 . S
C829 C823 1.491 . S
C829 C828 1.400 . S
C829 C830 1.398 . S
C830 H818 0.950 . S
C830 C829 1.398 . S
C830 C831 1.391 . S
C831 H819 0.950 . S
C831 C827 1.393 . S
C831 C830 1.391 . S
H832 C840 0.950 . S
H833 C845 0.950 . S
H834 C842 0.950 . S
H835 C844 0.950 . S
H836 C846 0.950 . S
H837 C848 0.950 . S
H838 C850 0.950 . S
H839 C851 0.950 . S
C840 H832 0.950 . S
C840 C841 1.386 . S
C840 C842 1.391 . S
C841 C840 1.386 . S
C841 C845 1.393 . S
C842 H834 0.950 . S
C842 C840 1.391 . S
C842 C843 1.400 . S
C843 C842 1.400 . S
C843 C844 1.398 . S
C843 C849 1.491 1_565 S
C844 H835 0.950 . S
C844 C843 1.398 . S
C844 C845 1.391 . S
C845 H833 0.950 . S
C845 C841 1.393 . S
C845 C844 1.391 . S
C846 H836 0.950 . S
C846 C847 1.386 . S
C846 C848 1.391 . S
C847 C846 1.386 . S
C847 C851 1.393 . S
C848 H837 0.950 . S
C848 C846 1.391 . S
C848 C849 1.400 . S
C849 C843 1.491 1_545 S
C849 C848 1.400 . S
C849 C850 1.398 . S
C850 H838 0.950 . S
C850 C849 1.398 . S
C850 C851 1.391 . S
C851 H839 0.950 . S
C851 C847 1.393 . S
C851 C850 1.391 . S
H852 C860 0.950 . S
H853 C865 0.950 . S
H854 C862 0.950 . S
H855 C864 0.950 . S
H856 C866 0.950 . S
H857 C868 0.950 . S
H858 C870 0.950 . S
H859 C871 0.950 . S
C860 H852 0.950 . S
C860 C861 1.386 . S
C860 C862 1.391 . S
C861 C860 1.386 . S
C861 C865 1.393 . S
C862 H854 0.950 . S
C862 C860 1.391 . S
C862 C863 1.400 . S
C863 C862 1.400 . S
C863 C864 1.398 . S
C863 C869 1.491 . S
C864 H855 0.950 . S
C864 C863 1.398 . S
C864 C865 1.391 . S
C865 H853 0.950 . S
C865 C861 1.393 . S
C865 C864 1.391 . S
C866 H856 0.950 . S
C866 C867 1.386 . S
C866 C868 1.391 . S
C867 C866 1.386 . S
C867 C871 1.393 . S
C868 H857 0.950 . S
C868 C866 1.391 . S
C868 C869 1.400 . S
C869 C863 1.491 . S
C869 C868 1.400 . S
C869 C870 1.398 . S
C870 H858 0.950 . S
C870 C869 1.398 . S
C870 C871 1.391 . S
C871 H859 0.950 . S
C871 C867 1.393 . S
C871 C870 1.391 . S
H872 C880 0.950 . S
H873 C885 0.950 . S
H874 C882 0.950 . S
H875 C884 0.950 . S
H876 C886 0.950 . S
H877 C888 0.950 . S
H878 C890 0.950 . S
H879 C891 0.950 . S
C880 H872 0.950 . S
C880 C881 1.386 . S
C880 C882 1.391 . S
C881 C880 1.386 . S
C881 C885 1.393 . S
C882 H874 0.950 . S
C882 C880 1.391 . S
C882 C883 1.400 . S
C883 C882 1.400 . S
C883 C884 1.398 . S
C883 C889 1.491 1_545 S
C884 H875 0.950 . S
C884 C883 1.398 . S
C884 C885 1.391 . S
C885 H873 0.950 . S
C885 C881 1.393 . S
C885 C884 1.391 . S
C886 H876 0.950 . S
C886 C887 1.386 . S
C886 C888 1.391 . S
C887 C886 1.386 . S
C887 C891 1.393 . S
C888 H877 0.950 . S
C888 C886 1.391 . S
C888 C889 1.400 . S
C889 C883 1.491 1_565 S
C889 C888 1.400 . S
C889 C890 1.398 . S
C890 H878 0.950 . S
C890 C889 1.398 . S
C890 C891 1.391 . S
C891 H879 0.950 . S
C891 C887 1.393 . S
C891 C890 1.391 . S
H892 C900 0.950 . S
H893 C905 0.950 . S
H894 C902 0.950 . S
H895 C904 0.950 . S
H896 C906 0.950 . S
H897 C908 0.950 . S
H898 C910 0.950 . S
H899 C911 0.950 . S
C900 H892 0.950 . S
C900 C901 1.386 . S
C900 C902 1.391 . S
C901 C900 1.386 . S
C901 C905 1.393 . S
C902 H894 0.950 . S
C902 C900 1.391 . S
C902 C903 1.400 . S
C903 C902 1.400 . S
C903 C904 1.398 . S
C903 C909 1.491 . S
C904 H895 0.950 . S
C904 C903 1.398 . S
C904 C905 1.391 . S
C905 H893 0.950 . S
C905 C901 1.393 . S
C905 C904 1.391 . S
C906 H896 0.950 . S
C906 C907 1.386 . S
C906 C908 1.391 . S
C907 C906 1.386 . S
C907 C911 1.393 . S
C908 H897 0.950 . S
C908 C906 1.391 . S
C908 C909 1.400 . S
C909 C903 1.491 . S
C909 C908 1.400 . S
C909 C910 1.398 . S
C910 H898 0.950 . S
C910 C909 1.398 . S
C910 C911 1.391 . S
C911 H899 0.950 . S
C911 C907 1.393 . S
C911 C910 1.391 . S
H912 C920 0.950 . S
H913 C925 0.950 . S
H914 C922 0.950 . S
H915 C924 0.950 . S
H916 C926 0.950 . S
H917 C928 0.950 . S
H918 C930 0.950 . S
H919 C931 0.950 . S
C920 H912 0.950 . S
C920 C921 1.386 . S
C920 C922 1.391 . S
C921 C920 1.386 . S
C921 C925 1.393 . S
C922 H914 0.950 . S
C922 C920 1.391 . S
C922 C923 1.400 . S
C923 C922 1.400 . S
C923 C924 1.398 . S
C923 C929 1.491 1_545 S
C924 H915 0.950 . S
C924 C923 1.398 . S
C924 C925 1.391 . S
C925 H913 0.950 . S
C925 C921 1.393 . S
C925 C924 1.391 . S
C926 H916 0.950 . S
C926 C927 1.386 . S
C926 C928 1.391 . S
C927 C926 1.386 . S
C927 C931 1.393 . S
C928 H917 0.950 . S
C928 C926 1.391 . S
C928 C929 1.400 . S
C929 C923 1.491 1_565 S
C929 C928 1.400 . S
C929 C930 1.398 . S
C930 H918 0.950 . S
C930 C929 1.398 . S
C930 C931 1.391 . S
C931 H919 0.950 . S
C931 C927 1.393 . S
C931 C930 1.391 . S
H932 C940 0.950 . S
H933 C945 0.950 . S
H934 C942 0.950 . S
H935 C944 0.950 . S
H936 C946 0.950 . S
H937 C948 0.950 . S
H938 C950 0.950 . S
H939 C951 0.950 . S
C940 H932 0.950 . S
C940 C941 1.386 . S
C940 C942 1.391 . S
C941 C940 1.386 . S
C941 C945 1.393 . S
C942 H934 0.950 . S
C942 C940 1.391 . S
C942 C943 1.400 . S
C943 C942 1.400 . S
C943 C944 1.398 . S
C943 C949 1.491 . S
C944 H935 0.950 . S
C944 C943 1.398 . S
C944 C945 1.391 . S
C945 H933 0.950 . S
C945 C941 1.393 . S
C945 C944 1.391 . S
C946 H936 0.950 . S
C946 C947 1.386 . S
C946 C948 1.391 . S
C947 C946 1.386 . S
C947 C951 1.393 . S
C948 H937 0.950 . S
C948 C946 1.391 . S
C948 C949 1.400 . S
C949 C943 1.491 . S
C949 C948 1.400 . S
C949 C950 1.398 . S
C950 H938 0.950 . S
C950 C949 1.398 . S
C950 C951 1.391 . S
C951 H939 0.950 . S
C951 C947 1.393 . S
C951 C950 1.391 . S
H952 C960 0.950 . S
H953 C965 0.950 . S
H954 C962 0.950 . S
H955 C964 0.950 . S
H956 C966 0.950 . S
H957 C968 0.950 . S
H958 C970 0.950 . S
H959 C971 0.950 . S
C960 H952 0.950 . S
C960 C961 1.386 . S
C960 C962 1.391 . S
C961 C960 1.386 . S
C961 C965 1.393 . S
C962 H954 0.950 . S
C962 C960 1.391 . S
C962 C963 1.400 . S
C963 C962 1.400 . S
C963 C964 1.398 . S
C963 C969 1.491 1_545 S
C964 H955 0.950 . S
C964 C963 1.398 . S
C964 C965 1.391 . S
C965 H953 0.950 . S
C965 C961 1.393 . S
C965 C964 1.391 . S
C966 H956 0.950 . S
C966 C967 1.386 . S
C966 C968 1.391 . S
C967 C966 1.386 . S
C967 C971 1.393 . S
C968 H957 0.950 . S
C968 C966 1.391 . S
C968 C969 1.400 . S
C969 C963 1.491 1_565 S
C969 C968 1.400 . S
C969 C970 1.398 . S
C970 H958 0.950 . S
C970 C969 1.398 . S
C970 C971 1.391 . S
C971 H959 0.950 . S
C971 C967 1.393 . S
C971 C970 1.391 . S
H972 C980 0.950 . S
H973 C985 0.950 . S
H974 C982 0.950 . S
H975 C984 0.950 . S
H976 C986 0.950 . S
H977 C988 0.950 . S
H978 C990 0.950 . S
H979 C991 0.950 . S
C980 H972 0.950 . S
C980 C981 1.386 . S
C980 C982 1.391 . S
C981 C980 1.386 . S
C981 C985 1.393 . S
C982 H974 0.950 . S
C982 C980 1.391 . S
C982 C983 1.400 . S
C983 C982 1.400 . S
C983 C984 1.398 . S
C983 C989 1.491 . S
C984 H975 0.950 . S
C984 C983 1.398 . S
C984 C985 1.391 . S
C985 H973 0.950 . S
C985 C981 1.393 . S
C985 C984 1.391 . S
C986 H976 0.950 . S
C986 C987 1.386 . S
C986 C988 1.391 . S
C987 C986 1.386 . S
C987 C991 1.393 . S
C988 H977 0.950 . S
C988 C986 1.391 . S
C988 C989 1.400 . S
C989 C983 1.491 . S
C989 C988 1.400 . S
C989 C990 1.398 . S
C990 H978 0.950 . S
C990 C989 1.398 . S
C990 C991 1.391 . S
C991 H979 0.950 . S
C991 C987 1.393 . S
C991 C990 1.391 . S
H992 C1000 0.950 . S
H993 C1005 0.950 . S
H994 C1002 0.950 . S
H995 C1004 0.950 . S
H996 C1006 0.950 . S
H997 C1008 0.950 . S
H998 C1010 0.950 . S
H999 C1011 0.950 . S
C1000 H992 0.950 . S
C1000 C1001 1.386 . S
C1000 C1002 1.391 . S
C1001 C1000 1.386 . S
C1001 C1005 1.393 . S
C1002 H994 0.950 . S
C1002 C1000 1.391 . S
C1002 C1003 1.400 . S
C1003 C1002 1.400 . S
C1003 C1004 1.398 . S
C1003 C1009 1.491 1_554 S
C1004 H995 0.950 . S
C1004 C1003 1.398 . S
C1004 C1005 1.391 . S
C1005 H993 0.950 . S
C1005 C1001 1.393 . S
C1005 C1004 1.391 . S
C1006 H996 0.950 . S
C1006 C1007 1.386 . S
C1006 C1008 1.391 . S
C1007 C1006 1.386 . S
C1007 C1011 1.393 . S
C1008 H997 0.950 . S
C1008 C1006 1.391 . S
C1008 C1009 1.400 . S
C1009 C1003 1.491 1_556 S
C1009 C1008 1.400 . S
C1009 C1010 1.398 . S
C1010 H998 0.950 . S
C1010 C1009 1.398 . S
C1010 C1011 1.391 . S
C1011 H999 0.950 . S
C1011 C1007 1.393 . S
C1011 C1010 1.391 . S
H1012 C1020 0.950 . S
H1013 C1025 0.950 . S
H1014 C1022 0.950 . S
H1015 C1024 0.950 . S
H1016 C1026 0.950 . S
H1017 C1028 0.950 . S
H1018 C1030 0.950 . S
H1019 C1031 0.950 . S
C1020 H1012 0.950 . S
C1020 C1021 1.386 . S
C1020 C1022 1.391 . S
C1021 C1020 1.386 . S
C1021 C1025 1.393 . S
C1022 H1014 0.950 . S
C1022 C1020 1.391 . S
C1022 C1023 1.400 . S
C1023 C1022 1.400 . S
C1023 C1024 1.398 . S
C1023 C1029 1.491 1_554 S
C1024 H1015 0.950 . S
C1024 C1023 1.398 . S
C1024 C1025 1.391 . S
C1025 H1013 0.950 . S
C1025 C1021 1.393 . S
C1025 C1024 1.391 . S
C1026 H1016 0.950 . S
C1026 C1027 1.386 . S
C1026 C1028 1.391 . S
C1027 C1026 1.386 . S
C1027 C1031 1.393 . S
C1028 H1017 0.950 . S
C1028 C1026 1.391 . S
C1028 C1029 1.400 . S
C1029 C1023 1.491 1_556 S
C1029 C1028 1.400 . S
C1029 C1030 1.398 . S
C1030 H1018 0.950 . S
C1030 C1029 1.398 . S
C1030 C1031 1.391 . S
C1031 H1019 0.950 . S
C1031 C1027 1.393 . S
C1031 C1030 1.391 . S
H1032 C1040 0.950 . S
H1033 C1045 0.950 . S
H1034 C1042 0.950 . S
H1035 C1044 0.950 . S
H1036 C1046 0.950 . S
H1037 C1048 0.950 . S
H1038 C1050 0.950 . S
H1039 C1051 0.950 . S
C1040 H1032 0.950 . S
C1040 C1041 1.386 . S
C1040 C1042 1.391 . S
C1041 C1040 1.386 . S
C1041 C1045 1.393 . S
C1042 H1034 0.950 . S
C1042 C1040 1.391 . S
C1042 C1043 1.400 . S
C1043 C1042 1.400 . S
C1043 C1044 1.398 . S
C1043 C1049 1.491 . S
C1044 H1035 0.950 . S
C1044 C1043 1.398 . S
C1044 C1045 1.391 . S
C1045 H1033 0.950 . S
C1045 C1041 1.393 . S
C1045 C1044 1.391 . S
C1046 H1036 0.950 . S
C1046 C1047 1.386 . S
C1046 C1048 1.391 . S
C1047 C1046 1.386 . S
C1047 C1051 1.393 . S
C1048 H1037 0.950 . S
C1048 C1046 1.391 . S
C1048 C1049 1.400 . S
C1049 C1043 1.491 . S
C1049 C1048 1.400 . S
C1049 C1050 1.398 . S
C1050 H1038 0.950 . S
C1050 C1049 1.398 . S
C1050 C1051 1.391 . S
C1051 H1039 0.950 . S
C1051 C1047 1.393 . S
C1051 C1050 1.391 . S
H1052 C1060 0.950 . S
H1053 C1065 0.950 . S
H1054 C1062 0.950 . S
H1055 C1064 0.950 . S
H1056 C1066 0.950 . S
H1057 C1068 0.950 . S
H1058 C1070 0.950 . S
H1059 C1071 0.950 . S
C1060 H1052 0.950 . S
C1060 C1061 1.386 . S
C1060 C1062 1.391 . S
C1061 C1060 1.386 . S
C1061 C1065 1.393 . S
C1062 H1054 0.950 . S
C1062 C1060 1.391 . S
C1062 C1063 1.400 . S
C1063 C1062 1.400 . S
C1063 C1064 1.398 . S
C1063 C1069 1.491 1_554 S
C1064 H1055 0.950 . S
C1064 C1063 1.398 . S
C1064 C1065 1.391 . S
C1065 H1053 0.950 . S
C1065 C1061 1.393 . S
C1065 C1064 1.391 . S
C1066 H1056 0.950 . S
C1066 C1067 1.386 . S
C1066 C1068 1.391 . S
C1067 C1066 1.386 . S
C1067 C1071 1.393 . S
C1068 H1057 0.950 . S
C1068 C1066 1.391 . S
C1068 C1069 1.400 . S
C1069 C1063 1.491 1_556 S
C1069 C1068 1.400 . S
C1069 C1070 1.398 . S
C1070 H1058 0.950 . S
C1070 C1069 1.398 . S
C1070 C1071 1.391 . S
C1071 H1059 0.950 . S
C1071 C1067 1.393 . S
C1071 C1070 1.391 . S
H1072 C1080 0.950 . S
H1073 C1085 0.950 . S
H1074 C1082 0.950 . S
H1075 C1084 0.950 . S
H1076 C1086 0.950 . S
H1077 C1088 0.950 . S
H1078 C1090 0.950 . S
H1079 C1091 0.950 . S
C1080 H1072 0.950 . S
C1080 C1081 1.386 . S
C1080 C1082 1.391 . S
C1081 C1080 1.386 . S
C1081 C1085 1.393 . S
C1082 H1074 0.950 . S
C1082 C1080 1.391 . S
C1082 C1083 1.400 . S
C1083 C1082 1.400 . S
C1083 C1084 1.398 . S
C1083 C1089 1.491 . S
C1084 H1075 0.950 . S
C1084 C1083 1.398 . S
C1084 C1085 1.391 . S
C1085 H1073 0.950 . S
C1085 C1081 1.393 . S
C1085 C1084 1.391 . S
C1086 H1076 0.950 . S
C1086 C1087 1.386 . S
C1086 C1088 1.391 . S
C1087 C1086 1.386 . S
C1087 C1091 1.393 . S
C1088 H1077 0.950 . S
C1088 C1086 1.391 . S
C1088 C1089 1.400 . S
C1089 C1083 1.491 . S
C1089 C1088 1.400 . S
C1089 C1090 1.398 . S
C1090 H1078 0.950 . S
C1090 C1089 1.398 . S
C1090 C1091 1.391 . S
C1091 H1079 0.950 . S
C1091 C1087 1.393 . S
C1091 C1090 1.391 . S
H1092 C1100 0.950 . S
H1093 C1105 0.950 . S
H1094 C1102 0.950 . S
H1095 C1104 0.950 . S
H1096 C1106 0.950 . S
H1097 C1108 0.950 . S
H1098 C1110 0.950 . S
H1099 C1111 0.950 . S
C1100 H1092 0.950 . S
C1100 C1101 1.386 . S
C1100 C1102 1.391 . S
C1101 C1100 1.386 . S
C1101 C1105 1.393 . S
C1102 H1094 0.950 . S
C1102 C1100 1.391 . S
C1102 C1103 1.400 . S
C1103 C1102 1.400 . S
C1103 C1104 1.398 . S
C1103 C1109 1.491 1_554 S
C1104 H1095 0.950 . S
C1104 C1103 1.398 . S
C1104 C1105 1.391 . S
C1105 H1093 0.950 . S
C1105 C1101 1.393 . S
C1105 C1104 1.391 . S
C1106 H1096 0.950 . S
C1106 C1107 1.386 . S
C1106 C1108 1.391 . S
C1107 C1106 1.386 . S
C1107 C1111 1.393 . S
C1108 H1097 0.950 . S
C1108 C1106 1.391 . S
C1108 C1109 1.400 . S
C1109 C1103 1.491 1_556 S
C1109 C1108 1.400 . S
C1109 C1110 1.398 . S
C1110 H1098 0.950 . S
C1110 C1109 1.398 . S
C1110 C1111 1.391 . S
C1111 H1099 0.950 . S
C1111 C1107 1.393 . S
C1111 C1110 1.391 . S
H1112 C1120 0.950 . S
H1113 C1125 0.950 . S
H1114 C1122 0.950 . S
H1115 C1124 0.950 . S
H1116 C1126 0.950 . S
H1117 C1128 0.950 . S
H1118 C1130 0.950 . S
H1119 C1131 0.950 . S
C1120 H1112 0.950 . S
C1120 C1121 1.386 . S
C1120 C1122 1.391 . S
C1121 C1120 1.386 . S
C1121 C1125 1.393 . S
C1122 H1114 0.950 . S
C1122 C1120 1.391 . S
C1122 C1123 1.400 . S
C1123 C1122 1.400 . S
C1123 C1124 1.398 . S
C1123 C1129 1.491 . S
C1124 H1115 0.950 . S
C1124 C1123 1.398 . S
C1124 C1125 1.391 . S
C1125 H1113 0.950 . S
C1125 C1121 1.393 . S
C1125 C1124 1.391 . S
C1126 H1116 0.950 . S
C1126 C1127 1.386 . S
C1126 C1128 1.391 . S
C1127 C1126 1.386 . S
C1127 C1131 1.393 . S
C1128 H1117 0.950 . S
C1128 C1126 1.391 . S
C1128 C1129 1.400 . S
C1129 C1123 1.491 . S
C1129 C1128 1.400 . S
C1129 C1130 1.398 . S
C1130 H1118 0.950 . S
C1130 C1129 1.398 . S
C1130 C1131 1.391 . S
C1131 H1119 0.950 . S
C1131 C1127 1.393 . S
C1131 C1130 1.391 . S
H1132 C1140 0.950 . S
H1133 C1145 0.950 . S
H1134 C1142 0.950 . S
H1135 C1144 0.950 . S
H1136 C1146 0.950 . S
H1137 C1148 0.950 . S
H1138 C1150 0.950 . S
H1139 C1151 0.950 . S
C1140 H1132 0.950 . S
C1140 C1141 1.386 . S
C1140 C1142 1.391 . S
C1141 C1140 1.386 . S
C1141 C1145 1.393 . S
C1142 H1134 0.950 . S
C1142 C1140 1.391 . S
C1142 C1143 1.400 . S
C1143 C1142 1.400 . S
C1143 C1144 1.398 . S
C1143 C1149 1.491 . S
C1144 H1135 0.950 . S
C1144 C1143 1.398 . S
C1144 C1145 1.391 . S
C1145 H1133 0.950 . S
C1145 C1141 1.393 . S
C1145 C1144 1.391 . S
C1146 H1136 0.950 . S
C1146 C1147 1.386 . S
C1146 C1148 1.391 . S
C1147 C1146 1.386 . S
C1147 C1151 1.393 . S
C1148 H1137 0.950 . S
C1148 C1146 1.391 . S
C1148 C1149 1.400 . S
C1149 C1143 1.491 . S
C1149 C1148 1.400 . S
C1149 C1150 1.398 . S
C1150 H1138 0.950 . S
C1150 C1149 1.398 . S
C1150 C1151 1.391 . S
C1151 H1139 0.950 . S
C1151 C1147 1.393 . S
C1151 C1150 1.391 . S
H1152 C1160 0.950 . S
H1153 C1165 0.950 . S
H1154 C1162 0.950 . S
H1155 C1164 0.950 . S
H1156 C1166 0.950 . S
H1157 C1168 0.950 . S
H1158 C1170 0.950 . S
H1159 C1171 0.950 . S
C1160 H1152 0.950 . S
C1160 C1161 1.386 . S
C1160 C1162 1.391 . S
C1161 C1160 1.386 . S
C1161 C1165 1.393 . S
C1162 H1154 0.950 . S
C1162 C1160 1.391 . S
C1162 C1163 1.400 . S
C1163 C1162 1.400 . S
C1163 C1164 1.398 . S
C1163 C1169 1.491 . S
C1164 H1155 0.950 . S
C1164 C1163 1.398 . S
C1164 C1165 1.391 . S
C1165 H1153 0.950 . S
C1165 C1161 1.393 . S
C1165 C1164 1.391 . S
C1166 H1156 0.950 . S
C1166 C1167 1.386 . S
C1166 C1168 1.391 . S
C1167 C1166 1.386 . S
C1167 C1171 1.393 . S
C1168 H1157 0.950 . S
C1168 C1166 1.391 . S
C1168 C1169 1.400 . S
C1169 C1163 1.491 . S
C1169 C1168 1.400 . S
C1169 C1170 1.398 . S
C1170 H1158 0.950 . S
C1170 C1169 1.398 . S
C1170 C1171 1.391 . S
C1171 H1159 0.950 . S
C1171 C1167 1.393 . S
C1171 C1170 1.391 . S
H1172 C1180 0.950 . S
H1173 C1185 0.950 . S
H1174 C1182 0.950 . S
H1175 C1184 0.950 . S
H1176 C1186 0.950 . S
H1177 C1188 0.950 . S
H1178 C1190 0.950 . S
H1179 C1191 0.950 . S
C1180 H1172 0.950 . S
C1180 C1181 1.386 . S
C1180 C1182 1.391 . S
C1181 C1180 1.386 . S
C1181 C1185 1.393 . S
C1182 H1174 0.950 . S
C1182 C1180 1.391 . S
C1182 C1183 1.400 . S
C1183 C1182 1.400 . S
C1183 C1184 1.398 . S
C1183 C1189 1.491 . S
C1184 H1175 0.950 . S
C1184 C1183 1.398 . S
C1184 C1185 1.391 . S
C1185 H1173 0.950 . S
C1185 C1181 1.393 . S
C1185 C1184 1.391 . S
C1186 H1176 0.950 . S
C1186 C1187 1.386 . S
C1186 C1188 1.391 . S
C1187 C1186 1.386 . S
C1187 C1191 1.393 . S
C1188 H1177 0.950 . S
C1188 C1186 1.391 . S
C1188 C1189 1.400 . S
C1189 C1183 1.491 . S
C1189 C1188 1.400 . S
C1189 C1190 1.398 . S
C1190 H1178 0.950 . S
C1190 C1189 1.398 . S
C1190 C1191 1.391 . S
C1191 H1179 0.950 . S
C1191 C1187 1.393 . S
C1191 C1190 1.391 . S
H1192 C1200 0.950 . S
H1193 C1205 0.950 . S
H1194 C1202 0.950 . S
H1195 C1204 0.950 . S
H1196 C1206 0.950 . S
H1197 C1208 0.950 . S
H1198 C1210 0.950 . S
H1199 C1211 0.950 . S
C1200 H1192 0.950 . S
C1200 C1201 1.386 . S
C1200 C1202 1.391 . S
C1201 C1200 1.386 . S
C1201 C1205 1.393 . S
C1202 H1194 0.950 . S
C1202 C1200 1.391 . S
C1202 C1203 1.400 . S
C1203 C1202 1.400 . S
C1203 C1204 1.398 . S
C1203 C1209 1.491 . S
C1204 H1195 0.950 . S
C1204 C1203 1.398 . S
C1204 C1205 1.391 . S
C1205 H1193 0.950 . S
C1205 C1201 1.393 . S
C1205 C1204 1.391 . S
C1206 H1196 0.950 . S
C1206 C1207 1.386 . S
C1206 C1208 1.391 . S
C1207 C1206 1.386 . S
C1207 C1211 1.393 . S
C1208 H1197 0.950 . S
C1208 C1206 1.391 . S
C1208 C1209 1.400 . S
C1209 C1203 1.491 . S
C1209 C1208 1.400 . S
C1209 C1210 1.398 . S
C1210 H1198 0.950 . S
C1210 C1209 1.398 . S
C1210 C1211 1.391 . S
C1211 H1199 0.950 . S
C1211 C1207 1.393 . S
C1211 C1210 1.391 . S
H1212 C1220 0.950 . S
H1213 C1225 0.950 . S
H1214 C1222 0.950 . S
H1215 C1224 0.950 . S
H1216 C1226 0.950 . S
H1217 C1228 0.950 . S
H1218 C1230 0.950 . S
H1219 C1231 0.950 . S
C1220 H1212 0.950 . S
C1220 C1221 1.386 . S
C1220 C1222 1.391 . S
C1221 C1220 1.386 . S
C1221 C1225 1.393 . S
C1222 H1214 0.950 . S
C1222 C1220 1.391 . S
C1222 C1223 1.400 . S
C1223 C1222 1.400 . S
C1223 C1224 1.398 . S
C1223 C1229 1.491 . S
C1224 H1215 0.950 . S
C1224 C1223 1.398 . S
C1224 C1225 1.391 . S
C1225 H1213 0.950 . S
C1225 C1221 1.393 . S
C1225 C1224 1.391 . S
C1226 H1216 0.950 . S
C1226 C1227 1.386 . S
C1226 C1228 1.391 . S
C1227 C1226 1.386 . S
C1227 C1231 1.393 . S
C1228 H1217 0.950 . S
C1228 C1226 1.391 . S
C1228 C1229 1.400 . S
C1229 C1223 1.491 . S
C1229 C1228 1.400 . S
C1229 C1230 1.398 . S
C1230 H1218 0.950 . S
C1230 C1229 1.398 . S
C1230 C1231 1.391 . S
C1231 H1219 0.950 . S
C1231 C1227 1.393 . S
C1231 C1230 1.391 . S
H1232 C1240 0.950 . S
H1233 C1245 0.950 . S
H1234 C1242 0.950 . S
H1235 C1244 0.950 . S
H1236 C1246 0.950 . S
H1237 C1248 0.950 . S
H1238 C1250 0.950 . S
H1239 C1251 0.950 . S
C1240 H1232 0.950 . S
C1240 C1241 1.386 . S
C1240 C1242 1.391 . S
C1241 C1240 1.386 . S
C1241 C1245 1.393 . S
C1242 H1234 0.950 . S
C1242 C1240 1.391 . S
C1242 C1243 1.400 . S
C1243 C1242 1.400 . S
C1243 C1244 1.398 . S
C1243 C1249 1.491 . S
C1244 H1235 0.950 . S
C1244 C1243 1.398 . S
C1244 C1245 1.391 . S
C1245 H1233 0.950 . S
C1245 C1241 1.393 . S
C1245 C1244 1.391 . S
C1246 H1236 0.950 . S
C1246 C1247 1.386 . S
C1246 C1248 1.391 . S
C1247 C1246 1.386 . S
C1247 C1251 1.393 . S
C1248 H1237 0.950 . S
C1248 C1246 1.391 . S
C1248 C1249 1.400 . S
C1249 C1243 1.491 . S
C1249 C1248 1.400 . S
C1249 C1250 1.398 . S
C1250 H1238 0.950 . S
C1250 C1249 1.398 . S
C1250 C1251 1.391 . S
C1251 H1239 0.950 . S
C1251 C1247 1.393 . S
C1251 C1250 1.391 . S
H1252 C1260 0.950 . S
H1253 C1265 0.950 . S
H1254 C1262 0.950 . S
H1255 C1264 0.950 . S
H1256 C1266 0.950 . S
H1257 C1268 0.950 . S
H1258 C1270 0.950 . S
H1259 C1271 0.950 . S
C1260 H1252 0.950 . S
C1260 C1261 1.386 . S
C1260 C1262 1.391 . S
C1261 C1260 1.386 . S
C1261 C1265 1.393 . S
C1262 H1254 0.950 . S
C1262 C1260 1.391 . S
C1262 C1263 1.400 . S
C1263 C1262 1.400 . S
C1263 C1264 1.398 . S
C1263 C1269 1.491 . S
C1264 H1255 0.950 . S
C1264 C1263 1.398 . S
C1264 C1265 1.391 . S
C1265 H1253 0.950 . S
C1265 C1261 1.393 . S
C1265 C1264 1.391 . S
C1266 H1256 0.950 . S
C1266 C1267 1.386 . S
C1266 C1268 1.391 . S
C1267 C1266 1.386 . S
C1267 C1271 1.393 . S
C1268 H1257 0.950 . S
C1268 C1266 1.391 . S
C1268 C1269 1.400 . S
C1269 C1263 1.491 . S
C1269 C1268 1.400 . S
C1269 C1270 1.398 . S
C1270 H1258 0.950 . S
C1270 C1269 1.398 . S
C1270 C1271 1.391 . S
C1271 H1259 0.950 . S
C1271 C1267 1.393 . S
C1271 C1270 1.391 . S
H1272 C1280 0.950 . S
H1273 C1285 0.950 . S
H1274 C1282 0.950 . S
H1275 C1284 0.950 . S
H1276 C1286 0.950 . S
H1277 C1288 0.950 . S
H1278 C1290 0.950 . S
H1279 C1291 0.950 . S
C1280 H1272 0.950 . S
C1280 C1281 1.386 . S
C1280 C1282 1.391 . S
C1281 C1280 1.386 . S
C1281 C1285 1.393 . S
C1282 H1274 0.950 . S
C1282 C1280 1.391 . S
C1282 C1283 1.400 . S
C1283 C1282 1.400 . S
C1283 C1284 1.398 . S
C1283 C1289 1.491 . S
C1284 H1275 0.950 . S
C1284 C1283 1.398 . S
C1284 C1285 1.391 . S
C1285 H1273 0.950 . S
C1285 C1281 1.393 . S
C1285 C1284 1.391 . S
C1286 H1276 0.950 . S
C1286 C1287 1.386 . S
C1286 C1288 1.391 . S
C1287 C1286 1.386 . S
C1287 C1291 1.393 . S
C1288 H1277 0.950 . S
C1288 C1286 1.391 . S
C1288 C1289 1.400 . S
C1289 C1283 1.491 . S
C1289 C1288 1.400 . S
C1289 C1290 1.398 . S
C1290 H1278 0.950 . S
C1290 C1289 1.398 . S
C1290 C1291 1.391 . S
C1291 H1279 0.950 . S
C1291 C1287 1.393 . S
C1291 C1290 1.391 . S
H1292 C1300 0.950 . S
H1293 C1305 0.950 . S
H1294 C1302 0.950 . S
H1295 C1304 0.950 . S
H1296 C1306 0.950 . S
H1297 C1308 0.950 . S
H1298 C1310 0.950 . S
H1299 C1311 0.950 . S
C1300 H1292 0.950 . S
C1300 C1301 1.386 . S
C1300 C1302 1.391 . S
C1301 C1300 1.386 . S
C1301 C1305 1.393 . S
C1302 H1294 0.950 . S
C1302 C1300 1.391 . S
C1302 C1303 1.400 . S
C1303 C1302 1.400 . S
C1303 C1304 1.398 . S
C1303 C1309 1.491 . S
C1304 H1295 0.950 . S
C1304 C1303 1.398 . S
C1304 C1305 1.391 . S
C1305 H1293 0.950 . S
C1305 C1301 1.393 . S
C1305 C1304 1.391 . S
C1306 H1296 0.950 . S
C1306 C1307 1.386 . S
C1306 C1308 1.391 . S
C1307 C1306 1.386 . S
C1307 C1311 1.393 . S
C1308 H1297 0.950 . S
C1308 C1306 1.391 . S
C1308 C1309 1.400 . S
C1309 C1303 1.491 . S
C1309 C1308 1.400 . S
C1309 C1310 1.398 . S
C1310 H1298 0.950 . S
C1310 C1309 1.398 . S
C1310 C1311 1.391 . S
C1311 H1299 0.950 . S
C1311 C1307 1.393 . S
C1311 C1310 1.391 . S
H1312 C1320 0.950 . S
H1313 C1325 0.950 . S
H1314 C1322 0.950 . S
H1315 C1324 0.950 . S
H1316 C1326 0.950 . S
H1317 C1328 0.950 . S
H1318 C1330 0.950 . S
H1319 C1331 0.950 . S
C1320 H1312 0.950 . S
C1320 C1321 1.386 . S
C1320 C1322 1.391 . S
C1321 C1320 1.386 . S
C1321 C1325 1.393 . S
C1322 H1314 0.950 . S
C1322 C1320 1.391 . S
C1322 C1323 1.400 . S
C1323 C1322 1.400 . S
C1323 C1324 1.398 . S
C1323 C1329 1.491 . S
C1324 H1315 0.950 . S
C1324 C1323 1.398 . S
C1324 C1325 1.391 . S
C1325 H1313 0.950 . S
C1325 C1321 1.393 . S
C1325 C1324 1.391 . S
C1326 H1316 0.950 . S
C1326 C1327 1.386 . S
C1326 C1328 1.391 . S
C1327 C1326 1.386 . S
C1327 C1331 1.393 . S
C1328 H1317 0.950 . S
C1328 C1326 1.391 . S
C1328 C1329 1.400 . S
C1329 C1323 1.491 . S
C1329 C1328 1.400 . S
C1329 C1330 1.398 . S
C1330 H1318 0.950 . S
C1330 C1329 1.398 . S
C1330 C1331 1.391 . S
C1331 H1319 0.950 . S
C1331 C1327 1.393 . S
C1331 C1330 1.391 . S
H1332 C1340 0.950 . S
H1333 C1345 0.950 . S
H1334 C1342 0.950 . S
H1335 C1344 0.950 . S
H1336 C1346 0.950 . S
H1337 C1348 0.950 . S
H1338 C1350 0.950 . S
H1339 C1351 0.950 . S
C1340 H1332 0.950 . S
C1340 C1341 1.386 . S
C1340 C1342 1.391 . S
C1341 C1340 1.386 . S
C1341 C1345 1.393 . S
C1342 H1334 0.950 . S
C1342 C1340 1.391 . S
C1342 C1343 1.400 . S
C1343 C1342 1.400 . S
C1343 C1344 1.398 . S
C1343 C1349 1.491 . S
C1344 H1335 0.950 . S
C1344 C1343 1.398 . S
C1344 C1345 1.391 . S
C1345 H1333 0.950 . S
C1345 C1341 1.393 . S
C1345 C1344 1.391 . S
C1346 H1336 0.950 . S
C1346 C1347 1.386 . S
C1346 C1348 1.391 . S
C1347 C1346 1.386 . S
C1347 C1351 1.393 . S
C1348 H1337 0.950 . S
C1348 C1346 1.391 . S
C1348 C1349 1.400 . S
C1349 C1343 1.491 . S
C1349 C1348 1.400 . S
C1349 C1350 1.398 . S
C1350 H1338 0.950 . S
C1350 C1349 1.398 . S
C1350 C1351 1.391 . S
C1351 H1339 0.950 . S
C1351 C1347 1.393 . S
C1351 C1350 1.391 . S
H1352 C1360 0.950 . S
H1353 C1365 0.950 . S
H1354 C1362 0.950 . S
H1355 C1364 0.950 . S
H1356 C1366 0.950 . S
H1357 C1368 0.950 . S
H1358 C1370 0.950 . S
H1359 C1371 0.950 . S
C1360 H1352 0.950 . S
C1360 C1361 1.386 . S
C1360 C1362 1.391 . S
C1361 C1360 1.386 . S
C1361 C1365 1.393 . S
C1362 H1354 0.950 . S
C1362 C1360 1.391 . S
C1362 C1363 1.400 . S
C1363 C1362 1.400 . S
C1363 C1364 1.398 . S
C1363 C1369 1.491 . S
C1364 H1355 0.950 . S
C1364 C1363 1.398 . S
C1364 C1365 1.391 . S
C1365 H1353 0.950 . S
C1365 C1361 1.393 . S
C1365 C1364 1.391 . S
C1366 H1356 0.950 . S
C1366 C1367 1.386 . S
C1366 C1368 1.391 . S
C1367 C1366 1.386 . S
C1367 C1371 1.393 . S
C1368 H1357 0.950 . S
C1368 C1366 1.391 . S
C1368 C1369 1.400 . S
C1369 C1363 1.491 . S
C1369 C1368 1.400 . S
C1369 C1370 1.398 . S
C1370 H1358 0.950 . S
C1370 C1369 1.398 . S
C1370 C1371 1.391 . S
C1371 H1359 0.950 . S
C1371 C1367 1.393 . S
C1371 C1370 1.391 . S
H1372 C1380 0.950 . S
H1373 C1385 0.950 . S
H1374 C1382 0.950 . S
H1375 C1384 0.950 . S
H1376 C1386 0.950 . S
H1377 C1388 0.950 . S
H1378 C1390 0.950 . S
H1379 C1391 0.950 . S
C1380 H1372 0.950 . S
C1380 C1381 1.386 . S
C1380 C1382 1.391 . S
C1381 C1380 1.386 . S
C1381 C1385 1.393 . S
C1382 H1374 0.950 . S
C1382 C1380 1.391 . S
C1382 C1383 1.400 . S
C1383 C1382 1.400 . S
C1383 C1384 1.398 . S
C1383 C1389 1.491 . S
C1384 H1375 0.950 . S
C1384 C1383 1.398 . S
C1384 C1385 1.391 . S
C1385 H1373 0.950 . S
C1385 C1381 1.393 . S
C1385 C1384 1.391 . S
C1386 H1376 0.950 . S
C1386 C1387 1.386 . S
C1386 C1388 1.391 . S
C1387 C1386 1.386 . S
C1387 C1391 1.393 . S
C1388 H1377 0.950 . S
C1388 C1386 1.391 . S
C1388 C1389 1.400 . S
C1389 C1383 1.491 . S
C1389 C1388 1.400 . S
C1389 C1390 1.398 . S
C1390 H1378 0.950 . S
C1390 C1389 1.398 . S
C1390 C1391 1.391 . S
C1391 H1379 0.950 . S
C1391 C1387 1.393 . S
C1391 C1390 1.391 . S
H1392 C1400 0.950 . S
H1393 C1405 0.950 . S
H1394 C1402 0.950 . S
H1395 C1404 0.950 . S
H1396 C1406 0.950 . S
H1397 C1408 0.950 . S
H1398 C1410 0.950 . S
H1399 C1411 0.950 . S
C1400 H1392 0.950 . S
C1400 C1401 1.386 . S
C1400 C1402 1.391 . S
C1401 C1400 1.386 . S
C1401 C1405 1.393 . S
C1402 H1394 0.950 . S
C1402 C1400 1.391 . S
C1402 C1403 1.400 . S
C1403 C1402 1.400 . S
C1403 C1404 1.398 . S
C1403 C1409 1.491 . S
C1404 H1395 0.950 . S
C1404 C1403 1.398 . S
C1404 C1405 1.391 . S
C1405 H1393 0.950 . S
C1405 C1401 1.393 . S
C1405 C1404 1.391 . S
C1406 H1396 0.950 . S
C1406 C1407 1.386 . S
C1406 C1408 1.391 . S
C1407 C1406 1.386 . S
C1407 C1411 1.393 . S
C1408 H1397 0.950 . S
C1408 C1406 1.391 . S
C1408 C1409 1.400 . S
C1409 C1403 1.491 . S
C1409 C1408 1.400 . S
C1409 C1410 1.398 . S
C1410 H1398 0.950 . S
C1410 C1409 1.398 . S
C1410 C1411 1.391 . S
C1411 H1399 0.950 . S
C1411 C1407 1.393 . S
C1411 C1410 1.391 . S
H1412 C1420 0.950 . S
H1413 C1425 0.950 . S
H1414 C1422 0.950 . S
H1415 C1424 0.950 . S
H1416 C1426 0.950 . S
H1417 C1428 0.950 . S
H1418 C1430 0.950 . S
H1419 C1431 0.950 . S
C1420 H1412 0.950 . S
C1420 C1421 1.386 . S
C1420 C1422 1.391 . S
C1421 C1420 1.386 . S
C1421 C1425 1.393 . S
C1422 H1414 0.950 . S
C1422 C1420 1.391 . S
C1422 C1423 1.400 . S
C1423 C1422 1.400 . S
C1423 C1424 1.398 . S
C1423 C1429 1.491 . S
C1424 H1415 0.950 . S
C1424 C1423 1.398 . S
C1424 C1425 1.391 . S
C1425 H1413 0.950 . S
C1425 C1421 1.393 . S
C1425 C1424 1.391 . S
C1426 H1416 0.950 . S
C1426 C1427 1.386 . S
C1426 C1428 1.391 . S
C1427 C1426 1.386 . S
C1427 C1431 1.393 . S
C1428 H1417 0.950 . S
C1428 C1426 1.391 . S
C1428 C1429 1.400 . S
C1429 C1423 1.491 . S
C1429 C1428 1.400 . S
C1429 C1430 1.398 . S
C1430 H1418 0.950 . S
C1430 C1429 1.398 . S
C1430 C1431 1.391 . S
C1431 H1419 0.950 . S
C1431 C1427 1.393 . S
C1431 C1430 1.391 . S
H1432 C1440 0.950 . S
H1433 C1445 0.950 . S
H1434 C1442 0.950 . S
H1435 C1444 0.950 . S
H1436 C1446 0.950 . S
H1437 C1448 0.950 . S
H1438 C1450 0.950 . S
H1439 C1451 0.950 . S
C1440 H1432 0.950 . S
C1440 C1441 1.386 . S
C1440 C1442 1.391 . S
C1441 C1440 1.386 . S
C1441 C1445 1.393 . S
C1442 H1434 0.950 . S
C1442 C1440 1.391 . S
C1442 C1443 1.400 . S
C1443 C1442 1.400 . S
C1443 C1444 1.398 . S
C1443 C1449 1.491 . S
C1444 H1435 0.950 . S
C1444 C1443 1.398 . S
C1444 C1445 1.391 . S
C1445 H1433 0.950 . S
C1445 C1441 1.393 . S
C1445 C1444 1.391 . S
C1446 H1436 0.950 . S
C1446 C1447 1.386 . S
C1446 C1448 1.391 . S
C1447 C1446 1.386 . S
C1447 C1451 1.393 . S
C1448 H1437 0.950 . S
C1448 C1446 1.391 . S
C1448 C1449 1.400 . S
C1449 C1443 1.491 . S
C1449 C1448 1.400 . S
C1449 C1450 1.398 . S
C1450 H1438 0.950 . S
C1450 C1449 1.398 . S
C1450 C1451 1.391 . S
C1451 H1439 0.950 . S
C1451 C1447 1.393 . S
C1451 C1450 1.391 . S
H1452 C1460 0.950 . S
H1453 C1465 0.950 . S
H1454 C1462 0.950 . S
H1455 C1464 0.950 . S
H1456 C1466 0.950 . S
H1457 C1468 0.950 . S
H1458 C1470 0.950 . S
H1459 C1471 0.950 . S
C1460 H1452 0.950 . S
C1460 C1461 1.386 . S
C1460 C1462 1.391 . S
C1461 C1460 1.386 . S
C1461 C1465 1.393 . S
C1462 H1454 0.950 . S
C1462 C1460 1.391 . S
C1462 C1463 1.400 . S
C1463 C1462 1.400 . S
C1463 C1464 1.398 . S
C1463 C1469 1.491 . S
C1464 H1455 0.950 . S
C1464 C1463 1.398 . S
C1464 C1465 1.391 . S
C1465 H1453 0.950 . S
C1465 C1461 1.393 . S
C1465 C1464 1.391 . S
C1466 H1456 0.950 . S
C1466 C1467 1.386 . S
C1466 C1468 1.391 . S
C1467 C1466 1.386 . S
C1467 C1471 1.393 . S
C1468 H1457 0.950 . S
C1468 C1466 1.391 . S
C1468 C1469 1.400 . S
C1469 C1463 1.491 . S
C1469 C1468 1.400 . S
C1469 C1470 1.398 . S
C1470 H1458 0.950 . S
C1470 C1469 1.398 . S
C1470 C1471 1.391 . S
C1471 H1459 0.950 . S
C1471 C1467 1.393 . S
C1471 C1470 1.391 . S
H1472 C1480 0.950 . S
H1473 C1485 0.950 . S
H1474 C1482 0.950 . S
H1475 C1484 0.950 . S
H1476 C1486 0.950 . S
H1477 C1488 0.950 . S
H1478 C1490 0.950 . S
H1479 C1491 0.950 . S
C1480 H1472 0.950 . S
C1480 C1481 1.386 . S
C1480 C1482 1.391 . S
C1481 C1480 1.386 . S
C1481 C1485 1.393 . S
C1482 H1474 0.950 . S
C1482 C1480 1.391 . S
C1482 C1483 1.400 . S
C1483 C1482 1.400 . S
C1483 C1484 1.398 . S
C1483 C1489 1.491 . S
C1484 H1475 0.950 . S
C1484 C1483 1.398 . S
C1484 C1485 1.391 . S
C1485 H1473 0.950 . S
C1485 C1481 1.393 . S
C1485 C1484 1.391 . S
C1486 H1476 0.950 . S
C1486 C1487 1.386 . S
C1486 C1488 1.391 . S
C1487 C1486 1.386 . S
C1487 C1491 1.393 . S
C1488 H1477 0.950 . S
C1488 C1486 1.391 . S
C1488 C1489 1.400 . S
C1489 C1483 1.491 . S
C1489 C1488 1.400 . S
C1489 C1490 1.398 . S
C1490 H1478 0.950 . S
C1490 C1489 1.398 . S
C1490 C1491 1.391 . S
C1491 H1479 0.950 . S
C1491 C1487 1.393 . S
C1491 C1490 1.391 . S
H1492 C1500 0.950 . S
H1493 C1505 0.950 . S
H1494 C1502 0.950 . S
H1495 C1504 0.950 . S
H1496 C1506 0.950 . S
H1497 C1508 0.950 . S
H1498 C1510 0.950 . S
H1499 C1511 0.950 . S
C1500 H1492 0.950 . S
C1500 C1501 1.386 . S
C1500 C1502 1.391 . S
C1501 C1500 1.386 . S
C1501 C1505 1.393 . S
C1502 H1494 0.950 . S
C1502 C1500 1.391 . S
C1502 C1503 1.400 . S
C1503 C1502 1.400 . S
C1503 C1504 1.398 . S
C1503 C1509 1.491 . S
C1504 H1495 0.950 . S
C1504 C1503 1.398 . S
C1504 C1505 1.391 . S
C1505 H1493 0.950 . S
C1505 C1501 1.393 . S
C1505 C1504 1.391 . S
C1506 H1496 0.950 . S
C1506 C1507 1.386 . S
C1506 C1508 1.391 . S
C1507 C1506 1.386 . S
C1507 C1511 1.393 . S
C1508 H1497 0.950 . S
C1508 C1506 1.391 . S
C1508 C1509 1.400 . S
C1509 C1503 1.491 . S
C1509 C1508 1.400 . S
C1509 C1510 1.398 . S
C1510 H1498 0.950 . S
C1510 C1509 1.398 . S
C1510 C1511 1.391 . S
C1511 H1499 0.950 . S
C1511 C1507 1.393 . S
C1511 C1510 1.391 . S
H1512 C1520 0.950 . S
H1513 C1525 0.950 . S
H1514 C1522 0.950 . S
H1515 C1524 0.950 . S
H1516 C1526 0.950 . S
H1517 C1528 0.950 . S
H1518 C1530 0.950 . S
H1519 C1531 0.950 . S
C1520 H1512 0.950 . S
C1520 C1521 1.386 . S
C1520 C1522 1.391 . S
C1521 C1520 1.386 . S
C1521 C1525 1.393 . S
C1522 H1514 0.950 . S
C1522 C1520 1.391 . S
C1522 C1523 1.400 . S
C1523 C1522 1.400 . S
C1523 C1524 1.398 . S
C1523 C1529 1.491 . S
C1524 H1515 0.950 . S
C1524 C1523 1.398 . S
C1524 C1525 1.391 . S
C1525 H1513 0.950 . S
C1525 C1521 1.393 . S
C1525 C1524 1.391 . S
C1526 H1516 0.950 . S
C1526 C1527 1.386 . S
C1526 C1528 1.391 . S
C1527 C1526 1.386 . S
C1527 C1531 1.393 . S
C1528 H1517 0.950 . S
C1528 C1526 1.391 . S
C1528 C1529 1.400 . S
C1529 C1523 1.491 . S
C1529 C1528 1.400 . S
C1529 C1530 1.398 . S
C1530 H1518 0.950 . S
C1530 C1529 1.398 . S
C1530 C1531 1.391 . S
C1531 H1519 0.950 . S
C1531 C1527 1.393 . S
C1531 C1530 1.391 . S
H1532 C1540 0.950 . S
H1533 C1545 0.950 . S
H1534 C1542 0.950 . S
H1535 C1544 0.950 . S
H1536 C1546 0.950 . S
H1537 C1548 0.950 . S
H1538 C1550 0.950 . S
H1539 C1551 0.950 . S
C1540 H1532 0.950 . S
C1540 C1541 1.386 . S
C1540 C1542 1.391 . S
C1541 C1540 1.386 . S
C1541 C1545 1.393 . S
C1542 H1534 0.950 . S
C1542 C1540 1.391 . S
C1542 C1543 1.400 . S
C1543 C1542 1.400 . S
C1543 C1544 1.398 . S
C1543 C1549 1.491 . S
C1544 H1535 0.950 . S
C1544 C1543 1.398 . S
C1544 C1545 1.391 . S
C1545 H1533 0.950 . S
C1545 C1541 1.393 . S
C1545 C1544 1.391 . S
C1546 H1536 0.950 . S
C1546 C1547 1.386 . S
C1546 C1548 1.391 . S
C1547 C1546 1.386 . S
C1547 C1551 1.393 . S
C1548 H1537 0.950 . S
C1548 C1546 1.391 . S
C1548 C1549 1.400 . S
C1549 C1543 1.491 . S
C1549 C1548 1.400 . S
C1549 C1550 1.398 . S
C1550 H1538 0.950 . S
C1550 C1549 1.398 . S
C1550 C1551 1.391 . S
C1551 H1539 0.950 . S
C1551 C1547 1.393 . S
C1551 C1550 1.391 . S
H1552 C1560 0.950 . S
H1553 C1565 0.950 . S
H1554 C1562 0.950 . S
H1555 C1564 0.950 . S
H1556 C1566 0.950 . S
H1557 C1568 0.950 . S
H1558 C1570 0.950 . S
H1559 C1571 0.950 . S
C1560 H1552 0.950 . S
C1560 C1561 1.386 . S
C1560 C1562 1.391 . S
C1561 C1560 1.386 . S
C1561 C1565 1.393 . S
C1562 H1554 0.950 . S
C1562 C1560 1.391 . S
C1562 C1563 1.400 . S
C1563 C1562 1.400 . S
C1563 C1564 1.398 . S
C1563 C1569 1.491 . S
C1564 H1555 0.950 . S
C1564 C1563 1.398 . S
C1564 C1565 1.391 . S
C1565 H1553 0.950 . S
C1565 C1561 1.393 . S
C1565 C1564 1.391 . S
C1566 H1556 0.950 . S
C1566 C1567 1.386 . S
C1566 C1568 1.391 . S
C1567 C1566 1.386 . S
C1567 C1571 1.393 . S
C1568 H1557 0.950 . S
C1568 C1566 1.391 . S
C1568 C1569 1.400 . S
C1569 C1563 1.491 . S
C1569 C1568 1.400 . S
C1569 C1570 1.398 . S
C1570 H1558 0.950 . S
C1570 C1569 1.398 . S
C1570 C1571 1.391 . S
C1571 H1559 0.950 . S
C1571 C1567 1.393 . S
C1571 C1570 1.391 . S
H1572 C1580 0.950 . S
H1573 C1585 0.950 . S
H1574 C1582 0.950 . S
H1575 C1584 0.950 . S
H1576 C1586 0.950 . S
H1577 C1588 0.950 . S
H1578 C1590 0.950 . S
H1579 C1591 0.950 . S
C1580 H1572 0.950 . S
C1580 C1581 1.386 . S
C1580 C1582 1.391 . S
C1581 C1580 1.386 . S
C1581 C1585 1.393 . S
C1582 H1574 0.950 . S
C1582 C1580 1.391 . S
C1582 C1583 1.400 . S
C1583 C1582 1.400 . S
C1583 C1584 1.398 . S
C1583 C1589 1.491 . S
C1584 H1575 0.950 . S
C1584 C1583 1.398 . S
C1584 C1585 1.391 . S
C1585 H1573 0.950 . S
C1585 C1581 1.393 . S
C1585 C1584 1.391 . S
C1586 H1576 0.950 . S
C1586 C1587 1.386 . S
C1586 C1588 1.391 . S
C1587 C1586 1.386 . S
C1587 C1591 1.393 . S
C1588 H1577 0.950 . S
C1588 C1586 1.391 . S
C1588 C1589 1.400 . S
C1589 C1583 1.491 . S
C1589 C1588 1.400 . S
C1589 C1590 1.398 . S
C1590 H1578 0.950 . S
C1590 C1589 1.398 . S
C1590 C1591 1.391 . S
C1591 H1579 0.950 . S
C1591 C1587 1.393 . S
C1591 C1590 1.391 . S
H1592 C1600 0.950 . S
H1593 C1605 0.950 . S
H1594 C1602 0.950 . S
H1595 C1604 0.950 . S
H1596 C1606 0.950 . S
H1597 C1608 0.950 . S
H1598 C1610 0.950 . S
H1599 C1611 0.950 . S
C1600 H1592 0.950 . S
C1600 C1601 1.386 . S
C1600 C1602 1.391 . S
C1601 C1600 1.386 . S
C1601 C1605 1.393 . S
C1602 H1594 0.950 . S
C1602 C1600 1.391 . S
C1602 C1603 1.400 . S
C1603 C1602 1.400 . S
C1603 C1604 1.398 . S
C1603 C1609 1.491 . S
C1604 H1595 0.950 . S
C1604 C1603 1.398 . S
C1604 C1605 1.391 . S
C1605 H1593 0.950 . S
C1605 C1601 1.393 . S
C1605 C1604 1.391 . S
C1606 H1596 0.950 . S
C1606 C1607 1.386 . S
C1606 C1608 1.391 . S
C1607 C1606 1.386 . S
C1607 C1611 1.393 . S
C1608 H1597 0.950 . S
C1608 C1606 1.391 . S
C1608 C1609 1.400 . S
C1609 C1603 1.491 . S
C1609 C1608 1.400 . S
C1609 C1610 1.398 . S
C1610 H1598 0.950 . S
C1610 C1609 1.398 . S
C1610 C1611 1.391 . S
C1611 H1599 0.950 . S
C1611 C1607 1.393 . S
C1611 C1610 1.391 . S
H1612 C1620 0.950 . S
H1613 C1625 0.950 . S
H1614 C1622 0.950 . S
H1615 C1624 0.950 . S
H1616 C1626 0.950 . S
H1617 C1628 0.950 . S
H1618 C1630 0.950 . S
H1619 C1631 0.950 . S
C1620 H1612 0.950 . S
C1620 C1621 1.386 . S
C1620 C1622 1.391 . S
C1621 C1620 1.386 . S
C1621 C1625 1.393 . S
C1622 H1614 0.950 . S
C1622 C1620 1.391 . S
C1622 C1623 1.400 . S
C1623 C1622 1.400 . S
C1623 C1624 1.398 . S
C1623 C1629 1.491 . S
C1624 H1615 0.950 . S
C1624 C1623 1.398 . S
C1624 C1625 1.391 . S
C1625 H1613 0.950 . S
C1625 C1621 1.393 . S
C1625 C1624 1.391 . S
C1626 H1616 0.950 . S
C1626 C1627 1.386 . S
C1626 C1628 1.391 . S
C1627 C1626 1.386 . S
C1627 C1631 1.393 . S
C1628 H1617 0.950 . S
C1628 C1626 1.391 . S
C1628 C1629 1.400 . S
C1629 C1623 1.491 . S
C1629 C1628 1.400 . S
C1629 C1630 1.398 . S
C1630 H1618 0.950 . S
C1630 C1629 1.398 . S
C1630 C1631 1.391 . S
C1631 H1619 0.950 . S
C1631 C1627 1.393 . S
C1631 C1630 1.391 . S
H1632 C1640 0.950 . S
H1633 C1645 0.950 . S
H1634 C1642 0.950 . S
H1635 C1644 0.950 . S
H1636 C1646 0.950 . S
H1637 C1648 0.950 . S
H1638 C1650 0.950 . S
H1639 C1651 0.950 . S
C1640 H1632 0.950 . S
C1640 C1641 1.386 . S
C1640 C1642 1.391 . S
C1641 C1640 1.386 . S
C1641 C1645 1.393 . S
C1642 H1634 0.950 . S
C1642 C1640 1.391 . S
C1642 C1643 1.400 . S
C1643 C1642 1.400 . S
C1643 C1644 1.398 . S
C1643 C1649 1.491 . S
C1644 H1635 0.950 . S
C1644 C1643 1.398 . S
C1644 C1645 1.391 . S
C1645 H1633 0.950 . S
C1645 C1641 1.393 . S
C1645 C1644 1.391 . S
C1646 H1636 0.950 . S
C1646 C1647 1.386 . S
C1646 C1648 1.391 . S
C1647 C1646 1.386 . S
C1647 C1651 1.393 . S
C1648 H1637 0.950 . S
C1648 C1646 1.391 . S
C1648 C1649 1.400 . S
C1649 C1643 1.491 . S
C1649 C1648 1.400 . S
C1649 C1650 1.398 . S
C1650 H1638 0.950 . S
C1650 C1649 1.398 . S
C1650 C1651 1.391 . S
C1651 H1639 0.950 . S
C1651 C1647 1.393 . S
C1651 C1650 1.391 . S
H1652 C1660 0.950 . S
H1653 C1665 0.950 . S
H1654 C1662 0.950 . S
H1655 C1664 0.950 . S
H1656 C1666 0.950 . S
H1657 C1668 0.950 . S
H1658 C1670 0.950 . S
H1659 C1671 0.950 . S
C1660 H1652 0.950 . S
C1660 C1661 1.386 . S
C1660 C1662 1.391 . S
C1661 C1660 1.386 . S
C1661 C1665 1.393 . S
C1662 H1654 0.950 . S
C1662 C1660 1.391 . S
C1662 C1663 1.400 . S
C1663 C1662 1.400 . S
C1663 C1664 1.398 . S
C1663 C1669 1.491 . S
C1664 H1655 0.950 . S
C1664 C1663 1.398 . S
C1664 C1665 1.391 . S
C1665 H1653 0.950 . S
C1665 C1661 1.393 . S
C1665 C1664 1.391 . S
C1666 H1656 0.950 . S
C1666 C1667 1.386 . S
C1666 C1668 1.391 . S
C1667 C1666 1.386 . S
C1667 C1671 1.393 . S
C1668 H1657 0.950 . S
C1668 C1666 1.391 . S
C1668 C1669 1.400 . S
C1669 C1663 1.491 . S
C1669 C1668 1.400 . S
C1669 C1670 1.398 . S
C1670 H1658 0.950 . S
C1670 C1669 1.398 . S
C1670 C1671 1.391 . S
C1671 H1659 0.950 . S
C1671 C1667 1.393 . S
C1671 C1670 1.391 . S
H1672 C1680 0.950 . S
H1673 C1685 0.950 . S
H1674 C1682 0.950 . S
H1675 C1684 0.950 . S
H1676 C1686 0.950 . S
H1677 C1688 0.950 . S
H1678 C1690 0.950 . S
H1679 C1691 0.950 . S
C1680 H1672 0.950 . S
C1680 C1681 1.386 . S
C1680 C1682 1.391 . S
C1681 C1680 1.386 . S
C1681 C1685 1.393 . S
C1682 H1674 0.950 . S
C1682 C1680 1.391 . S
C1682 C1683 1.400 . S
C1683 C1682 1.400 . S
C1683 C1684 1.398 . S
C1683 C1689 1.491 . S
C1684 H1675 0.950 . S
C1684 C1683 1.398 . S
C1684 C1685 1.391 . S
C1685 H1673 0.950 . S
C1685 C1681 1.393 . S
C1685 C1684 1.391 . S
C1686 H1676 0.950 . S
C1686 C1687 1.386 . S
C1686 C1688 1.391 . S
C1687 C1686 1.386 . S
C1687 C1691 1.393 . S
C1688 H1677 0.950 . S
C1688 C1686 1.391 . S
C1688 C1689 1.400 . S
C1689 C1683 1.491 . S
C1689 C1688 1.400 . S
C1689 C1690 1.398 . S
C1690 H1678 0.950 . S
C1690 C1689 1.398 . S
C1690 C1691 1.391 . S
C1691 H1679 0.950 . S
C1691 C1687 1.393 . S
C1691 C1690 1.391 . S
H1692 C1700 0.950 . S
H1693 C1705 0.950 . S
H1694 C1702 0.950 . S
H1695 C1704 0.950 . S
H1696 C1706 0.950 . S
H1697 C1708 0.950 . S
H1698 C1710 0.950 . S
H1699 C1711 0.950 . S
C1700 H1692 0.950 . S
C1700 C1701 1.386 . S
C1700 C1702 1.391 . S
C1701 C1700 1.386 . S
C1701 C1705 1.393 . S
C1702 H1694 0.950 . S
C1702 C1700 1.391 . S
C1702 C1703 1.400 . S
C1703 C1702 1.400 . S
C1703 C1704 1.398 . S
C1703 C1709 1.491 . S
C1704 H1695 0.950 . S
C1704 C1703 1.398 . S
C1704 C1705 1.391 . S
C1705 H1693 0.950 . S
C1705 C1701 1.393 . S
C1705 C1704 1.391 . S
C1706 H1696 0.950 . S
C1706 C1707 1.386 . S
C1706 C1708 1.391 . S
C1707 C1706 1.386 . S
C1707 C1711 1.393 . S
C1708 H1697 0.950 . S
C1708 C1706 1.391 . S
C1708 C1709 1.400 . S
C1709 C1703 1.491 . S
C1709 C1708 1.400 . S
C1709 C1710 1.398 . S
C1710 H1698 0.950 . S
C1710 C1709 1.398 . S
C1710 C1711 1.391 . S
C1711 H1699 0.950 . S
C1711 C1707 1.393 . S
C1711 C1710 1.391 . S
H1712 C1720 0.950 . S
H1713 C1725 0.950 . S
H1714 C1722 0.950 . S
H1715 C1724 0.950 . S
H1716 C1726 0.950 . S
H1717 C1728 0.950 . S
H1718 C1730 0.950 . S
H1719 C1731 0.950 . S
C1720 H1712 0.950 . S
C1720 C1721 1.386 . S
C1720 C1722 1.391 . S
C1721 C1720 1.386 . S
C1721 C1725 1.393 . S
C1722 H1714 0.950 . S
C1722 C1720 1.391 . S
C1722 C1723 1.400 . S
C1723 C1722 1.400 . S
C1723 C1724 1.398 . S
C1723 C1729 1.491 . S
C1724 H1715 0.950 . S
C1724 C1723 1.398 . S
C1724 C1725 1.391 . S
C1725 H1713 0.950 . S
C1725 C1721 1.393 . S
C1725 C1724 1.391 . S
C1726 H1716 0.950 . S
C1726 C1727 1.386 . S
C1726 C1728 1.391 . S
C1727 C1726 1.386 . S
C1727 C1731 1.393 . S
C1728 H1717 0.950 . S
C1728 C1726 1.391 . S
C1728 C1729 1.400 . S
C1729 C1723 1.491 . S
C1729 C1728 1.400 . S
C1729 C1730 1.398 . S
C1730 H1718 0.950 . S
C1730 C1729 1.398 . S
C1730 C1731 1.391 . S
C1731 H1719 0.950 . S
C1731 C1727 1.393 . S
C1731 C1730 1.391 . S
H1732 C1740 0.950 . S
H1733 C1745 0.950 . S
H1734 C1742 0.950 . S
H1735 C1744 0.950 . S
H1736 C1746 0.950 . S
H1737 C1748 0.950 . S
H1738 C1750 0.950 . S
H1739 C1751 0.950 . S
C1740 H1732 0.950 . S
C1740 C1741 1.386 . S
C1740 C1742 1.391 . S
C1741 C1740 1.386 . S
C1741 C1745 1.393 . S
C1742 H1734 0.950 . S
C1742 C1740 1.391 . S
C1742 C1743 1.400 . S
C1743 C1742 1.400 . S
C1743 C1744 1.398 . S
C1743 C1749 1.491 . S
C1744 H1735 0.950 . S
C1744 C1743 1.398 . S
C1744 C1745 1.391 . S
C1745 H1733 0.950 . S
C1745 C1741 1.393 . S
C1745 C1744 1.391 . S
C1746 H1736 0.950 . S
C1746 C1747 1.386 . S
C1746 C1748 1.391 . S
C1747 C1746 1.386 . S
C1747 C1751 1.393 . S
C1748 H1737 0.950 . S
C1748 C1746 1.391 . S
C1748 C1749 1.400 . S
C1749 C1743 1.491 . S
C1749 C1748 1.400 . S
C1749 C1750 1.398 . S
C1750 H1738 0.950 . S
C1750 C1749 1.398 . S
C1750 C1751 1.391 . S
C1751 H1739 0.950 . S
C1751 C1747 1.393 . S
C1751 C1750 1.391 . S
H1752 C1760 0.950 . S
H1753 C1765 0.950 . S
H1754 C1762 0.950 . S
H1755 C1764 0.950 . S
H1756 C1766 0.950 . S
H1757 C1768 0.950 . S
H1758 C1770 0.950 . S
H1759 C1771 0.950 . S
C1760 H1752 0.950 . S
C1760 C1761 1.386 . S
C1760 C1762 1.391 . S
C1761 C1760 1.386 . S
C1761 C1765 1.393 . S
C1762 H1754 0.950 . S
C1762 C1760 1.391 . S
C1762 C1763 1.400 . S
C1763 C1762 1.400 . S
C1763 C1764 1.398 . S
C1763 C1769 1.491 . S
C1764 H1755 0.950 . S
C1764 C1763 1.398 . S
C1764 C1765 1.391 . S
C1765 H1753 0.950 . S
C1765 C1761 1.393 . S
C1765 C1764 1.391 . S
C1766 H1756 0.950 . S
C1766 C1767 1.386 . S
C1766 C1768 1.391 . S
C1767 C1766 1.386 . S
C1767 C1771 1.393 . S
C1768 H1757 0.950 . S
C1768 C1766 1.391 . S
C1768 C1769 1.400 . S
C1769 C1763 1.491 . S
C1769 C1768 1.400 . S
C1769 C1770 1.398 . S
C1770 H1758 0.950 . S
C1770 C1769 1.398 . S
C1770 C1771 1.391 . S
C1771 H1759 0.950 . S
C1771 C1767 1.393 . S
C1771 C1770 1.391 . S
H1772 C1780 0.950 . S
H1773 C1785 0.950 . S
H1774 C1782 0.950 . S
H1775 C1784 0.950 . S
H1776 C1786 0.950 . S
H1777 C1788 0.950 . S
H1778 C1790 0.950 . S
H1779 C1791 0.950 . S
C1780 H1772 0.950 . S
C1780 C1781 1.386 . S
C1780 C1782 1.391 . S
C1781 C1780 1.386 . S
C1781 C1785 1.393 . S
C1782 H1774 0.950 . S
C1782 C1780 1.391 . S
C1782 C1783 1.400 . S
C1783 C1782 1.400 . S
C1783 C1784 1.398 . S
C1783 C1789 1.491 . S
C1784 H1775 0.950 . S
C1784 C1783 1.398 . S
C1784 C1785 1.391 . S
C1785 H1773 0.950 . S
C1785 C1781 1.393 . S
C1785 C1784 1.391 . S
C1786 H1776 0.950 . S
C1786 C1787 1.386 . S
C1786 C1788 1.391 . S
C1787 C1786 1.386 . S
C1787 C1791 1.393 . S
C1788 H1777 0.950 . S
C1788 C1786 1.391 . S
C1788 C1789 1.400 . S
C1789 C1783 1.491 . S
C1789 C1788 1.400 . S
C1789 C1790 1.398 . S
C1790 H1778 0.950 . S
C1790 C1789 1.398 . S
C1790 C1791 1.391 . S
C1791 H1779 0.950 . S
C1791 C1787 1.393 . S
C1791 C1790 1.391 . S
H1792 C1800 0.950 . S
H1793 C1805 0.950 . S
H1794 C1802 0.950 . S
H1795 C1804 0.950 . S
H1796 C1806 0.950 . S
H1797 C1808 0.950 . S
H1798 C1810 0.950 . S
H1799 C1811 0.950 . S
C1800 H1792 0.950 . S
C1800 C1801 1.386 . S
C1800 C1802 1.391 . S
C1801 C1800 1.386 . S
C1801 C1805 1.393 . S
C1802 H1794 0.950 . S
C1802 C1800 1.391 . S
C1802 C1803 1.400 . S
C1803 C1802 1.400 . S
C1803 C1804 1.398 . S
C1803 C1809 1.491 . S
C1804 H1795 0.950 . S
C1804 C1803 1.398 . S
C1804 C1805 1.391 . S
C1805 H1793 0.950 . S
C1805 C1801 1.393 . S
C1805 C1804 1.391 . S
C1806 H1796 0.950 . S
C1806 C1807 1.386 . S
C1806 C1808 1.391 . S
C1807 C1806 1.386 . S
C1807 C1811 1.393 . S
C1808 H1797 0.950 . S
C1808 C1806 1.391 . S
C1808 C1809 1.400 . S
C1809 C1803 1.491 . S
C1809 C1808 1.400 . S
C1809 C1810 1.398 . S
C1810 H1798 0.950 . S
C1810 C1809 1.398 . S
C1810 C1811 1.391 . S
C1811 H1799 0.950 . S
C1811 C1807 1.393 . S
C1811 C1810 1.391 . S
H1812 C1820 0.950 . S
H1813 C1825 0.950 . S
H1814 C1822 0.950 . S
H1815 C1824 0.950 . S
H1816 C1826 0.950 . S
H1817 C1828 0.950 . S
H1818 C1830 0.950 . S
H1819 C1831 0.950 . S
C1820 H1812 0.950 . S
C1820 C1821 1.386 . S
C1820 C1822 1.391 . S
C1821 C1820 1.386 . S
C1821 C1825 1.393 . S
C1822 H1814 0.950 . S
C1822 C1820 1.391 . S
C1822 C1823 1.400 . S
C1823 C1822 1.400 . S
C1823 C1824 1.398 . S
C1823 C1829 1.491 . S
C1824 H1815 0.950 . S
C1824 C1823 1.398 . S
C1824 C1825 1.391 . S
C1825 H1813 0.950 . S
C1825 C1821 1.393 . S
C1825 C1824 1.391 . S
C1826 H1816 0.950 . S
C1826 C1827 1.386 . S
C1826 C1828 1.391 . S
C1827 C1826 1.386 . S
C1827 C1831 1.393 . S
C1828 H1817 0.950 . S
C1828 C1826 1.391 . S
C1828 C1829 1.400 . S
C1829 C1823 1.491 . S
C1829 C1828 1.400 . S
C1829 C1830 1.398 . S
C1830 H1818 0.950 . S
C1830 C1829 1.398 . S
C1830 C1831 1.391 . S
C1831 H1819 0.950 . S
C1831 C1827 1.393 . S
C1831 C1830 1.391 . S
H1832 C1840 0.950 . S
H1833 C1845 0.950 . S
H1834 C1842 0.950 . S
H1835 C1844 0.950 . S
H1836 C1846 0.950 . S
H1837 C1848 0.950 . S
H1838 C1850 0.950 . S
H1839 C1851 0.950 . S
C1840 H1832 0.950 . S
C1840 C1841 1.386 . S
C1840 C1842 1.391 . S
C1841 C1840 1.386 . S
C1841 C1845 1.393 . S
C1842 H1834 0.950 . S
C1842 C1840 1.391 . S
C1842 C1843 1.400 . S
C1843 C1842 1.400 . S
C1843 C1844 1.398 . S
C1843 C1849 1.491 . S
C1844 H1835 0.950 . S
C1844 C1843 1.398 . S
C1844 C1845 1.391 . S
C1845 H1833 0.950 . S
C1845 C1841 1.393 . S
C1845 C1844 1.391 . S
C1846 H1836 0.950 . S
C1846 C1847 1.386 . S
C1846 C1848 1.391 . S
C1847 C1846 1.386 . S
C1847 C1851 1.393 . S
C1848 H1837 0.950 . S
C1848 C1846 1.391 . S
C1848 C1849 1.400 . S
C1849 C1843 1.491 . S
C1849 C1848 1.400 . S
C1849 C1850 1.398 . S
C1850 H1838 0.950 . S
C1850 C1849 1.398 . S
C1850 C1851 1.391 . S
C1851 H1839 0.950 . S
C1851 C1847 1.393 . S
C1851 C1850 1.391 . S
H1852 C1860 0.950 . S
H1853 C1865 0.950 . S
H1854 C1862 0.950 . S
H1855 C1864 0.950 . S
H1856 C1866 0.950 . S
H1857 C1868 0.950 . S
H1858 C1870 0.950 . S
H1859 C1871 0.950 . S
C1860 H1852 0.950 . S
C1860 C1861 1.386 . S
C1860 C1862 1.391 . S
C1861 C1860 1.386 . S
C1861 C1865 1.393 . S
C1862 H1854 0.950 . S
C1862 C1860 1.391 . S
C1862 C1863 1.400 . S
C1863 C1862 1.400 . S
C1863 C1864 1.398 . S
C1863 C1869 1.491 . S
C1864 H1855 0.950 . S
C1864 C1863 1.398 . S
C1864 C1865 1.391 . S
C1865 H1853 0.950 . S
C1865 C1861 1.393 . S
C1865 C1864 1.391 . S
C1866 H1856 0.950 . S
C1866 C1867 1.386 . S
C1866 C1868 1.391 . S
C1867 C1866 1.386 . S
C1867 C1871 1.393 . S
C1868 H1857 0.950 . S
C1868 C1866 1.391 . S
C1868 C1869 1.400 . S
C1869 C1863 1.491 . S
C1869 C1868 1.400 . S
C1869 C1870 1.398 . S
C1870 H1858 0.950 . S
C1870 C1869 1.398 . S
C1870 C1871 1.391 . S
C1871 H1859 0.950 . S
C1871 C1867 1.393 . S
C1871 C1870 1.391 . S
H1872 C1880 0.950 . S
H1873 C1885 0.950 . S
H1874 C1882 0.950 . S
H1875 C1884 0.950 . S
H1876 C1886 0.950 . S
H1877 C1888 0.950 . S
H1878 C1890 0.950 . S
H1879 C1891 0.950 . S
C1880 H1872 0.950 . S
C1880 C1881 1.386 . S
C1880 C1882 1.391 . S
C1881 C1880 1.386 . S
C1881 C1885 1.393 . S
C1882 H1874 0.950 . S
C1882 C1880 1.391 . S
C1882 C1883 1.400 . S
C1883 C1882 1.400 . S
C1883 C1884 1.398 . S
C1883 C1889 1.491 . S
C1884 H1875 0.950 . S
C1884 C1883 1.398 . S
C1884 C1885 1.391 . S
C1885 H1873 0.950 . S
C1885 C1881 1.393 . S
C1885 C1884 1.391 . S
C1886 H1876 0.950 . S
C1886 C1887 1.386 . S
C1886 C1888 1.391 . S
C1887 C1886 1.386 . S
C1887 C1891 1.393 . S
C1888 H1877 0.950 . S
C1888 C1886 1.391 . S
C1888 C1889 1.400 . S
C1889 C1883 1.491 . S
C1889 C1888 1.400 . S
C1889 C1890 1.398 . S
C1890 H1878 0.950 . S
C1890 C1889 1.398 . S
C1890 C1891 1.391 . S
C1891 H1879 0.950 . S
C1891 C1887 1.393 . S
C1891 C1890 1.391 . S
H1892 C1900 0.950 . S
H1893 C1905 0.950 . S
H1894 C1902 0.950 . S
H1895 C1904 0.950 . S
H1896 C1906 0.950 . S
H1897 C1908 0.950 . S
H1898 C1910 0.950 . S
H1899 C1911 0.950 . S
C1900 H1892 0.950 . S
C1900 C1901 1.386 . S
C1900 C1902 1.391 . S
C1901 C1900 1.386 . S
C1901 C1905 1.393 . S
C1902 H1894 0.950 . S
C1902 C1900 1.391 . S
C1902 C1903 1.400 . S
C1903 C1902 1.400 . S
C1903 C1904 1.398 . S
C1903 C1909 1.491 . S
C1904 H1895 0.950 . S
C1904 C1903 1.398 . S
C1904 C1905 1.391 . S
C1905 H1893 0.950 . S
C1905 C1901 1.393 . S
C1905 C1904 1.391 . S
C1906 H1896 0.950 . S
C1906 C1907 1.386 . S
C1906 C1908 1.391 . S
C1907 C1906 1.386 . S
C1907 C1911 1.393 . S
C1908 H1897 0.950 . S
C1908 C1906 1.391 . S
C1908 C1909 1.400 . S
C1909 C1903 1.491 . S
C1909 C1908 1.400 . S
C1909 C1910 1.398 . S
C1910 H1898 0.950 . S
C1910 C1909 1.398 . S
C1910 C1911 1.391 . S
C1911 H1899 0.950 . S
C1911 C1907 1.393 . S
C1911 C1910 1.391 . S
H1912 C1920 0.950 . S
H1913 C1925 0.950 . S
H1914 C1922 0.950 . S
H1915 C1924 0.950 . S
H1916 C1926 0.950 . S
H1917 C1928 0.950 . S
H1918 C1930 0.950 . S
H1919 C1931 0.950 . S
C1920 H1912 0.950 . S
C1920 C1921 1.386 . S
C1920 C1922 1.391 . S
C1921 C1920 1.386 . S
C1921 C1925 1.393 . S
C1922 H1914 0.950 . S
C1922 C1920 1.391 . S
C1922 C1923 1.400 . S
C1923 C1922 1.400 . S
C1923 C1924 1.398 . S
C1923 C1929 1.491 . S
C1924 H1915 0.950 . S
C1924 C1923 1.398 . S
C1924 C1925 1.391 . S
C1925 H1913 0.950 . S
C1925 C1921 1.393 . S
C1925 C1924 1.391 . S
C1926 H1916 0.950 . S
C1926 C1927 1.386 . S
C1926 C1928 1.391 . S
C1927 C1926 1.386 . S
C1927 C1931 1.393 . S
C1928 H1917 0.950 . S
C1928 C1926 1.391 . S
C1928 C1929 1.400 . S
C1929 C1923 1.491 . S
C1929 C1928 1.400 . S
C1929 C1930 1.398 . S
C1930 H1918 0.950 . S
C1930 C1929 1.398 . S
C1930 C1931 1.391 . S
C1931 H1919 0.950 . S
C1931 C1927 1.393 . S
C1931 C1930 1.391 . S
H1932 C1940 0.950 . S
H1933 C1945 0.950 . S
H1934 C1942 0.950 . S
H1935 C1944 0.950 . S
H1936 C1946 0.950 . S
H1937 C1948 0.950 . S
H1938 C1950 0.950 . S
H1939 C1951 0.950 . S
C1940 H1932 0.950 . S
C1940 C1941 1.386 . S
C1940 C1942 1.391 . S
C1941 C1940 1.386 . S
C1941 C1945 1.393 . S
C1942 H1934 0.950 . S
C1942 C1940 1.391 . S
C1942 C1943 1.400 . S
C1943 C1942 1.400 . S
C1943 C1944 1.398 . S
C1943 C1949 1.491 . S
C1944 H1935 0.950 . S
C1944 C1943 1.398 . S
C1944 C1945 1.391 . S
C1945 H1933 0.950 . S
C1945 C1941 1.393 . S
C1945 C1944 1.391 . S
C1946 H1936 0.950 . S
C1946 C1947 1.386 . S
C1946 C1948 1.391 . S
C1947 C1946 1.386 . S
C1947 C1951 1.393 . S
C1948 H1937 0.950 . S
C1948 C1946 1.391 . S
C1948 C1949 1.400 . S
C1949 C1943 1.491 . S
C1949 C1948 1.400 . S
C1949 C1950 1.398 . S
C1950 H1938 0.950 . S
C1950 C1949 1.398 . S
C1950 C1951 1.391 . S
C1951 H1939 0.950 . S
C1951 C1947 1.393 . S
C1951 C1950 1.391 . S
H1952 C1960 0.950 . S
H1953 C1965 0.950 . S
H1954 C1962 0.950 . S
H1955 C1964 0.950 . S
H1956 C1966 0.950 . S
H1957 C1968 0.950 . S
H1958 C1970 0.950 . S
H1959 C1971 0.950 . S
C1960 H1952 0.950 . S
C1960 C1961 1.386 . S
C1960 C1962 1.391 . S
C1961 C1960 1.386 . S
C1961 C1965 1.393 . S
C1962 H1954 0.950 . S
C1962 C1960 1.391 . S
C1962 C1963 1.400 . S
C1963 C1962 1.400 . S
C1963 C1964 1.398 . S
C1963 C1969 1.491 . S
C1964 H1955 0.950 . S
C1964 C1963 1.398 . S
C1964 C1965 1.391 . S
C1965 H1953 0.950 . S
C1965 C1961 1.393 . S
C1965 C1964 1.391 . S
C1966 H1956 0.950 . S
C1966 C1967 1.386 . S
C1966 C1968 1.391 . S
C1967 C1966 1.386 . S
C1967 C1971 1.393 . S
C1968 H1957 0.950 . S
C1968 C1966 1.391 . S
C1968 C1969 1.400 . S
C1969 C1963 1.491 . S
C1969 C1968 1.400 . S
C1969 C1970 1.398 . S
C1970 H1958 0.950 . S
C1970 C1969 1.398 . S
C1970 C1971 1.391 . S
C1971 H1959 0.950 . S
C1971 C1967 1.393 . S
C1971 C1970 1.391 . S
H1972 C1980 0.950 . S
H1973 C1985 0.950 . S
H1974 C1982 0.950 . S
H1975 C1984 0.950 . S
H1976 C1986 0.950 . S
H1977 C1988 0.950 . S
H1978 C1990 0.950 . S
H1979 C1991 0.950 . S
C1980 H1972 0.950 . S
C1980 C1981 1.386 . S
C1980 C1982 1.391 . S
C1981 C1980 1.386 . S
C1981 C1985 1.393 . S
C1982 H1974 0.950 . S
C1982 C1980 1.391 . S
C1982 C1983 1.400 . S
C1983 C1982 1.400 . S
C1983 C1984 1.398 . S
C1983 C1989 1.491 . S
C1984 H1975 0.950 . S
C1984 C1983 1.398 . S
C1984 C1985 1.391 . S
C1985 H1973 0.950 . S
C1985 C1981 1.393 . S
C1985 C1984 1.391 . S
C1986 H1976 0.950 . S
C1986 C1987 1.386 . S
C1986 C1988 1.391 . S
C1987 C1986 1.386 . S
C1987 C1991 1.393 . S
C1988 H1977 0.950 . S
C1988 C1986 1.391 . S
C1988 C1989 1.400 . S
C1989 C1983 1.491 . S
C1989 C1988 1.400 . S
C1989 C1990 1.398 . S
C1990 H1978 0.950 . S
C1990 C1989 1.398 . S
C1990 C1991 1.391 . S
C1991 H1979 0.950 . S
C1991 C1987 1.393 . S
C1991 C1990 1.391 . S
H1992 C2000 0.950 . S
H1993 C2005 0.950 . S
H1994 C2002 0.950 . S
H1995 C2004 0.950 . S
H1996 C2006 0.950 . S
H1997 C2008 0.950 . S
H1998 C2010 0.950 . S
H1999 C2011 0.950 . S
C2000 H1992 0.950 . S
C2000 C2001 1.386 . S
C2000 C2002 1.391 . S
C2001 C2000 1.386 . S
C2001 C2005 1.393 . S
C2002 H1994 0.950 . S
C2002 C2000 1.391 . S
C2002 C2003 1.400 . S
C2003 C2002 1.400 . S
C2003 C2004 1.398 . S
C2003 C2009 1.491 . S
C2004 H1995 0.950 . S
C2004 C2003 1.398 . S
C2004 C2005 1.391 . S
C2005 H1993 0.950 . S
C2005 C2001 1.393 . S
C2005 C2004 1.391 . S
C2006 H1996 0.950 . S
C2006 C2007 1.386 . S
C2006 C2008 1.391 . S
C2007 C2006 1.386 . S
C2007 C2011 1.393 . S
C2008 H1997 0.950 . S
C2008 C2006 1.391 . S
C2008 C2009 1.400 . S
C2009 C2003 1.491 . S
C2009 C2008 1.400 . S
C2009 C2010 1.398 . S
C2010 H1998 0.950 . S
C2010 C2009 1.398 . S
C2010 C2011 1.391 . S
C2011 H1999 0.950 . S
C2011 C2007 1.393 . S
C2011 C2010 1.391 . S
H2012 C2020 0.950 . S
H2013 C2025 0.950 . S
H2014 C2022 0.950 . S
H2015 C2024 0.950 . S
H2016 C2026 0.950 . S
H2017 C2028 0.950 . S
H2018 C2030 0.950 . S
H2019 C2031 0.950 . S
C2020 H2012 0.950 . S
C2020 C2021 1.386 . S
C2020 C2022 1.391 . S
C2021 C2020 1.386 . S
C2021 C2025 1.393 . S
C2022 H2014 0.950 . S
C2022 C2020 1.391 . S
C2022 C2023 1.400 . S
C2023 C2022 1.400 . S
C2023 C2024 1.398 . S
C2023 C2029 1.491 . S
C2024 H2015 0.950 . S
C2024 C2023 1.398 . S
C2024 C2025 1.391 . S
C2025 H2013 0.950 . S
C2025 C2021 1.393 . S
C2025 C2024 1.391 . S
C2026 H2016 0.950 . S
C2026 C2027 1.386 . S
C2026 C2028 1.391 . S
C2027 C2026 1.386 . S
C2027 C2031 1.393 . S
C2028 H2017 0.950 . S
C2028 C2026 1.391 . S
C2028 C2029 1.400 . S
C2029 C2023 1.491 . S
C2029 C2028 1.400 . S
C2029 C2030 1.398 . S
C2030 H2018 0.950 . S
C2030 C2029 1.398 . S
C2030 C2031 1.391 . S
C2031 H2019 0.950 . S
C2031 C2027 1.393 . S
C2031 C2030 1.391 . S
H2032 C2040 0.950 . S
H2033 C2045 0.950 . S
H2034 C2042 0.950 . S
H2035 C2044 0.950 . S
H2036 C2046 0.950 . S
H2037 C2048 0.950 . S
H2038 C2050 0.950 . S
H2039 C2051 0.950 . S
C2040 H2032 0.950 . S
C2040 C2041 1.386 . S
C2040 C2042 1.391 . S
C2041 C2040 1.386 . S
C2041 C2045 1.393 . S
C2042 H2034 0.950 . S
C2042 C2040 1.391 . S
C2042 C2043 1.400 . S
C2043 C2042 1.400 . S
C2043 C2044 1.398 . S
C2043 C2049 1.491 . S
C2044 H2035 0.950 . S
C2044 C2043 1.398 . S
C2044 C2045 1.391 . S
C2045 H2033 0.950 . S
C2045 C2041 1.393 . S
C2045 C2044 1.391 . S
C2046 H2036 0.950 . S
C2046 C2047 1.386 . S
C2046 C2048 1.391 . S
C2047 C2046 1.386 . S
C2047 C2051 1.393 . S
C2048 H2037 0.950 . S
C2048 C2046 1.391 . S
C2048 C2049 1.400 . S
C2049 C2043 1.491 . S
C2049 C2048 1.400 . S
C2049 C2050 1.398 . S
C2050 H2038 0.950 . S
C2050 C2049 1.398 . S
C2050 C2051 1.391 . S
C2051 H2039 0.950 . S
C2051 C2047 1.393 . S
C2051 C2050 1.391 . S
H2052 C2060 0.950 . S
H2053 C2065 0.950 . S
H2054 C2062 0.950 . S
H2055 C2064 0.950 . S
H2056 C2066 0.950 . S
H2057 C2068 0.950 . S
H2058 C2070 0.950 . S
H2059 C2071 0.950 . S
C2060 H2052 0.950 . S
C2060 C2061 1.386 . S
C2060 C2062 1.391 . S
C2061 C2060 1.386 . S
C2061 C2065 1.393 . S
C2062 H2054 0.950 . S
C2062 C2060 1.391 . S
C2062 C2063 1.400 . S
C2063 C2062 1.400 . S
C2063 C2064 1.398 . S
C2063 C2069 1.491 . S
C2064 H2055 0.950 . S
C2064 C2063 1.398 . S
C2064 C2065 1.391 . S
C2065 H2053 0.950 . S
C2065 C2061 1.393 . S
C2065 C2064 1.391 . S
C2066 H2056 0.950 . S
C2066 C2067 1.386 . S
C2066 C2068 1.391 . S
C2067 C2066 1.386 . S
C2067 C2071 1.393 . S
C2068 H2057 0.950 . S
C2068 C2066 1.391 . S
C2068 C2069 1.400 . S
C2069 C2063 1.491 . S
C2069 C2068 1.400 . S
C2069 C2070 1.398 . S
C2070 H2058 0.950 . S
C2070 C2069 1.398 . S
C2070 C2071 1.391 . S
C2071 H2059 0.950 . S
C2071 C2067 1.393 . S
C2071 C2070 1.391 . S
H2072 C2080 0.950 . S
H2073 C2085 0.950 . S
H2074 C2082 0.950 . S
H2075 C2084 0.950 . S
H2076 C2086 0.950 . S
H2077 C2088 0.950 . S
H2078 C2090 0.950 . S
H2079 C2091 0.950 . S
C2080 H2072 0.950 . S
C2080 C2081 1.386 . S
C2080 C2082 1.391 . S
C2081 C2080 1.386 . S
C2081 C2085 1.393 . S
C2082 H2074 0.950 . S
C2082 C2080 1.391 . S
C2082 C2083 1.400 . S
C2083 C2082 1.400 . S
C2083 C2084 1.398 . S
C2083 C2089 1.491 . S
C2084 H2075 0.950 . S
C2084 C2083 1.398 . S
C2084 C2085 1.391 . S
C2085 H2073 0.950 . S
C2085 C2081 1.393 . S
C2085 C2084 1.391 . S
C2086 H2076 0.950 . S
C2086 C2087 1.386 . S
C2086 C2088 1.391 . S
C2087 C2086 1.386 . S
C2087 C2091 1.393 . S
C2088 H2077 0.950 . S
C2088 C2086 1.391 . S
C2088 C2089 1.400 . S
C2089 C2083 1.491 . S
C2089 C2088 1.400 . S
C2089 C2090 1.398 . S
C2090 H2078 0.950 . S
C2090 C2089 1.398 . S
C2090 C2091 1.391 . S
C2091 H2079 0.950 . S
C2091 C2087 1.393 . S
C2091 C2090 1.391 . S
H2092 C2100 0.950 . S
H2093 C2105 0.950 . S
H2094 C2102 0.950 . S
H2095 C2104 0.950 . S
H2096 C2106 0.950 . S
H2097 C2108 0.950 . S
H2098 C2110 0.950 . S
H2099 C2111 0.950 . S
C2100 H2092 0.950 . S
C2100 C2101 1.386 . S
C2100 C2102 1.391 . S
C2101 C2100 1.386 . S
C2101 C2105 1.393 . S
C2102 H2094 0.950 . S
C2102 C2100 1.391 . S
C2102 C2103 1.400 . S
C2103 C2102 1.400 . S
C2103 C2104 1.398 . S
C2103 C2109 1.491 . S
C2104 H2095 0.950 . S
C2104 C2103 1.398 . S
C2104 C2105 1.391 . S
C2105 H2093 0.950 . S
C2105 C2101 1.393 . S
C2105 C2104 1.391 . S
C2106 H2096 0.950 . S
C2106 C2107 1.386 . S
C2106 C2108 1.391 . S
C2107 C2106 1.386 . S
C2107 C2111 1.393 . S
C2108 H2097 0.950 . S
C2108 C2106 1.391 . S
C2108 C2109 1.400 . S
C2109 C2103 1.491 . S
C2109 C2108 1.400 . S
C2109 C2110 1.398 . S
C2110 H2098 0.950 . S
C2110 C2109 1.398 . S
C2110 C2111 1.391 . S
C2111 H2099 0.950 . S
C2111 C2107 1.393 . S
C2111 C2110 1.391 . S
H2112 C2120 0.950 . S
H2113 C2125 0.950 . S
H2114 C2122 0.950 . S
H2115 C2124 0.950 . S
H2116 C2126 0.950 . S
H2117 C2128 0.950 . S
H2118 C2130 0.950 . S
H2119 C2131 0.950 . S
C2120 H2112 0.950 . S
C2120 C2121 1.386 . S
C2120 C2122 1.391 . S
C2121 C2120 1.386 . S
C2121 C2125 1.393 . S
C2122 H2114 0.950 . S
C2122 C2120 1.391 . S
C2122 C2123 1.400 . S
C2123 C2122 1.400 . S
C2123 C2124 1.398 . S
C2123 C2129 1.491 . S
C2124 H2115 0.950 . S
C2124 C2123 1.398 . S
C2124 C2125 1.391 . S
C2125 H2113 0.950 . S
C2125 C2121 1.393 . S
C2125 C2124 1.391 . S
C2126 H2116 0.950 . S
C2126 C2127 1.386 . S
C2126 C2128 1.391 . S
C2127 C2126 1.386 . S
C2127 C2131 1.393 . S
C2128 H2117 0.950 . S
C2128 C2126 1.391 . S
C2128 C2129 1.400 . S
C2129 C2123 1.491 . S
C2129 C2128 1.400 . S
C2129 C2130 1.398 . S
C2130 H2118 0.950 . S
C2130 C2129 1.398 . S
C2130 C2131 1.391 . S
C2131 H2119 0.950 . S
C2131 C2127 1.393 . S
C2131 C2130 1.391 . S
H2132 C2140 0.950 . S
H2133 C2145 0.950 . S
H2134 C2142 0.950 . S
H2135 C2144 0.950 . S
H2136 C2146 0.950 . S
H2137 C2148 0.950 . S
H2138 C2150 0.950 . S
H2139 C2151 0.950 . S
C2140 H2132 0.950 . S
C2140 C2141 1.386 . S
C2140 C2142 1.391 . S
C2141 C2140 1.386 . S
C2141 C2145 1.393 . S
C2142 H2134 0.950 . S
C2142 C2140 1.391 . S
C2142 C2143 1.400 . S
C2143 C2142 1.400 . S
C2143 C2144 1.398 . S
C2143 C2149 1.491 . S
C2144 H2135 0.950 . S
C2144 C2143 1.398 . S
C2144 C2145 1.391 . S
C2145 H2133 0.950 . S
C2145 C2141 1.393 . S
C2145 C2144 1.391 . S
C2146 H2136 0.950 . S
C2146 C2147 1.386 . S
C2146 C2148 1.391 . S
C2147 C2146 1.386 . S
C2147 C2151 1.393 . S
C2148 H2137 0.950 . S
C2148 C2146 1.391 . S
C2148 C2149 1.400 . S
C2149 C2143 1.491 . S
C2149 C2148 1.400 . S
C2149 C2150 1.398 . S
C2150 H2138 0.950 . S
C2150 C2149 1.398 . S
C2150 C2151 1.391 . S
C2151 H2139 0.950 . S
C2151 C2147 1.393 . S
C2151 C2150 1.391 . S
H2152 C2160 0.950 . S
H2153 C2165 0.950 . S
H2154 C2162 0.950 . S
H2155 C2164 0.950 . S
H2156 C2166 0.950 . S
H2157 C2168 0.950 . S
H2158 C2170 0.950 . S
H2159 C2171 0.950 . S
C2160 H2152 0.950 . S
C2160 C2161 1.386 . S
C2160 C2162 1.391 . S
C2161 C2160 1.386 . S
C2161 C2165 1.393 . S
C2162 H2154 0.950 . S
C2162 C2160 1.391 . S
C2162 C2163 1.400 . S
C2163 C2162 1.400 . S
C2163 C2164 1.398 . S
C2163 C2169 1.491 . S
C2164 H2155 0.950 . S
C2164 C2163 1.398 . S
C2164 C2165 1.391 . S
C2165 H2153 0.950 . S
C2165 C2161 1.393 . S
C2165 C2164 1.391 . S
C2166 H2156 0.950 . S
C2166 C2167 1.386 . S
C2166 C2168 1.391 . S
C2167 C2166 1.386 . S
C2167 C2171 1.393 . S
C2168 H2157 0.950 . S
C2168 C2166 1.391 . S
C2168 C2169 1.400 . S
C2169 C2163 1.491 . S
C2169 C2168 1.400 . S
C2169 C2170 1.398 . S
C2170 H2158 0.950 . S
C2170 C2169 1.398 . S
C2170 C2171 1.391 . S
C2171 H2159 0.950 . S
C2171 C2167 1.393 . S
C2171 C2170 1.391 . S
H2172 C2180 0.950 . S
H2173 C2185 0.950 . S
H2174 C2182 0.950 . S
H2175 C2184 0.950 . S
H2176 C2186 0.950 . S
H2177 C2188 0.950 . S
H2178 C2190 0.950 . S
H2179 C2191 0.950 . S
C2180 H2172 0.950 . S
C2180 C2181 1.386 . S
C2180 C2182 1.391 . S
C2181 C2180 1.386 . S
C2181 C2185 1.393 . S
C2182 H2174 0.950 . S
C2182 C2180 1.391 . S
C2182 C2183 1.400 . S
C2183 C2182 1.400 . S
C2183 C2184 1.398 . S
C2183 C2189 1.491 . S
C2184 H2175 0.950 . S
C2184 C2183 1.398 . S
C2184 C2185 1.391 . S
C2185 H2173 0.950 . S
C2185 C2181 1.393 . S
C2185 C2184 1.391 . S
C2186 H2176 0.950 . S
C2186 C2187 1.386 . S
C2186 C2188 1.391 . S
C2187 C2186 1.386 . S
C2187 C2191 1.393 . S
C2188 H2177 0.950 . S
C2188 C2186 1.391 . S
C2188 C2189 1.400 . S
C2189 C2183 1.491 . S
C2189 C2188 1.400 . S
C2189 C2190 1.398 . S
C2190 H2178 0.950 . S
C2190 C2189 1.398 . S
C2190 C2191 1.391 . S
C2191 H2179 0.950 . S
C2191 C2187 1.393 . S
C2191 C2190 1.391 . S
H2192 C2200 0.950 . S
H2193 C2205 0.950 . S
H2194 C2202 0.950 . S
H2195 C2204 0.950 . S
H2196 C2206 0.950 . S
H2197 C2208 0.950 . S
H2198 C2210 0.950 . S
H2199 C2211 0.950 . S
C2200 H2192 0.950 . S
C2200 C2201 1.386 . S
C2200 C2202 1.391 . S
C2201 C2200 1.386 . S
C2201 C2205 1.393 . S
C2202 H2194 0.950 . S
C2202 C2200 1.391 . S
C2202 C2203 1.400 . S
C2203 C2202 1.400 . S
C2203 C2204 1.398 . S
C2203 C2209 1.491 . S
C2204 H2195 0.950 . S
C2204 C2203 1.398 . S
C2204 C2205 1.391 . S
C2205 H2193 0.950 . S
C2205 C2201 1.393 . S
C2205 C2204 1.391 . S
C2206 H2196 0.950 . S
C2206 C2207 1.386 . S
C2206 C2208 1.391 . S
C2207 C2206 1.386 . S
C2207 C2211 1.393 . S
C2208 H2197 0.950 . S
C2208 C2206 1.391 . S
C2208 C2209 1.400 . S
C2209 C2203 1.491 . S
C2209 C2208 1.400 . S
C2209 C2210 1.398 . S
C2210 H2198 0.950 . S
C2210 C2209 1.398 . S
C2210 C2211 1.391 . S
C2211 H2199 0.950 . S
C2211 C2207 1.393 . S
C2211 C2210 1.391 . S
H2212 C2220 0.950 . S
H2213 C2225 0.950 . S
H2214 C2222 0.950 . S
H2215 C2224 0.950 . S
H2216 C2226 0.950 . S
H2217 C2228 0.950 . S
H2218 C2230 0.950 . S
H2219 C2231 0.950 . S
C2220 H2212 0.950 . S
C2220 C2221 1.386 . S
C2220 C2222 1.391 . S
C2221 C2220 1.386 . S
C2221 C2225 1.393 . S
C2222 H2214 0.950 . S
C2222 C2220 1.391 . S
C2222 C2223 1.400 . S
C2223 C2222 1.400 . S
C2223 C2224 1.398 . S
C2223 C2229 1.491 . S
C2224 H2215 0.950 . S
C2224 C2223 1.398 . S
C2224 C2225 1.391 . S
C2225 H2213 0.950 . S
C2225 C2221 1.393 . S
C2225 C2224 1.391 . S
C2226 H2216 0.950 . S
C2226 C2227 1.386 . S
C2226 C2228 1.391 . S
C2227 C2226 1.386 . S
C2227 C2231 1.393 . S
C2228 H2217 0.950 . S
C2228 C2226 1.391 . S
C2228 C2229 1.400 . S
C2229 C2223 1.491 . S
C2229 C2228 1.400 . S
C2229 C2230 1.398 . S
C2230 H2218 0.950 . S
C2230 C2229 1.398 . S
C2230 C2231 1.391 . S
C2231 H2219 0.950 . S
C2231 C2227 1.393 . S
C2231 C2230 1.391 . S
H2232 C2240 0.950 . S
H2233 C2245 0.950 . S
H2234 C2242 0.950 . S
H2235 C2244 0.950 . S
H2236 C2246 0.950 . S
H2237 C2248 0.950 . S
H2238 C2250 0.950 . S
H2239 C2251 0.950 . S
C2240 H2232 0.950 . S
C2240 C2241 1.386 . S
C2240 C2242 1.391 . S
C2241 C2240 1.386 . S
C2241 C2245 1.393 . S
C2242 H2234 0.950 . S
C2242 C2240 1.391 . S
C2242 C2243 1.400 . S
C2243 C2242 1.400 . S
C2243 C2244 1.398 . S
C2243 C2249 1.491 . S
C2244 H2235 0.950 . S
C2244 C2243 1.398 . S
C2244 C2245 1.391 . S
C2245 H2233 0.950 . S
C2245 C2241 1.393 . S
C2245 C2244 1.391 . S
C2246 H2236 0.950 . S
C2246 C2247 1.386 . S
C2246 C2248 1.391 . S
C2247 C2246 1.386 . S
C2247 C2251 1.393 . S
C2248 H2237 0.950 . S
C2248 C2246 1.391 . S
C2248 C2249 1.400 . S
C2249 C2243 1.491 . S
C2249 C2248 1.400 . S
C2249 C2250 1.398 . S
C2250 H2238 0.950 . S
C2250 C2249 1.398 . S
C2250 C2251 1.391 . S
C2251 H2239 0.950 . S
C2251 C2247 1.393 . S
C2251 C2250 1.391 . S
H2252 C2260 0.950 . S
H2253 C2265 0.950 . S
H2254 C2262 0.950 . S
H2255 C2264 0.950 . S
H2256 C2266 0.950 . S
H2257 C2268 0.950 . S
H2258 C2270 0.950 . S
H2259 C2271 0.950 . S
C2260 H2252 0.950 . S
C2260 C2261 1.386 . S
C2260 C2262 1.391 . S
C2261 C2260 1.386 . S
C2261 C2265 1.393 . S
C2262 H2254 0.950 . S
C2262 C2260 1.391 . S
C2262 C2263 1.400 . S
C2263 C2262 1.400 . S
C2263 C2264 1.398 . S
C2263 C2269 1.491 . S
C2264 H2255 0.950 . S
C2264 C2263 1.398 . S
C2264 C2265 1.391 . S
C2265 H2253 0.950 . S
C2265 C2261 1.393 . S
C2265 C2264 1.391 . S
C2266 H2256 0.950 . S
C2266 C2267 1.386 . S
C2266 C2268 1.391 . S
C2267 C2266 1.386 . S
C2267 C2271 1.393 . S
C2268 H2257 0.950 . S
C2268 C2266 1.391 . S
C2268 C2269 1.400 . S
C2269 C2263 1.491 . S
C2269 C2268 1.400 . S
C2269 C2270 1.398 . S
C2270 H2258 0.950 . S
C2270 C2269 1.398 . S
C2270 C2271 1.391 . S
C2271 H2259 0.950 . S
C2271 C2267 1.393 . S
C2271 C2270 1.391 . S
H2272 C2280 0.950 . S
H2273 C2285 0.950 . S
H2274 C2282 0.950 . S
H2275 C2284 0.950 . S
H2276 C2286 0.950 . S
H2277 C2288 0.950 . S
H2278 C2290 0.950 . S
H2279 C2291 0.950 . S
C2280 H2272 0.950 . S
C2280 C2281 1.386 . S
C2280 C2282 1.391 . S
C2281 C2280 1.386 . S
C2281 C2285 1.393 . S
C2282 H2274 0.950 . S
C2282 C2280 1.391 . S
C2282 C2283 1.400 . S
C2283 C2282 1.400 . S
C2283 C2284 1.398 . S
C2283 C2289 1.491 . S
C2284 H2275 0.950 . S
C2284 C2283 1.398 . S
C2284 C2285 1.391 . S
C2285 H2273 0.950 . S
C2285 C2281 1.393 . S
C2285 C2284 1.391 . S
C2286 H2276 0.950 . S
C2286 C2287 1.386 . S
C2286 C2288 1.391 . S
C2287 C2286 1.386 . S
C2287 C2291 1.393 . S
C2288 H2277 0.950 . S
C2288 C2286 1.391 . S
C2288 C2289 1.400 . S
C2289 C2283 1.491 . S
C2289 C2288 1.400 . S
C2289 C2290 1.398 . S
C2290 H2278 0.950 . S
C2290 C2289 1.398 . S
C2290 C2291 1.391 . S
C2291 H2279 0.950 . S
C2291 C2287 1.393 . S
C2291 C2290 1.391 . S
H2292 C2300 0.950 . S
H2293 C2305 0.950 . S
H2294 C2302 0.950 . S
H2295 C2304 0.950 . S
H2296 C2306 0.950 . S
H2297 C2308 0.950 . S
H2298 C2310 0.950 . S
H2299 C2311 0.950 . S
C2300 H2292 0.950 . S
C2300 C2301 1.386 . S
C2300 C2302 1.391 . S
C2301 C2300 1.386 . S
C2301 C2305 1.393 . S
C2302 H2294 0.950 . S
C2302 C2300 1.391 . S
C2302 C2303 1.400 . S
C2303 C2302 1.400 . S
C2303 C2304 1.398 . S
C2303 C2309 1.491 . S
C2304 H2295 0.950 . S
C2304 C2303 1.398 . S
C2304 C2305 1.391 . S
C2305 H2293 0.950 . S
C2305 C2301 1.393 . S
C2305 C2304 1.391 . S
C2306 H2296 0.950 . S
C2306 C2307 1.386 . S
C2306 C2308 1.391 . S
C2307 C2306 1.386 . S
C2307 C2311 1.393 . S
C2308 H2297 0.950 . S
C2308 C2306 1.391 . S
C2308 C2309 1.400 . S
C2309 C2303 1.491 . S
C2309 C2308 1.400 . S
C2309 C2310 1.398 . S
C2310 H2298 0.950 . S
C2310 C2309 1.398 . S
C2310 C2311 1.391 . S
C2311 H2299 0.950 . S
C2311 C2307 1.393 . S
C2311 C2310 1.391 . S
H2312 C2320 0.950 . S
H2313 C2325 0.950 . S
H2314 C2322 0.950 . S
H2315 C2324 0.950 . S
H2316 C2326 0.950 . S
H2317 C2328 0.950 . S
H2318 C2330 0.950 . S
H2319 C2331 0.950 . S
C2320 H2312 0.950 . S
C2320 C2321 1.386 . S
C2320 C2322 1.391 . S
C2321 C2320 1.386 . S
C2321 C2325 1.393 . S
C2322 H2314 0.950 . S
C2322 C2320 1.391 . S
C2322 C2323 1.400 . S
C2323 C2322 1.400 . S
C2323 C2324 1.398 . S
C2323 C2329 1.491 . S
C2324 H2315 0.950 . S
C2324 C2323 1.398 . S
C2324 C2325 1.391 . S
C2325 H2313 0.950 . S
C2325 C2321 1.393 . S
C2325 C2324 1.391 . S
C2326 H2316 0.950 . S
C2326 C2327 1.386 . S
C2326 C2328 1.391 . S
C2327 C2326 1.386 . S
C2327 C2331 1.393 . S
C2328 H2317 0.950 . S
C2328 C2326 1.391 . S
C2328 C2329 1.400 . S
C2329 C2323 1.491 . S
C2329 C2328 1.400 . S
C2329 C2330 1.398 . S
C2330 H2318 0.950 . S
C2330 C2329 1.398 . S
C2330 C2331 1.391 . S
C2331 H2319 0.950 . S
C2331 C2327 1.393 . S
C2331 C2330 1.391 . S
H2332 C2340 0.950 . S
H2333 C2345 0.950 . S
H2334 C2342 0.950 . S
H2335 C2344 0.950 . S
H2336 C2346 0.950 . S
H2337 C2348 0.950 . S
H2338 C2350 0.950 . S
H2339 C2351 0.950 . S
C2340 H2332 0.950 . S
C2340 C2341 1.386 . S
C2340 C2342 1.391 . S
C2341 C2340 1.386 . S
C2341 C2345 1.393 . S
C2342 H2334 0.950 . S
C2342 C2340 1.391 . S
C2342 C2343 1.400 . S
C2343 C2342 1.400 . S
C2343 C2344 1.398 . S
C2343 C2349 1.491 . S
C2344 H2335 0.950 . S
C2344 C2343 1.398 . S
C2344 C2345 1.391 . S
C2345 H2333 0.950 . S
C2345 C2341 1.393 . S
C2345 C2344 1.391 . S
C2346 H2336 0.950 . S
C2346 C2347 1.386 . S
C2346 C2348 1.391 . S
C2347 C2346 1.386 . S
C2347 C2351 1.393 . S
C2348 H2337 0.950 . S
C2348 C2346 1.391 . S
C2348 C2349 1.400 . S
C2349 C2343 1.491 . S
C2349 C2348 1.400 . S
C2349 C2350 1.398 . S
C2350 H2338 0.950 . S
C2350 C2349 1.398 . S
C2350 C2351 1.391 . S
C2351 H2339 0.950 . S
C2351 C2347 1.393 . S
C2351 C2350 1.391 . S
H2352 C2360 0.950 . S
H2353 C2365 0.950 . S
H2354 C2362 0.950 . S
H2355 C2364 0.950 . S
H2356 C2366 0.950 . S
H2357 C2368 0.950 . S
H2358 C2370 0.950 . S
H2359 C2371 0.950 . S
C2360 H2352 0.950 . S
C2360 C2361 1.386 . S
C2360 C2362 1.391 . S
C2361 C2360 1.386 . S
C2361 C2365 1.393 . S
C2362 H2354 0.950 . S
C2362 C2360 1.391 . S
C2362 C2363 1.400 . S
C2363 C2362 1.400 . S
C2363 C2364 1.398 . S
C2363 C2369 1.491 . S
C2364 H2355 0.950 . S
C2364 C2363 1.398 . S
C2364 C2365 1.391 . S
C2365 H2353 0.950 . S
C2365 C2361 1.393 . S
C2365 C2364 1.391 . S
C2366 H2356 0.950 . S
C2366 C2367 1.386 . S
C2366 C2368 1.391 . S
C2367 C2366 1.386 . S
C2367 C2371 1.393 . S
C2368 H2357 0.950 . S
C2368 C2366 1.391 . S
C2368 C2369 1.400 . S
C2369 C2363 1.491 . S
C2369 C2368 1.400 . S
C2369 C2370 1.398 . S
C2370 H2358 0.950 . S
C2370 C2369 1.398 . S
C2370 C2371 1.391 . S
C2371 H2359 0.950 . S
C2371 C2367 1.393 . S
C2371 C2370 1.391 . S
H2372 C2380 0.950 . S
H2373 C2385 0.950 . S
H2374 C2382 0.950 . S
H2375 C2384 0.950 . S
H2376 C2386 0.950 . S
H2377 C2388 0.950 . S
H2378 C2390 0.950 . S
H2379 C2391 0.950 . S
C2380 H2372 0.950 . S
C2380 C2381 1.386 . S
C2380 C2382 1.391 . S
C2381 C2380 1.386 . S
C2381 C2385 1.393 . S
C2382 H2374 0.950 . S
C2382 C2380 1.391 . S
C2382 C2383 1.400 . S
C2383 C2382 1.400 . S
C2383 C2384 1.398 . S
C2383 C2389 1.491 . S
C2384 H2375 0.950 . S
C2384 C2383 1.398 . S
C2384 C2385 1.391 . S
C2385 H2373 0.950 . S
C2385 C2381 1.393 . S
C2385 C2384 1.391 . S
C2386 H2376 0.950 . S
C2386 C2387 1.386 . S
C2386 C2388 1.391 . S
C2387 C2386 1.386 . S
C2387 C2391 1.393 . S
C2388 H2377 0.950 . S
C2388 C2386 1.391 . S
C2388 C2389 1.400 . S
C2389 C2383 1.491 . S
C2389 C2388 1.400 . S
C2389 C2390 1.398 . S
C2390 H2378 0.950 . S
C2390 C2389 1.398 . S
C2390 C2391 1.391 . S
C2391 H2379 0.950 . S
C2391 C2387 1.393 . S
C2391 C2390 1.391 . S
H2392 C2400 0.950 . S
H2393 C2405 0.950 . S
H2394 C2402 0.950 . S
H2395 C2404 0.950 . S
H2396 C2406 0.950 . S
H2397 C2408 0.950 . S
H2398 C2410 0.950 . S
H2399 C2411 0.950 . S
C2400 H2392 0.950 . S
C2400 C2401 1.386 . S
C2400 C2402 1.391 . S
C2401 C2400 1.386 . S
C2401 C2405 1.393 . S
C2402 H2394 0.950 . S
C2402 C2400 1.391 . S
C2402 C2403 1.400 . S
C2403 C2402 1.400 . S
C2403 C2404 1.398 . S
C2403 C2409 1.491 . S
C2404 H2395 0.950 . S
C2404 C2403 1.398 . S
C2404 C2405 1.391 . S
C2405 H2393 0.950 . S
C2405 C2401 1.393 . S
C2405 C2404 1.391 . S
C2406 H2396 0.950 . S
C2406 C2407 1.386 . S
C2406 C2408 1.391 . S
C2407 C2406 1.386 . S
C2407 C2411 1.393 . S
C2408 H2397 0.950 . S
C2408 C2406 1.391 . S
C2408 C2409 1.400 . S
C2409 C2403 1.491 . S
C2409 C2408 1.400 . S
C2409 C2410 1.398 . S
C2410 H2398 0.950 . S
C2410 C2409 1.398 . S
C2410 C2411 1.391 . S
C2411 H2399 0.950 . S
C2411 C2407 1.393 . S
C2411 C2410 1.391 . S
H2412 C2420 0.950 . S
H2413 C2425 0.950 . S
H2414 C2422 0.950 . S
H2415 C2424 0.950 . S
H2416 C2426 0.950 . S
H2417 C2428 0.950 . S
H2418 C2430 0.950 . S
H2419 C2431 0.950 . S
C2420 H2412 0.950 . S
C2420 C2421 1.386 . S
C2420 C2422 1.391 . S
C2421 C2420 1.386 . S
C2421 C2425 1.393 . S
C2422 H2414 0.950 . S
C2422 C2420 1.391 . S
C2422 C2423 1.400 . S
C2423 C2422 1.400 . S
C2423 C2424 1.398 . S
C2423 C2429 1.491 . S
C2424 H2415 0.950 . S
C2424 C2423 1.398 . S
C2424 C2425 1.391 . S
C2425 H2413 0.950 . S
C2425 C2421 1.393 . S
C2425 C2424 1.391 . S
C2426 H2416 0.950 . S
C2426 C2427 1.386 . S
C2426 C2428 1.391 . S
C2427 C2426 1.386 . S
C2427 C2431 1.393 . S
C2428 H2417 0.950 . S
C2428 C2426 1.391 . S
C2428 C2429 1.400 . S
C2429 C2423 1.491 . S
C2429 C2428 1.400 . S
C2429 C2430 1.398 . S
C2430 H2418 0.950 . S
C2430 C2429 1.398 . S
C2430 C2431 1.391 . S
C2431 H2419 0.950 . S
C2431 C2427 1.393 . S
C2431 C2430 1.391 . S
H2432 C2440 0.950 . S
H2433 C2445 0.950 . S
H2434 C2442 0.950 . S
H2435 C2444 0.950 . S
H2436 C2446 0.950 . S
H2437 C2448 0.950 . S
H2438 C2450 0.950 . S
H2439 C2451 0.950 . S
C2440 H2432 0.950 . S
C2440 C2441 1.386 . S
C2440 C2442 1.391 . S
C2441 C2440 1.386 . S
C2441 C2445 1.393 . S
C2442 H2434 0.950 . S
C2442 C2440 1.391 . S
C2442 C2443 1.400 . S
C2443 C2442 1.400 . S
C2443 C2444 1.398 . S
C2443 C2449 1.491 . S
C2444 H2435 0.950 . S
C2444 C2443 1.398 . S
C2444 C2445 1.391 . S
C2445 H2433 0.950 . S
C2445 C2441 1.393 . S
C2445 C2444 1.391 . S
C2446 H2436 0.950 . S
C2446 C2447 1.386 . S
C2446 C2448 1.391 . S
C2447 C2446 1.386 . S
C2447 C2451 1.393 . S
C2448 H2437 0.950 . S
C2448 C2446 1.391 . S
C2448 C2449 1.400 . S
C2449 C2443 1.491 . S
C2449 C2448 1.400 . S
C2449 C2450 1.398 . S
C2450 H2438 0.950 . S
C2450 C2449 1.398 . S
C2450 C2451 1.391 . S
C2451 H2439 0.950 . S
C2451 C2447 1.393 . S
C2451 C2450 1.391 . S
H2452 C2460 0.950 . S
H2453 C2465 0.950 . S
H2454 C2462 0.950 . S
H2455 C2464 0.950 . S
H2456 C2466 0.950 . S
H2457 C2468 0.950 . S
H2458 C2470 0.950 . S
H2459 C2471 0.950 . S
C2460 H2452 0.950 . S
C2460 C2461 1.386 . S
C2460 C2462 1.391 . S
C2461 C2460 1.386 . S
C2461 C2465 1.393 . S
C2462 H2454 0.950 . S
C2462 C2460 1.391 . S
C2462 C2463 1.400 . S
C2463 C2462 1.400 . S
C2463 C2464 1.398 . S
C2463 C2469 1.491 . S
C2464 H2455 0.950 . S
C2464 C2463 1.398 . S
C2464 C2465 1.391 . S
C2465 H2453 0.950 . S
C2465 C2461 1.393 . S
C2465 C2464 1.391 . S
C2466 H2456 0.950 . S
C2466 C2467 1.386 . S
C2466 C2468 1.391 . S
C2467 C2466 1.386 . S
C2467 C2471 1.393 . S
C2468 H2457 0.950 . S
C2468 C2466 1.391 . S
C2468 C2469 1.400 . S
C2469 C2463 1.491 . S
C2469 C2468 1.400 . S
C2469 C2470 1.398 . S
C2470 H2458 0.950 . S
C2470 C2469 1.398 . S
C2470 C2471 1.391 . S
C2471 H2459 0.950 . S
C2471 C2467 1.393 . S
C2471 C2470 1.391 . S
H2472 C2480 0.950 . S
H2473 C2485 0.950 . S
H2474 C2482 0.950 . S
H2475 C2484 0.950 . S
H2476 C2486 0.950 . S
H2477 C2488 0.950 . S
H2478 C2490 0.950 . S
H2479 C2491 0.950 . S
C2480 H2472 0.950 . S
C2480 C2481 1.386 . S
C2480 C2482 1.391 . S
C2481 C2480 1.386 . S
C2481 C2485 1.393 . S
C2482 H2474 0.950 . S
C2482 C2480 1.391 . S
C2482 C2483 1.400 . S
C2483 C2482 1.400 . S
C2483 C2484 1.398 . S
C2483 C2489 1.491 . S
C2484 H2475 0.950 . S
C2484 C2483 1.398 . S
C2484 C2485 1.391 . S
C2485 H2473 0.950 . S
C2485 C2481 1.393 . S
C2485 C2484 1.391 . S
C2486 H2476 0.950 . S
C2486 C2487 1.386 . S
C2486 C2488 1.391 . S
C2487 C2486 1.386 . S
C2487 C2491 1.393 . S
C2488 H2477 0.950 . S
C2488 C2486 1.391 . S
C2488 C2489 1.400 . S
C2489 C2483 1.491 . S
C2489 C2488 1.400 . S
C2489 C2490 1.398 . S
C2490 H2478 0.950 . S
C2490 C2489 1.398 . S
C2490 C2491 1.391 . S
C2491 H2479 0.950 . S
C2491 C2487 1.393 . S
C2491 C2490 1.391 . S
H2492 C2500 0.950 . S
H2493 C2505 0.950 . S
H2494 C2502 0.950 . S
H2495 C2504 0.950 . S
H2496 C2506 0.950 . S
H2497 C2508 0.950 . S
H2498 C2510 0.950 . S
H2499 C2511 0.950 . S
C2500 H2492 0.950 . S
C2500 C2501 1.386 . S
C2500 C2502 1.391 . S
C2501 C2500 1.386 . S
C2501 C2505 1.393 . S
C2502 H2494 0.950 . S
C2502 C2500 1.391 . S
C2502 C2503 1.400 . S
C2503 C2502 1.400 . S
C2503 C2504 1.398 . S
C2503 C2509 1.491 . S
C2504 H2495 0.950 . S
C2504 C2503 1.398 . S
C2504 C2505 1.391 . S
C2505 H2493 0.950 . S
C2505 C2501 1.393 . S
C2505 C2504 1.391 . S
C2506 H2496 0.950 . S
C2506 C2507 1.386 . S
C2506 C2508 1.391 . S
C2507 C2506 1.386 . S
C2507 C2511 1.393 . S
C2508 H2497 0.950 . S
C2508 C2506 1.391 . S
C2508 C2509 1.400 . S
C2509 C2503 1.491 . S
C2509 C2508 1.400 . S
C2509 C2510 1.398 . S
C2510 H2498 0.950 . S
C2510 C2509 1.398 . S
C2510 C2511 1.391 . S
C2511 H2499 0.950 . S
C2511 C2507 1.393 . S
C2511 C2510 1.391 . S
H2512 C2520 0.950 . S
H2513 C2525 0.950 . S
H2514 C2522 0.950 . S
H2515 C2524 0.950 . S
H2516 C2526 0.950 . S
H2517 C2528 0.950 . S
H2518 C2530 0.950 . S
H2519 C2531 0.950 . S
C2520 H2512 0.950 . S
C2520 C2521 1.386 . S
C2520 C2522 1.391 . S
C2521 C2520 1.386 . S
C2521 C2525 1.393 . S
C2522 H2514 0.950 . S
C2522 C2520 1.391 . S
C2522 C2523 1.400 . S
C2523 C2522 1.400 . S
C2523 C2524 1.398 . S
C2523 C2529 1.491 . S
C2524 H2515 0.950 . S
C2524 C2523 1.398 . S
C2524 C2525 1.391 . S
C2525 H2513 0.950 . S
C2525 C2521 1.393 . S
C2525 C2524 1.391 . S
C2526 H2516 0.950 . S
C2526 C2527 1.386 . S
C2526 C2528 1.391 . S
C2527 C2526 1.386 . S
C2527 C2531 1.393 . S
C2528 H2517 0.950 . S
C2528 C2526 1.391 . S
C2528 C2529 1.400 . S
C2529 C2523 1.491 . S
C2529 C2528 1.400 . S
C2529 C2530 1.398 . S
C2530 H2518 0.950 . S
C2530 C2529 1.398 . S
C2530 C2531 1.391 . S
C2531 H2519 0.950 . S
C2531 C2527 1.393 . S
C2531 C2530 1.391 . S
H2532 C2540 0.950 . S
H2533 C2545 0.950 . S
H2534 C2542 0.950 . S
H2535 C2544 0.950 . S
H2536 C2546 0.950 . S
H2537 C2548 0.950 . S
H2538 C2550 0.950 . S
H2539 C2551 0.950 . S
C2540 H2532 0.950 . S
C2540 C2541 1.386 . S
C2540 C2542 1.391 . S
C2541 C2540 1.386 . S
C2541 C2545 1.393 . S
C2542 H2534 0.950 . S
C2542 C2540 1.391 . S
C2542 C2543 1.400 . S
C2543 C2542 1.400 . S
C2543 C2544 1.398 . S
C2543 C2549 1.491 . S
C2544 H2535 0.950 . S
C2544 C2543 1.398 . S
C2544 C2545 1.391 . S
C2545 H2533 0.950 . S
C2545 C2541 1.393 . S
C2545 C2544 1.391 . S
C2546 H2536 0.950 . S
C2546 C2547 1.386 . S
C2546 C2548 1.391 . S
C2547 C2546 1.386 . S
C2547 C2551 1.393 . S
C2548 H2537 0.950 . S
C2548 C2546 1.391 . S
C2548 C2549 1.400 . S
C2549 C2543 1.491 . S
C2549 C2548 1.400 . S
C2549 C2550 1.398 . S
C2550 H2538 0.950 . S
C2550 C2549 1.398 . S
C2550 C2551 1.391 . S
C2551 H2539 0.950 . S
C2551 C2547 1.393 . S
C2551 C2550 1.391 . S
H2552 C2560 0.950 . S
H2553 C2565 0.950 . S
H2554 C2562 0.950 . S
H2555 C2564 0.950 . S
H2556 C2566 0.950 . S
H2557 C2568 0.950 . S
H2558 C2570 0.950 . S
H2559 C2571 0.950 . S
C2560 H2552 0.950 . S
C2560 C2561 1.386 . S
C2560 C2562 1.391 . S
C2561 C2560 1.386 . S
C2561 C2565 1.393 . S
C2562 H2554 0.950 . S
C2562 C2560 1.391 . S
C2562 C2563 1.400 . S
C2563 C2562 1.400 . S
C2563 C2564 1.398 . S
C2563 C2569 1.491 . S
C2564 H2555 0.950 . S
C2564 C2563 1.398 . S
C2564 C2565 1.391 . S
C2565 H2553 0.950 . S
C2565 C2561 1.393 . S
C2565 C2564 1.391 . S
C2566 H2556 0.950 . S
C2566 C2567 1.386 . S
C2566 C2568 1.391 . S
C2567 C2566 1.386 . S
C2567 C2571 1.393 . S
C2568 H2557 0.950 . S
C2568 C2566 1.391 . S
C2568 C2569 1.400 . S
C2569 C2563 1.491 . S
C2569 C2568 1.400 . S
C2569 C2570 1.398 . S
C2570 H2558 0.950 . S
C2570 C2569 1.398 . S
C2570 C2571 1.391 . S
C2571 H2559 0.950 . S
C2571 C2567 1.393 . S
C2571 C2570 1.391 . S
H2572 C2580 0.950 . S
H2573 C2585 0.950 . S
H2574 C2582 0.950 . S
H2575 C2584 0.950 . S
H2576 C2586 0.950 . S
H2577 C2588 0.950 . S
H2578 C2590 0.950 . S
H2579 C2591 0.950 . S
C2580 H2572 0.950 . S
C2580 C2581 1.386 . S
C2580 C2582 1.391 . S
C2581 C2580 1.386 . S
C2581 C2585 1.393 . S
C2582 H2574 0.950 . S
C2582 C2580 1.391 . S
C2582 C2583 1.400 . S
C2583 C2582 1.400 . S
C2583 C2584 1.398 . S
C2583 C2589 1.491 . S
C2584 H2575 0.950 . S
C2584 C2583 1.398 . S
C2584 C2585 1.391 . S
C2585 H2573 0.950 . S
C2585 C2581 1.393 . S
C2585 C2584 1.391 . S
C2586 H2576 0.950 . S
C2586 C2587 1.386 . S
C2586 C2588 1.391 . S
C2587 C2586 1.386 . S
C2587 C2591 1.393 . S
C2588 H2577 0.950 . S
C2588 C2586 1.391 . S
C2588 C2589 1.400 . S
C2589 C2583 1.491 . S
C2589 C2588 1.400 . S
C2589 C2590 1.398 . S
C2590 H2578 0.950 . S
C2590 C2589 1.398 . S
C2590 C2591 1.391 . S
C2591 H2579 0.950 . S
C2591 C2587 1.393 . S
C2591 C2590 1.391 . S
C681 C400 1.042 . S
C687 C8 1.052 . S
C701 C22 1.043 . S
C707 C414 1.051 . S
C721 C428 1.048 . S
C727 C36 1.046 . S
C741 C50 1.046 . S
C747 C442 1.048 . S
C761 C344 1.053 . S
C767 C64 1.041 . S
C781 C78 1.053 . S
C787 C358 1.040 . S
C801 C372 1.045 . S
C807 C92 1.049 . S
C821 C106 1.044 . S
C827 C386 1.050 . S
C841 C540 1.052 . S
C847 C120 1.042 . S
C861 C554 1.041 . S
C867 C134 1.053 . S
C881 C512 1.054 . S
C887 C148 1.040 . S
C901 C162 1.055 . S
C907 C526 1.039 . S
C921 C484 1.052 . S
C927 C176 1.042 . S
C941 C498 1.043 . S
C947 C190 1.051 . S
C961 C204 1.039 . S
C967 C456 1.054 . S
C981 C470 1.053 . S
C987 C218 1.041 . S
C1001 C232 1.050 . S
C1007 C638 1.044 . S
C1021 C610 1.039 . S
C1027 C246 1.055 . S
C1041 C624 1.049 . S
C1047 C260 1.045 . S
C1061 C582 1.048 . S
C1067 C274 1.046 . S
C1081 C596 1.040 . S
C1087 C288 1.054 . S
C1101 C302 1.046 . S
C1107 C568 1.048 . S
C1121 C316 1.052 . S
C1127 C666 1.042 . S
C1141 C652 1.047 . S
C1147 C330 1.047 . S
C1161 C105 1.323 . S
C1167 C7 1.310 . S
C1181 C63 1.314 . S
C1187 C21 1.318 . S
C1201 C77 1.310 . S
C1207 C35 1.322 . S
C1221 C91 1.342 . S
C1227 C49 1.301 . S
C1241 C287 1.337 . S
C1247 C119 1.319 . S
C1261 C245 1.313 . S
C1267 C133 1.340 . S
C1281 C259 1.303 . S
C1287 C147 1.343 . S
C1301 C273 1.333 . S
C1307 C161 1.303 . S
C1321 C329 1.314 . S
C1327 C175 1.317 . S
C1341 C301 1.324 . S
C1347 C189 1.309 . S
C1361 C203 1.308 . S
C1367 C315 1.343 . S
C1381 C231 1.301 . S
C1387 C217 1.341 . S
C1401 C441 1.330 . S
C1407 C343 1.304 . S
C1421 C399 1.306 . S
C1427 C357 1.343 . S
C1441 C371 1.314 . S
C1447 C413 1.318 . S
C1461 C385 1.340 . S
C1467 C427 1.301 . S
C1481 C455 1.319 . S
C1487 C623 1.312 . S
C1501 C469 1.319 . S
C1507 C581 1.313 . S
C1521 C595 1.337 . S
C1527 C483 1.318 . S
C1541 C609 1.301 . S
C1547 C497 1.338 . S
C1561 C665 1.331 . S
C1567 C511 1.304 . S
C1581 C637 1.338 . S
C1587 C525 1.301 . S
C1601 C651 1.309 . S
C1607 C539 1.323 . S
C1621 C553 1.316 . S
C1627 C567 1.339 . S
C1641 C3 1.141 . S
C1647 C121 1.103 . S
C1661 C135 1.068 . S
C1667 C17 1.155 . S
C1681 C149 1.074 . S
C1687 C31 1.150 . S
C1701 C163 1.109 . S
C1707 C45 1.147 . S
C1721 C59 1.154 . S
C1727 C177 1.095 . S
C1741 C191 1.112 . S
C1747 C73 1.143 . S
C1761 C87 1.141 . S
C1767 C205 1.109 . S
C1781 C219 1.093 . S
C1787 C101 1.143 . S
C1801 C233 1.084 . S
C1807 C115 1.146 . S
C1821 C331 1.068 . S
C1827 C129 1.154 . S
C1841 C143 1.150 . S
C1847 C303 1.103 . S
C1861 C157 1.155 . S
C1867 C317 1.091 . S
C1881 C171 1.159 . S
C1887 C247 1.067 . S
C1901 C185 1.141 . S
C1907 C261 1.110 . S
C1921 C199 1.144 . S
C1927 C275 1.112 . S
C1941 C213 1.148 . S
C1947 C289 1.107 . S
C1961 C227 1.159 . S
C1967 C9 1.069 . S
C1981 C241 1.144 . S
C1987 C65 1.093 . S
C2001 C255 1.147 . S
C2007 C79 1.108 . S
C2021 C269 1.158 . S
C2027 C93 1.066 . S
C2041 C283 1.149 . S
C2047 C107 1.105 . S
C2061 C297 1.159 . S
C2067 C37 1.075 . S
C2081 C51 1.112 . S
C2087 C311 1.143 . S
C2101 C23 1.104 . S
C2107 C325 1.150 . S
C2121 C457 1.107 . S
C2127 C339 1.148 . S
C2141 C471 1.085 . S
C2147 C353 1.157 . S
C2161 C485 1.067 . S
C2167 C367 1.156 . S
C2181 C499 1.107 . S
C2187 C381 1.148 . S
C2201 C513 1.087 . S
C2207 C395 1.145 . S
C2221 C409 1.152 . S
C2227 C527 1.072 . S
C2241 C541 1.099 . S
C2247 C423 1.142 . S
C2261 C437 1.141 . S
C2267 C555 1.104 . S
C2281 C569 1.103 . S
C2287 C451 1.150 . S
C2301 C465 1.146 . S
C2307 C667 1.110 . S
C2321 C479 1.159 . S
C2327 C639 1.068 . S
C2341 C653 1.077 . S
C2347 C493 1.149 . S
C2361 C583 1.074 . S
C2367 C507 1.159 . S
C2381 C521 1.144 . S
C2387 C597 1.091 . S
C2401 C535 1.142 . S
C2407 C611 1.112 . S
C2421 C625 1.093 . S
C2427 C549 1.144 . S
C2441 C345 1.112 . S
C2447 C563 1.144 . S
C2461 C401 1.101 . S
C2467 C577 1.142 . S
C2481 C415 1.109 . S
C2487 C591 1.141 . S
C2501 C605 1.156 . S
C2507 C429 1.066 . S
C2521 C443 1.112 . S
C2527 C619 1.142 . S
C2541 C373 1.066 . S
C2547 C633 1.157 . S
C2561 C647 1.156 . S
C2567 C387 1.066 . S
C2581 C359 1.085 . S
C2587 C661 1.157 . S
