# Generated by pormake.
# Topology lcy-a, (4)-cn, num edge types: 1
# Building blocks:
#     Node 0, Type 0, BuildingBlock: TATPOV_clean_sbu_0, # of connection points: 4
#     Node 1, Type 0, BuildingBlock: TATPOV_clean_sbu_0, # of connection points: 4
#     Node 2, Type 0, BuildingBlock: TATPOV_clean_sbu_0, # of connection points: 4
#     Node 3, Type 0, BuildingBlock: TATPOV_clean_sbu_0, # of connection points: 4
#     Node 4, Type 0, BuildingBlock: TATPOV_clean_sbu_0, # of connection points: 4
#     Node 5, Type 0, BuildingBlock: TATPOV_clean_sbu_0, # of connection points: 4
#     Node 6, Type 0, BuildingBlock: TATPOV_clean_sbu_0, # of connection points: 4
#     Node 7, Type 0, BuildingBlock: TATPOV_clean_sbu_0, # of connection points: 4
#     Node 8, Type 0, BuildingBlock: TATPOV_clean_sbu_0, # of connection points: 4
#     Node 9, Type 0, BuildingBlock: TATPOV_clean_sbu_0, # of connection points: 4
#     Node 10, Type 0, BuildingBlock: TATPOV_clean_sbu_0, # of connection points: 4
#     Node 11, Type 0, BuildingBlock: TATPOV_clean_sbu_0, # of connection points: 4
#     Node 12, Type 0, BuildingBlock: TATPOV_clean_sbu_0, # of connection points: 4
#     Node 13, Type 0, BuildingBlock: TATPOV_clean_sbu_0, # of connection points: 4
#     Node 14, Type 0, BuildingBlock: TATPOV_clean_sbu_0, # of connection points: 4
#     Node 15, Type 0, BuildingBlock: TATPOV_clean_sbu_0, # of connection points: 4
#     Node 16, Type 0, BuildingBlock: TATPOV_clean_sbu_0, # of connection points: 4
#     Node 17, Type 0, BuildingBlock: TATPOV_clean_sbu_0, # of connection points: 4
#     Node 18, Type 0, BuildingBlock: TATPOV_clean_sbu_0, # of connection points: 4
#     Node 19, Type 0, BuildingBlock: TATPOV_clean_sbu_0, # of connection points: 4
#     Node 20, Type 0, BuildingBlock: TATPOV_clean_sbu_0, # of connection points: 4
#     Node 21, Type 0, BuildingBlock: TATPOV_clean_sbu_0, # of connection points: 4
#     Node 22, Type 0, BuildingBlock: TATPOV_clean_sbu_0, # of connection points: 4
#     Node 23, Type 0, BuildingBlock: TATPOV_clean_sbu_0, # of connection points: 4
#     Edge 24, Type (0, 0), BuildingBlock: XUDNAN_clean_linker_2, # of connection points: 2
#     Edge 25, Type (0, 0), BuildingBlock: XUDNAN_clean_linker_2, # of connection points: 2
#     Edge 26, Type (0, 0), BuildingBlock: XUDNAN_clean_linker_2, # of connection points: 2
#     Edge 27, Type (0, 0), BuildingBlock: XUDNAN_clean_linker_2, # of connection points: 2
#     Edge 28, Type (0, 0), BuildingBlock: XUDNAN_clean_linker_2, # of connection points: 2
#     Edge 29, Type (0, 0), BuildingBlock: XUDNAN_clean_linker_2, # of connection points: 2
#     Edge 30, Type (0, 0), BuildingBlock: XUDNAN_clean_linker_2, # of connection points: 2
#     Edge 31, Type (0, 0), BuildingBlock: XUDNAN_clean_linker_2, # of connection points: 2
#     Edge 32, Type (0, 0), BuildingBlock: XUDNAN_clean_linker_2, # of connection points: 2
#     Edge 33, Type (0, 0), BuildingBlock: XUDNAN_clean_linker_2, # of connection points: 2
#     Edge 34, Type (0, 0), BuildingBlock: XUDNAN_clean_linker_2, # of connection points: 2
#     Edge 35, Type (0, 0), BuildingBlock: XUDNAN_clean_linker_2, # of connection points: 2
#     Edge 36, Type (0, 0), BuildingBlock: XUDNAN_clean_linker_2, # of connection points: 2
#     Edge 37, Type (0, 0), BuildingBlock: XUDNAN_clean_linker_2, # of connection points: 2
#     Edge 38, Type (0, 0), BuildingBlock: XUDNAN_clean_linker_2, # of connection points: 2
#     Edge 39, Type (0, 0), BuildingBlock: XUDNAN_clean_linker_2, # of connection points: 2
#     Edge 40, Type (0, 0), BuildingBlock: XUDNAN_clean_linker_2, # of connection points: 2
#     Edge 41, Type (0, 0), BuildingBlock: XUDNAN_clean_linker_2, # of connection points: 2
#     Edge 42, Type (0, 0), BuildingBlock: XUDNAN_clean_linker_2, # of connection points: 2
#     Edge 43, Type (0, 0), BuildingBlock: XUDNAN_clean_linker_2, # of connection points: 2
#     Edge 44, Type (0, 0), BuildingBlock: XUDNAN_clean_linker_2, # of connection points: 2
#     Edge 45, Type (0, 0), BuildingBlock: XUDNAN_clean_linker_2, # of connection points: 2
#     Edge 46, Type (0, 0), BuildingBlock: XUDNAN_clean_linker_2, # of connection points: 2
#     Edge 47, Type (0, 0), BuildingBlock: XUDNAN_clean_linker_2, # of connection points: 2
#     Edge 48, Type (0, 0), BuildingBlock: XUDNAN_clean_linker_2, # of connection points: 2
#     Edge 49, Type (0, 0), BuildingBlock: XUDNAN_clean_linker_2, # of connection points: 2
#     Edge 50, Type (0, 0), BuildingBlock: XUDNAN_clean_linker_2, # of connection points: 2
#     Edge 51, Type (0, 0), BuildingBlock: XUDNAN_clean_linker_2, # of connection points: 2
#     Edge 52, Type (0, 0), BuildingBlock: XUDNAN_clean_linker_2, # of connection points: 2
#     Edge 53, Type (0, 0), BuildingBlock: XUDNAN_clean_linker_2, # of connection points: 2
#     Edge 54, Type (0, 0), BuildingBlock: XUDNAN_clean_linker_2, # of connection points: 2
#     Edge 55, Type (0, 0), BuildingBlock: XUDNAN_clean_linker_2, # of connection points: 2
#     Edge 56, Type (0, 0), BuildingBlock: XUDNAN_clean_linker_2, # of connection points: 2
#     Edge 57, Type (0, 0), BuildingBlock: XUDNAN_clean_linker_2, # of connection points: 2
#     Edge 58, Type (0, 0), BuildingBlock: XUDNAN_clean_linker_2, # of connection points: 2
#     Edge 59, Type (0, 0), BuildingBlock: XUDNAN_clean_linker_2, # of connection points: 2
#     Edge 60, Type (0, 0), BuildingBlock: XUDNAN_clean_linker_2, # of connection points: 2
#     Edge 61, Type (0, 0), BuildingBlock: XUDNAN_clean_linker_2, # of connection points: 2
#     Edge 62, Type (0, 0), BuildingBlock: XUDNAN_clean_linker_2, # of connection points: 2
#     Edge 63, Type (0, 0), BuildingBlock: XUDNAN_clean_linker_2, # of connection points: 2
#     Edge 64, Type (0, 0), BuildingBlock: XUDNAN_clean_linker_2, # of connection points: 2
#     Edge 65, Type (0, 0), BuildingBlock: XUDNAN_clean_linker_2, # of connection points: 2
#     Edge 66, Type (0, 0), BuildingBlock: XUDNAN_clean_linker_2, # of connection points: 2
#     Edge 67, Type (0, 0), BuildingBlock: XUDNAN_clean_linker_2, # of connection points: 2
#     Edge 68, Type (0, 0), BuildingBlock: XUDNAN_clean_linker_2, # of connection points: 2
#     Edge 69, Type (0, 0), BuildingBlock: XUDNAN_clean_linker_2, # of connection points: 2
#     Edge 70, Type (0, 0), BuildingBlock: XUDNAN_clean_linker_2, # of connection points: 2
#     Edge 71, Type (0, 0), BuildingBlock: XUDNAN_clean_linker_2, # of connection points: 2
# Relax obj value: 0.370
# Max RMSD: 0.190
# Mean RMSD: 0.190
data_MOF--net-lcy-a--node1-TATPOV_clean_sbu_0--edge1-XUDNAN_clean_linker_2
_symmetry_space_group_name_H-M    P1
_symmetry_Int_Tables_number       1
_symmetry_cell_setting            triclinic
loop_
_symmetry_equiv_pos_as_xyz
'x, y, z'
_cell_length_a     56.098147
_cell_length_b     56.122469
_cell_length_c     56.146582
_cell_angle_alpha  89.983545
_cell_angle_beta   90.003645
_cell_angle_gamma 89.955628
loop_
_atom_site_label
_atom_site_type_symbol
_atom_site_fract_x
_atom_site_fract_y
_atom_site_fract_z
_atom_type_partial_charge
Zn0 Zn 0.25428 0.29566 0.42356 0.0
Zn1 Zn 0.20912 0.29483 0.41745 0.0
O2 O 0.22226 0.25999 0.41566 0.0
O3 O 0.25954 0.26084 0.42714 0.0
O4 O 0.1743 0.28755 0.41991 0.0
O5 O 0.25318 0.31598 0.45253 0.0
O6 O 0.21452 0.31749 0.44637 0.0
C7 C 0.24162 0.24906 0.42037 0.0
C8 C 0.23652 0.31572 0.37787 0.0
O9 O 0.21566 0.31191 0.386 0.0
O10 O 0.25471 0.31017 0.39015 0.0
C11 C 0.16561 0.27181 0.40618 0.0
O12 O 0.17816 0.26492 0.38765 0.0
C13 C 0.23284 0.32368 0.4583 0.0
Zn14 Zn 0.94154 0.99418 0.61226 0.0
Zn15 Zn 0.95279 0.96006 0.63997 0.0
O16 O 0.98513 0.97663 0.63437 0.0
O17 O 0.97602 0.00144 0.60547 0.0
O18 O 0.96269 0.93556 0.66363 0.0
O19 O 0.92295 0.01162 0.63707 0.0
O20 O 0.92775 0.97962 0.6591 0.0
C21 C 0.99145 0.99176 0.61875 0.0
C22 C 0.92799 0.94931 0.59333 0.0
O23 O 0.94043 0.94126 0.61054 0.0
O24 O 0.92434 0.97145 0.59131 0.0
C25 C 0.9796 0.92121 0.65911 0.0
O26 O 0.98869 0.92068 0.63755 0.0
C27 C 0.91838 9e-05 0.65588 0.0
Zn28 Zn 0.25353 0.69929 0.84967 0.0
Zn29 Zn 0.28011 0.69768 0.88689 0.0
O30 O 0.27198 0.73321 0.87933 0.0
O31 O 0.25134 0.73441 0.84617 0.0
O32 O 0.3037 0.70368 0.91332 0.0
O33 O 0.22952 0.67981 0.86926 0.0
O34 O 0.25195 0.67964 0.90145 0.0
C35 C 0.26157 0.74512 0.86306 0.0
C36 C 0.29369 0.67158 0.84026 0.0
O37 O 0.29675 0.67485 0.86256 0.0
O38 O 0.27708 0.68234 0.82954 0.0
C39 C 0.32009 0.71824 0.90755 0.0
O40 O 0.32209 0.72449 0.88508 0.0
C41 C 0.23287 0.67351 0.89074 0.0
Zn42 Zn 0.59283 0.03873 0.14006 0.0
Zn43 Zn 0.55457 0.06082 0.15325 0.0
O44 O 0.53953 0.0296 0.14273 0.0
O45 O 0.57084 0.013 0.12602 0.0
O46 O 0.52596 0.07911 0.16409 0.0
O47 O 0.60562 0.0367 0.17323 0.0
O48 O 0.57436 0.05754 0.18434 0.0
C49 C 0.54867 0.01289 0.1305 0.0
C50 C 0.58699 0.07929 0.11251 0.0
O51 O 0.56704 0.07883 0.12344 0.0
O52 O 0.60352 0.06542 0.11899 0.0
C53 C 0.50691 0.07915 0.15185 0.0
O54 O 0.50674 0.06865 0.13093 0.0
C55 C 0.59389 0.04709 0.18942 0.0
Zn56 Zn 0.722 0.15732 0.61883 0.0
Zn57 Zn 0.69683 0.18861 0.59661 0.0
O58 O 0.72539 0.2086 0.60792 0.0
O59 O 0.74511 0.18278 0.62977 0.0
O60 O 0.67745 0.21299 0.57867 0.0
O61 O 0.72841 0.13845 0.58982 0.0
O62 O 0.70543 0.16353 0.57036 0.0
C63 C 0.74268 0.20376 0.6218 0.0
C64 C 0.67699 0.1616 0.64028 0.0
O65 O 0.67538 0.17877 0.62543 0.0
O66 O 0.69492 0.14795 0.63961 0.0
C67 C 0.67413 0.23355 0.58761 0.0
O68 O 0.6824 0.23809 0.60902 0.0
C69 C 0.71852 0.14489 0.57065 0.0
Zn70 Zn 0.10332 0.47111 0.86614 0.0
Zn71 Zn 0.06857 0.44181 0.8525 0.0
O72 O 0.05023 0.47119 0.86313 0.0
O73 O 0.07832 0.49739 0.87076 0.0
O74 O 0.04197 0.42259 0.83845 0.0
O75 O 0.12085 0.46824 0.83531 0.0
O76 O 0.08986 0.44764 0.82288 0.0
C77 C 0.05642 0.49206 0.86919 0.0
C78 C 0.09857 0.4288 0.89567 0.0
O79 O 0.08165 0.42329 0.88152 0.0
O80 O 0.11025 0.44785 0.89245 0.0
C81 C 0.0213 0.423 0.84773 0.0
O82 O 0.01842 0.43294 0.86871 0.0
C83 C 0.10992 0.4575 0.81884 0.0
Zn84 Zn 0.74942 0.79977 0.11459 0.0
Zn85 Zn 0.79166 0.79199 0.09952 0.0
O86 O 0.77628 0.75888 0.10626 0.0
O87 O 0.74109 0.76628 0.1218 0.0
O88 O 0.82255 0.77958 0.08667 0.0
O89 O 0.73955 0.81334 0.08366 0.0
O90 O 0.77687 0.81196 0.07166 0.0
C91 C 0.75681 0.75158 0.11527 0.0
C92 C 0.78511 0.82367 0.14241 0.0
O93 O 0.79989 0.81251 0.12925 0.0
O94 O 0.76291 0.8214 0.13922 0.0
C95 C 0.83281 0.76401 0.09957 0.0
O96 O 0.82543 0.76102 0.12158 0.0
C97 C 0.75519 0.81798 0.06813 0.0
Zn98 Zn 0.40414 0.53339 0.3674 0.0
Zn99 Zn 0.44111 0.5612 0.35761 0.0
O100 O 0.45822 0.53098 0.36742 0.0
O101 O 0.4283 0.50616 0.37237 0.0
O102 O 0.46835 0.58109 0.34695 0.0
O103 O 0.38934 0.53816 0.33529 0.0
O104 O 0.42228 0.55733 0.32611 0.0
C105 C 0.45055 0.51024 0.37205 0.0
C106 C 0.40836 0.574 0.39881 0.0
O107 O 0.42683 0.57863 0.38649 0.0
O108 O 0.39573 0.55593 0.39404 0.0
C109 C 0.48846 0.58097 0.35736 0.0
O110 O 0.49087 0.56961 0.37768 0.0
C111 C 0.40218 0.54865 0.32008 0.0
Zn112 Zn 0.3697 0.22382 0.30557 0.0
Zn113 Zn 0.37879 0.1834 0.28626 0.0
O114 O 0.37237 0.20636 0.25807 0.0
O115 O 0.35621 0.23762 0.27522 0.0
O116 O 0.38936 0.15439 0.26867 0.0
O117 O 0.40457 0.22855 0.31363 0.0
O118 O 0.40908 0.19042 0.30594 0.0
C119 C 0.36197 0.22646 0.25651 0.0
C120 C 0.341 0.18531 0.32399 0.0
O121 O 0.34943 0.17375 0.30637 0.0
O122 O 0.34824 0.20621 0.32842 0.0
C123 C 0.37985 0.14777 0.24925 0.0
O124 O 0.36001 0.158 0.24214 0.0
C125 C 0.41735 0.20996 0.31391 0.0
Zn126 Zn 0.01116 0.12796 0.56162 0.0
Zn127 Zn 0.04532 0.15631 0.54655 0.0
O128 O 0.02359 0.14902 0.51764 0.0
O129 O 0.99643 0.12342 0.52947 0.0
O130 O 0.0689 0.17674 0.52902 0.0
O131 O 0.00125 0.15336 0.58464 0.0
O132 O 0.03039 0.17718 0.57323 0.0
C133 C 0.00593 0.1356 0.51311 0.0
C134 C 0.05787 0.10863 0.56931 0.0
O135 O 0.0653 0.1277 0.55948 0.0
O136 O 0.03582 0.10494 0.57207 0.0
C137 C 0.07702 0.1662 0.51067 0.0
O138 O 0.07221 0.14348 0.50772 0.0
C139 C 0.01266 0.17271 0.58675 0.0
Zn140 Zn 0.10319 0.78027 0.84816 0.0
Zn141 Zn 0.09637 0.81345 0.81482 0.0
O142 O 0.10454 0.78429 0.7944 0.0
O143 O 0.11003 0.75654 0.82154 0.0
O144 O 0.08697 0.83885 0.79174 0.0
O145 O 0.06996 0.78396 0.86065 0.0
O146 O 0.06449 0.81114 0.83292 0.0
C147 C 0.10955 0.76285 0.79986 0.0
C148 C 0.13656 0.81936 0.85105 0.0
O149 O 0.12574 0.82661 0.83244 0.0
O150 O 0.12968 0.80055 0.86146 0.0
C151 C 0.085 0.83635 0.76934 0.0
O152 O 0.09271 0.81674 0.75917 0.0
C153 C 0.05674 0.79904 0.85041 0.0
Zn154 Zn 0.50804 0.82912 0.03566 0.0
Zn155 Zn 0.46313 0.8297 0.0302 0.0
O156 O 0.47944 0.83242 0.99683 0.0
O157 O 0.51689 0.8226 0.00181 0.0
O158 O 0.42896 0.82195 0.02176 0.0
O159 O 0.50858 0.80363 0.06017 0.0
O160 O 0.4701 0.8013 0.05309 0.0
C161 C 0.50003 0.82839 0.98805 0.0
C162 C 0.48471 0.87325 0.05113 0.0
O163 O 0.46514 0.86218 0.0476 0.0
O164 O 0.5044 0.8633 0.04622 0.0
C165 C 0.42025 0.82599 0.00125 0.0
O166 O 0.4321 0.83962 0.98637 0.0
C167 C 0.48865 0.79389 0.06387 0.0
Zn168 Zn 0.89396 0.248 0.70446 0.0
Zn169 Zn 0.90981 0.32671 0.70747 0.0
O170 O 0.90556 0.31329 0.74203 0.0
O171 O 0.90083 0.28119 0.72137 0.0
O172 O 0.91866 0.36065 0.71318 0.0
O173 O 0.91401 0.27984 0.69805 0.0
O174 O 0.93773 0.30916 0.68976 0.0
C175 C 0.9017 0.29107 0.74186 0.0
C176 C 0.87255 0.29987 0.68803 0.0
O177 O 0.87794 0.3219 0.68893 0.0
O178 O 0.88739 0.28534 0.69759 0.0
C179 C 0.90635 0.37118 0.729 0.0
O180 O 0.88542 0.36228 0.73457 0.0
C181 C 0.93371 0.2869 0.68899 0.0
Zn182 Zn -0.00078 0.67783 0.94632 0.0
Zn183 Zn 0.95585 0.66869 0.9613 0.0
O184 O 0.97751 0.66932 0.99113 0.0
O185 O 0.01342 0.679 0.97916 0.0
O186 O 0.92393 0.66684 0.97705 0.0
O187 O 0.98856 0.70739 0.93016 0.0
O188 O 0.95186 0.7 0.94202 0.0
C189 C -0.00073 0.67373 0.99588 0.0
C190 C 0.97934 0.633 0.92877 0.0
O191 O 0.96087 0.63839 0.94091 0.0
O192 O 0.9972 0.64681 0.92855 0.0
C193 C 0.92129 0.65548 0.99644 0.0
O194 O 0.93768 0.64 0.00281 0.0
C195 C 0.96674 0.71292 0.93083 0.0
Zn196 Zn 0.61547 0.71638 0.18951 0.0
Zn197 Zn 0.60184 0.67938 0.20792 0.0
O198 O 0.60777 0.70245 0.23608 0.0
O199 O 0.63144 0.72854 0.21925 0.0
O200 O 0.59067 0.65107 0.22584 0.0
O201 O 0.58181 0.72611 0.18221 0.0
O202 O 0.57278 0.68836 0.18692 0.0
C203 C 0.62193 0.72005 0.2378 0.0
C204 C 0.64082 0.67741 0.17136 0.0
O205 O 0.63188 0.66781 0.18985 0.0
O206 O 0.6342 0.69807 0.16524 0.0
C207 C 0.6031 0.64334 0.24311 0.0
O208 O 0.62447 0.65221 0.24665 0.0
C209 C 0.56697 0.70927 0.18022 0.0
Zn210 Zn 0.49419 0.31837 0.43774 0.0
Zn211 Zn 0.53836 0.32082 0.44825 0.0
O212 O 0.51862 0.32495 0.47943 0.0
O213 O 0.48123 0.3175 0.47072 0.0
O214 O 0.5711 0.31653 0.46235 0.0
O215 O 0.49634 0.28884 0.41929 0.0
O216 O 0.53495 0.2907 0.42613 0.0
C217 C 0.49699 0.32253 0.48593 0.0
C218 C 0.51889 0.36083 0.41948 0.0
O219 O 0.5375 0.35232 0.42941 0.0
O220 O 0.49925 0.34973 0.42083 0.0
C221 C 0.57809 0.33009 0.47909 0.0
O222 O 0.56531 0.34899 0.48442 0.0
C223 C 0.51703 0.28051 0.4165 0.0
Zn224 Zn 0.35289 0.39276 0.21139 0.0
Zn225 Zn 0.31652 0.40691 0.1878 0.0
O226 O 0.29717 0.3976 0.21688 0.0
O227 O 0.32765 0.38111 0.23536 0.0
O228 O 0.2941 0.4213 0.16374 0.0
O229 O 0.36872 0.42433 0.2155 0.0
O230 O 0.33751 0.43642 0.19532 0.0
C231 C 0.30547 0.38569 0.2343 0.0
C232 C 0.34777 0.363 0.17361 0.0
O233 O 0.32846 0.37503 0.17307 0.0
O234 O 0.36471 0.36994 0.18669 0.0
C235 C 0.27174 0.4239 0.16631 0.0
O236 O 0.26118 0.41485 0.18513 0.0
C237 C 0.3569 0.44108 0.20619 0.0
Zn238 Zn 0.79472 0.14912 0.75299 0.0
Zn239 Zn 0.78674 0.12551 0.79199 0.0
O240 O 0.75303 0.13497 0.77984 0.0
O241 O 0.76065 0.15982 0.75053 0.0
O242 O 0.77849 0.10471 0.81973 0.0
O243 O 0.80693 0.11989 0.73609 0.0
O244 O 0.80543 0.10189 0.7708 0.0
C245 C 0.74586 0.14974 0.76419 0.0
C246 C 0.81974 0.16787 0.7936 0.0
O247 O 0.80763 0.15283 0.80553 0.0
O248 O 0.81798 0.16884 0.77116 0.0
C249 C 0.76122 0.11003 0.83334 0.0
O250 O 0.7506 0.13074 0.83073 0.0
C251 C 0.81136 0.10185 0.74889 0.0
Zn252 Zn 0.09347 0.54602 0.01454 0.0
Zn253 Zn 0.13257 0.54412 0.03967 0.0
O254 O 0.12236 0.50922 0.03192 0.0
O255 O 0.08757 0.51102 0.01407 0.0
O256 O 0.16134 0.53722 0.05984 0.0
O257 O 0.11298 0.5626 0.98855 0.0
O258 O 0.14538 0.56248 0.01067 0.0
C259 C 0.10436 0.49881 0.02276 0.0
C260 C 0.0893 0.57225 0.0577 0.0
O261 O 0.11106 0.56619 0.06032 0.0
O262 O 0.07764 0.56526 0.03976 0.0
C263 C 0.15831 0.5232 0.07737 0.0
O264 O 0.13657 0.51625 0.08263 0.0
C265 C 0.13471 0.56819 0.99146 0.0
Zn266 Zn 0.66294 0.89686 0.273 0.0
Zn267 Zn 0.68788 0.90296 0.31273 0.0
O268 O 0.7136 0.89726 0.28763 0.0
O269 O 0.69382 0.89567 0.25388 0.0
O270 O 0.70885 0.9099 0.34042 0.0
O271 O 0.6463 0.92799 0.27743 0.0
O272 O 0.66907 0.93462 0.3087 0.0
C273 C 0.71341 0.89538 0.2651 0.0
C274 C 0.65537 0.86009 0.30851 0.0
O275 O 0.67011 0.87201 0.32095 0.0
O276 O 0.64959 0.86698 0.28782 0.0
C277 C 0.727 0.89678 0.34389 0.0
O278 O 0.72876 0.87653 0.33228 0.0
C279 C 0.65296 0.94142 0.29421 0.0
Zn280 Zn 0.36756 0.45324 0.51558 0.0
Zn281 Zn 0.3578 0.46401 0.5606 0.0
O282 O 0.36628 0.49597 0.54422 0.0
O283 O 0.37802 0.48644 0.50806 0.0
O284 O 0.34837 0.47666 0.59238 0.0
O285 O 0.33306 0.44329 0.51094 0.0
O286 O 0.32688 0.44784 0.54943 0.0
C287 C 0.3747 0.50191 0.52406 0.0
C288 C 0.39655 0.42804 0.55046 0.0
O289 O 0.38518 0.44009 0.56597 0.0
O290 O 0.39196 0.43022 0.52849 0.0
C291 C 0.36009 0.49355 0.60186 0.0
O292 O 0.38128 0.49884 0.59341 0.0
C293 C 0.31951 0.44172 0.5289 0.0
Zn294 Zn 0.16146 0.57854 0.74514 0.0
Zn295 Zn 0.1951 0.59193 0.68831 0.0
O296 O 0.21217 0.58673 0.72085 0.0
O297 O 0.19643 0.57531 0.75564 0.0
O298 O 0.22123 0.59155 0.66433 0.0
O299 O 0.15653 0.57904 0.70963 0.0
O300 O 0.17534 0.56239 0.681 0.0
C301 C 0.21443 0.58108 0.7429 0.0
C302 C 0.16403 0.62548 0.70782 0.0
O303 O 0.17654 0.62352 0.68904 0.0
O304 O 0.16314 0.60767 0.72183 0.0
C305 C 0.24107 0.60198 0.66739 0.0
O306 O 0.24301 0.61813 0.6842 0.0
C307 C 0.15988 0.56062 0.6972 0.0
Zn308 Zn 0.60924 0.94785 0.98216 0.0
Zn309 Zn 0.63535 0.9642 0.94632 0.0
O310 O 0.62443 0.99418 0.9651 0.0
O311 O 0.60179 0.98069 0.9941 0.0
O312 O 0.65672 0.97858 0.92156 0.0
O313 O 0.63765 0.92862 0.99354 0.0
O314 O 0.65913 0.94266 0.9639 0.0
C315 C 0.61106 0.99798 0.98304 0.0
C316 C 0.59143 0.9337 0.93627 0.0
O317 O 0.60951 0.94477 0.92804 0.0
O318 O 0.58746 0.93302 0.95842 0.0
C319 C 0.65301 -0.00065 0.91335 0.0
O320 O 0.63329 0.01058 0.9191 0.0
C321 C 0.65716 0.92945 0.9822 0.0
Zn322 Zn 0.87208 0.05815 0.46624 0.0
Zn323 Zn 0.85605 0.04139 0.42932 0.0
O324 O 0.86616 0.0122 0.44937 0.0
O325 O 0.89133 0.02874 0.47422 0.0
O326 O 0.84198 0.02433 0.40165 0.0
O327 O 0.83935 0.06222 0.47995 0.0
O328 O 0.82715 0.06017 0.44286 0.0
C329 C 0.88239 0.01026 0.46501 0.0
C330 C 0.89253 0.08011 0.42642 0.0
O331 O 0.88428 0.06142 0.41656 0.0
O332 O 0.88681 0.0849 0.44766 0.0
C333 C 0.85245 0.00583 0.39382 0.0
O334 O 0.87445 0.00148 0.40057 0.0
C335 C 0.82296 0.06473 0.46469 0.0
H336 H 0.09274 0.21267 0.51113 0.0
H337 H 0.08652 0.15029 0.46581 0.0
H338 H 0.10307 0.17302 0.43218 0.0
H339 H 0.07893 0.25727 0.46537 0.0
H340 H 0.10063 0.27822 0.47638 0.0
H341 H 0.08631 0.2578 0.49661 0.0
H342 H 0.12752 0.24212 0.51055 0.0
H343 H 0.14188 0.26278 0.49074 0.0
H344 H 0.1485 0.23142 0.4887 0.0
H345 H 0.12191 0.20157 0.40398 0.0
H346 H 0.14672 0.23229 0.38478 0.0
H347 H 0.14118 0.27615 0.44827 0.0
C348 C 0.09476 0.20386 0.4941 0.0
C349 C 0.08827 0.17974 0.4911 0.0
C350 C 0.09141 0.16875 0.46859 0.0
C351 C 0.10057 0.18157 0.44927 0.0
C352 C 0.10654 0.20537 0.45272 0.0
C353 C 0.10405 0.21636 0.47462 0.0
C354 C 0.11368 0.24154 0.47402 0.0
C355 C 0.09369 0.25978 0.47835 0.0
C356 C 0.13411 0.24463 0.49206 0.0
C357 C 0.1226 0.2427 0.44857 0.0
C358 C 0.11782 0.22184 0.43645 0.0
C359 C 0.12561 0.2181 0.41319 0.0
C360 C 0.13963 0.23571 0.4024 0.0
C361 C 0.14596 0.25662 0.41501 0.0
C362 C 0.13648 0.26049 0.43803 0.0
H363 H 0.01457 0.88693 0.65644 0.0
H364 H 0.97237 0.92812 0.70663 0.0
H365 H 0.99609 0.91199 0.73975 0.0
H366 H 0.02067 0.83442 0.69481 0.0
H367 H 0.05066 0.82831 0.68501 0.0
H368 H 0.0299 0.84267 0.66517 0.0
H369 H 0.05973 0.87746 0.65956 0.0
H370 H 0.08038 0.86342 0.67973 0.0
H371 H 0.07037 0.89343 0.6853 0.0
H372 H 0.02591 0.89438 0.76693 0.0
H373 H 0.05622 0.87077 0.78796 0.0
H374 H 0.07818 0.83899 0.72085 0.0
C375 C 0.01014 0.89231 0.67442 0.0
C376 C 0.99171 0.90889 0.67893 0.0
C377 C 0.98638 0.91543 0.70272 0.0
C378 C -0.00015 0.90649 0.72167 0.0
C379 C 0.01835 0.8908 0.71656 0.0
C380 C 0.02322 0.8833 0.69365 0.0
C381 C 0.04386 0.86585 0.69328 0.0
C382 C 0.03578 0.84136 0.68403 0.0
C383 C 0.06482 0.87563 0.6786 0.0
C384 C 0.0499 0.86496 0.71957 0.0
C385 C 0.03513 0.87977 0.73255 0.0
C386 C 0.03745 0.88251 0.75705 0.0
C387 C 0.05487 0.86912 0.76879 0.0
C388 C 0.06951 0.85294 0.75606 0.0
C389 C 0.06722 0.85117 0.73106 0.0
H390 H 0.35077 0.75534 0.90064 0.0
H391 H 0.31988 0.71118 0.9561 0.0
H392 H 0.33998 0.73583 0.98666 0.0
H393 H 0.40748 0.76483 0.92852 0.0
H394 H 0.40978 0.79515 0.91818 0.0
H395 H 0.39317 0.77367 0.90115 0.0
H396 H 0.35616 0.80135 0.9028 0.0
H397 H 0.37256 0.82271 0.92024 0.0
H398 H 0.34481 0.81089 0.93128 0.0
H399 H 0.36384 0.76557 0.01107 0.0
H400 H 0.39152 0.79588 0.02703 0.0
H401 H 0.40522 0.82096 0.95517 0.0
C402 C 0.34835 0.75064 0.91919 0.0
C403 C 0.3338 0.73124 0.92597 0.0
C404 C 0.33102 0.72589 0.95048 0.0
C405 C 0.34224 0.73988 0.96795 0.0
C406 C 0.35603 0.75921 0.9606 0.0
C407 C 0.3592 0.76447 0.93678 0.0
C408 C 0.37498 0.78607 0.93342 0.0
C409 C 0.3977 0.77953 0.91951 0.0
C410 C 0.3613 0.80646 0.92121 0.0
C411 C 0.3805 0.79202 0.9591 0.0
C412 C 0.36932 0.77645 0.97455 0.0
C413 C 0.37258 0.77793 -0.00088 0.0
C414 C 0.38827 0.79527 0.00802 0.0
C415 C 0.4005 0.81089 0.99238 0.0
C416 C 0.39597 0.80954 0.96767 0.0
H417 H 0.50077 0.09802 0.19629 0.0
H418 H 0.46258 0.0811 0.13119 0.0
H419 H 0.42495 0.0944 0.1499 0.0
H420 H 0.45578 0.0785 0.23693 0.0
H421 H 0.46116 0.10215 0.25796 0.0
H422 H 0.48506 0.09151 0.23936 0.0
H423 H 0.49225 0.13433 0.22352 0.0
H424 H 0.46865 0.14513 0.24236 0.0
H425 H 0.46774 0.15075 0.21077 0.0
H426 H 0.39155 0.11034 0.17586 0.0
H427 H 0.36574 0.12936 0.20615 0.0
H428 H 0.42622 0.134 0.25418 0.0
C429 C 0.48455 0.09718 0.18587 0.0
C430 C 0.48461 0.08852 0.16227 0.0
C431 C 0.46296 0.0877 0.1493 0.0
C432 C 0.44149 0.09511 0.1598 0.0
C433 C 0.44202 0.10318 0.18327 0.0
C434 C 0.46304 0.10435 0.19607 0.0
C435 C 0.459 0.11399 0.22086 0.0
C436 C 0.46564 0.09542 0.23989 0.0
C437 C 0.47272 0.13744 0.22458 0.0
C438 C 0.4324 0.11814 0.22004 0.0
C439 C 0.42287 0.11182 0.19825 0.0
C440 C 0.39879 0.1152 0.19305 0.0
C441 C 0.38426 0.12592 0.21037 0.0
C442 C 0.3939 0.13302 0.23258 0.0
C443 C 0.41816 0.12849 0.23754 0.0
H444 H 0.65639 0.2306 0.54211 0.0
H445 H 0.66444 0.27929 0.60166 0.0
H446 H 0.64444 0.31088 0.57847 0.0
H447 H 0.6656 0.27477 0.495 0.0
H448 H 0.64364 0.26152 0.47568 0.0
H449 H 0.66003 0.24317 0.49634 0.0
H450 H 0.62041 0.22782 0.51448 0.0
H451 H 0.60395 0.24589 0.49374 0.0
H452 H 0.59877 0.249 0.52527 0.0
H453 H 0.62158 0.33648 0.54962 0.0
H454 H 0.59547 0.35321 0.51842 0.0
H455 H 0.60277 0.28789 0.47763 0.0
C456 C 0.65411 0.24794 0.55025 0.0
C457 C 0.66203 0.25246 0.57371 0.0
C458 C 0.65857 0.27539 0.58371 0.0
C459 C 0.64733 0.2935 0.57063 0.0
C460 C 0.63979 0.28847 0.54753 0.0
C461 C 0.64299 0.26623 0.53745 0.0
C462 C 0.63217 0.26504 0.51277 0.0
C463 C 0.65152 0.26088 0.49383 0.0
C464 C 0.61266 0.24581 0.51151 0.0
C465 C 0.62176 0.28986 0.51082 0.0
C466 C 0.62664 0.30322 0.53091 0.0
C467 C 0.61783 0.32627 0.53371 0.0
C468 C 0.60304 0.33564 0.51585 0.0
C469 C 0.59708 0.32191 0.49552 0.0
C470 C 0.60716 0.29897 0.49279 0.0
H471 H 0.95379 0.38247 0.73021 0.0
H472 H 0.88712 0.39349 0.76793 0.0
H473 H 0.90937 0.4096 0.80225 0.0
H474 H 0.98483 0.36043 0.77735 0.0
H475 H 0.01303 0.37412 0.77037 0.0
H476 H 0.99211 0.36778 0.74695 0.0
H477 H 0.99226 0.41203 0.73375 0.0
H478 H 0.01381 0.41843 0.75667 0.0
H479 H 0.98631 0.43502 0.75538 0.0
H480 H 0.93918 0.41889 0.8345 0.0
H481 H 0.97415 0.4253 0.86047 0.0
H482 H 0.021 0.40693 0.80168 0.0
C483 C 0.94374 0.38908 0.74529 0.0
C484 C 0.91868 0.38669 0.74636 0.0
C485 C 0.90631 0.39522 0.76665 0.0
C486 C 0.9188 0.40429 0.7863 0.0
C487 C 0.94361 0.4049 0.78524 0.0
C488 C 0.95592 0.39798 0.76506 0.0
C489 C 0.98258 0.39859 0.76907 0.0
C490 C 0.99377 0.37376 0.76574 0.0
C491 C 0.99444 0.41713 0.75275 0.0
C492 C 0.98335 0.40629 0.79485 0.0
C493 C 0.96073 0.40999 0.80385 0.0
C494 C 0.957 0.41639 0.82754 0.0
C495 C 0.97697 0.41978 0.8422 0.0
C496 C 0.00033 0.41664 0.83312 0.0
C497 C 0.00341 0.40949 0.8092 0.0
H498 H 0.84492 0.75997 0.05243 0.0
H499 H 0.85491 0.72634 0.12139 0.0
H500 H 0.87559 0.69271 0.10195 0.0
H501 H 0.83302 0.70687 0.01985 0.0
H502 H 0.84884 0.71629 0.99354 0.0
H503 H 0.83538 0.73813 0.01283 0.0
H504 H 0.87604 0.75952 0.01787 0.0
H505 H 0.88945 0.73813 0.9981 0.0
H506 H 0.90166 0.74263 0.02745 0.0
H507 H 0.89475 0.66243 0.07475 0.0
H508 H 0.91504 0.64036 0.04253 0.0
H509 H 0.89116 0.69352 0.99158 0.0
C510 C 0.85173 0.74572 0.06353 0.0
C511 C 0.8483 0.74582 0.08845 0.0
C512 C 0.85738 0.72671 0.10226 0.0
C513 C 0.86898 0.70742 0.09138 0.0
C514 C 0.87132 0.70752 0.06668 0.0
C515 C 0.86322 0.72632 0.05298 0.0
C516 C 0.86825 0.72231 0.02683 0.0
C517 C 0.84498 0.72081 0.01242 0.0
C518 C 0.88484 0.74179 0.01699 0.0
C519 C 0.88064 0.69839 0.02797 0.0
C520 C 0.88208 0.69003 0.05106 0.0
C521 C 0.89367 0.66876 0.05658 0.0
C522 C 0.90501 0.65626 0.03812 0.0
C523 C 0.90471 0.66517 0.0145 0.0
C524 C 0.89159 0.68606 0.00937 0.0
H525 H 0.55695 0.62851 0.24391 0.0
H526 H 0.62254 0.6268 0.28493 0.0
H527 H 0.60058 0.60946 0.31899 0.0
H528 H 0.52099 0.64823 0.2896 0.0
H529 H 0.49517 0.63113 0.2811 0.0
H530 H 0.51649 0.63998 0.25889 0.0
H531 H 0.52243 0.59596 0.24615 0.0
H532 H 0.50065 0.58698 0.26794 0.0
H533 H 0.53003 0.57396 0.26829 0.0
H534 H 0.57024 0.59549 0.34973 0.0
H535 H 0.53476 0.58397 0.37335 0.0
H536 H 0.48981 0.59744 0.31182 0.0
C537 C 0.56691 0.62395 0.25979 0.0
C538 C 0.59146 0.62896 0.26176 0.0
C539 C 0.60372 0.62299 0.28301 0.0
C540 C 0.59139 0.61322 0.30246 0.0
C541 C 0.56692 0.60957 0.30025 0.0
C542 C 0.55492 0.61453 0.27932 0.0
C543 C 0.52843 0.61062 0.2818 0.0
C544 C 0.51447 0.63388 0.27761 0.0
C545 C 0.51989 0.59069 0.26506 0.0
C546 C 0.52728 0.60302 0.30753 0.0
C547 C 0.54959 0.6023 0.31792 0.0
C548 C 0.5527 0.59586 0.34171 0.0
C549 C 0.53247 0.5895 0.35502 0.0
C550 C 0.50953 0.58989 0.34446 0.0
C551 C 0.50705 0.59706 0.32051 0.0
H552 H 0.22333 0.43126 0.16421 0.0
H553 H 0.29012 0.45233 0.13125 0.0
H554 H 0.26853 0.48104 0.10596 0.0
H555 H 0.18776 0.43508 0.11025 0.0
H556 H 0.16183 0.44615 0.12565 0.0
H557 H 0.18263 0.42704 0.14091 0.0
H558 H 0.18757 0.45901 0.17385 0.0
H559 H 0.16703 0.47835 0.15852 0.0
H560 H 0.19654 0.48877 0.16575 0.0
H561 H 0.23992 0.50847 0.08518 0.0
H562 H 0.20575 0.53014 0.06782 0.0
H563 H 0.15762 0.49078 0.11388 0.0
C564 C 0.23341 0.44179 0.15157 0.0
C565 C 0.25843 0.43957 0.14978 0.0
C566 C 0.27093 0.45364 0.13293 0.0
C567 C 0.25885 0.47011 0.11854 0.0
C568 C 0.23425 0.47217 0.12107 0.0
C569 C 0.22161 0.45819 0.13693 0.0
C570 C 0.1952 0.46366 0.13585 0.0
C571 C 0.18102 0.44168 0.12767 0.0
C572 C 0.18606 0.47301 0.15993 0.0
C573 C 0.19501 0.48304 0.11708 0.0
C574 C 0.21772 0.48776 0.10886 0.0
C575 C 0.22203 0.50489 0.09141 0.0
C576 C 0.20251 0.51717 0.08173 0.0
C577 C 0.179 0.51217 0.08947 0.0
C578 C 0.17536 0.49509 0.10762 0.0
H579 H 0.65361 0.04605 0.8992 0.0
H580 H 0.69617 0.98136 0.89918 0.0
H581 H 0.72968 0.00347 0.88123 0.0
H582 H 0.67462 0.06888 0.84324 0.0
H583 H 0.67433 0.09944 0.85311 0.0
H584 H 0.65388 0.07832 0.86589 0.0
H585 H 0.66964 0.08888 0.90801 0.0
H586 H 0.69045 0.10975 0.89529 0.0
H587 H 0.70104 0.08611 0.91428 0.0
H588 H 0.75848 0.03259 0.86328 0.0
H589 H 0.7794 0.06592 0.84365 0.0
H590 H 0.71813 0.11158 0.85614 0.0
C591 C 0.66989 0.03645 0.89526 0.0
C592 C 0.67225 0.01197 0.90058 0.0
C593 C 0.69393 0.00012 0.89523 0.0
C594 C 0.71311 0.01254 0.88516 0.0
C595 C 0.71033 0.03678 0.88062 0.0
C596 C 0.68921 0.04857 0.88531 0.0
C597 C 0.69071 0.07458 0.8784 0.0
C598 C 0.6723 0.08065 0.859 0.0
C599 C 0.68779 0.09078 0.9003 0.0
C600 C 0.71589 0.07553 0.86882 0.0
C601 C 0.72697 0.05359 0.87043 0.0
C602 C 0.75002 0.04988 0.86198 0.0
C603 C 0.76177 0.06893 0.85093 0.0
C604 C 0.75041 0.09136 0.84839 0.0
C605 C 0.7274 0.09475 0.85801 0.0
H606 H 0.73101 0.94124 0.36305 0.0
H607 H 0.77147 0.87682 0.34871 0.0
H608 H 0.80864 0.89794 0.35932 0.0
H609 H 0.77083 0.9804 0.33691 0.0
H610 H 0.76667 0.00406 0.35821 0.0
H611 H 0.74293 0.98326 0.3526 0.0
H612 H 0.74094 0.97236 0.39745 0.0
H613 H 0.76418 0.99368 0.40333 0.0
H614 H 0.76772 0.96315 0.41266 0.0
H615 H 0.84171 0.92741 0.36834 0.0
H616 H 0.86737 0.96154 0.37924 0.0
H617 H 0.80455 0.0064 0.38543 0.0
C618 C 0.74757 0.93131 0.3627 0.0
C619 C 0.74833 0.90738 0.35504 0.0
C620 C 0.77044 0.89516 0.35463 0.0
C621 C 0.79166 0.90703 0.36048 0.0
C622 C 0.79036 0.93104 0.36671 0.0
C623 C 0.76881 0.9429 0.36821 0.0
C624 C 0.77216 0.96889 0.37425 0.0
C625 C 0.76258 0.98509 0.3543 0.0
C626 C 0.76057 0.97486 0.39836 0.0
C627 C 0.799 0.96993 0.37566 0.0
C628 C 0.80924 0.94796 0.37133 0.0
C629 C 0.83387 0.94468 0.37187 0.0
C630 C 0.84829 0.9642 0.37788 0.0
C631 C 0.83798 0.98665 0.38315 0.0
C632 C 0.81305 0.98955 0.38137 0.0
H633 H 0.24345 0.56071 0.64209 0.0
H634 H 0.28754 0.61771 0.67016 0.0
H635 H 0.32372 0.59538 0.65805 0.0
H636 H 0.27913 0.51383 0.66322 0.0
H637 H 0.27395 0.49486 0.63784 0.0
H638 H 0.25172 0.51628 0.64662 0.0
H639 H 0.25234 0.53515 0.60442 0.0
H640 H 0.27407 0.51336 0.59534 0.0
H641 H 0.28033 0.54466 0.59183 0.0
H642 H 0.35509 0.56567 0.64313 0.0
H643 H 0.37828 0.53267 0.62516 0.0
H644 H 0.31241 0.49477 0.61074 0.0
C645 C 0.26064 0.56886 0.64533 0.0
C646 C 0.26265 0.59109 0.65691 0.0
C647 C 0.28558 0.60079 0.66111 0.0
C648 C 0.3062 0.58817 0.65444 0.0
C649 C 0.30348 0.56583 0.64388 0.0
C650 C 0.28121 0.55639 0.63929 0.0
C651 C 0.28279 0.53175 0.62866 0.0
C652 C 0.27121 0.51309 0.64507 0.0
C653 C 0.27174 0.53121 0.60358 0.0
C654 C 0.30949 0.52874 0.62779 0.0
C655 C 0.32123 0.54853 0.63653 0.0
C656 C 0.34605 0.55004 0.63639 0.0
C657 C 0.35907 0.53116 0.62629 0.0
C658 C 0.34719 0.51106 0.6167 0.0
C659 C 0.32213 0.50968 0.61819 0.0
H660 H 0.30863 0.39754 0.54355 0.0
H661 H 0.28017 0.45826 0.50573 0.0
H662 H 0.24535 0.43428 0.49317 0.0
H663 H 0.30115 0.36006 0.50001 0.0
H664 H 0.2938 0.3339 0.51714 0.0
H665 H 0.31075 0.35731 0.53055 0.0
H666 H 0.27945 0.36073 0.56435 0.0
H667 H 0.26226 0.33718 0.55084 0.0
H668 H 0.24853 0.36555 0.55705 0.0
H669 H 0.21938 0.40232 0.4773 0.0
H670 H 0.20885 0.36573 0.45526 0.0
H671 H 0.25612 0.32487 0.50039 0.0
C672 C 0.29429 0.40597 0.53376 0.0
C673 C 0.29644 0.42975 0.52617 0.0
C674 C 0.2783 0.44016 0.51218 0.0
C675 C 0.25845 0.42668 0.50511 0.0
C676 C 0.25725 0.40277 0.51195 0.0
C677 C 0.2748 0.39249 0.52599 0.0
C678 C 0.27265 0.36561 0.52629 0.0
C679 C 0.29594 0.35355 0.51797 0.0
C680 C 0.26527 0.35675 0.55111 0.0
C681 C 0.25263 0.36221 0.50854 0.0
C682 C 0.24306 0.38383 0.50148 0.0
C683 C 0.2263 0.38529 0.48312 0.0
C684 C 0.2203 0.3644 0.47074 0.0
C685 C 0.23162 0.34262 0.47637 0.0
C686 C 0.24696 0.34134 0.4962 0.0
H687 H 0.89022 0.03918 0.64999 0.0
H688 H 0.90882 0.98462 0.70157 0.0
H689 H 0.8813 0.00319 0.73075 0.0
H690 H 0.88738 0.08738 0.68979 0.0
H691 H 0.8625 0.10143 0.67509 0.0
H692 H 0.88267 0.08299 0.65833 0.0
H693 H 0.84719 0.05701 0.64415 0.0
H694 H 0.82688 0.07535 0.66094 0.0
H695 H 0.8277 0.04362 0.66588 0.0
H696 H 0.85291 0.02959 0.75486 0.0
H697 H 0.82694 0.06113 0.77154 0.0
H698 H 0.82719 0.09719 0.70313 0.0
C699 C 0.88852 0.03099 0.66738 0.0
C700 C 0.90174 0.01047 0.67353 0.0
C701 C 0.89884 0.00034 0.69646 0.0
C702 C 0.88324 0.01074 0.71311 0.0
C703 C 0.87055 0.03108 0.70641 0.0
C704 C 0.87301 0.04097 0.68401 0.0
C705 C 0.85795 0.06312 0.68117 0.0
C706 C 0.87356 0.08502 0.67579 0.0
C707 C 0.8388 0.05955 0.66189 0.0
C708 C 0.84697 0.06458 0.70567 0.0
C709 C 0.85424 0.0459 0.72 0.0
C710 C 0.84697 0.04416 0.7437 0.0
C711 C 0.8322 0.06215 0.75301 0.0
C712 C 0.82495 0.08164 0.73865 0.0
C713 C 0.83224 0.08251 0.71459 0.0
H714 H 0.23353 0.65586 0.93676 0.0
H715 H 0.1921 0.65529 0.87137 0.0
H716 H 0.16342 0.62772 0.88978 0.0
H717 H 0.22533 0.59409 0.95146 0.0
H718 H 0.22271 0.59915 0.98306 0.0
H719 H 0.24011 0.61919 0.96501 0.0
H720 H 0.21498 0.65489 0.98003 0.0
H721 H 0.19761 0.63499 0.99825 0.0
H722 H 0.183 0.65411 0.97698 0.0
H723 H 0.13915 0.6003 0.91487 0.0
H724 H 0.12017 0.57539 0.94561 0.0
H725 H 0.17711 0.59297 0.99498 0.0
C726 C 0.21836 0.65005 0.92636 0.0
C727 C 0.2151 0.65788 0.9026 0.0
C728 C 0.19501 0.64972 0.88961 0.0
C729 C 0.17861 0.63396 0.89988 0.0
C730 C 0.18243 0.62646 0.92321 0.0
C731 C 0.20172 0.63427 0.93636 0.0
C732 C 0.20147 0.6235 0.96117 0.0
C733 C 0.22373 0.60806 0.96541 0.0
C734 C 0.19912 0.64304 0.98023 0.0
C735 C 0.1791 0.60836 0.95981 0.0
C736 C 0.16842 0.6104 0.93773 0.0
C737 C 0.14734 0.59853 0.93223 0.0
C738 C 0.13669 0.58441 0.94984 0.0
C739 C 0.14714 0.58213 0.97272 0.0
C740 C 0.16878 0.59415 0.97762 0.0
H741 H 0.63892 0.04014 0.20547 0.0
H742 H 0.56566 0.04501 0.22912 0.0
H743 H 0.57696 0.0271 0.26763 0.0
H744 H 0.64927 0.98679 0.2222 0.0
H745 H 0.67962 0.98985 0.23233 0.0
H746 H 0.66794 0.01046 0.21105 0.0
H747 H 0.67861 0.04572 0.23882 0.0
H748 H 0.69053 0.02502 0.26034 0.0
H749 H 0.66784 0.04604 0.26906 0.0
H750 H 0.59251 0.99688 0.29558 0.0
H751 H 0.61144 0.9602 0.31101 0.0
H752 H 0.67562 0.9766 0.27194 0.0
C753 C 0.62556 0.03854 0.21929 0.0
C754 C 0.60148 0.04388 0.21441 0.0
C755 C 0.58428 0.04129 0.23262 0.0
C756 C 0.59059 0.03111 0.25459 0.0
C757 C 0.61426 0.02429 0.25825 0.0
C758 C 0.63168 0.02859 0.24131 0.0
C759 C 0.65479 0.01612 0.24756 0.0
C760 C 0.66335 -0.00016 0.22709 0.0
C761 C 0.67408 0.03432 0.25436 0.0
C762 C 0.64692 0.00194 0.26909 0.0
C763 C 0.62369 0.00742 0.27551 0.0
C764 C 0.61103 0.99324 0.2916 0.0
C765 C 0.62188 0.97246 0.30039 0.0
C766 C 0.64521 0.96632 0.29329 0.0
C767 C 0.65821 0.9818 0.27848 0.0
H768 H 0.73827 0.10101 0.56808 0.0
H769 H 0.71321 0.15913 0.52379 0.0
H770 H 0.73139 0.13974 0.48851 0.0
H771 H 0.79296 0.09889 0.54545 0.0
H772 H 0.79693 0.06707 0.54737 0.0
H773 H 0.77669 0.08177 0.56722 0.0
H774 H 0.74234 0.05423 0.55324 0.0
H775 H 0.76264 0.0392 0.53338 0.0
H776 H 0.73547 0.05202 0.52195 0.0
H777 H 0.7589 0.11758 0.45983 0.0
H778 H 0.79331 0.09636 0.4418 0.0
H779 H 0.80112 0.05458 0.50617 0.0
C780 C 0.73585 0.10932 0.55084 0.0
C781 C 0.72432 0.13156 0.54866 0.0
C782 C 0.72177 0.14195 0.52582 0.0
C783 C 0.73205 0.13103 0.5057 0.0
C784 C 0.74449 0.10965 0.50876 0.0
C785 C 0.74613 0.09883 0.53084 0.0
C786 C 0.76329 0.07809 0.5306 0.0
C787 C 0.78366 0.0817 0.54871 0.0
C788 C 0.75014 0.05449 0.53505 0.0
C789 C 0.77217 0.07963 0.5053 0.0
C790 C 0.7607 0.09742 0.49263 0.0
C791 C 0.7676 0.10331 0.46945 0.0
C792 C 0.78711 0.09118 0.45932 0.0
C793 C 0.79969 0.07389 0.47268 0.0
C794 C 0.79162 0.06764 0.49558 0.0
H795 H 0.11741 0.5461 0.71449 0.0
H796 H 0.19052 0.52351 0.7045 0.0
H797 H 0.18295 0.48785 0.72929 0.0
H798 H 0.11232 0.53318 0.77203 0.0
H799 H 0.08211 0.52226 0.77159 0.0
H800 H 0.09189 0.54278 0.74915 0.0
H801 H 0.07934 0.51299 0.71619 0.0
H802 H 0.06947 0.49225 0.73866 0.0
H803 H 0.09092 0.48302 0.7166 0.0
H804 H 0.17045 0.46167 0.76294 0.0
H805 H 0.1529 0.44512 0.79986 0.0
H806 H 0.08652 0.48124 0.78467 0.0
C807 C 0.13146 0.53305 0.71677 0.0
C808 C 0.15439 0.53721 0.7075 0.0
C809 C 0.17269 0.52026 0.71115 0.0
C810 C 0.16853 0.5 0.72519 0.0
C811 C 0.14582 0.4967 0.73478 0.0
C812 C 0.1274 0.51247 0.7302 0.0
C813 C 0.10537 0.5063 0.74446 0.0
C814 C 0.0975 0.52737 0.76024 0.0
C815 C 0.08508 0.49815 0.72799 0.0
C816 C 0.11479 0.48574 0.75915 0.0
C817 C 0.1381 0.48026 0.75315 0.0
C818 C 0.1519 0.46494 0.7671 0.0
C819 C 0.14184 0.45558 0.78799 0.0
C820 C 0.11815 0.46122 0.79436 0.0
C821 C 0.10425 0.47573 0.77935 0.0
H822 H 0.65341 0.88605 0.00277 0.0
H823 H 0.70543 0.9373 0.97777 0.0
H824 H 0.7381 0.91095 0.99198 0.0
H825 H 0.68113 0.87016 0.05496 0.0
H826 H 0.67308 0.83912 0.05338 0.0
H827 H 0.65476 0.86107 0.03902 0.0
H828 H 0.6593 0.83845 -0.00106 0.0
H829 H 0.67795 0.81653 0.01323 0.0
H830 H 0.68867 0.83234 0.98743 0.0
H831 H 0.7646 0.88059 0.0141 0.0
H832 H 0.78137 0.85032 0.04175 0.0
H833 H 0.71133 0.8186 0.04878 0.0
C834 C 0.67169 0.89165 0.0001 0.0
C835 C 0.67698 0.91374 0.98946 0.0
C836 C 0.70108 0.92038 0.98596 0.0
C837 C 0.7197 0.90549 0.99387 0.0
C838 C 0.71381 0.88381 0.00458 0.0
C839 C 0.69031 0.87687 0.00733 0.0
C840 C 0.6883 0.85345 0.02033 0.0
C841 C 0.67346 0.85613 0.04328 0.0
C842 C 0.67794 0.83405 0.004 0.0
C843 C 0.71424 0.8488 0.02568 0.0
C844 C 0.72888 0.86621 0.01624 0.0
C845 C 0.75334 0.8666 0.0211 0.0
C846 C 0.76277 0.84928 0.0367 0.0
C847 C 0.74763 0.83212 0.04728 0.0
C848 C 0.72336 0.83141 0.0408 0.0
H849 H 0.40039 0.45773 0.21998 0.0
H850 H 0.32771 0.48008 0.20641 0.0
H851 H 0.33555 0.51806 0.22693 0.0
H852 H 0.40366 0.47403 0.27507 0.0
H853 H 0.43389 0.48489 0.27568 0.0
H854 H 0.42525 0.46344 0.25374 0.0
H855 H 0.43936 0.49168 0.22007 0.0
H856 H 0.44826 0.51333 0.24208 0.0
H857 H 0.42798 0.52169 0.21862 0.0
H858 H 0.34648 0.5455 0.25948 0.0
H859 H 0.36124 0.56201 0.29754 0.0
H860 H 0.42826 0.52531 0.28767 0.0
C861 C 0.38652 0.47115 0.22032 0.0
C862 C 0.36347 0.46599 0.21168 0.0
C863 C 0.34558 0.48375 0.21271 0.0
C864 C 0.3499 0.50542 0.22436 0.0
C865 C 0.37239 0.50934 0.23422 0.0
C866 C 0.39069 0.49298 0.23163 0.0
C867 C 0.41204 0.49969 0.24671 0.0
C868 C 0.41907 0.47932 0.2638 0.0
C869 C 0.43316 0.50704 0.23092 0.0
C870 C 0.40205 0.52095 0.25999 0.0
C871 C 0.3793 0.52658 0.25221 0.0
C872 C 0.36467 0.54217 0.26497 0.0
C873 C 0.37314 0.5515 0.28656 0.0
C874 C 0.39615 0.54557 0.29484 0.0
C875 C 0.4111 0.53103 0.2809 0.0
H876 H 0.51667 0.28606 0.36966 0.0
H877 H 0.51856 0.23274 0.42495 0.0
H878 H 0.50174 0.20314 0.39713 0.0
H879 H 0.46356 0.27763 0.35569 0.0
H880 H 0.4644 0.2821 0.32389 0.0
H881 H 0.48682 0.2953 0.34224 0.0
H882 H 0.52021 0.2743 0.31844 0.0
H883 H 0.49787 0.26148 0.29922 0.0
H884 H 0.51915 0.24251 0.31403 0.0
H885 H 0.47368 0.18395 0.36885 0.0
H886 H 0.43772 0.17764 0.3441 0.0
H887 H 0.44987 0.24525 0.30914 0.0
C888 C 0.51529 0.26759 0.37513 0.0
C889 C 0.51956 0.26132 0.39901 0.0
C890 C 0.51623 0.23753 0.4064 0.0
C891 C 0.50647 0.22068 0.39069 0.0
C892 C 0.50004 0.22805 0.36778 0.0
C893 C 0.50474 0.25099 0.35986 0.0
C894 C 0.49103 0.25661 0.33727 0.0
C895 C 0.47554 0.2792 0.33999 0.0
C896 C 0.50808 0.25885 0.31598 0.0
C897 C 0.47596 0.2344 0.33518 0.0
C898 C 0.48227 0.21758 0.35209 0.0
C899 C 0.46907 0.19669 0.35513 0.0
C900 C 0.44864 0.19326 0.34107 0.0
C901 C 0.44122 0.21101 0.32481 0.0
C902 C 0.45543 0.23139 0.32137 0.0
H903 H 0.00795 0.22184 0.58707 0.0
H904 H 0.00205 0.15866 0.63119 0.0
H905 H 0.98675 0.18293 0.66426 0.0
H906 H 0.0227 0.2649 0.63677 0.0
H907 H 0.0046 0.28816 0.62397 0.0
H908 H 0.0192 0.2668 0.60491 0.0
H909 H 0.97854 0.25613 0.58582 0.0
H910 H 0.96387 0.27736 0.60483 0.0
H911 H 0.95429 0.2467 0.60466 0.0
H912 H 0.96696 0.21156 0.68999 0.0
H913 H 0.94321 0.2439 0.70767 0.0
H914 H 0.96117 0.28998 0.64832 0.0
C915 C 0.00411 0.21339 0.60399 0.0
C916 C 0.00633 0.18846 0.60676 0.0
C917 C 0.00048 0.17776 0.62881 0.0
C918 C 0.99193 0.1914 0.64773 0.0
C919 C 0.98925 0.2158 0.64437 0.0
C920 C 0.99517 0.22684 0.62315 0.0
C921 C 0.98791 0.25294 0.62362 0.0
C922 C 0.00992 0.26916 0.62224 0.0
C923 C 0.97009 0.2586 0.60354 0.0
C924 C 0.97617 0.25444 0.64797 0.0
C925 C 0.97756 0.2328 0.65967 0.0
C926 C 0.9662 0.22876 0.68132 0.0
C927 C 0.95268 0.24718 0.69117 0.0
C928 C 0.95073 0.2694 0.67948 0.0
C929 C 0.96302 0.27332 0.65786 0.0
H930 H 0.96129 0.71682 0.88392 0.0
H931 H 0.95985 0.75687 0.94934 0.0
H932 H 0.97075 0.79325 0.92757 0.0
H933 H 0.00921 0.73081 0.86643 0.0
H934 H 0.00554 0.73482 0.83475 0.0
H935 H 0.98488 0.7168 0.8507 0.0
H936 H 0.94974 0.74256 0.83594 0.0
H937 H 0.97044 0.76066 0.81928 0.0
H938 H 0.95024 0.7744 0.84013 0.0
H939 H 0.99902 0.81688 0.90573 0.0
H940 H 0.03701 0.82581 0.88555 0.0
H941 H 0.02168 0.7725 0.83242 0.0
C942 C 0.96135 0.73382 0.89303 0.0
C943 C 0.95948 0.7344 0.91799 0.0
C944 C 0.96064 0.75636 0.93006 0.0
C945 C 0.96698 0.77711 0.91773 0.0
C946 C 0.97193 0.77549 0.89338 0.0
C947 C 0.9682 0.75448 0.88084 0.0
C948 C 0.9802 0.75535 0.85663 0.0
C949 C 0.9959 0.73318 0.85194 0.0
C950 C 0.96154 0.75844 0.83683 0.0
C951 C 0.99483 0.77782 0.85942 0.0
C952 C 0.98875 0.78999 0.88006 0.0
C953 C 0.00315 0.80827 0.889 0.0
C954 C 0.02477 0.81325 0.87751 0.0
C955 C 0.03161 0.80013 0.85725 0.0
C956 C 0.016 0.78323 0.84741 0.0
H957 H 0.54217 0.75037 0.18104 0.0
H958 H 0.54192 0.6796 0.15051 0.0
H959 H 0.51118 0.69231 0.12154 0.0
H960 H 0.47585 0.76564 0.16652 0.0
H961 H 0.48442 0.79597 0.16039 0.0
H962 H 0.49957 0.77929 0.18332 0.0
H963 H 0.53999 0.7882 0.16289 0.0
H964 H 0.52511 0.80457 0.13996 0.0
H965 H 0.54419 0.77992 0.13213 0.0
H966 H 0.49025 0.71539 0.08956 0.0
H967 H 0.48114 0.74597 0.05897 0.0
H968 H 0.49508 0.80155 0.11034 0.0
C969 C 0.53475 0.73729 0.16895 0.0
C970 C 0.54427 0.71409 0.1679 0.0
C971 C 0.53456 0.6974 0.15175 0.0
C972 C 0.51709 0.70451 0.13525 0.0
C973 C 0.5092 0.72814 0.13562 0.0
C974 C 0.51737 0.74414 0.15254 0.0
C975 C 0.50953 0.76931 0.14698 0.0
C976 C 0.49125 0.77806 0.1654 0.0
C977 C 0.53098 0.78646 0.14537 0.0
C978 C 0.49792 0.76546 0.12301 0.0
C979 C 0.49697 0.74152 0.1171 0.0
C980 C 0.49009 0.73406 0.09435 0.0
C981 C 0.48494 0.75147 0.07707 0.0
C982 C 0.48708 0.77588 0.0827 0.0
C983 C 0.49275 0.78288 0.10605 0.0
H984 H 0.2753 0.31035 0.34963 0.0
H985 H 0.2062 0.34492 0.3524 0.0
H986 H 0.21493 0.36505 0.31398 0.0
H987 H 0.30783 0.35775 0.32832 0.0
H988 H 0.32684 0.34037 0.30912 0.0
H989 H 0.31395 0.32695 0.33518 0.0
H990 H 0.29481 0.29374 0.3092 0.0
H991 H 0.30829 0.30692 0.28325 0.0
H992 H 0.27656 0.30197 0.28407 0.0
H993 H 0.23344 0.38402 0.27667 0.0
H994 H 0.25921 0.39906 0.2441 0.0
H995 H 0.31556 0.35121 0.2669 0.0
C996 C 0.26185 0.32196 0.34206 0.0
C997 C 0.24016 0.32626 0.35402 0.0
C998 C 0.22293 0.34137 0.34344 0.0
C999 C 0.22775 0.35285 0.32166 0.0
C1000 C 0.24965 0.3486 0.3106 0.0
C1001 C 0.26624 0.3332 0.32037 0.0
C1002 C 0.28879 0.33217 0.30571 0.0
C1003 C 0.31062 0.33978 0.32047 0.0
C1004 C 0.2923 0.30722 0.29492 0.0
C1005 C 0.28287 0.35025 0.28671 0.0
C1006 C 0.26012 0.35932 0.28949 0.0
C1007 C 0.25119 0.37685 0.27426 0.0
C1008 C 0.26595 0.38533 0.25586 0.0
C1009 C 0.28946 0.37647 0.2531 0.0
C1010 C 0.29777 0.35853 0.26864 0.0
H1011 H 0.85573 0.98377 0.4944 0.0
H1012 H 0.92415 0.98636 0.45942 0.0
H1013 H 0.93834 0.95291 0.48423 0.0
H1014 H 0.8753 0.98419 0.5468 0.0
H1015 H 0.85425 0.96457 0.56115 0.0
H1016 H 0.84609 0.97933 0.53426 0.0
H1017 H 0.83643 0.9385 0.51505 0.0
H1018 H 0.84511 0.92357 0.54216 0.0
H1019 H 0.8588 0.91545 0.51428 0.0
H1020 H 0.9492 0.93004 0.51917 0.0
H1021 H 0.95776 0.92829 0.562 0.0
H1022 H 0.88365 0.94127 0.57763 0.0
C1023 C 0.87316 0.97613 0.49119 0.0
C1024 C 0.88872 0.9869 0.47481 0.0
C1025 C 0.91189 0.97775 0.4716 0.0
C1026 C 0.91996 0.95863 0.48552 0.0
C1027 C 0.90473 0.94912 0.5028 0.0
C1028 C 0.88165 0.9576 0.50562 0.0
C1029 C 0.8711 0.94948 0.52909 0.0
C1030 C 0.86119 0.97066 0.54366 0.0
C1031 C 0.85172 0.93062 0.52488 0.0
C1032 C 0.89291 0.93832 0.54052 0.0
C1033 C 0.91154 0.93651 0.52437 0.0
C1034 C 0.93462 0.93071 0.53176 0.0
C1035 C 0.93935 0.92942 0.55624 0.0
C1036 C 0.92122 0.93464 0.57285 0.0
C1037 C 0.89747 0.93665 0.56499 0.0
H1038 H 0.22562 0.57484 0.79001 0.0
H1039 H 0.25633 0.59561 0.72234 0.0
H1040 H 0.29136 0.61161 0.74306 0.0
H1041 H 0.23628 0.62262 0.81944 0.0
H1042 H 0.24409 0.60972 0.84782 0.0
H1043 H 0.226 0.59325 0.82751 0.0
H1044 H 0.25638 0.55842 0.82903 0.0
H1045 H 0.27488 0.57524 0.84921 0.0
H1046 H 0.28724 0.56379 0.82188 0.0
H1047 H 0.31386 0.63735 0.7701 0.0
H1048 H 0.32105 0.66833 0.80027 0.0
H1049 H 0.28128 0.62762 0.85189 0.0
C1050 C 0.24023 0.58175 0.7795 0.0
C1051 C 0.23797 0.58436 0.75457 0.0
C1052 C 0.25739 0.5937 0.74146 0.0
C1053 C 0.27758 0.60263 0.75312 0.0
C1054 C 0.27853 0.60142 0.77792 0.0
C1055 C 0.26063 0.59053 0.79095 0.0
C1056 C 0.2639 0.59485 0.81739 0.0
C1057 C 0.24126 0.60578 0.82864 0.0
C1058 C 0.27103 0.57169 0.83012 0.0
C1059 C 0.28454 0.6123 0.81697 0.0
C1060 C 0.29329 0.61527 0.79406 0.0
C1061 C 0.30814 0.63441 0.78827 0.0
C1062 C 0.31244 0.6519 0.8056 0.0
C1063 C 0.30228 0.64987 0.82851 0.0
C1064 C 0.29016 0.62881 0.8348 0.0
H1065 H 0.55337 0.07335 0.07948 0.0
H1066 H 0.62452 0.10065 0.08994 0.0
H1067 H 0.63374 0.09316 0.04778 0.0
H1068 H 0.5696 0.02568 0.05781 0.0
H1069 H 0.54681 0.0203 0.03581 0.0
H1070 H 0.54056 0.03925 0.06051 0.0
H1071 H 0.52902 0.0737 0.03208 0.0
H1072 H 0.53475 0.05443 0.007 0.0
H1073 H 0.5494 0.08293 0.00904 0.0
H1074 H 0.64043 0.06978 0.01143 0.0
H1075 H 0.64394 0.0337 0.98644 0.0
H1076 H 0.57045 0.01611 0.00161 0.0
C1077 C 0.57019 0.0795 0.07228 0.0
C1078 C 0.58812 0.08783 0.08774 0.0
C1079 C 0.61039 0.09471 0.07821 0.0
C1080 C 0.61579 0.09031 0.05422 0.0
C1081 C 0.59881 0.07879 0.04011 0.0
C1082 C 0.57616 0.07381 0.04876 0.0
C1083 C 0.56357 0.05564 0.03321 0.0
C1084 C 0.55469 0.03397 0.04772 0.0
C1085 C 0.54297 0.06738 0.01951 0.0
C1086 C 0.58362 0.04896 0.01648 0.0
C1087 C 0.60327 0.06352 0.01966 0.0
C1088 C 0.62492 0.05877 0.00828 0.0
C1089 C 0.62683 0.0382 0.99416 0.0
C1090 C 0.60743 0.02229 0.99227 0.0
C1091 C 0.58539 0.02826 0.00273 0.0
H1092 H 0.6662 0.12329 0.66719 0.0
H1093 H 0.65836 0.19968 0.66404 0.0
H1094 H 0.66022 0.2018 0.70751 0.0
H1095 H 0.64331 0.11752 0.73733 0.0
H1096 H 0.66516 0.09423 0.74088 0.0
H1097 H 0.64807 0.09628 0.71373 0.0
H1098 H 0.68724 0.09688 0.68972 0.0
H1099 H 0.70426 0.09533 0.7164 0.0
H1100 H 0.70921 0.11959 0.69589 0.0
H1101 H 0.6845 0.19924 0.74243 0.0
H1102 H 0.72127 0.1913 0.76489 0.0
H1103 H 0.71491 0.11625 0.74984 0.0
C1104 C 0.66301 0.14012 0.67603 0.0
C1105 C 0.66283 0.1613 0.66247 0.0
C1106 C 0.65862 0.18319 0.67408 0.0
C1107 C 0.65986 0.18452 0.69897 0.0
C1108 C 0.66473 0.16374 0.71187 0.0
C1109 C 0.66498 0.14157 0.7009 0.0
C1110 C 0.67631 0.12294 0.717 0.0
C1111 C 0.65706 0.1068 0.72789 0.0
C1112 C 0.6954 0.10791 0.70396 0.0
C1113 C 0.68701 0.1389 0.73595 0.0
C1114 C 0.6788 0.16214 0.73361 0.0
C1115 C 0.69014 0.18102 0.74524 0.0
C1116 C 0.71112 0.17642 0.75796 0.0
C1117 C 0.72036 0.1531 0.75935 0.0
C1118 C 0.70737 0.134 0.74965 0.0
H1119 H 0.14162 0.47339 0.00654 0.0
H1120 H 0.06726 0.46773 0.02526 0.0
H1121 H 0.0639 0.43102 0.00175 0.0
H1122 H 0.1363 0.46966 0.95336 0.0
H1123 H 0.16148 0.45168 0.94449 0.0
H1124 H 0.16238 0.46723 0.97207 0.0
H1125 H 0.17052 0.42779 0.99435 0.0
H1126 H 0.16963 0.41193 0.96642 0.0
H1127 H 0.15067 0.40284 0.99067 0.0
H1128 H 0.06314 0.40837 0.96556 0.0
H1129 H 0.06394 0.40696 0.92194 0.0
H1130 H 0.13842 0.42632 0.92251 0.0
C1131 C 0.12521 0.46327 0.00691 0.0
C1132 C 0.1048 0.47306 0.01772 0.0
C1133 C 0.08317 0.46025 0.01727 0.0
C1134 C 0.08119 0.43926 0.00396 0.0
C1135 C 0.10093 0.43142 0.99094 0.0
C1136 C 0.12285 0.4428 0.99275 0.0
C1137 C 0.13918 0.43553 0.97248 0.0
C1138 C 0.15039 0.45732 0.95986 0.0
C1139 C 0.15864 0.4185 0.98152 0.0
C1140 C 0.12161 0.42231 0.95674 0.0
C1141 C 0.10029 0.41832 0.96858 0.0
C1142 C 0.07992 0.41074 0.95636 0.0
C1143 C 0.08051 0.40984 0.93141 0.0
C1144 C 0.10121 0.41695 0.91903 0.0
C1145 C 0.1225 0.42075 0.93186 0.0
H1146 H 0.72534 0.91088 0.22094 0.0
H1147 H 0.75113 0.86852 0.27993 0.0
H1148 H 0.78397 0.85336 0.25484 0.0
H1149 H 0.7294 0.87246 0.17919 0.0
H1150 H 0.73998 0.89131 0.1554 0.0
H1151 H 0.72409 0.90417 0.17976 0.0
H1152 H 0.75951 0.93275 0.18767 0.0
H1153 H 0.77571 0.91957 0.16324 0.0
H1154 H 0.78894 0.92077 0.19246 0.0
H1155 H 0.80441 0.83359 0.22104 0.0
H1156 H 0.80963 0.81224 0.18289 0.0
H1157 H 0.77411 0.8696 0.14593 0.0
C1158 C 0.73858 0.8992 0.22873 0.0
C1159 C 0.73578 0.89074 0.25215 0.0
C1160 C 0.75315 0.87533 0.26199 0.0
C1161 C 0.77194 0.86674 0.24789 0.0
C1162 C 0.77358 0.87444 0.22429 0.0
C1163 C 0.75771 0.89096 0.21502 0.0
C1164 C 0.76093 0.89378 0.18844 0.0
C1165 C 0.73722 0.89016 0.17495 0.0
C1166 C 0.77194 0.91817 0.18262 0.0
C1167 C 0.7786 0.87394 0.18369 0.0
C1168 C 0.78657 0.86362 0.20465 0.0
C1169 C 0.7992 0.8421 0.20454 0.0
C1170 C 0.80229 0.8301 0.18278 0.0
C1171 C 0.79263 0.83968 0.16164 0.0
C1172 C 0.78227 0.86252 0.16192 0.0
H1173 H 0.41711 0.52115 0.51332 0.0
H1174 H 0.34221 0.53737 0.51958 0.0
H1175 H 0.34782 0.57347 0.49522 0.0
H1176 H 0.43728 0.59034 0.50415 0.0
H1177 H 0.46017 0.57993 0.48417 0.0
H1178 H 0.45283 0.56294 0.51045 0.0
H1179 H 0.44553 0.52576 0.48427 0.0
H1180 H 0.45281 0.54242 0.4583 0.0
H1181 H 0.42438 0.5275 0.46009 0.0
H1182 H 0.35674 0.59338 0.45825 0.0
H1183 H 0.36848 0.5956 0.41614 0.0
H1184 H 0.43956 0.57272 0.43431 0.0
C1185 C 0.4024 0.53338 0.51077 0.0
C1186 C 0.37939 0.52692 0.51826 0.0
C1187 C 0.36007 0.54246 0.51427 0.0
C1188 C 0.36318 0.56303 0.50046 0.0
C1189 C 0.38584 0.56802 0.49136 0.0
C1190 C 0.40545 0.55412 0.49723 0.0
C1191 C 0.42668 0.56015 0.48168 0.0
C1192 C 0.44533 0.57418 0.49596 0.0
C1193 C 0.43791 0.53763 0.4704 0.0
C1194 C 0.41478 0.57607 0.46338 0.0
C1195 C 0.39151 0.58145 0.46994 0.0
C1196 C 0.37517 0.59042 0.4534 0.0
C1197 C 0.38196 0.59179 0.42942 0.0
C1198 C 0.40505 0.58479 0.42236 0.0
C1199 C 0.42216 0.57907 0.43975 0.0
H1200 H 0.27723 0.21941 0.43365 0.0
H1201 H 0.2156 0.2238 0.38763 0.0
H1202 H 0.23217 0.19206 0.36242 0.0
H1203 H 0.31572 0.22305 0.39538 0.0
H1204 H 0.33805 0.20245 0.40595 0.0
H1205 H 0.31727 0.21491 0.42645 0.0
H1206 H 0.30394 0.17276 0.43939 0.0
H1207 H 0.32515 0.15998 0.41888 0.0
H1208 H 0.29419 0.15155 0.41736 0.0
H1209 H 0.26072 0.17403 0.33475 0.0
H1210 H 0.29658 0.17243 0.30933 0.0
H1211 H 0.34119 0.18037 0.37143 0.0
C1212 C 0.26665 0.21255 0.41907 0.0
C1213 C 0.2454 0.2242 0.4124 0.0
C1214 C 0.23192 0.21508 0.39317 0.0
C1215 C 0.24128 0.19696 0.37869 0.0
C1216 C 0.26389 0.18786 0.38394 0.0
C1217 C 0.27612 0.19488 0.40425 0.0
C1218 C 0.302 0.18718 0.40323 0.0
C1219 C 0.31921 0.20816 0.40797 0.0
C1220 C 0.30658 0.16664 0.42075 0.0
C1221 C 0.30335 0.17842 0.37777 0.0
C1222 C 0.28094 0.17741 0.3674 0.0
C1223 C 0.2782 0.17382 0.34289 0.0
C1224 C 0.29867 0.17285 0.32851 0.0
C1225 C 0.32145 0.17595 0.33868 0.0
C1226 C 0.32383 0.1773 0.36359 0.0
H1227 H 0.01687 0.99431 0.57836 0.0
H1228 H 0.0209 0.00752 0.65395 0.0
H1229 H 0.05693 0.03195 0.64785 0.0
H1230 H 0.08843 0.00264 0.5677 0.0
H1231 H 0.08158 0.01545 0.53907 0.0
H1232 H 0.06429 0.99073 0.55019 0.0
H1233 H 0.02564 0.01518 0.54447 0.0
H1234 H 0.04263 0.03945 0.53326 0.0
H1235 H 0.02309 0.04406 0.5584 0.0
H1236 H 0.07842 0.06624 0.633 0.0
H1237 H 0.0799 0.10456 0.61207 0.0
H1238 H 0.06751 0.06912 0.54525 0.0
C1239 C 0.02638 0.0013 0.5936 0.0
C1240 C 0.01643 -0.00076 0.6165 0.0
C1241 C 0.0286 0.00874 0.63629 0.0
C1242 C 0.04917 0.02255 0.63292 0.0
C1243 C 0.05766 0.02603 0.60974 0.0
C1244 C 0.04711 0.01482 0.59041 0.0
C1245 C 0.05622 0.02492 0.56712 0.0
C1246 C 0.07367 0.00739 0.55534 0.0
C1247 C 0.03566 0.03133 0.54989 0.0
C1248 C 0.06943 0.04664 0.57624 0.0
C1249 C 0.07157 0.04606 0.6009 0.0
C1250 C 0.07779 0.06649 0.61374 0.0
C1251 C 0.07895 0.08833 0.60166 0.0
C1252 C 0.07382 0.08948 0.5771 0.0
C1253 C 0.07205 0.06822 0.56397 0.0
H1254 H 0.24222 0.76664 0.90092 0.0
H1255 H 0.26868 0.77976 0.83005 0.0
H1256 H 0.24637 0.81739 0.8284 0.0
H1257 H 0.1902 0.77184 0.89035 0.0
H1258 H 0.17848 0.7872 0.91606 0.0
H1259 H 0.20579 0.77126 0.91849 0.0
H1260 H 0.22709 0.80926 0.9332 0.0
H1261 H 0.19942 0.8255 0.93087 0.0
H1262 H 0.22569 0.83625 0.91586 0.0
H1263 H 0.21099 0.84108 0.82637 0.0
H1264 H 0.16759 0.8435 0.82234 0.0
H1265 H 0.15926 0.81512 0.89341 0.0
C1266 C 0.2445 0.77854 0.88592 0.0
C1267 C 0.25725 0.77077 0.86581 0.0
C1268 C 0.25926 0.78578 0.84578 0.0
C1269 C 0.24663 0.80727 0.8448 0.0
C1270 C 0.23167 0.81326 0.8638 0.0
C1271 C 0.23091 0.79948 0.88437 0.0
C1272 C 0.20889 0.80521 0.89898 0.0
C1273 C 0.19504 0.78254 0.9063 0.0
C1274 C 0.21568 0.81994 0.92102 0.0
C1275 C 0.19528 0.82045 0.88128 0.0
C1276 C 0.20956 0.82671 0.86212 0.0
C1277 C 0.19986 0.83686 0.84154 0.0
C1278 C 0.17502 0.83823 0.83935 0.0
C1279 C 0.16022 0.829 0.85746 0.0
C1280 C 0.17044 0.82225 0.87942 0.0
H1281 H 0.55757 0.98574 0.09132 0.0
H1282 H 0.50469 0.99818 0.14626 0.0
H1283 H 0.47923 0.96656 0.12885 0.0
H1284 H 0.51465 0.97365 0.04341 0.0
H1285 H 0.53331 0.95121 0.02997 0.0
H1286 H 0.54663 0.97579 0.04571 0.0
H1287 H 0.56961 0.94685 0.07319 0.0
H1288 H 0.55707 0.92208 0.05728 0.0
H1289 H 0.55349 0.92409 0.08913 0.0
H1290 H 0.46134 0.93061 0.10694 0.0
H1291 H 0.45401 0.89355 0.08386 0.0
H1292 H 0.51826 0.9067 0.04309 0.0
C1293 C 0.54062 0.98186 0.09969 0.0
C1294 C 0.53321 0.99416 0.12029 0.0
C1295 C 0.51073 0.98884 0.13049 0.0
C1296 C 0.49611 0.97102 0.12066 0.0
C1297 C 0.50403 0.9591 0.10034 0.0
C1298 C 0.52572 0.96449 0.08992 0.0
C1299 C 0.53078 0.94863 0.06881 0.0
C1300 C 0.53136 0.96319 0.0456 0.0
C1301 C 0.5541 0.93458 0.07234 0.0
C1302 C 0.5092 0.93256 0.06968 0.0
C1303 C 0.49364 0.93904 0.08764 0.0
C1304 C 0.47323 0.92562 0.09261 0.0
C1305 C 0.46912 0.90468 0.07938 0.0
C1306 C 0.48556 0.89734 0.06173 0.0
C1307 C 0.50534 0.91193 0.05645 0.0
H1308 H 0.77842 0.20005 0.65465 0.0
H1309 H 0.74519 0.25011 0.60591 0.0
H1310 H 0.77375 0.28123 0.61863 0.0
H1311 H 0.78999 0.24253 0.70185 0.0
H1312 H 0.81795 0.22886 0.70984 0.0
H1313 H 0.79438 0.21102 0.69736 0.0
H1314 H 0.82291 0.19657 0.664 0.0
H1315 H 0.84654 0.21434 0.6764 0.0
H1316 H 0.838 0.21823 0.64569 0.0
H1317 H 0.80717 0.30667 0.63645 0.0
H1318 H 0.84266 0.32338 0.65691 0.0
H1319 H 0.8528 0.25607 0.69353 0.0
C1320 C 0.77707 0.21754 0.6466 0.0
C1321 C 0.75962 0.2226 0.62919 0.0
C1322 C 0.75845 0.2458 0.61925 0.0
C1323 C 0.77455 0.2636 0.62641 0.0
C1324 C 0.79157 0.25794 0.64361 0.0
C1325 C 0.79283 0.23544 0.65359 0.0
C1326 C 0.81291 0.23361 0.67144 0.0
C1327 C 0.80322 0.22872 0.69661 0.0
C1328 C 0.83117 0.21457 0.66392 0.0
C1329 C 0.82317 0.25841 0.66957 0.0
C1330 C 0.81056 0.27235 0.65366 0.0
C1331 C 0.81712 0.2959 0.64897 0.0
C1332 C 0.83724 0.30524 0.66067 0.0
C1333 C 0.85058 0.29094 0.67661 0.0
C1334 C 0.84317 0.26737 0.68122 0.0
H1335 H 0.05828 0.53991 0.86159 0.0
H1336 H 0.01322 0.48416 0.89022 0.0
H1337 H 0.9841 0.51452 0.90365 0.0
H1338 H 0.052 0.58047 0.90569 0.0
H1339 H 0.0508 0.60649 0.88689 0.0
H1340 H 0.06586 0.58018 0.8767 0.0
H1341 H 0.0392 0.5795 0.83895 0.0
H1342 H 0.02392 0.60588 0.84913 0.0
H1343 H 0.00722 0.57938 0.84209 0.0
H1344 H 0.96351 0.55168 0.91962 0.0
H1345 H 0.95353 0.59164 0.93568 0.0
H1346 H 0.01081 0.62226 0.89385 0.0
C1347 C 0.04206 0.53412 0.87031 0.0
C1348 C 0.03799 0.50984 0.87507 0.0
C1349 C 0.01656 0.50278 0.88638 0.0
C1350 C -9e-05 0.51987 0.89398 0.0
C1351 C 0.00466 0.54383 0.88943 0.0
C1352 C 0.02503 0.55086 0.87741 0.0
C1353 C 0.02681 0.57765 0.87589 0.0
C1354 C 0.05024 0.58671 0.88697 0.0
C1355 C 0.02412 0.58609 0.84998 0.0
C1356 C 0.00536 0.58466 0.89059 0.0
C1357 C 0.9924 0.56503 0.89785 0.0
C1358 C 0.97319 0.56722 0.91356 0.0
C1359 C 0.96761 0.58996 0.92259 0.0
C1360 C 0.98142 0.61002 0.91603 0.0
C1361 C -0.00013 0.60729 0.89916 0.0
H1362 H 0.65014 0.67827 0.12457 0.0
H1363 H 0.67966 0.65714 0.1923 0.0
H1364 H 0.72015 0.66074 0.17596 0.0
H1365 H 0.70781 0.65804 0.08501 0.0
H1366 H 0.70256 0.68382 0.0666 0.0
H1367 H 0.67773 0.66696 0.0781 0.0
H1368 H 0.66034 0.70554 0.0962 0.0
H1369 H 0.68492 0.72226 0.08522 0.0
H1370 H 0.67823 0.72276 0.11665 0.0
H1371 H 0.75343 0.68366 0.16063 0.0
H1372 H 0.77438 0.72007 0.14766 0.0
H1373 H 0.72523 0.72779 0.08911 0.0
C1374 C 0.66526 0.67276 0.13521 0.0
C1375 C 0.66205 0.66758 0.15952 0.0
C1376 C 0.68183 0.66084 0.17349 0.0
C1377 C 0.70497 0.66295 0.16427 0.0
C1378 C 0.70786 0.67137 0.14099 0.0
C1379 C 0.68838 0.67527 0.12623 0.0
C1380 C 0.69534 0.68962 0.10444 0.0
C1381 C 0.6959 0.67365 0.08223 0.0
C1382 C 0.67877 0.71132 0.10049 0.0
C1383 C 0.72032 0.69694 0.11145 0.0
C1384 C 0.72788 0.68501 0.13175 0.0
C1385 C 0.74822 0.6923 0.1442 0.0
C1386 C 0.76009 0.71301 0.13676 0.0
C1387 C 0.75142 0.72615 0.11721 0.0
C1388 C 0.73236 0.71729 0.10365 0.0
H1389 H 0.44554 0.46331 0.36114 0.0
H1390 H 0.49414 0.51368 0.39363 0.0
H1391 H 0.52165 0.48063 0.40383 0.0
H1392 H 0.45027 0.41855 0.4016 0.0
H1393 H 0.44948 0.39442 0.38042 0.0
H1394 H 0.43581 0.4224 0.37316 0.0
H1395 H 0.46165 0.42495 0.33489 0.0
H1396 H 0.47565 0.39697 0.34227 0.0
H1397 H 0.49365 0.42306 0.33719 0.0
H1398 H 0.5405 0.44104 0.41576 0.0
H1399 H 0.5481 0.39936 0.4284 0.0
H1400 H 0.48837 0.37588 0.38547 0.0
C1401 C 0.46213 0.46737 0.37012 0.0
C1402 C 0.46769 0.49088 0.37683 0.0
C1403 C 0.48963 0.49568 0.38835 0.0
C1404 C 0.50539 0.47706 0.39409 0.0
C1405 C 0.49923 0.45391 0.38749 0.0
C1406 C 0.47826 0.44914 0.3754 0.0
C1407 C 0.47492 0.42274 0.37152 0.0
C1408 C 0.45124 0.41403 0.38234 0.0
C1409 C 0.47657 0.41657 0.34489 0.0
C1410 C 0.49623 0.41323 0.38497 0.0
C1411 C 0.51046 0.43137 0.39361 0.0
C1412 C 0.5298 0.42669 0.40861 0.0
C1413 C 0.53406 0.40297 0.41566 0.0
C1414 C 0.5188 0.38447 0.40789 0.0
C1415 C 0.50039 0.38968 0.39158 0.0
H1416 H 0.32381 0.25241 0.242 0.0
H1417 H 0.39331 0.22772 0.21948 0.0
H1418 H 0.39185 0.25508 0.185 0.0
H1419 H 0.30034 0.26475 0.17735 0.0
H1420 H 0.28382 0.29007 0.18821 0.0
H1421 H 0.28747 0.26407 0.20676 0.0
H1422 H 0.30528 0.29034 0.24018 0.0
H1423 H 0.30162 0.31624 0.22201 0.0
H1424 H 0.33065 0.30899 0.23372 0.0
H1425 H 0.38871 0.29303 0.16266 0.0
H1426 H 0.38296 0.33568 0.15364 0.0
H1427 H 0.3128 0.33299 0.1853 0.0
C1428 C 0.33817 0.25208 0.22912 0.0
C1429 C 0.35862 0.23808 0.23322 0.0
C1430 C 0.37736 0.23816 0.21639 0.0
C1431 C 0.37662 0.25361 0.19673 0.0
C1432 C 0.35662 0.26814 0.19371 0.0
C1433 C 0.33734 0.2669 0.20907 0.0
C1434 C 0.31935 0.28631 0.20383 0.0
C1435 C 0.29639 0.27566 0.19341 0.0
C1436 C 0.31397 0.30135 0.22623 0.0
C1437 C 0.33277 0.30038 0.18509 0.0
C1438 C 0.354 0.28931 0.17901 0.0
C1439 C 0.37168 0.30135 0.16626 0.0
C1440 C 0.36825 0.32558 0.16101 0.0
C1441 C 0.34714 0.33735 0.16814 0.0
C1442 C 0.32858 0.32408 0.17865 0.0
H1443 H 0.86645 0.16918 0.78627 0.0
H1444 H 0.80923 0.20536 0.8227 0.0
H1445 H 0.83334 0.24213 0.82417 0.0
H1446 H 0.91972 0.20939 0.81021 0.0
H1447 H 0.93308 0.20757 0.78107 0.0
H1448 H 0.91731 0.1823 0.79314 0.0
H1449 H 0.8909 0.18126 0.75534 0.0
H1450 H 0.90604 0.20655 0.74345 0.0
H1451 H 0.87413 0.20748 0.74715 0.0
H1452 H 0.85613 0.27681 0.80917 0.0
H1453 H 0.8743 0.30439 0.77995 0.0
H1454 H 0.91565 0.2463 0.75082 0.0
C1455 C 0.85992 0.18443 0.79612 0.0
C1456 C 0.83642 0.18452 0.80483 0.0
C1457 C 0.82756 0.20486 0.81664 0.0
C1458 C 0.84116 0.22587 0.81738 0.0
C1459 C 0.86352 0.22604 0.80634 0.0
C1460 C 0.87309 0.20553 0.79637 0.0
C1461 C 0.89425 0.21113 0.78059 0.0
C1462 C 0.91747 0.20207 0.79194 0.0
C1463 C 0.89108 0.20104 0.75517 0.0
C1464 C 0.89331 0.23801 0.78087 0.0
C1465 C 0.87636 0.2464 0.79674 0.0
C1466 C 0.86998 0.27049 0.79734 0.0
C1467 C 0.88034 0.28606 0.78069 0.0
C1468 C 0.89632 0.27723 0.76338 0.0
C1469 C 0.90366 0.25331 0.76423 0.0
H1470 H 0.04452 0.68124 0.01164 0.0
H1471 H 0.97607 0.65343 0.03382 0.0
H1472 H 0.99524 0.6332 0.06752 0.0
H1473 H 0.07384 0.63452 0.01364 0.0
H1474 H 0.10184 0.64498 0.0255 0.0
H1475 H 0.0824 0.6654 0.01092 0.0
H1476 H 0.08222 0.69217 0.04844 0.0
H1477 H 0.10177 0.67141 0.06332 0.0
H1478 H 0.0739 0.67984 0.07689 0.0
H1479 H 0.02119 0.60428 0.08605 0.0
H1480 H 0.04989 0.57123 0.08574 0.0
H1481 H 0.1034 0.61739 0.05571 0.0
C1482 C 0.03347 0.67189 0.02438 0.0
C1483 C 0.00893 0.66863 0.01992 0.0
C1484 C 0.99495 0.65617 0.03678 0.0
C1485 C 0.00574 0.6447 0.05616 0.0
C1486 C 0.03046 0.64624 0.05879 0.0
C1487 C 0.04413 0.6602 0.0437 0.0
C1488 C 0.07047 0.65504 0.04686 0.0
C1489 C 0.08279 0.64962 0.02283 0.0
C1490 C 0.08281 0.67585 0.05965 0.0
C1491 C 0.06925 0.63335 0.06295 0.0
C1492 C 0.04611 0.6294 0.07078 0.0
C1493 C 0.03949 0.60768 0.08101 0.0
C1494 C 0.05599 0.58893 0.08102 0.0
C1495 C 0.07888 0.59211 0.07111 0.0
C1496 C 0.08625 0.61507 0.06424 0.0
H1497 H 0.68369 0.82263 0.30316 0.0
H1498 H 0.61258 0.84311 0.32414 0.0
H1499 H 0.59902 0.80153 0.31915 0.0
H1500 H 0.66734 0.7958 0.25632 0.0
H1501 H 0.68865 0.77173 0.25559 0.0
H1502 H 0.6957 0.79855 0.27123 0.0
H1503 H 0.7032 0.7747 0.30998 0.0
H1504 H 0.69653 0.74747 0.29427 0.0
H1505 H 0.68057 0.75484 0.32114 0.0
H1506 H 0.59071 0.76211 0.30144 0.0
H1507 H 0.58751 0.73145 0.27002 0.0
H1508 H 0.6629 0.73835 0.25546 0.0
C1509 C 0.66574 0.81778 0.30835 0.0
C1510 C 0.64935 0.83556 0.31495 0.0
C1511 C 0.62551 0.82938 0.32 0.0
C1512 C 0.61772 0.80579 0.31713 0.0
C1513 C 0.63392 0.78881 0.30875 0.0
C1514 C 0.65759 0.79456 0.30452 0.0
C1515 C 0.66987 0.77557 0.28977 0.0
C1516 C 0.68099 0.78605 0.26689 0.0
C1517 C 0.68865 0.76236 0.30469 0.0
C1518 C 0.64893 0.75954 0.28429 0.0
C1519 C 0.6287 0.76661 0.29653 0.0
C1520 C 0.60657 0.75605 0.29227 0.0
C1521 C 0.60488 0.73865 0.2744 0.0
C1522 C 0.62503 0.73269 0.26053 0.0
C1523 C 0.6474 0.74254 0.26616 0.0
H1524 H 0.44372 0.43131 0.54285 0.0
H1525 H 0.38898 0.38466 0.57017 0.0
H1526 H 0.4165 0.35043 0.56703 0.0
H1527 H 0.46116 0.39919 0.49975 0.0
H1528 H 0.49285 0.40447 0.50074 0.0
H1529 H 0.47288 0.42587 0.51331 0.0
H1530 H 0.49455 0.42282 0.55391 0.0
H1531 H 0.51492 0.40136 0.54131 0.0
H1532 H 0.49839 0.39414 0.56787 0.0
H1533 H 0.44272 0.3214 0.54758 0.0
H1534 H 0.4665 0.30084 0.51683 0.0
H1535 H 0.50716 0.36511 0.50501 0.0
C1536 C 0.43828 0.4141 0.54968 0.0
C1537 C 0.41466 0.4105 0.55732 0.0
C1538 C 0.40734 0.38773 0.56502 0.0
C1539 C 0.42287 0.36821 0.56321 0.0
C1540 C 0.44575 0.37196 0.55411 0.0
C1541 C 0.45373 0.39456 0.54817 0.0
C1542 C 0.47728 0.39346 0.53499 0.0
C1543 C 0.47591 0.40648 0.51078 0.0
C1544 C 0.49748 0.40354 0.55045 0.0
C1545 C 0.4799 0.36677 0.53196 0.0
C1546 C 0.46189 0.35461 0.54368 0.0
C1547 C 0.45759 0.33048 0.53932 0.0
C1548 C 0.47116 0.31888 0.52185 0.0
C1549 C 0.48907 0.33128 0.50927 0.0
C1550 C 0.49433 0.35505 0.51534 0.0
H1551 H 0.14519 0.63531 0.75106 0.0
H1552 H 0.15913 0.66728 0.68207 0.0
H1553 H 0.14395 0.70599 0.69726 0.0
H1554 H 0.09167 0.66854 0.76615 0.0
H1555 H 0.1 0.67076 0.79708 0.0
H1556 H 0.10949 0.6455 0.77972 0.0
H1557 H 0.15346 0.65428 0.79089 0.0
H1558 H 0.14417 0.67963 0.80814 0.0
H1559 H 0.16579 0.68328 0.78468 0.0
H1560 H 0.12915 0.74178 0.72148 0.0
H1561 H 0.11737 0.77118 0.75216 0.0
H1562 H 0.1152 0.71477 0.80503 0.0
C1563 C 0.14466 0.65027 0.73888 0.0
C1564 C 0.15313 0.64825 0.71529 0.0
C1565 C 0.15256 0.66843 0.70017 0.0
C1566 C 0.14398 0.69044 0.70865 0.0
C1567 C 0.13621 0.69184 0.73226 0.0
C1568 C 0.13655 0.67221 0.74709 0.0
C1569 C 0.12903 0.67843 0.77216 0.0
C1570 C 0.10619 0.66502 0.77918 0.0
C1571 C 0.14932 0.67363 0.79 0.0
C1572 C 0.12446 0.70478 0.7693 0.0
C1573 C 0.12846 0.71224 0.74617 0.0
C1574 C 0.12585 0.73606 0.73959 0.0
C1575 C 0.11915 0.75262 0.75714 0.0
C1576 C 0.11537 0.7453 0.78102 0.0
C1577 C 0.11793 0.721 0.78697 0.0
H1578 H 0.54075 0.81968 0.96335 0.0
H1579 H 0.4734 0.85697 0.95869 0.0
H1580 H 0.49002 0.88323 0.92796 0.0
H1581 H 0.57375 0.86313 0.9684 0.0
H1582 H 0.59911 0.85438 0.95066 0.0
H1583 H 0.57978 0.83211 0.96237 0.0
H1584 H 0.57256 0.81565 0.91995 0.0
H1585 H 0.59214 0.83816 0.90799 0.0
H1586 H 0.56221 0.83523 0.89669 0.0
H1587 H 0.51645 0.91425 0.91352 0.0
H1588 H 0.54846 0.94402 0.91657 0.0
H1589 H 0.59999 0.88805 0.92729 0.0
C1590 C 0.52917 0.83248 0.95474 0.0
C1591 C 0.50596 0.83648 0.96361 0.0
C1592 C 0.49123 0.85346 0.95219 0.0
C1593 C 0.50061 0.86854 0.9346 0.0
C1594 C 0.52456 0.86607 0.92821 0.0
C1595 C 0.53848 0.84781 0.93737 0.0
C1596 C 0.56465 0.85187 0.93197 0.0
C1597 C 0.58017 0.85034 0.9547 0.0
C1598 C 0.5734 0.83418 0.91302 0.0
C1599 C 0.56366 0.87693 0.92191 0.0
C1600 C 0.54028 0.88435 0.91866 0.0
C1601 C 0.53477 0.90836 0.91482 0.0
C1602 C 0.55311 0.92528 0.91636 0.0
C1603 C 0.57666 0.91808 0.92144 0.0
C1604 C 0.58221 0.89363 0.92225 0.0
H1605 H 0.93541 0.06074 0.42526 0.0
H1606 H 0.89744 0.12624 0.4123 0.0
H1607 H 0.93341 0.14925 0.42208 0.0
H1608 H 0.95082 0.07454 0.47531 0.0
H1609 H 0.98014 0.06154 0.47771 0.0
H1610 H 0.95944 0.04979 0.45667 0.0
H1611 H 0.98892 0.05685 0.42205 0.0
H1612 H 0.01042 0.06795 0.4432 0.0
H1613 H 0.00209 0.08583 0.41785 0.0
H1614 H 0.96525 0.16475 0.44737 0.0
H1615 H 0.98821 0.17067 0.48454 0.0
H1616 H 0.0028 0.09512 0.48769 0.0
C1617 C 0.93557 0.07985 0.42253 0.0
C1618 C 0.91409 0.0918 0.41756 0.0
C1619 C 0.91403 0.11683 0.41538 0.0
C1620 C 0.93444 0.13002 0.42117 0.0
C1621 C 0.95451 0.11786 0.42956 0.0
C1622 C 0.95536 0.09311 0.42989 0.0
C1623 C 0.9751 0.08422 0.4461 0.0
C1624 C 0.96577 0.06655 0.46505 0.0
C1625 C 0.99534 0.07306 0.43142 0.0
C1626 C 0.983 0.10748 0.45714 0.0
C1627 C 0.97213 0.1268 0.44629 0.0
C1628 C 0.9744 0.14984 0.45549 0.0
C1629 C 0.98732 0.15308 0.47665 0.0
C1630 C 0.99702 0.13326 0.48868 0.0
C1631 C 0.99557 0.11044 0.47843 0.0
loop_
_geom_bond_atom_site_label_1
_geom_bond_atom_site_label_2
_geom_bond_distance
_geom_bond_site_symmetry_2
_ccdc_geom_bond_type
Zn0 O3 2.031 . S
Zn0 O5 2.049 . S
Zn0 O10 2.067 . S
Zn1 O2 1.962 . S
Zn1 O4 1.986 . S
Zn1 O6 1.996 . S
Zn1 O9 1.943 . S
O2 Zn1 1.962 . S
O2 C7 1.254 . S
O3 Zn0 2.031 . S
O3 C7 1.269 . S
O4 Zn1 1.986 . S
O4 C11 1.262 . S
O5 Zn0 2.049 . S
O5 C13 1.260 . S
O6 Zn1 1.996 . S
O6 C13 1.257 . S
C7 O2 1.254 . S
C7 O3 1.269 . S
C8 O9 1.249 . S
C8 O10 1.270 . S
O9 Zn1 1.943 . S
O9 C8 1.249 . S
O10 Zn0 2.067 . S
O10 C8 1.270 . S
C11 O4 1.262 . S
C11 O12 1.232 . S
O12 C11 1.232 . S
C13 O5 1.260 . S
C13 O6 1.257 . S
Zn14 O17 2.031 . S
Zn14 O19 2.049 . S
Zn14 O24 2.067 . S
Zn15 O16 1.962 . S
Zn15 O18 1.986 . S
Zn15 O20 1.996 . S
Zn15 O23 1.943 . S
O16 Zn15 1.962 . S
O16 C21 1.254 . S
O17 Zn14 2.031 . S
O17 C21 1.269 . S
O18 Zn15 1.986 . S
O18 C25 1.262 . S
O19 Zn14 2.049 . S
O19 C27 1.260 . S
O20 Zn15 1.996 . S
O20 C27 1.257 . S
C21 O16 1.254 . S
C21 O17 1.269 . S
C22 O23 1.249 . S
C22 O24 1.270 . S
O23 Zn15 1.943 . S
O23 C22 1.249 . S
O24 Zn14 2.067 . S
O24 C22 1.270 . S
C25 O18 1.262 . S
C25 O26 1.232 . S
O26 C25 1.232 . S
C27 O19 1.260 . S
C27 O20 1.257 . S
Zn28 O31 2.031 . S
Zn28 O33 2.049 . S
Zn28 O38 2.067 . S
Zn29 O30 1.962 . S
Zn29 O32 1.986 . S
Zn29 O34 1.996 . S
Zn29 O37 1.943 . S
O30 Zn29 1.962 . S
O30 C35 1.254 . S
O31 Zn28 2.031 . S
O31 C35 1.269 . S
O32 Zn29 1.986 . S
O32 C39 1.262 . S
O33 Zn28 2.049 . S
O33 C41 1.260 . S
O34 Zn29 1.996 . S
O34 C41 1.257 . S
C35 O30 1.254 . S
C35 O31 1.269 . S
C36 O37 1.249 . S
C36 O38 1.270 . S
O37 Zn29 1.943 . S
O37 C36 1.249 . S
O38 Zn28 2.067 . S
O38 C36 1.270 . S
C39 O32 1.262 . S
C39 O40 1.232 . S
O40 C39 1.232 . S
C41 O33 1.260 . S
C41 O34 1.257 . S
Zn42 O45 2.031 . S
Zn42 O47 2.049 . S
Zn42 O52 2.067 . S
Zn43 O44 1.962 . S
Zn43 O46 1.986 . S
Zn43 O48 1.996 . S
Zn43 O51 1.943 . S
O44 Zn43 1.962 . S
O44 C49 1.254 . S
O45 Zn42 2.031 . S
O45 C49 1.269 . S
O46 Zn43 1.986 . S
O46 C53 1.262 . S
O47 Zn42 2.049 . S
O47 C55 1.260 . S
O48 Zn43 1.996 . S
O48 C55 1.257 . S
C49 O44 1.254 . S
C49 O45 1.269 . S
C50 O51 1.249 . S
C50 O52 1.270 . S
O51 Zn43 1.943 . S
O51 C50 1.249 . S
O52 Zn42 2.067 . S
O52 C50 1.270 . S
C53 O46 1.262 . S
C53 O54 1.232 . S
O54 C53 1.232 . S
C55 O47 1.260 . S
C55 O48 1.257 . S
Zn56 O59 2.031 . S
Zn56 O61 2.049 . S
Zn56 O66 2.067 . S
Zn57 O58 1.962 . S
Zn57 O60 1.986 . S
Zn57 O62 1.996 . S
Zn57 O65 1.943 . S
O58 Zn57 1.962 . S
O58 C63 1.254 . S
O59 Zn56 2.031 . S
O59 C63 1.269 . S
O60 Zn57 1.986 . S
O60 C67 1.262 . S
O61 Zn56 2.049 . S
O61 C69 1.260 . S
O62 Zn57 1.996 . S
O62 C69 1.257 . S
C63 O58 1.254 . S
C63 O59 1.269 . S
C64 O65 1.249 . S
C64 O66 1.270 . S
O65 Zn57 1.943 . S
O65 C64 1.249 . S
O66 Zn56 2.067 . S
O66 C64 1.270 . S
C67 O60 1.262 . S
C67 O68 1.232 . S
O68 C67 1.232 . S
C69 O61 1.260 . S
C69 O62 1.257 . S
Zn70 O73 2.031 . S
Zn70 O75 2.049 . S
Zn70 O80 2.067 . S
Zn71 O72 1.962 . S
Zn71 O74 1.986 . S
Zn71 O76 1.996 . S
Zn71 O79 1.943 . S
O72 Zn71 1.962 . S
O72 C77 1.254 . S
O73 Zn70 2.031 . S
O73 C77 1.269 . S
O74 Zn71 1.986 . S
O74 C81 1.262 . S
O75 Zn70 2.049 . S
O75 C83 1.260 . S
O76 Zn71 1.996 . S
O76 C83 1.257 . S
C77 O72 1.254 . S
C77 O73 1.269 . S
C78 O79 1.249 . S
C78 O80 1.270 . S
O79 Zn71 1.943 . S
O79 C78 1.249 . S
O80 Zn70 2.067 . S
O80 C78 1.270 . S
C81 O74 1.262 . S
C81 O82 1.232 . S
O82 C81 1.232 . S
C83 O75 1.260 . S
C83 O76 1.257 . S
Zn84 O87 2.031 . S
Zn84 O89 2.049 . S
Zn84 O94 2.067 . S
Zn85 O86 1.962 . S
Zn85 O88 1.986 . S
Zn85 O90 1.996 . S
Zn85 O93 1.943 . S
O86 Zn85 1.962 . S
O86 C91 1.254 . S
O87 Zn84 2.031 . S
O87 C91 1.269 . S
O88 Zn85 1.986 . S
O88 C95 1.262 . S
O89 Zn84 2.049 . S
O89 C97 1.260 . S
O90 Zn85 1.996 . S
O90 C97 1.257 . S
C91 O86 1.254 . S
C91 O87 1.269 . S
C92 O93 1.249 . S
C92 O94 1.270 . S
O93 Zn85 1.943 . S
O93 C92 1.249 . S
O94 Zn84 2.067 . S
O94 C92 1.270 . S
C95 O88 1.262 . S
C95 O96 1.232 . S
O96 C95 1.232 . S
C97 O89 1.260 . S
C97 O90 1.257 . S
Zn98 O101 2.031 . S
Zn98 O103 2.049 . S
Zn98 O108 2.067 . S
Zn99 O100 1.962 . S
Zn99 O102 1.986 . S
Zn99 O104 1.996 . S
Zn99 O107 1.943 . S
O100 Zn99 1.962 . S
O100 C105 1.254 . S
O101 Zn98 2.031 . S
O101 C105 1.269 . S
O102 Zn99 1.986 . S
O102 C109 1.262 . S
O103 Zn98 2.049 . S
O103 C111 1.260 . S
O104 Zn99 1.996 . S
O104 C111 1.257 . S
C105 O100 1.254 . S
C105 O101 1.269 . S
C106 O107 1.249 . S
C106 O108 1.270 . S
O107 Zn99 1.943 . S
O107 C106 1.249 . S
O108 Zn98 2.067 . S
O108 C106 1.270 . S
C109 O102 1.262 . S
C109 O110 1.232 . S
O110 C109 1.232 . S
C111 O103 1.260 . S
C111 O104 1.257 . S
Zn112 O115 2.031 . S
Zn112 O117 2.049 . S
Zn112 O122 2.067 . S
Zn113 O114 1.962 . S
Zn113 O116 1.986 . S
Zn113 O118 1.996 . S
Zn113 O121 1.943 . S
O114 Zn113 1.962 . S
O114 C119 1.254 . S
O115 Zn112 2.031 . S
O115 C119 1.269 . S
O116 Zn113 1.986 . S
O116 C123 1.262 . S
O117 Zn112 2.049 . S
O117 C125 1.260 . S
O118 Zn113 1.996 . S
O118 C125 1.257 . S
C119 O114 1.254 . S
C119 O115 1.269 . S
C120 O121 1.249 . S
C120 O122 1.270 . S
O121 Zn113 1.943 . S
O121 C120 1.249 . S
O122 Zn112 2.067 . S
O122 C120 1.270 . S
C123 O116 1.262 . S
C123 O124 1.232 . S
O124 C123 1.232 . S
C125 O117 1.260 . S
C125 O118 1.257 . S
Zn126 O129 2.031 . S
Zn126 O131 2.049 . S
Zn126 O136 2.067 . S
Zn127 O128 1.962 . S
Zn127 O130 1.986 . S
Zn127 O132 1.996 . S
Zn127 O135 1.943 . S
O128 Zn127 1.962 . S
O128 C133 1.254 . S
O129 Zn126 2.031 . S
O129 C133 1.269 . S
O130 Zn127 1.986 . S
O130 C137 1.262 . S
O131 Zn126 2.049 . S
O131 C139 1.260 . S
O132 Zn127 1.996 . S
O132 C139 1.257 . S
C133 O128 1.254 . S
C133 O129 1.269 . S
C134 O135 1.249 . S
C134 O136 1.270 . S
O135 Zn127 1.943 . S
O135 C134 1.249 . S
O136 Zn126 2.067 . S
O136 C134 1.270 . S
C137 O130 1.262 . S
C137 O138 1.232 . S
O138 C137 1.232 . S
C139 O131 1.260 . S
C139 O132 1.257 . S
Zn140 O143 2.031 . S
Zn140 O145 2.049 . S
Zn140 O150 2.067 . S
Zn141 O142 1.962 . S
Zn141 O144 1.986 . S
Zn141 O146 1.996 . S
Zn141 O149 1.943 . S
O142 Zn141 1.962 . S
O142 C147 1.254 . S
O143 Zn140 2.031 . S
O143 C147 1.269 . S
O144 Zn141 1.986 . S
O144 C151 1.262 . S
O145 Zn140 2.049 . S
O145 C153 1.260 . S
O146 Zn141 1.996 . S
O146 C153 1.257 . S
C147 O142 1.254 . S
C147 O143 1.269 . S
C148 O149 1.249 . S
C148 O150 1.270 . S
O149 Zn141 1.943 . S
O149 C148 1.249 . S
O150 Zn140 2.067 . S
O150 C148 1.270 . S
C151 O144 1.262 . S
C151 O152 1.232 . S
O152 C151 1.232 . S
C153 O145 1.260 . S
C153 O146 1.257 . S
Zn154 O157 2.031 . S
Zn154 O159 2.049 . S
Zn154 O164 2.067 . S
Zn155 O156 1.962 . S
Zn155 O158 1.986 . S
Zn155 O160 1.996 . S
Zn155 O163 1.943 . S
O156 Zn155 1.962 . S
O156 C161 1.254 . S
O157 Zn154 2.031 . S
O157 C161 1.269 . S
O158 Zn155 1.986 . S
O158 C165 1.262 . S
O159 Zn154 2.049 . S
O159 C167 1.260 . S
O160 Zn155 1.996 . S
O160 C167 1.257 . S
C161 O156 1.254 . S
C161 O157 1.269 . S
C162 O163 1.249 . S
C162 O164 1.270 . S
O163 Zn155 1.943 . S
O163 C162 1.249 . S
O164 Zn154 2.067 . S
O164 C162 1.270 . S
C165 O158 1.262 . S
C165 O166 1.232 . S
O166 C165 1.232 . S
C167 O159 1.260 . S
C167 O160 1.257 . S
Zn168 O171 2.031 . S
Zn168 O173 2.049 . S
Zn168 O178 2.067 . S
Zn169 O170 1.962 . S
Zn169 O172 1.986 . S
Zn169 O174 1.996 . S
Zn169 O177 1.943 . S
O170 Zn169 1.962 . S
O170 C175 1.254 . S
O171 Zn168 2.031 . S
O171 C175 1.269 . S
O172 Zn169 1.986 . S
O172 C179 1.262 . S
O173 Zn168 2.049 . S
O173 C181 1.260 . S
O174 Zn169 1.996 . S
O174 C181 1.257 . S
C175 O170 1.254 . S
C175 O171 1.269 . S
C176 O177 1.249 . S
C176 O178 1.270 . S
O177 Zn169 1.943 . S
O177 C176 1.249 . S
O178 Zn168 2.067 . S
O178 C176 1.270 . S
C179 O172 1.262 . S
C179 O180 1.232 . S
O180 C179 1.232 . S
C181 O173 1.260 . S
C181 O174 1.257 . S
Zn182 O185 2.031 . S
Zn182 O187 2.049 . S
Zn182 O192 2.067 . S
Zn183 O184 1.962 . S
Zn183 O186 1.986 . S
Zn183 O188 1.996 . S
Zn183 O191 1.943 . S
O184 Zn183 1.962 . S
O184 C189 1.254 . S
O185 Zn182 2.031 . S
O185 C189 1.269 . S
O186 Zn183 1.986 . S
O186 C193 1.262 . S
O187 Zn182 2.049 . S
O187 C195 1.260 . S
O188 Zn183 1.996 . S
O188 C195 1.257 . S
C189 O184 1.254 . S
C189 O185 1.269 . S
C190 O191 1.249 . S
C190 O192 1.270 . S
O191 Zn183 1.943 . S
O191 C190 1.249 . S
O192 Zn182 2.067 . S
O192 C190 1.270 . S
C193 O186 1.262 . S
C193 O194 1.232 . S
O194 C193 1.232 . S
C195 O187 1.260 . S
C195 O188 1.257 . S
Zn196 O199 2.031 . S
Zn196 O201 2.049 . S
Zn196 O206 2.067 . S
Zn197 O198 1.962 . S
Zn197 O200 1.986 . S
Zn197 O202 1.996 . S
Zn197 O205 1.943 . S
O198 Zn197 1.962 . S
O198 C203 1.254 . S
O199 Zn196 2.031 . S
O199 C203 1.269 . S
O200 Zn197 1.986 . S
O200 C207 1.262 . S
O201 Zn196 2.049 . S
O201 C209 1.260 . S
O202 Zn197 1.996 . S
O202 C209 1.257 . S
C203 O198 1.254 . S
C203 O199 1.269 . S
C204 O205 1.249 . S
C204 O206 1.270 . S
O205 Zn197 1.943 . S
O205 C204 1.249 . S
O206 Zn196 2.067 . S
O206 C204 1.270 . S
C207 O200 1.262 . S
C207 O208 1.232 . S
O208 C207 1.232 . S
C209 O201 1.260 . S
C209 O202 1.257 . S
Zn210 O213 2.031 . S
Zn210 O215 2.049 . S
Zn210 O220 2.067 . S
Zn211 O212 1.962 . S
Zn211 O214 1.986 . S
Zn211 O216 1.996 . S
Zn211 O219 1.943 . S
O212 Zn211 1.962 . S
O212 C217 1.254 . S
O213 Zn210 2.031 . S
O213 C217 1.269 . S
O214 Zn211 1.986 . S
O214 C221 1.262 . S
O215 Zn210 2.049 . S
O215 C223 1.260 . S
O216 Zn211 1.996 . S
O216 C223 1.257 . S
C217 O212 1.254 . S
C217 O213 1.269 . S
C218 O219 1.249 . S
C218 O220 1.270 . S
O219 Zn211 1.943 . S
O219 C218 1.249 . S
O220 Zn210 2.067 . S
O220 C218 1.270 . S
C221 O214 1.262 . S
C221 O222 1.232 . S
O222 C221 1.232 . S
C223 O215 1.260 . S
C223 O216 1.257 . S
Zn224 O227 2.031 . S
Zn224 O229 2.049 . S
Zn224 O234 2.067 . S
Zn225 O226 1.962 . S
Zn225 O228 1.986 . S
Zn225 O230 1.996 . S
Zn225 O233 1.943 . S
O226 Zn225 1.962 . S
O226 C231 1.254 . S
O227 Zn224 2.031 . S
O227 C231 1.269 . S
O228 Zn225 1.986 . S
O228 C235 1.262 . S
O229 Zn224 2.049 . S
O229 C237 1.260 . S
O230 Zn225 1.996 . S
O230 C237 1.257 . S
C231 O226 1.254 . S
C231 O227 1.269 . S
C232 O233 1.249 . S
C232 O234 1.270 . S
O233 Zn225 1.943 . S
O233 C232 1.249 . S
O234 Zn224 2.067 . S
O234 C232 1.270 . S
C235 O228 1.262 . S
C235 O236 1.232 . S
O236 C235 1.232 . S
C237 O229 1.260 . S
C237 O230 1.257 . S
Zn238 O241 2.031 . S
Zn238 O243 2.049 . S
Zn238 O248 2.067 . S
Zn239 O240 1.962 . S
Zn239 O242 1.986 . S
Zn239 O244 1.996 . S
Zn239 O247 1.943 . S
O240 Zn239 1.962 . S
O240 C245 1.254 . S
O241 Zn238 2.031 . S
O241 C245 1.269 . S
O242 Zn239 1.986 . S
O242 C249 1.262 . S
O243 Zn238 2.049 . S
O243 C251 1.260 . S
O244 Zn239 1.996 . S
O244 C251 1.257 . S
C245 O240 1.254 . S
C245 O241 1.269 . S
C246 O247 1.249 . S
C246 O248 1.270 . S
O247 Zn239 1.943 . S
O247 C246 1.249 . S
O248 Zn238 2.067 . S
O248 C246 1.270 . S
C249 O242 1.262 . S
C249 O250 1.232 . S
O250 C249 1.232 . S
C251 O243 1.260 . S
C251 O244 1.257 . S
Zn252 O255 2.031 . S
Zn252 O257 2.049 . S
Zn252 O262 2.067 . S
Zn253 O254 1.962 . S
Zn253 O256 1.986 . S
Zn253 O258 1.996 . S
Zn253 O261 1.943 . S
O254 Zn253 1.962 . S
O254 C259 1.254 . S
O255 Zn252 2.031 . S
O255 C259 1.269 . S
O256 Zn253 1.986 . S
O256 C263 1.262 . S
O257 Zn252 2.049 . S
O257 C265 1.260 . S
O258 Zn253 1.996 . S
O258 C265 1.257 . S
C259 O254 1.254 . S
C259 O255 1.269 . S
C260 O261 1.249 . S
C260 O262 1.270 . S
O261 Zn253 1.943 . S
O261 C260 1.249 . S
O262 Zn252 2.067 . S
O262 C260 1.270 . S
C263 O256 1.262 . S
C263 O264 1.232 . S
O264 C263 1.232 . S
C265 O257 1.260 . S
C265 O258 1.257 . S
Zn266 O269 2.031 . S
Zn266 O271 2.049 . S
Zn266 O276 2.067 . S
Zn267 O268 1.962 . S
Zn267 O270 1.986 . S
Zn267 O272 1.996 . S
Zn267 O275 1.943 . S
O268 Zn267 1.962 . S
O268 C273 1.254 . S
O269 Zn266 2.031 . S
O269 C273 1.269 . S
O270 Zn267 1.986 . S
O270 C277 1.262 . S
O271 Zn266 2.049 . S
O271 C279 1.260 . S
O272 Zn267 1.996 . S
O272 C279 1.257 . S
C273 O268 1.254 . S
C273 O269 1.269 . S
C274 O275 1.249 . S
C274 O276 1.270 . S
O275 Zn267 1.943 . S
O275 C274 1.249 . S
O276 Zn266 2.067 . S
O276 C274 1.270 . S
C277 O270 1.262 . S
C277 O278 1.232 . S
O278 C277 1.232 . S
C279 O271 1.260 . S
C279 O272 1.257 . S
Zn280 O283 2.031 . S
Zn280 O285 2.049 . S
Zn280 O290 2.067 . S
Zn281 O282 1.962 . S
Zn281 O284 1.986 . S
Zn281 O286 1.996 . S
Zn281 O289 1.943 . S
O282 Zn281 1.962 . S
O282 C287 1.254 . S
O283 Zn280 2.031 . S
O283 C287 1.269 . S
O284 Zn281 1.986 . S
O284 C291 1.262 . S
O285 Zn280 2.049 . S
O285 C293 1.260 . S
O286 Zn281 1.996 . S
O286 C293 1.257 . S
C287 O282 1.254 . S
C287 O283 1.269 . S
C288 O289 1.249 . S
C288 O290 1.270 . S
O289 Zn281 1.943 . S
O289 C288 1.249 . S
O290 Zn280 2.067 . S
O290 C288 1.270 . S
C291 O284 1.262 . S
C291 O292 1.232 . S
O292 C291 1.232 . S
C293 O285 1.260 . S
C293 O286 1.257 . S
Zn294 O297 2.031 . S
Zn294 O299 2.049 . S
Zn294 O304 2.067 . S
Zn295 O296 1.962 . S
Zn295 O298 1.986 . S
Zn295 O300 1.996 . S
Zn295 O303 1.943 . S
O296 Zn295 1.962 . S
O296 C301 1.254 . S
O297 Zn294 2.031 . S
O297 C301 1.269 . S
O298 Zn295 1.986 . S
O298 C305 1.262 . S
O299 Zn294 2.049 . S
O299 C307 1.260 . S
O300 Zn295 1.996 . S
O300 C307 1.257 . S
C301 O296 1.254 . S
C301 O297 1.269 . S
C302 O303 1.249 . S
C302 O304 1.270 . S
O303 Zn295 1.943 . S
O303 C302 1.249 . S
O304 Zn294 2.067 . S
O304 C302 1.270 . S
C305 O298 1.262 . S
C305 O306 1.232 . S
O306 C305 1.232 . S
C307 O299 1.260 . S
C307 O300 1.257 . S
Zn308 O311 2.031 . S
Zn308 O313 2.049 . S
Zn308 O318 2.067 . S
Zn309 O310 1.962 . S
Zn309 O312 1.986 . S
Zn309 O314 1.996 . S
Zn309 O317 1.943 . S
O310 Zn309 1.962 . S
O310 C315 1.254 . S
O311 Zn308 2.031 . S
O311 C315 1.269 . S
O312 Zn309 1.986 . S
O312 C319 1.262 . S
O313 Zn308 2.049 . S
O313 C321 1.260 . S
O314 Zn309 1.996 . S
O314 C321 1.257 . S
C315 O310 1.254 . S
C315 O311 1.269 . S
C316 O317 1.249 . S
C316 O318 1.270 . S
O317 Zn309 1.943 . S
O317 C316 1.249 . S
O318 Zn308 2.067 . S
O318 C316 1.270 . S
C319 O312 1.262 . S
C319 O320 1.232 . S
O320 C319 1.232 . S
C321 O313 1.260 . S
C321 O314 1.257 . S
Zn322 O325 2.031 . S
Zn322 O327 2.049 . S
Zn322 O332 2.067 . S
Zn323 O324 1.962 . S
Zn323 O326 1.986 . S
Zn323 O328 1.996 . S
Zn323 O331 1.943 . S
O324 Zn323 1.962 . S
O324 C329 1.254 . S
O325 Zn322 2.031 . S
O325 C329 1.269 . S
O326 Zn323 1.986 . S
O326 C333 1.262 . S
O327 Zn322 2.049 . S
O327 C335 1.260 . S
O328 Zn323 1.996 . S
O328 C335 1.257 . S
C329 O324 1.254 . S
C329 O325 1.269 . S
C330 O331 1.249 . S
C330 O332 1.270 . S
O331 Zn323 1.943 . S
O331 C330 1.249 . S
O332 Zn322 2.067 . S
O332 C330 1.270 . S
C333 O326 1.262 . S
C333 O334 1.232 . S
O334 C333 1.232 . S
C335 O327 1.260 . S
C335 O328 1.257 . S
H336 C348 0.930 . S
H337 C350 0.930 . S
H338 C351 0.930 . S
H339 C355 0.959 . S
H340 C355 0.959 . S
H341 C355 0.961 . S
H342 C356 0.960 . S
H343 C356 0.961 . S
H344 C356 0.959 . S
H345 C359 0.929 . S
H346 C360 0.931 . S
H347 C362 0.930 . S
C348 H336 0.930 . S
C348 C349 1.399 . S
C348 C353 1.399 . S
C349 C348 1.399 . S
C349 C350 1.376 . S
C350 H337 0.930 . S
C350 C349 1.376 . S
C350 C351 1.388 . S
C351 H338 0.930 . S
C351 C350 1.388 . S
C351 C352 1.390 . S
C352 C351 1.390 . S
C352 C353 1.394 . S
C352 C358 1.465 . S
C353 C348 1.399 . S
C353 C352 1.394 . S
C353 C354 1.516 . S
C354 C353 1.516 . S
C354 C355 1.502 . S
C354 C356 1.561 . S
C354 C357 1.526 . S
C355 H339 0.959 . S
C355 H340 0.959 . S
C355 H341 0.961 . S
C355 C354 1.502 . S
C356 H342 0.960 . S
C356 H343 0.961 . S
C356 H344 0.959 . S
C356 C354 1.561 . S
C357 C354 1.526 . S
C357 C358 1.396 . S
C357 C362 1.390 . S
C358 C352 1.465 . S
C358 C357 1.396 . S
C358 C359 1.399 . S
C359 H345 0.929 . S
C359 C358 1.399 . S
C359 C360 1.385 . S
C360 H346 0.931 . S
C360 C359 1.385 . S
C360 C361 1.389 . S
C361 C360 1.389 . S
C361 C362 1.387 . S
C362 H347 0.930 . S
C362 C357 1.390 . S
C362 C361 1.387 . S
H363 C375 0.930 1_655 S
H364 C377 0.924 1_655 S
H365 C378 0.930 . S
H366 C382 0.959 . S
H367 C382 0.959 . S
H368 C382 0.961 . S
H369 C383 0.960 . S
H370 C383 0.961 . S
H371 C383 0.959 . S
H372 C386 0.929 . S
H373 C387 0.931 . S
H374 C389 0.930 . S
C375 H363 0.930 1_455 S
C375 C376 1.399 1_455 S
C375 C380 1.399 . S
C376 C375 1.399 1_655 S
C376 C377 1.376 1_655 S
C377 H364 0.924 1_455 S
C377 C376 1.376 1_455 S
C377 C378 1.388 . S
C378 H365 0.930 . S
C378 C377 1.388 . S
C378 C379 1.390 . S
C379 C378 1.390 . S
C379 C380 1.394 . S
C379 C385 1.465 . S
C380 C375 1.399 . S
C380 C379 1.394 . S
C380 C381 1.516 . S
C381 C380 1.516 . S
C381 C382 1.502 . S
C381 C383 1.561 . S
C381 C384 1.526 . S
C382 H366 0.959 . S
C382 H367 0.959 . S
C382 H368 0.961 . S
C382 C381 1.502 . S
C383 H369 0.960 . S
C383 H370 0.961 . S
C383 H371 0.959 . S
C383 C381 1.561 . S
C384 C381 1.526 . S
C384 C385 1.396 . S
C384 C389 1.390 . S
C385 C379 1.465 . S
C385 C384 1.396 . S
C385 C386 1.399 . S
C386 H372 0.929 . S
C386 C385 1.399 . S
C386 C387 1.385 . S
C387 H373 0.931 . S
C387 C386 1.385 . S
C387 C388 1.389 . S
C388 C387 1.389 . S
C388 C389 1.387 . S
C389 H374 0.930 . S
C389 C384 1.390 . S
C389 C388 1.387 . S
H390 C402 0.930 . S
H391 C404 0.930 . S
H392 C405 0.930 . S
H393 C409 0.959 . S
H394 C409 0.959 . S
H395 C409 0.961 . S
H396 C410 0.960 . S
H397 C410 0.961 . S
H398 C410 0.959 . S
H399 C413 0.929 . S
H400 C414 0.931 . S
H401 C416 0.930 . S
C402 H390 0.930 . S
C402 C403 1.399 . S
C402 C407 1.399 . S
C403 C402 1.399 . S
C403 C404 1.376 . S
C404 H391 0.930 . S
C404 C403 1.376 . S
C404 C405 1.388 . S
C405 H392 0.930 . S
C405 C404 1.388 . S
C405 C406 1.390 . S
C406 C405 1.390 . S
C406 C407 1.394 . S
C406 C412 1.465 . S
C407 C402 1.399 . S
C407 C406 1.394 . S
C407 C408 1.516 . S
C408 C407 1.516 . S
C408 C409 1.502 . S
C408 C410 1.561 . S
C408 C411 1.526 . S
C409 H393 0.959 . S
C409 H394 0.959 . S
C409 H395 0.961 . S
C409 C408 1.502 . S
C410 H396 0.960 . S
C410 H397 0.961 . S
C410 H398 0.959 . S
C410 C408 1.561 . S
C411 C408 1.526 . S
C411 C412 1.396 . S
C411 C416 1.390 . S
C412 C406 1.465 . S
C412 C411 1.396 . S
C412 C413 1.399 1_556 S
C413 H399 0.929 . S
C413 C412 1.399 1_554 S
C413 C414 1.385 . S
C414 H400 0.931 . S
C414 C413 1.385 . S
C414 C415 1.389 . S
C415 C414 1.389 . S
C415 C416 1.387 1_554 S
C416 H401 0.930 . S
C416 C411 1.390 . S
C416 C415 1.387 1_556 S
H417 C429 0.930 . S
H418 C431 0.930 . S
H419 C432 0.930 . S
H420 C436 0.959 . S
H421 C436 0.959 . S
H422 C436 0.961 . S
H423 C437 0.960 . S
H424 C437 0.961 . S
H425 C437 0.959 . S
H426 C440 0.929 . S
H427 C441 0.931 . S
H428 C443 0.930 . S
C429 H417 0.930 . S
C429 C430 1.399 . S
C429 C434 1.399 . S
C430 C429 1.399 . S
C430 C431 1.376 . S
C431 H418 0.930 . S
C431 C430 1.376 . S
C431 C432 1.388 . S
C432 H419 0.930 . S
C432 C431 1.388 . S
C432 C433 1.390 . S
C433 C432 1.390 . S
C433 C434 1.394 . S
C433 C439 1.465 . S
C434 C429 1.399 . S
C434 C433 1.394 . S
C434 C435 1.516 . S
C435 C434 1.516 . S
C435 C436 1.502 . S
C435 C437 1.561 . S
C435 C438 1.526 . S
C436 H420 0.959 . S
C436 H421 0.959 . S
C436 H422 0.961 . S
C436 C435 1.502 . S
C437 H423 0.960 . S
C437 H424 0.961 . S
C437 H425 0.959 . S
C437 C435 1.561 . S
C438 C435 1.526 . S
C438 C439 1.396 . S
C438 C443 1.390 . S
C439 C433 1.465 . S
C439 C438 1.396 . S
C439 C440 1.399 . S
C440 H426 0.929 . S
C440 C439 1.399 . S
C440 C441 1.385 . S
C441 H427 0.931 . S
C441 C440 1.385 . S
C441 C442 1.389 . S
C442 C441 1.389 . S
C442 C443 1.387 . S
C443 H428 0.930 . S
C443 C438 1.390 . S
C443 C442 1.387 . S
H444 C456 0.930 . S
H445 C458 0.930 . S
H446 C459 0.930 . S
H447 C463 0.959 . S
H448 C463 0.959 . S
H449 C463 0.961 . S
H450 C464 0.960 . S
H451 C464 0.961 . S
H452 C464 0.959 . S
H453 C467 0.929 . S
H454 C468 0.931 . S
H455 C470 0.930 . S
C456 H444 0.930 . S
C456 C457 1.399 . S
C456 C461 1.399 . S
C457 C456 1.399 . S
C457 C458 1.376 . S
C458 H445 0.930 . S
C458 C457 1.376 . S
C458 C459 1.388 . S
C459 H446 0.930 . S
C459 C458 1.388 . S
C459 C460 1.390 . S
C460 C459 1.390 . S
C460 C461 1.394 . S
C460 C466 1.465 . S
C461 C456 1.399 . S
C461 C460 1.394 . S
C461 C462 1.516 . S
C462 C461 1.516 . S
C462 C463 1.502 . S
C462 C464 1.561 . S
C462 C465 1.526 . S
C463 H447 0.959 . S
C463 H448 0.959 . S
C463 H449 0.961 . S
C463 C462 1.502 . S
C464 H450 0.960 . S
C464 H451 0.961 . S
C464 H452 0.959 . S
C464 C462 1.561 . S
C465 C462 1.526 . S
C465 C466 1.396 . S
C465 C470 1.390 . S
C466 C460 1.465 . S
C466 C465 1.396 . S
C466 C467 1.399 . S
C467 H453 0.929 . S
C467 C466 1.399 . S
C467 C468 1.385 . S
C468 H454 0.931 . S
C468 C467 1.385 . S
C468 C469 1.389 . S
C469 C468 1.389 . S
C469 C470 1.387 . S
C470 H455 0.930 . S
C470 C465 1.390 . S
C470 C469 1.387 . S
H471 C483 0.930 . S
H472 C485 0.930 . S
H473 C486 0.930 . S
H474 C490 0.959 1_455 S
H475 C490 0.959 1_455 S
H476 C490 0.961 . S
H477 C491 0.960 . S
H478 C491 0.961 . S
H479 C491 0.959 . S
H480 C494 0.929 . S
H481 C495 0.931 . S
H482 C497 0.930 . S
C483 H471 0.930 . S
C483 C484 1.399 . S
C483 C488 1.399 . S
C484 C483 1.399 . S
C484 C485 1.376 . S
C485 H472 0.930 . S
C485 C484 1.376 . S
C485 C486 1.388 . S
C486 H473 0.930 . S
C486 C485 1.388 . S
C486 C487 1.390 . S
C487 C486 1.390 . S
C487 C488 1.394 . S
C487 C493 1.465 . S
C488 C483 1.399 . S
C488 C487 1.394 . S
C488 C489 1.516 . S
C489 C488 1.516 . S
C489 C490 1.502 . S
C489 C491 1.561 . S
C489 C492 1.526 . S
C490 H474 0.959 1_655 S
C490 H475 0.959 1_655 S
C490 H476 0.961 . S
C490 C489 1.502 . S
C491 H477 0.960 . S
C491 H478 0.961 . S
C491 H479 0.959 . S
C491 C489 1.561 . S
C492 C489 1.526 . S
C492 C493 1.396 . S
C492 C497 1.390 1_655 S
C493 C487 1.465 . S
C493 C492 1.396 . S
C493 C494 1.399 . S
C494 H480 0.929 . S
C494 C493 1.399 . S
C494 C495 1.385 . S
C495 H481 0.931 . S
C495 C494 1.385 . S
C495 C496 1.389 1_655 S
C496 C495 1.389 1_455 S
C496 C497 1.387 . S
C497 H482 0.930 . S
C497 C492 1.390 1_455 S
C497 C496 1.387 . S
H498 C510 0.930 . S
H499 C512 0.930 . S
H500 C513 0.930 . S
H501 C517 0.965 . S
H502 C517 0.959 . S
H503 C517 0.963 . S
H504 C518 0.960 . S
H505 C518 0.961 1_556 S
H506 C518 0.959 . S
H507 C521 0.929 . S
H508 C522 0.931 . S
H509 C524 0.930 . S
C510 H498 0.930 . S
C510 C511 1.399 . S
C510 C515 1.399 . S
C511 C510 1.399 . S
C511 C512 1.376 . S
C512 H499 0.930 . S
C512 C511 1.376 . S
C512 C513 1.388 . S
C513 H500 0.930 . S
C513 C512 1.388 . S
C513 C514 1.390 . S
C514 C513 1.390 . S
C514 C515 1.394 . S
C514 C520 1.465 . S
C515 C510 1.399 . S
C515 C514 1.394 . S
C515 C516 1.516 . S
C516 C515 1.516 . S
C516 C517 1.502 1_554 S
C516 C518 1.561 . S
C516 C519 1.526 . S
C517 H501 0.965 . S
C517 H502 0.959 . S
C517 H503 0.963 . S
C517 C516 1.502 1_556 S
C518 H504 0.960 . S
C518 H505 0.961 1_554 S
C518 H506 0.959 . S
C518 C516 1.561 . S
C519 C516 1.526 . S
C519 C520 1.396 . S
C519 C524 1.390 1_554 S
C520 C514 1.465 . S
C520 C519 1.396 . S
C520 C521 1.399 . S
C521 H507 0.929 . S
C521 C520 1.399 . S
C521 C522 1.385 . S
C522 H508 0.931 . S
C522 C521 1.385 . S
C522 C523 1.389 1_554 S
C523 C522 1.389 1_556 S
C523 C524 1.387 . S
C524 H509 0.930 . S
C524 C519 1.390 1_556 S
C524 C523 1.387 . S
H525 C537 0.930 . S
H526 C539 0.930 . S
H527 C540 0.930 . S
H528 C544 0.959 . S
H529 C544 0.959 . S
H530 C544 0.961 . S
H531 C545 0.960 . S
H532 C545 0.961 . S
H533 C545 0.959 . S
H534 C548 0.929 . S
H535 C549 0.931 . S
H536 C551 0.930 . S
C537 H525 0.930 . S
C537 C538 1.399 . S
C537 C542 1.399 . S
C538 C537 1.399 . S
C538 C539 1.376 . S
C539 H526 0.930 . S
C539 C538 1.376 . S
C539 C540 1.388 . S
C540 H527 0.930 . S
C540 C539 1.388 . S
C540 C541 1.390 . S
C541 C540 1.390 . S
C541 C542 1.394 . S
C541 C547 1.465 . S
C542 C537 1.399 . S
C542 C541 1.394 . S
C542 C543 1.516 . S
C543 C542 1.516 . S
C543 C544 1.502 . S
C543 C545 1.561 . S
C543 C546 1.526 . S
C544 H528 0.959 . S
C544 H529 0.959 . S
C544 H530 0.961 . S
C544 C543 1.502 . S
C545 H531 0.960 . S
C545 H532 0.961 . S
C545 H533 0.959 . S
C545 C543 1.561 . S
C546 C543 1.526 . S
C546 C547 1.396 . S
C546 C551 1.390 . S
C547 C541 1.465 . S
C547 C546 1.396 . S
C547 C548 1.399 . S
C548 H534 0.929 . S
C548 C547 1.399 . S
C548 C549 1.385 . S
C549 H535 0.931 . S
C549 C548 1.385 . S
C549 C550 1.389 . S
C550 C549 1.389 . S
C550 C551 1.387 . S
C551 H536 0.930 . S
C551 C546 1.390 . S
C551 C550 1.387 . S
H552 C564 0.930 . S
H553 C566 0.930 . S
H554 C567 0.930 . S
H555 C571 0.959 . S
H556 C571 0.959 . S
H557 C571 0.961 . S
H558 C572 0.960 . S
H559 C572 0.961 . S
H560 C572 0.959 . S
H561 C575 0.929 . S
H562 C576 0.931 . S
H563 C578 0.930 . S
C564 H552 0.930 . S
C564 C565 1.399 . S
C564 C569 1.399 . S
C565 C564 1.399 . S
C565 C566 1.376 . S
C566 H553 0.930 . S
C566 C565 1.376 . S
C566 C567 1.388 . S
C567 H554 0.930 . S
C567 C566 1.388 . S
C567 C568 1.390 . S
C568 C567 1.390 . S
C568 C569 1.394 . S
C568 C574 1.465 . S
C569 C564 1.399 . S
C569 C568 1.394 . S
C569 C570 1.516 . S
C570 C569 1.516 . S
C570 C571 1.502 . S
C570 C572 1.561 . S
C570 C573 1.526 . S
C571 H555 0.959 . S
C571 H556 0.959 . S
C571 H557 0.961 . S
C571 C570 1.502 . S
C572 H558 0.960 . S
C572 H559 0.961 . S
C572 H560 0.959 . S
C572 C570 1.561 . S
C573 C570 1.526 . S
C573 C574 1.396 . S
C573 C578 1.390 . S
C574 C568 1.465 . S
C574 C573 1.396 . S
C574 C575 1.399 . S
C575 H561 0.929 . S
C575 C574 1.399 . S
C575 C576 1.385 . S
C576 H562 0.931 . S
C576 C575 1.385 . S
C576 C577 1.389 . S
C577 C576 1.389 . S
C577 C578 1.387 . S
C578 H563 0.930 . S
C578 C573 1.390 . S
C578 C577 1.387 . S
H579 C591 0.930 . S
H580 C593 0.930 . S
H581 C594 0.930 . S
H582 C598 0.959 . S
H583 C598 0.959 . S
H584 C598 0.961 . S
H585 C599 0.960 . S
H586 C599 0.961 . S
H587 C599 0.959 . S
H588 C602 0.929 . S
H589 C603 0.931 . S
H590 C605 0.930 . S
C591 H579 0.930 . S
C591 C592 1.399 1_545 S
C591 C596 1.399 . S
C592 C591 1.399 1_565 S
C592 C593 1.376 . S
C593 H580 0.930 . S
C593 C592 1.376 . S
C593 C594 1.388 . S
C594 H581 0.930 . S
C594 C593 1.388 . S
C594 C595 1.390 1_565 S
C595 C594 1.390 1_545 S
C595 C596 1.394 . S
C595 C601 1.465 . S
C596 C591 1.399 . S
C596 C595 1.394 . S
C596 C597 1.516 . S
C597 C596 1.516 . S
C597 C598 1.502 . S
C597 C599 1.561 . S
C597 C600 1.526 . S
C598 H582 0.959 . S
C598 H583 0.959 . S
C598 H584 0.961 . S
C598 C597 1.502 . S
C599 H585 0.960 . S
C599 H586 0.961 . S
C599 H587 0.959 . S
C599 C597 1.561 . S
C600 C597 1.526 . S
C600 C601 1.396 . S
C600 C605 1.390 . S
C601 C595 1.465 . S
C601 C600 1.396 . S
C601 C602 1.399 . S
C602 H588 0.929 . S
C602 C601 1.399 . S
C602 C603 1.385 . S
C603 H589 0.931 . S
C603 C602 1.385 . S
C603 C604 1.389 . S
C604 C603 1.389 . S
C604 C605 1.387 . S
C605 H590 0.930 . S
C605 C600 1.390 . S
C605 C604 1.387 . S
H606 C618 0.930 . S
H607 C620 0.930 . S
H608 C621 0.930 . S
H609 C625 0.959 . S
H610 C625 0.975 . S
H611 C625 0.961 . S
H612 C626 0.951 1_565 S
H613 C626 0.961 . S
H614 C626 0.959 . S
H615 C629 0.929 . S
H616 C630 0.931 . S
H617 C632 0.930 . S
C618 H606 0.930 . S
C618 C619 1.399 . S
C618 C623 1.399 . S
C619 C618 1.399 . S
C619 C620 1.376 . S
C620 H607 0.930 . S
C620 C619 1.376 . S
C620 C621 1.388 . S
C621 H608 0.930 . S
C621 C620 1.388 . S
C621 C622 1.390 . S
C622 C621 1.390 . S
C622 C623 1.394 . S
C622 C628 1.465 . S
C623 C618 1.399 . S
C623 C622 1.394 . S
C623 C624 1.516 . S
C624 C623 1.516 . S
C624 C625 1.502 . S
C624 C626 1.561 1_565 S
C624 C627 1.526 . S
C625 H609 0.959 . S
C625 H610 0.975 . S
C625 H611 0.961 . S
C625 C624 1.502 . S
C626 H612 0.951 1_545 S
C626 H613 0.961 . S
C626 H614 0.959 . S
C626 C624 1.561 1_545 S
C627 C624 1.526 . S
C627 C628 1.396 . S
C627 C632 1.390 1_565 S
C628 C622 1.465 . S
C628 C627 1.396 . S
C628 C629 1.399 . S
C629 H615 0.929 . S
C629 C628 1.399 . S
C629 C630 1.385 . S
C630 H616 0.931 . S
C630 C629 1.385 . S
C630 C631 1.389 1_565 S
C631 C630 1.389 1_545 S
C631 C632 1.387 . S
C632 H617 0.930 . S
C632 C627 1.390 1_545 S
C632 C631 1.387 . S
H633 C645 0.930 . S
H634 C647 0.930 . S
H635 C648 0.930 . S
H636 C652 0.959 . S
H637 C652 0.959 . S
H638 C652 0.961 . S
H639 C653 0.960 . S
H640 C653 0.961 . S
H641 C653 0.959 . S
H642 C656 0.929 . S
H643 C657 0.931 . S
H644 C659 0.930 . S
C645 H633 0.930 . S
C645 C646 1.399 . S
C645 C650 1.399 . S
C646 C645 1.399 . S
C646 C647 1.376 . S
C647 H634 0.930 . S
C647 C646 1.376 . S
C647 C648 1.388 . S
C648 H635 0.930 . S
C648 C647 1.388 . S
C648 C649 1.390 . S
C649 C648 1.390 . S
C649 C650 1.394 . S
C649 C655 1.465 . S
C650 C645 1.399 . S
C650 C649 1.394 . S
C650 C651 1.516 . S
C651 C650 1.516 . S
C651 C652 1.502 . S
C651 C653 1.561 . S
C651 C654 1.526 . S
C652 H636 0.959 . S
C652 H637 0.959 . S
C652 H638 0.961 . S
C652 C651 1.502 . S
C653 H639 0.960 . S
C653 H640 0.961 . S
C653 H641 0.959 . S
C653 C651 1.561 . S
C654 C651 1.526 . S
C654 C655 1.396 . S
C654 C659 1.390 . S
C655 C649 1.465 . S
C655 C654 1.396 . S
C655 C656 1.399 . S
C656 H642 0.929 . S
C656 C655 1.399 . S
C656 C657 1.385 . S
C657 H643 0.931 . S
C657 C656 1.385 . S
C657 C658 1.389 . S
C658 C657 1.389 . S
C658 C659 1.387 . S
C659 H644 0.930 . S
C659 C654 1.390 . S
C659 C658 1.387 . S
H660 C672 0.930 . S
H661 C674 0.930 . S
H662 C675 0.930 . S
H663 C679 0.959 . S
H664 C679 0.959 . S
H665 C679 0.961 . S
H666 C680 0.960 . S
H667 C680 0.961 . S
H668 C680 0.959 . S
H669 C683 0.929 . S
H670 C684 0.931 . S
H671 C686 0.930 . S
C672 H660 0.930 . S
C672 C673 1.399 . S
C672 C677 1.399 . S
C673 C672 1.399 . S
C673 C674 1.376 . S
C674 H661 0.930 . S
C674 C673 1.376 . S
C674 C675 1.388 . S
C675 H662 0.930 . S
C675 C674 1.388 . S
C675 C676 1.390 . S
C676 C675 1.390 . S
C676 C677 1.394 . S
C676 C682 1.465 . S
C677 C672 1.399 . S
C677 C676 1.394 . S
C677 C678 1.516 . S
C678 C677 1.516 . S
C678 C679 1.502 . S
C678 C680 1.561 . S
C678 C681 1.526 . S
C679 H663 0.959 . S
C679 H664 0.959 . S
C679 H665 0.961 . S
C679 C678 1.502 . S
C680 H666 0.960 . S
C680 H667 0.961 . S
C680 H668 0.959 . S
C680 C678 1.561 . S
C681 C678 1.526 . S
C681 C682 1.396 . S
C681 C686 1.390 . S
C682 C676 1.465 . S
C682 C681 1.396 . S
C682 C683 1.399 . S
C683 H669 0.929 . S
C683 C682 1.399 . S
C683 C684 1.385 . S
C684 H670 0.931 . S
C684 C683 1.385 . S
C684 C685 1.389 . S
C685 C684 1.389 . S
C685 C686 1.387 . S
C686 H671 0.930 . S
C686 C681 1.390 . S
C686 C685 1.387 . S
H687 C699 0.930 . S
H688 C701 0.930 . S
H689 C702 0.930 . S
H690 C706 0.959 . S
H691 C706 0.959 . S
H692 C706 0.961 . S
H693 C707 0.960 . S
H694 C707 0.961 . S
H695 C707 0.959 . S
H696 C710 0.929 . S
H697 C711 0.931 . S
H698 C713 0.930 . S
C699 H687 0.930 . S
C699 C700 1.399 1_545 S
C699 C704 1.399 . S
C700 C699 1.399 1_565 S
C700 C701 1.376 . S
C701 H688 0.930 . S
C701 C700 1.376 . S
C701 C702 1.388 . S
C702 H689 0.930 . S
C702 C701 1.388 . S
C702 C703 1.390 1_565 S
C703 C702 1.390 1_545 S
C703 C704 1.394 . S
C703 C709 1.465 . S
C704 C699 1.399 . S
C704 C703 1.394 . S
C704 C705 1.516 . S
C705 C704 1.516 . S
C705 C706 1.502 . S
C705 C707 1.561 . S
C705 C708 1.526 . S
C706 H690 0.959 . S
C706 H691 0.959 . S
C706 H692 0.961 . S
C706 C705 1.502 . S
C707 H693 0.960 . S
C707 H694 0.961 . S
C707 H695 0.959 . S
C707 C705 1.561 . S
C708 C705 1.526 . S
C708 C709 1.396 . S
C708 C713 1.390 . S
C709 C703 1.465 . S
C709 C708 1.396 . S
C709 C710 1.399 . S
C710 H696 0.929 . S
C710 C709 1.399 . S
C710 C711 1.385 . S
C711 H697 0.931 . S
C711 C710 1.385 . S
C711 C712 1.389 . S
C712 C711 1.389 . S
C712 C713 1.387 . S
C713 H698 0.930 . S
C713 C708 1.390 . S
C713 C712 1.387 . S
H714 C726 0.930 . S
H715 C728 0.930 . S
H716 C729 0.930 . S
H717 C733 0.959 . S
H718 C733 0.959 . S
H719 C733 0.961 . S
H720 C734 0.960 . S
H721 C734 0.961 . S
H722 C734 0.959 . S
H723 C737 0.929 . S
H724 C738 0.931 . S
H725 C740 0.930 . S
C726 H714 0.930 . S
C726 C727 1.399 . S
C726 C731 1.399 . S
C727 C726 1.399 . S
C727 C728 1.376 . S
C728 H715 0.930 . S
C728 C727 1.376 . S
C728 C729 1.388 . S
C729 H716 0.930 . S
C729 C728 1.388 . S
C729 C730 1.390 . S
C730 C729 1.390 . S
C730 C731 1.394 . S
C730 C736 1.465 . S
C731 C726 1.399 . S
C731 C730 1.394 . S
C731 C732 1.516 1_556 S
C732 C731 1.516 1_554 S
C732 C733 1.502 . S
C732 C734 1.561 . S
C732 C735 1.526 . S
C733 H717 0.959 . S
C733 H718 0.959 . S
C733 H719 0.961 . S
C733 C732 1.502 . S
C734 H720 0.960 . S
C734 H721 0.961 . S
C734 H722 0.959 . S
C734 C732 1.561 . S
C735 C732 1.526 . S
C735 C736 1.396 1_554 S
C735 C740 1.390 . S
C736 C730 1.465 . S
C736 C735 1.396 1_556 S
C736 C737 1.399 . S
C737 H723 0.929 . S
C737 C736 1.399 . S
C737 C738 1.385 . S
C738 H724 0.931 . S
C738 C737 1.385 . S
C738 C739 1.389 1_556 S
C739 C738 1.389 1_554 S
C739 C740 1.387 . S
C740 H725 0.930 . S
C740 C735 1.390 . S
C740 C739 1.387 . S
H741 C753 0.930 . S
H742 C755 0.930 . S
H743 C756 0.930 . S
H744 C760 0.959 . S
H745 C760 0.959 . S
H746 C760 0.961 . S
H747 C761 0.960 . S
H748 C761 0.961 1_565 S
H749 C761 0.959 . S
H750 C764 0.929 . S
H751 C765 0.931 . S
H752 C767 0.930 . S
C753 H741 0.930 . S
C753 C754 1.399 . S
C753 C758 1.399 1_545 S
C754 C753 1.399 . S
C754 C755 1.376 . S
C755 H742 0.930 . S
C755 C754 1.376 . S
C755 C756 1.388 1_545 S
C756 H743 0.930 . S
C756 C755 1.388 1_565 S
C756 C757 1.390 . S
C757 C756 1.390 . S
C757 C758 1.394 . S
C757 C763 1.465 . S
C758 C753 1.399 1_565 S
C758 C757 1.394 . S
C758 C759 1.516 . S
C759 C758 1.516 . S
C759 C760 1.502 . S
C759 C761 1.561 1_565 S
C759 C762 1.526 . S
C760 H744 0.959 . S
C760 H745 0.959 . S
C760 H746 0.961 . S
C760 C759 1.502 . S
C761 H747 0.960 . S
C761 H748 0.961 1_545 S
C761 H749 0.959 . S
C761 C759 1.561 1_545 S
C762 C759 1.526 . S
C762 C763 1.396 . S
C762 C767 1.390 . S
C763 C757 1.465 . S
C763 C762 1.396 . S
C763 C764 1.399 . S
C764 H750 0.929 . S
C764 C763 1.399 . S
C764 C765 1.385 . S
C765 H751 0.931 . S
C765 C764 1.385 . S
C765 C766 1.389 . S
C766 C765 1.389 . S
C766 C767 1.387 . S
C767 H752 0.930 . S
C767 C762 1.390 . S
C767 C766 1.387 . S
H768 C780 0.930 . S
H769 C782 0.930 . S
H770 C783 0.930 . S
H771 C787 0.959 . S
H772 C787 0.959 . S
H773 C787 0.961 . S
H774 C788 0.960 . S
H775 C788 0.961 . S
H776 C788 0.959 . S
H777 C791 0.929 . S
H778 C792 0.931 . S
H779 C794 0.930 . S
C780 H768 0.930 . S
C780 C781 1.399 . S
C780 C785 1.399 . S
C781 C780 1.399 . S
C781 C782 1.376 . S
C782 H769 0.930 . S
C782 C781 1.376 . S
C782 C783 1.388 . S
C783 H770 0.930 . S
C783 C782 1.388 . S
C783 C784 1.390 . S
C784 C783 1.390 . S
C784 C785 1.394 . S
C784 C790 1.465 . S
C785 C780 1.399 . S
C785 C784 1.394 . S
C785 C786 1.516 . S
C786 C785 1.516 . S
C786 C787 1.502 . S
C786 C788 1.561 . S
C786 C789 1.526 . S
C787 H771 0.959 . S
C787 H772 0.959 . S
C787 H773 0.961 . S
C787 C786 1.502 . S
C788 H774 0.960 . S
C788 H775 0.961 . S
C788 H776 0.959 . S
C788 C786 1.561 . S
C789 C786 1.526 . S
C789 C790 1.396 . S
C789 C794 1.390 . S
C790 C784 1.465 . S
C790 C789 1.396 . S
C790 C791 1.399 . S
C791 H777 0.929 . S
C791 C790 1.399 . S
C791 C792 1.385 . S
C792 H778 0.931 . S
C792 C791 1.385 . S
C792 C793 1.389 . S
C793 C792 1.389 . S
C793 C794 1.387 . S
C794 H779 0.930 . S
C794 C789 1.390 . S
C794 C793 1.387 . S
H795 C807 0.930 . S
H796 C809 0.930 . S
H797 C810 0.930 . S
H798 C814 0.959 . S
H799 C814 0.959 . S
H800 C814 0.961 . S
H801 C815 0.960 . S
H802 C815 0.961 . S
H803 C815 0.959 . S
H804 C818 0.929 . S
H805 C819 0.931 . S
H806 C821 0.930 . S
C807 H795 0.930 . S
C807 C808 1.399 . S
C807 C812 1.399 . S
C808 C807 1.399 . S
C808 C809 1.376 . S
C809 H796 0.930 . S
C809 C808 1.376 . S
C809 C810 1.388 . S
C810 H797 0.930 . S
C810 C809 1.388 . S
C810 C811 1.390 . S
C811 C810 1.390 . S
C811 C812 1.394 . S
C811 C817 1.465 . S
C812 C807 1.399 . S
C812 C811 1.394 . S
C812 C813 1.516 . S
C813 C812 1.516 . S
C813 C814 1.502 . S
C813 C815 1.561 . S
C813 C816 1.526 . S
C814 H798 0.959 . S
C814 H799 0.959 . S
C814 H800 0.961 . S
C814 C813 1.502 . S
C815 H801 0.960 . S
C815 H802 0.961 . S
C815 H803 0.959 . S
C815 C813 1.561 . S
C816 C813 1.526 . S
C816 C817 1.396 . S
C816 C821 1.390 . S
C817 C811 1.465 . S
C817 C816 1.396 . S
C817 C818 1.399 . S
C818 H804 0.929 . S
C818 C817 1.399 . S
C818 C819 1.385 . S
C819 H805 0.931 . S
C819 C818 1.385 . S
C819 C820 1.389 . S
C820 C819 1.389 . S
C820 C821 1.387 . S
C821 H806 0.930 . S
C821 C816 1.390 . S
C821 C820 1.387 . S
H822 C834 0.930 . S
H823 C836 0.930 . S
H824 C837 0.930 . S
H825 C841 0.959 . S
H826 C841 0.959 . S
H827 C841 0.961 . S
H828 C842 0.960 . S
H829 C842 0.975 . S
H830 C842 0.959 . S
H831 C845 0.929 . S
H832 C846 0.931 . S
H833 C848 0.930 . S
C834 H822 0.930 . S
C834 C835 1.399 . S
C834 C839 1.399 1_556 S
C835 C834 1.399 . S
C835 C836 1.376 . S
C836 H823 0.930 . S
C836 C835 1.376 . S
C836 C837 1.388 1_556 S
C837 H824 0.930 . S
C837 C836 1.388 1_554 S
C837 C838 1.390 . S
C838 C837 1.390 . S
C838 C839 1.394 . S
C838 C844 1.465 . S
C839 C834 1.399 1_554 S
C839 C838 1.394 . S
C839 C840 1.516 . S
C840 C839 1.516 . S
C840 C841 1.502 . S
C840 C842 1.561 1_554 S
C840 C843 1.526 . S
C841 H825 0.959 . S
C841 H826 0.959 . S
C841 H827 0.961 . S
C841 C840 1.502 . S
C842 H828 0.960 . S
C842 H829 0.975 . S
C842 H830 0.959 . S
C842 C840 1.561 1_556 S
C843 C840 1.526 . S
C843 C844 1.396 . S
C843 C848 1.390 . S
C844 C838 1.465 . S
C844 C843 1.396 . S
C844 C845 1.399 . S
C845 H831 0.929 . S
C845 C844 1.399 . S
C845 C846 1.385 . S
C846 H832 0.931 . S
C846 C845 1.385 . S
C846 C847 1.389 . S
C847 C846 1.389 . S
C847 C848 1.387 . S
C848 H833 0.930 . S
C848 C843 1.390 . S
C848 C847 1.387 . S
H849 C861 0.930 . S
H850 C863 0.930 . S
H851 C864 0.930 . S
H852 C868 0.959 . S
H853 C868 0.959 . S
H854 C868 0.961 . S
H855 C869 0.960 . S
H856 C869 0.961 . S
H857 C869 0.959 . S
H858 C872 0.929 . S
H859 C873 0.931 . S
H860 C875 0.930 . S
C861 H849 0.930 . S
C861 C862 1.399 . S
C861 C866 1.399 . S
C862 C861 1.399 . S
C862 C863 1.376 . S
C863 H850 0.930 . S
C863 C862 1.376 . S
C863 C864 1.388 . S
C864 H851 0.930 . S
C864 C863 1.388 . S
C864 C865 1.390 . S
C865 C864 1.390 . S
C865 C866 1.394 . S
C865 C871 1.465 . S
C866 C861 1.399 . S
C866 C865 1.394 . S
C866 C867 1.516 . S
C867 C866 1.516 . S
C867 C868 1.502 . S
C867 C869 1.561 . S
C867 C870 1.526 . S
C868 H852 0.959 . S
C868 H853 0.959 . S
C868 H854 0.961 . S
C868 C867 1.502 . S
C869 H855 0.960 . S
C869 H856 0.961 . S
C869 H857 0.959 . S
C869 C867 1.561 . S
C870 C867 1.526 . S
C870 C871 1.396 . S
C870 C875 1.390 . S
C871 C865 1.465 . S
C871 C870 1.396 . S
C871 C872 1.399 . S
C872 H858 0.929 . S
C872 C871 1.399 . S
C872 C873 1.385 . S
C873 H859 0.931 . S
C873 C872 1.385 . S
C873 C874 1.389 . S
C874 C873 1.389 . S
C874 C875 1.387 . S
C875 H860 0.930 . S
C875 C870 1.390 . S
C875 C874 1.387 . S
H876 C888 0.930 . S
H877 C890 0.930 . S
H878 C891 0.930 . S
H879 C895 0.959 . S
H880 C895 0.959 . S
H881 C895 0.961 . S
H882 C896 0.960 . S
H883 C896 0.961 . S
H884 C896 0.959 . S
H885 C899 0.929 . S
H886 C900 0.931 . S
H887 C902 0.930 . S
C888 H876 0.930 . S
C888 C889 1.399 . S
C888 C893 1.399 . S
C889 C888 1.399 . S
C889 C890 1.376 . S
C890 H877 0.930 . S
C890 C889 1.376 . S
C890 C891 1.388 . S
C891 H878 0.930 . S
C891 C890 1.388 . S
C891 C892 1.390 . S
C892 C891 1.390 . S
C892 C893 1.394 . S
C892 C898 1.465 . S
C893 C888 1.399 . S
C893 C892 1.394 . S
C893 C894 1.516 . S
C894 C893 1.516 . S
C894 C895 1.502 . S
C894 C896 1.561 . S
C894 C897 1.526 . S
C895 H879 0.959 . S
C895 H880 0.959 . S
C895 H881 0.961 . S
C895 C894 1.502 . S
C896 H882 0.960 . S
C896 H883 0.961 . S
C896 H884 0.959 . S
C896 C894 1.561 . S
C897 C894 1.526 . S
C897 C898 1.396 . S
C897 C902 1.390 . S
C898 C892 1.465 . S
C898 C897 1.396 . S
C898 C899 1.399 . S
C899 H885 0.929 . S
C899 C898 1.399 . S
C899 C900 1.385 . S
C900 H886 0.931 . S
C900 C899 1.385 . S
C900 C901 1.389 . S
C901 C900 1.389 . S
C901 C902 1.387 . S
C902 H887 0.930 . S
C902 C897 1.390 . S
C902 C901 1.387 . S
H903 C915 0.930 . S
H904 C917 0.930 . S
H905 C918 0.930 . S
H906 C922 0.959 . S
H907 C922 0.959 1_655 S
H908 C922 0.961 . S
H909 C923 0.960 . S
H910 C923 0.961 . S
H911 C923 0.959 . S
H912 C926 0.929 . S
H913 C927 0.931 . S
H914 C929 0.930 . S
C915 H903 0.930 . S
C915 C916 1.399 . S
C915 C920 1.399 1_455 S
C916 C915 1.399 . S
C916 C917 1.376 . S
C917 H904 0.930 . S
C917 C916 1.376 . S
C917 C918 1.388 1_455 S
C918 H905 0.930 . S
C918 C917 1.388 1_655 S
C918 C919 1.390 . S
C919 C918 1.390 . S
C919 C920 1.394 . S
C919 C925 1.465 . S
C920 C915 1.399 1_655 S
C920 C919 1.394 . S
C920 C921 1.516 . S
C921 C920 1.516 . S
C921 C922 1.502 1_655 S
C921 C923 1.561 . S
C921 C924 1.526 . S
C922 H906 0.959 . S
C922 H907 0.959 1_455 S
C922 H908 0.961 . S
C922 C921 1.502 1_455 S
C923 H909 0.960 . S
C923 H910 0.961 . S
C923 H911 0.959 . S
C923 C921 1.561 . S
C924 C921 1.526 . S
C924 C925 1.396 . S
C924 C929 1.390 . S
C925 C919 1.465 . S
C925 C924 1.396 . S
C925 C926 1.399 . S
C926 H912 0.929 . S
C926 C925 1.399 . S
C926 C927 1.385 . S
C927 H913 0.931 . S
C927 C926 1.385 . S
C927 C928 1.389 . S
C928 C927 1.389 . S
C928 C929 1.387 . S
C929 H914 0.930 . S
C929 C924 1.390 . S
C929 C928 1.387 . S
H930 C942 0.930 . S
H931 C944 0.930 . S
H932 C945 0.930 . S
H933 C949 0.959 . S
H934 C949 0.959 . S
H935 C949 0.961 . S
H936 C950 0.960 . S
H937 C950 0.961 . S
H938 C950 0.959 . S
H939 C953 0.929 . S
H940 C954 0.931 . S
H941 C956 0.930 . S
C942 H930 0.930 . S
C942 C943 1.399 . S
C942 C947 1.399 1_655 S
C943 C942 1.399 . S
C943 C944 1.376 . S
C944 H931 0.930 . S
C944 C943 1.376 . S
C944 C945 1.388 1_655 S
C945 H932 0.930 . S
C945 C944 1.388 1_455 S
C945 C946 1.390 . S
C946 C945 1.390 . S
C946 C947 1.394 . S
C946 C952 1.465 . S
C947 C942 1.399 1_455 S
C947 C946 1.394 . S
C947 C948 1.516 . S
C948 C947 1.516 . S
C948 C949 1.502 . S
C948 C950 1.561 1_455 S
C948 C951 1.526 . S
C949 H933 0.959 . S
C949 H934 0.959 . S
C949 H935 0.961 . S
C949 C948 1.502 . S
C950 H936 0.960 . S
C950 H937 0.961 . S
C950 H938 0.959 . S
C950 C948 1.561 1_655 S
C951 C948 1.526 . S
C951 C952 1.396 . S
C951 C956 1.390 . S
C952 C946 1.465 . S
C952 C951 1.396 . S
C952 C953 1.399 . S
C953 H939 0.929 . S
C953 C952 1.399 . S
C953 C954 1.385 . S
C954 H940 0.931 . S
C954 C953 1.385 . S
C954 C955 1.389 . S
C955 C954 1.389 . S
C955 C956 1.387 . S
C956 H941 0.930 . S
C956 C951 1.390 . S
C956 C955 1.387 . S
H957 C969 0.930 . S
H958 C971 0.930 . S
H959 C972 0.930 . S
H960 C976 0.959 . S
H961 C976 0.959 . S
H962 C976 0.961 . S
H963 C977 0.960 . S
H964 C977 0.961 . S
H965 C977 0.959 . S
H966 C980 0.929 . S
H967 C981 0.931 . S
H968 C983 0.930 . S
C969 H957 0.930 . S
C969 C970 1.399 . S
C969 C974 1.399 . S
C970 C969 1.399 . S
C970 C971 1.376 . S
C971 H958 0.930 . S
C971 C970 1.376 . S
C971 C972 1.388 . S
C972 H959 0.930 . S
C972 C971 1.388 . S
C972 C973 1.390 . S
C973 C972 1.390 . S
C973 C974 1.394 . S
C973 C979 1.465 . S
C974 C969 1.399 . S
C974 C973 1.394 . S
C974 C975 1.516 . S
C975 C974 1.516 . S
C975 C976 1.502 . S
C975 C977 1.561 . S
C975 C978 1.526 . S
C976 H960 0.959 . S
C976 H961 0.959 . S
C976 H962 0.961 . S
C976 C975 1.502 . S
C977 H963 0.960 . S
C977 H964 0.961 . S
C977 H965 0.959 . S
C977 C975 1.561 . S
C978 C975 1.526 . S
C978 C979 1.396 . S
C978 C983 1.390 . S
C979 C973 1.465 . S
C979 C978 1.396 . S
C979 C980 1.399 . S
C980 H966 0.929 . S
C980 C979 1.399 . S
C980 C981 1.385 . S
C981 H967 0.931 . S
C981 C980 1.385 . S
C981 C982 1.389 . S
C982 C981 1.389 . S
C982 C983 1.387 . S
C983 H968 0.930 . S
C983 C978 1.390 . S
C983 C982 1.387 . S
H984 C996 0.930 . S
H985 C998 0.930 . S
H986 C999 0.930 . S
H987 C1003 0.959 . S
H988 C1003 0.959 . S
H989 C1003 0.961 . S
H990 C1004 0.960 . S
H991 C1004 0.961 . S
H992 C1004 0.959 . S
H993 C1007 0.929 . S
H994 C1008 0.931 . S
H995 C1010 0.930 . S
C996 H984 0.930 . S
C996 C997 1.399 . S
C996 C1001 1.399 . S
C997 C996 1.399 . S
C997 C998 1.376 . S
C998 H985 0.930 . S
C998 C997 1.376 . S
C998 C999 1.388 . S
C999 H986 0.930 . S
C999 C998 1.388 . S
C999 C1000 1.390 . S
C1000 C999 1.390 . S
C1000 C1001 1.394 . S
C1000 C1006 1.465 . S
C1001 C996 1.399 . S
C1001 C1000 1.394 . S
C1001 C1002 1.516 . S
C1002 C1001 1.516 . S
C1002 C1003 1.502 . S
C1002 C1004 1.561 . S
C1002 C1005 1.526 . S
C1003 H987 0.959 . S
C1003 H988 0.959 . S
C1003 H989 0.961 . S
C1003 C1002 1.502 . S
C1004 H990 0.960 . S
C1004 H991 0.961 . S
C1004 H992 0.959 . S
C1004 C1002 1.561 . S
C1005 C1002 1.526 . S
C1005 C1006 1.396 . S
C1005 C1010 1.390 . S
C1006 C1000 1.465 . S
C1006 C1005 1.396 . S
C1006 C1007 1.399 . S
C1007 H993 0.929 . S
C1007 C1006 1.399 . S
C1007 C1008 1.385 . S
C1008 H994 0.931 . S
C1008 C1007 1.385 . S
C1008 C1009 1.389 . S
C1009 C1008 1.389 . S
C1009 C1010 1.387 . S
C1010 H995 0.930 . S
C1010 C1005 1.390 . S
C1010 C1009 1.387 . S
H1011 C1023 0.930 . S
H1012 C1025 0.930 1_545 S
H1013 C1026 0.930 . S
H1014 C1030 0.959 . S
H1015 C1030 0.959 . S
H1016 C1030 0.961 . S
H1017 C1031 0.960 . S
H1018 C1031 0.961 . S
H1019 C1031 0.959 . S
H1020 C1034 0.929 . S
H1021 C1035 0.931 . S
H1022 C1037 0.930 . S
C1023 H1011 0.930 . S
C1023 C1024 1.392 1_565 S
C1023 C1028 1.399 . S
C1024 C1023 1.392 1_545 S
C1024 C1025 1.375 1_545 S
C1025 H1012 0.930 1_565 S
C1025 C1024 1.375 1_565 S
C1025 C1026 1.388 . S
C1026 H1013 0.930 . S
C1026 C1025 1.388 . S
C1026 C1027 1.390 . S
C1027 C1026 1.390 . S
C1027 C1028 1.394 . S
C1027 C1033 1.465 . S
C1028 C1023 1.399 . S
C1028 C1027 1.394 . S
C1028 C1029 1.516 . S
C1029 C1028 1.516 . S
C1029 C1030 1.502 . S
C1029 C1031 1.561 . S
C1029 C1032 1.526 . S
C1030 H1014 0.959 . S
C1030 H1015 0.959 . S
C1030 H1016 0.961 . S
C1030 C1029 1.502 . S
C1031 H1017 0.960 . S
C1031 H1018 0.961 . S
C1031 H1019 0.959 . S
C1031 C1029 1.561 . S
C1032 C1029 1.526 . S
C1032 C1033 1.396 . S
C1032 C1037 1.390 . S
C1033 C1027 1.465 . S
C1033 C1032 1.396 . S
C1033 C1034 1.399 . S
C1034 H1020 0.929 . S
C1034 C1033 1.399 . S
C1034 C1035 1.385 . S
C1035 H1021 0.931 . S
C1035 C1034 1.385 . S
C1035 C1036 1.389 . S
C1036 C1035 1.389 . S
C1036 C1037 1.387 . S
C1037 H1022 0.930 . S
C1037 C1032 1.390 . S
C1037 C1036 1.387 . S
H1038 C1050 0.930 . S
H1039 C1052 0.930 . S
H1040 C1053 0.930 . S
H1041 C1057 0.959 . S
H1042 C1057 0.959 . S
H1043 C1057 0.961 . S
H1044 C1058 0.960 . S
H1045 C1058 0.961 . S
H1046 C1058 0.959 . S
H1047 C1061 0.929 . S
H1048 C1062 0.931 . S
H1049 C1064 0.930 . S
C1050 H1038 0.930 . S
C1050 C1051 1.399 . S
C1050 C1055 1.399 . S
C1051 C1050 1.399 . S
C1051 C1052 1.376 . S
C1052 H1039 0.930 . S
C1052 C1051 1.376 . S
C1052 C1053 1.388 . S
C1053 H1040 0.930 . S
C1053 C1052 1.388 . S
C1053 C1054 1.390 . S
C1054 C1053 1.390 . S
C1054 C1055 1.394 . S
C1054 C1060 1.465 . S
C1055 C1050 1.399 . S
C1055 C1054 1.394 . S
C1055 C1056 1.516 . S
C1056 C1055 1.516 . S
C1056 C1057 1.502 . S
C1056 C1058 1.561 . S
C1056 C1059 1.526 . S
C1057 H1041 0.959 . S
C1057 H1042 0.959 . S
C1057 H1043 0.961 . S
C1057 C1056 1.502 . S
C1058 H1044 0.960 . S
C1058 H1045 0.961 . S
C1058 H1046 0.959 . S
C1058 C1056 1.561 . S
C1059 C1056 1.526 . S
C1059 C1060 1.396 . S
C1059 C1064 1.390 . S
C1060 C1054 1.465 . S
C1060 C1059 1.396 . S
C1060 C1061 1.399 . S
C1061 H1047 0.929 . S
C1061 C1060 1.399 . S
C1061 C1062 1.385 . S
C1062 H1048 0.931 . S
C1062 C1061 1.385 . S
C1062 C1063 1.389 . S
C1063 C1062 1.389 . S
C1063 C1064 1.387 . S
C1064 H1049 0.930 . S
C1064 C1059 1.390 . S
C1064 C1063 1.387 . S
H1065 C1077 0.930 . S
H1066 C1079 0.930 . S
H1067 C1080 0.930 . S
H1068 C1084 0.959 1_565 S
H1069 C1084 0.959 . S
H1070 C1084 0.961 . S
H1071 C1085 0.960 . S
H1072 C1085 0.961 . S
H1073 C1085 0.959 . S
H1074 C1088 0.929 . S
H1075 C1089 0.931 1_565 S
H1076 C1091 0.930 1_556 S
C1077 H1065 0.930 . S
C1077 C1078 1.399 . S
C1077 C1082 1.399 . S
C1078 C1077 1.399 . S
C1078 C1079 1.376 . S
C1079 H1066 0.930 . S
C1079 C1078 1.376 . S
C1079 C1080 1.388 . S
C1080 H1067 0.930 . S
C1080 C1079 1.388 . S
C1080 C1081 1.390 . S
C1081 C1080 1.390 . S
C1081 C1082 1.394 . S
C1081 C1087 1.465 . S
C1082 C1077 1.399 . S
C1082 C1081 1.394 . S
C1082 C1083 1.516 . S
C1083 C1082 1.516 . S
C1083 C1084 1.502 . S
C1083 C1085 1.561 . S
C1083 C1086 1.526 . S
C1084 H1068 0.959 1_545 S
C1084 H1069 0.959 . S
C1084 H1070 0.961 . S
C1084 C1083 1.502 . S
C1085 H1071 0.960 . S
C1085 H1072 0.961 . S
C1085 H1073 0.959 . S
C1085 C1083 1.561 . S
C1086 C1083 1.526 . S
C1086 C1087 1.396 . S
C1086 C1091 1.390 . S
C1087 C1081 1.465 . S
C1087 C1086 1.396 . S
C1087 C1088 1.399 . S
C1088 H1074 0.929 . S
C1088 C1087 1.399 . S
C1088 C1089 1.385 . S
C1089 H1075 0.931 1_545 S
C1089 C1088 1.385 . S
C1089 C1090 1.382 1_544 S
C1090 C1089 1.382 1_566 S
C1090 C1091 1.374 1_566 S
C1091 H1076 0.930 1_554 S
C1091 C1086 1.390 . S
C1091 C1090 1.374 1_544 S
H1092 C1104 0.930 . S
H1093 C1106 0.930 . S
H1094 C1107 0.930 . S
H1095 C1111 0.959 . S
H1096 C1111 0.959 . S
H1097 C1111 0.961 . S
H1098 C1112 0.960 . S
H1099 C1112 0.961 . S
H1100 C1112 0.959 . S
H1101 C1115 0.929 . S
H1102 C1116 0.931 . S
H1103 C1118 0.930 . S
C1104 H1092 0.930 . S
C1104 C1105 1.399 . S
C1104 C1109 1.399 . S
C1105 C1104 1.399 . S
C1105 C1106 1.376 . S
C1106 H1093 0.930 . S
C1106 C1105 1.376 . S
C1106 C1107 1.388 . S
C1107 H1094 0.930 . S
C1107 C1106 1.388 . S
C1107 C1108 1.390 . S
C1108 C1107 1.390 . S
C1108 C1109 1.394 . S
C1108 C1114 1.465 . S
C1109 C1104 1.399 . S
C1109 C1108 1.394 . S
C1109 C1110 1.516 . S
C1110 C1109 1.516 . S
C1110 C1111 1.502 . S
C1110 C1112 1.561 . S
C1110 C1113 1.526 . S
C1111 H1095 0.959 . S
C1111 H1096 0.959 . S
C1111 H1097 0.961 . S
C1111 C1110 1.502 . S
C1112 H1098 0.960 . S
C1112 H1099 0.961 . S
C1112 H1100 0.959 . S
C1112 C1110 1.561 . S
C1113 C1110 1.526 . S
C1113 C1114 1.396 . S
C1113 C1118 1.390 . S
C1114 C1108 1.465 . S
C1114 C1113 1.396 . S
C1114 C1115 1.399 . S
C1115 H1101 0.929 . S
C1115 C1114 1.399 . S
C1115 C1116 1.385 . S
C1116 H1102 0.931 . S
C1116 C1115 1.385 . S
C1116 C1117 1.389 . S
C1117 C1116 1.389 . S
C1117 C1118 1.387 . S
C1118 H1103 0.930 . S
C1118 C1113 1.390 . S
C1118 C1117 1.387 . S
H1119 C1131 0.930 . S
H1120 C1133 0.930 . S
H1121 C1134 0.930 . S
H1122 C1138 0.959 . S
H1123 C1138 0.959 . S
H1124 C1138 0.961 . S
H1125 C1139 0.960 . S
H1126 C1139 0.961 . S
H1127 C1139 0.959 . S
H1128 C1142 0.929 . S
H1129 C1143 0.931 . S
H1130 C1145 0.930 . S
C1131 H1119 0.930 . S
C1131 C1132 1.399 1_556 S
C1131 C1136 1.399 . S
C1132 C1131 1.399 1_554 S
C1132 C1133 1.376 . S
C1133 H1120 0.930 . S
C1133 C1132 1.376 . S
C1133 C1134 1.388 1_554 S
C1134 H1121 0.930 . S
C1134 C1133 1.388 1_556 S
C1134 C1135 1.390 . S
C1135 C1134 1.390 . S
C1135 C1136 1.394 . S
C1135 C1141 1.465 . S
C1136 C1131 1.399 . S
C1136 C1135 1.394 . S
C1136 C1137 1.516 . S
C1137 C1136 1.516 . S
C1137 C1138 1.502 . S
C1137 C1139 1.561 . S
C1137 C1140 1.526 . S
C1138 H1122 0.959 . S
C1138 H1123 0.959 . S
C1138 H1124 0.961 . S
C1138 C1137 1.502 . S
C1139 H1125 0.960 . S
C1139 H1126 0.961 . S
C1139 H1127 0.959 . S
C1139 C1137 1.561 . S
C1140 C1137 1.526 . S
C1140 C1141 1.396 . S
C1140 C1145 1.390 . S
C1141 C1135 1.465 . S
C1141 C1140 1.396 . S
C1141 C1142 1.399 . S
C1142 H1128 0.929 . S
C1142 C1141 1.399 . S
C1142 C1143 1.385 . S
C1143 H1129 0.931 . S
C1143 C1142 1.385 . S
C1143 C1144 1.389 . S
C1144 C1143 1.389 . S
C1144 C1145 1.387 . S
C1145 H1130 0.930 . S
C1145 C1140 1.390 . S
C1145 C1144 1.387 . S
H1146 C1158 0.930 . S
H1147 C1160 0.930 . S
H1148 C1161 0.930 . S
H1149 C1165 0.959 . S
H1150 C1165 0.959 . S
H1151 C1165 0.961 . S
H1152 C1166 0.960 . S
H1153 C1166 0.961 . S
H1154 C1166 0.959 . S
H1155 C1169 0.929 . S
H1156 C1170 0.931 . S
H1157 C1172 0.930 . S
C1158 H1146 0.930 . S
C1158 C1159 1.399 . S
C1158 C1163 1.399 . S
C1159 C1158 1.399 . S
C1159 C1160 1.376 . S
C1160 H1147 0.930 . S
C1160 C1159 1.376 . S
C1160 C1161 1.388 . S
C1161 H1148 0.930 . S
C1161 C1160 1.388 . S
C1161 C1162 1.390 . S
C1162 C1161 1.390 . S
C1162 C1163 1.394 . S
C1162 C1168 1.465 . S
C1163 C1158 1.399 . S
C1163 C1162 1.394 . S
C1163 C1164 1.516 . S
C1164 C1163 1.516 . S
C1164 C1165 1.502 . S
C1164 C1166 1.561 . S
C1164 C1167 1.526 . S
C1165 H1149 0.959 . S
C1165 H1150 0.959 . S
C1165 H1151 0.961 . S
C1165 C1164 1.502 . S
C1166 H1152 0.960 . S
C1166 H1153 0.961 . S
C1166 H1154 0.959 . S
C1166 C1164 1.561 . S
C1167 C1164 1.526 . S
C1167 C1168 1.396 . S
C1167 C1172 1.390 . S
C1168 C1162 1.465 . S
C1168 C1167 1.396 . S
C1168 C1169 1.399 . S
C1169 H1155 0.929 . S
C1169 C1168 1.399 . S
C1169 C1170 1.385 . S
C1170 H1156 0.931 . S
C1170 C1169 1.385 . S
C1170 C1171 1.389 . S
C1171 C1170 1.389 . S
C1171 C1172 1.387 . S
C1172 H1157 0.930 . S
C1172 C1167 1.390 . S
C1172 C1171 1.387 . S
H1173 C1185 0.930 . S
H1174 C1187 0.930 . S
H1175 C1188 0.930 . S
H1176 C1192 0.959 . S
H1177 C1192 0.959 . S
H1178 C1192 0.961 . S
H1179 C1193 0.960 . S
H1180 C1193 0.961 . S
H1181 C1193 0.959 . S
H1182 C1196 0.929 . S
H1183 C1197 0.931 . S
H1184 C1199 0.930 . S
C1185 H1173 0.930 . S
C1185 C1186 1.399 . S
C1185 C1190 1.399 . S
C1186 C1185 1.399 . S
C1186 C1187 1.376 . S
C1187 H1174 0.930 . S
C1187 C1186 1.376 . S
C1187 C1188 1.388 . S
C1188 H1175 0.930 . S
C1188 C1187 1.388 . S
C1188 C1189 1.390 . S
C1189 C1188 1.390 . S
C1189 C1190 1.394 . S
C1189 C1195 1.465 . S
C1190 C1185 1.399 . S
C1190 C1189 1.394 . S
C1190 C1191 1.516 . S
C1191 C1190 1.516 . S
C1191 C1192 1.502 . S
C1191 C1193 1.561 . S
C1191 C1194 1.526 . S
C1192 H1176 0.959 . S
C1192 H1177 0.959 . S
C1192 H1178 0.961 . S
C1192 C1191 1.502 . S
C1193 H1179 0.960 . S
C1193 H1180 0.961 . S
C1193 H1181 0.959 . S
C1193 C1191 1.561 . S
C1194 C1191 1.526 . S
C1194 C1195 1.396 . S
C1194 C1199 1.390 . S
C1195 C1189 1.465 . S
C1195 C1194 1.396 . S
C1195 C1196 1.399 . S
C1196 H1182 0.929 . S
C1196 C1195 1.399 . S
C1196 C1197 1.385 . S
C1197 H1183 0.931 . S
C1197 C1196 1.385 . S
C1197 C1198 1.389 . S
C1198 C1197 1.389 . S
C1198 C1199 1.387 . S
C1199 H1184 0.930 . S
C1199 C1194 1.390 . S
C1199 C1198 1.387 . S
H1200 C1212 0.930 . S
H1201 C1214 0.930 . S
H1202 C1215 0.930 . S
H1203 C1219 0.959 . S
H1204 C1219 0.959 . S
H1205 C1219 0.961 . S
H1206 C1220 0.960 . S
H1207 C1220 0.961 . S
H1208 C1220 0.959 . S
H1209 C1223 0.929 . S
H1210 C1224 0.931 . S
H1211 C1226 0.930 . S
C1212 H1200 0.930 . S
C1212 C1213 1.399 . S
C1212 C1217 1.399 . S
C1213 C1212 1.399 . S
C1213 C1214 1.376 . S
C1214 H1201 0.930 . S
C1214 C1213 1.376 . S
C1214 C1215 1.388 . S
C1215 H1202 0.930 . S
C1215 C1214 1.388 . S
C1215 C1216 1.390 . S
C1216 C1215 1.390 . S
C1216 C1217 1.394 . S
C1216 C1222 1.465 . S
C1217 C1212 1.399 . S
C1217 C1216 1.394 . S
C1217 C1218 1.516 . S
C1218 C1217 1.516 . S
C1218 C1219 1.502 . S
C1218 C1220 1.561 . S
C1218 C1221 1.526 . S
C1219 H1203 0.959 . S
C1219 H1204 0.959 . S
C1219 H1205 0.961 . S
C1219 C1218 1.502 . S
C1220 H1206 0.960 . S
C1220 H1207 0.961 . S
C1220 H1208 0.959 . S
C1220 C1218 1.561 . S
C1221 C1218 1.526 . S
C1221 C1222 1.396 . S
C1221 C1226 1.390 . S
C1222 C1216 1.465 . S
C1222 C1221 1.396 . S
C1222 C1223 1.399 . S
C1223 H1209 0.929 . S
C1223 C1222 1.399 . S
C1223 C1224 1.385 . S
C1224 H1210 0.931 . S
C1224 C1223 1.385 . S
C1224 C1225 1.389 . S
C1225 C1224 1.389 . S
C1225 C1226 1.387 . S
C1226 H1211 0.930 . S
C1226 C1221 1.390 . S
C1226 C1225 1.387 . S
H1227 C1239 0.930 1_565 S
H1228 C1241 0.930 . S
H1229 C1242 0.930 1_655 S
H1230 C1246 0.959 . S
H1231 C1246 0.959 . S
H1232 C1246 0.979 . S
H1233 C1247 0.960 . S
H1234 C1247 0.961 . S
H1235 C1247 0.959 . S
H1236 C1250 0.929 . S
H1237 C1251 0.931 . S
H1238 C1253 0.930 . S
C1239 H1227 0.930 1_545 S
C1239 C1240 1.399 1_445 S
C1239 C1244 1.399 . S
C1240 C1239 1.399 1_665 S
C1240 C1241 1.376 1_565 S
C1241 H1228 0.930 . S
C1241 C1240 1.376 1_545 S
C1241 C1242 1.388 1_655 S
C1242 H1229 0.930 1_455 S
C1242 C1241 1.388 1_455 S
C1242 C1243 1.390 . S
C1243 C1242 1.390 . S
C1243 C1244 1.394 . S
C1243 C1249 1.465 . S
C1244 C1239 1.399 . S
C1244 C1243 1.394 . S
C1244 C1245 1.516 . S
C1245 C1244 1.516 . S
C1245 C1246 1.502 . S
C1245 C1247 1.561 . S
C1245 C1248 1.526 . S
C1246 H1230 0.959 . S
C1246 H1231 0.959 . S
C1246 H1232 0.979 . S
C1246 C1245 1.502 . S
C1247 H1233 0.960 . S
C1247 H1234 0.961 . S
C1247 H1235 0.959 . S
C1247 C1245 1.561 . S
C1248 C1245 1.526 . S
C1248 C1249 1.396 . S
C1248 C1253 1.390 . S
C1249 C1243 1.465 . S
C1249 C1248 1.396 . S
C1249 C1250 1.399 . S
C1250 H1236 0.929 . S
C1250 C1249 1.399 . S
C1250 C1251 1.385 . S
C1251 H1237 0.931 . S
C1251 C1250 1.385 . S
C1251 C1252 1.389 . S
C1252 C1251 1.389 . S
C1252 C1253 1.387 . S
C1253 H1238 0.930 . S
C1253 C1248 1.390 . S
C1253 C1252 1.387 . S
H1254 C1266 0.930 . S
H1255 C1268 0.930 . S
H1256 C1269 0.930 . S
H1257 C1273 0.959 . S
H1258 C1273 0.959 . S
H1259 C1273 0.961 . S
H1260 C1274 0.960 . S
H1261 C1274 0.961 . S
H1262 C1274 0.959 . S
H1263 C1277 0.929 . S
H1264 C1278 0.931 . S
H1265 C1280 0.930 . S
C1266 H1254 0.930 . S
C1266 C1267 1.399 . S
C1266 C1271 1.399 . S
C1267 C1266 1.399 . S
C1267 C1268 1.376 . S
C1268 H1255 0.930 . S
C1268 C1267 1.376 . S
C1268 C1269 1.388 . S
C1269 H1256 0.930 . S
C1269 C1268 1.388 . S
C1269 C1270 1.390 . S
C1270 C1269 1.390 . S
C1270 C1271 1.394 . S
C1270 C1276 1.465 . S
C1271 C1266 1.399 . S
C1271 C1270 1.394 . S
C1271 C1272 1.516 . S
C1272 C1271 1.516 . S
C1272 C1273 1.502 . S
C1272 C1274 1.561 . S
C1272 C1275 1.526 . S
C1273 H1257 0.959 . S
C1273 H1258 0.959 . S
C1273 H1259 0.961 . S
C1273 C1272 1.502 . S
C1274 H1260 0.960 . S
C1274 H1261 0.961 . S
C1274 H1262 0.959 . S
C1274 C1272 1.561 . S
C1275 C1272 1.526 . S
C1275 C1276 1.396 . S
C1275 C1280 1.390 . S
C1276 C1270 1.465 . S
C1276 C1275 1.396 . S
C1276 C1277 1.399 . S
C1277 H1263 0.929 . S
C1277 C1276 1.399 . S
C1277 C1278 1.385 . S
C1278 H1264 0.931 . S
C1278 C1277 1.385 . S
C1278 C1279 1.389 . S
C1279 C1278 1.389 . S
C1279 C1280 1.387 . S
C1280 H1265 0.930 . S
C1280 C1275 1.390 . S
C1280 C1279 1.387 . S
H1281 C1293 0.930 . S
H1282 C1295 0.930 . S
H1283 C1296 0.930 . S
H1284 C1300 0.959 . S
H1285 C1300 0.959 . S
H1286 C1300 0.961 . S
H1287 C1301 0.960 . S
H1288 C1301 0.961 . S
H1289 C1301 0.959 . S
H1290 C1304 0.929 . S
H1291 C1305 0.931 . S
H1292 C1307 0.930 . S
C1293 H1281 0.930 . S
C1293 C1294 1.399 1_565 S
C1293 C1298 1.399 . S
C1294 C1293 1.399 1_545 S
C1294 C1295 1.376 . S
C1295 H1282 0.930 . S
C1295 C1294 1.376 . S
C1295 C1296 1.388 1_545 S
C1296 H1283 0.930 . S
C1296 C1295 1.388 1_565 S
C1296 C1297 1.390 . S
C1297 C1296 1.390 . S
C1297 C1298 1.394 . S
C1297 C1303 1.465 . S
C1298 C1293 1.399 . S
C1298 C1297 1.394 . S
C1298 C1299 1.516 . S
C1299 C1298 1.516 . S
C1299 C1300 1.502 . S
C1299 C1301 1.561 . S
C1299 C1302 1.526 . S
C1300 H1284 0.959 . S
C1300 H1285 0.959 . S
C1300 H1286 0.961 . S
C1300 C1299 1.502 . S
C1301 H1287 0.960 . S
C1301 H1288 0.961 . S
C1301 H1289 0.959 . S
C1301 C1299 1.561 . S
C1302 C1299 1.526 . S
C1302 C1303 1.396 . S
C1302 C1307 1.390 . S
C1303 C1297 1.465 . S
C1303 C1302 1.396 . S
C1303 C1304 1.399 . S
C1304 H1290 0.929 . S
C1304 C1303 1.399 . S
C1304 C1305 1.385 . S
C1305 H1291 0.931 . S
C1305 C1304 1.385 . S
C1305 C1306 1.389 . S
C1306 C1305 1.389 . S
C1306 C1307 1.387 . S
C1307 H1292 0.930 . S
C1307 C1302 1.390 . S
C1307 C1306 1.387 . S
H1308 C1320 0.930 . S
H1309 C1322 0.930 . S
H1310 C1323 0.930 . S
H1311 C1327 0.959 . S
H1312 C1327 0.959 . S
H1313 C1327 0.961 . S
H1314 C1328 0.960 . S
H1315 C1328 0.961 . S
H1316 C1328 0.959 . S
H1317 C1331 0.929 . S
H1318 C1332 0.931 . S
H1319 C1334 0.930 . S
C1320 H1308 0.930 . S
C1320 C1321 1.399 . S
C1320 C1325 1.399 . S
C1321 C1320 1.399 . S
C1321 C1322 1.376 . S
C1322 H1309 0.930 . S
C1322 C1321 1.376 . S
C1322 C1323 1.388 . S
C1323 H1310 0.930 . S
C1323 C1322 1.388 . S
C1323 C1324 1.390 . S
C1324 C1323 1.390 . S
C1324 C1325 1.394 . S
C1324 C1330 1.465 . S
C1325 C1320 1.399 . S
C1325 C1324 1.394 . S
C1325 C1326 1.516 . S
C1326 C1325 1.516 . S
C1326 C1327 1.502 . S
C1326 C1328 1.561 . S
C1326 C1329 1.526 . S
C1327 H1311 0.959 . S
C1327 H1312 0.959 . S
C1327 H1313 0.961 . S
C1327 C1326 1.502 . S
C1328 H1314 0.960 . S
C1328 H1315 0.961 . S
C1328 H1316 0.959 . S
C1328 C1326 1.561 . S
C1329 C1326 1.526 . S
C1329 C1330 1.396 . S
C1329 C1334 1.390 . S
C1330 C1324 1.465 . S
C1330 C1329 1.396 . S
C1330 C1331 1.399 . S
C1331 H1317 0.929 . S
C1331 C1330 1.399 . S
C1331 C1332 1.385 . S
C1332 H1318 0.931 . S
C1332 C1331 1.385 . S
C1332 C1333 1.389 . S
C1333 C1332 1.389 . S
C1333 C1334 1.387 . S
C1334 H1319 0.930 . S
C1334 C1329 1.390 . S
C1334 C1333 1.387 . S
H1335 C1347 0.930 1_455 S
H1336 C1349 0.930 . S
H1337 C1350 0.930 . S
H1338 C1354 0.959 . S
H1339 C1354 0.950 1_655 S
H1340 C1354 0.961 . S
H1341 C1355 0.960 . S
H1342 C1355 0.961 . S
H1343 C1355 0.959 . S
H1344 C1358 0.929 . S
H1345 C1359 0.931 . S
H1346 C1361 0.930 . S
C1347 H1335 0.930 1_655 S
C1347 C1348 1.400 . S
C1347 C1352 1.399 . S
C1348 C1347 1.400 . S
C1348 C1349 1.389 . S
C1349 H1336 0.930 . S
C1349 C1348 1.389 . S
C1349 C1350 1.388 . S
C1350 H1337 0.930 . S
C1350 C1349 1.388 . S
C1350 C1351 1.390 . S
C1351 C1350 1.390 . S
C1351 C1352 1.394 . S
C1351 C1357 1.465 . S
C1352 C1347 1.399 . S
C1352 C1351 1.394 . S
C1352 C1353 1.516 . S
C1353 C1352 1.516 . S
C1353 C1354 1.502 1_655 S
C1353 C1355 1.561 . S
C1353 C1356 1.526 . S
C1354 H1338 0.959 . S
C1354 H1339 0.950 1_455 S
C1354 H1340 0.961 . S
C1354 C1353 1.502 1_455 S
C1355 H1341 0.960 . S
C1355 H1342 0.961 . S
C1355 H1343 0.959 . S
C1355 C1353 1.561 . S
C1356 C1353 1.526 . S
C1356 C1357 1.396 . S
C1356 C1361 1.390 . S
C1357 C1351 1.465 . S
C1357 C1356 1.396 . S
C1357 C1358 1.399 . S
C1358 H1344 0.929 . S
C1358 C1357 1.399 . S
C1358 C1359 1.385 . S
C1359 H1345 0.931 . S
C1359 C1358 1.385 . S
C1359 C1360 1.389 . S
C1360 C1359 1.389 . S
C1360 C1361 1.387 . S
C1361 H1346 0.930 . S
C1361 C1356 1.390 . S
C1361 C1360 1.387 . S
H1362 C1374 0.930 . S
H1363 C1376 0.930 . S
H1364 C1377 0.930 . S
H1365 C1381 0.959 . S
H1366 C1381 0.959 . S
H1367 C1381 0.961 . S
H1368 C1382 0.960 . S
H1369 C1382 0.961 . S
H1370 C1382 0.959 . S
H1371 C1385 0.929 . S
H1372 C1386 0.931 . S
H1373 C1388 0.930 . S
C1374 H1362 0.930 . S
C1374 C1375 1.399 . S
C1374 C1379 1.399 . S
C1375 C1374 1.399 . S
C1375 C1376 1.376 . S
C1376 H1363 0.930 . S
C1376 C1375 1.376 . S
C1376 C1377 1.388 . S
C1377 H1364 0.930 . S
C1377 C1376 1.388 . S
C1377 C1378 1.390 . S
C1378 C1377 1.390 . S
C1378 C1379 1.394 . S
C1378 C1384 1.465 . S
C1379 C1374 1.399 . S
C1379 C1378 1.394 . S
C1379 C1380 1.516 . S
C1380 C1379 1.516 . S
C1380 C1381 1.502 . S
C1380 C1382 1.561 . S
C1380 C1383 1.526 . S
C1381 H1365 0.959 . S
C1381 H1366 0.959 . S
C1381 H1367 0.961 . S
C1381 C1380 1.502 . S
C1382 H1368 0.960 . S
C1382 H1369 0.961 . S
C1382 H1370 0.959 . S
C1382 C1380 1.561 . S
C1383 C1380 1.526 . S
C1383 C1384 1.396 . S
C1383 C1388 1.390 . S
C1384 C1378 1.465 . S
C1384 C1383 1.396 . S
C1384 C1385 1.399 . S
C1385 H1371 0.929 . S
C1385 C1384 1.399 . S
C1385 C1386 1.385 . S
C1386 H1372 0.931 . S
C1386 C1385 1.385 . S
C1386 C1387 1.389 . S
C1387 C1386 1.389 . S
C1387 C1388 1.387 . S
C1388 H1373 0.930 . S
C1388 C1383 1.390 . S
C1388 C1387 1.387 . S
H1389 C1401 0.930 . S
H1390 C1403 0.930 . S
H1391 C1404 0.930 . S
H1392 C1408 0.959 . S
H1393 C1408 0.959 . S
H1394 C1408 0.961 . S
H1395 C1409 0.960 . S
H1396 C1409 0.961 . S
H1397 C1409 0.959 . S
H1398 C1412 0.929 . S
H1399 C1413 0.931 . S
H1400 C1415 0.930 . S
C1401 H1389 0.930 . S
C1401 C1402 1.399 . S
C1401 C1406 1.399 . S
C1402 C1401 1.399 . S
C1402 C1403 1.376 . S
C1403 H1390 0.930 . S
C1403 C1402 1.376 . S
C1403 C1404 1.388 . S
C1404 H1391 0.930 . S
C1404 C1403 1.388 . S
C1404 C1405 1.390 . S
C1405 C1404 1.390 . S
C1405 C1406 1.394 . S
C1405 C1411 1.465 . S
C1406 C1401 1.399 . S
C1406 C1405 1.394 . S
C1406 C1407 1.516 . S
C1407 C1406 1.516 . S
C1407 C1408 1.502 . S
C1407 C1409 1.561 . S
C1407 C1410 1.526 . S
C1408 H1392 0.959 . S
C1408 H1393 0.959 . S
C1408 H1394 0.961 . S
C1408 C1407 1.502 . S
C1409 H1395 0.960 . S
C1409 H1396 0.961 . S
C1409 H1397 0.959 . S
C1409 C1407 1.561 . S
C1410 C1407 1.526 . S
C1410 C1411 1.396 . S
C1410 C1415 1.390 . S
C1411 C1405 1.465 . S
C1411 C1410 1.396 . S
C1411 C1412 1.399 . S
C1412 H1398 0.929 . S
C1412 C1411 1.399 . S
C1412 C1413 1.385 . S
C1413 H1399 0.931 . S
C1413 C1412 1.385 . S
C1413 C1414 1.389 . S
C1414 C1413 1.389 . S
C1414 C1415 1.387 . S
C1415 H1400 0.930 . S
C1415 C1410 1.390 . S
C1415 C1414 1.387 . S
H1416 C1428 0.930 . S
H1417 C1430 0.930 . S
H1418 C1431 0.930 . S
H1419 C1435 0.959 . S
H1420 C1435 0.959 . S
H1421 C1435 0.961 . S
H1422 C1436 0.960 . S
H1423 C1436 0.961 . S
H1424 C1436 0.959 . S
H1425 C1439 0.929 . S
H1426 C1440 0.931 . S
H1427 C1442 0.930 . S
C1428 H1416 0.930 . S
C1428 C1429 1.399 . S
C1428 C1433 1.399 . S
C1429 C1428 1.399 . S
C1429 C1430 1.376 . S
C1430 H1417 0.930 . S
C1430 C1429 1.376 . S
C1430 C1431 1.388 . S
C1431 H1418 0.930 . S
C1431 C1430 1.388 . S
C1431 C1432 1.390 . S
C1432 C1431 1.390 . S
C1432 C1433 1.394 . S
C1432 C1438 1.465 . S
C1433 C1428 1.399 . S
C1433 C1432 1.394 . S
C1433 C1434 1.516 . S
C1434 C1433 1.516 . S
C1434 C1435 1.502 . S
C1434 C1436 1.561 . S
C1434 C1437 1.526 . S
C1435 H1419 0.959 . S
C1435 H1420 0.959 . S
C1435 H1421 0.961 . S
C1435 C1434 1.502 . S
C1436 H1422 0.960 . S
C1436 H1423 0.961 . S
C1436 H1424 0.959 . S
C1436 C1434 1.561 . S
C1437 C1434 1.526 . S
C1437 C1438 1.396 . S
C1437 C1442 1.390 . S
C1438 C1432 1.465 . S
C1438 C1437 1.396 . S
C1438 C1439 1.399 . S
C1439 H1425 0.929 . S
C1439 C1438 1.399 . S
C1439 C1440 1.385 . S
C1440 H1426 0.931 . S
C1440 C1439 1.385 . S
C1440 C1441 1.389 . S
C1441 C1440 1.389 . S
C1441 C1442 1.387 . S
C1442 H1427 0.930 . S
C1442 C1437 1.390 . S
C1442 C1441 1.387 . S
H1443 C1455 0.930 . S
H1444 C1457 0.930 . S
H1445 C1458 0.930 . S
H1446 C1462 0.959 . S
H1447 C1462 0.959 . S
H1448 C1462 0.961 . S
H1449 C1463 0.960 . S
H1450 C1463 0.961 . S
H1451 C1463 0.959 . S
H1452 C1466 0.929 . S
H1453 C1467 0.931 . S
H1454 C1469 0.930 . S
C1455 H1443 0.930 . S
C1455 C1456 1.399 . S
C1455 C1460 1.399 . S
C1456 C1455 1.399 . S
C1456 C1457 1.376 . S
C1457 H1444 0.930 . S
C1457 C1456 1.376 . S
C1457 C1458 1.388 . S
C1458 H1445 0.930 . S
C1458 C1457 1.388 . S
C1458 C1459 1.390 . S
C1459 C1458 1.390 . S
C1459 C1460 1.394 . S
C1459 C1465 1.465 . S
C1460 C1455 1.399 . S
C1460 C1459 1.394 . S
C1460 C1461 1.516 . S
C1461 C1460 1.516 . S
C1461 C1462 1.502 . S
C1461 C1463 1.561 . S
C1461 C1464 1.526 . S
C1462 H1446 0.959 . S
C1462 H1447 0.959 . S
C1462 H1448 0.961 . S
C1462 C1461 1.502 . S
C1463 H1449 0.960 . S
C1463 H1450 0.961 . S
C1463 H1451 0.959 . S
C1463 C1461 1.561 . S
C1464 C1461 1.526 . S
C1464 C1465 1.396 . S
C1464 C1469 1.390 . S
C1465 C1459 1.465 . S
C1465 C1464 1.396 . S
C1465 C1466 1.399 . S
C1466 H1452 0.929 . S
C1466 C1465 1.399 . S
C1466 C1467 1.385 . S
C1467 H1453 0.931 . S
C1467 C1466 1.385 . S
C1467 C1468 1.389 . S
C1468 C1467 1.389 . S
C1468 C1469 1.387 . S
C1469 H1454 0.930 . S
C1469 C1464 1.390 . S
C1469 C1468 1.387 . S
H1470 C1482 0.930 . S
H1471 C1484 0.930 1_655 S
H1472 C1485 0.930 . S
H1473 C1489 0.959 . S
H1474 C1489 0.959 . S
H1475 C1489 0.961 . S
H1476 C1490 0.960 . S
H1477 C1490 0.961 . S
H1478 C1490 0.959 . S
H1479 C1493 0.929 . S
H1480 C1494 0.931 . S
H1481 C1496 0.930 . S
C1482 H1470 0.930 . S
C1482 C1483 1.399 1_454 S
C1482 C1487 1.399 . S
C1483 C1482 1.399 1_656 S
C1483 C1484 1.376 1_655 S
C1484 H1471 0.930 1_455 S
C1484 C1483 1.376 1_455 S
C1484 C1485 1.388 . S
C1485 H1472 0.930 . S
C1485 C1484 1.388 . S
C1485 C1486 1.390 1_556 S
C1486 C1485 1.390 1_554 S
C1486 C1487 1.394 . S
C1486 C1492 1.465 . S
C1487 C1482 1.399 . S
C1487 C1486 1.394 . S
C1487 C1488 1.516 . S
C1488 C1487 1.516 . S
C1488 C1489 1.502 . S
C1488 C1490 1.561 . S
C1488 C1491 1.526 . S
C1489 H1473 0.959 . S
C1489 H1474 0.959 . S
C1489 H1475 0.961 . S
C1489 C1488 1.502 . S
C1490 H1476 0.960 . S
C1490 H1477 0.961 . S
C1490 H1478 0.959 . S
C1490 C1488 1.561 . S
C1491 C1488 1.526 . S
C1491 C1492 1.396 . S
C1491 C1496 1.390 . S
C1492 C1486 1.465 . S
C1492 C1491 1.396 . S
C1492 C1493 1.399 . S
C1493 H1479 0.929 . S
C1493 C1492 1.399 . S
C1493 C1494 1.385 . S
C1494 H1480 0.931 . S
C1494 C1493 1.385 . S
C1494 C1495 1.389 . S
C1495 C1494 1.389 . S
C1495 C1496 1.387 . S
C1496 H1481 0.930 . S
C1496 C1491 1.390 . S
C1496 C1495 1.387 . S
H1497 C1509 0.930 . S
H1498 C1511 0.930 . S
H1499 C1512 0.930 . S
H1500 C1516 0.959 . S
H1501 C1516 0.959 . S
H1502 C1516 0.961 . S
H1503 C1517 0.960 . S
H1504 C1517 0.961 . S
H1505 C1517 0.959 . S
H1506 C1520 0.929 . S
H1507 C1521 0.931 . S
H1508 C1523 0.930 . S
C1509 H1497 0.930 . S
C1509 C1510 1.399 . S
C1509 C1514 1.399 . S
C1510 C1509 1.399 . S
C1510 C1511 1.376 . S
C1511 H1498 0.930 . S
C1511 C1510 1.376 . S
C1511 C1512 1.388 . S
C1512 H1499 0.930 . S
C1512 C1511 1.388 . S
C1512 C1513 1.390 . S
C1513 C1512 1.390 . S
C1513 C1514 1.394 . S
C1513 C1519 1.465 . S
C1514 C1509 1.399 . S
C1514 C1513 1.394 . S
C1514 C1515 1.516 . S
C1515 C1514 1.516 . S
C1515 C1516 1.502 . S
C1515 C1517 1.561 . S
C1515 C1518 1.526 . S
C1516 H1500 0.959 . S
C1516 H1501 0.959 . S
C1516 H1502 0.961 . S
C1516 C1515 1.502 . S
C1517 H1503 0.960 . S
C1517 H1504 0.961 . S
C1517 H1505 0.959 . S
C1517 C1515 1.561 . S
C1518 C1515 1.526 . S
C1518 C1519 1.396 . S
C1518 C1523 1.390 . S
C1519 C1513 1.465 . S
C1519 C1518 1.396 . S
C1519 C1520 1.399 . S
C1520 H1506 0.929 . S
C1520 C1519 1.399 . S
C1520 C1521 1.385 . S
C1521 H1507 0.931 . S
C1521 C1520 1.385 . S
C1521 C1522 1.389 . S
C1522 C1521 1.389 . S
C1522 C1523 1.387 . S
C1523 H1508 0.930 . S
C1523 C1518 1.390 . S
C1523 C1522 1.387 . S
H1524 C1536 0.930 . S
H1525 C1538 0.930 . S
H1526 C1539 0.930 . S
H1527 C1543 0.959 . S
H1528 C1543 0.959 . S
H1529 C1543 0.961 . S
H1530 C1544 0.960 . S
H1531 C1544 0.961 . S
H1532 C1544 0.959 . S
H1533 C1547 0.929 . S
H1534 C1548 0.931 . S
H1535 C1550 0.930 . S
C1536 H1524 0.930 . S
C1536 C1537 1.399 . S
C1536 C1541 1.399 . S
C1537 C1536 1.399 . S
C1537 C1538 1.376 . S
C1538 H1525 0.930 . S
C1538 C1537 1.376 . S
C1538 C1539 1.388 . S
C1539 H1526 0.930 . S
C1539 C1538 1.388 . S
C1539 C1540 1.390 . S
C1540 C1539 1.390 . S
C1540 C1541 1.394 . S
C1540 C1546 1.465 . S
C1541 C1536 1.399 . S
C1541 C1540 1.394 . S
C1541 C1542 1.516 . S
C1542 C1541 1.516 . S
C1542 C1543 1.502 . S
C1542 C1544 1.561 . S
C1542 C1545 1.526 . S
C1543 H1527 0.959 . S
C1543 H1528 0.959 . S
C1543 H1529 0.961 . S
C1543 C1542 1.502 . S
C1544 H1530 0.960 . S
C1544 H1531 0.961 . S
C1544 H1532 0.959 . S
C1544 C1542 1.561 . S
C1545 C1542 1.526 . S
C1545 C1546 1.396 . S
C1545 C1550 1.390 . S
C1546 C1540 1.465 . S
C1546 C1545 1.396 . S
C1546 C1547 1.399 . S
C1547 H1533 0.929 . S
C1547 C1546 1.399 . S
C1547 C1548 1.385 . S
C1548 H1534 0.931 . S
C1548 C1547 1.385 . S
C1548 C1549 1.389 . S
C1549 C1548 1.389 . S
C1549 C1550 1.387 . S
C1550 H1535 0.930 . S
C1550 C1545 1.390 . S
C1550 C1549 1.387 . S
H1551 C1563 0.930 . S
H1552 C1565 0.930 . S
H1553 C1566 0.930 . S
H1554 C1570 0.959 . S
H1555 C1570 0.959 . S
H1556 C1570 0.961 . S
H1557 C1571 0.960 . S
H1558 C1571 0.961 . S
H1559 C1571 0.959 . S
H1560 C1574 0.929 . S
H1561 C1575 0.931 . S
H1562 C1577 0.930 . S
C1563 H1551 0.930 . S
C1563 C1564 1.399 . S
C1563 C1568 1.399 . S
C1564 C1563 1.399 . S
C1564 C1565 1.376 . S
C1565 H1552 0.930 . S
C1565 C1564 1.376 . S
C1565 C1566 1.388 . S
C1566 H1553 0.930 . S
C1566 C1565 1.388 . S
C1566 C1567 1.390 . S
C1567 C1566 1.390 . S
C1567 C1568 1.394 . S
C1567 C1573 1.465 . S
C1568 C1563 1.399 . S
C1568 C1567 1.394 . S
C1568 C1569 1.516 . S
C1569 C1568 1.516 . S
C1569 C1570 1.502 . S
C1569 C1571 1.561 . S
C1569 C1572 1.526 . S
C1570 H1554 0.959 . S
C1570 H1555 0.959 . S
C1570 H1556 0.961 . S
C1570 C1569 1.502 . S
C1571 H1557 0.960 . S
C1571 H1558 0.961 . S
C1571 H1559 0.959 . S
C1571 C1569 1.561 . S
C1572 C1569 1.526 . S
C1572 C1573 1.396 . S
C1572 C1577 1.390 . S
C1573 C1567 1.465 . S
C1573 C1572 1.396 . S
C1573 C1574 1.399 . S
C1574 H1560 0.929 . S
C1574 C1573 1.399 . S
C1574 C1575 1.385 . S
C1575 H1561 0.931 . S
C1575 C1574 1.385 . S
C1575 C1576 1.389 . S
C1576 C1575 1.389 . S
C1576 C1577 1.387 . S
C1577 H1562 0.930 . S
C1577 C1572 1.390 . S
C1577 C1576 1.387 . S
H1578 C1590 0.930 1_554 S
H1579 C1592 0.930 . S
H1580 C1593 0.930 . S
H1581 C1597 0.959 . S
H1582 C1597 0.959 1_556 S
H1583 C1597 0.961 . S
H1584 C1598 0.960 . S
H1585 C1598 0.961 . S
H1586 C1598 0.959 . S
H1587 C1601 0.929 . S
H1588 C1602 0.931 . S
H1589 C1604 0.930 . S
C1590 H1578 0.930 1_556 S
C1590 C1591 1.400 . S
C1590 C1595 1.399 . S
C1591 C1590 1.400 . S
C1591 C1592 1.386 . S
C1592 H1579 0.930 . S
C1592 C1591 1.386 . S
C1592 C1593 1.388 . S
C1593 H1580 0.930 . S
C1593 C1592 1.388 . S
C1593 C1594 1.390 . S
C1594 C1593 1.390 . S
C1594 C1595 1.394 . S
C1594 C1600 1.465 . S
C1595 C1590 1.399 . S
C1595 C1594 1.394 . S
C1595 C1596 1.516 . S
C1596 C1595 1.516 . S
C1596 C1597 1.502 1_556 S
C1596 C1598 1.561 . S
C1596 C1599 1.526 . S
C1597 H1581 0.959 . S
C1597 H1582 0.959 1_554 S
C1597 H1583 0.961 . S
C1597 C1596 1.502 1_554 S
C1598 H1584 0.960 . S
C1598 H1585 0.961 . S
C1598 H1586 0.959 . S
C1598 C1596 1.561 . S
C1599 C1596 1.526 . S
C1599 C1600 1.396 . S
C1599 C1604 1.390 . S
C1600 C1594 1.465 . S
C1600 C1599 1.396 . S
C1600 C1601 1.399 . S
C1601 H1587 0.929 . S
C1601 C1600 1.399 . S
C1601 C1602 1.385 . S
C1602 H1588 0.931 . S
C1602 C1601 1.385 . S
C1602 C1603 1.389 . S
C1603 C1602 1.389 . S
C1603 C1604 1.387 . S
C1604 H1589 0.930 . S
C1604 C1599 1.390 . S
C1604 C1603 1.387 . S
H1605 C1617 0.930 . S
H1606 C1619 0.930 . S
H1607 C1620 0.930 . S
H1608 C1624 0.959 . S
H1609 C1624 0.959 . S
H1610 C1624 0.961 . S
H1611 C1625 0.960 . S
H1612 C1625 0.961 . S
H1613 C1625 0.959 . S
H1614 C1628 0.929 . S
H1615 C1629 0.931 1_455 S
H1616 C1631 0.930 . S
C1617 H1605 0.930 . S
C1617 C1618 1.399 . S
C1617 C1622 1.399 . S
C1618 C1617 1.399 . S
C1618 C1619 1.376 . S
C1619 H1606 0.930 . S
C1619 C1618 1.376 . S
C1619 C1620 1.388 . S
C1620 H1607 0.930 . S
C1620 C1619 1.388 . S
C1620 C1621 1.390 . S
C1621 C1620 1.390 . S
C1621 C1622 1.394 . S
C1621 C1627 1.465 . S
C1622 C1617 1.399 . S
C1622 C1621 1.394 . S
C1622 C1623 1.516 . S
C1623 C1622 1.516 . S
C1623 C1624 1.502 . S
C1623 C1625 1.561 . S
C1623 C1626 1.526 . S
C1624 H1608 0.959 . S
C1624 H1609 0.959 . S
C1624 H1610 0.961 . S
C1624 C1623 1.502 . S
C1625 H1611 0.960 . S
C1625 H1612 0.961 . S
C1625 H1613 0.959 . S
C1625 C1623 1.561 . S
C1626 C1623 1.526 . S
C1626 C1627 1.396 . S
C1626 C1631 1.390 . S
C1627 C1621 1.465 . S
C1627 C1626 1.396 . S
C1627 C1628 1.399 . S
C1628 H1614 0.929 . S
C1628 C1627 1.399 . S
C1628 C1629 1.385 . S
C1629 H1615 0.931 1_655 S
C1629 C1628 1.385 . S
C1629 C1630 1.389 1_655 S
C1630 C1629 1.389 1_455 S
C1630 C1631 1.387 1_455 S
C1631 H1616 0.930 . S
C1631 C1626 1.390 . S
C1631 C1630 1.387 1_655 S
C349 C137 1.167 . S
C361 C11 1.084 . S
C376 C25 1.069 . S
C388 C151 1.180 . S
C403 C39 1.072 . S
C415 C165 1.178 . S
C430 C53 1.083 . S
C442 C123 1.166 . S
C457 C67 1.137 . S
C469 C221 1.114 . S
C484 C179 1.114 . S
C496 C81 1.138 . S
C511 C95 1.148 . S
C523 C193 1.104 . S
C538 C207 1.178 . S
C550 C109 1.073 . S
C565 C235 1.162 . S
C577 C263 1.091 . S
C592 C319 1.157 . S
C604 C249 1.097 . S
C619 C277 1.180 . S
C631 C333 1.071 . S
C646 C305 1.113 . S
C658 C291 1.137 . S
C673 C293 1.343 . S
C685 C13 1.341 . S
C700 C27 1.452 . S
C712 C251 1.451 . S
C727 C41 1.322 . S
C739 C265 1.325 . S
C754 C55 1.432 . S
C766 C279 1.428 . S
C781 C69 1.452 . S
C793 C335 1.451 . S
C808 C307 1.328 . S
C820 C83 1.327 . S
C835 C321 1.430 . S
C847 C97 1.426 . S
C862 C237 1.429 . S
C874 C111 1.425 . S
C889 C223 1.323 . S
C901 C125 1.324 . S
C916 C139 1.327 . S
C928 C181 1.330 . S
C943 C195 1.428 . S
C955 C153 1.424 . S
C970 C209 1.359 . S
C982 C167 1.363 . S
C997 C8 0.881 . S
C1009 C231 0.902 . S
C1024 C329 0.955 . S
C1036 C22 0.899 . S
C1051 C301 0.954 . S
C1063 C36 0.932 . S
C1078 C50 0.883 . S
C1090 C315 0.935 . S
C1105 C64 0.837 . S
C1117 C245 0.911 . S
C1132 C259 0.918 . S
C1144 C78 0.852 . S
C1159 C273 0.947 . S
C1171 C92 0.913 . S
C1186 C287 0.928 . S
C1198 C106 0.926 . S
C1213 C7 0.951 . S
C1225 C120 0.924 . S
C1240 C21 0.863 . S
C1252 C134 0.793 . S
C1267 C35 0.922 . S
C1279 C148 0.861 . S
C1294 C49 0.947 . S
C1306 C162 0.953 . S
C1321 C63 0.859 . S
C1333 C176 0.781 . S
C1348 C77 0.937 1_655 S
C1360 C190 0.939 . S
C1375 C204 0.822 . S
C1387 C91 0.903 . S
C1402 C105 0.960 . S
C1414 C218 0.962 . S
C1429 C119 0.923 . S
C1441 C232 0.918 . S
C1456 C246 0.769 . S
C1468 C175 0.871 . S
C1483 C189 0.899 . S
C1495 C260 0.817 . S
C1510 C274 0.806 . S
C1522 C203 0.869 . S
C1537 C288 0.793 . S
C1549 C217 0.864 . S
C1564 C302 0.932 . S
C1576 C147 0.953 . S
C1591 C161 0.940 1_556 S
C1603 C316 0.935 . S
C1618 C330 0.949 . S
C1630 C133 0.942 . S
