# Generated by pormake.
# Topology wjf, (4)-cn, num edge types: 1
# Building blocks:
#     Node 0, Type 0, BuildingBlock: NAHDIM_clean_sbu_0, # of connection points: 4
#     Node 1, Type 0, BuildingBlock: NAHDIM_clean_sbu_0, # of connection points: 4
#     Node 2, Type 0, BuildingBlock: NAHDIM_clean_sbu_0, # of connection points: 4
#     Node 3, Type 0, BuildingBlock: NAHDIM_clean_sbu_0, # of connection points: 4
#     Node 4, Type 0, BuildingBlock: NAHDIM_clean_sbu_0, # of connection points: 4
#     Node 5, Type 0, BuildingBlock: NAHDIM_clean_sbu_0, # of connection points: 4
#     Node 6, Type 0, BuildingBlock: NAHDIM_clean_sbu_0, # of connection points: 4
#     Node 7, Type 0, BuildingBlock: NAHDIM_clean_sbu_0, # of connection points: 4
#     Node 8, Type 0, BuildingBlock: NAHDIM_clean_sbu_0, # of connection points: 4
#     Node 9, Type 0, BuildingBlock: NAHDIM_clean_sbu_0, # of connection points: 4
#     Node 10, Type 0, BuildingBlock: NAHDIM_clean_sbu_0, # of connection points: 4
#     Node 11, Type 0, BuildingBlock: NAHDIM_clean_sbu_0, # of connection points: 4
#     Edge 12, Type (0, 0), BuildingBlock: MIFKUJ_clean_linker_0, # of connection points: 2
#     Edge 13, Type (0, 0), BuildingBlock: MIFKUJ_clean_linker_0, # of connection points: 2
#     Edge 14, Type (0, 0), BuildingBlock: MIFKUJ_clean_linker_0, # of connection points: 2
#     Edge 15, Type (0, 0), BuildingBlock: MIFKUJ_clean_linker_0, # of connection points: 2
#     Edge 16, Type (0, 0), BuildingBlock: MIFKUJ_clean_linker_0, # of connection points: 2
#     Edge 17, Type (0, 0), BuildingBlock: MIFKUJ_clean_linker_0, # of connection points: 2
#     Edge 18, Type (0, 0), BuildingBlock: MIFKUJ_clean_linker_0, # of connection points: 2
#     Edge 19, Type (0, 0), BuildingBlock: MIFKUJ_clean_linker_0, # of connection points: 2
#     Edge 20, Type (0, 0), BuildingBlock: MIFKUJ_clean_linker_0, # of connection points: 2
#     Edge 21, Type (0, 0), BuildingBlock: MIFKUJ_clean_linker_0, # of connection points: 2
#     Edge 22, Type (0, 0), BuildingBlock: MIFKUJ_clean_linker_0, # of connection points: 2
#     Edge 23, Type (0, 0), BuildingBlock: MIFKUJ_clean_linker_0, # of connection points: 2
#     Edge 24, Type (0, 0), BuildingBlock: MIFKUJ_clean_linker_0, # of connection points: 2
#     Edge 25, Type (0, 0), BuildingBlock: MIFKUJ_clean_linker_0, # of connection points: 2
#     Edge 26, Type (0, 0), BuildingBlock: MIFKUJ_clean_linker_0, # of connection points: 2
#     Edge 27, Type (0, 0), BuildingBlock: MIFKUJ_clean_linker_0, # of connection points: 2
#     Edge 28, Type (0, 0), BuildingBlock: MIFKUJ_clean_linker_0, # of connection points: 2
#     Edge 29, Type (0, 0), BuildingBlock: MIFKUJ_clean_linker_0, # of connection points: 2
#     Edge 30, Type (0, 0), BuildingBlock: MIFKUJ_clean_linker_0, # of connection points: 2
#     Edge 31, Type (0, 0), BuildingBlock: MIFKUJ_clean_linker_0, # of connection points: 2
#     Edge 32, Type (0, 0), BuildingBlock: MIFKUJ_clean_linker_0, # of connection points: 2
#     Edge 33, Type (0, 0), BuildingBlock: MIFKUJ_clean_linker_0, # of connection points: 2
#     Edge 34, Type (0, 0), BuildingBlock: MIFKUJ_clean_linker_0, # of connection points: 2
#     Edge 35, Type (0, 0), BuildingBlock: MIFKUJ_clean_linker_0, # of connection points: 2
# Relax obj value: 0.240
# Max RMSD: 0.249
# Mean RMSD: 0.249
data_MOF--net-wjf--node1-NAHDIM_clean_sbu_0--edge1-MIFKUJ_clean_linker_0
_symmetry_space_group_name_H-M    P1
_symmetry_Int_Tables_number       1
_symmetry_cell_setting            triclinic
loop_
_symmetry_equiv_pos_as_xyz
'x, y, z'
_cell_length_a     66.522444
_cell_length_b     66.544328
_cell_length_c     33.392736
_cell_angle_alpha  90.008167
_cell_angle_beta   89.962112
_cell_angle_gamma 119.95436
loop_
_atom_site_label
_atom_site_type_symbol
_atom_site_fract_x
_atom_site_fract_y
_atom_site_fract_z
_atom_type_partial_charge
C0 C 0.29363 0.40446 0.12104 0.0
O1 O 0.28944 0.39141 0.15295 0.0
O2 O 0.32064 0.36956 0.145 0.0
Zn3 Zn 0.32767 0.39054 0.09777 0.0
O4 O 0.31966 0.37199 0.04719 0.0
C5 C 0.37647 0.40835 0.10828 0.0
O6 O 0.36915 0.38707 0.12066 0.0
O7 O 0.30927 0.40682 0.09658 0.0
C8 C 0.32467 0.35622 0.04063 0.0
O9 O 0.33537 0.3511 0.0684 0.0
C10 C 0.30155 0.35112 0.15179 0.0
O11 O 0.28387 0.34502 0.1276 0.0
O12 O 0.36173 0.41405 0.09719 0.0
C13 C 0.88717 0.31687 0.45152 0.0
O14 O 0.89764 0.31837 0.48564 0.0
O15 O 0.94835 0.34087 0.46464 0.0
Zn16 Zn 0.93341 0.34962 0.421 0.0
O17 O 0.94355 0.3442 0.36737 0.0
C18 C 0.9643 0.39799 0.42515 0.0
O19 O 0.9792 0.39073 0.41987 0.0
O20 O 0.89884 0.32938 0.42214 0.0
C21 C 0.96113 0.34183 0.3616 0.0
O22 O 0.97459 0.34386 0.39193 0.0
C23 C 0.94471 0.3204 0.46991 0.0
O24 O 0.93017 0.30362 0.44629 0.0
O25 O 0.94278 0.38318 0.42669 0.0
C26 C 0.56569 0.8819 0.72639 0.0
O27 O 0.56559 0.89753 0.70248 0.0
O28 O 0.60973 0.92882 0.82303 0.0
Zn29 Zn 0.58869 0.92156 0.77556 0.0
O30 O 0.60684 0.93942 0.72695 0.0
C31 C 0.56898 0.9476 0.80913 0.0
O32 O 0.59025 0.96045 0.82255 0.0
O33 O 0.5741 0.8879 0.76139 0.0
C34 C 0.60722 0.95754 0.71391 0.0
O35 O 0.59602 0.96603 0.7335 0.0
C36 C 0.63105 0.94433 0.82212 0.0
O37 O 0.64013 0.95549 0.78854 0.0
O38 O 0.56397 0.92962 0.78855 0.0
C39 C 0.70867 0.59003 0.11748 0.0
O40 O 0.71442 0.60858 0.13918 0.0
O41 O 0.67358 0.61666 0.13942 0.0
Zn42 Zn 0.66897 0.59457 0.09458 0.0
O43 O 0.67639 0.61039 0.04097 0.0
C44 C 0.62011 0.57525 0.09199 0.0
O45 O 0.6266 0.59734 0.08869 0.0
O46 O 0.68944 0.58048 0.09895 0.0
C47 C 0.67534 0.62827 0.03108 0.0
O48 O 0.66869 0.63837 0.05756 0.0
C49 C 0.68989 0.63751 0.14343 0.0
O50 O 0.70664 0.6466 0.11677 0.0
O51 O 0.63554 0.56939 0.09491 0.0
C52 C 0.12303 0.72839 0.4367 0.0
O53 O 0.11322 0.73723 0.45926 0.0
O54 O 0.06003 0.69886 0.46139 0.0
Zn55 Zn 0.0758 0.69034 0.41914 0.0
O56 O 0.06602 0.6945 0.36462 0.0
C57 C 0.04503 0.64241 0.43737 0.0
O58 O 0.0308 0.65021 0.44533 0.0
O59 O 0.11054 0.70889 0.41993 0.0
C60 C 0.04607 0.69154 0.35663 0.0
O61 O 0.03076 0.6859 0.38552 0.0
C62 C 0.05884 0.71712 0.46676 0.0
O63 O 0.07023 0.73527 0.44346 0.0
O64 O 0.06557 0.65657 0.42584 0.0
C65 C 0.3901 0.10051 0.74662 0.0
O66 O 0.3677 0.0858 0.74875 0.0
O67 O 0.36728 0.0483 0.80295 0.0
Zn68 Zn 0.38926 0.05841 0.75632 0.0
O69 O 0.37352 0.04484 0.70377 0.0
C70 C 0.4074 0.03003 0.7839 0.0
O71 O 0.38558 0.01664 0.79414 0.0
O72 O 0.40409 0.09287 0.75037 0.0
C73 C 0.36341 0.02359 0.69376 0.0
O74 O 0.36158 0.00802 0.71989 0.0
C75 C 0.34524 0.03673 0.80275 0.0
O76 O 0.33408 0.02992 0.76855 0.0
O77 O 0.41352 0.0494 0.76713 0.0
C78 C 0.58927 0.69829 0.56948 0.0
O79 O 0.59544 0.69901 0.53189 0.0
O80 O 0.62614 0.67875 0.52849 0.0
Zn81 Zn 0.61107 0.67007 0.58244 0.0
O82 O 0.63404 0.67693 0.62642 0.0
C83 C 0.57286 0.6276 0.55508 0.0
O84 O 0.57152 0.64175 0.52916 0.0
O85 O 0.59402 0.68703 0.5948 0.0
C86 C 0.64687 0.66785 0.62836 0.0
O87 O 0.64619 0.65428 0.59916 0.0
C88 C 0.64594 0.69575 0.51966 0.0
O89 O 0.65896 0.7101 0.54789 0.0
O90 O 0.58853 0.6359 0.58178 0.0
C91 C 0.90098 0.60381 0.91544 0.0
O92 O 0.91769 0.62554 0.91359 0.0
O93 O 0.94917 0.61843 0.84581 0.0
Zn94 Zn 0.93942 0.59966 0.8966 0.0
O95 O 0.95576 0.61865 0.94529 0.0
C96 C 0.9658 0.57734 0.88197 0.0
O97 O 0.98169 0.5988 0.8738 0.0
O98 O 0.90565 0.58797 0.90699 0.0
C99 C 0.97713 0.63284 0.95138 0.0
O100 O 0.99233 0.63699 0.92288 0.0
C101 C 0.95944 0.64043 0.84371 0.0
O102 O 0.96451 0.65276 0.87669 0.0
O103 O 0.94559 0.57303 0.892 0.0
C104 C 0.30698 0.88801 0.19819 0.0
O105 O 0.30122 0.89664 0.16783 0.0
O106 O 0.33192 0.9494 0.17428 0.0
Zn107 Zn 0.34382 0.93584 0.21527 0.0
O108 O 0.34203 0.94707 0.27011 0.0
C109 C 0.39069 0.96729 0.19518 0.0
O110 O 0.38238 0.98152 0.1949 0.0
O111 O 0.32474 0.90121 0.21893 0.0
C112 C 0.34247 0.9659 0.27839 0.0
O113 O 0.3447 0.98021 0.24939 0.0
C114 C 0.31194 0.94751 0.17326 0.0
O115 O 0.29638 0.93506 0.20047 0.0
O116 O 0.3771 0.94598 0.20299 0.0
C117 C 0.41044 0.29869 0.56706 0.0
O118 O 0.39877 0.29299 0.53328 0.0
O119 O 0.37883 0.32184 0.52052 0.0
Zn120 Zn 0.39813 0.33485 0.57005 0.0
O121 O 0.3782 0.33385 0.61604 0.0
C122 C 0.41854 0.38125 0.53907 0.0
O123 O 0.39829 0.37272 0.5213 0.0
O124 O 0.41284 0.31616 0.5865 0.0
C125 C 0.388 0.34797 0.64469 0.0
O126 O 0.41034 0.36288 0.64242 0.0
C127 C 0.357 0.30824 0.5211 0.0
O128 O 0.34612 0.30181 0.55562 0.0
O129 O 0.4227 0.36801 0.56062 0.0
C130 C 0.09779 0.37889 0.91794 0.0
O131 O 0.08362 0.35672 0.91127 0.0
O132 O 0.04869 0.36232 0.84993 0.0
Zn133 Zn 0.05621 0.37869 0.90283 0.0
O134 O 0.03971 0.35728 0.94889 0.0
C135 C 0.02928 0.4001 0.88265 0.0
O136 O 0.01639 0.38012 0.86469 0.0
O137 O 0.09014 0.39288 0.9144 0.0
C138 C 0.018 0.34661 0.95537 0.0
O139 O 0.00409 0.34814 0.92923 0.0
C140 C 0.03845 0.34055 0.84414 0.0
O141 O 0.03207 0.32642 0.87496 0.0
O142 O 0.04756 0.40368 0.90087 0.0
C143 C 0.71855 0.10534 0.27826 0.0
O144 O 0.72014 0.08702 0.28773 0.0
O145 O 0.68814 0.05364 0.21075 0.0
Zn146 Zn 0.67715 0.06936 0.24857 0.0
O147 O 0.66962 0.0535 0.30183 0.0
C148 C 0.63244 0.04514 0.21728 0.0
O149 O 0.6379 0.02877 0.22078 0.0
O150 O 0.70113 0.10256 0.25816 0.0
C151 C 0.67503 0.03858 0.31304 0.0
O152 O 0.68619 0.03219 0.28835 0.0
C153 C 0.70165 0.06379 0.18152 0.0
O154 O 0.71054 0.08628 0.17712 0.0
O155 O 0.64741 0.06578 0.22695 0.0
H156 H 0.2622 0.31939 0.19141 0.0
H157 H 0.26027 0.29815 0.25295 0.0
H158 H 0.33479 0.32926 0.25162 0.0
H159 H 0.33686 0.35053 0.191 0.0
H160 H 0.31113 0.28152 0.2721 0.0
H161 H 0.31142 0.35412 0.30445 0.0
H162 H 0.2941 0.37936 0.30184 0.0
H163 H 0.23117 0.32516 0.3537 0.0
H164 H 0.24808 0.29951 0.35613 0.0
H165 H 0.37475 0.31524 0.44571 0.0
H166 H 0.35395 0.30806 0.38279 0.0
H167 H 0.28892 0.27841 0.44668 0.0
H168 H 0.30982 0.28585 0.51036 0.0
H169 H 0.29287 0.31079 0.39554 0.0
H170 H 0.29933 0.24393 0.38401 0.0
H171 H 0.31744 0.21946 0.38769 0.0
H172 H 0.36676 0.26116 0.29751 0.0
H173 H 0.34922 0.28611 0.29367 0.0
C174 C 0.27809 0.32142 0.20409 0.0
C175 C 0.2997 0.33678 0.18678 0.0
C176 C 0.27695 0.30928 0.23908 0.0
C177 C 0.2974 0.31217 0.25667 0.0
C178 C 0.31881 0.3267 0.23832 0.0
C179 C 0.31998 0.33901 0.20391 0.0
C180 C 0.2973 0.30211 0.29615 0.0
C181 C 0.30693 0.28763 0.29922 0.0
C182 C 0.29093 0.3094 0.3313 0.0
C183 C 0.28087 0.32483 0.32996 0.0
C184 C 0.29383 0.34755 0.31499 0.0
C185 C 0.28411 0.36193 0.3136 0.0
C186 C 0.26152 0.35384 0.32746 0.0
C187 C 0.24864 0.33138 0.34286 0.0
C188 C 0.25828 0.31691 0.34425 0.0
C189 C 0.356 0.30686 0.44648 0.0
C190 C 0.34395 0.30128 0.48304 0.0
C191 C 0.34407 0.30254 0.41039 0.0
C192 C 0.31982 0.2924 0.40996 0.0
C193 C 0.30762 0.28608 0.44634 0.0
C194 C 0.31958 0.29036 0.48265 0.0
C195 C 0.30802 0.29123 0.3717 0.0
C196 C 0.29614 0.30365 0.36873 0.0
C197 C 0.31226 0.28193 0.33667 0.0
C198 C 0.32292 0.26693 0.33859 0.0
C199 C 0.31412 0.24797 0.3651 0.0
C200 C 0.32428 0.234 0.3672 0.0
C201 C 0.34324 0.23875 0.34285 0.0
C202 C 0.35205 0.25747 0.3163 0.0
C203 C 0.34196 0.27151 0.31409 0.0
H204 H 0.35109 0.22792 0.34453 0.0
H205 H 0.25402 0.365 0.32637 0.0
H206 H 0.98176 0.35189 0.51298 0.0
H207 H -0.00047 0.34474 0.57087 0.0
H208 H 0.95186 0.27123 0.56069 0.0
H209 H 0.93385 0.27828 0.50221 0.0
H210 H 0.95358 0.28835 0.63681 0.0
H211 H 0.00744 0.28977 0.54272 0.0
H212 H 0.03396 0.30385 0.4848 0.0
H213 H 0.07724 0.36826 0.54539 0.0
H214 H 0.05081 0.35473 0.60345 0.0
H215 H 0.01214 0.29521 0.81972 0.0
H216 H 0.99844 0.28135 0.75159 0.0
H217 H 0.03644 0.35172 0.7079 0.0
H218 H 0.05046 0.36555 0.77509 0.0
H219 H 0.03851 0.32271 0.65503 0.0
H220 H 0.97847 0.32578 0.73607 0.0
H221 H 0.95144 0.31399 0.79332 0.0
H222 H 0.9198 0.24283 0.75611 0.0
H223 H 0.94685 0.25422 0.69887 0.0
C224 C 0.97517 0.33416 0.52273 0.0
C225 C 0.95634 0.31565 0.50318 0.0
C226 C 0.98548 0.33008 0.55563 0.0
C227 C 0.97719 0.30742 0.56973 0.0
C228 C 0.95861 0.28881 0.54999 0.0
C229 C 0.94837 0.29287 0.51666 0.0
C230 C 0.98681 0.3039 0.6073 0.0
C231 C 0.97207 0.29516 0.64061 0.0
C232 C 0.01094 0.313 0.61221 0.0
C233 C 0.02708 0.32121 0.57748 0.0
C234 C 0.02254 0.30699 0.54363 0.0
C235 C 0.03757 0.31487 0.51077 0.0
C236 C 0.05727 0.33693 0.51141 0.0
C237 C 0.06199 0.35115 0.54496 0.0
C238 C 0.04701 0.34336 0.5779 0.0
C239 C 0.01785 0.30765 0.79543 0.0
C240 C 0.03213 0.33151 0.80288 0.0
C241 C 0.01 0.29971 0.75657 0.0
C242 C 0.01621 0.31554 0.72477 0.0
C243 C 0.03145 0.33918 0.73193 0.0
C244 C 0.03932 0.34708 0.77052 0.0
C245 C 0.00541 0.30833 0.68468 0.0
C246 C 0.01993 0.31504 0.65093 0.0
C247 C 0.9811 0.29759 0.67935 0.0
C248 C 0.96484 0.29079 0.7136 0.0
C249 C 0.96584 0.30761 0.7403 0.0
C250 C 0.95052 0.301 0.77269 0.0
C251 C 0.93397 0.27766 0.77843 0.0
C252 C 0.93267 0.26089 0.7517 0.0
C253 C 0.94799 0.26741 0.71928 0.0
H254 H 0.92212 0.27258 0.80353 0.0
H255 H 0.06888 0.34301 0.48593 0.0
H256 H 0.67302 0.98331 0.83467 0.0
H257 H 0.69126 -0.0006 0.89911 0.0
H258 H 0.6376 0.93888 0.95919 0.0
H259 H 0.61895 0.92292 0.89494 0.0
H260 H 0.64037 0.97662 0.98827 0.0
H261 H 0.695 0.95209 0.95978 0.0
H262 H 0.72384 0.94766 0.92017 0.0
H263 H 0.76849 0.02159 0.91822 0.0
H264 H 0.73978 0.0265 0.95735 0.0
H265 H 0.68214 0.01674 0.1794 0.0
H266 H 0.67674 0.99297 0.12046 0.0
H267 H 0.71871 0.05453 0.05063 0.0
H268 H 0.72415 0.07865 0.10954 0.0
H269 H 0.72293 0.0138 0.02959 0.0
H270 H 0.66602 0.03783 0.05063 0.0
H271 H 0.63684 0.04236 0.08898 0.0
H272 H 0.5959 0.96852 0.10321 0.0
H273 H 0.62513 0.96356 0.06567 0.0
C274 C 0.66538 0.97318 0.86151 0.0
C275 C 0.64436 0.95201 0.85982 0.0
C276 C 0.67593 0.98235 0.89834 0.0
C277 C 0.66579 0.97034 0.93398 0.0
C278 C 0.64566 0.94846 0.93205 0.0
C279 C 0.63501 0.93939 0.89531 0.0
C280 C 0.67422 0.98193 0.97321 0.0
C281 C 0.65832 0.98423 -0.00234 0.0
C282 C 0.6978 0.99252 0.98487 0.0
C283 C 0.71512 0.98966 0.96125 0.0
C284 C 0.71088 0.96742 0.95062 0.0
C285 C 0.72723 0.96482 0.92831 0.0
C286 C 0.74796 0.98433 0.91661 0.0
C287 C 0.75241 0.00649 0.92728 0.0
C288 C 0.73612 0.00919 0.94957 0.0
C289 C 0.69075 0.02528 0.15182 0.0
C290 C 0.70316 0.04962 0.14888 0.0
C291 C 0.68768 0.01163 0.11822 0.0
C292 C 0.69704 0.02208 0.08126 0.0
C293 C 0.71133 0.04623 0.07903 0.0
C294 C 0.71432 0.05996 0.11265 0.0
C295 C 0.68901 0.00818 0.04425 0.0
C296 C 0.70494 0.00571 0.02026 0.0
C297 C 0.66542 0.99737 0.0328 0.0
C298 C 0.64796 0.00035 0.05585 0.0
C299 C 0.65097 0.02257 0.06241 0.0
C300 C 0.63439 0.02522 0.08392 0.0
C301 C 0.61458 0.00575 0.09865 0.0
C302 C 0.61131 0.98359 0.0919 0.0
C303 C 0.62788 0.98085 0.07055 0.0
H304 H 0.60171 0.00782 0.11508 0.0
H305 H 0.7606 0.98228 0.89935 0.0
H306 H 0.65415 0.62637 0.19481 0.0
H307 H 0.65341 0.64808 0.25281 0.0
H308 H 0.72394 0.70139 0.22903 0.0
H309 H 0.72487 0.67959 0.17028 0.0
H310 H 0.71568 0.68637 0.30924 0.0
H311 H 0.68378 0.7152 0.21366 0.0
H312 H 0.65882 0.71319 0.15747 0.0
H313 H 0.59809 0.67033 0.22765 0.0
H314 H 0.62264 0.67177 0.28407 0.0
H315 H 0.68861 0.72771 0.48924 0.0
H316 H 0.70255 0.72977 0.42041 0.0
H317 H 0.63616 0.67155 0.38772 0.0
H318 H 0.6221 0.66966 0.45545 0.0
H319 H 0.65183 0.70343 0.32997 0.0
H320 H 0.68349 0.66547 0.41475 0.0
H321 H 0.70736 0.6648 0.4707 0.0
H322 H 0.76757 0.72328 0.42032 0.0
H323 H 0.74395 0.72442 0.36429 0.0
C324 C 0.66952 0.64275 0.20167 0.0
C325 C 0.6896 0.65125 0.17796 0.0
C326 C 0.669 0.65523 0.23471 0.0
C327 C 0.68851 0.67648 0.24485 0.0
C328 C 0.70866 0.68509 0.22143 0.0
C329 C 0.70914 0.67264 0.18794 0.0
C330 C 0.68772 0.68869 0.28133 0.0
C331 C 0.70218 0.69081 0.31352 0.0
C332 C 0.67003 0.69432 0.28685 0.0
C333 C 0.6551 0.69358 0.25313 0.0
C334 C 0.6651 0.70525 0.21707 0.0
C335 C 0.65102 0.70422 0.18516 0.0
C336 C 0.62689 0.69164 0.18898 0.0
C337 C 0.61678 0.68009 0.22475 0.0
C338 C 0.63079 0.68106 0.25674 0.0
C339 C 0.67695 0.71553 0.4672 0.0
C340 C 0.65432 0.6984 0.4779 0.0
C341 C 0.68495 0.71671 0.42796 0.0
C342 C 0.67044 0.7007 0.39902 0.0
C343 C 0.64764 0.68415 0.40946 0.0
C344 C 0.63967 0.683 0.44838 0.0
C345 C 0.67889 0.69979 0.35836 0.0
C346 C 0.66589 0.69986 0.32534 0.0
C347 C 0.69779 0.69599 0.35215 0.0
C348 C 0.71193 0.69523 0.3857 0.0
C349 C 0.70179 0.67828 0.41579 0.0
C350 C 0.71527 0.67779 0.44747 0.0
C351 C 0.73896 0.69404 0.44914 0.0
C352 C 0.74922 0.71075 0.41905 0.0
C353 C 0.7358 0.71132 0.38734 0.0
H354 H 0.74937 0.69364 0.47368 0.0
H355 H 0.61601 0.69085 0.16424 0.0
H356 H 0.99089 0.6859 0.8278 0.0
H357 H 0.00476 0.70374 0.76202 0.0
H358 H 0.95716 0.63887 0.70505 0.0
H359 H 0.94382 0.62081 0.77051 0.0
H360 H 0.99814 0.65464 0.67531 0.0
H361 H 0.94985 0.68753 0.70324 0.0
H362 H 0.93533 0.70913 0.74225 0.0
H363 H 0.00253 0.77039 0.73662 0.0
H364 H 0.01755 0.74907 0.69801 0.0
H365 H 0.01394 0.68602 0.47933 0.0
H366 H 0.99294 0.67905 0.54249 0.0
H367 H 0.05099 0.74011 0.59307 0.0
H368 H 0.07179 0.74764 0.52894 0.0
H369 H 0.00549 0.72843 0.62611 0.0
H370 H 0.05334 0.69358 0.59999 0.0
H371 H 0.06606 0.67194 0.55679 0.0
H372 H 0.99702 0.61325 0.5575 0.0
H373 H 0.9838 0.63471 0.60019 0.0
C374 C 0.98322 0.67553 0.80121 0.0
C375 C 0.96642 0.65191 0.80427 0.0
C376 C 0.99107 0.68578 0.76363 0.0
C377 C 0.98192 0.67267 0.72857 0.0
C378 C 0.96455 0.6493 0.73169 0.0
C379 C 0.95694 0.639 0.76913 0.0
C380 C 0.9916 0.6826 0.68868 0.0
C381 C -0.0006 0.67061 0.66451 0.0
C382 C 0.99386 0.70377 0.67485 0.0
C383 C 0.98489 0.71663 0.69809 0.0
C384 C 0.96159 0.70556 0.71061 0.0
C385 C 0.95326 0.71776 0.73259 0.0
C386 C 0.96801 0.7411 0.742 0.0
C387 C 0.99112 0.7523 0.72936 0.0
C388 C -0.00045 0.74017 0.7074 0.0
C389 C 0.02176 0.69848 0.50342 0.0
C390 C 0.04441 0.71723 0.49977 0.0
C391 C 0.00979 0.69452 0.53939 0.0
C392 C 0.02066 0.70881 0.57254 0.0
C393 C 0.04237 0.72892 0.56773 0.0
C394 C 0.05423 0.73318 0.53126 0.0
C395 C 0.01144 0.70017 0.61303 0.0
C396 C 0.00405 0.71245 0.63724 0.0
C397 C 0.00936 0.67915 0.62703 0.0
C398 C 0.01756 0.66581 0.60307 0.0
C399 C 0.04087 0.67608 0.59088 0.0
C400 C 0.04816 0.66385 0.56645 0.0
C401 C 0.03235 0.64124 0.55437 0.0
C402 C 0.00924 0.63077 0.56689 0.0
C403 C 0.00184 0.64294 0.59124 0.0
H404 H 0.03801 0.63183 0.53536 0.0
H405 H 0.96152 0.75052 0.75901 0.0
H406 H 0.2692 0.93512 0.14182 0.0
H407 H 0.26127 0.95145 0.08173 0.0
H408 H 0.33425 0.00134 0.07133 0.0
H409 H 0.34224 0.98509 0.13049 0.0
H410 H 0.30487 0.01991 0.05398 0.0
H411 H 0.31301 0.95129 0.02308 0.0
H412 H 0.2998 0.90956 0.02929 0.0
H413 H 0.23219 0.89269 0.98698 0.0
H414 H 0.24499 0.93438 0.98099 0.0
H415 H 0.36352 0.05087 0.87702 0.0
H416 H 0.34434 0.03713 0.94103 0.0
H417 H 0.27923 0.99375 0.88106 0.0
H418 H 0.29866 0.00723 0.816 0.0
H419 H 0.28719 0.96954 0.93446 0.0
H420 H 0.28561 0.03904 0.9415 0.0
H421 H 0.29936 0.08079 0.93421 0.0
H422 H 0.3529 0.09663 0.02084 0.0
H423 H 0.33976 0.05504 0.02824 0.0
C424 C 0.28343 0.94984 0.12702 0.0
C425 C 0.30636 0.9587 0.14042 0.0
C426 C 0.27888 0.95913 0.09284 0.0
C427 C 0.2972 0.97757 0.07218 0.0
C428 C 0.31987 0.98721 0.08699 0.0
C429 C 0.32444 0.97777 0.12058 0.0
C430 C 0.29379 0.98544 0.03268 0.0
C431 C 0.30073 0.00895 0.02773 0.0
C432 C 0.2874 0.97082 -0.00125 0.0
C433 C 0.27984 0.94586 0.00208 0.0
C434 C 0.29529 0.93866 0.01537 0.0
C435 C 0.28789 0.91503 0.01881 0.0
C436 C 0.26514 0.89848 0.00867 0.0
C437 C 0.24978 0.90553 0.99493 0.0
C438 C 0.25709 0.92914 0.99152 0.0
C439 C 0.34505 0.03865 0.87723 0.0
C440 C 0.33265 0.03002 0.84135 0.0
C441 C 0.334 0.03099 0.91402 0.0
C442 C 0.31022 0.0147 0.91599 0.0
C443 C 0.29755 0.00649 0.88024 0.0
C444 C 0.30867 0.01419 0.84315 0.0
C445 C 0.29981 0.00449 0.95539 0.0
C446 C 0.29026 0.98049 0.96045 0.0
C447 C 0.30365 0.01868 0.9894 0.0
C448 C 0.31163 0.04383 0.98545 0.0
C449 C 0.30038 0.05142 0.95889 0.0
C450 C 0.30807 0.07507 0.95474 0.0
C451 C 0.32698 0.09135 0.97707 0.0
C452 C 0.33822 0.084 0.00363 0.0
C453 C 0.33061 0.06037 0.00789 0.0
H454 H 0.33292 0.10966 0.97379 0.0
H455 H 0.25944 0.8802 0.01134 0.0
H456 H 0.11841 0.35296 0.93123 0.0
H457 H 0.15513 0.36489 0.96504 0.0
H458 H 0.16728 0.43475 0.97469 0.0
H459 H 0.13023 0.42284 0.94134 0.0
H460 H 0.1995 0.39547 0.95068 0.0
H461 H 0.19376 0.45623 0.06706 0.0
H462 H 0.16448 0.46314 0.09977 0.0
H463 H 0.11271 0.39174 0.08222 0.0
H464 H 0.14176 0.38433 0.05008 0.0
H465 H 0.30025 0.43637 0.0638 0.0
H466 H 0.27008 0.44079 0.03028 0.0
H467 H 0.21936 0.39305 0.11417 0.0
H468 H 0.24952 0.38885 0.14835 0.0
H469 H 0.20891 0.42597 0.08925 0.0
H470 H 0.23013 0.37249 0.03037 0.0
H471 H 0.25801 0.36215 0.00191 0.0
H472 H 0.27523 0.41261 0.90868 0.0
H473 H 0.24765 0.42347 0.93696 0.0
C474 C 0.12897 0.37093 0.94013 0.0
C475 C 0.12129 0.38689 0.93396 0.0
C476 C 0.15001 0.37774 0.95934 0.0
C477 C 0.16378 0.40063 0.97281 0.0
C478 C 0.15673 0.41692 0.96501 0.0
C479 C 0.13561 0.41009 0.94583 0.0
C480 C 0.18479 0.40685 0.99685 0.0
C481 C 0.20168 0.40241 0.98078 0.0
C482 C 0.18752 0.41566 0.03632 0.0
C483 C 0.16987 0.41983 0.0557 0.0
C484 C 0.17613 0.44201 0.07026 0.0
C485 C 0.15959 0.44601 0.08873 0.0
C486 C 0.13674 0.42791 0.09298 0.0
C487 C 0.13039 0.40576 0.07883 0.0
C488 C 0.14689 0.40166 0.06045 0.0
C489 C 0.2828 0.42734 0.07586 0.0
C490 C 0.27711 0.41187 0.10816 0.0
C491 C 0.2656 0.42989 0.05665 0.0
C492 C 0.24244 0.41679 0.06916 0.0
C493 C 0.23714 0.40321 0.10393 0.0
C494 C 0.2544 0.4008 0.12341 0.0
C495 C 0.22346 0.41452 0.04308 0.0
C496 C 0.20697 0.4196 0.05877 0.0
C497 C 0.22081 0.40581 0.00354 0.0
C498 C 0.23701 0.39895 0.986 0.0
C499 C 0.23995 0.38145 0.00391 0.0
C500 C 0.25569 0.3755 0.98781 0.0
C501 C 0.26842 0.38675 0.95355 0.0
C502 C 0.26537 0.40393 0.93524 0.0
C503 C 0.24968 0.40998 0.95128 0.0
H504 H 0.28061 0.38212 0.94117 0.0
H505 H 0.12401 0.43107 0.10739 0.0
H506 H 0.85651 0.31372 0.39445 0.0
H507 H 0.8231 0.27797 0.36981 0.0
H508 H 0.8329 0.23925 0.46373 0.0
H509 H 0.86598 0.27495 0.48914 0.0
H510 H 0.83785 0.22876 0.37783 0.0
H511 H 0.78653 0.23785 0.46898 0.0
H512 H 0.76861 0.2589 0.49936 0.0
H513 H 0.74219 0.26356 0.38455 0.0
H514 H 0.76026 0.24283 0.35335 0.0
H515 H 0.75225 0.11499 0.33337 0.0
H516 H 0.7781 0.15214 0.36465 0.0
H517 H 0.7491 0.18495 0.29176 0.0
H518 H 0.72248 0.14744 0.26105 0.0
H519 H 0.75343 0.1998 0.36572 0.0
H520 H 0.80367 0.19303 0.27273 0.0
H521 H 0.82306 0.17502 0.23683 0.0
H522 H 0.85342 0.16974 0.34691 0.0
H523 H 0.83398 0.18747 0.38359 0.0
C524 C 0.85102 0.2977 0.41067 0.0
C525 C 0.86391 0.29703 0.44348 0.0
C526 C 0.83195 0.27735 0.39661 0.0
C527 C 0.82574 0.25609 0.41491 0.0
C528 C 0.8375 0.2556 0.4494 0.0
C529 C 0.8563 0.276 0.46394 0.0
C530 C 0.8097 0.23427 0.39437 0.0
C531 C 0.8193 0.22213 0.37573 0.0
C532 C 0.78583 0.22653 0.39003 0.0
C533 C 0.77497 0.23901 0.40875 0.0
C534 C 0.77711 0.24358 0.45012 0.0
C535 C 0.76687 0.2554 0.46751 0.0
C536 C 0.75433 0.26262 0.44388 0.0
C537 C 0.75194 0.25799 0.40281 0.0
C538 C 0.76216 0.24618 0.38527 0.0
C539 C 0.75147 0.13011 0.32365 0.0
C540 C 0.73538 0.1283 0.29461 0.0
C541 C 0.76633 0.15138 0.34153 0.0
C542 C 0.76575 0.1714 0.3302 0.0
C543 C 0.74984 0.16972 0.30093 0.0
C544 C 0.73474 0.14832 0.28328 0.0
C545 C 0.78148 0.19387 0.34975 0.0
C546 C 0.77194 0.2063 0.36787 0.0
C547 C 0.80561 0.20228 0.35282 0.0
C548 C 0.81718 0.19139 0.33098 0.0
C549 C 0.81431 0.18784 0.28935 0.0
C550 C 0.82535 0.17773 0.26885 0.0
C551 C 0.83942 0.17119 0.28959 0.0
C552 C 0.8425 0.17479 0.33089 0.0
C553 C 0.8315 0.1849 0.35155 0.0
H554 H 0.84796 0.16337 0.27365 0.0
H555 H 0.7464 0.27176 0.45741 0.0
H556 H 0.56051 0.86817 0.64837 0.0
H557 H 0.55644 0.83213 0.62228 0.0
H558 H 0.55222 0.80699 0.74292 0.0
H559 H 0.55725 0.8435 0.76925 0.0
H560 H 0.58331 0.80305 0.70389 0.0
H561 H 0.505 0.78238 0.67473 0.0
H562 H 0.47351 0.78768 0.64753 0.0
H563 H 0.50064 0.79359 0.52872 0.0
H564 H 0.5325 0.78865 0.55525 0.0
H565 H 0.57083 0.69706 0.64296 0.0
H566 H 0.55865 0.72353 0.66915 0.0
H567 H 0.57247 0.75775 0.55448 0.0
H568 H 0.58443 0.73106 0.5277 0.0
H569 H 0.53331 0.75439 0.59258 0.0
H570 H 0.61341 0.77931 0.62318 0.0
H571 H 0.64515 0.77427 0.65002 0.0
H572 H 0.61406 0.76059 0.76686 0.0
H573 H 0.58194 0.76522 0.74055 0.0
C574 C 0.55825 0.85479 0.66937 0.0
C575 C 0.5594 0.85872 0.71087 0.0
C576 C 0.55576 0.83409 0.65437 0.0
C577 C 0.55385 0.81673 0.68061 0.0
C578 C 0.55372 0.82015 0.7221 0.0
C579 C 0.55657 0.841 0.73712 0.0
C580 C 0.55476 0.79633 0.66496 0.0
C581 C 0.57196 0.7921 0.68021 0.0
C582 C 0.54047 0.78245 0.63315 0.0
C583 C 0.52125 0.78531 0.61705 0.0
C584 C 0.50435 0.78497 0.64284 0.0
C585 C 0.48641 0.78788 0.62753 0.0
C586 C 0.4851 0.79101 0.58644 0.0
C587 C 0.50169 0.79117 0.56055 0.0
C588 C 0.51967 0.78828 0.5757 0.0
C589 C 0.57098 0.70999 0.62307 0.0
C590 C 0.57897 0.71223 0.58343 0.0
C591 C 0.56396 0.72506 0.6381 0.0
C592 C 0.56504 0.74279 0.61391 0.0
C593 C 0.57157 0.74418 0.5736 0.0
C594 C 0.57849 0.72899 0.55842 0.0
C595 C 0.56168 0.76124 0.63182 0.0
C596 C 0.54427 0.76517 0.61677 0.0
C597 C 0.57573 0.77491 0.66388 0.0
C598 C 0.59516 0.77236 0.67981 0.0
C599 C 0.61326 0.77506 0.65453 0.0
C600 C 0.63133 0.7723 0.66965 0.0
C601 C 0.63159 0.76704 0.7101 0.0
C602 C 0.61382 0.76461 0.73553 0.0
C603 C 0.59569 0.76732 0.72054 0.0
H604 H 0.64559 0.76491 0.72175 0.0
H605 H 0.4712 0.79327 0.57465 0.0
H606 H 0.75542 0.61594 0.12853 0.0
H607 H 0.78499 0.61066 0.09464 0.0
H608 H 0.73202 0.54546 0.04646 0.0
H609 H 0.7021 0.55076 0.07958 0.0
H610 H 0.78512 0.55638 0.07945 0.0
H611 H 0.73903 0.57256 0.98182 0.0
H612 H 0.71885 0.59369 0.96229 0.0
H613 H 0.78178 0.65861 0.97897 0.0
H614 H 0.80221 0.63781 -0.00079 0.0
H615 H 0.86281 0.56074 0.9271 0.0
H616 H 0.82646 0.55184 0.96049 0.0
H617 H 0.85165 0.62502 0.97548 0.0
H618 H 0.88752 0.63401 0.94145 0.0
H619 H 0.80792 0.60409 0.95563 0.0
H620 H 0.85455 0.59085 0.05134 0.0
H621 H 0.87664 0.57274 0.07645 0.0
H622 H 0.81559 0.50547 0.06889 0.0
H623 H 0.79321 0.52318 0.04323 0.0
C624 C 0.75004 0.60011 0.11178 0.0
C625 C 0.72641 0.58392 0.10621 0.0
C626 C 0.76697 0.59714 0.09247 0.0
C627 C 0.76054 0.57779 0.06794 0.0
C628 C 0.73719 0.56049 0.06536 0.0
C629 C 0.72017 0.5636 0.0842 0.0
C630 C 0.77784 0.5777 0.04053 0.0
C631 C 0.78984 0.56632 0.05186 0.0
C632 C 0.78418 0.59115 0.00521 0.0
C633 C 0.77205 0.60365 0.99238 0.0
C634 C 0.74849 0.59134 0.98165 0.0
C635 C 0.73702 0.60326 0.9704 0.0
C636 C 0.749 0.62749 0.9695 0.0
C637 C 0.7725 0.63985 0.97973 0.0
C638 C 0.78404 0.62801 0.99106 0.0
C639 C 0.86044 0.57491 0.93709 0.0
C640 C 0.8781 0.59808 0.93187 0.0
C641 C 0.83973 0.5698 0.95634 0.0
C642 C 0.83649 0.58777 0.971 0.0
C643 C 0.85376 0.61087 0.96444 0.0
C644 C 0.87432 0.61598 0.94504 0.0
C645 C 0.81558 0.58285 0.9944 0.0
C646 C 0.80293 0.59353 0.98252 0.0
C647 C 0.80888 0.56894 0.02943 0.0
C648 C 0.82229 0.5583 0.0449 0.0
C649 C 0.84589 0.57218 0.05473 0.0
C650 C 0.85845 0.56199 0.06911 0.0
C651 C 0.84755 0.53796 0.07413 0.0
C652 C 0.82403 0.52408 0.06489 0.0
C653 C 0.8114 0.53418 0.05045 0.0
H654 H 0.8573 0.53011 0.08528 0.0
H655 H 0.74011 0.63669 0.96077 0.0
H656 H 0.14969 0.77558 0.43987 0.0
H657 H 0.18496 0.79954 0.40137 0.0
H658 H 0.18626 0.7382 0.36355 0.0
H659 H 0.15059 0.71406 0.40103 0.0
H660 H 0.22822 0.80916 0.39345 0.0
H661 H 0.19787 0.74226 0.26414 0.0
H662 H 0.16146 0.70953 0.23819 0.0
H663 H 0.1228 0.73921 0.28885 0.0
H664 H 0.159 0.77225 0.31453 0.0
H665 H 0.31562 0.86175 0.25036 0.0
H666 H 0.287 0.82975 0.29124 0.0
H667 H 0.23177 0.83179 0.22702 0.0
H668 H 0.26026 0.86326 0.18523 0.0
H669 H 0.21796 0.78911 0.24883 0.0
H670 H 0.25454 0.86348 0.3127 0.0
H671 H 0.28728 0.90015 0.33765 0.0
H672 H 0.30755 0.86214 0.4158 0.0
H673 H 0.27511 0.82521 0.39085 0.0
C674 C 0.15782 0.76722 0.42425 0.0
C675 C 0.14715 0.74293 0.42278 0.0
C676 C 0.178 0.78095 0.40224 0.0
C677 C 0.18786 0.77059 0.37877 0.0
C678 C 0.17859 0.74649 0.38071 0.0
C679 C 0.15827 0.73274 0.40226 0.0
C680 C 0.20605 0.78466 0.34903 0.0
C681 C 0.22613 0.80464 0.36191 0.0
C682 C 0.20294 0.77914 0.30767 0.0
C683 C 0.18112 0.75956 0.29166 0.0
C684 C 0.18161 0.74182 0.2696 0.0
C685 C 0.161 0.72323 0.25494 0.0
C686 C 0.13982 0.72225 0.262 0.0
C687 C 0.1392 0.73994 0.28353 0.0
C688 C 0.15976 0.7586 0.29815 0.0
C689 C 0.29736 0.8549 0.24418 0.0
C690 C 0.29015 0.86521 0.21505 0.0
C691 C 0.28104 0.83671 0.26769 0.0
C692 C 0.2573 0.82889 0.26295 0.0
C693 C 0.25002 0.83769 0.23139 0.0
C694 C 0.26634 0.85567 0.20746 0.0
C695 C 0.24029 0.8135 0.29328 0.0
C696 C 0.22034 0.79334 0.28048 0.0
C697 C 0.24305 0.81942 0.3345 0.0
C698 C 0.26257 0.84158 0.34957 0.0
C699 C 0.2661 0.86294 0.33497 0.0
C700 C 0.28458 0.88377 0.34914 0.0
C701 C 0.29952 0.88347 0.37821 0.0
C702 C 0.29599 0.86234 0.39322 0.0
C703 C 0.27756 0.84146 0.37908 0.0
H704 H 0.31379 0.89961 0.38921 0.0
H705 H 0.12389 0.70782 0.2507 0.0
H706 H 0.43496 0.13485 0.73297 0.0
H707 H 0.44814 0.17448 0.70994 0.0
H708 H 0.37755 0.1608 0.71264 0.0
H709 H 0.36435 0.12154 0.73616 0.0
H710 H 0.43774 0.1877 0.64206 0.0
H711 H 0.37515 0.20849 0.7329 0.0
H712 H 0.35828 0.20185 0.80065 0.0
H713 H 0.41428 0.1941 0.84666 0.0
H714 H 0.43173 0.20108 0.77933 0.0
H715 H 0.40117 0.25603 0.54077 0.0
H716 H 0.40828 0.2282 0.57634 0.0
H717 H 0.44377 0.27842 0.66988 0.0
H718 H 0.43623 0.30622 0.63489 0.0
H719 H 0.41247 0.23987 0.70121 0.0
H720 H 0.47326 0.25966 0.60884 0.0
H721 H 0.49278 0.26805 0.54319 0.0
H722 H 0.44601 0.19834 0.50478 0.0
H723 H 0.42597 0.1896 0.56998 0.0
C724 C 0.42231 0.14043 0.72924 0.0
C725 C 0.39859 0.12505 0.7363 0.0
C726 C 0.42987 0.16304 0.71599 0.0
C727 C 0.41387 0.17065 0.70992 0.0
C728 C 0.39028 0.15546 0.71783 0.0
C729 C 0.38273 0.13294 0.73106 0.0
C730 C 0.42127 0.19379 0.6925 0.0
C731 C 0.43247 0.19927 0.65515 0.0
C732 C 0.41498 0.20919 0.71017 0.0
C733 C 0.40469 0.20519 0.75092 0.0
C734 C 0.38396 0.20552 0.75749 0.0
C735 C 0.37427 0.20166 0.79583 0.0
C736 C 0.38517 0.1975 0.82792 0.0
C737 C 0.40582 0.19725 0.82176 0.0
C738 C 0.4156 0.20113 0.78349 0.0
C739 C 0.41089 0.26134 0.56851 0.0
C740 C 0.41793 0.28325 0.5852 0.0
C741 C 0.41508 0.24544 0.58873 0.0
C742 C 0.42668 0.25126 0.62572 0.0
C743 C 0.43476 0.27355 0.64142 0.0
C744 C 0.43045 0.28942 0.62135 0.0
C745 C 0.4279 0.2332 0.64984 0.0
C746 C 0.41826 0.22863 0.68845 0.0
C747 C 0.43602 0.21891 0.63365 0.0
C748 C 0.44804 0.22401 0.59432 0.0
C749 C 0.46703 0.24615 0.58632 0.0
C750 C 0.47821 0.25096 0.54918 0.0
C751 C 0.47063 0.23375 0.51982 0.0
C752 C 0.45187 0.21166 0.52756 0.0
C753 C 0.44062 0.20675 0.56464 0.0
H754 H 0.4793 0.23751 0.49108 0.0
H755 H 0.37763 0.1945 0.85758 0.0
H756 H 0.40318 0.37766 0.70803 0.0
H757 H 0.38329 0.37366 0.77135 0.0
H758 H 0.32357 0.31131 0.72825 0.0
H759 H 0.3435 0.31509 0.66455 0.0
H760 H 0.34321 0.37215 0.79232 0.0
H761 H 0.30263 0.27379 0.81038 0.0
H762 H 0.30797 0.24169 0.78616 0.0
H763 H 0.38083 0.28892 0.7701 0.0
H764 H 0.37595 0.32119 0.79468 0.0
H765 H 0.29387 0.35298 0.9836 0.0
H766 H 0.29402 0.34381 0.91269 0.0
H767 H 0.35003 0.33012 0.93468 0.0
H768 H 0.34912 0.3381 0.00575 0.0
H769 H 0.32434 0.30346 0.87649 0.0
H770 H 0.35921 0.38607 0.90903 0.0
H771 H 0.3574 0.41954 0.93669 0.0
H772 H 0.30257 0.40694 0.8548 0.0
H773 H 0.30391 0.37324 0.82699 0.0
C774 C 0.38574 0.36319 0.7118 0.0
C775 C 0.37499 0.34658 0.68143 0.0
C776 C 0.37434 0.361 0.74795 0.0
C777 C 0.35204 0.34211 0.75455 0.0
C778 C 0.34086 0.32591 0.7238 0.0
C779 C 0.35226 0.32814 0.68745 0.0
C780 C 0.34136 0.33892 0.79462 0.0
C781 C 0.33875 0.35699 0.81054 0.0
C782 C 0.33565 0.31918 0.81839 0.0
C783 C 0.33884 0.29991 0.80382 0.0
C784 C 0.31978 0.27729 0.80171 0.0
C785 C 0.32273 0.25907 0.78794 0.0
C786 C 0.34471 0.26328 0.77644 0.0
C787 C 0.3638 0.2857 0.77884 0.0
C788 C 0.36094 0.30396 0.79264 0.0
C789 C 0.3058 0.34744 0.97338 0.0
C790 C 0.32177 0.34661 -6e-05 0.0
C791 C 0.3059 0.34225 0.93289 0.0
C792 C 0.32247 0.33692 0.91818 0.0
C793 C 0.33714 0.3343 0.94528 0.0
C794 C 0.33668 0.33895 0.98592 0.0
C795 C 0.32673 0.33696 0.87458 0.0
C796 C 0.32811 0.31832 0.85791 0.0
C797 C 0.33182 0.35642 0.85032 0.0
C798 C 0.33152 0.37706 0.86622 0.0
C799 C 0.34676 0.39044 0.897 0.0
C800 C 0.3458 0.40942 0.91272 0.0
C801 C 0.32984 0.41532 0.89758 0.0
C802 C 0.3149 0.40233 0.86653 0.0
C803 C 0.31575 0.3833 0.85077 0.0
H804 H 0.32906 0.42997 0.90988 0.0
H805 H 0.34696 0.24916 0.76579 0.0
H806 H 0.93471 0.33293 0.29436 0.0
H807 H 0.94347 0.32557 0.22685 0.0
H808 H 0.00739 0.33129 0.26914 0.0
H809 H 0.99883 0.33884 0.33699 0.0
H810 H 0.01387 0.35776 0.20394 0.0
H811 H 0.96311 0.27912 0.24107 0.0
H812 H 0.92753 0.24591 0.26813 0.0
H813 H 0.88715 0.2541 0.17608 0.0
H814 H 0.92245 0.28759 0.14878 0.0
H815 H 0.04108 0.33692 0.01278 0.0
H816 H 0.02986 0.32732 0.08283 0.0
H817 H 0.96445 0.32369 0.05857 0.0
H818 H 0.97536 0.33289 0.98819 0.0
H819 H 0.96039 0.29225 0.11684 0.0
H820 H 0.00934 0.37365 0.08686 0.0
H821 H 0.04424 0.40761 0.05966 0.0
H822 H 0.08717 0.39489 0.13973 0.0
H823 H 0.05254 0.36053 0.16676 0.0
C824 C 0.95058 0.33249 0.28944 0.0
C825 C 0.96615 0.3366 0.32101 0.0
C826 C 0.95545 0.32807 0.25086 0.0
C827 C 0.97594 0.3276 0.24311 0.0
C828 C 0.99141 0.33144 0.2746 0.0
C829 C 0.98651 0.33579 0.3133 0.0
C830 C 0.98199 0.32501 0.20149 0.0
C831 C 0.00244 0.34315 0.18519 0.0
C832 C 0.96674 0.30622 0.17681 0.0
C833 C 0.94544 0.286 0.19304 0.0
C834 C 0.94662 0.27396 0.22676 0.0
C835 C 0.9265 0.25506 0.24212 0.0
C836 C 0.90508 0.24792 0.22389 0.0
C837 C 0.90375 0.25965 0.19019 0.0
C838 C 0.92382 0.27858 0.17473 0.0
C839 C 0.02408 0.33355 0.02211 0.0
C840 C 0.00928 0.33613 0.99516 0.0
C841 C 0.01769 0.32804 0.06214 0.0
C842 C 0.99655 0.3253 0.07598 0.0
C843 C 0.98089 0.32583 0.04847 0.0
C844 C 0.98719 0.33118 0.00828 0.0
C845 C 0.99216 0.32506 0.11948 0.0
C846 C 0.972 0.30656 0.13596 0.0
C847 C 0.00757 0.34359 0.14445 0.0
C848 C 0.02839 0.36436 0.12845 0.0
C849 C 0.02625 0.37797 0.09839 0.0
C850 C 0.04598 0.39729 0.083 0.0
C851 C 0.06792 0.40334 0.09779 0.0
C852 C 0.07018 0.39013 0.12813 0.0
C853 C 0.05051 0.37072 0.14348 0.0
H854 H 0.08315 0.41831 0.08582 0.0
H855 H 0.88952 0.23328 0.23583 0.0
H856 H 0.63224 0.9446 0.6661 0.0
H857 H 0.64658 0.95837 0.5984 0.0
H858 H 0.62097 0.00638 0.6057 0.0
H859 H 0.60656 0.99276 0.67326 0.0
H860 H 0.60592 0.97873 0.53856 0.0
H861 H 0.67779 0.02616 0.60862 0.0
H862 H 0.71008 0.03363 0.65384 0.0
H863 H 0.7274 0.9917 0.57973 0.0
H864 H 0.69498 0.98372 0.53434 0.0
H865 H 0.65327 0.04952 0.3709 0.0
H866 H 0.6439 0.0345 0.43887 0.0
H867 H 0.67419 0.99138 0.41677 0.0
H868 H 0.68402 0.00664 0.34832 0.0
H869 H 0.68697 0.01315 0.48979 0.0
H870 H 0.61664 0.96699 0.41813 0.0
H871 H 0.58449 0.95923 0.37237 0.0
H872 H 0.56392 0.99754 0.44924 0.0
H873 H 0.59617 0.00583 0.49519 0.0
C874 C 0.62992 0.9583 0.65349 0.0
C875 C 0.61812 0.96748 0.67491 0.0
C876 C 0.63819 0.96618 0.61489 0.0
C877 C 0.63479 0.98335 0.59716 0.0
C878 C 0.62368 0.99306 0.61892 0.0
C879 C 0.61552 0.98528 0.65755 0.0
C880 C 0.64132 0.99013 0.55495 0.0
C881 C 0.62368 0.98651 0.52797 0.0
C882 C 0.66435 -0.0006 0.54099 0.0
C883 C 0.68378 0.00412 0.56835 0.0
C884 C 0.68833 0.01834 0.60219 0.0
C885 C 0.70669 0.02271 0.6278 0.0
C886 C 0.72073 0.01309 0.61974 0.0
C887 C 0.71648 -0.00089 0.58598 0.0
C888 C 0.69812 0.99467 0.56029 0.0
C889 C 0.65794 0.03681 0.38032 0.0
C890 C 0.66928 0.02916 0.35411 0.0
C891 C 0.65251 0.02821 0.4192 0.0
C892 C 0.65808 0.01162 0.43261 0.0
C893 C 0.66969 0.00413 0.40684 0.0
C894 C 0.6752 0.01279 0.36777 0.0
C895 C 0.65162 0.00224 0.47367 0.0
C896 C 0.66919 0.00523 0.50036 0.0
C897 C 0.62847 0.99222 0.48742 0.0
C898 C 0.60895 0.98718 0.45996 0.0
C899 C 0.60537 0.97391 0.42513 0.0
C900 C 0.58711 0.96939 0.39918 0.0
C901 C 0.5722 0.97792 0.40785 0.0
C902 C 0.57549 0.99095 0.44255 0.0
C903 C 0.59375 0.99554 0.46859 0.0
H904 H 0.55807 0.9744 0.38772 0.0
H905 H 0.73495 0.0165 0.63959 0.0
H906 H 0.6717 0.64643 0.64726 0.0
H907 H 0.68649 0.64439 0.71333 0.0
H908 H 0.66469 0.69082 0.76058 0.0
H909 H 0.65032 0.69333 0.69473 0.0
H910 H 0.70464 0.69825 0.79589 0.0
H911 H 0.62881 0.6328 0.76486 0.0
H912 H 0.6011 0.59928 0.7245 0.0
H913 H 0.64263 0.56708 0.74084 0.0
H914 H 0.67077 0.60058 0.78087 0.0
H915 H 0.67028 0.66284 0.99669 0.0
H916 H 0.67503 0.67387 0.92603 0.0
H917 H 0.69658 0.62388 0.90037 0.0
H918 H 0.69154 0.61249 0.97074 0.0
H919 H 0.66269 0.61852 0.85171 0.0
H920 H 0.73504 0.68183 0.89373 0.0
H921 H 0.76157 0.71522 0.93541 0.0
H922 H 0.72614 0.75148 0.90033 0.0
H923 H 0.69916 0.71816 0.85887 0.0
C924 C 0.67052 0.65661 0.6715 0.0
C925 C 0.65944 0.66969 0.66593 0.0
C926 C 0.67895 0.6554 0.70923 0.0
C927 C 0.67627 0.66711 0.74198 0.0
C928 C 0.66687 0.68159 0.73575 0.0
C929 C 0.65852 0.68287 0.69809 0.0
C930 C 0.68062 0.66227 0.78342 0.0
C931 C 0.69549 0.68084 0.80821 0.0
C932 C 0.66898 0.63949 0.79921 0.0
C933 C 0.65201 0.61929 0.7754 0.0
C934 C 0.63211 0.61864 0.75959 0.0
C935 C 0.61632 0.59964 0.73681 0.0
C936 C 0.62014 0.5811 0.73 0.0
C937 C 0.63973 0.58148 0.74606 0.0
C938 C 0.65559 0.60046 0.76879 0.0
C939 C 0.67632 0.6544 0.97611 0.0
C940 C 0.68032 0.63664 0.98926 0.0
C941 C 0.67918 0.66083 0.93576 0.0
C942 C 0.68629 0.64978 0.90797 0.0
C943 C 0.69107 0.63262 0.9213 0.0
C944 C 0.68814 0.62613 0.96155 0.0
C945 C 0.68653 0.65452 0.86455 0.0
C946 C 0.67234 0.6359 0.83936 0.0
C947 C 0.69871 0.67725 0.84862 0.0
C948 C 0.71497 0.6974 0.87338 0.0
C949 C 0.73279 0.69685 0.89512 0.0
C950 C 0.74793 0.71578 0.91868 0.0
C951 C 0.74552 0.73545 0.92057 0.0
C952 C 0.72798 0.73624 0.89884 0.0
C953 C 0.71278 0.71734 0.87526 0.0
H954 H 0.75726 0.75009 0.93883 0.0
H955 H 0.6079 0.5664 0.71236 0.0
H956 H 0.00326 0.6799 0.32709 0.0
H957 H 0.99168 0.67561 0.2567 0.0
H958 H 0.06236 0.69954 0.22064 0.0
H959 H 0.07416 0.70409 0.29079 0.0
H960 H 0.04011 0.71549 0.17025 0.0
H961 H 0.02693 0.64396 0.22884 0.0
H962 H 0.01133 0.61284 0.27935 0.0
H963 H 0.94188 0.59594 0.24921 0.0
H964 H 0.95714 0.62747 0.19919 0.0
H965 H 0.02151 0.65958 0.97952 0.0
H966 H 0.03326 0.6749 0.04741 0.0
H967 H 0.96141 0.64644 0.08064 0.0
H968 H 0.94953 0.63085 0.01333 0.0
H969 H 0.98364 0.63427 0.13265 0.0
H970 H 0.99737 0.7049 0.07011 0.0
H971 H 0.01379 0.73629 0.01997 0.0
H972 H 0.08273 0.75433 0.0561 0.0
H973 H 0.06672 0.72283 0.1061 0.0
C974 C 0.01641 0.68464 0.3042 0.0
C975 C 0.03954 0.69197 0.3145 0.0
C976 C 0.00977 0.68218 0.26403 0.0
C977 C 0.02613 0.68696 0.2336 0.0
C978 C 0.04948 0.69573 0.24372 0.0
C979 C 0.05614 0.69817 0.28385 0.0
C980 C 0.01857 0.68057 0.19161 0.0
C981 C 0.02787 0.69774 0.16186 0.0
C982 C 0.00243 0.65743 0.18094 0.0
C983 C 0.99319 0.63826 0.21061 0.0
C984 C 0.00834 0.63375 0.23321 0.0
C985 C -0.00044 0.61601 0.26173 0.0
C986 C 0.97562 0.6024 0.26751 0.0
C987 C 0.96042 0.60652 0.24475 0.0
C988 C 0.96913 0.62435 0.21634 0.0
C989 C 0.00824 0.65682 0.00117 0.0
C990 C 0.9846 0.64384 0.99114 0.0
C991 C 0.01498 0.66568 0.03989 0.0
C992 C 0.99819 0.66188 0.069 0.0
C993 C 0.97463 0.64952 0.05865 0.0
C994 C 0.9679 0.64061 0.02013 0.0
C995 C 0.00497 0.66922 0.11103 0.0
C996 C 0.99565 0.65212 0.1409 0.0
C997 C 0.02115 0.69238 0.12162 0.0
C998 C 0.03083 0.71136 0.0916 0.0
C999 C 0.01603 0.71543 0.06714 0.0
C1000 C 0.02527 0.73327 0.03878 0.0
C1001 C 0.04929 0.74726 0.03478 0.0
C1002 C 0.06413 0.74347 0.0592 0.0
C1003 C 0.05498 0.72564 0.08758 0.0
H1004 H 0.05641 0.76107 0.01282 0.0
H1005 H 0.96886 0.58865 0.28958 0.0
H1006 H 0.34907 0.00698 0.30883 0.0
H1007 H 0.34849 0.01676 0.37937 0.0
H1008 H 0.33183 0.94763 0.41371 0.0
H1009 H 0.33229 0.9377 0.34348 0.0
H1010 H 0.30662 0.96302 0.45641 0.0
H1011 H 0.38619 0.99023 0.41996 0.0
H1012 H 0.42157 0.01207 0.37921 0.0
H1013 H 0.4232 0.07576 0.40797 0.0
H1014 H 0.38761 0.05424 0.44844 0.0
H1015 H 0.34511 0.98058 0.6595 0.0
H1016 H 0.33717 0.97088 0.58849 0.0
H1017 H 0.35724 0.04192 0.56194 0.0
H1018 H 0.36543 0.05182 0.63268 0.0
H1019 H 0.37926 0.02669 0.51441 0.0
H1020 H 0.30092 -0.00062 0.55539 0.0
H1021 H 0.26564 0.97717 0.59617 0.0
H1022 H 0.26171 0.91344 0.5596 0.0
H1023 H 0.29717 0.93529 0.51903 0.0
C1024 C 0.34512 0.99383 0.33138 0.0
C1025 C 0.34095 0.97165 0.32062 0.0
C1026 C 0.34483 -0.00056 0.37163 0.0
C1027 C 0.34033 0.98297 0.40171 0.0
C1028 C 0.33534 0.96058 0.39095 0.0
C1029 C 0.33576 0.955 0.3508 0.0
C1030 C 0.34195 0.98934 0.44452 0.0
C1031 C 0.32253 0.97682 0.46925 0.0
C1032 C 0.36261 0.00761 0.46095 0.0
C1033 C 0.38409 0.0206 0.43685 0.0
C1034 C 0.39398 0.00887 0.41732 0.0
C1035 C 0.41409 0.02119 0.39433 0.0
C1036 C 0.42459 0.04528 0.39091 0.0
C1037 C 0.41503 0.0571 0.41059 0.0
C1038 C 0.3949 0.04485 0.43357 0.0
C1039 C 0.34753 0.99407 0.63865 0.0
C1040 C 0.35605 0.017 0.65173 0.0
C1041 C 0.3429 0.98848 0.59808 0.0
C1042 C 0.34656 0.00568 0.56996 0.0
C1043 C 0.35435 0.0284 0.58314 0.0
C1044 C 0.35898 0.034 0.62362 0.0
C1045 C 0.34391 0.00038 0.52653 0.0
C1046 C 0.36323 0.01305 0.50163 0.0
C1047 C 0.32318 0.9822 0.51006 0.0
C1048 C 0.30184 0.969 0.53446 0.0
C1049 C 0.29265 0.98064 0.55631 0.0
C1050 C 0.2726 0.96811 0.57934 0.0
C1051 C 0.26147 0.94392 0.58056 0.0
C1052 C 0.27036 0.93219 0.55867 0.0
C1053 C 0.29043 0.94463 0.53562 0.0
H1054 H 0.24594 0.93425 0.59839 0.0
H1055 H 0.44015 0.0548 0.37309 0.0
H1056 H 0.41242 0.40071 0.12381 0.0
H1057 H 0.4539 0.42867 0.12052 0.0
H1058 H 0.43891 0.48238 0.08657 0.0
H1059 H 0.39735 0.4544 0.08897 0.0
H1060 H 0.47265 0.48421 0.0413 0.0
H1061 H 0.45626 0.47904 0.18206 0.0
H1062 H 0.44133 0.45927 0.24677 0.0
H1063 H 0.48804 0.43237 0.2416 0.0
H1064 H 0.50303 0.45174 0.17655 0.0
H1065 H 0.58324 0.58189 0.08023 0.0
H1066 H 0.54204 0.55279 0.08214 0.0
H1067 H 0.55927 0.49959 0.10734 0.0
H1068 H 0.6006 0.52863 0.10563 0.0
H1069 H 0.52476 0.49698 0.15655 0.0
H1070 H 0.54166 0.50324 0.01593 0.0
H1071 H 0.55668 0.5237 0.95179 0.0
H1072 H 0.50896 0.54936 0.95752 0.0
H1073 H 0.49388 0.52931 0.02203 0.0
C1074 C 0.41792 0.41848 0.11573 0.0
C1075 C 0.40158 0.42535 0.10679 0.0
C1076 C 0.44165 0.43446 0.11401 0.0
C1077 C 0.44949 0.45768 0.10379 0.0
C1078 C 0.43323 0.46456 0.09457 0.0
C1079 C 0.40949 0.44855 0.09608 0.0
C1080 C 0.47467 0.47475 0.10226 0.0
C1081 C 0.48399 0.48722 0.06668 0.0
C1082 C 0.48955 0.47827 0.13507 0.0
C1083 C 0.4806 0.46665 0.17424 0.0
C1084 C 0.46322 0.46876 0.19456 0.0
C1085 C 0.45477 0.45765 0.23133 0.0
C1086 C 0.46368 0.44452 0.24823 0.0
C1087 C 0.48112 0.44252 0.22845 0.0
C1088 C 0.48962 0.45358 0.19164 0.0
C1089 C 0.5783 0.564 0.08611 0.0
C1090 C 0.59519 0.55756 0.09271 0.0
C1091 C 0.55475 0.54739 0.08704 0.0
C1092 C 0.54765 0.52403 0.09454 0.0
C1093 C 0.56443 0.51754 0.10144 0.0
C1094 C 0.58802 0.53414 0.10032 0.0
C1095 C 0.52266 0.50646 0.0957 0.0
C1096 C 0.5134 0.49391 0.13118 0.0
C1097 C 0.50782 0.50294 0.06288 0.0
C1098 C 0.51679 0.51495 0.02401 0.0
C1099 C 0.5345 0.5134 0.00369 0.0
C1100 C 0.543 0.5249 0.96723 0.0
C1101 C 0.53382 0.53787 0.95064 0.0
C1102 C 0.51608 0.53933 0.97043 0.0
C1103 C 0.50753 0.52788 0.00692 0.0
H1104 H 0.54042 0.54676 0.92241 0.0
H1105 H 0.45712 0.43594 0.27671 0.0
H1106 H 0.06999 0.62065 0.42346 0.0
H1107 H 0.05596 0.57904 0.42428 0.0
H1108 H 0.98762 0.56571 0.45703 0.0
H1109 H 0.00165 0.60739 0.45717 0.0
H1110 H 0.99863 0.53827 0.49829 0.0
H1111 H -0.00054 0.55797 0.36007 0.0
H1112 H 0.01606 0.57969 0.29751 0.0
H1113 H 0.06845 0.55999 0.29884 0.0
H1114 H 0.05219 0.53818 0.36155 0.0
H1115 H 0.93854 0.41871 0.44161 0.0
H1116 H 0.95228 0.46026 0.44672 0.0
H1117 H 0.02216 0.47542 0.42228 0.0
H1118 H 0.00861 0.43397 0.41695 0.0
H1119 H 0.00958 0.50166 0.37704 0.0
H1120 H 0.00688 0.48057 0.51567 0.0
H1121 H 0.98847 0.45792 0.57671 0.0
H1122 H 0.93765 0.4797 0.57323 0.0
H1123 H 0.95558 0.50225 0.51183 0.0
C1124 C 0.052 0.60889 0.43102 0.0
C1125 C 0.03687 0.61731 0.43985 0.0
C1126 C 0.04398 0.5851 0.4313 0.0
C1127 C 0.02064 0.56925 0.43998 0.0
C1128 C 0.00567 0.57763 0.45004 0.0
C1129 C 0.01371 0.60146 0.44997 0.0
C1130 C 0.01181 0.54395 0.43791 0.0
C1131 C 0.00076 0.53021 0.47161 0.0
C1132 C 0.01487 0.53348 0.40329 0.0
C1133 C 0.02475 0.54664 0.36569 0.0
C1134 C 0.01463 0.55842 0.34718 0.0
C1135 C 0.02395 0.57072 0.31166 0.0
C1136 C 0.04337 0.57133 0.29431 0.0
C1137 C 0.05344 0.55954 0.31236 0.0
C1138 C 0.04415 0.54716 0.34783 0.0
C1139 C 0.95684 0.43088 0.43742 0.0
C1140 C 0.97249 0.42305 0.42887 0.0
C1141 C 0.96466 0.4546 0.44053 0.0
C1142 C 0.98825 0.47087 0.43519 0.0
C1143 C 0.00389 0.46311 0.42656 0.0
C1144 C 0.99611 0.43942 0.42361 0.0
C1145 C 0.99659 0.49604 0.43748 0.0
C1146 C 0.00749 0.50974 0.40374 0.0
C1147 C 0.99318 0.50638 0.47191 0.0
C1148 C 0.98244 0.49291 0.50892 0.0
C1149 C 0.99167 0.48038 0.52773 0.0
C1150 C 0.98134 0.46759 0.56244 0.0
C1151 C 0.96187 0.46732 0.57878 0.0
C1152 C 0.95272 0.4799 0.56051 0.0
C1153 C 0.96297 0.49271 0.52578 0.0
H1154 H 0.9539 0.45741 0.60565 0.0
H1155 H 0.05056 0.58088 0.26682 0.0
H1156 H 0.57747 0.99098 0.82849 0.0
H1157 H 0.54988 0.005 0.82904 0.0
H1158 H 0.4943 0.93609 0.80113 0.0
H1159 H 0.52206 0.9222 0.79882 0.0
H1160 H 0.49105 0.96497 0.75511 0.0
H1161 H 0.50165 0.96292 0.89663 0.0
H1162 H 0.52343 0.97125 0.96002 0.0
H1163 H 0.55171 0.0443 0.94121 0.0
H1164 H 0.53035 0.03644 0.87747 0.0
H1165 H 0.39821 0.98588 0.79729 0.0
H1166 H 0.42613 0.97246 0.8057 0.0
H1167 H 0.48263 0.04275 0.79456 0.0
H1168 H 0.45477 0.05635 0.78525 0.0
H1169 H 0.48516 0.01378 0.8616 0.0
H1170 H 0.47441 0.01447 0.71859 0.0
H1171 H 0.45108 0.00501 0.65688 0.0
H1172 H 0.42121 0.9323 0.68165 0.0
H1173 H 0.44411 0.94136 0.74389 0.0
C1174 C 0.55932 0.97875 0.82296 0.0
C1175 C 0.55192 0.95549 0.81354 0.0
C1176 C 0.54352 0.98677 0.82349 0.0
C1177 C 0.51991 0.97157 0.81557 0.0
C1178 C 0.51242 0.94817 0.80727 0.0
C1179 C 0.52828 0.94023 0.80605 0.0
C1180 C 0.5033 0.98031 0.81334 0.0
C1181 C 0.48956 0.97531 0.7788 0.0
C1182 C 0.50167 0.99432 0.84372 0.0
C1183 C 0.51455 0.99909 0.88206 0.0
C1184 C 0.51266 0.98077 0.90585 0.0
C1185 C 0.5249 0.98541 0.94188 0.0
C1186 C 0.53898 0.00829 0.95456 0.0
C1187 C 0.54081 0.02659 0.93131 0.0
C1188 C 0.52862 0.02205 0.89526 0.0
C1189 C 0.41657 0.99852 0.79684 0.0
C1190 C 0.42433 0.02216 0.79048 0.0
C1191 C 0.43246 0.99081 0.80162 0.0
C1192 C 0.45635 0.00664 0.8007 0.0
C1193 C 0.46421 0.03033 0.79542 0.0
C1194 C 0.44831 0.03802 0.78992 0.0
C1195 C 0.47305 0.99821 0.80372 0.0
C1196 C 0.48674 0.00333 0.83822 0.0
C1197 C 0.47449 0.98408 0.77361 0.0
C1198 C 0.46077 0.9786 0.73612 0.0
C1199 C 0.46269 0.99647 0.71109 0.0
C1200 C 0.44958 0.99118 0.67597 0.0
C1201 C 0.43461 0.96807 0.66541 0.0
C1202 C 0.43278 0.9502 0.6899 0.0
C1203 C 0.44583 0.9554 0.72509 0.0
H1204 H 0.42448 0.96401 0.6382 0.0
H1205 H 0.54845 0.01186 0.98241 0.0
H1206 H 0.57266 0.59355 0.60118 0.0
H1207 H 0.54673 0.5517 0.59557 0.0
H1208 H 0.51106 0.56248 0.49738 0.0
H1209 H 0.5368 0.60441 0.50295 0.0
H1210 H 0.48104 0.53094 0.55161 0.0
H1211 H 0.54912 0.54439 0.47899 0.0
H1212 H 0.59101 0.55936 0.46974 0.0
H1213 H 0.59067 0.51723 0.56743 0.0
H1214 H 0.54882 0.50225 0.57762 0.0
H1215 H 0.41711 0.41367 0.49074 0.0
H1216 H 0.44393 0.45552 0.49037 0.0
H1217 H 0.48471 0.44746 0.58273 0.0
H1218 H 0.45835 0.40559 0.58253 0.0
H1219 H 0.51225 0.47793 0.52915 0.0
H1220 H 0.44542 0.46555 0.60427 0.0
H1221 H 0.40378 0.45085 0.61615 0.0
H1222 H 0.40197 0.4911 0.51717 0.0
H1223 H 0.44356 0.50581 0.50436 0.0
C1224 C 0.55928 0.58704 0.57842 0.0
C1225 C 0.55684 0.60231 0.5524 0.0
C1226 C 0.54455 0.56312 0.57516 0.0
C1227 C 0.52718 0.554 0.54574 0.0
C1228 C 0.52442 0.56919 0.5202 0.0
C1229 C 0.53917 0.59313 0.52338 0.0
C1230 C 0.51181 0.52861 0.54178 0.0
C1231 C 0.48781 0.51935 0.54609 0.0
C1232 C 0.52075 0.51351 0.53558 0.0
C1233 C 0.54587 0.52235 0.52928 0.0
C1234 C 0.55801 0.53845 0.49868 0.0
C1235 C 0.58174 0.54691 0.49324 0.0
C1236 C 0.59351 0.53929 0.51804 0.0
C1237 C 0.58154 0.52314 0.54826 0.0
C1238 C 0.55781 0.51463 0.55386 0.0
C1239 C 0.43188 0.42079 0.51077 0.0
C1240 C 0.43553 0.40634 0.53684 0.0
C1241 C 0.44713 0.44472 0.51066 0.0
C1242 C 0.4661 0.45467 0.53703 0.0
C1243 C 0.47016 0.44018 0.56219 0.0
C1244 C 0.45505 0.41624 0.56208 0.0
C1245 C 0.48144 0.48019 0.5391 0.0
C1246 C 0.50544 0.48949 0.53448 0.0
C1247 C 0.47252 0.49533 0.54536 0.0
C1248 C 0.44754 0.48658 0.5531 0.0
C1249 C 0.4361 0.47113 0.58485 0.0
C1250 C 0.41252 0.46282 0.59178 0.0
C1251 C 0.40022 0.46999 0.56736 0.0
C1252 C 0.4115 0.48554 0.53602 0.0
C1253 C 0.43508 0.49388 0.52893 0.0
H1254 H 0.38196 0.46354 0.57278 0.0
H1255 H 0.61188 0.54587 0.51379 0.0
H1256 H 0.93612 0.53051 0.87785 0.0
H1257 H 0.94625 0.49988 0.87671 0.0
H1258 H 0.01888 0.55151 0.88468 0.0
H1259 H 0.00889 0.58215 0.88395 0.0
H1260 H 0.01459 0.52087 0.83423 0.0
H1261 H 0.98567 0.51708 0.96707 0.0
H1262 H 0.95764 0.51384 0.01863 0.0
H1263 H 0.90752 0.44691 0.97315 0.0
H1264 H 0.93516 0.44988 0.92097 0.0
H1265 H 0.05584 0.44604 0.90162 0.0
H1266 H 0.04424 0.47566 0.9003 0.0
H1267 H 0.97558 0.42433 0.86199 0.0
H1268 H 0.98707 0.39465 0.86269 0.0
H1269 H 0.9773 0.45382 0.9271 0.0
H1270 H 0.00881 0.45879 0.79476 0.0
H1271 H 0.0388 0.46296 0.74666 0.0
H1272 H 0.08672 0.52941 0.79672 0.0
H1273 H 0.05709 0.52548 0.84553 0.0
C1274 C 0.95424 0.53529 0.87931 0.0
C1275 C 0.97171 0.55871 0.88106 0.0
C1276 C 0.96002 0.51777 0.87889 0.0
C1277 C 0.98333 0.52333 0.88131 0.0
C1278 C 0.00078 0.54675 0.88278 0.0
C1279 C 0.99504 0.56426 0.88243 0.0
C1280 C 0.98967 0.50484 0.88194 0.0
C1281 C 0.0066 0.50639 0.85495 0.0
C1282 C 0.97904 0.48568 0.90847 0.0
C1283 C 0.9624 0.48382 0.93986 0.0
C1284 C 0.96861 0.50175 0.96788 0.0
C1285 C 0.9528 0.49995 -0.00276 0.0
C1286 C 0.93079 0.48021 -0.00091 0.0
C1287 C 0.92456 0.4622 0.97164 0.0
C1288 C 0.9403 0.46392 0.94219 0.0
C1289 C 0.03827 0.44106 0.89291 0.0
C1290 C 0.02238 0.41804 0.88212 0.0
C1291 C 0.03171 0.45799 0.8921 0.0
C1292 C 0.0091 0.45213 0.8809 0.0
C1293 C 0.9931 0.42914 0.8707 0.0
C1294 C -0.00026 0.41226 0.87095 0.0
C1295 C 0.0022 0.47007 0.87968 0.0
C1296 C 0.98519 0.46835 0.90649 0.0
C1297 C 0.01303 0.48929 0.85353 0.0
C1298 C 0.0308 0.49173 0.82405 0.0
C1299 C 0.0258 0.4742 0.79574 0.0
C1300 C 0.04272 0.47654 0.7683 0.0
C1301 C 0.06467 0.49641 0.7687 0.0
C1302 C 0.06972 0.51402 0.79648 0.0
C1303 C 0.05286 0.51175 0.82401 0.0
H1304 H 0.07775 0.49819 0.74743 0.0
H1305 H 0.91857 0.47885 0.02185 0.0
H1306 H 0.59629 0.00225 0.19962 0.0
H1307 H 0.55612 0.99151 0.18666 0.0
H1308 H 0.57429 0.06332 0.19562 0.0
H1309 H 0.61463 0.07423 0.20937 0.0
H1310 H 0.53729 0.03641 0.24029 0.0
H1311 H 0.5604 0.03502 0.10571 0.0
H1312 H 0.57829 0.02457 0.05087 0.0
H1313 H 0.52858 0.95249 0.06794 0.0
H1314 H 0.51065 0.96244 0.12349 0.0
H1315 H 0.42481 0.01241 0.18609 0.0
H1316 H 0.46655 0.02748 0.18066 0.0
H1317 H 0.45515 0.95776 0.18448 0.0
H1318 H 0.41329 0.94247 0.18988 0.0
H1319 H 0.48926 0.98634 0.12848 0.0
H1320 H 0.46957 0.98756 0.26723 0.0
H1321 H 0.45213 0.99752 0.32354 0.0
H1322 H 0.49601 0.07 0.29826 0.0
H1323 H 0.51347 0.06045 0.24137 0.0
C1324 C 0.59184 0.01583 0.19845 0.0
C1325 C 0.60864 0.0391 0.20571 0.0
C1326 C 0.56886 0.00966 0.19077 0.0
C1327 C 0.56223 0.02664 0.18983 0.0
C1328 C 0.57906 0.04996 0.19616 0.0
C1329 C 0.60209 0.05616 0.20393 0.0
C1330 C 0.53746 0.01975 0.18503 0.0
C1331 C 0.52693 0.02589 0.21535 0.0
C1332 C 0.52382 0.00553 0.15299 0.0
C1333 C 0.53428 -0.00052 0.11904 0.0
C1334 C 0.55336 0.01692 0.09799 0.0
C1335 C 0.56351 0.01109 0.06676 0.0
C1336 C 0.55461 0.98788 0.05599 0.0
C1337 C 0.53547 0.97046 0.07635 0.0
C1338 C 0.5253 0.97619 0.10771 0.0
C1339 C 0.43112 0.00024 0.18539 0.0
C1340 C 0.41575 0.97624 0.18882 0.0
C1341 C 0.45498 0.00889 0.18228 0.0
C1342 C 0.4639 0.99373 0.18251 0.0
C1343 C 0.44857 0.96973 0.18422 0.0
C1344 C 0.42468 0.96104 0.18753 0.0
C1345 C 0.48925 0.00296 0.18379 0.0
C1346 C 0.4998 0.99717 0.15298 0.0
C1347 C 0.50298 0.0175 0.21537 0.0
C1348 C 0.49263 0.02328 0.24976 0.0
C1349 C 0.47536 0.00562 0.27346 0.0
C1350 C 0.4655 0.01118 0.30552 0.0
C1351 C 0.47291 0.03437 0.31439 0.0
C1352 C 0.49026 0.05204 0.2913 0.0
C1353 C 0.50015 0.04657 0.25915 0.0
H1354 H 0.46527 0.03864 0.33924 0.0
H1355 H 0.5625 0.98341 0.03181 0.0
loop_
_geom_bond_atom_site_label_1
_geom_bond_atom_site_label_2
_geom_bond_distance
_geom_bond_site_symmetry_2
_ccdc_geom_bond_type
C0 O1 1.160 . S
C0 O7 1.185 . S
O1 C0 1.160 . S
O2 Zn3 1.899 . S
O2 C10 1.284 . S
Zn3 O2 1.899 . S
Zn3 O4 2.032 . S
Zn3 O7 2.086 . S
Zn3 O12 1.977 . S
O4 Zn3 2.032 . S
O4 C8 1.278 . S
C5 O6 1.203 . S
C5 O12 1.267 . S
O6 C5 1.203 . S
O7 C0 1.185 . S
O7 Zn3 2.086 . S
C8 O4 1.278 . S
C8 O9 1.211 . S
O9 C8 1.211 . S
C10 O2 1.284 . S
C10 O11 1.273 . S
O11 C10 1.273 . S
O12 Zn3 1.977 . S
O12 C5 1.267 . S
C13 O14 1.160 . S
C13 O20 1.185 . S
O14 C13 1.160 . S
O15 Zn16 1.899 . S
O15 C23 1.284 . S
Zn16 O15 1.899 . S
Zn16 O17 2.032 . S
Zn16 O20 2.086 . S
Zn16 O25 1.977 . S
O17 Zn16 2.032 . S
O17 C21 1.278 . S
C18 O19 1.203 . S
C18 O25 1.267 . S
O19 C18 1.203 . S
O20 C13 1.185 . S
O20 Zn16 2.086 . S
C21 O17 1.278 . S
C21 O22 1.211 . S
O22 C21 1.211 . S
C23 O15 1.284 . S
C23 O24 1.273 . S
O24 C23 1.273 . S
O25 Zn16 1.977 . S
O25 C18 1.267 . S
C26 O27 1.160 . S
C26 O33 1.185 . S
O27 C26 1.160 . S
O28 Zn29 1.899 . S
O28 C36 1.284 . S
Zn29 O28 1.899 . S
Zn29 O30 2.032 . S
Zn29 O33 2.086 . S
Zn29 O38 1.977 . S
O30 Zn29 2.032 . S
O30 C34 1.278 . S
C31 O32 1.203 . S
C31 O38 1.267 . S
O32 C31 1.203 . S
O33 C26 1.185 . S
O33 Zn29 2.086 . S
C34 O30 1.278 . S
C34 O35 1.211 . S
O35 C34 1.211 . S
C36 O28 1.284 . S
C36 O37 1.273 . S
O37 C36 1.273 . S
O38 Zn29 1.977 . S
O38 C31 1.267 . S
C39 O40 1.160 . S
C39 O46 1.185 . S
O40 C39 1.160 . S
O41 Zn42 1.899 . S
O41 C49 1.284 . S
Zn42 O41 1.899 . S
Zn42 O43 2.032 . S
Zn42 O46 2.086 . S
Zn42 O51 1.977 . S
O43 Zn42 2.032 . S
O43 C47 1.278 . S
C44 O45 1.203 . S
C44 O51 1.267 . S
O45 C44 1.203 . S
O46 C39 1.185 . S
O46 Zn42 2.086 . S
C47 O43 1.278 . S
C47 O48 1.211 . S
O48 C47 1.211 . S
C49 O41 1.284 . S
C49 O50 1.273 . S
O50 C49 1.273 . S
O51 Zn42 1.977 . S
O51 C44 1.267 . S
C52 O53 1.160 . S
C52 O59 1.185 . S
O53 C52 1.160 . S
O54 Zn55 1.899 . S
O54 C62 1.284 . S
Zn55 O54 1.899 . S
Zn55 O56 2.032 . S
Zn55 O59 2.086 . S
Zn55 O64 1.977 . S
O56 Zn55 2.032 . S
O56 C60 1.278 . S
C57 O58 1.203 . S
C57 O64 1.267 . S
O58 C57 1.203 . S
O59 C52 1.185 . S
O59 Zn55 2.086 . S
C60 O56 1.278 . S
C60 O61 1.211 . S
O61 C60 1.211 . S
C62 O54 1.284 . S
C62 O63 1.273 . S
O63 C62 1.273 . S
O64 Zn55 1.977 . S
O64 C57 1.267 . S
C65 O66 1.160 . S
C65 O72 1.185 . S
O66 C65 1.160 . S
O67 Zn68 1.899 . S
O67 C75 1.284 . S
Zn68 O67 1.899 . S
Zn68 O69 2.032 . S
Zn68 O72 2.086 . S
Zn68 O77 1.977 . S
O69 Zn68 2.032 . S
O69 C73 1.278 . S
C70 O71 1.203 . S
C70 O77 1.267 . S
O71 C70 1.203 . S
O72 C65 1.185 . S
O72 Zn68 2.086 . S
C73 O69 1.278 . S
C73 O74 1.211 . S
O74 C73 1.211 . S
C75 O67 1.284 . S
C75 O76 1.273 . S
O76 C75 1.273 . S
O77 Zn68 1.977 . S
O77 C70 1.267 . S
C78 O79 1.160 . S
C78 O85 1.185 . S
O79 C78 1.160 . S
O80 Zn81 1.899 . S
O80 C88 1.284 . S
Zn81 O80 1.899 . S
Zn81 O82 2.032 . S
Zn81 O85 2.086 . S
Zn81 O90 1.977 . S
O82 Zn81 2.032 . S
O82 C86 1.278 . S
C83 O84 1.203 . S
C83 O90 1.267 . S
O84 C83 1.203 . S
O85 C78 1.185 . S
O85 Zn81 2.086 . S
C86 O82 1.278 . S
C86 O87 1.211 . S
O87 C86 1.211 . S
C88 O80 1.284 . S
C88 O89 1.273 . S
O89 C88 1.273 . S
O90 Zn81 1.977 . S
O90 C83 1.267 . S
C91 O92 1.160 . S
C91 O98 1.185 . S
O92 C91 1.160 . S
O93 Zn94 1.899 . S
O93 C101 1.284 . S
Zn94 O93 1.899 . S
Zn94 O95 2.032 . S
Zn94 O98 2.086 . S
Zn94 O103 1.977 . S
O95 Zn94 2.032 . S
O95 C99 1.278 . S
C96 O97 1.203 . S
C96 O103 1.267 . S
O97 C96 1.203 . S
O98 C91 1.185 . S
O98 Zn94 2.086 . S
C99 O95 1.278 . S
C99 O100 1.211 . S
O100 C99 1.211 . S
C101 O93 1.284 . S
C101 O102 1.273 . S
O102 C101 1.273 . S
O103 Zn94 1.977 . S
O103 C96 1.267 . S
C104 O105 1.160 . S
C104 O111 1.185 . S
O105 C104 1.160 . S
O106 Zn107 1.899 . S
O106 C114 1.284 . S
Zn107 O106 1.899 . S
Zn107 O108 2.032 . S
Zn107 O111 2.086 . S
Zn107 O116 1.977 . S
O108 Zn107 2.032 . S
O108 C112 1.278 . S
C109 O110 1.203 . S
C109 O116 1.267 . S
O110 C109 1.203 . S
O111 C104 1.185 . S
O111 Zn107 2.086 . S
C112 O108 1.278 . S
C112 O113 1.211 . S
O113 C112 1.211 . S
C114 O106 1.284 . S
C114 O115 1.273 . S
O115 C114 1.273 . S
O116 Zn107 1.977 . S
O116 C109 1.267 . S
C117 O118 1.160 . S
C117 O124 1.185 . S
O118 C117 1.160 . S
O119 Zn120 1.899 . S
O119 C127 1.284 . S
Zn120 O119 1.899 . S
Zn120 O121 2.032 . S
Zn120 O124 2.086 . S
Zn120 O129 1.977 . S
O121 Zn120 2.032 . S
O121 C125 1.278 . S
C122 O123 1.203 . S
C122 O129 1.267 . S
O123 C122 1.203 . S
O124 C117 1.185 . S
O124 Zn120 2.086 . S
C125 O121 1.278 . S
C125 O126 1.211 . S
O126 C125 1.211 . S
C127 O119 1.284 . S
C127 O128 1.273 . S
O128 C127 1.273 . S
O129 Zn120 1.977 . S
O129 C122 1.267 . S
C130 O131 1.160 . S
C130 O137 1.185 . S
O131 C130 1.160 . S
O132 Zn133 1.899 . S
O132 C140 1.284 . S
Zn133 O132 1.899 . S
Zn133 O134 2.032 . S
Zn133 O137 2.086 . S
Zn133 O142 1.977 . S
O134 Zn133 2.032 . S
O134 C138 1.278 . S
C135 O136 1.203 . S
C135 O142 1.267 . S
O136 C135 1.203 . S
O137 C130 1.185 . S
O137 Zn133 2.086 . S
C138 O134 1.278 . S
C138 O139 1.211 . S
O139 C138 1.211 . S
C140 O132 1.284 . S
C140 O141 1.273 . S
O141 C140 1.273 . S
O142 Zn133 1.977 . S
O142 C135 1.267 . S
C143 O144 1.160 . S
C143 O150 1.185 . S
O144 C143 1.160 . S
O145 Zn146 1.899 . S
O145 C153 1.284 . S
Zn146 O145 1.899 . S
Zn146 O147 2.032 . S
Zn146 O150 2.086 . S
Zn146 O155 1.977 . S
O147 Zn146 2.032 . S
O147 C151 1.278 . S
C148 O149 1.203 . S
C148 O155 1.267 . S
O149 C148 1.203 . S
O150 C143 1.185 . S
O150 Zn146 2.086 . S
C151 O147 1.278 . S
C151 O152 1.211 . S
O152 C151 1.211 . S
C153 O145 1.284 . S
C153 O154 1.273 . S
O154 C153 1.273 . S
O155 Zn146 1.977 . S
O155 C148 1.267 . S
H156 C174 0.951 . S
H157 C176 0.951 . S
H158 C178 0.950 . S
H159 C179 0.950 . S
H160 C181 0.950 . S
H161 C184 0.950 . S
H162 C185 0.950 . S
H163 C187 0.950 . S
H164 C188 0.950 . S
H165 C189 0.951 . S
H166 C191 0.951 . S
H167 C193 0.950 . S
H168 C194 0.950 . S
H169 C196 0.950 . S
H170 C199 0.950 . S
H171 C200 0.950 . S
H172 C202 0.950 . S
H173 C203 0.950 . S
C174 H156 0.951 . S
C174 C175 1.366 . S
C174 C176 1.388 . S
C175 C174 1.366 . S
C175 C179 1.385 . S
C176 H157 0.951 . S
C176 C174 1.388 . S
C176 C177 1.366 . S
C177 C176 1.366 . S
C177 C178 1.414 . S
C177 C180 1.499 . S
C178 H158 0.950 . S
C178 C177 1.414 . S
C178 C179 1.374 . S
C179 H159 0.950 . S
C179 C175 1.385 . S
C179 C178 1.374 . S
C180 C177 1.499 . S
C180 C181 1.373 . S
C180 C182 1.389 . S
C181 H160 0.950 . S
C181 C180 1.373 . S
C181 C197 1.377 . S
C182 C180 1.389 . S
C182 C183 1.524 . S
C182 C196 1.377 . S
C183 C182 1.524 . S
C183 C184 1.397 . S
C183 C188 1.363 . S
C184 H161 0.950 . S
C184 C183 1.397 . S
C184 C185 1.334 . S
C185 H162 0.950 . S
C185 C184 1.334 . S
C185 C186 1.287 . S
C186 C185 1.287 . S
C186 C187 1.524 . S
C186 H205 0.913 . S
C187 H163 0.950 . S
C187 C186 1.524 . S
C187 C188 1.415 . S
C188 H164 0.950 . S
C188 C183 1.363 . S
C188 C187 1.415 . S
C189 H165 0.951 . S
C189 C190 1.366 . S
C189 C191 1.388 . S
C190 C189 1.366 . S
C190 C194 1.385 . S
C191 H166 0.951 . S
C191 C189 1.388 . S
C191 C192 1.366 . S
C192 C191 1.366 . S
C192 C193 1.414 . S
C192 C195 1.499 . S
C193 H167 0.950 . S
C193 C192 1.414 . S
C193 C194 1.374 . S
C194 H168 0.950 . S
C194 C190 1.385 . S
C194 C193 1.374 . S
C195 C192 1.499 . S
C195 C196 1.373 . S
C195 C197 1.389 . S
C196 H169 0.950 . S
C196 C182 1.377 . S
C196 C195 1.373 . S
C197 C181 1.377 . S
C197 C195 1.389 . S
C197 C198 1.524 . S
C198 C197 1.524 . S
C198 C199 1.397 . S
C198 C203 1.363 . S
C199 H170 0.950 . S
C199 C198 1.397 . S
C199 C200 1.334 . S
C200 H171 0.950 . S
C200 C199 1.334 . S
C200 C201 1.287 . S
C201 C200 1.287 . S
C201 C202 1.524 . S
C201 H204 0.999 . S
C202 H172 0.950 . S
C202 C201 1.524 . S
C202 C203 1.415 . S
C203 H173 0.950 . S
C203 C198 1.363 . S
C203 C202 1.415 . S
H204 C201 0.999 . S
H205 C186 0.913 . S
H206 C224 0.951 . S
H207 C226 0.951 . S
H208 C228 0.950 . S
H209 C229 0.950 . S
H210 C231 0.950 . S
H211 C234 0.950 . S
H212 C235 0.950 . S
H213 C237 0.950 . S
H214 C238 0.950 . S
H215 C239 0.951 . S
H216 C241 0.951 . S
H217 C243 0.950 . S
H218 C244 0.950 . S
H219 C246 0.950 . S
H220 C249 0.950 . S
H221 C250 0.950 . S
H222 C252 0.950 . S
H223 C253 0.950 . S
C224 H206 0.951 . S
C224 C225 1.366 . S
C224 C226 1.388 . S
C225 C224 1.366 . S
C225 C229 1.385 . S
C226 H207 0.951 . S
C226 C224 1.388 . S
C226 C227 1.366 . S
C227 C226 1.366 . S
C227 C228 1.414 . S
C227 C230 1.499 . S
C228 H208 0.950 . S
C228 C227 1.414 . S
C228 C229 1.374 . S
C229 H209 0.950 . S
C229 C225 1.385 . S
C229 C228 1.374 . S
C230 C227 1.499 . S
C230 C231 1.373 . S
C230 C232 1.389 1_655 S
C231 H210 0.950 . S
C231 C230 1.373 . S
C231 C247 1.377 . S
C232 C230 1.389 1_455 S
C232 C233 1.524 . S
C232 C246 1.377 . S
C233 C232 1.524 . S
C233 C234 1.397 . S
C233 C238 1.363 . S
C234 H211 0.950 . S
C234 C233 1.397 . S
C234 C235 1.334 . S
C235 H212 0.950 . S
C235 C234 1.334 . S
C235 C236 1.287 . S
C236 C235 1.287 . S
C236 C237 1.524 . S
C236 H255 0.913 . S
C237 H213 0.950 . S
C237 C236 1.524 . S
C237 C238 1.415 . S
C238 H214 0.950 . S
C238 C233 1.363 . S
C238 C237 1.415 . S
C239 H215 0.951 . S
C239 C240 1.366 . S
C239 C241 1.388 . S
C240 C239 1.366 . S
C240 C244 1.385 . S
C241 H216 0.951 . S
C241 C239 1.388 . S
C241 C242 1.366 . S
C242 C241 1.366 . S
C242 C243 1.414 . S
C242 C245 1.499 . S
C243 H217 0.950 . S
C243 C242 1.414 . S
C243 C244 1.374 . S
C244 H218 0.950 . S
C244 C240 1.385 . S
C244 C243 1.374 . S
C245 C242 1.499 . S
C245 C246 1.373 . S
C245 C247 1.389 1_455 S
C246 H219 0.950 . S
C246 C232 1.377 . S
C246 C245 1.373 . S
C247 C231 1.377 . S
C247 C245 1.389 1_655 S
C247 C248 1.524 . S
C248 C247 1.524 . S
C248 C249 1.397 . S
C248 C253 1.363 . S
C249 H220 0.950 . S
C249 C248 1.397 . S
C249 C250 1.334 . S
C250 H221 0.950 . S
C250 C249 1.334 . S
C250 C251 1.287 . S
C251 C250 1.287 . S
C251 C252 1.524 . S
C251 H254 0.999 . S
C252 H222 0.950 . S
C252 C251 1.524 . S
C252 C253 1.415 . S
C253 H223 0.950 . S
C253 C248 1.363 . S
C253 C252 1.415 . S
H254 C251 0.999 . S
H255 C236 0.913 . S
H256 C274 0.951 . S
H257 C276 0.951 1_545 S
H258 C278 0.950 . S
H259 C279 0.950 . S
H260 C281 0.950 . S
H261 C284 0.950 . S
H262 C285 0.950 . S
H263 C287 0.950 . S
H264 C288 0.950 1_545 S
H265 C289 0.951 . S
H266 C291 0.951 1_565 S
H267 C293 0.950 . S
H268 C294 0.950 . S
H269 C296 0.950 . S
H270 C299 0.950 . S
H271 C300 0.950 . S
H272 C302 0.950 . S
H273 C303 0.950 1_565 S
C274 H256 0.951 . S
C274 C275 1.366 . S
C274 C276 1.388 . S
C275 C274 1.366 . S
C275 C279 1.385 . S
C276 H257 0.951 1_565 S
C276 C274 1.388 . S
C276 C277 1.366 . S
C277 C276 1.366 . S
C277 C278 1.414 . S
C277 C280 1.499 . S
C278 H258 0.950 . S
C278 C277 1.414 . S
C278 C279 1.374 . S
C279 H259 0.950 . S
C279 C275 1.385 . S
C279 C278 1.374 . S
C280 C277 1.499 . S
C280 C281 1.373 1_565 S
C280 C282 1.389 . S
C281 H260 0.950 . S
C281 C280 1.373 1_545 S
C281 C297 1.377 1_556 S
C282 C280 1.389 . S
C282 C283 1.524 . S
C282 C296 1.377 1_556 S
C283 C282 1.524 . S
C283 C284 1.397 . S
C283 C288 1.363 . S
C284 H261 0.950 . S
C284 C283 1.397 . S
C284 C285 1.334 . S
C285 H262 0.950 . S
C285 C284 1.334 . S
C285 C286 1.287 . S
C286 C285 1.287 . S
C286 C287 1.524 . S
C286 H305 0.913 . S
C287 H263 0.950 . S
C287 C286 1.524 . S
C287 C288 1.415 . S
C288 H264 0.950 1_565 S
C288 C283 1.363 . S
C288 C287 1.415 . S
C289 H265 0.951 . S
C289 C290 1.366 . S
C289 C291 1.388 . S
C290 C289 1.366 . S
C290 C294 1.385 . S
C291 H266 0.951 1_545 S
C291 C289 1.388 . S
C291 C292 1.366 . S
C292 C291 1.366 . S
C292 C293 1.414 . S
C292 C295 1.499 . S
C293 H267 0.950 . S
C293 C292 1.414 . S
C293 C294 1.374 . S
C294 H268 0.950 . S
C294 C290 1.385 . S
C294 C293 1.374 . S
C295 C292 1.499 . S
C295 C296 1.373 1_545 S
C295 C297 1.389 . S
C296 H269 0.950 . S
C296 C282 1.377 1_554 S
C296 C295 1.373 1_565 S
C297 C281 1.377 1_554 S
C297 C295 1.389 . S
C297 C298 1.524 . S
C298 C297 1.524 . S
C298 C299 1.397 . S
C298 C303 1.363 . S
C299 H270 0.950 . S
C299 C298 1.397 . S
C299 C300 1.334 . S
C300 H271 0.950 . S
C300 C299 1.334 . S
C300 C301 1.287 . S
C301 C300 1.287 . S
C301 C302 1.524 . S
C301 H304 0.999 . S
C302 H272 0.950 . S
C302 C301 1.524 . S
C302 C303 1.415 . S
C303 H273 0.950 1_545 S
C303 C298 1.363 . S
C303 C302 1.415 . S
H304 C301 0.999 . S
H305 C286 0.913 . S
H306 C324 0.951 . S
H307 C326 0.951 . S
H308 C328 0.950 . S
H309 C329 0.950 . S
H310 C331 0.950 . S
H311 C334 0.950 . S
H312 C335 0.950 . S
H313 C337 0.950 . S
H314 C338 0.950 . S
H315 C339 0.951 . S
H316 C341 0.951 . S
H317 C343 0.950 . S
H318 C344 0.950 . S
H319 C346 0.950 . S
H320 C349 0.950 . S
H321 C350 0.950 . S
H322 C352 0.950 . S
H323 C353 0.950 . S
C324 H306 0.951 . S
C324 C325 1.366 . S
C324 C326 1.388 . S
C325 C324 1.366 . S
C325 C329 1.385 . S
C326 H307 0.951 . S
C326 C324 1.388 . S
C326 C327 1.366 . S
C327 C326 1.366 . S
C327 C328 1.414 . S
C327 C330 1.499 . S
C328 H308 0.950 . S
C328 C327 1.414 . S
C328 C329 1.374 . S
C329 H309 0.950 . S
C329 C325 1.385 . S
C329 C328 1.374 . S
C330 C327 1.499 . S
C330 C331 1.373 . S
C330 C332 1.389 . S
C331 H310 0.950 . S
C331 C330 1.373 . S
C331 C347 1.377 . S
C332 C330 1.389 . S
C332 C333 1.524 . S
C332 C346 1.377 . S
C333 C332 1.524 . S
C333 C334 1.397 . S
C333 C338 1.363 . S
C334 H311 0.950 . S
C334 C333 1.397 . S
C334 C335 1.334 . S
C335 H312 0.950 . S
C335 C334 1.334 . S
C335 C336 1.287 . S
C336 C335 1.287 . S
C336 C337 1.524 . S
C336 H355 0.913 . S
C337 H313 0.950 . S
C337 C336 1.524 . S
C337 C338 1.415 . S
C338 H314 0.950 . S
C338 C333 1.363 . S
C338 C337 1.415 . S
C339 H315 0.951 . S
C339 C340 1.366 . S
C339 C341 1.388 . S
C340 C339 1.366 . S
C340 C344 1.385 . S
C341 H316 0.951 . S
C341 C339 1.388 . S
C341 C342 1.366 . S
C342 C341 1.366 . S
C342 C343 1.414 . S
C342 C345 1.499 . S
C343 H317 0.950 . S
C343 C342 1.414 . S
C343 C344 1.374 . S
C344 H318 0.950 . S
C344 C340 1.385 . S
C344 C343 1.374 . S
C345 C342 1.499 . S
C345 C346 1.373 . S
C345 C347 1.389 . S
C346 H319 0.950 . S
C346 C332 1.377 . S
C346 C345 1.373 . S
C347 C331 1.377 . S
C347 C345 1.389 . S
C347 C348 1.524 . S
C348 C347 1.524 . S
C348 C349 1.397 . S
C348 C353 1.363 . S
C349 H320 0.950 . S
C349 C348 1.397 . S
C349 C350 1.334 . S
C350 H321 0.950 . S
C350 C349 1.334 . S
C350 C351 1.287 . S
C351 C350 1.287 . S
C351 C352 1.524 . S
C351 H354 0.999 . S
C352 H322 0.950 . S
C352 C351 1.524 . S
C352 C353 1.415 . S
C353 H323 0.950 . S
C353 C348 1.363 . S
C353 C352 1.415 . S
H354 C351 0.999 . S
H355 C336 0.913 . S
H356 C374 0.951 1_455 S
H357 C376 0.949 . S
H358 C378 0.950 . S
H359 C379 0.950 . S
H360 C381 0.941 . S
H361 C384 0.950 . S
H362 C385 0.950 . S
H363 C387 0.950 . S
H364 C388 0.950 1_455 S
H365 C389 0.951 1_655 S
H366 C391 0.949 . S
H367 C393 0.950 . S
H368 C394 0.950 . S
H369 C396 0.941 . S
H370 C399 0.950 . S
H371 C400 0.950 . S
H372 C402 0.950 . S
H373 C403 0.950 1_655 S
C374 H356 0.951 1_655 S
C374 C375 1.366 . S
C374 C376 1.389 1_655 S
C375 C374 1.366 . S
C375 C379 1.385 . S
C376 H357 0.949 . S
C376 C374 1.389 1_455 S
C376 C377 1.366 1_455 S
C377 C376 1.366 1_655 S
C377 C378 1.414 . S
C377 C380 1.499 . S
C378 H358 0.950 . S
C378 C377 1.414 . S
C378 C379 1.374 . S
C379 H359 0.950 . S
C379 C375 1.385 . S
C379 C378 1.374 . S
C380 C377 1.499 . S
C380 C381 1.358 1_655 S
C380 C382 1.389 . S
C381 H360 0.941 . S
C381 C380 1.358 1_455 S
C381 C397 1.382 . S
C382 C380 1.389 . S
C382 C383 1.524 . S
C382 C396 1.382 . S
C383 C382 1.524 . S
C383 C384 1.397 . S
C383 C388 1.363 . S
C384 H361 0.950 . S
C384 C383 1.397 . S
C384 C385 1.334 . S
C385 H362 0.950 . S
C385 C384 1.334 . S
C385 C386 1.287 . S
C386 C385 1.287 . S
C386 C387 1.524 . S
C386 H405 0.913 . S
C387 H363 0.950 . S
C387 C386 1.524 . S
C387 C388 1.415 . S
C388 H364 0.950 1_655 S
C388 C383 1.363 . S
C388 C387 1.415 . S
C389 H365 0.951 1_455 S
C389 C390 1.366 . S
C389 C391 1.389 1_455 S
C390 C389 1.366 . S
C390 C394 1.385 . S
C391 H366 0.949 . S
C391 C389 1.389 1_655 S
C391 C392 1.366 1_655 S
C392 C391 1.366 1_455 S
C392 C393 1.414 . S
C392 C395 1.499 . S
C393 H367 0.950 . S
C393 C392 1.414 . S
C393 C394 1.374 . S
C394 H368 0.950 . S
C394 C390 1.385 . S
C394 C393 1.374 . S
C395 C392 1.499 . S
C395 C396 1.358 1_455 S
C395 C397 1.389 . S
C396 H369 0.941 . S
C396 C382 1.382 . S
C396 C395 1.358 1_655 S
C397 C381 1.382 . S
C397 C395 1.389 . S
C397 C398 1.524 . S
C398 C397 1.524 . S
C398 C399 1.397 . S
C398 C403 1.363 . S
C399 H370 0.950 . S
C399 C398 1.397 . S
C399 C400 1.334 . S
C400 H371 0.950 . S
C400 C399 1.334 . S
C400 C401 1.287 . S
C401 C400 1.287 . S
C401 C402 1.524 . S
C401 H404 0.999 . S
C402 H372 0.950 . S
C402 C401 1.524 . S
C402 C403 1.415 . S
C403 H373 0.950 1_455 S
C403 C398 1.363 . S
C403 C402 1.415 . S
H404 C401 0.999 . S
H405 C386 0.913 . S
H406 C424 0.951 . S
H407 C426 0.951 . S
H408 C428 0.950 1_545 S
H409 C429 0.950 . S
H410 C431 0.950 . S
H411 C434 0.950 . S
H412 C435 0.950 . S
H413 C437 0.950 . S
H414 C438 0.950 1_556 S
H415 C439 0.951 . S
H416 C441 0.951 . S
H417 C443 0.950 1_565 S
H418 C444 0.950 . S
H419 C446 0.950 . S
H420 C449 0.950 . S
H421 C450 0.950 . S
H422 C452 0.950 . S
H423 C453 0.950 1_554 S
C424 H406 0.951 . S
C424 C425 1.366 . S
C424 C426 1.388 . S
C425 C424 1.366 . S
C425 C429 1.385 . S
C426 H407 0.951 . S
C426 C424 1.388 . S
C426 C427 1.366 . S
C427 C426 1.366 . S
C427 C428 1.414 . S
C427 C430 1.499 . S
C428 H408 0.950 1_565 S
C428 C427 1.414 . S
C428 C429 1.374 . S
C429 H409 0.950 . S
C429 C425 1.385 . S
C429 C428 1.374 . S
C430 C427 1.499 . S
C430 C431 1.373 1_565 S
C430 C432 1.389 . S
C431 H410 0.950 . S
C431 C430 1.373 1_545 S
C431 C447 1.377 1_554 S
C432 C430 1.389 . S
C432 C433 1.524 . S
C432 C446 1.377 1_554 S
C433 C432 1.524 . S
C433 C434 1.397 . S
C433 C438 1.363 . S
C434 H411 0.950 . S
C434 C433 1.397 . S
C434 C435 1.334 . S
C435 H412 0.950 . S
C435 C434 1.334 . S
C435 C436 1.287 . S
C436 C435 1.287 . S
C436 C437 1.524 . S
C436 H455 0.913 . S
C437 H413 0.950 . S
C437 C436 1.524 . S
C437 C438 1.415 . S
C438 H414 0.950 1_554 S
C438 C433 1.363 . S
C438 C437 1.415 . S
C439 H415 0.951 . S
C439 C440 1.366 . S
C439 C441 1.388 . S
C440 C439 1.366 . S
C440 C444 1.385 . S
C441 H416 0.951 . S
C441 C439 1.388 . S
C441 C442 1.366 . S
C442 C441 1.366 . S
C442 C443 1.414 . S
C442 C445 1.499 . S
C443 H417 0.950 1_545 S
C443 C442 1.414 . S
C443 C444 1.374 . S
C444 H418 0.950 . S
C444 C440 1.385 . S
C444 C443 1.374 . S
C445 C442 1.499 . S
C445 C446 1.373 1_545 S
C445 C447 1.389 . S
C446 H419 0.950 . S
C446 C432 1.377 1_556 S
C446 C445 1.373 1_565 S
C447 C431 1.377 1_556 S
C447 C445 1.389 . S
C447 C448 1.524 . S
C448 C447 1.524 . S
C448 C449 1.397 . S
C448 C453 1.363 . S
C449 H420 0.950 . S
C449 C448 1.397 . S
C449 C450 1.334 . S
C450 H421 0.950 . S
C450 C449 1.334 . S
C450 C451 1.287 . S
C451 C450 1.287 . S
C451 C452 1.524 . S
C451 H454 0.999 . S
C452 H422 0.950 . S
C452 C451 1.524 . S
C452 C453 1.415 . S
C453 H423 0.950 1_556 S
C453 C448 1.363 . S
C453 C452 1.415 . S
H454 C451 0.999 . S
H455 C436 0.913 . S
H456 C474 0.951 1_554 S
H457 C476 0.950 1_554 S
H458 C478 0.950 . S
H459 C479 0.950 . S
H460 C481 0.950 . S
H461 C484 0.950 . S
H462 C485 0.950 . S
H463 C487 0.950 . S
H464 C488 0.950 . S
H465 C489 0.951 1_556 S
H466 C491 0.950 1_556 S
H467 C493 0.950 . S
H468 C494 0.950 . S
H469 C496 0.950 . S
H470 C499 0.950 . S
H471 C500 0.950 . S
H472 C502 0.950 . S
H473 C503 0.950 . S
C474 H456 0.951 1_556 S
C474 C475 1.366 . S
C474 C476 1.388 . S
C475 C474 1.366 . S
C475 C479 1.385 . S
C476 H457 0.950 1_556 S
C476 C474 1.388 . S
C476 C477 1.366 . S
C477 C476 1.366 . S
C477 C478 1.414 . S
C477 C480 1.499 . S
C478 H458 0.950 . S
C478 C477 1.414 . S
C478 C479 1.374 . S
C479 H459 0.950 . S
C479 C475 1.385 . S
C479 C478 1.374 . S
C480 C477 1.499 . S
C480 C481 1.373 . S
C480 C482 1.389 1_556 S
C481 H460 0.950 . S
C481 C480 1.373 . S
C481 C497 1.377 . S
C482 C480 1.389 1_554 S
C482 C483 1.524 . S
C482 C496 1.377 . S
C483 C482 1.524 . S
C483 C484 1.397 . S
C483 C488 1.363 . S
C484 H461 0.950 . S
C484 C483 1.397 . S
C484 C485 1.334 . S
C485 H462 0.950 . S
C485 C484 1.334 . S
C485 C486 1.287 . S
C486 C485 1.287 . S
C486 C487 1.524 . S
C486 H505 0.913 . S
C487 H463 0.950 . S
C487 C486 1.524 . S
C487 C488 1.415 . S
C488 H464 0.950 . S
C488 C483 1.363 . S
C488 C487 1.415 . S
C489 H465 0.951 1_554 S
C489 C490 1.366 . S
C489 C491 1.388 . S
C490 C489 1.366 . S
C490 C494 1.385 . S
C491 H466 0.950 1_554 S
C491 C489 1.388 . S
C491 C492 1.366 . S
C492 C491 1.366 . S
C492 C493 1.414 . S
C492 C495 1.499 . S
C493 H467 0.950 . S
C493 C492 1.414 . S
C493 C494 1.374 . S
C494 H468 0.950 . S
C494 C490 1.385 . S
C494 C493 1.374 . S
C495 C492 1.499 . S
C495 C496 1.373 . S
C495 C497 1.389 1_554 S
C496 H469 0.950 . S
C496 C482 1.377 . S
C496 C495 1.373 . S
C497 C481 1.377 . S
C497 C495 1.389 1_556 S
C497 C498 1.524 . S
C498 C497 1.524 . S
C498 C499 1.397 . S
C498 C503 1.363 . S
C499 H470 0.950 . S
C499 C498 1.397 . S
C499 C500 1.334 . S
C500 H471 0.950 . S
C500 C499 1.334 . S
C500 C501 1.287 . S
C501 C500 1.287 . S
C501 C502 1.524 . S
C501 H504 0.999 . S
C502 H472 0.950 . S
C502 C501 1.524 . S
C502 C503 1.415 . S
C503 H473 0.950 . S
C503 C498 1.363 . S
C503 C502 1.415 . S
H504 C501 0.999 . S
H505 C486 0.913 . S
H506 C524 0.951 . S
H507 C526 0.951 . S
H508 C528 0.950 . S
H509 C529 0.950 . S
H510 C531 0.950 . S
H511 C534 0.950 . S
H512 C535 0.950 . S
H513 C537 0.950 . S
H514 C538 0.950 . S
H515 C539 0.951 . S
H516 C541 0.951 . S
H517 C543 0.950 . S
H518 C544 0.950 . S
H519 C546 0.950 . S
H520 C549 0.950 . S
H521 C550 0.950 . S
H522 C552 0.950 . S
H523 C553 0.950 . S
C524 H506 0.951 . S
C524 C525 1.366 . S
C524 C526 1.388 . S
C525 C524 1.366 . S
C525 C529 1.385 . S
C526 H507 0.951 . S
C526 C524 1.388 . S
C526 C527 1.366 . S
C527 C526 1.366 . S
C527 C528 1.414 . S
C527 C530 1.499 . S
C528 H508 0.950 . S
C528 C527 1.414 . S
C528 C529 1.374 . S
C529 H509 0.950 . S
C529 C525 1.385 . S
C529 C528 1.374 . S
C530 C527 1.499 . S
C530 C531 1.373 . S
C530 C532 1.389 . S
C531 H510 0.950 . S
C531 C530 1.373 . S
C531 C547 1.377 . S
C532 C530 1.389 . S
C532 C533 1.524 . S
C532 C546 1.377 . S
C533 C532 1.524 . S
C533 C534 1.397 . S
C533 C538 1.363 . S
C534 H511 0.950 . S
C534 C533 1.397 . S
C534 C535 1.334 . S
C535 H512 0.950 . S
C535 C534 1.334 . S
C535 C536 1.287 . S
C536 C535 1.287 . S
C536 C537 1.524 . S
C536 H555 0.913 . S
C537 H513 0.950 . S
C537 C536 1.524 . S
C537 C538 1.415 . S
C538 H514 0.950 . S
C538 C533 1.363 . S
C538 C537 1.415 . S
C539 H515 0.951 . S
C539 C540 1.366 . S
C539 C541 1.388 . S
C540 C539 1.366 . S
C540 C544 1.385 . S
C541 H516 0.951 . S
C541 C539 1.388 . S
C541 C542 1.366 . S
C542 C541 1.366 . S
C542 C543 1.414 . S
C542 C545 1.499 . S
C543 H517 0.950 . S
C543 C542 1.414 . S
C543 C544 1.374 . S
C544 H518 0.950 . S
C544 C540 1.385 . S
C544 C543 1.374 . S
C545 C542 1.499 . S
C545 C546 1.373 . S
C545 C547 1.389 . S
C546 H519 0.950 . S
C546 C532 1.377 . S
C546 C545 1.373 . S
C547 C531 1.377 . S
C547 C545 1.389 . S
C547 C548 1.524 . S
C548 C547 1.524 . S
C548 C549 1.397 . S
C548 C553 1.363 . S
C549 H520 0.950 . S
C549 C548 1.397 . S
C549 C550 1.334 . S
C550 H521 0.950 . S
C550 C549 1.334 . S
C550 C551 1.287 . S
C551 C550 1.287 . S
C551 C552 1.524 . S
C551 H554 0.999 . S
C552 H522 0.950 . S
C552 C551 1.524 . S
C552 C553 1.415 . S
C553 H523 0.950 . S
C553 C548 1.363 . S
C553 C552 1.415 . S
H554 C551 0.999 . S
H555 C536 0.913 . S
H556 C574 0.951 . S
H557 C576 0.951 . S
H558 C578 0.950 . S
H559 C579 0.950 . S
H560 C581 0.950 . S
H561 C584 0.950 . S
H562 C585 0.950 . S
H563 C587 0.950 . S
H564 C588 0.950 . S
H565 C589 0.951 . S
H566 C591 0.951 . S
H567 C593 0.950 . S
H568 C594 0.950 . S
H569 C596 0.950 . S
H570 C599 0.950 . S
H571 C600 0.950 . S
H572 C602 0.950 . S
H573 C603 0.950 . S
C574 H556 0.951 . S
C574 C575 1.366 . S
C574 C576 1.388 . S
C575 C574 1.366 . S
C575 C579 1.385 . S
C576 H557 0.951 . S
C576 C574 1.388 . S
C576 C577 1.366 . S
C577 C576 1.366 . S
C577 C578 1.414 . S
C577 C580 1.499 . S
C578 H558 0.950 . S
C578 C577 1.414 . S
C578 C579 1.374 . S
C579 H559 0.950 . S
C579 C575 1.385 . S
C579 C578 1.374 . S
C580 C577 1.499 . S
C580 C581 1.373 . S
C580 C582 1.389 . S
C581 H560 0.950 . S
C581 C580 1.373 . S
C581 C597 1.377 . S
C582 C580 1.389 . S
C582 C583 1.524 . S
C582 C596 1.377 . S
C583 C582 1.524 . S
C583 C584 1.397 . S
C583 C588 1.363 . S
C584 H561 0.950 . S
C584 C583 1.397 . S
C584 C585 1.334 . S
C585 H562 0.950 . S
C585 C584 1.334 . S
C585 C586 1.287 . S
C586 C585 1.287 . S
C586 C587 1.524 . S
C586 H605 0.913 . S
C587 H563 0.950 . S
C587 C586 1.524 . S
C587 C588 1.415 . S
C588 H564 0.950 . S
C588 C583 1.363 . S
C588 C587 1.415 . S
C589 H565 0.951 . S
C589 C590 1.366 . S
C589 C591 1.388 . S
C590 C589 1.366 . S
C590 C594 1.385 . S
C591 H566 0.951 . S
C591 C589 1.388 . S
C591 C592 1.366 . S
C592 C591 1.366 . S
C592 C593 1.414 . S
C592 C595 1.499 . S
C593 H567 0.950 . S
C593 C592 1.414 . S
C593 C594 1.374 . S
C594 H568 0.950 . S
C594 C590 1.385 . S
C594 C593 1.374 . S
C595 C592 1.499 . S
C595 C596 1.373 . S
C595 C597 1.389 . S
C596 H569 0.950 . S
C596 C582 1.377 . S
C596 C595 1.373 . S
C597 C581 1.377 . S
C597 C595 1.389 . S
C597 C598 1.524 . S
C598 C597 1.524 . S
C598 C599 1.397 . S
C598 C603 1.363 . S
C599 H570 0.950 . S
C599 C598 1.397 . S
C599 C600 1.334 . S
C600 H571 0.950 . S
C600 C599 1.334 . S
C600 C601 1.287 . S
C601 C600 1.287 . S
C601 C602 1.524 . S
C601 H604 0.999 . S
C602 H572 0.950 . S
C602 C601 1.524 . S
C602 C603 1.415 . S
C603 H573 0.950 . S
C603 C598 1.363 . S
C603 C602 1.415 . S
H604 C601 0.999 . S
H605 C586 0.913 . S
H606 C624 0.951 . S
H607 C626 0.951 . S
H608 C628 0.950 1_556 S
H609 C629 0.950 . S
H610 C631 0.950 . S
H611 C634 0.950 . S
H612 C635 0.950 . S
H613 C637 0.950 . S
H614 C638 0.950 1_554 S
H615 C639 0.951 . S
H616 C641 0.951 . S
H617 C643 0.950 1_554 S
H618 C644 0.950 . S
H619 C646 0.950 . S
H620 C649 0.950 . S
H621 C650 0.950 . S
H622 C652 0.950 . S
H623 C653 0.950 1_556 S
C624 H606 0.951 . S
C624 C625 1.366 . S
C624 C626 1.388 . S
C625 C624 1.366 . S
C625 C629 1.385 . S
C626 H607 0.951 . S
C626 C624 1.388 . S
C626 C627 1.366 . S
C627 C626 1.366 . S
C627 C628 1.414 . S
C627 C630 1.499 . S
C628 H608 0.950 1_554 S
C628 C627 1.414 . S
C628 C629 1.374 . S
C629 H609 0.950 . S
C629 C625 1.385 . S
C629 C628 1.374 . S
C630 C627 1.499 . S
C630 C631 1.373 . S
C630 C632 1.389 1_554 S
C631 H610 0.950 . S
C631 C630 1.373 . S
C631 C647 1.377 . S
C632 C630 1.389 1_556 S
C632 C633 1.524 . S
C632 C646 1.377 . S
C633 C632 1.524 . S
C633 C634 1.397 . S
C633 C638 1.363 . S
C634 H611 0.950 . S
C634 C633 1.397 . S
C634 C635 1.334 . S
C635 H612 0.950 . S
C635 C634 1.334 . S
C635 C636 1.287 . S
C636 C635 1.287 . S
C636 C637 1.524 . S
C636 H655 0.913 . S
C637 H613 0.950 . S
C637 C636 1.524 . S
C637 C638 1.415 . S
C638 H614 0.950 1_556 S
C638 C633 1.363 . S
C638 C637 1.415 . S
C639 H615 0.951 . S
C639 C640 1.366 . S
C639 C641 1.388 . S
C640 C639 1.366 . S
C640 C644 1.385 . S
C641 H616 0.951 . S
C641 C639 1.388 . S
C641 C642 1.366 . S
C642 C641 1.366 . S
C642 C643 1.414 . S
C642 C645 1.499 . S
C643 H617 0.950 1_556 S
C643 C642 1.414 . S
C643 C644 1.374 . S
C644 H618 0.950 . S
C644 C640 1.385 . S
C644 C643 1.374 . S
C645 C642 1.499 . S
C645 C646 1.373 . S
C645 C647 1.389 1_556 S
C646 H619 0.950 . S
C646 C632 1.377 . S
C646 C645 1.373 . S
C647 C631 1.377 . S
C647 C645 1.389 1_554 S
C647 C648 1.524 . S
C648 C647 1.524 . S
C648 C649 1.397 . S
C648 C653 1.363 . S
C649 H620 0.950 . S
C649 C648 1.397 . S
C649 C650 1.334 . S
C650 H621 0.950 . S
C650 C649 1.334 . S
C650 C651 1.287 . S
C651 C650 1.287 . S
C651 C652 1.524 . S
C651 H654 0.999 . S
C652 H622 0.950 . S
C652 C651 1.524 . S
C652 C653 1.415 . S
C653 H623 0.950 1_554 S
C653 C648 1.363 . S
C653 C652 1.415 . S
H654 C651 0.999 . S
H655 C636 0.913 . S
H656 C674 0.951 . S
H657 C676 0.951 . S
H658 C678 0.950 . S
H659 C679 0.950 . S
H660 C681 0.950 . S
H661 C684 0.950 . S
H662 C685 0.950 . S
H663 C687 0.950 . S
H664 C688 0.950 . S
H665 C689 0.951 . S
H666 C691 0.951 . S
H667 C693 0.950 . S
H668 C694 0.950 . S
H669 C696 0.950 . S
H670 C699 0.950 . S
H671 C700 0.950 . S
H672 C702 0.950 . S
H673 C703 0.950 . S
C674 H656 0.951 . S
C674 C675 1.366 . S
C674 C676 1.388 . S
C675 C674 1.366 . S
C675 C679 1.385 . S
C676 H657 0.951 . S
C676 C674 1.388 . S
C676 C677 1.366 . S
C677 C676 1.366 . S
C677 C678 1.414 . S
C677 C680 1.499 . S
C678 H658 0.950 . S
C678 C677 1.414 . S
C678 C679 1.374 . S
C679 H659 0.950 . S
C679 C675 1.385 . S
C679 C678 1.374 . S
C680 C677 1.499 . S
C680 C681 1.373 . S
C680 C682 1.389 . S
C681 H660 0.950 . S
C681 C680 1.373 . S
C681 C697 1.377 . S
C682 C680 1.389 . S
C682 C683 1.524 . S
C682 C696 1.377 . S
C683 C682 1.524 . S
C683 C684 1.397 . S
C683 C688 1.363 . S
C684 H661 0.950 . S
C684 C683 1.397 . S
C684 C685 1.334 . S
C685 H662 0.950 . S
C685 C684 1.334 . S
C685 C686 1.287 . S
C686 C685 1.287 . S
C686 C687 1.524 . S
C686 H705 0.913 . S
C687 H663 0.950 . S
C687 C686 1.524 . S
C687 C688 1.415 . S
C688 H664 0.950 . S
C688 C683 1.363 . S
C688 C687 1.415 . S
C689 H665 0.951 . S
C689 C690 1.366 . S
C689 C691 1.388 . S
C690 C689 1.366 . S
C690 C694 1.385 . S
C691 H666 0.951 . S
C691 C689 1.388 . S
C691 C692 1.366 . S
C692 C691 1.366 . S
C692 C693 1.414 . S
C692 C695 1.499 . S
C693 H667 0.950 . S
C693 C692 1.414 . S
C693 C694 1.374 . S
C694 H668 0.950 . S
C694 C690 1.385 . S
C694 C693 1.374 . S
C695 C692 1.499 . S
C695 C696 1.373 . S
C695 C697 1.389 . S
C696 H669 0.950 . S
C696 C682 1.377 . S
C696 C695 1.373 . S
C697 C681 1.377 . S
C697 C695 1.389 . S
C697 C698 1.524 . S
C698 C697 1.524 . S
C698 C699 1.397 . S
C698 C703 1.363 . S
C699 H670 0.950 . S
C699 C698 1.397 . S
C699 C700 1.334 . S
C700 H671 0.950 . S
C700 C699 1.334 . S
C700 C701 1.287 . S
C701 C700 1.287 . S
C701 C702 1.524 . S
C701 H704 0.999 . S
C702 H672 0.950 . S
C702 C701 1.524 . S
C702 C703 1.415 . S
C703 H673 0.950 . S
C703 C698 1.363 . S
C703 C702 1.415 . S
H704 C701 0.999 . S
H705 C686 0.913 . S
H706 C724 0.951 . S
H707 C726 0.951 . S
H708 C728 0.950 . S
H709 C729 0.950 . S
H710 C731 0.950 . S
H711 C734 0.950 . S
H712 C735 0.950 . S
H713 C737 0.950 . S
H714 C738 0.950 . S
H715 C739 0.951 . S
H716 C741 0.951 . S
H717 C743 0.950 . S
H718 C744 0.950 . S
H719 C746 0.950 . S
H720 C749 0.950 . S
H721 C750 0.950 . S
H722 C752 0.950 . S
H723 C753 0.950 . S
C724 H706 0.951 . S
C724 C725 1.366 . S
C724 C726 1.388 . S
C725 C724 1.366 . S
C725 C729 1.385 . S
C726 H707 0.951 . S
C726 C724 1.388 . S
C726 C727 1.366 . S
C727 C726 1.366 . S
C727 C728 1.414 . S
C727 C730 1.499 . S
C728 H708 0.950 . S
C728 C727 1.414 . S
C728 C729 1.374 . S
C729 H709 0.950 . S
C729 C725 1.385 . S
C729 C728 1.374 . S
C730 C727 1.499 . S
C730 C731 1.373 . S
C730 C732 1.389 . S
C731 H710 0.950 . S
C731 C730 1.373 . S
C731 C747 1.377 . S
C732 C730 1.389 . S
C732 C733 1.524 . S
C732 C746 1.377 . S
C733 C732 1.524 . S
C733 C734 1.397 . S
C733 C738 1.363 . S
C734 H711 0.950 . S
C734 C733 1.397 . S
C734 C735 1.334 . S
C735 H712 0.950 . S
C735 C734 1.334 . S
C735 C736 1.287 . S
C736 C735 1.287 . S
C736 C737 1.524 . S
C736 H755 0.913 . S
C737 H713 0.950 . S
C737 C736 1.524 . S
C737 C738 1.415 . S
C738 H714 0.950 . S
C738 C733 1.363 . S
C738 C737 1.415 . S
C739 H715 0.951 . S
C739 C740 1.366 . S
C739 C741 1.388 . S
C740 C739 1.366 . S
C740 C744 1.385 . S
C741 H716 0.951 . S
C741 C739 1.388 . S
C741 C742 1.366 . S
C742 C741 1.366 . S
C742 C743 1.414 . S
C742 C745 1.499 . S
C743 H717 0.950 . S
C743 C742 1.414 . S
C743 C744 1.374 . S
C744 H718 0.950 . S
C744 C740 1.385 . S
C744 C743 1.374 . S
C745 C742 1.499 . S
C745 C746 1.373 . S
C745 C747 1.389 . S
C746 H719 0.950 . S
C746 C732 1.377 . S
C746 C745 1.373 . S
C747 C731 1.377 . S
C747 C745 1.389 . S
C747 C748 1.524 . S
C748 C747 1.524 . S
C748 C749 1.397 . S
C748 C753 1.363 . S
C749 H720 0.950 . S
C749 C748 1.397 . S
C749 C750 1.334 . S
C750 H721 0.950 . S
C750 C749 1.334 . S
C750 C751 1.287 . S
C751 C750 1.287 . S
C751 C752 1.524 . S
C751 H754 0.999 . S
C752 H722 0.950 . S
C752 C751 1.524 . S
C752 C753 1.415 . S
C753 H723 0.950 . S
C753 C748 1.363 . S
C753 C752 1.415 . S
H754 C751 0.999 . S
H755 C736 0.913 . S
H756 C774 0.951 . S
H757 C776 0.951 . S
H758 C778 0.950 . S
H759 C779 0.950 . S
H760 C781 0.950 . S
H761 C784 0.950 . S
H762 C785 0.950 . S
H763 C787 0.950 . S
H764 C788 0.950 . S
H765 C789 0.951 . S
H766 C791 0.951 . S
H767 C793 0.950 . S
H768 C794 0.950 1_554 S
H769 C796 0.950 . S
H770 C799 0.950 . S
H771 C800 0.950 . S
H772 C802 0.950 . S
H773 C803 0.950 . S
C774 H756 0.951 . S
C774 C775 1.366 . S
C774 C776 1.388 . S
C775 C774 1.366 . S
C775 C779 1.385 . S
C776 H757 0.951 . S
C776 C774 1.388 . S
C776 C777 1.366 . S
C777 C776 1.366 . S
C777 C778 1.414 . S
C777 C780 1.499 . S
C778 H758 0.950 . S
C778 C777 1.414 . S
C778 C779 1.374 . S
C779 H759 0.950 . S
C779 C775 1.385 . S
C779 C778 1.374 . S
C780 C777 1.499 . S
C780 C781 1.373 . S
C780 C782 1.389 . S
C781 H760 0.950 . S
C781 C780 1.373 . S
C781 C797 1.377 . S
C782 C780 1.389 . S
C782 C783 1.524 . S
C782 C796 1.377 . S
C783 C782 1.524 . S
C783 C784 1.397 . S
C783 C788 1.363 . S
C784 H761 0.950 . S
C784 C783 1.397 . S
C784 C785 1.334 . S
C785 H762 0.950 . S
C785 C784 1.334 . S
C785 C786 1.287 . S
C786 C785 1.287 . S
C786 C787 1.524 . S
C786 H805 0.913 . S
C787 H763 0.950 . S
C787 C786 1.524 . S
C787 C788 1.415 . S
C788 H764 0.950 . S
C788 C783 1.363 . S
C788 C787 1.415 . S
C789 H765 0.951 . S
C789 C790 1.366 1_556 S
C789 C791 1.388 . S
C790 C789 1.366 1_554 S
C790 C794 1.385 1_554 S
C791 H766 0.951 . S
C791 C789 1.388 . S
C791 C792 1.366 . S
C792 C791 1.366 . S
C792 C793 1.414 . S
C792 C795 1.499 . S
C793 H767 0.950 . S
C793 C792 1.414 . S
C793 C794 1.374 . S
C794 H768 0.950 1_556 S
C794 C790 1.385 1_556 S
C794 C793 1.374 . S
C795 C792 1.499 . S
C795 C796 1.373 . S
C795 C797 1.389 . S
C796 H769 0.950 . S
C796 C782 1.377 . S
C796 C795 1.373 . S
C797 C781 1.377 . S
C797 C795 1.389 . S
C797 C798 1.524 . S
C798 C797 1.524 . S
C798 C799 1.397 . S
C798 C803 1.363 . S
C799 H770 0.950 . S
C799 C798 1.397 . S
C799 C800 1.334 . S
C800 H771 0.950 . S
C800 C799 1.334 . S
C800 C801 1.287 . S
C801 C800 1.287 . S
C801 C802 1.524 . S
C801 H804 0.999 . S
C802 H772 0.950 . S
C802 C801 1.524 . S
C802 C803 1.415 . S
C803 H773 0.950 . S
C803 C798 1.363 . S
C803 C802 1.415 . S
H804 C801 0.999 . S
H805 C786 0.913 . S
H806 C824 0.951 . S
H807 C826 0.951 . S
H808 C828 0.950 . S
H809 C829 0.950 . S
H810 C831 0.950 . S
H811 C834 0.950 . S
H812 C835 0.950 . S
H813 C837 0.950 . S
H814 C838 0.950 . S
H815 C839 0.951 . S
H816 C841 0.951 . S
H817 C843 0.950 . S
H818 C844 0.950 1_556 S
H819 C846 0.950 . S
H820 C849 0.950 . S
H821 C850 0.950 . S
H822 C852 0.950 . S
H823 C853 0.950 . S
C824 H806 0.951 . S
C824 C825 1.366 . S
C824 C826 1.388 . S
C825 C824 1.366 . S
C825 C829 1.385 1_655 S
C826 H807 0.951 . S
C826 C824 1.388 . S
C826 C827 1.366 . S
C827 C826 1.366 . S
C827 C828 1.414 1_655 S
C827 C830 1.499 . S
C828 H808 0.950 . S
C828 C827 1.414 1_455 S
C828 C829 1.374 . S
C829 H809 0.950 . S
C829 C825 1.385 1_455 S
C829 C828 1.374 . S
C830 C827 1.499 . S
C830 C831 1.373 1_655 S
C830 C832 1.389 . S
C831 H810 0.950 . S
C831 C830 1.373 1_455 S
C831 C847 1.377 . S
C832 C830 1.389 . S
C832 C833 1.524 . S
C832 C846 1.377 . S
C833 C832 1.524 . S
C833 C834 1.397 . S
C833 C838 1.363 . S
C834 H811 0.950 . S
C834 C833 1.397 . S
C834 C835 1.334 . S
C835 H812 0.950 . S
C835 C834 1.334 . S
C835 C836 1.287 . S
C836 C835 1.287 . S
C836 C837 1.524 . S
C836 H855 0.913 . S
C837 H813 0.950 . S
C837 C836 1.524 . S
C837 C838 1.415 . S
C838 H814 0.950 . S
C838 C833 1.363 . S
C838 C837 1.415 . S
C839 H815 0.951 . S
C839 C840 1.366 1_554 S
C839 C841 1.388 . S
C840 C839 1.366 1_556 S
C840 C844 1.385 1_456 S
C841 H816 0.951 . S
C841 C839 1.388 . S
C841 C842 1.366 . S
C842 C841 1.366 . S
C842 C843 1.414 1_455 S
C842 C845 1.499 . S
C843 H817 0.950 . S
C843 C842 1.414 1_655 S
C843 C844 1.374 . S
C844 H818 0.950 1_554 S
C844 C840 1.385 1_654 S
C844 C843 1.374 . S
C845 C842 1.499 . S
C845 C846 1.373 1_455 S
C845 C847 1.389 . S
C846 H819 0.950 . S
C846 C832 1.377 . S
C846 C845 1.373 1_655 S
C847 C831 1.377 . S
C847 C845 1.389 . S
C847 C848 1.524 . S
C848 C847 1.524 . S
C848 C849 1.397 . S
C848 C853 1.363 . S
C849 H820 0.950 . S
C849 C848 1.397 . S
C849 C850 1.334 . S
C850 H821 0.950 . S
C850 C849 1.334 . S
C850 C851 1.287 . S
C851 C850 1.287 . S
C851 C852 1.524 . S
C851 H854 0.999 . S
C852 H822 0.950 . S
C852 C851 1.524 . S
C852 C853 1.415 . S
C853 H823 0.950 . S
C853 C848 1.363 . S
C853 C852 1.415 . S
H854 C851 0.999 . S
H855 C836 0.913 . S
H856 C874 0.951 . S
H857 C876 0.951 . S
H858 C878 0.950 1_545 S
H859 C879 0.950 . S
H860 C881 0.950 . S
H861 C884 0.950 . S
H862 C885 0.950 . S
H863 C887 0.950 . S
H864 C888 0.950 . S
H865 C889 0.951 . S
H866 C891 0.951 . S
H867 C893 0.950 1_565 S
H868 C894 0.950 . S
H869 C896 0.950 . S
H870 C899 0.950 . S
H871 C900 0.950 . S
H872 C902 0.950 . S
H873 C903 0.950 . S
C874 H856 0.951 . S
C874 C875 1.366 . S
C874 C876 1.388 . S
C875 C874 1.366 . S
C875 C879 1.385 . S
C876 H857 0.951 . S
C876 C874 1.388 . S
C876 C877 1.366 . S
C877 C876 1.366 . S
C877 C878 1.414 . S
C877 C880 1.499 . S
C878 H858 0.950 1_565 S
C878 C877 1.414 . S
C878 C879 1.374 . S
C879 H859 0.950 . S
C879 C875 1.385 . S
C879 C878 1.374 . S
C880 C877 1.499 . S
C880 C881 1.373 . S
C880 C882 1.389 1_565 S
C881 H860 0.950 . S
C881 C880 1.373 . S
C881 C897 1.377 . S
C882 C880 1.389 1_545 S
C882 C883 1.524 . S
C882 C896 1.377 . S
C883 C882 1.524 . S
C883 C884 1.397 . S
C883 C888 1.363 . S
C884 H861 0.950 . S
C884 C883 1.397 . S
C884 C885 1.334 . S
C885 H862 0.950 . S
C885 C884 1.334 . S
C885 C886 1.287 . S
C886 C885 1.287 . S
C886 C887 1.524 . S
C886 H905 0.913 . S
C887 H863 0.950 . S
C887 C886 1.524 . S
C887 C888 1.415 . S
C888 H864 0.950 . S
C888 C883 1.363 . S
C888 C887 1.415 . S
C889 H865 0.951 . S
C889 C890 1.366 . S
C889 C891 1.388 . S
C890 C889 1.366 . S
C890 C894 1.385 . S
C891 H866 0.951 . S
C891 C889 1.388 . S
C891 C892 1.366 . S
C892 C891 1.366 . S
C892 C893 1.414 . S
C892 C895 1.499 . S
C893 H867 0.950 1_545 S
C893 C892 1.414 . S
C893 C894 1.374 . S
C894 H868 0.950 . S
C894 C890 1.385 . S
C894 C893 1.374 . S
C895 C892 1.499 . S
C895 C896 1.373 . S
C895 C897 1.389 1_545 S
C896 H869 0.950 . S
C896 C882 1.377 . S
C896 C895 1.373 . S
C897 C881 1.377 . S
C897 C895 1.389 1_565 S
C897 C898 1.524 . S
C898 C897 1.524 . S
C898 C899 1.397 . S
C898 C903 1.363 . S
C899 H870 0.950 . S
C899 C898 1.397 . S
C899 C900 1.334 . S
C900 H871 0.950 . S
C900 C899 1.334 . S
C900 C901 1.287 . S
C901 C900 1.287 . S
C901 C902 1.524 . S
C901 H904 0.999 . S
C902 H872 0.950 . S
C902 C901 1.524 . S
C902 C903 1.415 . S
C903 H873 0.950 . S
C903 C898 1.363 . S
C903 C902 1.415 . S
H904 C901 0.999 . S
H905 C886 0.913 . S
H906 C924 0.951 . S
H907 C926 0.951 . S
H908 C928 0.950 . S
H909 C929 0.950 . S
H910 C931 0.950 . S
H911 C934 0.950 . S
H912 C935 0.950 . S
H913 C937 0.950 . S
H914 C938 0.950 . S
H915 C939 0.951 1_554 S
H916 C941 0.951 . S
H917 C943 0.950 . S
H918 C944 0.950 . S
H919 C946 0.950 . S
H920 C949 0.950 . S
H921 C950 0.950 . S
H922 C952 0.950 . S
H923 C953 0.950 . S
C924 H906 0.951 . S
C924 C925 1.366 . S
C924 C926 1.388 . S
C925 C924 1.366 . S
C925 C929 1.385 . S
C926 H907 0.951 . S
C926 C924 1.388 . S
C926 C927 1.366 . S
C927 C926 1.366 . S
C927 C928 1.414 . S
C927 C930 1.499 . S
C928 H908 0.950 . S
C928 C927 1.414 . S
C928 C929 1.374 . S
C929 H909 0.950 . S
C929 C925 1.385 . S
C929 C928 1.374 . S
C930 C927 1.499 . S
C930 C931 1.373 . S
C930 C932 1.389 . S
C931 H910 0.950 . S
C931 C930 1.373 . S
C931 C947 1.377 . S
C932 C930 1.389 . S
C932 C933 1.524 . S
C932 C946 1.377 . S
C933 C932 1.524 . S
C933 C934 1.397 . S
C933 C938 1.363 . S
C934 H911 0.950 . S
C934 C933 1.397 . S
C934 C935 1.334 . S
C935 H912 0.950 . S
C935 C934 1.334 . S
C935 C936 1.287 . S
C936 C935 1.287 . S
C936 C937 1.524 . S
C936 H955 0.913 . S
C937 H913 0.950 . S
C937 C936 1.524 . S
C937 C938 1.415 . S
C938 H914 0.950 . S
C938 C933 1.363 . S
C938 C937 1.415 . S
C939 H915 0.951 1_556 S
C939 C940 1.366 1_556 S
C939 C941 1.388 . S
C940 C939 1.366 1_554 S
C940 C944 1.385 1_554 S
C941 H916 0.951 . S
C941 C939 1.388 . S
C941 C942 1.366 . S
C942 C941 1.366 . S
C942 C943 1.414 . S
C942 C945 1.499 . S
C943 H917 0.950 . S
C943 C942 1.414 . S
C943 C944 1.374 . S
C944 H918 0.950 . S
C944 C940 1.385 1_556 S
C944 C943 1.374 . S
C945 C942 1.499 . S
C945 C946 1.373 . S
C945 C947 1.389 . S
C946 H919 0.950 . S
C946 C932 1.377 . S
C946 C945 1.373 . S
C947 C931 1.377 . S
C947 C945 1.389 . S
C947 C948 1.524 . S
C948 C947 1.524 . S
C948 C949 1.397 . S
C948 C953 1.363 . S
C949 H920 0.950 . S
C949 C948 1.397 . S
C949 C950 1.334 . S
C950 H921 0.950 . S
C950 C949 1.334 . S
C950 C951 1.287 . S
C951 C950 1.287 . S
C951 C952 1.524 . S
C951 H954 0.999 . S
C952 H922 0.950 . S
C952 C951 1.524 . S
C952 C953 1.415 . S
C953 H923 0.950 . S
C953 C948 1.363 . S
C953 C952 1.415 . S
H954 C951 0.999 . S
H955 C936 0.913 . S
H956 C974 0.951 . S
H957 C976 0.951 . S
H958 C978 0.950 . S
H959 C979 0.950 . S
H960 C981 0.950 . S
H961 C984 0.996 . S
H962 C985 0.950 . S
H963 C987 0.950 . S
H964 C988 0.950 . S
H965 C989 0.951 1_556 S
H966 C991 0.951 . S
H967 C993 0.950 . S
H968 C994 0.950 . S
H969 C996 0.950 . S
H970 C999 0.995 . S
H971 C1000 0.950 . S
H972 C1002 0.950 . S
H973 C1003 0.950 . S
C974 H956 0.951 . S
C974 C975 1.366 1_655 S
C974 C976 1.388 . S
C975 C974 1.366 1_455 S
C975 C979 1.385 . S
C976 H957 0.951 . S
C976 C974 1.388 . S
C976 C977 1.366 1_655 S
C977 C976 1.366 1_455 S
C977 C978 1.414 . S
C977 C980 1.499 . S
C978 H958 0.950 . S
C978 C977 1.414 . S
C978 C979 1.374 . S
C979 H959 0.950 . S
C979 C975 1.385 . S
C979 C978 1.374 . S
C980 C977 1.499 . S
C980 C981 1.373 . S
C980 C982 1.389 1_455 S
C981 H960 0.950 . S
C981 C980 1.373 . S
C981 C997 1.377 . S
C982 C980 1.389 1_655 S
C982 C983 1.524 . S
C982 C996 1.377 . S
C983 C982 1.524 . S
C983 C984 1.397 . S
C983 C988 1.363 . S
C984 H961 0.996 . S
C984 C983 1.397 . S
C984 C985 1.334 . S
C985 H962 0.950 . S
C985 C984 1.334 . S
C985 C986 1.287 . S
C986 C985 1.287 . S
C986 C987 1.524 . S
C986 H1005 0.913 . S
C987 H963 0.950 . S
C987 C986 1.524 . S
C987 C988 1.415 . S
C988 H964 0.950 . S
C988 C983 1.363 . S
C988 C987 1.415 . S
C989 H965 0.951 1_554 S
C989 C990 1.366 1_454 S
C989 C991 1.388 . S
C990 C989 1.366 1_656 S
C990 C994 1.385 1_556 S
C991 H966 0.951 . S
C991 C989 1.388 . S
C991 C992 1.366 1_455 S
C992 C991 1.366 1_655 S
C992 C993 1.414 . S
C992 C995 1.499 . S
C993 H967 0.950 . S
C993 C992 1.414 . S
C993 C994 1.374 . S
C994 H968 0.950 . S
C994 C990 1.385 1_554 S
C994 C993 1.374 . S
C995 C992 1.499 . S
C995 C996 1.373 . S
C995 C997 1.389 1_655 S
C996 H969 0.950 . S
C996 C982 1.377 . S
C996 C995 1.373 . S
C997 C981 1.377 . S
C997 C995 1.389 1_455 S
C997 C998 1.524 . S
C998 C997 1.524 . S
C998 C999 1.397 . S
C998 C1003 1.363 . S
C999 H970 0.995 . S
C999 C998 1.397 . S
C999 C1000 1.334 . S
C1000 H971 0.950 . S
C1000 C999 1.334 . S
C1000 C1001 1.287 . S
C1001 C1000 1.287 . S
C1001 C1002 1.524 . S
C1001 H1004 0.999 . S
C1002 H972 0.950 . S
C1002 C1001 1.524 . S
C1002 C1003 1.415 . S
C1003 H973 0.950 . S
C1003 C998 1.363 . S
C1003 C1002 1.415 . S
H1004 C1001 0.999 . S
H1005 C986 0.913 . S
H1006 C1024 0.951 . S
H1007 C1026 0.951 . S
H1008 C1028 0.950 . S
H1009 C1029 0.950 . S
H1010 C1031 0.950 . S
H1011 C1034 0.950 . S
H1012 C1035 0.950 . S
H1013 C1037 0.950 . S
H1014 C1038 0.950 . S
H1015 C1039 0.951 . S
H1016 C1041 0.951 . S
H1017 C1043 0.950 . S
H1018 C1044 0.950 . S
H1019 C1046 0.950 . S
H1020 C1049 0.950 . S
H1021 C1050 0.950 . S
H1022 C1052 0.950 . S
H1023 C1053 0.950 . S
C1024 H1006 0.951 . S
C1024 C1025 1.366 1_545 S
C1024 C1026 1.388 . S
C1025 C1024 1.366 1_565 S
C1025 C1029 1.385 . S
C1026 H1007 0.951 . S
C1026 C1024 1.388 . S
C1026 C1027 1.366 1_545 S
C1027 C1026 1.366 1_565 S
C1027 C1028 1.414 . S
C1027 C1030 1.499 . S
C1028 H1008 0.950 . S
C1028 C1027 1.414 . S
C1028 C1029 1.374 . S
C1029 H1009 0.950 . S
C1029 C1025 1.385 . S
C1029 C1028 1.374 . S
C1030 C1027 1.499 . S
C1030 C1031 1.373 . S
C1030 C1032 1.389 1_565 S
C1031 H1010 0.950 . S
C1031 C1030 1.373 . S
C1031 C1047 1.377 . S
C1032 C1030 1.389 1_545 S
C1032 C1033 1.524 . S
C1032 C1046 1.377 . S
C1033 C1032 1.524 . S
C1033 C1034 1.397 1_545 S
C1033 C1038 1.363 . S
C1034 H1011 0.950 . S
C1034 C1033 1.397 1_565 S
C1034 C1035 1.334 . S
C1035 H1012 0.950 . S
C1035 C1034 1.334 . S
C1035 C1036 1.287 1_565 S
C1036 C1035 1.287 1_545 S
C1036 C1037 1.524 . S
C1036 H1055 0.913 . S
C1037 H1013 0.950 . S
C1037 C1036 1.524 . S
C1037 C1038 1.415 . S
C1038 H1014 0.950 . S
C1038 C1033 1.363 . S
C1038 C1037 1.415 . S
C1039 H1015 0.951 . S
C1039 C1040 1.366 1_565 S
C1039 C1041 1.388 . S
C1040 C1039 1.366 1_545 S
C1040 C1044 1.385 . S
C1041 H1016 0.951 . S
C1041 C1039 1.388 . S
C1041 C1042 1.366 1_565 S
C1042 C1041 1.366 1_545 S
C1042 C1043 1.414 . S
C1042 C1045 1.499 . S
C1043 H1017 0.950 . S
C1043 C1042 1.414 . S
C1043 C1044 1.374 . S
C1044 H1018 0.950 . S
C1044 C1040 1.385 . S
C1044 C1043 1.374 . S
C1045 C1042 1.499 . S
C1045 C1046 1.373 . S
C1045 C1047 1.389 1_545 S
C1046 H1019 0.950 . S
C1046 C1032 1.377 . S
C1046 C1045 1.373 . S
C1047 C1031 1.377 . S
C1047 C1045 1.389 1_565 S
C1047 C1048 1.524 . S
C1048 C1047 1.524 . S
C1048 C1049 1.397 1_565 S
C1048 C1053 1.363 . S
C1049 H1020 0.950 . S
C1049 C1048 1.397 1_545 S
C1049 C1050 1.334 . S
C1050 H1021 0.950 . S
C1050 C1049 1.334 . S
C1050 C1051 1.287 1_545 S
C1051 C1050 1.287 1_565 S
C1051 C1052 1.524 . S
C1051 H1054 0.999 . S
C1052 H1022 0.950 . S
C1052 C1051 1.524 . S
C1052 C1053 1.415 . S
C1053 H1023 0.950 . S
C1053 C1048 1.363 . S
C1053 C1052 1.415 . S
H1054 C1051 0.999 . S
H1055 C1036 0.913 . S
H1056 C1074 0.951 . S
H1057 C1076 0.951 . S
H1058 C1078 0.950 . S
H1059 C1079 0.950 . S
H1060 C1081 0.950 . S
H1061 C1084 0.950 . S
H1062 C1085 0.950 . S
H1063 C1087 0.950 . S
H1064 C1088 0.950 . S
H1065 C1089 0.951 . S
H1066 C1091 0.951 . S
H1067 C1093 0.950 . S
H1068 C1094 0.950 . S
H1069 C1096 0.950 . S
H1070 C1099 0.950 . S
H1071 C1100 0.950 . S
H1072 C1102 0.950 . S
H1073 C1103 0.950 . S
C1074 H1056 0.951 . S
C1074 C1075 1.366 . S
C1074 C1076 1.388 . S
C1075 C1074 1.366 . S
C1075 C1079 1.385 . S
C1076 H1057 0.951 . S
C1076 C1074 1.388 . S
C1076 C1077 1.366 . S
C1077 C1076 1.366 . S
C1077 C1078 1.414 . S
C1077 C1080 1.499 . S
C1078 H1058 0.950 . S
C1078 C1077 1.414 . S
C1078 C1079 1.374 . S
C1079 H1059 0.950 . S
C1079 C1075 1.385 . S
C1079 C1078 1.374 . S
C1080 C1077 1.499 . S
C1080 C1081 1.373 . S
C1080 C1082 1.389 . S
C1081 H1060 0.950 . S
C1081 C1080 1.373 . S
C1081 C1097 1.377 . S
C1082 C1080 1.389 . S
C1082 C1083 1.524 . S
C1082 C1096 1.377 . S
C1083 C1082 1.524 . S
C1083 C1084 1.397 . S
C1083 C1088 1.363 . S
C1084 H1061 0.950 . S
C1084 C1083 1.397 . S
C1084 C1085 1.334 . S
C1085 H1062 0.950 . S
C1085 C1084 1.334 . S
C1085 C1086 1.287 . S
C1086 C1085 1.287 . S
C1086 C1087 1.524 . S
C1086 H1105 0.913 . S
C1087 H1063 0.950 . S
C1087 C1086 1.524 . S
C1087 C1088 1.415 . S
C1088 H1064 0.950 . S
C1088 C1083 1.363 . S
C1088 C1087 1.415 . S
C1089 H1065 0.951 . S
C1089 C1090 1.366 . S
C1089 C1091 1.388 . S
C1090 C1089 1.366 . S
C1090 C1094 1.385 . S
C1091 H1066 0.951 . S
C1091 C1089 1.388 . S
C1091 C1092 1.366 . S
C1092 C1091 1.366 . S
C1092 C1093 1.414 . S
C1092 C1095 1.499 . S
C1093 H1067 0.950 . S
C1093 C1092 1.414 . S
C1093 C1094 1.374 . S
C1094 H1068 0.950 . S
C1094 C1090 1.385 . S
C1094 C1093 1.374 . S
C1095 C1092 1.499 . S
C1095 C1096 1.373 . S
C1095 C1097 1.389 . S
C1096 H1069 0.950 . S
C1096 C1082 1.377 . S
C1096 C1095 1.373 . S
C1097 C1081 1.377 . S
C1097 C1095 1.389 . S
C1097 C1098 1.524 1_554 S
C1098 C1097 1.524 1_556 S
C1098 C1099 1.397 . S
C1098 C1103 1.363 . S
C1099 H1070 0.950 . S
C1099 C1098 1.397 . S
C1099 C1100 1.334 . S
C1100 H1071 0.950 . S
C1100 C1099 1.334 . S
C1100 C1101 1.287 . S
C1101 C1100 1.287 . S
C1101 C1102 1.524 . S
C1101 H1104 0.999 . S
C1102 H1072 0.950 . S
C1102 C1101 1.524 . S
C1102 C1103 1.415 . S
C1103 H1073 0.950 . S
C1103 C1098 1.363 . S
C1103 C1102 1.415 . S
H1104 C1101 0.999 . S
H1105 C1086 0.913 . S
H1106 C1124 0.951 . S
H1107 C1126 0.951 . S
H1108 C1128 0.950 1_655 S
H1109 C1129 0.950 . S
H1110 C1131 0.950 . S
H1111 C1134 0.950 . S
H1112 C1135 0.950 . S
H1113 C1137 0.950 . S
H1114 C1138 0.950 . S
H1115 C1139 0.951 . S
H1116 C1141 0.951 . S
H1117 C1143 0.950 1_455 S
H1118 C1144 0.950 . S
H1119 C1146 0.950 . S
H1120 C1149 0.950 . S
H1121 C1150 0.950 . S
H1122 C1152 0.950 . S
H1123 C1153 0.950 . S
C1124 H1106 0.951 . S
C1124 C1125 1.366 . S
C1124 C1126 1.388 . S
C1125 C1124 1.366 . S
C1125 C1129 1.385 . S
C1126 H1107 0.951 . S
C1126 C1124 1.388 . S
C1126 C1127 1.366 . S
C1127 C1126 1.366 . S
C1127 C1128 1.414 . S
C1127 C1130 1.499 . S
C1128 H1108 0.950 1_455 S
C1128 C1127 1.414 . S
C1128 C1129 1.374 . S
C1129 H1109 0.950 . S
C1129 C1125 1.385 . S
C1129 C1128 1.374 . S
C1130 C1127 1.499 . S
C1130 C1131 1.373 1_455 S
C1130 C1132 1.389 . S
C1131 H1110 0.950 . S
C1131 C1130 1.373 1_655 S
C1131 C1147 1.377 . S
C1132 C1130 1.389 . S
C1132 C1133 1.524 . S
C1132 C1146 1.377 . S
C1133 C1132 1.524 . S
C1133 C1134 1.397 . S
C1133 C1138 1.363 . S
C1134 H1111 0.950 . S
C1134 C1133 1.397 . S
C1134 C1135 1.334 . S
C1135 H1112 0.950 . S
C1135 C1134 1.334 . S
C1135 C1136 1.287 . S
C1136 C1135 1.287 . S
C1136 C1137 1.524 . S
C1136 H1155 0.913 . S
C1137 H1113 0.950 . S
C1137 C1136 1.524 . S
C1137 C1138 1.415 . S
C1138 H1114 0.950 . S
C1138 C1133 1.363 . S
C1138 C1137 1.415 . S
C1139 H1115 0.951 . S
C1139 C1140 1.366 . S
C1139 C1141 1.388 . S
C1140 C1139 1.366 . S
C1140 C1144 1.385 . S
C1141 H1116 0.951 . S
C1141 C1139 1.388 . S
C1141 C1142 1.366 . S
C1142 C1141 1.366 . S
C1142 C1143 1.414 . S
C1142 C1145 1.499 . S
C1143 H1117 0.950 1_655 S
C1143 C1142 1.414 . S
C1143 C1144 1.374 . S
C1144 H1118 0.950 . S
C1144 C1140 1.385 . S
C1144 C1143 1.374 . S
C1145 C1142 1.499 . S
C1145 C1146 1.373 1_655 S
C1145 C1147 1.389 . S
C1146 H1119 0.950 . S
C1146 C1132 1.377 . S
C1146 C1145 1.373 1_455 S
C1147 C1131 1.377 . S
C1147 C1145 1.389 . S
C1147 C1148 1.524 . S
C1148 C1147 1.524 . S
C1148 C1149 1.397 . S
C1148 C1153 1.363 . S
C1149 H1120 0.950 . S
C1149 C1148 1.397 . S
C1149 C1150 1.334 . S
C1150 H1121 0.950 . S
C1150 C1149 1.334 . S
C1150 C1151 1.287 . S
C1151 C1150 1.287 . S
C1151 C1152 1.524 . S
C1151 H1154 0.999 . S
C1152 H1122 0.950 . S
C1152 C1151 1.524 . S
C1152 C1153 1.415 . S
C1153 H1123 0.950 . S
C1153 C1148 1.363 . S
C1153 C1152 1.415 . S
H1154 C1151 0.999 . S
H1155 C1136 0.913 . S
H1156 C1174 0.951 . S
H1157 C1176 0.951 1_545 S
H1158 C1178 0.950 . S
H1159 C1179 0.950 . S
H1160 C1181 0.950 . S
H1161 C1184 0.950 . S
H1162 C1185 0.950 . S
H1163 C1187 0.950 . S
H1164 C1188 0.950 . S
H1165 C1189 0.951 . S
H1166 C1191 0.951 1_565 S
H1167 C1193 0.950 . S
H1168 C1194 0.950 . S
H1169 C1196 0.950 . S
H1170 C1199 0.950 . S
H1171 C1200 0.950 . S
H1172 C1202 0.950 . S
H1173 C1203 0.950 . S
C1174 H1156 0.951 . S
C1174 C1175 1.366 . S
C1174 C1176 1.388 . S
C1175 C1174 1.366 . S
C1175 C1179 1.385 . S
C1176 H1157 0.951 1_565 S
C1176 C1174 1.388 . S
C1176 C1177 1.366 . S
C1177 C1176 1.366 . S
C1177 C1178 1.414 . S
C1177 C1180 1.499 . S
C1178 H1158 0.950 . S
C1178 C1177 1.414 . S
C1178 C1179 1.374 . S
C1179 H1159 0.950 . S
C1179 C1175 1.385 . S
C1179 C1178 1.374 . S
C1180 C1177 1.499 . S
C1180 C1181 1.373 . S
C1180 C1182 1.389 1_565 S
C1181 H1160 0.950 . S
C1181 C1180 1.373 . S
C1181 C1197 1.377 . S
C1182 C1180 1.389 1_545 S
C1182 C1183 1.524 . S
C1182 C1196 1.377 . S
C1183 C1182 1.524 . S
C1183 C1184 1.397 1_545 S
C1183 C1188 1.363 . S
C1184 H1161 0.950 . S
C1184 C1183 1.397 1_565 S
C1184 C1185 1.334 . S
C1185 H1162 0.950 . S
C1185 C1184 1.334 . S
C1185 C1186 1.287 1_565 S
C1186 C1185 1.287 1_545 S
C1186 C1187 1.524 . S
C1186 H1205 0.913 . S
C1187 H1163 0.950 . S
C1187 C1186 1.524 . S
C1187 C1188 1.415 . S
C1188 H1164 0.950 . S
C1188 C1183 1.363 . S
C1188 C1187 1.415 . S
C1189 H1165 0.951 . S
C1189 C1190 1.366 . S
C1189 C1191 1.388 . S
C1190 C1189 1.366 . S
C1190 C1194 1.385 . S
C1191 H1166 0.951 1_545 S
C1191 C1189 1.388 . S
C1191 C1192 1.366 . S
C1192 C1191 1.366 . S
C1192 C1193 1.414 . S
C1192 C1195 1.499 . S
C1193 H1167 0.950 . S
C1193 C1192 1.414 . S
C1193 C1194 1.374 . S
C1194 H1168 0.950 . S
C1194 C1190 1.385 . S
C1194 C1193 1.374 . S
C1195 C1192 1.499 . S
C1195 C1196 1.373 . S
C1195 C1197 1.389 1_545 S
C1196 H1169 0.950 . S
C1196 C1182 1.377 . S
C1196 C1195 1.373 . S
C1197 C1181 1.377 . S
C1197 C1195 1.389 1_565 S
C1197 C1198 1.524 . S
C1198 C1197 1.524 . S
C1198 C1199 1.397 1_565 S
C1198 C1203 1.363 . S
C1199 H1170 0.950 . S
C1199 C1198 1.397 1_545 S
C1199 C1200 1.334 . S
C1200 H1171 0.950 . S
C1200 C1199 1.334 . S
C1200 C1201 1.287 1_545 S
C1201 C1200 1.287 1_565 S
C1201 C1202 1.524 . S
C1201 H1204 0.999 . S
C1202 H1172 0.950 . S
C1202 C1201 1.524 . S
C1202 C1203 1.415 . S
C1203 H1173 0.950 . S
C1203 C1198 1.363 . S
C1203 C1202 1.415 . S
H1204 C1201 0.999 . S
H1205 C1186 0.913 . S
H1206 C1224 0.951 . S
H1207 C1226 0.951 . S
H1208 C1228 0.950 . S
H1209 C1229 0.950 . S
H1210 C1231 0.950 . S
H1211 C1234 0.950 . S
H1212 C1235 0.950 . S
H1213 C1237 0.950 . S
H1214 C1238 0.950 . S
H1215 C1239 0.951 . S
H1216 C1241 0.951 . S
H1217 C1243 0.950 . S
H1218 C1244 0.950 . S
H1219 C1246 0.950 . S
H1220 C1249 0.950 . S
H1221 C1250 0.950 . S
H1222 C1252 0.950 . S
H1223 C1253 0.950 . S
C1224 H1206 0.951 . S
C1224 C1225 1.366 . S
C1224 C1226 1.388 . S
C1225 C1224 1.366 . S
C1225 C1229 1.385 . S
C1226 H1207 0.951 . S
C1226 C1224 1.388 . S
C1226 C1227 1.366 . S
C1227 C1226 1.366 . S
C1227 C1228 1.414 . S
C1227 C1230 1.499 . S
C1228 H1208 0.950 . S
C1228 C1227 1.414 . S
C1228 C1229 1.374 . S
C1229 H1209 0.950 . S
C1229 C1225 1.385 . S
C1229 C1228 1.374 . S
C1230 C1227 1.499 . S
C1230 C1231 1.373 . S
C1230 C1232 1.389 . S
C1231 H1210 0.950 . S
C1231 C1230 1.373 . S
C1231 C1247 1.377 . S
C1232 C1230 1.389 . S
C1232 C1233 1.524 . S
C1232 C1246 1.377 . S
C1233 C1232 1.524 . S
C1233 C1234 1.397 . S
C1233 C1238 1.363 . S
C1234 H1211 0.950 . S
C1234 C1233 1.397 . S
C1234 C1235 1.334 . S
C1235 H1212 0.950 . S
C1235 C1234 1.334 . S
C1235 C1236 1.287 . S
C1236 C1235 1.287 . S
C1236 C1237 1.524 . S
C1236 H1255 0.913 . S
C1237 H1213 0.950 . S
C1237 C1236 1.524 . S
C1237 C1238 1.415 . S
C1238 H1214 0.950 . S
C1238 C1233 1.363 . S
C1238 C1237 1.415 . S
C1239 H1215 0.951 . S
C1239 C1240 1.366 . S
C1239 C1241 1.388 . S
C1240 C1239 1.366 . S
C1240 C1244 1.385 . S
C1241 H1216 0.951 . S
C1241 C1239 1.388 . S
C1241 C1242 1.366 . S
C1242 C1241 1.366 . S
C1242 C1243 1.414 . S
C1242 C1245 1.499 . S
C1243 H1217 0.950 . S
C1243 C1242 1.414 . S
C1243 C1244 1.374 . S
C1244 H1218 0.950 . S
C1244 C1240 1.385 . S
C1244 C1243 1.374 . S
C1245 C1242 1.499 . S
C1245 C1246 1.373 . S
C1245 C1247 1.389 . S
C1246 H1219 0.950 . S
C1246 C1232 1.377 . S
C1246 C1245 1.373 . S
C1247 C1231 1.377 . S
C1247 C1245 1.389 . S
C1247 C1248 1.524 . S
C1248 C1247 1.524 . S
C1248 C1249 1.397 . S
C1248 C1253 1.363 . S
C1249 H1220 0.950 . S
C1249 C1248 1.397 . S
C1249 C1250 1.334 . S
C1250 H1221 0.950 . S
C1250 C1249 1.334 . S
C1250 C1251 1.287 . S
C1251 C1250 1.287 . S
C1251 C1252 1.524 . S
C1251 H1254 0.999 . S
C1252 H1222 0.950 . S
C1252 C1251 1.524 . S
C1252 C1253 1.415 . S
C1253 H1223 0.950 . S
C1253 C1248 1.363 . S
C1253 C1252 1.415 . S
H1254 C1251 0.999 . S
H1255 C1236 0.913 . S
H1256 C1274 0.951 . S
H1257 C1276 0.951 . S
H1258 C1278 0.950 1_455 S
H1259 C1279 0.950 . S
H1260 C1281 0.950 . S
H1261 C1284 0.950 . S
H1262 C1285 0.950 . S
H1263 C1287 0.950 . S
H1264 C1288 0.950 . S
H1265 C1289 0.951 . S
H1266 C1291 0.951 . S
H1267 C1293 0.950 1_655 S
H1268 C1294 0.950 . S
H1269 C1296 0.950 . S
H1270 C1299 0.950 . S
H1271 C1300 0.950 . S
H1272 C1302 0.950 . S
H1273 C1303 0.950 . S
C1274 H1256 0.951 . S
C1274 C1275 1.366 . S
C1274 C1276 1.388 . S
C1275 C1274 1.366 . S
C1275 C1279 1.385 . S
C1276 H1257 0.951 . S
C1276 C1274 1.388 . S
C1276 C1277 1.366 . S
C1277 C1276 1.366 . S
C1277 C1278 1.414 . S
C1277 C1280 1.499 . S
C1278 H1258 0.950 1_655 S
C1278 C1277 1.414 . S
C1278 C1279 1.374 . S
C1279 H1259 0.950 . S
C1279 C1275 1.385 . S
C1279 C1278 1.374 . S
C1280 C1277 1.499 . S
C1280 C1281 1.373 1_655 S
C1280 C1282 1.389 . S
C1281 H1260 0.950 . S
C1281 C1280 1.373 1_455 S
C1281 C1297 1.377 . S
C1282 C1280 1.389 . S
C1282 C1283 1.524 . S
C1282 C1296 1.377 . S
C1283 C1282 1.524 . S
C1283 C1284 1.397 1_556 S
C1283 C1288 1.363 . S
C1284 H1261 0.950 . S
C1284 C1283 1.397 1_554 S
C1284 C1285 1.334 . S
C1285 H1262 0.950 . S
C1285 C1284 1.334 . S
C1285 C1286 1.287 . S
C1286 C1285 1.287 . S
C1286 C1287 1.524 . S
C1286 H1305 0.913 . S
C1287 H1263 0.950 . S
C1287 C1286 1.524 . S
C1287 C1288 1.415 1_554 S
C1288 H1264 0.950 . S
C1288 C1283 1.363 . S
C1288 C1287 1.415 1_556 S
C1289 H1265 0.951 . S
C1289 C1290 1.366 . S
C1289 C1291 1.388 . S
C1290 C1289 1.366 . S
C1290 C1294 1.385 . S
C1291 H1266 0.951 . S
C1291 C1289 1.388 . S
C1291 C1292 1.366 . S
C1292 C1291 1.366 . S
C1292 C1293 1.414 . S
C1292 C1295 1.499 . S
C1293 H1267 0.950 1_455 S
C1293 C1292 1.414 . S
C1293 C1294 1.374 . S
C1294 H1268 0.950 . S
C1294 C1290 1.385 . S
C1294 C1293 1.374 . S
C1295 C1292 1.499 . S
C1295 C1296 1.373 1_455 S
C1295 C1297 1.389 . S
C1296 H1269 0.950 . S
C1296 C1282 1.377 . S
C1296 C1295 1.373 1_655 S
C1297 C1281 1.377 . S
C1297 C1295 1.389 . S
C1297 C1298 1.524 . S
C1298 C1297 1.524 . S
C1298 C1299 1.397 . S
C1298 C1303 1.363 . S
C1299 H1270 0.950 . S
C1299 C1298 1.397 . S
C1299 C1300 1.334 . S
C1300 H1271 0.950 . S
C1300 C1299 1.334 . S
C1300 C1301 1.287 . S
C1301 C1300 1.287 . S
C1301 C1302 1.524 . S
C1301 H1304 0.999 . S
C1302 H1272 0.950 . S
C1302 C1301 1.524 . S
C1302 C1303 1.415 . S
C1303 H1273 0.950 . S
C1303 C1298 1.363 . S
C1303 C1302 1.415 . S
H1304 C1301 0.999 . S
H1305 C1286 0.913 . S
H1306 C1324 0.951 . S
H1307 C1326 0.951 1_565 S
H1308 C1328 0.950 . S
H1309 C1329 0.950 . S
H1310 C1331 0.950 . S
H1311 C1334 0.950 . S
H1312 C1335 0.950 . S
H1313 C1337 0.950 . S
H1314 C1338 0.950 . S
H1315 C1339 0.951 . S
H1316 C1341 0.951 1_545 S
H1317 C1343 0.950 . S
H1318 C1344 0.950 . S
H1319 C1346 0.950 . S
H1320 C1349 0.950 . S
H1321 C1350 0.950 . S
H1322 C1352 0.950 . S
H1323 C1353 0.950 . S
C1324 H1306 0.951 . S
C1324 C1325 1.366 . S
C1324 C1326 1.388 . S
C1325 C1324 1.366 . S
C1325 C1329 1.385 . S
C1326 H1307 0.951 1_545 S
C1326 C1324 1.388 . S
C1326 C1327 1.366 . S
C1327 C1326 1.366 . S
C1327 C1328 1.414 . S
C1327 C1330 1.499 . S
C1328 H1308 0.950 . S
C1328 C1327 1.414 . S
C1328 C1329 1.374 . S
C1329 H1309 0.950 . S
C1329 C1325 1.385 . S
C1329 C1328 1.374 . S
C1330 C1327 1.499 . S
C1330 C1331 1.373 . S
C1330 C1332 1.389 1_545 S
C1331 H1310 0.950 . S
C1331 C1330 1.373 . S
C1331 C1347 1.376 . S
C1332 C1330 1.389 1_565 S
C1332 C1333 1.530 1_565 S
C1332 C1346 1.376 . S
C1333 C1332 1.530 1_545 S
C1333 C1334 1.413 . S
C1333 C1338 1.344 1_545 S
C1334 H1311 0.950 . S
C1334 C1333 1.413 . S
C1334 C1335 1.334 . S
C1335 H1312 0.950 . S
C1335 C1334 1.334 . S
C1335 C1336 1.287 . S
C1336 C1335 1.287 . S
C1336 C1337 1.524 1_545 S
C1336 H1355 0.913 . S
C1337 H1313 0.950 . S
C1337 C1336 1.524 1_565 S
C1337 C1338 1.415 . S
C1338 H1314 0.950 . S
C1338 C1333 1.344 1_565 S
C1338 C1337 1.415 . S
C1339 H1315 0.951 . S
C1339 C1340 1.366 . S
C1339 C1341 1.388 . S
C1340 C1339 1.366 . S
C1340 C1344 1.385 . S
C1341 H1316 0.951 1_565 S
C1341 C1339 1.388 . S
C1341 C1342 1.366 . S
C1342 C1341 1.366 . S
C1342 C1343 1.414 . S
C1342 C1345 1.499 . S
C1343 H1317 0.950 . S
C1343 C1342 1.414 . S
C1343 C1344 1.374 . S
C1344 H1318 0.950 . S
C1344 C1340 1.385 . S
C1344 C1343 1.374 . S
C1345 C1342 1.499 . S
C1345 C1346 1.373 . S
C1345 C1347 1.389 1_565 S
C1346 H1319 0.950 . S
C1346 C1332 1.376 . S
C1346 C1345 1.373 . S
C1347 C1331 1.376 . S
C1347 C1345 1.389 1_545 S
C1347 C1348 1.530 1_545 S
C1348 C1347 1.530 1_565 S
C1348 C1349 1.413 . S
C1348 C1353 1.344 1_565 S
C1349 H1320 0.950 . S
C1349 C1348 1.413 . S
C1349 C1350 1.334 . S
C1350 H1321 0.950 . S
C1350 C1349 1.334 . S
C1350 C1351 1.287 . S
C1351 C1350 1.287 . S
C1351 C1352 1.524 1_565 S
C1351 H1354 0.999 . S
C1352 H1322 0.950 . S
C1352 C1351 1.524 1_545 S
C1352 C1353 1.415 . S
C1353 H1323 0.950 . S
C1353 C1348 1.344 1_545 S
C1353 C1352 1.415 . S
H1354 C1351 0.999 . S
H1355 C1336 0.913 . S
C175 C10 1.221 . S
C190 C127 1.221 . S
C225 C23 1.221 . S
C240 C140 1.221 . S
C275 C36 1.221 . S
C290 C153 1.221 . S
C325 C49 1.221 . S
C340 C88 1.221 . S
C375 C101 1.221 . S
C390 C62 1.221 . S
C425 C114 1.221 . S
C440 C75 1.221 . S
C475 C130 1.296 . S
C490 C0 1.297 . S
C525 C13 1.297 . S
C540 C143 1.297 . S
C575 C26 1.296 . S
C590 C78 1.297 . S
C625 C39 1.297 . S
C640 C91 1.296 . S
C675 C52 1.297 . S
C690 C104 1.297 . S
C725 C65 1.297 . S
C740 C117 1.297 . S
C775 C125 0.518 . S
C790 C8 0.521 . S
C825 C21 0.518 . S
C840 C138 0.521 . S
C875 C34 0.517 . S
C890 C151 0.519 . S
C925 C86 0.521 . S
C940 C47 0.517 . S
C975 C60 0.520 . S
C990 C99 0.517 . S
C1025 C112 0.521 . S
C1040 C73 0.517 . S
C1075 C5 1.306 . S
C1090 C44 1.305 . S
C1125 C57 1.305 . S
C1140 C18 1.305 . S
C1175 C31 1.306 . S
C1190 C70 1.306 . S
C1225 C83 1.307 . S
C1240 C122 1.306 . S
C1275 C96 1.305 . S
C1290 C135 1.306 . S
C1325 C148 1.306 . S
C1340 C109 1.305 . S
