# Generated by pormake.
# Topology uod, (4)-cn, num edge types: 1
# Building blocks:
#     Node 0, Type 0, BuildingBlock: QUQFOY_clean_sbu_1, # of connection points: 4
#     Node 1, Type 0, BuildingBlock: QUQFOY_clean_sbu_1, # of connection points: 4
#     Node 2, Type 0, BuildingBlock: QUQFOY_clean_sbu_1, # of connection points: 4
#     Node 3, Type 0, BuildingBlock: QUQFOY_clean_sbu_1, # of connection points: 4
#     Node 4, Type 0, BuildingBlock: QUQFOY_clean_sbu_1, # of connection points: 4
#     Node 5, Type 0, BuildingBlock: QUQFOY_clean_sbu_1, # of connection points: 4
#     Node 6, Type 0, BuildingBlock: QUQFOY_clean_sbu_1, # of connection points: 4
#     Node 7, Type 0, BuildingBlock: QUQFOY_clean_sbu_1, # of connection points: 4
#     Node 8, Type 0, BuildingBlock: QUQFOY_clean_sbu_1, # of connection points: 4
#     Node 9, Type 0, BuildingBlock: QUQFOY_clean_sbu_1, # of connection points: 4
#     Node 10, Type 0, BuildingBlock: QUQFOY_clean_sbu_1, # of connection points: 4
#     Node 11, Type 0, BuildingBlock: QUQFOY_clean_sbu_1, # of connection points: 4
#     Node 12, Type 0, BuildingBlock: QUQFOY_clean_sbu_1, # of connection points: 4
#     Node 13, Type 0, BuildingBlock: QUQFOY_clean_sbu_1, # of connection points: 4
#     Node 14, Type 0, BuildingBlock: QUQFOY_clean_sbu_1, # of connection points: 4
#     Node 15, Type 0, BuildingBlock: QUQFOY_clean_sbu_1, # of connection points: 4
#     Node 16, Type 0, BuildingBlock: QUQFOY_clean_sbu_1, # of connection points: 4
#     Node 17, Type 0, BuildingBlock: QUQFOY_clean_sbu_1, # of connection points: 4
#     Node 18, Type 0, BuildingBlock: QUQFOY_clean_sbu_1, # of connection points: 4
#     Node 19, Type 0, BuildingBlock: QUQFOY_clean_sbu_1, # of connection points: 4
#     Node 20, Type 0, BuildingBlock: QUQFOY_clean_sbu_1, # of connection points: 4
#     Node 21, Type 0, BuildingBlock: QUQFOY_clean_sbu_1, # of connection points: 4
#     Node 22, Type 0, BuildingBlock: QUQFOY_clean_sbu_1, # of connection points: 4
#     Node 23, Type 0, BuildingBlock: QUQFOY_clean_sbu_1, # of connection points: 4
#     Node 24, Type 0, BuildingBlock: QUQFOY_clean_sbu_1, # of connection points: 4
#     Node 25, Type 0, BuildingBlock: QUQFOY_clean_sbu_1, # of connection points: 4
#     Node 26, Type 0, BuildingBlock: QUQFOY_clean_sbu_1, # of connection points: 4
#     Node 27, Type 0, BuildingBlock: QUQFOY_clean_sbu_1, # of connection points: 4
#     Node 28, Type 0, BuildingBlock: QUQFOY_clean_sbu_1, # of connection points: 4
#     Node 29, Type 0, BuildingBlock: QUQFOY_clean_sbu_1, # of connection points: 4
#     Node 30, Type 0, BuildingBlock: QUQFOY_clean_sbu_1, # of connection points: 4
#     Node 31, Type 0, BuildingBlock: QUQFOY_clean_sbu_1, # of connection points: 4
#     Edge 32, Type (0, 0), BuildingBlock: OJICUG_clean_linker_0, # of connection points: 2
#     Edge 33, Type (0, 0), BuildingBlock: OJICUG_clean_linker_0, # of connection points: 2
#     Edge 34, Type (0, 0), BuildingBlock: OJICUG_clean_linker_0, # of connection points: 2
#     Edge 35, Type (0, 0), BuildingBlock: OJICUG_clean_linker_0, # of connection points: 2
#     Edge 36, Type (0, 0), BuildingBlock: OJICUG_clean_linker_0, # of connection points: 2
#     Edge 37, Type (0, 0), BuildingBlock: OJICUG_clean_linker_0, # of connection points: 2
#     Edge 38, Type (0, 0), BuildingBlock: OJICUG_clean_linker_0, # of connection points: 2
#     Edge 39, Type (0, 0), BuildingBlock: OJICUG_clean_linker_0, # of connection points: 2
#     Edge 40, Type (0, 0), BuildingBlock: OJICUG_clean_linker_0, # of connection points: 2
#     Edge 41, Type (0, 0), BuildingBlock: OJICUG_clean_linker_0, # of connection points: 2
#     Edge 42, Type (0, 0), BuildingBlock: OJICUG_clean_linker_0, # of connection points: 2
#     Edge 43, Type (0, 0), BuildingBlock: OJICUG_clean_linker_0, # of connection points: 2
#     Edge 44, Type (0, 0), BuildingBlock: OJICUG_clean_linker_0, # of connection points: 2
#     Edge 45, Type (0, 0), BuildingBlock: OJICUG_clean_linker_0, # of connection points: 2
#     Edge 46, Type (0, 0), BuildingBlock: OJICUG_clean_linker_0, # of connection points: 2
#     Edge 47, Type (0, 0), BuildingBlock: OJICUG_clean_linker_0, # of connection points: 2
#     Edge 48, Type (0, 0), BuildingBlock: OJICUG_clean_linker_0, # of connection points: 2
#     Edge 49, Type (0, 0), BuildingBlock: OJICUG_clean_linker_0, # of connection points: 2
#     Edge 50, Type (0, 0), BuildingBlock: OJICUG_clean_linker_0, # of connection points: 2
#     Edge 51, Type (0, 0), BuildingBlock: OJICUG_clean_linker_0, # of connection points: 2
#     Edge 52, Type (0, 0), BuildingBlock: OJICUG_clean_linker_0, # of connection points: 2
#     Edge 53, Type (0, 0), BuildingBlock: OJICUG_clean_linker_0, # of connection points: 2
#     Edge 54, Type (0, 0), BuildingBlock: OJICUG_clean_linker_0, # of connection points: 2
#     Edge 55, Type (0, 0), BuildingBlock: OJICUG_clean_linker_0, # of connection points: 2
#     Edge 56, Type (0, 0), BuildingBlock: OJICUG_clean_linker_0, # of connection points: 2
#     Edge 57, Type (0, 0), BuildingBlock: OJICUG_clean_linker_0, # of connection points: 2
#     Edge 58, Type (0, 0), BuildingBlock: OJICUG_clean_linker_0, # of connection points: 2
#     Edge 59, Type (0, 0), BuildingBlock: OJICUG_clean_linker_0, # of connection points: 2
#     Edge 60, Type (0, 0), BuildingBlock: OJICUG_clean_linker_0, # of connection points: 2
#     Edge 61, Type (0, 0), BuildingBlock: OJICUG_clean_linker_0, # of connection points: 2
#     Edge 62, Type (0, 0), BuildingBlock: OJICUG_clean_linker_0, # of connection points: 2
#     Edge 63, Type (0, 0), BuildingBlock: OJICUG_clean_linker_0, # of connection points: 2
#     Edge 64, Type (0, 0), BuildingBlock: OJICUG_clean_linker_0, # of connection points: 2
#     Edge 65, Type (0, 0), BuildingBlock: OJICUG_clean_linker_0, # of connection points: 2
#     Edge 66, Type (0, 0), BuildingBlock: OJICUG_clean_linker_0, # of connection points: 2
#     Edge 67, Type (0, 0), BuildingBlock: OJICUG_clean_linker_0, # of connection points: 2
#     Edge 68, Type (0, 0), BuildingBlock: OJICUG_clean_linker_0, # of connection points: 2
#     Edge 69, Type (0, 0), BuildingBlock: OJICUG_clean_linker_0, # of connection points: 2
#     Edge 70, Type (0, 0), BuildingBlock: OJICUG_clean_linker_0, # of connection points: 2
#     Edge 71, Type (0, 0), BuildingBlock: OJICUG_clean_linker_0, # of connection points: 2
#     Edge 72, Type (0, 0), BuildingBlock: OJICUG_clean_linker_0, # of connection points: 2
#     Edge 73, Type (0, 0), BuildingBlock: OJICUG_clean_linker_0, # of connection points: 2
#     Edge 74, Type (0, 0), BuildingBlock: OJICUG_clean_linker_0, # of connection points: 2
#     Edge 75, Type (0, 0), BuildingBlock: OJICUG_clean_linker_0, # of connection points: 2
#     Edge 76, Type (0, 0), BuildingBlock: OJICUG_clean_linker_0, # of connection points: 2
#     Edge 77, Type (0, 0), BuildingBlock: OJICUG_clean_linker_0, # of connection points: 2
#     Edge 78, Type (0, 0), BuildingBlock: OJICUG_clean_linker_0, # of connection points: 2
#     Edge 79, Type (0, 0), BuildingBlock: OJICUG_clean_linker_0, # of connection points: 2
#     Edge 80, Type (0, 0), BuildingBlock: OJICUG_clean_linker_0, # of connection points: 2
#     Edge 81, Type (0, 0), BuildingBlock: OJICUG_clean_linker_0, # of connection points: 2
#     Edge 82, Type (0, 0), BuildingBlock: OJICUG_clean_linker_0, # of connection points: 2
#     Edge 83, Type (0, 0), BuildingBlock: OJICUG_clean_linker_0, # of connection points: 2
#     Edge 84, Type (0, 0), BuildingBlock: OJICUG_clean_linker_0, # of connection points: 2
#     Edge 85, Type (0, 0), BuildingBlock: OJICUG_clean_linker_0, # of connection points: 2
#     Edge 86, Type (0, 0), BuildingBlock: OJICUG_clean_linker_0, # of connection points: 2
#     Edge 87, Type (0, 0), BuildingBlock: OJICUG_clean_linker_0, # of connection points: 2
#     Edge 88, Type (0, 0), BuildingBlock: OJICUG_clean_linker_0, # of connection points: 2
#     Edge 89, Type (0, 0), BuildingBlock: OJICUG_clean_linker_0, # of connection points: 2
#     Edge 90, Type (0, 0), BuildingBlock: OJICUG_clean_linker_0, # of connection points: 2
#     Edge 91, Type (0, 0), BuildingBlock: OJICUG_clean_linker_0, # of connection points: 2
#     Edge 92, Type (0, 0), BuildingBlock: OJICUG_clean_linker_0, # of connection points: 2
#     Edge 93, Type (0, 0), BuildingBlock: OJICUG_clean_linker_0, # of connection points: 2
#     Edge 94, Type (0, 0), BuildingBlock: OJICUG_clean_linker_0, # of connection points: 2
#     Edge 95, Type (0, 0), BuildingBlock: OJICUG_clean_linker_0, # of connection points: 2
# Relax obj value: 0.034
# Max RMSD: 0.079
# Mean RMSD: 0.079
data_MOF--net-uod--node1-QUQFOY_clean_sbu_1--edge1-OJICUG_clean_linker_0
_symmetry_space_group_name_H-M    P1
_symmetry_Int_Tables_number       1
_symmetry_cell_setting            triclinic
loop_
_symmetry_equiv_pos_as_xyz
'x, y, z'
_cell_length_a     64.304868
_cell_length_b     20.908859
_cell_length_c     51.173664
_cell_angle_alpha  89.994864
_cell_angle_beta   89.954011
_cell_angle_gamma 89.37521
loop_
_atom_site_label
_atom_site_type_symbol
_atom_site_fract_x
_atom_site_fract_y
_atom_site_fract_z
_atom_type_partial_charge
O0 O 0.06128 0.50409 0.11092 0.0
Cd1 Cd 0.07221 0.43242 0.08811 0.0
Cd2 Cd 0.06118 0.37039 0.13211 0.0
O3 O 0.04233 0.44958 0.13883 0.0
O4 O 0.07192 0.47987 0.05426 0.0
O5 O 0.04988 0.40262 0.06363 0.0
C6 C 0.05494 0.45032 0.04888 0.0
C7 C 0.04964 0.26533 0.13533 0.0
C8 C 0.04714 0.50213 0.12808 0.0
C9 C 0.10707 0.38862 0.12111 0.0
O10 O 0.09281 0.38103 0.13806 0.0
O11 O 0.10225 0.40073 0.09739 0.0
O12 O 0.05278 0.29965 0.15589 0.0
O13 O 0.05193 0.29215 0.11275 0.0
O14 O 0.24201 0.77549 0.11082 0.0
Cd15 Cd 0.23037 0.84519 0.08752 0.0
Cd16 Cd 0.241 0.90966 0.13203 0.0
O17 O 0.25968 0.83073 0.13979 0.0
O18 O 0.23006 0.7943 0.05449 0.0
O19 O 0.25191 0.87336 0.06147 0.0
C20 C 0.2467 0.82406 0.04777 0.0
C21 C 0.25246 0.01485 0.13567 0.0
C22 C 0.25549 0.77803 0.12876 0.0
C23 C 0.19519 0.88937 0.12044 0.0
O24 O 0.20931 0.89891 0.13737 0.0
O25 O 0.20017 0.87562 0.0969 0.0
O26 O 0.24889 0.98044 0.15608 0.0
O27 O 0.25062 0.98811 0.11301 0.0
O28 O 0.0683 0.7553 0.16871 0.0
Cd29 Cd 0.07625 0.83287 0.18978 0.0
Cd30 Cd 0.06308 0.88676 0.14694 0.0
O31 O 0.04461 0.80604 0.14544 0.0
O32 O 0.07514 0.79473 0.2254 0.0
O33 O 0.05162 0.86377 0.21035 0.0
C34 C 0.05696 0.82123 0.22756 0.0
C35 C 0.05045 0.99128 0.14457 0.0
C36 C 0.05187 0.75449 0.15511 0.0
C37 C 0.10916 0.87899 0.15564 0.0
O38 O 0.0946 0.87755 0.1388 0.0
O39 O 0.10482 0.87257 0.17985 0.0
O40 O 0.05216 0.95625 0.12387 0.0
O41 O 0.0547 0.96524 0.1669 0.0
O42 O 0.23348 0.5246 0.1702 0.0
Cd43 Cd 0.22565 0.44631 0.19096 0.0
Cd44 Cd 0.23903 0.39325 0.1481 0.0
O45 O 0.2573 0.47452 0.14688 0.0
O46 O 0.22684 0.48298 0.22682 0.0
O47 O 0.25038 0.4148 0.2111 0.0
C48 C 0.24506 0.45654 0.22866 0.0
C49 C 0.25178 0.28883 0.14555 0.0
C50 C 0.24993 0.52588 0.15663 0.0
C51 C 0.19293 0.39986 0.15666 0.0
O52 O 0.20753 0.40185 0.13987 0.0
O53 O 0.19719 0.40615 0.18089 0.0
O54 O 0.25016 0.32416 0.12493 0.0
O55 O 0.24743 0.31457 0.16792 0.0
O56 O 0.98719 0.50844 0.91818 0.0
Cd57 Cd 0.97723 0.58355 0.93976 0.0
Cd58 Cd 0.99009 0.6413 0.89666 0.0
O59 O 1.00897 0.56065 0.893 0.0
O60 O 0.97727 0.54073 0.97455 0.0
O61 O 1.0002 0.61389 0.96306 0.0
C62 C 0.99475 0.56869 0.97887 0.0
C63 C 1.00205 0.7459 0.89354 0.0
C64 C 1.00278 0.50867 0.90307 0.0
C65 C 0.94385 0.6287 0.90529 0.0
O66 O 0.95864 0.63194 0.88881 0.0
O67 O 0.94793 0.61922 0.92941 0.0
O68 O 0.99997 0.71057 0.87303 0.0
O69 O 0.99854 0.72021 0.91609 0.0
O70 O 0.81145 0.25298 0.91127 0.0
Cd71 Cd 0.82246 0.18135 0.93406 0.0
Cd72 Cd 0.81181 0.11951 0.88961 0.0
O73 O 0.79289 0.19853 0.88297 0.0
O74 O 0.82229 0.22927 0.96783 0.0
O75 O 0.80023 0.15189 0.95886 0.0
C76 C 0.80535 0.19977 0.97345 0.0
C77 C 0.80024 0.0145 0.8862 0.0
C78 C 0.79744 0.25098 0.89396 0.0
C79 C 0.85758 0.13756 0.90115 0.0
O80 O 0.8435 0.13035 0.88397 0.0
O81 O 0.85253 0.14939 0.92483 0.0
O82 O 0.80355 0.04889 0.8657 0.0
O83 O 0.80244 0.04116 0.90882 0.0
O84 O 0.98833 0.259 0.8576 0.0
Cd85 Cd 0.9786 0.18627 0.83485 0.0
Cd86 Cd 0.99014 0.1252 0.8788 0.0
O87 O 1.0089 0.20422 0.88394 0.0
O88 O 0.97881 0.23255 0.80073 0.0
O89 O 1.00173 0.15702 0.81109 0.0
C90 C 0.99629 0.2039 0.79594 0.0
C91 C 1.00203 0.0198 0.88262 0.0
C92 C 1.00326 0.25694 0.87368 0.0
C93 C 0.94422 0.14125 0.86779 0.0
O94 O 0.95844 0.13648 0.88499 0.0
O95 O 0.94907 0.15165 0.84396 0.0
O96 O 0.99909 0.05524 0.90297 0.0
O97 O 0.9994 0.04572 0.85988 0.0
O98 O 0.81759 0.50363 0.85321 0.0
Cd99 Cd 0.82609 0.58071 0.8322 0.0
Cd100 Cd 0.81239 0.63551 0.87461 0.0
O101 O 0.79379 0.55503 0.87612 0.0
O102 O 0.82512 0.54258 0.79657 0.0
O103 O 0.80176 0.61257 0.81138 0.0
C104 C 0.80705 0.56975 0.79424 0.0
C105 C 0.80006 0.74042 0.87682 0.0
C106 C 0.80106 0.50325 0.86665 0.0
C107 C 0.85864 0.62586 0.86696 0.0
O108 O 0.84376 0.62565 0.88338 0.0
O109 O 0.85473 0.61899 0.84265 0.0
O110 O 0.80142 0.70529 0.89753 0.0
O111 O 0.80442 0.71425 0.85455 0.0
O112 O 0.06422 0.01869 0.60431 0.0
Cd113 Cd 0.07443 0.94412 0.58259 0.0
Cd114 Cd 0.06174 0.88557 0.62581 0.0
O115 O 0.04279 0.96596 0.62979 0.0
O116 O 0.07436 0.98752 0.5479 0.0
O117 O 0.05161 0.91359 0.55909 0.0
C118 C 0.05699 0.95916 0.54341 0.0
C119 C 0.04996 0.78075 0.62904 0.0
C120 C 0.04878 0.01809 0.61965 0.0
C121 C 0.10797 0.89936 0.61702 0.0
O122 O 0.0932 0.89536 0.6335 0.0
O123 O 0.10385 0.90923 0.59293 0.0
O124 O 0.0521 0.81612 0.64952 0.0
O125 O 0.0533 0.80649 0.60645 0.0
O126 O 0.24155 0.27604 0.6112 0.0
Cd127 Cd 0.22993 0.34608 0.58804 0.0
Cd128 Cd 0.24036 0.40986 0.63276 0.0
O129 O 0.25927 0.33124 0.64013 0.0
O130 O 0.22971 0.29566 0.55487 0.0
O131 O 0.25156 0.37456 0.56215 0.0
C132 C 0.24638 0.32545 0.54831 0.0
C133 C 0.25174 0.51514 0.63631 0.0
C134 C 0.25515 0.27861 0.629 0.0
C135 C 0.19463 0.3898 0.62097 0.0
O136 O 0.20867 0.39859 0.63808 0.0
O137 O 0.19973 0.37682 0.59739 0.0
O138 O 0.24824 0.48078 0.65675 0.0
O139 O 0.24984 0.48835 0.61366 0.0
O140 O 0.06404 0.26756 0.66499 0.0
Cd141 Cd 0.07377 0.34049 0.68763 0.0
Cd142 Cd 0.06209 0.40129 0.64376 0.0
O143 O 0.04323 0.32233 0.63896 0.0
O144 O 0.07361 0.29453 0.72182 0.0
O145 O 0.05064 0.36987 0.71136 0.0
C146 C 0.05611 0.32313 0.72657 0.0
C147 C 0.05024 0.50676 0.64001 0.0
C148 C 0.04895 0.26961 0.64915 0.0
C149 C 0.10804 0.38532 0.6545 0.0
O150 O 0.09377 0.38978 0.63735 0.0
O151 O 0.10325 0.37526 0.67838 0.0
O152 O 0.05303 0.47127 0.61965 0.0
O153 O 0.053 0.48088 0.66273 0.0
O154 O 0.23411 0.02583 0.6699 0.0
Cd155 Cd 0.22562 0.94805 0.6905 0.0
Cd156 Cd 0.2394 0.89425 0.64799 0.0
O157 O 0.25797 0.97493 0.64691 0.0
O158 O 0.22668 0.9847 0.72638 0.0
O159 O 0.24999 0.91533 0.711 0.0
C160 C 0.24475 0.9574 0.72846 0.0
C161 C 0.25174 0.78931 0.64579 0.0
C162 C 0.25067 0.02653 0.65653 0.0
C163 C 0.19316 0.90336 0.65546 0.0
O164 O 0.20806 0.9041 0.63907 0.0
O165 O 0.19703 0.90974 0.67979 0.0
O166 O 0.25051 0.82456 0.6251 0.0
O167 O 0.24725 0.81538 0.66805 0.0
O168 O 0.99007 0.02169 0.41142 0.0
Cd169 Cd 0.97935 0.09407 0.43402 0.0
Cd170 Cd 0.99031 0.155 0.38984 0.0
O171 O 1.00918 0.07569 0.38352 0.0
O172 O 0.97969 0.04745 0.46807 0.0
O173 O 1.00185 0.12402 0.45823 0.0
C174 C 0.99676 0.07678 0.4732 0.0
C175 C 1.00196 0.25989 0.38657 0.0
C176 C 1.00432 0.02333 0.39438 0.0
C177 C 0.94446 0.13795 0.40104 0.0
O178 O 0.95865 0.14452 0.38393 0.0
O179 O 0.94937 0.12655 0.42479 0.0
O180 O 0.99883 0.22553 0.36603 0.0
O181 O 0.99957 0.23321 0.40917 0.0
O182 O 0.81313 0.7616 0.41613 0.0
Cd183 Cd 0.82357 0.68797 0.43823 0.0
Cd184 Cd 0.81144 0.62828 0.39466 0.0
O185 O 0.7926 0.70843 0.38968 0.0
O186 O 0.82368 0.73329 0.47251 0.0
O187 O 0.80103 0.65825 0.46243 0.0
C188 C 0.80644 0.70474 0.4776 0.0
C189 C 0.7996 0.52357 0.39129 0.0
C190 C 0.79819 0.76065 0.40008 0.0
C191 C 0.85756 0.64311 0.40426 0.0
O192 O 0.84299 0.63801 0.3876 0.0
O193 O 0.85318 0.65387 0.42822 0.0
O194 O 0.8022 0.55867 0.37082 0.0
O195 O 0.80256 0.54949 0.41392 0.0
O196 O 0.98424 0.77053 0.35366 0.0
Cd197 Cd 0.97586 0.69353 0.33253 0.0
Cd198 Cd 0.98931 0.63866 0.37509 0.0
O199 O 1.00787 0.71913 0.3768 0.0
O200 O 0.97682 0.73216 0.29698 0.0
O201 O 1.00022 0.66216 0.31159 0.0
C202 C 0.9949 0.70514 0.29455 0.0
C203 C 1.00176 0.53393 0.37735 0.0
C204 C 1.00067 0.7709 0.36726 0.0
C205 C 0.94311 0.64799 0.36702 0.0
O206 O 0.95787 0.6483 0.38359 0.0
O207 O 0.94719 0.65496 0.34276 0.0
O208 O 1.00019 0.56894 0.39807 0.0
O209 O 0.9975 0.5601 0.35505 0.0
O210 O 0.81537 1.01163 0.35577 0.0
Cd211 Cd 0.82433 0.08641 0.33362 0.0
Cd212 Cd 0.81208 0.14473 0.37709 0.0
O213 O 0.79346 0.06487 0.38089 0.0
O214 O 0.8238 0.04337 0.29885 0.0
O215 O 0.80057 0.11636 0.31117 0.0
C216 C 0.80601 0.07121 0.29515 0.0
C217 C 0.79984 0.24972 0.38053 0.0
C218 C 0.7998 1.01256 0.37091 0.0
C219 C 0.85811 0.13216 0.3669 0.0
O220 O 0.84372 0.1345 0.38399 0.0
O221 O 0.85349 0.12317 0.34291 0.0
O222 O 0.80234 0.21427 0.40098 0.0
O223 O 0.80308 0.22394 0.35789 0.0
O224 O 0.55961 0.49958 0.61081 0.0
Cd225 Cd 0.57139 0.43021 0.58743 0.0
Cd226 Cd 0.56082 0.36535 0.632 0.0
O227 O 0.54211 0.44413 0.63993 0.0
O228 O 0.57169 0.48145 0.55448 0.0
O229 O 0.54994 0.40204 0.5613 0.0
C230 C 0.55511 0.45155 0.54768 0.0
C231 C 0.54943 0.26006 0.63563 0.0
C232 C 0.5462 0.49688 0.62886 0.0
C233 C 0.60661 0.38623 0.6203 0.0
O234 O 0.5925 0.37631 0.63724 0.0
O235 O 0.60163 0.40017 0.59679 0.0
O236 O 0.55302 0.29442 0.65604 0.0
O237 O 0.55122 0.2869 0.61297 0.0
O238 O 0.74117 0.77246 0.61066 0.0
Cd239 Cd 0.72991 0.84326 0.58765 0.0
Cd240 Cd 0.74075 0.90637 0.63182 0.0
O241 O 0.75958 0.82741 0.63897 0.0
O242 O 0.72998 0.79442 0.55412 0.0
O243 O 0.75191 0.87255 0.56252 0.0
C244 C 0.74682 0.82417 0.5482 0.0
C245 C 0.75218 1.01157 0.63514 0.0
C246 C 0.75505 0.77476 0.62812 0.0
C247 C 0.6949 0.88697 0.62065 0.0
O248 O 0.7091 0.89548 0.63757 0.0
O249 O 0.69978 0.87422 0.597 0.0
O250 O 0.74889 0.97725 0.65566 0.0
O251 O 0.75009 0.9847 0.61254 0.0
O252 O 0.56852 0.75031 0.67002 0.0
Cd253 Cd 0.57633 0.82873 0.69068 0.0
Cd254 Cd 0.56293 0.88156 0.64784 0.0
O255 O 0.54463 0.80031 0.64682 0.0
O256 O 0.57513 0.79229 0.72659 0.0
O257 O 0.55158 0.8603 0.71081 0.0
C258 C 0.55691 0.8187 0.72841 0.0
C259 C 0.5502 0.98602 0.64539 0.0
C260 C 0.55202 0.74898 0.65655 0.0
C261 C 0.60901 0.87509 0.65627 0.0
O262 O 0.59442 0.87288 0.6395 0.0
O263 O 0.60475 0.869 0.68052 0.0
O264 O 0.55176 0.95072 0.62475 0.0
O265 O 0.5546 0.96023 0.66773 0.0
O266 O 0.73328 0.52151 0.66873 0.0
Cd267 Cd 0.72542 0.44359 0.68967 0.0
Cd268 Cd 0.73868 0.39019 0.64683 0.0
O269 O 0.75712 0.47105 0.64557 0.0
O270 O 0.72662 0.48106 0.7254 0.0
O271 O 0.75014 0.41246 0.70995 0.0
C272 C 0.74483 0.45465 0.72734 0.0
C273 C 0.75132 0.28565 0.64446 0.0
C274 C 0.74978 0.52252 0.65524 0.0
C275 C 0.6926 0.39748 0.65548 0.0
O276 O 0.70717 0.39932 0.63864 0.0
O277 O 0.69691 0.40364 0.6797 0.0
O278 O 0.74971 0.32076 0.62377 0.0
O279 O 0.74698 0.31163 0.66679 0.0
O280 O 0.49242 0.52602 0.41306 0.0
Cd281 Cd 0.48045 0.59488 0.43652 0.0
Cd282 Cd 0.49096 0.66035 0.39196 0.0
O283 O 0.50978 0.58185 0.38393 0.0
O284 O 0.48013 0.54316 0.46936 0.0
O285 O 0.50176 0.62304 0.46284 0.0
C286 C 0.49663 0.57326 0.47631 0.0
C287 C 0.50215 0.76588 0.38836 0.0
C288 C 0.5058 0.529 0.39498 0.0
C289 C 0.44519 0.63852 0.40362 0.0
O290 O 0.4593 0.64889 0.38673 0.0
O291 O 0.45016 0.62442 0.42711 0.0
O292 O 0.49861 0.73152 0.36794 0.0
O293 O 0.50044 0.73893 0.41101 0.0
O294 O 0.30939 0.25208 0.41357 0.0
Cd295 Cd 0.32138 0.18326 0.43703 0.0
Cd296 Cd 0.31086 0.11764 0.39248 0.0
O297 O 0.29205 0.19617 0.38448 0.0
O298 O 0.32159 0.23482 0.46992 0.0
O299 O 0.30002 0.15486 0.4633 0.0
C300 C 0.30509 0.20459 0.47683 0.0
C301 C 0.29967 1.0121 0.38882 0.0
C302 C 0.29602 0.24905 0.39551 0.0
C303 C 0.35664 0.13963 0.40401 0.0
O304 O 0.34252 0.12911 0.38718 0.0
O305 O 0.35168 0.15383 0.42752 0.0
O306 O 0.30322 0.04656 0.36842 0.0
O307 O 0.30137 0.03894 0.41148 0.0
O308 O 0.48315 0.27591 0.35413 0.0
Cd309 Cd 0.47522 0.19744 0.33358 0.0
Cd310 Cd 0.48861 0.14474 0.37642 0.0
O311 O 0.50705 0.22575 0.37724 0.0
O312 O 0.47651 0.23353 0.2976 0.0
O313 O 0.49995 0.16539 0.31351 0.0
C314 C 0.4947 0.2069 0.29585 0.0
C315 C 0.5012 0.04008 0.37878 0.0
C316 C 0.4997 0.27711 0.36748 0.0
C317 C 0.44252 0.15181 0.3682 0.0
O318 O 0.45715 0.15399 0.38491 0.0
O319 O 0.44674 0.15759 0.34392 0.0
O320 O 0.49977 0.07536 0.39944 0.0
O321 O 0.49673 0.06595 0.35648 0.0
O322 O 0.31869 0.50195 0.35444 0.0
Cd323 Cd 0.32661 0.58022 0.33374 0.0
Cd324 Cd 0.3132 0.63327 0.37657 0.0
O325 O 0.29476 0.55226 0.37751 0.0
O326 O 0.32546 0.54363 0.29786 0.0
O327 O 0.30193 0.61188 0.31355 0.0
C328 C 0.30726 0.57014 0.296 0.0
C329 C 0.3006 0.73793 0.37903 0.0
C330 C 0.30213 0.50083 0.36781 0.0
C331 C 0.35929 0.62623 0.36818 0.0
O332 O 0.34468 0.62409 0.38495 0.0
O333 O 0.35505 0.6203 0.34393 0.0
O334 O 0.30207 0.70258 0.39966 0.0
O335 O 0.30503 0.71212 0.3567 0.0
O336 O 0.56019 0.99987 0.1108 0.0
Cd337 Cd 0.57185 0.92998 0.08759 0.0
Cd338 Cd 0.5613 0.86591 0.13221 0.0
O339 O 0.54242 0.94459 0.13971 0.0
O340 O 0.57209 0.98052 0.05445 0.0
O341 O 0.55026 0.90152 0.06169 0.0
C342 C 0.55543 0.9507 0.04788 0.0
C343 C 0.54995 0.76059 0.13577 0.0
C344 C 0.54659 0.99726 0.12863 0.0
C345 C 0.60706 0.88619 0.12051 0.0
O346 O 0.59297 0.87712 0.13755 0.0
O347 O 0.60205 0.89941 0.09694 0.0
O348 O 0.55342 0.79497 0.15621 0.0
O349 O 0.55184 0.78741 0.11313 0.0
O350 O 0.73938 0.26251 0.10595 0.0
Cd351 Cd 0.72858 0.33532 0.08368 0.0
Cd352 Cd 0.74054 0.39614 0.12735 0.0
O353 O 0.75951 0.3164 0.13267 0.0
O354 O 0.72852 0.28923 0.04954 0.0
O355 O 0.75091 0.36529 0.0592 0.0
C356 C 0.74562 0.3183 0.04422 0.0
C357 C 0.75212 0.5012 0.13078 0.0
C358 C 0.75417 0.26398 0.12222 0.0
C359 C 0.69444 0.37959 0.11769 0.0
O360 O 0.709 0.38573 0.1343 0.0
O361 O 0.69883 0.36835 0.09376 0.0
O362 O 0.74949 0.46606 0.15124 0.0
O363 O 0.74934 0.47516 0.10814 0.0
O364 O 0.56806 0.25009 0.16963 0.0
Cd365 Cd 0.57639 0.32803 0.19023 0.0
Cd366 Cd 0.56278 0.3816 0.1476 0.0
O367 O 0.54426 0.30083 0.14653 0.0
O368 O 0.57524 0.29147 0.22613 0.0
O369 O 0.55191 0.36057 0.21064 0.0
C370 C 0.55715 0.31862 0.22814 0.0
C371 C 0.55034 0.48642 0.14532 0.0
C372 C 0.55154 0.24928 0.15621 0.0
C373 C 0.60898 0.37301 0.15531 0.0
O374 O 0.59417 0.37196 0.13882 0.0
O375 O 0.60498 0.36672 0.17963 0.0
O376 O 0.55168 0.45117 0.12465 0.0
O377 O 0.5548 0.46044 0.1676 0.0
O378 O 0.73608 0.01335 0.16618 0.0
Cd379 Cd 0.72707 0.93844 0.18821 0.0
Cd380 Cd 0.73944 0.88036 0.14481 0.0
O381 O 0.75822 0.96004 0.1414 0.0
O382 O 0.72755 0.98119 0.22303 0.0
O383 O 0.75081 0.90833 0.21066 0.0
C384 C 0.74535 0.95338 0.22671 0.0
C385 C 0.75158 0.77521 0.14148 0.0
C386 C 0.75182 1.01238 0.15131 0.0
C387 C 0.6934 0.89308 0.15471 0.0
O388 O 0.70783 0.89105 0.13767 0.0
O389 O 0.69797 0.90161 0.17874 0.0
O390 O 0.74927 0.81069 0.12101 0.0
O391 O 0.7482 0.801 0.16409 0.0
O392 O 0.49237 0.0239 0.91334 0.0
Cd393 Cd 0.48044 0.09291 0.93678 0.0
Cd394 Cd 0.49099 0.15827 0.89223 0.0
O395 O 0.50978 0.07968 0.88424 0.0
O396 O 0.48022 0.04152 0.96971 0.0
O397 O 0.50184 0.12131 0.96295 0.0
C398 C 0.49674 0.07167 0.97653 0.0
C399 C 0.50224 0.26374 0.88861 0.0
C400 C 0.50576 0.02683 0.89528 0.0
C401 C 0.4452 0.1366 0.90384 0.0
O402 O 0.45933 0.14694 0.88697 0.0
O403 O 0.45016 0.12249 0.92735 0.0
O404 O 0.49869 0.22935 0.8682 0.0
O405 O 0.5005 0.23686 0.91126 0.0
O406 O 0.30954 0.74979 0.91314 0.0
Cd407 Cd 0.32144 0.68075 0.93657 0.0
Cd408 Cd 0.31092 0.61551 0.89204 0.0
O409 O 0.29213 0.69407 0.88407 0.0
O410 O 0.32175 0.7323 0.96944 0.0
O411 O 0.30007 0.65259 0.96285 0.0
C412 C 0.30522 0.70227 0.97636 0.0
C413 C 0.29967 0.51004 0.88849 0.0
C414 C 0.29614 0.74689 0.89511 0.0
C415 C 0.35669 0.63702 0.90363 0.0
O416 O 0.34258 0.62682 0.88675 0.0
O417 O 0.3517 0.65105 0.92714 0.0
O418 O 0.30322 0.54437 0.86805 0.0
O419 O 0.3014 0.53699 0.91113 0.0
O420 O 0.48317 0.77371 0.85429 0.0
Cd421 Cd 0.4753 0.69531 0.83366 0.0
Cd422 Cd 0.48869 0.64248 0.8765 0.0
O423 O 0.50709 0.72357 0.8774 0.0
O424 O 0.47647 0.73174 0.79775 0.0
O425 O 0.50001 0.66364 0.81348 0.0
C426 C 0.49468 0.70527 0.79589 0.0
C427 C 0.50133 0.53789 0.87891 0.0
C428 C 0.49971 0.77494 0.86767 0.0
C429 C 0.44261 0.64929 0.86814 0.0
O430 O 0.45721 0.65153 0.8849 0.0
O431 O 0.44687 0.65517 0.84388 0.0
O432 O 0.49984 0.5732 0.89956 0.0
O433 O 0.4969 0.56372 0.85659 0.0
O434 O 0.31874 1.00018 0.85429 0.0
Cd435 Cd 0.32663 0.07872 0.83374 0.0
Cd436 Cd 0.31323 0.13127 0.87661 0.0
O437 O 0.29482 0.05021 0.87746 0.0
O438 O 0.32535 0.04267 0.79776 0.0
O439 O 0.30188 0.11071 0.81373 0.0
C440 C 0.30715 0.06923 0.79605 0.0
C441 C 0.30061 0.23588 0.87896 0.0
C442 C 0.3022 0.99889 0.86768 0.0
C443 C 0.35932 0.12442 0.86826 0.0
O444 O 0.3447 0.12214 0.88502 0.0
O445 O 0.35509 0.11868 0.844 0.0
O446 O 0.30205 0.20061 0.89963 0.0
O447 O 0.30508 0.21 0.85666 0.0
C448 C 0.04339 0.64519 0.16968 0.0
C449 C 0.04239 0.69237 0.15009 0.0
H450 H 0.04468 0.54484 0.17793 0.0
C451 C 0.03638 0.6756 0.12478 0.0
H452 H 0.0477 0.65764 0.1895 0.0
C453 C 0.0347 0.61112 0.11823 0.0
C454 C 0.03876 0.56351 0.13705 0.0
H455 H 0.03543 0.71133 0.10947 0.0
H456 H 0.03263 0.59833 0.09787 0.0
C457 C 0.04141 0.5808 0.1632 0.0
C458 C 0.26818 0.66871 0.11995 0.0
C459 C 0.26357 0.71682 0.13836 0.0
H460 H 0.26766 0.5683 0.11154 0.0
C461 C 0.26002 0.70014 0.16443 0.0
H462 H 0.27095 0.68099 0.09967 0.0
C463 C 0.25773 0.63592 0.17104 0.0
C464 C 0.25934 0.58824 0.15171 0.0
H465 H 0.25631 0.73648 0.17884 0.0
H466 H 0.25281 0.62401 0.19069 0.0
C467 C 0.26619 0.60439 0.12665 0.0
C468 C 1.01311 0.33413 0.908 0.0
C469 C 1.0122 0.31802 0.88152 0.0
H470 H 1.01107 0.4104 0.93575 0.0
C471 C 1.01438 0.36605 0.86246 0.0
H472 H 1.01143 0.29782 0.92294 0.0
C473 C 1.01437 0.43033 0.86972 0.0
C474 C 1.01188 0.44659 0.89604 0.0
H475 H 1.01384 0.35415 0.84186 0.0
H476 H 1.01368 0.46673 0.85467 0.0
C477 C 1.01281 0.39843 0.91524 0.0
C478 C 0.78615 0.42437 0.89741 0.0
C479 C 0.79159 0.44123 0.87189 0.0
H480 H 0.78326 0.34711 0.92451 0.0
C481 C 0.79243 0.39398 0.85232 0.0
H482 H 0.78536 0.46015 0.9127 0.0
C483 C 0.7909 0.32953 0.85893 0.0
C484 C 0.78885 0.3123 0.88519 0.0
H485 H 0.79635 0.4065 0.83237 0.0
H486 H 0.79404 0.29362 0.84414 0.0
C487 C 0.78491 0.35985 0.90408 0.0
C488 C 0.03847 0.12826 0.6078 0.0
C489 C 0.03971 0.08003 0.62695 0.0
H490 H 0.03984 0.22886 0.6001 0.0
C491 C 0.03776 0.09624 0.65335 0.0
H492 H 0.0398 0.11632 0.58725 0.0
C493 C 0.03799 0.16049 0.66063 0.0
C494 C 0.03986 0.20855 0.64153 0.0
H495 H 0.03872 0.05978 0.66836 0.0
H496 H 0.03893 0.1723 0.68122 0.0
C497 C 0.0384 0.19254 0.61508 0.0
C498 C 0.25887 0.13611 0.67101 0.0
C499 C 0.26018 0.08867 0.65155 0.0
H500 H 0.25722 0.23655 0.67901 0.0
C501 C 0.26642 0.10525 0.62629 0.0
H502 H 0.25439 0.12384 0.6908 0.0
C503 C 0.268 0.1697 0.61961 0.0
C504 C 0.26359 0.21749 0.63825 0.0
H505 H 0.26762 0.06935 0.61108 0.0
H506 H 0.27026 0.18223 0.59926 0.0
C507 C 0.26074 0.20048 0.66441 0.0
C508 C 1.01104 0.9445 0.35951 0.0
C509 C 1.01288 0.96184 0.38578 0.0
H510 H 1.00574 0.86745 0.33296 0.0
C511 C 1.01659 0.91437 0.40476 0.0
H512 H 1.00807 0.98038 0.34465 0.0
C513 C 1.01535 0.84983 0.39813 0.0
C514 C 1.01012 0.83288 0.37256 0.0
H515 H 1.01808 0.92721 0.42519 0.0
H516 H 1.01597 0.81413 0.41347 0.0
C517 C 1.00949 0.88003 0.35294 0.0
C518 C 0.78723 0.87062 0.41122 0.0
C519 C 0.78941 0.82246 0.39216 0.0
H520 H 0.78833 0.97116 0.41913 0.0
C521 C 0.78899 0.83884 0.36568 0.0
H522 H 0.78743 0.85853 0.43182 0.0
C523 C 0.78978 0.90311 0.35852 0.0
C524 C 0.79067 0.95102 0.37779 0.0
H525 H 0.79072 0.80245 0.35074 0.0
H526 H 0.79184 0.915 0.33806 0.0
C527 C 0.78771 0.93492 0.40403 0.0
C528 C 0.54429 0.63896 0.67111 0.0
C529 C 0.54257 0.68662 0.65178 0.0
H530 H 0.54571 0.53844 0.67895 0.0
C531 C 0.5355 0.67046 0.62683 0.0
H532 H 0.54937 0.65089 0.69069 0.0
C533 C 0.53341 0.60614 0.62019 0.0
C534 C 0.53813 0.55803 0.63856 0.0
H535 H 0.53393 0.70653 0.61174 0.0
H536 H 0.53048 0.59385 0.59996 0.0
C537 C 0.5419 0.57475 0.66456 0.0
C538 C 0.76015 0.69634 0.66345 0.0
C539 C 0.76332 0.71349 0.63736 0.0
H540 H 0.75329 0.6197 0.68962 0.0
C541 C 0.7677 0.66576 0.6187 0.0
H542 H 0.75663 0.73241 0.67805 0.0
C543 C 0.76582 0.60131 0.62524 0.0
C544 C 0.7593 0.58471 0.65039 0.0
H545 H 0.77017 0.67843 0.5984 0.0
H546 H 0.76705 0.56551 0.61 0.0
C547 C 0.75797 0.632 0.66991 0.0
C548 C 0.50995 0.4512 0.35925 0.0
C549 C 0.51391 0.46797 0.38521 0.0
H550 H 0.50224 0.37507 0.33325 0.0
C551 C 0.51875 0.41987 0.40354 0.0
H552 H 0.50606 0.48752 0.3449 0.0
C553 C 0.51655 0.35555 0.39696 0.0
C554 C 0.50927 0.33938 0.37211 0.0
H555 H 0.52182 0.43221 0.42373 0.0
H556 H 0.51819 0.31952 0.41206 0.0
C557 C 0.50747 0.38699 0.35277 0.0
C558 C 0.29434 0.3909 0.3532 0.0
C559 C 0.29255 0.43859 0.37251 0.0
H560 H 0.29574 0.29036 0.3454 0.0
C561 C 0.28528 0.42251 0.39739 0.0
H562 H 0.29956 0.40276 0.33366 0.0
C563 C 0.28308 0.35821 0.40402 0.0
C564 C 0.28791 0.31004 0.38571 0.0
H565 H 0.28366 0.45861 0.41247 0.0
H566 H 0.28002 0.34597 0.42424 0.0
C567 C 0.29185 0.32671 0.35974 0.0
C568 C 0.53555 0.17071 0.12612 0.0
C569 C 0.54201 0.18713 0.1513 0.0
H570 H 0.53136 0.09388 0.09912 0.0
C571 C 0.54339 0.13961 0.17072 0.0
H572 H 0.53428 0.20668 0.11094 0.0
C573 C 0.54135 0.0753 0.16413 0.0
C574 C 0.53825 0.0584 0.138 0.0
H575 H 0.54804 0.15175 0.19045 0.0
H576 H 0.54492 0.03913 0.17867 0.0
C577 C 0.53379 0.10631 0.11945 0.0
C578 C 0.76171 0.12177 0.16403 0.0
C579 C 0.76115 0.07385 0.14473 0.0
H580 H 0.76074 0.22242 0.17177 0.0
C581 C 0.76473 0.08988 0.1186 0.0
H582 H 0.7592 0.10992 0.1844 0.0
C583 C 0.7655 0.15417 0.11144 0.0
C584 C 0.76295 0.20238 0.13041 0.0
H585 H 0.76438 0.05363 0.10348 0.0
H586 H 0.76574 0.16623 0.09084 0.0
C587 C 0.76277 0.186 0.15689 0.0
C588 C 0.51649 0.85335 0.89722 0.0
C589 C 0.50925 0.83723 0.87235 0.0
H590 H 0.52172 0.92994 0.92404 0.0
C591 C 0.50747 0.88488 0.85303 0.0
H592 H 0.51812 0.81727 0.91231 0.0
C593 C 0.50994 0.94909 0.85954 0.0
C594 C 0.51386 0.96579 0.88551 0.0
H595 H 0.50227 0.87299 0.8335 0.0
H596 H 0.50606 0.98542 0.84519 0.0
C597 C 0.51868 0.91766 0.90383 0.0
C598 C 0.28321 0.85599 0.90374 0.0
C599 C 0.28804 0.80795 0.88538 0.0
H600 H 0.28375 0.95632 0.9123 0.0
C601 C 0.29198 0.8248 0.85942 0.0
H602 H 0.28015 0.84359 0.92394 0.0
C603 C 0.29445 0.88903 0.85295 0.0
C604 C 0.29265 0.93658 0.87231 0.0
H605 H 0.29587 0.78853 0.84504 0.0
H606 H 0.29967 0.90102 0.83343 0.0
C607 C 0.28539 0.92033 0.89718 0.0
C608 C 0.03 0.56514 1.0002 0.0
C609 C 1.00969 0.54136 0.99821 0.0
H610 H 0.06032 0.55427 0.01707 0.0
C611 C 1.00476 0.48541 0.01213 0.0
H612 H 0.03449 0.60743 0.98944 0.0
C613 C 1.01971 0.45411 0.02759 0.0
C614 C 0.04001 0.47791 0.0296 0.0
H615 H 0.98939 0.46501 1.01078 0.0
H616 H 1.01521 0.4118 0.03833 0.0
C617 C 0.04494 0.53391 0.01571 0.0
C618 C 0.27096 0.70512 1.00017 0.0
C619 C 0.29079 0.73095 0.99602 0.0
H620 H 0.24136 0.71495 0.01904 0.0
C621 C 0.29558 0.78948 1.00812 0.0
H622 H 0.26658 0.66076 0.99086 0.0
C623 C 0.28096 0.82123 0.02397 0.0
C624 C 0.26114 0.7954 0.02812 0.0
H625 H 0.31057 0.8114 1.00509 0.0
H626 H 0.28535 0.86559 0.03329 0.0
C627 C 0.25635 0.73688 0.01601 0.0
C628 C 0.04655 0.74176 0.26193 0.0
C629 C 0.04139 0.79464 0.24607 0.0
H630 H 0.03595 0.67094 0.28899 0.0
C631 C 1.02053 0.81553 0.24535 0.0
H632 H 0.06237 0.72358 0.26269 0.0
C633 C 1.00528 0.78451 0.26012 0.0
C634 C 1.01044 0.73164 0.27598 0.0
H635 H 1.01588 0.85532 0.23304 0.0
H636 H 0.98945 0.8027 0.25937 0.0
C637 C 0.03129 0.71073 0.27669 0.0
C638 C 0.25549 0.53429 0.26363 0.0
C639 C 0.26067 0.48239 0.24725 0.0
H640 H 0.26611 0.60381 0.29122 0.0
C641 C 0.28156 0.46193 0.24612 0.0
H642 H 0.23964 0.55213 0.26472 0.0
C643 C 0.29683 0.49243 0.261 0.0
C644 C 0.29166 0.54432 0.27739 0.0
H645 H 0.28621 0.4229 0.23341 0.0
H646 H 0.31269 0.47459 0.25991 0.0
C647 C 0.27077 0.56479 0.27851 0.0
C648 C 0.7954 0.28426 1.00629 0.0
C649 C 0.79054 0.22748 0.99291 0.0
H650 H 0.78499 0.35836 0.03232 0.0
C651 C 0.77039 0.20284 0.99561 0.0
H652 H 0.81064 0.30528 1.00439 0.0
C653 C 0.75554 0.23403 1.01129 0.0
C654 C 0.7604 0.29078 0.0247 0.0
H655 H 0.76595 0.15989 0.98529 0.0
H656 H 0.7403 0.21299 0.01319 0.0
C657 C 0.78055 0.31543 0.02198 0.0
C658 C 0.03164 0.20779 0.77486 0.0
C659 C 1.01117 0.23169 0.77682 0.0
H660 H 0.06196 0.21869 0.75817 0.0
C661 C 1.00595 0.28792 0.76303 0.0
H662 H 0.03635 0.16529 0.78551 0.0
C663 C 1.02077 0.31928 0.74767 0.0
C664 C 0.04123 0.29538 0.7457 0.0
H665 H 0.99044 0.30838 0.76436 0.0
H666 H 1.01605 0.36178 0.73701 0.0
C667 C 0.04645 0.23916 0.7595 0.0
C668 C 0.7813 0.4601 0.74492 0.0
C669 C 0.76045 0.48099 0.7458 0.0
H670 H 0.81242 0.4727 0.7588 0.0
C671 C 0.75533 0.53366 0.76181 0.0
H672 H 0.78592 0.42047 0.7325 0.0
C673 C 0.77063 0.56448 0.77654 0.0
C674 C 0.79148 0.54355 0.77568 0.0
H675 H 0.73952 0.55185 0.7627 0.0
H676 H 0.76601 0.6041 0.78896 0.0
C677 C 0.7966 0.4909 0.75967 0.0
C678 C 0.03201 0.07329 0.49451 0.0
C679 C 1.01171 0.04939 0.49252 0.0
H680 H 0.06232 0.06267 0.51138 0.0
C681 C 1.00681 0.99346 0.50647 0.0
H682 H 0.03648 0.11554 0.48373 0.0
C683 C 1.02175 0.96241 0.52203 0.0
C684 C 0.04205 0.98632 0.52402 0.0
H685 H 0.99144 0.97301 0.50513 0.0
H686 H 1.01728 0.92018 0.53283 0.0
C687 C 0.04696 0.04219 0.51004 0.0
C688 C 0.27081 0.20703 0.5006 0.0
C689 C 0.29062 0.23304 0.4965 0.0
H690 H 0.24118 0.21649 0.51943 0.0
C691 C 0.29535 0.29151 0.50869 0.0
H692 H 0.26647 0.16271 0.49122 0.0
C693 C 0.28069 0.32303 0.52457 0.0
C694 C 0.26088 0.29703 0.52865 0.0
H695 H 0.31032 0.31357 0.50571 0.0
H696 H 0.28503 0.36734 0.53395 0.0
C697 C 0.25615 0.23856 0.51645 0.0
C698 C 0.25531 0.03472 0.76356 0.0
C699 C 0.26037 0.98272 0.74717 0.0
H700 H 0.26607 0.10391 0.7912 0.0
C701 C 0.2812 0.96168 0.74612 0.0
H702 H 0.2395 0.05299 0.76459 0.0
C703 C 0.29654 0.99176 0.76105 0.0
C704 C 0.29148 0.04377 0.77743 0.0
H705 H 0.28578 0.92256 0.73342 0.0
H706 H 0.31234 0.9735 0.76 0.0
C707 C 0.27064 0.06477 0.7785 0.0
C708 C 0.77149 0.70804 0.49977 0.0
C709 C 0.79166 0.73247 0.49707 0.0
H710 H 0.74139 0.71857 0.51734 0.0
C711 C 0.79658 0.78924 0.51043 0.0
H712 H 0.76701 0.66509 0.48947 0.0
C713 C 0.78174 0.82069 0.52604 0.0
C714 C 0.76158 0.79624 0.52875 0.0
H715 H 0.81184 0.81013 0.50852 0.0
H716 H 0.78623 0.86365 0.53633 0.0
C717 C 0.75666 0.73943 0.51543 0.0
C718 C 0.75523 0.03535 0.26034 0.0
C719 C 0.76048 0.98059 0.24562 0.0
H720 H 0.76546 0.10788 0.28686 0.0
C721 C 0.78115 0.95797 0.24643 0.0
H722 H 0.73956 0.05484 0.25991 0.0
C723 C 0.79612 0.98918 0.26155 0.0
C724 C 0.79087 0.04395 0.27627 0.0
H725 H 0.78588 0.91666 0.23503 0.0
H726 H 0.81179 0.96969 0.26198 0.0
C727 C 0.7702 0.06656 0.27547 0.0
C728 C 0.50629 0.48592 0.50799 0.0
C729 C 0.51104 0.54459 0.49596 0.0
H730 H 0.51654 0.40974 0.53309 0.0
C731 C 0.53083 0.57059 0.50018 0.0
H732 H 0.49133 0.46387 0.50491 0.0
C733 C 0.54544 0.53886 0.51601 0.0
C734 C 0.54069 0.4802 0.52804 0.0
H735 H 0.53519 0.61506 0.49092 0.0
H736 H 0.5604 0.56091 0.51909 0.0
C737 C 0.5209 0.4542 0.52383 0.0
C738 C 0.54647 0.7411 0.76347 0.0
C739 C 0.54129 0.7929 0.74704 0.0
H740 H 0.53584 0.67169 0.79113 0.0
C741 C 0.5204 0.8133 0.74591 0.0
H742 H 0.56232 0.72332 0.76456 0.0
C743 C 0.50512 0.78283 0.76082 0.0
C744 C 0.51029 0.73104 0.77725 0.0
H745 H 0.51574 0.85224 0.73316 0.0
H746 H 0.48926 0.80062 0.75973 0.0
C747 C 0.53119 0.71063 0.77838 0.0
C748 C 0.53121 0.21134 0.27825 0.0
C749 C 0.51037 0.23232 0.27719 0.0
H750 H 0.56236 0.22311 0.26431 0.0
C751 C 0.50532 0.28426 0.26077 0.0
H752 H 0.53578 0.17225 0.29098 0.0
C753 C 0.52067 0.3143 0.24581 0.0
C754 C 0.5415 0.2933 0.24686 0.0
H755 H 0.48952 0.3025 0.25973 0.0
H756 H 0.5161 0.35338 0.23309 0.0
C757 C 0.54655 0.24136 0.26328 0.0
C758 C 0.53103 0.06916 1.00021 0.0
C759 C 0.51121 0.0432 0.99617 0.0
H760 H 0.56067 0.05962 0.01898 0.0
C761 C 0.50647 0.98474 1.00838 0.0
H762 H 0.53538 0.11347 0.99082 0.0
C763 C 0.52112 0.95319 0.02422 0.0
C764 C 0.54095 0.97914 0.02825 0.0
H765 H 0.49149 0.96272 1.00544 0.0
H766 H 0.51677 0.90889 0.03362 0.0
C767 C 0.54568 0.0376 0.01604 0.0
C768 C 0.16627 0.39606 0.12065 0.0
C769 C 0.17105 0.39323 0.14754 0.0
H770 H 0.14253 0.39696 0.09118 0.0
C771 C 0.15465 0.38604 0.1654 0.0
H772 H 0.17847 0.40161 0.10626 0.0
C773 C 0.13403 0.38285 0.15668 0.0
C774 C 0.12919 0.38729 0.12985 0.0
H775 H 0.1577 0.38352 0.18619 0.0
H776 H 0.12183 0.37818 0.17113 0.0
C777 C 0.14562 0.39341 0.11194 0.0
C778 C 0.1474 0.89296 0.16448 0.0
C779 C 0.13109 0.88515 0.14658 0.0
H780 H 0.18019 0.9012 0.17032 0.0
C781 C 0.13599 0.88134 0.11974 0.0
H782 H 0.14426 0.89623 0.18523 0.0
C783 C 0.15668 0.88373 0.1111 0.0
C784 C 0.17302 0.89061 0.12905 0.0
H785 H 0.12385 0.87525 0.10533 0.0
H786 H 0.15987 0.87947 0.09039 0.0
C787 C 0.16806 0.89595 0.15583 0.0
C788 C 0.89729 0.6336 0.85928 0.0
C789 C 0.88043 0.63067 0.87667 0.0
H790 H 0.93034 0.63594 0.85459 0.0
C791 C 0.8846 0.62996 0.90374 0.0
H792 H 0.89472 0.63434 0.83837 0.0
C793 C 0.90508 0.6305 0.91312 0.0
C794 C 0.92196 0.63223 0.8957 0.0
H795 H 0.87203 0.62771 0.91779 0.0
H796 H 0.90767 0.6287 0.93402 0.0
C797 C 0.91776 0.6346 0.86866 0.0
C798 C 0.90585 0.13531 0.85783 0.0
C799 C 0.92204 0.13738 0.87619 0.0
H800 H 0.873 0.13299 0.85124 0.0
C801 C 0.91684 0.13749 0.90298 0.0
H802 H 0.90921 0.13508 0.83709 0.0
C803 C 0.89603 0.13684 0.91118 0.0
C804 C 0.87982 0.13536 0.89281 0.0
H805 H 0.92888 0.1392 0.91776 0.0
H806 H 0.89265 0.13792 0.93191 0.0
C807 C 0.88504 0.13396 0.86602 0.0
C808 C 0.15452 0.8946 0.66305 0.0
C809 C 0.17139 0.89837 0.64568 0.0
H810 H 0.12148 0.89128 0.66769 0.0
C811 C 0.16722 0.89967 0.61862 0.0
H812 H 0.15708 0.89339 0.68396 0.0
C813 C 0.14675 0.89883 0.60921 0.0
C814 C 0.12987 0.89622 0.6266 0.0
H815 H 0.1798 0.90257 0.6046 0.0
H816 H 0.14417 0.90107 0.58832 0.0
C817 C 0.13406 0.89331 0.65364 0.0
C818 C 0.1464 0.39233 0.66433 0.0
C819 C 0.13019 0.3892 0.64602 0.0
H820 H 0.17923 0.39573 0.67085 0.0
C821 C 0.13537 0.38816 0.61922 0.0
H822 H 0.14305 0.3933 0.68508 0.0
C823 C 0.15617 0.38898 0.61098 0.0
C824 C 0.17239 0.39161 0.62931 0.0
H825 H 0.12332 0.3856 0.60449 0.0
H826 H 0.15954 0.38719 0.59025 0.0
C827 C 0.16719 0.39388 0.65609 0.0
C828 C 0.8852 0.1363 0.40238 0.0
C829 C 0.88018 0.13699 0.37554 0.0
H830 H 0.9092 0.13586 0.43151 0.0
C831 C 0.89649 0.14038 0.35734 0.0
H832 H 0.87308 0.13363 0.41703 0.0
C833 C 0.91723 0.14222 0.36572 0.0
C834 C 0.92227 0.14009 0.39254 0.0
H835 H 0.89326 0.14111 0.33657 0.0
H836 H 0.92935 0.14409 0.35105 0.0
C837 C 0.90595 0.13753 0.41076 0.0
C838 C 0.91682 0.64437 0.4035 0.0
C839 C 0.92126 0.64284 0.3765 0.0
H840 H 0.89345 0.64578 0.43347 0.0
C841 C 0.90458 0.63863 0.35891 0.0
H842 H 0.92925 0.64764 0.4177 0.0
C843 C 0.88403 0.63709 0.36804 0.0
C844 C 0.87956 0.64023 0.395 0.0
H845 H 0.90736 0.63723 0.33804 0.0
H846 H 0.87161 0.63471 0.35381 0.0
C847 C 0.89625 0.64334 0.41262 0.0
C848 C 0.64512 0.3926 0.61095 0.0
C849 C 0.62878 0.38522 0.6289 0.0
H850 H 0.67795 0.40168 0.60518 0.0
C851 C 0.63373 0.37962 0.65566 0.0
H852 H 0.64195 0.39708 0.59025 0.0
C853 C 0.65437 0.38283 0.6643 0.0
C854 C 0.67068 0.39113 0.64641 0.0
H855 H 0.6216 0.37399 0.67014 0.0
H856 H 0.6575 0.37934 0.68505 0.0
C857 C 0.6658 0.39521 0.61958 0.0
C858 C 0.64726 0.88965 0.66494 0.0
C859 C 0.6309 0.8818 0.6471 0.0
H860 H 0.68005 0.89822 0.67063 0.0
C861 C 0.63571 0.87842 0.62023 0.0
H862 H 0.64418 0.8926 0.68572 0.0
C863 C 0.65637 0.88123 0.6115 0.0
C864 C 0.67276 0.88805 0.62938 0.0
H865 H 0.62353 0.87234 0.60587 0.0
H866 H 0.65949 0.87726 0.59076 0.0
C867 C 0.66788 0.89301 0.6562 0.0
C868 C 0.40668 0.6313 0.41286 0.0
C869 C 0.42303 0.63921 0.39497 0.0
H870 H 0.37386 0.62157 0.41852 0.0
C871 C 0.41812 0.64503 0.3682 0.0
H872 H 0.40983 0.62663 0.43356 0.0
C873 C 0.3975 0.64156 0.3595 0.0
C874 C 0.38118 0.63276 0.37733 0.0
H875 H 0.43026 0.65107 0.35377 0.0
H876 H 0.3944 0.64526 0.33875 0.0
C877 C 0.38602 0.62843 0.40416 0.0
C878 C 0.41583 0.14984 0.40429 0.0
C879 C 0.42064 0.14536 0.37744 0.0
H880 H 0.39206 0.15176 0.43379 0.0
C881 C 0.40428 0.13646 0.35969 0.0
H882 H 0.428 0.15677 0.41859 0.0
C883 C 0.38368 0.13301 0.36849 0.0
C884 C 0.37879 0.13897 0.39527 0.0
H885 H 0.40736 0.13264 0.33894 0.0
H886 H 0.37151 0.12689 0.35411 0.0
C887 C 0.39518 0.14699 0.41308 0.0
C888 C 0.65506 0.88332 0.16416 0.0
C889 C 0.67134 0.88829 0.146 0.0
H890 H 0.62223 0.878 0.17041 0.0
C891 C 0.66632 0.89041 0.11917 0.0
H892 H 0.65829 0.88146 0.18491 0.0
C893 C 0.64557 0.88895 0.11078 0.0
C894 C 0.62927 0.88465 0.12896 0.0
H895 H 0.67843 0.89435 0.10456 0.0
H896 H 0.64231 0.8917 0.09004 0.0
C897 C 0.63433 0.88119 0.15575 0.0
C898 C 0.65572 0.37763 0.10948 0.0
C899 C 0.67245 0.38191 0.12701 0.0
H900 H 0.62273 0.37203 0.10457 0.0
C901 C 0.66802 0.38572 0.15398 0.0
H902 H 0.65848 0.37463 0.08863 0.0
C903 C 0.6475 0.38375 0.16319 0.0
C904 C 0.6308 0.37843 0.1457 0.0
H905 H 0.68047 0.38901 0.16814 0.0
H906 H 0.64477 0.38575 0.18407 0.0
C907 C 0.63518 0.37617 0.11869 0.0
C908 C 0.41815 0.14325 0.86839 0.0
C909 C 0.42305 0.13732 0.89516 0.0
H910 H 0.39447 0.14359 0.8389 0.0
C911 C 0.40667 0.12935 0.91301 0.0
H912 H 0.43032 0.14934 0.85398 0.0
C913 C 0.38602 0.12649 0.90429 0.0
C914 C 0.3812 0.13093 0.87745 0.0
H915 H 0.4098 0.1246 0.93372 0.0
H916 H 0.37385 0.11958 0.91862 0.0
C917 C 0.39755 0.1398 0.85965 0.0
C918 C 0.40441 0.63392 0.85949 0.0
C919 C 0.42072 0.6427 0.8773 0.0
H920 H 0.37165 0.62444 0.85377 0.0
C921 C 0.41586 0.64701 0.90414 0.0
H922 H 0.40753 0.63023 0.83873 0.0
C923 C 0.39519 0.64414 0.91285 0.0
C924 C 0.37885 0.63627 0.89497 0.0
H925 H 0.42801 0.65385 0.91848 0.0
H926 H 0.39203 0.6488 0.93355 0.0
C927 C 0.38379 0.63045 0.8682 0.0
C928 C 0.04595 0.09977 0.1648 0.0
C929 C 0.04616 0.06092 0.1424 0.0
H930 H 0.04659 0.19489 0.18015 0.0
C931 C 0.04472 0.09022 0.1177 0.0
H932 H 0.04695 0.07879 0.18412 0.0
C933 C 0.04458 0.15694 0.1154 0.0
C934 C 0.04582 0.19574 0.13775 0.0
H935 H 0.04476 0.06172 0.10003 0.0
H936 H 0.04451 0.17793 0.09605 0.0
C937 C 0.04575 0.16644 0.1625 0.0
C938 C 0.25776 0.12352 0.11603 0.0
C939 C 0.25629 0.0844 0.13827 0.0
H940 H 0.25778 0.21898 0.10089 0.0
C941 C 0.25618 0.11336 0.16309 0.0
H942 H 0.25796 0.1028 0.09663 0.0
C943 C 0.25604 0.18 0.16555 0.0
C944 C 0.25605 0.21919 0.14325 0.0
H945 H 0.25518 0.08467 0.18066 0.0
H946 H 0.2549 0.2007 0.18491 0.0
C947 C 0.25766 0.19022 0.11849 0.0
C948 C 1.00721 0.84378 0.86605 0.0
C949 C 1.00601 0.8154 0.89093 0.0
H950 H 1.00708 0.93067 0.84386 0.0
C951 C 1.00624 0.85506 0.91309 0.0
H952 H 1.00715 0.81465 0.84855 0.0
C953 C 1.00626 0.92167 0.91038 0.0
C954 C 1.00599 0.95009 0.88545 0.0
H955 H 1.00542 0.83482 0.93255 0.0
H956 H 1.00546 0.95082 0.92786 0.0
C957 C 1.00717 0.91039 0.86334 0.0
C958 C 0.7963 0.9158 0.85893 0.0
C959 C 0.79625 0.94502 0.8837 0.0
H960 H 0.79732 0.82818 0.83728 0.0
C961 C 0.79464 0.9062 0.90601 0.0
H962 H 0.79741 0.94427 0.84131 0.0
C963 C 0.7945 0.8395 0.90367 0.0
C964 C 0.79605 0.81021 0.87897 0.0
H965 H 0.79446 0.92714 0.92537 0.0
H966 H 0.79426 0.81096 0.92132 0.0
C967 C 0.79623 0.84914 0.85659 0.0
C968 C 0.04507 0.68281 0.65659 0.0
C969 C 0.0461 0.71119 0.63169 0.0
H970 H 0.04538 0.59594 0.6788 0.0
C971 C 0.04579 0.67149 0.60954 0.0
H972 H 0.0452 0.71196 0.67408 0.0
C973 C 0.04584 0.60487 0.61227 0.0
C974 C 0.04626 0.57647 0.6372 0.0
H975 H 0.04649 0.69173 0.59008 0.0
H976 H 0.04657 0.57572 0.59479 0.0
C977 C 0.04517 0.6162 0.65932 0.0
C978 C 0.25543 0.61386 0.66363 0.0
C979 C 0.25564 0.58468 0.63885 0.0
H980 H 0.25427 0.70142 0.68531 0.0
C981 C 0.25734 0.62356 0.61657 0.0
H982 H 0.25424 0.58535 0.68123 0.0
C983 C 0.25743 0.69027 0.61894 0.0
C984 C 0.25575 0.71951 0.64363 0.0
H985 H 0.25763 0.60266 0.59721 0.0
H986 H 0.25776 0.71886 0.60129 0.0
C987 C 0.25546 0.68052 0.66599 0.0
C988 C 1.00734 0.43486 0.40418 0.0
C989 C 1.0059 0.46421 0.37949 0.0
H990 H 1.00739 0.34716 0.42583 0.0
C991 C 1.00595 0.42536 0.35709 0.0
H992 H 1.00742 0.46336 0.42185 0.0
C993 C 1.006 0.35869 0.35939 0.0
C994 C 1.00592 0.32939 0.38414 0.0
H995 H 1.00495 0.44637 0.33777 0.0
H996 H 1.00504 0.33026 0.34174 0.0
C997 C 1.00732 0.36816 0.40648 0.0
C998 C 0.795 0.359 0.36107 0.0
C999 C 0.79576 0.31938 0.38323 0.0
H1000 H 0.79533 0.45466 0.34623 0.0
C1001 C 0.795 0.34788 0.40814 0.0
H1002 H 0.79547 0.33866 0.34161 0.0
C1003 C 0.79498 0.41451 0.41081 0.0
C1004 C 0.79566 0.45408 0.38864 0.0
H1005 H 0.79547 0.3188 0.42564 0.0
H1006 H 0.79544 0.43483 0.43027 0.0
C1007 C 0.79493 0.42561 0.36374 0.0
C1008 C 0.54428 0.08471 0.61839 0.0
C1009 C 0.54593 0.05567 0.64313 0.0
H1010 H 0.54392 0.1722 0.59657 0.0
C1011 C 0.54596 0.09479 0.66545 0.0
H1012 H 0.54414 0.056 0.60078 0.0
C1013 C 0.54579 0.16143 0.66302 0.0
C1014 C 0.54564 0.19047 0.63821 0.0
H1015 H 0.54712 0.07403 0.68479 0.0
H1016 H 0.54681 0.19007 0.6806 0.0
C1017 C 0.54416 0.15142 0.61596 0.0
C1018 C 0.75715 0.18675 0.61758 0.0
C1019 C 0.7556 0.21601 0.64228 0.0
H1020 H 0.75746 0.09908 0.5959 0.0
C1021 C 0.75571 0.1771 0.66467 0.0
H1022 H 0.75719 0.2153 0.59992 0.0
C1023 C 0.75591 0.11043 0.66235 0.0
C1024 C 0.75596 0.08118 0.63759 0.0
H1025 H 0.75463 0.19803 0.68399 0.0
H1026 H 0.755 0.08194 0.67998 0.0
C1027 C 0.7573 0.12004 0.61526 0.0
C1028 C 0.50734 0.87453 0.40808 0.0
C1029 C 0.50583 0.83554 0.38581 0.0
H1030 H 0.50735 0.96989 0.42332 0.0
C1031 C 0.50557 0.86469 0.36102 0.0
H1032 H 0.50766 0.85367 0.42745 0.0
C1033 C 0.50535 0.93135 0.35864 0.0
C1034 C 0.50544 0.97039 0.38098 0.0
H1035 H 0.50453 0.83611 0.34343 0.0
H1036 H 0.50412 0.95217 0.33931 0.0
C1037 C 0.50717 0.94125 0.40569 0.0
C1038 C 0.29464 0.83663 0.40602 0.0
C1039 C 0.29637 0.80761 0.38129 0.0
H1040 H 0.29416 0.9241 0.42785 0.0
C1041 C 0.29646 0.84676 0.35897 0.0
H1042 H 0.29445 0.8079 0.42363 0.0
C1043 C 0.29625 0.91342 0.36141 0.0
C1044 C 0.29599 0.94244 0.38622 0.0
H1045 H 0.29769 0.82603 0.33963 0.0
H1046 H 0.2973 0.94208 0.34384 0.0
C1047 C 0.29447 0.90334 0.40846 0.0
C1048 C 0.54639 0.59519 0.16549 0.0
C1049 C 0.54622 0.55618 0.14313 0.0
H1050 H 0.54742 0.69039 0.18071 0.0
C1051 C 0.54456 0.58536 0.11843 0.0
H1052 H 0.54758 0.57432 0.18481 0.0
C1053 C 0.54454 0.65207 0.11605 0.0
C1054 C 0.54613 0.69101 0.13833 0.0
H1055 H 0.54432 0.55675 0.1008 0.0
H1056 H 0.54427 0.67295 0.09668 0.0
C1057 C 0.54632 0.66185 0.16311 0.0
C1058 C 0.75666 0.61034 0.11128 0.0
C1059 C 0.75591 0.57078 0.13345 0.0
H1060 H 0.75617 0.70604 0.09642 0.0
C1061 C 0.75646 0.59931 0.15835 0.0
H1062 H 0.75633 0.58998 0.09182 0.0
C1063 C 0.75631 0.66593 0.16101 0.0
C1064 C 0.75566 0.70552 0.13883 0.0
H1065 H 0.756 0.57027 0.17587 0.0
H1066 H 0.75573 0.68629 0.18046 0.0
C1067 C 0.75656 0.67698 0.11394 0.0
C1068 C 0.50744 0.37243 0.90829 0.0
C1069 C 0.50594 0.33339 0.88603 0.0
H1070 H 0.50744 0.46782 0.92349 0.0
C1071 C 0.50572 0.36247 0.86123 0.0
H1072 H 0.50772 0.35161 0.92767 0.0
C1073 C 0.50552 0.42912 0.85882 0.0
C1074 C 0.50558 0.46822 0.88115 0.0
H1075 H 0.50469 0.33385 0.84365 0.0
H1076 H 0.50431 0.4499 0.83948 0.0
C1077 C 0.50728 0.43914 0.90587 0.0
C1078 C 0.29643 0.34457 0.85881 0.0
C1079 C 0.29635 0.30555 0.88117 0.0
H1080 H 0.29726 0.43979 0.84358 0.0
C1081 C 0.29462 0.33471 0.90587 0.0
H1082 H 0.29765 0.32373 0.83949 0.0
C1083 C 0.29446 0.40143 0.90824 0.0
C1084 C 0.29597 0.44039 0.88596 0.0
H1085 H 0.29445 0.30608 0.92351 0.0
H1086 H 0.29415 0.42231 0.92761 0.0
C1087 C 0.29621 0.41123 0.86118 0.0
loop_
_geom_bond_atom_site_label_1
_geom_bond_atom_site_label_2
_geom_bond_distance
_geom_bond_site_symmetry_2
_ccdc_geom_bond_type
O0 Cd1 2.223 . S
O0 C8 1.315 . S
Cd1 O0 2.223 . S
Cd1 O4 2.297 . S
Cd1 O5 2.439 . S
Cd1 O11 2.240 . S
Cd2 O3 2.240 . S
Cd2 O10 2.223 . S
Cd2 O12 2.297 . S
Cd2 O13 2.439 . S
O3 Cd2 2.240 . S
O3 C8 1.279 . S
O4 Cd1 2.297 . S
O4 C6 1.247 . S
O5 Cd1 2.439 . S
O5 C6 1.208 . S
C6 O4 1.247 . S
C6 O5 1.208 . S
C7 O12 1.247 . S
C7 O13 1.208 . S
C8 O0 1.315 . S
C8 O3 1.279 . S
C9 O10 1.315 . S
C9 O11 1.279 . S
O10 Cd2 2.223 . S
O10 C9 1.315 . S
O11 Cd1 2.240 . S
O11 C9 1.279 . S
O12 Cd2 2.297 . S
O12 C7 1.247 . S
O13 Cd2 2.439 . S
O13 C7 1.208 . S
O14 Cd15 2.223 . S
O14 C22 1.315 . S
Cd15 O14 2.223 . S
Cd15 O18 2.297 . S
Cd15 O19 2.439 . S
Cd15 O25 2.240 . S
Cd16 O17 2.240 . S
Cd16 O24 2.223 . S
Cd16 O26 2.297 . S
Cd16 O27 2.439 . S
O17 Cd16 2.240 . S
O17 C22 1.279 . S
O18 Cd15 2.297 . S
O18 C20 1.247 . S
O19 Cd15 2.439 . S
O19 C20 1.208 . S
C20 O18 1.247 . S
C20 O19 1.208 . S
C21 O26 1.247 . S
C21 O27 1.208 . S
C22 O14 1.315 . S
C22 O17 1.279 . S
C23 O24 1.315 . S
C23 O25 1.279 . S
O24 Cd16 2.223 . S
O24 C23 1.315 . S
O25 Cd15 2.240 . S
O25 C23 1.279 . S
O26 Cd16 2.297 . S
O26 C21 1.247 . S
O27 Cd16 2.439 . S
O27 C21 1.208 . S
O28 Cd29 2.223 . S
O28 C36 1.315 . S
Cd29 O28 2.223 . S
Cd29 O32 2.297 . S
Cd29 O33 2.439 . S
Cd29 O39 2.240 . S
Cd30 O31 2.240 . S
Cd30 O38 2.223 . S
Cd30 O40 2.297 . S
Cd30 O41 2.439 . S
O31 Cd30 2.240 . S
O31 C36 1.279 . S
O32 Cd29 2.297 . S
O32 C34 1.247 . S
O33 Cd29 2.439 . S
O33 C34 1.208 . S
C34 O32 1.247 . S
C34 O33 1.208 . S
C35 O40 1.247 . S
C35 O41 1.208 . S
C36 O28 1.315 . S
C36 O31 1.279 . S
C37 O38 1.315 . S
C37 O39 1.279 . S
O38 Cd30 2.223 . S
O38 C37 1.315 . S
O39 Cd29 2.240 . S
O39 C37 1.279 . S
O40 Cd30 2.297 . S
O40 C35 1.247 . S
O41 Cd30 2.439 . S
O41 C35 1.208 . S
O42 Cd43 2.223 . S
O42 C50 1.315 . S
Cd43 O42 2.223 . S
Cd43 O46 2.297 . S
Cd43 O47 2.439 . S
Cd43 O53 2.240 . S
Cd44 O45 2.240 . S
Cd44 O52 2.223 . S
Cd44 O54 2.297 . S
Cd44 O55 2.439 . S
O45 Cd44 2.240 . S
O45 C50 1.279 . S
O46 Cd43 2.297 . S
O46 C48 1.247 . S
O47 Cd43 2.439 . S
O47 C48 1.208 . S
C48 O46 1.247 . S
C48 O47 1.208 . S
C49 O54 1.247 . S
C49 O55 1.208 . S
C50 O42 1.315 . S
C50 O45 1.279 . S
C51 O52 1.315 . S
C51 O53 1.279 . S
O52 Cd44 2.223 . S
O52 C51 1.315 . S
O53 Cd43 2.240 . S
O53 C51 1.279 . S
O54 Cd44 2.297 . S
O54 C49 1.247 . S
O55 Cd44 2.439 . S
O55 C49 1.208 . S
O56 Cd57 2.223 . S
O56 C64 1.315 . S
Cd57 O56 2.223 . S
Cd57 O60 2.297 . S
Cd57 O61 2.439 . S
Cd57 O67 2.240 . S
Cd58 O59 2.240 . S
Cd58 O66 2.223 . S
Cd58 O68 2.297 . S
Cd58 O69 2.439 . S
O59 Cd58 2.240 . S
O59 C64 1.279 . S
O60 Cd57 2.297 . S
O60 C62 1.247 . S
O61 Cd57 2.439 . S
O61 C62 1.208 . S
C62 O60 1.247 . S
C62 O61 1.208 . S
C63 O68 1.247 . S
C63 O69 1.208 . S
C64 O56 1.315 . S
C64 O59 1.279 . S
C65 O66 1.315 . S
C65 O67 1.279 . S
O66 Cd58 2.223 . S
O66 C65 1.315 . S
O67 Cd57 2.240 . S
O67 C65 1.279 . S
O68 Cd58 2.297 . S
O68 C63 1.247 . S
O69 Cd58 2.439 . S
O69 C63 1.208 . S
O70 Cd71 2.223 . S
O70 C78 1.315 . S
Cd71 O70 2.223 . S
Cd71 O74 2.297 . S
Cd71 O75 2.439 . S
Cd71 O81 2.240 . S
Cd72 O73 2.240 . S
Cd72 O80 2.223 . S
Cd72 O82 2.297 . S
Cd72 O83 2.439 . S
O73 Cd72 2.240 . S
O73 C78 1.279 . S
O74 Cd71 2.297 . S
O74 C76 1.247 . S
O75 Cd71 2.439 . S
O75 C76 1.208 . S
C76 O74 1.247 . S
C76 O75 1.208 . S
C77 O82 1.247 . S
C77 O83 1.208 . S
C78 O70 1.315 . S
C78 O73 1.279 . S
C79 O80 1.315 . S
C79 O81 1.279 . S
O80 Cd72 2.223 . S
O80 C79 1.315 . S
O81 Cd71 2.240 . S
O81 C79 1.279 . S
O82 Cd72 2.297 . S
O82 C77 1.247 . S
O83 Cd72 2.439 . S
O83 C77 1.208 . S
O84 Cd85 2.223 . S
O84 C92 1.315 . S
Cd85 O84 2.223 . S
Cd85 O88 2.297 . S
Cd85 O89 2.439 . S
Cd85 O95 2.240 . S
Cd86 O87 2.240 . S
Cd86 O94 2.223 . S
Cd86 O96 2.297 . S
Cd86 O97 2.439 . S
O87 Cd86 2.240 . S
O87 C92 1.279 . S
O88 Cd85 2.297 . S
O88 C90 1.247 . S
O89 Cd85 2.439 . S
O89 C90 1.208 . S
C90 O88 1.247 . S
C90 O89 1.208 . S
C91 O96 1.247 . S
C91 O97 1.208 . S
C92 O84 1.315 . S
C92 O87 1.279 . S
C93 O94 1.315 . S
C93 O95 1.279 . S
O94 Cd86 2.223 . S
O94 C93 1.315 . S
O95 Cd85 2.240 . S
O95 C93 1.279 . S
O96 Cd86 2.297 . S
O96 C91 1.247 . S
O97 Cd86 2.439 . S
O97 C91 1.208 . S
O98 Cd99 2.223 . S
O98 C106 1.315 . S
Cd99 O98 2.223 . S
Cd99 O102 2.297 . S
Cd99 O103 2.439 . S
Cd99 O109 2.240 . S
Cd100 O101 2.240 . S
Cd100 O108 2.223 . S
Cd100 O110 2.297 . S
Cd100 O111 2.439 . S
O101 Cd100 2.240 . S
O101 C106 1.279 . S
O102 Cd99 2.297 . S
O102 C104 1.247 . S
O103 Cd99 2.439 . S
O103 C104 1.208 . S
C104 O102 1.247 . S
C104 O103 1.208 . S
C105 O110 1.247 . S
C105 O111 1.208 . S
C106 O98 1.315 . S
C106 O101 1.279 . S
C107 O108 1.315 . S
C107 O109 1.279 . S
O108 Cd100 2.223 . S
O108 C107 1.315 . S
O109 Cd99 2.240 . S
O109 C107 1.279 . S
O110 Cd100 2.297 . S
O110 C105 1.247 . S
O111 Cd100 2.439 . S
O111 C105 1.208 . S
O112 Cd113 2.223 1_545 S
O112 C120 1.315 . S
Cd113 O112 2.223 1_565 S
Cd113 O116 2.297 1_565 S
Cd113 O117 2.439 . S
Cd113 O123 2.240 . S
Cd114 O115 2.240 . S
Cd114 O122 2.223 . S
Cd114 O124 2.297 . S
Cd114 O125 2.439 . S
O115 Cd114 2.240 . S
O115 C120 1.279 1_565 S
O116 Cd113 2.297 1_545 S
O116 C118 1.247 1_545 S
O117 Cd113 2.439 . S
O117 C118 1.208 . S
C118 O116 1.247 1_565 S
C118 O117 1.208 . S
C119 O124 1.247 . S
C119 O125 1.208 . S
C120 O112 1.315 . S
C120 O115 1.279 1_545 S
C121 O122 1.315 . S
C121 O123 1.279 . S
O122 Cd114 2.223 . S
O122 C121 1.315 . S
O123 Cd113 2.240 . S
O123 C121 1.279 . S
O124 Cd114 2.297 . S
O124 C119 1.247 . S
O125 Cd114 2.439 . S
O125 C119 1.208 . S
O126 Cd127 2.223 . S
O126 C134 1.315 . S
Cd127 O126 2.223 . S
Cd127 O130 2.297 . S
Cd127 O131 2.439 . S
Cd127 O137 2.240 . S
Cd128 O129 2.240 . S
Cd128 O136 2.223 . S
Cd128 O138 2.297 . S
Cd128 O139 2.439 . S
O129 Cd128 2.240 . S
O129 C134 1.279 . S
O130 Cd127 2.297 . S
O130 C132 1.247 . S
O131 Cd127 2.439 . S
O131 C132 1.208 . S
C132 O130 1.247 . S
C132 O131 1.208 . S
C133 O138 1.247 . S
C133 O139 1.208 . S
C134 O126 1.315 . S
C134 O129 1.279 . S
C135 O136 1.315 . S
C135 O137 1.279 . S
O136 Cd128 2.223 . S
O136 C135 1.315 . S
O137 Cd127 2.240 . S
O137 C135 1.279 . S
O138 Cd128 2.297 . S
O138 C133 1.247 . S
O139 Cd128 2.439 . S
O139 C133 1.208 . S
O140 Cd141 2.223 . S
O140 C148 1.315 . S
Cd141 O140 2.223 . S
Cd141 O144 2.297 . S
Cd141 O145 2.439 . S
Cd141 O151 2.240 . S
Cd142 O143 2.240 . S
Cd142 O150 2.223 . S
Cd142 O152 2.297 . S
Cd142 O153 2.439 . S
O143 Cd142 2.240 . S
O143 C148 1.279 . S
O144 Cd141 2.297 . S
O144 C146 1.247 . S
O145 Cd141 2.439 . S
O145 C146 1.208 . S
C146 O144 1.247 . S
C146 O145 1.208 . S
C147 O152 1.247 . S
C147 O153 1.208 . S
C148 O140 1.315 . S
C148 O143 1.279 . S
C149 O150 1.315 . S
C149 O151 1.279 . S
O150 Cd142 2.223 . S
O150 C149 1.315 . S
O151 Cd141 2.240 . S
O151 C149 1.279 . S
O152 Cd142 2.297 . S
O152 C147 1.247 . S
O153 Cd142 2.439 . S
O153 C147 1.208 . S
O154 Cd155 2.223 1_545 S
O154 C162 1.315 . S
Cd155 O154 2.223 1_565 S
Cd155 O158 2.297 1_565 S
Cd155 O159 2.439 . S
Cd155 O165 2.240 . S
Cd156 O157 2.240 . S
Cd156 O164 2.223 . S
Cd156 O166 2.297 . S
Cd156 O167 2.439 . S
O157 Cd156 2.240 . S
O157 C162 1.279 1_565 S
O158 Cd155 2.297 1_545 S
O158 C160 1.247 1_545 S
O159 Cd155 2.439 . S
O159 C160 1.208 . S
C160 O158 1.247 1_565 S
C160 O159 1.208 . S
C161 O166 1.247 . S
C161 O167 1.208 . S
C162 O154 1.315 . S
C162 O157 1.279 1_545 S
C163 O164 1.315 . S
C163 O165 1.279 . S
O164 Cd156 2.223 . S
O164 C163 1.315 . S
O165 Cd155 2.240 . S
O165 C163 1.279 . S
O166 Cd156 2.297 . S
O166 C161 1.247 . S
O167 Cd156 2.439 . S
O167 C161 1.208 . S
O168 Cd169 2.223 1_565 S
O168 C176 1.315 . S
Cd169 O168 2.223 1_545 S
Cd169 O172 2.297 1_545 S
Cd169 O173 2.439 . S
Cd169 O179 2.240 . S
Cd170 O171 2.240 . S
Cd170 O178 2.223 . S
Cd170 O180 2.297 . S
Cd170 O181 2.439 . S
O171 Cd170 2.240 . S
O171 C176 1.279 1_545 S
O172 Cd169 2.297 1_565 S
O172 C174 1.247 1_565 S
O173 Cd169 2.439 . S
O173 C174 1.208 . S
C174 O172 1.247 1_545 S
C174 O173 1.208 . S
C175 O180 1.247 . S
C175 O181 1.208 . S
C176 O168 1.315 . S
C176 O171 1.279 1_565 S
C177 O178 1.315 . S
C177 O179 1.279 . S
O178 Cd170 2.223 . S
O178 C177 1.315 . S
O179 Cd169 2.240 . S
O179 C177 1.279 . S
O180 Cd170 2.297 . S
O180 C175 1.247 . S
O181 Cd170 2.439 . S
O181 C175 1.208 . S
O182 Cd183 2.223 . S
O182 C190 1.315 . S
Cd183 O182 2.223 . S
Cd183 O186 2.297 . S
Cd183 O187 2.439 . S
Cd183 O193 2.240 . S
Cd184 O185 2.240 . S
Cd184 O192 2.223 . S
Cd184 O194 2.297 . S
Cd184 O195 2.439 . S
O185 Cd184 2.240 . S
O185 C190 1.279 . S
O186 Cd183 2.297 . S
O186 C188 1.247 . S
O187 Cd183 2.439 . S
O187 C188 1.208 . S
C188 O186 1.247 . S
C188 O187 1.208 . S
C189 O194 1.247 . S
C189 O195 1.208 . S
C190 O182 1.315 . S
C190 O185 1.279 . S
C191 O192 1.315 . S
C191 O193 1.279 . S
O192 Cd184 2.223 . S
O192 C191 1.315 . S
O193 Cd183 2.240 . S
O193 C191 1.279 . S
O194 Cd184 2.297 . S
O194 C189 1.247 . S
O195 Cd184 2.439 . S
O195 C189 1.208 . S
O196 Cd197 2.223 . S
O196 C204 1.315 . S
Cd197 O196 2.223 . S
Cd197 O200 2.297 . S
Cd197 O201 2.439 . S
Cd197 O207 2.240 . S
Cd198 O199 2.240 . S
Cd198 O206 2.223 . S
Cd198 O208 2.297 . S
Cd198 O209 2.439 . S
O199 Cd198 2.240 . S
O199 C204 1.279 . S
O200 Cd197 2.297 . S
O200 C202 1.247 . S
O201 Cd197 2.439 . S
O201 C202 1.208 . S
C202 O200 1.247 . S
C202 O201 1.208 . S
C203 O208 1.247 . S
C203 O209 1.208 . S
C204 O196 1.315 . S
C204 O199 1.279 . S
C205 O206 1.315 . S
C205 O207 1.279 . S
O206 Cd198 2.223 . S
O206 C205 1.315 . S
O207 Cd197 2.240 . S
O207 C205 1.279 . S
O208 Cd198 2.297 . S
O208 C203 1.247 . S
O209 Cd198 2.439 . S
O209 C203 1.208 . S
O210 Cd211 2.223 1_565 S
O210 C218 1.315 . S
Cd211 O210 2.223 1_545 S
Cd211 O214 2.297 1_545 S
Cd211 O215 2.439 . S
Cd211 O221 2.240 . S
Cd212 O213 2.240 . S
Cd212 O220 2.223 . S
Cd212 O222 2.297 . S
Cd212 O223 2.439 . S
O213 Cd212 2.240 . S
O213 C218 1.279 1_545 S
O214 Cd211 2.297 1_565 S
O214 C216 1.247 1_565 S
O215 Cd211 2.439 . S
O215 C216 1.208 . S
C216 O214 1.247 1_545 S
C216 O215 1.208 . S
C217 O222 1.247 . S
C217 O223 1.208 . S
C218 O210 1.315 . S
C218 O213 1.279 1_565 S
C219 O220 1.315 . S
C219 O221 1.279 . S
O220 Cd212 2.223 . S
O220 C219 1.315 . S
O221 Cd211 2.240 . S
O221 C219 1.279 . S
O222 Cd212 2.297 . S
O222 C217 1.247 . S
O223 Cd212 2.439 . S
O223 C217 1.208 . S
O224 Cd225 2.223 . S
O224 C232 1.315 . S
Cd225 O224 2.223 . S
Cd225 O228 2.297 . S
Cd225 O229 2.439 . S
Cd225 O235 2.240 . S
Cd226 O227 2.240 . S
Cd226 O234 2.223 . S
Cd226 O236 2.297 . S
Cd226 O237 2.439 . S
O227 Cd226 2.240 . S
O227 C232 1.279 . S
O228 Cd225 2.297 . S
O228 C230 1.247 . S
O229 Cd225 2.439 . S
O229 C230 1.208 . S
C230 O228 1.247 . S
C230 O229 1.208 . S
C231 O236 1.247 . S
C231 O237 1.208 . S
C232 O224 1.315 . S
C232 O227 1.279 . S
C233 O234 1.315 . S
C233 O235 1.279 . S
O234 Cd226 2.223 . S
O234 C233 1.315 . S
O235 Cd225 2.240 . S
O235 C233 1.279 . S
O236 Cd226 2.297 . S
O236 C231 1.247 . S
O237 Cd226 2.439 . S
O237 C231 1.208 . S
O238 Cd239 2.223 . S
O238 C246 1.315 . S
Cd239 O238 2.223 . S
Cd239 O242 2.297 . S
Cd239 O243 2.439 . S
Cd239 O249 2.240 . S
Cd240 O241 2.240 . S
Cd240 O248 2.223 . S
Cd240 O250 2.297 . S
Cd240 O251 2.439 . S
O241 Cd240 2.240 . S
O241 C246 1.279 . S
O242 Cd239 2.297 . S
O242 C244 1.247 . S
O243 Cd239 2.439 . S
O243 C244 1.208 . S
C244 O242 1.247 . S
C244 O243 1.208 . S
C245 O250 1.247 . S
C245 O251 1.208 . S
C246 O238 1.315 . S
C246 O241 1.279 . S
C247 O248 1.315 . S
C247 O249 1.279 . S
O248 Cd240 2.223 . S
O248 C247 1.315 . S
O249 Cd239 2.240 . S
O249 C247 1.279 . S
O250 Cd240 2.297 . S
O250 C245 1.247 . S
O251 Cd240 2.439 . S
O251 C245 1.208 . S
O252 Cd253 2.223 . S
O252 C260 1.315 . S
Cd253 O252 2.223 . S
Cd253 O256 2.297 . S
Cd253 O257 2.439 . S
Cd253 O263 2.240 . S
Cd254 O255 2.240 . S
Cd254 O262 2.223 . S
Cd254 O264 2.297 . S
Cd254 O265 2.439 . S
O255 Cd254 2.240 . S
O255 C260 1.279 . S
O256 Cd253 2.297 . S
O256 C258 1.247 . S
O257 Cd253 2.439 . S
O257 C258 1.208 . S
C258 O256 1.247 . S
C258 O257 1.208 . S
C259 O264 1.247 . S
C259 O265 1.208 . S
C260 O252 1.315 . S
C260 O255 1.279 . S
C261 O262 1.315 . S
C261 O263 1.279 . S
O262 Cd254 2.223 . S
O262 C261 1.315 . S
O263 Cd253 2.240 . S
O263 C261 1.279 . S
O264 Cd254 2.297 . S
O264 C259 1.247 . S
O265 Cd254 2.439 . S
O265 C259 1.208 . S
O266 Cd267 2.223 . S
O266 C274 1.315 . S
Cd267 O266 2.223 . S
Cd267 O270 2.297 . S
Cd267 O271 2.439 . S
Cd267 O277 2.240 . S
Cd268 O269 2.240 . S
Cd268 O276 2.223 . S
Cd268 O278 2.297 . S
Cd268 O279 2.439 . S
O269 Cd268 2.240 . S
O269 C274 1.279 . S
O270 Cd267 2.297 . S
O270 C272 1.247 . S
O271 Cd267 2.439 . S
O271 C272 1.208 . S
C272 O270 1.247 . S
C272 O271 1.208 . S
C273 O278 1.247 . S
C273 O279 1.208 . S
C274 O266 1.315 . S
C274 O269 1.279 . S
C275 O276 1.315 . S
C275 O277 1.279 . S
O276 Cd268 2.223 . S
O276 C275 1.315 . S
O277 Cd267 2.240 . S
O277 C275 1.279 . S
O278 Cd268 2.297 . S
O278 C273 1.247 . S
O279 Cd268 2.439 . S
O279 C273 1.208 . S
O280 Cd281 2.223 . S
O280 C288 1.315 . S
Cd281 O280 2.223 . S
Cd281 O284 2.297 . S
Cd281 O285 2.439 . S
Cd281 O291 2.240 . S
Cd282 O283 2.240 . S
Cd282 O290 2.223 . S
Cd282 O292 2.297 . S
Cd282 O293 2.439 . S
O283 Cd282 2.240 . S
O283 C288 1.279 . S
O284 Cd281 2.297 . S
O284 C286 1.247 . S
O285 Cd281 2.439 . S
O285 C286 1.208 . S
C286 O284 1.247 . S
C286 O285 1.208 . S
C287 O292 1.247 . S
C287 O293 1.208 . S
C288 O280 1.315 . S
C288 O283 1.279 . S
C289 O290 1.315 . S
C289 O291 1.279 . S
O290 Cd282 2.223 . S
O290 C289 1.315 . S
O291 Cd281 2.240 . S
O291 C289 1.279 . S
O292 Cd282 2.297 . S
O292 C287 1.247 . S
O293 Cd282 2.439 . S
O293 C287 1.208 . S
O294 Cd295 2.223 . S
O294 C302 1.315 . S
Cd295 O294 2.223 . S
Cd295 O298 2.297 . S
Cd295 O299 2.439 . S
Cd295 O305 2.240 . S
Cd296 O297 2.240 . S
Cd296 O304 2.223 . S
Cd296 O306 2.297 . S
Cd296 O307 2.439 . S
O297 Cd296 2.240 . S
O297 C302 1.279 . S
O298 Cd295 2.297 . S
O298 C300 1.247 . S
O299 Cd295 2.439 . S
O299 C300 1.208 . S
C300 O298 1.247 . S
C300 O299 1.208 . S
C301 O306 1.247 . S
C301 O307 1.208 . S
C302 O294 1.315 . S
C302 O297 1.279 . S
C303 O304 1.315 . S
C303 O305 1.279 . S
O304 Cd296 2.223 . S
O304 C303 1.315 . S
O305 Cd295 2.240 . S
O305 C303 1.279 . S
O306 Cd296 2.297 . S
O306 C301 1.247 . S
O307 Cd296 2.439 . S
O307 C301 1.208 . S
O308 Cd309 2.223 . S
O308 C316 1.315 . S
Cd309 O308 2.223 . S
Cd309 O312 2.297 . S
Cd309 O313 2.439 . S
Cd309 O319 2.240 . S
Cd310 O311 2.240 . S
Cd310 O318 2.223 . S
Cd310 O320 2.297 . S
Cd310 O321 2.439 . S
O311 Cd310 2.240 . S
O311 C316 1.279 . S
O312 Cd309 2.297 . S
O312 C314 1.247 . S
O313 Cd309 2.439 . S
O313 C314 1.208 . S
C314 O312 1.247 . S
C314 O313 1.208 . S
C315 O320 1.247 . S
C315 O321 1.208 . S
C316 O308 1.315 . S
C316 O311 1.279 . S
C317 O318 1.315 . S
C317 O319 1.279 . S
O318 Cd310 2.223 . S
O318 C317 1.315 . S
O319 Cd309 2.240 . S
O319 C317 1.279 . S
O320 Cd310 2.297 . S
O320 C315 1.247 . S
O321 Cd310 2.439 . S
O321 C315 1.208 . S
O322 Cd323 2.223 . S
O322 C330 1.315 . S
Cd323 O322 2.223 . S
Cd323 O326 2.297 . S
Cd323 O327 2.439 . S
Cd323 O333 2.240 . S
Cd324 O325 2.240 . S
Cd324 O332 2.223 . S
Cd324 O334 2.297 . S
Cd324 O335 2.439 . S
O325 Cd324 2.240 . S
O325 C330 1.279 . S
O326 Cd323 2.297 . S
O326 C328 1.247 . S
O327 Cd323 2.439 . S
O327 C328 1.208 . S
C328 O326 1.247 . S
C328 O327 1.208 . S
C329 O334 1.247 . S
C329 O335 1.208 . S
C330 O322 1.315 . S
C330 O325 1.279 . S
C331 O332 1.315 . S
C331 O333 1.279 . S
O332 Cd324 2.223 . S
O332 C331 1.315 . S
O333 Cd323 2.240 . S
O333 C331 1.279 . S
O334 Cd324 2.297 . S
O334 C329 1.247 . S
O335 Cd324 2.439 . S
O335 C329 1.208 . S
O336 Cd337 2.223 1_545 S
O336 C344 1.315 . S
Cd337 O336 2.223 1_565 S
Cd337 O340 2.297 1_565 S
Cd337 O341 2.439 . S
Cd337 O347 2.240 . S
Cd338 O339 2.240 . S
Cd338 O346 2.223 . S
Cd338 O348 2.297 . S
Cd338 O349 2.439 . S
O339 Cd338 2.240 . S
O339 C344 1.279 1_565 S
O340 Cd337 2.297 1_545 S
O340 C342 1.247 1_545 S
O341 Cd337 2.439 . S
O341 C342 1.208 . S
C342 O340 1.247 1_565 S
C342 O341 1.208 . S
C343 O348 1.247 . S
C343 O349 1.208 . S
C344 O336 1.315 . S
C344 O339 1.279 1_545 S
C345 O346 1.315 . S
C345 O347 1.279 . S
O346 Cd338 2.223 . S
O346 C345 1.315 . S
O347 Cd337 2.240 . S
O347 C345 1.279 . S
O348 Cd338 2.297 . S
O348 C343 1.247 . S
O349 Cd338 2.439 . S
O349 C343 1.208 . S
O350 Cd351 2.223 . S
O350 C358 1.315 . S
Cd351 O350 2.223 . S
Cd351 O354 2.297 . S
Cd351 O355 2.439 . S
Cd351 O361 2.240 . S
Cd352 O353 2.240 . S
Cd352 O360 2.223 . S
Cd352 O362 2.297 . S
Cd352 O363 2.439 . S
O353 Cd352 2.240 . S
O353 C358 1.279 . S
O354 Cd351 2.297 . S
O354 C356 1.247 . S
O355 Cd351 2.439 . S
O355 C356 1.208 . S
C356 O354 1.247 . S
C356 O355 1.208 . S
C357 O362 1.247 . S
C357 O363 1.208 . S
C358 O350 1.315 . S
C358 O353 1.279 . S
C359 O360 1.315 . S
C359 O361 1.279 . S
O360 Cd352 2.223 . S
O360 C359 1.315 . S
O361 Cd351 2.240 . S
O361 C359 1.279 . S
O362 Cd352 2.297 . S
O362 C357 1.247 . S
O363 Cd352 2.439 . S
O363 C357 1.208 . S
O364 Cd365 2.223 . S
O364 C372 1.315 . S
Cd365 O364 2.223 . S
Cd365 O368 2.297 . S
Cd365 O369 2.439 . S
Cd365 O375 2.240 . S
Cd366 O367 2.240 . S
Cd366 O374 2.223 . S
Cd366 O376 2.297 . S
Cd366 O377 2.439 . S
O367 Cd366 2.240 . S
O367 C372 1.279 . S
O368 Cd365 2.297 . S
O368 C370 1.247 . S
O369 Cd365 2.439 . S
O369 C370 1.208 . S
C370 O368 1.247 . S
C370 O369 1.208 . S
C371 O376 1.247 . S
C371 O377 1.208 . S
C372 O364 1.315 . S
C372 O367 1.279 . S
C373 O374 1.315 . S
C373 O375 1.279 . S
O374 Cd366 2.223 . S
O374 C373 1.315 . S
O375 Cd365 2.240 . S
O375 C373 1.279 . S
O376 Cd366 2.297 . S
O376 C371 1.247 . S
O377 Cd366 2.439 . S
O377 C371 1.208 . S
O378 Cd379 2.223 1_545 S
O378 C386 1.315 . S
Cd379 O378 2.223 1_565 S
Cd379 O382 2.297 1_565 S
Cd379 O383 2.439 . S
Cd379 O389 2.240 . S
Cd380 O381 2.240 . S
Cd380 O388 2.223 . S
Cd380 O390 2.297 . S
Cd380 O391 2.439 . S
O381 Cd380 2.240 . S
O381 C386 1.279 1_565 S
O382 Cd379 2.297 1_545 S
O382 C384 1.247 1_545 S
O383 Cd379 2.439 . S
O383 C384 1.208 . S
C384 O382 1.247 1_565 S
C384 O383 1.208 . S
C385 O390 1.247 . S
C385 O391 1.208 . S
C386 O378 1.315 . S
C386 O381 1.279 1_545 S
C387 O388 1.315 . S
C387 O389 1.279 . S
O388 Cd380 2.223 . S
O388 C387 1.315 . S
O389 Cd379 2.240 . S
O389 C387 1.279 . S
O390 Cd380 2.297 . S
O390 C385 1.247 . S
O391 Cd380 2.439 . S
O391 C385 1.208 . S
O392 Cd393 2.223 1_565 S
O392 C400 1.315 . S
Cd393 O392 2.223 1_545 S
Cd393 O396 2.297 1_545 S
Cd393 O397 2.439 . S
Cd393 O403 2.240 . S
Cd394 O395 2.240 . S
Cd394 O402 2.223 . S
Cd394 O404 2.297 . S
Cd394 O405 2.439 . S
O395 Cd394 2.240 . S
O395 C400 1.279 1_545 S
O396 Cd393 2.297 1_565 S
O396 C398 1.247 1_565 S
O397 Cd393 2.439 . S
O397 C398 1.208 . S
C398 O396 1.247 1_545 S
C398 O397 1.208 . S
C399 O404 1.247 . S
C399 O405 1.208 . S
C400 O392 1.315 . S
C400 O395 1.279 1_565 S
C401 O402 1.315 . S
C401 O403 1.279 . S
O402 Cd394 2.223 . S
O402 C401 1.315 . S
O403 Cd393 2.240 . S
O403 C401 1.279 . S
O404 Cd394 2.297 . S
O404 C399 1.247 . S
O405 Cd394 2.439 . S
O405 C399 1.208 . S
O406 Cd407 2.223 . S
O406 C414 1.315 . S
Cd407 O406 2.223 . S
Cd407 O410 2.297 . S
Cd407 O411 2.439 . S
Cd407 O417 2.240 . S
Cd408 O409 2.240 . S
Cd408 O416 2.223 . S
Cd408 O418 2.297 . S
Cd408 O419 2.439 . S
O409 Cd408 2.240 . S
O409 C414 1.279 . S
O410 Cd407 2.297 . S
O410 C412 1.247 . S
O411 Cd407 2.439 . S
O411 C412 1.208 . S
C412 O410 1.247 . S
C412 O411 1.208 . S
C413 O418 1.247 . S
C413 O419 1.208 . S
C414 O406 1.315 . S
C414 O409 1.279 . S
C415 O416 1.315 . S
C415 O417 1.279 . S
O416 Cd408 2.223 . S
O416 C415 1.315 . S
O417 Cd407 2.240 . S
O417 C415 1.279 . S
O418 Cd408 2.297 . S
O418 C413 1.247 . S
O419 Cd408 2.439 . S
O419 C413 1.208 . S
O420 Cd421 2.223 . S
O420 C428 1.315 . S
Cd421 O420 2.223 . S
Cd421 O424 2.297 . S
Cd421 O425 2.439 . S
Cd421 O431 2.240 . S
Cd422 O423 2.240 . S
Cd422 O430 2.223 . S
Cd422 O432 2.297 . S
Cd422 O433 2.439 . S
O423 Cd422 2.240 . S
O423 C428 1.279 . S
O424 Cd421 2.297 . S
O424 C426 1.247 . S
O425 Cd421 2.439 . S
O425 C426 1.208 . S
C426 O424 1.247 . S
C426 O425 1.208 . S
C427 O432 1.247 . S
C427 O433 1.208 . S
C428 O420 1.315 . S
C428 O423 1.279 . S
C429 O430 1.315 . S
C429 O431 1.279 . S
O430 Cd422 2.223 . S
O430 C429 1.315 . S
O431 Cd421 2.240 . S
O431 C429 1.279 . S
O432 Cd422 2.297 . S
O432 C427 1.247 . S
O433 Cd422 2.439 . S
O433 C427 1.208 . S
O434 Cd435 2.223 1_565 S
O434 C442 1.315 . S
Cd435 O434 2.223 1_545 S
Cd435 O438 2.297 1_545 S
Cd435 O439 2.439 . S
Cd435 O445 2.240 . S
Cd436 O437 2.240 . S
Cd436 O444 2.223 . S
Cd436 O446 2.297 . S
Cd436 O447 2.439 . S
O437 Cd436 2.240 . S
O437 C442 1.279 1_545 S
O438 Cd435 2.297 1_565 S
O438 C440 1.247 1_565 S
O439 Cd435 2.439 . S
O439 C440 1.208 . S
C440 O438 1.247 1_545 S
C440 O439 1.208 . S
C441 O446 1.247 . S
C441 O447 1.208 . S
C442 O434 1.315 . S
C442 O437 1.279 1_565 S
C443 O444 1.315 . S
C443 O445 1.279 . S
O444 Cd436 2.223 . S
O444 C443 1.315 . S
O445 Cd435 2.240 . S
O445 C443 1.279 . S
O446 Cd436 2.297 . S
O446 C441 1.247 . S
O447 Cd436 2.439 . S
O447 C441 1.208 . S
C448 C449 1.387 . S
C448 H452 0.950 . S
C448 C457 1.390 . S
C449 C448 1.387 . S
C449 C451 1.387 . S
H450 C457 0.950 . S
C451 C449 1.387 . S
C451 C453 1.390 . S
C451 H455 0.950 . S
H452 C448 0.950 . S
C453 C451 1.390 . S
C453 C454 1.387 . S
C453 H456 0.950 . S
C454 C453 1.387 . S
C454 C457 1.387 . S
H455 C451 0.950 . S
H456 C453 0.950 . S
C457 C448 1.390 . S
C457 H450 0.950 . S
C457 C454 1.387 . S
C458 C459 1.387 . S
C458 H462 0.950 . S
C458 C467 1.390 . S
C459 C458 1.387 . S
C459 C461 1.387 . S
H460 C467 0.950 . S
C461 C459 1.387 . S
C461 C463 1.390 . S
C461 H465 0.950 . S
H462 C458 0.950 . S
C463 C461 1.390 . S
C463 C464 1.387 . S
C463 H466 0.950 . S
C464 C463 1.387 . S
C464 C467 1.387 . S
H465 C461 0.950 . S
H466 C463 0.950 . S
C467 C458 1.390 . S
C467 H460 0.950 . S
C467 C464 1.387 . S
C468 C469 1.387 . S
C468 H472 0.950 . S
C468 C477 1.390 . S
C469 C468 1.387 . S
C469 C471 1.387 . S
H470 C477 0.950 . S
C471 C469 1.387 . S
C471 C473 1.390 . S
C471 H475 0.950 . S
H472 C468 0.950 . S
C473 C471 1.390 . S
C473 C474 1.387 . S
C473 H476 0.950 . S
C474 C473 1.387 . S
C474 C477 1.387 . S
H475 C471 0.950 . S
H476 C473 0.950 . S
C477 C468 1.390 . S
C477 H470 0.950 . S
C477 C474 1.387 . S
C478 C479 1.387 . S
C478 H482 0.950 . S
C478 C487 1.390 . S
C479 C478 1.387 . S
C479 C481 1.387 . S
H480 C487 0.950 . S
C481 C479 1.387 . S
C481 C483 1.390 . S
C481 H485 0.950 . S
H482 C478 0.950 . S
C483 C481 1.390 . S
C483 C484 1.387 . S
C483 H486 0.950 . S
C484 C483 1.387 . S
C484 C487 1.387 . S
H485 C481 0.950 . S
H486 C483 0.950 . S
C487 C478 1.390 . S
C487 H480 0.950 . S
C487 C484 1.387 . S
C488 C489 1.387 . S
C488 H492 0.950 . S
C488 C497 1.390 . S
C489 C488 1.387 . S
C489 C491 1.387 . S
H490 C497 0.950 . S
C491 C489 1.387 . S
C491 C493 1.390 . S
C491 H495 0.950 . S
H492 C488 0.950 . S
C493 C491 1.390 . S
C493 C494 1.387 . S
C493 H496 0.950 . S
C494 C493 1.387 . S
C494 C497 1.387 . S
H495 C491 0.950 . S
H496 C493 0.950 . S
C497 C488 1.390 . S
C497 H490 0.950 . S
C497 C494 1.387 . S
C498 C499 1.387 . S
C498 H502 0.950 . S
C498 C507 1.390 . S
C499 C498 1.387 . S
C499 C501 1.387 . S
H500 C507 0.950 . S
C501 C499 1.387 . S
C501 C503 1.390 . S
C501 H505 0.950 . S
H502 C498 0.950 . S
C503 C501 1.390 . S
C503 C504 1.387 . S
C503 H506 0.950 . S
C504 C503 1.387 . S
C504 C507 1.387 . S
H505 C501 0.950 . S
H506 C503 0.950 . S
C507 C498 1.390 . S
C507 H500 0.950 . S
C507 C504 1.387 . S
C508 C509 1.387 . S
C508 H512 0.950 . S
C508 C517 1.390 . S
C509 C508 1.387 . S
C509 C511 1.387 . S
H510 C517 0.950 . S
C511 C509 1.387 . S
C511 C513 1.390 . S
C511 H515 0.950 . S
H512 C508 0.950 . S
C513 C511 1.390 . S
C513 C514 1.387 . S
C513 H516 0.950 . S
C514 C513 1.387 . S
C514 C517 1.387 . S
H515 C511 0.950 . S
H516 C513 0.950 . S
C517 C508 1.390 . S
C517 H510 0.950 . S
C517 C514 1.387 . S
C518 C519 1.387 . S
C518 H522 0.950 . S
C518 C527 1.390 . S
C519 C518 1.387 . S
C519 C521 1.387 . S
H520 C527 0.950 . S
C521 C519 1.387 . S
C521 C523 1.390 . S
C521 H525 0.950 . S
H522 C518 0.950 . S
C523 C521 1.390 . S
C523 C524 1.387 . S
C523 H526 0.950 . S
C524 C523 1.387 . S
C524 C527 1.387 . S
H525 C521 0.950 . S
H526 C523 0.950 . S
C527 C518 1.390 . S
C527 H520 0.950 . S
C527 C524 1.387 . S
C528 C529 1.387 . S
C528 H532 0.950 . S
C528 C537 1.390 . S
C529 C528 1.387 . S
C529 C531 1.387 . S
H530 C537 0.950 . S
C531 C529 1.387 . S
C531 C533 1.390 . S
C531 H535 0.950 . S
H532 C528 0.950 . S
C533 C531 1.390 . S
C533 C534 1.387 . S
C533 H536 0.950 . S
C534 C533 1.387 . S
C534 C537 1.387 . S
H535 C531 0.950 . S
H536 C533 0.950 . S
C537 C528 1.390 . S
C537 H530 0.950 . S
C537 C534 1.387 . S
C538 C539 1.387 . S
C538 H542 0.950 . S
C538 C547 1.390 . S
C539 C538 1.387 . S
C539 C541 1.387 . S
H540 C547 0.950 . S
C541 C539 1.387 . S
C541 C543 1.390 . S
C541 H545 0.950 . S
H542 C538 0.950 . S
C543 C541 1.390 . S
C543 C544 1.387 . S
C543 H546 0.950 . S
C544 C543 1.387 . S
C544 C547 1.387 . S
H545 C541 0.950 . S
H546 C543 0.950 . S
C547 C538 1.390 . S
C547 H540 0.950 . S
C547 C544 1.387 . S
C548 C549 1.387 . S
C548 H552 0.950 . S
C548 C557 1.390 . S
C549 C548 1.387 . S
C549 C551 1.387 . S
H550 C557 0.950 . S
C551 C549 1.387 . S
C551 C553 1.390 . S
C551 H555 0.950 . S
H552 C548 0.950 . S
C553 C551 1.390 . S
C553 C554 1.387 . S
C553 H556 0.950 . S
C554 C553 1.387 . S
C554 C557 1.387 . S
H555 C551 0.950 . S
H556 C553 0.950 . S
C557 C548 1.390 . S
C557 H550 0.950 . S
C557 C554 1.387 . S
C558 C559 1.387 . S
C558 H562 0.950 . S
C558 C567 1.390 . S
C559 C558 1.387 . S
C559 C561 1.387 . S
H560 C567 0.950 . S
C561 C559 1.387 . S
C561 C563 1.390 . S
C561 H565 0.950 . S
H562 C558 0.950 . S
C563 C561 1.390 . S
C563 C564 1.387 . S
C563 H566 0.950 . S
C564 C563 1.387 . S
C564 C567 1.387 . S
H565 C561 0.950 . S
H566 C563 0.950 . S
C567 C558 1.390 . S
C567 H560 0.950 . S
C567 C564 1.387 . S
C568 C569 1.387 . S
C568 H572 0.950 . S
C568 C577 1.390 . S
C569 C568 1.387 . S
C569 C571 1.387 . S
H570 C577 0.950 . S
C571 C569 1.387 . S
C571 C573 1.390 . S
C571 H575 0.950 . S
H572 C568 0.950 . S
C573 C571 1.390 . S
C573 C574 1.387 . S
C573 H576 0.950 . S
C574 C573 1.387 . S
C574 C577 1.387 . S
H575 C571 0.950 . S
H576 C573 0.950 . S
C577 C568 1.390 . S
C577 H570 0.950 . S
C577 C574 1.387 . S
C578 C579 1.387 . S
C578 H582 0.950 . S
C578 C587 1.390 . S
C579 C578 1.387 . S
C579 C581 1.387 . S
H580 C587 0.950 . S
C581 C579 1.387 . S
C581 C583 1.390 . S
C581 H585 0.950 . S
H582 C578 0.950 . S
C583 C581 1.390 . S
C583 C584 1.387 . S
C583 H586 0.950 . S
C584 C583 1.387 . S
C584 C587 1.387 . S
H585 C581 0.950 . S
H586 C583 0.950 . S
C587 C578 1.390 . S
C587 H580 0.950 . S
C587 C584 1.387 . S
C588 C589 1.387 . S
C588 H592 0.950 . S
C588 C597 1.390 . S
C589 C588 1.387 . S
C589 C591 1.387 . S
H590 C597 0.950 . S
C591 C589 1.387 . S
C591 C593 1.390 . S
C591 H595 0.950 . S
H592 C588 0.950 . S
C593 C591 1.390 . S
C593 C594 1.387 . S
C593 H596 0.950 . S
C594 C593 1.387 . S
C594 C597 1.387 . S
H595 C591 0.950 . S
H596 C593 0.950 . S
C597 C588 1.390 . S
C597 H590 0.950 . S
C597 C594 1.387 . S
C598 C599 1.387 . S
C598 H602 0.950 . S
C598 C607 1.390 . S
C599 C598 1.387 . S
C599 C601 1.387 . S
H600 C607 0.950 . S
C601 C599 1.387 . S
C601 C603 1.390 . S
C601 H605 0.950 . S
H602 C598 0.950 . S
C603 C601 1.390 . S
C603 C604 1.387 . S
C603 H606 0.950 . S
C604 C603 1.387 . S
C604 C607 1.387 . S
H605 C601 0.950 . S
H606 C603 0.950 . S
C607 C598 1.390 . S
C607 H600 0.950 . S
C607 C604 1.387 . S
C608 C609 1.353 1_554 S
C608 H612 0.952 . S
C608 C617 1.424 1_655 S
C609 C608 1.353 1_556 S
C609 C611 1.387 . S
H610 C617 0.950 . S
C611 C609 1.387 . S
C611 C613 1.424 1_655 S
C611 H615 0.950 . S
H612 C608 0.952 . S
C613 C611 1.424 1_455 S
C613 C614 1.353 1_556 S
C613 H616 0.952 . S
C614 C613 1.353 1_554 S
C614 C617 1.387 . S
H615 C611 0.950 . S
H616 C613 0.952 . S
C617 C608 1.424 1_455 S
C617 H610 0.950 . S
C617 C614 1.387 . S
C618 C619 1.387 . S
C618 H622 0.950 . S
C618 C627 1.390 1_556 S
C619 C618 1.387 . S
C619 C621 1.387 . S
H620 C627 0.950 . S
C621 C619 1.387 . S
C621 C623 1.390 1_556 S
C621 H625 0.950 . S
H622 C618 0.950 . S
C623 C621 1.390 1_554 S
C623 C624 1.387 . S
C623 H626 0.950 . S
C624 C623 1.387 . S
C624 C627 1.387 . S
H625 C621 0.950 . S
H626 C623 0.950 . S
C627 C618 1.390 1_554 S
C627 H620 0.950 . S
C627 C624 1.387 . S
C628 C629 1.387 . S
C628 H632 0.950 . S
C628 C637 1.390 . S
C629 C628 1.387 . S
C629 C631 1.387 1_455 S
H630 C637 0.950 . S
C631 C629 1.387 1_655 S
C631 C633 1.390 . S
C631 H635 0.950 . S
H632 C628 0.950 . S
C633 C631 1.390 . S
C633 C634 1.387 . S
C633 H636 0.950 . S
C634 C633 1.387 . S
C634 C637 1.387 1_655 S
H635 C631 0.950 . S
H636 C633 0.950 . S
C637 C628 1.390 . S
C637 H630 0.950 . S
C637 C634 1.387 1_455 S
C638 C639 1.387 . S
C638 H642 0.950 . S
C638 C647 1.390 . S
C639 C638 1.387 . S
C639 C641 1.387 . S
H640 C647 0.950 . S
C641 C639 1.387 . S
C641 C643 1.390 . S
C641 H645 0.950 . S
H642 C638 0.950 . S
C643 C641 1.390 . S
C643 C644 1.387 . S
C643 H646 0.950 . S
C644 C643 1.387 . S
C644 C647 1.387 . S
H645 C641 0.950 . S
H646 C643 0.950 . S
C647 C638 1.390 . S
C647 H640 0.950 . S
C647 C644 1.387 . S
C648 C649 1.387 . S
C648 H652 0.950 . S
C648 C657 1.374 1_556 S
C649 C648 1.387 . S
C649 C651 1.404 . S
H650 C657 0.950 . S
C651 C649 1.404 . S
C651 C653 1.374 1_556 S
C651 H655 0.950 . S
H652 C648 0.950 . S
C653 C651 1.374 1_554 S
C653 C654 1.387 . S
C653 H656 0.950 . S
C654 C653 1.387 . S
C654 C657 1.404 . S
H655 C651 0.950 . S
H656 C653 0.950 . S
C657 C648 1.374 1_554 S
C657 H650 0.950 . S
C657 C654 1.404 . S
C658 C659 1.387 . S
C658 H662 0.950 . S
C658 C667 1.390 1_655 S
C659 C658 1.387 . S
C659 C661 1.387 . S
H660 C667 0.950 . S
C661 C659 1.387 . S
C661 C663 1.390 1_655 S
C661 H665 0.950 . S
H662 C658 0.950 . S
C663 C661 1.390 1_455 S
C663 C664 1.387 . S
C663 H666 0.950 . S
C664 C663 1.387 . S
C664 C667 1.387 . S
H665 C661 0.950 . S
H666 C663 0.950 . S
C667 C658 1.390 1_455 S
C667 H660 0.950 . S
C667 C664 1.387 . S
C668 C669 1.387 . S
C668 H672 0.950 . S
C668 C677 1.390 . S
C669 C668 1.387 . S
C669 C671 1.387 . S
H670 C677 0.950 . S
C671 C669 1.387 . S
C671 C673 1.390 . S
C671 H675 0.950 . S
H672 C668 0.950 . S
C673 C671 1.390 . S
C673 C674 1.387 . S
C673 H676 0.950 . S
C674 C673 1.387 . S
C674 C677 1.387 . S
H675 C671 0.950 . S
H676 C673 0.950 . S
C677 C668 1.390 . S
C677 H670 0.950 . S
C677 C674 1.387 . S
C678 C679 1.387 . S
C678 H682 0.950 . S
C678 C687 1.390 1_655 S
C679 C678 1.387 . S
C679 C681 1.387 1_545 S
H680 C687 0.950 . S
C681 C679 1.387 1_565 S
C681 C683 1.390 1_655 S
C681 H685 0.950 . S
H682 C678 0.950 . S
C683 C681 1.390 1_455 S
C683 C684 1.387 . S
C683 H686 0.950 . S
C684 C683 1.387 . S
C684 C687 1.387 1_565 S
H685 C681 0.950 . S
H686 C683 0.950 . S
C687 C678 1.390 1_455 S
C687 H680 0.950 . S
C687 C684 1.387 1_545 S
C688 C689 1.387 . S
C688 H692 0.950 . S
C688 C697 1.390 . S
C689 C688 1.387 . S
C689 C691 1.387 . S
H690 C697 0.950 . S
C691 C689 1.387 . S
C691 C693 1.390 . S
C691 H695 0.950 . S
H692 C688 0.950 . S
C693 C691 1.390 . S
C693 C694 1.387 . S
C693 H696 0.950 . S
C694 C693 1.387 . S
C694 C697 1.387 . S
H695 C691 0.950 . S
H696 C693 0.950 . S
C697 C688 1.390 . S
C697 H690 0.950 . S
C697 C694 1.387 . S
C698 C699 1.387 . S
C698 H702 0.950 . S
C698 C707 1.390 . S
C699 C698 1.387 . S
C699 C701 1.387 1_565 S
H700 C707 0.950 . S
C701 C699 1.387 1_545 S
C701 C703 1.390 . S
C701 H705 0.950 . S
H702 C698 0.950 . S
C703 C701 1.390 . S
C703 C704 1.387 . S
C703 H706 0.950 . S
C704 C703 1.387 . S
C704 C707 1.387 1_545 S
H705 C701 0.950 . S
H706 C703 0.950 . S
C707 C698 1.390 . S
C707 H700 0.950 . S
C707 C704 1.387 1_565 S
C708 C709 1.387 . S
C708 H712 0.950 . S
C708 C717 1.390 . S
C709 C708 1.387 . S
C709 C711 1.387 . S
H710 C717 0.950 . S
C711 C709 1.387 . S
C711 C713 1.390 . S
C711 H715 0.950 . S
H712 C708 0.950 . S
C713 C711 1.390 . S
C713 C714 1.387 . S
C713 H716 0.950 . S
C714 C713 1.387 . S
C714 C717 1.387 . S
H715 C711 0.950 . S
H716 C713 0.950 . S
C717 C708 1.390 . S
C717 H710 0.950 . S
C717 C714 1.387 . S
C718 C719 1.387 1_545 S
C718 H722 0.950 . S
C718 C727 1.390 . S
C719 C718 1.387 1_565 S
C719 C721 1.387 . S
H720 C727 0.950 . S
C721 C719 1.387 . S
C721 C723 1.390 . S
C721 H725 0.950 . S
H722 C718 0.950 . S
C723 C721 1.390 . S
C723 C724 1.387 1_565 S
C723 H726 0.950 . S
C724 C723 1.387 1_545 S
C724 C727 1.387 . S
H725 C721 0.950 . S
H726 C723 0.950 . S
C727 C718 1.390 . S
C727 H720 0.950 . S
C727 C724 1.387 . S
C728 C729 1.387 . S
C728 H732 0.950 . S
C728 C737 1.390 . S
C729 C728 1.387 . S
C729 C731 1.387 . S
H730 C737 0.950 . S
C731 C729 1.387 . S
C731 C733 1.390 . S
C731 H735 0.950 . S
H732 C728 0.950 . S
C733 C731 1.390 . S
C733 C734 1.387 . S
C733 H736 0.950 . S
C734 C733 1.387 . S
C734 C737 1.387 . S
H735 C731 0.950 . S
H736 C733 0.950 . S
C737 C728 1.390 . S
C737 H730 0.950 . S
C737 C734 1.387 . S
C738 C739 1.387 . S
C738 H742 0.950 . S
C738 C747 1.390 . S
C739 C738 1.387 . S
C739 C741 1.387 . S
H740 C747 0.950 . S
C741 C739 1.387 . S
C741 C743 1.390 . S
C741 H745 0.950 . S
H742 C738 0.950 . S
C743 C741 1.390 . S
C743 C744 1.387 . S
C743 H746 0.950 . S
C744 C743 1.387 . S
C744 C747 1.387 . S
H745 C741 0.950 . S
H746 C743 0.950 . S
C747 C738 1.390 . S
C747 H740 0.950 . S
C747 C744 1.387 . S
C748 C749 1.387 . S
C748 H752 0.950 . S
C748 C757 1.390 . S
C749 C748 1.387 . S
C749 C751 1.387 . S
H750 C757 0.950 . S
C751 C749 1.387 . S
C751 C753 1.390 . S
C751 H755 0.950 . S
H752 C748 0.950 . S
C753 C751 1.390 . S
C753 C754 1.387 . S
C753 H756 0.950 . S
C754 C753 1.387 . S
C754 C757 1.387 . S
H755 C751 0.950 . S
H756 C753 0.950 . S
C757 C748 1.390 . S
C757 H750 0.950 . S
C757 C754 1.387 . S
C758 C759 1.387 1_554 S
C758 H762 0.950 . S
C758 C767 1.390 . S
C759 C758 1.387 1_556 S
C759 C761 1.387 1_545 S
H760 C767 0.950 . S
C761 C759 1.387 1_565 S
C761 C763 1.390 . S
C761 H765 0.950 . S
H762 C758 0.950 . S
C763 C761 1.390 . S
C763 C764 1.387 1_556 S
C763 H766 0.950 . S
C764 C763 1.387 1_554 S
C764 C767 1.387 1_565 S
H765 C761 0.950 . S
H766 C763 0.950 . S
C767 C758 1.390 . S
C767 H760 0.950 . S
C767 C764 1.387 1_545 S
C768 C769 1.387 . S
C768 H772 0.950 . S
C768 C777 1.390 . S
C769 C768 1.387 . S
C769 C771 1.387 . S
H770 C777 0.950 . S
C771 C769 1.387 . S
C771 C773 1.390 . S
C771 H775 0.950 . S
H772 C768 0.950 . S
C773 C771 1.390 . S
C773 C774 1.387 . S
C773 H776 0.950 . S
C774 C773 1.387 . S
C774 C777 1.387 . S
H775 C771 0.950 . S
H776 C773 0.950 . S
C777 C768 1.390 . S
C777 H770 0.950 . S
C777 C774 1.387 . S
C778 C779 1.387 . S
C778 H782 0.950 . S
C778 C787 1.390 . S
C779 C778 1.387 . S
C779 C781 1.387 . S
H780 C787 0.950 . S
C781 C779 1.387 . S
C781 C783 1.390 . S
C781 H785 0.950 . S
H782 C778 0.950 . S
C783 C781 1.390 . S
C783 C784 1.387 . S
C783 H786 0.950 . S
C784 C783 1.387 . S
C784 C787 1.387 . S
H785 C781 0.950 . S
H786 C783 0.950 . S
C787 C778 1.390 . S
C787 H780 0.950 . S
C787 C784 1.387 . S
C788 C789 1.387 . S
C788 H792 0.950 . S
C788 C797 1.390 . S
C789 C788 1.387 . S
C789 C791 1.387 . S
H790 C797 0.950 . S
C791 C789 1.387 . S
C791 C793 1.390 . S
C791 H795 0.950 . S
H792 C788 0.950 . S
C793 C791 1.390 . S
C793 C794 1.387 . S
C793 H796 0.950 . S
C794 C793 1.387 . S
C794 C797 1.387 . S
H795 C791 0.950 . S
H796 C793 0.950 . S
C797 C788 1.390 . S
C797 H790 0.950 . S
C797 C794 1.387 . S
C798 C799 1.387 . S
C798 H802 0.950 . S
C798 C807 1.390 . S
C799 C798 1.387 . S
C799 C801 1.387 . S
H800 C807 0.950 . S
C801 C799 1.387 . S
C801 C803 1.390 . S
C801 H805 0.950 . S
H802 C798 0.950 . S
C803 C801 1.390 . S
C803 C804 1.387 . S
C803 H806 0.950 . S
C804 C803 1.387 . S
C804 C807 1.387 . S
H805 C801 0.950 . S
H806 C803 0.950 . S
C807 C798 1.390 . S
C807 H800 0.950 . S
C807 C804 1.387 . S
C808 C809 1.387 . S
C808 H812 0.950 . S
C808 C817 1.390 . S
C809 C808 1.387 . S
C809 C811 1.387 . S
H810 C817 0.950 . S
C811 C809 1.387 . S
C811 C813 1.390 . S
C811 H815 0.950 1_565 S
H812 C808 0.950 . S
C813 C811 1.390 . S
C813 C814 1.387 . S
C813 H816 0.950 1_565 S
C814 C813 1.387 . S
C814 C817 1.387 . S
H815 C811 0.950 1_545 S
H816 C813 0.950 1_545 S
C817 C808 1.390 . S
C817 H810 0.950 . S
C817 C814 1.387 . S
C818 C819 1.387 . S
C818 H822 0.950 . S
C818 C827 1.390 . S
C819 C818 1.387 . S
C819 C821 1.387 . S
H820 C827 0.950 . S
C821 C819 1.387 . S
C821 C823 1.390 . S
C821 H825 0.950 . S
H822 C818 0.950 . S
C823 C821 1.390 . S
C823 C824 1.387 . S
C823 H826 0.950 . S
C824 C823 1.387 . S
C824 C827 1.387 . S
H825 C821 0.950 . S
H826 C823 0.950 . S
C827 C818 1.390 . S
C827 H820 0.950 . S
C827 C824 1.387 . S
C828 C829 1.387 . S
C828 H832 0.950 1_545 S
C828 C837 1.390 . S
C829 C828 1.387 . S
C829 C831 1.387 . S
H830 C837 0.950 1_565 S
C831 C829 1.387 . S
C831 C833 1.390 . S
C831 H835 0.950 . S
H832 C828 0.950 1_565 S
C833 C831 1.390 . S
C833 C834 1.387 . S
C833 H836 0.950 . S
C834 C833 1.387 . S
C834 C837 1.387 . S
H835 C831 0.950 . S
H836 C833 0.950 . S
C837 C828 1.390 . S
C837 H830 0.950 1_545 S
C837 C834 1.387 . S
C838 C839 1.387 . S
C838 H842 0.950 . S
C838 C847 1.390 . S
C839 C838 1.387 . S
C839 C841 1.387 . S
H840 C847 0.950 . S
C841 C839 1.387 . S
C841 C843 1.390 . S
C841 H845 0.950 . S
H842 C838 0.950 . S
C843 C841 1.390 . S
C843 C844 1.387 . S
C843 H846 0.950 . S
C844 C843 1.387 . S
C844 C847 1.387 . S
H845 C841 0.950 . S
H846 C843 0.950 . S
C847 C838 1.390 . S
C847 H840 0.950 . S
C847 C844 1.387 . S
C848 C849 1.387 . S
C848 H852 0.950 . S
C848 C857 1.390 . S
C849 C848 1.387 . S
C849 C851 1.387 . S
H850 C857 0.950 . S
C851 C849 1.387 . S
C851 C853 1.390 . S
C851 H855 0.950 . S
H852 C848 0.950 . S
C853 C851 1.390 . S
C853 C854 1.387 . S
C853 H856 0.950 . S
C854 C853 1.387 . S
C854 C857 1.387 . S
H855 C851 0.950 . S
H856 C853 0.950 . S
C857 C848 1.390 . S
C857 H850 0.950 . S
C857 C854 1.387 . S
C858 C859 1.387 . S
C858 H862 0.950 . S
C858 C867 1.390 . S
C859 C858 1.387 . S
C859 C861 1.387 . S
H860 C867 0.950 . S
C861 C859 1.387 . S
C861 C863 1.390 . S
C861 H865 0.950 . S
H862 C858 0.950 . S
C863 C861 1.390 . S
C863 C864 1.387 . S
C863 H866 0.950 . S
C864 C863 1.387 . S
C864 C867 1.387 . S
H865 C861 0.950 . S
H866 C863 0.950 . S
C867 C858 1.390 . S
C867 H860 0.950 . S
C867 C864 1.387 . S
C868 C869 1.387 . S
C868 H872 0.950 . S
C868 C877 1.390 . S
C869 C868 1.387 . S
C869 C871 1.387 . S
H870 C877 0.950 . S
C871 C869 1.387 . S
C871 C873 1.390 . S
C871 H875 0.950 . S
H872 C868 0.950 . S
C873 C871 1.390 . S
C873 C874 1.387 . S
C873 H876 0.950 . S
C874 C873 1.387 . S
C874 C877 1.387 . S
H875 C871 0.950 . S
H876 C873 0.950 . S
C877 C868 1.390 . S
C877 H870 0.950 . S
C877 C874 1.387 . S
C878 C879 1.387 . S
C878 H882 0.950 . S
C878 C887 1.390 . S
C879 C878 1.387 . S
C879 C881 1.387 . S
H880 C887 0.950 . S
C881 C879 1.387 . S
C881 C883 1.390 . S
C881 H885 0.950 . S
H882 C878 0.950 . S
C883 C881 1.390 . S
C883 C884 1.387 . S
C883 H886 0.950 . S
C884 C883 1.387 . S
C884 C887 1.387 . S
H885 C881 0.950 . S
H886 C883 0.950 . S
C887 C878 1.390 . S
C887 H880 0.950 . S
C887 C884 1.387 . S
C888 C889 1.387 . S
C888 H892 0.950 . S
C888 C897 1.390 . S
C889 C888 1.387 . S
C889 C891 1.387 . S
H890 C897 0.950 . S
C891 C889 1.387 . S
C891 C893 1.390 . S
C891 H895 0.950 1_565 S
H892 C888 0.950 . S
C893 C891 1.390 . S
C893 C894 1.387 . S
C893 H896 0.950 1_565 S
C894 C893 1.387 . S
C894 C897 1.387 . S
H895 C891 0.950 1_545 S
H896 C893 0.950 1_545 S
C897 C888 1.390 . S
C897 H890 0.950 . S
C897 C894 1.387 . S
C898 C899 1.387 . S
C898 H902 0.950 . S
C898 C907 1.390 . S
C899 C898 1.387 . S
C899 C901 1.387 . S
H900 C907 0.950 . S
C901 C899 1.387 . S
C901 C903 1.390 . S
C901 H905 0.950 . S
H902 C898 0.950 . S
C903 C901 1.390 . S
C903 C904 1.387 . S
C903 H906 0.950 . S
C904 C903 1.387 . S
C904 C907 1.387 . S
H905 C901 0.950 . S
H906 C903 0.950 . S
C907 C898 1.390 . S
C907 H900 0.950 . S
C907 C904 1.387 . S
C908 C909 1.387 . S
C908 H912 0.950 . S
C908 C917 1.390 . S
C909 C908 1.387 . S
C909 C911 1.387 . S
H910 C917 0.950 . S
C911 C909 1.387 . S
C911 C913 1.390 . S
C911 H915 0.950 1_545 S
H912 C908 0.950 . S
C913 C911 1.390 . S
C913 C914 1.387 . S
C913 H916 0.950 1_545 S
C914 C913 1.387 . S
C914 C917 1.387 . S
H915 C911 0.950 1_565 S
H916 C913 0.950 1_565 S
C917 C908 1.390 . S
C917 H910 0.950 . S
C917 C914 1.387 . S
C918 C919 1.387 . S
C918 H922 0.950 . S
C918 C927 1.390 . S
C919 C918 1.387 . S
C919 C921 1.387 . S
H920 C927 0.950 . S
C921 C919 1.387 . S
C921 C923 1.390 . S
C921 H925 0.950 . S
H922 C918 0.950 . S
C923 C921 1.390 . S
C923 C924 1.387 . S
C923 H926 0.950 . S
C924 C923 1.387 . S
C924 C927 1.387 . S
H925 C921 0.950 . S
H926 C923 0.950 . S
C927 C918 1.390 . S
C927 H920 0.950 . S
C927 C924 1.387 . S
C928 C929 1.387 . S
C928 H932 0.950 . S
C928 C937 1.390 . S
C929 C928 1.387 . S
C929 C931 1.387 . S
H930 C937 0.950 . S
C931 C929 1.387 . S
C931 C933 1.390 . S
C931 H935 0.950 . S
H932 C928 0.950 . S
C933 C931 1.390 . S
C933 C934 1.387 . S
C933 H936 0.950 . S
C934 C933 1.387 . S
C934 C937 1.387 . S
H935 C931 0.950 . S
H936 C933 0.950 . S
C937 C928 1.390 . S
C937 H930 0.950 . S
C937 C934 1.387 . S
C938 C939 1.387 . S
C938 H942 0.950 . S
C938 C947 1.390 . S
C939 C938 1.387 . S
C939 C941 1.387 . S
H940 C947 0.950 . S
C941 C939 1.387 . S
C941 C943 1.390 . S
C941 H945 0.950 . S
H942 C938 0.950 . S
C943 C941 1.390 . S
C943 C944 1.387 . S
C943 H946 0.950 . S
C944 C943 1.387 . S
C944 C947 1.387 . S
H945 C941 0.950 . S
H946 C943 0.950 . S
C947 C938 1.390 . S
C947 H940 0.950 . S
C947 C944 1.387 . S
C948 C949 1.387 . S
C948 H952 0.950 . S
C948 C957 1.390 . S
C949 C948 1.387 . S
C949 C951 1.387 . S
H950 C957 0.950 . S
C951 C949 1.387 . S
C951 C953 1.390 . S
C951 H955 0.950 . S
H952 C948 0.950 . S
C953 C951 1.390 . S
C953 C954 1.387 . S
C953 H956 0.950 . S
C954 C953 1.387 . S
C954 C957 1.387 . S
H955 C951 0.950 . S
H956 C953 0.950 . S
C957 C948 1.390 . S
C957 H950 0.950 . S
C957 C954 1.387 . S
C958 C959 1.387 . S
C958 H962 0.950 . S
C958 C967 1.390 . S
C959 C958 1.387 . S
C959 C961 1.387 . S
H960 C967 0.950 . S
C961 C959 1.387 . S
C961 C963 1.390 . S
C961 H965 0.950 . S
H962 C958 0.950 . S
C963 C961 1.390 . S
C963 C964 1.387 . S
C963 H966 0.950 . S
C964 C963 1.387 . S
C964 C967 1.387 . S
H965 C961 0.950 . S
H966 C963 0.950 . S
C967 C958 1.390 . S
C967 H960 0.950 . S
C967 C964 1.387 . S
C968 C969 1.387 . S
C968 H972 0.950 . S
C968 C977 1.390 . S
C969 C968 1.387 . S
C969 C971 1.387 . S
H970 C977 0.950 . S
C971 C969 1.387 . S
C971 C973 1.390 . S
C971 H975 0.950 . S
H972 C968 0.950 . S
C973 C971 1.390 . S
C973 C974 1.387 . S
C973 H976 0.950 . S
C974 C973 1.387 . S
C974 C977 1.387 . S
H975 C971 0.950 . S
H976 C973 0.950 . S
C977 C968 1.390 . S
C977 H970 0.950 . S
C977 C974 1.387 . S
C978 C979 1.387 . S
C978 H982 0.950 . S
C978 C987 1.390 . S
C979 C978 1.387 . S
C979 C981 1.387 . S
H980 C987 0.950 . S
C981 C979 1.387 . S
C981 C983 1.390 . S
C981 H985 0.950 . S
H982 C978 0.950 . S
C983 C981 1.390 . S
C983 C984 1.387 . S
C983 H986 0.950 . S
C984 C983 1.387 . S
C984 C987 1.387 . S
H985 C981 0.950 . S
H986 C983 0.950 . S
C987 C978 1.390 . S
C987 H980 0.950 . S
C987 C984 1.387 . S
C988 C989 1.387 . S
C988 H992 0.950 . S
C988 C997 1.390 . S
C989 C988 1.387 . S
C989 C991 1.387 . S
H990 C997 0.950 . S
C991 C989 1.387 . S
C991 C993 1.390 . S
C991 H995 0.950 . S
H992 C988 0.950 . S
C993 C991 1.390 . S
C993 C994 1.387 . S
C993 H996 0.950 . S
C994 C993 1.387 . S
C994 C997 1.387 . S
H995 C991 0.950 . S
H996 C993 0.950 . S
C997 C988 1.390 . S
C997 H990 0.950 . S
C997 C994 1.387 . S
C998 C999 1.387 . S
C998 H1002 0.950 . S
C998 C1007 1.390 . S
C999 C998 1.387 . S
C999 C1001 1.387 . S
H1000 C1007 0.950 . S
C1001 C999 1.387 . S
C1001 C1003 1.390 . S
C1001 H1005 0.950 . S
H1002 C998 0.950 . S
C1003 C1001 1.390 . S
C1003 C1004 1.387 . S
C1003 H1006 0.950 . S
C1004 C1003 1.387 . S
C1004 C1007 1.387 . S
H1005 C1001 0.950 . S
H1006 C1003 0.950 . S
C1007 C998 1.390 . S
C1007 H1000 0.950 . S
C1007 C1004 1.387 . S
C1008 C1009 1.387 . S
C1008 H1012 0.950 . S
C1008 C1017 1.390 . S
C1009 C1008 1.387 . S
C1009 C1011 1.387 . S
H1010 C1017 0.950 . S
C1011 C1009 1.387 . S
C1011 C1013 1.390 . S
C1011 H1015 0.950 . S
H1012 C1008 0.950 . S
C1013 C1011 1.390 . S
C1013 C1014 1.387 . S
C1013 H1016 0.950 . S
C1014 C1013 1.387 . S
C1014 C1017 1.387 . S
H1015 C1011 0.950 . S
H1016 C1013 0.950 . S
C1017 C1008 1.390 . S
C1017 H1010 0.950 . S
C1017 C1014 1.387 . S
C1018 C1019 1.387 . S
C1018 H1022 0.950 . S
C1018 C1027 1.390 . S
C1019 C1018 1.387 . S
C1019 C1021 1.387 . S
H1020 C1027 0.950 . S
C1021 C1019 1.387 . S
C1021 C1023 1.390 . S
C1021 H1025 0.950 . S
H1022 C1018 0.950 . S
C1023 C1021 1.390 . S
C1023 C1024 1.387 . S
C1023 H1026 0.950 . S
C1024 C1023 1.387 . S
C1024 C1027 1.387 . S
H1025 C1021 0.950 . S
H1026 C1023 0.950 . S
C1027 C1018 1.390 . S
C1027 H1020 0.950 . S
C1027 C1024 1.387 . S
C1028 C1029 1.387 . S
C1028 H1032 0.950 . S
C1028 C1037 1.390 . S
C1029 C1028 1.387 . S
C1029 C1031 1.387 . S
H1030 C1037 0.950 . S
C1031 C1029 1.387 . S
C1031 C1033 1.390 . S
C1031 H1035 0.950 . S
H1032 C1028 0.950 . S
C1033 C1031 1.390 . S
C1033 C1034 1.387 . S
C1033 H1036 0.950 . S
C1034 C1033 1.387 . S
C1034 C1037 1.387 . S
H1035 C1031 0.950 . S
H1036 C1033 0.950 . S
C1037 C1028 1.390 . S
C1037 H1030 0.950 . S
C1037 C1034 1.387 . S
C1038 C1039 1.387 . S
C1038 H1042 0.950 . S
C1038 C1047 1.390 . S
C1039 C1038 1.387 . S
C1039 C1041 1.387 . S
H1040 C1047 0.950 . S
C1041 C1039 1.387 . S
C1041 C1043 1.390 . S
C1041 H1045 0.950 . S
H1042 C1038 0.950 . S
C1043 C1041 1.390 . S
C1043 C1044 1.387 . S
C1043 H1046 0.950 . S
C1044 C1043 1.387 . S
C1044 C1047 1.387 . S
H1045 C1041 0.950 . S
H1046 C1043 0.950 . S
C1047 C1038 1.390 . S
C1047 H1040 0.950 . S
C1047 C1044 1.387 . S
C1048 C1049 1.387 . S
C1048 H1052 0.950 . S
C1048 C1057 1.390 . S
C1049 C1048 1.387 . S
C1049 C1051 1.387 . S
H1050 C1057 0.950 . S
C1051 C1049 1.387 . S
C1051 C1053 1.390 . S
C1051 H1055 0.950 . S
H1052 C1048 0.950 . S
C1053 C1051 1.390 . S
C1053 C1054 1.387 . S
C1053 H1056 0.950 . S
C1054 C1053 1.387 . S
C1054 C1057 1.387 . S
H1055 C1051 0.950 . S
H1056 C1053 0.950 . S
C1057 C1048 1.390 . S
C1057 H1050 0.950 . S
C1057 C1054 1.387 . S
C1058 C1059 1.387 . S
C1058 H1062 0.950 . S
C1058 C1067 1.390 . S
C1059 C1058 1.387 . S
C1059 C1061 1.387 . S
H1060 C1067 0.950 . S
C1061 C1059 1.387 . S
C1061 C1063 1.390 . S
C1061 H1065 0.950 . S
H1062 C1058 0.950 . S
C1063 C1061 1.390 . S
C1063 C1064 1.387 . S
C1063 H1066 0.950 . S
C1064 C1063 1.387 . S
C1064 C1067 1.387 . S
H1065 C1061 0.950 . S
H1066 C1063 0.950 . S
C1067 C1058 1.390 . S
C1067 H1060 0.950 . S
C1067 C1064 1.387 . S
C1068 C1069 1.387 . S
C1068 H1072 0.950 . S
C1068 C1077 1.390 . S
C1069 C1068 1.387 . S
C1069 C1071 1.387 . S
H1070 C1077 0.950 . S
C1071 C1069 1.387 . S
C1071 C1073 1.390 . S
C1071 H1075 0.950 . S
H1072 C1068 0.950 . S
C1073 C1071 1.390 . S
C1073 C1074 1.387 . S
C1073 H1076 0.950 . S
C1074 C1073 1.387 . S
C1074 C1077 1.387 . S
H1075 C1071 0.950 . S
H1076 C1073 0.950 . S
C1077 C1068 1.390 . S
C1077 H1070 0.950 . S
C1077 C1074 1.387 . S
C1078 C1079 1.387 . S
C1078 H1082 0.950 . S
C1078 C1087 1.390 . S
C1079 C1078 1.387 . S
C1079 C1081 1.387 . S
H1080 C1087 0.950 . S
C1081 C1079 1.387 . S
C1081 C1083 1.390 . S
C1081 H1085 0.950 . S
H1082 C1078 0.950 . S
C1083 C1081 1.390 . S
C1083 C1084 1.387 . S
C1083 H1086 0.950 . S
C1084 C1083 1.387 . S
C1084 C1087 1.387 . S
H1085 C1081 0.950 . S
H1086 C1083 0.950 . S
C1087 C1078 1.390 . S
C1087 H1080 0.950 . S
C1087 C1084 1.387 . S
C449 C36 1.027 . S
C454 C8 1.027 . S
C459 C22 1.022 . S
C464 C50 1.022 . S
C469 C92 1.022 . S
C474 C64 1.022 . S
C479 C106 1.027 . S
C484 C78 1.027 . S
C489 C120 1.027 . S
C494 C148 1.027 . S
C499 C162 1.027 . S
C504 C134 1.027 . S
C509 C176 1.022 . S
C514 C204 1.022 . S
C519 C190 1.022 . S
C524 C218 1.022 . S
C529 C260 1.027 . S
C534 C232 1.027 . S
C539 C246 1.027 . S
C544 C274 1.027 . S
C549 C288 1.022 . S
C554 C316 1.022 . S
C559 C330 1.022 . S
C564 C302 1.022 . S
C569 C372 1.022 . S
C574 C344 1.022 . S
C579 C386 1.022 . S
C584 C358 1.022 . S
C589 C428 1.027 . S
C594 C400 1.027 . S
C599 C414 1.027 . S
C604 C442 1.027 . S
C609 C62 1.471 . S
C614 C6 1.471 . S
C619 C412 1.470 . S
C624 C20 1.470 . S
C629 C34 1.468 . S
C634 C202 1.468 . S
C639 C48 1.468 . S
C644 C328 1.468 . S
C649 C76 1.469 . S
C654 C356 1.469 . S
C659 C90 1.471 . S
C664 C146 1.471 . S
C669 C272 1.471 . S
C674 C104 1.471 . S
C679 C174 1.471 . S
C684 C118 1.471 . S
C689 C300 1.471 . S
C694 C132 1.471 . S
C699 C160 1.468 . S
C704 C440 1.468 . S
C709 C188 1.471 . S
C714 C244 1.471 . S
C719 C384 1.471 . S
C724 C216 1.471 . S
C729 C286 1.468 . S
C734 C230 1.468 . S
C739 C258 1.468 . S
C744 C426 1.468 . S
C749 C314 1.469 . S
C754 C370 1.469 . S
C759 C398 1.471 . S
C764 C342 1.471 . S
C769 C51 1.468 . S
C774 C9 1.468 . S
C779 C37 1.466 . S
C784 C23 1.466 . S
C789 C107 1.468 . S
C794 C65 1.468 . S
C799 C93 1.468 . S
C804 C79 1.468 . S
C809 C163 1.466 . S
C814 C121 1.466 . S
C819 C149 1.466 . S
C824 C135 1.466 . S
C829 C219 1.466 . S
C834 C177 1.466 . S
C839 C205 1.466 . S
C844 C191 1.466 . S
C849 C233 1.468 . S
C854 C275 1.468 . S
C859 C261 1.466 . S
C864 C247 1.466 . S
C869 C289 1.466 . S
C874 C331 1.466 . S
C879 C317 1.466 . S
C884 C303 1.466 . S
C889 C387 1.466 . S
C894 C345 1.466 . S
C899 C359 1.468 . S
C904 C373 1.468 . S
C909 C401 1.468 . S
C914 C443 1.468 . S
C919 C429 1.468 . S
C924 C415 1.468 . S
C929 C35 1.511 1_545 S
C934 C7 1.511 . S
C939 C21 1.510 1_545 S
C944 C49 1.510 . S
C949 C63 1.511 . S
C954 C91 1.511 1_565 S
C959 C77 1.511 1_565 S
C964 C105 1.511 . S
C969 C119 1.510 . S
C974 C147 1.510 . S
C979 C133 1.511 . S
C984 C161 1.511 . S
C989 C203 1.511 . S
C994 C175 1.511 . S
C999 C217 1.510 . S
C1004 C189 1.510 . S
C1009 C259 1.510 1_545 S
C1014 C231 1.510 . S
C1019 C273 1.510 . S
C1024 C245 1.510 1_545 S
C1029 C287 1.511 . S
C1034 C315 1.511 1_565 S
C1039 C329 1.511 . S
C1044 C301 1.511 1_565 S
C1049 C371 1.511 . S
C1054 C343 1.511 . S
C1059 C357 1.510 . S
C1064 C385 1.510 . S
C1069 C399 1.511 . S
C1074 C427 1.511 . S
C1079 C441 1.510 . S
C1084 C413 1.510 . S
