# Generated by pormake.
# Topology hcp, (12)-cn, num edge types: 1
# Building blocks:
#     Node 0, Type 0, BuildingBlock: ZALLEG_clean_sbu_0, # of connection points: 12
#     Node 1, Type 0, BuildingBlock: ZALLEG_clean_sbu_0, # of connection points: 12
#     Edge 2, Type (0, 0), BuildingBlock: CIFDUS_clean_linker_0, # of connection points: 2
#     Edge 3, Type (0, 0), BuildingBlock: CIFDUS_clean_linker_0, # of connection points: 2
#     Edge 4, Type (0, 0), BuildingBlock: CIFDUS_clean_linker_0, # of connection points: 2
#     Edge 5, Type (0, 0), BuildingBlock: CIFDUS_clean_linker_0, # of connection points: 2
#     Edge 6, Type (0, 0), BuildingBlock: CIFDUS_clean_linker_0, # of connection points: 2
#     Edge 7, Type (0, 0), BuildingBlock: CIFDUS_clean_linker_0, # of connection points: 2
#     Edge 8, Type (0, 0), BuildingBlock: CIFDUS_clean_linker_0, # of connection points: 2
#     Edge 9, Type (0, 0), BuildingBlock: CIFDUS_clean_linker_0, # of connection points: 2
#     Edge 10, Type (0, 0), BuildingBlock: CIFDUS_clean_linker_0, # of connection points: 2
#     Edge 11, Type (0, 0), BuildingBlock: CIFDUS_clean_linker_0, # of connection points: 2
#     Edge 12, Type (0, 0), BuildingBlock: CIFDUS_clean_linker_0, # of connection points: 2
#     Edge 13, Type (0, 0), BuildingBlock: CIFDUS_clean_linker_0, # of connection points: 2
# Relax obj value: 0.186
# Max RMSD: 0.270
# Mean RMSD: 0.270
data_MOF--net-hcp--node1-ZALLEG_clean_sbu_0--edge1-CIFDUS_clean_linker_0
_symmetry_space_group_name_H-M    P1
_symmetry_Int_Tables_number       1
_symmetry_cell_setting            triclinic
loop_
_symmetry_equiv_pos_as_xyz
'x, y, z'
_cell_length_a     16.78566
_cell_length_b     16.758477
_cell_length_c     25.189016
_cell_angle_alpha  90.642439
_cell_angle_beta   90.126588
_cell_angle_gamma 120.15118
loop_
_atom_site_label
_atom_site_type_symbol
_atom_site_fract_x
_atom_site_fract_y
_atom_site_fract_z
_atom_type_partial_charge
H0 H 0.56847 0.12477 0.27044 0.0
O1 O 0.59692 0.18982 0.28214 0.0
Tb2 Tb 0.52181 0.25228 0.25467 0.0
Tb3 Tb 0.60686 0.19526 0.36521 0.0
Tb4 Tb 0.72967 0.2643 0.25303 0.0
O5 O 0.52147 0.24736 0.33862 0.0
O6 O 0.65525 0.32457 0.22248 0.0
O7 O 0.58113 0.38695 0.28251 0.0
O8 O 0.66114 0.33033 0.3935 0.0
O9 O 0.79409 0.40309 0.28083 0.0
O10 O 0.73971 0.27157 0.33694 0.0
H11 H 0.45868 0.21207 0.35325 0.0
H12 H 0.65371 0.32328 0.1832 0.0
Tb13 Tb 0.5793 0.3823 0.36563 0.0
Tb14 Tb 0.7177 0.46039 0.25339 0.0
H15 H 0.54405 0.41436 0.27096 0.0
H16 H 0.66303 0.33209 0.43253 0.0
Tb17 Tb 0.79384 0.41015 0.36397 0.0
H18 H 0.85821 0.43941 0.2685 0.0
H19 H 0.77583 0.2445 0.35091 0.0
O20 O 0.71592 0.4659 0.33729 0.0
H21 H 0.74419 0.52982 0.35122 0.0
O22 O 0.41379 0.11076 0.27396 0.0
O23 O 0.90231 0.55142 0.34691 0.0
O24 O 0.82573 0.3553 0.43117 0.0
O25 O 0.50158 0.33344 0.18952 0.0
O26 O 0.63891 0.08552 0.34825 0.0
O27 O 0.68532 0.56998 0.27265 0.0
O28 O 0.81574 0.47583 0.18688 0.0
O29 O 0.52334 0.16802 0.43365 0.0
O30 O 0.64304 0.16055 0.18808 0.0
O31 O 0.63952 0.47226 0.43245 0.0
O32 O 0.4366 0.34885 0.34977 0.0
O33 O 0.87257 0.29813 0.27143 0.0
O34 O 0.47314 0.07128 0.34942 0.0
O35 O 0.84799 0.58652 0.26849 0.0
O36 O 0.64606 0.47244 0.18605 0.0
O37 O 0.69085 0.20748 0.43912 0.0
O38 O 0.39682 0.25647 0.27128 0.0
O39 O 0.91659 0.40024 0.34679 0.0
O40 O 0.78751 0.4855 0.43833 0.0
O41 O 0.50451 0.16655 0.18661 0.0
O42 O 0.51121 0.30349 0.44094 0.0
O43 O 0.81085 0.33152 0.18442 0.0
O44 O 0.72584 0.1352 0.26894 0.0
O45 O 0.58866 0.51482 0.349 0.0
C46 C 0.40856 0.05304 0.31227 0.0
C47 C 0.90997 0.60718 0.30721 0.0
C48 C 0.77375 0.27727 0.45643 0.0
C49 C 0.55931 0.41873 0.17011 0.0
C50 C 0.6858 0.07559 0.30823 0.0
C51 C 0.63393 0.57731 0.31131 0.0
C52 C 0.84229 0.41688 0.16733 0.0
C53 C 0.49902 0.222 0.45901 0.0
C54 C 0.55668 0.13287 0.16948 0.0
C55 C 0.71951 0.49981 0.45662 0.0
C56 C 0.37837 0.2991 0.3103 0.0
C57 C 0.93266 0.35236 0.30948 0.0
H58 H 0.12972 0.57648 0.76532 0.0
O59 O 0.1933 0.60504 0.77918 0.0
Tb60 Tb 0.18726 0.60406 0.86222 0.0
Tb61 Tb 0.26313 0.53749 0.75074 0.0
Tb62 Tb 0.26816 0.7412 0.75588 0.0
O63 O 0.24717 0.52607 0.83413 0.0
O64 O 0.2639 0.74079 0.83976 0.0
O65 O 0.31898 0.65912 0.89517 0.0
O66 O 0.39403 0.59662 0.78346 0.0
O67 O 0.40326 0.80581 0.78843 0.0
O68 O 0.33606 0.67449 0.7243 0.0
H69 H 0.21164 0.46133 0.84577 0.0
H70 H 0.23393 0.77431 0.85393 0.0
Tb71 Tb 0.37856 0.58459 0.86612 0.0
Tb72 Tb 0.39907 0.79537 0.87138 0.0
H73 H 0.31596 0.65649 0.9341 0.0
H74 H 0.42409 0.56202 0.77145 0.0
Tb75 Tb 0.46821 0.73673 0.75996 0.0
H76 H 0.43938 0.87139 0.77867 0.0
H77 H 0.33913 0.67723 0.6851 0.0
O78 O 0.46254 0.72475 0.84374 0.0
H79 H 0.52446 0.75286 0.86023 0.0
O80 O 0.06897 0.46841 0.83832 0.0
O81 O 0.58822 0.87007 0.78276 0.0
O82 O 0.49124 0.67197 0.69131 0.0
O83 O 0.18988 0.67937 0.9392 0.0
O84 O 0.18451 0.52626 0.68065 0.0
O85 O 0.46543 0.78233 0.94738 0.0
O86 O 0.38787 0.9182 0.85714 0.0
O87 O 0.27012 0.41296 0.76394 0.0
O88 O 0.1355 0.73161 0.76877 0.0
O89 O 0.5146 0.59981 0.85297 0.0
O90 O 0.29181 0.50694 0.93764 0.0
O91 O 0.34168 0.83085 0.69135 0.0
O92 O 0.12154 0.42459 0.76099 0.0
O93 O 0.5402 0.90807 0.86312 0.0
O94 O 0.33453 0.8193 0.93685 0.0
O95 O 0.3518 0.52726 0.68685 0.0
O96 O 0.15316 0.51169 0.92657 0.0
O97 O 0.48736 0.83944 0.69603 0.0
O98 O 0.5772 0.70556 0.78109 0.0
O99 O 0.07803 0.63525 0.844 0.0
O100 O 0.35048 0.44527 0.84613 0.0
O101 O 0.29609 0.88038 0.77817 0.0
O102 O 0.17271 0.66142 0.68712 0.0
O103 O 0.4588 0.63769 0.93664 0.0
C104 C 0.05819 0.41088 0.79761 0.0
C105 C 0.6014 0.92494 0.82491 0.0
C106 C 0.43895 0.58709 0.67123 0.0
C107 C 0.25558 0.76229 0.95969 0.0
C108 C 0.1492 0.57784 0.66545 0.0
C109 C 0.47992 0.71375 0.96396 0.0
C110 C 0.34416 0.93692 0.8189 0.0
C111 C 0.30788 0.39128 0.80384 0.0
C112 C 0.07153 0.68601 0.80535 0.0
C113 C 0.58116 0.65041 0.81821 0.0
C114 C 0.20654 0.48838 0.95292 0.0
C115 C 0.42869 0.86574 0.67632 0.0
H116 H 0.35667 0.75396 1.03905 0.0
H117 H 0.17416 0.85551 1.0001 0.0
H118 H 0.25898 0.9861 1.06151 0.0
H119 H 0.39973 0.08448 0.11298 0.0
H120 H 0.59312 0.99224 0.14556 0.0
H121 H 0.49337 0.84808 0.0962 0.0
C122 C 0.3325 0.80214 1.04617 0.0
C123 C 0.25785 0.79371 1.0151 0.0
C124 C 0.38807 0.88235 0.07709 0.0
C125 C 0.22917 0.85819 1.02405 0.0
C126 C 0.2801 0.93491 1.05781 0.0
C127 C 0.42099 0.03333 0.10951 0.0
C128 C 0.50563 0.05088 0.13277 0.0
C129 C 0.36248 0.95016 0.08201 0.0
C130 C 0.53034 0.98258 0.1273 0.0
C131 C 0.47218 0.89923 0.09986 0.0
H132 H 0.59757 0.69403 0.61613 0.0
H133 H 0.39492 0.40952 0.64564 0.0
H134 H 0.486 0.35946 0.59413 0.0
H135 H 0.61619 0.39588 0.5354 0.0
H136 H 0.80528 0.67789 0.495 0.0
H137 H 0.73163 0.73031 0.55972 0.0
C138 C 0.57274 0.62086 0.61127 0.0
C139 C 0.48802 0.55563 0.63439 0.0
C140 C 0.62552 0.59253 0.58137 0.0
C141 C 0.45813 0.46134 0.62753 0.0
C142 C 0.51115 0.43273 0.59875 0.0
C143 C 0.64404 0.46913 0.54267 0.0
C144 C 0.71772 0.53296 0.51103 0.0
C145 C 0.59467 0.49768 0.57535 0.0
C146 C 0.75106 0.62741 0.51975 0.0
C147 C 0.7067 0.65705 0.55556 0.0
H148 H 0.88621 0.30775 0.10773 0.0
H149 H 0.97905 0.59428 0.143 0.0
H150 H 0.11863 0.63948 0.09093 0.0
H151 H 0.20918 0.59727 1.03151 0.0
H152 H 0.10748 0.3124 0.98998 0.0
H153 H 0.9803 0.26592 1.05243 0.0
C154 C 0.93652 0.38049 0.10417 0.0
C155 C 0.92062 0.44763 0.12913 0.0
C156 C 0.0171 0.40566 0.07495 0.0
C157 C 0.98757 0.54111 0.12354 0.0
C158 C 0.06832 0.5668 0.09449 0.0
C159 C 0.16162 0.52474 1.03813 0.0
C160 C 0.16968 0.45829 1.00689 0.0
C161 C 0.08381 0.49959 0.07015 0.0
C162 C 0.10545 0.36476 1.01461 0.0
C163 C 0.03088 0.33857 1.04908 0.0
H164 H 0.32091 0.9159 0.62136 0.0
H165 H 0.60659 -0.00093 0.64918 0.0
H166 H 0.65316 0.13685 0.59532 0.0
H167 H 0.6116 0.22628 0.5352 0.0
H168 H 0.32637 0.13277 0.50154 0.0
H169 H 0.28032 0.01047 0.56701 0.0
C170 C 0.3938 0.96374 0.61607 0.0
C171 C 0.46019 0.94543 0.6392 0.0
C172 C 0.41977 0.04304 0.58574 0.0
C173 C 0.55384 0.00947 0.63127 0.0
C174 C 0.58039 0.08912 0.6011 0.0
C175 C 0.53934 0.18172 0.54415 0.0
C176 C 0.47244 0.1901 0.51407 0.0
C177 C 0.51385 0.10628 0.578 0.0
C178 C 0.37917 0.13018 0.52501 0.0
C179 C 0.35306 0.05832 0.56127 0.0
H180 H 0.66417 0.58039 0.11838 0.0
H181 H 0.38021 0.37058 0.14261 0.0
H182 H 0.33043 0.46349 0.09278 0.0
H183 H 0.36878 0.59897 1.03747 0.0
H184 H 0.65244 0.79957 1.00806 0.0
H185 H 0.70151 0.71982 0.06945 0.0
C186 C 0.59096 0.554 0.11311 0.0
C187 C 0.52602 0.46684 0.13403 0.0
C188 C 0.56314 0.60858 0.08551 0.0
C189 C 0.4319 0.43563 0.12624 0.0
C190 C 0.40351 0.48972 0.09849 0.0
C191 C 0.44132 0.6278 1.04667 0.0
C192 C 0.50691 0.70647 1.01876 0.0
C193 C 0.46863 0.57622 0.07794 0.0
C194 C 0.60058 0.74136 1.02992 0.0
C195 C 0.62846 0.69367 1.06371 0.0
H196 H 0.77346 0.38535 0.53452 0.0
H197 H 0.86878 0.1971 0.49497 0.0
H198 H -0.00064 0.28 0.55639 0.0
H199 H 0.09894 0.41994 0.60846 0.0
H200 H 0.01224 0.61826 0.64184 0.0
H201 H 0.86863 0.52112 0.59208 0.0
C202 C 0.82043 0.35977 0.54146 0.0
C203 C 0.81021 0.2838 0.51069 0.0
C204 C 0.90024 0.41369 0.57255 0.0
C205 C 0.87303 0.25315 0.519 0.0
C206 C 0.94952 0.30276 0.55281 0.0
C207 C 0.04921 0.44289 0.605 0.0
C208 C 0.06809 0.52811 0.62854 0.0
C209 C 0.96625 0.38583 0.57734 0.0
C210 C 0.00149 0.55493 0.6233 0.0
C211 C 0.91846 0.49833 0.59565 0.0
H212 H 0.57186 0.91249 0.35486 0.0
H213 H 0.81081 0.04789 0.25451 0.0
H214 H 0.81384 0.90449 0.24506 0.0
H215 H 0.7485 0.74093 0.26499 0.0
H216 H 0.50912 0.60544 0.36513 0.0
H217 H 0.50639 0.74884 0.37468 0.0
C218 C 0.62518 0.91088 0.33139 0.0
C219 C 0.69104 0.99059 0.30557 0.0
C220 C 0.62607 0.82813 0.32568 0.0
C221 C 0.75899 0.9872 0.27466 0.0
C222 C 0.76079 0.90528 0.26917 0.0
C223 C 0.69523 0.74249 0.28854 0.0
C224 C 0.62926 0.66269 0.31428 0.0
C225 C 0.69433 0.82523 0.29422 0.0
C226 C 0.56118 0.66611 0.34508 0.0
C227 C 0.5595 0.74807 0.35063 0.0
H228 H 0.91655 0.59162 0.86383 0.0
H229 H 0.03518 0.79161 0.73868 0.0
H230 H 0.89341 0.79687 0.7312 0.0
H231 H 0.7364 0.74506 0.75987 0.0
H232 H 0.61779 0.54516 0.88512 0.0
H233 H 0.75949 0.53984 0.89254 0.0
C234 C 0.91178 0.63675 0.83504 0.0
C235 C 0.98654 0.6911 0.80199 0.0
C236 C 0.83007 0.63943 0.83076 0.0
C237 C 0.97874 0.74879 0.7647 0.0
C238 C 0.89764 0.75193 0.76031 0.0
C239 C 0.74121 0.70015 0.78879 0.0
C240 C 0.66643 0.64583 0.82187 0.0
C241 C 0.8229 0.69744 0.79306 0.0
C242 C 0.6742 0.58803 0.8591 0.0
C243 C 0.7553 0.58486 0.86347 0.0
H244 H 0.24466 0.00302 0.2649 0.0
H245 H 0.38058 0.90164 0.36708 0.0
H246 H 0.23697 0.75564 0.37587 0.0
H247 H 0.07342 0.65723 0.35477 0.0
H248 H 0.93759 0.7583 0.25241 0.0
H249 H 0.08122 0.90455 0.24367 0.0
C250 C 0.2432 0.94881 0.28877 0.0
C251 C 0.32311 0.9632 0.31527 0.0
C252 C 0.16048 0.86536 0.29395 0.0
C253 C 0.31981 0.89252 0.34644 0.0
C254 C 0.23778 0.80901 0.35155 0.0
C255 C 0.07495 0.71155 0.33097 0.0
C256 C -0.00489 0.69716 0.30443 0.0
C257 C 0.15768 0.79498 0.32574 0.0
C258 C -0.00161 0.76767 0.27312 0.0
C259 C 0.0804 0.85124 0.26805 0.0
H260 H 0.39821 0.33043 0.86582 0.0
H261 H 0.20799 0.25029 0.73328 0.0
H262 H 0.20388 0.1033 0.72585 0.0
H263 H 0.25378 -0.00211 0.75683 0.0
H264 H 0.44407 0.07814 0.88943 0.0
H265 H 0.44828 0.22508 0.89673 0.0
C266 C 0.35537 0.28074 0.83546 0.0
C267 C 0.30341 0.30137 0.8003 0.0
C268 C 0.35341 0.19652 0.83123 0.0
C269 C 0.24891 0.23637 0.76089 0.0
C270 C 0.24642 0.15221 0.75656 0.0
C271 C 0.29648 0.04744 0.78728 0.0
C272 C 0.34837 0.02676 0.82249 0.0
C273 C 0.29853 0.13172 0.79145 0.0
C274 C 0.40309 0.09194 0.86178 0.0
C275 C 0.40563 0.17611 0.86607 0.0
H276 H 0.3308 0.41773 0.35438 0.0
H277 H 0.22345 0.16866 0.25896 0.0
H278 H 0.07722 0.16505 0.2485 0.0
H279 H 0.97999 0.23289 0.26593 0.0
H280 H 0.08779 0.48249 0.36104 0.0
H281 H 0.23361 0.48566 0.37173 0.0
C282 C 0.27505 0.3621 0.33181 0.0
C283 C 0.28791 0.29354 0.30766 0.0
C284 C 0.19143 0.36091 0.32539 0.0
C285 C 0.21545 0.22258 0.27786 0.0
C286 C 0.13179 0.22045 0.27175 0.0
C287 C 0.03563 0.28846 0.28858 0.0
C288 C 0.02285 0.35722 0.31259 0.0
C289 C 0.11925 0.28963 0.295 0.0
C290 C 0.09547 0.42826 0.34229 0.0
C291 C 0.17899 0.4302 0.34854 0.0
H292 H 0.94791 0.31181 0.87811 0.0
H293 H 0.97525 0.31212 0.70778 0.0
H294 H 0.83769 0.15933 0.70122 0.0
H295 H 0.71105 0.02493 0.74412 0.0
H296 H 0.68424 0.02469 0.91455 0.0
H297 H 0.82106 0.17777 0.92092 0.0
C298 C 0.92298 0.27876 0.83957 0.0
C299 C 0.97111 0.32277 0.79356 0.0
C300 C 0.84495 0.1905 0.83617 0.0
C301 C 0.93922 0.279 0.74382 0.0
C302 C 0.86084 0.1917 0.74003 0.0
C303 C 0.7359 0.05798 0.78267 0.0
C304 C 0.68814 0.01366 0.82877 0.0
C305 C 0.81379 0.1464 0.786 0.0
C306 C 0.71998 0.05773 0.87844 0.0
C307 C 0.79798 0.14526 0.88215 0.0
loop_
_geom_bond_atom_site_label_1
_geom_bond_atom_site_label_2
_geom_bond_distance
_geom_bond_site_symmetry_2
_ccdc_geom_bond_type
H0 O1 0.850 . S
O1 H0 0.850 . S
O1 Tb2 2.341 . S
O1 Tb3 2.341 . S
O1 Tb4 2.341 . S
Tb2 O1 2.341 . S
Tb2 O5 2.341 . S
Tb2 O6 2.341 . S
Tb2 O7 2.341 . S
Tb2 O22 2.344 . S
Tb2 O25 2.344 . S
Tb2 O38 2.344 . S
Tb2 O41 2.344 . S
Tb3 O1 2.341 . S
Tb3 O5 2.341 . S
Tb3 O8 2.341 . S
Tb3 O10 2.341 . S
Tb3 O26 2.344 . S
Tb3 O29 2.344 . S
Tb3 O34 2.344 . S
Tb3 O37 2.344 . S
Tb4 O1 2.341 . S
Tb4 O6 2.341 . S
Tb4 O9 2.341 . S
Tb4 O10 2.341 . S
Tb4 O30 2.344 . S
Tb4 O33 2.344 . S
Tb4 O43 2.344 . S
Tb4 O44 2.344 . S
O5 Tb2 2.341 . S
O5 Tb3 2.341 . S
O5 H11 0.850 . S
O5 Tb13 2.341 . S
O6 Tb2 2.341 . S
O6 Tb4 2.341 . S
O6 H12 0.850 . S
O6 Tb14 2.341 . S
O7 Tb2 2.341 . S
O7 Tb13 2.341 . S
O7 Tb14 2.341 . S
O7 H15 0.850 . S
O8 Tb3 2.341 . S
O8 Tb13 2.341 . S
O8 H16 0.850 . S
O8 Tb17 2.341 . S
O9 Tb4 2.341 . S
O9 Tb14 2.341 . S
O9 Tb17 2.341 . S
O9 H18 0.850 . S
O10 Tb3 2.341 . S
O10 Tb4 2.341 . S
O10 Tb17 2.341 . S
O10 H19 0.850 . S
H11 O5 0.850 . S
H12 O6 0.850 . S
Tb13 O5 2.341 . S
Tb13 O7 2.341 . S
Tb13 O8 2.341 . S
Tb13 O20 2.341 . S
Tb13 O31 2.344 . S
Tb13 O32 2.344 . S
Tb13 O42 2.344 . S
Tb13 O45 2.344 . S
Tb14 O6 2.341 . S
Tb14 O7 2.341 . S
Tb14 O9 2.341 . S
Tb14 O20 2.341 . S
Tb14 O27 2.344 . S
Tb14 O28 2.344 . S
Tb14 O35 2.344 . S
Tb14 O36 2.344 . S
H15 O7 0.850 . S
H16 O8 0.850 . S
Tb17 O8 2.341 . S
Tb17 O9 2.341 . S
Tb17 O10 2.341 . S
Tb17 O20 2.341 . S
Tb17 O23 2.344 . S
Tb17 O24 2.344 . S
Tb17 O39 2.344 . S
Tb17 O40 2.344 . S
H18 O9 0.850 . S
H19 O10 0.850 . S
O20 Tb13 2.341 . S
O20 Tb14 2.341 . S
O20 Tb17 2.341 . S
O20 H21 0.850 . S
H21 O20 0.850 . S
O22 Tb2 2.344 . S
O22 C46 1.272 . S
O23 Tb17 2.344 . S
O23 C47 1.272 . S
O24 Tb17 2.344 . S
O24 C48 1.272 . S
O25 Tb2 2.344 . S
O25 C49 1.272 . S
O26 Tb3 2.344 . S
O26 C50 1.272 . S
O27 Tb14 2.344 . S
O27 C51 1.272 . S
O28 Tb14 2.344 . S
O28 C52 1.272 . S
O29 Tb3 2.344 . S
O29 C53 1.272 . S
O30 Tb4 2.344 . S
O30 C54 1.272 . S
O31 Tb13 2.344 . S
O31 C55 1.272 . S
O32 Tb13 2.344 . S
O32 C56 1.272 . S
O33 Tb4 2.344 . S
O33 C57 1.272 . S
O34 Tb3 2.344 . S
O34 C46 1.272 . S
O35 Tb14 2.344 . S
O35 C47 1.272 . S
O36 Tb14 2.344 . S
O36 C49 1.272 . S
O37 Tb3 2.344 . S
O37 C48 1.272 . S
O38 Tb2 2.344 . S
O38 C56 1.272 . S
O39 Tb17 2.344 . S
O39 C57 1.272 . S
O40 Tb17 2.344 . S
O40 C55 1.272 . S
O41 Tb2 2.344 . S
O41 C54 1.272 . S
O42 Tb13 2.344 . S
O42 C53 1.272 . S
O43 Tb4 2.344 . S
O43 C52 1.272 . S
O44 Tb4 2.344 . S
O44 C50 1.272 . S
O45 Tb13 2.344 . S
O45 C51 1.272 . S
C46 O22 1.272 . S
C46 O34 1.272 . S
C47 O23 1.272 . S
C47 O35 1.272 . S
C48 O24 1.272 . S
C48 O37 1.272 . S
C49 O25 1.272 . S
C49 O36 1.272 . S
C50 O26 1.272 . S
C50 O44 1.272 . S
C51 O27 1.272 . S
C51 O45 1.272 . S
C52 O28 1.272 . S
C52 O43 1.272 . S
C53 O29 1.272 . S
C53 O42 1.272 . S
C54 O30 1.272 . S
C54 O41 1.272 . S
C55 O31 1.272 . S
C55 O40 1.272 . S
C56 O32 1.272 . S
C56 O38 1.272 . S
C57 O33 1.272 . S
C57 O39 1.272 . S
H58 O59 0.850 . S
O59 H58 0.850 . S
O59 Tb60 2.341 . S
O59 Tb61 2.341 . S
O59 Tb62 2.341 . S
Tb60 O59 2.341 . S
Tb60 O63 2.341 . S
Tb60 O64 2.341 . S
Tb60 O65 2.341 . S
Tb60 O80 2.344 . S
Tb60 O83 2.344 . S
Tb60 O96 2.344 . S
Tb60 O99 2.344 . S
Tb61 O59 2.341 . S
Tb61 O63 2.341 . S
Tb61 O66 2.341 . S
Tb61 O68 2.341 . S
Tb61 O84 2.344 . S
Tb61 O87 2.344 . S
Tb61 O92 2.344 . S
Tb61 O95 2.344 . S
Tb62 O59 2.341 . S
Tb62 O64 2.341 . S
Tb62 O67 2.341 . S
Tb62 O68 2.341 . S
Tb62 O88 2.344 . S
Tb62 O91 2.344 . S
Tb62 O101 2.344 . S
Tb62 O102 2.344 . S
O63 Tb60 2.341 . S
O63 Tb61 2.341 . S
O63 H69 0.850 . S
O63 Tb71 2.341 . S
O64 Tb60 2.341 . S
O64 Tb62 2.341 . S
O64 H70 0.850 . S
O64 Tb72 2.341 . S
O65 Tb60 2.341 . S
O65 Tb71 2.341 . S
O65 Tb72 2.341 . S
O65 H73 0.850 . S
O66 Tb61 2.341 . S
O66 Tb71 2.341 . S
O66 H74 0.850 . S
O66 Tb75 2.341 . S
O67 Tb62 2.341 . S
O67 Tb72 2.341 . S
O67 Tb75 2.341 . S
O67 H76 0.850 . S
O68 Tb61 2.341 . S
O68 Tb62 2.341 . S
O68 Tb75 2.341 . S
O68 H77 0.850 . S
H69 O63 0.850 . S
H70 O64 0.850 . S
Tb71 O63 2.341 . S
Tb71 O65 2.341 . S
Tb71 O66 2.341 . S
Tb71 O78 2.341 . S
Tb71 O89 2.344 . S
Tb71 O90 2.344 . S
Tb71 O100 2.344 . S
Tb71 O103 2.344 . S
Tb72 O64 2.341 . S
Tb72 O65 2.341 . S
Tb72 O67 2.341 . S
Tb72 O78 2.341 . S
Tb72 O85 2.344 . S
Tb72 O86 2.344 . S
Tb72 O93 2.344 . S
Tb72 O94 2.344 . S
H73 O65 0.850 . S
H74 O66 0.850 . S
Tb75 O66 2.341 . S
Tb75 O67 2.341 . S
Tb75 O68 2.341 . S
Tb75 O78 2.341 . S
Tb75 O81 2.344 . S
Tb75 O82 2.344 . S
Tb75 O97 2.344 . S
Tb75 O98 2.344 . S
H76 O67 0.850 . S
H77 O68 0.850 . S
O78 Tb71 2.341 . S
O78 Tb72 2.341 . S
O78 Tb75 2.341 . S
O78 H79 0.850 . S
H79 O78 0.850 . S
O80 Tb60 2.344 . S
O80 C104 1.272 . S
O81 Tb75 2.344 . S
O81 C105 1.272 . S
O82 Tb75 2.344 . S
O82 C106 1.272 . S
O83 Tb60 2.344 . S
O83 C107 1.272 . S
O84 Tb61 2.344 . S
O84 C108 1.272 . S
O85 Tb72 2.344 . S
O85 C109 1.272 . S
O86 Tb72 2.344 . S
O86 C110 1.272 . S
O87 Tb61 2.344 . S
O87 C111 1.272 . S
O88 Tb62 2.344 . S
O88 C112 1.272 . S
O89 Tb71 2.344 . S
O89 C113 1.272 . S
O90 Tb71 2.344 . S
O90 C114 1.272 . S
O91 Tb62 2.344 . S
O91 C115 1.272 . S
O92 Tb61 2.344 . S
O92 C104 1.272 . S
O93 Tb72 2.344 . S
O93 C105 1.272 . S
O94 Tb72 2.344 . S
O94 C107 1.272 . S
O95 Tb61 2.344 . S
O95 C106 1.272 . S
O96 Tb60 2.344 . S
O96 C114 1.272 . S
O97 Tb75 2.344 . S
O97 C115 1.272 . S
O98 Tb75 2.344 . S
O98 C113 1.272 . S
O99 Tb60 2.344 . S
O99 C112 1.272 . S
O100 Tb71 2.344 . S
O100 C111 1.272 . S
O101 Tb62 2.344 . S
O101 C110 1.272 . S
O102 Tb62 2.344 . S
O102 C108 1.272 . S
O103 Tb71 2.344 . S
O103 C109 1.272 . S
C104 O80 1.272 . S
C104 O92 1.272 . S
C105 O81 1.272 . S
C105 O93 1.272 . S
C106 O82 1.272 . S
C106 O95 1.272 . S
C107 O83 1.272 . S
C107 O94 1.272 . S
C108 O84 1.272 . S
C108 O102 1.272 . S
C109 O85 1.272 . S
C109 O103 1.272 . S
C110 O86 1.272 . S
C110 O101 1.272 . S
C111 O87 1.272 . S
C111 O100 1.272 . S
C112 O88 1.272 . S
C112 O99 1.272 . S
C113 O89 1.272 . S
C113 O98 1.272 . S
C114 O90 1.272 . S
C114 O96 1.272 . S
C115 O91 1.272 . S
C115 O97 1.272 . S
H116 C122 0.930 . S
H117 C125 0.930 . S
H118 C126 0.930 . S
H119 C127 0.930 . S
H120 C130 0.930 . S
H121 C131 0.930 . S
C122 H116 0.930 . S
C122 C123 1.355 . S
C122 C124 1.415 . S
C123 C122 1.355 . S
C123 C125 1.419 . S
C124 C122 1.415 . S
C124 C129 1.425 1_556 S
C124 C131 1.409 1_565 S
C125 H117 0.930 . S
C125 C123 1.419 . S
C125 C126 1.362 1_556 S
C126 H118 0.930 . S
C126 C125 1.362 1_554 S
C126 C129 1.409 . S
C127 H119 0.930 . S
C127 C128 1.355 1_565 S
C127 C129 1.415 . S
C128 C127 1.355 1_545 S
C128 C130 1.419 . S
C129 C124 1.425 1_554 S
C129 C126 1.409 . S
C129 C127 1.415 . S
C130 H120 0.930 . S
C130 C128 1.419 . S
C130 C131 1.362 1_554 S
C131 H121 0.930 . S
C131 C124 1.409 1_545 S
C131 C130 1.362 1_556 S
H132 C138 0.930 . S
H133 C141 0.930 . S
H134 C142 0.930 . S
H135 C143 0.930 . S
H136 C146 0.930 . S
H137 C147 0.930 . S
C138 H132 0.930 . S
C138 C139 1.355 . S
C138 C140 1.415 . S
C139 C138 1.355 . S
C139 C141 1.419 . S
C140 C138 1.415 . S
C140 C145 1.425 . S
C140 C147 1.409 . S
C141 H133 0.930 . S
C141 C139 1.419 . S
C141 C142 1.362 . S
C142 H134 0.930 . S
C142 C141 1.362 . S
C142 C145 1.409 . S
C143 H135 0.930 . S
C143 C144 1.355 . S
C143 C145 1.415 . S
C144 C143 1.355 . S
C144 C146 1.419 . S
C145 C140 1.425 . S
C145 C142 1.409 . S
C145 C143 1.415 . S
C146 H136 0.930 . S
C146 C144 1.419 . S
C146 C147 1.362 . S
C147 H137 0.930 . S
C147 C140 1.409 . S
C147 C146 1.362 . S
H148 C154 0.930 . S
H149 C157 0.930 . S
H150 C158 0.930 . S
H151 C159 0.930 . S
H152 C162 0.930 . S
H153 C163 0.930 . S
C154 H148 0.930 . S
C154 C155 1.355 1_455 S
C154 C156 1.415 . S
C155 C154 1.355 1_655 S
C155 C157 1.419 . S
C156 C154 1.415 . S
C156 C161 1.425 1_554 S
C156 C163 1.409 . S
C157 H149 0.930 . S
C157 C155 1.419 . S
C157 C158 1.362 1_554 S
C158 H150 0.930 . S
C158 C157 1.362 1_556 S
C158 C161 1.409 1_655 S
C159 H151 0.930 . S
C159 C160 1.355 . S
C159 C161 1.415 . S
C160 C159 1.355 . S
C160 C162 1.419 . S
C161 C156 1.425 1_556 S
C161 C158 1.409 1_455 S
C161 C159 1.415 . S
C162 H152 0.930 . S
C162 C160 1.419 . S
C162 C163 1.362 1_556 S
C163 H153 0.930 . S
C163 C156 1.409 . S
C163 C162 1.362 1_554 S
H164 C170 0.930 . S
H165 C173 0.930 . S
H166 C174 0.930 . S
H167 C175 0.930 . S
H168 C178 0.930 . S
H169 C179 0.930 . S
C170 H164 0.930 . S
C170 C171 1.355 . S
C170 C172 1.415 . S
C171 C170 1.355 . S
C171 C173 1.419 1_565 S
C172 C170 1.415 . S
C172 C177 1.425 1_565 S
C172 C179 1.409 . S
C173 H165 0.930 . S
C173 C171 1.419 1_545 S
C173 C174 1.362 . S
C174 H166 0.930 . S
C174 C173 1.362 . S
C174 C177 1.409 . S
C175 H167 0.930 . S
C175 C176 1.355 . S
C175 C177 1.415 . S
C176 C175 1.355 . S
C176 C178 1.419 . S
C177 C172 1.425 1_545 S
C177 C174 1.409 . S
C177 C175 1.415 . S
C178 H168 0.930 . S
C178 C176 1.419 . S
C178 C179 1.362 1_545 S
C179 H169 0.930 . S
C179 C172 1.409 . S
C179 C178 1.362 1_565 S
H180 C186 0.930 . S
H181 C189 0.930 . S
H182 C190 0.930 . S
H183 C191 0.930 . S
H184 C194 0.930 . S
H185 C195 0.930 . S
C186 H180 0.930 . S
C186 C187 1.355 . S
C186 C188 1.420 . S
C187 C186 1.355 . S
C187 C189 1.419 . S
C188 C186 1.420 . S
C188 C193 1.425 1_554 S
C188 C195 1.404 1_554 S
C189 H181 0.930 . S
C189 C187 1.419 . S
C189 C190 1.362 . S
C190 H182 0.930 . S
C190 C189 1.362 . S
C190 C193 1.404 1_554 S
C191 H183 0.930 . S
C191 C192 1.355 . S
C191 C193 1.420 . S
C192 C191 1.355 . S
C192 C194 1.419 . S
C193 C188 1.425 1_556 S
C193 C190 1.404 1_556 S
C193 C191 1.420 . S
C194 H184 0.930 . S
C194 C192 1.419 . S
C194 C195 1.362 . S
C195 H185 0.930 . S
C195 C188 1.404 1_556 S
C195 C194 1.362 . S
H196 C202 0.930 . S
H197 C205 0.930 . S
H198 C206 0.930 . S
H199 C207 0.930 . S
H200 C210 0.930 . S
H201 C211 0.930 . S
C202 H196 0.930 . S
C202 C203 1.355 . S
C202 C204 1.415 . S
C203 C202 1.355 . S
C203 C205 1.419 . S
C204 C202 1.415 . S
C204 C209 1.425 1_655 S
C204 C211 1.409 . S
C205 H197 0.930 . S
C205 C203 1.419 . S
C205 C206 1.362 1_655 S
C206 H198 0.930 . S
C206 C205 1.362 1_455 S
C206 C209 1.409 . S
C207 H199 0.930 . S
C207 C208 1.355 . S
C207 C209 1.415 . S
C208 C207 1.355 . S
C208 C210 1.419 1_455 S
C209 C204 1.425 1_455 S
C209 C206 1.409 . S
C209 C207 1.415 . S
C210 H200 0.930 . S
C210 C208 1.419 1_655 S
C210 C211 1.362 . S
C211 H201 0.930 . S
C211 C204 1.409 . S
C211 C210 1.362 . S
H212 C218 0.929 1_545 S
H213 C221 0.930 . S
H214 C222 0.930 . S
H215 C223 0.930 . S
H216 C226 0.930 . S
H217 C227 0.930 . S
C218 H212 0.929 1_565 S
C218 C219 1.355 . S
C218 C220 1.415 . S
C219 C218 1.355 . S
C219 C221 1.419 . S
C220 C218 1.415 . S
C220 C225 1.425 . S
C220 C227 1.409 . S
C221 H213 0.930 . S
C221 C219 1.419 . S
C221 C222 1.362 . S
C222 H214 0.930 . S
C222 C221 1.362 . S
C222 C225 1.409 . S
C223 H215 0.930 . S
C223 C224 1.355 . S
C223 C225 1.415 . S
C224 C223 1.355 . S
C224 C226 1.419 . S
C225 C220 1.425 . S
C225 C222 1.409 . S
C225 C223 1.415 . S
C226 H216 0.930 . S
C226 C224 1.419 . S
C226 C227 1.362 . S
C227 H217 0.930 . S
C227 C220 1.409 . S
C227 C226 1.362 . S
H228 C234 0.930 . S
H229 C237 0.930 . S
H230 C238 0.930 . S
H231 C239 0.930 . S
H232 C242 0.930 . S
H233 C243 0.930 . S
C234 H228 0.930 . S
C234 C235 1.355 . S
C234 C236 1.415 . S
C235 C234 1.355 . S
C235 C237 1.419 . S
C236 C234 1.415 . S
C236 C241 1.425 . S
C236 C243 1.409 . S
C237 H229 0.930 . S
C237 C235 1.419 . S
C237 C238 1.362 . S
C238 H230 0.930 . S
C238 C237 1.362 . S
C238 C241 1.409 . S
C239 H231 0.930 . S
C239 C240 1.355 . S
C239 C241 1.415 . S
C240 C239 1.355 . S
C240 C242 1.419 . S
C241 C236 1.425 . S
C241 C238 1.409 . S
C241 C239 1.415 . S
C242 H232 0.930 . S
C242 C240 1.419 . S
C242 C243 1.362 . S
C243 H233 0.930 . S
C243 C236 1.409 . S
C243 C242 1.362 . S
H244 C250 0.930 . S
H245 C253 0.930 . S
H246 C254 0.930 . S
H247 C255 0.930 . S
H248 C258 0.930 . S
H249 C259 0.930 . S
C250 H244 0.930 . S
C250 C251 1.355 . S
C250 C252 1.415 . S
C251 C250 1.355 . S
C251 C253 1.419 1_565 S
C252 C250 1.415 . S
C252 C257 1.425 . S
C252 C259 1.409 . S
C253 H245 0.930 . S
C253 C251 1.419 1_545 S
C253 C254 1.362 1_545 S
C254 H246 0.930 . S
C254 C253 1.362 1_565 S
C254 C257 1.409 . S
C255 H247 0.930 . S
C255 C256 1.355 . S
C255 C257 1.415 . S
C256 C255 1.355 . S
C256 C258 1.419 . S
C257 C252 1.425 . S
C257 C254 1.409 . S
C257 C255 1.415 . S
C258 H248 0.930 . S
C258 C256 1.419 . S
C258 C259 1.362 . S
C259 H249 0.930 . S
C259 C252 1.409 . S
C259 C258 1.362 . S
H260 C266 0.930 . S
H261 C269 0.930 . S
H262 C270 0.930 . S
H263 C271 0.930 . S
H264 C274 0.930 1_565 S
H265 C275 0.930 . S
C266 H260 0.930 . S
C266 C267 1.355 . S
C266 C268 1.415 . S
C267 C266 1.355 . S
C267 C269 1.419 . S
C268 C266 1.415 . S
C268 C273 1.425 . S
C268 C275 1.409 . S
C269 H261 0.930 . S
C269 C267 1.419 . S
C269 C270 1.362 . S
C270 H262 0.930 . S
C270 C269 1.362 . S
C270 C273 1.409 . S
C271 H263 0.930 . S
C271 C272 1.355 . S
C271 C273 1.415 . S
C272 C271 1.355 . S
C272 C274 1.419 . S
C273 C268 1.425 . S
C273 C270 1.409 . S
C273 C271 1.415 . S
C274 H264 0.930 1_545 S
C274 C272 1.419 . S
C274 C275 1.362 . S
C275 H265 0.930 . S
C275 C268 1.409 . S
C275 C274 1.362 . S
H276 C282 0.930 . S
H277 C285 0.930 . S
H278 C286 0.930 . S
H279 C287 0.930 . S
H280 C290 0.930 . S
H281 C291 0.930 . S
C282 H276 0.930 . S
C282 C283 1.355 . S
C282 C284 1.415 . S
C283 C282 1.355 . S
C283 C285 1.419 . S
C284 C282 1.415 . S
C284 C289 1.425 . S
C284 C291 1.409 . S
C285 H277 0.930 . S
C285 C283 1.419 . S
C285 C286 1.362 . S
C286 H278 0.930 . S
C286 C285 1.362 . S
C286 C289 1.409 . S
C287 H279 0.930 . S
C287 C288 1.355 . S
C287 C289 1.415 . S
C288 C287 1.355 . S
C288 C290 1.419 1_455 S
C289 C284 1.425 . S
C289 C286 1.409 . S
C289 C287 1.415 . S
C290 H280 0.930 . S
C290 C288 1.419 1_655 S
C290 C291 1.362 1_655 S
C291 H281 0.930 . S
C291 C284 1.409 . S
C291 C290 1.362 1_455 S
H292 C298 0.930 . S
H293 C301 0.930 . S
H294 C302 0.930 . S
H295 C303 0.930 . S
H296 C306 0.930 1_565 S
H297 C307 0.930 . S
C298 H292 0.930 . S
C298 C299 1.355 . S
C298 C300 1.415 . S
C299 C298 1.355 . S
C299 C301 1.419 . S
C300 C298 1.415 . S
C300 C305 1.425 . S
C300 C307 1.409 . S
C301 H293 0.930 . S
C301 C299 1.419 . S
C301 C302 1.362 . S
C302 H294 0.930 . S
C302 C301 1.362 . S
C302 C305 1.409 . S
C303 H295 0.930 . S
C303 C304 1.355 . S
C303 C305 1.415 . S
C304 C303 1.355 . S
C304 C306 1.419 . S
C305 C300 1.425 . S
C305 C302 1.409 . S
C305 C303 1.415 . S
C306 H296 0.930 1_545 S
C306 C304 1.419 . S
C306 C307 1.362 . S
C307 H297 0.930 . S
C307 C300 1.409 . S
C307 C306 1.362 . S
C123 C107 1.873 . S
C128 C54 2.007 . S
C139 C106 2.006 . S
C144 C55 1.872 . S
C155 C52 2.006 . S
C160 C114 1.872 . S
C171 C115 2.013 . S
C176 C53 1.877 . S
C187 C49 1.980 . S
C192 C109 1.820 . S
C203 C48 1.844 . S
C208 C108 1.997 . S
C219 C50 1.152 1_565 S
C224 C51 1.152 . S
C235 C112 1.162 1_655 S
C240 C113 1.162 . S
C251 C46 1.148 1_565 S
C256 C47 1.148 1_455 S
C267 C111 1.159 . S
C272 C110 1.159 1_545 S
C283 C56 1.150 . S
C288 C57 1.150 1_455 S
C299 C104 1.165 1_655 S
C304 C105 1.165 1_545 S
