# Generated by pormake.
# Topology tfs, (6)-cn, num edge types: 1
# Building blocks:
#     Node 0, Type 0, BuildingBlock: MIDCAF_clean_sbu_0, # of connection points: 6
#     Node 1, Type 0, BuildingBlock: MIDCAF_clean_sbu_0, # of connection points: 6
#     Node 2, Type 0, BuildingBlock: MIDCAF_clean_sbu_0, # of connection points: 6
#     Node 3, Type 0, BuildingBlock: MIDCAF_clean_sbu_0, # of connection points: 6
#     Node 4, Type 0, BuildingBlock: MIDCAF_clean_sbu_0, # of connection points: 6
#     Node 5, Type 0, BuildingBlock: MIDCAF_clean_sbu_0, # of connection points: 6
#     Edge 6, Type (0, 0), BuildingBlock: FUNLAD_clean_linker_0, # of connection points: 2
#     Edge 7, Type (0, 0), BuildingBlock: FUNLAD_clean_linker_0, # of connection points: 2
#     Edge 8, Type (0, 0), BuildingBlock: FUNLAD_clean_linker_0, # of connection points: 2
#     Edge 9, Type (0, 0), BuildingBlock: FUNLAD_clean_linker_0, # of connection points: 2
#     Edge 10, Type (0, 0), BuildingBlock: FUNLAD_clean_linker_0, # of connection points: 2
#     Edge 11, Type (0, 0), BuildingBlock: FUNLAD_clean_linker_0, # of connection points: 2
#     Edge 12, Type (0, 0), BuildingBlock: FUNLAD_clean_linker_0, # of connection points: 2
#     Edge 13, Type (0, 0), BuildingBlock: FUNLAD_clean_linker_0, # of connection points: 2
#     Edge 14, Type (0, 0), BuildingBlock: FUNLAD_clean_linker_0, # of connection points: 2
#     Edge 15, Type (0, 0), BuildingBlock: FUNLAD_clean_linker_0, # of connection points: 2
#     Edge 16, Type (0, 0), BuildingBlock: FUNLAD_clean_linker_0, # of connection points: 2
#     Edge 17, Type (0, 0), BuildingBlock: FUNLAD_clean_linker_0, # of connection points: 2
#     Edge 18, Type (0, 0), BuildingBlock: FUNLAD_clean_linker_0, # of connection points: 2
#     Edge 19, Type (0, 0), BuildingBlock: FUNLAD_clean_linker_0, # of connection points: 2
#     Edge 20, Type (0, 0), BuildingBlock: FUNLAD_clean_linker_0, # of connection points: 2
#     Edge 21, Type (0, 0), BuildingBlock: FUNLAD_clean_linker_0, # of connection points: 2
#     Edge 22, Type (0, 0), BuildingBlock: FUNLAD_clean_linker_0, # of connection points: 2
#     Edge 23, Type (0, 0), BuildingBlock: FUNLAD_clean_linker_0, # of connection points: 2
# Relax obj value: 0.134
# Max RMSD: 0.125
# Mean RMSD: 0.125
data_MOF--net-tfs--node1-MIDCAF_clean_sbu_0--edge1-FUNLAD_clean_linker_0
_symmetry_space_group_name_H-M    P1
_symmetry_Int_Tables_number       1
_symmetry_cell_setting            triclinic
loop_
_symmetry_equiv_pos_as_xyz
'x, y, z'
_cell_length_a     48.397871
_cell_length_b     48.402748
_cell_length_c     17.623689
_cell_angle_alpha  90.115322
_cell_angle_beta   90.007856
_cell_angle_gamma 120.15041
loop_
_atom_site_label
_atom_site_type_symbol
_atom_site_fract_x
_atom_site_fract_y
_atom_site_fract_z
_atom_type_partial_charge
Zn0 Zn 0.17339 0.41089 0.95317 0.0
Zn1 Zn 0.27296 0.44943 0.09039 0.0
Zn2 Zn 0.22016 0.42604 0.02652 0.0
C3 C 0.26902 0.40028 1.0019 0.0
C4 C 0.22652 0.41955 0.20336 0.0
O5 O 0.21901 0.46988 0.99159 0.0
O6 O 0.16796 0.4487 0.96298 0.0
C7 C 0.20643 0.3939 0.8618 0.0
O8 O 0.24313 0.3995 0.98048 0.0
O9 O 0.28728 0.42109 0.04911 0.0
O10 O 0.25584 0.43917 0.19377 0.0
O11 O 0.20755 0.40953 0.14572 0.0
O12 O 0.18516 0.40148 0.85513 0.0
O13 O 0.22169 0.39892 0.92503 0.0
O14 O 0.17831 0.39622 0.10238 0.0
O15 O 0.14411 0.37254 0.0089 0.0
C16 C 0.15083 0.37407 0.07827 0.0
O17 O 0.25002 0.48012 0.01504 0.0
O18 O 0.29731 0.49456 0.06541 0.0
C19 C 0.19483 0.47316 0.97483 0.0
C20 C 0.27902 0.50188 0.03157 0.0
Zn21 Zn 0.7585 0.1706 0.99034 0.0
Zn22 Zn 0.83171 0.25696 0.16896 0.0
Zn23 Zn 0.80029 0.21047 0.08111 0.0
C24 C 0.87532 0.25488 0.06667 0.0
C25 C 0.80811 0.2024 0.25854 0.0
O26 O 0.7599 0.21965 0.05434 0.0
O27 O 0.72723 0.18423 0.97044 0.0
C28 C 0.81736 0.19461 0.91677 0.0
O29 O 0.8498 0.23191 0.03643 0.0
O30 O 0.87334 0.26927 0.12431 0.0
O31 O 0.82073 0.23233 0.26272 0.0
O32 O 0.79956 0.18821 0.19353 0.0
O33 O 0.78793 0.17502 0.90923 0.0
O34 O 0.82799 0.21151 0.97789 0.0
O35 O 0.78101 0.16313 0.1384 0.0
O36 O 0.7443 0.13297 0.0537 0.0
C37 C 0.75873 0.13555 0.1151 0.0
O38 O 0.78471 0.24774 0.08616 0.0
O39 O 0.81717 0.28767 0.16119 0.0
C40 C 0.73427 0.20776 0.01312 0.0
C41 C 0.79377 0.27544 0.11636 0.0
Zn42 Zn 0.58604 0.85369 0.12663 0.0
Zn43 Zn 0.5632 0.75113 0.86641 0.0
Zn44 Zn 0.58433 0.79514 0.95549 0.0
C45 C 0.60829 0.74489 0.95257 0.0
C46 C 0.59551 0.80669 0.77874 0.0
O47 O 0.54067 0.79652 0.00912 0.0
O48 O 0.53861 0.827 0.10577 0.0
C49 C 0.61178 0.80799 0.10038 0.0
O50 O 0.60944 0.76876 0.98819 0.0
O51 O 0.58948 0.73255 0.89709 0.0
O52 O 0.5762 0.77706 0.7742 0.0
O53 O 0.60432 0.82016 0.84443 0.0
O54 O 0.60021 0.82494 0.07949 0.0
O55 O 0.6113 0.78876 0.05009 0.0
O56 O 0.61441 0.84394 0.90789 0.0
O57 O 0.59896 0.84645 0.02047 0.0
C58 C 0.61502 0.86147 0.96283 0.0
O59 O 0.53136 0.76637 0.96412 0.0
O60 O 0.51736 0.72623 0.88445 0.0
C61 C 0.5251 0.80554 0.05421 0.0
C62 C 0.50972 0.74011 0.9335 0.0
Zn63 Zn 0.74544 0.57386 0.05491 0.0
Zn64 Zn 0.83723 0.57268 0.91461 0.0
Zn65 Zn 0.79291 0.57784 0.98132 0.0
C66 C 0.86729 0.61351 0.03357 0.0
C67 C 0.8175 0.60507 0.81485 0.0
O68 O 0.75477 0.52661 1.00226 0.0
O69 O 0.71721 0.52786 0.07109 0.0
C70 C 0.79898 0.61002 0.14537 0.0
O71 O 0.83889 0.60927 0.04109 0.0
O72 O 0.87259 0.59731 0.98583 0.0
O73 O 0.83757 0.59586 0.82221 0.0
O74 O 0.79733 0.60002 0.86834 0.0
O75 O 0.76938 0.59995 0.14271 0.0
O76 O 0.81275 0.60407 0.09023 0.0
O77 O 0.77426 0.60337 0.91189 0.0
O78 O 0.73231 0.59487 0.98009 0.0
C79 C 0.75 0.6071 0.92303 0.0
O80 O 0.78149 0.52669 0.97143 0.0
O81 O 0.82041 0.52655 0.90594 0.0
C82 C 0.72763 0.512 0.03726 0.0
C83 C 0.79429 0.51146 0.94092 0.0
Zn84 Zn 0.17585 0.75633 0.05973 0.0
Zn85 Zn 0.25599 0.84214 0.91549 0.0
Zn86 Zn 0.21057 0.79874 0.98913 0.0
C87 C 0.24978 0.87224 0.04194 0.0
C88 C 0.19997 0.82072 0.82793 0.0
O89 O 0.22257 0.75937 0.9909 0.0
O90 O 0.17374 0.71911 0.00749 0.0
C91 C 0.20632 0.79974 0.16509 0.0
O92 O 0.22664 0.84366 0.05436 0.0
O93 O 0.26846 0.87766 0.98694 0.0
O94 O 0.22948 0.84094 0.82889 0.0
O95 O 0.18704 0.80135 0.88395 0.0
O96 O 0.19868 0.77079 0.15771 0.0
O97 O 0.20923 0.81613 0.10504 0.0
O98 O 0.16252 0.78228 0.93762 0.0
O99 O 0.13961 0.76347 0.04802 0.0
C100 C 0.13813 0.77239 0.98183 0.0
O101 O 0.24994 0.7873 0.96873 0.0
O102 O 0.28618 0.82683 0.89882 0.0
C103 C 0.20247 0.72903 0.99037 0.0
C104 C 0.27704 0.80092 0.93345 0.0
Zn105 Zn 0.42187 0.25177 0.91897 0.0
Zn106 Zn 0.42222 0.15919 0.05602 0.0
Zn107 Zn 0.41747 0.20392 0.99183 0.0
C108 C 0.38152 0.12976 0.93727 0.0
C109 C 0.38981 0.17843 0.15734 0.0
O110 O 0.4688 0.24215 0.9724 0.0
O111 O 0.46798 0.28036 0.90556 0.0
C112 C 0.38613 0.19864 0.8271 0.0
O113 O 0.38574 0.15819 0.93133 0.0
O114 O 0.39811 0.12431 0.9834 0.0
O115 O 0.39869 0.15815 0.14877 0.0
O116 O 0.39519 0.19901 0.10476 0.0
O117 O 0.39661 0.22832 0.82976 0.0
O118 O 0.39149 0.18462 0.88256 0.0
O119 O 0.39184 0.22216 0.06199 0.0
O120 O 0.3999 0.26387 0.99366 0.0
C121 C 0.38778 0.24617 0.05072 0.0
O122 O 0.46853 0.21518 1.0018 0.0
O123 O 0.46819 0.17569 0.06558 0.0
C124 C 0.48362 0.26963 0.93903 0.0
C125 C 0.48352 0.20204 0.03171 0.0
C126 C 0.37549 0.27969 0.13264 0.0
C127 C 0.36444 0.25089 0.09314 0.0
C128 C 0.35657 0.29393 0.13737 0.0
C129 C 0.32667 0.27997 0.101 0.0
C130 C 0.31394 0.24907 0.07038 0.0
C131 C 0.33271 0.23456 0.067 0.0
C132 C 0.3121 0.30029 0.08793 0.0
C133 C 0.29294 0.29688 0.02853 0.0
C134 C 0.28705 0.32314 0.00691 0.0
C135 C 0.31249 0.3548 0.00614 0.0
C136 C 0.30681 0.37999 0.99478 0.0
C137 C 0.27553 0.37418 0.98456 0.0
H138 H 0.23639 0.29265 0.9864 0.0
C139 C 0.25043 0.3424 0.97737 0.0
C140 C 0.25624 0.31697 0.98799 0.0
H141 H 0.22605 0.33719 0.96987 0.0
H142 H 0.40005 0.29298 0.15205 0.0
H143 H 0.3668 0.3175 0.16256 0.0
H144 H 0.29053 0.23701 0.04431 0.0
H145 H 0.32384 0.21248 0.03529 0.0
H146 H 0.32105 0.32169 0.12276 0.0
H147 H 0.28289 0.27577 0.99277 0.0
H148 H 0.33672 0.36021 0.01727 0.0
H149 H 0.32673 0.4042 0.99968 0.0
C150 C 0.10651 0.32054 0.1072 0.0
C151 C 0.12412 0.35297 0.12785 0.0
C152 C 0.0733 0.30338 0.11546 0.0
C153 C 0.05726 0.31848 0.14496 0.0
C154 C 0.07551 0.34914 0.1771 0.0
C155 C 0.10879 0.36633 0.16853 0.0
C156 C 0.02223 0.30512 0.13501 0.0
C157 C 0.00463 0.28431 0.0794 0.0
C158 C 0.9717 0.27727 0.06139 0.0
C159 C 0.94759 0.24611 0.04218 0.0
C160 C 0.91573 0.23889 0.0341 0.0
C161 C 0.90788 0.26294 0.04408 0.0
H162 H 0.98241 0.32624 0.07447 0.0
C163 C 0.93263 0.29463 0.05464 0.0
C164 C 0.96414 0.30172 0.06338 0.0
H165 H 0.92727 0.31368 0.06214 0.0
H166 H 0.11787 0.30971 0.07561 0.0
H167 H 0.06028 0.27925 0.0935 0.0
H168 H 0.06383 0.36112 0.20184 0.0
H169 H 0.12173 0.39138 0.18428 0.0
H170 H 0.01122 0.31562 0.16949 0.0
H171 H 0.01452 0.27287 0.0446 0.0
H172 H 0.95304 0.22701 0.03837 0.0
H173 H 0.89709 0.21422 0.02677 0.0
C174 C 0.76831 0.09058 0.11656 0.0
C175 C 0.75232 0.10523 0.14892 0.0
C176 C 0.75274 0.05732 0.10803 0.0
C177 C 0.7211 0.03819 0.13318 0.0
C178 C 0.70701 0.05257 0.17531 0.0
C179 C 0.72232 0.08587 0.18227 0.0
C180 C 0.70102 0.00401 0.11081 0.0
C181 C 0.70337 0.99242 0.04258 0.0
C182 C 0.67953 0.95977 0.0149 0.0
C183 C 0.68856 0.94394 0.96181 0.0
C184 C 0.66681 0.91248 0.93865 0.0
C185 C 0.63562 0.89657 0.96785 0.0
H186 H 0.63905 0.95631 0.07672 0.0
C187 C 0.62602 0.91332 0.0162 0.0
C188 C 0.64756 0.94449 0.03918 0.0
H189 H 0.60198 0.90177 0.03894 0.0
H190 H 0.79122 0.10499 0.08906 0.0
H191 H 0.76474 0.0469 0.07764 0.0
H192 H 0.68282 0.03833 0.1964 0.0
H193 H 0.70915 0.09653 0.20584 0.0
H194 H 0.68162 0.98886 0.1488 0.0
H195 H 0.72286 0.00745 0.00464 0.0
H196 H 0.71285 0.95542 0.94071 0.0
H197 H 0.67494 0.90003 0.90192 0.0
C198 C 0.7619 0.66224 0.90456 0.0
C199 C 0.745 0.63023 0.88049 0.0
C200 C 0.74807 0.68157 0.89876 0.0
C201 C 0.71727 0.66915 0.8678 0.0
C202 C 0.70249 0.6386 0.83449 0.0
C203 C 0.71602 0.61912 0.84174 0.0
C204 C 0.69823 0.68539 0.87594 0.0
C205 C 0.70131 0.70483 0.93458 0.0
C206 C 0.67685 0.71417 0.95009 0.0
C207 C 0.68576 0.74473 0.97854 0.0
C208 C 0.66289 0.75433 0.98674 0.0
C209 C 0.63079 0.73326 0.96745 0.0
H210 H 0.63635 0.66813 0.91926 0.0
C211 C 0.62164 0.70182 0.94598 0.0
C212 C 0.64432 0.69238 0.93748 0.0
H213 H 0.597 0.68488 0.93165 0.0
H214 H 0.78405 0.67114 0.9359 0.0
H215 H 0.76066 0.7054 0.92265 0.0
H216 H 0.67896 0.62857 0.80926 0.0
H217 H 0.70225 0.59433 0.82417 0.0
H218 H 0.67831 0.67797 0.83695 0.0
H219 H 0.72121 0.71309 0.97382 0.0
H220 H 0.71062 0.76169 0.99056 0.0
H221 H 0.67065 0.77876 1.00296 0.0
C222 C 0.09411 0.78184 0.01285 0.0
C223 C 0.10777 0.77032 0.96021 0.0
C224 C 0.06117 0.76951 0.01468 0.0
C225 C 0.0412 0.74549 0.96349 0.0
C226 C 0.05516 0.73683 0.90483 0.0
C227 C 0.08835 0.74901 0.9035 0.0
C228 C 0.00607 0.72705 0.97556 0.0
C229 C 0.99354 0.71692 0.04541 0.0
C230 C 0.95931 0.69317 0.05711 0.0
C231 C 0.95096 0.66569 0.10019 0.0
C232 C 0.91938 0.64031 0.10089 0.0
C233 C 0.89551 0.64267 0.06129 0.0
H234 H 0.94091 0.71769 0.98958 0.0
C235 C 0.90331 0.67157 0.02524 0.0
C236 C 0.93508 0.69649 0.02214 0.0
H237 H 0.88545 0.67363 0.99262 0.0
H238 H 0.10864 0.79822 0.05735 0.0
H239 H 0.05116 0.7773 0.05915 0.0
H240 H 0.0402 0.71859 0.86413 0.0
H241 H 0.09824 0.73941 0.86313 0.0
H242 H 0.99059 0.71814 0.92606 0.0
H243 H 0.00942 0.72265 0.09387 0.0
H244 H 0.96929 0.66278 0.1281 0.0
H245 H 0.91406 0.61799 0.12736 0.0
C246 C 0.2274 0.90768 0.04194 0.0
C247 C 0.24973 0.90037 0.07299 0.0
C248 C 0.23522 0.93954 0.03308 0.0
C249 C 0.26496 0.96437 0.05793 0.0
C250 C 0.2853 0.95687 0.0985 0.0
C251 C 0.27801 0.92508 0.10474 0.0
C252 C 0.27716 0.99777 0.03326 0.0
C253 C 0.27997 0.00524 0.95885 0.0
C254 C 0.30156 0.03841 0.93302 0.0
C255 C 0.32767 0.04479 0.8866 0.0
C256 C 0.35286 0.07617 0.87756 0.0
C257 C 0.35162 0.10162 0.91247 0.0
H258 H 0.27874 0.05961 0.99702 0.0
C259 C 0.32349 0.09549 0.95012 0.0
C260 C 0.29885 0.06402 0.96163 0.0
H261 H 0.32226 0.11463 0.97904 0.0
H262 H 0.20577 0.88912 0.01539 0.0
H263 H 0.21907 0.94481 1.00221 0.0
H264 H 0.30833 0.97573 0.11834 0.0
H265 H 0.29591 0.92013 0.12719 0.0
H266 H 0.28945 0.01667 0.07499 0.0
H267 H 0.27135 0.98624 0.91675 0.0
H268 H 0.33012 0.02533 0.86375 0.0
H269 H 0.37455 0.08023 0.84978 0.0
C270 C 0.19192 0.67912 0.92568 0.0
C271 C 0.21204 0.70533 0.97162 0.0
C272 C 0.19725 0.65351 0.91749 0.0
C273 C 0.22258 0.65333 0.95618 0.0
C274 C 0.2439 0.68043 0.99837 0.0
C275 C 0.23845 0.70613 0.0067 0.0
C276 C 0.22573 0.6243 0.95704 0.0
C277 C 0.19968 0.59485 0.95942 0.0
C278 C 0.20038 0.56461 0.9655 0.0
C279 C 0.17334 0.5377 0.995 0.0
C280 C 0.17192 0.50824 0.99876 0.0
C281 C 0.19748 0.5049 0.97268 0.0
H282 H 0.24683 0.58126 0.91355 0.0
C283 C 0.22439 0.53158 0.9421 0.0
C284 C 0.22605 0.56133 0.93904 0.0
H285 H 0.2434 0.52905 0.91753 0.0
H286 H 0.1714 0.67801 0.89792 0.0
H287 H 0.18096 0.63346 0.88249 0.0
H288 H 0.26364 0.68092 0.02856 0.0
H289 H 0.25349 0.72545 0.04469 0.0
H290 H 0.24943 0.6273 0.96266 0.0
H291 H 0.17622 0.59268 0.96153 0.0
H292 H 0.1531 0.53942 0.01516 0.0
H293 H 0.15072 0.48798 0.02207 0.0
C294 C 0.53585 0.21381 0.08493 0.0
C295 C 0.51842 0.21646 0.02464 0.0
C296 C 0.56797 0.22301 0.07596 0.0
C297 C 0.58351 0.23515 0.00608 0.0
C298 C 0.56623 0.23882 0.94659 0.0
C299 C 0.53394 0.22945 0.95564 0.0
C300 C 0.61587 0.23991 0.99012 0.0
C301 C 0.63626 0.24164 0.04472 0.0
C302 C 0.66434 0.23738 0.03131 0.0
C303 C 0.67001 0.22696 0.96128 0.0
C304 C 0.6936 0.21852 0.95493 0.0
C305 C 0.7121 0.22029 0.01805 0.0
H306 H 0.67994 0.24791 0.14842 0.0
C307 C 0.70719 0.23151 0.08728 0.0
C308 C 0.68377 0.24021 0.09362 0.0
H309 H 0.72066 0.23249 0.13731 0.0
H310 H 0.52426 0.20351 0.13847 0.0
H311 H 0.57972 0.21876 0.12286 0.0
H312 H 0.57736 0.24774 0.8919 0.0
H313 H 0.5208 0.23106 0.90774 0.0
H314 H 0.62193 0.24005 0.9309 0.0
H315 H 0.63122 0.24431 0.1034 0.0
H316 H 0.65562 0.22386 0.9117 0.0
H317 H 0.69682 0.20978 0.90094 0.0
C318 C 0.46666 0.71565 0.0311 0.0
C319 C 0.4759 0.72463 0.9557 0.0
C320 C 0.43453 0.69449 0.0485 0.0
C321 C 0.41122 0.68195 0.99082 0.0
C322 C 0.42032 0.69378 0.91653 0.0
C323 C 0.45242 0.71439 0.89906 0.0
C324 C 0.37908 0.65413 0.0089 0.0
C325 C 0.35945 0.63325 0.95582 0.0
C326 C 0.33324 0.60029 0.97348 0.0
C327 C 0.32464 0.57659 0.91748 0.0
C328 C 0.30476 0.54435 0.935 0.0
C329 C 0.29241 0.53526 0.00833 0.0
H330 H 0.3241 0.60871 0.08973 0.0
C331 C 0.29896 0.55886 0.06303 0.0
C332 C 0.31898 0.5912 0.04566 0.0
H333 H 0.28987 0.55219 0.12027 0.0
H334 H 0.48446 0.72329 0.07564 0.0
H335 H 0.42827 0.6863 0.10647 0.0
H336 H 0.40317 0.6863 0.87078 0.0
H337 H 0.45909 0.72147 0.84058 0.0
H338 H 0.3739 0.64818 0.06848 0.0
H339 H 0.36553 0.6382 0.89633 0.0
H340 H 0.33502 0.58281 0.86126 0.0
H341 H 0.30038 0.52641 0.89242 0.0
C342 C 0.76827 0.4619 0.01995 0.0
C343 C 0.77998 0.47662 0.94954 0.0
C344 C 0.75949 0.42986 0.03083 0.0
C345 C 0.76253 0.41199 0.97126 0.0
C346 C 0.77277 0.42655 0.89996 0.0
C347 C 0.78156 0.45849 0.88931 0.0
C348 C 0.75945 0.37999 0.98239 0.0
C349 C 0.74963 0.36289 0.04703 0.0
C350 C 0.75591 0.3364 0.06358 0.0
C351 C 0.75836 0.31734 0.00633 0.0
C352 C 0.76934 0.29626 0.02374 0.0
C353 C 0.77773 0.29371 0.09855 0.0
H354 H 0.76039 0.34622 0.18423 0.0
C355 C 0.77347 0.31129 0.15613 0.0
C356 C 0.76232 0.33212 0.13893 0.0
H357 H 0.77961 0.30956 0.21438 0.0
H358 H 0.76738 0.47559 0.06763 0.0
H359 H 0.75201 0.42009 0.08701 0.0
H360 H 0.77541 0.41359 0.85295 0.0
H361 H 0.79063 0.46937 0.83446 0.0
H362 H 0.76893 0.37184 0.93725 0.0
H363 H 0.74056 0.37079 0.09338 0.0
H364 H 0.75261 0.3192 0.94791 0.0
H365 H 0.77244 0.28293 0.9784 0.0
C366 C 0.30738 0.78086 0.00715 0.0
C367 C 0.299 0.78819 0.937 0.0
C368 C 0.33303 0.77525 0.01263 0.0
C369 C 0.35093 0.77708 0.94767 0.0
C370 C 0.34137 0.78297 0.8771 0.0
C371 C 0.31585 0.78864 0.87185 0.0
C372 C 0.38175 0.77711 0.95144 0.0
C373 C 0.39231 0.76834 0.0126 0.0
C374 C 0.42573 0.77472 0.02039 0.0
C375 C 0.43794 0.77642 0.09369 0.0
C376 C 0.47005 0.78561 0.10458 0.0
C377 C 0.49056 0.79272 0.04225 0.0
H378 H 0.43768 0.77874 0.90014 0.0
C379 C 0.47829 0.79008 0.96878 0.0
C380 C 0.44614 0.7808 0.95777 0.0
H381 H 0.4937 0.79568 0.91977 0.0
H382 H 0.29535 0.78142 0.05851 0.0
H383 H 0.3397 0.77148 0.0685 0.0
H384 H 0.35464 0.78467 0.8261 0.0
H385 H 0.31009 0.79469 0.8172 0.0
H386 H 0.39725 0.78703 0.90256 0.0
H387 H 0.37693 0.75845 0.06169 0.0
H388 H 0.42286 0.77171 0.14302 0.0
H389 H 0.47899 0.78759 0.16188 0.0
C390 C 0.7037 0.45944 0.96892 0.0
C391 C 0.70733 0.47685 0.03562 0.0
C392 C 0.68067 0.4269 0.96472 0.0
C393 C 0.66037 0.41136 0.0269 0.0
C394 C 0.6655 0.42853 0.09479 0.0
C395 C 0.68851 0.46091 0.09896 0.0
C396 C 0.63196 0.3785 0.02237 0.0
C397 C 0.61749 0.36424 0.9566 0.0
C398 C 0.58439 0.33624 0.95182 0.0
C399 C 0.56753 0.33139 0.8836 0.0
C400 C 0.53509 0.30868 0.87878 0.0
C401 C 0.51877 0.28984 0.94174 0.0
H402 H 0.58061 0.31812 0.06675 0.0
C403 C 0.53581 0.29325 0.0089 0.0
C404 C 0.56842 0.31604 0.01382 0.0
H405 H 0.52368 0.27916 0.05846 0.0
H406 H 0.71773 0.47126 0.91905 0.0
H407 H 0.67842 0.41444 0.91206 0.0
H408 H 0.65057 0.41728 0.14389 0.0
H409 H 0.69087 0.47378 0.15117 0.0
H410 H 0.62027 0.36787 0.07563 0.0
H411 H 0.62827 0.37587 0.90339 0.0
H412 H 0.57911 0.34629 0.83466 0.0
H413 H 0.52249 0.30649 0.82627 0.0
C414 C 0.18745 0.35761 0.75157 0.0
C415 C 0.21337 0.38061 0.79428 0.0
C416 C 0.19107 0.3532 0.67476 0.0
C417 C 0.22068 0.3722 0.63908 0.0
C418 C 0.24745 0.39218 0.68429 0.0
C419 C 0.24383 0.39643 0.76158 0.0
C420 C 0.22389 0.37528 0.5551 0.0
C421 C 0.19938 0.36899 0.50773 0.0
C422 C 0.20494 0.38206 0.42953 0.0
C423 C 0.1834 0.36515 0.37039 0.0
C424 C 0.18909 0.3777 0.29645 0.0
C425 C 0.21613 0.40759 0.28139 0.0
H426 H 0.24697 0.42709 0.45965 0.0
C427 C 0.2363 0.42518 0.34196 0.0
C428 C 0.23083 0.41264 0.4148 0.0
H429 H 0.25702 0.44859 0.33283 0.0
H430 H 0.16373 0.34494 0.77613 0.0
H431 H 0.17016 0.33642 0.64301 0.0
H432 H 0.27071 0.40672 0.65852 0.0
H433 H 0.26409 0.41443 0.79337 0.0
H434 H 0.24805 0.38737 0.53254 0.0
H435 H 0.17485 0.35635 0.52741 0.0
H436 H 0.16274 0.34186 0.38095 0.0
H437 H 0.17315 0.36359 0.25098 0.0
C438 C 0.83206 0.17193 0.80927 0.0
C439 C 0.83712 0.19932 0.84904 0.0
C440 C 0.83627 0.17271 0.73062 0.0
C441 C 0.84571 0.20108 0.69007 0.0
C442 C 0.85486 0.22935 0.73157 0.0
C443 C 0.85065 0.22851 0.81046 0.0
C444 C 0.84131 0.20147 0.60612 0.0
C445 C 0.83095 0.17602 0.55891 0.0
C446 C 0.81997 0.17699 0.48049 0.0
C447 C 0.82853 0.16451 0.41842 0.0
C448 C 0.8213 0.16918 0.34379 0.0
C449 C 0.80488 0.18581 0.33095 0.0
H450 H 0.79295 0.19962 0.5141 0.0
C451 C 0.79352 0.19518 0.39356 0.0
C452 C 0.801 0.19089 0.46734 0.0
H453 H 0.78094 0.20819 0.38521 0.0
H454 H 0.82137 0.14903 0.83779 0.0
H455 H 0.82936 0.15041 0.70197 0.0
H456 H 0.86258 0.2517 0.70221 0.0
H457 H 0.8543 0.24987 0.8394 0.0
H458 H 0.8442 0.22354 0.58266 0.0
H459 H 0.82986 0.15414 0.57723 0.0
H460 H 0.84261 0.15308 0.42732 0.0
H461 H 0.83082 0.16225 0.2965 0.0
C462 C 0.58505 0.81429 0.64592 0.0
C463 C 0.60728 0.8235 0.70557 0.0
C464 C 0.59505 0.81932 0.57053 0.0
C465 C 0.62763 0.83401 0.5526 0.0
C466 C 0.65016 0.84627 0.61202 0.0
C467 C 0.64005 0.84074 0.68829 0.0
C468 C 0.63767 0.83586 0.47196 0.0
C469 C 0.62244 0.8104 0.42489 0.0
C470 C 0.62671 0.81134 0.34084 0.0
C471 C 0.61634 0.78253 0.30071 0.0
C472 C 0.61412 0.78156 0.22113 0.0
C473 C 0.62163 0.80933 0.1805 0.0
H474 H 0.6441 0.86205 0.32764 0.0
C475 C 0.63379 0.83842 0.22018 0.0
C476 C 0.63649 0.8395 0.29928 0.0
H477 H 0.6397 0.86022 0.19016 0.0
H478 H 0.55963 0.80091 0.65752 0.0
H479 H 0.57714 0.81061 0.52607 0.0
H480 H 0.67548 0.85823 0.59948 0.0
H481 H 0.65767 0.84763 0.73302 0.0
H482 H 0.65757 0.85817 0.45167 0.0
H483 H 0.60467 0.78764 0.44894 0.0
H484 H 0.60847 0.76041 0.33124 0.0
H485 H 0.60435 0.75879 0.19212 0.0
C486 C 0.84599 0.63642 0.70071 0.0
C487 C 0.81733 0.62002 0.74193 0.0
C488 C 0.8459 0.64476 0.62506 0.0
C489 C 0.81698 0.63644 0.58829 0.0
C490 C 0.78863 0.6225 0.6314 0.0
C491 C 0.78877 0.61434 0.70774 0.0
C492 C 0.81529 0.64043 0.50483 0.0
C493 C 0.83701 0.64125 0.45499 0.0
C494 C 0.83233 0.6395 0.37114 0.0
C495 C 0.84635 0.6258 0.32593 0.0
C496 C 0.83811 0.61889 0.24907 0.0
C497 C 0.81573 0.62566 0.21653 0.0
H498 H 0.80268 0.66144 0.36767 0.0
C499 C 0.80434 0.64233 0.25971 0.0
C500 C 0.81269 0.64938 0.33598 0.0
H501 H 0.78743 0.64832 0.23556 0.0
H502 H 0.86851 0.6417 0.72621 0.0
H503 H 0.86847 0.65691 0.59531 0.0
H504 H 0.76604 0.61635 0.60493 0.0
H505 H 0.76636 0.60177 0.73819 0.0
H506 H 0.79364 0.63918 0.48359 0.0
H507 H 0.85717 0.63949 0.47578 0.0
H508 H 0.86211 0.61853 0.3512 0.0
H509 H 0.84722 0.60602 0.21714 0.0
C510 C 0.20469 0.79266 0.30488 0.0
C511 C 0.20671 0.81175 0.24267 0.0
C512 C 0.19884 0.79973 0.37756 0.0
C513 C 0.19503 0.82624 0.39038 0.0
C514 C 0.19927 0.84674 0.32949 0.0
C515 C 0.20476 0.8394 0.25582 0.0
C516 C 0.18851 0.83335 0.46815 0.0
C517 C 0.16941 0.80973 0.51655 0.0
C518 C 0.16927 0.81351 0.60051 0.0
C519 C 0.15641 0.78585 0.64589 0.0
C520 C 0.16296 0.78805 0.72381 0.0
C521 C 0.18256 0.818 0.75717 0.0
H522 H 0.19431 0.86551 0.60492 0.0
C523 C 0.19192 0.84568 0.71396 0.0
C524 C 0.18518 0.84353 0.63648 0.0
H525 H 0.20669 0.86912 0.73891 0.0
H526 H 0.20658 0.77145 0.29723 0.0
H527 H 0.19727 0.7843 0.4238 0.0
H528 H 0.19727 0.86782 0.33847 0.0
H529 H 0.20622 0.85458 0.20914 0.0
H530 H 0.20137 0.85812 0.48605 0.0
H531 H 0.15604 0.78547 0.49456 0.0
H532 H 0.14354 0.76236 0.62009 0.0
H533 H 0.15546 0.76635 0.7559 0.0
C534 C 0.35407 0.19358 0.71264 0.0
C535 C 0.37044 0.18195 0.75596 0.0
C536 C 0.3467 0.18491 0.63663 0.0
C537 C 0.35602 0.16473 0.6018 0.0
C538 C 0.36949 0.15057 0.64719 0.0
C539 C 0.37667 0.1591 0.72382 0.0
C540 C 0.35399 0.15962 0.51807 0.0
C541 C 0.35473 0.18112 0.46776 0.0
C542 C 0.35866 0.17914 0.38434 0.0
C543 C 0.37217 0.20732 0.34074 0.0
C544 C 0.3803 0.20706 0.26443 0.0
C545 C 0.37504 0.17854 0.23069 0.0
H546 H 0.33895 0.12773 0.37819 0.0
C547 C 0.3591 0.15 0.27242 0.0
C548 C 0.35077 0.15021 0.34809 0.0
H549 H 0.35412 0.1275 0.24729 0.0
H550 H 0.34847 0.21084 0.73653 0.0
H551 H 0.33481 0.19506 0.60489 0.0
H552 H 0.37634 0.13442 0.62221 0.0
H553 H 0.3893 0.14979 0.7559 0.0
H554 H 0.35567 0.13935 0.49773 0.0
H555 H 0.35599 0.20284 0.48853 0.0
H556 H 0.37799 0.22991 0.36679 0.0
H557 H 0.39249 0.22939 0.2336 0.0
loop_
_geom_bond_atom_site_label_1
_geom_bond_atom_site_label_2
_geom_bond_distance
_geom_bond_site_symmetry_2
_ccdc_geom_bond_type
Zn0 O6 1.920 . S
Zn0 O12 1.898 . S
Zn0 O15 1.905 . S
Zn1 O9 1.905 . S
Zn1 O10 1.898 . S
Zn1 O18 1.920 . S
Zn2 O5 2.080 . S
Zn2 O8 2.114 . S
Zn2 O11 2.120 . S
Zn2 O13 2.120 1_554 S
Zn2 O14 2.114 1_554 S
Zn2 O17 2.080 1_554 S
C3 O8 1.166 . S
C3 O9 1.182 . S
C4 O10 1.167 . S
C4 O11 1.299 . S
O5 Zn2 2.080 . S
O5 C19 1.305 1_554 S
O6 Zn0 1.920 . S
O6 C19 1.234 . S
C7 O12 1.167 . S
C7 O13 1.299 . S
O8 Zn2 2.114 . S
O8 C3 1.166 . S
O9 Zn1 1.905 . S
O9 C3 1.182 . S
O10 Zn1 1.898 . S
O10 C4 1.167 . S
O11 Zn2 2.120 . S
O11 C4 1.299 . S
O12 Zn0 1.898 . S
O12 C7 1.167 . S
O13 Zn2 2.120 1_556 S
O13 C7 1.299 . S
O14 Zn2 2.114 1_556 S
O14 C16 1.166 . S
O15 Zn0 1.905 . S
O15 C16 1.182 . S
C16 O14 1.166 . S
C16 O15 1.182 . S
O17 Zn2 2.080 1_556 S
O17 C20 1.305 1_556 S
O18 Zn1 1.920 . S
O18 C20 1.234 . S
C19 O5 1.305 1_556 S
C19 O6 1.234 . S
C20 O17 1.305 1_554 S
C20 O18 1.234 . S
Zn21 O27 1.920 . S
Zn21 O33 1.898 . S
Zn21 O36 1.905 . S
Zn22 O30 1.905 . S
Zn22 O31 1.898 . S
Zn22 O39 1.920 . S
Zn23 O26 2.080 . S
Zn23 O29 2.114 . S
Zn23 O32 2.120 . S
Zn23 O34 2.120 1_554 S
Zn23 O35 2.114 1_554 S
Zn23 O38 2.080 1_554 S
C24 O29 1.166 . S
C24 O30 1.182 . S
C25 O31 1.167 . S
C25 O32 1.299 . S
O26 Zn23 2.080 . S
O26 C40 1.305 1_554 S
O27 Zn21 1.920 . S
O27 C40 1.234 . S
C28 O33 1.167 . S
C28 O34 1.299 . S
O29 Zn23 2.114 . S
O29 C24 1.166 . S
O30 Zn22 1.905 . S
O30 C24 1.182 . S
O31 Zn22 1.898 . S
O31 C25 1.167 . S
O32 Zn23 2.120 . S
O32 C25 1.299 . S
O33 Zn21 1.898 . S
O33 C28 1.167 . S
O34 Zn23 2.120 1_556 S
O34 C28 1.299 . S
O35 Zn23 2.114 1_556 S
O35 C37 1.166 . S
O36 Zn21 1.905 . S
O36 C37 1.182 . S
C37 O35 1.166 . S
C37 O36 1.182 . S
O38 Zn23 2.080 1_556 S
O38 C41 1.305 1_556 S
O39 Zn22 1.920 . S
O39 C41 1.234 . S
C40 O26 1.305 1_556 S
C40 O27 1.234 . S
C41 O38 1.305 1_554 S
C41 O39 1.234 . S
Zn42 O48 1.920 . S
Zn42 O54 1.898 . S
Zn42 O57 1.905 . S
Zn43 O51 1.905 . S
Zn43 O52 1.898 . S
Zn43 O60 1.920 . S
Zn44 O47 2.080 1_554 S
Zn44 O50 2.114 1_554 S
Zn44 O53 2.120 1_554 S
Zn44 O55 2.120 . S
Zn44 O56 2.114 . S
Zn44 O59 2.080 . S
C45 O50 1.166 . S
C45 O51 1.182 . S
C46 O52 1.167 . S
C46 O53 1.299 . S
O47 Zn44 2.080 1_556 S
O47 C61 1.305 1_556 S
O48 Zn42 1.920 . S
O48 C61 1.234 . S
C49 O54 1.167 . S
C49 O55 1.299 . S
O50 Zn44 2.114 1_556 S
O50 C45 1.166 . S
O51 Zn43 1.905 . S
O51 C45 1.182 . S
O52 Zn43 1.898 . S
O52 C46 1.167 . S
O53 Zn44 2.120 1_556 S
O53 C46 1.299 . S
O54 Zn42 1.898 . S
O54 C49 1.167 . S
O55 Zn44 2.120 . S
O55 C49 1.299 . S
O56 Zn44 2.114 . S
O56 C58 1.166 . S
O57 Zn42 1.905 . S
O57 C58 1.182 . S
C58 O56 1.166 . S
C58 O57 1.182 . S
O59 Zn44 2.080 . S
O59 C62 1.305 1_554 S
O60 Zn43 1.920 . S
O60 C62 1.234 . S
C61 O47 1.305 1_554 S
C61 O48 1.234 . S
C62 O59 1.305 1_556 S
C62 O60 1.234 . S
Zn63 O69 1.920 . S
Zn63 O75 1.898 . S
Zn63 O78 1.905 . S
Zn64 O72 1.905 . S
Zn64 O73 1.898 . S
Zn64 O81 1.920 . S
Zn65 O68 2.080 1_554 S
Zn65 O71 2.114 1_554 S
Zn65 O74 2.120 1_554 S
Zn65 O76 2.120 . S
Zn65 O77 2.114 . S
Zn65 O80 2.080 . S
C66 O71 1.166 . S
C66 O72 1.182 . S
C67 O73 1.167 . S
C67 O74 1.299 . S
O68 Zn65 2.080 1_556 S
O68 C82 1.305 1_556 S
O69 Zn63 1.920 . S
O69 C82 1.234 . S
C70 O75 1.167 . S
C70 O76 1.299 . S
O71 Zn65 2.114 1_556 S
O71 C66 1.166 . S
O72 Zn64 1.905 . S
O72 C66 1.182 . S
O73 Zn64 1.898 . S
O73 C67 1.167 . S
O74 Zn65 2.120 1_556 S
O74 C67 1.299 . S
O75 Zn63 1.898 . S
O75 C70 1.167 . S
O76 Zn65 2.120 . S
O76 C70 1.299 . S
O77 Zn65 2.114 . S
O77 C79 1.166 . S
O78 Zn63 1.905 . S
O78 C79 1.182 . S
C79 O77 1.166 . S
C79 O78 1.182 . S
O80 Zn65 2.080 . S
O80 C83 1.305 1_554 S
O81 Zn64 1.920 . S
O81 C83 1.234 . S
C82 O68 1.305 1_554 S
C82 O69 1.234 . S
C83 O80 1.305 1_556 S
C83 O81 1.234 . S
Zn84 O90 1.920 . S
Zn84 O96 1.898 . S
Zn84 O99 1.905 . S
Zn85 O93 1.905 . S
Zn85 O94 1.898 . S
Zn85 O102 1.920 . S
Zn86 O89 2.080 1_554 S
Zn86 O92 2.114 1_554 S
Zn86 O95 2.120 1_554 S
Zn86 O97 2.120 . S
Zn86 O98 2.114 . S
Zn86 O101 2.080 . S
C87 O92 1.166 . S
C87 O93 1.182 . S
C88 O94 1.167 . S
C88 O95 1.299 . S
O89 Zn86 2.080 1_556 S
O89 C103 1.305 1_556 S
O90 Zn84 1.920 . S
O90 C103 1.234 . S
C91 O96 1.167 . S
C91 O97 1.299 . S
O92 Zn86 2.114 1_556 S
O92 C87 1.166 . S
O93 Zn85 1.905 . S
O93 C87 1.182 . S
O94 Zn85 1.898 . S
O94 C88 1.167 . S
O95 Zn86 2.120 1_556 S
O95 C88 1.299 . S
O96 Zn84 1.898 . S
O96 C91 1.167 . S
O97 Zn86 2.120 . S
O97 C91 1.299 . S
O98 Zn86 2.114 . S
O98 C100 1.166 . S
O99 Zn84 1.905 . S
O99 C100 1.182 . S
C100 O98 1.166 . S
C100 O99 1.182 . S
O101 Zn86 2.080 . S
O101 C104 1.305 1_554 S
O102 Zn85 1.920 . S
O102 C104 1.234 . S
C103 O89 1.305 1_554 S
C103 O90 1.234 . S
C104 O101 1.305 1_556 S
C104 O102 1.234 . S
Zn105 O111 1.920 . S
Zn105 O117 1.898 . S
Zn105 O120 1.905 . S
Zn106 O114 1.905 . S
Zn106 O115 1.898 . S
Zn106 O123 1.920 . S
Zn107 O110 2.080 . S
Zn107 O113 2.114 . S
Zn107 O116 2.120 . S
Zn107 O118 2.120 1_554 S
Zn107 O119 2.114 1_554 S
Zn107 O122 2.080 1_554 S
C108 O113 1.166 . S
C108 O114 1.182 . S
C109 O115 1.167 . S
C109 O116 1.299 . S
O110 Zn107 2.080 . S
O110 C124 1.305 1_554 S
O111 Zn105 1.920 . S
O111 C124 1.234 . S
C112 O117 1.167 . S
C112 O118 1.299 . S
O113 Zn107 2.114 . S
O113 C108 1.166 . S
O114 Zn106 1.905 . S
O114 C108 1.182 . S
O115 Zn106 1.898 . S
O115 C109 1.167 . S
O116 Zn107 2.120 . S
O116 C109 1.299 . S
O117 Zn105 1.898 . S
O117 C112 1.167 . S
O118 Zn107 2.120 1_556 S
O118 C112 1.299 . S
O119 Zn107 2.114 1_556 S
O119 C121 1.166 . S
O120 Zn105 1.905 . S
O120 C121 1.182 . S
C121 O119 1.166 . S
C121 O120 1.182 . S
O122 Zn107 2.080 1_556 S
O122 C125 1.305 1_556 S
O123 Zn106 1.920 . S
O123 C125 1.234 . S
C124 O110 1.305 1_556 S
C124 O111 1.234 . S
C125 O122 1.305 1_554 S
C125 O123 1.234 . S
C126 C127 1.386 . S
C126 C128 1.383 . S
C126 H142 0.951 . S
C127 C126 1.386 . S
C127 C131 1.383 1_554 S
C128 C126 1.383 . S
C128 C129 1.402 1_554 S
C128 H143 0.951 . S
C129 C128 1.402 1_556 S
C129 C130 1.375 . S
C129 C132 1.481 . S
C130 C129 1.375 . S
C130 C131 1.367 . S
C130 H144 0.951 . S
C131 C127 1.383 1_556 S
C131 C130 1.367 . S
C131 H145 0.950 . S
C132 C129 1.481 . S
C132 C133 1.297 . S
C132 H146 0.950 . S
C133 C132 1.297 . S
C133 C134 1.479 . S
C133 H147 0.950 1_556 S
C134 C133 1.479 . S
C134 C135 1.375 1_556 S
C134 C140 1.404 . S
C135 C134 1.375 1_554 S
C135 C136 1.369 . S
C135 H148 0.950 . S
C136 C135 1.369 . S
C136 C137 1.392 1_554 S
C136 H149 0.951 . S
C137 C136 1.392 1_556 S
C137 C139 1.384 . S
H138 C140 0.949 . S
C139 C137 1.384 . S
C139 C140 1.385 . S
C139 H141 0.950 . S
C140 C134 1.404 . S
C140 H138 0.949 . S
C140 C139 1.385 . S
H141 C139 0.950 . S
H142 C126 0.951 . S
H143 C128 0.951 . S
H144 C130 0.951 . S
H145 C131 0.950 . S
H146 C132 0.950 . S
H147 C133 0.950 1_554 S
H148 C135 0.950 . S
H149 C136 0.951 . S
C150 C151 1.386 . S
C150 C152 1.383 . S
C150 H166 0.951 1_554 S
C151 C150 1.386 . S
C151 C155 1.383 . S
C152 C150 1.383 . S
C152 C153 1.402 . S
C152 H167 0.951 1_554 S
C153 C152 1.402 . S
C153 C154 1.375 . S
C153 C156 1.481 . S
C154 C153 1.375 . S
C154 C155 1.367 . S
C154 H168 0.951 . S
C155 C151 1.383 . S
C155 C154 1.367 . S
C155 H169 0.950 . S
C156 C153 1.481 . S
C156 C157 1.297 1_455 S
C156 H170 0.981 . S
C157 C156 1.297 1_655 S
C157 C158 1.479 . S
C157 H171 0.950 . S
C158 C157 1.479 . S
C158 C159 1.375 1_554 S
C158 C164 1.404 . S
C159 C158 1.375 1_556 S
C159 C160 1.369 . S
C159 H172 0.950 . S
C160 C159 1.369 . S
C160 C161 1.392 . S
C160 H173 0.951 . S
C161 C160 1.392 . S
C161 C163 1.384 1_556 S
H162 C164 0.949 . S
C163 C161 1.384 1_554 S
C163 C164 1.385 . S
C163 H165 0.950 . S
C164 C158 1.404 . S
C164 H162 0.949 . S
C164 C163 1.385 . S
H165 C163 0.950 . S
H166 C150 0.951 1_556 S
H167 C152 0.951 1_556 S
H168 C154 0.951 . S
H169 C155 0.950 . S
H170 C156 0.981 . S
H171 C157 0.950 . S
H172 C159 0.950 . S
H173 C160 0.951 . S
C174 C175 1.386 . S
C174 C176 1.383 . S
C174 H190 0.951 . S
C175 C174 1.386 . S
C175 C179 1.383 . S
C176 C174 1.383 . S
C176 C177 1.402 . S
C176 H191 0.951 . S
C177 C176 1.402 . S
C177 C178 1.375 . S
C177 C180 1.481 . S
C178 C177 1.375 . S
C178 C179 1.367 . S
C178 H192 0.951 . S
C179 C175 1.383 . S
C179 C178 1.367 . S
C179 H193 0.950 . S
C180 C177 1.481 . S
C180 C181 1.297 1_545 S
C180 H194 0.950 . S
C181 C180 1.297 1_565 S
C181 C182 1.479 . S
C181 H195 0.950 . S
C182 C181 1.479 . S
C182 C183 1.374 1_554 S
C182 C188 1.404 . S
C183 C182 1.374 1_556 S
C183 C184 1.370 . S
C183 H196 0.951 . S
C184 C183 1.370 . S
C184 C185 1.392 . S
C184 H197 0.951 . S
C185 C184 1.392 . S
C185 C187 1.384 1_556 S
H186 C188 0.949 . S
C187 C185 1.384 1_554 S
C187 C188 1.385 . S
C187 H189 0.950 . S
C188 C182 1.404 . S
C188 H186 0.949 . S
C188 C187 1.385 . S
H189 C187 0.950 . S
H190 C174 0.951 . S
H191 C176 0.951 . S
H192 C178 0.951 . S
H193 C179 0.950 . S
H194 C180 0.950 . S
H195 C181 0.950 . S
H196 C183 0.951 . S
H197 C184 0.951 . S
C198 C199 1.386 . S
C198 C200 1.383 . S
C198 H214 0.951 . S
C199 C198 1.386 . S
C199 C203 1.383 1_556 S
C200 C198 1.383 . S
C200 C201 1.402 1_556 S
C200 H215 0.951 . S
C201 C200 1.402 1_554 S
C201 C202 1.375 . S
C201 C204 1.481 . S
C202 C201 1.375 . S
C202 C203 1.367 . S
C202 H216 0.951 . S
C203 C199 1.383 1_554 S
C203 C202 1.367 . S
C203 H217 0.950 . S
C204 C201 1.481 . S
C204 C205 1.297 1_554 S
C204 H218 0.950 . S
C205 C204 1.297 1_556 S
C205 C206 1.479 . S
C205 H219 0.950 . S
C206 C205 1.479 . S
C206 C207 1.375 . S
C206 C212 1.404 1_556 S
C207 C206 1.375 . S
C207 C208 1.369 . S
C207 H220 0.950 . S
C208 C207 1.369 . S
C208 C209 1.392 1_556 S
C208 H221 0.951 . S
C209 C208 1.392 1_554 S
C209 C211 1.384 . S
H210 C212 0.949 . S
C211 C209 1.384 . S
C211 C212 1.385 . S
C211 H213 0.950 . S
C212 C206 1.404 1_554 S
C212 H210 0.949 . S
C212 C211 1.385 . S
H213 C211 0.950 . S
H214 C198 0.951 . S
H215 C200 0.951 . S
H216 C202 0.951 . S
H217 C203 0.950 . S
H218 C204 0.950 . S
H219 C205 0.950 . S
H220 C207 0.950 . S
H221 C208 0.951 . S
C222 C223 1.386 1_554 S
C222 C224 1.383 . S
C222 H238 0.951 . S
C223 C222 1.386 1_556 S
C223 C227 1.383 . S
C224 C222 1.383 . S
C224 C225 1.402 1_554 S
C224 H239 0.951 . S
C225 C224 1.402 1_556 S
C225 C226 1.375 . S
C225 C228 1.481 . S
C226 C225 1.375 . S
C226 C227 1.367 . S
C226 H240 0.951 . S
C227 C223 1.383 . S
C227 C226 1.367 . S
C227 H241 0.950 . S
C228 C225 1.481 . S
C228 C229 1.297 1_456 S
C228 H242 0.947 1_455 S
C229 C228 1.297 1_654 S
C229 C230 1.479 . S
C229 H243 0.955 . S
C230 C229 1.479 . S
C230 C231 1.375 . S
C230 C236 1.404 1_554 S
C231 C230 1.375 . S
C231 C232 1.369 . S
C231 H244 0.950 . S
C232 C231 1.369 . S
C232 C233 1.392 . S
C232 H245 0.951 . S
C233 C232 1.392 . S
C233 C235 1.384 1_554 S
H234 C236 0.949 . S
C235 C233 1.384 1_556 S
C235 C236 1.385 . S
C235 H237 0.950 . S
C236 C230 1.404 1_556 S
C236 H234 0.949 . S
C236 C235 1.385 . S
H237 C235 0.950 . S
H238 C222 0.951 . S
H239 C224 0.951 . S
H240 C226 0.951 . S
H241 C227 0.950 . S
H242 C228 0.947 1_655 S
H243 C229 0.955 . S
H244 C231 0.950 . S
H245 C232 0.951 . S
C246 C247 1.386 1_556 S
C246 C248 1.383 . S
C246 H262 0.951 . S
C247 C246 1.386 1_554 S
C247 C251 1.383 . S
C248 C246 1.383 . S
C248 C249 1.402 1_556 S
C248 H263 0.951 . S
C249 C248 1.402 1_554 S
C249 C250 1.375 . S
C249 C252 1.481 . S
C250 C249 1.375 . S
C250 C251 1.367 . S
C250 H264 0.951 . S
C251 C247 1.383 . S
C251 C250 1.367 . S
C251 H265 0.950 . S
C252 C249 1.481 . S
C252 C253 1.297 1_565 S
C252 H266 0.950 . S
C253 C252 1.297 1_545 S
C253 C254 1.479 . S
C253 H267 0.950 1_554 S
C254 C253 1.479 . S
C254 C255 1.375 1_554 S
C254 C260 1.404 . S
C255 C254 1.375 1_556 S
C255 C256 1.369 . S
C255 H268 0.950 . S
C256 C255 1.369 . S
C256 C257 1.392 . S
C256 H269 0.951 . S
C257 C256 1.392 . S
C257 C259 1.384 1_556 S
H258 C260 0.949 . S
C259 C257 1.384 1_554 S
C259 C260 1.385 . S
C259 H261 0.950 . S
C260 C254 1.404 . S
C260 H258 0.949 . S
C260 C259 1.385 . S
H261 C259 0.950 . S
H262 C246 0.951 . S
H263 C248 0.951 . S
H264 C250 0.951 . S
H265 C251 0.950 . S
H266 C252 0.950 . S
H267 C253 0.950 1_556 S
H268 C255 0.950 . S
H269 C256 0.951 . S
C270 C271 1.386 . S
C270 C272 1.383 . S
C270 H286 0.951 . S
C271 C270 1.386 . S
C271 C275 1.383 1_554 S
C272 C270 1.383 . S
C272 C273 1.402 1_554 S
C272 H287 0.951 . S
C273 C272 1.402 1_556 S
C273 C274 1.375 . S
C273 C276 1.481 . S
C274 C273 1.375 . S
C274 C275 1.367 . S
C274 H288 0.951 . S
C275 C271 1.383 1_556 S
C275 C274 1.367 . S
C275 H289 0.950 . S
C276 C273 1.481 . S
C276 C277 1.297 . S
C276 H290 0.950 . S
C277 C276 1.297 . S
C277 C278 1.479 . S
C277 H291 0.950 . S
C278 C277 1.479 . S
C278 C279 1.375 . S
C278 C284 1.404 . S
C279 C278 1.375 . S
C279 C280 1.369 . S
C279 H292 0.950 . S
C280 C279 1.369 . S
C280 C281 1.392 . S
C280 H293 0.951 1_556 S
C281 C280 1.392 . S
C281 C283 1.384 . S
H282 C284 0.949 . S
C283 C281 1.384 . S
C283 C284 1.385 . S
C283 H285 0.950 . S
C284 C278 1.404 . S
C284 H282 0.949 . S
C284 C283 1.385 . S
H285 C283 0.950 . S
H286 C270 0.951 . S
H287 C272 0.951 . S
H288 C274 0.951 . S
H289 C275 0.950 . S
H290 C276 0.950 . S
H291 C277 0.950 . S
H292 C279 0.950 . S
H293 C280 0.951 1_554 S
C294 C295 1.386 . S
C294 C296 1.383 . S
C294 H310 0.951 . S
C295 C294 1.386 . S
C295 C299 1.382 . S
C296 C294 1.383 . S
C296 C297 1.402 . S
C296 H311 0.951 . S
C297 C296 1.402 . S
C297 C298 1.375 1_554 S
C297 C300 1.481 . S
C298 C297 1.375 1_556 S
C298 C299 1.367 1_556 S
C298 H312 0.951 . S
C299 C295 1.382 . S
C299 C298 1.367 1_554 S
C299 H313 0.950 1_554 S
C300 C297 1.481 . S
C300 C301 1.297 . S
C300 H314 0.950 1_554 S
C301 C300 1.297 . S
C301 C302 1.479 . S
C301 H315 0.950 . S
C302 C301 1.479 . S
C302 C303 1.375 . S
C302 C308 1.404 1_554 S
C303 C302 1.375 . S
C303 C304 1.369 . S
C303 H316 0.950 . S
C304 C303 1.369 . S
C304 C305 1.392 1_554 S
C304 H317 0.951 . S
C305 C304 1.392 1_556 S
C305 C307 1.384 . S
H306 C308 0.949 . S
C307 C305 1.384 . S
C307 C308 1.385 . S
C307 H309 0.950 . S
C308 C302 1.404 1_556 S
C308 H306 0.949 . S
C308 C307 1.385 . S
H309 C307 0.950 . S
H310 C294 0.951 . S
H311 C296 0.951 . S
H312 C298 0.951 . S
H313 C299 0.950 1_556 S
H314 C300 0.950 1_556 S
H315 C301 0.950 . S
H316 C303 0.950 . S
H317 C304 0.951 . S
C318 C319 1.386 . S
C318 C320 1.383 . S
C318 H334 0.951 . S
C319 C318 1.386 . S
C319 C323 1.383 . S
C320 C318 1.383 . S
C320 C321 1.402 1_556 S
C320 H335 0.951 . S
C321 C320 1.402 1_554 S
C321 C322 1.375 . S
C321 C324 1.481 . S
C322 C321 1.375 . S
C322 C323 1.367 1_554 S
C322 H336 0.951 . S
C323 C319 1.383 . S
C323 C322 1.367 1_556 S
C323 H337 0.950 . S
C324 C321 1.481 . S
C324 C325 1.297 . S
C324 H338 0.950 . S
C325 C324 1.297 . S
C325 C326 1.479 . S
C325 H339 0.950 . S
C326 C325 1.479 . S
C326 C327 1.375 . S
C326 C332 1.404 . S
C327 C326 1.375 . S
C327 C328 1.369 . S
C327 H340 0.950 . S
C328 C327 1.369 . S
C328 C329 1.392 . S
C328 H341 0.951 . S
C329 C328 1.392 . S
C329 C331 1.384 . S
H330 C332 0.949 . S
C331 C329 1.384 . S
C331 C332 1.385 . S
C331 H333 0.950 . S
C332 C326 1.404 . S
C332 H330 0.949 . S
C332 C331 1.385 . S
H333 C331 0.950 . S
H334 C318 0.951 . S
H335 C320 0.951 . S
H336 C322 0.951 . S
H337 C323 0.950 . S
H338 C324 0.950 . S
H339 C325 0.950 . S
H340 C327 0.950 . S
H341 C328 0.951 . S
C342 C343 1.386 . S
C342 C344 1.383 1_556 S
C342 H358 0.951 . S
C343 C342 1.386 . S
C343 C347 1.383 . S
C344 C342 1.383 1_554 S
C344 C345 1.402 . S
C344 H359 0.951 . S
C345 C344 1.402 . S
C345 C346 1.375 1_554 S
C345 C348 1.481 . S
C346 C345 1.375 1_556 S
C346 C347 1.367 . S
C346 H360 0.951 . S
C347 C343 1.383 . S
C347 C346 1.367 . S
C347 H361 0.950 . S
C348 C345 1.481 . S
C348 C349 1.297 . S
C348 H362 0.950 . S
C349 C348 1.297 . S
C349 C350 1.479 . S
C349 H363 0.950 . S
C350 C349 1.479 . S
C350 C351 1.375 . S
C350 C356 1.404 . S
C351 C350 1.375 . S
C351 C352 1.369 . S
C351 H364 0.950 . S
C352 C351 1.369 . S
C352 C353 1.392 . S
C352 H365 0.951 . S
C353 C352 1.392 . S
C353 C355 1.384 . S
H354 C356 0.949 . S
C355 C353 1.384 . S
C355 C356 1.385 . S
C355 H357 0.950 . S
C356 C350 1.404 . S
C356 H354 0.949 . S
C356 C355 1.385 . S
H357 C355 0.950 . S
H358 C342 0.951 . S
H359 C344 0.951 . S
H360 C346 0.951 . S
H361 C347 0.950 . S
H362 C348 0.950 . S
H363 C349 0.950 . S
H364 C351 0.950 . S
H365 C352 0.951 . S
C366 C367 1.386 . S
C366 C368 1.383 . S
C366 H382 0.951 . S
C367 C366 1.386 . S
C367 C371 1.383 . S
C368 C366 1.383 . S
C368 C369 1.402 . S
C368 H383 0.951 . S
C369 C368 1.402 . S
C369 C370 1.375 . S
C369 C372 1.481 . S
C370 C369 1.375 . S
C370 C371 1.367 . S
C370 H384 0.951 . S
C371 C367 1.383 . S
C371 C370 1.367 . S
C371 H385 0.950 . S
C372 C369 1.481 . S
C372 C373 1.297 . S
C372 H386 0.950 . S
C373 C372 1.297 . S
C373 C374 1.479 . S
C373 H387 0.950 . S
C374 C373 1.479 . S
C374 C375 1.375 . S
C374 C380 1.404 . S
C375 C374 1.375 . S
C375 C376 1.369 1_556 S
C375 H388 0.950 . S
C376 C375 1.369 1_554 S
C376 C377 1.392 . S
C376 H389 0.951 . S
C377 C376 1.392 . S
C377 C379 1.383 1_554 S
H378 C380 0.949 . S
C379 C377 1.383 1_556 S
C379 C380 1.387 . S
C379 H381 0.950 1_556 S
C380 C374 1.404 . S
C380 H378 0.949 . S
C380 C379 1.387 . S
H381 C379 0.950 1_554 S
H382 C366 0.951 . S
H383 C368 0.951 . S
H384 C370 0.951 . S
H385 C371 0.950 . S
H386 C372 0.950 . S
H387 C373 0.950 . S
H388 C375 0.950 . S
H389 C376 0.951 . S
C390 C391 1.386 1_556 S
C390 C392 1.383 . S
C390 H406 0.951 . S
C391 C390 1.386 1_554 S
C391 C395 1.383 . S
C392 C390 1.383 . S
C392 C393 1.402 1_556 S
C392 H407 0.951 . S
C393 C392 1.402 1_554 S
C393 C394 1.375 . S
C393 C396 1.481 . S
C394 C393 1.375 . S
C394 C395 1.367 . S
C394 H408 0.951 . S
C395 C391 1.383 . S
C395 C394 1.367 . S
C395 H409 0.950 . S
C396 C393 1.481 . S
C396 C397 1.297 1_554 S
C396 H410 0.950 . S
C397 C396 1.297 1_556 S
C397 C398 1.479 . S
C397 H411 0.950 . S
C398 C397 1.479 . S
C398 C399 1.375 . S
C398 C404 1.404 1_556 S
C399 C398 1.375 . S
C399 C400 1.369 . S
C399 H412 0.950 . S
C400 C399 1.369 . S
C400 C401 1.392 . S
C400 H413 0.951 . S
C401 C400 1.392 . S
C401 C403 1.384 1_556 S
H402 C404 0.949 . S
C403 C401 1.384 1_554 S
C403 C404 1.385 . S
C403 H405 0.950 . S
C404 C398 1.404 1_554 S
C404 H402 0.949 . S
C404 C403 1.385 . S
H405 C403 0.950 . S
H406 C390 0.951 . S
H407 C392 0.951 . S
H408 C394 0.951 . S
H409 C395 0.950 . S
H410 C396 0.950 . S
H411 C397 0.950 . S
H412 C399 0.950 . S
H413 C400 0.951 . S
C414 C415 1.386 . S
C414 C416 1.383 . S
C414 H430 0.951 . S
C415 C414 1.386 . S
C415 C419 1.383 . S
C416 C414 1.383 . S
C416 C417 1.402 . S
C416 H431 0.951 . S
C417 C416 1.402 . S
C417 C418 1.375 . S
C417 C420 1.481 . S
C418 C417 1.375 . S
C418 C419 1.367 . S
C418 H432 0.951 . S
C419 C415 1.383 . S
C419 C418 1.367 . S
C419 H433 0.950 . S
C420 C417 1.481 . S
C420 C421 1.297 . S
C420 H434 0.950 . S
C421 C420 1.297 . S
C421 C422 1.479 . S
C421 H435 0.950 . S
C422 C421 1.479 . S
C422 C423 1.375 . S
C422 C428 1.404 . S
C423 C422 1.375 . S
C423 C424 1.369 . S
C423 H436 0.950 . S
C424 C423 1.369 . S
C424 C425 1.392 . S
C424 H437 0.951 . S
C425 C424 1.392 . S
C425 C427 1.384 . S
H426 C428 0.949 . S
C427 C425 1.384 . S
C427 C428 1.385 . S
C427 H429 0.950 . S
C428 C422 1.404 . S
C428 H426 0.949 . S
C428 C427 1.385 . S
H429 C427 0.950 . S
H430 C414 0.951 . S
H431 C416 0.951 . S
H432 C418 0.951 . S
H433 C419 0.950 . S
H434 C420 0.950 . S
H435 C421 0.950 . S
H436 C423 0.950 . S
H437 C424 0.951 . S
C438 C439 1.386 . S
C438 C440 1.383 . S
C438 H454 0.951 . S
C439 C438 1.386 . S
C439 C443 1.383 . S
C440 C438 1.383 . S
C440 C441 1.402 . S
C440 H455 0.951 . S
C441 C440 1.402 . S
C441 C442 1.375 . S
C441 C444 1.481 . S
C442 C441 1.375 . S
C442 C443 1.367 . S
C442 H456 0.951 . S
C443 C439 1.383 . S
C443 C442 1.367 . S
C443 H457 0.950 . S
C444 C441 1.481 . S
C444 C445 1.297 . S
C444 H458 0.950 . S
C445 C444 1.297 . S
C445 C446 1.479 . S
C445 H459 0.950 . S
C446 C445 1.479 . S
C446 C447 1.375 . S
C446 C452 1.404 . S
C447 C446 1.375 . S
C447 C448 1.369 . S
C447 H460 0.950 . S
C448 C447 1.369 . S
C448 C449 1.392 . S
C448 H461 0.951 . S
C449 C448 1.392 . S
C449 C451 1.384 . S
H450 C452 0.949 . S
C451 C449 1.384 . S
C451 C452 1.385 . S
C451 H453 0.950 . S
C452 C446 1.404 . S
C452 H450 0.949 . S
C452 C451 1.385 . S
H453 C451 0.950 . S
H454 C438 0.951 . S
H455 C440 0.951 . S
H456 C442 0.951 . S
H457 C443 0.950 . S
H458 C444 0.950 . S
H459 C445 0.950 . S
H460 C447 0.950 . S
H461 C448 0.951 . S
C462 C463 1.386 . S
C462 C464 1.383 . S
C462 H478 0.951 . S
C463 C462 1.386 . S
C463 C467 1.383 . S
C464 C462 1.383 . S
C464 C465 1.402 . S
C464 H479 0.951 . S
C465 C464 1.402 . S
C465 C466 1.375 . S
C465 C468 1.481 . S
C466 C465 1.375 . S
C466 C467 1.367 . S
C466 H480 0.951 . S
C467 C463 1.383 . S
C467 C466 1.367 . S
C467 H481 0.950 . S
C468 C465 1.481 . S
C468 C469 1.297 . S
C468 H482 0.950 . S
C469 C468 1.297 . S
C469 C470 1.479 . S
C469 H483 0.950 . S
C470 C469 1.479 . S
C470 C471 1.375 . S
C470 C476 1.404 . S
C471 C470 1.375 . S
C471 C472 1.369 . S
C471 H484 0.950 . S
C472 C471 1.369 . S
C472 C473 1.392 . S
C472 H485 0.951 . S
C473 C472 1.392 . S
C473 C475 1.384 . S
H474 C476 0.949 . S
C475 C473 1.384 . S
C475 C476 1.385 . S
C475 H477 0.950 . S
C476 C470 1.404 . S
C476 H474 0.949 . S
C476 C475 1.385 . S
H477 C475 0.950 . S
H478 C462 0.951 . S
H479 C464 0.951 . S
H480 C466 0.951 . S
H481 C467 0.950 . S
H482 C468 0.950 . S
H483 C469 0.950 . S
H484 C471 0.950 . S
H485 C472 0.951 . S
C486 C487 1.386 . S
C486 C488 1.383 . S
C486 H502 0.951 . S
C487 C486 1.386 . S
C487 C491 1.383 . S
C488 C486 1.383 . S
C488 C489 1.402 . S
C488 H503 0.951 . S
C489 C488 1.402 . S
C489 C490 1.375 . S
C489 C492 1.481 . S
C490 C489 1.375 . S
C490 C491 1.367 . S
C490 H504 0.951 . S
C491 C487 1.383 . S
C491 C490 1.367 . S
C491 H505 0.950 . S
C492 C489 1.481 . S
C492 C493 1.297 . S
C492 H506 0.950 . S
C493 C492 1.297 . S
C493 C494 1.479 . S
C493 H507 0.950 . S
C494 C493 1.479 . S
C494 C495 1.375 . S
C494 C500 1.404 . S
C495 C494 1.375 . S
C495 C496 1.369 . S
C495 H508 0.950 . S
C496 C495 1.369 . S
C496 C497 1.392 . S
C496 H509 0.951 . S
C497 C496 1.392 . S
C497 C499 1.384 . S
H498 C500 0.949 . S
C499 C497 1.384 . S
C499 C500 1.385 . S
C499 H501 0.950 . S
C500 C494 1.404 . S
C500 H498 0.949 . S
C500 C499 1.385 . S
H501 C499 0.950 . S
H502 C486 0.951 . S
H503 C488 0.951 . S
H504 C490 0.951 . S
H505 C491 0.950 . S
H506 C492 0.950 . S
H507 C493 0.950 . S
H508 C495 0.950 . S
H509 C496 0.951 . S
C510 C511 1.386 . S
C510 C512 1.383 . S
C510 H526 0.951 . S
C511 C510 1.386 . S
C511 C515 1.383 . S
C512 C510 1.383 . S
C512 C513 1.402 . S
C512 H527 0.951 . S
C513 C512 1.402 . S
C513 C514 1.375 . S
C513 C516 1.481 . S
C514 C513 1.375 . S
C514 C515 1.367 . S
C514 H528 0.951 . S
C515 C511 1.383 . S
C515 C514 1.367 . S
C515 H529 0.950 . S
C516 C513 1.481 . S
C516 C517 1.297 . S
C516 H530 0.950 . S
C517 C516 1.297 . S
C517 C518 1.479 . S
C517 H531 0.950 . S
C518 C517 1.479 . S
C518 C519 1.375 . S
C518 C524 1.404 . S
C519 C518 1.375 . S
C519 C520 1.369 . S
C519 H532 0.950 . S
C520 C519 1.369 . S
C520 C521 1.392 . S
C520 H533 0.951 . S
C521 C520 1.392 . S
C521 C523 1.384 . S
H522 C524 0.949 . S
C523 C521 1.384 . S
C523 C524 1.385 . S
C523 H525 0.950 . S
C524 C518 1.404 . S
C524 H522 0.949 . S
C524 C523 1.385 . S
H525 C523 0.950 . S
H526 C510 0.951 . S
H527 C512 0.951 . S
H528 C514 0.951 . S
H529 C515 0.950 . S
H530 C516 0.950 . S
H531 C517 0.950 . S
H532 C519 0.950 . S
H533 C520 0.951 . S
C534 C535 1.386 . S
C534 C536 1.383 . S
C534 H550 0.951 . S
C535 C534 1.386 . S
C535 C539 1.383 . S
C536 C534 1.383 . S
C536 C537 1.402 . S
C536 H551 0.951 . S
C537 C536 1.402 . S
C537 C538 1.375 . S
C537 C540 1.481 . S
C538 C537 1.375 . S
C538 C539 1.367 . S
C538 H552 0.951 . S
C539 C535 1.383 . S
C539 C538 1.367 . S
C539 H553 0.950 . S
C540 C537 1.481 . S
C540 C541 1.297 . S
C540 H554 0.950 . S
C541 C540 1.297 . S
C541 C542 1.479 . S
C541 H555 0.950 . S
C542 C541 1.479 . S
C542 C543 1.375 . S
C542 C548 1.404 . S
C543 C542 1.375 . S
C543 C544 1.369 . S
C543 H556 0.950 . S
C544 C543 1.369 . S
C544 C545 1.392 . S
C544 H557 0.951 . S
C545 C544 1.392 . S
C545 C547 1.384 . S
H546 C548 0.949 . S
C547 C545 1.384 . S
C547 C548 1.385 . S
C547 H549 0.950 . S
C548 C542 1.404 . S
C548 H546 0.949 . S
C548 C547 1.385 . S
H549 C547 0.950 . S
H550 C534 0.951 . S
H551 C536 0.951 . S
H552 C538 0.951 . S
H553 C539 0.950 . S
H554 C540 0.950 . S
H555 C541 0.950 . S
H556 C543 0.950 . S
H557 C544 0.951 . S
C127 C121 1.214 1_554 S
C137 C3 1.250 1_556 S
C151 C16 1.298 1_554 S
C161 C24 1.216 1_556 S
C175 C37 1.285 1_554 S
C185 C58 1.196 1_556 S
C199 C79 1.214 1_556 S
C209 C45 1.188 1_554 S
C223 C100 1.325 1_556 S
C233 C66 1.305 1_554 S
C247 C87 1.313 1_554 S
C257 C108 1.249 1_556 S
C271 C103 1.445 . S
C281 C19 1.364 . S
C295 C125 1.381 . S
C305 C40 1.420 . S
C319 C62 1.447 . S
C329 C20 1.372 . S
C343 C83 1.448 . S
C353 C41 1.379 . S
C367 C104 1.381 . S
C377 C61 1.438 . S
C391 C82 1.420 . S
C401 C124 1.459 . S
C415 C7 1.230 . S
C425 C4 1.355 . S
C439 C28 1.235 . S
C449 C25 1.363 . S
C463 C46 1.321 . S
C473 C49 1.195 . S
C487 C67 1.306 . S
C497 C70 1.216 . S
C511 C91 1.326 . S
C521 C88 1.189 . S
C535 C112 1.334 . S
C545 C109 1.186 . S
