# Generated by pormake.
# Topology qtz-e, (6)-cn, num edge types: 1
# Building blocks:
#     Node 0, Type 0, BuildingBlock: BETFAJ_clean_sbu_0, # of connection points: 6
#     Node 1, Type 0, BuildingBlock: BETFAJ_clean_sbu_0, # of connection points: 6
#     Node 2, Type 0, BuildingBlock: BETFAJ_clean_sbu_0, # of connection points: 6
#     Node 3, Type 0, BuildingBlock: BETFAJ_clean_sbu_0, # of connection points: 6
#     Node 4, Type 0, BuildingBlock: BETFAJ_clean_sbu_0, # of connection points: 6
#     Node 5, Type 0, BuildingBlock: BETFAJ_clean_sbu_0, # of connection points: 6
#     Edge 6, Type (0, 0), BuildingBlock: ZUJKAS_clean_linker_0, # of connection points: 2
#     Edge 7, Type (0, 0), BuildingBlock: ZUJKAS_clean_linker_0, # of connection points: 2
#     Edge 8, Type (0, 0), BuildingBlock: ZUJKAS_clean_linker_0, # of connection points: 2
#     Edge 9, Type (0, 0), BuildingBlock: ZUJKAS_clean_linker_0, # of connection points: 2
#     Edge 10, Type (0, 0), BuildingBlock: ZUJKAS_clean_linker_0, # of connection points: 2
#     Edge 11, Type (0, 0), BuildingBlock: ZUJKAS_clean_linker_0, # of connection points: 2
#     Edge 12, Type (0, 0), BuildingBlock: ZUJKAS_clean_linker_0, # of connection points: 2
#     Edge 13, Type (0, 0), BuildingBlock: ZUJKAS_clean_linker_0, # of connection points: 2
#     Edge 14, Type (0, 0), BuildingBlock: ZUJKAS_clean_linker_0, # of connection points: 2
#     Edge 15, Type (0, 0), BuildingBlock: ZUJKAS_clean_linker_0, # of connection points: 2
#     Edge 16, Type (0, 0), BuildingBlock: ZUJKAS_clean_linker_0, # of connection points: 2
#     Edge 17, Type (0, 0), BuildingBlock: ZUJKAS_clean_linker_0, # of connection points: 2
#     Edge 18, Type (0, 0), BuildingBlock: ZUJKAS_clean_linker_0, # of connection points: 2
#     Edge 19, Type (0, 0), BuildingBlock: ZUJKAS_clean_linker_0, # of connection points: 2
#     Edge 20, Type (0, 0), BuildingBlock: ZUJKAS_clean_linker_0, # of connection points: 2
#     Edge 21, Type (0, 0), BuildingBlock: ZUJKAS_clean_linker_0, # of connection points: 2
#     Edge 22, Type (0, 0), BuildingBlock: ZUJKAS_clean_linker_0, # of connection points: 2
#     Edge 23, Type (0, 0), BuildingBlock: ZUJKAS_clean_linker_0, # of connection points: 2
# Relax obj value: 0.115
# Max RMSD: 0.182
# Mean RMSD: 0.182
data_MOF--net-qtz-e--node1-BETFAJ_clean_sbu_0--edge1-ZUJKAS_clean_linker_0
_symmetry_space_group_name_H-M    P1
_symmetry_Int_Tables_number       1
_symmetry_cell_setting            triclinic
loop_
_symmetry_equiv_pos_as_xyz
'x, y, z'
_cell_length_a     33.03269
_cell_length_b     32.955925
_cell_length_c     62.97244
_cell_angle_alpha  90.19839
_cell_angle_beta   90.071845
_cell_angle_gamma 120.35105
loop_
_atom_site_label
_atom_site_type_symbol
_atom_site_fract_x
_atom_site_fract_y
_atom_site_fract_z
_atom_type_partial_charge
Sm0 Sm 0.16483 0.44097 0.05202 0.0
Sm1 Sm 0.15944 0.348 0.04007 0.0
C2 C 0.15187 0.50726 0.0692 0.0
C3 C 0.15635 0.52746 0.09055 0.0
C4 C 0.13736 0.55625 0.09473 0.0
C5 C 0.1408 0.57503 0.11509 0.0
C6 C 0.16319 0.56521 0.13169 0.0
C7 C 0.1818 0.53588 0.12737 0.0
C8 C 0.17837 0.51718 0.10701 0.0
C9 C 0.24932 0.44536 0.05085 0.0
C10 C 0.14469 0.36049 0.08927 0.0
C11 C 0.17269 0.28251 0.02228 0.0
C12 C 0.18949 0.2752 1.00162 0.0
C13 C 0.22683 0.31257 0.9908 0.0
C14 C 0.24186 0.30494 0.97116 0.0
C15 C 0.21976 0.2598 0.9618 0.0
C16 C 0.18215 0.2226 0.9727 0.0
C17 C 0.16729 0.23025 0.99237 0.0
C18 C 0.07538 0.34603 0.0414 0.0
C19 C 0.18075 0.42878 1.00354 0.0
O20 O 0.11866 0.46352 0.0669 0.0
O21 O 0.19082 0.51616 0.05984 0.0
O22 O 0.21245 0.41173 0.05854 0.0
O23 O 0.24302 0.47905 0.04435 0.0
O24 O 0.14366 0.39841 0.08325 0.0
O25 O 0.15475 0.3359 0.0759 0.0
O26 O 0.20369 0.3159 0.03462 0.0
O27 O 0.1323 0.28088 0.02205 0.0
O28 O 0.113 0.37765 0.03344 0.0
O29 O 0.0809 0.31294 0.04953 0.0
O30 O 0.18937 0.39598 1.01048 0.0
O31 O 0.16199 0.44699 1.01607 0.0
H32 H 0.1199 0.56425 0.08224 0.0
H33 H 0.12646 0.59778 0.11773 0.0
H34 H 0.19851 0.52684 0.1398 0.0
H35 H 0.19274 0.4945 0.10412 0.0
H36 H 0.24447 0.3477 0.99752 0.0
H37 H 0.27123 0.3344 0.96345 0.0
H38 H 0.16362 0.18757 0.96592 0.0
H39 H 0.13817 0.20098 1.00033 0.0
Sm40 Sm 0.73233 0.1942 0.38656 0.0
Sm41 Sm 0.80688 0.1698 0.37284 0.0
C42 C 0.65922 0.20215 0.39694 0.0
C43 C 0.6418 0.20864 0.41752 0.0
C44 C 0.59343 0.18635 0.42138 0.0
C45 C 0.57676 0.18929 0.44145 0.0
C46 C 0.60826 0.21502 0.45796 0.0
C47 C 0.6567 0.23792 0.4539 0.0
C48 C 0.67329 0.23451 0.43395 0.0
C49 C 0.82042 0.25298 0.40286 0.0
C50 C 0.76521 0.14073 0.41989 0.0
C51 C 0.87825 0.16527 0.35646 0.0
C52 C 0.90364 0.18007 0.33615 0.0
C53 C 0.95145 0.19449 0.3352 0.0
C54 C 0.97523 0.20764 0.31577 0.0
C55 C 0.95143 0.20642 0.297 0.0
C56 C 0.90364 0.19249 0.29815 0.0
C57 C 0.88002 0.17942 0.31749 0.0
C58 C 0.7147 0.09882 0.37022 0.0
C59 C 0.77419 0.22376 0.33834 0.0
O60 O 0.65657 0.1614 0.39427 0.0
O61 O 0.69893 0.23767 0.39021 0.0
O62 O 0.81166 0.23731 0.38411 0.0
O63 O 0.78198 0.23876 0.41338 0.0
O64 O 0.72911 0.14345 0.41253 0.0
O65 O 0.80431 0.15667 0.40879 0.0
O66 O 0.88394 0.1988 0.36953 0.0
O67 O 0.83466 0.13106 0.35518 0.0
O68 O 0.73139 0.14065 0.36453 0.0
O69 O 0.74746 0.0925 0.37807 0.0
O70 O 0.80187 0.20663 0.34265 0.0
O71 O 0.74356 0.22231 0.35229 0.0
H72 H 0.56856 0.16622 0.40895 0.0
H73 H 0.53924 0.17153 0.44405 0.0
H74 H 0.68187 0.25745 0.46634 0.0
H75 H 0.71081 0.2515 0.43149 0.0
H76 H 0.97027 0.19522 0.34943 0.0
H77 H 0.01198 0.21798 0.31538 0.0
H78 H 0.88448 0.19203 0.28408 0.0
H79 H 0.84312 0.16853 0.31782 0.0
Sm80 Sm 0.49865 0.73836 0.72062 0.0
Sm81 Sm 0.60021 0.80144 0.70603 0.0
C82 C 0.41877 0.66809 0.73516 0.0
C83 C 0.39808 0.64815 0.75601 0.0
C84 C 0.42276 0.63782 0.77118 0.0
C85 C 0.40296 0.61995 0.79102 0.0
C86 C 0.35811 0.6121 0.7961 0.0
C87 C 0.33344 0.62232 0.78083 0.0
C88 C 0.35325 0.64011 0.76098 0.0
C89 C 0.53477 0.83049 0.73141 0.0
C90 C 0.58777 0.75583 0.75224 0.0
C91 C 0.67844 0.8684 0.68863 0.0
C92 C 0.68994 0.88795 0.66701 0.0
C93 C 0.72576 0.93455 0.66388 0.0
C94 C 0.73447 0.9544 0.64358 0.0
C95 C 0.70742 0.92795 0.62603 0.0
C96 C 0.67193 0.88098 0.62923 0.0
C97 C 0.66321 0.86124 0.64953 0.0
C98 C 0.55792 0.70769 0.69525 0.0
C99 C 0.51277 0.78684 0.6748 0.0
O100 O 0.4538 0.66312 0.72887 0.0
O101 O 0.4248 0.70963 0.73095 0.0
O102 O 0.55766 0.8093 0.7322 0.0
O103 O 0.49126 0.80238 0.72624 0.0
O104 O 0.54304 0.72862 0.74681 0.0
O105 O 0.61718 0.79137 0.74021 0.0
O106 O 0.64931 0.87691 0.69909 0.0
O107 O 0.66918 0.82504 0.69081 0.0
O108 O 0.54052 0.73359 0.69427 0.0
O109 O 0.60108 0.73148 0.70188 0.0
O110 O 0.55669 0.81475 0.68096 0.0
O111 O 0.48375 0.74965 0.6861 0.0
H112 H 0.45745 0.64376 0.76778 0.0
H113 H 0.42311 0.61298 0.8025 0.0
H114 H 0.2986 0.61612 0.78415 0.0
H115 H 0.33356 0.64774 0.74949 0.0
H116 H 0.74657 0.9558 0.6772 0.0
H117 H 0.76236 0.9905 0.64163 0.0
H118 H 0.64997 0.85985 0.61616 0.0
H119 H 0.63491 0.82535 0.65163 0.0
Sm120 Sm 0.79496 0.52791 0.04829 0.0
Sm121 Sm 0.80047 0.62253 0.0392 0.0
C122 C 0.80793 0.4605 0.06381 0.0
C123 C 0.80697 0.4432 0.08551 0.0
C124 C 0.79545 0.46226 0.10285 0.0
C125 C 0.79428 0.44587 0.12344 0.0
C126 C 0.80426 0.40969 0.12718 0.0
C127 C 0.81595 0.39079 0.1097 0.0
C128 C 0.81725 0.40739 0.08908 0.0
C129 C 0.71149 0.52542 0.05023 0.0
C130 C 0.82259 0.60865 0.08697 0.0
C131 C 0.78555 0.68777 0.02281 0.0
C132 C 0.76769 0.693 1.00199 0.0
C133 C 0.72804 0.6551 0.99243 0.0
C134 C 0.71357 0.65948 0.97207 0.0
C135 C 0.73829 0.70192 0.96079 0.0
C136 C 0.77755 0.74003 0.97056 0.0
C137 C 0.79209 0.73555 0.9909 0.0
C138 C 0.88324 0.62222 0.03762 0.0
C139 C 0.77262 0.54257 1.0009 0.0
O140 O 0.84238 0.50289 0.0596 0.0
O141 O 0.76768 0.45294 0.05644 0.0
O142 O 0.74954 0.55826 0.05761 0.0
O143 O 0.71605 0.49147 0.04247 0.0
O144 O 0.82341 0.57145 0.07944 0.0
O145 O 0.80923 0.63287 0.07514 0.0
O146 O 0.75555 0.65439 0.03532 0.0
O147 O 0.82655 0.6907 0.02252 0.0
O148 O 0.84451 0.59168 0.02995 0.0
O149 O 0.87994 0.65622 0.0464 0.0
O150 O 0.7667 0.576 1.00939 0.0
O151 O 0.79122 0.52198 1.01197 0.0
H152 H 0.78714 0.48976 0.10045 0.0
H153 H 0.78584 0.46183 0.13646 0.0
H154 H 0.82337 0.36261 0.11188 0.0
H155 H 0.82622 0.3922 0.07591 0.0
H156 H 0.70857 0.62172 1.00053 0.0
H157 H 0.68288 0.62958 0.9652 0.0
H158 H 0.79776 0.77307 0.96229 0.0
H159 H 0.82295 0.76517 0.99785 0.0
Sm160 Sm 0.24047 0.80091 0.38742 0.0
Sm161 Sm 0.15109 0.80415 0.37668 0.0
C162 C 0.32391 0.81436 0.39741 0.0
C163 C 0.34309 0.81626 0.41877 0.0
C164 C 0.38834 0.82352 0.42166 0.0
C165 C 0.40595 0.82595 0.44222 0.0
C166 C 0.37836 0.82079 0.46023 0.0
C167 C 0.3329 0.81333 0.45707 0.0
C168 C 0.31565 0.81136 0.43662 0.0
C169 C 0.15934 0.72865 0.40433 0.0
C170 C 0.19478 0.8372 0.42318 0.0
C171 C 0.07113 0.79137 0.36082 0.0
C172 C 0.04856 0.77589 0.33978 0.0
C173 C -0.00043 0.75213 0.33775 0.0
C174 C 0.97844 0.73865 0.31764 0.0
C175 C 0.00604 0.74881 0.29922 0.0
C176 C 0.0551 0.77197 0.30144 0.0
C177 C 0.07608 0.78541 0.32146 0.0
C178 C 0.23517 0.8871 0.3728 0.0
C179 C 0.19655 0.76482 0.34024 0.0
O180 O 0.31642 0.84896 0.39318 0.0
O181 O 0.28892 0.77319 0.39158 0.0
O182 O 0.1634 0.74517 0.38595 0.0
O183 O 0.19923 0.74932 0.41416 0.0
O184 O 0.23405 0.84509 0.41403 0.0
O185 O 0.15394 0.81369 0.41315 0.0
O186 O 0.07346 0.75973 0.37245 0.0
O187 O 0.11006 0.83202 0.36118 0.0
O188 O 0.22597 0.84706 0.36669 0.0
O189 O 0.19888 0.88469 0.38203 0.0
O190 O 0.16299 0.77353 0.34575 0.0
O191 O 0.23155 0.77332 0.35319 0.0
H192 H 0.40999 0.82735 0.40807 0.0
H193 H 0.44129 0.83229 0.44397 0.0
H194 H 0.31014 0.80824 0.47039 0.0
H195 H 0.28063 0.80582 0.43476 0.0
H196 H 0.9777 0.74445 0.35168 0.0
H197 H 0.94058 0.72113 0.31649 0.0
H198 H 0.07741 0.77955 0.28768 0.0
H199 H 0.11398 0.80359 0.32257 0.0
Sm200 Sm 0.45982 0.26616 0.71772 0.0
Sm201 Sm 0.38645 0.16468 0.7119 0.0
C202 C 0.50814 0.35479 0.73038 0.0
C203 C 0.52846 0.3724 0.75156 0.0
C204 C 0.55753 0.42057 0.75564 0.0
C205 C 0.57918 0.436 0.77557 0.0
C206 C 0.57221 0.40336 0.7916 0.0
C207 C 0.5421 0.35522 0.78747 0.0
C208 C 0.52058 0.33994 0.76767 0.0
C209 C 0.49143 0.20663 0.72846 0.0
C210 C 0.38473 0.20825 0.75659 0.0
C211 C 0.33646 0.07552 0.69966 0.0
C212 C 0.32197 0.0537 0.67846 0.0
C213 C 0.2949 0.00473 0.67619 0.0
C214 C 0.28091 0.98433 0.65596 0.0
C215 C 0.29409 0.01264 0.63766 0.0
C216 C 0.32126 0.06176 0.64011 0.0
C217 C 0.33482 0.08205 0.6603 0.0
C218 C 0.35968 0.22828 0.70049 0.0
C219 C 0.45996 0.2231 0.67257 0.0
O220 O 0.46226 0.33112 0.72948 0.0
O221 O 0.52697 0.33407 0.71999 0.0
O222 O 0.45101 0.19936 0.73294 0.0
O223 O 0.51664 0.24661 0.71917 0.0
O224 O 0.41018 0.24852 0.74657 0.0
O225 O 0.37596 0.16821 0.74775 0.0
O226 O 0.38144 0.09654 0.70376 0.0
O227 O 0.31767 0.10027 0.70575 0.0
O228 O 0.39765 0.23046 0.69621 0.0
O229 O 0.33308 0.19121 0.71162 0.0
O230 O 0.43508 0.18242 0.68244 0.0
O231 O 0.46834 0.2627 0.68177 0.0
H232 H 0.56417 0.44609 0.74334 0.0
H233 H 0.60235 0.47331 0.77822 0.0
H234 H 0.53526 0.3292 0.79955 0.0
H235 H 0.49834 0.30255 0.76481 0.0
H236 H 0.28457 0.98229 0.69003 0.0
H237 H 0.26036 0.94639 0.65461 0.0
H238 H 0.33147 0.08464 0.62642 0.0
H239 H 0.35518 0.11998 0.66174 0.0
H240 H 0.26304 0.75133 0.32043 0.0
H241 H 0.25881 0.71878 0.28491 0.0
H242 H 0.1206 0.69935 0.27617 0.0
H243 H 0.12466 0.73214 0.31139 0.0
H244 H 0.19604 0.63152 0.26843 0.0
H245 H 0.1864 0.76989 0.22273 0.0
H246 H 0.20284 0.77695 0.25043 0.0
H247 H 0.14205 0.74342 0.24276 0.0
C248 C 0.23181 0.74034 0.31092 0.0
C249 C 0.19442 0.74492 0.31875 0.0
C250 C 0.22945 0.72171 0.29061 0.0
C251 C 0.18977 0.70743 0.27767 0.0
C252 C 0.15212 0.71126 0.28558 0.0
H253 H 0.09751 0.57663 0.15344 0.0
H254 H 0.10475 0.61065 0.18883 0.0
C255 C 0.15448 0.72994 0.30582 0.0
C256 C 0.18711 0.68738 0.25613 0.0
H257 H 0.17042 0.70089 0.20362 0.0
C258 C 0.1908 0.64689 0.25424 0.0
C259 C 0.18013 0.70735 0.2376 0.0
C260 C 0.17806 0.75205 0.23839 0.0
C261 C 0.18663 0.62524 0.23442 0.0
C262 C 0.17932 0.64503 0.21592 0.0
C263 C 0.17586 0.68564 0.2178 0.0
C264 C 0.17513 0.62417 0.19446 0.0
C265 C 0.18886 0.58065 0.23353 0.0
C266 C 0.21249 0.62096 0.18572 0.0
C267 C 0.20858 0.60175 0.16543 0.0
C268 C 0.16726 0.58554 0.15336 0.0
C269 C 0.13003 0.58919 0.16214 0.0
C270 C 0.134 0.60842 0.18243 0.0
H271 H 0.18256 0.56367 0.24935 0.0
H272 H 0.16268 0.55509 0.22211 0.0
H273 H 0.22426 0.58914 0.22816 0.0
H274 H 0.24497 0.63386 0.19449 0.0
H275 H 0.2383 0.60038 0.15906 0.0
H276 H 0.51558 0.29931 0.64755 0.0
H277 H 0.53957 0.29887 0.61075 0.0
H278 H 0.46363 0.1473 0.61072 0.0
H279 H 0.43978 0.14726 0.64741 0.0
H280 H 0.58995 0.25299 0.59446 0.0
H281 H 0.41431 0.18457 0.55738 0.0
H282 H 0.42842 0.21089 0.58355 0.0
H283 H 0.41674 0.15193 0.57968 0.0
C284 C 0.50397 0.26587 0.63973 0.0
C285 C 0.47559 0.22334 0.65045 0.0
C286 C 0.51771 0.2657 0.6187 0.0
C287 C 0.50286 0.22307 0.60794 0.0
C288 C 0.47489 0.1806 0.61863 0.0
H289 H 0.53966 0.14271 0.48102 0.0
H290 H 0.51462 0.14557 0.51732 0.0
C291 C 0.46146 0.1807 0.63967 0.0
C292 C 0.51739 0.22285 0.58567 0.0
H293 H 0.47507 0.19139 0.5351 0.0
C294 C 0.56495 0.2398 0.58143 0.0
C295 C 0.48458 0.20519 0.56878 0.0
C296 C 0.43316 0.18738 0.57243 0.0
C297 C 0.58054 0.23872 0.56078 0.0
C298 C 0.54781 0.22153 0.54378 0.0
C299 C 0.50019 0.20468 0.54807 0.0
C300 C 0.56218 0.22029 0.52149 0.0
C301 C 0.6317 0.25461 0.55756 0.0
C302 C 0.59646 0.26148 0.51152 0.0
C303 C 0.61103 0.25986 0.49084 0.0
C304 C 0.59102 0.21713 0.47953 0.0
C305 C 0.55554 0.17621 0.48926 0.0
C306 C 0.54132 0.17778 0.51003 0.0
H307 H 0.64862 0.25312 0.57257 0.0
H308 H 0.6362 0.23266 0.54544 0.0
H309 H 0.65042 0.29162 0.55207 0.0
H310 H 0.61206 0.29497 0.51974 0.0
H311 H 0.63787 0.29212 0.48365 0.0
H312 H 0.1717 0.49775 0.98369 0.0
H313 H 0.19663 0.52806 0.94771 0.0
H314 H 0.24569 0.43049 0.93794 0.0
H315 H 0.22043 0.39957 0.97361 0.0
H316 H 0.28693 0.56971 0.93124 0.0
H317 H 0.16608 0.40994 0.88509 0.0
H318 H 0.15717 0.4168 0.91285 0.0
H319 H 0.19874 0.39961 0.905 0.0
C320 C 0.18738 0.48242 0.97381 0.0
C321 C 0.19393 0.44613 0.98153 0.0
C322 C 0.20164 0.49983 0.95327 0.0
C323 C 0.22237 0.48106 0.94005 0.0
C324 C 0.22884 0.4448 0.9477 0.0
H325 H 0.35929 0.54165 0.81844 0.0
H326 H 0.32576 0.51164 0.85348 0.0
C327 C 0.21461 0.42737 0.96818 0.0
C328 C 0.23936 0.5008 0.91863 0.0
H329 H 0.23042 0.47109 0.86613 0.0
C330 C 0.27425 0.54833 0.91697 0.0
C331 C 0.22277 0.47275 0.90006 0.0
C332 C 0.18381 0.42206 0.90076 0.0
C333 C 0.29412 0.56823 0.89727 0.0
C334 C 0.27812 0.53994 0.87876 0.0
C335 C 0.24271 0.49261 0.88038 0.0
C336 C 0.29839 0.55851 0.8576 0.0
C337 C 0.33311 0.6189 0.89651 0.0
C338 C 0.29368 0.59449 0.84824 0.0
C339 C 0.31298 0.61186 0.82826 0.0
C340 C 0.33722 0.59343 0.81726 0.0
C341 C 0.34144 0.55705 0.82663 0.0
C342 C 0.32204 0.53966 0.84657 0.0
H343 H 0.34837 0.63254 0.91249 0.0
H344 H 0.36155 0.62309 0.88573 0.0
H345 H 0.31903 0.64081 0.89031 0.0
H346 H 0.27496 0.60904 0.85637 0.0
H347 H 0.30942 0.64012 0.82155 0.0
H348 H 0.71837 0.25534 0.32132 0.0
H349 H 0.7234 0.28803 0.2859 0.0
H350 H 0.8418 0.27152 0.27141 0.0
H351 H 0.83764 0.23969 0.3068 0.0
H352 H 0.85521 0.35867 0.25934 0.0
H353 H 0.6836 0.2146 0.22993 0.0
H354 H 0.68058 0.24141 0.2543 0.0
H355 H 0.71119 0.20925 0.25368 0.0
C356 C 0.74549 0.25861 0.31062 0.0
C357 C 0.77731 0.24438 0.31695 0.0
C358 C 0.74812 0.27706 0.29029 0.0
C359 C 0.78248 0.28151 0.27581 0.0
C360 C 0.81478 0.26815 0.28221 0.0
H361 H 0.86252 0.38295 0.14588 0.0
H362 H 0.85758 0.35232 0.18171 0.0
C363 C 0.81218 0.24972 0.30249 0.0
C364 C 0.78529 0.30062 0.25408 0.0
H365 H 0.72419 0.28086 0.20763 0.0
C366 C 0.82661 0.34159 0.24801 0.0
C367 C 0.74798 0.27838 0.23927 0.0
C368 C 0.70346 0.23325 0.24448 0.0
C369 C 0.83135 0.3613 0.22772 0.0
C370 C 0.79411 0.33894 0.21287 0.0
C371 C 0.75275 0.29804 0.21897 0.0
C372 C 0.7972 0.35741 0.19097 0.0
C373 C 0.87584 0.40652 0.22257 0.0
C374 C 0.76417 0.36927 0.18392 0.0
C375 C 0.76651 0.3862 0.16332 0.0
C376 C 0.80185 0.3915 0.14917 0.0
C377 C 0.83463 0.3791 0.15622 0.0
C378 C 0.83223 0.36212 0.17685 0.0
H379 H 0.89485 0.42573 0.23718 0.0
H380 H 0.89945 0.39834 0.21334 0.0
H381 H 0.86829 0.43002 0.21287 0.0
H382 H 0.73656 0.36558 0.19442 0.0
H383 H 0.74013 0.39454 0.15839 0.0
H384 H 0.42443 0.74258 0.6572 0.0
H385 H 0.40228 0.75175 0.62119 0.0
H386 H 0.54621 0.85606 0.6081 0.0
H387 H 0.56809 0.84875 0.64424 0.0
H388 H 0.49027 0.88224 0.59146 0.0
H389 H 0.42378 0.69648 0.56885 0.0
H390 H 0.39344 0.70202 0.59125 0.0
H391 H 0.45496 0.72133 0.59336 0.0
C392 C 0.45129 0.76771 0.6467 0.0
C393 C 0.49813 0.79456 0.65359 0.0
C394 C 0.43866 0.7726 0.62602 0.0
C395 C 0.47276 0.80367 0.61166 0.0
C396 C 0.51924 0.83157 0.61876 0.0
H397 H 0.43395 0.78622 0.47431 0.0
H398 H 0.45988 0.78566 0.5106 0.0
C399 C 0.53174 0.82725 0.63949 0.0
C400 C 0.46037 0.80719 0.58924 0.0
H401 H 0.40925 0.74248 0.5444 0.0
C402 C 0.47268 0.85166 0.58116 0.0
C403 C 0.43829 0.76751 0.57559 0.0
C404 C 0.4273 0.71925 0.58261 0.0
C405 C 0.46299 0.85746 0.56 0.0
C406 C 0.43896 0.81747 0.54665 0.0
C407 C 0.42723 0.77311 0.55464 0.0
C408 C 0.42555 0.82064 0.52438 0.0
C409 C 0.4797 0.90658 0.55206 0.0
C410 C 0.39773 0.84065 0.51992 0.0
C411 C 0.38362 0.84189 0.4991 0.0
C412 C 0.39614 0.82224 0.48222 0.0
C413 C 0.42418 0.80235 0.48675 0.0
C414 C 0.43868 0.80158 0.50758 0.0
H415 H 0.50974 0.9333 0.56163 0.0
H416 H 0.49059 0.91037 0.53517 0.0
H417 H 0.45077 0.91429 0.55344 0.0
H418 H 0.38618 0.85466 0.5326 0.0
H419 H 0.36262 0.85809 0.49629 0.0
H420 H 0.77048 0.47042 0.97757 0.0
H421 H 0.74197 0.44704 0.94096 0.0
H422 H 0.7097 0.55836 0.93771 0.0
H423 H 0.73866 0.58228 0.97368 0.0
H424 H 0.65252 0.41793 0.92498 0.0
H425 H 0.78412 0.57918 0.88368 0.0
H426 H 0.79201 0.5663 0.9107 0.0
H427 H 0.7556 0.59113 0.90499 0.0
C428 C 0.75774 0.49016 0.96896 0.0
C429 C 0.75697 0.52831 0.97861 0.0
C430 C 0.74141 0.47674 0.94807 0.0
C431 C 0.72447 0.5015 0.93645 0.0
C432 C 0.72363 0.53942 0.94611 0.0
H433 H 0.58616 0.47823 0.81635 0.0
H434 H 0.62413 0.50122 0.85131 0.0
C435 C 0.73989 0.5528 0.96685 0.0
C436 C 0.70549 0.48672 0.91461 0.0
H437 H 0.71503 0.52721 0.86391 0.0
C438 C 0.66653 0.44157 0.91156 0.0
C439 C 0.72355 0.5178 0.89715 0.0
C440 C 0.7664 0.56615 0.89922 0.0
C441 C 0.64424 0.42715 0.89168 0.0
C442 C 0.662 0.45842 0.87427 0.0
C443 C 0.70135 0.50335 0.87727 0.0
C444 C 0.64014 0.4452 0.85285 0.0
C445 C 0.60087 0.37915 0.88968 0.0
C446 C 0.6375 0.40679 0.8419 0.0
C447 C 0.61591 0.39365 0.82198 0.0
C448 C 0.59678 0.41886 0.81246 0.0
C449 C 0.60068 0.4582 0.82319 0.0
C450 C 0.6222 0.47125 0.84319 0.0
H451 H 0.58483 0.36486 0.9054 0.0
H452 H 0.57419 0.3803 0.87936 0.0
H453 H 0.61049 0.35446 0.88243 0.0
H454 H 0.65222 0.38696 0.84876 0.0
H455 H 0.61447 0.36383 0.81394 0.0
H456 H 0.2769 0.40404 0.08037 0.0
H457 H 0.35718 0.42107 0.08696 0.0
H458 H 0.40564 0.51552 0.03345 0.0
H459 H 0.32618 0.50064 0.02765 0.0
H460 H 0.41406 0.40697 0.06495 0.0
H461 H 0.4978 0.59833 0.07682 0.0
H462 H 0.4349 0.56062 0.07584 0.0
H463 H 0.46825 0.58288 0.0517 0.0
C464 C 0.30489 0.42846 0.0701 0.0
C465 C 0.29596 0.45152 0.05366 0.0
C466 C 0.3506 0.43832 0.07391 0.0
C467 C 0.38757 0.47077 0.06113 0.0
C468 C 0.37801 0.49198 0.04408 0.0
H469 H 0.63429 0.47401 0.02643 0.0
H470 H 0.55605 0.46207 0.03233 0.0
C471 C 0.33263 0.48301 0.04059 0.0
C472 C 0.43586 0.48068 0.06472 0.0
H473 H 0.54957 0.57011 0.06503 0.0
C474 C 0.44364 0.44265 0.06541 0.0
C475 C 0.47441 0.52718 0.06604 0.0
C476 C 0.46827 0.56945 0.06783 0.0
C477 C 0.48915 0.44993 0.06579 0.0
C478 C 0.52764 0.4964 0.06449 0.0
C479 C 0.51995 0.53447 0.06545 0.0
C480 C 0.57563 0.50595 0.06053 0.0
C481 C 0.49533 0.40766 0.06728 0.0
C482 C 0.61313 0.53717 0.07357 0.0
C483 C 0.65824 0.54525 0.06977 0.0
C484 C 0.6659 0.52166 0.05307 0.0
C485 C 0.62878 0.49188 0.03962 0.0
C486 C 0.58411 0.48466 0.04312 0.0
H487 H 0.46596 0.37874 0.07618 0.0
H488 H 0.49513 0.39429 0.05106 0.0
H489 H 0.52884 0.4165 0.07523 0.0
H490 H 0.60734 0.5545 0.08689 0.0
H491 H 0.68665 0.5685 0.08028 0.0
H492 H 0.15231 0.68163 0.4408 0.0
H493 H 0.09602 0.59888 0.44823 0.0
H494 H 0.02493 0.58769 0.3891 0.0
H495 H 0.08076 0.67042 0.38163 0.0
H496 H 0.96488 0.54056 0.42453 0.0
H497 H 0.10581 0.49677 0.41321 0.0
H498 H 0.11645 0.54122 0.43266 0.0
H499 H 0.1125 0.55229 0.40507 0.0
C500 C 0.12416 0.66167 0.42957 0.0
C501 C 0.12113 0.68198 0.41049 0.0
C502 C 0.09229 0.6145 0.4338 0.0
C503 C 0.05716 0.58725 0.41899 0.0
C504 C 0.05215 0.60831 0.40062 0.0
H505 H 0.89628 0.30763 0.37807 0.0
H506 H 0.9589 0.38777 0.38626 0.0
C507 C 0.08397 0.65544 0.39639 0.0
C508 C 0.02737 0.53608 0.42173 0.0
H509 H 0.02936 0.43368 0.41871 0.0
C510 C 0.97888 0.51708 0.42361 0.0
C511 C 0.04611 0.50592 0.42027 0.0
C512 C 0.09802 0.52483 0.41755 0.0
C513 C 0.94821 0.46838 0.42338 0.0
C514 C 0.96686 0.43817 0.42156 0.0
C515 C 0.01548 0.45715 0.42033 0.0
C516 C 0.93589 0.38717 0.41849 0.0
C517 C 0.89601 0.44973 0.42394 0.0
C518 C 0.90411 0.35978 0.43433 0.0
C519 C 0.86823 0.31423 0.42965 0.0
C520 C 0.864 0.29562 0.40912 0.0
C521 C 0.89861 0.32141 0.39395 0.0
C522 C 0.93435 0.36707 0.39861 0.0
H523 H 0.88744 0.47797 0.42162 0.0
H524 H 0.87776 0.42252 0.41145 0.0
H525 H 0.88197 0.4332 0.43957 0.0
H526 H 0.90543 0.37459 0.44987 0.0
H527 H 0.84225 0.29468 0.4417 0.0
H528 H 0.58353 0.23352 0.7304 0.0
H529 H 0.61781 0.18603 0.74085 0.0
H530 H 0.47963 0.06958 0.75437 0.0
H531 H 0.44506 0.11761 0.7445 0.0
H532 H 0.55092 0.08117 0.784 0.0
H533 H 0.60393 0.08372 0.69964 0.0
H534 H 0.62585 0.13942 0.71281 0.0
H535 H 0.56424 0.10365 0.70725 0.0
C536 C 0.56046 0.19792 0.73582 0.0
C537 C 0.51159 0.17881 0.7364 0.0
C538 C 0.58016 0.17096 0.74179 0.0
C539 C 0.55119 0.12424 0.74804 0.0
C540 C 0.50252 0.10572 0.74957 0.0
H541 H 0.48004 0.8604 0.74872 0.0
H542 H 0.50261 0.93979 0.7595 0.0
C543 C 0.48279 0.13293 0.74385 0.0
C544 C 0.57056 0.09296 0.751 0.0
H545 H 0.60821 0.03052 0.72234 0.0
C546 C 0.56456 0.07083 0.77067 0.0
C547 C 0.58926 0.0803 0.73368 0.0
C548 C 0.59609 0.1027 0.7121 0.0
C549 C 0.57274 0.0333 0.77293 0.0
C550 C 0.5865 0.01739 0.755 0.0
C551 C 0.59762 0.04293 0.73605 0.0
C552 C 0.57673 0.96861 0.75355 0.0
C553 C 0.56332 0.00877 0.79404 0.0
C554 C 0.61107 0.95829 0.74679 0.0
C555 C 0.5981 0.91237 0.74067 0.0
C556 C 0.55061 0.87705 0.74065 0.0
C557 C 0.51687 0.88715 0.74838 0.0
C558 C 0.52984 0.93241 0.75486 0.0
H559 H 0.57156 0.03405 0.80733 0.0
H560 H 0.52552 0.98182 0.79508 0.0
H561 H 0.58418 -0.00889 0.796 0.0
H562 H 0.64734 0.98604 0.74535 0.0
H563 H 0.62466 0.90511 0.73488 0.0
H564 H 0.46776 0.65795 0.68239 0.0
H565 H 0.41433 0.57379 0.6853 0.0
H566 H 0.52821 0.55613 0.70749 0.0
H567 H 0.58151 0.64156 0.70602 0.0
H568 H 0.40816 0.5034 0.6668 0.0
H569 H 0.4339 0.48378 0.75184 0.0
H570 H 0.4573 0.54068 0.7396 0.0
H571 H 0.48911 0.50949 0.7384 0.0
C572 C 0.48148 0.63619 0.68798 0.0
C573 C 0.52856 0.65623 0.69435 0.0
C574 C 0.45082 0.58804 0.68964 0.0
C575 C 0.46683 0.55872 0.69722 0.0
C576 C 0.51463 0.57833 0.70241 0.0
H577 H 0.39647 0.29091 0.66915 0.0
H578 H 0.40592 0.36873 0.66849 0.0
C579 C 0.54525 0.62693 0.70122 0.0
C580 C 0.43382 0.50747 0.69876 0.0
H581 H 0.40294 0.41267 0.73041 0.0
C582 C 0.40634 0.48375 0.6809 0.0
C583 C 0.42967 0.48177 0.71739 0.0
C584 C 0.45366 0.50543 0.73795 0.0
C585 C 0.37804 0.43474 0.68058 0.0
C586 C 0.37879 0.40874 0.69821 0.0
C587 C 0.40289 0.43257 0.71673 0.0
C588 C 0.36324 0.35824 0.69634 0.0
C589 C 0.34895 0.41128 0.66103 0.0
C590 C 0.33555 0.32598 0.7121 0.0
C591 C 0.33038 0.28111 0.71256 0.0
C592 C 0.3534 0.26871 0.69742 0.0
C593 C 0.37824 0.29979 0.68092 0.0
C594 C 0.38328 0.34418 0.68043 0.0
H595 H 0.33553 0.43314 0.65402 0.0
H596 H 0.37127 0.40769 0.64888 0.0
H597 H 0.31873 0.37588 0.66459 0.0
H598 H 0.32026 0.33642 0.72465 0.0
H599 H 0.31158 0.25772 0.72558 0.0
H600 H 0.02241 0.36268 1.01453 0.0
H601 H -0.00798 0.41469 0.02272 0.0
H602 H 0.02088 0.4099 0.08923 0.0
H603 H 0.04782 0.35459 0.08113 0.0
H604 H 0.95712 0.43416 0.08544 0.0
H605 H 0.10151 0.54359 0.03149 0.0
H606 H 0.05572 0.49916 1.01546 0.0
H607 H 0.0841 0.48291 0.03527 0.0
C608 C 0.01958 0.37052 0.031 0.0
C609 C 0.03832 0.35584 0.04717 0.0
C610 C 0.00302 0.40086 0.03566 0.0
C611 C 0.00747 0.41867 0.05636 0.0
C612 C 0.01859 0.39772 0.07303 0.0
H613 H 0.93747 0.64378 0.07363 0.0
H614 H 0.98335 0.60696 0.08431 0.0
C615 C 0.03376 0.36592 0.06842 0.0
C616 C 0.00671 0.46279 0.05977 0.0
H617 H 0.04418 0.56977 0.03717 0.0
C618 C 0.97668 0.46417 0.07514 0.0
C619 C 0.03444 0.50325 0.04721 0.0
C620 C 0.07106 0.50712 0.03168 0.0
C621 C 0.96894 0.50233 0.07622 0.0
C622 C -0.00861 0.53923 0.06137 0.0
C623 C 0.02615 0.54076 0.04817 0.0
C624 C 0.97063 0.56788 0.05494 0.0
C625 C 0.93493 0.50167 0.09234 0.0
C626 C 0.95054 0.55988 0.0346 0.0
C627 C 0.92523 0.58102 0.02848 0.0
C628 C 0.91955 0.61069 0.04254 0.0
C629 C 0.94209 0.62141 0.06244 0.0
C630 C 0.9676 0.59994 0.06865 0.0
H631 H 0.91827 0.46889 0.10185 0.0
H632 H 0.9538 0.53196 0.10335 0.0
H633 H 0.90721 0.50554 0.08437 0.0
H634 H 0.95237 0.53522 0.02377 0.0
H635 H 0.90785 0.57207 1.01314 0.0
H636 H 0.27201 0.9427 0.40816 0.0
H637 H 0.35534 0.98274 0.41849 0.0
H638 H 0.39022 0.95315 0.35653 0.0
H639 H 0.30748 0.91169 0.3466 0.0
H640 H 0.41508 0.9155 0.39354 0.0
H641 H 0.47746 0.10728 0.39892 0.0
H642 H 0.4226 0.06468 0.41081 0.0
H643 H 0.42759 0.0691 0.38247 0.0
C644 C 0.29784 0.94631 0.39658 0.0
C645 C 0.28378 0.92399 0.37668 0.0
C646 C 0.3452 0.96888 0.40252 0.0
C647 C 0.37853 0.97019 0.38832 0.0
C648 C 0.36477 0.95198 0.36774 0.0
H649 H 0.64416 0.09518 0.34777 0.0
H650 H 0.56265 0.06098 0.35874 0.0
C651 C 0.31771 0.92879 0.362 0.0
C652 C 0.42708 0.98605 0.39491 0.0
H653 H 0.53465 0.08494 0.397 0.0
C654 C 0.44135 0.95248 0.39494 0.0
C655 C 0.46073 0.03417 0.39699 0.0
C656 C 0.44671 0.07118 0.39733 0.0
C657 C 0.48895 0.96616 0.39451 0.0
C658 C 0.5227 0.01455 0.39454 0.0
C659 C 0.50838 0.04787 0.3969 0.0
C660 C 0.57141 0.03156 0.38789 0.0
C661 C 0.50265 0.92911 0.39206 0.0
C662 C 0.60267 0.02448 0.40027 0.0
C663 C 0.64923 0.04318 0.39372 0.0
C664 C 0.6647 0.06955 0.37494 0.0
C665 C 0.63278 0.07472 0.36224 0.0
C666 C 0.58651 0.05574 0.36862 0.0
H667 H 0.47184 0.89362 0.38917 0.0
H668 H 0.52745 0.9378 0.37864 0.0
H669 H 0.52059 0.92789 0.40675 0.0
H670 H 0.59152 0.00595 0.41522 0.0
H671 H 0.67362 0.03951 0.40391 0.0
H672 H 0.33782 0.1354 0.78493 0.0
H673 H 0.30693 0.13886 0.82 0.0
H674 H 0.35799 0.28661 0.81144 0.0
H675 H 0.389 0.28375 0.77672 0.0
H676 H 0.36124 0.20454 0.85617 0.0
H677 H 0.21445 0.22524 0.82624 0.0
H678 H 0.24239 0.20087 0.81017 0.0
H679 H 0.27074 0.26324 0.81443 0.0
C680 C 0.34239 0.16858 0.7905 0.0
C681 C 0.36577 0.20921 0.77791 0.0
C682 C 0.32478 0.17051 0.81055 0.0
C683 C 0.3297 0.21289 0.81821 0.0
C684 C 0.35325 0.25342 0.80574 0.0
H685 H 0.25088 0.318 0.927 0.0
H686 H 0.2778 0.30469 0.89297 0.0
C687 C 0.37112 0.25166 0.78587 0.0
C688 C 0.31094 0.2155 0.83932 0.0
H689 H 0.23161 0.23848 0.86303 0.0
C690 C 0.33256 0.21144 0.85773 0.0
C691 C 0.27382 0.22492 0.84128 0.0
C692 C 0.24862 0.2285 0.82202 0.0
C693 C 0.31908 0.21809 0.87807 0.0
C694 C 0.28208 0.22789 0.88006 0.0
C695 C 0.25998 0.2311 0.86158 0.0
C696 C 0.26634 0.23592 0.90108 0.0
C697 C 0.3459 0.21641 0.89713 0.0
C698 C 0.25045 0.2016 0.91703 0.0
C699 C 0.23566 0.2094 0.93669 0.0
C700 C 0.23576 0.25152 0.94082 0.0
C701 C 0.25108 0.28553 0.92465 0.0
C702 C 0.26613 0.27779 0.90505 0.0
H703 H 0.38086 0.22199 0.89262 0.0
H704 H 0.35095 0.24341 0.9091 0.0
H705 H 0.32588 0.18129 0.90463 0.0
H706 H 0.24918 0.16853 0.91426 0.0
H707 H 0.22455 0.18249 0.94872 0.0
H708 H 0.03925 0.28035 0.28824 0.0
H709 H 0.07687 0.30477 0.2534 0.0
H710 H 0.95681 0.18692 0.22408 0.0
H711 H 0.91913 0.16214 0.25875 0.0
H712 H 0.0993 0.25633 0.22173 0.0
H713 H 0.96868 0.30293 0.19337 0.0
H714 H 0.97499 0.29296 0.22103 0.0
H715 H 0.94377 0.244 0.2032 0.0
C716 C 0.02114 0.2593 0.27441 0.0
C717 C 0.97596 0.21964 0.27622 0.0
C718 C 0.04262 0.27336 0.25453 0.0
C719 C 0.01925 0.24806 0.23616 0.0
C720 C 0.97501 0.20744 0.23802 0.0
H721 H 0.12721 0.2772 0.10717 0.0
H722 H 0.09984 0.24987 0.14333 0.0
C723 C 0.95351 0.19342 0.25784 0.0
C724 C 0.04024 0.26502 0.21495 0.0
H725 H 0.02259 0.30528 0.16801 0.0
C726 C 0.08267 0.26713 0.20996 0.0
C727 C 0.01866 0.27958 0.19976 0.0
C728 C 0.97424 0.28024 0.2046 0.0
C729 C 0.10385 0.28293 0.19001 0.0
C730 C 0.08162 0.29638 0.17465 0.0
C731 C 0.03942 0.29463 0.17976 0.0
C732 C 0.10189 0.31379 0.15333 0.0
C733 C 0.15021 0.28597 0.18569 0.0
C734 C 0.11187 0.35862 0.14693 0.0
C735 C 0.12701 0.3741 0.12631 0.0
C736 C 0.13248 0.34503 0.11158 0.0
C737 C 0.12364 0.30054 0.11816 0.0
C738 C 0.10821 0.28495 0.13885 0.0
H739 H 0.16801 0.2856 0.20061 0.0
H740 H 0.14409 0.25528 0.17592 0.0
H741 H 0.17398 0.31841 0.17675 0.0
H742 H 0.10718 0.38143 0.15783 0.0
H743 H 0.13361 0.40863 0.12186 0.0
H744 H 0.72383 0.01572 0.61587 0.0
H745 H 0.73467 0.05049 0.58059 0.0
H746 H 0.71993 0.92428 0.55236 0.0
H747 H 0.70879 0.88915 0.58761 0.0
H748 H 0.80091 0.0701 0.55044 0.0
H749 H 0.62474 0.94148 0.51889 0.0
H750 H 0.63938 0.94514 0.54671 0.0
H751 H 0.65711 0.91492 0.52848 0.0
C752 C 0.72321 -0.00455 0.60217 0.0
C753 C 0.71527 0.94956 0.60458 0.0
C754 C 0.72922 0.01531 0.582 0.0
C755 C 0.72736 0.98975 0.56377 0.0
C756 C 0.72034 0.94427 0.56613 0.0
H757 H 0.82561 0.11697 0.4385 0.0
H758 H 0.81739 0.07978 0.47305 0.0
C759 C 0.71408 0.92427 0.5863 0.0
C760 C 0.73328 0.01103 0.54238 0.0
H761 H 0.6794 -0.00422 0.49426 0.0
C762 C 0.77434 0.05388 0.53815 0.0
C763 C 0.6983 0.99019 0.52644 0.0
C764 C 0.6522 0.94565 0.53036 0.0
C765 C 0.78151 0.07635 0.51843 0.0
C766 C 0.74715 0.05483 0.50227 0.0
C767 C 0.70598 0.01206 0.50655 0.0
C768 C 0.75226 0.07687 0.4811 0.0
C769 C 0.82524 0.12359 0.51536 0.0
C770 C 0.71773 0.08633 0.47377 0.0
C771 C 0.72198 0.10694 0.45391 0.0
C772 C 0.76098 0.11869 0.44091 0.0
C773 C 0.79539 0.10884 0.44818 0.0
C774 C 0.79087 0.08781 0.46801 0.0
H775 H 0.84102 0.1409 0.53078 0.0
H776 H 0.85167 0.11869 0.50666 0.0
H777 H 0.81767 0.14745 0.50595 0.0
H778 H 0.68753 0.07809 0.48351 0.0
H779 H 0.69474 0.11392 0.44885 0.0
H780 H 0.67594 0.80548 0.76987 0.0
H781 H 0.70183 0.79378 0.80456 0.0
H782 H 0.56353 0.67602 0.81624 0.0
H783 H 0.5372 0.68772 0.78174 0.0
H784 H 0.59765 0.73738 0.85004 0.0
H785 H 0.73026 0.69239 0.8235 0.0
H786 H 0.73892 0.7467 0.81287 0.0
H787 H 0.6873 0.69223 0.80569 0.0
C788 C 0.65106 0.77682 0.77971 0.0
C789 C 0.6044 0.74752 0.7729 0.0
C790 C 0.66604 0.77001 0.79954 0.0
C791 C 0.63484 0.73362 0.81295 0.0
C792 C 0.58834 0.70422 0.80616 0.0
H793 H 0.70721 0.63697 0.92832 0.0
H794 H 0.68126 0.64384 0.89276 0.0
C795 C 0.57334 0.71096 0.78636 0.0
C796 C 0.64995 0.72742 0.83443 0.0
H797 H 0.72917 0.70743 0.86045 0.0
C798 C 0.62631 0.73068 0.8523 0.0
C799 C 0.68695 0.71804 0.83741 0.0
C800 C 0.71209 0.71166 0.81886 0.0
C801 C 0.63918 0.72575 0.87301 0.0
C802 C 0.67729 0.71809 0.87604 0.0
C803 C 0.70032 0.71383 0.85816 0.0
C804 C 0.69357 0.71422 0.89763 0.0
C805 C 0.6113 0.72806 0.89147 0.0
C806 C 0.70981 0.75171 0.91217 0.0
C807 C 0.72437 0.74778 0.93258 0.0
C808 C 0.72328 0.70631 0.93892 0.0
C809 C 0.70774 0.66909 0.92416 0.0
C810 C 0.69323 0.67309 0.90374 0.0
H811 H 0.57615 0.72116 0.88636 0.0
H812 H 0.60662 0.70227 0.90391 0.0
H813 H 0.63038 0.76378 0.89861 0.0
H814 H 0.71127 0.78414 0.90773 0.0
H815 H 0.73587 0.77706 0.94349 0.0
H816 H 0.03542 0.80139 0.26297 0.0
H817 H 0.00156 0.77937 0.22736 0.0
H818 H 0.89354 0.64526 0.25095 0.0
H819 H 0.92732 0.66701 0.2867 0.0
H820 H -0.00932 0.70598 0.20276 0.0
H821 H 0.81793 0.69046 0.21758 0.0
H822 H 0.86627 0.71881 0.23608 0.0
H823 H 0.83101 0.65574 0.23512 0.0
C824 C 0.00448 0.76715 0.26061 0.0
C825 C -0.01586 0.73592 0.27772 0.0
C826 C -0.01497 0.75472 0.24025 0.0
C827 C 0.94466 0.71092 0.23651 0.0
C828 C 0.92407 0.67969 0.25353 0.0
H829 H 0.85467 0.56844 0.11521 0.0
H830 H 0.8832 0.59391 0.15126 0.0
C831 C 0.94347 0.69214 0.27396 0.0
C832 C 0.92563 0.69725 0.21459 0.0
H833 H 0.82743 0.66197 0.18423 0.0
C834 C 0.95504 0.69654 0.1987 0.0
C835 C 0.87933 0.68557 0.20922 0.0
C836 C 0.84688 0.68807 0.22533 0.0
C837 C 0.9392 0.6836 0.17771 0.0
C838 C 0.89234 0.67016 0.17251 0.0
C839 C 0.86319 0.67184 0.18828 0.0
C840 C 0.87294 0.65375 0.15084 0.0
C841 C 0.97302 0.685 0.16123 0.0
C842 C 0.85611 0.67798 0.13881 0.0
C843 C 0.83919 0.66318 0.11812 0.0
C844 C 0.83858 0.62371 0.10916 0.0
C845 C 0.85458 0.59901 0.1215 0.0
C846 C 0.87131 0.61373 0.14212 0.0
H847 H 0.01008 0.7082 0.16625 0.0
H848 H 0.96721 0.64904 0.15892 0.0
H849 H 0.96758 0.69754 0.14573 0.0
H850 H 0.8568 0.70881 0.14529 0.0
H851 H 0.82707 0.68296 0.10911 0.0
H852 H 0.20816 0.94029 0.62481 0.0
H853 H 0.18481 0.90583 0.58914 0.0
H854 H 0.32362 0.0026 0.56606 0.0
H855 H 0.34741 0.03683 0.60162 0.0
H856 H 0.19015 0.95551 0.54936 0.0
H857 H 0.29737 0.86911 0.54798 0.0
H858 H 0.28207 0.88718 0.57235 0.0
H859 H 0.3283 0.9299 0.55592 0.0
C860 C 0.23384 0.95392 0.61218 0.0
C861 C 0.27972 -0.00878 0.6161 0.0
C862 C 0.22034 0.93439 0.5918 0.0
C863 C 0.2526 0.95137 0.57502 0.0
C864 C 0.29832 0.98864 0.57884 0.0
H865 H 0.27384 0.90128 0.44388 0.0
H866 H 0.2824 0.9267 0.48066 0.0
C867 C 0.31175 0.00839 0.59915 0.0
C868 C 0.23864 0.93066 0.55341 0.0
H869 H 0.2638 0.87291 0.51529 0.0
C870 C 0.2058 0.93701 0.54192 0.0
C871 C 0.2591 0.9065 0.54382 0.0
C872 C 0.29339 0.8973 0.55566 0.0
C873 C 0.19448 0.92168 0.52071 0.0
C874 C 0.2158 0.89843 0.51093 0.0
C875 C 0.24751 0.89083 0.52273 0.0
C876 C 0.20858 0.88448 0.4881 0.0
C877 C 0.16145 0.93238 0.50869 0.0
C878 C 0.16395 0.85252 0.47979 0.0
C879 C 0.15874 0.83812 0.45844 0.0
C880 C 0.19819 0.85498 0.44518 0.0
C881 C 0.24258 0.88742 0.45356 0.0
C882 C 0.24765 0.902 0.47469 0.0
H883 H 0.1569 0.95982 0.51678 0.0
H884 H 0.17433 0.94435 0.49232 0.0
H885 H 0.12652 0.89998 0.50754 0.0
H886 H 0.13336 0.83776 0.48992 0.0
H887 H 0.12419 0.81273 0.45253 0.0
loop_
_geom_bond_atom_site_label_1
_geom_bond_atom_site_label_2
_geom_bond_distance
_geom_bond_site_symmetry_2
_ccdc_geom_bond_type
Sm0 C2 2.846 . S
Sm0 O20 2.543 . S
Sm0 O21 2.450 . S
Sm0 O22 2.681 . S
Sm0 O23 2.464 . S
Sm0 O24 2.396 . S
Sm0 O28 2.386 . S
Sm0 O31 2.408 . S
Sm1 C11 2.846 1_554 S
Sm1 O22 2.386 . S
Sm1 O25 2.408 . S
Sm1 O26 2.543 1_554 S
Sm1 O27 2.450 1_554 S
Sm1 O28 2.681 . S
Sm1 O29 2.464 . S
Sm1 O30 2.396 1_554 S
C2 Sm0 2.846 . S
C2 C3 1.506 . S
C2 O20 1.261 . S
C2 O21 1.242 . S
C3 C2 1.506 . S
C3 C4 1.358 . S
C3 C8 1.382 . S
C4 C3 1.358 . S
C4 C5 1.385 . S
C4 H32 0.930 . S
C5 C4 1.385 . S
C5 C6 1.395 . S
C5 H33 0.929 . S
C6 C5 1.395 . S
C6 C7 1.335 . S
C7 C6 1.335 . S
C7 C8 1.398 . S
C7 H34 0.930 . S
C8 C3 1.382 . S
C8 C7 1.398 . S
C8 H35 0.929 . S
C9 O22 1.271 . S
C9 O23 1.251 . S
C10 O24 1.252 . S
C10 O25 1.272 . S
C11 Sm1 2.846 1_556 S
C11 C12 1.506 . S
C11 O26 1.261 . S
C11 O27 1.242 . S
C12 C11 1.506 . S
C12 C13 1.358 . S
C12 C17 1.382 . S
C13 C12 1.358 . S
C13 C14 1.385 . S
C13 H36 0.930 . S
C14 C13 1.385 . S
C14 C15 1.395 . S
C14 H37 0.929 . S
C15 C14 1.395 . S
C15 C16 1.335 . S
C16 C15 1.335 . S
C16 C17 1.398 . S
C16 H38 0.930 . S
C17 C12 1.382 . S
C17 C16 1.398 . S
C17 H39 0.929 . S
C18 O28 1.271 . S
C18 O29 1.251 . S
C19 O30 1.252 . S
C19 O31 1.272 1_556 S
O20 Sm0 2.543 . S
O20 C2 1.261 . S
O21 Sm0 2.450 . S
O21 C2 1.242 . S
O22 Sm0 2.681 . S
O22 Sm1 2.386 . S
O22 C9 1.271 . S
O23 Sm0 2.464 . S
O23 C9 1.251 . S
O24 Sm0 2.396 . S
O24 C10 1.252 . S
O25 Sm1 2.408 . S
O25 C10 1.272 . S
O26 Sm1 2.543 1_556 S
O26 C11 1.261 . S
O27 Sm1 2.450 1_556 S
O27 C11 1.242 . S
O28 Sm0 2.386 . S
O28 Sm1 2.681 . S
O28 C18 1.271 . S
O29 Sm1 2.464 . S
O29 C18 1.251 . S
O30 Sm1 2.396 1_556 S
O30 C19 1.252 . S
O31 Sm0 2.408 . S
O31 C19 1.272 1_554 S
H32 C4 0.930 . S
H33 C5 0.929 . S
H34 C7 0.930 . S
H35 C8 0.929 . S
H36 C13 0.930 . S
H37 C14 0.929 . S
H38 C16 0.930 . S
H39 C17 0.929 . S
Sm40 C42 2.846 . S
Sm40 O60 2.543 . S
Sm40 O61 2.450 . S
Sm40 O62 2.681 . S
Sm40 O63 2.464 . S
Sm40 O64 2.396 . S
Sm40 O68 2.386 . S
Sm40 O71 2.408 . S
Sm41 C51 2.846 . S
Sm41 O62 2.386 . S
Sm41 O65 2.408 . S
Sm41 O66 2.543 . S
Sm41 O67 2.450 . S
Sm41 O68 2.681 . S
Sm41 O69 2.464 . S
Sm41 O70 2.396 . S
C42 Sm40 2.846 . S
C42 C43 1.506 . S
C42 O60 1.261 . S
C42 O61 1.242 . S
C43 C42 1.506 . S
C43 C44 1.358 . S
C43 C48 1.382 . S
C44 C43 1.358 . S
C44 C45 1.385 . S
C44 H72 0.930 . S
C45 C44 1.385 . S
C45 C46 1.395 . S
C45 H73 0.929 . S
C46 C45 1.395 . S
C46 C47 1.335 . S
C47 C46 1.335 . S
C47 C48 1.398 . S
C47 H74 0.930 . S
C48 C43 1.382 . S
C48 C47 1.398 . S
C48 H75 0.929 . S
C49 O62 1.271 . S
C49 O63 1.251 . S
C50 O64 1.252 . S
C50 O65 1.272 . S
C51 Sm41 2.846 . S
C51 C52 1.506 . S
C51 O66 1.261 . S
C51 O67 1.242 . S
C52 C51 1.506 . S
C52 C53 1.358 . S
C52 C57 1.382 . S
C53 C52 1.358 . S
C53 C54 1.385 . S
C53 H76 0.930 . S
C54 C53 1.385 . S
C54 C55 1.395 . S
C54 H77 0.929 . S
C55 C54 1.395 . S
C55 C56 1.335 . S
C56 C55 1.335 . S
C56 C57 1.398 . S
C56 H78 0.930 . S
C57 C52 1.382 . S
C57 C56 1.398 . S
C57 H79 0.929 . S
C58 O68 1.271 . S
C58 O69 1.251 . S
C59 O70 1.252 . S
C59 O71 1.272 . S
O60 Sm40 2.543 . S
O60 C42 1.261 . S
O61 Sm40 2.450 . S
O61 C42 1.242 . S
O62 Sm40 2.681 . S
O62 Sm41 2.386 . S
O62 C49 1.271 . S
O63 Sm40 2.464 . S
O63 C49 1.251 . S
O64 Sm40 2.396 . S
O64 C50 1.252 . S
O65 Sm41 2.408 . S
O65 C50 1.272 . S
O66 Sm41 2.543 . S
O66 C51 1.261 . S
O67 Sm41 2.450 . S
O67 C51 1.242 . S
O68 Sm40 2.386 . S
O68 Sm41 2.681 . S
O68 C58 1.271 . S
O69 Sm41 2.464 . S
O69 C58 1.251 . S
O70 Sm41 2.396 . S
O70 C59 1.252 . S
O71 Sm40 2.408 . S
O71 C59 1.272 . S
H72 C44 0.930 . S
H73 C45 0.929 . S
H74 C47 0.930 . S
H75 C48 0.929 . S
H76 C53 0.930 . S
H77 C54 0.929 . S
H78 C56 0.930 . S
H79 C57 0.929 . S
Sm80 C82 2.846 . S
Sm80 O100 2.543 . S
Sm80 O101 2.450 . S
Sm80 O102 2.681 . S
Sm80 O103 2.464 . S
Sm80 O104 2.396 . S
Sm80 O108 2.386 . S
Sm80 O111 2.408 . S
Sm81 C91 2.846 . S
Sm81 O102 2.386 . S
Sm81 O105 2.408 . S
Sm81 O106 2.543 . S
Sm81 O107 2.450 . S
Sm81 O108 2.681 . S
Sm81 O109 2.464 . S
Sm81 O110 2.396 . S
C82 Sm80 2.846 . S
C82 C83 1.506 . S
C82 O100 1.261 . S
C82 O101 1.242 . S
C83 C82 1.506 . S
C83 C84 1.358 . S
C83 C88 1.382 . S
C84 C83 1.358 . S
C84 C85 1.385 . S
C84 H112 0.930 . S
C85 C84 1.385 . S
C85 C86 1.395 . S
C85 H113 0.929 . S
C86 C85 1.395 . S
C86 C87 1.335 . S
C87 C86 1.335 . S
C87 C88 1.398 . S
C87 H114 0.930 . S
C88 C83 1.382 . S
C88 C87 1.398 . S
C88 H115 0.929 . S
C89 O102 1.271 . S
C89 O103 1.251 . S
C90 O104 1.252 . S
C90 O105 1.272 . S
C91 Sm81 2.846 . S
C91 C92 1.506 . S
C91 O106 1.261 . S
C91 O107 1.242 . S
C92 C91 1.506 . S
C92 C93 1.358 . S
C92 C97 1.382 . S
C93 C92 1.358 . S
C93 C94 1.385 . S
C93 H116 0.930 . S
C94 C93 1.385 . S
C94 C95 1.395 . S
C94 H117 0.929 . S
C95 C94 1.395 . S
C95 C96 1.335 . S
C96 C95 1.335 . S
C96 C97 1.398 . S
C96 H118 0.930 . S
C97 C92 1.382 . S
C97 C96 1.398 . S
C97 H119 0.929 . S
C98 O108 1.271 . S
C98 O109 1.251 . S
C99 O110 1.252 . S
C99 O111 1.272 . S
O100 Sm80 2.543 . S
O100 C82 1.261 . S
O101 Sm80 2.450 . S
O101 C82 1.242 . S
O102 Sm80 2.681 . S
O102 Sm81 2.386 . S
O102 C89 1.271 . S
O103 Sm80 2.464 . S
O103 C89 1.251 . S
O104 Sm80 2.396 . S
O104 C90 1.252 . S
O105 Sm81 2.408 . S
O105 C90 1.272 . S
O106 Sm81 2.543 . S
O106 C91 1.261 . S
O107 Sm81 2.450 . S
O107 C91 1.242 . S
O108 Sm80 2.386 . S
O108 Sm81 2.681 . S
O108 C98 1.271 . S
O109 Sm81 2.464 . S
O109 C98 1.251 . S
O110 Sm81 2.396 . S
O110 C99 1.252 . S
O111 Sm80 2.408 . S
O111 C99 1.272 . S
H112 C84 0.930 . S
H113 C85 0.929 . S
H114 C87 0.930 . S
H115 C88 0.929 . S
H116 C93 0.930 . S
H117 C94 0.929 . S
H118 C96 0.930 . S
H119 C97 0.929 . S
Sm120 C122 2.846 . S
Sm120 O140 2.543 . S
Sm120 O141 2.450 . S
Sm120 O142 2.681 . S
Sm120 O143 2.464 . S
Sm120 O144 2.396 . S
Sm120 O148 2.386 . S
Sm120 O151 2.408 . S
Sm121 C131 2.846 1_554 S
Sm121 O142 2.386 . S
Sm121 O145 2.408 . S
Sm121 O146 2.543 1_554 S
Sm121 O147 2.450 1_554 S
Sm121 O148 2.681 . S
Sm121 O149 2.464 . S
Sm121 O150 2.396 1_554 S
C122 Sm120 2.846 . S
C122 C123 1.506 . S
C122 O140 1.261 . S
C122 O141 1.242 . S
C123 C122 1.506 . S
C123 C124 1.358 . S
C123 C128 1.382 . S
C124 C123 1.358 . S
C124 C125 1.385 . S
C124 H152 0.930 . S
C125 C124 1.385 . S
C125 C126 1.395 . S
C125 H153 0.929 . S
C126 C125 1.395 . S
C126 C127 1.335 . S
C127 C126 1.335 . S
C127 C128 1.398 . S
C127 H154 0.930 . S
C128 C123 1.382 . S
C128 C127 1.398 . S
C128 H155 0.929 . S
C129 O142 1.271 . S
C129 O143 1.251 . S
C130 O144 1.252 . S
C130 O145 1.272 . S
C131 Sm121 2.846 1_556 S
C131 C132 1.506 . S
C131 O146 1.261 . S
C131 O147 1.242 . S
C132 C131 1.506 . S
C132 C133 1.358 . S
C132 C137 1.382 . S
C133 C132 1.358 . S
C133 C134 1.385 . S
C133 H156 0.930 . S
C134 C133 1.385 . S
C134 C135 1.395 . S
C134 H157 0.929 . S
C135 C134 1.395 . S
C135 C136 1.335 . S
C136 C135 1.335 . S
C136 C137 1.398 . S
C136 H158 0.930 . S
C137 C132 1.382 . S
C137 C136 1.398 . S
C137 H159 0.929 . S
C138 O148 1.271 . S
C138 O149 1.251 . S
C139 O150 1.252 . S
C139 O151 1.272 1_556 S
O140 Sm120 2.543 . S
O140 C122 1.261 . S
O141 Sm120 2.450 . S
O141 C122 1.242 . S
O142 Sm120 2.681 . S
O142 Sm121 2.386 . S
O142 C129 1.271 . S
O143 Sm120 2.464 . S
O143 C129 1.251 . S
O144 Sm120 2.396 . S
O144 C130 1.252 . S
O145 Sm121 2.408 . S
O145 C130 1.272 . S
O146 Sm121 2.543 1_556 S
O146 C131 1.261 . S
O147 Sm121 2.450 1_556 S
O147 C131 1.242 . S
O148 Sm120 2.386 . S
O148 Sm121 2.681 . S
O148 C138 1.271 . S
O149 Sm121 2.464 . S
O149 C138 1.251 . S
O150 Sm121 2.396 1_556 S
O150 C139 1.252 . S
O151 Sm120 2.408 . S
O151 C139 1.272 1_554 S
H152 C124 0.930 . S
H153 C125 0.929 . S
H154 C127 0.930 . S
H155 C128 0.929 . S
H156 C133 0.930 . S
H157 C134 0.929 . S
H158 C136 0.930 . S
H159 C137 0.929 . S
Sm160 C162 2.846 . S
Sm160 O180 2.543 . S
Sm160 O181 2.450 . S
Sm160 O182 2.681 . S
Sm160 O183 2.464 . S
Sm160 O184 2.396 . S
Sm160 O188 2.386 . S
Sm160 O191 2.408 . S
Sm161 C171 2.846 . S
Sm161 O182 2.386 . S
Sm161 O185 2.408 . S
Sm161 O186 2.543 . S
Sm161 O187 2.450 . S
Sm161 O188 2.681 . S
Sm161 O189 2.464 . S
Sm161 O190 2.396 . S
C162 Sm160 2.846 . S
C162 C163 1.506 . S
C162 O180 1.261 . S
C162 O181 1.242 . S
C163 C162 1.506 . S
C163 C164 1.358 . S
C163 C168 1.382 . S
C164 C163 1.358 . S
C164 C165 1.385 . S
C164 H192 0.930 . S
C165 C164 1.385 . S
C165 C166 1.395 . S
C165 H193 0.929 . S
C166 C165 1.395 . S
C166 C167 1.335 . S
C167 C166 1.335 . S
C167 C168 1.398 . S
C167 H194 0.930 . S
C168 C163 1.382 . S
C168 C167 1.398 . S
C168 H195 0.929 . S
C169 O182 1.271 . S
C169 O183 1.251 . S
C170 O184 1.252 . S
C170 O185 1.272 . S
C171 Sm161 2.846 . S
C171 C172 1.506 . S
C171 O186 1.261 . S
C171 O187 1.242 . S
C172 C171 1.506 . S
C172 C173 1.358 . S
C172 C177 1.382 . S
C173 C172 1.358 . S
C173 C174 1.385 . S
C173 H196 0.930 . S
C174 C173 1.385 . S
C174 C175 1.395 . S
C174 H197 0.929 . S
C175 C174 1.395 . S
C175 C176 1.335 . S
C176 C175 1.335 . S
C176 C177 1.398 . S
C176 H198 0.930 . S
C177 C172 1.382 . S
C177 C176 1.398 . S
C177 H199 0.929 . S
C178 O188 1.271 . S
C178 O189 1.251 . S
C179 O190 1.252 . S
C179 O191 1.272 . S
O180 Sm160 2.543 . S
O180 C162 1.261 . S
O181 Sm160 2.450 . S
O181 C162 1.242 . S
O182 Sm160 2.681 . S
O182 Sm161 2.386 . S
O182 C169 1.271 . S
O183 Sm160 2.464 . S
O183 C169 1.251 . S
O184 Sm160 2.396 . S
O184 C170 1.252 . S
O185 Sm161 2.408 . S
O185 C170 1.272 . S
O186 Sm161 2.543 . S
O186 C171 1.261 . S
O187 Sm161 2.450 . S
O187 C171 1.242 . S
O188 Sm160 2.386 . S
O188 Sm161 2.681 . S
O188 C178 1.271 . S
O189 Sm161 2.464 . S
O189 C178 1.251 . S
O190 Sm161 2.396 . S
O190 C179 1.252 . S
O191 Sm160 2.408 . S
O191 C179 1.272 . S
H192 C164 0.930 . S
H193 C165 0.929 . S
H194 C167 0.930 . S
H195 C168 0.929 . S
H196 C173 0.930 . S
H197 C174 0.929 . S
H198 C176 0.930 . S
H199 C177 0.929 . S
Sm200 C202 2.846 . S
Sm200 O220 2.543 . S
Sm200 O221 2.450 . S
Sm200 O222 2.681 . S
Sm200 O223 2.464 . S
Sm200 O224 2.396 . S
Sm200 O228 2.386 . S
Sm200 O231 2.408 . S
Sm201 C211 2.846 . S
Sm201 O222 2.386 . S
Sm201 O225 2.408 . S
Sm201 O226 2.543 . S
Sm201 O227 2.450 . S
Sm201 O228 2.681 . S
Sm201 O229 2.464 . S
Sm201 O230 2.396 . S
C202 Sm200 2.846 . S
C202 C203 1.506 . S
C202 O220 1.261 . S
C202 O221 1.242 . S
C203 C202 1.506 . S
C203 C204 1.358 . S
C203 C208 1.382 . S
C204 C203 1.358 . S
C204 C205 1.385 . S
C204 H232 0.930 . S
C205 C204 1.385 . S
C205 C206 1.395 . S
C205 H233 0.929 . S
C206 C205 1.395 . S
C206 C207 1.335 . S
C207 C206 1.335 . S
C207 C208 1.398 . S
C207 H234 0.930 . S
C208 C203 1.382 . S
C208 C207 1.398 . S
C208 H235 0.929 . S
C209 O222 1.271 . S
C209 O223 1.251 . S
C210 O224 1.252 . S
C210 O225 1.272 . S
C211 Sm201 2.846 . S
C211 C212 1.506 . S
C211 O226 1.261 . S
C211 O227 1.242 . S
C212 C211 1.506 . S
C212 C213 1.358 . S
C212 C217 1.382 . S
C213 C212 1.358 . S
C213 C214 1.385 . S
C213 H236 0.930 . S
C214 C213 1.385 . S
C214 C215 1.395 . S
C214 H237 0.929 . S
C215 C214 1.395 . S
C215 C216 1.335 . S
C216 C215 1.335 . S
C216 C217 1.398 . S
C216 H238 0.930 . S
C217 C212 1.382 . S
C217 C216 1.398 . S
C217 H239 0.929 . S
C218 O228 1.271 . S
C218 O229 1.251 . S
C219 O230 1.252 . S
C219 O231 1.272 . S
O220 Sm200 2.543 . S
O220 C202 1.261 . S
O221 Sm200 2.450 . S
O221 C202 1.242 . S
O222 Sm200 2.681 . S
O222 Sm201 2.386 . S
O222 C209 1.271 . S
O223 Sm200 2.464 . S
O223 C209 1.251 . S
O224 Sm200 2.396 . S
O224 C210 1.252 . S
O225 Sm201 2.408 . S
O225 C210 1.272 . S
O226 Sm201 2.543 . S
O226 C211 1.261 . S
O227 Sm201 2.450 . S
O227 C211 1.242 . S
O228 Sm200 2.386 . S
O228 Sm201 2.681 . S
O228 C218 1.271 . S
O229 Sm201 2.464 . S
O229 C218 1.251 . S
O230 Sm201 2.396 . S
O230 C219 1.252 . S
O231 Sm200 2.408 . S
O231 C219 1.272 . S
H232 C204 0.930 . S
H233 C205 0.929 . S
H234 C207 0.930 . S
H235 C208 0.929 . S
H236 C213 0.930 . S
H237 C214 0.929 . S
H238 C216 0.930 . S
H239 C217 0.929 . S
H240 C248 0.929 . S
H241 C250 0.930 . S
H242 C252 0.930 . S
H243 C255 0.929 . S
H244 C258 0.930 . S
H245 C260 0.960 . S
H246 C260 0.960 . S
H247 C260 0.960 . S
C248 H240 0.929 . S
C248 C249 1.377 . S
C248 C250 1.384 . S
C249 C248 1.377 . S
C249 C255 1.390 . S
C250 H241 0.930 . S
C250 C248 1.384 . S
C250 C251 1.372 . S
C251 C250 1.372 . S
C251 C252 1.400 . S
C251 C256 1.490 . S
C252 H242 0.930 . S
C252 C251 1.400 . S
C252 C255 1.386 . S
H253 C269 0.930 . S
H254 C270 0.931 . S
C255 H243 0.929 . S
C255 C249 1.390 . S
C255 C252 1.386 . S
C256 C251 1.490 . S
C256 C258 1.395 . S
C256 C259 1.403 . S
H257 C263 0.930 . S
C258 H244 0.930 . S
C258 C256 1.395 . S
C258 C261 1.403 . S
C259 C256 1.403 . S
C259 C260 1.524 . S
C259 C263 1.400 . S
C260 H245 0.960 . S
C260 H246 0.960 . S
C260 H247 0.960 . S
C260 C259 1.524 . S
C261 C258 1.403 . S
C261 C262 1.392 . S
C261 C265 1.495 . S
C262 C261 1.392 . S
C262 C263 1.385 . S
C262 C264 1.478 . S
C263 H257 0.930 . S
C263 C259 1.400 . S
C263 C262 1.385 . S
C264 C262 1.478 . S
C264 C266 1.381 . S
C264 C270 1.383 . S
C265 C261 1.495 . S
C265 H271 0.959 . S
C265 H272 0.961 . S
C265 H273 0.960 . S
C266 C264 1.381 . S
C266 C267 1.394 . S
C266 H274 0.930 . S
C267 C266 1.394 . S
C267 C268 1.383 . S
C267 H275 0.929 . S
C268 C267 1.383 . S
C268 C269 1.377 . S
C269 H253 0.930 . S
C269 C268 1.377 . S
C269 C270 1.379 . S
C270 H254 0.931 . S
C270 C264 1.383 . S
C270 C269 1.379 . S
H271 C265 0.959 . S
H272 C265 0.961 . S
H273 C265 0.960 . S
H274 C266 0.930 . S
H275 C267 0.929 . S
H276 C284 0.929 . S
H277 C286 0.930 . S
H278 C288 0.930 . S
H279 C291 0.929 . S
H280 C294 0.930 . S
H281 C296 0.960 . S
H282 C296 0.960 . S
H283 C296 0.960 . S
C284 H276 0.929 . S
C284 C285 1.377 . S
C284 C286 1.384 . S
C285 C284 1.377 . S
C285 C291 1.390 . S
C286 H277 0.930 . S
C286 C284 1.384 . S
C286 C287 1.372 . S
C287 C286 1.372 . S
C287 C288 1.400 . S
C287 C292 1.490 . S
C288 H278 0.930 . S
C288 C287 1.400 . S
C288 C291 1.386 . S
H289 C305 0.930 . S
H290 C306 0.931 . S
C291 H279 0.929 . S
C291 C285 1.390 . S
C291 C288 1.386 . S
C292 C287 1.490 . S
C292 C294 1.395 . S
C292 C295 1.403 . S
H293 C299 0.930 . S
C294 H280 0.930 . S
C294 C292 1.395 . S
C294 C297 1.403 . S
C295 C292 1.403 . S
C295 C296 1.524 . S
C295 C299 1.400 . S
C296 H281 0.960 . S
C296 H282 0.960 . S
C296 H283 0.960 . S
C296 C295 1.524 . S
C297 C294 1.403 . S
C297 C298 1.392 . S
C297 C301 1.495 . S
C298 C297 1.392 . S
C298 C299 1.385 . S
C298 C300 1.478 . S
C299 H293 0.930 . S
C299 C295 1.400 . S
C299 C298 1.385 . S
C300 C298 1.478 . S
C300 C302 1.381 . S
C300 C306 1.383 . S
C301 C297 1.495 . S
C301 H307 0.959 . S
C301 H308 0.961 . S
C301 H309 0.960 . S
C302 C300 1.381 . S
C302 C303 1.394 . S
C302 H310 0.930 . S
C303 C302 1.394 . S
C303 C304 1.383 . S
C303 H311 0.929 . S
C304 C303 1.383 . S
C304 C305 1.377 . S
C305 H289 0.930 . S
C305 C304 1.377 . S
C305 C306 1.379 . S
C306 H290 0.931 . S
C306 C300 1.383 . S
C306 C305 1.379 . S
H307 C301 0.959 . S
H308 C301 0.961 . S
H309 C301 0.960 . S
H310 C302 0.930 . S
H311 C303 0.929 . S
H312 C320 0.929 . S
H313 C322 0.930 . S
H314 C324 0.930 . S
H315 C327 0.929 . S
H316 C330 0.930 . S
H317 C332 0.960 . S
H318 C332 0.960 . S
H319 C332 0.960 . S
C320 H312 0.929 . S
C320 C321 1.377 . S
C320 C322 1.384 . S
C321 C320 1.377 . S
C321 C327 1.390 . S
C322 H313 0.930 . S
C322 C320 1.384 . S
C322 C323 1.372 . S
C323 C322 1.372 . S
C323 C324 1.400 . S
C323 C328 1.490 . S
C324 H314 0.930 . S
C324 C323 1.400 . S
C324 C327 1.386 . S
H325 C341 0.930 . S
H326 C342 0.931 . S
C327 H315 0.929 . S
C327 C321 1.390 . S
C327 C324 1.386 . S
C328 C323 1.490 . S
C328 C330 1.395 . S
C328 C331 1.403 . S
H329 C335 0.930 . S
C330 H316 0.930 . S
C330 C328 1.395 . S
C330 C333 1.403 . S
C331 C328 1.403 . S
C331 C332 1.524 . S
C331 C335 1.400 . S
C332 H317 0.960 . S
C332 H318 0.960 . S
C332 H319 0.960 . S
C332 C331 1.524 . S
C333 C330 1.403 . S
C333 C334 1.392 . S
C333 C337 1.495 . S
C334 C333 1.392 . S
C334 C335 1.385 . S
C334 C336 1.478 . S
C335 H329 0.930 . S
C335 C331 1.400 . S
C335 C334 1.385 . S
C336 C334 1.478 . S
C336 C338 1.381 . S
C336 C342 1.383 . S
C337 C333 1.495 . S
C337 H343 0.959 . S
C337 H344 0.961 . S
C337 H345 0.960 . S
C338 C336 1.381 . S
C338 C339 1.394 . S
C338 H346 0.930 . S
C339 C338 1.394 . S
C339 C340 1.383 . S
C339 H347 0.929 . S
C340 C339 1.383 . S
C340 C341 1.377 . S
C341 H325 0.930 . S
C341 C340 1.377 . S
C341 C342 1.379 . S
C342 H326 0.931 . S
C342 C336 1.383 . S
C342 C341 1.379 . S
H343 C337 0.959 . S
H344 C337 0.961 . S
H345 C337 0.960 . S
H346 C338 0.930 . S
H347 C339 0.929 . S
H348 C356 0.929 . S
H349 C358 0.930 . S
H350 C360 0.930 . S
H351 C363 0.929 . S
H352 C366 0.930 . S
H353 C368 0.960 . S
H354 C368 0.960 . S
H355 C368 0.960 . S
C356 H348 0.929 . S
C356 C357 1.377 . S
C356 C358 1.384 . S
C357 C356 1.377 . S
C357 C363 1.390 . S
C358 H349 0.930 . S
C358 C356 1.384 . S
C358 C359 1.372 . S
C359 C358 1.372 . S
C359 C360 1.400 . S
C359 C364 1.490 . S
C360 H350 0.930 . S
C360 C359 1.400 . S
C360 C363 1.386 . S
H361 C377 0.930 . S
H362 C378 0.931 . S
C363 H351 0.929 . S
C363 C357 1.390 . S
C363 C360 1.386 . S
C364 C359 1.490 . S
C364 C366 1.395 . S
C364 C367 1.403 . S
H365 C371 0.930 . S
C366 H352 0.930 . S
C366 C364 1.395 . S
C366 C369 1.403 . S
C367 C364 1.403 . S
C367 C368 1.524 . S
C367 C371 1.400 . S
C368 H353 0.960 . S
C368 H354 0.960 . S
C368 H355 0.960 . S
C368 C367 1.524 . S
C369 C366 1.403 . S
C369 C370 1.392 . S
C369 C373 1.495 . S
C370 C369 1.392 . S
C370 C371 1.385 . S
C370 C372 1.478 . S
C371 H365 0.930 . S
C371 C367 1.400 . S
C371 C370 1.385 . S
C372 C370 1.478 . S
C372 C374 1.381 . S
C372 C378 1.383 . S
C373 C369 1.495 . S
C373 H379 0.959 . S
C373 H380 0.961 . S
C373 H381 0.960 . S
C374 C372 1.381 . S
C374 C375 1.394 . S
C374 H382 0.930 . S
C375 C374 1.394 . S
C375 C376 1.383 . S
C375 H383 0.929 . S
C376 C375 1.383 . S
C376 C377 1.377 . S
C377 H361 0.930 . S
C377 C376 1.377 . S
C377 C378 1.379 . S
C378 H362 0.931 . S
C378 C372 1.383 . S
C378 C377 1.379 . S
H379 C373 0.959 . S
H380 C373 0.961 . S
H381 C373 0.960 . S
H382 C374 0.930 . S
H383 C375 0.929 . S
H384 C392 0.929 . S
H385 C394 0.930 . S
H386 C396 0.930 . S
H387 C399 0.929 . S
H388 C402 0.930 . S
H389 C404 0.960 . S
H390 C404 0.960 . S
H391 C404 0.960 . S
C392 H384 0.929 . S
C392 C393 1.377 . S
C392 C394 1.384 . S
C393 C392 1.377 . S
C393 C399 1.390 . S
C394 H385 0.930 . S
C394 C392 1.384 . S
C394 C395 1.372 . S
C395 C394 1.372 . S
C395 C396 1.400 . S
C395 C400 1.490 . S
C396 H386 0.930 . S
C396 C395 1.400 . S
C396 C399 1.386 . S
H397 C413 0.930 . S
H398 C414 0.931 . S
C399 H387 0.929 . S
C399 C393 1.390 . S
C399 C396 1.386 . S
C400 C395 1.490 . S
C400 C402 1.395 . S
C400 C403 1.403 . S
H401 C407 0.930 . S
C402 H388 0.930 . S
C402 C400 1.395 . S
C402 C405 1.403 . S
C403 C400 1.403 . S
C403 C404 1.524 . S
C403 C407 1.400 . S
C404 H389 0.960 . S
C404 H390 0.960 . S
C404 H391 0.960 . S
C404 C403 1.524 . S
C405 C402 1.403 . S
C405 C406 1.392 . S
C405 C409 1.495 . S
C406 C405 1.392 . S
C406 C407 1.385 . S
C406 C408 1.478 . S
C407 H401 0.930 . S
C407 C403 1.400 . S
C407 C406 1.385 . S
C408 C406 1.478 . S
C408 C410 1.381 . S
C408 C414 1.383 . S
C409 C405 1.495 . S
C409 H415 0.959 . S
C409 H416 0.961 . S
C409 H417 0.960 . S
C410 C408 1.381 . S
C410 C411 1.394 . S
C410 H418 0.930 . S
C411 C410 1.394 . S
C411 C412 1.383 . S
C411 H419 0.929 . S
C412 C411 1.383 . S
C412 C413 1.377 . S
C413 H397 0.930 . S
C413 C412 1.377 . S
C413 C414 1.379 . S
C414 H398 0.931 . S
C414 C408 1.383 . S
C414 C413 1.379 . S
H415 C409 0.959 . S
H416 C409 0.961 . S
H417 C409 0.960 . S
H418 C410 0.930 . S
H419 C411 0.929 . S
H420 C428 0.929 . S
H421 C430 0.930 . S
H422 C432 0.930 . S
H423 C435 0.929 . S
H424 C438 0.930 . S
H425 C440 0.960 . S
H426 C440 0.960 . S
H427 C440 0.960 . S
C428 H420 0.929 . S
C428 C429 1.377 . S
C428 C430 1.384 . S
C429 C428 1.377 . S
C429 C435 1.390 . S
C430 H421 0.930 . S
C430 C428 1.384 . S
C430 C431 1.372 . S
C431 C430 1.372 . S
C431 C432 1.400 . S
C431 C436 1.490 . S
C432 H422 0.930 . S
C432 C431 1.400 . S
C432 C435 1.386 . S
H433 C449 0.930 . S
H434 C450 0.931 . S
C435 H423 0.929 . S
C435 C429 1.390 . S
C435 C432 1.386 . S
C436 C431 1.490 . S
C436 C438 1.395 . S
C436 C439 1.403 . S
H437 C443 0.930 . S
C438 H424 0.930 . S
C438 C436 1.395 . S
C438 C441 1.403 . S
C439 C436 1.403 . S
C439 C440 1.524 . S
C439 C443 1.400 . S
C440 H425 0.960 . S
C440 H426 0.960 . S
C440 H427 0.960 . S
C440 C439 1.524 . S
C441 C438 1.403 . S
C441 C442 1.392 . S
C441 C445 1.495 . S
C442 C441 1.392 . S
C442 C443 1.385 . S
C442 C444 1.478 . S
C443 H437 0.930 . S
C443 C439 1.400 . S
C443 C442 1.385 . S
C444 C442 1.478 . S
C444 C446 1.381 . S
C444 C450 1.383 . S
C445 C441 1.495 . S
C445 H451 0.959 . S
C445 H452 0.961 . S
C445 H453 0.960 . S
C446 C444 1.381 . S
C446 C447 1.394 . S
C446 H454 0.930 . S
C447 C446 1.394 . S
C447 C448 1.383 . S
C447 H455 0.929 . S
C448 C447 1.383 . S
C448 C449 1.377 . S
C449 H433 0.930 . S
C449 C448 1.377 . S
C449 C450 1.379 . S
C450 H434 0.931 . S
C450 C444 1.383 . S
C450 C449 1.379 . S
H451 C445 0.959 . S
H452 C445 0.961 . S
H453 C445 0.960 . S
H454 C446 0.930 . S
H455 C447 0.929 . S
H456 C464 0.929 . S
H457 C466 0.930 . S
H458 C468 0.930 . S
H459 C471 0.929 . S
H460 C474 0.930 . S
H461 C476 0.960 . S
H462 C476 0.960 . S
H463 C476 0.960 . S
C464 H456 0.929 . S
C464 C465 1.377 . S
C464 C466 1.384 . S
C465 C464 1.377 . S
C465 C471 1.390 . S
C466 H457 0.930 . S
C466 C464 1.384 . S
C466 C467 1.372 . S
C467 C466 1.372 . S
C467 C468 1.400 . S
C467 C472 1.490 . S
C468 H458 0.930 . S
C468 C467 1.400 . S
C468 C471 1.386 . S
H469 C485 0.930 . S
H470 C486 0.931 . S
C471 H459 0.929 . S
C471 C465 1.390 . S
C471 C468 1.386 . S
C472 C467 1.490 . S
C472 C474 1.395 . S
C472 C475 1.403 . S
H473 C479 0.930 . S
C474 H460 0.930 . S
C474 C472 1.395 . S
C474 C477 1.403 . S
C475 C472 1.403 . S
C475 C476 1.524 . S
C475 C479 1.400 . S
C476 H461 0.960 . S
C476 H462 0.960 . S
C476 H463 0.960 . S
C476 C475 1.524 . S
C477 C474 1.403 . S
C477 C478 1.392 . S
C477 C481 1.495 . S
C478 C477 1.392 . S
C478 C479 1.385 . S
C478 C480 1.478 . S
C479 H473 0.930 . S
C479 C475 1.400 . S
C479 C478 1.385 . S
C480 C478 1.478 . S
C480 C482 1.381 . S
C480 C486 1.383 . S
C481 C477 1.495 . S
C481 H487 0.959 . S
C481 H488 0.961 . S
C481 H489 0.960 . S
C482 C480 1.381 . S
C482 C483 1.394 . S
C482 H490 0.930 . S
C483 C482 1.394 . S
C483 C484 1.383 . S
C483 H491 0.929 . S
C484 C483 1.383 . S
C484 C485 1.377 . S
C485 H469 0.930 . S
C485 C484 1.377 . S
C485 C486 1.379 . S
C486 H470 0.931 . S
C486 C480 1.383 . S
C486 C485 1.379 . S
H487 C481 0.959 . S
H488 C481 0.961 . S
H489 C481 0.960 . S
H490 C482 0.930 . S
H491 C483 0.929 . S
H492 C500 0.929 . S
H493 C502 0.930 . S
H494 C504 0.930 . S
H495 C507 0.929 . S
H496 C510 0.930 . S
H497 C512 0.960 . S
H498 C512 0.960 . S
H499 C512 0.960 . S
C500 H492 0.929 . S
C500 C501 1.377 . S
C500 C502 1.384 . S
C501 C500 1.377 . S
C501 C507 1.390 . S
C502 H493 0.930 . S
C502 C500 1.384 . S
C502 C503 1.372 . S
C503 C502 1.372 . S
C503 C504 1.400 . S
C503 C508 1.490 . S
C504 H494 0.930 . S
C504 C503 1.400 . S
C504 C507 1.386 . S
H505 C521 0.930 . S
H506 C522 0.931 . S
C507 H495 0.929 . S
C507 C501 1.390 . S
C507 C504 1.386 . S
C508 C503 1.490 . S
C508 C510 1.395 . S
C508 C511 1.403 . S
H509 C515 0.930 . S
C510 H496 0.930 . S
C510 C508 1.395 . S
C510 C513 1.403 1_455 S
C511 C508 1.403 . S
C511 C512 1.524 . S
C511 C515 1.400 1_455 S
C512 H497 0.960 . S
C512 H498 0.960 . S
C512 H499 0.960 . S
C512 C511 1.524 . S
C513 C510 1.403 1_655 S
C513 C514 1.392 . S
C513 C517 1.495 . S
C514 C513 1.392 . S
C514 C515 1.385 . S
C514 C516 1.478 . S
C515 H509 0.930 . S
C515 C511 1.400 1_655 S
C515 C514 1.385 . S
C516 C514 1.478 . S
C516 C518 1.381 . S
C516 C522 1.383 . S
C517 C513 1.495 . S
C517 H523 0.959 . S
C517 H524 0.961 . S
C517 H525 0.960 . S
C518 C516 1.381 . S
C518 C519 1.394 . S
C518 H526 0.930 . S
C519 C518 1.394 . S
C519 C520 1.383 . S
C519 H527 0.929 . S
C520 C519 1.383 . S
C520 C521 1.377 . S
C521 H505 0.930 . S
C521 C520 1.377 . S
C521 C522 1.379 . S
C522 H506 0.931 . S
C522 C516 1.383 . S
C522 C521 1.379 . S
H523 C517 0.959 . S
H524 C517 0.961 . S
H525 C517 0.960 . S
H526 C518 0.930 . S
H527 C519 0.929 . S
H528 C536 0.929 . S
H529 C538 0.930 . S
H530 C540 0.930 . S
H531 C543 0.929 . S
H532 C546 0.930 . S
H533 C548 0.960 . S
H534 C548 0.960 . S
H535 C548 0.960 . S
C536 H528 0.929 . S
C536 C537 1.377 . S
C536 C538 1.384 . S
C537 C536 1.377 . S
C537 C543 1.390 . S
C538 H529 0.930 . S
C538 C536 1.384 . S
C538 C539 1.372 . S
C539 C538 1.372 . S
C539 C540 1.400 . S
C539 C544 1.490 . S
C540 H530 0.930 . S
C540 C539 1.400 . S
C540 C543 1.386 . S
H541 C557 0.930 . S
H542 C558 0.931 . S
C543 H531 0.929 . S
C543 C537 1.390 . S
C543 C540 1.386 . S
C544 C539 1.490 . S
C544 C546 1.395 . S
C544 C547 1.403 1_545 S
H545 C551 0.930 . S
C546 H532 0.930 . S
C546 C544 1.395 . S
C546 C549 1.403 . S
C547 C544 1.403 1_565 S
C547 C548 1.524 . S
C547 C551 1.400 . S
C548 H533 0.960 . S
C548 H534 0.960 . S
C548 H535 0.960 . S
C548 C547 1.524 . S
C549 C546 1.403 . S
C549 C550 1.392 1_545 S
C549 C553 1.495 . S
C550 C549 1.392 1_565 S
C550 C551 1.385 . S
C550 C552 1.478 . S
C551 H545 0.930 . S
C551 C547 1.400 . S
C551 C550 1.385 . S
C552 C550 1.478 . S
C552 C554 1.381 . S
C552 C558 1.383 . S
C553 C549 1.495 . S
C553 H559 0.959 . S
C553 H560 0.961 . S
C553 H561 0.960 . S
C554 C552 1.381 . S
C554 C555 1.394 . S
C554 H562 0.930 . S
C555 C554 1.394 . S
C555 C556 1.383 . S
C555 H563 0.929 . S
C556 C555 1.383 . S
C556 C557 1.377 . S
C557 H541 0.930 . S
C557 C556 1.377 . S
C557 C558 1.379 . S
C558 H542 0.931 . S
C558 C552 1.383 . S
C558 C557 1.379 . S
H559 C553 0.959 . S
H560 C553 0.961 . S
H561 C553 0.960 . S
H562 C554 0.930 . S
H563 C555 0.929 . S
H564 C572 0.929 . S
H565 C574 0.930 . S
H566 C576 0.930 . S
H567 C579 0.929 . S
H568 C582 0.930 . S
H569 C584 0.960 . S
H570 C584 0.960 . S
H571 C584 0.960 . S
C572 H564 0.929 . S
C572 C573 1.377 . S
C572 C574 1.384 . S
C573 C572 1.377 . S
C573 C579 1.390 . S
C574 H565 0.930 . S
C574 C572 1.384 . S
C574 C575 1.372 . S
C575 C574 1.372 . S
C575 C576 1.400 . S
C575 C580 1.490 . S
C576 H566 0.930 . S
C576 C575 1.400 . S
C576 C579 1.386 . S
H577 C593 0.930 . S
H578 C594 0.931 . S
C579 H567 0.929 . S
C579 C573 1.390 . S
C579 C576 1.386 . S
C580 C575 1.490 . S
C580 C582 1.395 . S
C580 C583 1.403 . S
H581 C587 0.930 . S
C582 H568 0.930 . S
C582 C580 1.395 . S
C582 C585 1.403 . S
C583 C580 1.403 . S
C583 C584 1.524 . S
C583 C587 1.400 . S
C584 H569 0.960 . S
C584 H570 0.960 . S
C584 H571 0.960 . S
C584 C583 1.524 . S
C585 C582 1.403 . S
C585 C586 1.392 . S
C585 C589 1.495 . S
C586 C585 1.392 . S
C586 C587 1.385 . S
C586 C588 1.478 . S
C587 H581 0.930 . S
C587 C583 1.400 . S
C587 C586 1.385 . S
C588 C586 1.478 . S
C588 C590 1.381 . S
C588 C594 1.383 . S
C589 C585 1.495 . S
C589 H595 0.959 . S
C589 H596 0.961 . S
C589 H597 0.960 . S
C590 C588 1.381 . S
C590 C591 1.394 . S
C590 H598 0.930 . S
C591 C590 1.394 . S
C591 C592 1.383 . S
C591 H599 0.929 . S
C592 C591 1.383 . S
C592 C593 1.377 . S
C593 H577 0.930 . S
C593 C592 1.377 . S
C593 C594 1.379 . S
C594 H578 0.931 . S
C594 C588 1.383 . S
C594 C593 1.379 . S
H595 C589 0.959 . S
H596 C589 0.961 . S
H597 C589 0.960 . S
H598 C590 0.930 . S
H599 C591 0.929 . S
H600 C608 0.905 1_556 S
H601 C610 0.897 1_556 S
H602 C612 0.930 . S
H603 C615 0.929 . S
H604 C618 0.930 . S
H605 C620 0.960 . S
H606 C620 0.960 . S
H607 C620 0.960 . S
C608 H600 0.905 1_554 S
C608 C609 1.377 . S
C608 C610 1.384 . S
C609 C608 1.377 . S
C609 C615 1.390 . S
C610 H601 0.897 1_554 S
C610 C608 1.384 . S
C610 C611 1.372 . S
C611 C610 1.372 . S
C611 C612 1.400 . S
C611 C616 1.490 . S
C612 H602 0.930 . S
C612 C611 1.400 . S
C612 C615 1.386 . S
H613 C629 0.930 . S
H614 C630 0.931 . S
C615 H603 0.929 . S
C615 C609 1.390 . S
C615 C612 1.386 . S
C616 C611 1.490 . S
C616 C618 1.395 1_455 S
C616 C619 1.403 . S
H617 C623 0.930 . S
C618 H604 0.930 . S
C618 C616 1.395 1_655 S
C618 C621 1.403 . S
C619 C616 1.403 . S
C619 C620 1.524 . S
C619 C623 1.400 . S
C620 H605 0.960 . S
C620 H606 0.960 . S
C620 H607 0.960 . S
C620 C619 1.524 . S
C621 C618 1.403 . S
C621 C622 1.392 . S
C621 C625 1.495 . S
C622 C621 1.392 . S
C622 C623 1.385 1_655 S
C622 C624 1.478 . S
C623 H617 0.930 . S
C623 C619 1.400 . S
C623 C622 1.385 1_455 S
C624 C622 1.478 . S
C624 C626 1.381 . S
C624 C630 1.383 . S
C625 C621 1.495 . S
C625 H631 0.959 . S
C625 H632 0.961 . S
C625 H633 0.960 . S
C626 C624 1.381 . S
C626 C627 1.394 . S
C626 H634 0.930 1_554 S
C627 C626 1.394 . S
C627 C628 1.383 . S
C627 H635 0.929 1_554 S
C628 C627 1.383 . S
C628 C629 1.377 . S
C629 H613 0.930 . S
C629 C628 1.377 . S
C629 C630 1.379 . S
C630 H614 0.931 . S
C630 C624 1.383 . S
C630 C629 1.379 . S
H631 C625 0.959 . S
H632 C625 0.961 . S
H633 C625 0.960 . S
H634 C626 0.930 1_556 S
H635 C627 0.929 1_556 S
H636 C644 0.929 . S
H637 C646 0.930 . S
H638 C648 0.930 . S
H639 C651 0.929 . S
H640 C654 0.930 . S
H641 C656 0.960 . S
H642 C656 0.960 . S
H643 C656 0.960 . S
C644 H636 0.929 . S
C644 C645 1.377 . S
C644 C646 1.384 . S
C645 C644 1.377 . S
C645 C651 1.390 . S
C646 H637 0.930 . S
C646 C644 1.384 . S
C646 C647 1.372 . S
C647 C646 1.372 . S
C647 C648 1.400 . S
C647 C652 1.490 . S
C648 H638 0.930 . S
C648 C647 1.400 . S
C648 C651 1.386 . S
H649 C665 0.930 . S
H650 C666 0.931 . S
C651 H639 0.929 . S
C651 C645 1.390 . S
C651 C648 1.386 . S
C652 C647 1.490 . S
C652 C654 1.395 . S
C652 C655 1.403 1_565 S
H653 C659 0.930 . S
C654 H640 0.930 . S
C654 C652 1.395 . S
C654 C657 1.403 . S
C655 C652 1.403 1_545 S
C655 C656 1.524 . S
C655 C659 1.400 . S
C656 H641 0.960 . S
C656 H642 0.960 . S
C656 H643 0.960 . S
C656 C655 1.524 . S
C657 C654 1.403 . S
C657 C658 1.392 1_565 S
C657 C661 1.495 . S
C658 C657 1.392 1_545 S
C658 C659 1.385 . S
C658 C660 1.478 . S
C659 H653 0.930 . S
C659 C655 1.400 . S
C659 C658 1.385 . S
C660 C658 1.478 . S
C660 C662 1.381 . S
C660 C666 1.383 . S
C661 C657 1.495 . S
C661 H667 0.959 . S
C661 H668 0.961 . S
C661 H669 0.960 . S
C662 C660 1.381 . S
C662 C663 1.394 . S
C662 H670 0.930 . S
C663 C662 1.394 . S
C663 C664 1.383 . S
C663 H671 0.929 . S
C664 C663 1.383 . S
C664 C665 1.377 . S
C665 H649 0.930 . S
C665 C664 1.377 . S
C665 C666 1.379 . S
C666 H650 0.931 . S
C666 C660 1.383 . S
C666 C665 1.379 . S
H667 C661 0.959 . S
H668 C661 0.961 . S
H669 C661 0.960 . S
H670 C662 0.930 . S
H671 C663 0.929 . S
H672 C680 0.929 . S
H673 C682 0.930 . S
H674 C684 0.930 . S
H675 C687 0.929 . S
H676 C690 0.930 . S
H677 C692 0.960 . S
H678 C692 0.960 . S
H679 C692 0.960 . S
C680 H672 0.929 . S
C680 C681 1.377 . S
C680 C682 1.384 . S
C681 C680 1.377 . S
C681 C687 1.390 . S
C682 H673 0.930 . S
C682 C680 1.384 . S
C682 C683 1.372 . S
C683 C682 1.372 . S
C683 C684 1.400 . S
C683 C688 1.490 . S
C684 H674 0.930 . S
C684 C683 1.400 . S
C684 C687 1.386 . S
H685 C701 0.930 . S
H686 C702 0.931 . S
C687 H675 0.929 . S
C687 C681 1.390 . S
C687 C684 1.386 . S
C688 C683 1.490 . S
C688 C690 1.395 . S
C688 C691 1.403 . S
H689 C695 0.930 . S
C690 H676 0.930 . S
C690 C688 1.395 . S
C690 C693 1.403 . S
C691 C688 1.403 . S
C691 C692 1.524 . S
C691 C695 1.400 . S
C692 H677 0.960 . S
C692 H678 0.960 . S
C692 H679 0.960 . S
C692 C691 1.524 . S
C693 C690 1.403 . S
C693 C694 1.392 . S
C693 C697 1.495 . S
C694 C693 1.392 . S
C694 C695 1.385 . S
C694 C696 1.478 . S
C695 H689 0.930 . S
C695 C691 1.400 . S
C695 C694 1.385 . S
C696 C694 1.478 . S
C696 C698 1.381 . S
C696 C702 1.383 . S
C697 C693 1.495 . S
C697 H703 0.959 . S
C697 H704 0.961 . S
C697 H705 0.960 . S
C698 C696 1.381 . S
C698 C699 1.394 . S
C698 H706 0.930 . S
C699 C698 1.394 . S
C699 C700 1.383 . S
C699 H707 0.929 . S
C700 C699 1.383 . S
C700 C701 1.377 . S
C701 H685 0.930 . S
C701 C700 1.377 . S
C701 C702 1.379 . S
C702 H686 0.931 . S
C702 C696 1.383 . S
C702 C701 1.379 . S
H703 C697 0.959 . S
H704 C697 0.961 . S
H705 C697 0.960 . S
H706 C698 0.930 . S
H707 C699 0.929 . S
H708 C716 0.929 . S
H709 C718 0.930 . S
H710 C720 0.930 . S
H711 C723 0.929 . S
H712 C726 0.930 . S
H713 C728 0.960 . S
H714 C728 0.960 . S
H715 C728 0.960 . S
C716 H708 0.929 . S
C716 C717 1.377 . S
C716 C718 1.384 1_655 S
C717 C716 1.377 . S
C717 C723 1.390 . S
C718 H709 0.930 . S
C718 C716 1.384 1_455 S
C718 C719 1.372 1_455 S
C719 C718 1.372 1_655 S
C719 C720 1.400 . S
C719 C724 1.490 1_655 S
C720 H710 0.930 . S
C720 C719 1.400 . S
C720 C723 1.386 . S
H721 C737 0.930 . S
H722 C738 0.931 . S
C723 H711 0.929 . S
C723 C717 1.390 . S
C723 C720 1.386 . S
C724 C719 1.490 1_455 S
C724 C726 1.395 . S
C724 C727 1.403 . S
H725 C731 0.930 . S
C726 H712 0.930 . S
C726 C724 1.395 . S
C726 C729 1.403 . S
C727 C724 1.403 . S
C727 C728 1.524 1_455 S
C727 C731 1.400 . S
C728 H713 0.960 . S
C728 H714 0.960 . S
C728 H715 0.960 . S
C728 C727 1.524 1_655 S
C729 C726 1.403 . S
C729 C730 1.392 . S
C729 C733 1.495 . S
C730 C729 1.392 . S
C730 C731 1.385 . S
C730 C732 1.478 . S
C731 H725 0.930 . S
C731 C727 1.400 . S
C731 C730 1.385 . S
C732 C730 1.478 . S
C732 C734 1.381 . S
C732 C738 1.383 . S
C733 C729 1.495 . S
C733 H739 0.959 . S
C733 H740 0.961 . S
C733 H741 0.960 . S
C734 C732 1.381 . S
C734 C735 1.394 . S
C734 H742 0.930 . S
C735 C734 1.394 . S
C735 C736 1.383 . S
C735 H743 0.929 . S
C736 C735 1.383 . S
C736 C737 1.377 . S
C737 H721 0.930 . S
C737 C736 1.377 . S
C737 C738 1.379 . S
C738 H722 0.931 . S
C738 C732 1.383 . S
C738 C737 1.379 . S
H739 C733 0.959 . S
H740 C733 0.961 . S
H741 C733 0.960 . S
H742 C734 0.930 . S
H743 C735 0.929 . S
H744 C752 0.929 . S
H745 C754 0.930 . S
H746 C756 0.930 . S
H747 C759 0.929 . S
H748 C762 0.930 . S
H749 C764 0.960 . S
H750 C764 0.960 . S
H751 C764 0.960 . S
C752 H744 0.929 . S
C752 C753 1.377 . S
C752 C754 1.384 1_565 S
C753 C752 1.377 . S
C753 C759 1.390 . S
C754 H745 0.930 . S
C754 C752 1.384 1_545 S
C754 C755 1.372 1_545 S
C755 C754 1.372 1_565 S
C755 C756 1.400 . S
C755 C760 1.490 1_565 S
C756 H746 0.930 . S
C756 C755 1.400 . S
C756 C759 1.386 . S
H757 C773 0.930 . S
H758 C774 0.931 . S
C759 H747 0.929 . S
C759 C753 1.390 . S
C759 C756 1.386 . S
C760 C755 1.490 1_545 S
C760 C762 1.395 . S
C760 C763 1.403 . S
H761 C767 0.930 . S
C762 H748 0.930 . S
C762 C760 1.395 . S
C762 C765 1.403 . S
C763 C760 1.403 . S
C763 C764 1.524 1_545 S
C763 C767 1.400 . S
C764 H749 0.960 . S
C764 H750 0.960 . S
C764 H751 0.960 . S
C764 C763 1.524 1_565 S
C765 C762 1.403 . S
C765 C766 1.392 . S
C765 C769 1.495 . S
C766 C765 1.392 . S
C766 C767 1.385 . S
C766 C768 1.478 . S
C767 H761 0.930 . S
C767 C763 1.400 . S
C767 C766 1.385 . S
C768 C766 1.478 . S
C768 C770 1.381 . S
C768 C774 1.383 . S
C769 C765 1.495 . S
C769 H775 0.959 . S
C769 H776 0.961 . S
C769 H777 0.960 . S
C770 C768 1.381 . S
C770 C771 1.394 . S
C770 H778 0.930 . S
C771 C770 1.394 . S
C771 C772 1.383 . S
C771 H779 0.929 . S
C772 C771 1.383 . S
C772 C773 1.377 . S
C773 H757 0.930 . S
C773 C772 1.377 . S
C773 C774 1.379 . S
C774 H758 0.931 . S
C774 C768 1.383 . S
C774 C773 1.379 . S
H775 C769 0.959 . S
H776 C769 0.961 . S
H777 C769 0.960 . S
H778 C770 0.930 . S
H779 C771 0.929 . S
H780 C788 0.929 . S
H781 C790 0.930 . S
H782 C792 0.930 . S
H783 C795 0.929 . S
H784 C798 0.930 . S
H785 C800 0.960 . S
H786 C800 0.960 . S
H787 C800 0.960 . S
C788 H780 0.929 . S
C788 C789 1.377 . S
C788 C790 1.384 . S
C789 C788 1.377 . S
C789 C795 1.390 . S
C790 H781 0.930 . S
C790 C788 1.384 . S
C790 C791 1.372 . S
C791 C790 1.372 . S
C791 C792 1.400 . S
C791 C796 1.490 . S
C792 H782 0.930 . S
C792 C791 1.400 . S
C792 C795 1.386 . S
H793 C809 0.930 . S
H794 C810 0.931 . S
C795 H783 0.929 . S
C795 C789 1.390 . S
C795 C792 1.386 . S
C796 C791 1.490 . S
C796 C798 1.395 . S
C796 C799 1.403 . S
H797 C803 0.930 . S
C798 H784 0.930 . S
C798 C796 1.395 . S
C798 C801 1.403 . S
C799 C796 1.403 . S
C799 C800 1.524 . S
C799 C803 1.400 . S
C800 H785 0.960 . S
C800 H786 0.960 . S
C800 H787 0.960 . S
C800 C799 1.524 . S
C801 C798 1.403 . S
C801 C802 1.392 . S
C801 C805 1.495 . S
C802 C801 1.392 . S
C802 C803 1.385 . S
C802 C804 1.478 . S
C803 H797 0.930 . S
C803 C799 1.400 . S
C803 C802 1.385 . S
C804 C802 1.478 . S
C804 C806 1.381 . S
C804 C810 1.383 . S
C805 C801 1.495 . S
C805 H811 0.959 . S
C805 H812 0.961 . S
C805 H813 0.960 . S
C806 C804 1.381 . S
C806 C807 1.394 . S
C806 H814 0.930 . S
C807 C806 1.394 . S
C807 C808 1.383 . S
C807 H815 0.929 . S
C808 C807 1.383 . S
C808 C809 1.377 . S
C809 H793 0.930 . S
C809 C808 1.377 . S
C809 C810 1.379 . S
C810 H794 0.931 . S
C810 C804 1.383 . S
C810 C809 1.379 . S
H811 C805 0.959 . S
H812 C805 0.961 . S
H813 C805 0.960 . S
H814 C806 0.930 . S
H815 C807 0.929 . S
H816 C824 0.929 . S
H817 C826 0.930 . S
H818 C828 0.930 . S
H819 C831 0.929 . S
H820 C834 0.930 . S
H821 C836 0.960 . S
H822 C836 0.960 . S
H823 C836 0.960 . S
C824 H816 0.929 . S
C824 C825 1.377 . S
C824 C826 1.384 . S
C825 C824 1.377 . S
C825 C831 1.390 . S
C826 H817 0.930 . S
C826 C824 1.384 . S
C826 C827 1.372 . S
C827 C826 1.372 . S
C827 C828 1.400 1_455 S
C827 C832 1.490 1_455 S
C828 H818 0.930 . S
C828 C827 1.400 1_655 S
C828 C831 1.386 1_655 S
H829 C845 0.930 . S
H830 C846 0.931 . S
C831 H819 0.929 . S
C831 C825 1.390 . S
C831 C828 1.386 1_455 S
C832 C827 1.490 1_655 S
C832 C834 1.395 1_655 S
C832 C835 1.403 . S
H833 C839 0.930 . S
C834 H820 0.930 . S
C834 C832 1.395 1_455 S
C834 C837 1.403 1_455 S
C835 C832 1.403 . S
C835 C836 1.524 . S
C835 C839 1.400 . S
C836 H821 0.960 . S
C836 H822 0.960 . S
C836 H823 0.960 . S
C836 C835 1.524 . S
C837 C834 1.403 1_655 S
C837 C838 1.392 . S
C837 C841 1.495 1_655 S
C838 C837 1.392 . S
C838 C839 1.385 . S
C838 C840 1.478 . S
C839 H833 0.930 . S
C839 C835 1.400 . S
C839 C838 1.385 . S
C840 C838 1.478 . S
C840 C842 1.381 . S
C840 C846 1.383 . S
C841 C837 1.495 1_455 S
C841 H847 0.959 . S
C841 H848 0.961 . S
C841 H849 0.960 . S
C842 C840 1.381 . S
C842 C843 1.394 . S
C842 H850 0.930 . S
C843 C842 1.394 . S
C843 C844 1.383 . S
C843 H851 0.929 . S
C844 C843 1.383 . S
C844 C845 1.377 . S
C845 H829 0.930 . S
C845 C844 1.377 . S
C845 C846 1.379 . S
C846 H830 0.931 . S
C846 C840 1.383 . S
C846 C845 1.379 . S
H847 C841 0.959 . S
H848 C841 0.961 . S
H849 C841 0.960 . S
H850 C842 0.930 . S
H851 C843 0.929 . S
H852 C860 0.929 1_565 S
H853 C862 0.930 . S
H854 C864 0.930 . S
H855 C867 0.929 . S
H856 C870 0.930 . S
H857 C872 0.960 . S
H858 C872 0.960 . S
H859 C872 0.960 . S
C860 H852 0.929 1_545 S
C860 C861 1.377 . S
C860 C862 1.384 1_545 S
C861 C860 1.377 . S
C861 C867 1.390 . S
C862 H853 0.930 . S
C862 C860 1.384 1_565 S
C862 C863 1.372 1_565 S
C863 C862 1.372 1_545 S
C863 C864 1.400 . S
C863 C868 1.490 1_545 S
C864 H854 0.930 . S
C864 C863 1.400 . S
C864 C867 1.386 . S
H865 C881 0.930 . S
H866 C882 0.931 . S
C867 H855 0.929 . S
C867 C861 1.390 . S
C867 C864 1.386 . S
C868 C863 1.490 1_565 S
C868 C870 1.395 . S
C868 C871 1.403 . S
H869 C875 0.930 . S
C870 H856 0.930 . S
C870 C868 1.395 . S
C870 C873 1.403 . S
C871 C868 1.403 . S
C871 C872 1.524 1_565 S
C871 C875 1.400 . S
C872 H857 0.960 . S
C872 H858 0.960 . S
C872 H859 0.960 . S
C872 C871 1.524 1_545 S
C873 C870 1.403 . S
C873 C874 1.392 . S
C873 C877 1.495 . S
C874 C873 1.392 . S
C874 C875 1.385 . S
C874 C876 1.478 . S
C875 H869 0.930 . S
C875 C871 1.400 . S
C875 C874 1.385 . S
C876 C874 1.478 . S
C876 C878 1.381 . S
C876 C882 1.383 . S
C877 C873 1.495 . S
C877 H883 0.959 . S
C877 H884 0.961 . S
C877 H885 0.960 . S
C878 C876 1.381 . S
C878 C879 1.394 . S
C878 H886 0.930 . S
C879 C878 1.394 . S
C879 C880 1.383 . S
C879 H887 0.929 . S
C880 C879 1.383 . S
C880 C881 1.377 . S
C881 H865 0.930 . S
C881 C880 1.377 . S
C881 C882 1.379 . S
C882 H866 0.931 . S
C882 C876 1.383 . S
C882 C881 1.379 . S
H883 C877 0.959 . S
H884 C877 0.961 . S
H885 C877 0.960 . S
H886 C878 0.930 . S
H887 C879 0.929 . S
C249 C179 1.145 . S
C268 C6 1.149 . S
C285 C219 1.144 . S
C304 C46 1.150 . S
C321 C19 1.144 . S
C340 C86 1.150 . S
C357 C59 1.147 . S
C376 C126 1.151 . S
C393 C99 1.146 . S
C412 C166 1.152 . S
C429 C139 1.145 . S
C448 C206 1.149 . S
C465 C9 0.636 . S
C484 C129 0.555 . S
C501 C169 0.625 . S
C520 C49 0.632 . S
C537 C209 0.646 . S
C556 C89 0.726 . S
C573 C98 0.558 . S
C592 C218 0.555 . S
C609 C18 0.554 . S
C628 C138 0.558 . S
C645 C178 0.559 . S
C664 C58 0.564 . S
C681 C210 1.231 . S
C700 C15 1.219 . S
C717 C55 1.211 . S
C736 C10 1.224 . S
C753 C95 1.211 . S
C772 C50 1.223 . S
C789 C90 1.230 . S
C808 C135 1.201 . S
C825 C175 1.218 . S
C844 C130 1.232 . S
C861 C215 1.210 . S
C880 C170 1.224 . S
