# Generated by pormake.
# Topology fnv, (5)-cn, num edge types: 1
# Building blocks:
#     Node 0, Type 0, BuildingBlock: BEQFEK_clean_sbu_0, # of connection points: 5
#     Node 1, Type 0, BuildingBlock: BEQFEK_clean_sbu_0, # of connection points: 5
#     Node 2, Type 0, BuildingBlock: BEQFEK_clean_sbu_0, # of connection points: 5
#     Node 3, Type 0, BuildingBlock: BEQFEK_clean_sbu_0, # of connection points: 5
#     Node 4, Type 0, BuildingBlock: BEQFEK_clean_sbu_0, # of connection points: 5
#     Node 5, Type 0, BuildingBlock: BEQFEK_clean_sbu_0, # of connection points: 5
#     Edge 6, Type (0, 0), BuildingBlock: FUNLAD_clean_linker_0, # of connection points: 2
#     Edge 7, Type (0, 0), BuildingBlock: FUNLAD_clean_linker_0, # of connection points: 2
#     Edge 8, Type (0, 0), BuildingBlock: FUNLAD_clean_linker_0, # of connection points: 2
#     Edge 9, Type (0, 0), BuildingBlock: FUNLAD_clean_linker_0, # of connection points: 2
#     Edge 10, Type (0, 0), BuildingBlock: FUNLAD_clean_linker_0, # of connection points: 2
#     Edge 11, Type (0, 0), BuildingBlock: FUNLAD_clean_linker_0, # of connection points: 2
#     Edge 12, Type (0, 0), BuildingBlock: FUNLAD_clean_linker_0, # of connection points: 2
#     Edge 13, Type (0, 0), BuildingBlock: FUNLAD_clean_linker_0, # of connection points: 2
#     Edge 14, Type (0, 0), BuildingBlock: FUNLAD_clean_linker_0, # of connection points: 2
#     Edge 15, Type (0, 0), BuildingBlock: FUNLAD_clean_linker_0, # of connection points: 2
#     Edge 16, Type (0, 0), BuildingBlock: FUNLAD_clean_linker_0, # of connection points: 2
#     Edge 17, Type (0, 0), BuildingBlock: FUNLAD_clean_linker_0, # of connection points: 2
#     Edge 18, Type (0, 0), BuildingBlock: FUNLAD_clean_linker_0, # of connection points: 2
#     Edge 19, Type (0, 0), BuildingBlock: FUNLAD_clean_linker_0, # of connection points: 2
#     Edge 20, Type (0, 0), BuildingBlock: FUNLAD_clean_linker_0, # of connection points: 2
# Relax obj value: 0.496
# Max RMSD: 0.269
# Mean RMSD: 0.269
data_MOF--net-fnv--node1-BEQFEK_clean_sbu_0--edge1-FUNLAD_clean_linker_0
_symmetry_space_group_name_H-M    P1
_symmetry_Int_Tables_number       1
_symmetry_cell_setting            triclinic
loop_
_symmetry_equiv_pos_as_xyz
'x, y, z'
_cell_length_a     39.914124
_cell_length_b     39.804607
_cell_length_c     33.287635
_cell_angle_alpha  90.114635
_cell_angle_beta   90.160974
_cell_angle_gamma 120.12534
loop_
_atom_site_label
_atom_site_type_symbol
_atom_site_fract_x
_atom_site_fract_y
_atom_site_fract_z
_atom_type_partial_charge
Co0 Co 0.2672 0.36846 0.98326 0.0
Co1 Co 0.26888 0.42157 0.05362 0.0
C2 C 0.272 0.4452 0.9683 0.0
O3 O 0.27159 0.41482 0.95552 0.0
O4 O 0.27019 0.45093 0.00562 0.0
C5 C 0.23218 0.32281 0.91345 0.0
O6 O 0.21568 0.34419 0.91111 0.0
C7 C 0.25996 0.47765 0.1023 0.0
C8 C 0.28193 0.47209 0.16142 0.0
C9 C 0.26948 0.49389 0.14046 0.0
N10 N 0.2674 0.44833 0.10044 0.0
N11 N 0.28013 0.44485 0.13601 0.0
C12 C 0.24301 0.48889 0.06837 0.0
H13 H 0.22386 0.46303 0.0498 0.0
H14 H 0.22613 0.50214 0.07974 0.0
H15 H 0.26686 0.51036 0.04928 0.0
C16 C 0.19573 0.31196 0.02638 0.0
N17 N 0.22692 0.34766 0.02196 0.0
N18 N 0.22729 0.37024 0.05109 0.0
C19 C 0.19617 0.34993 0.0746 0.0
C20 C 0.17525 0.31227 0.05978 0.0
C21 C 0.18684 0.27765 0.0005 0.0
H22 H 0.2139 0.27752 -0.00657 0.0
H23 H 0.1735 0.27962 0.97199 0.0
H24 H 0.16641 0.24998 0.01554 0.0
O25 O 0.31798 0.38365 0.00856 0.0
O26 O 0.31836 0.42222 0.05696 0.0
H27 H 0.20497 0.37058 0.13513 0.0
H28 H 0.15524 0.34835 0.11828 0.0
C29 C 0.18589 0.36703 0.10923 0.0
H30 H 0.19081 0.39614 0.101 0.0
H31 H 0.28899 0.42483 0.14247 0.0
O32 O 0.25592 0.32879 0.94184 0.0
C33 C 0.33464 0.40649 0.03813 0.0
Co34 Co 0.85874 0.23067 0.28343 0.0
Co35 Co 0.80577 0.23717 0.34842 0.0
C36 C 0.7869 0.23345 0.26149 0.0
O37 O 0.8171 0.23212 0.25187 0.0
O38 O 0.77827 0.23437 0.29813 0.0
C39 C 0.87863 0.2018 0.2131 0.0
O40 O 0.84414 0.19259 0.19943 0.0
C41 C 0.74712 0.24364 0.3955 0.0
C42 C 0.76778 0.2453 0.45756 0.0
C43 C 0.73934 0.24712 0.4354 0.0
N44 N 0.77826 0.2391 0.39422 0.0
N45 N 0.79067 0.24048 0.43138 0.0
C46 C 0.72875 0.24967 0.35904 0.0
H47 H 0.71074 0.22135 0.34369 0.0
H48 H 0.71052 0.26251 0.36666 0.0
H49 H 0.75159 0.26952 0.338 0.0
C50 C 0.8405 0.16098 0.33142 0.0
N51 N 0.83817 0.19313 0.32469 0.0
N52 N 0.8145 0.19478 0.35103 0.0
C53 C 0.80001 0.16304 0.37448 0.0
C54 C 0.81633 0.14096 0.36304 0.0
C55 C 0.86384 0.14875 0.30678 0.0
H56 H 0.89396 0.17335 0.30416 0.0
H57 H 0.85124 0.14092 0.27611 0.0
H58 H 0.86413 0.12339 0.32019 0.0
O59 O 0.89343 0.2836 0.30479 0.0
O60 O 0.85451 0.28735 0.34955 0.0
H61 H 0.78458 0.1678 0.43468 0.0
H62 H 0.75342 0.12145 0.4119 0.0
C63 C 0.77001 0.15316 0.40623 0.0
H64 H 0.74972 0.16317 0.39722 0.0
H65 H 0.81538 0.23913 0.43879 0.0
O66 O 0.88971 0.21805 0.24726 0.0
C67 C 0.88673 0.30254 0.33129 0.0
Co68 Co 0.60731 0.90032 0.67398 0.0
Co69 Co 0.54585 0.84326 0.7352 0.0
C70 C 0.53143 0.83315 0.64695 0.0
O71 O 0.56376 0.86324 0.63918 0.0
O72 O 0.52151 0.82181 0.68285 0.0
C73 C 0.65914 0.91521 0.61007 0.0
O74 O 0.63803 0.87734 0.60579 0.0
C75 C 0.4915 0.76924 0.77152 0.0
C76 C 0.47809 0.78707 0.82934 0.0
C77 C 0.46854 0.75481 0.80552 0.0
N78 N 0.51301 0.80804 0.77497 0.0
N79 N 0.50496 0.81858 0.8096 0.0
C80 C 0.495 0.74686 0.7372 0.0
H81 H 0.52348 0.76408 0.72226 0.0
H82 H 0.49164 0.71891 0.74779 0.0
H83 H 0.47196 0.74064 0.71483 0.0
C84 C 0.6569 0.87839 0.72072 0.0
N85 N 0.62238 0.87525 0.71239 0.0
N86 N 0.59654 0.85117 0.73811 0.0
C87 C 0.61367 0.83804 0.7635 0.0
C88 C 0.65249 0.85489 0.75325 0.0
C89 C 0.69401 0.90556 0.69998 0.0
H90 H 0.6955 0.93371 0.69433 0.0
H91 H 0.69504 0.89272 0.67074 0.0
H92 H 0.71954 0.91078 0.71817 0.0
O93 O 0.59102 0.9342 0.70102 0.0
O94 O 0.5464 0.89275 0.74321 0.0
H95 H 0.58109 0.8218 0.81798 0.0
H96 H 0.61191 0.80081 0.81213 0.0
C97 C 0.59286 0.80927 0.7962 0.0
H98 H 0.56816 0.78279 0.78309 0.0
H99 H 0.51735 0.8473 0.81945 0.0
O100 O 0.65105 0.93182 0.63793 0.0
C101 C 0.56548 0.9265 0.72791 0.0
Co102 Co 0.74756 0.62085 0.98431 0.0
Co103 Co 0.75071 0.55937 0.04019 0.0
C104 C 0.74151 0.54698 0.95211 0.0
O105 O 0.74097 0.5785 0.94778 0.0
O106 O 0.74676 0.53633 0.98648 0.0
C107 C 0.77087 0.67224 0.91694 0.0
O108 O 0.78409 0.65033 0.90269 0.0
C109 C 0.74662 0.49114 0.07869 0.0
C110 C 0.75587 0.50896 0.14254 0.0
C111 C 0.74775 0.47822 0.11708 0.0
N112 N 0.7545 0.52812 0.08131 0.0
N113 N 0.75973 0.53847 0.11959 0.0
C114 C 0.73269 0.4673 0.04106 0.0
H115 H 0.71184 0.4734 0.02527 0.0
H116 H 0.75775 0.47548 0.02099 0.0
H117 H 0.71814 0.43573 0.04731 0.0
C118 C 0.8228 0.67193 0.02395 0.0
N119 N 0.79057 0.63708 0.01891 0.0
N120 N 0.79265 0.61134 0.04196 0.0
C121 C 0.82671 0.629 0.06192 0.0
C122 C 0.84658 0.66793 0.05144 0.0
C123 C 0.83052 0.70836 0.00306 0.0
H124 H 0.80425 0.71115 0.00396 0.0
H125 H 0.83757 0.70677 0.97116 0.0
H126 H 0.8551 0.73441 0.01715 0.0
O127 O 0.69893 0.60207 0.0146 0.0
O128 O 0.70094 0.55671 0.05117 0.0
H129 H 0.83325 0.60886 0.11918 0.0
H130 H 0.87394 0.6238 0.08651 0.0
C131 C 0.84182 0.60865 0.08757 0.0
H132 H 0.82986 0.57819 0.0774 0.0
H133 H 0.76435 0.56516 0.13021 0.0
O134 O 0.75454 0.66462 0.95105 0.0
C135 C 0.68367 0.57462 0.03999 0.0
Co136 Co 0.12569 0.72567 0.29927 0.0
Co137 Co 0.1605 0.72323 0.38277 0.0
C138 C 0.19581 0.71823 0.30496 0.0
O139 O 0.17184 0.72283 0.28385 0.0
O140 O 0.19393 0.7174 0.34306 0.0
C141 C 0.12416 0.75917 0.22356 0.0
O142 O 0.16036 0.7851 0.2316 0.0
C143 C 0.22163 0.74585 0.44289 0.0
C144 C 0.1887 0.71035 0.49489 0.0
C145 C 0.22602 0.73499 0.48133 0.0
N146 N 0.18359 0.72806 0.43417 0.0
N147 N 0.16404 0.70747 0.46565 0.0
C148 C 0.2529 0.76971 0.41339 0.0
H149 H 0.27234 0.75752 0.40947 0.0
H150 H 0.24061 0.77131 0.38413 0.0
H151 H 0.27039 0.79988 0.42469 0.0
C152 C 0.13431 0.7986 0.3354 0.0
N153 N 0.13759 0.76647 0.3366 0.0
N154 N 0.15289 0.76551 0.37138 0.0
C155 C 0.15999 0.79692 0.39322 0.0
C156 C 0.14844 0.81889 0.37112 0.0
C157 C 0.1171 0.80945 0.30139 0.0
H158 H 0.09289 0.78305 0.28751 0.0
H159 H 0.13967 0.82535 0.27845 0.0
H160 H 0.10631 0.82878 0.31194 0.0
O161 O 0.08733 0.67434 0.32175 0.0
O162 O 0.11078 0.67402 0.38226 0.0
H163 H 0.16331 0.78258 0.45444 0.0
H164 H 0.18319 0.834 0.44601 0.0
C165 C 0.17994 0.80679 0.43325 0.0
H166 H 0.20913 0.81027 0.42988 0.0
H167 H 0.13398 0.68972 0.46632 0.0
O168 O 0.10428 0.73258 0.2487 0.0
C169 C 0.08498 0.65764 0.35512 0.0
Co170 Co 0.37718 0.13601 0.61654 0.0
Co171 Co 0.42922 0.19997 0.67927 0.0
C172 C 0.45408 0.20592 0.59479 0.0
O173 O 0.42342 0.17413 0.58631 0.0
O174 O 0.46034 0.22009 0.63012 0.0
C175 C 0.32947 0.11012 0.54576 0.0
O176 O 0.33831 0.14652 0.54233 0.0
C177 C 0.48307 0.27232 0.7219 0.0
C178 C 0.47146 0.25277 0.78505 0.0
C179 C 0.49529 0.28415 0.7611 0.0
N180 N 0.45333 0.23554 0.72273 0.0
N181 N 0.44627 0.22424 0.76059 0.0
C182 C 0.50263 0.29305 0.68411 0.0
H183 H 0.52033 0.28077 0.67275 0.0
H184 H 0.48055 0.28829 0.66101 0.0
H185 H 0.522 0.3246 0.68896 0.0
C186 C 0.31914 0.15618 0.64702 0.0
N187 N 0.35502 0.16086 0.64579 0.0
N188 N 0.37779 0.18922 0.67043 0.0
C189 C 0.35758 0.20441 0.68693 0.0
C190 C 0.31985 0.18404 0.67256 0.0
C191 C 0.28475 0.12531 0.62481 0.0
H192 H 0.28735 0.09904 0.62104 0.0
H193 H 0.28321 0.13641 0.59474 0.0
H194 H 0.25746 0.11752 0.64078 0.0
O195 O 0.39223 0.10648 0.65275 0.0
O196 O 0.4302 0.15276 0.69571 0.0
H197 H 0.37842 0.22459 0.74626 0.0
H198 H 0.35377 0.24736 0.72399 0.0
C199 C 0.37363 0.2361 0.71786 0.0
H200 H 0.40196 0.26025 0.70764 0.0
H201 H 0.42535 0.19639 0.76958 0.0
O202 O 0.34171 0.0996 0.57574 0.0
C203 C 0.41458 0.11786 0.68325 0.0
C204 C 0.62332 0.5793 0.04253 0.0
C205 C 0.64337 0.55999 0.05327 0.0
C206 C 0.58367 0.56226 0.0501 0.0
C207 C 0.5633 0.52541 0.06781 0.0
C208 C 0.58371 0.50715 0.08072 0.0
C209 C 0.62337 0.52434 0.07365 0.0
C210 C 0.52064 0.50601 0.0709 0.0
C211 C 0.49767 0.46747 0.06516 0.0
C212 C 0.45503 0.44899 0.06199 0.0
C213 C 0.43486 0.41825 0.03475 0.0
C214 C 0.39525 0.40316 0.02793 0.0
C215 C 0.37509 0.41823 0.04878 0.0
H216 H 0.44901 0.48531 0.10671 0.0
C217 C 0.39492 0.44724 0.07804 0.0
C218 C 0.43447 0.4625 0.08452 0.0
H219 H 0.38024 0.45921 0.09508 0.0
H220 H 0.63793 0.60693 0.02711 0.0
H221 H 0.56855 0.57709 0.04038 0.0
H222 H 0.56896 0.47926 0.09561 0.0
H223 H 0.63796 0.5088 0.08272 0.0
H224 H 0.50782 0.52441 0.07336 0.0
H225 H 0.51054 0.44973 0.05819 0.0
H226 H 0.45009 0.40705 0.01741 0.0
H227 H 0.38078 0.38062 0.00546 0.0
C228 C 0.03346 0.59405 0.32722 0.0
C229 C 0.05471 0.61652 0.36049 0.0
C230 C 0.00989 0.55385 0.33065 0.0
C231 C 0.00697 0.53537 0.36749 0.0
C232 C 0.02592 0.55805 0.40137 0.0
C233 C 0.04988 0.59824 0.39788 0.0
C234 C 0.98476 0.4925 0.3711 0.0
C235 C 0.98358 0.46906 0.3412 0.0
C236 C 0.9612 0.42597 0.34286 0.0
C237 C 0.92975 0.40574 0.36906 0.0
C238 C 0.90691 0.36538 0.3667 0.0
C239 C 0.91471 0.34428 0.33794 0.0
H240 H -0.00603 0.41958 0.2947 0.0
C241 C 0.94707 0.36432 0.31291 0.0
C242 C 0.96994 0.40474 0.31528 0.0
H243 H 0.95387 0.34902 0.29036 0.0
H244 H 0.03628 0.6072 0.29804 0.0
H245 H -0.00554 0.53725 0.30428 0.0
H246 H 0.02353 0.54448 0.43023 0.0
H247 H 0.06559 0.61477 0.42418 0.0
H248 H 0.9714 0.48043 0.39983 0.0
H249 H 0.00044 0.48204 0.31423 0.0
H250 H 0.92143 0.42086 0.39023 0.0
H251 H 0.88215 0.3509 0.38643 0.0
C252 C 0.52084 0.94517 0.7608 0.0
C253 C 0.55448 0.95585 0.73825 0.0
C254 C 0.50656 0.97061 0.76489 0.0
C255 C 0.52576 0.00733 0.74666 0.0
C256 C 0.56096 0.0192 0.72693 0.0
C257 C 0.57508 0.99361 0.72246 0.0
C258 C 0.50861 0.0328 0.74535 0.0
C259 C 0.47016 0.01837 0.74142 0.0
C260 C 0.45346 0.04312 0.73099 0.0
C261 C 0.42097 0.02801 0.70554 0.0
C262 C 0.4073 0.05188 0.6911 0.0
C263 C 0.42553 0.09121 0.70242 0.0
H264 H 0.49469 0.094 0.76477 0.0
C265 C 0.45644 0.1056 0.73009 0.0
C266 C 0.47034 0.08183 0.74417 0.0
H267 H 0.47091 0.13566 0.73981 0.0
H268 H 0.50448 0.91648 0.77382 0.0
H269 H 0.47999 0.96111 0.78143 0.0
H270 H 0.57653 0.04758 0.71306 0.0
H271 H 0.60129 0.00292 0.70531 0.0
H272 H 0.52832 0.06379 0.74193 0.0
H273 H 0.45082 0.9871 0.74049 0.0
H274 H 0.4072 -0.00188 0.69533 0.0
H275 H 0.38318 0.03977 0.67018 0.0
C276 C 0.21865 0.69951 0.24361 0.0
C277 C 0.22211 0.70738 0.28503 0.0
C278 C 0.23628 0.68033 0.22633 0.0
C279 C 0.25815 0.66899 0.25013 0.0
C280 C 0.26439 0.68006 0.29076 0.0
C281 C 0.24664 0.69911 0.30807 0.0
C282 C 0.27011 0.64123 0.23557 0.0
C283 C 0.26829 0.63054 0.19688 0.0
C284 C 0.27143 0.5965 0.18417 0.0
C285 C 0.28213 0.59468 0.14451 0.0
C286 C 0.28199 0.56159 0.13039 0.0
C287 C 0.27032 0.52925 0.15544 0.0
H288 H 0.2511 0.56417 0.24004 0.0
C289 C 0.26044 0.53127 0.1954 0.0
C290 C 0.26067 0.56443 0.20961 0.0
H291 H 0.25154 0.5068 0.21537 0.0
H292 H 0.20014 0.70569 0.22493 0.0
H293 H 0.23028 0.67238 0.195 0.0
H294 H 0.28126 0.67197 0.30981 0.0
H295 H 0.25028 0.70516 0.34003 0.0
H296 H 0.2786 0.62731 0.25824 0.0
H297 H 0.26345 0.64645 0.17336 0.0
H298 H 0.29047 0.6189 0.1243 0.0
H299 H 0.29136 0.56159 0.09993 0.0
C300 C 0.52109 0.25628 0.57433 0.0
C301 C 0.48501 0.22395 0.56433 0.0
C302 C 0.55269 0.26836 0.54874 0.0
C303 C 0.54874 0.24825 0.51266 0.0
C304 C 0.51189 0.21857 0.5008 0.0
C305 C 0.4803 0.20636 0.52646 0.0
C306 C 0.5827 0.25471 0.48877 0.0
C307 C 0.61677 0.26392 0.50621 0.0
C308 C 0.64825 0.26147 0.48537 0.0
C309 C 0.68581 0.28158 0.50165 0.0
C310 C 0.71553 0.27722 0.48511 0.0
C311 C 0.7082 0.25265 0.45193 0.0
H312 H 0.61208 0.21909 0.43999 0.0
C313 C 0.67061 0.23217 0.43588 0.0
C314 C 0.64091 0.23655 0.45232 0.0
H315 H 0.66384 0.21181 0.41134 0.0
H316 H 0.52553 0.27111 0.60278 0.0
H317 H 0.58041 0.2925 0.55797 0.0
H318 H 0.50801 0.20304 0.47282 0.0
H319 H 0.45275 0.18177 0.51747 0.0
H320 H 0.57798 0.24716 0.4571 0.0
H321 H 0.62122 0.27128 0.53796 0.0
H322 H 0.69209 0.30038 0.52755 0.0
H323 H 0.74423 0.29303 0.4983 0.0
C324 C 0.43263 0.70282 0.85599 0.0
C325 C 0.43935 0.71423 0.81558 0.0
C326 C 0.40492 0.6649 0.86626 0.0
C327 C 0.38308 0.63756 0.83626 0.0
C328 C 0.38973 0.64887 0.79589 0.0
C329 C 0.41717 0.68699 0.78564 0.0
C330 C 0.35495 0.59667 0.84652 0.0
C331 C 0.33438 0.5872 0.88075 0.0
C332 C 0.31164 0.5471 0.89676 0.0
C333 C 0.28777 0.54095 0.93006 0.0
C334 C 0.27214 0.50632 0.95155 0.0
C335 C 0.28017 0.47709 0.94026 0.0
H336 H 0.33543 0.51993 0.8582 0.0
C337 C 0.30118 0.48172 0.90491 0.0
C338 C 0.31701 0.5165 0.88344 0.0
H339 H 0.30785 0.45967 0.89548 0.0
H340 H 0.44921 0.72309 0.87977 0.0
H341 H 0.40137 0.65687 0.89766 0.0
H342 H 0.37328 0.62831 0.77227 0.0
H343 H 0.42027 0.69505 0.75434 0.0
H344 H 0.35155 0.57432 0.82547 0.0
H345 H 0.33571 0.61038 0.89926 0.0
H346 H 0.28284 0.56382 0.94084 0.0
H347 H 0.25531 0.50321 0.97813 0.0
C348 C 0.73217 0.24301 0.24013 0.0
C349 C 0.76538 0.24115 0.23003 0.0
C350 C 0.71832 0.26098 0.21442 0.0
C351 C 0.73759 0.27754 0.17824 0.0
C352 C 0.76751 0.27117 0.16583 0.0
C353 C 0.78141 0.25318 0.19156 0.0
C354 C 0.73091 0.30576 0.1557 0.0
C355 C 0.72344 0.33108 0.17502 0.0
C356 C 0.72679 0.36666 0.15676 0.0
C357 C 0.71229 0.38695 0.17836 0.0
C358 C 0.71869 0.42293 0.1651 0.0
C359 C 0.73956 0.43932 0.12977 0.0
H360 H 0.76048 0.36934 0.10419 0.0
C361 C 0.75388 0.41909 0.10786 0.0
C362 C 0.74756 0.38309 0.12113 0.0
H363 H 0.77111 0.43169 0.08117 0.0
H364 H 0.71838 0.23291 0.26901 0.0
H365 H 0.69394 0.2638 0.22399 0.0
H366 H 0.78235 0.28303 0.13771 0.0
H367 H 0.80666 0.25165 0.18253 0.0
H368 H 0.73755 0.30906 0.1239 0.0
H369 H 0.71751 0.32754 0.20704 0.0
H370 H 0.69663 0.37531 0.20614 0.0
H371 H 0.70748 0.43805 0.18265 0.0
C372 C 0.2969 0.77633 0.49776 0.0
C373 C 0.26192 0.74097 0.501 0.0
C374 C 0.33097 0.78059 0.51443 0.0
C375 C 0.33057 0.74968 0.53521 0.0
C376 C 0.29535 0.71492 0.53993 0.0
C377 C 0.26138 0.7105 0.52281 0.0
C378 C 0.36577 0.75399 0.55502 0.0
C379 C 0.40169 0.7767 0.54032 0.0
C380 C 0.4374 0.78645 0.56336 0.0
C381 C 0.47156 0.82131 0.5547 0.0
C382 C 0.50373 0.83519 0.58017 0.0
C383 C 0.50219 0.81437 0.61481 0.0
H384 H 0.41262 0.73562 0.60211 0.0
C385 C 0.46949 0.77767 0.62121 0.0
C386 C 0.43751 0.76365 0.59558 0.0
H387 H 0.46787 0.76052 0.64709 0.0
H388 H 0.298 0.80109 0.48325 0.0
H389 H 0.35729 0.80847 0.51199 0.0
H390 H 0.29418 0.69098 0.55655 0.0
H391 H 0.2348 0.68296 0.52612 0.0
H392 H 0.36148 0.73871 0.58316 0.0
H393 H 0.40518 0.79147 0.5119 0.0
H394 H 0.47257 0.83911 0.52962 0.0
H395 H 0.52866 0.86346 0.57423 0.0
C396 C 0.55623 0.31691 0.8011 0.0
C397 C 0.53009 0.31973 0.77506 0.0
C398 C 0.58906 0.35033 0.81511 0.0
C399 C 0.59627 0.38735 0.80339 0.0
C400 C 0.56972 0.39002 0.77769 0.0
C401 C 0.53694 0.35651 0.76358 0.0
C402 C 0.62887 0.42361 0.82041 0.0
C403 C 0.66106 0.42604 0.8365 0.0
C404 C 0.68877 0.45987 0.86104 0.0
C405 C 0.70636 0.45343 0.89438 0.0
C406 C 0.72638 0.48284 0.92271 0.0
C407 C 0.72942 0.51937 0.91797 0.0
H408 H 0.68357 0.50393 0.82776 0.0
C409 C 0.71543 0.52698 0.88233 0.0
C410 C 0.69528 0.49751 0.85411 0.0
H411 H 0.71792 0.55503 0.87727 0.0
H412 H 0.55122 0.28877 0.81072 0.0
H413 H 0.60782 0.34685 0.83608 0.0
H414 H 0.57409 0.41813 0.7689 0.0
H415 H 0.51653 0.35938 0.74445 0.0
H416 H 0.62488 0.44865 0.82162 0.0
H417 H 0.66519 0.4011 0.8356 0.0
H418 H 0.70239 0.42484 0.89999 0.0
H419 H 0.73743 0.47617 0.9494 0.0
C420 C 0.25813 0.16125 0.7095 0.0
C421 C 0.28745 0.18916 0.6852 0.0
C422 C 0.23255 0.16998 0.72919 0.0
C423 C 0.23651 0.20702 0.72514 0.0
C424 C 0.26329 0.23321 0.69743 0.0
C425 C 0.28879 0.22443 0.67778 0.0
C426 C 0.21813 0.22169 0.75344 0.0
C427 C 0.213 0.21118 0.79238 0.0
C428 C 0.21205 0.23643 0.82459 0.0
C429 C 0.22889 0.23679 0.86175 0.0
C430 C 0.23466 0.26436 0.89091 0.0
C431 C 0.22314 0.29185 0.88373 0.0
H432 H 0.18428 0.26223 0.79035 0.0
C433 C 0.20388 0.28991 0.84764 0.0
C434 C 0.19841 0.26245 0.81822 0.0
H435 H 0.19412 0.31036 0.84158 0.0
H436 H 0.25663 0.13376 0.71536 0.0
H437 H 0.21128 0.14858 0.74924 0.0
H438 H 0.26668 0.26177 0.69346 0.0
H439 H 0.3112 0.24619 0.65886 0.0
H440 H 0.21694 0.24724 0.74426 0.0
H441 H 0.21743 0.18763 0.80202 0.0
H442 H 0.23939 0.21688 0.86757 0.0
H443 H 0.24892 0.26463 0.91874 0.0
C444 C 0.93928 0.19922 0.20588 0.0
C445 C 0.90582 0.196 0.18824 0.0
C446 C 0.96794 0.1992 0.18216 0.0
C447 C 0.96372 0.19583 0.14009 0.0
C448 C 0.92927 0.19051 0.12267 0.0
C449 C 0.90039 0.19029 0.14656 0.0
C450 C -0.00311 0.20424 0.11364 0.0
C451 C 0.02812 0.20263 0.12632 0.0
C452 C 0.06638 0.22542 0.10687 0.0
C453 C 0.09946 0.24269 0.13153 0.0
C454 C 0.13525 0.27013 0.11591 0.0
C455 C 0.13858 0.28024 0.07524 0.0
H456 H 0.04559 0.22006 0.04544 0.0
C457 C 0.10623 0.26098 0.04984 0.0
C458 C 0.07031 0.23371 0.06551 0.0
H459 H 0.10839 0.26821 0.01824 0.0
H460 H 0.94414 0.20337 0.238 0.0
H461 H -0.00573 0.20444 0.19698 0.0
H462 H 0.92542 0.18821 0.09035 0.0
H463 H 0.87481 0.18767 0.13216 0.0
H464 H -0.00261 0.21687 0.08461 0.0
H465 H 0.0275 0.18967 0.15517 0.0
H466 H 0.09722 0.2366 0.16344 0.0
H467 H 0.1601 0.28429 0.13581 0.0
C468 C 0.83361 0.10274 0.40868 0.0
C469 C 0.80818 0.10377 0.38032 0.0
C470 C 0.82213 0.06933 0.43154 0.0
C471 C 0.7849 0.03675 0.42633 0.0
C472 C 0.76112 0.03683 0.39522 0.0
C473 C 0.77256 0.07028 0.37256 0.0
C474 C 0.76787 0.00457 0.45573 0.0
C475 C 0.7756 0.01105 0.49532 0.0
C476 C 0.7491 0.98449 0.52641 0.0
C477 C 0.72532 0.94432 0.51987 0.0
C478 C 0.69677 0.92147 0.54772 0.0
C479 C 0.69152 0.93838 0.58248 0.0
H480 H 0.76363 0.03157 0.56833 0.0
C481 C 0.71681 0.97803 0.59005 0.0
C482 C 0.74545 0.00076 0.5624 0.0
H483 H 0.71392 0.99179 0.61689 0.0
H484 H 0.86136 0.12844 0.41473 0.0
H485 H 0.84163 0.06973 0.45445 0.0
H486 H 0.73246 0.01201 0.39039 0.0
H487 H 0.7527 0.07075 0.35061 0.0
H488 H 0.74328 0.97735 0.44564 0.0
H489 H 0.79791 0.03961 0.50549 0.0
H490 H 0.72815 0.93059 0.49301 0.0
H491 H 0.67811 0.89083 0.54138 0.0
C492 C 0.70341 0.83633 0.74935 0.0
C493 C 0.68236 0.84889 0.77235 0.0
C494 C 0.72909 0.82704 0.76798 0.0
C495 C 0.73394 0.83014 0.80999 0.0
C496 C 0.71481 0.84532 0.83244 0.0
C497 C 0.68907 0.85446 0.8138 0.0
C498 C 0.75562 0.81471 0.83201 0.0
C499 C 0.75763 0.78374 0.8189 0.0
C500 C 0.76728 0.75992 0.84552 0.0
C501 C 0.77818 0.73467 0.82815 0.0
C502 C 0.78117 0.7072 0.85163 0.0
C503 C 0.77271 0.70416 0.89283 0.0
H504 H 0.751 0.77594 0.90175 0.0
C505 C 0.76339 0.73046 0.91052 0.0
C506 C 0.7606 0.75796 0.88718 0.0
H507 H 0.75688 0.72895 0.94226 0.0
H508 H 0.69898 0.83242 0.71716 0.0
H509 H 0.74437 0.81672 0.74952 0.0
H510 H 0.71832 0.84835 0.86478 0.0
H511 H 0.67363 0.86492 0.83188 0.0
H512 H 0.7655 0.82588 0.86212 0.0
H513 H 0.74813 0.7727 0.78867 0.0
H514 H 0.7831 0.7353 0.79609 0.0
H515 H 0.78846 0.68731 0.83718 0.0
C516 C 0.8922 0.70624 0.10627 0.0
C517 C 0.88531 0.69765 0.06523 0.0
C518 C 0.92971 0.73125 0.12016 0.0
C519 C 0.96093 0.74707 0.09332 0.0
C520 C 0.95373 0.73989 0.05191 0.0
C521 C 0.916 0.71549 0.03794 0.0
C522 C 0.00063 0.76677 0.11005 0.0
C523 C 0.02688 0.75749 0.09723 0.0
C524 C 0.05802 0.7616 0.12436 0.0
C525 C 0.06138 0.7287 0.13145 0.0
C526 C 0.08432 0.72854 0.16298 0.0
C527 C 0.10534 0.76176 0.18685 0.0
H528 H 0.07854 0.82134 0.1418 0.0
C529 C 0.10461 0.79579 0.1778 0.0
C530 C 0.08062 0.79558 0.14696 0.0
H531 H 0.1206 0.82162 0.19614 0.0
H532 H 0.8687 0.69278 0.12766 0.0
H533 H 0.93463 0.73636 0.15218 0.0
H534 H 0.97734 0.75212 0.0306 0.0
H535 H 0.91103 0.70913 0.0061 0.0
H536 H 0.00531 0.78187 0.1386 0.0
H537 H 0.02022 0.7385 0.07127 0.0
H538 H 0.0441 0.7022 0.11443 0.0
H539 H 0.08466 0.70206 0.16958 0.0
C540 C 0.14164 0.86538 0.41595 0.0
C541 C 0.15618 0.85829 0.38063 0.0
C542 C 0.15499 0.90348 0.42879 0.0
C543 C 0.18348 0.9348 0.40678 0.0
C544 C 0.19542 0.92763 0.36961 0.0
C545 C 0.18175 0.88956 0.35659 0.0
C546 C 0.20418 0.97364 0.4259 0.0
C547 C 0.2431 0.99436 0.42545 0.0
C548 C 0.26554 0.02576 0.45465 0.0
C549 C 0.29691 0.02617 0.47413 0.0
C550 C 0.31737 0.05352 0.50396 0.0
C551 C 0.30764 0.08181 0.51392 0.0
H552 H 0.23187 0.05457 0.44932 0.0
C553 C 0.27716 0.08246 0.49345 0.0
C554 C 0.25579 0.05418 0.46431 0.0
H555 H 0.2693 0.10416 0.50068 0.0
H556 H 0.12157 0.84147 0.43462 0.0
H557 H 0.14524 0.90837 0.45741 0.0
H558 H 0.21682 0.95137 0.35168 0.0
H559 H 0.19307 0.88457 0.32908 0.0
H560 H 0.1883 0.98165 0.4466 0.0
H561 H 0.25902 0.98367 0.40832 0.0
H562 H 0.3049 0.00452 0.46707 0.0
H563 H 0.34105 0.05273 0.51908 0.0
loop_
_geom_bond_atom_site_label_1
_geom_bond_atom_site_label_2
_geom_bond_distance
_geom_bond_site_symmetry_2
_ccdc_geom_bond_type
Co0 O3 1.970 . S
Co0 N17 1.989 1_556 S
Co0 O25 1.967 1_556 S
Co0 O32 1.920 . S
Co1 O4 1.966 1_554 S
Co1 N10 2.022 . S
Co1 N18 1.993 . S
Co1 O26 1.941 . S
C2 O3 1.258 . S
C2 O4 1.263 . S
O3 Co0 1.970 . S
O3 C2 1.258 . S
O4 Co1 1.966 1_556 S
O4 C2 1.263 . S
C5 O6 1.235 . S
C5 O32 1.289 . S
O6 C5 1.235 . S
C7 C9 1.400 . S
C7 N10 1.351 . S
C7 C12 1.501 . S
C8 C9 1.387 . S
C8 N11 1.341 . S
C9 C7 1.400 . S
C9 C8 1.387 . S
N10 Co1 2.022 . S
N10 C7 1.351 . S
N10 N11 1.365 . S
N11 C8 1.341 . S
N11 N10 1.365 . S
N11 H31 0.862 . S
C12 C7 1.501 . S
C12 H13 0.961 . S
C12 H14 0.961 . S
C12 H15 0.960 . S
H13 C12 0.961 . S
H14 C12 0.961 . S
H15 C12 0.960 . S
C16 N17 1.342 . S
C16 C20 1.401 . S
C16 C21 1.499 . S
N17 Co0 1.989 1_554 S
N17 C16 1.342 . S
N17 N18 1.388 . S
N18 Co1 1.993 . S
N18 N17 1.388 . S
N18 C19 1.346 . S
C19 N18 1.346 . S
C19 C20 1.396 . S
C19 C29 1.510 . S
C20 C16 1.401 . S
C20 C19 1.396 . S
C21 C16 1.499 . S
C21 H22 0.959 1_554 S
C21 H23 0.960 1_554 S
C21 H24 0.961 . S
H22 C21 0.959 1_556 S
H23 C21 0.960 1_556 S
H24 C21 0.961 . S
O25 Co0 1.967 1_554 S
O25 C33 1.258 . S
O26 Co1 1.941 . S
O26 C33 1.266 . S
H27 C29 0.959 . S
H28 C29 0.961 . S
C29 C19 1.510 . S
C29 H27 0.959 . S
C29 H28 0.961 . S
C29 H30 0.960 . S
H30 C29 0.960 . S
H31 N11 0.862 . S
O32 Co0 1.920 . S
O32 C5 1.289 . S
C33 O25 1.258 . S
C33 O26 1.266 . S
Co34 O37 1.970 . S
Co34 N51 1.989 . S
Co34 O59 1.967 . S
Co34 O66 1.920 . S
Co35 O38 1.966 . S
Co35 N44 2.022 . S
Co35 N52 1.993 . S
Co35 O60 1.941 . S
C36 O37 1.258 . S
C36 O38 1.263 . S
O37 Co34 1.970 . S
O37 C36 1.258 . S
O38 Co35 1.966 . S
O38 C36 1.263 . S
C39 O40 1.235 . S
C39 O66 1.289 . S
O40 C39 1.235 . S
C41 C43 1.400 . S
C41 N44 1.351 . S
C41 C46 1.501 . S
C42 C43 1.387 . S
C42 N45 1.341 . S
C43 C41 1.400 . S
C43 C42 1.387 . S
N44 Co35 2.022 . S
N44 C41 1.351 . S
N44 N45 1.365 . S
N45 C42 1.341 . S
N45 N44 1.365 . S
N45 H65 0.862 . S
C46 C41 1.501 . S
C46 H47 0.961 . S
C46 H48 0.961 . S
C46 H49 0.960 . S
H47 C46 0.961 . S
H48 C46 0.961 . S
H49 C46 0.960 . S
C50 N51 1.342 . S
C50 C54 1.401 . S
C50 C55 1.499 . S
N51 Co34 1.989 . S
N51 C50 1.342 . S
N51 N52 1.388 . S
N52 Co35 1.993 . S
N52 N51 1.388 . S
N52 C53 1.346 . S
C53 N52 1.346 . S
C53 C54 1.396 . S
C53 C63 1.510 . S
C54 C50 1.401 . S
C54 C53 1.396 . S
C55 C50 1.499 . S
C55 H56 0.959 . S
C55 H57 0.960 . S
C55 H58 0.961 . S
H56 C55 0.959 . S
H57 C55 0.960 . S
H58 C55 0.961 . S
O59 Co34 1.967 . S
O59 C67 1.258 . S
O60 Co35 1.941 . S
O60 C67 1.266 . S
H61 C63 0.959 . S
H62 C63 0.961 . S
C63 C53 1.510 . S
C63 H61 0.959 . S
C63 H62 0.961 . S
C63 H64 0.960 . S
H64 C63 0.960 . S
H65 N45 0.862 . S
O66 Co34 1.920 . S
O66 C39 1.289 . S
C67 O59 1.258 . S
C67 O60 1.266 . S
Co68 O71 1.970 . S
Co68 N85 1.989 . S
Co68 O93 1.967 . S
Co68 O100 1.920 . S
Co69 O72 1.966 . S
Co69 N78 2.022 . S
Co69 N86 1.993 . S
Co69 O94 1.941 . S
C70 O71 1.258 . S
C70 O72 1.263 . S
O71 Co68 1.970 . S
O71 C70 1.258 . S
O72 Co69 1.966 . S
O72 C70 1.263 . S
C73 O74 1.235 . S
C73 O100 1.289 . S
O74 C73 1.235 . S
C75 C77 1.400 . S
C75 N78 1.351 . S
C75 C80 1.501 . S
C76 C77 1.387 . S
C76 N79 1.341 . S
C77 C75 1.400 . S
C77 C76 1.387 . S
N78 Co69 2.022 . S
N78 C75 1.351 . S
N78 N79 1.365 . S
N79 C76 1.341 . S
N79 N78 1.365 . S
N79 H99 0.862 . S
C80 C75 1.501 . S
C80 H81 0.961 . S
C80 H82 0.961 . S
C80 H83 0.960 . S
H81 C80 0.961 . S
H82 C80 0.961 . S
H83 C80 0.960 . S
C84 N85 1.342 . S
C84 C88 1.401 . S
C84 C89 1.499 . S
N85 Co68 1.989 . S
N85 C84 1.342 . S
N85 N86 1.388 . S
N86 Co69 1.993 . S
N86 N85 1.388 . S
N86 C87 1.346 . S
C87 N86 1.346 . S
C87 C88 1.396 . S
C87 C97 1.510 . S
C88 C84 1.401 . S
C88 C87 1.396 . S
C89 C84 1.499 . S
C89 H90 0.959 . S
C89 H91 0.960 . S
C89 H92 0.961 . S
H90 C89 0.959 . S
H91 C89 0.960 . S
H92 C89 0.961 . S
O93 Co68 1.967 . S
O93 C101 1.258 . S
O94 Co69 1.941 . S
O94 C101 1.266 . S
H95 C97 0.959 . S
H96 C97 0.961 . S
C97 C87 1.510 . S
C97 H95 0.959 . S
C97 H96 0.961 . S
C97 H98 0.960 . S
H98 C97 0.960 . S
H99 N79 0.862 . S
O100 Co68 1.920 . S
O100 C73 1.289 . S
C101 O93 1.258 . S
C101 O94 1.266 . S
Co102 O105 1.970 . S
Co102 N119 1.989 1_556 S
Co102 O127 1.967 1_556 S
Co102 O134 1.920 . S
Co103 O106 1.966 1_554 S
Co103 N112 2.022 . S
Co103 N120 1.993 . S
Co103 O128 1.941 . S
C104 O105 1.258 . S
C104 O106 1.263 . S
O105 Co102 1.970 . S
O105 C104 1.258 . S
O106 Co103 1.966 1_556 S
O106 C104 1.263 . S
C107 O108 1.235 . S
C107 O134 1.289 . S
O108 C107 1.235 . S
C109 C111 1.400 . S
C109 N112 1.351 . S
C109 C114 1.501 . S
C110 C111 1.387 . S
C110 N113 1.341 . S
C111 C109 1.400 . S
C111 C110 1.387 . S
N112 Co103 2.022 . S
N112 C109 1.351 . S
N112 N113 1.365 . S
N113 C110 1.341 . S
N113 N112 1.365 . S
N113 H133 0.862 . S
C114 C109 1.501 . S
C114 H115 0.961 . S
C114 H116 0.961 . S
C114 H117 0.960 . S
H115 C114 0.961 . S
H116 C114 0.961 . S
H117 C114 0.960 . S
C118 N119 1.342 . S
C118 C122 1.401 . S
C118 C123 1.499 . S
N119 Co102 1.989 1_554 S
N119 C118 1.342 . S
N119 N120 1.388 . S
N120 Co103 1.993 . S
N120 N119 1.388 . S
N120 C121 1.346 . S
C121 N120 1.346 . S
C121 C122 1.396 . S
C121 C131 1.510 . S
C122 C118 1.401 . S
C122 C121 1.396 . S
C123 C118 1.499 . S
C123 H124 0.959 1_554 S
C123 H125 0.960 1_554 S
C123 H126 0.961 . S
H124 C123 0.959 1_556 S
H125 C123 0.960 1_556 S
H126 C123 0.961 . S
O127 Co102 1.967 1_554 S
O127 C135 1.258 . S
O128 Co103 1.941 . S
O128 C135 1.266 . S
H129 C131 0.959 . S
H130 C131 0.961 . S
C131 C121 1.510 . S
C131 H129 0.959 . S
C131 H130 0.961 . S
C131 H132 0.960 . S
H132 C131 0.960 . S
H133 N113 0.862 . S
O134 Co102 1.920 . S
O134 C107 1.289 . S
C135 O127 1.258 . S
C135 O128 1.266 . S
Co136 O139 1.970 . S
Co136 N153 1.989 . S
Co136 O161 1.967 . S
Co136 O168 1.920 . S
Co137 O140 1.966 . S
Co137 N146 2.022 . S
Co137 N154 1.993 . S
Co137 O162 1.941 . S
C138 O139 1.258 . S
C138 O140 1.263 . S
O139 Co136 1.970 . S
O139 C138 1.258 . S
O140 Co137 1.966 . S
O140 C138 1.263 . S
C141 O142 1.235 . S
C141 O168 1.289 . S
O142 C141 1.235 . S
C143 C145 1.400 . S
C143 N146 1.351 . S
C143 C148 1.501 . S
C144 C145 1.387 . S
C144 N147 1.341 . S
C145 C143 1.400 . S
C145 C144 1.387 . S
N146 Co137 2.022 . S
N146 C143 1.351 . S
N146 N147 1.365 . S
N147 C144 1.341 . S
N147 N146 1.365 . S
N147 H167 0.862 . S
C148 C143 1.501 . S
C148 H149 0.961 . S
C148 H150 0.961 . S
C148 H151 0.960 . S
H149 C148 0.961 . S
H150 C148 0.961 . S
H151 C148 0.960 . S
C152 N153 1.342 . S
C152 C156 1.401 . S
C152 C157 1.499 . S
N153 Co136 1.989 . S
N153 C152 1.342 . S
N153 N154 1.388 . S
N154 Co137 1.993 . S
N154 N153 1.388 . S
N154 C155 1.346 . S
C155 N154 1.346 . S
C155 C156 1.396 . S
C155 C165 1.510 . S
C156 C152 1.401 . S
C156 C155 1.396 . S
C157 C152 1.499 . S
C157 H158 0.959 . S
C157 H159 0.960 . S
C157 H160 0.961 . S
H158 C157 0.959 . S
H159 C157 0.960 . S
H160 C157 0.961 . S
O161 Co136 1.967 . S
O161 C169 1.258 . S
O162 Co137 1.941 . S
O162 C169 1.266 . S
H163 C165 0.959 . S
H164 C165 0.961 . S
C165 C155 1.510 . S
C165 H163 0.959 . S
C165 H164 0.961 . S
C165 H166 0.960 . S
H166 C165 0.960 . S
H167 N147 0.862 . S
O168 Co136 1.920 . S
O168 C141 1.289 . S
C169 O161 1.258 . S
C169 O162 1.266 . S
Co170 O173 1.970 . S
Co170 N187 1.989 . S
Co170 O195 1.967 . S
Co170 O202 1.920 . S
Co171 O174 1.966 . S
Co171 N180 2.022 . S
Co171 N188 1.993 . S
Co171 O196 1.941 . S
C172 O173 1.258 . S
C172 O174 1.263 . S
O173 Co170 1.970 . S
O173 C172 1.258 . S
O174 Co171 1.966 . S
O174 C172 1.263 . S
C175 O176 1.235 . S
C175 O202 1.289 . S
O176 C175 1.235 . S
C177 C179 1.400 . S
C177 N180 1.351 . S
C177 C182 1.501 . S
C178 C179 1.387 . S
C178 N181 1.341 . S
C179 C177 1.400 . S
C179 C178 1.387 . S
N180 Co171 2.022 . S
N180 C177 1.351 . S
N180 N181 1.365 . S
N181 C178 1.341 . S
N181 N180 1.365 . S
N181 H201 0.862 . S
C182 C177 1.501 . S
C182 H183 0.961 . S
C182 H184 0.961 . S
C182 H185 0.960 . S
H183 C182 0.961 . S
H184 C182 0.961 . S
H185 C182 0.960 . S
C186 N187 1.342 . S
C186 C190 1.401 . S
C186 C191 1.499 . S
N187 Co170 1.989 . S
N187 C186 1.342 . S
N187 N188 1.388 . S
N188 Co171 1.993 . S
N188 N187 1.388 . S
N188 C189 1.346 . S
C189 N188 1.346 . S
C189 C190 1.396 . S
C189 C199 1.510 . S
C190 C186 1.401 . S
C190 C189 1.396 . S
C191 C186 1.499 . S
C191 H192 0.959 . S
C191 H193 0.960 . S
C191 H194 0.961 . S
H192 C191 0.959 . S
H193 C191 0.960 . S
H194 C191 0.961 . S
O195 Co170 1.967 . S
O195 C203 1.258 . S
O196 Co171 1.941 . S
O196 C203 1.266 . S
H197 C199 0.959 . S
H198 C199 0.961 . S
C199 C189 1.510 . S
C199 H197 0.959 . S
C199 H198 0.961 . S
C199 H200 0.960 . S
H200 C199 0.960 . S
H201 N181 0.862 . S
O202 Co170 1.920 . S
O202 C175 1.289 . S
C203 O195 1.258 . S
C203 O196 1.266 . S
C204 C205 1.386 . S
C204 C206 1.383 . S
C204 H220 0.951 1_554 S
C205 C204 1.386 . S
C205 C209 1.383 . S
C206 C204 1.383 . S
C206 C207 1.402 . S
C206 H221 0.951 1_554 S
C207 C206 1.402 . S
C207 C208 1.375 . S
C207 C210 1.481 . S
C208 C207 1.375 . S
C208 C209 1.367 . S
C208 H222 0.951 . S
C209 C205 1.383 . S
C209 C208 1.367 . S
C209 H223 0.950 . S
C210 C207 1.481 . S
C210 C211 1.297 . S
C210 H224 0.950 . S
C211 C210 1.297 . S
C211 C212 1.479 . S
C211 H225 0.950 . S
C212 C211 1.479 . S
C212 C213 1.375 . S
C212 C218 1.404 . S
C213 C212 1.375 . S
C213 C214 1.369 . S
C213 H226 0.950 1_554 S
C214 C213 1.369 . S
C214 C215 1.392 . S
C214 H227 0.951 1_554 S
C215 C214 1.392 . S
C215 C217 1.384 . S
H216 C218 0.949 . S
C217 C215 1.384 . S
C217 C218 1.385 . S
C217 H219 0.950 . S
C218 C212 1.404 . S
C218 H216 0.949 . S
C218 C217 1.385 . S
H219 C217 0.950 . S
H220 C204 0.951 1_556 S
H221 C206 0.951 1_556 S
H222 C208 0.951 . S
H223 C209 0.950 . S
H224 C210 0.950 . S
H225 C211 0.950 . S
H226 C213 0.950 1_556 S
H227 C214 0.951 1_556 S
C228 C229 1.386 . S
C228 C230 1.383 . S
C228 H244 0.951 . S
C229 C228 1.386 . S
C229 C233 1.383 . S
C230 C228 1.383 . S
C230 C231 1.402 . S
C230 H245 0.951 1_455 S
C231 C230 1.402 . S
C231 C232 1.375 . S
C231 C234 1.481 . S
C232 C231 1.375 . S
C232 C233 1.367 . S
C232 H246 0.951 . S
C233 C229 1.383 . S
C233 C232 1.367 . S
C233 H247 0.950 . S
C234 C231 1.481 . S
C234 C235 1.297 1_455 S
C234 H248 0.950 . S
C235 C234 1.297 1_655 S
C235 C236 1.479 . S
C235 H249 0.950 . S
C236 C235 1.479 . S
C236 C237 1.375 . S
C236 C242 1.404 . S
C237 C236 1.375 . S
C237 C238 1.369 . S
C237 H250 0.950 . S
C238 C237 1.369 . S
C238 C239 1.392 . S
C238 H251 0.951 . S
C239 C238 1.392 . S
C239 C241 1.384 . S
H240 C242 0.949 1_455 S
C241 C239 1.384 . S
C241 C242 1.385 . S
C241 H243 0.950 . S
C242 C236 1.404 . S
C242 H240 0.949 1_655 S
C242 C241 1.385 . S
H243 C241 0.950 . S
H244 C228 0.951 . S
H245 C230 0.951 1_655 S
H246 C232 0.951 . S
H247 C233 0.950 . S
H248 C234 0.950 . S
H249 C235 0.950 . S
H250 C237 0.950 . S
H251 C238 0.951 . S
C252 C253 1.386 . S
C252 C254 1.383 . S
C252 H268 0.951 . S
C253 C252 1.386 . S
C253 C257 1.383 . S
C254 C252 1.383 . S
C254 C255 1.402 . S
C254 H269 0.951 . S
C255 C254 1.402 . S
C255 C256 1.375 . S
C255 C258 1.481 1_565 S
C256 C255 1.375 . S
C256 C257 1.367 . S
C256 H270 0.951 1_565 S
C257 C253 1.383 . S
C257 C256 1.367 . S
C257 H271 0.950 . S
C258 C255 1.481 1_545 S
C258 C259 1.297 1_545 S
C258 H272 0.950 . S
C259 C258 1.297 1_565 S
C259 C260 1.479 1_565 S
C259 H273 0.950 . S
C260 C259 1.479 1_545 S
C260 C261 1.375 . S
C260 C266 1.404 . S
C261 C260 1.375 . S
C261 C262 1.369 . S
C261 H274 0.950 1_545 S
C262 C261 1.369 . S
C262 C263 1.392 . S
C262 H275 0.951 . S
C263 C262 1.392 . S
C263 C265 1.384 . S
H264 C266 0.949 . S
C265 C263 1.384 . S
C265 C266 1.385 . S
C265 H267 0.950 . S
C266 C260 1.404 . S
C266 H264 0.949 . S
C266 C265 1.385 . S
H267 C265 0.950 . S
H268 C252 0.951 . S
H269 C254 0.951 . S
H270 C256 0.951 1_545 S
H271 C257 0.950 . S
H272 C258 0.950 . S
H273 C259 0.950 . S
H274 C261 0.950 1_565 S
H275 C262 0.951 . S
C276 C277 1.386 . S
C276 C278 1.383 . S
C276 H292 0.951 . S
C277 C276 1.386 . S
C277 C281 1.383 . S
C278 C276 1.383 . S
C278 C279 1.402 . S
C278 H293 0.951 . S
C279 C278 1.402 . S
C279 C280 1.375 . S
C279 C282 1.481 . S
C280 C279 1.375 . S
C280 C281 1.367 . S
C280 H294 0.951 . S
C281 C277 1.383 . S
C281 C280 1.367 . S
C281 H295 0.950 . S
C282 C279 1.481 . S
C282 C283 1.297 . S
C282 H296 0.950 . S
C283 C282 1.297 . S
C283 C284 1.479 . S
C283 H297 0.950 . S
C284 C283 1.479 . S
C284 C285 1.375 . S
C284 C290 1.404 . S
C285 C284 1.375 . S
C285 C286 1.369 . S
C285 H298 0.950 . S
C286 C285 1.369 . S
C286 C287 1.392 . S
C286 H299 0.951 . S
C287 C286 1.392 . S
C287 C289 1.384 . S
H288 C290 0.949 . S
C289 C287 1.384 . S
C289 C290 1.385 . S
C289 H291 0.950 . S
C290 C284 1.404 . S
C290 H288 0.949 . S
C290 C289 1.385 . S
H291 C289 0.950 . S
H292 C276 0.951 . S
H293 C278 0.951 . S
H294 C280 0.951 . S
H295 C281 0.950 . S
H296 C282 0.950 . S
H297 C283 0.950 . S
H298 C285 0.950 . S
H299 C286 0.951 . S
C300 C301 1.386 . S
C300 C302 1.383 . S
C300 H316 0.951 . S
C301 C300 1.386 . S
C301 C305 1.383 . S
C302 C300 1.383 . S
C302 C303 1.402 . S
C302 H317 0.951 . S
C303 C302 1.402 . S
C303 C304 1.375 . S
C303 C306 1.481 . S
C304 C303 1.375 . S
C304 C305 1.367 . S
C304 H318 0.951 . S
C305 C301 1.383 . S
C305 C304 1.367 . S
C305 H319 0.950 . S
C306 C303 1.481 . S
C306 C307 1.297 . S
C306 H320 0.950 . S
C307 C306 1.297 . S
C307 C308 1.479 . S
C307 H321 0.950 . S
C308 C307 1.479 . S
C308 C309 1.375 . S
C308 C314 1.404 . S
C309 C308 1.375 . S
C309 C310 1.369 . S
C309 H322 0.950 . S
C310 C309 1.369 . S
C310 C311 1.392 . S
C310 H323 0.951 . S
C311 C310 1.392 . S
C311 C313 1.384 . S
H312 C314 0.949 . S
C313 C311 1.384 . S
C313 C314 1.385 . S
C313 H315 0.950 . S
C314 C308 1.404 . S
C314 H312 0.949 . S
C314 C313 1.385 . S
H315 C313 0.950 . S
H316 C300 0.951 . S
H317 C302 0.951 . S
H318 C304 0.951 . S
H319 C305 0.950 . S
H320 C306 0.950 . S
H321 C307 0.950 . S
H322 C309 0.950 . S
H323 C310 0.951 . S
C324 C325 1.386 . S
C324 C326 1.383 . S
C324 H340 0.951 . S
C325 C324 1.386 . S
C325 C329 1.383 . S
C326 C324 1.383 . S
C326 C327 1.402 . S
C326 H341 0.951 . S
C327 C326 1.402 . S
C327 C328 1.375 . S
C327 C330 1.481 . S
C328 C327 1.375 . S
C328 C329 1.367 . S
C328 H342 0.951 . S
C329 C325 1.383 . S
C329 C328 1.367 . S
C329 H343 0.950 . S
C330 C327 1.481 . S
C330 C331 1.297 . S
C330 H344 0.950 . S
C331 C330 1.297 . S
C331 C332 1.479 . S
C331 H345 0.950 . S
C332 C331 1.479 . S
C332 C333 1.375 . S
C332 C338 1.404 . S
C333 C332 1.375 . S
C333 C334 1.369 . S
C333 H346 0.950 . S
C334 C333 1.369 . S
C334 C335 1.392 . S
C334 H347 0.951 . S
C335 C334 1.392 . S
C335 C337 1.384 . S
H336 C338 0.949 . S
C337 C335 1.384 . S
C337 C338 1.385 . S
C337 H339 0.950 . S
C338 C332 1.404 . S
C338 H336 0.949 . S
C338 C337 1.385 . S
H339 C337 0.950 . S
H340 C324 0.951 . S
H341 C326 0.951 . S
H342 C328 0.951 . S
H343 C329 0.950 . S
H344 C330 0.950 . S
H345 C331 0.950 . S
H346 C333 0.950 . S
H347 C334 0.951 . S
C348 C349 1.386 . S
C348 C350 1.383 . S
C348 H364 0.951 . S
C349 C348 1.386 . S
C349 C353 1.383 . S
C350 C348 1.383 . S
C350 C351 1.402 . S
C350 H365 0.951 . S
C351 C350 1.402 . S
C351 C352 1.375 . S
C351 C354 1.481 . S
C352 C351 1.375 . S
C352 C353 1.367 . S
C352 H366 0.951 . S
C353 C349 1.383 . S
C353 C352 1.367 . S
C353 H367 0.950 . S
C354 C351 1.481 . S
C354 C355 1.297 . S
C354 H368 0.950 . S
C355 C354 1.297 . S
C355 C356 1.479 . S
C355 H369 0.950 . S
C356 C355 1.479 . S
C356 C357 1.375 . S
C356 C362 1.404 . S
C357 C356 1.375 . S
C357 C358 1.369 . S
C357 H370 0.950 . S
C358 C357 1.369 . S
C358 C359 1.392 . S
C358 H371 0.951 . S
C359 C358 1.392 . S
C359 C361 1.384 . S
H360 C362 0.949 . S
C361 C359 1.384 . S
C361 C362 1.385 . S
C361 H363 0.950 . S
C362 C356 1.404 . S
C362 H360 0.949 . S
C362 C361 1.385 . S
H363 C361 0.950 . S
H364 C348 0.951 . S
H365 C350 0.951 . S
H366 C352 0.951 . S
H367 C353 0.950 . S
H368 C354 0.950 . S
H369 C355 0.950 . S
H370 C357 0.950 . S
H371 C358 0.951 . S
C372 C373 1.386 . S
C372 C374 1.383 . S
C372 H388 0.951 . S
C373 C372 1.386 . S
C373 C377 1.383 . S
C374 C372 1.383 . S
C374 C375 1.402 . S
C374 H389 0.951 . S
C375 C374 1.402 . S
C375 C376 1.375 . S
C375 C378 1.481 . S
C376 C375 1.375 . S
C376 C377 1.367 . S
C376 H390 0.951 . S
C377 C373 1.383 . S
C377 C376 1.367 . S
C377 H391 0.950 . S
C378 C375 1.481 . S
C378 C379 1.297 . S
C378 H392 0.950 . S
C379 C378 1.297 . S
C379 C380 1.479 . S
C379 H393 0.950 . S
C380 C379 1.479 . S
C380 C381 1.375 . S
C380 C386 1.404 . S
C381 C380 1.375 . S
C381 C382 1.369 . S
C381 H394 0.950 . S
C382 C381 1.369 . S
C382 C383 1.392 . S
C382 H395 0.951 . S
C383 C382 1.392 . S
C383 C385 1.384 . S
H384 C386 0.949 . S
C385 C383 1.384 . S
C385 C386 1.385 . S
C385 H387 0.950 . S
C386 C380 1.404 . S
C386 H384 0.949 . S
C386 C385 1.385 . S
H387 C385 0.950 . S
H388 C372 0.951 . S
H389 C374 0.951 . S
H390 C376 0.951 . S
H391 C377 0.950 . S
H392 C378 0.950 . S
H393 C379 0.950 . S
H394 C381 0.950 . S
H395 C382 0.951 . S
C396 C397 1.386 . S
C396 C398 1.383 . S
C396 H412 0.951 . S
C397 C396 1.386 . S
C397 C401 1.383 . S
C398 C396 1.383 . S
C398 C399 1.402 . S
C398 H413 0.951 . S
C399 C398 1.402 . S
C399 C400 1.375 . S
C399 C402 1.481 . S
C400 C399 1.375 . S
C400 C401 1.367 . S
C400 H414 0.951 . S
C401 C397 1.383 . S
C401 C400 1.367 . S
C401 H415 0.950 . S
C402 C399 1.481 . S
C402 C403 1.297 . S
C402 H416 0.950 . S
C403 C402 1.297 . S
C403 C404 1.479 . S
C403 H417 0.950 . S
C404 C403 1.479 . S
C404 C405 1.375 . S
C404 C410 1.404 . S
C405 C404 1.375 . S
C405 C406 1.369 . S
C405 H418 0.950 . S
C406 C405 1.369 . S
C406 C407 1.392 . S
C406 H419 0.951 . S
C407 C406 1.392 . S
C407 C409 1.384 . S
H408 C410 0.949 . S
C409 C407 1.384 . S
C409 C410 1.385 . S
C409 H411 0.950 . S
C410 C404 1.404 . S
C410 H408 0.949 . S
C410 C409 1.385 . S
H411 C409 0.950 . S
H412 C396 0.951 . S
H413 C398 0.951 . S
H414 C400 0.951 . S
H415 C401 0.950 . S
H416 C402 0.950 . S
H417 C403 0.950 . S
H418 C405 0.950 . S
H419 C406 0.951 . S
C420 C421 1.386 . S
C420 C422 1.383 . S
C420 H436 0.951 . S
C421 C420 1.386 . S
C421 C425 1.383 . S
C422 C420 1.383 . S
C422 C423 1.402 . S
C422 H437 0.951 . S
C423 C422 1.402 . S
C423 C424 1.375 . S
C423 C426 1.481 . S
C424 C423 1.375 . S
C424 C425 1.367 . S
C424 H438 0.951 . S
C425 C421 1.383 . S
C425 C424 1.367 . S
C425 H439 0.950 . S
C426 C423 1.481 . S
C426 C427 1.297 . S
C426 H440 0.950 . S
C427 C426 1.297 . S
C427 C428 1.479 . S
C427 H441 0.950 . S
C428 C427 1.479 . S
C428 C429 1.375 . S
C428 C434 1.404 . S
C429 C428 1.375 . S
C429 C430 1.369 . S
C429 H442 0.950 . S
C430 C429 1.369 . S
C430 C431 1.392 . S
C430 H443 0.951 . S
C431 C430 1.392 . S
C431 C433 1.384 . S
H432 C434 0.949 . S
C433 C431 1.384 . S
C433 C434 1.385 . S
C433 H435 0.950 . S
C434 C428 1.404 . S
C434 H432 0.949 . S
C434 C433 1.385 . S
H435 C433 0.950 . S
H436 C420 0.951 . S
H437 C422 0.951 . S
H438 C424 0.951 . S
H439 C425 0.950 . S
H440 C426 0.950 . S
H441 C427 0.950 . S
H442 C429 0.950 . S
H443 C430 0.951 . S
C444 C445 1.386 . S
C444 C446 1.383 1_655 S
C444 H460 0.951 . S
C445 C444 1.386 . S
C445 C449 1.383 . S
C446 C444 1.383 1_455 S
C446 C447 1.402 . S
C446 H461 0.951 . S
C447 C446 1.402 . S
C447 C448 1.375 1_455 S
C447 C450 1.481 . S
C448 C447 1.375 1_655 S
C448 C449 1.367 . S
C448 H462 0.951 . S
C449 C445 1.383 . S
C449 C448 1.367 . S
C449 H463 0.950 . S
C450 C447 1.481 . S
C450 C451 1.297 . S
C450 H464 0.950 . S
C451 C450 1.297 . S
C451 C452 1.479 . S
C451 H465 0.950 . S
C452 C451 1.479 . S
C452 C453 1.375 . S
C452 C458 1.404 . S
C453 C452 1.375 . S
C453 C454 1.369 . S
C453 H466 0.950 . S
C454 C453 1.369 . S
C454 C455 1.392 . S
C454 H467 0.951 . S
C455 C454 1.392 . S
C455 C457 1.384 . S
H456 C458 0.949 . S
C457 C455 1.384 . S
C457 C458 1.385 . S
C457 H459 0.950 . S
C458 C452 1.404 . S
C458 H456 0.949 . S
C458 C457 1.385 . S
H459 C457 0.950 . S
H460 C444 0.951 . S
H461 C446 0.951 . S
H462 C448 0.951 . S
H463 C449 0.950 . S
H464 C450 0.950 . S
H465 C451 0.950 . S
H466 C453 0.950 . S
H467 C454 0.951 . S
C468 C469 1.386 . S
C468 C470 1.383 . S
C468 H484 0.951 . S
C469 C468 1.386 . S
C469 C473 1.383 . S
C470 C468 1.383 . S
C470 C471 1.402 . S
C470 H485 0.951 . S
C471 C470 1.402 . S
C471 C472 1.375 . S
C471 C474 1.481 . S
C472 C471 1.375 . S
C472 C473 1.367 . S
C472 H486 0.951 . S
C473 C469 1.383 . S
C473 C472 1.367 . S
C473 H487 0.950 . S
C474 C471 1.481 . S
C474 C475 1.297 . S
C474 H488 0.950 . S
C475 C474 1.297 . S
C475 C476 1.479 . S
C475 H489 0.950 . S
C476 C475 1.479 . S
C476 C477 1.375 1_545 S
C476 C482 1.404 . S
C477 C476 1.375 1_565 S
C477 C478 1.369 . S
C477 H490 0.950 . S
C478 C477 1.369 . S
C478 C479 1.392 . S
C478 H491 0.951 . S
C479 C478 1.392 . S
C479 C481 1.384 . S
H480 C482 0.949 . S
C481 C479 1.384 . S
C481 C482 1.385 1_565 S
C481 H483 0.950 . S
C482 C476 1.404 . S
C482 H480 0.949 . S
C482 C481 1.385 1_545 S
H483 C481 0.950 . S
H484 C468 0.951 . S
H485 C470 0.951 . S
H486 C472 0.951 . S
H487 C473 0.950 . S
H488 C474 0.950 . S
H489 C475 0.950 . S
H490 C477 0.950 . S
H491 C478 0.951 . S
C492 C493 1.386 . S
C492 C494 1.383 . S
C492 H508 0.951 . S
C493 C492 1.386 . S
C493 C497 1.383 . S
C494 C492 1.383 . S
C494 C495 1.402 . S
C494 H509 0.951 . S
C495 C494 1.402 . S
C495 C496 1.375 . S
C495 C498 1.481 . S
C496 C495 1.375 . S
C496 C497 1.367 . S
C496 H510 0.951 . S
C497 C493 1.383 . S
C497 C496 1.367 . S
C497 H511 0.950 . S
C498 C495 1.481 . S
C498 C499 1.297 . S
C498 H512 0.950 . S
C499 C498 1.297 . S
C499 C500 1.479 . S
C499 H513 0.950 . S
C500 C499 1.479 . S
C500 C501 1.375 . S
C500 C506 1.404 . S
C501 C500 1.375 . S
C501 C502 1.369 . S
C501 H514 0.950 . S
C502 C501 1.369 . S
C502 C503 1.392 . S
C502 H515 0.951 . S
C503 C502 1.392 . S
C503 C505 1.384 . S
H504 C506 0.949 . S
C505 C503 1.384 . S
C505 C506 1.385 . S
C505 H507 0.950 . S
C506 C500 1.404 . S
C506 H504 0.949 . S
C506 C505 1.385 . S
H507 C505 0.950 . S
H508 C492 0.951 . S
H509 C494 0.951 . S
H510 C496 0.951 . S
H511 C497 0.950 . S
H512 C498 0.950 . S
H513 C499 0.950 . S
H514 C501 0.950 . S
H515 C502 0.951 . S
C516 C517 1.386 . S
C516 C518 1.383 . S
C516 H532 0.951 . S
C517 C516 1.386 . S
C517 C521 1.383 . S
C518 C516 1.383 . S
C518 C519 1.402 . S
C518 H533 0.951 . S
C519 C518 1.402 . S
C519 C520 1.375 . S
C519 C522 1.481 . S
C520 C519 1.375 . S
C520 C521 1.367 . S
C520 H534 0.951 . S
C521 C517 1.383 . S
C521 C520 1.367 . S
C521 H535 0.950 . S
C522 C519 1.481 . S
C522 C523 1.297 . S
C522 H536 0.950 . S
C523 C522 1.297 . S
C523 C524 1.481 . S
C523 H537 0.950 . S
C524 C523 1.481 . S
C524 C525 1.375 . S
C524 C530 1.403 1_655 S
C525 C524 1.375 . S
C525 C526 1.369 1_655 S
C525 H538 0.950 . S
C526 C525 1.369 1_455 S
C526 C527 1.392 . S
C526 H539 0.951 . S
C527 C526 1.392 . S
C527 C529 1.384 . S
H528 C530 0.949 . S
C529 C527 1.384 . S
C529 C530 1.385 . S
C529 H531 0.950 . S
C530 C524 1.403 1_455 S
C530 H528 0.949 . S
C530 C529 1.385 . S
H531 C529 0.950 . S
H532 C516 0.951 . S
H533 C518 0.951 . S
H534 C520 0.951 . S
H535 C521 0.950 . S
H536 C522 0.950 . S
H537 C523 0.950 . S
H538 C525 0.950 . S
H539 C526 0.951 . S
C540 C541 1.386 . S
C540 C542 1.383 . S
C540 H556 0.951 . S
C541 C540 1.386 . S
C541 C545 1.383 . S
C542 C540 1.383 . S
C542 C543 1.402 . S
C542 H557 0.951 . S
C543 C542 1.402 . S
C543 C544 1.375 . S
C543 C546 1.481 . S
C544 C543 1.375 . S
C544 C545 1.367 . S
C544 H558 0.951 . S
C545 C541 1.383 . S
C545 C544 1.367 . S
C545 H559 0.950 . S
C546 C543 1.481 . S
C546 C547 1.297 . S
C546 H560 0.950 . S
C547 C546 1.297 . S
C547 C548 1.479 . S
C547 H561 0.950 . S
C548 C547 1.479 . S
C548 C549 1.375 . S
C548 C554 1.404 1_565 S
C549 C548 1.375 . S
C549 C550 1.369 1_565 S
C549 H562 0.950 . S
C550 C549 1.369 1_545 S
C550 C551 1.392 . S
C550 H563 0.951 . S
C551 C550 1.392 . S
C551 C553 1.384 . S
H552 C554 0.949 . S
C553 C551 1.384 . S
C553 C554 1.385 . S
C553 H555 0.950 . S
C554 C548 1.404 1_545 S
C554 H552 0.949 . S
C554 C553 1.385 . S
H555 C553 0.950 . S
H556 C540 0.951 . S
H557 C542 0.951 . S
H558 C544 0.951 . S
H559 C545 0.950 . S
H560 C546 0.950 . S
H561 C547 0.950 . S
H562 C549 0.950 . S
H563 C550 0.951 . S
C205 C135 1.076 . S
C215 C33 1.116 . S
C229 C169 1.045 . S
C239 C67 1.043 . S
C253 C101 1.119 . S
C263 C203 1.127 . S
C277 C138 0.944 . S
C287 C9 0.895 . S
C301 C172 0.929 . S
C311 C43 0.863 . S
C325 C77 0.937 . S
C335 C2 0.955 . S
C349 C36 0.951 . S
C359 C111 0.933 . S
C373 C145 0.898 . S
C383 C70 0.912 . S
C397 C179 0.970 . S
C407 C104 0.988 . S
C421 C190 0.744 . S
C431 C5 0.755 . S
C445 C39 0.803 . S
C455 C20 0.819 . S
C469 C54 0.740 . S
C479 C73 0.809 . S
C493 C88 0.784 . S
C503 C107 0.822 . S
C517 C122 0.792 . S
C527 C141 0.740 . S
C541 C156 0.777 . S
C551 C175 0.740 . S
