# Generated by pormake.
# Topology uob, (4)-cn, num edge types: 1
# Building blocks:
#     Node 0, Type 0, BuildingBlock: KUFVIS_clean_sbu_0, # of connection points: 4
#     Node 1, Type 0, BuildingBlock: KUFVIS_clean_sbu_0, # of connection points: 4
#     Node 2, Type 0, BuildingBlock: KUFVIS_clean_sbu_0, # of connection points: 4
#     Node 3, Type 0, BuildingBlock: KUFVIS_clean_sbu_0, # of connection points: 4
#     Node 4, Type 0, BuildingBlock: KUFVIS_clean_sbu_0, # of connection points: 4
#     Node 5, Type 0, BuildingBlock: KUFVIS_clean_sbu_0, # of connection points: 4
#     Node 6, Type 0, BuildingBlock: KUFVIS_clean_sbu_0, # of connection points: 4
#     Node 7, Type 0, BuildingBlock: KUFVIS_clean_sbu_0, # of connection points: 4
#     Node 8, Type 0, BuildingBlock: KUFVIS_clean_sbu_0, # of connection points: 4
#     Node 9, Type 0, BuildingBlock: KUFVIS_clean_sbu_0, # of connection points: 4
#     Node 10, Type 0, BuildingBlock: KUFVIS_clean_sbu_0, # of connection points: 4
#     Node 11, Type 0, BuildingBlock: KUFVIS_clean_sbu_0, # of connection points: 4
#     Node 12, Type 0, BuildingBlock: KUFVIS_clean_sbu_0, # of connection points: 4
#     Node 13, Type 0, BuildingBlock: KUFVIS_clean_sbu_0, # of connection points: 4
#     Node 14, Type 0, BuildingBlock: KUFVIS_clean_sbu_0, # of connection points: 4
#     Node 15, Type 0, BuildingBlock: KUFVIS_clean_sbu_0, # of connection points: 4
#     Edge 16, Type (0, 0), BuildingBlock: MIFKUJ_clean_linker_0, # of connection points: 2
#     Edge 17, Type (0, 0), BuildingBlock: MIFKUJ_clean_linker_0, # of connection points: 2
#     Edge 18, Type (0, 0), BuildingBlock: MIFKUJ_clean_linker_0, # of connection points: 2
#     Edge 19, Type (0, 0), BuildingBlock: MIFKUJ_clean_linker_0, # of connection points: 2
#     Edge 20, Type (0, 0), BuildingBlock: MIFKUJ_clean_linker_0, # of connection points: 2
#     Edge 21, Type (0, 0), BuildingBlock: MIFKUJ_clean_linker_0, # of connection points: 2
#     Edge 22, Type (0, 0), BuildingBlock: MIFKUJ_clean_linker_0, # of connection points: 2
#     Edge 23, Type (0, 0), BuildingBlock: MIFKUJ_clean_linker_0, # of connection points: 2
#     Edge 24, Type (0, 0), BuildingBlock: MIFKUJ_clean_linker_0, # of connection points: 2
#     Edge 25, Type (0, 0), BuildingBlock: MIFKUJ_clean_linker_0, # of connection points: 2
#     Edge 26, Type (0, 0), BuildingBlock: MIFKUJ_clean_linker_0, # of connection points: 2
#     Edge 27, Type (0, 0), BuildingBlock: MIFKUJ_clean_linker_0, # of connection points: 2
#     Edge 28, Type (0, 0), BuildingBlock: MIFKUJ_clean_linker_0, # of connection points: 2
#     Edge 29, Type (0, 0), BuildingBlock: MIFKUJ_clean_linker_0, # of connection points: 2
#     Edge 30, Type (0, 0), BuildingBlock: MIFKUJ_clean_linker_0, # of connection points: 2
#     Edge 31, Type (0, 0), BuildingBlock: MIFKUJ_clean_linker_0, # of connection points: 2
#     Edge 32, Type (0, 0), BuildingBlock: MIFKUJ_clean_linker_0, # of connection points: 2
#     Edge 33, Type (0, 0), BuildingBlock: MIFKUJ_clean_linker_0, # of connection points: 2
#     Edge 34, Type (0, 0), BuildingBlock: MIFKUJ_clean_linker_0, # of connection points: 2
#     Edge 35, Type (0, 0), BuildingBlock: MIFKUJ_clean_linker_0, # of connection points: 2
#     Edge 36, Type (0, 0), BuildingBlock: MIFKUJ_clean_linker_0, # of connection points: 2
#     Edge 37, Type (0, 0), BuildingBlock: MIFKUJ_clean_linker_0, # of connection points: 2
#     Edge 38, Type (0, 0), BuildingBlock: MIFKUJ_clean_linker_0, # of connection points: 2
#     Edge 39, Type (0, 0), BuildingBlock: MIFKUJ_clean_linker_0, # of connection points: 2
#     Edge 40, Type (0, 0), BuildingBlock: MIFKUJ_clean_linker_0, # of connection points: 2
#     Edge 41, Type (0, 0), BuildingBlock: MIFKUJ_clean_linker_0, # of connection points: 2
#     Edge 42, Type (0, 0), BuildingBlock: MIFKUJ_clean_linker_0, # of connection points: 2
#     Edge 43, Type (0, 0), BuildingBlock: MIFKUJ_clean_linker_0, # of connection points: 2
#     Edge 44, Type (0, 0), BuildingBlock: MIFKUJ_clean_linker_0, # of connection points: 2
#     Edge 45, Type (0, 0), BuildingBlock: MIFKUJ_clean_linker_0, # of connection points: 2
#     Edge 46, Type (0, 0), BuildingBlock: MIFKUJ_clean_linker_0, # of connection points: 2
#     Edge 47, Type (0, 0), BuildingBlock: MIFKUJ_clean_linker_0, # of connection points: 2
# Relax obj value: 0.195
# Max RMSD: 0.230
# Mean RMSD: 0.230
data_MOF--net-uob--node1-KUFVIS_clean_sbu_0--edge1-MIFKUJ_clean_linker_0
_symmetry_space_group_name_H-M    P1
_symmetry_Int_Tables_number       1
_symmetry_cell_setting            triclinic
loop_
_symmetry_equiv_pos_as_xyz
'x, y, z'
_cell_length_a     69.761467
_cell_length_b     69.763522
_cell_length_c     33.849527
_cell_angle_alpha  89.980071
_cell_angle_beta   90.005676
_cell_angle_gamma 89.918823
loop_
_atom_site_label
_atom_site_type_symbol
_atom_site_fract_x
_atom_site_fract_y
_atom_site_fract_z
_atom_type_partial_charge
Mn0 Mn 0.15059 0.06236 0.28115 0.0
Mn1 Mn 0.11994 0.09952 0.29121 0.0
C2 C 0.14433 0.0747 0.34296 0.0
C3 C 0.1825 0.05241 0.27372 0.0
C4 C 0.10692 0.05825 0.27898 0.0
O5 O 0.14753 0.07185 0.22439 0.0
O6 O 0.12947 0.0981 0.23622 0.0
C7 C 0.14753 0.13113 0.27869 0.0
N8 N 0.1339 0.12252 0.30133 0.0
C9 C 0.13511 0.14794 0.34924 0.0
C10 C 0.14903 0.15719 0.32626 0.0
C11 C 0.15535 0.14869 0.29095 0.0
C12 C 0.12796 0.1304 0.33567 0.0
H13 H 0.15237 0.12464 0.2515 0.0
C14 C 0.13893 0.08709 0.21313 0.0
O15 O 0.16841 0.04075 0.26615 0.0
O16 O 0.17792 0.06987 0.28216 0.0
N17 N 0.10941 0.10292 0.34291 0.0
C18 C 0.09642 0.09179 0.36233 0.0
C19 C 0.08899 0.09802 0.39867 0.0
C20 C 0.09468 0.11578 0.41423 0.0
C21 C 0.10781 0.12713 0.39342 0.0
C22 C 0.11482 0.12013 0.35747 0.0
H23 H 0.09179 0.07824 0.35025 0.0
O24 O 0.15163 0.05776 0.33906 0.0
O25 O 0.14138 0.08427 0.31059 0.0
O26 O 0.12351 0.05027 0.27877 0.0
O27 O 0.10446 0.07636 0.28206 0.0
C28 C 0.11429 0.1451 0.40697 0.0
C29 C 0.12808 0.1554 0.38511 0.0
H30 H 0.15505 0.17077 0.33554 0.0
H31 H 0.16617 0.15569 0.27316 0.0
H32 H 0.07881 0.08922 0.41451 0.0
H33 H 0.08885 0.12054 0.44216 0.0
H34 H 0.1089 0.15105 0.43435 0.0
H35 H 0.13318 0.16903 0.39618 0.0
Mn36 Mn 0.93911 0.6291 0.54829 0.0
Mn37 Mn 0.90433 0.60088 0.51029 0.0
C38 C 0.91505 0.61707 0.58811 0.0
C39 C 0.94949 0.66005 0.56536 0.0
C40 C 0.94448 0.5864 0.52868 0.0
O41 O 0.94203 0.63363 0.489 0.0
O42 O 0.91736 0.6153 0.46791 0.0
C43 C 0.87845 0.63182 0.48306 0.0
N44 N 0.88148 0.61579 0.50517 0.0
C45 C 0.84907 0.61639 0.52936 0.0
C46 C 0.84553 0.63279 0.5065 0.0
C47 C 0.86031 0.64056 0.48334 0.0
C48 C 0.86742 0.60828 0.5278 0.0
H49 H 0.88976 0.63785 0.46527 0.0
C50 C 0.93131 0.62681 0.46189 0.0
O51 O 0.96166 0.64602 0.56141 0.0
O52 O 0.93179 0.65622 0.55729 0.0
N53 N 0.89038 0.58617 0.54827 0.0
C54 C 0.89623 0.57046 0.56897 0.0
C55 C 0.88322 0.56109 0.59403 0.0
C56 C 0.8643 0.56784 0.59716 0.0
C57 C 0.85852 0.58384 0.57507 0.0
C58 C 0.87208 0.5925 0.55037 0.0
H59 H 0.91074 0.56518 0.56656 0.0
O60 O 0.93103 0.62293 0.60339 0.0
O61 O 0.91348 0.6187 0.55014 0.0
O62 O 0.95122 0.60218 0.54225 0.0
O63 O 0.92732 0.58459 0.51582 0.0
C64 C 0.83988 0.5916 0.57664 0.0
C65 C 0.83517 0.6079 0.55394 0.0
H66 H 0.83156 0.63959 0.5067 0.0
H67 H 0.85772 0.65325 0.46571 0.0
H68 H 0.88775 0.54871 0.6109 0.0
H69 H 0.85435 0.56057 0.61649 0.0
H70 H 0.82904 0.58519 0.59526 0.0
H71 H 0.82084 0.61382 0.5557 0.0
Mn72 Mn 0.38671 0.43036 0.80611 0.0
Mn73 Mn 0.42067 0.39638 0.816 0.0
C74 C 0.39263 0.41593 0.86641 0.0
C75 C 0.35427 0.43871 0.79907 0.0
C76 C 0.42976 0.43871 0.8062 0.0
O77 O 0.39093 0.42171 0.74878 0.0
O78 O 0.41229 0.39787 0.76045 0.0
C79 C 0.39747 0.36197 0.79789 0.0
N80 N 0.40893 0.3719 0.8232 0.0
C81 C 0.40821 0.34623 0.87056 0.0
C82 C 0.39667 0.33558 0.84475 0.0
C83 C 0.39114 0.34357 0.80839 0.0
C84 C 0.41395 0.36455 0.85865 0.0
H85 H 0.39316 0.36807 0.76997 0.0
C86 C 0.40154 0.40771 0.73735 0.0
O87 O 0.36777 0.45118 0.79277 0.0
O88 O 0.3597 0.42126 0.8056 0.0
N89 N 0.42937 0.39363 0.86932 0.0
C90 C 0.4395 0.40624 0.89183 0.0
C91 C 0.44517 0.40091 0.9301 0.0
C92 C 0.44056 0.38262 0.94462 0.0
C93 C 0.43017 0.36988 0.92082 0.0
C94 C 0.42473 0.37607 0.88311 0.0
H95 H 0.44318 0.42027 0.88068 0.0
O96 O 0.38497 0.43285 0.86487 0.0
O97 O 0.39711 0.40844 0.83282 0.0
O98 O 0.41246 0.44478 0.80567 0.0
O99 O 0.43421 0.42101 0.80939 0.0
C100 C 0.42507 0.35126 0.93295 0.0
C101 C 0.41424 0.3394 0.90765 0.0
H102 H 0.39182 0.32135 0.85271 0.0
H103 H 0.38207 0.33553 0.78845 0.0
H104 H 0.45316 0.41084 0.94831 0.0
H105 H 0.44503 0.37853 0.97409 0.0
H106 H 0.42947 0.34592 0.96157 0.0
H107 H 0.41064 0.325 0.91684 0.0
Mn108 Mn 0.54973 0.87213 0.02473 0.0
Mn109 Mn 0.58242 0.90699 0.00711 0.0
C110 C 0.56721 0.88498 0.07604 0.0
C111 C 0.54329 0.8392 0.03249 0.0
C112 C 0.5395 0.91449 0.01021 0.0
O113 O 0.55366 0.87019 0.96504 0.0
O114 O 0.57662 0.89279 0.95806 0.0
C115 C 0.61584 0.88263 0.98739 0.0
N116 N 0.60779 0.89676 0.00966 0.0
C117 C 0.63748 0.90229 0.04395 0.0
C118 C 0.64611 0.88782 0.02133 0.0
C119 C 0.63523 0.87793 0.99299 0.0
C120 C 0.61812 0.90637 0.03701 0.0
H121 H 0.60753 0.87505 0.96549 0.0
C122 C 0.56569 0.87967 0.94441 0.0
O123 O 0.52954 0.85137 0.02552 0.0
O124 O 0.56049 0.84603 0.03243 0.0
N125 N 0.58956 0.92202 0.05203 0.0
C126 C 0.57884 0.93493 0.07271 0.0
C127 C 0.58751 0.94585 0.10261 0.0
C128 C 0.60714 0.94357 0.11058 0.0
C129 C 0.6179 0.93029 0.08878 0.0
C130 C 0.60851 0.91991 0.05916 0.0
H131 H 0.56378 0.93687 0.06649 0.0
O132 O 0.55114 0.87631 0.08282 0.0
O133 O 0.57273 0.88588 0.03945 0.0
O134 O 0.53399 0.89735 0.01812 0.0
O135 O 0.55703 0.91897 0.00483 0.0
C136 C 0.63749 0.92669 0.09578 0.0
C137 C 0.64726 0.91265 0.07347 0.0
H138 H 0.66105 0.88411 0.02563 0.0
H139 H 0.64178 0.86672 0.97547 0.0
H140 H 0.5791 0.95603 0.11938 0.0
H141 H 0.61378 0.95203 0.13365 0.0
H142 H 0.6451 0.93441 0.11866 0.0
H143 H 0.66224 0.90981 0.07951 0.0
Mn144 Mn 0.14005 0.4413 0.00569 0.0
Mn145 Mn 0.10783 0.40889 0.03932 0.0
C146 C 0.12489 0.4207 0.96269 0.0
C147 C 0.17206 0.4479 0.98784 0.0
C148 C 0.09812 0.45097 0.02657 0.0
O149 O 0.14531 0.44129 0.06511 0.0
O150 O 0.12389 0.41861 0.08301 0.0
C151 C 0.13549 0.37858 0.0619 0.0
N152 N 0.11987 0.38427 0.04078 0.0
C153 C 0.11641 0.35289 0.0122 0.0
C154 C 0.13237 0.34666 0.0339 0.0
C155 C 0.14197 0.35958 0.0588 0.0
C156 C 0.11058 0.37198 0.01661 0.0
H157 H 0.14293 0.38846 0.081 0.0
C158 C 0.13719 0.43062 0.09079 0.0
O159 O 0.15998 0.46173 0.99477 0.0
O160 O 0.16588 0.43073 0.99413 0.0
N161 N 0.09127 0.39803 0.0002 0.0
C162 C 0.07606 0.40628 0.98145 0.0
C163 C 0.06498 0.39529 0.95525 0.0
C164 C 0.06949 0.37591 0.94898 0.0
C165 C 0.08489 0.3676 0.96942 0.0
C166 C 0.09531 0.37921 -0.00456 0.0
H167 H 0.07251 0.42117 0.98614 0.0
O168 O 0.13266 0.43633 0.94979 0.0
O169 O 0.12646 0.41734 0.00021 0.0
O170 O 0.11469 0.45647 0.01446 0.0
O171 O 0.09449 0.43373 0.03709 0.0
C172 C 0.09042 0.3483 0.96473 0.0
C173 C 0.10619 0.34096 0.98605 0.0
H174 H 0.13744 0.33202 0.03151 0.0
H175 H 0.15432 0.3549 0.07558 0.0
H176 H 0.05305 0.40178 0.93978 0.0
H177 H 0.06104 0.36754 0.92844 0.0
H178 H 0.08271 0.33902 0.94461 0.0
H179 H 0.11038 0.32614 0.98198 0.0
Mn180 Mn 0.5609 0.62891 0.25192 0.0
Mn181 Mn 0.5944 0.59796 0.28614 0.0
C182 C 0.58396 0.61625 0.21028 0.0
C183 C 0.55155 0.6604 0.23614 0.0
C184 C 0.55354 0.58611 0.26799 0.0
O185 O 0.55903 0.63283 0.31179 0.0
O186 O 0.58211 0.61185 0.33008 0.0
C187 C 0.62166 0.62693 0.31641 0.0
N188 N 0.61787 0.61169 0.29251 0.0
C189 C 0.65024 0.61142 0.26809 0.0
C190 C 0.65452 0.62703 0.2926 0.0
C191 C 0.64015 0.63485 0.3168 0.0
C192 C 0.63154 0.60416 0.26889 0.0
H193 H 0.61065 0.63301 0.33499 0.0
C194 C 0.5692 0.6243 0.33784 0.0
O195 O 0.53893 0.64687 0.24063 0.0
O196 O 0.56918 0.65586 0.2435 0.0
N197 N 0.60764 0.5836 0.24649 0.0
C198 C 0.60113 0.56861 0.22447 0.0
C199 C 0.61372 0.55924 0.19847 0.0
C200 C 0.6329 0.56521 0.19583 0.0
C201 C 0.63936 0.58042 0.21936 0.0
C202 C 0.62618 0.58916 0.24481 0.0
H203 H 0.58642 0.56391 0.22658 0.0
O204 O 0.56809 0.62305 0.19612 0.0
O205 O 0.58599 0.61721 0.24826 0.0
O206 O 0.54751 0.6026 0.25684 0.0
O207 O 0.57073 0.58289 0.27938 0.0
C208 C 0.65835 0.58726 0.21867 0.0
C209 C 0.66376 0.60282 0.24278 0.0
H210 H 0.66877 0.63317 0.29298 0.0
H211 H 0.64331 0.64694 0.3357 0.0
H212 H 0.60866 0.54744 0.18055 0.0
H213 H 0.64254 0.55793 0.17578 0.0
H214 H 0.66895 0.58065 0.19984 0.0
H215 H 0.67837 0.60803 0.24167 0.0
Mn216 Mn 0.38235 0.06288 0.51629 0.0
Mn217 Mn 0.40662 0.09863 0.56119 0.0
C218 C 0.39459 0.08809 0.48041 0.0
C219 C 0.3531 0.0513 0.49138 0.0
C220 C 0.42451 0.05996 0.54284 0.0
O221 O 0.37492 0.05911 0.5741 0.0
O222 O 0.39164 0.08379 0.6003 0.0
C223 C 0.37249 0.12142 0.58347 0.0
N224 N 0.38978 0.12019 0.56495 0.0
C225 C 0.38693 0.15245 0.54048 0.0
C226 C 0.36924 0.15417 0.55983 0.0
C227 C 0.36194 0.13854 0.5812 0.0
C228 C 0.39682 0.13505 0.54385 0.0
H229 H 0.36675 0.10941 0.5997 0.0
C230 C 0.3804 0.06938 0.6032 0.0
O231 O 0.3674 0.03973 0.49802 0.0
O232 O 0.35549 0.06895 0.50175 0.0
N233 N 0.42157 0.1143 0.5265 0.0
C234 C 0.43832 0.10994 0.50782 0.0
C235 C 0.44724 0.12385 0.48414 0.0
C236 C 0.4389 0.14209 0.48008 0.0
C237 C 0.42183 0.14633 0.50012 0.0
C238 C 0.41375 0.13199 0.5238 0.0
H239 H 0.44473 0.09591 0.51064 0.0
O240 O 0.39069 0.07198 0.46321 0.0
O241 O 0.39112 0.08899 0.51792 0.0
O242 O 0.4096 0.05229 0.52722 0.0
O243 O 0.42475 0.07703 0.55667 0.0
C244 C 0.41233 0.1641 0.49698 0.0
C245 C 0.39487 0.16714 0.51707 0.0
H246 H 0.36102 0.16732 0.55803 0.0
H247 H 0.34821 0.13968 0.59592 0.0
H248 H 0.46043 0.12048 0.46882 0.0
H249 H 0.44569 0.15269 0.46136 0.0
H250 H 0.41819 0.17543 0.47876 0.0
H251 H 0.38754 0.18076 0.5139 0.0
Mn252 Mn 0.94174 0.86714 0.77683 0.0
Mn253 Mn 0.90483 0.89775 0.79084 0.0
C254 C 0.92167 0.87492 0.72522 0.0
C255 C 0.9525 0.83529 0.77442 0.0
C256 C 0.94645 0.91049 0.78443 0.0
O257 O 0.93935 0.86817 0.83705 0.0
O258 O 0.91226 0.88588 0.84157 0.0
C259 C 0.87482 0.86985 0.8133 0.0
N260 N 0.88105 0.88422 0.78933 0.0
C261 C 0.85151 0.88401 0.75263 0.0
C262 C 0.84469 0.86933 0.77718 0.0
C263 C 0.85643 0.86217 0.80754 0.0
C264 C 0.86995 0.8911 0.7598 0.0
H265 H 0.88384 0.86425 0.83651 0.0
C266 C 0.9257 0.87579 0.85688 0.0
O267 O 0.96458 0.8494 0.77771 0.0
O268 O 0.93451 0.83971 0.7759 0.0
N269 N 0.89617 0.91013 0.74362 0.0
C270 C 0.90525 0.92366 0.72141 0.0
C271 C 0.89566 0.93193 0.68914 0.0
C272 C 0.87679 0.92638 0.68034 0.0
C273 C 0.86767 0.91259 0.70388 0.0
C274 C 0.87791 0.90491 0.73575 0.0
H275 H 0.9197 0.92809 0.72819 0.0
O276 O 0.93858 0.86802 0.71831 0.0
O277 O 0.91697 0.87695 0.76196 0.0
O278 O 0.95386 0.89414 0.77641 0.0
O279 O 0.92865 0.91297 0.79183 0.0
C280 C 0.84889 0.90606 0.69678 0.0
C281 C 0.84086 0.89169 0.72098 0.0
H282 H 0.83054 0.86334 0.77277 0.0
H283 H 0.85132 0.85075 0.82643 0.0
H284 H 0.90278 0.94259 0.67115 0.0
H285 H 0.86946 0.93279 0.65545 0.0
H286 H 0.84054 0.91185 0.67257 0.0
H287 H 0.82651 0.88656 0.71483 0.0
Mn288 Mn 0.6384 0.56773 0.79753 0.0
Mn289 Mn 0.60658 0.60403 0.79018 0.0
C290 C 0.6296 0.58513 0.85259 0.0
C291 C 0.6705 0.55764 0.79893 0.0
C292 C 0.59511 0.56193 0.78902 0.0
O293 O 0.63739 0.57267 0.7379 0.0
O294 O 0.61829 0.59894 0.73801 0.0
C295 C 0.63372 0.63543 0.77225 0.0
N296 N 0.61982 0.62784 0.79573 0.0
C297 C 0.62065 0.6552 0.83892 0.0
C298 C 0.63487 0.6634 0.81503 0.0
C299 C 0.64148 0.65343 0.78163 0.0
C300 C 0.61354 0.63719 0.82822 0.0
H301 H 0.63887 0.62779 0.74663 0.0
C302 C 0.62893 0.58662 0.72053 0.0
O303 O 0.65667 0.54548 0.79305 0.0
O304 O 0.66575 0.57555 0.80054 0.0
N305 N 0.59433 0.61045 0.83898 0.0
C306 C 0.58056 0.60055 0.85896 0.0
C307 C 0.57255 0.60847 0.89335 0.0
C308 C 0.57858 0.62658 0.90649 0.0
C309 C 0.59246 0.63666 0.88494 0.0
C310 C 0.59991 0.62806 0.8509 0.0
H311 H 0.57578 0.58667 0.84889 0.0
O312 O 0.63711 0.56825 0.85638 0.0
O313 O 0.62773 0.59141 0.81683 0.0
O314 O 0.61183 0.55488 0.79492 0.0
O315 O 0.59188 0.57991 0.78547 0.0
C316 C 0.59911 0.65495 0.89578 0.0
C317 C 0.61326 0.66419 0.87293 0.0
H318 H 0.64086 0.67729 0.82212 0.0
H319 H 0.65252 0.65961 0.76314 0.0
H320 H 0.56176 0.60064 0.90967 0.0
H321 H 0.57241 0.63264 0.93309 0.0
H322 H 0.59331 0.66204 0.92151 0.0
H323 H 0.6183 0.67824 0.88163 0.0
Mn324 Mn 0.42188 0.13056 0.05588 0.0
Mn325 Mn 0.38776 0.09951 0.08441 0.0
C326 C 0.41492 0.12679 0.12167 0.0
C327 C 0.42912 0.1627 0.0416 0.0
C328 C 0.42745 0.08693 0.05693 0.0
O329 O 0.40737 0.1257 0.00494 0.0
O330 O 0.38399 0.1062 0.02769 0.0
C331 C 0.35377 0.12476 0.07838 0.0
N332 N 0.36538 0.11328 0.10046 0.0
C333 C 0.34619 0.11856 0.15856 0.0
C334 C 0.33396 0.13035 0.13637 0.0
C335 C 0.33778 0.13348 0.09613 0.0
C336 C 0.3618 0.11013 0.13919 0.0
H337 H 0.35671 0.12727 0.04748 0.0
C338 C 0.39229 0.11558 -0.00011 0.0
O339 O 0.44085 0.14904 0.03132 0.0
O340 O 0.41307 0.15747 0.05694 0.0
N341 N 0.38996 0.09222 0.13877 0.0
C342 C 0.4039 0.08158 0.15656 0.0
C343 C 0.40266 0.07778 0.19724 0.0
C344 C 0.38708 0.08488 0.21912 0.0
C345 C 0.37287 0.09571 0.20011 0.0
C346 C 0.37483 0.09897 0.15948 0.0
H347 H 0.41594 0.07618 0.1399 0.0
O348 O 0.43141 0.13343 0.11082 0.0
O349 O 0.40317 0.1222 0.09351 0.0
O350 O 0.43457 0.10367 0.05125 0.0
O351 O 0.41032 0.0842 0.06918 0.0
C352 C 0.35704 0.10371 0.22003 0.0
C353 C 0.34372 0.11515 0.19929 0.0
H354 H 0.32169 0.13721 0.15001 0.0
H355 H 0.32846 0.14264 0.07886 0.0
H356 H 0.41372 0.06946 0.21172 0.0
H357 H 0.38627 0.08207 0.25056 0.0
H358 H 0.35516 0.10141 0.25143 0.0
H359 H 0.33178 0.12147 0.21509 0.0
Mn360 Mn 0.88674 0.95114 0.32422 0.0
Mn361 Mn 0.9189 0.91547 0.33408 0.0
C362 C 0.8901 0.93494 0.38293 0.0
C363 C 0.85495 0.96137 0.31676 0.0
C364 C 0.93019 0.95709 0.3349 0.0
O365 O 0.8916 0.94418 0.26665 0.0
O366 O 0.91489 0.92218 0.27771 0.0
C367 C 0.89581 0.88477 0.29695 0.0
N368 N 0.90567 0.89164 0.32866 0.0
C369 C 0.89925 0.863 0.366 0.0
C370 C 0.8891 0.85559 0.33368 0.0
C371 C 0.88735 0.86655 0.29904 0.0
C372 C 0.90743 0.88122 0.36215 0.0
H373 H 0.8944 0.89313 0.27027 0.0
C374 C 0.90452 0.93249 0.2547 0.0
O375 O 0.86911 0.97334 0.31265 0.0
O376 O 0.85944 0.94351 0.32064 0.0
N377 N 0.92374 0.9076 0.38732 0.0
C378 C 0.93309 0.91724 0.41652 0.0
C379 C 0.93557 0.90849 0.45353 0.0
C380 C 0.92857 0.88989 0.46002 0.0
C381 C 0.9191 0.8802 0.42943 0.0
C382 C 0.91706 0.88964 0.39317 0.0
H383 H 0.93843 0.93157 0.41169 0.0
O384 O 0.88389 0.95242 0.38262 0.0
O385 O 0.89503 0.92776 0.34913 0.0
O386 O 0.91354 0.96382 0.32689 0.0
O387 O 0.93353 0.93932 0.34073 0.0
C388 C 0.9114 0.86165 0.43362 0.0
C389 C 0.9014 0.8531 0.40201 0.0
H390 H 0.88251 0.84156 0.33522 0.0
H391 H 0.87948 0.86096 0.27402 0.0
H392 H 0.94284 0.91608 0.47703 0.0
H393 H 0.93049 0.88324 0.48864 0.0
H394 H 0.91293 0.85388 0.46111 0.0
H395 H 0.89532 0.83894 0.40581 0.0
Mn396 Mn 0.06055 0.36853 0.53788 0.0
Mn397 Mn 0.09499 0.40034 0.56092 0.0
C398 C 0.06886 0.37372 0.60284 0.0
C399 C 0.05239 0.33637 0.5275 0.0
C400 C 0.05475 0.41186 0.53529 0.0
O401 O 0.07408 0.37268 0.4849 0.0
O402 O 0.0984 0.39166 0.50553 0.0
C403 C 0.12901 0.37499 0.5578 0.0
N404 N 0.11754 0.38726 0.57834 0.0
C405 C 0.13743 0.38457 0.63618 0.0
C406 C 0.14954 0.37201 0.61556 0.0
C407 C 0.14528 0.36716 0.57624 0.0
C408 C 0.12147 0.39195 0.61624 0.0
H409 H 0.12575 0.37119 0.52762 0.0
C410 C 0.08961 0.38204 0.47878 0.0
O411 O 0.04082 0.35007 0.51669 0.0
O412 O 0.06907 0.34152 0.54006 0.0
N413 N 0.09311 0.40952 0.61408 0.0
C414 C 0.07935 0.42088 0.63054 0.0
C415 C 0.08107 0.42646 0.67024 0.0
C416 C 0.09698 0.42043 0.6925 0.0
C417 C 0.11102 0.40888 0.67483 0.0
C418 C 0.10855 0.40378 0.63514 0.0
H419 H 0.06709 0.42556 0.61359 0.0
O420 O 0.05231 0.36655 0.59415 0.0
O421 O 0.07991 0.37779 0.57324 0.0
O422 O 0.04755 0.39502 0.53307 0.0
O423 O 0.07225 0.4151 0.54423 0.0
C424 C 0.12725 0.40201 0.69518 0.0
C425 C 0.14042 0.38981 0.67591 0.0
H426 H 0.16205 0.36588 0.62972 0.0
H427 H 0.15449 0.3574 0.5602 0.0
H428 H 0.07015 0.43535 0.68367 0.0
H429 H 0.09821 0.42467 0.72318 0.0
H430 H 0.12959 0.40577 0.72585 0.0
H431 H 0.15267 0.38436 0.6921 0.0
Mn432 Mn 0.64595 0.94855 0.5021 0.0
Mn433 Mn 0.61138 0.91716 0.47591 0.0
C434 C 0.64059 0.94229 0.43594 0.0
C435 C 0.67865 0.95441 0.51355 0.0
C436 C 0.60285 0.95829 0.49856 0.0
O437 O 0.6411 0.93478 0.5544 0.0
O438 O 0.61754 0.91551 0.53285 0.0
C439 C 0.63391 0.88175 0.48938 0.0
N440 N 0.62266 0.89271 0.46548 0.0
C441 C 0.62238 0.86837 0.41515 0.0
C442 C 0.6339 0.85676 0.43929 0.0
C443 C 0.63975 0.86351 0.47651 0.0
C444 C 0.61702 0.88639 0.42958 0.0
H445 H 0.63836 0.88688 0.51805 0.0
C446 C 0.62829 0.92205 0.56029 0.0
O447 O 0.66567 0.96661 0.52507 0.0
O448 O 0.67245 0.93842 0.49936 0.0
N449 N 0.60328 0.91659 0.42199 0.0
C450 C 0.59262 0.92977 0.40201 0.0
C451 C 0.58526 0.92514 0.36466 0.0
C452 C 0.58933 0.90722 0.34769 0.0
C453 C 0.60019 0.8938 0.36896 0.0
C454 C 0.60649 0.89895 0.40677 0.0
H455 H 0.58948 0.94359 0.41479 0.0
O456 O 0.64867 0.95798 0.44736 0.0
O457 O 0.63557 0.93033 0.4638 0.0
O458 O 0.62001 0.96324 0.50787 0.0
O459 O 0.59857 0.94169 0.48546 0.0
C460 C 0.60507 0.87556 0.35411 0.0
C461 C 0.61625 0.8629 0.37711 0.0
H462 H 0.63846 0.8427 0.42945 0.0
H463 H 0.64868 0.85466 0.49526 0.0
H464 H 0.57627 0.93531 0.34918 0.0
H465 H 0.58392 0.90386 0.31851 0.0
H466 H 0.6005 0.87123 0.32486 0.0
H467 H 0.62014 0.84903 0.36516 0.0
Mn468 Mn 0.05186 0.134 0.75556 0.0
Mn469 Mn 0.086 0.10061 0.77372 0.0
C470 C 0.07064 0.12228 0.70507 0.0
C471 C 0.04355 0.16639 0.74721 0.0
C472 C 0.04359 0.0913 0.76924 0.0
O473 O 0.05498 0.13568 0.81562 0.0
O474 O 0.07879 0.11388 0.82302 0.0
C475 C 0.11765 0.1267 0.79576 0.0
N476 N 0.11068 0.11241 0.77245 0.0
C477 C 0.14057 0.10991 0.73738 0.0
C478 C 0.14812 0.12453 0.76116 0.0
C479 C 0.13658 0.13299 0.7904 0.0
C480 C 0.12162 0.10422 0.74413 0.0
H481 H 0.10881 0.13324 0.81824 0.0
C482 C 0.06703 0.12632 0.83662 0.0
O483 O 0.0305 0.15346 0.75376 0.0
O484 O 0.06117 0.16066 0.74867 0.0
N485 N 0.09437 0.08664 0.72821 0.0
C486 C 0.08465 0.07329 0.70673 0.0
C487 C 0.094 0.06379 0.67563 0.0
C488 C 0.11328 0.06793 0.66727 0.0
C489 C 0.12306 0.08151 0.69018 0.0
C490 C 0.11302 0.09047 0.72088 0.0
H491 H 0.06986 0.06998 0.71317 0.0
O492 O 0.05422 0.13011 0.69744 0.0
O493 O 0.07563 0.1215 0.74193 0.0
O494 O 0.03746 0.10816 0.76096 0.0
O495 O 0.06123 0.08723 0.77485 0.0
C496 C 0.14231 0.08669 0.68347 0.0
C497 C 0.15103 0.10094 0.70692 0.0
H498 H 0.1627 0.12946 0.75705 0.0
H499 H 0.14228 0.14433 0.80875 0.0
H500 H 0.08637 0.05329 0.65815 0.0
H501 H 0.12041 0.06064 0.64313 0.0
H502 H 0.15049 0.07994 0.6601 0.0
H503 H 0.16574 0.105 0.70109 0.0
Mn504 Mn 0.88048 0.56583 0.99437 0.0
Mn505 Mn 0.90923 0.60449 -0.00106 0.0
C506 C 0.88647 0.58407 0.9388 0.0
C507 C 0.84905 0.55382 -0.00462 0.0
C508 C 0.92439 0.56352 -0.00171 0.0
O509 O 0.88194 0.57076 0.05366 0.0
O510 O 0.89983 0.59784 0.05251 0.0
C511 C 0.88024 0.63329 0.02273 0.0
N512 N 0.89378 0.6271 -0.00332 0.0
C513 C 0.88896 0.65472 0.95527 0.0
C514 C 0.87507 0.66146 0.9818 0.0
C515 C 0.87064 0.65065 0.01561 0.0
C516 C 0.89798 0.63727 0.96384 0.0
H517 H 0.87679 0.62502 0.0487 0.0
C518 C 0.89017 0.58492 0.07057 0.0
O519 O 0.86369 0.54241 -0.00032 0.0
O520 O 0.85271 0.57192 0.99353 0.0
N521 N 0.91898 0.6124 0.94868 0.0
C522 C 0.93239 0.60368 0.92554 0.0
C523 C 0.93817 0.61248 0.89019 0.0
C524 C 0.93025 0.63021 0.87918 0.0
C525 C 0.91663 0.63899 0.90371 0.0
C526 C 0.91142 0.62956 0.93856 0.0
H527 H 0.93853 0.59005 0.93384 0.0
O528 O 0.88073 0.56652 0.93545 0.0
O529 O 0.88857 0.59034 0.9745 0.0
O530 O 0.90814 0.55504 -0.00451 0.0
O531 O 0.92614 0.58176 0.00018 0.0
C532 C 0.90807 0.65677 0.89498 0.0
C533 C 0.8942 0.66462 0.92066 0.0
H534 H 0.86766 0.67487 0.97643 0.0
H535 H 0.85988 0.65571 0.03614 0.0
H536 H 0.9487 0.6056 0.87145 0.0
H537 H 0.9347 0.63694 0.85184 0.0
H538 H 0.91216 0.66454 0.86867 0.0
H539 H 0.8877 0.6783 0.91362 0.0
Mn540 Mn 0.42415 0.37611 0.24264 0.0
Mn541 Mn 0.39262 0.4091 0.27598 0.0
C542 C 0.40233 0.39053 0.20053 0.0
C543 C 0.43095 0.34392 0.22709 0.0
C544 C 0.4351 0.41715 0.26417 0.0
O545 O 0.4246 0.37205 0.30262 0.0
O546 O 0.40033 0.39203 0.31971 0.0
C547 C 0.35998 0.38349 0.29419 0.0
N548 N 0.3672 0.39891 0.27458 0.0
C549 C 0.33697 0.40461 0.24229 0.0
C550 C 0.32913 0.38899 0.26272 0.0
C551 C 0.34071 0.37834 0.28866 0.0
C552 C 0.35623 0.40914 0.24923 0.0
H553 H 0.36892 0.37505 0.31354 0.0
C554 C 0.41286 0.37916 0.32783 0.0
O555 O 0.44463 0.35632 0.23233 0.0
O556 O 0.41369 0.34996 0.23356 0.0
N557 N 0.38406 0.42622 0.23535 0.0
C558 C 0.39414 0.44003 0.21589 0.0
C559 C 0.38481 0.45153 0.18774 0.0
C560 C 0.36523 0.44876 0.18001 0.0
C561 C 0.35514 0.43456 0.20062 0.0
C562 C 0.36514 0.42367 0.22861 0.0
H563 H 0.40919 0.44225 0.22165 0.0
O564 O 0.41774 0.38267 0.18642 0.0
O565 O 0.4004 0.38977 0.23833 0.0
O566 O 0.4396 0.40107 0.24854 0.0
O567 O 0.41832 0.42101 0.27715 0.0
C568 C 0.33562 0.43061 0.19401 0.0
C569 C 0.32656 0.41557 0.21464 0.0
H570 H 0.31432 0.38488 0.25829 0.0
H571 H 0.33484 0.36611 0.30415 0.0
H572 H 0.39271 0.46243 0.17191 0.0
H573 H 0.35813 0.45753 0.15798 0.0
H574 H 0.32752 0.43896 0.17289 0.0
H575 H 0.31162 0.41244 0.20872 0.0
H576 H 0.34281 0.01561 0.46254 0.0
H577 H 0.31548 0.00824 0.41883 0.0
H578 H 0.29756 0.06729 0.42374 0.0
H579 H 0.3242 0.07469 0.46756 0.0
H580 H 0.27006 0.02332 0.43477 0.0
H581 H 0.29593 0.07442 0.31378 0.0
H582 H 0.32587 0.08665 0.28462 0.0
H583 H 0.35509 0.03492 0.31808 0.0
H584 H 0.32516 0.02214 0.34642 0.0
H585 H 0.21449 0.07436 0.27258 0.0
H586 H 0.24526 0.06685 0.30266 0.0
H587 H 0.22678 0.00864 0.32242 0.0
H588 H 0.19552 0.01631 0.29285 0.0
H589 H 0.27468 0.04462 0.29525 0.0
H590 H 0.24337 0.99455 0.41497 0.0
H591 H 0.21227 0.98756 0.44669 0.0
H592 H 0.19286 0.04467 0.42111 0.0
H593 H 0.22395 0.0521 0.39004 0.0
C594 C 0.33286 0.02693 0.45477 0.0
C595 C 0.33572 0.04573 0.46865 0.0
C596 C 0.31732 0.02271 0.42973 0.0
C597 C 0.30469 0.03731 0.41768 0.0
C598 C 0.30724 0.05588 0.43239 0.0
C599 C 0.32249 0.06003 0.45765 0.0
C600 C 0.28887 0.03373 0.38927 0.0
C601 C 0.27117 0.02737 0.40391 0.0
C602 C 0.29016 0.03987 0.3495 0.0
C603 C 0.30832 0.04741 0.33268 0.0
C604 C 0.30871 0.0656 0.31475 0.0
C605 C 0.32567 0.0726 0.29819 0.0
C606 C 0.34239 0.06157 0.29948 0.0
C607 C 0.34215 0.04348 0.31722 0.0
C608 C 0.32518 0.03636 0.33358 0.0
C609 C 0.21713 0.05979 0.28228 0.0
C610 C 0.2025 0.04597 0.28057 0.0
C611 C 0.23479 0.05549 0.29955 0.0
C612 C 0.23829 0.03728 0.31569 0.0
C613 C 0.22433 0.02291 0.31084 0.0
C614 C 0.20654 0.02723 0.29346 0.0
C615 C 0.25571 0.03428 0.34067 0.0
C616 C 0.27366 0.03978 0.32563 0.0
C617 C 0.2545 0.02798 0.38046 0.0
C618 C 0.23586 0.02375 0.39961 0.0
C619 C 0.23247 0.00561 0.41622 0.0
C620 C 0.21486 1.00159 0.43414 0.0
C621 C 0.20058 0.01563 0.43577 0.0
C622 C 0.20391 0.03378 0.41973 0.0
C623 C 0.22152 0.0379 0.40197 0.0
H624 H 0.18694 0.01247 0.44955 0.0
H625 H 0.35553 0.06705 0.28684 0.0
H626 H 0.92981 0.80378 0.77114 0.0
H627 H 0.9361 0.77404 0.73572 0.0
H628 H 0.99402 0.79226 0.71281 0.0
H629 H 0.98771 0.82258 0.74783 0.0
H630 H 0.95307 0.77936 0.64771 0.0
H631 H 0.01408 0.73948 0.72006 0.0
H632 H 0.02991 0.73602 0.78493 0.0
H633 H 0.97626 0.74626 0.84348 0.0
H634 H 0.96011 0.7495 0.779 0.0
H635 H 0.9851 0.67333 0.58864 0.0
H636 H 0.99223 0.70387 0.62193 0.0
H637 H 0.93237 0.71926 0.61589 0.0
H638 H 0.92541 0.68957 0.5817 0.0
H639 H 0.98198 0.71768 0.68998 0.0
H640 H 0.92408 0.76563 0.61232 0.0
H641 H 0.91031 0.77031 0.54597 0.0
H642 H 0.96055 0.74543 0.49354 0.0
H643 H 0.9748 0.7409 0.55954 0.0
C644 C 0.94407 0.80136 0.75949 0.0
C645 C 0.95822 0.81566 0.76214 0.0
C646 C 0.94761 0.78433 0.73916 0.0
C647 C 0.96548 0.78099 0.72157 0.0
C648 C 0.98015 0.79456 0.7264 0.0
C649 C 0.97655 0.81182 0.74659 0.0
C650 C 0.96763 0.76442 0.69443 0.0
C651 C 0.95936 0.76583 0.65681 0.0
C652 C 0.97654 0.74711 0.70584 0.0
C653 C 0.98598 0.74504 0.74476 0.0
C654 C 0.00569 0.74099 0.74681 0.0
C655 C 0.01471 0.73904 0.78349 0.0
C656 C 0.00412 0.74101 0.8183 0.0
C657 C 0.98447 0.74485 0.8165 0.0
C658 C 0.97539 0.7468 0.77989 0.0
C659 C 0.97358 0.68345 0.59374 0.0
C660 C 0.95472 0.67904 0.58214 0.0
C661 C 0.97764 0.70085 0.61299 0.0
C662 C 0.96292 0.71414 0.62097 0.0
C663 C 0.94415 0.70966 0.60919 0.0
C664 C 0.94015 0.6925 0.58972 0.0
C665 C 0.96661 0.73223 0.64341 0.0
C666 C 0.976 0.73122 0.68018 0.0
C667 C 0.95893 0.75009 0.63093 0.0
C668 C 0.95046 0.7528 0.59101 0.0
C669 C 0.93225 0.76123 0.58666 0.0
C670 C 0.92434 0.76384 0.54909 0.0
C671 C 0.93453 0.75812 0.51557 0.0
C672 C 0.95266 0.7498 0.51954 0.0
C673 C 0.96065 0.74719 0.55705 0.0
H674 H 0.92838 0.76015 0.4865 0.0
H675 H 0.01112 0.7395 0.84667 0.0
H676 H 0.3403 0.47383 0.82162 0.0
H677 H 0.30849 0.48051 0.84954 0.0
H678 H 0.29104 0.42259 0.82375 0.0
H679 H 0.32273 0.41581 0.79627 0.0
H680 H 0.26188 0.44858 0.81027 0.0
H681 H 0.3073 0.43299 0.91235 0.0
H682 H 0.33743 0.43706 0.94944 0.0
H683 H 0.32038 0.49397 0.9827 0.0
H684 H 0.29031 0.49041 0.94497 0.0
H685 H 0.19436 0.42072 0.95357 0.0
H686 H 0.22409 0.42479 0.91697 0.0
H687 H 0.22315 0.48539 0.94139 0.0
H688 H 0.19268 0.48152 0.97764 0.0
H689 H 0.26091 0.46382 0.95348 0.0
H690 H 0.21233 0.47622 0.8574 0.0
H691 H 0.18288 0.47074 0.81886 0.0
H692 H 0.20606 0.41796 0.77438 0.0
H693 H 0.23544 0.42281 0.81357 0.0
C694 C 0.32949 0.4627 0.8208 0.0
C695 C 0.33404 0.44429 0.80665 0.0
C696 C 0.31137 0.46649 0.83715 0.0
C697 C 0.29742 0.45197 0.83927 0.0
C698 C 0.30153 0.43401 0.82256 0.0
C699 C 0.31966 0.43016 0.80675 0.0
C700 C 0.2791 0.45485 0.86133 0.0
C701 C 0.26166 0.4519 0.84158 0.0
C702 C 0.27877 0.45948 0.90212 0.0
C703 C 0.29669 0.46155 0.92532 0.0
C704 C 0.31005 0.44645 0.92725 0.0
C705 C 0.32711 0.44865 0.94841 0.0
C706 C 0.33086 0.4658 0.96821 0.0
C707 C 0.3175 0.48073 0.96714 0.0
C708 C 0.30045 0.47864 0.94585 0.0
C709 C 0.20045 0.43496 0.95161 0.0
C710 C 0.19109 0.45081 0.96878 0.0
C711 C 0.21747 0.43724 0.93041 0.0
C712 C 0.22581 0.45538 0.92619 0.0
C713 C 0.21692 0.47125 0.94423 0.0
C714 C 0.19955 0.46902 0.96495 0.0
C715 C 0.24369 0.45737 0.90243 0.0
C716 C 0.26107 0.46098 0.92197 0.0
C717 C 0.24399 0.4531 0.8615 0.0
C718 C 0.22606 0.44981 0.83879 0.0
C719 C 0.21105 0.46329 0.83991 0.0
C720 C 0.19438 0.46032 0.81784 0.0
C721 C 0.19261 0.44402 0.79416 0.0
C722 C 0.20747 0.43061 0.79266 0.0
C723 C 0.22412 0.43343 0.8149 0.0
H724 H 0.17973 0.44179 0.77696 0.0
H725 H 0.34408 0.46748 0.98458 0.0
H726 H 0.57012 0.81142 0.04275 0.0
H727 H 0.56625 0.78011 0.07292 0.0
H728 H 0.50525 0.78943 0.08161 0.0
H729 H 0.50918 0.82142 0.05205 0.0
H730 H 0.51786 0.77587 0.14897 0.0
H731 H 0.52519 0.7556 0.01672 0.0
H732 H 0.53878 0.75324 0.94969 0.0
H733 H 0.59154 0.7316 -0.00247 0.0
H734 H 0.57844 0.73416 0.06492 0.0
H735 H 0.51604 0.6752 0.21628 0.0
H736 H 0.5095 0.70484 0.17903 0.0
H737 H 0.56996 0.7174 0.17682 0.0
H738 H 0.57655 0.68834 0.21435 0.0
H739 H 0.55114 0.71754 0.10075 0.0
H740 H 0.54374 0.74277 0.2339 0.0
H741 H 0.52883 0.74406 0.29989 0.0
H742 H 0.47388 0.75468 0.24698 0.0
H743 H 0.48845 0.75319 0.1806 0.0
C744 C 0.55579 0.80677 0.05038 0.0
C745 C 0.53995 0.81899 0.04482 0.0
C746 C 0.55357 0.78871 0.06756 0.0
C747 C 0.53541 0.78214 0.07926 0.0
C748 C 0.51942 0.79408 0.07276 0.0
C749 C 0.52165 0.81232 0.05556 0.0
C750 C 0.53367 0.76342 0.10057 0.0
C751 C 0.52476 0.76302 0.13789 0.0
C752 C 0.54274 0.74652 0.08653 0.0
C753 C 0.55084 0.74521 0.046 0.0
C754 C 0.53976 0.75052 0.01302 0.0
C755 C 0.54737 0.74911 0.97492 0.0
C756 C 0.56602 0.7423 0.96935 0.0
C757 C 0.5771 0.73688 0.00188 0.0
C758 C 0.56958 0.7383 0.04004 0.0
C759 C 0.52788 0.68447 0.20846 0.0
C760 C 0.54682 0.67935 0.21835 0.0
C761 C 0.52413 0.70137 0.18709 0.0
C762 C 0.53927 0.71327 0.1749 0.0
C763 C 0.55807 0.70841 0.18571 0.0
C764 C 0.56178 0.69178 0.20741 0.0
C765 C 0.53599 0.73035 0.14933 0.0
C766 C 0.54394 0.73036 0.11127 0.0
C767 C 0.52586 0.74673 0.16244 0.0
C768 C 0.51713 0.7476 0.2023 0.0
C769 C 0.52845 0.74517 0.23632 0.0
C770 C 0.52007 0.74599 0.2738 0.0
C771 C 0.50041 0.74938 0.27763 0.0
C772 C 0.4891 0.75201 0.24397 0.0
C773 C 0.49741 0.75119 0.20642 0.0
H774 H 0.49395 0.75002 0.30667 0.0
H775 H 0.57187 0.74119 0.93983 0.0
H776 H 0.68187 0.52371 0.83256 0.0
H777 H 0.71244 0.51743 0.86621 0.0
H778 H 0.73371 0.57229 0.8274 0.0
H779 H 0.70323 0.5787 0.79426 0.0
H780 H 0.76199 0.54501 0.82557 0.0
H781 H 0.71476 0.56919 0.9152 0.0
H782 H 0.68395 0.57032 0.95085 0.0
H783 H 0.69565 0.51524 0.00218 0.0
H784 H 0.72644 0.51366 0.96631 0.0
H785 H 0.81544 0.57175 0.01149 0.0
H786 H 0.78461 0.56627 0.97919 0.0
H787 H 0.80777 0.5163 0.92131 0.0
H788 H 0.83873 0.52164 0.95414 0.0
H789 H 0.7573 0.53815 0.97121 0.0
H790 H 0.79372 0.52093 0.82183 0.0
H791 H 0.82511 0.52566 0.78953 0.0
H792 H 0.8351 0.57564 0.86059 0.0
H793 H 0.80363 0.57147 0.89257 0.0
C794 C 0.69328 0.53416 0.83019 0.0
C795 C 0.69013 0.5517 0.8107 0.0
C796 C 0.71068 0.53064 0.84976 0.0
C797 C 0.72532 0.54449 0.84976 0.0
C798 C 0.72267 0.56138 0.82788 0.0
C799 C 0.70522 0.56502 0.80888 0.0
C800 C 0.74273 0.54225 0.87498 0.0
C801 C 0.76094 0.54318 0.85732 0.0
C802 C 0.74145 0.54046 0.91663 0.0
C803 C 0.72278 0.54117 0.9376 0.0
C804 C 0.71066 0.55721 0.93369 0.0
C805 C 0.69322 0.55796 0.95403 0.0
C806 C 0.68782 0.54283 0.97867 0.0
C807 C 0.69984 0.52692 0.983 0.0
C808 C 0.71728 0.52609 0.96266 0.0
C809 C 0.81376 0.55918 0.99303 0.0
C810 C 0.82949 0.5471 0.98544 0.0
C811 C 0.79612 0.55608 0.9745 0.0
C812 C 0.79391 0.54104 0.94736 0.0
C813 C 0.80917 0.52808 0.94195 0.0
C814 C 0.8268 0.53102 0.96103 0.0
C815 C 0.77652 0.54045 0.9217 0.0
C816 C 0.75833 0.53927 0.93931 0.0
C817 C 0.7778 0.54265 0.88014 0.0
C818 C 0.79647 0.54566 0.86007 0.0
C819 C 0.80259 0.53296 0.83041 0.0
C820 C 0.82038 0.53556 0.81214 0.0
C821 C 0.83214 0.55085 0.82324 0.0
C822 C 0.82603 0.56374 0.85219 0.0
C823 C 0.80821 0.56126 0.87039 0.0
H824 H 0.84599 0.5527 0.80943 0.0
H825 H 0.67435 0.54347 0.99451 0.0
H826 H 0.40398 0.31891 0.20072 0.0
H827 H 0.40876 0.28924 0.16404 0.0
H828 H 0.46997 0.29521 0.17597 0.0
H829 H 0.4653 0.32545 0.21231 0.0
H830 H 0.42932 0.28641 0.09157 0.0
H831 H 0.48595 0.24535 0.18225 0.0
H832 H 0.49651 0.24107 0.2513 0.0
H833 H 0.44027 0.25621 0.29243 0.0
H834 H 0.42935 0.26039 0.22368 0.0
H835 H 0.46466 0.17878 0.05376 0.0
H836 H 0.47063 0.21153 0.07775 0.0
H837 H 0.41066 0.22491 0.06266 0.0
H838 H 0.40491 0.19282 0.0378 0.0
H839 H 0.45667 0.22583 0.14376 0.0
H840 H 0.40078 0.26943 0.05479 0.0
H841 H 0.38826 0.2711 0.98674 0.0
H842 H 0.44178 0.24974 0.94203 0.0
H843 H 0.45459 0.24784 0.00986 0.0
C844 C 0.4185 0.31387 0.19609 0.0
C845 C 0.43427 0.32463 0.20952 0.0
C846 C 0.42119 0.29691 0.17487 0.0
C847 C 0.4397 0.29001 0.16707 0.0
C848 C 0.45554 0.30024 0.18171 0.0
C849 C 0.45285 0.3175 0.20253 0.0
C850 C 0.44214 0.27261 0.14199 0.0
C851 C 0.43533 0.27315 0.10295 0.0
C852 C 0.45041 0.25545 0.15641 0.0
C853 C 0.45696 0.25353 0.19786 0.0
C854 C 0.47588 0.24785 0.20607 0.0
C855 C 0.48191 0.24541 0.24514 0.0
C856 C 0.4691 0.24848 0.27624 0.0
C857 C 0.45022 0.25397 0.26833 0.0
C858 C 0.44412 0.25645 0.22932 0.0
C859 C 0.453 0.18904 0.05379 0.0
C860 C 0.43434 0.18327 0.04359 0.0
C861 C 0.45634 0.20769 0.06806 0.0
C862 C 0.44114 0.22086 0.07197 0.0
C863 C 0.42279 0.21535 0.05924 0.0
C864 C 0.41948 0.19688 0.04501 0.0
C865 C 0.44362 0.23947 0.09331 0.0
C866 C 0.45123 0.2392 0.1318 0.0
C867 C 0.43604 0.2569 0.07841 0.0
C868 C 0.42862 0.25846 0.03743 0.0
C869 C 0.40991 0.26518 0.03043 0.0
C870 C 0.40272 0.26605 0.99192 0.0
C871 C 0.41422 0.26053 0.96009 0.0
C872 C 0.43289 0.25401 0.96672 0.0
C873 C 0.44009 0.25294 0.00521 0.0
H874 H 0.40865 0.26131 0.93028 0.0
H875 H 0.47379 0.24652 0.30646 0.0
H876 H 0.82234 0.94053 0.3094 0.0
H877 H 0.79221 0.94588 0.34413 0.0
H878 H 0.81284 1.00061 0.38522 0.0
H879 H 0.84329 0.99519 0.35048 0.0
H880 H 0.79997 0.97907 0.44605 0.0
H881 H 0.7747 0.99798 0.32117 0.0
H882 H 0.76831 0.99569 0.24969 0.0
H883 H 0.73799 0.94289 0.26773 0.0
H884 H 0.74444 0.9447 0.33925 0.0
H885 H 0.695 0.99029 0.50846 0.0
H886 H 0.72622 0.99768 0.47819 0.0
H887 H 0.73899 0.93735 0.4711 0.0
H888 H 0.7083 0.92989 0.50187 0.0
H889 H 0.73437 0.96849 0.39401 0.0
H890 H 0.76727 0.94669 0.51561 0.0
H891 H 0.7744 0.94871 0.58684 0.0
H892 H 0.79009 0.00786 0.57354 0.0
H893 H 0.78274 0.00623 0.50225 0.0
C894 C 0.82023 0.95403 0.32461 0.0
C895 C 0.83518 0.96749 0.32691 0.0
C896 C 0.80296 0.95707 0.34463 0.0
C897 C 0.80017 0.97366 0.36743 0.0
C898 C 0.81464 0.98769 0.36786 0.0
C899 C 0.83194 0.9847 0.34751 0.0
C900 C 0.78293 0.97527 0.39341 0.0
C901 C 0.7856 0.97719 0.43444 0.0
C902 C 0.76412 0.97256 0.37865 0.0
C903 C 0.76015 0.97143 0.33561 0.0
C904 C 0.76678 0.98581 0.30988 0.0
C905 C 0.76313 0.98461 0.26935 0.0
C906 C 0.75277 0.96914 0.25417 0.0
C907 C 0.74601 0.95486 0.27952 0.0
C908 C 0.74964 0.95599 0.32008 0.0
C909 C 0.70483 0.97866 0.50212 0.0
C910 C 0.69913 0.95949 0.50757 0.0
C911 C 0.72261 0.9829 0.48453 0.0
C912 C 0.73491 0.96804 0.47243 0.0
C913 C 0.7298 0.94903 0.4805 0.0
C914 C 0.71222 0.94481 0.4982 0.0
C915 C 0.75157 0.97185 0.44626 0.0
C916 C 0.74874 0.97085 0.40528 0.0
C917 C 0.77018 0.97534 0.46099 0.0
C918 C 0.77406 0.97645 0.50387 0.0
C919 C 0.77186 0.96022 0.52803 0.0
C920 C 0.77606 0.96127 0.56836 0.0
C921 C 0.78258 0.97844 0.58476 0.0
C922 C 0.78496 0.99459 0.56084 0.0
C923 C 0.78077 0.99362 0.52049 0.0
H924 H 0.78588 0.97921 0.61596 0.0
H925 H 0.74997 0.96824 0.22278 0.0
H926 H 0.07486 0.30491 0.53508 0.0
H927 H 0.06675 0.27573 0.57104 0.0
H928 H 0.00768 0.29359 0.57679 0.0
H929 H 0.01579 0.32326 0.54118 0.0
H930 H 0.04513 0.28422 0.65302 0.0
H931 H 0.98845 0.24057 0.57451 0.0
H932 H 0.97651 0.23398 0.50721 0.0
H933 H 0.03305 0.24256 0.46036 0.0
H934 H 0.04534 0.24892 0.5274 0.0
H935 H 0.00899 0.18062 0.72055 0.0
H936 H 0.00382 0.21067 0.68415 0.0
H937 H 0.06326 0.22553 0.70119 0.0
H938 H 0.0683 0.19609 0.73807 0.0
H939 H 0.01825 0.22089 0.61647 0.0
H940 H 0.07186 0.27195 0.69807 0.0
H941 H 0.08137 0.28034 0.76603 0.0
H942 H 0.02782 0.25881 0.80993 0.0
H943 H 0.01787 0.25051 0.74218 0.0
C944 C 0.05999 0.30236 0.54263 0.0
C945 C 0.04599 0.31647 0.5354 0.0
C946 C 0.0554 0.28569 0.56339 0.0
C947 C 0.03667 0.28258 0.57682 0.0
C948 C 0.02222 0.29572 0.5665 0.0
C949 C 0.02685 0.31257 0.54581 0.0
C950 C 0.0332 0.26718 0.60623 0.0
C951 C 0.03931 0.27031 0.64515 0.0
C952 C 0.02485 0.24942 0.59623 0.0
C953 C 0.01772 0.24552 0.55585 0.0
C954 C 0.99831 0.24104 0.54981 0.0
C955 C 0.99149 0.23733 0.51174 0.0
C956 C 0.00399 0.23795 0.47951 0.0
C957 C 0.02336 0.2422 0.48531 0.0
C958 C 0.03025 0.24592 0.52334 0.0
C959 C 0.02078 0.1906 0.71756 0.0
C960 C 0.03905 0.18594 0.73235 0.0
C961 C 0.01785 0.20771 0.69642 0.0
C962 C 0.0331 0.22055 0.68997 0.0
C963 C 0.05111 0.2162 0.70628 0.0
C964 C 0.05401 0.19922 0.72733 0.0
C965 C 0.03095 0.23755 0.66341 0.0
C966 C 0.02376 0.23483 0.62492 0.0
C967 C 0.03812 0.25587 0.67399 0.0
C968 C 0.04418 0.26046 0.71499 0.0
C969 C 0.0621 0.26901 0.7222 0.0
C970 C 0.06757 0.27374 0.7607 0.0
C971 C 0.05523 0.27006 0.79229 0.0
C972 C 0.0374 0.2616 0.78544 0.0
C973 C 0.03185 0.25683 0.74699 0.0
H974 H 0.05947 0.2738 0.82206 0.0
H975 H 0.99869 0.23507 0.45005 0.0
H976 H 0.0699 0.07089 0.27838 0.0
H977 H 0.04081 0.05235 0.28684 0.0
H978 H 0.07373 1.00006 0.28744 0.0
H979 H 0.10346 0.01866 0.27955 0.0
H980 H 0.0353 1.00101 0.24105 0.0
H981 H 0.06363 0.01209 0.36941 0.0
H982 H 0.07876 0.03247 0.42006 0.0
H983 H 0.02862 0.06819 0.42359 0.0
H984 H 0.01332 0.04822 0.37235 0.0
H985 H 0.96256 0.95414 0.37931 0.0
H986 H 0.99283 0.97114 0.3697 0.0
H987 H 0.96698 0.00503 0.27738 0.0
H988 H 0.93642 0.98824 0.28737 0.0
H989 H 0.00356 0.01064 0.37091 0.0
H990 H 1.00197 0.00485 0.20112 0.0
H991 H 0.98656 0.9851 0.14975 0.0
H992 H 0.98348 0.93764 0.23027 0.0
H993 H 0.99931 0.95695 0.28179 0.0
C994 C 0.07116 0.05543 0.2798 0.0
C995 C 0.08921 0.04632 0.27867 0.0
C996 C 0.05439 0.04486 0.28458 0.0
C997 C 0.05513 0.02489 0.28801 0.0
C998 C 0.07291 0.01551 0.28477 0.0
C999 C 0.08987 0.02616 0.28034 0.0
C1000 C 0.03738 0.01432 0.29825 0.0
C1001 C 0.0284 0.00299 0.26948 0.0
C1002 C 0.0284 0.01696 0.33536 0.0
C1003 C 0.03739 0.02874 0.36683 0.0
C1004 C 0.05588 0.02437 0.38077 0.0
C1005 C 0.06449 0.03584 0.4096 0.0
C1006 C 0.05466 0.05162 0.42501 0.0
C1007 C 0.03621 0.05595 0.41163 0.0
C1008 C 0.02756 0.04456 0.38271 0.0
C1009 C 0.96318 0.96553 0.35759 0.0
C1010 C 0.9471 0.96989 0.33412 0.0
C1011 C 0.98049 0.97522 0.35213 0.0
C1012 C 0.9822 0.98917 0.32254 0.0
C1013 C 0.96596 0.99421 0.30024 0.0
C1014 C 0.94848 0.98473 0.30618 0.0
C1015 C 1.00129 0.99751 0.31355 0.0
C1016 C 0.01048 0.00851 0.34255 0.0
C1017 C 0.01047 0.99447 0.27672 0.0
C1018 C 1.00162 0.98246 0.24547 0.0
C1019 C 0.99812 0.99017 0.20778 0.0
C1020 C 0.9893 0.97904 0.17863 0.0
C1021 C 0.98394 0.96016 0.18679 0.0
C1022 C 0.98756 0.9523 0.22402 0.0
C1023 C 0.99646 0.96333 0.2532 0.0
H1024 H 0.97702 0.9516 0.16428 0.0
H1025 H 0.06133 0.06045 0.44739 0.0
H1026 H 0.97912 0.58026 0.56601 0.0
H1027 H 0.99847 0.55081 0.56557 0.0
H1028 H 0.95688 0.52369 0.48987 0.0
H1029 H 0.93759 0.55277 0.49002 0.0
H1030 H 0.98921 0.51345 0.58969 0.0
H1031 H 0.98101 0.49578 0.42348 0.0
H1032 H 0.97662 0.51284 0.36025 0.0
H1033 H 0.00413 0.56264 0.40843 0.0
H1034 H 0.00895 0.54579 0.47171 0.0
H1035 H 0.01641 0.41625 0.55172 0.0
H1036 H 0.99773 0.44615 0.54859 0.0
H1037 H 0.04687 0.47573 0.50129 0.0
H1038 H 0.06558 0.44616 0.5048 0.0
H1039 H 0.01252 0.48572 0.46344 0.0
H1040 H 0.03892 0.47999 0.59398 0.0
H1041 H 0.04497 0.4635 0.65719 0.0
H1042 H 0.98454 0.46247 0.68124 0.0
H1043 H 0.9781 0.47864 0.61773 0.0
C1044 C 0.97415 0.56806 0.54911 0.0
C1045 C 0.9568 0.56897 0.52798 0.0
C1046 C 0.98517 0.55121 0.5491 0.0
C1047 C 0.97916 0.53509 0.52752 0.0
C1048 C 0.96188 0.53599 0.50645 0.0
C1049 C 0.95084 0.55268 0.50667 0.0
C1050 C 0.99085 0.51725 0.52663 0.0
C1051 C 0.99431 0.5074 0.5621 0.0
C1052 C 0.99766 0.50942 0.49066 0.0
C1053 C 0.99517 0.51957 0.45246 0.0
C1054 C 0.98621 0.51034 0.42051 0.0
C1055 C 0.98363 0.51998 0.38467 0.0
C1056 C 0.99004 0.53883 0.38037 0.0
C1057 C 0.99911 0.54806 0.41184 0.0
C1058 C 1.00175 0.53848 0.44772 0.0
C1059 C 0.02309 0.42906 0.54003 0.0
C1060 C 0.04246 0.42889 0.52866 0.0
C1061 C 0.01246 0.44614 0.53847 0.0
C1062 C 0.02098 0.46319 0.52498 0.0
C1063 C 0.04002 0.46277 0.51181 0.0
C1064 C 0.0507 0.44586 0.51397 0.0
C1065 C 0.01051 0.48173 0.52636 0.0
C1066 C 0.00732 0.49173 0.49099 0.0
C1067 C 0.00417 0.4898 0.56245 0.0
C1068 C 0.00801 0.48034 0.60091 0.0
C1069 C 0.02691 0.47611 0.61259 0.0
C1070 C 0.03041 0.46683 0.64849 0.0
C1071 C 0.01515 0.46189 0.67318 0.0
C1072 C 0.99635 0.46628 0.66205 0.0
C1073 C 0.99276 0.4755 0.62611 0.0
H1074 H 0.01789 0.45472 0.70096 0.0
H1075 H 0.988 0.54627 0.35262 0.0
H1076 H 0.43076 0.47627 0.83061 0.0
H1077 H 0.45812 0.49845 0.8271 0.0
H1078 H 0.49192 0.45477 0.76991 0.0
H1079 H 0.46499 0.43247 0.77423 0.0
H1080 H 0.49788 0.49132 0.85885 0.0
H1081 H 0.5149 0.48121 0.69284 0.0
H1082 H 0.49787 0.47506 0.6302 0.0
H1083 H 0.44661 0.49998 0.67817 0.0
H1084 H 0.46339 0.50656 0.74078 0.0
H1085 H 0.59236 0.52471 0.81547 0.0
H1086 H 0.56359 0.50453 0.81731 0.0
H1087 H 0.53098 0.54959 0.7616 0.0
H1088 H 0.55948 0.56979 0.7597 0.0
H1089 H 0.52276 0.51435 0.72993 0.0
H1090 H 0.52736 0.54367 0.85773 0.0
H1091 H 0.54337 0.55226 0.92019 0.0
H1092 H 0.54893 0.49265 0.94981 0.0
H1093 H 0.53323 0.4837 0.88715 0.0
C1094 C 0.44401 0.47145 0.8172 0.0
C1095 C 0.44573 0.45262 0.80277 0.0
C1096 C 0.45963 0.48407 0.81542 0.0
C1097 C 0.47701 0.47822 0.79824 0.0
C1098 C 0.47863 0.45956 0.78325 0.0
C1099 C 0.46323 0.44684 0.7858 0.0
C1100 C 0.49362 0.49145 0.79587 0.0
C1101 C 0.50333 0.49638 0.83071 0.0
C1102 C 0.50058 0.49818 0.75918 0.0
C1103 C 0.49036 0.49417 0.72166 0.0
C1104 C 0.5 0.4854 0.68999 0.0
C1105 C 0.49039 0.48185 0.65447 0.0
C1106 C 0.47116 0.4871 0.65025 0.0
C1107 C 0.46148 0.49586 0.68153 0.0
C1108 C 0.47102 0.49946 0.71706 0.0
C1109 C 0.57912 0.53025 0.80325 0.0
C1110 C 0.57825 0.54892 0.78758 0.0
C1111 C 0.56266 0.51874 0.80451 0.0
C1112 C 0.54509 0.52562 0.78988 0.0
C1113 C 0.54436 0.54398 0.77309 0.0
C1114 C 0.56069 0.55554 0.77218 0.0
C1115 C 0.52731 0.51396 0.79287 0.0
C1116 C 0.51738 0.50926 0.75812 0.0
C1117 C 0.52001 0.50767 0.82971 0.0
C1118 C 0.52929 0.51301 0.86757 0.0
C1119 C 0.53213 0.53239 0.87741 0.0
C1120 C 0.54113 0.53733 0.91287 0.0
C1121 C 0.5472 0.52301 0.93891 0.0
C1122 C 0.54424 0.50373 0.92958 0.0
C1123 C 0.53529 0.49871 0.89411 0.0
H1124 H 0.55416 0.52686 0.96636 0.0
H1125 H 0.46376 0.48443 0.62269 0.0
H1126 H 0.54689 0.95147 0.98942 0.0
H1127 H 0.52643 0.97932 -0.00387 0.0
H1128 H 0.48005 0.94353 0.03608 0.0
H1129 H 0.50081 0.91501 0.03024 0.0
H1130 H 0.47123 0.97505 0.97574 0.0
H1131 H 0.50022 0.96486 0.10318 0.0
H1132 H 0.52751 0.95841 0.14752 0.0
H1133 H 0.55474 0.01036 0.1093 0.0
H1134 H 0.52777 0.01693 0.06409 0.0
H1135 H 0.41452 0.05013 0.05238 0.0
H1136 H 0.43263 0.02096 0.04103 0.0
H1137 H 0.48467 0.05386 0.03082 0.0
H1138 H 0.46647 0.08355 0.04269 0.0
H1139 H 0.49027 0.02298 0.07667 0.0
H1140 H 0.46399 0.03352 0.94916 0.0
H1141 H 0.44013 0.03945 0.89679 0.0
H1142 H 0.41038 0.98791 0.92874 0.0
H1143 H 0.43395 0.98175 0.98162 0.0
C1144 C 0.53232 0.94925 -0.00058 0.0
C1145 C 0.52563 0.93081 0.00967 0.0
C1146 C 0.52063 0.96534 0.00323 0.0
C1147 C 0.50183 0.96356 0.01704 0.0
C1148 C 0.4946 0.94518 0.02548 0.0
C1149 C 0.50646 0.92891 0.02207 0.0
C1150 C 0.49032 0.98121 0.02384 0.0
C1151 C 0.47504 0.98537 -0.00162 0.0
C1152 C 0.49597 0.99502 0.0522 0.0
C1153 C 0.51203 0.99131 0.07999 0.0
C1154 C 0.51209 0.97484 0.10398 0.0
C1155 C 0.5275 0.97116 0.1293 0.0
C1156 C 0.54286 0.98395 0.13119 0.0
C1157 C 0.54283 1.00046 0.1078 0.0
C1158 C 0.52748 0.00417 0.08233 0.0
C1159 C 0.42983 0.05135 0.0477 0.0
C1160 C 0.439 0.06935 0.04865 0.0
C1161 C 0.44017 0.03453 0.04086 0.0
C1162 C 0.46001 0.03512 0.03459 0.0
C1163 C 0.46934 0.05302 0.03546 0.0
C1164 C 0.45892 0.07 0.04214 0.0
C1165 C 0.4709 0.0169 0.02871 0.0
C1166 C 0.4862 0.01265 0.05427 0.0
C1167 C 0.46543 0.00311 1e-05 0.0
C1168 C 0.45067 0.00726 0.96959 0.0
C1169 C 0.45223 0.02357 0.94536 0.0
C1170 C 0.43883 0.02691 0.91542 0.0
C1171 C 0.42383 0.014 0.90931 0.0
C1172 C 0.42206 0.99784 0.93341 0.0
C1173 C 0.43545 0.99441 0.96335 0.0
H1174 H 0.41354 0.01654 0.88594 0.0
H1175 H 0.55477 0.98109 0.15084 0.0
H1176 H 0.09671 0.48895 0.00216 0.0
H1177 H 0.06805 0.50941 -0.00334 0.0
H1178 H 0.03327 0.46374 0.04356 0.0
H1179 H 0.06139 0.4435 0.0496 0.0
H1180 H 0.01818 0.47913 0.975 0.0
H1181 H 0.04369 0.50099 0.10002 0.0
H1182 H 0.06849 0.51466 0.14357 0.0
H1183 H 0.06983 0.56581 0.07302 0.0
H1184 H 0.04521 0.55232 0.0287 0.0
H1185 H 0.92884 0.52483 0.0128 0.0
H1186 H 0.95891 0.50676 0.01716 0.0
H1187 H 0.99074 0.55806 0.98979 0.0
H1188 H 0.96101 0.57623 0.98689 0.0
H1189 H 0.00844 0.54073 0.04525 0.0
H1190 H 0.98298 0.52035 0.92104 0.0
H1191 H 0.9589 0.50724 0.87512 0.0
H1192 H 0.95842 0.45423 0.93964 0.0
H1193 H 0.98232 0.46713 0.98627 0.0
C1194 C 0.083 0.48336 0.01175 0.0
C1195 C 0.0815 0.46449 0.02621 0.0
C1196 C 0.06662 0.49506 0.00852 0.0
C1197 C 0.04847 0.48805 0.0195 0.0
C1198 C 0.04706 0.46942 0.03461 0.0
C1199 C 0.06329 0.45787 0.03816 0.0
C1200 C 0.03071 0.49971 0.01468 0.0
C1201 C 0.01597 0.49254 0.99059 0.0
C1202 C 0.02801 0.51744 0.03414 0.0
C1203 C 0.04278 0.52555 0.06079 0.0
C1204 C 0.0494 0.51508 0.09358 0.0
C1205 C 0.0634 0.52281 0.11845 0.0
C1206 C 0.07078 0.54107 0.11099 0.0
C1207 C 0.06413 0.55165 0.07871 0.0
C1208 C 0.05015 0.54398 0.05373 0.0
C1209 C 0.94223 0.53223 0.00752 0.0
C1210 C 0.9424 0.55201 -0.0006 0.0
C1211 C 0.95946 0.52186 0.00987 0.0
C1212 C 0.97722 0.53095 0.00334 0.0
C1213 C 0.97734 0.55066 0.99507 0.0
C1214 C 0.96022 0.56104 0.99326 0.0
C1215 C 0.99571 0.52011 0.00569 0.0
C1216 C 0.01061 0.52741 0.02934 0.0
C1217 C 0.99866 0.50259 0.98538 0.0
C1218 C 0.98431 0.49478 0.95737 0.0
C1219 C 0.97764 0.50595 0.9256 0.0
C1220 C 0.96403 0.49855 0.89942 0.0
C1221 C 0.95709 0.47993 0.90452 0.0
C1222 C 0.96378 0.46866 0.93576 0.0
C1223 C 0.97737 0.476 0.96205 0.0
H1224 H 0.94656 0.47422 0.88421 0.0
H1225 H 0.08161 0.54703 0.13029 0.0
H1226 H 0.43655 0.44707 0.31571 0.0
H1227 H 0.45733 0.4751 0.31299 0.0
H1228 H 0.48614 0.45158 0.21111 0.0
H1229 H 0.46573 0.42302 0.21465 0.0
H1230 H 0.51122 0.46909 0.25415 0.0
H1231 H 0.45083 0.48647 0.20218 0.0
H1232 H 0.41562 0.48919 0.19988 0.0
H1233 H 0.41643 0.52508 0.30288 0.0
H1234 H 0.45165 0.52232 0.30621 0.0
H1235 H 0.52222 0.58044 0.22011 0.0
H1236 H 0.50264 0.55135 0.21489 0.0
H1237 H 0.53508 0.52554 0.30961 0.0
H1238 H 0.55507 0.55407 0.3137 0.0
H1239 H 0.47929 0.53269 0.25849 0.0
H1240 H 0.54013 0.47845 0.29902 0.0
H1241 H 0.5752 0.47574 0.29135 0.0
H1242 H 0.5733 0.51382 0.19174 0.0
H1243 H 0.53821 0.51649 0.19833 0.0
C1244 C 0.44746 0.44773 0.29298 0.0
C1245 C 0.4494 0.43286 0.26522 0.0
C1246 C 0.45926 0.46386 0.29128 0.0
C1247 C 0.47299 0.46577 0.26117 0.0
C1248 C 0.47558 0.45054 0.23447 0.0
C1249 C 0.46394 0.43419 0.23656 0.0
C1250 C 0.48416 0.48389 0.2572 0.0
C1251 C 0.50423 0.48298 0.25505 0.0
C1252 C 0.47507 0.5021 0.25678 0.0
C1253 C 0.45389 0.50407 0.25461 0.0
C1254 C 0.4435 0.49486 0.22449 0.0
C1255 C 0.42353 0.4964 0.223 0.0
C1256 C 0.41379 0.50727 0.25126 0.0
C1257 C 0.424 0.51666 0.28102 0.0
C1258 C 0.44397 0.51512 0.28271 0.0
C1259 C 0.52508 0.56857 0.2399 0.0
C1260 C 0.54032 0.56948 0.26702 0.0
C1261 C 0.51389 0.55194 0.23689 0.0
C1262 C 0.51763 0.53599 0.2612 0.0
C1263 C 0.53225 0.53733 0.2896 0.0
C1264 C 0.54361 0.55374 0.29211 0.0
C1265 C 0.50641 0.5179 0.25704 0.0
C1266 C 0.4863 0.51881 0.25746 0.0
C1267 C 0.51545 0.49971 0.25422 0.0
C1268 C 0.53653 0.49779 0.24941 0.0
C1269 C 0.54718 0.48614 0.27531 0.0
C1270 C 0.56706 0.48463 0.27117 0.0
C1271 C 0.57647 0.49464 0.24114 0.0
C1272 C 0.566 0.50611 0.21505 0.0
C1273 C 0.54611 0.50763 0.21898 0.0
H1274 H 0.59188 0.49349 0.23806 0.0
H1275 H 0.39833 0.50844 0.25007 0.0
H1276 H 0.43348 0.02599 0.50555 0.0
H1277 H 0.46482 0.01023 0.50237 0.0
H1278 H 0.48877 0.05392 0.57767 0.0
H1279 H 0.45775 0.06989 0.5805 0.0
H1280 H 0.5122 0.04748 0.51793 0.0
H1281 H 0.47959 0.00827 0.61236 0.0
H1282 H 0.45334 0.98825 0.63827 0.0
H1283 H 0.46148 0.94819 0.54344 0.0
H1284 H 0.48761 0.96811 0.51664 0.0
H1285 H 0.6004 0.99175 0.54298 0.0
H1286 H 0.5713 0.011 0.55518 0.0
H1287 H 0.53927 0.97417 0.47714 0.0
H1288 H 0.56762 0.95514 0.46517 0.0
H1289 H 0.52117 0.97835 0.54653 0.0
H1290 H 0.55203 0.01899 0.44957 0.0
H1291 H 0.57825 0.03905 0.42363 0.0
H1292 H 0.57357 0.07627 0.5242 0.0
H1293 H 0.54747 0.05626 0.55101 0.0
C1294 C 0.44535 0.03213 0.52181 0.0
C1295 C 0.44297 0.04922 0.54333 0.0
C1296 C 0.46329 0.0231 0.51999 0.0
C1297 C 0.4792 0.03081 0.54001 0.0
C1298 C 0.47679 0.04771 0.56187 0.0
C1299 C 0.45894 0.05677 0.56357 0.0
C1300 C 0.49842 0.02151 0.53757 0.0
C1301 C 0.51421 0.03243 0.52481 0.0
C1302 C 0.50112 1.00184 0.54619 0.0
C1303 C 0.48546 0.98978 0.56232 0.0
C1304 C 0.47569 0.99526 0.59688 0.0
C1305 C 0.46085 0.98392 0.61174 0.0
C1306 C 0.45572 0.96698 0.59247 0.0
C1307 C 0.46546 0.96132 0.55832 0.0
C1308 C 0.4803 0.97263 0.54331 0.0
C1309 C 0.58721 0.98797 0.52807 0.0
C1310 C 0.58643 0.97177 0.50335 0.0
C1311 C 0.57058 0.99894 0.5351 0.0
C1312 C 0.55303 0.99389 0.51733 0.0
C1313 C 0.55253 0.97822 0.4916 0.0
C1314 C 0.56891 0.96736 0.48468 0.0
C1315 C 0.5348 0.00419 0.52599 0.0
C1316 C 0.51919 0.99346 0.54007 0.0
C1317 C 0.5323 0.02399 0.51862 0.0
C1318 C 0.54798 0.036 0.50254 0.0
C1319 C 0.55671 0.03135 0.46634 0.0
C1320 C 0.57152 0.04273 0.45144 0.0
C1321 C 0.57762 0.05889 0.47232 0.0
C1322 C 0.56887 0.06373 0.5081 0.0
C1323 C 0.55406 0.05238 0.52315 0.0
H1324 H 0.58908 0.06769 0.46073 0.0
H1325 H 0.44422 0.95822 0.60402 0.0
H1326 H 0.04364 0.06313 0.82387 0.0
H1327 H 0.02609 0.03294 0.82195 0.0
H1328 H 0.99662 0.05157 0.71659 0.0
H1329 H 0.01385 0.08233 0.71934 0.0
H1330 H 0.97318 0.03066 0.76004 0.0
H1331 H 0.03549 0.02222 0.71009 0.0
H1332 H 0.07069 0.02509 0.70814 0.0
H1333 H 0.07525 0.99032 0.81242 0.0
H1334 H 0.04004 0.98755 0.81547 0.0
H1335 H 0.97738 0.91832 0.73673 0.0
H1336 H 0.99337 0.94945 0.72851 0.0
H1337 H 0.95857 0.97307 0.82202 0.0
H1338 H 0.94221 0.94244 0.8292 0.0
H1339 H 0.01427 0.97265 0.76944 0.0
H1340 H 0.94574 0.01818 0.80473 0.0
H1341 H 0.91073 0.01527 0.79672 0.0
H1342 H 0.91886 0.97524 0.70185 0.0
H1343 H 0.9539 0.97819 0.70874 0.0
C1344 C 0.03311 0.06096 0.80076 0.0
C1345 C 0.03013 0.07501 0.77167 0.0
C1346 C 0.0232 0.04363 0.79948 0.0
C1347 C 0.01045 0.0397 0.76845 0.0
C1348 C 0.00652 0.05419 0.74064 0.0
C1349 C 0.01627 0.07179 0.74231 0.0
C1350 C 1.00211 0.02012 0.76449 0.0
C1351 C 0.98215 0.01799 0.76201 0.0
C1352 C 0.01384 0.00349 0.7652 0.0
C1353 C 0.03508 0.00477 0.76314 0.0
C1354 C 0.04398 0.01526 0.73274 0.0
C1355 C 0.06394 0.01689 0.73144 0.0
C1356 C 0.0752 0.00791 0.76017 0.0
C1357 C 0.06651 0.99727 0.79019 0.0
C1358 C 0.04654 0.99565 0.79171 0.0
C1359 C 0.97338 0.93012 0.75584 0.0
C1360 C 0.95844 0.928 0.78337 0.0
C1361 C 0.98246 0.94792 0.75104 0.0
C1362 C 0.97683 0.96382 0.77389 0.0
C1363 C 0.96277 0.96127 0.8031 0.0
C1364 C 0.95353 0.94368 0.80743 0.0
C1365 C 0.98527 0.9832 0.76715 0.0
C1366 C 0.00527 0.9853 0.76728 0.0
C1367 C 0.97359 0.99974 0.76255 0.0
C1368 C 0.95249 0.99831 0.7575 0.0
C1369 C 0.94007 0.00887 0.78196 0.0
C1370 C 0.92021 0.0072 0.77764 0.0
C1371 C 0.91257 0.99505 0.74887 0.0
C1372 C 0.92479 0.98461 0.7242 0.0
C1373 C 0.94465 0.98628 0.7283 0.0
H1374 H 0.8972 0.99373 0.74565 0.0
H1375 H 0.09065 0.00919 0.75912 0.0
H1376 H 0.10658 0.13642 0.69878 0.0
H1377 H 0.12887 0.13217 0.64314 0.0
H1378 H 0.08639 0.09836 0.58229 0.0
H1379 H 0.06433 0.10215 0.63825 0.0
H1380 H 0.13491 0.08734 0.59602 0.0
H1381 H 0.08538 0.13346 0.50627 0.0
H1382 H 0.06596 0.16293 0.51224 0.0
H1383 H 0.10738 0.18661 0.59235 0.0
H1384 H 0.12718 0.1574 0.5861 0.0
H1385 H 0.12587 0.05821 0.40359 0.0
H1386 H 0.12314 0.07015 0.47119 0.0
H1387 H 0.15616 0.12018 0.43955 0.0
H1388 H 0.15889 0.10806 0.37147 0.0
H1389 H 0.12435 0.12958 0.48027 0.0
H1390 H 0.17628 0.088 0.49995 0.0
H1391 H 0.19593 0.05874 0.49457 0.0
H1392 H 0.15281 0.02671 0.55635 0.0
H1393 H 0.13279 0.05572 0.56181 0.0
C1394 C 0.10228 0.12772 0.6738 0.0
C1395 C 0.08418 0.11896 0.67296 0.0
C1396 C 0.11488 0.12545 0.64216 0.0
C1397 C 0.10919 0.11485 0.60914 0.0
C1398 C 0.09097 0.10642 0.60797 0.0
C1399 C 0.07844 0.10859 0.63965 0.0
C1400 C 0.12162 0.1131 0.57447 0.0
C1401 C 0.13303 0.0967 0.57078 0.0
C1402 C 0.11939 0.12567 0.54225 0.0
C1403 C 0.10774 0.14333 0.54557 0.0
C1404 C 0.09042 0.14506 0.52473 0.0
C1405 C 0.07933 0.16168 0.52827 0.0
C1406 C 0.08543 0.17664 0.55265 0.0
C1407 C 0.10266 0.17502 0.57348 0.0
C1408 C 0.11381 0.15843 0.56996 0.0
C1409 C 0.13249 0.07176 0.41121 0.0
C1410 C 0.14198 0.08263 0.38252 0.0
C1411 C 0.13113 0.07847 0.44976 0.0
C1412 C 0.13971 0.0959 0.46042 0.0
C1413 C 0.14954 0.10665 0.43185 0.0
C1414 C 0.15089 0.09989 0.3931 0.0
C1415 C 0.13701 0.10324 0.50088 0.0
C1416 C 0.12713 0.12059 0.50565 0.0
C1417 C 0.14104 0.09168 0.53425 0.0
C1418 C 0.15299 0.07409 0.53119 0.0
C1419 C 0.17092 0.0747 0.51219 0.0
C1420 C 0.18214 0.05815 0.50914 0.0
C1421 C 0.17561 0.04087 0.52502 0.0
C1422 C 0.15786 0.04011 0.54408 0.0
C1423 C 0.14659 0.05663 0.54726 0.0
H1424 H 0.18432 0.02807 0.52264 0.0
H1425 H 0.07681 0.18948 0.55542 0.0
H1426 H 0.91289 0.59069 0.64609 0.0
H1427 H 0.88915 0.58957 0.69888 0.0
H1428 H 0.85766 0.6356 0.64344 0.0
H1429 H 0.88135 0.63634 0.5898 0.0
H1430 H 0.87275 0.64509 0.71512 0.0
H1431 H 0.82638 0.59847 0.67931 0.0
H1432 H 0.81224 0.56896 0.65157 0.0
H1433 H 0.85111 0.53472 0.72019 0.0
H1434 H 0.86523 0.56398 0.74879 0.0
H1435 H 0.86081 0.61291 0.93215 0.0
H1436 H 0.84971 0.62721 0.86989 0.0
H1437 H 0.89514 0.59798 0.80772 0.0
H1438 H 0.90515 0.58253 0.86918 0.0
H1439 H 0.85018 0.58977 0.794 0.0
H1440 H 0.90128 0.65345 0.7594 0.0
H1441 H 0.911 0.68472 0.78679 0.0
H1442 H 0.85976 0.68658 0.85696 0.0
H1443 H 0.84953 0.65557 0.82927 0.0
C1444 C 0.90044 0.59995 0.6444 0.0
C1445 C 0.89869 0.61339 0.61398 0.0
C1446 C 0.88672 0.59918 0.67421 0.0
C1447 C 0.87145 0.61235 0.67482 0.0
C1448 C 0.86909 0.62508 0.64309 0.0
C1449 C 0.88265 0.62557 0.61271 0.0
C1450 C 0.86215 0.6161 0.71319 0.0
C1451 C 0.86723 0.6332 0.73235 0.0
C1452 C 0.85417 0.60099 0.7354 0.0
C1453 C 0.84678 0.58339 0.71628 0.0
C1454 C 0.83197 0.58464 0.68827 0.0
C1455 C 0.82388 0.56796 0.67261 0.0
C1456 C 0.83076 0.54998 0.68412 0.0
C1457 C 0.84576 0.54864 0.71134 0.0
C1458 C 0.85372 0.56526 0.72748 0.0
C1459 C 0.8688 0.61019 0.90528 0.0
C1460 C 0.88397 0.59691 0.90509 0.0
C1461 C 0.86252 0.61843 0.86989 0.0
C1462 C 0.87181 0.61387 0.83443 0.0
C1463 C 0.88798 0.60185 0.83501 0.0
C1464 C 0.89373 0.59306 0.86995 0.0
C1465 C 0.86297 0.61781 0.79578 0.0
C1466 C 0.85457 0.60209 0.77667 0.0
C1467 C 0.86789 0.6342 0.77371 0.0
C1468 C 0.87479 0.65202 0.79275 0.0
C1469 C 0.89214 0.66049 0.78082 0.0
C1470 C 0.89767 0.67825 0.79615 0.0
C1471 C 0.88599 0.68765 0.82355 0.0
C1472 C 0.86881 0.67926 0.8358 0.0
C1473 C 0.8632 0.66154 0.82046 0.0
H1474 H 0.8903 0.70138 0.83543 0.0
H1475 H 0.82451 0.5371 0.67185 0.0
H1476 H 0.39901 0.41474 0.13829 0.0
H1477 H 0.37428 0.41344 0.08738 0.0
H1478 H 0.34449 0.36958 0.15306 0.0
H1479 H 0.36896 0.37143 0.20477 0.0
H1480 H 0.36327 0.35725 0.08494 0.0
H1481 H 0.31207 0.39756 0.10634 0.0
H1482 H 0.29308 0.42508 0.12999 0.0
H1483 H 0.32613 0.46308 0.05725 0.0
H1484 H 0.34528 0.43581 0.03293 0.0
H1485 H 0.37224 0.38312 0.86584 0.0
H1486 H 0.3564 0.3685 0.92303 0.0
H1487 H 0.38663 0.40733 0.00014 0.0
H1488 H 0.40175 0.42253 0.94288 0.0
H1489 H 0.34097 0.40733 0.99208 0.0
H1490 H 0.39781 0.35687 0.05486 0.0
H1491 H 0.41732 0.32851 0.03801 0.0
H1492 H 0.37586 0.31189 0.95082 0.0
H1493 H 0.35599 0.34007 0.96747 0.0
C1494 C 0.38669 0.40552 0.14255 0.0
C1495 C 0.38572 0.39321 0.17499 0.0
C1496 C 0.37237 0.40498 0.11394 0.0
C1497 C 0.35745 0.39146 0.11662 0.0
C1498 C 0.35565 0.38031 0.15083 0.0
C1499 C 0.36975 0.38121 0.17994 0.0
C1500 C 0.34926 0.38463 0.07915 0.0
C1501 C 0.35771 0.36785 0.06442 0.0
C1502 C 0.34107 0.39786 0.05265 0.0
C1503 C 0.32996 0.41455 0.06741 0.0
C1504 C 0.31528 0.41178 0.09532 0.0
C1505 C 0.30442 0.42733 0.10869 0.0
C1506 C 0.30831 0.44579 0.09488 0.0
C1507 C 0.32305 0.44874 0.06763 0.0
C1508 C 0.33382 0.43321 0.05381 0.0
C1509 C 0.37604 0.38796 0.89522 0.0
C1510 C 0.38825 0.4038 0.90041 0.0
C1511 C 0.36697 0.37962 0.92771 0.0
C1512 C 0.3704 0.38686 0.96556 0.0
C1513 C 0.3839 0.40157 0.97093 0.0
C1514 C 0.39257 0.4102 0.93846 0.0
C1515 C 0.35808 0.38184 -0.0008 0.0
C1516 C 0.34544 0.39616 0.01239 0.0
C1517 C 0.36295 0.36661 0.02462 0.0
C1518 C 0.37553 0.35065 0.01208 0.0
C1519 C 0.39291 0.3472 0.03193 0.0
C1520 C 0.40397 0.33112 0.02264 0.0
C1521 C 0.39778 0.31838 0.99352 0.0
C1522 C 0.38059 0.32176 0.97345 0.0
C1523 C 0.36949 0.33787 0.98259 0.0
H1524 H 0.40648 0.30607 0.9861 0.0
H1525 H 0.29997 0.45783 0.10548 0.0
H1526 H 0.64268 0.96711 0.37425 0.0
H1527 H 0.64472 0.95942 0.30457 0.0
H1528 H 0.64068 0.89911 0.33356 0.0
H1529 H 0.64526 0.90723 0.40231 0.0
H1530 H 0.64947 0.89652 0.27155 0.0
H1531 H 0.59665 0.94733 0.3024 0.0
H1532 H 0.58732 0.98061 0.31884 0.0
H1533 H 0.62579 1.00163 0.22972 0.0
H1534 H 0.63531 0.9684 0.2135 0.0
H1535 H 0.55677 0.90405 0.14186 0.0
H1536 H 0.57734 0.9134 0.19694 0.0
H1537 H 0.62588 0.88699 0.13892 0.0
H1538 H 0.60474 0.87614 0.08576 0.0
H1539 H 0.60372 0.93705 0.19738 0.0
H1540 H 0.66207 0.8794 0.20161 0.0
H1541 H 0.66643 0.84488 0.18811 0.0
H1542 H 0.60717 0.83467 0.21516 0.0
H1543 H 0.60253 0.86909 0.22913 0.0
C1544 C 0.64227 0.95219 0.36537 0.0
C1545 C 0.64118 0.93752 0.39366 0.0
C1546 C 0.64288 0.94778 0.32518 0.0
C1547 C 0.64036 0.92875 0.31238 0.0
C1548 C 0.64163 0.91412 0.34117 0.0
C1549 C 0.64315 0.9186 0.38113 0.0
C1550 C 0.63468 0.92386 0.27076 0.0
C1551 C 0.63918 0.90545 0.25616 0.0
C1552 C 0.62235 0.93566 0.24756 0.0
C1553 C 0.61695 0.95553 0.25771 0.0
C1554 C 0.60316 0.95912 0.28688 0.0
C1555 C 0.59785 0.97793 0.29601 0.0
C1556 C 0.60607 0.99325 0.27552 0.0
C1557 C 0.61953 0.98976 0.24576 0.0
C1558 C 0.6249 0.97095 0.23667 0.0
C1559 C 0.5718 0.90013 0.14131 0.0
C1560 C 0.57954 0.89029 0.10907 0.0
C1561 C 0.58358 0.90551 0.17254 0.0
C1562 C 0.60328 0.90117 0.17192 0.0
C1563 C 0.61076 0.89041 0.14044 0.0
C1564 C 0.59881 0.8846 0.10966 0.0
C1565 C 0.61581 0.90883 0.2035 0.0
C1566 C 0.61351 0.92807 0.21409 0.0
C1567 C 0.62926 0.89748 0.22414 0.0
C1568 C 0.63192 0.8768 0.21585 0.0
C1569 C 0.64999 0.86976 0.20468 0.0
C1570 C 0.65251 0.85023 0.19695 0.0
C1571 C 0.63707 0.83761 0.20061 0.0
C1572 C 0.6191 0.84448 0.21215 0.0
C1573 C 0.61651 0.86399 0.21991 0.0
H1574 H 0.63905 0.8225 0.19462 0.0
H1575 H 0.60194 0.00781 0.28255 0.0
H1576 H 0.1006 0.35414 0.62444 0.0
H1577 H 0.1116 0.34745 0.69189 0.0
H1578 H 0.06387 0.38011 0.73784 0.0
H1579 H 0.05274 0.38628 0.67056 0.0
H1580 H 0.12414 0.36954 0.74523 0.0
H1581 H 0.04768 0.36519 0.82248 0.0
H1582 H 0.01695 0.34894 0.81009 0.0
H1583 H 0.04495 0.30902 0.73272 0.0
H1584 H 0.07599 0.32465 0.74539 0.0
H1585 H 0.09746 0.42548 0.90768 0.0
H1586 H 0.08856 0.40288 0.85549 0.0
H1587 H 0.12983 0.36212 0.90001 0.0
H1588 H 0.1384 0.38464 0.95309 0.0
H1589 H 0.07819 0.35892 0.85494 0.0
H1590 H 0.15352 0.35336 0.81728 0.0
H1591 H 0.18466 0.36813 0.83408 0.0
H1592 H 0.15868 0.42397 0.83184 0.0
H1593 H 0.12754 0.40951 0.81428 0.0
C1594 C 0.09264 0.35997 0.64917 0.0
C1595 C 0.07623 0.3712 0.64284 0.0
C1596 C 0.09876 0.35594 0.68752 0.0
C1597 C 0.08834 0.3629 0.71994 0.0
C1598 C 0.07183 0.37406 0.71335 0.0
C1599 C 0.06564 0.37789 0.67506 0.0
C1600 C 0.09554 0.36042 0.7607 0.0
C1601 C 0.11421 0.36664 0.76906 0.0
C1602 C 0.08296 0.35579 0.79214 0.0
C1603 C 0.06426 0.34618 0.78489 0.0
C1604 C 0.04739 0.35282 0.80316 0.0
C1605 C 0.02988 0.34371 0.79604 0.0
C1606 C 0.02902 0.32793 0.77069 0.0
C1607 C 0.04566 0.32122 0.75241 0.0
C1608 C 0.06322 0.33021 0.75953 0.0
C1609 C 0.10419 0.41148 0.90683 0.0
C1610 C 0.11815 0.40643 0.93457 0.0
C1611 C 0.099 0.39855 0.87747 0.0
C1612 C 0.10829 0.38076 0.87465 0.0
C1613 C 0.12223 0.37562 0.9025 0.0
C1614 C 0.12715 0.38845 0.93245 0.0
C1615 C 0.10582 0.36975 0.83811 0.0
C1616 C 0.08818 0.36092 0.83075 0.0
C1617 C 0.11942 0.37148 0.80755 0.0
C1618 C 0.13832 0.38039 0.81461 0.0
C1619 C 0.15457 0.3688 0.81989 0.0
C1620 C 0.17219 0.37711 0.82959 0.0
C1621 C 0.17365 0.39697 0.83408 0.0
C1622 C 0.15756 0.4086 0.82826 0.0
C1623 C 0.13995 0.40037 0.81833 0.0
H1624 H 0.18722 0.40332 0.84224 0.0
H1625 H 0.01544 0.32093 0.76519 0.0
H1626 H 0.58491 0.59113 0.14962 0.0
H1627 H 0.60867 0.59006 0.09659 0.0
H1628 H 0.6418 0.63369 0.15554 0.0
H1629 H 0.61828 0.63424 0.20951 0.0
H1630 H 0.62457 0.64405 0.08198 0.0
H1631 H 0.67369 0.59792 0.11912 0.0
H1632 H 0.68813 0.56805 0.1448 0.0
H1633 H 0.64886 0.53469 0.07562 0.0
H1634 H 0.63468 0.56433 0.04847 0.0
H1635 H 0.65124 0.61633 0.8679 0.0
H1636 H 0.65613 0.63075 0.93328 0.0
H1637 H 0.61024 0.59606 0.97988 0.0
H1638 H 0.6067 0.5804 0.9158 0.0
H1639 H 0.65321 0.59086 0.0051 0.0
H1640 H 0.59695 0.65055 0.03204 0.0
H1641 H 0.58622 0.68164 0.0051 0.0
H1642 H 0.64045 0.68876 0.94702 0.0
H1643 H 0.65166 0.65801 0.9745 0.0
C1644 C 0.5977 0.59985 0.15196 0.0
C1645 C 0.60002 0.61256 0.18354 0.0
C1646 C 0.61138 0.5991 0.12201 0.0
C1647 C 0.62714 0.61161 0.12248 0.0
C1648 C 0.62998 0.62365 0.15512 0.0
C1649 C 0.61651 0.62404 0.18567 0.0
C1650 C 0.63669 0.61564 0.08458 0.0
C1651 C 0.63133 0.63264 0.06522 0.0
C1652 C 0.64594 0.60103 0.06309 0.0
C1653 C 0.65305 0.5833 0.0821 0.0
C1654 C 0.66802 0.58421 0.10974 0.0
C1655 C 0.67629 0.56732 0.12421 0.0
C1656 C 0.66935 0.5495 0.11203 0.0
C1657 C 0.6542 0.5485 0.08512 0.0
C1658 C 0.64615 0.56532 0.06995 0.0
C1659 C 0.64178 0.61239 0.89195 0.0
C1660 C 0.62841 0.59753 0.88718 0.0
C1661 C 0.64446 0.62077 0.92907 0.0
C1662 C 0.63328 0.61475 0.96114 0.0
C1663 C 0.61877 0.6011 0.95523 0.0
C1664 C 0.61674 0.59214 0.9188 0.0
C1665 C 0.63923 0.61836 0.00215 0.0
C1666 C 0.64741 0.60274 0.02207 0.0
C1667 C 0.63229 0.63413 0.02393 0.0
C1668 C 0.62501 0.65176 0.00464 0.0
C1669 C 0.60653 0.65869 0.01329 0.0
C1670 C 0.60042 0.67634 -0.00177 0.0
C1671 C 0.61264 0.68717 0.97435 0.0
C1672 C 0.63097 0.68033 0.9654 0.0
C1673 C 0.63717 0.66273 0.98053 0.0
H1674 H 0.60789 0.70081 0.96267 0.0
H1675 H 0.67572 0.53647 0.12343 0.0
H1676 H 0.37192 0.11947 0.47934 0.0
H1677 H 0.37129 0.1442 0.42781 0.0
H1678 H 0.42145 0.11886 0.37439 0.0
H1679 H 0.4219 0.09409 0.42544 0.0
H1680 H 0.41755 0.16075 0.3633 0.0
H1681 H 0.38044 0.09854 0.35592 0.0
H1682 H 0.35495 0.07789 0.38327 0.0
H1683 H 0.31461 0.1242 0.3735 0.0
H1684 H 0.34005 0.14528 0.34724 0.0
H1685 H 0.43381 0.119 0.18912 0.0
H1686 H 0.42543 0.12984 0.25558 0.0
H1687 H 0.37388 0.1562 0.21031 0.0
H1688 H 0.38266 0.14582 0.14331 0.0
H1689 H 0.36777 0.1331 0.27554 0.0
H1690 H 0.40356 0.18657 0.24739 0.0
H1691 H 0.42886 0.20735 0.22009 0.0
H1692 H 0.47067 0.17982 0.29393 0.0
H1693 H 0.44575 0.15868 0.32133 0.0
C1694 C 0.38326 0.11978 0.45749 0.0
C1695 C 0.39712 0.10518 0.4562 0.0
C1696 C 0.38294 0.13392 0.42833 0.0
C1697 C 0.39635 0.13333 0.39753 0.0
C1698 C 0.41116 0.11968 0.39831 0.0
C1699 C 0.41131 0.10544 0.42708 0.0
C1700 C 0.39248 0.14294 0.35971 0.0
C1701 C 0.40651 0.15511 0.344 0.0
C1702 C 0.37742 0.13631 0.33528 0.0
C1703 C 0.36214 0.12353 0.35027 0.0
C1704 C 0.36617 0.10434 0.35996 0.0
C1705 C 0.35177 0.0926 0.37538 0.0
C1706 C 0.33321 0.09978 0.3803 0.0
C1707 C 0.32902 0.11871 0.36986 0.0
C1708 C 0.34343 0.13058 0.35488 0.0
C1709 C 0.42064 0.12697 0.19354 0.0
C1710 C 0.40846 0.13096 0.16178 0.0
C1711 C 0.41601 0.13343 0.23121 0.0
C1712 C 0.39925 0.14418 0.23754 0.0
C1713 C 0.38697 0.14813 0.20581 0.0
C1714 C 0.39177 0.14185 0.16791 0.0
C1715 C 0.39401 0.14924 0.27833 0.0
C1716 C 0.37821 0.13983 0.29474 0.0
C1717 C 0.40733 0.15858 0.3032 0.0
C1718 C 0.42268 0.17101 0.28657 0.0
C1719 C 0.41817 0.18483 0.25767 0.0
C1720 C 0.43245 0.19671 0.24219 0.0
C1721 C 0.45135 0.19492 0.2553 0.0
C1722 C 0.45601 0.18123 0.28389 0.0
C1723 C 0.44178 0.16932 0.29951 0.0
H1724 H 0.46238 0.20413 0.24329 0.0
H1725 H 0.32204 0.09064 0.39186 0.0
H1726 H 0.88706 0.85744 0.71975 0.0
H1727 H 0.86516 0.85801 0.66253 0.0
H1728 H 0.90466 0.89495 0.60078 0.0
H1729 H 0.92628 0.89454 0.65767 0.0
H1730 H 0.85358 0.89921 0.61044 0.0
H1731 H 0.91528 0.8601 0.53266 0.0
H1732 H 0.93636 0.83226 0.54442 0.0
H1733 H 0.89233 0.8055 0.61369 0.0
H1734 H 0.87087 0.83307 0.60163 0.0
H1735 H 0.8958 0.94266 0.4601 0.0
H1736 H 0.88493 0.92365 0.51646 0.0
H1737 H 0.86114 0.88144 0.43718 0.0
H1738 H 0.87183 0.90071 0.38058 0.0
H1739 H 0.88296 0.86552 0.49656 0.0
H1740 H 0.82911 0.90452 0.49026 0.0
H1741 H 0.81049 0.93403 0.47806 0.0
H1742 H 0.83794 0.96131 0.57656 0.0
H1743 H 0.85701 0.93219 0.58887 0.0
C1744 C 0.8907 0.866 0.69413 0.0
C1745 C 0.9079 0.87646 0.69304 0.0
C1746 C 0.87831 0.86622 0.66168 0.0
C1747 C 0.88336 0.87661 0.62792 0.0
C1748 C 0.90057 0.88699 0.62696 0.0
C1749 C 0.91287 0.88675 0.65918 0.0
C1750 C 0.87185 0.87613 0.59173 0.0
C1751 C 0.85926 0.89146 0.58532 0.0
C1752 C 0.87873 0.86537 0.55944 0.0
C1753 C 0.8914 0.84853 0.56576 0.0
C1754 C 0.90999 0.84813 0.54979 0.0
C1755 C 0.92203 0.83245 0.55669 0.0
C1756 C 0.91567 0.8171 0.57971 0.0
C1757 C 0.89723 0.81739 0.59581 0.0
C1758 C 0.88512 0.83304 0.58894 0.0
C1759 C 0.88833 0.92929 0.45487 0.0
C1760 C 0.88516 0.92273 0.41644 0.0
C1761 C 0.8819 0.91858 0.48686 0.0
C1762 C 0.87186 0.90137 0.48079 0.0
C1763 C 0.86867 0.89477 0.44232 0.0
C1764 C 0.87504 0.90558 0.41023 0.0
C1765 C 0.86634 0.88989 0.51543 0.0
C1766 C 0.87586 0.87243 0.52121 0.0
C1767 C 0.85627 0.89851 0.54704 0.0
C1768 C 0.84442 0.91602 0.54073 0.0
C1769 C 0.83119 0.9168 0.50936 0.0
C1770 C 0.82058 0.93349 0.50235 0.0
C1771 C 0.82305 0.94952 0.52651 0.0
C1772 C 0.83602 0.94885 0.55792 0.0
C1773 C 0.84668 0.93222 0.56504 0.0
H1774 H 0.815 0.96249 0.52079 0.0
H1775 H 0.92505 0.80503 0.5852 0.0
H1776 H 0.05482 0.101 0.89025 0.0
H1777 H 0.06657 0.0983 0.95771 0.0
H1778 H 0.09422 0.15339 0.94663 0.0
H1779 H 0.08279 0.15572 0.87811 0.0
H1780 H 0.11914 0.12823 0.96896 0.0
H1781 H 0.05742 0.14466 0.01607 0.0
H1782 H 0.02217 0.14423 0.02097 0.0
H1783 H 0.02374 0.08496 0.05505 0.0
H1784 H 0.059 0.08494 0.04983 0.0
H1785 H 0.14371 0.12176 0.17834 0.0
H1786 H 0.13209 0.13116 0.11284 0.0
H1787 H 0.11696 0.07244 0.08852 0.0
H1788 H 0.12914 0.06285 0.15371 0.0
H1789 H 0.08581 0.10282 0.08727 0.0
H1790 H 0.14842 0.08731 0.03498 0.0
H1791 H 0.18366 0.08945 0.03193 0.0
H1792 H 0.17979 0.15002 0.01075 0.0
H1793 H 0.1445 0.14829 0.01426 0.0
C1794 C 0.06258 0.11295 0.90297 0.0
C1795 C 0.06759 0.12874 0.87955 0.0
C1796 C 0.06939 0.11139 0.94153 0.0
C1797 C 0.08125 0.12568 0.95751 0.0
C1798 C 0.08506 0.1422 0.935 0.0
C1799 C 0.0783 0.1437 0.89614 0.0
C1800 C 0.09162 0.12193 0.99511 0.0
C1801 C 0.11176 0.1231 0.99511 0.0
C1802 C 0.08212 0.11486 0.02908 0.0
C1803 C 0.06088 0.11477 0.0323 0.0
C1804 C 0.05025 0.13149 0.02433 0.0
C1805 C 0.03026 0.13133 0.02721 0.0
C1806 C 0.02072 0.11457 0.03825 0.0
C1807 C 0.03115 0.09794 0.0465 0.0
C1808 C 0.05115 0.09801 0.04365 0.0
C1809 C 0.13863 0.11076 0.15835 0.0
C1810 C 0.13744 0.09157 0.17078 0.0
C1811 C 0.13191 0.11615 0.12112 0.0
C1812 C 0.12357 0.1025 0.09615 0.0
C1813 C 0.1234 0.08314 0.10752 0.0
C1814 C 0.13053 0.07766 0.14447 0.0
C1815 C 0.11312 0.10879 0.06045 0.0
C1816 C 0.09303 0.10815 0.06109 0.0
C1817 C 0.12262 0.11664 0.02741 0.0
C1818 C 0.14382 0.11771 0.02538 0.0
C1819 C 0.15508 0.10113 0.03012 0.0
C1820 C 0.17507 0.10226 0.02819 0.0
C1821 C 0.18396 0.11987 0.02128 0.0
C1822 C 0.17288 0.13639 0.01617 0.0
C1823 C 0.15289 0.13534 0.0181 0.0
H1824 H 0.19943 0.12072 0.01978 0.0
H1825 H 0.00524 0.11448 0.04046 0.0
H1826 H 0.91296 0.65255 0.41595 0.0
H1827 H 0.90775 0.64794 0.34514 0.0
H1828 H 0.95109 0.60377 0.34391 0.0
H1829 H 0.95643 0.60858 0.41466 0.0
H1830 H 0.94783 0.62206 0.2712 0.0
H1831 H 0.90777 0.5914 0.36739 0.0
H1832 H 0.88626 0.58981 0.42512 0.0
H1833 H 0.84548 0.62582 0.36563 0.0
H1834 H 0.86692 0.62791 0.30776 0.0
H1835 H 0.91015 0.5629 0.12158 0.0
H1836 H 0.91826 0.57153 0.1899 0.0
H1837 H 0.87943 0.61961 0.18364 0.0
H1838 H 0.87158 0.61116 0.11522 0.0
H1839 H 0.88057 0.59939 0.25958 0.0
H1840 H 0.92196 0.62865 0.16161 0.0
H1841 H 0.94356 0.62745 0.10402 0.0
H1842 H 0.98232 0.59106 0.16815 0.0
H1843 H 0.96073 0.59176 0.22592 0.0
C1844 C 0.92217 0.64272 0.39999 0.0
C1845 C 0.93517 0.631 0.42038 0.0
C1846 C 0.91904 0.63992 0.35969 0.0
C1847 C 0.92868 0.62515 0.33966 0.0
C1848 C 0.94346 0.61518 0.3589 0.0
C1849 C 0.94665 0.61806 0.39922 0.0
C1850 C 0.92109 0.61784 0.30173 0.0
C1851 C 0.93318 0.61703 0.2687 0.0
C1852 C 0.90196 0.61115 0.29861 0.0
C1853 C 0.88903 0.60996 0.33338 0.0
C1854 C 0.89429 0.59912 0.36674 0.0
C1855 C 0.8821 0.59809 0.39945 0.0
C1856 C 0.86451 0.60768 0.39899 0.0
C1857 C 0.85911 0.61839 0.3659 0.0
C1858 C 0.87127 0.6195 0.33314 0.0
C1859 C 0.90279 0.5748 0.13549 0.0
C1860 C 0.89011 0.58628 0.11368 0.0
C1861 C 0.90755 0.57983 0.17422 0.0
C1862 C 0.89958 0.59632 0.19146 0.0
C1863 C 0.88569 0.60684 0.17076 0.0
C1864 C 0.88116 0.60198 0.13186 0.0
C1865 C 0.90724 0.60383 0.22907 0.0
C1866 C 0.89518 0.60457 0.26207 0.0
C1867 C 0.92645 0.61018 0.23229 0.0
C1868 C 0.93964 0.6101 0.19793 0.0
C1869 C 0.93501 0.62028 0.16333 0.0
C1870 C 0.94726 0.6197 0.13067 0.0
C1871 C 0.96428 0.60915 0.13239 0.0
C1872 C 0.96911 0.59921 0.16684 0.0
C1873 C 0.95688 0.59969 0.19955 0.0
H1874 H 0.97374 0.60871 0.10706 0.0
H1875 H 0.85505 0.60679 0.42427 0.0
H1876 H 0.4106 0.37262 0.70867 0.0
H1877 H 0.41469 0.36304 0.6404 0.0
H1878 H 0.39804 0.41962 0.60194 0.0
H1879 H 0.39377 0.4295 0.67122 0.0
H1880 H 0.39075 0.36108 0.57916 0.0
H1881 H 0.42802 0.43064 0.52272 0.0
H1882 H 0.44932 0.45599 0.54836 0.0
H1883 H 0.46938 0.41797 0.63922 0.0
H1884 H 0.44845 0.39235 0.61382 0.0
H1885 H 0.38296 0.37578 0.37771 0.0
H1886 H 0.38406 0.37411 0.44902 0.0
H1887 H 0.44563 0.36814 0.44491 0.0
H1888 H 0.44458 0.37021 0.37232 0.0
H1889 H 0.43572 0.39653 0.49231 0.0
H1890 H 0.4174 0.33171 0.482 0.0
H1891 H 0.3996 0.30358 0.45772 0.0
H1892 H 0.34721 0.32699 0.50372 0.0
H1893 H 0.36462 0.3554 0.52779 0.0
C1894 C 0.40758 0.38308 0.68586 0.0
C1895 C 0.4019 0.4019 0.6954 0.0
C1896 C 0.40993 0.3775 0.64677 0.0
C1897 C 0.40686 0.39064 0.61624 0.0
C1898 C 0.40066 0.40933 0.62531 0.0
C1899 C 0.39808 0.41492 0.66474 0.0
C1900 C 0.41053 0.38466 0.57505 0.0
C1901 C 0.40055 0.36881 0.56007 0.0
C1902 C 0.42402 0.39421 0.55094 0.0
C1903 C 0.4365 0.40965 0.56659 0.0
C1904 C 0.43699 0.4277 0.54814 0.0
C1905 C 0.44901 0.44211 0.56262 0.0
C1906 C 0.46066 0.43859 0.59542 0.0
C1907 C 0.46029 0.42069 0.61389 0.0
C1908 C 0.44833 0.40624 0.59951 0.0
C1909 C 0.39672 0.37357 0.39177 0.0
C1910 C 0.41371 0.37323 0.36951 0.0
C1911 C 0.39732 0.3725 0.43268 0.0
C1912 C 0.41491 0.37091 0.45236 0.0
C1913 C 0.43189 0.36933 0.43019 0.0
C1914 C 0.43128 0.37034 0.38884 0.0
C1915 C 0.41531 0.3734 0.49577 0.0
C1916 C 0.42605 0.38863 0.51138 0.0
C1917 C 0.40293 0.36289 0.52082 0.0
C1918 C 0.39234 0.34575 0.5066 0.0
C1919 C 0.40206 0.33093 0.48675 0.0
C1920 C 0.39204 0.31492 0.47304 0.0
C1921 C 0.37229 0.31351 0.47915 0.0
C1922 C 0.36252 0.32809 0.49904 0.0
C1923 C 0.37247 0.34414 0.5128 0.0
H1924 H 0.36455 0.3011 0.4685 0.0
H1925 H 0.47006 0.44968 0.6064 0.0
H1926 H 0.65162 0.92335 0.62641 0.0
H1927 H 0.64421 0.91068 0.69257 0.0
H1928 H 0.58849 0.89287 0.65127 0.0
H1929 H 0.59589 0.90469 0.5859 0.0
H1930 H 0.61841 0.91958 0.74507 0.0
H1931 H 0.5723 0.8541 0.69367 0.0
H1932 H 0.57242 0.83036 0.63976 0.0
H1933 H 0.6329 0.83863 0.62375 0.0
H1934 H 0.63322 0.8622 0.67798 0.0
H1935 H 0.55073 0.90061 0.88538 0.0
H1936 H 0.56373 0.90249 0.81837 0.0
H1937 H 0.60024 0.85392 0.84243 0.0
H1938 H 0.58707 0.85198 0.90966 0.0
H1939 H 0.58755 0.85599 0.7623 0.0
H1940 H 0.61897 0.8936 0.85871 0.0
H1941 H 0.62064 0.91582 0.91518 0.0
H1942 H 0.59543 0.9604 0.84467 0.0
H1943 H 0.59318 0.93829 0.78798 0.0
C1944 C 0.63788 0.91658 0.63153 0.0
C1945 C 0.62448 0.91481 0.6007 0.0
C1946 C 0.63366 0.90934 0.66927 0.0
C1947 C 0.61596 0.90035 0.67668 0.0
C1948 C 0.60249 0.89908 0.6461 0.0
C1949 C 0.60675 0.906 0.60861 0.0
C1950 C 0.61082 0.89303 0.71655 0.0
C1951 C 0.61189 0.90559 0.74883 0.0
C1952 C 0.60274 0.87454 0.72193 0.0
C1953 C 0.60275 0.86001 0.68985 0.0
C1954 C 0.58566 0.85075 0.6789 0.0
C1955 C 0.58564 0.83734 0.64821 0.0
C1956 C 0.60265 0.83301 0.6283 0.0
C1957 C 0.61973 0.84203 0.63914 0.0
C1958 C 0.61983 0.85543 0.66983 0.0
C1959 C 0.56079 0.88974 0.8756 0.0
C1960 C 0.5677 0.87594 0.90211 0.0
C1961 C 0.56837 0.89095 0.83757 0.0
C1962 C 0.58317 0.87855 0.82581 0.0
C1963 C 0.58882 0.86359 0.85102 0.0
C1964 C 0.58119 0.86238 0.88919 0.0
C1965 C 0.59427 0.88294 0.78967 0.0
C1966 C 0.59438 0.86982 0.75841 0.0
C1967 C 0.60396 0.90065 0.78553 0.0
C1968 C 0.60579 0.91423 0.81913 0.0
C1969 C 0.61367 0.90811 0.85529 0.0
C1970 C 0.61472 0.92068 0.88736 0.0
C1971 C 0.60812 0.9395 0.88352 0.0
C1972 C 0.60052 0.9458 0.84758 0.0
C1973 C 0.59936 0.93325 0.81545 0.0
H1974 H 0.60893 0.94922 0.90839 0.0
H1975 H 0.60259 0.82265 0.6045 0.0
H1976 H 0.1266 0.38897 0.45793 0.0
H1977 H 0.13877 0.39718 0.3926 0.0
H1978 H 0.08275 0.38732 0.34267 0.0
H1979 H 0.07049 0.37867 0.40822 0.0
H1980 H 0.11033 0.3759 0.29244 0.0
H1981 H 0.09638 0.43212 0.36778 0.0
H1982 H 0.09788 0.45349 0.42569 0.0
H1983 H 0.15873 0.45918 0.41076 0.0
H1984 H 0.15763 0.43758 0.35309 0.0
H1985 H 0.12226 0.45495 0.14438 0.0
H1986 H 0.11902 0.44753 0.21475 0.0
H1987 H 0.15856 0.40038 0.20132 0.0
H1988 H 0.16164 0.40775 0.13088 0.0
H1989 H 0.13916 0.44082 0.28323 0.0
H1990 H 0.13626 0.36078 0.23961 0.0
H1991 H 0.13104 0.34111 0.17995 0.0
H1992 H 0.09733 0.38621 0.1285 0.0
H1993 H 0.10203 0.40597 0.18812 0.0
C1994 C 0.11691 0.3882 0.43296 0.0
C1995 C 0.0975 0.38338 0.4383 0.0
C1996 C 0.12389 0.39298 0.39565 0.0
C1997 C 0.11156 0.39334 0.36294 0.0
C1998 C 0.09249 0.38726 0.3676 0.0
C1999 C 0.0855 0.38227 0.40502 0.0
C2000 C 0.1183 0.40127 0.32468 0.0
C2001 C 0.11674 0.39003 0.29051 0.0
C2002 C 0.12626 0.41993 0.32193 0.0
C2003 C 0.12695 0.43308 0.35635 0.0
C2004 C 0.1101 0.43782 0.37701 0.0
C2005 C 0.11087 0.44999 0.40978 0.0
C2006 C 0.1284 0.45765 0.42195 0.0
C2007 C 0.14517 0.45321 0.40132 0.0
C2008 C 0.14448 0.44101 0.36858 0.0
C2009 C 0.13111 0.44374 0.15704 0.0
C2010 C 0.14234 0.43201 0.13258 0.0
C2011 C 0.12913 0.43938 0.19714 0.0
C2012 C 0.13822 0.42314 0.21298 0.0
C2013 C 0.15125 0.41283 0.18951 0.0
C2014 C 0.15318 0.41717 0.14942 0.0
C2015 C 0.13166 0.41524 0.25132 0.0
C2016 C 0.13306 0.42656 0.28538 0.0
C2017 C 0.12302 0.39689 0.25376 0.0
C2018 C 0.11968 0.38491 0.21818 0.0
C2019 C 0.12765 0.36644 0.21565 0.0
C2020 C 0.12477 0.35528 0.18185 0.0
C2021 C 0.11387 0.36241 0.15047 0.0
C2022 C 0.10577 0.3807 0.15283 0.0
C2023 C 0.10854 0.39189 0.18662 0.0
H2024 H 0.11166 0.35375 0.12434 0.0
H2025 H 0.12897 0.46707 0.44733 0.0
H2026 H 0.61315 0.56171 0.66907 0.0
H2027 H 0.60226 0.56975 0.60249 0.0
H2028 H 0.63277 0.62349 0.60885 0.0
H2029 H 0.64278 0.61575 0.67627 0.0
H2030 H 0.59831 0.63059 0.58934 0.0
H2031 H 0.64453 0.58574 0.54145 0.0
H2032 H 0.66183 0.55498 0.53681 0.0
H2033 H 0.60962 0.52644 0.50464 0.0
H2034 H 0.59194 0.55699 0.5096 0.0
H2035 H 0.58638 0.65175 0.38158 0.0
H2036 H 0.59509 0.64719 0.45103 0.0
H2037 H 0.55702 0.59864 0.45771 0.0
H2038 H 0.54836 0.60323 0.38833 0.0
H2039 H 0.59519 0.58948 0.47016 0.0
H2040 H 0.54961 0.63592 0.51699 0.0
H2041 H 0.53373 0.66748 0.51952 0.0
H2042 H 0.5871 0.69405 0.55073 0.0
H2043 H 0.60337 0.66267 0.54783 0.0
C2044 C 0.61825 0.5748 0.65543 0.0
C2045 C 0.62904 0.58799 0.67732 0.0
C2046 C 0.61192 0.57949 0.61742 0.0
C2047 C 0.61665 0.59729 0.60046 0.0
C2048 C 0.6288 0.60975 0.6213 0.0
C2049 C 0.63478 0.60522 0.65956 0.0
C2050 C 0.60727 0.60378 0.56328 0.0
C2051 C 0.59795 0.6217 0.56306 0.0
C2052 C 0.60629 0.59206 0.52923 0.0
C2053 C 0.61688 0.57364 0.52625 0.0
C2054 C 0.6367 0.57288 0.53369 0.0
C2055 C 0.64658 0.55548 0.53095 0.0
C2056 C 0.63682 0.53876 0.52053 0.0
C2057 C 0.61716 0.5394 0.51275 0.0
C2058 C 0.60721 0.55676 0.51547 0.0
C2059 C 0.57895 0.64092 0.39868 0.0
C2060 C 0.56649 0.62802 0.38 0.0
C2061 C 0.58411 0.63816 0.43822 0.0
C2062 C 0.57686 0.62242 0.45934 0.0
C2063 C 0.5628 0.61083 0.44187 0.0
C2064 C 0.55761 0.61365 0.40246 0.0
C2065 C 0.58626 0.61616 0.49646 0.0
C2066 C 0.59561 0.59831 0.49654 0.0
C2067 C 0.58751 0.62806 0.53006 0.0
C2068 C 0.57775 0.64695 0.53182 0.0
C2069 C 0.558 0.64851 0.52404 0.0
C2070 C 0.54892 0.66637 0.52562 0.0
C2071 C 0.55941 0.68277 0.53518 0.0
C2072 C 0.579 0.68134 0.54328 0.0
C2073 C 0.58815 0.66351 0.54172 0.0
H2074 H 0.55235 0.69658 0.5364 0.0
H2075 H 0.64449 0.5253 0.51842 0.0
H2076 H 0.34679 0.08079 0.63507 0.0
H2077 H 0.34137 0.08583 0.70589 0.0
H2078 H 0.39414 0.05606 0.73187 0.0
H2079 H 0.39951 0.0511 0.66118 0.0
H2080 H 0.36793 0.05151 0.79172 0.0
H2081 H 0.39631 0.10176 0.7145 0.0
H2082 H 0.39924 0.12614 0.66209 0.0
H2083 H 0.34787 0.15362 0.70314 0.0
H2084 H 0.34448 0.12921 0.7555 0.0
H2085 H 0.40913 0.1269 0.93071 0.0
H2086 H 0.40015 0.11734 0.86404 0.0
H2087 H 0.35002 0.08873 0.90959 0.0
H2088 H 0.35905 0.09795 0.97667 0.0
H2089 H 0.37096 0.12171 0.81503 0.0
H2090 H 0.34607 0.04498 0.85655 0.0
H2091 H 0.34956 0.02231 0.91209 0.0
H2092 H 0.40295 0.04855 0.94431 0.0
H2093 H 0.40029 0.07068 0.88786 0.0
C2094 C 0.35662 0.07443 0.65611 0.0
C2095 C 0.37341 0.06535 0.64306 0.0
C2096 C 0.35364 0.07747 0.69647 0.0
C2097 C 0.36751 0.07156 0.72402 0.0
C2098 C 0.38324 0.06067 0.71112 0.0
C2099 C 0.38626 0.05774 0.6708 0.0
C2100 C 0.36753 0.07945 0.76464 0.0
C2101 C 0.36826 0.06685 0.79694 0.0
C2102 C 0.36859 0.09947 0.77131 0.0
C2103 C 0.37 0.11352 0.73856 0.0
C2104 C 0.38548 0.11283 0.71198 0.0
C2105 C 0.38728 0.12671 0.68242 0.0
C2106 C 0.37379 0.14145 0.6794 0.0
C2107 C 0.35832 0.14221 0.70558 0.0
C2108 C 0.35644 0.12835 0.73517 0.0
C2109 C 0.396 0.11889 0.92662 0.0
C2110 C 0.385 0.11292 0.95918 0.0
C2111 C 0.39086 0.11346 0.8884 0.0
C2112 C 0.37462 0.10202 0.88197 0.0
C2113 C 0.3628 0.09727 0.91402 0.0
C2114 C 0.36799 0.10259 0.95233 0.0
C2115 C 0.37114 0.09383 0.84224 0.0
C2116 C 0.36995 0.10638 0.81003 0.0
C2117 C 0.37039 0.07377 0.83568 0.0
C2118 C 0.37276 0.05974 0.86835 0.0
C2119 C 0.35865 0.04578 0.87523 0.0
C2120 C 0.36053 0.03297 0.90681 0.0
C2121 C 0.37644 0.03403 0.93178 0.0
C2122 C 0.39062 0.04775 0.92497 0.0
C2123 C 0.38899 0.06035 0.89304 0.0
H2124 H 0.37782 0.02418 0.95633 0.0
H2125 H 0.37535 0.15234 0.65687 0.0
H2126 H 0.93856 0.92675 0.2186 0.0
H2127 H 0.94393 0.91591 0.15096 0.0
H2128 H 0.88327 0.92021 0.12748 0.0
H2129 H 0.8778 0.93119 0.1956 0.0
H2130 H 0.89917 0.88428 0.10965 0.0
H2131 H 0.91273 0.95072 0.08442 0.0
H2132 H 0.92865 0.98179 0.09546 0.0
H2133 H 0.98351 0.95579 0.07432 0.0
H2134 H 0.96794 0.92447 0.0637 0.0
H2135 H 0.89458 0.87534 0.90436 0.0
H2136 H 0.89372 0.882 0.97463 0.0
H2137 H 0.95556 0.88095 0.97869 0.0
H2138 H 0.95649 0.87462 0.90727 0.0
H2139 H 0.94192 0.91334 0.00909 0.0
H2140 H 0.92864 0.84742 0.02936 0.0
H2141 H 0.91308 0.81618 0.01825 0.0
H2142 H 0.85855 0.84036 0.04967 0.0
H2143 H 0.87371 0.87183 0.06042 0.0
C2144 C 0.92641 0.92576 0.19874 0.0
C2145 C 0.90775 0.92972 0.21217 0.0
C2146 C 0.92951 0.9196 0.16015 0.0
C2147 C 0.91399 0.91721 0.13437 0.0
C2148 C 0.89541 0.92197 0.14711 0.0
C2149 C 0.89231 0.92838 0.18576 0.0
C2150 C 0.91711 0.90836 0.09523 0.0
C2151 C 0.90829 0.89072 0.08735 0.0
C2152 C 0.92977 0.91639 0.06715 0.0
C2153 C 0.93918 0.9352 0.07361 0.0
C2154 C 0.92821 0.95158 0.08247 0.0
C2155 C 0.93716 0.96924 0.08858 0.0
C2156 C 0.95707 0.97075 0.08561 0.0
C2157 C 0.96808 0.95459 0.07655 0.0
C2158 C 0.9592 0.93688 0.07048 0.0
C2159 C 0.90802 0.87598 0.92034 0.0
C2160 C 0.92562 0.87459 0.90034 0.0
C2161 C 0.9075 0.8797 0.96066 0.0
C2162 C 0.92457 0.88193 0.98202 0.0
C2163 C 0.94222 0.87926 0.96269 0.0
C2164 C 0.94275 0.87547 0.92206 0.0
C2165 C 0.92367 0.88934 0.02299 0.0
C2166 C 0.93295 0.90672 0.03142 0.0
C2167 C 0.91153 0.88099 0.05173 0.0
C2168 C 0.90232 0.86204 0.04549 0.0
C2169 C 0.91331 0.84612 0.03364 0.0
C2170 C 0.90456 0.82836 0.02745 0.0
C2171 C 0.88484 0.82629 0.0332 0.0
C2172 C 0.87383 0.84198 0.04523 0.0
C2173 C 0.8825 0.85978 0.05145 0.0
H2174 H 0.87809 0.81253 0.02837 0.0
H2175 H 0.96397 0.98446 0.09022 0.0
loop_
_geom_bond_atom_site_label_1
_geom_bond_atom_site_label_2
_geom_bond_distance
_geom_bond_site_symmetry_2
_ccdc_geom_bond_type
Mn0 O5 2.095 . S
Mn0 O15 2.162 . S
Mn0 O16 2.297 . S
Mn0 O24 2.385 . S
Mn0 O25 2.209 . S
Mn0 O26 2.094 . S
Mn1 O6 2.121 . S
Mn1 N8 2.257 . S
Mn1 N17 2.282 . S
Mn1 O25 2.215 . S
Mn1 O27 2.117 . S
C2 O24 1.234 . S
C2 O25 1.283 . S
C3 O15 1.281 . S
C3 O16 1.236 . S
C4 O26 1.240 . S
C4 O27 1.264 . S
O5 Mn0 2.095 . S
O5 C14 1.250 . S
O6 Mn1 2.121 . S
O6 C14 1.258 . S
C7 N8 1.326 . S
C7 C11 1.460 . S
C7 H13 0.929 . S
N8 Mn1 2.257 . S
N8 C7 1.326 . S
N8 C12 1.362 . S
C9 C10 1.258 . S
C9 C12 1.431 . S
C9 C29 1.449 . S
C10 C9 1.258 . S
C10 C11 1.477 . S
C10 H30 0.931 . S
C11 C7 1.460 . S
C11 C10 1.477 . S
C11 H31 0.930 . S
C12 N8 1.362 . S
C12 C9 1.431 . S
C12 C22 1.476 . S
H13 C7 0.929 . S
C14 O5 1.250 . S
C14 O6 1.258 . S
O15 Mn0 2.162 . S
O15 C3 1.281 . S
O16 Mn0 2.297 . S
O16 C3 1.236 . S
N17 Mn1 2.282 . S
N17 C18 1.328 . S
N17 C22 1.318 . S
C18 N17 1.328 . S
C18 C19 1.457 . S
C18 H23 0.929 . S
C19 C18 1.457 . S
C19 C20 1.291 . S
C19 H32 0.931 . S
C20 C19 1.291 . S
C20 C21 1.373 . S
C20 H33 0.929 . S
C21 C20 1.373 . S
C21 C22 1.396 . S
C21 C28 1.403 . S
C22 C12 1.476 . S
C22 N17 1.318 . S
C22 C21 1.396 . S
H23 C18 0.929 . S
O24 Mn0 2.385 . S
O24 C2 1.234 . S
O25 Mn0 2.209 . S
O25 Mn1 2.215 . S
O25 C2 1.283 . S
O26 Mn0 2.094 . S
O26 C4 1.240 . S
O27 Mn1 2.117 . S
O27 C4 1.264 . S
C28 C21 1.403 . S
C28 C29 1.399 . S
C28 H34 0.929 . S
C29 C9 1.449 . S
C29 C28 1.399 . S
C29 H35 0.930 . S
H30 C10 0.931 . S
H31 C11 0.930 . S
H32 C19 0.931 . S
H33 C20 0.929 . S
H34 C28 0.929 . S
H35 C29 0.930 . S
Mn36 O41 2.095 . S
Mn36 O51 2.162 . S
Mn36 O52 2.297 . S
Mn36 O60 2.385 . S
Mn36 O61 2.209 . S
Mn36 O62 2.094 . S
Mn37 O42 2.121 . S
Mn37 N44 2.257 . S
Mn37 N53 2.282 . S
Mn37 O61 2.215 . S
Mn37 O63 2.117 . S
C38 O60 1.234 . S
C38 O61 1.283 . S
C39 O51 1.281 . S
C39 O52 1.236 . S
C40 O62 1.240 . S
C40 O63 1.264 . S
O41 Mn36 2.095 . S
O41 C50 1.250 . S
O42 Mn37 2.121 . S
O42 C50 1.258 . S
C43 N44 1.326 . S
C43 C47 1.460 . S
C43 H49 0.929 . S
N44 Mn37 2.257 . S
N44 C43 1.326 . S
N44 C48 1.362 . S
C45 C46 1.258 . S
C45 C48 1.431 . S
C45 C65 1.449 . S
C46 C45 1.258 . S
C46 C47 1.477 . S
C46 H66 0.931 . S
C47 C43 1.460 . S
C47 C46 1.477 . S
C47 H67 0.930 . S
C48 N44 1.362 . S
C48 C45 1.431 . S
C48 C58 1.476 . S
H49 C43 0.929 . S
C50 O41 1.250 . S
C50 O42 1.258 . S
O51 Mn36 2.162 . S
O51 C39 1.281 . S
O52 Mn36 2.297 . S
O52 C39 1.236 . S
N53 Mn37 2.282 . S
N53 C54 1.328 . S
N53 C58 1.318 . S
C54 N53 1.328 . S
C54 C55 1.457 . S
C54 H59 0.929 . S
C55 C54 1.457 . S
C55 C56 1.291 . S
C55 H68 0.931 . S
C56 C55 1.291 . S
C56 C57 1.373 . S
C56 H69 0.929 . S
C57 C56 1.373 . S
C57 C58 1.396 . S
C57 C64 1.403 . S
C58 C48 1.476 . S
C58 N53 1.318 . S
C58 C57 1.396 . S
H59 C54 0.929 . S
O60 Mn36 2.385 . S
O60 C38 1.234 . S
O61 Mn36 2.209 . S
O61 Mn37 2.215 . S
O61 C38 1.283 . S
O62 Mn36 2.094 . S
O62 C40 1.240 . S
O63 Mn37 2.117 . S
O63 C40 1.264 . S
C64 C57 1.403 . S
C64 C65 1.399 . S
C64 H70 0.929 . S
C65 C45 1.449 . S
C65 C64 1.399 . S
C65 H71 0.930 . S
H66 C46 0.931 . S
H67 C47 0.930 . S
H68 C55 0.931 . S
H69 C56 0.929 . S
H70 C64 0.929 . S
H71 C65 0.930 . S
Mn72 O77 2.095 . S
Mn72 O87 2.162 . S
Mn72 O88 2.297 . S
Mn72 O96 2.385 . S
Mn72 O97 2.209 . S
Mn72 O98 2.094 . S
Mn73 O78 2.121 . S
Mn73 N80 2.257 . S
Mn73 N89 2.282 . S
Mn73 O97 2.215 . S
Mn73 O99 2.117 . S
C74 O96 1.234 . S
C74 O97 1.283 . S
C75 O87 1.281 . S
C75 O88 1.236 . S
C76 O98 1.240 . S
C76 O99 1.264 . S
O77 Mn72 2.095 . S
O77 C86 1.250 . S
O78 Mn73 2.121 . S
O78 C86 1.258 . S
C79 N80 1.326 . S
C79 C83 1.460 . S
C79 H85 0.929 . S
N80 Mn73 2.257 . S
N80 C79 1.326 . S
N80 C84 1.362 . S
C81 C82 1.258 . S
C81 C84 1.431 . S
C81 C101 1.449 . S
C82 C81 1.258 . S
C82 C83 1.477 . S
C82 H102 0.931 . S
C83 C79 1.460 . S
C83 C82 1.477 . S
C83 H103 0.930 . S
C84 N80 1.362 . S
C84 C81 1.431 . S
C84 C94 1.476 . S
H85 C79 0.929 . S
C86 O77 1.250 . S
C86 O78 1.258 . S
O87 Mn72 2.162 . S
O87 C75 1.281 . S
O88 Mn72 2.297 . S
O88 C75 1.236 . S
N89 Mn73 2.282 . S
N89 C90 1.328 . S
N89 C94 1.318 . S
C90 N89 1.328 . S
C90 C91 1.457 . S
C90 H95 0.929 . S
C91 C90 1.457 . S
C91 C92 1.291 . S
C91 H104 0.931 . S
C92 C91 1.291 . S
C92 C93 1.373 . S
C92 H105 0.929 . S
C93 C92 1.373 . S
C93 C94 1.396 . S
C93 C100 1.403 . S
C94 C84 1.476 . S
C94 N89 1.318 . S
C94 C93 1.396 . S
H95 C90 0.929 . S
O96 Mn72 2.385 . S
O96 C74 1.234 . S
O97 Mn72 2.209 . S
O97 Mn73 2.215 . S
O97 C74 1.283 . S
O98 Mn72 2.094 . S
O98 C76 1.240 . S
O99 Mn73 2.117 . S
O99 C76 1.264 . S
C100 C93 1.403 . S
C100 C101 1.399 . S
C100 H106 0.929 . S
C101 C81 1.449 . S
C101 C100 1.399 . S
C101 H107 0.930 . S
H102 C82 0.931 . S
H103 C83 0.930 . S
H104 C91 0.931 . S
H105 C92 0.929 . S
H106 C100 0.929 . S
H107 C101 0.930 . S
Mn108 O113 2.095 . S
Mn108 O123 2.162 . S
Mn108 O124 2.297 . S
Mn108 O132 2.385 . S
Mn108 O133 2.209 . S
Mn108 O134 2.094 . S
Mn109 O114 2.121 . S
Mn109 N116 2.257 . S
Mn109 N125 2.282 . S
Mn109 O133 2.215 . S
Mn109 O135 2.117 . S
C110 O132 1.234 . S
C110 O133 1.283 . S
C111 O123 1.281 . S
C111 O124 1.236 . S
C112 O134 1.240 . S
C112 O135 1.264 . S
O113 Mn108 2.095 . S
O113 C122 1.250 1_554 S
O114 Mn109 2.121 . S
O114 C122 1.258 1_554 S
C115 N116 1.326 . S
C115 C119 1.460 . S
C115 H121 0.929 . S
N116 Mn109 2.257 . S
N116 C115 1.326 . S
N116 C120 1.362 . S
C117 C118 1.258 . S
C117 C120 1.431 . S
C117 C137 1.449 . S
C118 C117 1.258 . S
C118 C119 1.477 . S
C118 H138 0.931 . S
C119 C115 1.460 . S
C119 C118 1.477 . S
C119 H139 0.930 . S
C120 N116 1.362 . S
C120 C117 1.431 . S
C120 C130 1.476 . S
H121 C115 0.929 . S
C122 O113 1.250 1_556 S
C122 O114 1.258 1_556 S
O123 Mn108 2.162 . S
O123 C111 1.281 . S
O124 Mn108 2.297 . S
O124 C111 1.236 . S
N125 Mn109 2.282 . S
N125 C126 1.328 . S
N125 C130 1.318 . S
C126 N125 1.328 . S
C126 C127 1.457 . S
C126 H131 0.929 . S
C127 C126 1.457 . S
C127 C128 1.291 . S
C127 H140 0.931 . S
C128 C127 1.291 . S
C128 C129 1.373 . S
C128 H141 0.929 . S
C129 C128 1.373 . S
C129 C130 1.396 . S
C129 C136 1.403 . S
C130 C120 1.476 . S
C130 N125 1.318 . S
C130 C129 1.396 . S
H131 C126 0.929 . S
O132 Mn108 2.385 . S
O132 C110 1.234 . S
O133 Mn108 2.209 . S
O133 Mn109 2.215 . S
O133 C110 1.283 . S
O134 Mn108 2.094 . S
O134 C112 1.240 . S
O135 Mn109 2.117 . S
O135 C112 1.264 . S
C136 C129 1.403 . S
C136 C137 1.399 . S
C136 H142 0.929 . S
C137 C117 1.449 . S
C137 C136 1.399 . S
C137 H143 0.930 . S
H138 C118 0.931 . S
H139 C119 0.930 . S
H140 C127 0.931 . S
H141 C128 0.929 . S
H142 C136 0.929 . S
H143 C137 0.930 . S
Mn144 O149 2.095 . S
Mn144 O159 2.162 1_554 S
Mn144 O160 2.297 1_554 S
Mn144 O168 2.385 1_554 S
Mn144 O169 2.209 1_554 S
Mn144 O170 2.094 . S
Mn145 O150 2.121 . S
Mn145 N152 2.257 . S
Mn145 N161 2.282 1_554 S
Mn145 O169 2.215 1_554 S
Mn145 O171 2.117 . S
C146 O168 1.234 . S
C146 O169 1.283 . S
C147 O159 1.281 . S
C147 O160 1.236 . S
C148 O170 1.240 . S
C148 O171 1.264 . S
O149 Mn144 2.095 . S
O149 C158 1.250 . S
O150 Mn145 2.121 . S
O150 C158 1.258 . S
C151 N152 1.326 . S
C151 C155 1.460 . S
C151 H157 0.929 . S
N152 Mn145 2.257 . S
N152 C151 1.326 . S
N152 C156 1.362 1_554 S
C153 C154 1.258 . S
C153 C156 1.431 . S
C153 C173 1.449 . S
C154 C153 1.258 . S
C154 C155 1.477 1_556 S
C154 H174 0.931 . S
C155 C151 1.460 . S
C155 C154 1.477 1_554 S
C155 H175 0.930 . S
C156 N152 1.362 1_556 S
C156 C153 1.431 . S
C156 C166 1.476 . S
H157 C151 0.929 . S
C158 O149 1.250 . S
C158 O150 1.258 . S
O159 Mn144 2.162 1_556 S
O159 C147 1.281 . S
O160 Mn144 2.297 1_556 S
O160 C147 1.236 . S
N161 Mn145 2.282 1_556 S
N161 C162 1.328 . S
N161 C166 1.318 . S
C162 N161 1.328 . S
C162 C163 1.457 . S
C162 H167 0.929 . S
C163 C162 1.457 . S
C163 C164 1.291 . S
C163 H176 0.931 . S
C164 C163 1.291 . S
C164 C165 1.373 . S
C164 H177 0.929 . S
C165 C164 1.373 . S
C165 C166 1.396 . S
C165 C172 1.403 . S
C166 C156 1.476 . S
C166 N161 1.318 . S
C166 C165 1.396 . S
H167 C162 0.929 . S
O168 Mn144 2.385 1_556 S
O168 C146 1.234 . S
O169 Mn144 2.209 1_556 S
O169 Mn145 2.215 1_556 S
O169 C146 1.283 . S
O170 Mn144 2.094 . S
O170 C148 1.240 . S
O171 Mn145 2.117 . S
O171 C148 1.264 . S
C172 C165 1.403 . S
C172 C173 1.399 . S
C172 H178 0.929 . S
C173 C153 1.449 . S
C173 C172 1.399 . S
C173 H179 0.930 . S
H174 C154 0.931 . S
H175 C155 0.930 . S
H176 C163 0.931 . S
H177 C164 0.929 . S
H178 C172 0.929 . S
H179 C173 0.930 . S
Mn180 O185 2.095 . S
Mn180 O195 2.162 . S
Mn180 O196 2.297 . S
Mn180 O204 2.385 . S
Mn180 O205 2.209 . S
Mn180 O206 2.094 . S
Mn181 O186 2.121 . S
Mn181 N188 2.257 . S
Mn181 N197 2.282 . S
Mn181 O205 2.215 . S
Mn181 O207 2.117 . S
C182 O204 1.234 . S
C182 O205 1.283 . S
C183 O195 1.281 . S
C183 O196 1.236 . S
C184 O206 1.240 . S
C184 O207 1.264 . S
O185 Mn180 2.095 . S
O185 C194 1.250 . S
O186 Mn181 2.121 . S
O186 C194 1.258 . S
C187 N188 1.326 . S
C187 C191 1.460 . S
C187 H193 0.929 . S
N188 Mn181 2.257 . S
N188 C187 1.326 . S
N188 C192 1.362 . S
C189 C190 1.258 . S
C189 C192 1.431 . S
C189 C209 1.449 . S
C190 C189 1.258 . S
C190 C191 1.477 . S
C190 H210 0.931 . S
C191 C187 1.460 . S
C191 C190 1.477 . S
C191 H211 0.930 . S
C192 N188 1.362 . S
C192 C189 1.431 . S
C192 C202 1.476 . S
H193 C187 0.929 . S
C194 O185 1.250 . S
C194 O186 1.258 . S
O195 Mn180 2.162 . S
O195 C183 1.281 . S
O196 Mn180 2.297 . S
O196 C183 1.236 . S
N197 Mn181 2.282 . S
N197 C198 1.328 . S
N197 C202 1.318 . S
C198 N197 1.328 . S
C198 C199 1.457 . S
C198 H203 0.929 . S
C199 C198 1.457 . S
C199 C200 1.291 . S
C199 H212 0.931 . S
C200 C199 1.291 . S
C200 C201 1.373 . S
C200 H213 0.929 . S
C201 C200 1.373 . S
C201 C202 1.396 . S
C201 C208 1.403 . S
C202 C192 1.476 . S
C202 N197 1.318 . S
C202 C201 1.396 . S
H203 C198 0.929 . S
O204 Mn180 2.385 . S
O204 C182 1.234 . S
O205 Mn180 2.209 . S
O205 Mn181 2.215 . S
O205 C182 1.283 . S
O206 Mn180 2.094 . S
O206 C184 1.240 . S
O207 Mn181 2.117 . S
O207 C184 1.264 . S
C208 C201 1.403 . S
C208 C209 1.399 . S
C208 H214 0.929 . S
C209 C189 1.449 . S
C209 C208 1.399 . S
C209 H215 0.930 . S
H210 C190 0.931 . S
H211 C191 0.930 . S
H212 C199 0.931 . S
H213 C200 0.929 . S
H214 C208 0.929 . S
H215 C209 0.930 . S
Mn216 O221 2.095 . S
Mn216 O231 2.162 . S
Mn216 O232 2.297 . S
Mn216 O240 2.385 . S
Mn216 O241 2.209 . S
Mn216 O242 2.094 . S
Mn217 O222 2.121 . S
Mn217 N224 2.257 . S
Mn217 N233 2.282 . S
Mn217 O241 2.215 . S
Mn217 O243 2.117 . S
C218 O240 1.234 . S
C218 O241 1.283 . S
C219 O231 1.281 . S
C219 O232 1.236 . S
C220 O242 1.240 . S
C220 O243 1.264 . S
O221 Mn216 2.095 . S
O221 C230 1.250 . S
O222 Mn217 2.121 . S
O222 C230 1.258 . S
C223 N224 1.326 . S
C223 C227 1.460 . S
C223 H229 0.929 . S
N224 Mn217 2.257 . S
N224 C223 1.326 . S
N224 C228 1.362 . S
C225 C226 1.258 . S
C225 C228 1.431 . S
C225 C245 1.449 . S
C226 C225 1.258 . S
C226 C227 1.477 . S
C226 H246 0.931 . S
C227 C223 1.460 . S
C227 C226 1.477 . S
C227 H247 0.930 . S
C228 N224 1.362 . S
C228 C225 1.431 . S
C228 C238 1.476 . S
H229 C223 0.929 . S
C230 O221 1.250 . S
C230 O222 1.258 . S
O231 Mn216 2.162 . S
O231 C219 1.281 . S
O232 Mn216 2.297 . S
O232 C219 1.236 . S
N233 Mn217 2.282 . S
N233 C234 1.328 . S
N233 C238 1.318 . S
C234 N233 1.328 . S
C234 C235 1.457 . S
C234 H239 0.929 . S
C235 C234 1.457 . S
C235 C236 1.291 . S
C235 H248 0.931 . S
C236 C235 1.291 . S
C236 C237 1.373 . S
C236 H249 0.929 . S
C237 C236 1.373 . S
C237 C238 1.396 . S
C237 C244 1.403 . S
C238 C228 1.476 . S
C238 N233 1.318 . S
C238 C237 1.396 . S
H239 C234 0.929 . S
O240 Mn216 2.385 . S
O240 C218 1.234 . S
O241 Mn216 2.209 . S
O241 Mn217 2.215 . S
O241 C218 1.283 . S
O242 Mn216 2.094 . S
O242 C220 1.240 . S
O243 Mn217 2.117 . S
O243 C220 1.264 . S
C244 C237 1.403 . S
C244 C245 1.399 . S
C244 H250 0.929 . S
C245 C225 1.449 . S
C245 C244 1.399 . S
C245 H251 0.930 . S
H246 C226 0.931 . S
H247 C227 0.930 . S
H248 C235 0.931 . S
H249 C236 0.929 . S
H250 C244 0.929 . S
H251 C245 0.930 . S
Mn252 O257 2.095 . S
Mn252 O267 2.162 . S
Mn252 O268 2.297 . S
Mn252 O276 2.385 . S
Mn252 O277 2.209 . S
Mn252 O278 2.094 . S
Mn253 O258 2.121 . S
Mn253 N260 2.257 . S
Mn253 N269 2.282 . S
Mn253 O277 2.215 . S
Mn253 O279 2.117 . S
C254 O276 1.234 . S
C254 O277 1.283 . S
C255 O267 1.281 . S
C255 O268 1.236 . S
C256 O278 1.240 . S
C256 O279 1.264 . S
O257 Mn252 2.095 . S
O257 C266 1.250 . S
O258 Mn253 2.121 . S
O258 C266 1.258 . S
C259 N260 1.326 . S
C259 C263 1.460 . S
C259 H265 0.929 . S
N260 Mn253 2.257 . S
N260 C259 1.326 . S
N260 C264 1.362 . S
C261 C262 1.258 . S
C261 C264 1.431 . S
C261 C281 1.449 . S
C262 C261 1.258 . S
C262 C263 1.477 . S
C262 H282 0.931 . S
C263 C259 1.460 . S
C263 C262 1.477 . S
C263 H283 0.930 . S
C264 N260 1.362 . S
C264 C261 1.431 . S
C264 C274 1.476 . S
H265 C259 0.929 . S
C266 O257 1.250 . S
C266 O258 1.258 . S
O267 Mn252 2.162 . S
O267 C255 1.281 . S
O268 Mn252 2.297 . S
O268 C255 1.236 . S
N269 Mn253 2.282 . S
N269 C270 1.328 . S
N269 C274 1.318 . S
C270 N269 1.328 . S
C270 C271 1.457 . S
C270 H275 0.929 . S
C271 C270 1.457 . S
C271 C272 1.291 . S
C271 H284 0.931 . S
C272 C271 1.291 . S
C272 C273 1.373 . S
C272 H285 0.929 . S
C273 C272 1.373 . S
C273 C274 1.396 . S
C273 C280 1.403 . S
C274 C264 1.476 . S
C274 N269 1.318 . S
C274 C273 1.396 . S
H275 C270 0.929 . S
O276 Mn252 2.385 . S
O276 C254 1.234 . S
O277 Mn252 2.209 . S
O277 Mn253 2.215 . S
O277 C254 1.283 . S
O278 Mn252 2.094 . S
O278 C256 1.240 . S
O279 Mn253 2.117 . S
O279 C256 1.264 . S
C280 C273 1.403 . S
C280 C281 1.399 . S
C280 H286 0.929 . S
C281 C261 1.449 . S
C281 C280 1.399 . S
C281 H287 0.930 . S
H282 C262 0.931 . S
H283 C263 0.930 . S
H284 C271 0.931 . S
H285 C272 0.929 . S
H286 C280 0.929 . S
H287 C281 0.930 . S
Mn288 O293 2.095 . S
Mn288 O303 2.162 . S
Mn288 O304 2.297 . S
Mn288 O312 2.385 . S
Mn288 O313 2.209 . S
Mn288 O314 2.094 . S
Mn289 O294 2.121 . S
Mn289 N296 2.257 . S
Mn289 N305 2.282 . S
Mn289 O313 2.215 . S
Mn289 O315 2.117 . S
C290 O312 1.234 . S
C290 O313 1.283 . S
C291 O303 1.281 . S
C291 O304 1.236 . S
C292 O314 1.240 . S
C292 O315 1.264 . S
O293 Mn288 2.095 . S
O293 C302 1.250 . S
O294 Mn289 2.121 . S
O294 C302 1.258 . S
C295 N296 1.326 . S
C295 C299 1.460 . S
C295 H301 0.929 . S
N296 Mn289 2.257 . S
N296 C295 1.326 . S
N296 C300 1.362 . S
C297 C298 1.258 . S
C297 C300 1.431 . S
C297 C317 1.449 . S
C298 C297 1.258 . S
C298 C299 1.477 . S
C298 H318 0.931 . S
C299 C295 1.460 . S
C299 C298 1.477 . S
C299 H319 0.930 . S
C300 N296 1.362 . S
C300 C297 1.431 . S
C300 C310 1.476 . S
H301 C295 0.929 . S
C302 O293 1.250 . S
C302 O294 1.258 . S
O303 Mn288 2.162 . S
O303 C291 1.281 . S
O304 Mn288 2.297 . S
O304 C291 1.236 . S
N305 Mn289 2.282 . S
N305 C306 1.328 . S
N305 C310 1.318 . S
C306 N305 1.328 . S
C306 C307 1.457 . S
C306 H311 0.929 . S
C307 C306 1.457 . S
C307 C308 1.291 . S
C307 H320 0.931 . S
C308 C307 1.291 . S
C308 C309 1.373 . S
C308 H321 0.929 . S
C309 C308 1.373 . S
C309 C310 1.396 . S
C309 C316 1.403 . S
C310 C300 1.476 . S
C310 N305 1.318 . S
C310 C309 1.396 . S
H311 C306 0.929 . S
O312 Mn288 2.385 . S
O312 C290 1.234 . S
O313 Mn288 2.209 . S
O313 Mn289 2.215 . S
O313 C290 1.283 . S
O314 Mn288 2.094 . S
O314 C292 1.240 . S
O315 Mn289 2.117 . S
O315 C292 1.264 . S
C316 C309 1.403 . S
C316 C317 1.399 . S
C316 H322 0.929 . S
C317 C297 1.449 . S
C317 C316 1.399 . S
C317 H323 0.930 . S
H318 C298 0.931 . S
H319 C299 0.930 . S
H320 C307 0.931 . S
H321 C308 0.929 . S
H322 C316 0.929 . S
H323 C317 0.930 . S
Mn324 O329 2.095 . S
Mn324 O339 2.162 . S
Mn324 O340 2.297 . S
Mn324 O348 2.385 . S
Mn324 O349 2.209 . S
Mn324 O350 2.094 . S
Mn325 O330 2.121 . S
Mn325 N332 2.257 . S
Mn325 N341 2.282 . S
Mn325 O349 2.215 . S
Mn325 O351 2.117 . S
C326 O348 1.234 . S
C326 O349 1.283 . S
C327 O339 1.281 . S
C327 O340 1.236 . S
C328 O350 1.240 . S
C328 O351 1.264 . S
O329 Mn324 2.095 . S
O329 C338 1.250 1_554 S
O330 Mn325 2.121 . S
O330 C338 1.258 1_554 S
C331 N332 1.326 . S
C331 C335 1.460 . S
C331 H337 0.929 . S
N332 Mn325 2.257 . S
N332 C331 1.326 . S
N332 C336 1.362 . S
C333 C334 1.258 . S
C333 C336 1.431 . S
C333 C353 1.449 . S
C334 C333 1.258 . S
C334 C335 1.477 . S
C334 H354 0.931 . S
C335 C331 1.460 . S
C335 C334 1.477 . S
C335 H355 0.930 . S
C336 N332 1.362 . S
C336 C333 1.431 . S
C336 C346 1.476 . S
H337 C331 0.929 . S
C338 O329 1.250 1_556 S
C338 O330 1.258 1_556 S
O339 Mn324 2.162 . S
O339 C327 1.281 . S
O340 Mn324 2.297 . S
O340 C327 1.236 . S
N341 Mn325 2.282 . S
N341 C342 1.328 . S
N341 C346 1.318 . S
C342 N341 1.328 . S
C342 C343 1.457 . S
C342 H347 0.929 . S
C343 C342 1.457 . S
C343 C344 1.291 . S
C343 H356 0.931 . S
C344 C343 1.291 . S
C344 C345 1.373 . S
C344 H357 0.929 . S
C345 C344 1.373 . S
C345 C346 1.396 . S
C345 C352 1.403 . S
C346 C336 1.476 . S
C346 N341 1.318 . S
C346 C345 1.396 . S
H347 C342 0.929 . S
O348 Mn324 2.385 . S
O348 C326 1.234 . S
O349 Mn324 2.209 . S
O349 Mn325 2.215 . S
O349 C326 1.283 . S
O350 Mn324 2.094 . S
O350 C328 1.240 . S
O351 Mn325 2.117 . S
O351 C328 1.264 . S
C352 C345 1.403 . S
C352 C353 1.399 . S
C352 H358 0.929 . S
C353 C333 1.449 . S
C353 C352 1.399 . S
C353 H359 0.930 . S
H354 C334 0.931 . S
H355 C335 0.930 . S
H356 C343 0.931 . S
H357 C344 0.929 . S
H358 C352 0.929 . S
H359 C353 0.930 . S
Mn360 O365 2.095 . S
Mn360 O375 2.162 . S
Mn360 O376 2.297 . S
Mn360 O384 2.385 . S
Mn360 O385 2.209 . S
Mn360 O386 2.094 . S
Mn361 O366 2.121 . S
Mn361 N368 2.257 . S
Mn361 N377 2.282 . S
Mn361 O385 2.215 . S
Mn361 O387 2.117 . S
C362 O384 1.234 . S
C362 O385 1.283 . S
C363 O375 1.281 . S
C363 O376 1.236 . S
C364 O386 1.240 . S
C364 O387 1.264 . S
O365 Mn360 2.095 . S
O365 C374 1.250 . S
O366 Mn361 2.121 . S
O366 C374 1.258 . S
C367 N368 1.326 . S
C367 C371 1.460 . S
C367 H373 0.929 . S
N368 Mn361 2.257 . S
N368 C367 1.326 . S
N368 C372 1.362 . S
C369 C370 1.258 . S
C369 C372 1.431 . S
C369 C389 1.449 . S
C370 C369 1.258 . S
C370 C371 1.477 . S
C370 H390 0.931 . S
C371 C367 1.460 . S
C371 C370 1.477 . S
C371 H391 0.930 . S
C372 N368 1.362 . S
C372 C369 1.431 . S
C372 C382 1.476 . S
H373 C367 0.929 . S
C374 O365 1.250 . S
C374 O366 1.258 . S
O375 Mn360 2.162 . S
O375 C363 1.281 . S
O376 Mn360 2.297 . S
O376 C363 1.236 . S
N377 Mn361 2.282 . S
N377 C378 1.328 . S
N377 C382 1.318 . S
C378 N377 1.328 . S
C378 C379 1.457 . S
C378 H383 0.929 . S
C379 C378 1.457 . S
C379 C380 1.291 . S
C379 H392 0.931 . S
C380 C379 1.291 . S
C380 C381 1.373 . S
C380 H393 0.929 . S
C381 C380 1.373 . S
C381 C382 1.396 . S
C381 C388 1.403 . S
C382 C372 1.476 . S
C382 N377 1.318 . S
C382 C381 1.396 . S
H383 C378 0.929 . S
O384 Mn360 2.385 . S
O384 C362 1.234 . S
O385 Mn360 2.209 . S
O385 Mn361 2.215 . S
O385 C362 1.283 . S
O386 Mn360 2.094 . S
O386 C364 1.240 . S
O387 Mn361 2.117 . S
O387 C364 1.264 . S
C388 C381 1.403 . S
C388 C389 1.399 . S
C388 H394 0.929 . S
C389 C369 1.449 . S
C389 C388 1.399 . S
C389 H395 0.930 . S
H390 C370 0.931 . S
H391 C371 0.930 . S
H392 C379 0.931 . S
H393 C380 0.929 . S
H394 C388 0.929 . S
H395 C389 0.930 . S
Mn396 O401 2.095 . S
Mn396 O411 2.162 . S
Mn396 O412 2.297 . S
Mn396 O420 2.385 . S
Mn396 O421 2.209 . S
Mn396 O422 2.094 . S
Mn397 O402 2.121 . S
Mn397 N404 2.257 . S
Mn397 N413 2.282 . S
Mn397 O421 2.215 . S
Mn397 O423 2.117 . S
C398 O420 1.234 . S
C398 O421 1.283 . S
C399 O411 1.281 . S
C399 O412 1.236 . S
C400 O422 1.240 . S
C400 O423 1.264 . S
O401 Mn396 2.095 . S
O401 C410 1.250 . S
O402 Mn397 2.121 . S
O402 C410 1.258 . S
C403 N404 1.326 . S
C403 C407 1.460 . S
C403 H409 0.929 . S
N404 Mn397 2.257 . S
N404 C403 1.326 . S
N404 C408 1.362 . S
C405 C406 1.258 . S
C405 C408 1.431 . S
C405 C425 1.449 . S
C406 C405 1.258 . S
C406 C407 1.477 . S
C406 H426 0.931 . S
C407 C403 1.460 . S
C407 C406 1.477 . S
C407 H427 0.930 . S
C408 N404 1.362 . S
C408 C405 1.431 . S
C408 C418 1.476 . S
H409 C403 0.929 . S
C410 O401 1.250 . S
C410 O402 1.258 . S
O411 Mn396 2.162 . S
O411 C399 1.281 . S
O412 Mn396 2.297 . S
O412 C399 1.236 . S
N413 Mn397 2.282 . S
N413 C414 1.328 . S
N413 C418 1.318 . S
C414 N413 1.328 . S
C414 C415 1.457 . S
C414 H419 0.929 . S
C415 C414 1.457 . S
C415 C416 1.291 . S
C415 H428 0.931 . S
C416 C415 1.291 . S
C416 C417 1.373 . S
C416 H429 0.929 . S
C417 C416 1.373 . S
C417 C418 1.396 . S
C417 C424 1.403 . S
C418 C408 1.476 . S
C418 N413 1.318 . S
C418 C417 1.396 . S
H419 C414 0.929 . S
O420 Mn396 2.385 . S
O420 C398 1.234 . S
O421 Mn396 2.209 . S
O421 Mn397 2.215 . S
O421 C398 1.283 . S
O422 Mn396 2.094 . S
O422 C400 1.240 . S
O423 Mn397 2.117 . S
O423 C400 1.264 . S
C424 C417 1.403 . S
C424 C425 1.399 . S
C424 H430 0.929 . S
C425 C405 1.449 . S
C425 C424 1.399 . S
C425 H431 0.930 . S
H426 C406 0.931 . S
H427 C407 0.930 . S
H428 C415 0.931 . S
H429 C416 0.929 . S
H430 C424 0.929 . S
H431 C425 0.930 . S
Mn432 O437 2.095 . S
Mn432 O447 2.162 . S
Mn432 O448 2.297 . S
Mn432 O456 2.385 . S
Mn432 O457 2.209 . S
Mn432 O458 2.094 . S
Mn433 O438 2.121 . S
Mn433 N440 2.257 . S
Mn433 N449 2.282 . S
Mn433 O457 2.215 . S
Mn433 O459 2.117 . S
C434 O456 1.234 . S
C434 O457 1.283 . S
C435 O447 1.281 . S
C435 O448 1.236 . S
C436 O458 1.240 . S
C436 O459 1.264 . S
O437 Mn432 2.095 . S
O437 C446 1.250 . S
O438 Mn433 2.121 . S
O438 C446 1.258 . S
C439 N440 1.326 . S
C439 C443 1.460 . S
C439 H445 0.929 . S
N440 Mn433 2.257 . S
N440 C439 1.326 . S
N440 C444 1.362 . S
C441 C442 1.258 . S
C441 C444 1.431 . S
C441 C461 1.449 . S
C442 C441 1.258 . S
C442 C443 1.477 . S
C442 H462 0.931 . S
C443 C439 1.460 . S
C443 C442 1.477 . S
C443 H463 0.930 . S
C444 N440 1.362 . S
C444 C441 1.431 . S
C444 C454 1.476 . S
H445 C439 0.929 . S
C446 O437 1.250 . S
C446 O438 1.258 . S
O447 Mn432 2.162 . S
O447 C435 1.281 . S
O448 Mn432 2.297 . S
O448 C435 1.236 . S
N449 Mn433 2.282 . S
N449 C450 1.328 . S
N449 C454 1.318 . S
C450 N449 1.328 . S
C450 C451 1.457 . S
C450 H455 0.929 . S
C451 C450 1.457 . S
C451 C452 1.291 . S
C451 H464 0.931 . S
C452 C451 1.291 . S
C452 C453 1.373 . S
C452 H465 0.929 . S
C453 C452 1.373 . S
C453 C454 1.396 . S
C453 C460 1.403 . S
C454 C444 1.476 . S
C454 N449 1.318 . S
C454 C453 1.396 . S
H455 C450 0.929 . S
O456 Mn432 2.385 . S
O456 C434 1.234 . S
O457 Mn432 2.209 . S
O457 Mn433 2.215 . S
O457 C434 1.283 . S
O458 Mn432 2.094 . S
O458 C436 1.240 . S
O459 Mn433 2.117 . S
O459 C436 1.264 . S
C460 C453 1.403 . S
C460 C461 1.399 . S
C460 H466 0.929 . S
C461 C441 1.449 . S
C461 C460 1.399 . S
C461 H467 0.930 . S
H462 C442 0.931 . S
H463 C443 0.930 . S
H464 C451 0.931 . S
H465 C452 0.929 . S
H466 C460 0.929 . S
H467 C461 0.930 . S
Mn468 O473 2.095 . S
Mn468 O483 2.162 . S
Mn468 O484 2.297 . S
Mn468 O492 2.385 . S
Mn468 O493 2.209 . S
Mn468 O494 2.094 . S
Mn469 O474 2.121 . S
Mn469 N476 2.257 . S
Mn469 N485 2.282 . S
Mn469 O493 2.215 . S
Mn469 O495 2.117 . S
C470 O492 1.234 . S
C470 O493 1.283 . S
C471 O483 1.281 . S
C471 O484 1.236 . S
C472 O494 1.240 . S
C472 O495 1.264 . S
O473 Mn468 2.095 . S
O473 C482 1.250 . S
O474 Mn469 2.121 . S
O474 C482 1.258 . S
C475 N476 1.326 . S
C475 C479 1.460 . S
C475 H481 0.929 . S
N476 Mn469 2.257 . S
N476 C475 1.326 . S
N476 C480 1.362 . S
C477 C478 1.258 . S
C477 C480 1.431 . S
C477 C497 1.449 . S
C478 C477 1.258 . S
C478 C479 1.477 . S
C478 H498 0.931 . S
C479 C475 1.460 . S
C479 C478 1.477 . S
C479 H499 0.930 . S
C480 N476 1.362 . S
C480 C477 1.431 . S
C480 C490 1.476 . S
H481 C475 0.929 . S
C482 O473 1.250 . S
C482 O474 1.258 . S
O483 Mn468 2.162 . S
O483 C471 1.281 . S
O484 Mn468 2.297 . S
O484 C471 1.236 . S
N485 Mn469 2.282 . S
N485 C486 1.328 . S
N485 C490 1.318 . S
C486 N485 1.328 . S
C486 C487 1.457 . S
C486 H491 0.929 . S
C487 C486 1.457 . S
C487 C488 1.291 . S
C487 H500 0.931 . S
C488 C487 1.291 . S
C488 C489 1.373 . S
C488 H501 0.929 . S
C489 C488 1.373 . S
C489 C490 1.396 . S
C489 C496 1.403 . S
C490 C480 1.476 . S
C490 N485 1.318 . S
C490 C489 1.396 . S
H491 C486 0.929 . S
O492 Mn468 2.385 . S
O492 C470 1.234 . S
O493 Mn468 2.209 . S
O493 Mn469 2.215 . S
O493 C470 1.283 . S
O494 Mn468 2.094 . S
O494 C472 1.240 . S
O495 Mn469 2.117 . S
O495 C472 1.264 . S
C496 C489 1.403 . S
C496 C497 1.399 . S
C496 H502 0.929 . S
C497 C477 1.449 . S
C497 C496 1.399 . S
C497 H503 0.930 . S
H498 C478 0.931 . S
H499 C479 0.930 . S
H500 C487 0.931 . S
H501 C488 0.929 . S
H502 C496 0.929 . S
H503 C497 0.930 . S
Mn504 O509 2.095 . S
Mn504 O519 2.162 1_554 S
Mn504 O520 2.297 1_554 S
Mn504 O528 2.385 1_554 S
Mn504 O529 2.209 1_554 S
Mn504 O530 2.094 . S
Mn505 O510 2.121 . S
Mn505 N512 2.257 . S
Mn505 N521 2.282 1_554 S
Mn505 O529 2.215 1_554 S
Mn505 O531 2.117 . S
C506 O528 1.234 . S
C506 O529 1.283 . S
C507 O519 1.281 . S
C507 O520 1.236 . S
C508 O530 1.240 . S
C508 O531 1.264 . S
O509 Mn504 2.095 . S
O509 C518 1.250 . S
O510 Mn505 2.121 . S
O510 C518 1.258 . S
C511 N512 1.326 . S
C511 C515 1.460 . S
C511 H517 0.929 . S
N512 Mn505 2.257 . S
N512 C511 1.326 . S
N512 C516 1.362 1_554 S
C513 C514 1.258 . S
C513 C516 1.431 . S
C513 C533 1.449 . S
C514 C513 1.258 . S
C514 C515 1.477 1_556 S
C514 H534 0.931 . S
C515 C511 1.460 . S
C515 C514 1.477 1_554 S
C515 H535 0.930 . S
C516 N512 1.362 1_556 S
C516 C513 1.431 . S
C516 C526 1.476 . S
H517 C511 0.929 . S
C518 O509 1.250 . S
C518 O510 1.258 . S
O519 Mn504 2.162 1_556 S
O519 C507 1.281 . S
O520 Mn504 2.297 1_556 S
O520 C507 1.236 . S
N521 Mn505 2.282 1_556 S
N521 C522 1.328 . S
N521 C526 1.318 . S
C522 N521 1.328 . S
C522 C523 1.457 . S
C522 H527 0.929 . S
C523 C522 1.457 . S
C523 C524 1.291 . S
C523 H536 0.931 . S
C524 C523 1.291 . S
C524 C525 1.373 . S
C524 H537 0.929 . S
C525 C524 1.373 . S
C525 C526 1.396 . S
C525 C532 1.403 . S
C526 C516 1.476 . S
C526 N521 1.318 . S
C526 C525 1.396 . S
H527 C522 0.929 . S
O528 Mn504 2.385 1_556 S
O528 C506 1.234 . S
O529 Mn504 2.209 1_556 S
O529 Mn505 2.215 1_556 S
O529 C506 1.283 . S
O530 Mn504 2.094 . S
O530 C508 1.240 . S
O531 Mn505 2.117 . S
O531 C508 1.264 . S
C532 C525 1.403 . S
C532 C533 1.399 . S
C532 H538 0.929 . S
C533 C513 1.449 . S
C533 C532 1.399 . S
C533 H539 0.930 . S
H534 C514 0.931 . S
H535 C515 0.930 . S
H536 C523 0.931 . S
H537 C524 0.929 . S
H538 C532 0.929 . S
H539 C533 0.930 . S
Mn540 O545 2.095 . S
Mn540 O555 2.162 . S
Mn540 O556 2.297 . S
Mn540 O564 2.385 . S
Mn540 O565 2.209 . S
Mn540 O566 2.094 . S
Mn541 O546 2.121 . S
Mn541 N548 2.257 . S
Mn541 N557 2.282 . S
Mn541 O565 2.215 . S
Mn541 O567 2.117 . S
C542 O564 1.234 . S
C542 O565 1.283 . S
C543 O555 1.281 . S
C543 O556 1.236 . S
C544 O566 1.240 . S
C544 O567 1.264 . S
O545 Mn540 2.095 . S
O545 C554 1.250 . S
O546 Mn541 2.121 . S
O546 C554 1.258 . S
C547 N548 1.326 . S
C547 C551 1.460 . S
C547 H553 0.929 . S
N548 Mn541 2.257 . S
N548 C547 1.326 . S
N548 C552 1.362 . S
C549 C550 1.258 . S
C549 C552 1.431 . S
C549 C569 1.449 . S
C550 C549 1.258 . S
C550 C551 1.477 . S
C550 H570 0.931 . S
C551 C547 1.460 . S
C551 C550 1.477 . S
C551 H571 0.930 . S
C552 N548 1.362 . S
C552 C549 1.431 . S
C552 C562 1.476 . S
H553 C547 0.929 . S
C554 O545 1.250 . S
C554 O546 1.258 . S
O555 Mn540 2.162 . S
O555 C543 1.281 . S
O556 Mn540 2.297 . S
O556 C543 1.236 . S
N557 Mn541 2.282 . S
N557 C558 1.328 . S
N557 C562 1.318 . S
C558 N557 1.328 . S
C558 C559 1.457 . S
C558 H563 0.929 . S
C559 C558 1.457 . S
C559 C560 1.291 . S
C559 H572 0.931 . S
C560 C559 1.291 . S
C560 C561 1.373 . S
C560 H573 0.929 . S
C561 C560 1.373 . S
C561 C562 1.396 . S
C561 C568 1.403 . S
C562 C552 1.476 . S
C562 N557 1.318 . S
C562 C561 1.396 . S
H563 C558 0.929 . S
O564 Mn540 2.385 . S
O564 C542 1.234 . S
O565 Mn540 2.209 . S
O565 Mn541 2.215 . S
O565 C542 1.283 . S
O566 Mn540 2.094 . S
O566 C544 1.240 . S
O567 Mn541 2.117 . S
O567 C544 1.264 . S
C568 C561 1.403 . S
C568 C569 1.399 . S
C568 H574 0.929 . S
C569 C549 1.449 . S
C569 C568 1.399 . S
C569 H575 0.930 . S
H570 C550 0.931 . S
H571 C551 0.930 . S
H572 C559 0.931 . S
H573 C560 0.929 . S
H574 C568 0.929 . S
H575 C569 0.930 . S
H576 C594 0.951 . S
H577 C596 0.951 . S
H578 C598 0.950 . S
H579 C599 0.950 . S
H580 C601 0.950 . S
H581 C604 0.950 . S
H582 C605 0.950 . S
H583 C607 0.950 . S
H584 C608 0.950 . S
H585 C609 0.951 . S
H586 C611 0.951 . S
H587 C613 0.950 . S
H588 C614 0.950 . S
H589 C616 0.950 . S
H590 C619 0.950 . S
H591 C620 0.950 . S
H592 C622 0.950 . S
H593 C623 0.950 . S
C594 H576 0.951 . S
C594 C595 1.366 . S
C594 C596 1.388 . S
C595 C594 1.366 . S
C595 C599 1.385 . S
C596 H577 0.951 . S
C596 C594 1.388 . S
C596 C597 1.366 . S
C597 C596 1.366 . S
C597 C598 1.414 . S
C597 C600 1.499 . S
C598 H578 0.950 . S
C598 C597 1.414 . S
C598 C599 1.374 . S
C599 H579 0.950 . S
C599 C595 1.385 . S
C599 C598 1.374 . S
C600 C597 1.499 . S
C600 C601 1.373 . S
C600 C602 1.389 . S
C601 H580 0.950 . S
C601 C600 1.373 . S
C601 C617 1.377 . S
C602 C600 1.389 . S
C602 C603 1.524 . S
C602 C616 1.377 . S
C603 C602 1.524 . S
C603 C604 1.397 . S
C603 C608 1.363 . S
C604 H581 0.950 . S
C604 C603 1.397 . S
C604 C605 1.334 . S
C605 H582 0.950 . S
C605 C604 1.334 . S
C605 C606 1.287 . S
C606 C605 1.287 . S
C606 C607 1.524 . S
C606 H625 0.913 . S
C607 H583 0.950 . S
C607 C606 1.524 . S
C607 C608 1.415 . S
C608 H584 0.950 . S
C608 C603 1.363 . S
C608 C607 1.415 . S
C609 H585 0.951 . S
C609 C610 1.366 . S
C609 C611 1.388 . S
C610 C609 1.366 . S
C610 C614 1.385 . S
C611 H586 0.951 . S
C611 C609 1.388 . S
C611 C612 1.366 . S
C612 C611 1.366 . S
C612 C613 1.414 . S
C612 C615 1.499 . S
C613 H587 0.950 . S
C613 C612 1.414 . S
C613 C614 1.374 . S
C614 H588 0.950 . S
C614 C610 1.385 . S
C614 C613 1.374 . S
C615 C612 1.499 . S
C615 C616 1.373 . S
C615 C617 1.389 . S
C616 H589 0.950 . S
C616 C602 1.377 . S
C616 C615 1.373 . S
C617 C601 1.377 . S
C617 C615 1.389 . S
C617 C618 1.524 . S
C618 C617 1.524 . S
C618 C619 1.397 . S
C618 C623 1.363 . S
C619 H590 0.950 . S
C619 C618 1.397 . S
C619 C620 1.334 . S
C620 H591 0.950 . S
C620 C619 1.334 . S
C620 C621 1.287 . S
C621 C620 1.287 . S
C621 C622 1.524 . S
C621 H624 0.999 . S
C622 H592 0.950 . S
C622 C621 1.524 . S
C622 C623 1.415 . S
C623 H593 0.950 . S
C623 C618 1.363 . S
C623 C622 1.415 . S
H624 C621 0.999 . S
H625 C606 0.913 . S
H626 C644 0.951 . S
H627 C646 0.951 . S
H628 C648 0.950 . S
H629 C649 0.950 . S
H630 C651 0.950 . S
H631 C654 0.950 . S
H632 C655 0.950 . S
H633 C657 0.950 . S
H634 C658 0.950 . S
H635 C659 0.951 . S
H636 C661 0.951 . S
H637 C663 0.950 . S
H638 C664 0.950 . S
H639 C666 0.950 . S
H640 C669 0.950 . S
H641 C670 0.950 . S
H642 C672 0.950 . S
H643 C673 0.950 . S
C644 H626 0.951 . S
C644 C645 1.366 . S
C644 C646 1.388 . S
C645 C644 1.366 . S
C645 C649 1.385 . S
C646 H627 0.951 . S
C646 C644 1.388 . S
C646 C647 1.366 . S
C647 C646 1.366 . S
C647 C648 1.414 . S
C647 C650 1.499 . S
C648 H628 0.950 . S
C648 C647 1.414 . S
C648 C649 1.374 . S
C649 H629 0.950 . S
C649 C645 1.385 . S
C649 C648 1.374 . S
C650 C647 1.499 . S
C650 C651 1.373 . S
C650 C652 1.389 . S
C651 H630 0.950 . S
C651 C650 1.373 . S
C651 C667 1.377 . S
C652 C650 1.389 . S
C652 C653 1.524 . S
C652 C666 1.377 . S
C653 C652 1.524 . S
C653 C654 1.397 . S
C653 C658 1.363 . S
C654 H631 0.950 . S
C654 C653 1.397 . S
C654 C655 1.334 . S
C655 H632 0.950 . S
C655 C654 1.334 . S
C655 C656 1.287 . S
C656 C655 1.287 . S
C656 C657 1.524 . S
C656 H675 0.913 . S
C657 H633 0.950 . S
C657 C656 1.524 . S
C657 C658 1.415 . S
C658 H634 0.950 . S
C658 C653 1.363 . S
C658 C657 1.415 . S
C659 H635 0.951 . S
C659 C660 1.366 . S
C659 C661 1.388 . S
C660 C659 1.366 . S
C660 C664 1.385 . S
C661 H636 0.951 . S
C661 C659 1.388 . S
C661 C662 1.366 . S
C662 C661 1.366 . S
C662 C663 1.414 . S
C662 C665 1.499 . S
C663 H637 0.950 . S
C663 C662 1.414 . S
C663 C664 1.374 . S
C664 H638 0.950 . S
C664 C660 1.385 . S
C664 C663 1.374 . S
C665 C662 1.499 . S
C665 C666 1.373 . S
C665 C667 1.389 . S
C666 H639 0.950 . S
C666 C652 1.377 . S
C666 C665 1.373 . S
C667 C651 1.377 . S
C667 C665 1.389 . S
C667 C668 1.524 . S
C668 C667 1.524 . S
C668 C669 1.397 . S
C668 C673 1.363 . S
C669 H640 0.950 . S
C669 C668 1.397 . S
C669 C670 1.334 . S
C670 H641 0.950 . S
C670 C669 1.334 . S
C670 C671 1.287 . S
C671 C670 1.287 . S
C671 C672 1.524 . S
C671 H674 0.999 . S
C672 H642 0.950 . S
C672 C671 1.524 . S
C672 C673 1.415 . S
C673 H643 0.950 . S
C673 C668 1.363 . S
C673 C672 1.415 . S
H674 C671 0.999 . S
H675 C656 0.913 . S
H676 C694 0.951 . S
H677 C696 0.951 . S
H678 C698 0.950 . S
H679 C699 0.950 . S
H680 C701 0.950 . S
H681 C704 0.950 . S
H682 C705 0.950 . S
H683 C707 0.950 . S
H684 C708 0.950 . S
H685 C709 0.951 1_554 S
H686 C711 0.951 . S
H687 C713 0.950 . S
H688 C714 0.950 . S
H689 C716 0.950 . S
H690 C719 0.950 . S
H691 C720 0.950 . S
H692 C722 0.950 . S
H693 C723 0.950 . S
C694 H676 0.951 . S
C694 C695 1.366 . S
C694 C696 1.388 . S
C695 C694 1.366 . S
C695 C699 1.385 . S
C696 H677 0.951 . S
C696 C694 1.388 . S
C696 C697 1.366 . S
C697 C696 1.366 . S
C697 C698 1.414 . S
C697 C700 1.499 . S
C698 H678 0.950 . S
C698 C697 1.414 . S
C698 C699 1.374 . S
C699 H679 0.950 . S
C699 C695 1.385 . S
C699 C698 1.374 . S
C700 C697 1.499 . S
C700 C701 1.373 . S
C700 C702 1.389 . S
C701 H680 0.950 . S
C701 C700 1.373 . S
C701 C717 1.377 . S
C702 C700 1.389 . S
C702 C703 1.524 . S
C702 C716 1.377 . S
C703 C702 1.524 . S
C703 C704 1.397 . S
C703 C708 1.363 . S
C704 H681 0.950 . S
C704 C703 1.397 . S
C704 C705 1.334 . S
C705 H682 0.950 . S
C705 C704 1.334 . S
C705 C706 1.287 . S
C706 C705 1.287 . S
C706 C707 1.524 . S
C706 H725 0.913 . S
C707 H683 0.950 . S
C707 C706 1.524 . S
C707 C708 1.415 . S
C708 H684 0.950 . S
C708 C703 1.363 . S
C708 C707 1.415 . S
C709 H685 0.951 1_556 S
C709 C710 1.366 . S
C709 C711 1.388 . S
C710 C709 1.366 . S
C710 C714 1.385 . S
C711 H686 0.951 . S
C711 C709 1.388 . S
C711 C712 1.366 . S
C712 C711 1.366 . S
C712 C713 1.414 . S
C712 C715 1.499 . S
C713 H687 0.950 . S
C713 C712 1.414 . S
C713 C714 1.374 . S
C714 H688 0.950 . S
C714 C710 1.385 . S
C714 C713 1.374 . S
C715 C712 1.499 . S
C715 C716 1.373 . S
C715 C717 1.389 . S
C716 H689 0.950 . S
C716 C702 1.377 . S
C716 C715 1.373 . S
C717 C701 1.377 . S
C717 C715 1.389 . S
C717 C718 1.524 . S
C718 C717 1.524 . S
C718 C719 1.397 . S
C718 C723 1.363 . S
C719 H690 0.950 . S
C719 C718 1.397 . S
C719 C720 1.334 . S
C720 H691 0.950 . S
C720 C719 1.334 . S
C720 C721 1.287 . S
C721 C720 1.287 . S
C721 C722 1.524 . S
C721 H724 0.999 . S
C722 H692 0.950 . S
C722 C721 1.524 . S
C722 C723 1.415 . S
C723 H693 0.950 . S
C723 C718 1.363 . S
C723 C722 1.415 . S
H724 C721 0.999 . S
H725 C706 0.913 . S
H726 C744 0.951 . S
H727 C746 0.951 . S
H728 C748 0.950 . S
H729 C749 0.950 . S
H730 C751 0.950 . S
H731 C754 0.950 . S
H732 C755 0.950 1_556 S
H733 C757 0.950 . S
H734 C758 0.950 . S
H735 C759 0.951 . S
H736 C761 0.951 . S
H737 C763 0.950 . S
H738 C764 0.950 . S
H739 C766 0.950 . S
H740 C769 0.950 . S
H741 C770 0.950 . S
H742 C772 0.950 . S
H743 C773 0.950 . S
C744 H726 0.951 . S
C744 C745 1.366 . S
C744 C746 1.388 . S
C745 C744 1.366 . S
C745 C749 1.385 . S
C746 H727 0.951 . S
C746 C744 1.388 . S
C746 C747 1.366 . S
C747 C746 1.366 . S
C747 C748 1.414 . S
C747 C750 1.499 . S
C748 H728 0.950 . S
C748 C747 1.414 . S
C748 C749 1.374 . S
C749 H729 0.950 . S
C749 C745 1.385 . S
C749 C748 1.374 . S
C750 C747 1.499 . S
C750 C751 1.373 . S
C750 C752 1.389 . S
C751 H730 0.950 . S
C751 C750 1.373 . S
C751 C767 1.377 . S
C752 C750 1.389 . S
C752 C753 1.524 . S
C752 C766 1.377 . S
C753 C752 1.524 . S
C753 C754 1.397 . S
C753 C758 1.363 . S
C754 H731 0.950 . S
C754 C753 1.397 . S
C754 C755 1.334 . S
C755 H732 0.950 1_554 S
C755 C754 1.334 . S
C755 C756 1.287 . S
C756 C755 1.287 . S
C756 C757 1.524 . S
C756 H775 0.913 1_554 S
C757 H733 0.950 . S
C757 C756 1.524 . S
C757 C758 1.415 . S
C758 H734 0.950 . S
C758 C753 1.363 . S
C758 C757 1.415 . S
C759 H735 0.951 . S
C759 C760 1.366 . S
C759 C761 1.388 . S
C760 C759 1.366 . S
C760 C764 1.385 . S
C761 H736 0.951 . S
C761 C759 1.388 . S
C761 C762 1.366 . S
C762 C761 1.366 . S
C762 C763 1.414 . S
C762 C765 1.499 . S
C763 H737 0.950 . S
C763 C762 1.414 . S
C763 C764 1.374 . S
C764 H738 0.950 . S
C764 C760 1.385 . S
C764 C763 1.374 . S
C765 C762 1.499 . S
C765 C766 1.373 . S
C765 C767 1.389 . S
C766 H739 0.950 . S
C766 C752 1.377 . S
C766 C765 1.373 . S
C767 C751 1.377 . S
C767 C765 1.389 . S
C767 C768 1.524 . S
C768 C767 1.524 . S
C768 C769 1.397 . S
C768 C773 1.363 . S
C769 H740 0.950 . S
C769 C768 1.397 . S
C769 C770 1.334 . S
C770 H741 0.950 . S
C770 C769 1.334 . S
C770 C771 1.287 . S
C771 C770 1.287 . S
C771 C772 1.524 . S
C771 H774 0.999 . S
C772 H742 0.950 . S
C772 C771 1.524 . S
C772 C773 1.415 . S
C773 H743 0.950 . S
C773 C768 1.363 . S
C773 C772 1.415 . S
H774 C771 0.999 . S
H775 C756 0.913 1_556 S
H776 C794 0.951 . S
H777 C796 0.951 . S
H778 C798 0.950 . S
H779 C799 0.950 . S
H780 C801 0.950 . S
H781 C804 0.950 . S
H782 C805 0.950 . S
H783 C807 0.950 . S
H784 C808 0.950 1_554 S
H785 C809 0.951 . S
H786 C811 0.951 . S
H787 C813 0.950 1_554 S
H788 C814 0.950 . S
H789 C816 0.950 . S
H790 C819 0.950 . S
H791 C820 0.950 . S
H792 C822 0.950 . S
H793 C823 0.950 . S
C794 H776 0.951 . S
C794 C795 1.366 . S
C794 C796 1.388 . S
C795 C794 1.366 . S
C795 C799 1.385 . S
C796 H777 0.951 . S
C796 C794 1.388 . S
C796 C797 1.366 . S
C797 C796 1.366 . S
C797 C798 1.414 . S
C797 C800 1.499 . S
C798 H778 0.950 . S
C798 C797 1.414 . S
C798 C799 1.374 . S
C799 H779 0.950 . S
C799 C795 1.385 . S
C799 C798 1.374 . S
C800 C797 1.499 . S
C800 C801 1.373 . S
C800 C802 1.389 . S
C801 H780 0.950 . S
C801 C800 1.373 . S
C801 C817 1.377 . S
C802 C800 1.389 . S
C802 C803 1.524 . S
C802 C816 1.377 . S
C803 C802 1.524 . S
C803 C804 1.397 . S
C803 C808 1.363 . S
C804 H781 0.950 . S
C804 C803 1.397 . S
C804 C805 1.334 . S
C805 H782 0.950 . S
C805 C804 1.334 . S
C805 C806 1.287 . S
C806 C805 1.287 . S
C806 C807 1.524 1_556 S
C806 H825 0.913 . S
C807 H783 0.950 . S
C807 C806 1.524 1_554 S
C807 C808 1.415 1_554 S
C808 H784 0.950 1_556 S
C808 C803 1.363 . S
C808 C807 1.415 1_556 S
C809 H785 0.951 . S
C809 C810 1.366 . S
C809 C811 1.388 . S
C810 C809 1.366 . S
C810 C814 1.385 1_556 S
C811 H786 0.951 . S
C811 C809 1.388 . S
C811 C812 1.366 . S
C812 C811 1.366 . S
C812 C813 1.414 . S
C812 C815 1.499 . S
C813 H787 0.950 1_556 S
C813 C812 1.414 . S
C813 C814 1.374 1_556 S
C814 H788 0.950 . S
C814 C810 1.385 1_554 S
C814 C813 1.374 1_554 S
C815 C812 1.499 . S
C815 C816 1.373 . S
C815 C817 1.389 . S
C816 H789 0.950 . S
C816 C802 1.377 . S
C816 C815 1.373 . S
C817 C801 1.377 . S
C817 C815 1.389 . S
C817 C818 1.524 . S
C818 C817 1.524 . S
C818 C819 1.397 . S
C818 C823 1.363 . S
C819 H790 0.950 . S
C819 C818 1.397 . S
C819 C820 1.334 . S
C820 H791 0.950 . S
C820 C819 1.334 . S
C820 C821 1.287 . S
C821 C820 1.287 . S
C821 C822 1.524 . S
C821 H824 0.999 . S
C822 H792 0.950 . S
C822 C821 1.524 . S
C822 C823 1.415 . S
C823 H793 0.950 . S
C823 C818 1.363 . S
C823 C822 1.415 . S
H824 C821 0.999 . S
H825 C806 0.913 . S
H826 C844 0.951 . S
H827 C846 0.951 . S
H828 C848 0.950 . S
H829 C849 0.950 . S
H830 C851 0.950 . S
H831 C854 0.950 . S
H832 C855 0.950 . S
H833 C857 0.950 . S
H834 C858 0.950 . S
H835 C859 0.951 . S
H836 C861 0.951 . S
H837 C863 0.950 . S
H838 C864 0.950 . S
H839 C866 0.950 . S
H840 C869 0.950 . S
H841 C870 0.950 . S
H842 C872 0.950 . S
H843 C873 0.950 . S
C844 H826 0.951 . S
C844 C845 1.366 . S
C844 C846 1.388 . S
C845 C844 1.366 . S
C845 C849 1.385 . S
C846 H827 0.951 . S
C846 C844 1.388 . S
C846 C847 1.366 . S
C847 C846 1.366 . S
C847 C848 1.414 . S
C847 C850 1.499 . S
C848 H828 0.950 . S
C848 C847 1.414 . S
C848 C849 1.374 . S
C849 H829 0.950 . S
C849 C845 1.385 . S
C849 C848 1.374 . S
C850 C847 1.499 . S
C850 C851 1.373 . S
C850 C852 1.389 . S
C851 H830 0.950 . S
C851 C850 1.373 . S
C851 C867 1.377 . S
C852 C850 1.389 . S
C852 C853 1.524 . S
C852 C866 1.377 . S
C853 C852 1.524 . S
C853 C854 1.397 . S
C853 C858 1.363 . S
C854 H831 0.950 . S
C854 C853 1.397 . S
C854 C855 1.334 . S
C855 H832 0.950 . S
C855 C854 1.334 . S
C855 C856 1.287 . S
C856 C855 1.287 . S
C856 C857 1.524 . S
C856 H875 0.913 . S
C857 H833 0.950 . S
C857 C856 1.524 . S
C857 C858 1.415 . S
C858 H834 0.950 . S
C858 C853 1.363 . S
C858 C857 1.415 . S
C859 H835 0.951 . S
C859 C860 1.366 . S
C859 C861 1.388 . S
C860 C859 1.366 . S
C860 C864 1.385 . S
C861 H836 0.951 . S
C861 C859 1.388 . S
C861 C862 1.366 . S
C862 C861 1.366 . S
C862 C863 1.414 . S
C862 C865 1.499 . S
C863 H837 0.950 . S
C863 C862 1.414 . S
C863 C864 1.374 . S
C864 H838 0.950 . S
C864 C860 1.385 . S
C864 C863 1.374 . S
C865 C862 1.499 . S
C865 C866 1.373 . S
C865 C867 1.389 . S
C866 H839 0.950 . S
C866 C852 1.377 . S
C866 C865 1.373 . S
C867 C851 1.377 . S
C867 C865 1.389 . S
C867 C868 1.524 . S
C868 C867 1.524 . S
C868 C869 1.397 . S
C868 C873 1.363 . S
C869 H840 0.950 . S
C869 C868 1.397 . S
C869 C870 1.334 . S
C870 H841 0.950 . S
C870 C869 1.334 . S
C870 C871 1.287 . S
C871 C870 1.287 . S
C871 C872 1.524 . S
C871 H874 0.999 . S
C872 H842 0.950 . S
C872 C871 1.524 . S
C872 C873 1.415 . S
C873 H843 0.950 . S
C873 C868 1.363 . S
C873 C872 1.415 . S
H874 C871 0.999 . S
H875 C856 0.913 . S
H876 C894 0.951 . S
H877 C896 0.951 . S
H878 C898 0.950 . S
H879 C899 0.950 . S
H880 C901 0.950 . S
H881 C904 0.950 . S
H882 C905 0.950 . S
H883 C907 0.950 . S
H884 C908 0.950 . S
H885 C909 0.951 . S
H886 C911 0.951 . S
H887 C913 0.950 . S
H888 C914 0.950 . S
H889 C916 0.950 . S
H890 C919 0.950 . S
H891 C920 0.950 . S
H892 C922 0.950 1_545 S
H893 C923 0.950 . S
C894 H876 0.951 . S
C894 C895 1.366 . S
C894 C896 1.388 . S
C895 C894 1.366 . S
C895 C899 1.385 . S
C896 H877 0.951 . S
C896 C894 1.388 . S
C896 C897 1.366 . S
C897 C896 1.366 . S
C897 C898 1.414 . S
C897 C900 1.499 . S
C898 H878 0.950 . S
C898 C897 1.414 . S
C898 C899 1.374 . S
C899 H879 0.950 . S
C899 C895 1.385 . S
C899 C898 1.374 . S
C900 C897 1.499 . S
C900 C901 1.373 . S
C900 C902 1.389 . S
C901 H880 0.950 . S
C901 C900 1.373 . S
C901 C917 1.377 . S
C902 C900 1.389 . S
C902 C903 1.524 . S
C902 C916 1.377 . S
C903 C902 1.524 . S
C903 C904 1.397 . S
C903 C908 1.363 . S
C904 H881 0.950 . S
C904 C903 1.397 . S
C904 C905 1.334 . S
C905 H882 0.950 . S
C905 C904 1.334 . S
C905 C906 1.287 . S
C906 C905 1.287 . S
C906 C907 1.524 . S
C906 H925 0.913 . S
C907 H883 0.950 . S
C907 C906 1.524 . S
C907 C908 1.415 . S
C908 H884 0.950 . S
C908 C903 1.363 . S
C908 C907 1.415 . S
C909 H885 0.951 . S
C909 C910 1.366 . S
C909 C911 1.388 . S
C910 C909 1.366 . S
C910 C914 1.385 . S
C911 H886 0.951 . S
C911 C909 1.388 . S
C911 C912 1.366 . S
C912 C911 1.366 . S
C912 C913 1.414 . S
C912 C915 1.499 . S
C913 H887 0.950 . S
C913 C912 1.414 . S
C913 C914 1.374 . S
C914 H888 0.950 . S
C914 C910 1.385 . S
C914 C913 1.374 . S
C915 C912 1.499 . S
C915 C916 1.373 . S
C915 C917 1.389 . S
C916 H889 0.950 . S
C916 C902 1.377 . S
C916 C915 1.373 . S
C917 C901 1.377 . S
C917 C915 1.389 . S
C917 C918 1.524 . S
C918 C917 1.524 . S
C918 C919 1.397 . S
C918 C923 1.363 . S
C919 H890 0.950 . S
C919 C918 1.397 . S
C919 C920 1.334 . S
C920 H891 0.950 . S
C920 C919 1.334 . S
C920 C921 1.295 . S
C921 C920 1.295 . S
C921 C922 1.528 . S
C921 H924 0.987 1_565 S
C922 H892 0.950 1_565 S
C922 C921 1.528 . S
C922 C923 1.415 . S
C923 H893 0.950 . S
C923 C918 1.363 . S
C923 C922 1.415 . S
H924 C921 0.987 1_545 S
H925 C906 0.913 . S
H926 C944 0.951 . S
H927 C946 0.951 . S
H928 C948 0.950 . S
H929 C949 0.950 . S
H930 C951 0.950 . S
H931 C954 0.950 . S
H932 C955 0.950 . S
H933 C957 0.950 . S
H934 C958 0.950 . S
H935 C959 0.951 . S
H936 C961 0.951 . S
H937 C963 0.950 . S
H938 C964 0.950 . S
H939 C966 0.950 . S
H940 C969 0.950 . S
H941 C970 0.950 . S
H942 C972 0.950 . S
H943 C973 0.950 . S
C944 H926 0.951 . S
C944 C945 1.366 . S
C944 C946 1.388 . S
C945 C944 1.366 . S
C945 C949 1.385 . S
C946 H927 0.951 . S
C946 C944 1.388 . S
C946 C947 1.366 . S
C947 C946 1.366 . S
C947 C948 1.414 . S
C947 C950 1.499 . S
C948 H928 0.950 . S
C948 C947 1.414 . S
C948 C949 1.374 . S
C949 H929 0.950 . S
C949 C945 1.385 . S
C949 C948 1.374 . S
C950 C947 1.499 . S
C950 C951 1.373 . S
C950 C952 1.389 . S
C951 H930 0.950 . S
C951 C950 1.373 . S
C951 C967 1.377 . S
C952 C950 1.389 . S
C952 C953 1.524 . S
C952 C966 1.377 . S
C953 C952 1.524 . S
C953 C954 1.397 . S
C953 C958 1.363 . S
C954 H931 0.950 . S
C954 C953 1.397 . S
C954 C955 1.334 . S
C955 H932 0.950 . S
C955 C954 1.334 . S
C955 C956 1.287 . S
C956 C955 1.287 . S
C956 C957 1.524 . S
C956 H975 0.913 . S
C957 H933 0.950 . S
C957 C956 1.524 . S
C957 C958 1.415 . S
C958 H934 0.950 . S
C958 C953 1.363 . S
C958 C957 1.415 . S
C959 H935 0.951 . S
C959 C960 1.366 . S
C959 C961 1.388 . S
C960 C959 1.366 . S
C960 C964 1.385 . S
C961 H936 0.951 . S
C961 C959 1.388 . S
C961 C962 1.366 . S
C962 C961 1.366 . S
C962 C963 1.414 . S
C962 C965 1.499 . S
C963 H937 0.950 . S
C963 C962 1.414 . S
C963 C964 1.374 . S
C964 H938 0.950 . S
C964 C960 1.385 . S
C964 C963 1.374 . S
C965 C962 1.499 . S
C965 C966 1.373 . S
C965 C967 1.389 . S
C966 H939 0.950 . S
C966 C952 1.377 . S
C966 C965 1.373 . S
C967 C951 1.377 . S
C967 C965 1.389 . S
C967 C968 1.524 . S
C968 C967 1.524 . S
C968 C969 1.397 . S
C968 C973 1.363 . S
C969 H940 0.950 . S
C969 C968 1.397 . S
C969 C970 1.334 . S
C970 H941 0.950 . S
C970 C969 1.334 . S
C970 C971 1.287 . S
C971 C970 1.287 . S
C971 C972 1.524 . S
C971 H974 0.999 . S
C972 H942 0.950 . S
C972 C971 1.524 . S
C972 C973 1.415 . S
C973 H943 0.950 . S
C973 C968 1.363 . S
C973 C972 1.415 . S
H974 C971 0.999 . S
H975 C956 0.913 . S
H976 C994 0.951 . S
H977 C996 0.951 . S
H978 C998 0.950 1_565 S
H979 C999 0.950 . S
H980 C1001 0.950 . S
H981 C1004 0.950 . S
H982 C1005 0.950 . S
H983 C1007 0.950 . S
H984 C1008 0.950 . S
H985 C1009 0.951 . S
H986 C1011 0.951 . S
H987 C1013 0.950 1_545 S
H988 C1014 0.950 . S
H989 C1016 0.950 . S
H990 C1019 0.950 . S
H991 C1020 0.950 . S
H992 C1022 0.950 . S
H993 C1023 0.950 . S
C994 H976 0.951 . S
C994 C995 1.366 . S
C994 C996 1.388 . S
C995 C994 1.366 . S
C995 C999 1.385 . S
C996 H977 0.951 . S
C996 C994 1.388 . S
C996 C997 1.366 . S
C997 C996 1.366 . S
C997 C998 1.414 . S
C997 C1000 1.499 . S
C998 H978 0.950 1_545 S
C998 C997 1.414 . S
C998 C999 1.374 . S
C999 H979 0.950 . S
C999 C995 1.385 . S
C999 C998 1.374 . S
C1000 C997 1.499 . S
C1000 C1001 1.373 1_545 S
C1000 C1002 1.430 . S
C1001 H980 0.950 . S
C1001 C1000 1.373 1_565 S
C1001 C1017 1.335 1_455 S
C1002 C1000 1.430 . S
C1002 C1003 1.524 . S
C1002 C1016 1.335 1_455 S
C1003 C1002 1.524 . S
C1003 C1004 1.408 . S
C1003 C1008 1.351 1_455 S
C1004 H981 0.950 . S
C1004 C1003 1.408 . S
C1004 C1005 1.334 . S
C1005 H982 0.950 . S
C1005 C1004 1.334 . S
C1005 C1006 1.296 . S
C1006 C1005 1.296 . S
C1006 C1007 1.516 1_455 S
C1006 H1025 0.912 . S
C1007 H983 0.950 . S
C1007 C1006 1.516 1_655 S
C1007 C1008 1.415 . S
C1008 H984 0.950 . S
C1008 C1003 1.351 1_655 S
C1008 C1007 1.415 . S
C1009 H985 0.951 . S
C1009 C1010 1.366 . S
C1009 C1011 1.388 . S
C1010 C1009 1.366 . S
C1010 C1014 1.385 . S
C1011 H986 0.951 . S
C1011 C1009 1.388 . S
C1011 C1012 1.366 . S
C1012 C1011 1.366 . S
C1012 C1013 1.414 . S
C1012 C1015 1.499 . S
C1013 H987 0.950 1_565 S
C1013 C1012 1.414 . S
C1013 C1014 1.374 . S
C1014 H988 0.950 . S
C1014 C1010 1.385 . S
C1014 C1013 1.374 . S
C1015 C1012 1.499 . S
C1015 C1016 1.373 1_565 S
C1015 C1017 1.430 . S
C1016 H989 0.950 . S
C1016 C1002 1.335 1_655 S
C1016 C1015 1.373 1_545 S
C1017 C1001 1.335 1_655 S
C1017 C1015 1.430 . S
C1017 C1018 1.524 . S
C1018 C1017 1.524 . S
C1018 C1019 1.408 . S
C1018 C1023 1.351 1_655 S
C1019 H990 0.950 . S
C1019 C1018 1.408 . S
C1019 C1020 1.334 . S
C1020 H991 0.950 . S
C1020 C1019 1.334 . S
C1020 C1021 1.296 . S
C1021 C1020 1.296 . S
C1021 C1022 1.516 1_655 S
C1021 H1024 0.999 1_655 S
C1022 H992 0.950 . S
C1022 C1021 1.516 1_455 S
C1022 C1023 1.415 . S
C1023 H993 0.950 . S
C1023 C1018 1.351 1_455 S
C1023 C1022 1.415 . S
H1024 C1021 0.999 1_455 S
H1025 C1006 0.912 . S
H1026 C1044 0.951 . S
H1027 C1046 0.951 1_455 S
H1028 C1048 0.950 . S
H1029 C1049 0.950 . S
H1030 C1051 0.950 . S
H1031 C1054 0.950 . S
H1032 C1055 0.950 1_655 S
H1033 C1057 0.950 . S
H1034 C1058 0.950 . S
H1035 C1059 0.951 . S
H1036 C1061 0.951 1_655 S
H1037 C1063 0.950 . S
H1038 C1064 0.950 . S
H1039 C1066 0.950 . S
H1040 C1069 0.950 . S
H1041 C1070 0.950 1_455 S
H1042 C1072 0.950 . S
H1043 C1073 0.950 . S
C1044 H1026 0.951 . S
C1044 C1045 1.366 . S
C1044 C1046 1.388 . S
C1045 C1044 1.366 . S
C1045 C1049 1.385 . S
C1046 H1027 0.951 1_655 S
C1046 C1044 1.388 . S
C1046 C1047 1.366 . S
C1047 C1046 1.366 . S
C1047 C1048 1.414 . S
C1047 C1050 1.499 . S
C1048 H1028 0.950 . S
C1048 C1047 1.414 . S
C1048 C1049 1.374 . S
C1049 H1029 0.950 . S
C1049 C1045 1.385 . S
C1049 C1048 1.374 . S
C1050 C1047 1.499 . S
C1050 C1051 1.373 . S
C1050 C1052 1.389 1_655 S
C1051 H1030 0.950 . S
C1051 C1050 1.373 . S
C1051 C1067 1.377 . S
C1052 C1050 1.389 1_455 S
C1052 C1053 1.524 . S
C1052 C1066 1.377 . S
C1053 C1052 1.524 . S
C1053 C1054 1.397 1_455 S
C1053 C1058 1.363 . S
C1054 H1031 0.950 . S
C1054 C1053 1.397 1_655 S
C1054 C1055 1.334 1_655 S
C1055 H1032 0.950 1_455 S
C1055 C1054 1.334 1_455 S
C1055 C1056 1.287 . S
C1056 C1055 1.287 . S
C1056 C1057 1.524 . S
C1056 H1075 0.913 . S
C1057 H1033 0.950 . S
C1057 C1056 1.524 . S
C1057 C1058 1.415 . S
C1058 H1034 0.950 . S
C1058 C1053 1.363 . S
C1058 C1057 1.415 . S
C1059 H1035 0.951 . S
C1059 C1060 1.366 . S
C1059 C1061 1.388 . S
C1060 C1059 1.366 . S
C1060 C1064 1.385 . S
C1061 H1036 0.951 1_455 S
C1061 C1059 1.388 . S
C1061 C1062 1.366 . S
C1062 C1061 1.366 . S
C1062 C1063 1.414 . S
C1062 C1065 1.499 . S
C1063 H1037 0.950 . S
C1063 C1062 1.414 . S
C1063 C1064 1.374 . S
C1064 H1038 0.950 . S
C1064 C1060 1.385 . S
C1064 C1063 1.374 . S
C1065 C1062 1.499 . S
C1065 C1066 1.373 . S
C1065 C1067 1.389 1_455 S
C1066 H1039 0.950 . S
C1066 C1052 1.377 . S
C1066 C1065 1.373 . S
C1067 C1051 1.377 . S
C1067 C1065 1.389 1_655 S
C1067 C1068 1.524 . S
C1068 C1067 1.524 . S
C1068 C1069 1.397 1_655 S
C1068 C1073 1.363 . S
C1069 H1040 0.950 . S
C1069 C1068 1.397 1_455 S
C1069 C1070 1.334 1_455 S
C1070 H1041 0.950 1_655 S
C1070 C1069 1.334 1_655 S
C1070 C1071 1.287 . S
C1071 C1070 1.287 . S
C1071 C1072 1.524 . S
C1071 H1074 0.999 . S
C1072 H1042 0.950 . S
C1072 C1071 1.524 . S
C1072 C1073 1.415 . S
C1073 H1043 0.950 . S
C1073 C1068 1.363 . S
C1073 C1072 1.415 . S
H1074 C1071 0.999 . S
H1075 C1056 0.913 . S
H1076 C1094 0.951 . S
H1077 C1096 0.951 . S
H1078 C1098 0.950 . S
H1079 C1099 0.950 . S
H1080 C1101 0.950 . S
H1081 C1104 0.950 . S
H1082 C1105 0.950 . S
H1083 C1107 0.950 . S
H1084 C1108 0.950 . S
H1085 C1109 0.951 . S
H1086 C1111 0.951 . S
H1087 C1113 0.950 . S
H1088 C1114 0.950 . S
H1089 C1116 0.950 . S
H1090 C1119 0.950 . S
H1091 C1120 0.950 . S
H1092 C1122 0.950 . S
H1093 C1123 0.950 . S
C1094 H1076 0.951 . S
C1094 C1095 1.366 . S
C1094 C1096 1.388 . S
C1095 C1094 1.366 . S
C1095 C1099 1.385 . S
C1096 H1077 0.951 . S
C1096 C1094 1.388 . S
C1096 C1097 1.366 . S
C1097 C1096 1.366 . S
C1097 C1098 1.414 . S
C1097 C1100 1.499 . S
C1098 H1078 0.950 . S
C1098 C1097 1.414 . S
C1098 C1099 1.374 . S
C1099 H1079 0.950 . S
C1099 C1095 1.385 . S
C1099 C1098 1.374 . S
C1100 C1097 1.499 . S
C1100 C1101 1.373 . S
C1100 C1102 1.389 . S
C1101 H1080 0.950 . S
C1101 C1100 1.373 . S
C1101 C1117 1.377 . S
C1102 C1100 1.389 . S
C1102 C1103 1.524 . S
C1102 C1116 1.377 . S
C1103 C1102 1.524 . S
C1103 C1104 1.397 . S
C1103 C1108 1.363 . S
C1104 H1081 0.950 . S
C1104 C1103 1.397 . S
C1104 C1105 1.334 . S
C1105 H1082 0.950 . S
C1105 C1104 1.334 . S
C1105 C1106 1.287 . S
C1106 C1105 1.287 . S
C1106 C1107 1.524 . S
C1106 H1125 0.913 . S
C1107 H1083 0.950 . S
C1107 C1106 1.524 . S
C1107 C1108 1.415 . S
C1108 H1084 0.950 . S
C1108 C1103 1.363 . S
C1108 C1107 1.415 . S
C1109 H1085 0.951 . S
C1109 C1110 1.366 . S
C1109 C1111 1.388 . S
C1110 C1109 1.366 . S
C1110 C1114 1.385 . S
C1111 H1086 0.951 . S
C1111 C1109 1.388 . S
C1111 C1112 1.366 . S
C1112 C1111 1.366 . S
C1112 C1113 1.414 . S
C1112 C1115 1.499 . S
C1113 H1087 0.950 . S
C1113 C1112 1.414 . S
C1113 C1114 1.374 . S
C1114 H1088 0.950 . S
C1114 C1110 1.385 . S
C1114 C1113 1.374 . S
C1115 C1112 1.499 . S
C1115 C1116 1.373 . S
C1115 C1117 1.389 . S
C1116 H1089 0.950 . S
C1116 C1102 1.377 . S
C1116 C1115 1.373 . S
C1117 C1101 1.377 . S
C1117 C1115 1.389 . S
C1117 C1118 1.524 . S
C1118 C1117 1.524 . S
C1118 C1119 1.397 . S
C1118 C1123 1.363 . S
C1119 H1090 0.950 . S
C1119 C1118 1.397 . S
C1119 C1120 1.334 . S
C1120 H1091 0.950 . S
C1120 C1119 1.334 . S
C1120 C1121 1.287 . S
C1121 C1120 1.287 . S
C1121 C1122 1.524 . S
C1121 H1124 0.999 . S
C1122 H1092 0.950 . S
C1122 C1121 1.524 . S
C1122 C1123 1.415 . S
C1123 H1093 0.950 . S
C1123 C1118 1.363 . S
C1123 C1122 1.415 . S
H1124 C1121 0.999 . S
H1125 C1106 0.913 . S
H1126 C1144 0.951 . S
H1127 C1146 0.951 . S
H1128 C1148 0.950 . S
H1129 C1149 0.950 . S
H1130 C1151 0.950 . S
H1131 C1154 0.950 . S
H1132 C1155 0.950 . S
H1133 C1157 0.971 . S
H1134 C1158 0.950 1_545 S
H1135 C1159 0.951 . S
H1136 C1161 0.951 . S
H1137 C1163 0.950 . S
H1138 C1164 0.950 . S
H1139 C1166 0.950 . S
H1140 C1169 0.950 . S
H1141 C1170 0.950 . S
H1142 C1172 0.971 . S
H1143 C1173 0.950 1_565 S
C1144 H1126 0.951 . S
C1144 C1145 1.366 . S
C1144 C1146 1.388 . S
C1145 C1144 1.366 . S
C1145 C1149 1.385 . S
C1146 H1127 0.951 . S
C1146 C1144 1.388 . S
C1146 C1147 1.366 . S
C1147 C1146 1.366 . S
C1147 C1148 1.414 . S
C1147 C1150 1.499 . S
C1148 H1128 0.950 . S
C1148 C1147 1.414 . S
C1148 C1149 1.374 . S
C1149 H1129 0.950 . S
C1149 C1145 1.385 . S
C1149 C1148 1.374 . S
C1150 C1147 1.499 . S
C1150 C1151 1.373 . S
C1150 C1152 1.389 . S
C1151 H1130 0.950 . S
C1151 C1150 1.373 . S
C1151 C1167 1.377 1_565 S
C1152 C1150 1.389 . S
C1152 C1153 1.524 . S
C1152 C1166 1.377 1_565 S
C1153 C1152 1.524 . S
C1153 C1154 1.397 . S
C1153 C1158 1.363 . S
C1154 H1131 0.950 . S
C1154 C1153 1.397 . S
C1154 C1155 1.334 . S
C1155 H1132 0.950 . S
C1155 C1154 1.334 . S
C1155 C1156 1.287 . S
C1156 C1155 1.287 . S
C1156 C1157 1.524 . S
C1156 H1175 0.913 . S
C1157 H1133 0.971 . S
C1157 C1156 1.524 . S
C1157 C1158 1.415 . S
C1158 H1134 0.950 1_565 S
C1158 C1153 1.363 . S
C1158 C1157 1.415 . S
C1159 H1135 0.951 . S
C1159 C1160 1.366 . S
C1159 C1161 1.388 . S
C1160 C1159 1.366 . S
C1160 C1164 1.385 . S
C1161 H1136 0.951 . S
C1161 C1159 1.388 . S
C1161 C1162 1.366 . S
C1162 C1161 1.366 . S
C1162 C1163 1.414 . S
C1162 C1165 1.499 . S
C1163 H1137 0.950 . S
C1163 C1162 1.414 . S
C1163 C1164 1.374 . S
C1164 H1138 0.950 . S
C1164 C1160 1.385 . S
C1164 C1163 1.374 . S
C1165 C1162 1.499 . S
C1165 C1166 1.373 . S
C1165 C1167 1.389 . S
C1166 H1139 0.950 . S
C1166 C1152 1.377 1_545 S
C1166 C1165 1.373 . S
C1167 C1151 1.377 1_545 S
C1167 C1165 1.389 . S
C1167 C1168 1.524 1_554 S
C1168 C1167 1.524 1_556 S
C1168 C1169 1.397 . S
C1168 C1173 1.363 . S
C1169 H1140 0.950 . S
C1169 C1168 1.397 . S
C1169 C1170 1.334 . S
C1170 H1141 0.950 . S
C1170 C1169 1.334 . S
C1170 C1171 1.287 . S
C1171 C1170 1.287 . S
C1171 C1172 1.524 . S
C1171 H1174 0.999 . S
C1172 H1142 0.971 . S
C1172 C1171 1.524 . S
C1172 C1173 1.415 . S
C1173 H1143 0.950 1_545 S
C1173 C1168 1.363 . S
C1173 C1172 1.415 . S
H1174 C1171 0.999 . S
H1175 C1156 0.913 . S
H1176 C1194 0.958 . S
H1177 C1196 0.949 1_556 S
H1178 C1198 0.950 . S
H1179 C1199 0.950 . S
H1180 C1201 0.950 . S
H1181 C1204 0.950 . S
H1182 C1205 0.950 . S
H1183 C1207 0.950 . S
H1184 C1208 0.950 . S
H1185 C1209 0.951 . S
H1186 C1211 0.951 . S
H1187 C1213 0.950 . S
H1188 C1214 0.950 . S
H1189 C1216 0.950 . S
H1190 C1219 0.950 . S
H1191 C1220 0.950 . S
H1192 C1222 0.950 . S
H1193 C1223 0.950 . S
C1194 H1176 0.958 . S
C1194 C1195 1.360 1_556 S
C1194 C1196 1.387 1_556 S
C1195 C1194 1.360 1_554 S
C1195 C1199 1.385 . S
C1196 H1177 0.949 1_554 S
C1196 C1194 1.387 1_554 S
C1196 C1197 1.367 . S
C1197 C1196 1.367 . S
C1197 C1198 1.414 . S
C1197 C1200 1.499 . S
C1198 H1178 0.950 . S
C1198 C1197 1.414 . S
C1198 C1199 1.374 . S
C1199 H1179 0.950 . S
C1199 C1195 1.385 . S
C1199 C1198 1.374 . S
C1200 C1197 1.499 . S
C1200 C1201 1.373 1_554 S
C1200 C1202 1.389 . S
C1201 H1180 0.950 . S
C1201 C1200 1.373 1_556 S
C1201 C1217 1.377 1_455 S
C1202 C1200 1.389 . S
C1202 C1203 1.524 . S
C1202 C1216 1.377 1_455 S
C1203 C1202 1.524 . S
C1203 C1204 1.397 . S
C1203 C1208 1.363 . S
C1204 H1181 0.950 . S
C1204 C1203 1.397 . S
C1204 C1205 1.334 . S
C1205 H1182 0.950 . S
C1205 C1204 1.334 . S
C1205 C1206 1.287 . S
C1206 C1205 1.287 . S
C1206 C1207 1.524 . S
C1206 H1225 0.913 . S
C1207 H1183 0.950 . S
C1207 C1206 1.524 . S
C1207 C1208 1.415 . S
C1208 H1184 0.950 . S
C1208 C1203 1.363 . S
C1208 C1207 1.415 . S
C1209 H1185 0.951 . S
C1209 C1210 1.366 . S
C1209 C1211 1.388 . S
C1210 C1209 1.366 . S
C1210 C1214 1.385 1_554 S
C1211 H1186 0.951 . S
C1211 C1209 1.388 . S
C1211 C1212 1.366 . S
C1212 C1211 1.366 . S
C1212 C1213 1.414 1_554 S
C1212 C1215 1.499 . S
C1213 H1187 0.950 . S
C1213 C1212 1.414 1_556 S
C1213 C1214 1.374 . S
C1214 H1188 0.950 . S
C1214 C1210 1.385 1_556 S
C1214 C1213 1.374 . S
C1215 C1212 1.499 . S
C1215 C1216 1.373 . S
C1215 C1217 1.389 1_554 S
C1216 H1189 0.950 . S
C1216 C1202 1.377 1_655 S
C1216 C1215 1.373 . S
C1217 C1201 1.377 1_655 S
C1217 C1215 1.389 1_556 S
C1217 C1218 1.524 . S
C1218 C1217 1.524 . S
C1218 C1219 1.397 . S
C1218 C1223 1.363 . S
C1219 H1190 0.950 . S
C1219 C1218 1.397 . S
C1219 C1220 1.334 . S
C1220 H1191 0.950 . S
C1220 C1219 1.334 . S
C1220 C1221 1.287 . S
C1221 C1220 1.287 . S
C1221 C1222 1.524 . S
C1221 H1224 0.999 . S
C1222 H1192 0.950 . S
C1222 C1221 1.524 . S
C1222 C1223 1.415 . S
C1223 H1193 0.950 . S
C1223 C1218 1.363 . S
C1223 C1222 1.415 . S
H1224 C1221 0.999 . S
H1225 C1206 0.913 . S
H1226 C1244 0.951 . S
H1227 C1246 0.951 . S
H1228 C1248 0.950 . S
H1229 C1249 0.950 . S
H1230 C1251 0.950 . S
H1231 C1254 0.950 . S
H1232 C1255 0.950 . S
H1233 C1257 0.950 . S
H1234 C1258 0.950 . S
H1235 C1259 0.951 . S
H1236 C1261 0.951 . S
H1237 C1263 0.950 . S
H1238 C1264 0.950 . S
H1239 C1266 0.950 . S
H1240 C1269 0.950 . S
H1241 C1270 0.950 . S
H1242 C1272 0.950 . S
H1243 C1273 0.950 . S
C1244 H1226 0.951 . S
C1244 C1245 1.366 . S
C1244 C1246 1.388 . S
C1245 C1244 1.366 . S
C1245 C1249 1.385 . S
C1246 H1227 0.951 . S
C1246 C1244 1.388 . S
C1246 C1247 1.366 . S
C1247 C1246 1.366 . S
C1247 C1248 1.414 . S
C1247 C1250 1.499 . S
C1248 H1228 0.950 . S
C1248 C1247 1.414 . S
C1248 C1249 1.374 . S
C1249 H1229 0.950 . S
C1249 C1245 1.385 . S
C1249 C1248 1.374 . S
C1250 C1247 1.499 . S
C1250 C1251 1.373 . S
C1250 C1252 1.389 . S
C1251 H1230 0.950 . S
C1251 C1250 1.373 . S
C1251 C1267 1.377 . S
C1252 C1250 1.389 . S
C1252 C1253 1.524 . S
C1252 C1266 1.377 . S
C1253 C1252 1.524 . S
C1253 C1254 1.397 . S
C1253 C1258 1.363 . S
C1254 H1231 0.950 . S
C1254 C1253 1.397 . S
C1254 C1255 1.334 . S
C1255 H1232 0.950 . S
C1255 C1254 1.334 . S
C1255 C1256 1.287 . S
C1256 C1255 1.287 . S
C1256 C1257 1.524 . S
C1256 H1275 0.913 . S
C1257 H1233 0.950 . S
C1257 C1256 1.524 . S
C1257 C1258 1.415 . S
C1258 H1234 0.950 . S
C1258 C1253 1.363 . S
C1258 C1257 1.415 . S
C1259 H1235 0.951 . S
C1259 C1260 1.366 . S
C1259 C1261 1.388 . S
C1260 C1259 1.366 . S
C1260 C1264 1.385 . S
C1261 H1236 0.951 . S
C1261 C1259 1.388 . S
C1261 C1262 1.366 . S
C1262 C1261 1.366 . S
C1262 C1263 1.414 . S
C1262 C1265 1.499 . S
C1263 H1237 0.950 . S
C1263 C1262 1.414 . S
C1263 C1264 1.374 . S
C1264 H1238 0.950 . S
C1264 C1260 1.385 . S
C1264 C1263 1.374 . S
C1265 C1262 1.499 . S
C1265 C1266 1.373 . S
C1265 C1267 1.389 . S
C1266 H1239 0.950 . S
C1266 C1252 1.377 . S
C1266 C1265 1.373 . S
C1267 C1251 1.377 . S
C1267 C1265 1.389 . S
C1267 C1268 1.524 . S
C1268 C1267 1.524 . S
C1268 C1269 1.397 . S
C1268 C1273 1.363 . S
C1269 H1240 0.950 . S
C1269 C1268 1.397 . S
C1269 C1270 1.334 . S
C1270 H1241 0.950 . S
C1270 C1269 1.334 . S
C1270 C1271 1.287 . S
C1271 C1270 1.287 . S
C1271 C1272 1.524 . S
C1271 H1274 0.999 . S
C1272 H1242 0.950 . S
C1272 C1271 1.524 . S
C1272 C1273 1.415 . S
C1273 H1243 0.950 . S
C1273 C1268 1.363 . S
C1273 C1272 1.415 . S
H1274 C1271 0.999 . S
H1275 C1256 0.913 . S
H1276 C1294 0.951 . S
H1277 C1296 0.951 1_565 S
H1278 C1298 0.950 . S
H1279 C1299 0.950 . S
H1280 C1301 0.950 . S
H1281 C1304 0.950 1_545 S
H1282 C1305 0.950 . S
H1283 C1307 0.950 . S
H1284 C1308 0.950 . S
H1285 C1309 0.951 . S
H1286 C1311 0.951 1_545 S
H1287 C1313 0.950 . S
H1288 C1314 0.950 . S
H1289 C1316 0.950 . S
H1290 C1319 0.950 1_565 S
H1291 C1320 0.950 . S
H1292 C1322 0.950 . S
H1293 C1323 0.950 . S
C1294 H1276 0.951 . S
C1294 C1295 1.366 . S
C1294 C1296 1.388 . S
C1295 C1294 1.366 . S
C1295 C1299 1.385 . S
C1296 H1277 0.951 1_545 S
C1296 C1294 1.388 . S
C1296 C1297 1.366 . S
C1297 C1296 1.366 . S
C1297 C1298 1.414 . S
C1297 C1300 1.499 . S
C1298 H1278 0.950 . S
C1298 C1297 1.414 . S
C1298 C1299 1.374 . S
C1299 H1279 0.950 . S
C1299 C1295 1.385 . S
C1299 C1298 1.374 . S
C1300 C1297 1.499 . S
C1300 C1301 1.373 . S
C1300 C1302 1.389 1_545 S
C1301 H1280 0.950 . S
C1301 C1300 1.373 . S
C1301 C1317 1.377 . S
C1302 C1300 1.389 1_565 S
C1302 C1303 1.524 . S
C1302 C1316 1.377 . S
C1303 C1302 1.524 . S
C1303 C1304 1.397 . S
C1303 C1308 1.363 . S
C1304 H1281 0.950 1_565 S
C1304 C1303 1.397 . S
C1304 C1305 1.334 . S
C1305 H1282 0.950 . S
C1305 C1304 1.334 . S
C1305 C1306 1.287 . S
C1306 C1305 1.287 . S
C1306 C1307 1.524 . S
C1306 H1325 0.913 . S
C1307 H1283 0.950 . S
C1307 C1306 1.524 . S
C1307 C1308 1.415 . S
C1308 H1284 0.950 . S
C1308 C1303 1.363 . S
C1308 C1307 1.415 . S
C1309 H1285 0.951 . S
C1309 C1310 1.366 . S
C1309 C1311 1.388 . S
C1310 C1309 1.366 . S
C1310 C1314 1.385 . S
C1311 H1286 0.951 1_565 S
C1311 C1309 1.388 . S
C1311 C1312 1.366 . S
C1312 C1311 1.366 . S
C1312 C1313 1.414 . S
C1312 C1315 1.499 . S
C1313 H1287 0.950 . S
C1313 C1312 1.414 . S
C1313 C1314 1.374 . S
C1314 H1288 0.950 . S
C1314 C1310 1.385 . S
C1314 C1313 1.374 . S
C1315 C1312 1.499 . S
C1315 C1316 1.373 . S
C1315 C1317 1.389 1_565 S
C1316 H1289 0.950 . S
C1316 C1302 1.377 . S
C1316 C1315 1.373 . S
C1317 C1301 1.377 . S
C1317 C1315 1.389 1_545 S
C1317 C1318 1.524 . S
C1318 C1317 1.524 . S
C1318 C1319 1.397 . S
C1318 C1323 1.363 . S
C1319 H1290 0.950 1_545 S
C1319 C1318 1.397 . S
C1319 C1320 1.334 . S
C1320 H1291 0.950 . S
C1320 C1319 1.334 . S
C1320 C1321 1.287 . S
C1321 C1320 1.287 . S
C1321 C1322 1.524 . S
C1321 H1324 0.999 . S
C1322 H1292 0.950 . S
C1322 C1321 1.524 . S
C1322 C1323 1.415 . S
C1323 H1293 0.950 . S
C1323 C1318 1.363 . S
C1323 C1322 1.415 . S
H1324 C1321 0.999 . S
H1325 C1306 0.913 . S
H1326 C1344 0.951 . S
H1327 C1346 0.951 . S
H1328 C1348 0.950 . S
H1329 C1349 0.950 . S
H1330 C1351 0.950 . S
H1331 C1354 0.950 . S
H1332 C1355 0.950 . S
H1333 C1357 0.950 . S
H1334 C1358 0.950 . S
H1335 C1359 0.951 . S
H1336 C1361 0.951 . S
H1337 C1363 0.950 . S
H1338 C1364 0.950 . S
H1339 C1366 0.950 . S
H1340 C1369 0.950 . S
H1341 C1370 0.950 . S
H1342 C1372 0.950 . S
H1343 C1373 0.950 . S
C1344 H1326 0.951 . S
C1344 C1345 1.366 . S
C1344 C1346 1.388 . S
C1345 C1344 1.366 . S
C1345 C1349 1.385 . S
C1346 H1327 0.951 . S
C1346 C1344 1.388 . S
C1346 C1347 1.366 . S
C1347 C1346 1.366 . S
C1347 C1348 1.414 . S
C1347 C1350 1.499 . S
C1348 H1328 0.950 . S
C1348 C1347 1.414 . S
C1348 C1349 1.374 . S
C1349 H1329 0.950 . S
C1349 C1345 1.385 . S
C1349 C1348 1.374 . S
C1350 C1347 1.499 . S
C1350 C1351 1.373 1_455 S
C1350 C1352 1.398 . S
C1351 H1330 0.950 . S
C1351 C1350 1.373 1_655 S
C1351 C1367 1.368 1_545 S
C1352 C1350 1.398 . S
C1352 C1353 1.524 1_545 S
C1352 C1366 1.368 1_545 S
C1353 C1352 1.524 1_565 S
C1353 C1354 1.397 1_565 S
C1353 C1358 1.363 . S
C1354 H1331 0.950 . S
C1354 C1353 1.397 1_545 S
C1354 C1355 1.334 . S
C1355 H1332 0.950 . S
C1355 C1354 1.334 . S
C1355 C1356 1.287 1_545 S
C1356 C1355 1.287 1_565 S
C1356 C1357 1.524 . S
C1356 H1375 0.913 . S
C1357 H1333 0.950 . S
C1357 C1356 1.524 . S
C1357 C1358 1.415 . S
C1358 H1334 0.950 . S
C1358 C1353 1.363 . S
C1358 C1357 1.415 . S
C1359 H1335 0.951 . S
C1359 C1360 1.366 . S
C1359 C1361 1.388 . S
C1360 C1359 1.366 . S
C1360 C1364 1.385 . S
C1361 H1336 0.951 . S
C1361 C1359 1.388 . S
C1361 C1362 1.366 . S
C1362 C1361 1.366 . S
C1362 C1363 1.414 . S
C1362 C1365 1.499 . S
C1363 H1337 0.950 . S
C1363 C1362 1.414 . S
C1363 C1364 1.374 . S
C1364 H1338 0.950 . S
C1364 C1360 1.385 . S
C1364 C1363 1.374 . S
C1365 C1362 1.499 . S
C1365 C1366 1.373 1_655 S
C1365 C1367 1.398 . S
C1366 H1339 0.950 . S
C1366 C1352 1.368 1_565 S
C1366 C1365 1.373 1_455 S
C1367 C1351 1.368 1_565 S
C1367 C1365 1.398 . S
C1367 C1368 1.524 1_565 S
C1368 C1367 1.524 1_545 S
C1368 C1369 1.397 1_545 S
C1368 C1373 1.363 . S
C1369 H1340 0.950 . S
C1369 C1368 1.397 1_565 S
C1369 C1370 1.334 . S
C1370 H1341 0.950 . S
C1370 C1369 1.334 . S
C1370 C1371 1.287 1_565 S
C1371 C1370 1.287 1_545 S
C1371 C1372 1.524 . S
C1371 H1374 0.999 . S
C1372 H1342 0.950 . S
C1372 C1371 1.524 . S
C1372 C1373 1.415 . S
C1373 H1343 0.950 . S
C1373 C1368 1.363 . S
C1373 C1372 1.415 . S
H1374 C1371 0.999 . S
H1375 C1356 0.913 . S
H1376 C1394 0.951 . S
H1377 C1396 0.951 . S
H1378 C1398 0.950 . S
H1379 C1399 0.950 . S
H1380 C1401 0.950 . S
H1381 C1404 0.950 . S
H1382 C1405 0.950 . S
H1383 C1407 0.950 . S
H1384 C1408 0.950 . S
H1385 C1409 0.951 . S
H1386 C1411 0.951 . S
H1387 C1413 0.950 . S
H1388 C1414 0.950 . S
H1389 C1416 0.950 . S
H1390 C1419 0.950 . S
H1391 C1420 0.950 . S
H1392 C1422 0.950 . S
H1393 C1423 0.950 . S
C1394 H1376 0.951 . S
C1394 C1395 1.366 . S
C1394 C1396 1.388 . S
C1395 C1394 1.366 . S
C1395 C1399 1.385 . S
C1396 H1377 0.951 . S
C1396 C1394 1.388 . S
C1396 C1397 1.366 . S
C1397 C1396 1.366 . S
C1397 C1398 1.414 . S
C1397 C1400 1.499 . S
C1398 H1378 0.950 . S
C1398 C1397 1.414 . S
C1398 C1399 1.374 . S
C1399 H1379 0.950 . S
C1399 C1395 1.385 . S
C1399 C1398 1.374 . S
C1400 C1397 1.499 . S
C1400 C1401 1.373 . S
C1400 C1402 1.389 . S
C1401 H1380 0.950 . S
C1401 C1400 1.373 . S
C1401 C1417 1.377 . S
C1402 C1400 1.389 . S
C1402 C1403 1.524 . S
C1402 C1416 1.377 . S
C1403 C1402 1.524 . S
C1403 C1404 1.397 . S
C1403 C1408 1.363 . S
C1404 H1381 0.950 . S
C1404 C1403 1.397 . S
C1404 C1405 1.334 . S
C1405 H1382 0.950 . S
C1405 C1404 1.334 . S
C1405 C1406 1.287 . S
C1406 C1405 1.287 . S
C1406 C1407 1.524 . S
C1406 H1425 0.913 . S
C1407 H1383 0.950 . S
C1407 C1406 1.524 . S
C1407 C1408 1.415 . S
C1408 H1384 0.950 . S
C1408 C1403 1.363 . S
C1408 C1407 1.415 . S
C1409 H1385 0.951 . S
C1409 C1410 1.366 . S
C1409 C1411 1.388 . S
C1410 C1409 1.366 . S
C1410 C1414 1.385 . S
C1411 H1386 0.951 . S
C1411 C1409 1.388 . S
C1411 C1412 1.366 . S
C1412 C1411 1.366 . S
C1412 C1413 1.414 . S
C1412 C1415 1.499 . S
C1413 H1387 0.950 . S
C1413 C1412 1.414 . S
C1413 C1414 1.374 . S
C1414 H1388 0.950 . S
C1414 C1410 1.385 . S
C1414 C1413 1.374 . S
C1415 C1412 1.499 . S
C1415 C1416 1.373 . S
C1415 C1417 1.389 . S
C1416 H1389 0.950 . S
C1416 C1402 1.377 . S
C1416 C1415 1.373 . S
C1417 C1401 1.377 . S
C1417 C1415 1.389 . S
C1417 C1418 1.524 . S
C1418 C1417 1.524 . S
C1418 C1419 1.397 . S
C1418 C1423 1.363 . S
C1419 H1390 0.950 . S
C1419 C1418 1.397 . S
C1419 C1420 1.334 . S
C1420 H1391 0.950 . S
C1420 C1419 1.334 . S
C1420 C1421 1.287 . S
C1421 C1420 1.287 . S
C1421 C1422 1.524 . S
C1421 H1424 0.999 . S
C1422 H1392 0.950 . S
C1422 C1421 1.524 . S
C1422 C1423 1.415 . S
C1423 H1393 0.950 . S
C1423 C1418 1.363 . S
C1423 C1422 1.415 . S
H1424 C1421 0.999 . S
H1425 C1406 0.913 . S
H1426 C1444 0.951 . S
H1427 C1446 0.951 . S
H1428 C1448 0.950 . S
H1429 C1449 0.950 . S
H1430 C1451 0.950 . S
H1431 C1454 0.950 . S
H1432 C1455 0.950 . S
H1433 C1457 0.950 . S
H1434 C1458 0.950 . S
H1435 C1459 0.951 . S
H1436 C1461 0.951 . S
H1437 C1463 0.950 . S
H1438 C1464 0.950 . S
H1439 C1466 0.950 . S
H1440 C1469 0.950 . S
H1441 C1470 0.950 . S
H1442 C1472 0.950 . S
H1443 C1473 0.950 . S
C1444 H1426 0.951 . S
C1444 C1445 1.366 . S
C1444 C1446 1.388 . S
C1445 C1444 1.366 . S
C1445 C1449 1.385 . S
C1446 H1427 0.951 . S
C1446 C1444 1.388 . S
C1446 C1447 1.366 . S
C1447 C1446 1.366 . S
C1447 C1448 1.414 . S
C1447 C1450 1.499 . S
C1448 H1428 0.950 . S
C1448 C1447 1.414 . S
C1448 C1449 1.374 . S
C1449 H1429 0.950 . S
C1449 C1445 1.385 . S
C1449 C1448 1.374 . S
C1450 C1447 1.499 . S
C1450 C1451 1.373 . S
C1450 C1452 1.389 . S
C1451 H1430 0.950 . S
C1451 C1450 1.373 . S
C1451 C1467 1.377 . S
C1452 C1450 1.389 . S
C1452 C1453 1.524 . S
C1452 C1466 1.377 . S
C1453 C1452 1.524 . S
C1453 C1454 1.397 . S
C1453 C1458 1.363 . S
C1454 H1431 0.950 . S
C1454 C1453 1.397 . S
C1454 C1455 1.334 . S
C1455 H1432 0.950 . S
C1455 C1454 1.334 . S
C1455 C1456 1.287 . S
C1456 C1455 1.287 . S
C1456 C1457 1.524 . S
C1456 H1475 0.913 . S
C1457 H1433 0.950 . S
C1457 C1456 1.524 . S
C1457 C1458 1.415 . S
C1458 H1434 0.950 . S
C1458 C1453 1.363 . S
C1458 C1457 1.415 . S
C1459 H1435 0.951 . S
C1459 C1460 1.366 . S
C1459 C1461 1.388 . S
C1460 C1459 1.366 . S
C1460 C1464 1.385 . S
C1461 H1436 0.951 . S
C1461 C1459 1.388 . S
C1461 C1462 1.366 . S
C1462 C1461 1.366 . S
C1462 C1463 1.414 . S
C1462 C1465 1.499 . S
C1463 H1437 0.950 . S
C1463 C1462 1.414 . S
C1463 C1464 1.374 . S
C1464 H1438 0.950 . S
C1464 C1460 1.385 . S
C1464 C1463 1.374 . S
C1465 C1462 1.499 . S
C1465 C1466 1.373 . S
C1465 C1467 1.389 . S
C1466 H1439 0.950 . S
C1466 C1452 1.377 . S
C1466 C1465 1.373 . S
C1467 C1451 1.377 . S
C1467 C1465 1.389 . S
C1467 C1468 1.524 . S
C1468 C1467 1.524 . S
C1468 C1469 1.397 . S
C1468 C1473 1.363 . S
C1469 H1440 0.950 . S
C1469 C1468 1.397 . S
C1469 C1470 1.334 . S
C1470 H1441 0.950 . S
C1470 C1469 1.334 . S
C1470 C1471 1.287 . S
C1471 C1470 1.287 . S
C1471 C1472 1.524 . S
C1471 H1474 0.999 . S
C1472 H1442 0.950 . S
C1472 C1471 1.524 . S
C1472 C1473 1.415 . S
C1473 H1443 0.950 . S
C1473 C1468 1.363 . S
C1473 C1472 1.415 . S
H1474 C1471 0.999 . S
H1475 C1456 0.913 . S
H1476 C1494 0.951 . S
H1477 C1496 0.951 . S
H1478 C1498 0.950 . S
H1479 C1499 0.950 . S
H1480 C1501 0.950 . S
H1481 C1504 0.950 . S
H1482 C1505 0.950 . S
H1483 C1507 0.950 . S
H1484 C1508 0.950 . S
H1485 C1509 0.951 . S
H1486 C1511 0.951 . S
H1487 C1513 0.950 . S
H1488 C1514 0.950 . S
H1489 C1516 0.950 . S
H1490 C1519 0.950 . S
H1491 C1520 0.950 . S
H1492 C1522 0.950 . S
H1493 C1523 0.950 1_554 S
C1494 H1476 0.951 . S
C1494 C1495 1.366 . S
C1494 C1496 1.388 . S
C1495 C1494 1.366 . S
C1495 C1499 1.385 . S
C1496 H1477 0.951 . S
C1496 C1494 1.388 . S
C1496 C1497 1.366 . S
C1497 C1496 1.366 . S
C1497 C1498 1.414 . S
C1497 C1500 1.499 . S
C1498 H1478 0.950 . S
C1498 C1497 1.414 . S
C1498 C1499 1.374 . S
C1499 H1479 0.950 . S
C1499 C1495 1.385 . S
C1499 C1498 1.374 . S
C1500 C1497 1.499 . S
C1500 C1501 1.373 . S
C1500 C1502 1.389 . S
C1501 H1480 0.950 . S
C1501 C1500 1.373 . S
C1501 C1517 1.377 . S
C1502 C1500 1.389 . S
C1502 C1503 1.524 . S
C1502 C1516 1.377 . S
C1503 C1502 1.524 . S
C1503 C1504 1.397 . S
C1503 C1508 1.363 . S
C1504 H1481 0.950 . S
C1504 C1503 1.397 . S
C1504 C1505 1.334 . S
C1505 H1482 0.950 . S
C1505 C1504 1.334 . S
C1505 C1506 1.287 . S
C1506 C1505 1.287 . S
C1506 C1507 1.524 . S
C1506 H1525 0.913 . S
C1507 H1483 0.950 . S
C1507 C1506 1.524 . S
C1507 C1508 1.415 . S
C1508 H1484 0.950 . S
C1508 C1503 1.363 . S
C1508 C1507 1.415 . S
C1509 H1485 0.951 . S
C1509 C1510 1.366 . S
C1509 C1511 1.388 . S
C1510 C1509 1.366 . S
C1510 C1514 1.385 . S
C1511 H1486 0.951 . S
C1511 C1509 1.388 . S
C1511 C1512 1.366 . S
C1512 C1511 1.366 . S
C1512 C1513 1.414 . S
C1512 C1515 1.499 . S
C1513 H1487 0.950 . S
C1513 C1512 1.414 . S
C1513 C1514 1.374 . S
C1514 H1488 0.950 . S
C1514 C1510 1.385 . S
C1514 C1513 1.374 . S
C1515 C1512 1.499 . S
C1515 C1516 1.373 1_556 S
C1515 C1517 1.389 1_556 S
C1516 H1489 0.950 . S
C1516 C1502 1.377 . S
C1516 C1515 1.373 1_554 S
C1517 C1501 1.377 . S
C1517 C1515 1.389 1_554 S
C1517 C1518 1.524 1_554 S
C1518 C1517 1.524 1_556 S
C1518 C1519 1.397 . S
C1518 C1523 1.363 . S
C1519 H1490 0.950 . S
C1519 C1518 1.397 . S
C1519 C1520 1.334 . S
C1520 H1491 0.950 . S
C1520 C1519 1.334 . S
C1520 C1521 1.287 . S
C1521 C1520 1.287 . S
C1521 C1522 1.524 . S
C1521 H1524 0.999 . S
C1522 H1492 0.950 . S
C1522 C1521 1.524 . S
C1522 C1523 1.415 . S
C1523 H1493 0.950 1_556 S
C1523 C1518 1.363 . S
C1523 C1522 1.415 . S
H1524 C1521 0.999 . S
H1525 C1506 0.913 . S
H1526 C1544 0.951 . S
H1527 C1546 0.951 . S
H1528 C1548 0.950 . S
H1529 C1549 0.950 . S
H1530 C1551 0.950 . S
H1531 C1554 0.950 . S
H1532 C1555 0.950 . S
H1533 C1557 0.950 . S
H1534 C1558 0.950 . S
H1535 C1559 0.951 . S
H1536 C1561 0.951 . S
H1537 C1563 0.950 . S
H1538 C1564 0.950 . S
H1539 C1566 0.950 . S
H1540 C1569 0.950 . S
H1541 C1570 0.950 . S
H1542 C1572 0.950 . S
H1543 C1573 0.950 . S
C1544 H1526 0.951 . S
C1544 C1545 1.366 . S
C1544 C1546 1.388 . S
C1545 C1544 1.366 . S
C1545 C1549 1.385 . S
C1546 H1527 0.951 . S
C1546 C1544 1.388 . S
C1546 C1547 1.366 . S
C1547 C1546 1.366 . S
C1547 C1548 1.414 . S
C1547 C1550 1.499 . S
C1548 H1528 0.950 . S
C1548 C1547 1.414 . S
C1548 C1549 1.374 . S
C1549 H1529 0.950 . S
C1549 C1545 1.385 . S
C1549 C1548 1.374 . S
C1550 C1547 1.499 . S
C1550 C1551 1.373 . S
C1550 C1552 1.389 . S
C1551 H1530 0.950 . S
C1551 C1550 1.373 . S
C1551 C1567 1.377 . S
C1552 C1550 1.389 . S
C1552 C1553 1.524 . S
C1552 C1566 1.377 . S
C1553 C1552 1.524 . S
C1553 C1554 1.397 . S
C1553 C1558 1.363 . S
C1554 H1531 0.950 . S
C1554 C1553 1.397 . S
C1554 C1555 1.334 . S
C1555 H1532 0.950 . S
C1555 C1554 1.334 . S
C1555 C1556 1.287 . S
C1556 C1555 1.287 . S
C1556 C1557 1.524 . S
C1556 H1575 0.913 . S
C1557 H1533 0.950 . S
C1557 C1556 1.524 . S
C1557 C1558 1.415 . S
C1558 H1534 0.950 . S
C1558 C1553 1.363 . S
C1558 C1557 1.415 . S
C1559 H1535 0.951 . S
C1559 C1560 1.366 . S
C1559 C1561 1.388 . S
C1560 C1559 1.366 . S
C1560 C1564 1.385 . S
C1561 H1536 0.951 . S
C1561 C1559 1.388 . S
C1561 C1562 1.366 . S
C1562 C1561 1.366 . S
C1562 C1563 1.414 . S
C1562 C1565 1.499 . S
C1563 H1537 0.950 . S
C1563 C1562 1.414 . S
C1563 C1564 1.374 . S
C1564 H1538 0.950 . S
C1564 C1560 1.385 . S
C1564 C1563 1.374 . S
C1565 C1562 1.499 . S
C1565 C1566 1.373 . S
C1565 C1567 1.389 . S
C1566 H1539 0.950 . S
C1566 C1552 1.377 . S
C1566 C1565 1.373 . S
C1567 C1551 1.377 . S
C1567 C1565 1.389 . S
C1567 C1568 1.524 . S
C1568 C1567 1.524 . S
C1568 C1569 1.397 . S
C1568 C1573 1.363 . S
C1569 H1540 0.950 . S
C1569 C1568 1.397 . S
C1569 C1570 1.334 . S
C1570 H1541 0.950 . S
C1570 C1569 1.334 . S
C1570 C1571 1.287 . S
C1571 C1570 1.287 . S
C1571 C1572 1.524 . S
C1571 H1574 0.999 . S
C1572 H1542 0.950 . S
C1572 C1571 1.524 . S
C1572 C1573 1.415 . S
C1573 H1543 0.950 . S
C1573 C1568 1.363 . S
C1573 C1572 1.415 . S
H1574 C1571 0.999 . S
H1575 C1556 0.913 . S
H1576 C1594 0.951 . S
H1577 C1596 0.951 . S
H1578 C1598 0.950 . S
H1579 C1599 0.950 . S
H1580 C1601 0.950 . S
H1581 C1604 0.950 . S
H1582 C1605 0.950 . S
H1583 C1607 0.950 . S
H1584 C1608 0.950 . S
H1585 C1609 0.951 . S
H1586 C1611 0.951 . S
H1587 C1613 0.950 . S
H1588 C1614 0.950 . S
H1589 C1616 0.950 . S
H1590 C1619 0.950 . S
H1591 C1620 0.950 . S
H1592 C1622 0.950 . S
H1593 C1623 0.950 . S
C1594 H1576 0.951 . S
C1594 C1595 1.366 . S
C1594 C1596 1.388 . S
C1595 C1594 1.366 . S
C1595 C1599 1.385 . S
C1596 H1577 0.951 . S
C1596 C1594 1.388 . S
C1596 C1597 1.366 . S
C1597 C1596 1.366 . S
C1597 C1598 1.414 . S
C1597 C1600 1.499 . S
C1598 H1578 0.950 . S
C1598 C1597 1.414 . S
C1598 C1599 1.374 . S
C1599 H1579 0.950 . S
C1599 C1595 1.385 . S
C1599 C1598 1.374 . S
C1600 C1597 1.499 . S
C1600 C1601 1.373 . S
C1600 C1602 1.389 . S
C1601 H1580 0.950 . S
C1601 C1600 1.373 . S
C1601 C1617 1.377 . S
C1602 C1600 1.389 . S
C1602 C1603 1.524 . S
C1602 C1616 1.377 . S
C1603 C1602 1.524 . S
C1603 C1604 1.397 . S
C1603 C1608 1.363 . S
C1604 H1581 0.950 . S
C1604 C1603 1.397 . S
C1604 C1605 1.334 . S
C1605 H1582 0.950 . S
C1605 C1604 1.334 . S
C1605 C1606 1.287 . S
C1606 C1605 1.287 . S
C1606 C1607 1.524 . S
C1606 H1625 0.913 . S
C1607 H1583 0.950 . S
C1607 C1606 1.524 . S
C1607 C1608 1.415 . S
C1608 H1584 0.950 . S
C1608 C1603 1.363 . S
C1608 C1607 1.415 . S
C1609 H1585 0.951 . S
C1609 C1610 1.366 . S
C1609 C1611 1.388 . S
C1610 C1609 1.366 . S
C1610 C1614 1.385 . S
C1611 H1586 0.951 . S
C1611 C1609 1.388 . S
C1611 C1612 1.366 . S
C1612 C1611 1.366 . S
C1612 C1613 1.414 . S
C1612 C1615 1.499 . S
C1613 H1587 0.950 . S
C1613 C1612 1.414 . S
C1613 C1614 1.374 . S
C1614 H1588 0.950 . S
C1614 C1610 1.385 . S
C1614 C1613 1.374 . S
C1615 C1612 1.499 . S
C1615 C1616 1.373 . S
C1615 C1617 1.389 . S
C1616 H1589 0.950 . S
C1616 C1602 1.377 . S
C1616 C1615 1.373 . S
C1617 C1601 1.377 . S
C1617 C1615 1.389 . S
C1617 C1618 1.524 . S
C1618 C1617 1.524 . S
C1618 C1619 1.397 . S
C1618 C1623 1.363 . S
C1619 H1590 0.950 . S
C1619 C1618 1.397 . S
C1619 C1620 1.334 . S
C1620 H1591 0.950 . S
C1620 C1619 1.334 . S
C1620 C1621 1.287 . S
C1621 C1620 1.287 . S
C1621 C1622 1.524 . S
C1621 H1624 0.999 . S
C1622 H1592 0.950 . S
C1622 C1621 1.524 . S
C1622 C1623 1.415 . S
C1623 H1593 0.950 . S
C1623 C1618 1.363 . S
C1623 C1622 1.415 . S
H1624 C1621 0.999 . S
H1625 C1606 0.913 . S
H1626 C1644 0.951 . S
H1627 C1646 0.951 . S
H1628 C1648 0.950 . S
H1629 C1649 0.950 . S
H1630 C1651 0.950 . S
H1631 C1654 0.950 . S
H1632 C1655 0.950 . S
H1633 C1657 0.950 . S
H1634 C1658 0.950 . S
H1635 C1659 0.951 . S
H1636 C1661 0.951 . S
H1637 C1663 0.950 . S
H1638 C1664 0.950 . S
H1639 C1666 0.950 . S
H1640 C1669 0.950 . S
H1641 C1670 0.950 . S
H1642 C1672 0.950 . S
H1643 C1673 0.959 . S
C1644 H1626 0.951 . S
C1644 C1645 1.366 . S
C1644 C1646 1.388 . S
C1645 C1644 1.366 . S
C1645 C1649 1.385 . S
C1646 H1627 0.951 . S
C1646 C1644 1.388 . S
C1646 C1647 1.366 . S
C1647 C1646 1.366 . S
C1647 C1648 1.414 . S
C1647 C1650 1.499 . S
C1648 H1628 0.950 . S
C1648 C1647 1.414 . S
C1648 C1649 1.374 . S
C1649 H1629 0.950 . S
C1649 C1645 1.385 . S
C1649 C1648 1.374 . S
C1650 C1647 1.499 . S
C1650 C1651 1.373 . S
C1650 C1652 1.389 . S
C1651 H1630 0.950 . S
C1651 C1650 1.373 . S
C1651 C1667 1.377 . S
C1652 C1650 1.389 . S
C1652 C1653 1.524 . S
C1652 C1666 1.377 . S
C1653 C1652 1.524 . S
C1653 C1654 1.397 . S
C1653 C1658 1.363 . S
C1654 H1631 0.950 . S
C1654 C1653 1.397 . S
C1654 C1655 1.334 . S
C1655 H1632 0.950 . S
C1655 C1654 1.334 . S
C1655 C1656 1.287 . S
C1656 C1655 1.287 . S
C1656 C1657 1.524 . S
C1656 H1675 0.913 . S
C1657 H1633 0.950 . S
C1657 C1656 1.524 . S
C1657 C1658 1.415 . S
C1658 H1634 0.950 . S
C1658 C1653 1.363 . S
C1658 C1657 1.415 . S
C1659 H1635 0.951 . S
C1659 C1660 1.366 . S
C1659 C1661 1.388 . S
C1660 C1659 1.366 . S
C1660 C1664 1.385 . S
C1661 H1636 0.951 . S
C1661 C1659 1.388 . S
C1661 C1662 1.366 . S
C1662 C1661 1.366 . S
C1662 C1663 1.414 . S
C1662 C1665 1.499 . S
C1663 H1637 0.950 . S
C1663 C1662 1.414 . S
C1663 C1664 1.374 . S
C1664 H1638 0.950 . S
C1664 C1660 1.385 . S
C1664 C1663 1.374 . S
C1665 C1662 1.499 . S
C1665 C1666 1.373 1_556 S
C1665 C1667 1.389 1_556 S
C1666 H1639 0.950 . S
C1666 C1652 1.377 . S
C1666 C1665 1.373 1_554 S
C1667 C1651 1.377 . S
C1667 C1665 1.389 1_554 S
C1667 C1668 1.524 1_554 S
C1668 C1667 1.524 1_556 S
C1668 C1669 1.397 . S
C1668 C1673 1.360 1_556 S
C1669 H1640 0.950 . S
C1669 C1668 1.397 . S
C1669 C1670 1.334 . S
C1670 H1641 0.950 . S
C1670 C1669 1.334 . S
C1670 C1671 1.287 . S
C1671 C1670 1.287 . S
C1671 C1672 1.524 . S
C1671 H1674 0.999 . S
C1672 H1642 0.950 . S
C1672 C1671 1.524 . S
C1672 C1673 1.409 1_556 S
C1673 H1643 0.959 . S
C1673 C1668 1.360 1_554 S
C1673 C1672 1.409 1_554 S
H1674 C1671 0.999 . S
H1675 C1656 0.913 . S
H1676 C1694 0.951 . S
H1677 C1696 0.951 . S
H1678 C1698 0.950 . S
H1679 C1699 0.950 . S
H1680 C1701 0.950 . S
H1681 C1704 0.950 . S
H1682 C1705 0.950 . S
H1683 C1707 0.950 . S
H1684 C1708 0.950 . S
H1685 C1709 0.951 . S
H1686 C1711 0.951 . S
H1687 C1713 0.950 . S
H1688 C1714 0.950 . S
H1689 C1716 0.950 . S
H1690 C1719 0.950 . S
H1691 C1720 0.950 . S
H1692 C1722 0.950 . S
H1693 C1723 0.950 . S
C1694 H1676 0.951 . S
C1694 C1695 1.366 . S
C1694 C1696 1.388 . S
C1695 C1694 1.366 . S
C1695 C1699 1.385 . S
C1696 H1677 0.951 . S
C1696 C1694 1.388 . S
C1696 C1697 1.366 . S
C1697 C1696 1.366 . S
C1697 C1698 1.414 . S
C1697 C1700 1.499 . S
C1698 H1678 0.950 . S
C1698 C1697 1.414 . S
C1698 C1699 1.374 . S
C1699 H1679 0.950 . S
C1699 C1695 1.385 . S
C1699 C1698 1.374 . S
C1700 C1697 1.499 . S
C1700 C1701 1.373 . S
C1700 C1702 1.389 . S
C1701 H1680 0.950 . S
C1701 C1700 1.373 . S
C1701 C1717 1.377 . S
C1702 C1700 1.389 . S
C1702 C1703 1.524 . S
C1702 C1716 1.377 . S
C1703 C1702 1.524 . S
C1703 C1704 1.397 . S
C1703 C1708 1.363 . S
C1704 H1681 0.950 . S
C1704 C1703 1.397 . S
C1704 C1705 1.334 . S
C1705 H1682 0.950 . S
C1705 C1704 1.334 . S
C1705 C1706 1.287 . S
C1706 C1705 1.287 . S
C1706 C1707 1.524 . S
C1706 H1725 0.913 . S
C1707 H1683 0.950 . S
C1707 C1706 1.524 . S
C1707 C1708 1.415 . S
C1708 H1684 0.950 . S
C1708 C1703 1.363 . S
C1708 C1707 1.415 . S
C1709 H1685 0.951 . S
C1709 C1710 1.366 . S
C1709 C1711 1.388 . S
C1710 C1709 1.366 . S
C1710 C1714 1.385 . S
C1711 H1686 0.951 . S
C1711 C1709 1.388 . S
C1711 C1712 1.366 . S
C1712 C1711 1.366 . S
C1712 C1713 1.414 . S
C1712 C1715 1.499 . S
C1713 H1687 0.950 . S
C1713 C1712 1.414 . S
C1713 C1714 1.374 . S
C1714 H1688 0.950 . S
C1714 C1710 1.385 . S
C1714 C1713 1.374 . S
C1715 C1712 1.499 . S
C1715 C1716 1.373 . S
C1715 C1717 1.389 . S
C1716 H1689 0.950 . S
C1716 C1702 1.377 . S
C1716 C1715 1.373 . S
C1717 C1701 1.377 . S
C1717 C1715 1.389 . S
C1717 C1718 1.524 . S
C1718 C1717 1.524 . S
C1718 C1719 1.397 . S
C1718 C1723 1.363 . S
C1719 H1690 0.950 . S
C1719 C1718 1.397 . S
C1719 C1720 1.334 . S
C1720 H1691 0.950 . S
C1720 C1719 1.334 . S
C1720 C1721 1.287 . S
C1721 C1720 1.287 . S
C1721 C1722 1.524 . S
C1721 H1724 0.999 . S
C1722 H1692 0.950 . S
C1722 C1721 1.524 . S
C1722 C1723 1.415 . S
C1723 H1693 0.950 . S
C1723 C1718 1.363 . S
C1723 C1722 1.415 . S
H1724 C1721 0.999 . S
H1725 C1706 0.913 . S
H1726 C1744 0.951 . S
H1727 C1746 0.951 . S
H1728 C1748 0.950 . S
H1729 C1749 0.950 . S
H1730 C1751 0.950 . S
H1731 C1754 0.950 . S
H1732 C1755 0.950 . S
H1733 C1757 0.950 . S
H1734 C1758 0.950 . S
H1735 C1759 0.951 . S
H1736 C1761 0.951 . S
H1737 C1763 0.950 . S
H1738 C1764 0.950 . S
H1739 C1766 0.950 . S
H1740 C1769 0.950 . S
H1741 C1770 0.950 . S
H1742 C1772 0.950 . S
H1743 C1773 0.950 . S
C1744 H1726 0.951 . S
C1744 C1745 1.366 . S
C1744 C1746 1.388 . S
C1745 C1744 1.366 . S
C1745 C1749 1.385 . S
C1746 H1727 0.951 . S
C1746 C1744 1.388 . S
C1746 C1747 1.366 . S
C1747 C1746 1.366 . S
C1747 C1748 1.414 . S
C1747 C1750 1.499 . S
C1748 H1728 0.950 . S
C1748 C1747 1.414 . S
C1748 C1749 1.374 . S
C1749 H1729 0.950 . S
C1749 C1745 1.385 . S
C1749 C1748 1.374 . S
C1750 C1747 1.499 . S
C1750 C1751 1.373 . S
C1750 C1752 1.389 . S
C1751 H1730 0.950 . S
C1751 C1750 1.373 . S
C1751 C1767 1.377 . S
C1752 C1750 1.389 . S
C1752 C1753 1.524 . S
C1752 C1766 1.377 . S
C1753 C1752 1.524 . S
C1753 C1754 1.397 . S
C1753 C1758 1.363 . S
C1754 H1731 0.950 . S
C1754 C1753 1.397 . S
C1754 C1755 1.334 . S
C1755 H1732 0.950 . S
C1755 C1754 1.334 . S
C1755 C1756 1.287 . S
C1756 C1755 1.287 . S
C1756 C1757 1.524 . S
C1756 H1775 0.913 . S
C1757 H1733 0.950 . S
C1757 C1756 1.524 . S
C1757 C1758 1.415 . S
C1758 H1734 0.950 . S
C1758 C1753 1.363 . S
C1758 C1757 1.415 . S
C1759 H1735 0.951 . S
C1759 C1760 1.366 . S
C1759 C1761 1.388 . S
C1760 C1759 1.366 . S
C1760 C1764 1.385 . S
C1761 H1736 0.951 . S
C1761 C1759 1.388 . S
C1761 C1762 1.366 . S
C1762 C1761 1.366 . S
C1762 C1763 1.414 . S
C1762 C1765 1.499 . S
C1763 H1737 0.950 . S
C1763 C1762 1.414 . S
C1763 C1764 1.374 . S
C1764 H1738 0.950 . S
C1764 C1760 1.385 . S
C1764 C1763 1.374 . S
C1765 C1762 1.499 . S
C1765 C1766 1.373 . S
C1765 C1767 1.389 . S
C1766 H1739 0.950 . S
C1766 C1752 1.377 . S
C1766 C1765 1.373 . S
C1767 C1751 1.377 . S
C1767 C1765 1.389 . S
C1767 C1768 1.524 . S
C1768 C1767 1.524 . S
C1768 C1769 1.397 . S
C1768 C1773 1.363 . S
C1769 H1740 0.950 . S
C1769 C1768 1.397 . S
C1769 C1770 1.334 . S
C1770 H1741 0.950 . S
C1770 C1769 1.334 . S
C1770 C1771 1.287 . S
C1771 C1770 1.287 . S
C1771 C1772 1.524 . S
C1771 H1774 0.999 . S
C1772 H1742 0.950 . S
C1772 C1771 1.524 . S
C1772 C1773 1.415 . S
C1773 H1743 0.950 . S
C1773 C1768 1.363 . S
C1773 C1772 1.415 . S
H1774 C1771 0.999 . S
H1775 C1756 0.913 . S
H1776 C1794 0.951 . S
H1777 C1796 0.951 . S
H1778 C1798 0.950 . S
H1779 C1799 0.950 . S
H1780 C1801 0.950 1_556 S
H1781 C1804 0.950 . S
H1782 C1805 0.950 . S
H1783 C1807 0.950 . S
H1784 C1808 0.950 . S
H1785 C1809 0.951 . S
H1786 C1811 0.951 . S
H1787 C1813 0.950 . S
H1788 C1814 0.950 . S
H1789 C1816 0.950 . S
H1790 C1819 0.950 . S
H1791 C1820 0.950 . S
H1792 C1822 0.950 . S
H1793 C1823 0.950 . S
C1794 H1776 0.951 . S
C1794 C1795 1.366 . S
C1794 C1796 1.388 . S
C1795 C1794 1.366 . S
C1795 C1799 1.385 . S
C1796 H1777 0.951 . S
C1796 C1794 1.388 . S
C1796 C1797 1.366 . S
C1797 C1796 1.366 . S
C1797 C1798 1.414 . S
C1797 C1800 1.499 . S
C1798 H1778 0.950 . S
C1798 C1797 1.414 . S
C1798 C1799 1.374 . S
C1799 H1779 0.950 . S
C1799 C1795 1.385 . S
C1799 C1798 1.374 . S
C1800 C1797 1.499 . S
C1800 C1801 1.373 1_556 S
C1800 C1802 1.389 1_556 S
C1801 H1780 0.950 1_554 S
C1801 C1800 1.373 1_554 S
C1801 C1817 1.377 . S
C1802 C1800 1.389 1_554 S
C1802 C1803 1.524 . S
C1802 C1816 1.377 . S
C1803 C1802 1.524 . S
C1803 C1804 1.397 1_554 S
C1803 C1808 1.363 . S
C1804 H1781 0.950 . S
C1804 C1803 1.397 1_556 S
C1804 C1805 1.334 . S
C1805 H1782 0.950 . S
C1805 C1804 1.334 . S
C1805 C1806 1.287 . S
C1806 C1805 1.287 . S
C1806 C1807 1.524 1_556 S
C1806 H1825 0.913 . S
C1807 H1783 0.950 . S
C1807 C1806 1.524 1_554 S
C1807 C1808 1.415 . S
C1808 H1784 0.950 . S
C1808 C1803 1.363 . S
C1808 C1807 1.415 . S
C1809 H1785 0.951 . S
C1809 C1810 1.366 . S
C1809 C1811 1.388 . S
C1810 C1809 1.366 . S
C1810 C1814 1.385 . S
C1811 H1786 0.951 . S
C1811 C1809 1.388 . S
C1811 C1812 1.366 . S
C1812 C1811 1.366 . S
C1812 C1813 1.414 . S
C1812 C1815 1.499 . S
C1813 H1787 0.950 . S
C1813 C1812 1.414 . S
C1813 C1814 1.374 . S
C1814 H1788 0.950 . S
C1814 C1810 1.385 . S
C1814 C1813 1.374 . S
C1815 C1812 1.499 . S
C1815 C1816 1.373 . S
C1815 C1817 1.389 . S
C1816 H1789 0.950 . S
C1816 C1802 1.377 . S
C1816 C1815 1.373 . S
C1817 C1801 1.377 . S
C1817 C1815 1.389 . S
C1817 C1818 1.524 . S
C1818 C1817 1.524 . S
C1818 C1819 1.397 . S
C1818 C1823 1.363 . S
C1819 H1790 0.950 . S
C1819 C1818 1.397 . S
C1819 C1820 1.334 . S
C1820 H1791 0.950 . S
C1820 C1819 1.334 . S
C1820 C1821 1.287 . S
C1821 C1820 1.287 . S
C1821 C1822 1.524 . S
C1821 H1824 0.999 . S
C1822 H1792 0.950 . S
C1822 C1821 1.524 . S
C1822 C1823 1.415 . S
C1823 H1793 0.950 . S
C1823 C1818 1.363 . S
C1823 C1822 1.415 . S
H1824 C1821 0.999 . S
H1825 C1806 0.913 . S
H1826 C1844 0.951 . S
H1827 C1846 0.951 . S
H1828 C1848 0.950 . S
H1829 C1849 0.950 . S
H1830 C1851 0.950 . S
H1831 C1854 0.950 . S
H1832 C1855 0.950 . S
H1833 C1857 0.950 . S
H1834 C1858 0.950 . S
H1835 C1859 0.951 . S
H1836 C1861 0.951 . S
H1837 C1863 0.950 . S
H1838 C1864 0.950 . S
H1839 C1866 0.950 . S
H1840 C1869 0.950 . S
H1841 C1870 0.950 . S
H1842 C1872 0.950 . S
H1843 C1873 0.950 . S
C1844 H1826 0.951 . S
C1844 C1845 1.366 . S
C1844 C1846 1.388 . S
C1845 C1844 1.366 . S
C1845 C1849 1.385 . S
C1846 H1827 0.951 . S
C1846 C1844 1.388 . S
C1846 C1847 1.366 . S
C1847 C1846 1.366 . S
C1847 C1848 1.414 . S
C1847 C1850 1.499 . S
C1848 H1828 0.950 . S
C1848 C1847 1.414 . S
C1848 C1849 1.374 . S
C1849 H1829 0.950 . S
C1849 C1845 1.385 . S
C1849 C1848 1.374 . S
C1850 C1847 1.499 . S
C1850 C1851 1.373 . S
C1850 C1852 1.389 . S
C1851 H1830 0.950 . S
C1851 C1850 1.373 . S
C1851 C1867 1.377 . S
C1852 C1850 1.389 . S
C1852 C1853 1.524 . S
C1852 C1866 1.377 . S
C1853 C1852 1.524 . S
C1853 C1854 1.397 . S
C1853 C1858 1.363 . S
C1854 H1831 0.950 . S
C1854 C1853 1.397 . S
C1854 C1855 1.334 . S
C1855 H1832 0.950 . S
C1855 C1854 1.334 . S
C1855 C1856 1.287 . S
C1856 C1855 1.287 . S
C1856 C1857 1.524 . S
C1856 H1875 0.913 . S
C1857 H1833 0.950 . S
C1857 C1856 1.524 . S
C1857 C1858 1.415 . S
C1858 H1834 0.950 . S
C1858 C1853 1.363 . S
C1858 C1857 1.415 . S
C1859 H1835 0.951 . S
C1859 C1860 1.366 . S
C1859 C1861 1.388 . S
C1860 C1859 1.366 . S
C1860 C1864 1.385 . S
C1861 H1836 0.951 . S
C1861 C1859 1.388 . S
C1861 C1862 1.366 . S
C1862 C1861 1.366 . S
C1862 C1863 1.414 . S
C1862 C1865 1.499 . S
C1863 H1837 0.950 . S
C1863 C1862 1.414 . S
C1863 C1864 1.374 . S
C1864 H1838 0.950 . S
C1864 C1860 1.385 . S
C1864 C1863 1.374 . S
C1865 C1862 1.499 . S
C1865 C1866 1.373 . S
C1865 C1867 1.389 . S
C1866 H1839 0.950 . S
C1866 C1852 1.377 . S
C1866 C1865 1.373 . S
C1867 C1851 1.377 . S
C1867 C1865 1.389 . S
C1867 C1868 1.524 . S
C1868 C1867 1.524 . S
C1868 C1869 1.397 . S
C1868 C1873 1.363 . S
C1869 H1840 0.950 . S
C1869 C1868 1.397 . S
C1869 C1870 1.334 . S
C1870 H1841 0.950 . S
C1870 C1869 1.334 . S
C1870 C1871 1.287 . S
C1871 C1870 1.287 . S
C1871 C1872 1.524 . S
C1871 H1874 0.999 . S
C1872 H1842 0.950 . S
C1872 C1871 1.524 . S
C1872 C1873 1.415 . S
C1873 H1843 0.950 . S
C1873 C1868 1.363 . S
C1873 C1872 1.415 . S
H1874 C1871 0.999 . S
H1875 C1856 0.913 . S
H1876 C1894 0.951 . S
H1877 C1896 0.951 . S
H1878 C1898 0.950 . S
H1879 C1899 0.950 . S
H1880 C1901 0.950 . S
H1881 C1904 0.950 . S
H1882 C1905 0.950 . S
H1883 C1907 0.950 . S
H1884 C1908 0.950 . S
H1885 C1909 0.951 . S
H1886 C1911 0.951 . S
H1887 C1913 0.950 . S
H1888 C1914 0.950 . S
H1889 C1916 0.950 . S
H1890 C1919 0.950 . S
H1891 C1920 0.950 . S
H1892 C1922 0.950 . S
H1893 C1923 0.950 . S
C1894 H1876 0.951 . S
C1894 C1895 1.366 . S
C1894 C1896 1.388 . S
C1895 C1894 1.366 . S
C1895 C1899 1.385 . S
C1896 H1877 0.951 . S
C1896 C1894 1.388 . S
C1896 C1897 1.366 . S
C1897 C1896 1.366 . S
C1897 C1898 1.414 . S
C1897 C1900 1.499 . S
C1898 H1878 0.950 . S
C1898 C1897 1.414 . S
C1898 C1899 1.374 . S
C1899 H1879 0.950 . S
C1899 C1895 1.385 . S
C1899 C1898 1.374 . S
C1900 C1897 1.499 . S
C1900 C1901 1.373 . S
C1900 C1902 1.389 . S
C1901 H1880 0.950 . S
C1901 C1900 1.373 . S
C1901 C1917 1.377 . S
C1902 C1900 1.389 . S
C1902 C1903 1.524 . S
C1902 C1916 1.377 . S
C1903 C1902 1.524 . S
C1903 C1904 1.397 . S
C1903 C1908 1.363 . S
C1904 H1881 0.950 . S
C1904 C1903 1.397 . S
C1904 C1905 1.334 . S
C1905 H1882 0.950 . S
C1905 C1904 1.334 . S
C1905 C1906 1.287 . S
C1906 C1905 1.287 . S
C1906 C1907 1.524 . S
C1906 H1925 0.913 . S
C1907 H1883 0.950 . S
C1907 C1906 1.524 . S
C1907 C1908 1.415 . S
C1908 H1884 0.950 . S
C1908 C1903 1.363 . S
C1908 C1907 1.415 . S
C1909 H1885 0.951 . S
C1909 C1910 1.366 . S
C1909 C1911 1.388 . S
C1910 C1909 1.366 . S
C1910 C1914 1.385 . S
C1911 H1886 0.951 . S
C1911 C1909 1.388 . S
C1911 C1912 1.366 . S
C1912 C1911 1.366 . S
C1912 C1913 1.414 . S
C1912 C1915 1.499 . S
C1913 H1887 0.950 . S
C1913 C1912 1.414 . S
C1913 C1914 1.374 . S
C1914 H1888 0.950 . S
C1914 C1910 1.385 . S
C1914 C1913 1.374 . S
C1915 C1912 1.499 . S
C1915 C1916 1.373 . S
C1915 C1917 1.389 . S
C1916 H1889 0.950 . S
C1916 C1902 1.377 . S
C1916 C1915 1.373 . S
C1917 C1901 1.377 . S
C1917 C1915 1.389 . S
C1917 C1918 1.524 . S
C1918 C1917 1.524 . S
C1918 C1919 1.397 . S
C1918 C1923 1.363 . S
C1919 H1890 0.950 . S
C1919 C1918 1.397 . S
C1919 C1920 1.334 . S
C1920 H1891 0.950 . S
C1920 C1919 1.334 . S
C1920 C1921 1.287 . S
C1921 C1920 1.287 . S
C1921 C1922 1.524 . S
C1921 H1924 0.999 . S
C1922 H1892 0.950 . S
C1922 C1921 1.524 . S
C1922 C1923 1.415 . S
C1923 H1893 0.950 . S
C1923 C1918 1.363 . S
C1923 C1922 1.415 . S
H1924 C1921 0.999 . S
H1925 C1906 0.913 . S
H1926 C1944 0.951 . S
H1927 C1946 0.951 . S
H1928 C1948 0.950 . S
H1929 C1949 0.950 . S
H1930 C1951 0.950 . S
H1931 C1954 0.950 . S
H1932 C1955 0.950 . S
H1933 C1957 0.950 . S
H1934 C1958 0.950 . S
H1935 C1959 0.951 . S
H1936 C1961 0.951 . S
H1937 C1963 0.950 . S
H1938 C1964 0.950 . S
H1939 C1966 0.950 . S
H1940 C1969 0.950 . S
H1941 C1970 0.950 . S
H1942 C1972 0.950 . S
H1943 C1973 0.950 . S
C1944 H1926 0.951 . S
C1944 C1945 1.366 . S
C1944 C1946 1.388 . S
C1945 C1944 1.366 . S
C1945 C1949 1.385 . S
C1946 H1927 0.951 . S
C1946 C1944 1.388 . S
C1946 C1947 1.366 . S
C1947 C1946 1.366 . S
C1947 C1948 1.414 . S
C1947 C1950 1.499 . S
C1948 H1928 0.950 . S
C1948 C1947 1.414 . S
C1948 C1949 1.374 . S
C1949 H1929 0.950 . S
C1949 C1945 1.385 . S
C1949 C1948 1.374 . S
C1950 C1947 1.499 . S
C1950 C1951 1.373 . S
C1950 C1952 1.389 . S
C1951 H1930 0.950 . S
C1951 C1950 1.373 . S
C1951 C1967 1.377 . S
C1952 C1950 1.389 . S
C1952 C1953 1.524 . S
C1952 C1966 1.377 . S
C1953 C1952 1.524 . S
C1953 C1954 1.397 . S
C1953 C1958 1.363 . S
C1954 H1931 0.950 . S
C1954 C1953 1.397 . S
C1954 C1955 1.334 . S
C1955 H1932 0.950 . S
C1955 C1954 1.334 . S
C1955 C1956 1.287 . S
C1956 C1955 1.287 . S
C1956 C1957 1.524 . S
C1956 H1975 0.913 . S
C1957 H1933 0.950 . S
C1957 C1956 1.524 . S
C1957 C1958 1.415 . S
C1958 H1934 0.950 . S
C1958 C1953 1.363 . S
C1958 C1957 1.415 . S
C1959 H1935 0.951 . S
C1959 C1960 1.366 . S
C1959 C1961 1.388 . S
C1960 C1959 1.366 . S
C1960 C1964 1.385 . S
C1961 H1936 0.951 . S
C1961 C1959 1.388 . S
C1961 C1962 1.366 . S
C1962 C1961 1.366 . S
C1962 C1963 1.414 . S
C1962 C1965 1.499 . S
C1963 H1937 0.950 . S
C1963 C1962 1.414 . S
C1963 C1964 1.374 . S
C1964 H1938 0.950 . S
C1964 C1960 1.385 . S
C1964 C1963 1.374 . S
C1965 C1962 1.499 . S
C1965 C1966 1.373 . S
C1965 C1967 1.389 . S
C1966 H1939 0.950 . S
C1966 C1952 1.377 . S
C1966 C1965 1.373 . S
C1967 C1951 1.377 . S
C1967 C1965 1.389 . S
C1967 C1968 1.524 . S
C1968 C1967 1.524 . S
C1968 C1969 1.397 . S
C1968 C1973 1.363 . S
C1969 H1940 0.950 . S
C1969 C1968 1.397 . S
C1969 C1970 1.334 . S
C1970 H1941 0.950 . S
C1970 C1969 1.334 . S
C1970 C1971 1.287 . S
C1971 C1970 1.287 . S
C1971 C1972 1.524 . S
C1971 H1974 0.999 . S
C1972 H1942 0.950 . S
C1972 C1971 1.524 . S
C1972 C1973 1.415 . S
C1973 H1943 0.950 . S
C1973 C1968 1.363 . S
C1973 C1972 1.415 . S
H1974 C1971 0.999 . S
H1975 C1956 0.913 . S
H1976 C1994 0.951 . S
H1977 C1996 0.951 . S
H1978 C1998 0.950 . S
H1979 C1999 0.950 . S
H1980 C2001 0.950 . S
H1981 C2004 0.950 . S
H1982 C2005 0.950 . S
H1983 C2007 0.950 . S
H1984 C2008 0.950 . S
H1985 C2009 0.951 . S
H1986 C2011 0.951 . S
H1987 C2013 0.950 . S
H1988 C2014 0.950 . S
H1989 C2016 0.950 . S
H1990 C2019 0.950 . S
H1991 C2020 0.950 . S
H1992 C2022 0.950 . S
H1993 C2023 0.950 . S
C1994 H1976 0.951 . S
C1994 C1995 1.366 . S
C1994 C1996 1.388 . S
C1995 C1994 1.366 . S
C1995 C1999 1.385 . S
C1996 H1977 0.951 . S
C1996 C1994 1.388 . S
C1996 C1997 1.366 . S
C1997 C1996 1.366 . S
C1997 C1998 1.414 . S
C1997 C2000 1.499 . S
C1998 H1978 0.950 . S
C1998 C1997 1.414 . S
C1998 C1999 1.374 . S
C1999 H1979 0.950 . S
C1999 C1995 1.385 . S
C1999 C1998 1.374 . S
C2000 C1997 1.499 . S
C2000 C2001 1.373 . S
C2000 C2002 1.389 . S
C2001 H1980 0.950 . S
C2001 C2000 1.373 . S
C2001 C2017 1.377 . S
C2002 C2000 1.389 . S
C2002 C2003 1.524 . S
C2002 C2016 1.377 . S
C2003 C2002 1.524 . S
C2003 C2004 1.397 . S
C2003 C2008 1.363 . S
C2004 H1981 0.950 . S
C2004 C2003 1.397 . S
C2004 C2005 1.334 . S
C2005 H1982 0.950 . S
C2005 C2004 1.334 . S
C2005 C2006 1.287 . S
C2006 C2005 1.287 . S
C2006 C2007 1.524 . S
C2006 H2025 0.913 . S
C2007 H1983 0.950 . S
C2007 C2006 1.524 . S
C2007 C2008 1.415 . S
C2008 H1984 0.950 . S
C2008 C2003 1.363 . S
C2008 C2007 1.415 . S
C2009 H1985 0.951 . S
C2009 C2010 1.366 . S
C2009 C2011 1.388 . S
C2010 C2009 1.366 . S
C2010 C2014 1.385 . S
C2011 H1986 0.951 . S
C2011 C2009 1.388 . S
C2011 C2012 1.366 . S
C2012 C2011 1.366 . S
C2012 C2013 1.414 . S
C2012 C2015 1.499 . S
C2013 H1987 0.950 . S
C2013 C2012 1.414 . S
C2013 C2014 1.374 . S
C2014 H1988 0.950 . S
C2014 C2010 1.385 . S
C2014 C2013 1.374 . S
C2015 C2012 1.499 . S
C2015 C2016 1.373 . S
C2015 C2017 1.389 . S
C2016 H1989 0.950 . S
C2016 C2002 1.377 . S
C2016 C2015 1.373 . S
C2017 C2001 1.377 . S
C2017 C2015 1.389 . S
C2017 C2018 1.524 . S
C2018 C2017 1.524 . S
C2018 C2019 1.397 . S
C2018 C2023 1.363 . S
C2019 H1990 0.950 . S
C2019 C2018 1.397 . S
C2019 C2020 1.334 . S
C2020 H1991 0.950 . S
C2020 C2019 1.334 . S
C2020 C2021 1.287 . S
C2021 C2020 1.287 . S
C2021 C2022 1.524 . S
C2021 H2024 0.999 . S
C2022 H1992 0.950 . S
C2022 C2021 1.524 . S
C2022 C2023 1.415 . S
C2023 H1993 0.950 . S
C2023 C2018 1.363 . S
C2023 C2022 1.415 . S
H2024 C2021 0.999 . S
H2025 C2006 0.913 . S
H2026 C2044 0.951 . S
H2027 C2046 0.951 . S
H2028 C2048 0.950 . S
H2029 C2049 0.950 . S
H2030 C2051 0.950 . S
H2031 C2054 0.950 . S
H2032 C2055 0.950 . S
H2033 C2057 0.950 . S
H2034 C2058 0.950 . S
H2035 C2059 0.951 . S
H2036 C2061 0.951 . S
H2037 C2063 0.950 . S
H2038 C2064 0.950 . S
H2039 C2066 0.950 . S
H2040 C2069 0.950 . S
H2041 C2070 0.950 . S
H2042 C2072 0.950 . S
H2043 C2073 0.950 . S
C2044 H2026 0.951 . S
C2044 C2045 1.366 . S
C2044 C2046 1.388 . S
C2045 C2044 1.366 . S
C2045 C2049 1.385 . S
C2046 H2027 0.951 . S
C2046 C2044 1.388 . S
C2046 C2047 1.366 . S
C2047 C2046 1.366 . S
C2047 C2048 1.414 . S
C2047 C2050 1.499 . S
C2048 H2028 0.950 . S
C2048 C2047 1.414 . S
C2048 C2049 1.374 . S
C2049 H2029 0.950 . S
C2049 C2045 1.385 . S
C2049 C2048 1.374 . S
C2050 C2047 1.499 . S
C2050 C2051 1.373 . S
C2050 C2052 1.389 . S
C2051 H2030 0.950 . S
C2051 C2050 1.373 . S
C2051 C2067 1.377 . S
C2052 C2050 1.389 . S
C2052 C2053 1.524 . S
C2052 C2066 1.377 . S
C2053 C2052 1.524 . S
C2053 C2054 1.397 . S
C2053 C2058 1.363 . S
C2054 H2031 0.950 . S
C2054 C2053 1.397 . S
C2054 C2055 1.334 . S
C2055 H2032 0.950 . S
C2055 C2054 1.334 . S
C2055 C2056 1.287 . S
C2056 C2055 1.287 . S
C2056 C2057 1.524 . S
C2056 H2075 0.913 . S
C2057 H2033 0.950 . S
C2057 C2056 1.524 . S
C2057 C2058 1.415 . S
C2058 H2034 0.950 . S
C2058 C2053 1.363 . S
C2058 C2057 1.415 . S
C2059 H2035 0.951 . S
C2059 C2060 1.366 . S
C2059 C2061 1.388 . S
C2060 C2059 1.366 . S
C2060 C2064 1.385 . S
C2061 H2036 0.951 . S
C2061 C2059 1.388 . S
C2061 C2062 1.366 . S
C2062 C2061 1.366 . S
C2062 C2063 1.414 . S
C2062 C2065 1.499 . S
C2063 H2037 0.950 . S
C2063 C2062 1.414 . S
C2063 C2064 1.374 . S
C2064 H2038 0.950 . S
C2064 C2060 1.385 . S
C2064 C2063 1.374 . S
C2065 C2062 1.499 . S
C2065 C2066 1.373 . S
C2065 C2067 1.389 . S
C2066 H2039 0.950 . S
C2066 C2052 1.377 . S
C2066 C2065 1.373 . S
C2067 C2051 1.377 . S
C2067 C2065 1.389 . S
C2067 C2068 1.524 . S
C2068 C2067 1.524 . S
C2068 C2069 1.397 . S
C2068 C2073 1.363 . S
C2069 H2040 0.950 . S
C2069 C2068 1.397 . S
C2069 C2070 1.334 . S
C2070 H2041 0.950 . S
C2070 C2069 1.334 . S
C2070 C2071 1.287 . S
C2071 C2070 1.287 . S
C2071 C2072 1.524 . S
C2071 H2074 0.999 . S
C2072 H2042 0.950 . S
C2072 C2071 1.524 . S
C2072 C2073 1.415 . S
C2073 H2043 0.950 . S
C2073 C2068 1.363 . S
C2073 C2072 1.415 . S
H2074 C2071 0.999 . S
H2075 C2056 0.913 . S
H2076 C2094 0.951 . S
H2077 C2096 0.951 . S
H2078 C2098 0.950 . S
H2079 C2099 0.950 . S
H2080 C2101 0.950 . S
H2081 C2104 0.950 . S
H2082 C2105 0.950 . S
H2083 C2107 0.950 . S
H2084 C2108 0.950 . S
H2085 C2109 0.951 . S
H2086 C2111 0.951 . S
H2087 C2113 0.950 . S
H2088 C2114 0.950 . S
H2089 C2116 0.950 . S
H2090 C2119 0.950 . S
H2091 C2120 0.950 . S
H2092 C2122 0.950 . S
H2093 C2123 0.950 . S
C2094 H2076 0.951 . S
C2094 C2095 1.366 . S
C2094 C2096 1.388 . S
C2095 C2094 1.366 . S
C2095 C2099 1.385 . S
C2096 H2077 0.951 . S
C2096 C2094 1.388 . S
C2096 C2097 1.366 . S
C2097 C2096 1.366 . S
C2097 C2098 1.414 . S
C2097 C2100 1.499 . S
C2098 H2078 0.950 . S
C2098 C2097 1.414 . S
C2098 C2099 1.374 . S
C2099 H2079 0.950 . S
C2099 C2095 1.385 . S
C2099 C2098 1.374 . S
C2100 C2097 1.499 . S
C2100 C2101 1.373 . S
C2100 C2102 1.389 . S
C2101 H2080 0.950 . S
C2101 C2100 1.373 . S
C2101 C2117 1.377 . S
C2102 C2100 1.389 . S
C2102 C2103 1.524 . S
C2102 C2116 1.377 . S
C2103 C2102 1.524 . S
C2103 C2104 1.397 . S
C2103 C2108 1.363 . S
C2104 H2081 0.950 . S
C2104 C2103 1.397 . S
C2104 C2105 1.334 . S
C2105 H2082 0.950 . S
C2105 C2104 1.334 . S
C2105 C2106 1.287 . S
C2106 C2105 1.287 . S
C2106 C2107 1.524 . S
C2106 H2125 0.913 . S
C2107 H2083 0.950 . S
C2107 C2106 1.524 . S
C2107 C2108 1.415 . S
C2108 H2084 0.950 . S
C2108 C2103 1.363 . S
C2108 C2107 1.415 . S
C2109 H2085 0.951 . S
C2109 C2110 1.366 . S
C2109 C2111 1.388 . S
C2110 C2109 1.366 . S
C2110 C2114 1.385 . S
C2111 H2086 0.951 . S
C2111 C2109 1.388 . S
C2111 C2112 1.366 . S
C2112 C2111 1.366 . S
C2112 C2113 1.414 . S
C2112 C2115 1.499 . S
C2113 H2087 0.950 . S
C2113 C2112 1.414 . S
C2113 C2114 1.374 . S
C2114 H2088 0.950 . S
C2114 C2110 1.385 . S
C2114 C2113 1.374 . S
C2115 C2112 1.499 . S
C2115 C2116 1.373 . S
C2115 C2117 1.389 . S
C2116 H2089 0.950 . S
C2116 C2102 1.377 . S
C2116 C2115 1.373 . S
C2117 C2101 1.377 . S
C2117 C2115 1.389 . S
C2117 C2118 1.524 . S
C2118 C2117 1.524 . S
C2118 C2119 1.397 . S
C2118 C2123 1.363 . S
C2119 H2090 0.950 . S
C2119 C2118 1.397 . S
C2119 C2120 1.334 . S
C2120 H2091 0.950 . S
C2120 C2119 1.334 . S
C2120 C2121 1.287 . S
C2121 C2120 1.287 . S
C2121 C2122 1.524 . S
C2121 H2124 0.999 . S
C2122 H2092 0.950 . S
C2122 C2121 1.524 . S
C2122 C2123 1.415 . S
C2123 H2093 0.950 . S
C2123 C2118 1.363 . S
C2123 C2122 1.415 . S
H2124 C2121 0.999 . S
H2125 C2106 0.913 . S
H2126 C2144 0.951 . S
H2127 C2146 0.951 . S
H2128 C2148 0.950 . S
H2129 C2149 0.950 . S
H2130 C2151 0.950 . S
H2131 C2154 0.950 . S
H2132 C2155 0.950 . S
H2133 C2157 0.950 . S
H2134 C2158 0.950 . S
H2135 C2159 0.951 . S
H2136 C2161 0.951 . S
H2137 C2163 0.950 . S
H2138 C2164 0.950 . S
H2139 C2166 0.950 . S
H2140 C2169 0.950 . S
H2141 C2170 0.950 . S
H2142 C2172 0.950 . S
H2143 C2173 0.950 . S
C2144 H2126 0.951 . S
C2144 C2145 1.366 . S
C2144 C2146 1.388 . S
C2145 C2144 1.366 . S
C2145 C2149 1.385 . S
C2146 H2127 0.951 . S
C2146 C2144 1.388 . S
C2146 C2147 1.366 . S
C2147 C2146 1.366 . S
C2147 C2148 1.414 . S
C2147 C2150 1.499 . S
C2148 H2128 0.950 . S
C2148 C2147 1.414 . S
C2148 C2149 1.374 . S
C2149 H2129 0.950 . S
C2149 C2145 1.385 . S
C2149 C2148 1.374 . S
C2150 C2147 1.499 . S
C2150 C2151 1.373 . S
C2150 C2152 1.389 . S
C2151 H2130 0.950 . S
C2151 C2150 1.373 . S
C2151 C2167 1.377 . S
C2152 C2150 1.389 . S
C2152 C2153 1.524 . S
C2152 C2166 1.377 . S
C2153 C2152 1.524 . S
C2153 C2154 1.397 . S
C2153 C2158 1.363 . S
C2154 H2131 0.950 . S
C2154 C2153 1.397 . S
C2154 C2155 1.334 . S
C2155 H2132 0.950 . S
C2155 C2154 1.334 . S
C2155 C2156 1.287 . S
C2156 C2155 1.287 . S
C2156 C2157 1.524 . S
C2156 H2175 0.913 . S
C2157 H2133 0.950 . S
C2157 C2156 1.524 . S
C2157 C2158 1.415 . S
C2158 H2134 0.950 . S
C2158 C2153 1.363 . S
C2158 C2157 1.415 . S
C2159 H2135 0.951 . S
C2159 C2160 1.366 . S
C2159 C2161 1.388 . S
C2160 C2159 1.366 . S
C2160 C2164 1.385 . S
C2161 H2136 0.951 . S
C2161 C2159 1.388 . S
C2161 C2162 1.366 . S
C2162 C2161 1.366 . S
C2162 C2163 1.414 . S
C2162 C2165 1.499 . S
C2163 H2137 0.950 . S
C2163 C2162 1.414 . S
C2163 C2164 1.374 . S
C2164 H2138 0.950 . S
C2164 C2160 1.385 . S
C2164 C2163 1.374 . S
C2165 C2162 1.499 . S
C2165 C2166 1.373 1_556 S
C2165 C2167 1.389 1_556 S
C2166 H2139 0.950 . S
C2166 C2152 1.377 . S
C2166 C2165 1.373 1_554 S
C2167 C2151 1.377 . S
C2167 C2165 1.389 1_554 S
C2167 C2168 1.524 1_554 S
C2168 C2167 1.524 1_556 S
C2168 C2169 1.397 . S
C2168 C2173 1.363 1_556 S
C2169 H2140 0.950 . S
C2169 C2168 1.397 . S
C2169 C2170 1.334 . S
C2170 H2141 0.950 . S
C2170 C2169 1.334 . S
C2170 C2171 1.287 . S
C2171 C2170 1.287 . S
C2171 C2172 1.524 . S
C2171 H2174 0.999 . S
C2172 H2142 0.950 . S
C2172 C2171 1.524 . S
C2172 C2173 1.415 1_556 S
C2173 H2143 0.950 . S
C2173 C2168 1.363 1_554 S
C2173 C2172 1.415 1_554 S
H2174 C2171 0.999 . S
H2175 C2156 0.913 . S
C595 C219 1.387 . S
C610 C3 1.386 . S
C645 C255 1.386 . S
C660 C39 1.386 . S
C695 C75 1.386 . S
C710 C147 1.387 . S
C745 C111 1.386 . S
C760 C183 1.386 . S
C795 C291 1.387 . S
C810 C507 1.386 . S
C845 C543 1.386 . S
C860 C327 1.386 . S
C895 C363 1.386 . S
C910 C435 1.386 . S
C945 C399 1.386 . S
C960 C471 1.386 . S
C995 C4 1.353 . S
C1010 C364 1.353 . S
C1045 C40 1.352 . S
C1060 C400 1.352 . S
C1095 C76 1.352 . S
C1110 C292 1.352 . S
C1145 C112 1.352 . S
C1160 C328 1.352 . S
C1195 C148 1.352 . S
C1210 C508 1.352 . S
C1245 C544 1.353 . S
C1260 C184 1.353 . S
C1295 C220 1.352 . S
C1310 C436 1.352 . S
C1345 C472 1.353 . S
C1360 C256 1.353 . S
C1395 C470 0.593 . S
C1410 C2 0.593 . S
C1445 C38 0.591 . S
C1460 C506 0.589 . S
C1495 C542 0.589 . S
C1510 C74 0.590 . S
C1545 C434 0.592 . S
C1560 C110 0.591 . S
C1595 C398 0.593 . S
C1610 C146 0.592 . S
C1645 C182 0.589 . S
C1660 C290 0.589 . S
C1695 C218 0.592 . S
C1710 C326 0.593 . S
C1745 C254 0.593 . S
C1760 C362 0.591 . S
C1795 C482 1.356 . S
C1810 C14 1.355 . S
C1845 C50 1.356 . S
C1860 C518 1.356 . S
C1895 C86 1.356 . S
C1910 C554 1.355 . S
C1945 C446 1.356 . S
C1960 C122 1.356 . S
C1995 C410 1.356 . S
C2010 C158 1.356 . S
C2045 C302 1.355 . S
C2060 C194 1.355 . S
C2095 C230 1.355 . S
C2110 C338 1.356 . S
C2145 C374 1.356 . S
C2160 C266 1.355 . S
