# Generated by pormake.
# Topology wkf, (6)-cn, num edge types: 1
# Building blocks:
#     Node 0, Type 0, BuildingBlock: MAKGUD_clean_sbu_1, # of connection points: 6
#     Node 1, Type 0, BuildingBlock: MAKGUD_clean_sbu_1, # of connection points: 6
#     Node 2, Type 0, BuildingBlock: MAKGUD_clean_sbu_1, # of connection points: 6
#     Node 3, Type 0, BuildingBlock: MAKGUD_clean_sbu_1, # of connection points: 6
#     Node 4, Type 0, BuildingBlock: MAKGUD_clean_sbu_1, # of connection points: 6
#     Node 5, Type 0, BuildingBlock: MAKGUD_clean_sbu_1, # of connection points: 6
#     Node 6, Type 0, BuildingBlock: MAKGUD_clean_sbu_1, # of connection points: 6
#     Node 7, Type 0, BuildingBlock: MAKGUD_clean_sbu_1, # of connection points: 6
#     Node 8, Type 0, BuildingBlock: MAKGUD_clean_sbu_1, # of connection points: 6
#     Node 9, Type 0, BuildingBlock: MAKGUD_clean_sbu_1, # of connection points: 6
#     Node 10, Type 0, BuildingBlock: MAKGUD_clean_sbu_1, # of connection points: 6
#     Node 11, Type 0, BuildingBlock: MAKGUD_clean_sbu_1, # of connection points: 6
#     Edge 12, Type (0, 0), BuildingBlock: EZIPEK_clean_linker_0, # of connection points: 2
#     Edge 13, Type (0, 0), BuildingBlock: EZIPEK_clean_linker_0, # of connection points: 2
#     Edge 14, Type (0, 0), BuildingBlock: EZIPEK_clean_linker_0, # of connection points: 2
#     Edge 15, Type (0, 0), BuildingBlock: EZIPEK_clean_linker_0, # of connection points: 2
#     Edge 16, Type (0, 0), BuildingBlock: EZIPEK_clean_linker_0, # of connection points: 2
#     Edge 17, Type (0, 0), BuildingBlock: EZIPEK_clean_linker_0, # of connection points: 2
#     Edge 18, Type (0, 0), BuildingBlock: EZIPEK_clean_linker_0, # of connection points: 2
#     Edge 19, Type (0, 0), BuildingBlock: EZIPEK_clean_linker_0, # of connection points: 2
#     Edge 20, Type (0, 0), BuildingBlock: EZIPEK_clean_linker_0, # of connection points: 2
#     Edge 21, Type (0, 0), BuildingBlock: EZIPEK_clean_linker_0, # of connection points: 2
#     Edge 22, Type (0, 0), BuildingBlock: EZIPEK_clean_linker_0, # of connection points: 2
#     Edge 23, Type (0, 0), BuildingBlock: EZIPEK_clean_linker_0, # of connection points: 2
#     Edge 24, Type (0, 0), BuildingBlock: EZIPEK_clean_linker_0, # of connection points: 2
#     Edge 25, Type (0, 0), BuildingBlock: EZIPEK_clean_linker_0, # of connection points: 2
#     Edge 26, Type (0, 0), BuildingBlock: EZIPEK_clean_linker_0, # of connection points: 2
#     Edge 27, Type (0, 0), BuildingBlock: EZIPEK_clean_linker_0, # of connection points: 2
#     Edge 28, Type (0, 0), BuildingBlock: EZIPEK_clean_linker_0, # of connection points: 2
#     Edge 29, Type (0, 0), BuildingBlock: EZIPEK_clean_linker_0, # of connection points: 2
#     Edge 30, Type (0, 0), BuildingBlock: EZIPEK_clean_linker_0, # of connection points: 2
#     Edge 31, Type (0, 0), BuildingBlock: EZIPEK_clean_linker_0, # of connection points: 2
#     Edge 32, Type (0, 0), BuildingBlock: EZIPEK_clean_linker_0, # of connection points: 2
#     Edge 33, Type (0, 0), BuildingBlock: EZIPEK_clean_linker_0, # of connection points: 2
#     Edge 34, Type (0, 0), BuildingBlock: EZIPEK_clean_linker_0, # of connection points: 2
#     Edge 35, Type (0, 0), BuildingBlock: EZIPEK_clean_linker_0, # of connection points: 2
#     Edge 36, Type (0, 0), BuildingBlock: EZIPEK_clean_linker_0, # of connection points: 2
#     Edge 37, Type (0, 0), BuildingBlock: EZIPEK_clean_linker_0, # of connection points: 2
#     Edge 38, Type (0, 0), BuildingBlock: EZIPEK_clean_linker_0, # of connection points: 2
#     Edge 39, Type (0, 0), BuildingBlock: EZIPEK_clean_linker_0, # of connection points: 2
#     Edge 40, Type (0, 0), BuildingBlock: EZIPEK_clean_linker_0, # of connection points: 2
#     Edge 41, Type (0, 0), BuildingBlock: EZIPEK_clean_linker_0, # of connection points: 2
#     Edge 42, Type (0, 0), BuildingBlock: EZIPEK_clean_linker_0, # of connection points: 2
#     Edge 43, Type (0, 0), BuildingBlock: EZIPEK_clean_linker_0, # of connection points: 2
#     Edge 44, Type (0, 0), BuildingBlock: EZIPEK_clean_linker_0, # of connection points: 2
#     Edge 45, Type (0, 0), BuildingBlock: EZIPEK_clean_linker_0, # of connection points: 2
#     Edge 46, Type (0, 0), BuildingBlock: EZIPEK_clean_linker_0, # of connection points: 2
#     Edge 47, Type (0, 0), BuildingBlock: EZIPEK_clean_linker_0, # of connection points: 2
# Relax obj value: 0.051
# Max RMSD: 0.165
# Mean RMSD: 0.163
data_MOF--net-wkf--node1-MAKGUD_clean_sbu_1--edge1-EZIPEK_clean_linker_0
_symmetry_space_group_name_H-M    P1
_symmetry_Int_Tables_number       1
_symmetry_cell_setting            triclinic
loop_
_symmetry_equiv_pos_as_xyz
'x, y, z'
_cell_length_a     21.670396
_cell_length_b     21.437816
_cell_length_c     65.152194
_cell_angle_alpha  90.514738
_cell_angle_beta   90.31364
_cell_angle_gamma 120.93196
loop_
_atom_site_label
_atom_site_type_symbol
_atom_site_fract_x
_atom_site_fract_y
_atom_site_fract_z
_atom_type_partial_charge
O0 O 0.44919 0.13621 0.44666 0.0
Tb1 Tb 0.51536 0.13622 0.42142 0.0
C2 C 0.56059 0.1783 0.3758 0.0
O3 O 0.48959 0.97036 0.41389 0.0
Tb4 Tb 0.51579 1.01483 0.38297 0.0
C5 C 0.39881 0.94692 0.35911 0.0
O6 O 0.42632 1.02425 0.42214 0.0
O7 O 0.57905 0.96749 0.37284 0.0
C8 C 0.57179 0.90854 0.38134 0.0
O9 O 0.53562 0.88454 0.39841 0.0
O10 O 0.51726 0.17467 0.39047 0.0
O11 O 0.5795 0.12894 0.3737 0.0
O12 O 0.6175 0.15922 0.4353 0.0
C13 C 0.43575 0.96875 0.42352 0.0
C14 C 0.47937 0.20611 0.4485 0.0
O15 O 0.40654 0.98954 0.37455 0.0
O16 O 0.45663 0.94388 0.35708 0.0
C17 C 0.67826 0.1899 0.42515 0.0
O18 O 0.67601 0.17749 0.40539 0.0
O19 O 0.52758 0.23677 0.43439 0.0
O20 O 0.58186 0.4507 0.51514 0.0
Tb21 Tb 0.58274 0.49672 0.54502 0.0
C22 C 0.55112 0.41099 0.5859 0.0
O23 O 0.43486 0.50718 0.55556 0.0
Tb24 Tb 0.46757 0.49558 0.58627 0.0
C25 C 0.35423 0.45546 0.61046 0.0
O26 O 0.54351 0.57044 0.53909 0.0
O27 O 0.53535 0.60577 0.59911 0.0
C28 C 0.5785 0.66554 0.58912 0.0
O29 O 0.60055 0.66144 0.57079 0.0
O30 O 0.60185 0.46171 0.57457 0.0
O31 O 0.48926 0.40728 0.58863 0.0
O32 O 0.6964 0.55025 0.53734 0.0
C33 C 0.47587 0.55237 0.5413 0.0
C34 C 0.5211 0.39042 0.51724 0.0
O35 O 0.35237 0.45409 0.59051 0.0
O36 O 0.41959 0.47881 0.6166 0.0
C37 C 0.73005 0.51416 0.54002 0.0
O38 O 0.69566 0.45028 0.54878 0.0
O39 O 0.4941 0.38905 0.53521 0.0
O40 O 0.98865 0.42893 0.78653 0.0
Tb41 Tb 1.04706 0.46009 0.7577 0.0
C42 C 0.98292 0.39703 0.71429 0.0
O43 O 0.19978 0.50382 0.73173 0.0
Tb44 Tb 0.14122 0.52072 0.7069 0.0
C45 C 0.18223 0.4831 0.6727 0.0
O46 O 0.1618 0.5376 0.7604 0.0
O47 O 0.20297 0.63962 0.70405 0.0
C48 C 0.27259 0.67732 0.70852 0.0
O49 O 0.30029 0.64565 0.71913 0.0
O50 O 1.00323 0.38285 0.73177 0.0
O51 O 1.02265 0.46206 0.70624 0.0
O52 O 0.99233 0.52199 0.76125 0.0
C53 C 0.20941 0.52752 0.75091 0.0
C54 C 1.00425 0.38068 0.79189 0.0
O55 O 0.17954 0.45696 0.69081 0.0
O56 O 0.15864 0.52772 0.67377 0.0
C57 C 0.9292 0.50101 0.75273 0.0
O58 O 0.90767 0.45585 0.73701 0.0
O59 O 1.04386 0.37596 0.77775 0.0
O60 O 0.7525 0.14032 0.8517 0.0
Tb61 Tb 0.68742 0.14505 0.87626 0.0
C62 C 0.69468 0.13012 0.92691 0.0
O63 O 0.57035 0.99907 0.8977 0.0
Tb64 Tb 0.57488 0.96874 0.92955 0.0
C65 C 0.62376 0.88354 0.9416 0.0
O66 O 0.62268 1.03005 0.86662 0.0
O67 O 0.4659 0.91953 0.94169 0.0
C68 C 0.42086 0.84993 0.93758 0.0
O69 O 0.44176 0.81551 0.92537 0.0
O70 O 0.67532 0.10947 0.90786 0.0
O71 O 0.65694 0.07951 0.94054 0.0
O72 O 0.63037 0.20057 0.86813 0.0
C73 C 0.58629 0.97892 0.88029 0.0
C74 C 0.80838 0.2049 0.8547 0.0
O75 O 0.59574 0.88008 0.9235 0.0
O76 O 0.62551 0.93576 0.9523 0.0
C77 C 0.65264 0.26539 0.87621 0.0
O78 O 0.70311 0.29078 0.8905 0.0
O79 O 0.79818 0.23427 0.87102 0.0
O80 O 0.71839 0.62532 0.12541 0.0
Tb81 Tb 0.68567 0.62394 0.09346 0.0
C82 C 0.72718 0.60652 0.04911 0.0
O83 O 0.64255 0.73215 0.06573 0.0
Tb84 Tb 0.60893 0.64623 0.04241 0.0
C85 C 0.62678 0.70965 1.00575 0.0
O86 O 0.6136 0.66668 0.09558 0.0
O87 O 0.49238 0.58311 0.0464 0.0
C88 C 0.45516 0.61484 0.04254 0.0
O89 O 0.49025 0.68549 0.0399 0.0
O90 O 0.74974 0.64714 0.0658 0.0
O91 O 0.66266 0.58342 0.04137 0.0
O92 O 0.64229 0.50735 0.09745 0.0
C93 C 0.62403 0.72367 0.08519 0.0
C94 C 0.78449 0.67844 0.12379 0.0
O95 O 0.66073 0.74221 1.02264 0.0
O96 O 0.58427 0.64113 1.00949 0.0
C97 C 0.59725 0.45319 0.08539 0.0
O98 O 0.56658 0.46496 0.06967 0.0
O99 O 0.79392 0.70223 0.10513 0.0
O100 O 1.0473 0.67087 0.17761 0.0
Tb101 Tb 1.05007 0.63787 0.20928 0.0
C102 C 0.99848 0.63269 0.25363 0.0
O103 O 0.19026 0.76502 0.23651 0.0
Tb104 Tb 0.15743 0.68648 0.26155 0.0
C105 C 0.2106 0.76768 0.29575 0.0
O106 O 0.16831 0.69718 0.20726 0.0
O107 O 0.19761 0.61095 0.26277 0.0
C108 C 0.25819 0.62685 0.25369 0.0
O109 O 0.28275 0.676 0.23931 0.0
O110 O 1.02318 0.67397 0.23739 0.0
O111 O 1.04097 0.61682 0.26388 0.0
O112 O 0.99299 0.51911 0.20575 0.0
C113 C 0.21172 0.75528 0.21855 0.0
C114 C 0.99157 0.67794 0.17964 0.0
O115 O 0.24572 0.75021 0.28328 0.0
O116 O 0.14494 0.73973 0.28903 0.0
C117 C 0.92188 0.48275 0.20617 0.0
O118 O 0.88933 0.51754 0.21176 0.0
O119 O 0.97073 0.66472 0.19851 0.0
O120 O 1.03737 0.66267 0.43086 0.0
Tb121 Tb 1.03578 0.61739 0.46094 0.0
C122 C 1.01363 0.61188 0.50729 0.0
O123 O 0.18191 0.73901 0.48514 0.0
Tb124 Tb 0.17752 0.67871 0.51234 0.0
C125 C 0.23582 0.77261 0.5438 0.0
O126 O 0.15139 0.67229 0.4555 0.0
O127 O 0.23427 0.61937 0.51162 0.0
C128 C 0.29995 0.65129 0.50427 0.0
O129 O 0.32413 0.71165 0.49391 0.0
O130 O 1.03237 0.6559 0.49165 0.0
O131 O 1.06297 0.60638 0.51758 0.0
O132 O 0.97505 0.49897 0.45658 0.0
C133 C 0.19966 0.72748 0.46683 0.0
C134 C 0.97809 0.66317 0.43291 0.0
O135 O 0.26479 0.77972 0.52593 0.0
O136 O 0.17313 0.71329 0.54383 0.0
C137 C 0.90491 0.46471 0.45956 0.0
O138 O 0.87753 0.50161 0.46751 0.0
O139 O 0.95326 0.64134 0.4512 0.0
O140 O 0.53073 0.17241 0.70779 0.0
Tb141 Tb 0.53752 0.13731 0.67671 0.0
C142 C 0.56675 0.18814 0.63126 0.0
O143 O 0.51593 0.97495 0.66116 0.0
Tb144 Tb 0.53587 1.0295 0.63164 0.0
C145 C 0.4218 0.96718 0.60671 0.0
O146 O 0.46142 1.0218 0.68088 0.0
O147 O 0.58919 0.97163 0.62136 0.0
C148 C 0.55015 0.89988 0.62218 0.0
O149 O 0.48565 0.86993 0.63014 0.0
O150 O 0.52495 0.17461 0.64709 0.0
O151 O 0.59492 0.14768 0.62693 0.0
O152 O 0.65349 0.19437 0.68384 0.0
C153 C 0.46653 0.96637 0.67442 0.0
C154 C 0.49464 0.2033 0.70298 0.0
O155 O 0.41995 0.98215 0.6261 0.0
O156 O 0.48758 0.98971 0.60152 0.0
C157 C 0.70664 0.194 0.67415 0.0
O158 O 0.69323 0.15128 0.65809 0.0
O159 O 0.48302 0.19738 0.68332 0.0
O160 O 0.53856 0.47817 0.76186 0.0
Tb161 Tb 0.55214 0.49721 0.79502 0.0
C162 C 0.56357 0.45371 0.83982 0.0
O163 O 0.42101 0.52181 0.81938 0.0
Tb164 Tb 0.48854 0.54043 0.84628 0.0
C165 C 0.39424 0.47342 0.87608 0.0
O166 O 0.5078 0.56858 0.79466 0.0
O167 O 0.53922 0.65689 0.85256 0.0
C168 C 0.50156 0.68907 0.85061 0.0
O169 O 0.43722 0.65251 0.84209 0.0
O170 O 0.52843 0.42987 0.82226 0.0
O171 O 0.57124 0.51232 0.84882 0.0
O172 O 0.66752 0.54428 0.79041 0.0
C173 C 0.4422 0.54689 0.80085 0.0
C174 C 0.50383 0.40773 0.76247 0.0
O175 O 0.39789 0.44221 0.85934 0.0
O176 O 0.44362 0.54182 0.87593 0.0
C177 C 0.69583 0.50486 0.79547 0.0
O178 O 0.65887 0.44927 0.80751 0.0
O179 O 0.49207 0.38774 0.78149 0.0
O180 O 0.96971 0.41681 0.03286 0.0
Tb181 Tb 1.01362 0.46468 1.00332 0.0
C182 C 0.94715 0.37431 0.96362 0.0
O183 O 0.14721 0.43621 0.99513 0.0
Tb184 Tb 0.11189 0.44224 0.9645 0.0
C185 C 0.17504 0.40731 0.93538 0.0
O186 O 0.13048 0.5242 1.00885 0.0
O187 O 0.16516 0.55847 0.95756 0.0
C188 C 0.16076 0.61165 0.96624 0.0
O189 O 0.11053 0.59855 0.97959 0.0
O190 O 0.95684 0.43234 0.9736 0.0
O191 O 0.99869 0.35948 0.96319 0.0
O192 O 0.96842 0.53028 1.01388 0.0
C193 C 0.16819 0.49173 1.00772 0.0
C194 C 0.95731 0.3522 0.02858 0.0
O195 O 0.19092 0.41345 0.95485 0.0
O196 O 0.12044 0.4158 0.9327 0.0
C197 C 0.90904 0.52366 1.00591 0.0
O198 O 0.88019 0.48415 0.98925 0.0
O199 O 0.97789 0.35048 1.00995 0.0
O200 O 0.72165 0.16671 0.09204 0.0
Tb201 Tb 0.69318 0.13238 0.12377 0.0
C202 C 0.7399 0.19544 0.16894 0.0
O203 O 0.6711 0.98259 0.14669 0.0
Tb204 Tb 0.64592 1.02669 0.17339 0.0
C205 C 0.69319 0.97947 0.20388 0.0
O206 O 0.62076 1.01434 0.121 0.0
O207 O 0.52857 0.956 0.17412 0.0
C208 C 0.4881 0.97596 0.18382 0.0
O209 O 0.51676 1.04412 0.18978 0.0
O210 O 0.76124 0.18761 0.15071 0.0
O211 O 0.68315 0.14203 0.17792 0.0
O212 O 0.64667 0.20165 0.12116 0.0
C213 C 0.63792 0.96883 0.1289 0.0
C214 C 0.78509 0.1745 0.09271 0.0
O215 O 0.73005 1.01325 0.1878 0.0
O216 O 0.63145 0.97558 0.20323 0.0
C217 C 0.59862 0.19117 0.10693 0.0
O218 O 0.56573 0.12922 0.09665 0.0
O219 O 0.79602 0.15635 0.11074 0.0
O220 O 0.72729 0.59145 0.36878 0.0
Tb221 Tb 0.69494 0.61192 0.33901 0.0
C222 C 0.75338 0.61818 0.29415 0.0
O223 O 0.67919 0.74439 0.31944 0.0
Tb224 Tb 0.65359 0.68275 0.29073 0.0
C225 C 0.69949 0.78415 0.26195 0.0
O226 O 0.62231 0.65309 0.34255 0.0
O227 O 0.53708 0.63757 0.29048 0.0
C228 C 0.49383 0.58763 0.27698 0.0
O229 O 0.51697 0.55043 0.26688 0.0
O230 O 0.76854 0.63743 0.31356 0.0
O231 O 0.69531 0.61038 0.28502 0.0
O232 O 0.63559 0.49313 0.34014 0.0
C233 C 0.64055 0.71809 0.336 0.0
C234 C 0.78298 0.65594 0.37166 0.0
O235 O 0.73044 0.79195 0.2797 0.0
O236 O 0.64441 0.71858 0.26014 0.0
C237 C 0.66972 0.45779 0.3369 0.0
O238 O 0.73474 0.49338 0.32923 0.0
O239 O 0.78921 0.69609 0.35609 0.0
C240 C 0.2992 0.89266 0.30832 0.0
C241 C 0.24483 0.82054 0.31294 0.0
C242 C 0.27543 0.84508 0.3496 0.0
C243 C 0.33763 0.91175 0.34441 0.0
N244 N 0.40732 1.00347 0.31964 0.0
N245 N 0.17695 0.72762 0.33764 0.0
C246 C 0.34842 0.93735 0.32401 0.0
C247 C 0.23058 0.79704 0.33358 0.0
N248 N 0.30295 0.91817 0.28892 0.0
N249 N 0.26034 0.8277 0.36981 0.0
H250 H 0.14225 0.69219 0.32627 0.0
H251 H 0.16835 0.70392 0.35201 0.0
H252 H 0.2925 0.86256 0.38165 0.0
H253 H 0.21351 0.78229 0.37492 0.0
H254 H 0.33754 0.97187 0.28474 0.0
H255 H 0.26673 0.88665 0.27725 0.0
H256 H 0.42383 1.02215 0.30483 0.0
H257 H 0.44141 1.03932 0.33106 0.0
C258 C 0.47118 0.34737 0.48191 0.0
C259 C 0.4907 0.33259 0.5013 0.0
C260 C 0.49536 0.22994 0.48654 0.0
C261 C 0.47575 0.24448 0.46704 0.0
N262 N 0.4303 0.30607 0.4469 0.0
N263 N 0.50397 0.25064 0.52335 0.0
C264 C 0.45889 0.29982 0.46497 0.0
C265 C 0.49599 0.27016 0.50405 0.0
N266 N 0.46641 0.40811 0.47965 0.0
N267 N 0.51968 0.18253 0.48812 0.0
H268 H 0.50803 0.28091 0.53642 0.0
H269 H 0.5001 0.20126 0.52659 0.0
H270 H 0.52383 0.15408 0.4757 0.0
H271 H 0.54255 0.17635 0.50147 0.0
H272 H 0.46113 0.42725 0.46552 0.0
H273 H 0.47061 0.44134 0.49204 0.0
H274 H 0.4107 0.34091 0.44488 0.0
H275 H 0.42064 0.27175 0.43428 0.0
C276 C 0.27228 0.53632 0.64421 0.0
C277 C 0.2191 0.47404 0.65478 0.0
C278 C 0.25008 0.39663 0.63466 0.0
C279 C 0.3005 0.45843 0.62363 0.0
N280 N 0.34661 0.58305 0.61412 0.0
N281 N 0.14623 0.34337 0.65689 0.0
C282 C 0.30681 0.52678 0.62709 0.0
C283 C 0.20462 0.40358 0.64905 0.0
N284 N 0.29455 0.60498 0.65139 0.0
N285 N 0.2469 0.33185 0.63173 0.0
H286 H 0.11077 0.3465 0.66702 0.0
H287 H 0.12902 0.29057 0.65191 0.0
H288 H 0.27739 0.32455 0.62067 0.0
H289 H 0.21731 0.28682 0.64097 0.0
H290 H 0.33877 0.65153 0.64558 0.0
H291 H 0.27476 0.616 0.66456 0.0
H292 H 0.3468 0.63176 0.61456 0.0
H293 H 0.37389 0.57849 0.60162 0.0
C294 C 0.8926 0.26981 0.80225 0.0
C295 C 0.9629 0.32566 0.80761 0.0
C296 C 0.93695 0.29203 0.84379 0.0
C297 C 0.86298 0.24543 0.83862 0.0
N298 N 0.76906 0.20731 0.81262 0.0
N299 N 1.05285 0.39368 0.83355 0.0
C300 C 0.84027 0.23823 0.81773 0.0
C301 C 0.98558 0.33778 0.82844 0.0
N302 N 0.87543 0.24769 0.78225 0.0
N303 N 0.96099 0.29102 0.8631 0.0
H304 H 0.09036 0.42547 0.82249 0.0
H305 H 1.06994 0.4105 0.84864 0.0
H306 H 0.92698 0.25602 0.87427 0.0
H307 H 1.01517 0.31931 0.86736 0.0
H308 H 0.82602 0.20307 0.77772 0.0
H309 H 0.91369 0.26862 0.77068 0.0
H310 H 0.7513 0.20705 0.7977 0.0
H311 H 0.72849 0.19119 0.8234 0.0
C312 C 0.57155 0.75931 0.95542 0.0
C313 C 0.63364 0.82716 0.95148 0.0
C314 C 0.69718 0.80445 0.97902 0.0
C315 C 0.63026 0.74635 0.98603 0.0
N316 N 0.50023 0.67927 0.98237 0.0
N317 N 0.75778 0.91452 0.95888 0.0
C318 C 0.56643 0.72548 0.97444 0.0
C319 C 0.69749 0.84935 0.96297 0.0
N320 N 0.51643 0.72853 0.94142 0.0
N321 N 0.76022 0.81596 0.98735 0.0
H322 H 0.76037 0.9459 0.94638 0.0
H323 H 0.80353 0.93838 0.96827 0.0
H324 H 0.76209 0.78279 0.99862 0.0
H325 H 0.81057 0.85361 0.98164 0.0
H326 H 0.4715 0.67666 0.94314 0.0
H327 H 0.52037 0.75076 0.92699 0.0
H328 H 0.45245 0.66811 0.97518 0.0
H329 H 0.49298 0.66042 0.99731 0.0
C330 C 0.92525 0.641 0.14566 0.0
C331 C 0.95038 0.6886 0.16305 0.0
C332 C 0.87587 0.73944 0.15233 0.0
C333 C 0.84375 0.68486 0.13687 0.0
N334 N 0.83151 0.57824 0.12002 0.0
N335 N 0.95228 0.78532 0.1828 0.0
C336 C 0.86716 0.63462 0.13376 0.0
C337 C 0.92658 0.73873 0.16628 0.0
N338 N 0.95615 0.60137 0.14038 0.0
N339 N 0.85824 0.79212 0.1535 0.0
H340 H 0.99452 0.7915 0.19208 0.0
H341 H 0.93085 0.81654 0.1877 0.0
H342 H 0.82034 0.79286 0.14371 0.0
H343 H 0.88407 0.83756 0.16316 0.0
H344 H 0.94601 0.57339 0.12645 0.0
H345 H 0.99649 0.60063 0.14883 0.0
H346 H 0.83892 0.53399 0.11914 0.0
H347 H 0.78995 0.5722 0.11054 0.0
C348 C 0.35603 0.94746 0.57334 0.0
C349 C 0.35979 0.92087 0.59291 0.0
C350 C 0.27708 0.79598 0.58089 0.0
C351 C 0.27153 0.82288 0.56153 0.0
N352 N 0.28936 0.92462 0.54143 0.0
N353 N 0.30979 0.82174 0.6169 0.0
C354 C 0.30583 0.89886 0.55844 0.0
C355 C 0.31484 0.8459 0.59729 0.0
N356 N 0.40215 1.01876 0.56871 0.0
N357 N 0.25193 0.72348 0.58327 0.0
H358 H 0.33758 0.85586 0.62931 0.0
H359 H 0.27248 0.76879 0.6212 0.0
H360 H 0.22643 0.68485 0.57159 0.0
H361 H 0.26265 0.70238 0.59623 0.0
H362 H 0.40799 1.03921 0.55395 0.0
H363 H 0.43807 1.05667 0.5794 0.0
H364 H 0.30768 0.97951 0.53928 0.0
H365 H 0.25123 0.89051 0.53049 0.0
C366 C 0.43164 0.23844 0.72873 0.0
C367 C 0.49181 0.25798 0.71615 0.0
C368 C 0.55917 0.37684 0.73317 0.0
C369 C 0.49774 0.35917 0.74524 0.0
N370 N 0.3713 0.27954 0.75163 0.0
N371 N 0.60537 0.35093 0.70261 0.0
C372 C 0.43257 0.29174 0.74215 0.0
C373 C 0.55287 0.32905 0.71707 0.0
N374 N 0.37452 0.16863 0.72818 0.0
N375 N 0.62523 0.43577 0.73801 0.0
H376 H 0.60396 0.31692 0.69084 0.0
H377 H 0.64686 0.40477 0.70115 0.0
H378 H 0.63514 0.47077 0.75037 0.0
H379 H 0.67268 0.44542 0.73119 0.0
H380 H 0.33249 0.14863 0.73859 0.0
H381 H 0.37137 0.12927 0.71796 0.0
H382 H 0.32066 0.23433 0.74858 0.0
H383 H 0.37001 0.31808 0.76121 0.0
C384 C 0.24612 0.47393 0.90459 0.0
C385 C 0.22607 0.41721 0.91895 0.0
C386 C 0.31458 0.3914 0.90401 0.0
C387 C 0.33016 0.44493 0.88906 0.0
N388 N 0.2929 0.51769 0.8709 0.0
N389 N 0.23213 0.31359 0.93022 0.0
C390 C 0.28972 0.47947 0.88794 0.0
C391 C 0.25753 0.37317 0.91803 0.0
N392 N 0.22949 0.5268 0.90767 0.0
N393 N 0.35554 0.35992 0.90519 0.0
H394 H 0.19013 0.29872 0.94048 0.0
H395 H 0.24848 0.27577 0.92899 0.0
H396 H 0.3959 0.37073 0.89466 0.0
H397 H 0.35214 0.32634 0.91712 0.0
H398 H 0.24933 0.57258 0.89847 0.0
H399 H 0.20458 0.53091 0.92078 0.0
H400 H 0.25928 0.53857 0.86865 0.0
H401 H 0.32331 0.52145 0.85809 0.0
C402 C 0.90779 0.26953 0.08019 0.0
C403 C 0.83854 0.20774 0.07611 0.0
C404 C 0.85675 0.22853 0.03908 0.0
C405 C 0.92428 0.29187 0.04335 0.0
N406 N 1.02469 0.35623 0.06651 0.0
N407 N 0.75725 0.11579 0.052 0.0
C408 C 0.95333 0.30644 0.06348 0.0
C409 C 0.81641 0.18304 0.0556 0.0
N410 N 0.92821 0.29702 0.09969 0.0
N411 N 0.82937 0.21398 1.01954 0.0
H412 H 0.72786 0.0808 0.06386 0.0
H413 H 0.7417 0.09193 0.03746 0.0
H414 H 0.85897 0.24356 1.00695 0.0
H415 H 0.77643 0.17439 1.01592 0.0
H416 H 0.97444 0.34693 0.10295 0.0
H417 H 0.89672 0.27377 0.11255 0.0
H418 H 1.05089 0.36503 0.08063 0.0
H419 H 1.0591 0.38254 0.05429 0.0
C420 C 0.70142 0.89993 0.25448 0.0
C421 C 0.71362 0.84381 0.24789 0.0
C422 C 0.72289 0.8831 0.21227 0.0
C423 C 0.71161 0.93989 0.21891 0.0
N424 N 0.70937 1.01413 0.24646 0.0
N425 N 0.75395 0.79326 0.2218 0.0
C426 C 0.70728 0.95212 0.2401 0.0
C427 C 0.73042 0.83928 0.22717 0.0
N428 N 0.67953 0.90078 0.27408 0.0
N429 N 0.72128 0.86738 0.19182 0.0
H430 H 0.75996 0.7606 0.23245 0.0
H431 H 0.77407 0.79267 0.20737 0.0
H432 H 0.71514 0.89701 0.18026 0.0
H433 H 0.72048 0.82126 0.18627 0.0
H434 H 0.66135 0.93492 0.27893 0.0
H435 H 0.67398 0.86365 0.28518 0.0
H436 H 0.71348 1.02979 0.26183 0.0
H437 H 0.71437 1.05368 0.23625 0.0
C438 C 0.90173 0.71128 0.41958 0.0
C439 C 0.93681 0.67155 0.41599 0.0
C440 C 0.88632 0.64232 0.38108 0.0
C441 C 0.84207 0.67085 0.38599 0.0
N442 N 0.80472 0.73106 0.4098 0.0
N443 N 0.95129 0.58754 0.39411 0.0
C444 C 0.84924 0.70548 0.40518 0.0
C445 C 0.92717 0.63477 0.39685 0.0
N446 N 0.92002 0.75597 0.43644 0.0
N447 N 0.88907 0.62199 0.36131 0.0
H448 H 0.97753 0.57548 0.40539 0.0
H449 H 0.93777 0.55335 0.3813 0.0
H450 H 0.85921 0.62606 0.34934 0.0
H451 H 0.92616 0.60797 0.35645 0.0
H452 H 0.90105 0.79119 0.43898 0.0
H453 H 0.95972 0.76307 0.44694 0.0
H454 H 0.80143 0.74935 0.42438 0.0
H455 H 0.76799 0.73021 0.39919 0.0
C456 C 0.67904 0.8308 0.35741 0.0
C457 C 0.62278 0.76542 0.34833 0.0
C458 C 0.53332 0.79326 0.36141 0.0
C459 C 0.58994 0.86059 0.36952 0.0
N460 N 0.71645 0.94844 0.37313 0.0
N461 N 0.49756 0.68808 0.33931 0.0
C462 C 0.6628 0.88093 0.36683 0.0
C463 C 0.55014 0.74733 0.34984 0.0
N464 N 0.74763 0.84336 0.35782 0.0
N465 N 0.46322 0.77332 0.36466 0.0
H466 H 0.50753 0.65239 0.33105 0.0
H467 H 0.44498 0.67662 0.33752 0.0
H468 H 0.44806 0.80808 0.37109 0.0
H469 H 0.41972 0.72121 0.3618 0.0
H470 H 0.78986 0.88582 0.36604 0.0
H471 H 0.76138 0.80761 0.35129 0.0
H472 H 0.7704 0.97009 0.36956 0.0
H473 H 0.70655 0.98526 0.38082 0.0
C474 C 0.86072 0.61276 0.53605 0.0
C475 C 0.80331 0.5409 0.53169 0.0
C476 C 0.88832 0.51294 0.51537 0.0
C477 C 0.94307 0.58695 0.51704 0.0
N478 N 0.98151 0.70966 0.52794 0.0
N479 N 0.76045 0.42842 0.51256 0.0
C480 C 0.92917 0.63772 0.52698 0.0
C481 C 0.81655 0.49235 0.52016 0.0
N482 N 0.85124 0.65581 0.54971 0.0
N483 N 0.90466 0.46206 0.50926 0.0
H484 H 0.70674 0.41332 0.5143 0.0
H485 H 0.76737 0.39463 0.50243 0.0
H486 H 0.95664 0.47537 0.50536 0.0
H487 H 0.86782 0.40632 0.50975 0.0
H488 H 0.89306 0.70577 0.55511 0.0
H489 H 0.80292 0.63876 0.55724 0.0
H490 H 0.97188 0.75042 0.53266 0.0
H491 H 1.03396 0.72923 0.523 0.0
C492 C 0.44221 0.84508 0.68821 0.0
C493 C 0.41691 0.89255 0.6833 0.0
C494 C 0.2993 0.80303 0.69768 0.0
C495 C 0.32159 0.75151 0.69969 0.0
N496 N 0.41005 0.71972 0.68975 0.0
N497 N 0.31255 0.90437 0.67812 0.0
C498 C 0.39185 0.77131 0.69292 0.0
C499 C 0.34287 0.8681 0.68654 0.0
N500 N 0.51426 0.8703 0.68923 0.0
N501 N 0.23821 0.79191 0.70698 0.0
H502 H 0.34029 0.94861 0.66846 0.0
H503 H 0.25748 0.88473 0.67866 0.0
H504 H 0.2071 0.74766 0.71637 0.0
H505 H 0.22347 0.83118 0.70732 0.0
H506 H 0.53465 0.83841 0.69437 0.0
H507 H 0.55342 0.92495 0.68755 0.0
H508 H 0.45868 0.73175 0.68319 0.0
H509 H 0.37365 0.66413 0.6909 0.0
C510 C 0.65981 0.43266 0.8537 0.0
C511 C 0.58564 0.40766 0.85094 0.0
C512 C 0.55487 0.29184 0.86712 0.0
C513 C 0.62881 0.31371 0.86747 0.0
N514 N 0.75028 0.39916 0.85697 0.0
N515 N 0.46146 0.3123 0.85425 0.0
C516 C 0.68104 0.38282 0.8598 0.0
C517 C 0.53281 0.33672 0.85737 0.0
N518 N 0.71032 0.50383 0.85023 0.0
N519 N 0.50615 0.22979 0.87692 0.0
H520 H 0.44285 0.34537 0.84883 0.0
H521 H 0.4208 0.25839 0.85612 0.0
H522 H 0.52047 0.19614 0.88437 0.0
H523 H 0.45274 0.21467 0.87918 0.0
H524 H 0.76443 0.52681 0.85421 0.0
H525 H 0.69756 0.54147 0.8448 0.0
H526 H 0.78864 0.44528 0.84933 0.0
H527 H 0.76766 0.36305 0.8602 0.0
C528 C 0.25326 0.54513 0.03868 0.0
C529 C 0.24105 0.5241 1.0176 0.0
C530 C 0.36147 0.54057 1.01594 0.0
C531 C 0.37811 0.57207 0.03589 0.0
N532 N 0.34134 0.61131 0.06574 0.0
N533 N 0.29529 0.52868 0.98495 0.0
C534 C 0.32437 0.57658 0.04711 0.0
C535 C 0.29834 0.52898 1.00588 0.0
N536 N 0.19712 0.53301 0.05084 0.0
N537 N 0.40594 0.52241 1.0063 0.0
H538 H 0.25413 0.52999 0.97703 0.0
H539 H 0.33823 0.53768 0.97574 0.0
H540 H 0.45233 0.5287 1.01314 0.0
H541 H 0.39241 0.49414 0.99232 0.0
H542 H 0.20171 0.54037 0.06672 0.0
H543 H 0.14452 0.50981 0.04533 0.0
H544 H 0.30731 0.6239 0.0736 0.0
H545 H 0.39138 0.63085 0.07275 0.0
C546 C 0.87829 0.34756 0.20473 0.0
C547 C 0.87782 0.40859 0.19658 0.0
C548 C 0.77852 0.32709 0.17317 0.0
C549 C 0.7837 0.26717 0.17977 0.0
N550 N 0.84357 0.2207 0.20033 0.0
N551 N 0.83792 0.45766 0.16984 0.0
C552 C 0.83503 0.27747 0.19518 0.0
C553 C 0.83075 0.39861 0.17991 0.0
N554 N 0.91794 0.35602 0.22203 0.0
N555 N 0.72201 0.3154 0.16095 0.0
H556 H 0.87707 0.51096 0.17375 0.0
H557 H 0.81029 0.45366 0.15629 0.0
H558 H 0.68127 0.26338 0.1565 0.0
H559 H 0.71127 0.35604 0.15717 0.0
H560 H 0.91475 0.3127 0.23005 0.0
H561 H 0.95032 0.40636 0.22927 0.0
H562 H 0.88516 0.22623 0.20972 0.0
H563 H 0.81151 0.16851 0.19411 0.0
C564 C 0.33303 0.55469 0.5074 0.0
C565 C 0.35045 0.62739 0.51095 0.0
C566 C 0.46517 0.65527 0.52684 0.0
C567 C 0.44137 0.58012 0.52703 0.0
N568 N 0.35459 0.45755 0.51622 0.0
N569 N 0.42853 0.74424 0.52743 0.0
C570 C 0.3759 0.52964 0.5168 0.0
C571 C 0.41574 0.67735 0.52134 0.0
N572 N 0.27677 0.51033 0.4946 0.0
N573 N 0.53456 0.7058 0.53204 0.0
H574 H 0.39204 0.76151 0.52516 0.0
H575 H 0.47191 0.77969 0.5368 0.0
H576 H 0.57303 0.6922 0.53548 0.0
H577 H 0.55608 0.76155 0.53048 0.0
H578 H 0.26515 0.45894 0.48979 0.0
H579 H 0.24514 0.52747 0.48731 0.0
H580 H 0.30359 0.41654 0.51145 0.0
H581 H 0.38774 0.43848 0.52118 0.0
C582 C 0.84112 0.28928 0.67179 0.0
C583 C 0.78111 0.23785 0.68332 0.0
C584 C 0.85244 0.28812 0.71506 0.0
C585 C 0.91413 0.33893 0.70365 0.0
N586 N 0.97085 0.36632 0.67044 0.0
N587 N 0.74025 0.17231 0.71489 0.0
C588 C 0.90953 0.33335 0.68178 0.0
C589 C 0.79029 0.23235 0.70461 0.0
N590 N 0.83303 0.29783 0.65142 0.0
N591 N 0.85029 0.29428 0.73586 0.0
H592 H 0.69539 0.1291 0.70761 0.0
H593 H 0.74776 0.16142 0.72996 0.0
H594 H 0.8924 0.3335 0.7447 0.0
H595 H 0.80332 0.26441 0.74424 0.0
H596 H 0.87244 0.34066 0.64293 0.0
H597 H 0.78534 0.26502 0.6433 0.0
H598 H 0.97119 0.35878 0.65463 0.0
H599 H 1.0221 0.39322 0.67707 0.0
C600 C 0.49463 0.84439 0.87708 0.0
C601 C 0.56685 0.90259 0.87567 0.0
C602 C 0.59753 0.82144 0.85735 0.0
C603 C 0.52656 0.76197 0.86025 0.0
N604 N 0.41634 0.71429 0.87941 0.0
N605 N 0.6909 0.94063 0.86947 0.0
C606 C 0.47772 0.77261 0.87211 0.0
C607 C 0.61958 0.8892 0.86739 0.0
N608 N 0.44101 0.85739 0.88194 0.0
N609 N 0.64284 0.81497 0.84418 0.0
H610 H 0.70901 0.9896 0.87743 0.0
H611 H 0.73186 0.93124 0.86534 0.0
H612 H 0.62813 0.76753 0.83585 0.0
H613 H 0.69245 0.85898 0.83998 0.0
H614 H 0.38672 0.81731 0.88074 0.0
H615 H 0.45004 0.90905 0.8853 0.0
H616 H 0.38209 0.71964 0.8895 0.0
H617 H 0.40452 0.66092 0.87749 0.0
C618 C 0.79911 0.54413 0.04807 0.0
C619 C 0.77704 0.5887 0.03835 0.0
C620 C 0.85188 0.60029 1.00861 0.0
C621 C 0.86714 0.54942 1.0175 0.0
N622 N 0.84041 0.45963 0.04347 0.0
N623 N 0.77886 0.65634 1.00873 0.0
C624 C 0.83725 0.51814 0.03671 0.0
C625 C 0.80221 0.61573 1.01837 0.0
N626 N 0.78318 0.52574 0.06816 0.0
N627 N 0.88673 0.63554 0.99118 0.0
H628 H 0.74697 0.67328 1.01589 0.0
H629 H 0.7879 0.67019 0.99331 0.0
H630 H 0.92354 0.62569 0.98379 0.0
H631 H 0.8839 0.67856 0.98496 0.0
H632 H 0.80532 0.50093 0.07668 0.0
H633 H 0.7517 0.53965 0.07672 0.0
H634 H 0.81262 0.42942 0.05621 0.0
H635 H 0.86402 0.43595 0.03508 0.0
C636 C 0.41206 0.90741 0.21404 0.0
C637 C 0.41761 0.91948 0.19255 0.0
C638 C 0.2872 0.83409 0.18884 0.0
C639 C 0.28257 0.81468 0.20992 0.0
N640 N 0.34555 0.8311 0.24231 0.0
N641 N 0.36248 0.88672 0.15897 0.0
C642 C 0.34621 0.85144 0.22247 0.0
C643 C 0.35588 0.87998 0.17979 0.0
N644 N 0.4701 0.94947 0.2266 0.0
N645 N 0.22577 0.81392 0.17783 0.0
H646 H 0.41116 0.92185 0.15187 0.0
H647 H 0.32103 0.8533 0.14877 0.0
H648 H 0.17502 0.78781 0.18443 0.0
H649 H 0.22568 0.8316 0.163 0.0
H650 H 0.46662 0.95196 0.2425 0.0
H651 H 0.5215 0.98548 0.22122 0.0
H652 H 0.3918 0.84745 0.25109 0.0
H653 H 0.29961 0.7932 0.24974 0.0
C654 C 0.56948 0.32613 0.34107 0.0
C655 C 0.64136 0.38298 0.34517 0.0
C656 C 0.66438 0.29536 0.36239 0.0
C657 C 0.5899 0.24247 0.36186 0.0
N658 N 0.47022 0.20693 0.35032 0.0
N659 N 0.75139 0.4237 0.36468 0.0
C660 C 0.542 0.25783 0.35108 0.0
C661 C 0.68742 0.36814 0.35709 0.0
N662 N 0.52838 0.33628 0.32706 0.0
N663 N 0.71369 0.27672 0.36773 0.0
H664 H 0.76777 0.47834 0.36304 0.0
H665 H 0.78375 0.41551 0.37485 0.0
H666 H 0.69994 0.22318 0.36993 0.0
H667 H 0.76903 0.31286 0.36698 0.0
H668 H 0.47807 0.29482 0.32195 0.0
H669 H 0.54738 0.38462 0.31908 0.0
H670 H 0.4313 0.21776 0.34501 0.0
H671 H 0.44935 0.15427 0.35578 0.0
C672 C 0.30062 0.77352 0.44075 0.0
C673 C 0.2639 0.7884 0.45635 0.0
C674 C 0.35664 0.91737 0.45414 0.0
C675 C 0.38305 0.90448 0.43574 0.0
N676 N 0.3675 0.81713 0.4093 0.0
N677 N 0.24811 0.88229 0.47242 0.0
C678 C 0.35198 0.83157 0.4284 0.0
C679 C 0.28948 0.86248 0.4617 0.0
N680 N 0.28836 0.70486 0.43796 0.0
N681 N 0.39573 0.98176 0.46458 0.0
H682 H 0.19384 0.84682 0.47534 0.0
H683 H 0.26462 0.93659 0.47544 0.0
H684 H 0.44777 1.02091 0.4603 0.0
H685 H 0.38004 0.99144 0.4788 0.0
H686 H 0.31819 0.69311 0.42782 0.0
H687 H 0.25488 0.66181 0.44745 0.0
H688 H 0.34092 0.76503 0.40278 0.0
H689 H 0.40037 0.85764 0.39911 0.0
C690 C 0.62251 0.37157 0.60789 0.0
C691 C 0.56157 0.35332 0.59522 0.0
C692 C 0.50805 0.22489 0.60451 0.0
C693 C 0.57011 0.24235 0.6164 0.0
N694 N 0.69146 0.32972 0.62674 0.0
N695 N 0.45615 0.25965 0.57723 0.0
C696 C 0.62931 0.31488 0.61701 0.0
C697 C 0.50739 0.27905 0.59224 0.0
N698 N 0.67123 0.44286 0.61246 0.0
N699 N 0.44814 0.15706 0.60557 0.0
H700 H 0.4543 0.29718 0.56758 0.0
H701 H 0.42022 0.20583 0.57289 0.0
H702 H 0.44705 0.11478 0.61365 0.0
H703 H 0.39829 0.144 0.59948 0.0
H704 H 0.71239 0.45944 0.6233 0.0
H705 H 0.66711 0.48587 0.6068 0.0
H706 H 0.73924 0.37976 0.62605 0.0
H707 H 0.69656 0.2897 0.63414 0.0
C708 C 0.38627 0.60766 0.7817 0.0
C709 C 0.38738 0.54361 0.78624 0.0
C710 C 0.27462 0.46989 0.76655 0.0
C711 C 0.27106 0.53343 0.76303 0.0
N712 N 0.31958 0.66189 0.76839 0.0
N713 N 0.33278 0.41353 0.78402 0.0
C714 C 0.32593 0.60214 0.77091 0.0
C715 C 0.33178 0.47473 0.7788 0.0
N716 N 0.44335 0.67379 0.78762 0.0
N717 N 0.2228 0.40457 0.7583 0.0
H718 H 0.37596 0.41521 0.79172 0.0
H719 H 0.29009 0.36075 0.78154 0.0
H720 H 0.1761 0.39668 0.75118 0.0
H721 H 0.22664 0.35818 0.7578 0.0
H722 H 0.45015 0.72344 0.78322 0.0
H723 H 0.48713 0.67939 0.79599 0.0
H724 H 0.35293 0.71199 0.77552 0.0
H725 H 0.27806 0.66071 0.75991 0.0
C726 C 0.82521 0.23101 0.92491 0.0
C727 C 0.75595 0.20294 0.93349 0.0
C728 C 0.81019 0.29314 0.96166 0.0
C729 C 0.87867 0.32385 0.95225 0.0
N730 N 0.94382 0.33687 0.92118 0.0
N731 N 0.68065 0.22156 0.95678 0.0
C732 C 0.88351 0.29769 0.93261 0.0
C733 C 0.74787 0.23899 0.95077 0.0
N734 N 0.8377 0.19168 0.91071 0.0
N735 N 0.80455 0.31109 0.98144 0.0
H736 H 0.63426 0.18365 0.94878 0.0
H737 H 0.67172 0.25032 0.96819 0.0
H738 H 0.84868 0.34728 0.99043 0.0
H739 H 0.75677 0.28436 0.98961 0.0
H740 H 0.88958 0.20577 0.9065 0.0
H741 H 0.79789 0.14151 0.90481 0.0
H742 H 0.94784 0.32248 0.90614 0.0
H743 H 0.98582 0.388 0.92588 0.0
C744 C 0.56613 0.83966 0.11534 0.0
C745 C 0.63201 0.90742 0.11628 0.0
C746 C 0.69321 0.85226 0.09874 0.0
C747 C 0.6265 0.78589 0.09648 0.0
N748 N 0.49837 0.71655 0.10124 0.0
N749 N 0.7565 0.98117 0.10692 0.0
C750 C 0.56262 0.7796 0.10446 0.0
C751 C 0.69495 0.91445 0.10736 0.0
N752 N 0.50763 0.8322 0.12546 0.0
N753 N 0.75564 0.85473 0.09369 0.0
H754 H 0.7607 1.02704 0.1139 0.0
H755 H 0.80152 0.99237 0.09842 0.0
H756 H 0.7569 0.8101 0.08771 0.0
H757 H 0.80668 0.8987 0.0971 0.0
H758 H 0.46023 0.7827 0.1275 0.0
H759 H 0.50779 0.87554 0.13293 0.0
H760 H 0.44867 0.71035 0.10463 0.0
H761 H 0.49441 0.67096 0.09405 0.0
C762 C 0.81022 0.555 0.27639 0.0
C763 C 0.81177 0.62022 0.28165 0.0
C764 C 0.93752 0.69217 0.27065 0.0
C765 C 0.93509 0.62742 0.26423 0.0
N766 N 0.86827 0.49735 0.25935 0.0
N767 N 0.87144 0.75077 0.2804 0.0
C768 C 0.87113 0.55874 0.26669 0.0
C769 C 0.87386 0.68873 0.27772 0.0
N770 N 0.75116 0.48962 0.28118 0.0
N771 N 1.00172 0.75675 0.27102 0.0
H772 H 0.82596 0.75036 0.28573 0.0
H773 H 0.91181 0.80177 0.2756 0.0
H774 H 1.05004 0.76156 0.26649 0.0
H775 H 1.00869 0.80432 0.27768 0.0
H776 H 0.74909 0.44013 0.28008 0.0
H777 H 0.70463 0.4852 0.28725 0.0
H778 H 0.82137 0.44656 0.25847 0.0
H779 H 0.91264 0.49788 0.25302 0.0
C780 C 0.8087 0.39306 0.43338 0.0
C781 C 0.85454 0.39376 0.44915 0.0
C782 C 0.79025 0.25974 0.44755 0.0
C783 C 0.73974 0.25946 0.43349 0.0
N784 N 0.69445 0.32599 0.41541 0.0
N785 N 0.88825 0.3287 0.47207 0.0
C786 C 0.74744 0.32621 0.42699 0.0
C787 C 0.84555 0.32727 0.45636 0.0
N788 N 0.82483 0.45665 0.42413 0.0
N789 N 0.78589 0.19558 0.45218 0.0
H790 H 0.93078 0.3771 0.47814 0.0
H791 H 0.87969 0.28258 0.47974 0.0
H792 H 0.74527 0.14561 0.44628 0.0
H793 H 0.82467 0.19203 0.46071 0.0
H794 H 0.79803 0.45931 0.41117 0.0
H795 H 0.86981 0.50656 0.42819 0.0
H796 H 0.69284 0.37264 0.41222 0.0
H797 H 0.64834 0.27855 0.41042 0.0
C798 C 0.52216 0.80624 0.59498 0.0
C799 C 0.56942 0.85154 0.61089 0.0
C800 C 0.63348 0.78434 0.60915 0.0
C801 C 0.57959 0.733 0.5955 0.0
N802 N 0.46785 0.69059 0.57698 0.0
N803 N 0.66887 0.88327 0.63387 0.0
C804 C 0.52295 0.74309 0.58871 0.0
C805 C 0.62559 0.84122 0.618 0.0
N806 N 0.47689 0.82434 0.58568 0.0
N807 N 0.69196 0.77852 0.61362 0.0
H808 H 0.66537 0.92612 0.64027 0.0
H809 H 0.70552 0.87354 0.64141 0.0
H810 H 0.69816 0.73679 0.60761 0.0
H811 H 0.73651 0.81757 0.62196 0.0
H812 H 0.44523 0.79733 0.57283 0.0
H813 H 0.47629 0.87123 0.58956 0.0
H814 H 0.42071 0.6904 0.57365 0.0
H815 H 0.46622 0.64356 0.57191 0.0
C816 C 0.74962 0.4424 0.77661 0.0
C817 C 0.75677 0.50862 0.78372 0.0
C818 C 0.87886 0.57418 0.7692 0.0
C819 C 0.87357 0.5066 0.76472 0.0
N820 N 0.81262 0.37848 0.77205 0.0
N821 N 0.83338 0.63811 0.78925 0.0
C822 C 0.8115 0.44133 0.77074 0.0
C823 C 0.82287 0.57504 0.78065 0.0
N824 N 0.68352 0.38058 0.77457 0.0
N825 N 0.93632 0.63703 0.76227 0.0
H826 H 0.7943 0.64039 0.79793 0.0
H827 H 0.88273 0.68675 0.7892 0.0
H828 H 0.97826 0.6378 0.75426 0.0
H829 H 0.93979 0.68726 0.76325 0.0
H830 H 0.67651 0.33291 0.76789 0.0
H831 H 0.63541 0.37953 0.77685 0.0
H832 H 0.76985 0.33055 0.77783 0.0
H833 H 0.85987 0.37767 0.77033 0.0
C834 C 0.28614 0.77667 0.93505 0.0
C835 C 0.34931 0.8069 0.94748 0.0
C836 C 0.28105 0.72186 0.97499 0.0
C837 C 0.2195 0.68739 0.96184 0.0
N838 N 0.15736 0.68963 0.93154 0.0
N839 N 0.40467 0.82031 0.98061 0.0
C840 C 0.22016 0.71775 0.94256 0.0
C841 C 0.34571 0.78376 0.968 0.0
N842 N 0.29036 0.80353 0.91583 0.0
N843 N 0.27863 0.69261 0.99373 0.0
H844 H 0.45305 0.86465 0.97578 0.0
H845 H 0.40477 0.81058 0.99622 0.0
H846 H 0.23097 0.65116 0.99984 0.0
H847 H 0.32336 0.7076 1.00305 0.0
H848 H 0.24936 0.78017 0.90486 0.0
H849 H 0.33649 0.85016 0.91078 0.0
H850 H 0.15184 0.71065 0.9178 0.0
H851 H 0.10868 0.64721 0.937 0.0
C852 C 0.56624 0.28661 0.11484 0.0
C853 C 0.59024 0.25343 0.10052 0.0
C854 C 0.61097 0.34694 0.07507 0.0
C855 C 0.58616 0.37946 0.08935 0.0
N856 N 0.52697 0.37289 0.12106 0.0
N857 N 0.62891 0.24733 0.06616 0.0
C858 C 0.56008 0.34709 0.10875 0.0
C859 C 0.60977 0.28173 0.08031 0.0
N860 N 0.54995 0.26069 0.13438 0.0
N861 N 0.64031 0.38102 0.05698 0.0
H862 H 0.63761 0.20521 0.0697 0.0
H863 H 0.63323 0.25819 0.05053 0.0
H864 H 0.64079 0.42749 0.05222 0.0
H865 H 0.66863 0.36653 0.04712 0.0
H866 H 0.54146 0.28772 0.14637 0.0
H867 H 0.54835 0.2134 0.13897 0.0
H868 H 0.50042 0.34807 0.13452 0.0
H869 H 0.52032 0.41595 0.11684 0.0
C870 C 0.40671 0.58522 0.25012 0.0
C871 C 0.42414 0.58225 0.27107 0.0
C872 C 0.32353 0.59744 0.28148 0.0
C873 C 0.30426 0.59697 0.26046 0.0
N874 N 0.31291 0.56361 0.22568 0.0
N875 N 0.38344 0.56103 0.306 0.0
C876 C 0.34088 0.58148 0.24513 0.0
C877 C 0.37738 0.58039 0.28653 0.0
N878 N 0.45488 0.59762 0.23495 0.0
N879 N 0.29485 0.61876 0.29667 0.0
H880 H 0.42052 0.54576 0.30996 0.0
H881 H 0.34665 0.55241 0.31748 0.0
H882 H 0.25599 0.63253 0.29417 0.0
H883 H 0.31423 0.62841 0.31175 0.0
H884 H 0.44677 0.60723 0.2198 0.0
H885 H 0.5063 0.60686 0.23766 0.0
H886 H 0.33425 0.54586 0.21431 0.0
H887 H 0.26371 0.55844 0.22173 0.0
loop_
_geom_bond_atom_site_label_1
_geom_bond_atom_site_label_2
_geom_bond_distance
_geom_bond_site_symmetry_2
_ccdc_geom_bond_type
O0 Tb1 2.506 . S
O0 C14 1.265 . S
Tb1 O0 2.506 . S
Tb1 O6 2.312 1_545 S
Tb1 O10 2.271 . S
Tb1 O12 2.338 . S
Tb1 O19 2.441 . S
C2 O10 1.252 . S
C2 O11 1.253 . S
O3 Tb4 2.271 . S
O3 C13 1.252 . S
Tb4 O3 2.271 . S
Tb4 O7 2.338 . S
Tb4 O11 2.312 1_565 S
Tb4 O15 2.441 . S
Tb4 O16 2.506 . S
C5 O15 1.244 . S
C5 O16 1.265 . S
O6 Tb1 2.312 1_565 S
O6 C13 1.253 . S
O7 Tb4 2.338 . S
O7 C8 1.258 . S
C8 O7 1.258 . S
C8 O9 1.251 . S
O9 C8 1.251 . S
O10 Tb1 2.271 . S
O10 C2 1.252 . S
O11 C2 1.253 . S
O11 Tb4 2.312 1_545 S
O12 Tb1 2.338 . S
O12 C17 1.258 . S
C13 O3 1.252 . S
C13 O6 1.253 . S
C14 O0 1.265 . S
C14 O19 1.244 . S
O15 Tb4 2.441 . S
O15 C5 1.244 . S
O16 Tb4 2.506 . S
O16 C5 1.265 . S
C17 O12 1.258 . S
C17 O18 1.251 . S
O18 C17 1.251 . S
O19 Tb1 2.441 . S
O19 C14 1.244 . S
O20 Tb21 2.506 . S
O20 C34 1.265 . S
Tb21 O20 2.506 . S
Tb21 O26 2.312 . S
Tb21 O30 2.271 . S
Tb21 O32 2.338 . S
Tb21 O39 2.441 . S
C22 O30 1.252 . S
C22 O31 1.253 . S
O23 Tb24 2.271 . S
O23 C33 1.252 . S
Tb24 O23 2.271 . S
Tb24 O27 2.338 . S
Tb24 O31 2.312 . S
Tb24 O35 2.441 . S
Tb24 O36 2.506 . S
C25 O35 1.244 . S
C25 O36 1.265 . S
O26 Tb21 2.312 . S
O26 C33 1.253 . S
O27 Tb24 2.338 . S
O27 C28 1.258 . S
C28 O27 1.258 . S
C28 O29 1.251 . S
O29 C28 1.251 . S
O30 Tb21 2.271 . S
O30 C22 1.252 . S
O31 C22 1.253 . S
O31 Tb24 2.312 . S
O32 Tb21 2.338 . S
O32 C37 1.258 . S
C33 O23 1.252 . S
C33 O26 1.253 . S
C34 O20 1.265 . S
C34 O39 1.244 . S
O35 Tb24 2.441 . S
O35 C25 1.244 . S
O36 Tb24 2.506 . S
O36 C25 1.265 . S
C37 O32 1.258 . S
C37 O38 1.251 . S
O38 C37 1.251 . S
O39 Tb21 2.441 . S
O39 C34 1.244 . S
O40 Tb41 2.506 . S
O40 C54 1.265 . S
Tb41 O40 2.506 . S
Tb41 O46 2.312 1_655 S
Tb41 O50 2.271 . S
Tb41 O52 2.338 . S
Tb41 O59 2.441 . S
C42 O50 1.252 . S
C42 O51 1.253 . S
O43 Tb44 2.271 . S
O43 C53 1.252 . S
Tb44 O43 2.271 . S
Tb44 O47 2.338 . S
Tb44 O51 2.312 1_455 S
Tb44 O55 2.441 . S
Tb44 O56 2.506 . S
C45 O55 1.244 . S
C45 O56 1.265 . S
O46 Tb41 2.312 1_455 S
O46 C53 1.253 . S
O47 Tb44 2.338 . S
O47 C48 1.258 . S
C48 O47 1.258 . S
C48 O49 1.251 . S
O49 C48 1.251 . S
O50 Tb41 2.271 . S
O50 C42 1.252 . S
O51 C42 1.253 . S
O51 Tb44 2.312 1_655 S
O52 Tb41 2.338 . S
O52 C57 1.258 . S
C53 O43 1.252 . S
C53 O46 1.253 . S
C54 O40 1.265 . S
C54 O59 1.244 . S
O55 Tb44 2.441 . S
O55 C45 1.244 . S
O56 Tb44 2.506 . S
O56 C45 1.265 . S
C57 O52 1.258 . S
C57 O58 1.251 . S
O58 C57 1.251 . S
O59 Tb41 2.441 . S
O59 C54 1.244 . S
O60 Tb61 2.506 . S
O60 C74 1.265 . S
Tb61 O60 2.506 . S
Tb61 O66 2.312 1_545 S
Tb61 O70 2.271 . S
Tb61 O72 2.338 . S
Tb61 O79 2.441 . S
C62 O70 1.252 . S
C62 O71 1.253 . S
O63 Tb64 2.271 . S
O63 C73 1.252 . S
Tb64 O63 2.271 . S
Tb64 O67 2.338 . S
Tb64 O71 2.312 1_565 S
Tb64 O75 2.441 . S
Tb64 O76 2.506 . S
C65 O75 1.244 . S
C65 O76 1.265 . S
O66 Tb61 2.312 1_565 S
O66 C73 1.253 . S
O67 Tb64 2.338 . S
O67 C68 1.258 . S
C68 O67 1.258 . S
C68 O69 1.251 . S
O69 C68 1.251 . S
O70 Tb61 2.271 . S
O70 C62 1.252 . S
O71 C62 1.253 . S
O71 Tb64 2.312 1_545 S
O72 Tb61 2.338 . S
O72 C77 1.258 . S
C73 O63 1.252 . S
C73 O66 1.253 . S
C74 O60 1.265 . S
C74 O79 1.244 . S
O75 Tb64 2.441 . S
O75 C65 1.244 . S
O76 Tb64 2.506 . S
O76 C65 1.265 . S
C77 O72 1.258 . S
C77 O78 1.251 . S
O78 C77 1.251 . S
O79 Tb61 2.441 . S
O79 C74 1.244 . S
O80 Tb81 2.506 . S
O80 C94 1.265 . S
Tb81 O80 2.506 . S
Tb81 O86 2.312 . S
Tb81 O90 2.271 . S
Tb81 O92 2.338 . S
Tb81 O99 2.441 . S
C82 O90 1.252 . S
C82 O91 1.253 . S
O83 Tb84 2.271 . S
O83 C93 1.252 . S
Tb84 O83 2.271 . S
Tb84 O87 2.338 . S
Tb84 O91 2.312 . S
Tb84 O95 2.441 . S
Tb84 O96 2.506 1_554 S
C85 O95 1.244 1_556 S
C85 O96 1.265 . S
O86 Tb81 2.312 . S
O86 C93 1.253 . S
O87 Tb84 2.338 . S
O87 C88 1.258 . S
C88 O87 1.258 . S
C88 O89 1.251 . S
O89 C88 1.251 . S
O90 Tb81 2.271 . S
O90 C82 1.252 . S
O91 C82 1.253 . S
O91 Tb84 2.312 . S
O92 Tb81 2.338 . S
O92 C97 1.258 . S
C93 O83 1.252 . S
C93 O86 1.253 . S
C94 O80 1.265 . S
C94 O99 1.244 . S
O95 Tb84 2.441 . S
O95 C85 1.244 1_554 S
O96 Tb84 2.506 1_556 S
O96 C85 1.265 . S
C97 O92 1.258 . S
C97 O98 1.251 . S
O98 C97 1.251 . S
O99 Tb81 2.441 . S
O99 C94 1.244 . S
O100 Tb101 2.506 . S
O100 C114 1.265 . S
Tb101 O100 2.506 . S
Tb101 O106 2.312 1_655 S
Tb101 O110 2.271 . S
Tb101 O112 2.338 . S
Tb101 O119 2.441 . S
C102 O110 1.252 . S
C102 O111 1.253 . S
O103 Tb104 2.271 . S
O103 C113 1.252 . S
Tb104 O103 2.271 . S
Tb104 O107 2.338 . S
Tb104 O111 2.312 1_455 S
Tb104 O115 2.441 . S
Tb104 O116 2.506 . S
C105 O115 1.244 . S
C105 O116 1.265 . S
O106 Tb101 2.312 1_455 S
O106 C113 1.253 . S
O107 Tb104 2.338 . S
O107 C108 1.258 . S
C108 O107 1.258 . S
C108 O109 1.251 . S
O109 C108 1.251 . S
O110 Tb101 2.271 . S
O110 C102 1.252 . S
O111 C102 1.253 . S
O111 Tb104 2.312 1_655 S
O112 Tb101 2.338 . S
O112 C117 1.258 . S
C113 O103 1.252 . S
C113 O106 1.253 . S
C114 O100 1.265 . S
C114 O119 1.244 . S
O115 Tb104 2.441 . S
O115 C105 1.244 . S
O116 Tb104 2.506 . S
O116 C105 1.265 . S
C117 O112 1.258 . S
C117 O118 1.251 . S
O118 C117 1.251 . S
O119 Tb101 2.441 . S
O119 C114 1.244 . S
O120 Tb121 2.506 . S
O120 C134 1.265 . S
Tb121 O120 2.506 . S
Tb121 O126 2.312 1_655 S
Tb121 O130 2.271 . S
Tb121 O132 2.338 . S
Tb121 O139 2.441 . S
C122 O130 1.252 . S
C122 O131 1.253 . S
O123 Tb124 2.271 . S
O123 C133 1.252 . S
Tb124 O123 2.271 . S
Tb124 O127 2.338 . S
Tb124 O131 2.312 1_455 S
Tb124 O135 2.441 . S
Tb124 O136 2.506 . S
C125 O135 1.244 . S
C125 O136 1.265 . S
O126 Tb121 2.312 1_455 S
O126 C133 1.253 . S
O127 Tb124 2.338 . S
O127 C128 1.258 . S
C128 O127 1.258 . S
C128 O129 1.251 . S
O129 C128 1.251 . S
O130 Tb121 2.271 . S
O130 C122 1.252 . S
O131 C122 1.253 . S
O131 Tb124 2.312 1_655 S
O132 Tb121 2.338 . S
O132 C137 1.258 . S
C133 O123 1.252 . S
C133 O126 1.253 . S
C134 O120 1.265 . S
C134 O139 1.244 . S
O135 Tb124 2.441 . S
O135 C125 1.244 . S
O136 Tb124 2.506 . S
O136 C125 1.265 . S
C137 O132 1.258 . S
C137 O138 1.251 . S
O138 C137 1.251 . S
O139 Tb121 2.441 . S
O139 C134 1.244 . S
O140 Tb141 2.506 . S
O140 C154 1.265 . S
Tb141 O140 2.506 . S
Tb141 O146 2.312 1_545 S
Tb141 O150 2.271 . S
Tb141 O152 2.338 . S
Tb141 O159 2.441 . S
C142 O150 1.252 . S
C142 O151 1.253 . S
O143 Tb144 2.271 . S
O143 C153 1.252 . S
Tb144 O143 2.271 . S
Tb144 O147 2.338 . S
Tb144 O151 2.312 1_565 S
Tb144 O155 2.441 . S
Tb144 O156 2.506 . S
C145 O155 1.244 . S
C145 O156 1.265 . S
O146 Tb141 2.312 1_565 S
O146 C153 1.253 . S
O147 Tb144 2.338 . S
O147 C148 1.258 . S
C148 O147 1.258 . S
C148 O149 1.251 . S
O149 C148 1.251 . S
O150 Tb141 2.271 . S
O150 C142 1.252 . S
O151 C142 1.253 . S
O151 Tb144 2.312 1_545 S
O152 Tb141 2.338 . S
O152 C157 1.258 . S
C153 O143 1.252 . S
C153 O146 1.253 . S
C154 O140 1.265 . S
C154 O159 1.244 . S
O155 Tb144 2.441 . S
O155 C145 1.244 . S
O156 Tb144 2.506 . S
O156 C145 1.265 . S
C157 O152 1.258 . S
C157 O158 1.251 . S
O158 C157 1.251 . S
O159 Tb141 2.441 . S
O159 C154 1.244 . S
O160 Tb161 2.506 . S
O160 C174 1.265 . S
Tb161 O160 2.506 . S
Tb161 O166 2.312 . S
Tb161 O170 2.271 . S
Tb161 O172 2.338 . S
Tb161 O179 2.441 . S
C162 O170 1.252 . S
C162 O171 1.253 . S
O163 Tb164 2.271 . S
O163 C173 1.252 . S
Tb164 O163 2.271 . S
Tb164 O167 2.338 . S
Tb164 O171 2.312 . S
Tb164 O175 2.441 . S
Tb164 O176 2.506 . S
C165 O175 1.244 . S
C165 O176 1.265 . S
O166 Tb161 2.312 . S
O166 C173 1.253 . S
O167 Tb164 2.338 . S
O167 C168 1.258 . S
C168 O167 1.258 . S
C168 O169 1.251 . S
O169 C168 1.251 . S
O170 Tb161 2.271 . S
O170 C162 1.252 . S
O171 C162 1.253 . S
O171 Tb164 2.312 . S
O172 Tb161 2.338 . S
O172 C177 1.258 . S
C173 O163 1.252 . S
C173 O166 1.253 . S
C174 O160 1.265 . S
C174 O179 1.244 . S
O175 Tb164 2.441 . S
O175 C165 1.244 . S
O176 Tb164 2.506 . S
O176 C165 1.265 . S
C177 O172 1.258 . S
C177 O178 1.251 . S
O178 C177 1.251 . S
O179 Tb161 2.441 . S
O179 C174 1.244 . S
O180 Tb181 2.506 1_554 S
O180 C194 1.265 . S
Tb181 O180 2.506 1_556 S
Tb181 O186 2.312 1_655 S
Tb181 O190 2.271 . S
Tb181 O192 2.338 1_556 S
Tb181 O199 2.437 1_556 S
C182 O190 1.252 . S
C182 O191 1.253 . S
O183 Tb184 2.271 . S
O183 C193 1.252 . S
Tb184 O183 2.271 . S
Tb184 O187 2.338 . S
Tb184 O191 2.312 1_455 S
Tb184 O195 2.441 . S
Tb184 O196 2.506 . S
C185 O195 1.244 . S
C185 O196 1.265 . S
O186 Tb181 2.312 1_455 S
O186 C193 1.253 . S
O187 Tb184 2.338 . S
O187 C188 1.258 . S
C188 O187 1.258 . S
C188 O189 1.251 . S
O189 C188 1.251 . S
O190 Tb181 2.271 . S
O190 C182 1.252 . S
O191 C182 1.253 . S
O191 Tb184 2.312 1_655 S
O192 Tb181 2.338 1_554 S
O192 C197 1.258 1_554 S
C193 O183 1.252 . S
C193 O186 1.253 . S
C194 O180 1.265 . S
C194 O199 1.288 . S
O195 Tb184 2.441 . S
O195 C185 1.244 . S
O196 Tb184 2.506 . S
O196 C185 1.265 . S
C197 O192 1.258 1_556 S
C197 O198 1.251 . S
O198 C197 1.251 . S
O199 Tb181 2.437 1_554 S
O199 C194 1.288 . S
O200 Tb201 2.506 . S
O200 C214 1.265 . S
Tb201 O200 2.506 . S
Tb201 O206 2.312 1_545 S
Tb201 O210 2.271 . S
Tb201 O212 2.338 . S
Tb201 O219 2.441 . S
C202 O210 1.252 . S
C202 O211 1.253 . S
O203 Tb204 2.271 . S
O203 C213 1.252 . S
Tb204 O203 2.271 . S
Tb204 O207 2.338 . S
Tb204 O211 2.312 1_565 S
Tb204 O215 2.441 . S
Tb204 O216 2.506 . S
C205 O215 1.244 . S
C205 O216 1.265 . S
O206 Tb201 2.312 1_565 S
O206 C213 1.253 . S
O207 Tb204 2.338 . S
O207 C208 1.258 . S
C208 O207 1.258 . S
C208 O209 1.251 . S
O209 C208 1.251 . S
O210 Tb201 2.271 . S
O210 C202 1.252 . S
O211 C202 1.253 . S
O211 Tb204 2.312 1_545 S
O212 Tb201 2.338 . S
O212 C217 1.258 . S
C213 O203 1.252 . S
C213 O206 1.253 . S
C214 O200 1.265 . S
C214 O219 1.244 . S
O215 Tb204 2.441 . S
O215 C205 1.244 . S
O216 Tb204 2.506 . S
O216 C205 1.265 . S
C217 O212 1.258 . S
C217 O218 1.251 . S
O218 C217 1.251 . S
O219 Tb201 2.441 . S
O219 C214 1.244 . S
O220 Tb221 2.506 . S
O220 C234 1.265 . S
Tb221 O220 2.506 . S
Tb221 O226 2.312 . S
Tb221 O230 2.271 . S
Tb221 O232 2.338 . S
Tb221 O239 2.441 . S
C222 O230 1.252 . S
C222 O231 1.253 . S
O223 Tb224 2.271 . S
O223 C233 1.252 . S
Tb224 O223 2.271 . S
Tb224 O227 2.338 . S
Tb224 O231 2.312 . S
Tb224 O235 2.441 . S
Tb224 O236 2.506 . S
C225 O235 1.244 . S
C225 O236 1.265 . S
O226 Tb221 2.312 . S
O226 C233 1.253 . S
O227 Tb224 2.338 . S
O227 C228 1.258 . S
C228 O227 1.258 . S
C228 O229 1.251 . S
O229 C228 1.251 . S
O230 Tb221 2.271 . S
O230 C222 1.252 . S
O231 C222 1.253 . S
O231 Tb224 2.312 . S
O232 Tb221 2.338 . S
O232 C237 1.258 . S
C233 O223 1.252 . S
C233 O226 1.253 . S
C234 O220 1.265 . S
C234 O239 1.244 . S
O235 Tb224 2.441 . S
O235 C225 1.244 . S
O236 Tb224 2.506 . S
O236 C225 1.265 . S
C237 O232 1.258 . S
C237 O238 1.251 . S
O238 C237 1.251 . S
O239 Tb221 2.441 . S
O239 C234 1.244 . S
C240 C241 1.363 . S
C240 C246 1.379 . S
C240 N248 1.356 . S
C241 C240 1.363 . S
C241 C247 1.363 . S
C242 C243 1.363 . S
C242 C247 1.379 . S
C242 N249 1.356 . S
C243 C242 1.363 . S
C243 C246 1.363 . S
N244 C246 1.356 . S
N244 H256 0.984 . S
N244 H257 0.985 . S
N245 C247 1.356 . S
N245 H250 0.984 . S
N245 H251 0.985 . S
C246 C240 1.379 . S
C246 C243 1.363 . S
C246 N244 1.356 . S
C247 C241 1.363 . S
C247 C242 1.379 . S
C247 N245 1.356 . S
N248 C240 1.356 . S
N248 H254 0.984 . S
N248 H255 0.984 . S
N249 C242 1.356 . S
N249 H252 0.984 . S
N249 H253 0.985 . S
H250 N245 0.984 . S
H251 N245 0.985 . S
H252 N249 0.984 . S
H253 N249 0.985 . S
H254 N248 0.984 . S
H255 N248 0.984 . S
H256 N244 0.984 . S
H257 N244 0.985 . S
C258 C259 1.363 . S
C258 C264 1.379 . S
C258 N266 1.356 . S
C259 C258 1.363 . S
C259 C265 1.363 . S
C260 C261 1.363 . S
C260 C265 1.379 . S
C260 N267 1.356 . S
C261 C260 1.363 . S
C261 C264 1.363 . S
N262 C264 1.356 . S
N262 H274 0.984 . S
N262 H275 0.985 . S
N263 C265 1.356 . S
N263 H268 0.984 . S
N263 H269 0.985 . S
C264 C258 1.379 . S
C264 C261 1.363 . S
C264 N262 1.356 . S
C265 C259 1.363 . S
C265 C260 1.379 . S
C265 N263 1.356 . S
N266 C258 1.356 . S
N266 H272 0.984 . S
N266 H273 0.984 . S
N267 C260 1.356 . S
N267 H270 0.984 . S
N267 H271 0.985 . S
H268 N263 0.984 . S
H269 N263 0.985 . S
H270 N267 0.984 . S
H271 N267 0.985 . S
H272 N266 0.984 . S
H273 N266 0.984 . S
H274 N262 0.984 . S
H275 N262 0.985 . S
C276 C277 1.363 . S
C276 C282 1.379 . S
C276 N284 1.356 . S
C277 C276 1.363 . S
C277 C283 1.363 . S
C278 C279 1.363 . S
C278 C283 1.379 . S
C278 N285 1.356 . S
C279 C278 1.363 . S
C279 C282 1.363 . S
N280 C282 1.356 . S
N280 H292 0.984 . S
N280 H293 0.985 . S
N281 C283 1.356 . S
N281 H286 0.984 . S
N281 H287 0.985 . S
C282 C276 1.379 . S
C282 C279 1.363 . S
C282 N280 1.356 . S
C283 C277 1.363 . S
C283 C278 1.379 . S
C283 N281 1.356 . S
N284 C276 1.356 . S
N284 H290 0.984 . S
N284 H291 0.984 . S
N285 C278 1.356 . S
N285 H288 0.984 . S
N285 H289 0.985 . S
H286 N281 0.984 . S
H287 N281 0.985 . S
H288 N285 0.984 . S
H289 N285 0.985 . S
H290 N284 0.984 . S
H291 N284 0.984 . S
H292 N280 0.984 . S
H293 N280 0.985 . S
C294 C295 1.363 . S
C294 C300 1.379 . S
C294 N302 1.356 . S
C295 C294 1.363 . S
C295 C301 1.363 . S
C296 C297 1.363 . S
C296 C301 1.379 . S
C296 N303 1.356 . S
C297 C296 1.363 . S
C297 C300 1.363 . S
N298 C300 1.356 . S
N298 H310 0.984 . S
N298 H311 0.985 . S
N299 C301 1.356 . S
N299 H304 0.984 . S
N299 H305 0.985 . S
C300 C294 1.379 . S
C300 C297 1.363 . S
C300 N298 1.356 . S
C301 C295 1.363 . S
C301 C296 1.379 . S
C301 N299 1.356 . S
N302 C294 1.356 . S
N302 H308 0.984 . S
N302 H309 0.984 . S
N303 C296 1.356 . S
N303 H306 0.984 . S
N303 H307 0.985 . S
H304 N299 0.984 . S
H305 N299 0.985 . S
H306 N303 0.984 . S
H307 N303 0.985 . S
H308 N302 0.984 . S
H309 N302 0.984 . S
H310 N298 0.984 . S
H311 N298 0.985 . S
C312 C313 1.363 . S
C312 C318 1.379 . S
C312 N320 1.356 . S
C313 C312 1.363 . S
C313 C319 1.363 . S
C314 C315 1.363 . S
C314 C319 1.379 . S
C314 N321 1.356 . S
C315 C314 1.363 . S
C315 C318 1.363 . S
N316 C318 1.356 . S
N316 H328 0.984 . S
N316 H329 0.985 . S
N317 C319 1.356 . S
N317 H322 0.984 . S
N317 H323 0.985 . S
C318 C312 1.379 . S
C318 C315 1.363 . S
C318 N316 1.356 . S
C319 C313 1.363 . S
C319 C314 1.379 . S
C319 N317 1.356 . S
N320 C312 1.356 . S
N320 H326 0.984 . S
N320 H327 0.984 . S
N321 C314 1.356 . S
N321 H324 0.984 . S
N321 H325 0.985 . S
H322 N317 0.984 . S
H323 N317 0.985 . S
H324 N321 0.984 . S
H325 N321 0.985 . S
H326 N320 0.984 . S
H327 N320 0.984 . S
H328 N316 0.984 . S
H329 N316 0.985 . S
C330 C331 1.363 . S
C330 C336 1.379 . S
C330 N338 1.356 . S
C331 C330 1.363 . S
C331 C337 1.363 . S
C332 C333 1.363 . S
C332 C337 1.379 . S
C332 N339 1.356 . S
C333 C332 1.363 . S
C333 C336 1.363 . S
N334 C336 1.356 . S
N334 H346 0.984 . S
N334 H347 0.985 . S
N335 C337 1.356 . S
N335 H340 0.984 . S
N335 H341 0.985 . S
C336 C330 1.379 . S
C336 C333 1.363 . S
C336 N334 1.356 . S
C337 C331 1.363 . S
C337 C332 1.379 . S
C337 N335 1.356 . S
N338 C330 1.356 . S
N338 H344 0.984 . S
N338 H345 0.984 . S
N339 C332 1.356 . S
N339 H342 0.984 . S
N339 H343 0.985 . S
H340 N335 0.984 . S
H341 N335 0.985 . S
H342 N339 0.984 . S
H343 N339 0.985 . S
H344 N338 0.984 . S
H345 N338 0.984 . S
H346 N334 0.984 . S
H347 N334 0.985 . S
C348 C349 1.363 . S
C348 C354 1.379 . S
C348 N356 1.356 . S
C349 C348 1.363 . S
C349 C355 1.363 . S
C350 C351 1.363 . S
C350 C355 1.379 . S
C350 N357 1.356 . S
C351 C350 1.363 . S
C351 C354 1.363 . S
N352 C354 1.356 . S
N352 H364 0.984 . S
N352 H365 0.985 . S
N353 C355 1.356 . S
N353 H358 0.984 . S
N353 H359 0.985 . S
C354 C348 1.379 . S
C354 C351 1.363 . S
C354 N352 1.356 . S
C355 C349 1.363 . S
C355 C350 1.379 . S
C355 N353 1.356 . S
N356 C348 1.356 . S
N356 H362 0.984 . S
N356 H363 0.984 . S
N357 C350 1.356 . S
N357 H360 0.984 . S
N357 H361 0.985 . S
H358 N353 0.984 . S
H359 N353 0.985 . S
H360 N357 0.984 . S
H361 N357 0.985 . S
H362 N356 0.984 . S
H363 N356 0.984 . S
H364 N352 0.984 . S
H365 N352 0.985 . S
C366 C367 1.363 . S
C366 C372 1.379 . S
C366 N374 1.356 . S
C367 C366 1.363 . S
C367 C373 1.363 . S
C368 C369 1.363 . S
C368 C373 1.379 . S
C368 N375 1.356 . S
C369 C368 1.363 . S
C369 C372 1.363 . S
N370 C372 1.356 . S
N370 H382 0.984 . S
N370 H383 0.985 . S
N371 C373 1.356 . S
N371 H376 0.984 . S
N371 H377 0.985 . S
C372 C366 1.379 . S
C372 C369 1.363 . S
C372 N370 1.356 . S
C373 C367 1.363 . S
C373 C368 1.379 . S
C373 N371 1.356 . S
N374 C366 1.356 . S
N374 H380 0.984 . S
N374 H381 0.984 . S
N375 C368 1.356 . S
N375 H378 0.984 . S
N375 H379 0.985 . S
H376 N371 0.984 . S
H377 N371 0.985 . S
H378 N375 0.984 . S
H379 N375 0.985 . S
H380 N374 0.984 . S
H381 N374 0.984 . S
H382 N370 0.984 . S
H383 N370 0.985 . S
C384 C385 1.363 . S
C384 C390 1.379 . S
C384 N392 1.356 . S
C385 C384 1.363 . S
C385 C391 1.363 . S
C386 C387 1.363 . S
C386 C391 1.379 . S
C386 N393 1.356 . S
C387 C386 1.363 . S
C387 C390 1.363 . S
N388 C390 1.356 . S
N388 H400 0.984 . S
N388 H401 0.985 . S
N389 C391 1.356 . S
N389 H394 0.984 . S
N389 H395 0.985 . S
C390 C384 1.379 . S
C390 C387 1.363 . S
C390 N388 1.356 . S
C391 C385 1.363 . S
C391 C386 1.379 . S
C391 N389 1.356 . S
N392 C384 1.356 . S
N392 H398 0.984 . S
N392 H399 0.984 . S
N393 C386 1.356 . S
N393 H396 0.984 . S
N393 H397 0.985 . S
H394 N389 0.984 . S
H395 N389 0.985 . S
H396 N393 0.984 . S
H397 N393 0.985 . S
H398 N392 0.984 . S
H399 N392 0.984 . S
H400 N388 0.984 . S
H401 N388 0.985 . S
C402 C403 1.363 . S
C402 C408 1.379 . S
C402 N410 1.356 . S
C403 C402 1.363 . S
C403 C409 1.363 . S
C404 C405 1.363 . S
C404 C409 1.379 . S
C404 N411 1.356 . S
C405 C404 1.363 . S
C405 C408 1.363 . S
N406 C408 1.356 . S
N406 H418 0.984 . S
N406 H419 0.985 . S
N407 C409 1.356 . S
N407 H412 0.984 . S
N407 H413 0.985 . S
C408 C402 1.379 . S
C408 C405 1.363 . S
C408 N406 1.356 . S
C409 C403 1.363 . S
C409 C404 1.379 . S
C409 N407 1.356 . S
N410 C402 1.356 . S
N410 H416 0.984 . S
N410 H417 0.984 . S
N411 C404 1.356 . S
N411 H414 0.984 . S
N411 H415 0.985 . S
H412 N407 0.984 . S
H413 N407 0.985 . S
H414 N411 0.984 . S
H415 N411 0.985 . S
H416 N410 0.984 . S
H417 N410 0.984 . S
H418 N406 0.984 . S
H419 N406 0.985 . S
C420 C421 1.363 . S
C420 C426 1.379 . S
C420 N428 1.356 . S
C421 C420 1.363 . S
C421 C427 1.363 . S
C422 C423 1.363 . S
C422 C427 1.379 . S
C422 N429 1.356 . S
C423 C422 1.363 . S
C423 C426 1.363 . S
N424 C426 1.356 . S
N424 H436 0.984 . S
N424 H437 0.985 . S
N425 C427 1.356 . S
N425 H430 0.984 . S
N425 H431 0.985 . S
C426 C420 1.379 . S
C426 C423 1.363 . S
C426 N424 1.356 . S
C427 C421 1.363 . S
C427 C422 1.379 . S
C427 N425 1.356 . S
N428 C420 1.356 . S
N428 H434 0.984 . S
N428 H435 0.984 . S
N429 C422 1.356 . S
N429 H432 0.984 . S
N429 H433 0.985 . S
H430 N425 0.984 . S
H431 N425 0.985 . S
H432 N429 0.984 . S
H433 N429 0.985 . S
H434 N428 0.984 . S
H435 N428 0.984 . S
H436 N424 0.984 . S
H437 N424 0.985 . S
C438 C439 1.363 . S
C438 C444 1.379 . S
C438 N446 1.356 . S
C439 C438 1.363 . S
C439 C445 1.363 . S
C440 C441 1.363 . S
C440 C445 1.379 . S
C440 N447 1.356 . S
C441 C440 1.363 . S
C441 C444 1.363 . S
N442 C444 1.356 . S
N442 H454 0.984 . S
N442 H455 0.985 . S
N443 C445 1.356 . S
N443 H448 0.984 . S
N443 H449 0.985 . S
C444 C438 1.379 . S
C444 C441 1.363 . S
C444 N442 1.356 . S
C445 C439 1.363 . S
C445 C440 1.379 . S
C445 N443 1.356 . S
N446 C438 1.356 . S
N446 H452 0.984 . S
N446 H453 0.984 . S
N447 C440 1.356 . S
N447 H450 0.984 . S
N447 H451 0.985 . S
H448 N443 0.984 . S
H449 N443 0.985 . S
H450 N447 0.984 . S
H451 N447 0.985 . S
H452 N446 0.984 . S
H453 N446 0.984 . S
H454 N442 0.984 . S
H455 N442 0.985 . S
C456 C457 1.363 . S
C456 C462 1.379 . S
C456 N464 1.356 . S
C457 C456 1.363 . S
C457 C463 1.363 . S
C458 C459 1.363 . S
C458 C463 1.379 . S
C458 N465 1.356 . S
C459 C458 1.363 . S
C459 C462 1.363 . S
N460 C462 1.356 . S
N460 H472 0.984 . S
N460 H473 0.985 . S
N461 C463 1.356 . S
N461 H466 0.984 . S
N461 H467 0.985 . S
C462 C456 1.379 . S
C462 C459 1.363 . S
C462 N460 1.356 . S
C463 C457 1.363 . S
C463 C458 1.379 . S
C463 N461 1.356 . S
N464 C456 1.356 . S
N464 H470 0.984 . S
N464 H471 0.984 . S
N465 C458 1.356 . S
N465 H468 0.984 . S
N465 H469 0.985 . S
H466 N461 0.984 . S
H467 N461 0.985 . S
H468 N465 0.984 . S
H469 N465 0.985 . S
H470 N464 0.984 . S
H471 N464 0.984 . S
H472 N460 0.984 . S
H473 N460 0.985 . S
C474 C475 1.363 . S
C474 C480 1.379 . S
C474 N482 1.356 . S
C475 C474 1.363 . S
C475 C481 1.363 . S
C476 C477 1.363 . S
C476 C481 1.379 . S
C476 N483 1.356 . S
C477 C476 1.363 . S
C477 C480 1.363 . S
N478 C480 1.356 . S
N478 H490 0.984 . S
N478 H491 0.985 . S
N479 C481 1.356 . S
N479 H484 0.984 . S
N479 H485 0.985 . S
C480 C474 1.379 . S
C480 C477 1.363 . S
C480 N478 1.356 . S
C481 C475 1.363 . S
C481 C476 1.379 . S
C481 N479 1.356 . S
N482 C474 1.356 . S
N482 H488 0.984 . S
N482 H489 0.984 . S
N483 C476 1.356 . S
N483 H486 0.984 . S
N483 H487 0.985 . S
H484 N479 0.984 . S
H485 N479 0.985 . S
H486 N483 0.984 . S
H487 N483 0.985 . S
H488 N482 0.984 . S
H489 N482 0.984 . S
H490 N478 0.984 . S
H491 N478 0.985 . S
C492 C493 1.363 . S
C492 C498 1.379 . S
C492 N500 1.356 . S
C493 C492 1.363 . S
C493 C499 1.363 . S
C494 C495 1.363 . S
C494 C499 1.379 . S
C494 N501 1.356 . S
C495 C494 1.363 . S
C495 C498 1.363 . S
N496 C498 1.356 . S
N496 H508 0.984 . S
N496 H509 0.985 . S
N497 C499 1.356 . S
N497 H502 0.984 . S
N497 H503 0.985 . S
C498 C492 1.379 . S
C498 C495 1.363 . S
C498 N496 1.356 . S
C499 C493 1.363 . S
C499 C494 1.379 . S
C499 N497 1.356 . S
N500 C492 1.356 . S
N500 H506 0.984 . S
N500 H507 0.984 . S
N501 C494 1.356 . S
N501 H504 0.984 . S
N501 H505 0.985 . S
H502 N497 0.984 . S
H503 N497 0.985 . S
H504 N501 0.984 . S
H505 N501 0.985 . S
H506 N500 0.984 . S
H507 N500 0.984 . S
H508 N496 0.984 . S
H509 N496 0.985 . S
C510 C511 1.363 . S
C510 C516 1.379 . S
C510 N518 1.356 . S
C511 C510 1.363 . S
C511 C517 1.363 . S
C512 C513 1.363 . S
C512 C517 1.379 . S
C512 N519 1.356 . S
C513 C512 1.363 . S
C513 C516 1.363 . S
N514 C516 1.356 . S
N514 H526 0.984 . S
N514 H527 0.985 . S
N515 C517 1.356 . S
N515 H520 0.984 . S
N515 H521 0.985 . S
C516 C510 1.379 . S
C516 C513 1.363 . S
C516 N514 1.356 . S
C517 C511 1.363 . S
C517 C512 1.379 . S
C517 N515 1.356 . S
N518 C510 1.356 . S
N518 H524 0.984 . S
N518 H525 0.984 . S
N519 C512 1.356 . S
N519 H522 0.984 . S
N519 H523 0.985 . S
H520 N515 0.984 . S
H521 N515 0.985 . S
H522 N519 0.984 . S
H523 N519 0.985 . S
H524 N518 0.984 . S
H525 N518 0.984 . S
H526 N514 0.984 . S
H527 N514 0.985 . S
C528 C529 1.363 1_554 S
C528 C534 1.379 . S
C528 N536 1.356 . S
C529 C528 1.363 1_556 S
C529 C535 1.363 . S
C530 C531 1.363 1_556 S
C530 C535 1.379 . S
C530 N537 1.356 . S
C531 C530 1.363 1_554 S
C531 C534 1.363 . S
N532 C534 1.356 . S
N532 H544 0.984 . S
N532 H545 0.985 . S
N533 C535 1.356 . S
N533 H538 0.984 . S
N533 H539 0.985 . S
C534 C528 1.379 . S
C534 C531 1.363 . S
C534 N532 1.356 . S
C535 C529 1.363 . S
C535 C530 1.379 . S
C535 N533 1.356 . S
N536 C528 1.356 . S
N536 H542 0.984 . S
N536 H543 0.984 1_554 S
N537 C530 1.356 . S
N537 H540 0.984 . S
N537 H541 0.985 . S
H538 N533 0.984 . S
H539 N533 0.985 . S
H540 N537 0.984 . S
H541 N537 0.985 . S
H542 N536 0.984 . S
H543 N536 0.984 1_556 S
H544 N532 0.984 . S
H545 N532 0.985 . S
C546 C547 1.363 . S
C546 C552 1.379 . S
C546 N554 1.356 . S
C547 C546 1.363 . S
C547 C553 1.363 . S
C548 C549 1.363 . S
C548 C553 1.379 . S
C548 N555 1.356 . S
C549 C548 1.363 . S
C549 C552 1.363 . S
N550 C552 1.356 . S
N550 H562 0.984 . S
N550 H563 0.985 . S
N551 C553 1.356 . S
N551 H556 0.984 . S
N551 H557 0.985 . S
C552 C546 1.379 . S
C552 C549 1.363 . S
C552 N550 1.356 . S
C553 C547 1.363 . S
C553 C548 1.379 . S
C553 N551 1.356 . S
N554 C546 1.356 . S
N554 H560 0.984 . S
N554 H561 0.984 . S
N555 C548 1.356 . S
N555 H558 0.984 . S
N555 H559 0.985 . S
H556 N551 0.984 . S
H557 N551 0.985 . S
H558 N555 0.984 . S
H559 N555 0.985 . S
H560 N554 0.984 . S
H561 N554 0.984 . S
H562 N550 0.984 . S
H563 N550 0.985 . S
C564 C565 1.363 . S
C564 C570 1.379 . S
C564 N572 1.356 . S
C565 C564 1.363 . S
C565 C571 1.363 . S
C566 C567 1.363 . S
C566 C571 1.379 . S
C566 N573 1.356 . S
C567 C566 1.363 . S
C567 C570 1.363 . S
N568 C570 1.356 . S
N568 H580 0.984 . S
N568 H581 0.985 . S
N569 C571 1.356 . S
N569 H574 0.984 . S
N569 H575 0.985 . S
C570 C564 1.379 . S
C570 C567 1.363 . S
C570 N568 1.356 . S
C571 C565 1.363 . S
C571 C566 1.379 . S
C571 N569 1.356 . S
N572 C564 1.356 . S
N572 H578 0.984 . S
N572 H579 0.984 . S
N573 C566 1.356 . S
N573 H576 0.984 . S
N573 H577 0.985 . S
H574 N569 0.984 . S
H575 N569 0.985 . S
H576 N573 0.984 . S
H577 N573 0.985 . S
H578 N572 0.984 . S
H579 N572 0.984 . S
H580 N568 0.984 . S
H581 N568 0.985 . S
C582 C583 1.363 . S
C582 C588 1.379 . S
C582 N590 1.356 . S
C583 C582 1.363 . S
C583 C589 1.363 . S
C584 C585 1.363 . S
C584 C589 1.379 . S
C584 N591 1.356 . S
C585 C584 1.363 . S
C585 C588 1.363 . S
N586 C588 1.356 . S
N586 H598 0.984 . S
N586 H599 0.985 . S
N587 C589 1.356 . S
N587 H592 0.984 . S
N587 H593 0.985 . S
C588 C582 1.379 . S
C588 C585 1.363 . S
C588 N586 1.356 . S
C589 C583 1.363 . S
C589 C584 1.379 . S
C589 N587 1.356 . S
N590 C582 1.356 . S
N590 H596 0.984 . S
N590 H597 0.984 . S
N591 C584 1.356 . S
N591 H594 0.984 . S
N591 H595 0.985 . S
H592 N587 0.984 . S
H593 N587 0.985 . S
H594 N591 0.984 . S
H595 N591 0.985 . S
H596 N590 0.984 . S
H597 N590 0.984 . S
H598 N586 0.984 . S
H599 N586 0.985 . S
C600 C601 1.363 . S
C600 C606 1.379 . S
C600 N608 1.356 . S
C601 C600 1.363 . S
C601 C607 1.363 . S
C602 C603 1.363 . S
C602 C607 1.379 . S
C602 N609 1.356 . S
C603 C602 1.363 . S
C603 C606 1.363 . S
N604 C606 1.356 . S
N604 H616 0.984 . S
N604 H617 0.985 . S
N605 C607 1.356 . S
N605 H610 0.984 . S
N605 H611 0.985 . S
C606 C600 1.379 . S
C606 C603 1.363 . S
C606 N604 1.356 . S
C607 C601 1.363 . S
C607 C602 1.379 . S
C607 N605 1.356 . S
N608 C600 1.356 . S
N608 H614 0.984 . S
N608 H615 0.984 . S
N609 C602 1.356 . S
N609 H612 0.984 . S
N609 H613 0.985 . S
H610 N605 0.984 . S
H611 N605 0.985 . S
H612 N609 0.984 . S
H613 N609 0.985 . S
H614 N608 0.984 . S
H615 N608 0.984 . S
H616 N604 0.984 . S
H617 N604 0.985 . S
C618 C619 1.363 . S
C618 C624 1.379 . S
C618 N626 1.356 . S
C619 C618 1.363 . S
C619 C625 1.358 . S
C620 C621 1.363 . S
C620 C625 1.381 1_556 S
C620 N627 1.356 . S
C621 C620 1.363 . S
C621 C624 1.363 1_556 S
N622 C624 1.356 . S
N622 H634 0.984 . S
N622 H635 0.985 . S
N623 C625 1.357 1_556 S
N623 H628 0.984 1_556 S
N623 H629 0.985 . S
C624 C618 1.379 . S
C624 C621 1.363 1_554 S
C624 N622 1.356 . S
C625 C619 1.358 . S
C625 C620 1.381 1_554 S
C625 N623 1.357 1_554 S
N626 C618 1.356 . S
N626 H632 0.984 . S
N626 H633 0.984 . S
N627 C620 1.356 . S
N627 H630 0.984 . S
N627 H631 0.985 . S
H628 N623 0.984 1_554 S
H629 N623 0.985 . S
H630 N627 0.984 . S
H631 N627 0.985 . S
H632 N626 0.984 . S
H633 N626 0.984 . S
H634 N622 0.984 . S
H635 N622 0.985 . S
C636 C637 1.363 . S
C636 C642 1.379 . S
C636 N644 1.356 . S
C637 C636 1.363 . S
C637 C643 1.363 . S
C638 C639 1.363 . S
C638 C643 1.379 . S
C638 N645 1.356 . S
C639 C638 1.363 . S
C639 C642 1.363 . S
N640 C642 1.356 . S
N640 H652 0.984 . S
N640 H653 0.985 . S
N641 C643 1.356 . S
N641 H646 0.984 . S
N641 H647 0.985 . S
C642 C636 1.379 . S
C642 C639 1.363 . S
C642 N640 1.356 . S
C643 C637 1.363 . S
C643 C638 1.379 . S
C643 N641 1.356 . S
N644 C636 1.356 . S
N644 H650 0.984 . S
N644 H651 0.984 . S
N645 C638 1.356 . S
N645 H648 0.984 . S
N645 H649 0.985 . S
H646 N641 0.984 . S
H647 N641 0.985 . S
H648 N645 0.984 . S
H649 N645 0.985 . S
H650 N644 0.984 . S
H651 N644 0.984 . S
H652 N640 0.984 . S
H653 N640 0.985 . S
C654 C655 1.363 . S
C654 C660 1.379 . S
C654 N662 1.356 . S
C655 C654 1.363 . S
C655 C661 1.363 . S
C656 C657 1.363 . S
C656 C661 1.379 . S
C656 N663 1.356 . S
C657 C656 1.363 . S
C657 C660 1.363 . S
N658 C660 1.356 . S
N658 H670 0.984 . S
N658 H671 0.985 . S
N659 C661 1.356 . S
N659 H664 0.984 . S
N659 H665 0.985 . S
C660 C654 1.379 . S
C660 C657 1.363 . S
C660 N658 1.356 . S
C661 C655 1.363 . S
C661 C656 1.379 . S
C661 N659 1.356 . S
N662 C654 1.356 . S
N662 H668 0.984 . S
N662 H669 0.984 . S
N663 C656 1.356 . S
N663 H666 0.984 . S
N663 H667 0.985 . S
H664 N659 0.984 . S
H665 N659 0.985 . S
H666 N663 0.984 . S
H667 N663 0.985 . S
H668 N662 0.984 . S
H669 N662 0.984 . S
H670 N658 0.984 . S
H671 N658 0.985 . S
C672 C673 1.363 . S
C672 C678 1.379 . S
C672 N680 1.356 . S
C673 C672 1.363 . S
C673 C679 1.363 . S
C674 C675 1.363 . S
C674 C679 1.379 . S
C674 N681 1.356 . S
C675 C674 1.363 . S
C675 C678 1.363 . S
N676 C678 1.356 . S
N676 H688 0.984 . S
N676 H689 0.985 . S
N677 C679 1.356 . S
N677 H682 0.984 . S
N677 H683 0.985 . S
C678 C672 1.379 . S
C678 C675 1.363 . S
C678 N676 1.356 . S
C679 C673 1.363 . S
C679 C674 1.379 . S
C679 N677 1.356 . S
N680 C672 1.356 . S
N680 H686 0.984 . S
N680 H687 0.984 . S
N681 C674 1.356 . S
N681 H684 0.984 . S
N681 H685 0.985 . S
H682 N677 0.984 . S
H683 N677 0.985 . S
H684 N681 0.984 . S
H685 N681 0.985 . S
H686 N680 0.984 . S
H687 N680 0.984 . S
H688 N676 0.984 . S
H689 N676 0.985 . S
C690 C691 1.363 . S
C690 C696 1.379 . S
C690 N698 1.356 . S
C691 C690 1.363 . S
C691 C697 1.363 . S
C692 C693 1.363 . S
C692 C697 1.379 . S
C692 N699 1.356 . S
C693 C692 1.363 . S
C693 C696 1.363 . S
N694 C696 1.356 . S
N694 H706 0.984 . S
N694 H707 0.985 . S
N695 C697 1.356 . S
N695 H700 0.984 . S
N695 H701 0.985 . S
C696 C690 1.379 . S
C696 C693 1.363 . S
C696 N694 1.356 . S
C697 C691 1.363 . S
C697 C692 1.379 . S
C697 N695 1.356 . S
N698 C690 1.356 . S
N698 H704 0.984 . S
N698 H705 0.984 . S
N699 C692 1.356 . S
N699 H702 0.984 . S
N699 H703 0.985 . S
H700 N695 0.984 . S
H701 N695 0.985 . S
H702 N699 0.984 . S
H703 N699 0.985 . S
H704 N698 0.984 . S
H705 N698 0.984 . S
H706 N694 0.984 . S
H707 N694 0.985 . S
C708 C709 1.363 . S
C708 C714 1.379 . S
C708 N716 1.356 . S
C709 C708 1.363 . S
C709 C715 1.363 . S
C710 C711 1.363 . S
C710 C715 1.379 . S
C710 N717 1.356 . S
C711 C710 1.363 . S
C711 C714 1.363 . S
N712 C714 1.356 . S
N712 H724 0.984 . S
N712 H725 0.985 . S
N713 C715 1.356 . S
N713 H718 0.984 . S
N713 H719 0.985 . S
C714 C708 1.379 . S
C714 C711 1.363 . S
C714 N712 1.356 . S
C715 C709 1.363 . S
C715 C710 1.379 . S
C715 N713 1.356 . S
N716 C708 1.356 . S
N716 H722 0.984 . S
N716 H723 0.984 . S
N717 C710 1.356 . S
N717 H720 0.984 . S
N717 H721 0.985 . S
H718 N713 0.984 . S
H719 N713 0.985 . S
H720 N717 0.984 . S
H721 N717 0.985 . S
H722 N716 0.984 . S
H723 N716 0.984 . S
H724 N712 0.984 . S
H725 N712 0.985 . S
C726 C727 1.363 . S
C726 C732 1.379 . S
C726 N734 1.356 . S
C727 C726 1.363 . S
C727 C733 1.363 . S
C728 C729 1.363 . S
C728 C733 1.379 . S
C728 N735 1.356 . S
C729 C728 1.363 . S
C729 C732 1.363 . S
N730 C732 1.356 . S
N730 H742 0.984 . S
N730 H743 0.985 . S
N731 C733 1.356 . S
N731 H736 0.984 . S
N731 H737 0.985 . S
C732 C726 1.379 . S
C732 C729 1.363 . S
C732 N730 1.356 . S
C733 C727 1.363 . S
C733 C728 1.379 . S
C733 N731 1.356 . S
N734 C726 1.356 . S
N734 H740 0.984 . S
N734 H741 0.984 . S
N735 C728 1.356 . S
N735 H738 0.984 . S
N735 H739 0.985 . S
H736 N731 0.984 . S
H737 N731 0.985 . S
H738 N735 0.984 . S
H739 N735 0.985 . S
H740 N734 0.984 . S
H741 N734 0.984 . S
H742 N730 0.984 . S
H743 N730 0.985 . S
C744 C745 1.363 . S
C744 C750 1.379 . S
C744 N752 1.356 . S
C745 C744 1.363 . S
C745 C751 1.363 . S
C746 C747 1.363 . S
C746 C751 1.379 . S
C746 N753 1.356 . S
C747 C746 1.363 . S
C747 C750 1.363 . S
N748 C750 1.356 . S
N748 H760 0.984 . S
N748 H761 0.985 . S
N749 C751 1.356 . S
N749 H754 0.984 . S
N749 H755 0.985 . S
C750 C744 1.379 . S
C750 C747 1.363 . S
C750 N748 1.356 . S
C751 C745 1.363 . S
C751 C746 1.379 . S
C751 N749 1.356 . S
N752 C744 1.356 . S
N752 H758 0.984 . S
N752 H759 0.984 . S
N753 C746 1.356 . S
N753 H756 0.984 . S
N753 H757 0.985 . S
H754 N749 0.984 . S
H755 N749 0.985 . S
H756 N753 0.984 . S
H757 N753 0.985 . S
H758 N752 0.984 . S
H759 N752 0.984 . S
H760 N748 0.984 . S
H761 N748 0.985 . S
C762 C763 1.363 . S
C762 C768 1.379 . S
C762 N770 1.356 . S
C763 C762 1.363 . S
C763 C769 1.363 . S
C764 C765 1.363 . S
C764 C769 1.379 . S
C764 N771 1.356 . S
C765 C764 1.363 . S
C765 C768 1.363 . S
N766 C768 1.356 . S
N766 H778 0.984 . S
N766 H779 0.985 . S
N767 C769 1.356 . S
N767 H772 0.984 . S
N767 H773 0.985 . S
C768 C762 1.379 . S
C768 C765 1.363 . S
C768 N766 1.356 . S
C769 C763 1.363 . S
C769 C764 1.379 . S
C769 N767 1.356 . S
N770 C762 1.356 . S
N770 H776 0.984 . S
N770 H777 0.984 . S
N771 C764 1.356 . S
N771 H774 0.984 . S
N771 H775 0.985 . S
H772 N767 0.984 . S
H773 N767 0.985 . S
H774 N771 0.984 . S
H775 N771 0.985 . S
H776 N770 0.984 . S
H777 N770 0.984 . S
H778 N766 0.984 . S
H779 N766 0.985 . S
C780 C781 1.363 . S
C780 C786 1.379 . S
C780 N788 1.356 . S
C781 C780 1.363 . S
C781 C787 1.363 . S
C782 C783 1.363 . S
C782 C787 1.379 . S
C782 N789 1.356 . S
C783 C782 1.363 . S
C783 C786 1.363 . S
N784 C786 1.356 . S
N784 H796 0.984 . S
N784 H797 0.985 . S
N785 C787 1.356 . S
N785 H790 0.984 . S
N785 H791 0.985 . S
C786 C780 1.379 . S
C786 C783 1.363 . S
C786 N784 1.356 . S
C787 C781 1.363 . S
C787 C782 1.379 . S
C787 N785 1.356 . S
N788 C780 1.356 . S
N788 H794 0.984 . S
N788 H795 0.984 . S
N789 C782 1.356 . S
N789 H792 0.984 . S
N789 H793 0.985 . S
H790 N785 0.984 . S
H791 N785 0.985 . S
H792 N789 0.984 . S
H793 N789 0.985 . S
H794 N788 0.984 . S
H795 N788 0.984 . S
H796 N784 0.984 . S
H797 N784 0.985 . S
C798 C799 1.363 . S
C798 C804 1.379 . S
C798 N806 1.356 . S
C799 C798 1.363 . S
C799 C805 1.363 . S
C800 C801 1.363 . S
C800 C805 1.379 . S
C800 N807 1.356 . S
C801 C800 1.363 . S
C801 C804 1.363 . S
N802 C804 1.356 . S
N802 H814 0.984 . S
N802 H815 0.985 . S
N803 C805 1.356 . S
N803 H808 0.984 . S
N803 H809 0.985 . S
C804 C798 1.379 . S
C804 C801 1.363 . S
C804 N802 1.356 . S
C805 C799 1.363 . S
C805 C800 1.379 . S
C805 N803 1.356 . S
N806 C798 1.356 . S
N806 H812 0.984 . S
N806 H813 0.984 . S
N807 C800 1.356 . S
N807 H810 0.984 . S
N807 H811 0.985 . S
H808 N803 0.984 . S
H809 N803 0.985 . S
H810 N807 0.984 . S
H811 N807 0.985 . S
H812 N806 0.984 . S
H813 N806 0.984 . S
H814 N802 0.984 . S
H815 N802 0.985 . S
C816 C817 1.363 . S
C816 C822 1.379 . S
C816 N824 1.356 . S
C817 C816 1.363 . S
C817 C823 1.363 . S
C818 C819 1.363 . S
C818 C823 1.379 . S
C818 N825 1.356 . S
C819 C818 1.363 . S
C819 C822 1.363 . S
N820 C822 1.356 . S
N820 H832 0.984 . S
N820 H833 0.985 . S
N821 C823 1.356 . S
N821 H826 0.984 . S
N821 H827 0.985 . S
C822 C816 1.379 . S
C822 C819 1.363 . S
C822 N820 1.356 . S
C823 C817 1.363 . S
C823 C818 1.379 . S
C823 N821 1.356 . S
N824 C816 1.356 . S
N824 H830 0.984 . S
N824 H831 0.984 . S
N825 C818 1.356 . S
N825 H828 0.984 . S
N825 H829 0.985 . S
H826 N821 0.984 . S
H827 N821 0.985 . S
H828 N825 0.984 . S
H829 N825 0.985 . S
H830 N824 0.984 . S
H831 N824 0.984 . S
H832 N820 0.984 . S
H833 N820 0.985 . S
C834 C835 1.363 . S
C834 C840 1.379 . S
C834 N842 1.356 . S
C835 C834 1.363 . S
C835 C841 1.363 . S
C836 C837 1.363 . S
C836 C841 1.379 . S
C836 N843 1.356 . S
C837 C836 1.363 . S
C837 C840 1.363 . S
N838 C840 1.356 . S
N838 H850 0.984 . S
N838 H851 0.985 . S
N839 C841 1.356 . S
N839 H844 0.984 . S
N839 H845 0.985 . S
C840 C834 1.379 . S
C840 C837 1.363 . S
C840 N838 1.356 . S
C841 C835 1.363 . S
C841 C836 1.379 . S
C841 N839 1.356 . S
N842 C834 1.356 . S
N842 H848 0.984 . S
N842 H849 0.984 . S
N843 C836 1.356 . S
N843 H846 0.984 . S
N843 H847 0.985 . S
H844 N839 0.984 . S
H845 N839 0.985 . S
H846 N843 0.984 . S
H847 N843 0.985 . S
H848 N842 0.984 . S
H849 N842 0.984 . S
H850 N838 0.984 . S
H851 N838 0.985 . S
C852 C853 1.363 . S
C852 C858 1.379 . S
C852 N860 1.356 . S
C853 C852 1.363 . S
C853 C859 1.363 . S
C854 C855 1.363 . S
C854 C859 1.379 . S
C854 N861 1.356 . S
C855 C854 1.363 . S
C855 C858 1.363 . S
N856 C858 1.356 . S
N856 H868 0.984 . S
N856 H869 0.985 . S
N857 C859 1.356 . S
N857 H862 0.984 . S
N857 H863 0.985 . S
C858 C852 1.379 . S
C858 C855 1.363 . S
C858 N856 1.356 . S
C859 C853 1.363 . S
C859 C854 1.379 . S
C859 N857 1.356 . S
N860 C852 1.356 . S
N860 H866 0.984 . S
N860 H867 0.984 . S
N861 C854 1.356 . S
N861 H864 0.984 . S
N861 H865 0.985 . S
H862 N857 0.984 . S
H863 N857 0.985 . S
H864 N861 0.984 . S
H865 N861 0.985 . S
H866 N860 0.984 . S
H867 N860 0.984 . S
H868 N856 0.984 . S
H869 N856 0.985 . S
C870 C871 1.363 . S
C870 C876 1.379 . S
C870 N878 1.356 . S
C871 C870 1.363 . S
C871 C877 1.363 . S
C872 C873 1.363 . S
C872 C877 1.379 . S
C872 N879 1.356 . S
C873 C872 1.363 . S
C873 C876 1.363 . S
N874 C876 1.356 . S
N874 H886 0.984 . S
N874 H887 0.985 . S
N875 C877 1.356 . S
N875 H880 0.984 . S
N875 H881 0.985 . S
C876 C870 1.379 . S
C876 C873 1.363 . S
C876 N874 1.356 . S
C877 C871 1.363 . S
C877 C872 1.379 . S
C877 N875 1.356 . S
N878 C870 1.356 . S
N878 H884 0.984 . S
N878 H885 0.984 . S
N879 C872 1.356 . S
N879 H882 0.984 . S
N879 H883 0.985 . S
H880 N875 0.984 . S
H881 N875 0.985 . S
H882 N879 0.984 . S
H883 N879 0.985 . S
H884 N878 0.984 . S
H885 N878 0.984 . S
H886 N874 0.984 . S
H887 N874 0.985 . S
C241 C105 1.427 . S
C243 C5 1.423 . S
C259 C34 1.334 . S
C261 C14 1.336 . S
C277 C45 1.470 . S
C279 C25 1.486 . S
C295 C54 1.427 . S
C297 C74 1.424 . S
C313 C65 1.338 . S
C315 C85 1.332 . S
C331 C114 1.470 . S
C333 C94 1.486 . S
C349 C145 1.427 . S
C351 C125 1.423 . S
C367 C154 1.470 . S
C369 C174 1.486 . S
C385 C185 1.338 . S
C387 C165 1.332 . S
C403 C214 1.427 . S
C405 C194 1.424 . S
C421 C225 1.484 . S
C423 C205 1.472 . S
C439 C134 1.338 . S
C441 C234 1.332 . S
C457 C233 2.146 . S
C459 C8 2.107 . S
C475 C37 1.839 . S
C477 C122 1.883 . S
C493 C153 1.983 . S
C495 C48 1.952 . S
C511 C162 2.146 . S
C513 C77 2.107 . S
C529 C193 1.885 . S
C531 C88 1.837 . S
C547 C117 1.952 . S
C549 C202 1.982 . S
C565 C128 2.104 . S
C567 C33 2.148 . S
C583 C157 1.952 . S
C585 C42 1.982 . S
C601 C73 1.885 . S
C603 C168 1.837 . S
C619 C82 2.146 . S
C621 C197 2.107 . S
C637 C208 1.952 . S
C639 C113 1.982 . S
C655 C237 1.839 . S
C657 C2 1.883 . S
C673 C133 3.047 . S
C675 C13 3.049 . S
C691 C22 2.661 . S
C693 C142 2.676 . S
C709 C173 2.662 . S
C711 C53 2.676 . S
C727 C62 3.047 . S
C729 C182 3.049 . S
C745 C213 2.674 . S
C747 C93 2.664 . S
C763 C222 2.662 . S
C765 C102 2.676 . S
C781 C137 1.205 . S
C783 C17 1.202 . S
C799 C148 1.426 . S
C801 C28 1.435 . S
C817 C177 1.437 . S
C819 C57 1.424 . S
C835 C68 1.204 . S
C837 C188 1.202 . S
C853 C217 1.426 . S
C855 C97 1.434 . S
C871 C228 1.437 . S
C873 C108 1.424 . S
