# Generated by pormake.
# Topology npo, (4)-cn, num edge types: 1
# Building blocks:
#     Node 0, Type 0, BuildingBlock: UXUYUI_clean_sbu_0, # of connection points: 4
#     Node 1, Type 0, BuildingBlock: UXUYUI_clean_sbu_0, # of connection points: 4
#     Node 2, Type 0, BuildingBlock: UXUYUI_clean_sbu_0, # of connection points: 4
#     Node 3, Type 0, BuildingBlock: UXUYUI_clean_sbu_0, # of connection points: 4
#     Node 4, Type 0, BuildingBlock: UXUYUI_clean_sbu_0, # of connection points: 4
#     Node 5, Type 0, BuildingBlock: UXUYUI_clean_sbu_0, # of connection points: 4
#     Edge 6, Type (0, 0), BuildingBlock: OJICUG_clean_linker_0, # of connection points: 2
#     Edge 7, Type (0, 0), BuildingBlock: OJICUG_clean_linker_0, # of connection points: 2
#     Edge 8, Type (0, 0), BuildingBlock: OJICUG_clean_linker_0, # of connection points: 2
#     Edge 9, Type (0, 0), BuildingBlock: OJICUG_clean_linker_0, # of connection points: 2
#     Edge 10, Type (0, 0), BuildingBlock: OJICUG_clean_linker_0, # of connection points: 2
#     Edge 11, Type (0, 0), BuildingBlock: OJICUG_clean_linker_0, # of connection points: 2
#     Edge 12, Type (0, 0), BuildingBlock: OJICUG_clean_linker_0, # of connection points: 2
#     Edge 13, Type (0, 0), BuildingBlock: OJICUG_clean_linker_0, # of connection points: 2
#     Edge 14, Type (0, 0), BuildingBlock: OJICUG_clean_linker_0, # of connection points: 2
#     Edge 15, Type (0, 0), BuildingBlock: OJICUG_clean_linker_0, # of connection points: 2
#     Edge 16, Type (0, 0), BuildingBlock: OJICUG_clean_linker_0, # of connection points: 2
#     Edge 17, Type (0, 0), BuildingBlock: OJICUG_clean_linker_0, # of connection points: 2
# Relax obj value: 0.320
# Max RMSD: 0.247
# Mean RMSD: 0.247
data_MOF--net-npo--node1-UXUYUI_clean_sbu_0--edge1-OJICUG_clean_linker_0
_symmetry_space_group_name_H-M    P1
_symmetry_Int_Tables_number       1
_symmetry_cell_setting            triclinic
loop_
_symmetry_equiv_pos_as_xyz
'x, y, z'
_cell_length_a     50.128701
_cell_length_b     50.069175
_cell_length_c     31.1719
_cell_angle_alpha  90.006673
_cell_angle_beta   89.996468
_cell_angle_gamma 120.02666
loop_
_atom_site_label
_atom_site_type_symbol
_atom_site_fract_x
_atom_site_fract_y
_atom_site_fract_z
_atom_type_partial_charge
Li0 Li 0.51008 0.1158 0.23586 0.0
Li1 Li 0.56257 0.12219 0.24331 0.0
Li2 Li 0.52303 0.07813 0.20286 0.0
Li3 Li 0.52038 0.08084 0.27788 0.0
C4 C 0.54855 0.12521 0.14864 0.0
N5 N 0.56265 0.12558 0.06287 0.0
C6 C 0.57732 0.12958 0.13653 0.0
C7 C 0.52694 0.12099 0.11713 0.0
C8 C 0.58402 0.12975 0.093 0.0
C9 C 0.5345 0.12123 0.07393 0.0
C10 C 0.55604 0.15148 0.30799 0.0
C11 C 0.59802 0.17921 0.35754 0.0
N12 N 0.59931 0.20602 0.34599 0.0
C13 C 0.55768 0.1793 0.29674 0.0
C14 C 0.57627 0.15139 0.33878 0.0
C15 C 0.57974 0.20662 0.31629 0.0
C16 C 0.47189 0.13842 0.26473 0.0
N17 N 0.48954 0.13863 0.2315 0.0
C18 C 0.48749 0.18052 0.1984 0.0
C19 C 0.49694 0.15866 0.19827 0.0
C20 C 0.47059 0.18201 0.23338 0.0
C21 C 0.46198 0.15998 0.26624 0.0
H22 H 0.46709 0.12276 0.29126 0.0
H23 H 0.5119 0.15903 0.17306 0.0
C24 C 0.62719 0.15086 0.26351 0.0
N25 N 0.60442 0.15399 0.24475 0.0
C26 C 0.65727 0.17592 0.26502 0.0
C27 C 0.63976 0.20643 0.22702 0.0
C28 C 0.61016 0.18095 0.22646 0.0
C29 C 0.66377 0.20427 0.24689 0.0
H30 H 0.62198 0.1291 0.27769 0.0
H31 H 0.59156 0.18268 0.21166 0.0
C32 C 0.46271 0.04369 0.25288 0.0
N33 N 0.41602 0.99052 0.28945 0.0
C34 C 0.457 0.01482 0.23865 0.0
C35 C 0.44457 0.04554 0.28549 0.0
C36 C 0.43328 0.9882 0.25757 0.0
C37 C 0.42113 0.01838 0.30367 0.0
C38 C 0.55749 0.05792 0.26566 0.0
C39 C 0.54599 0.02823 0.24897 0.0
C40 C 0.5732 0.06564 0.30482 0.0
C41 C 0.55021 0.00667 0.27196 0.0
C42 C 0.57686 0.0434 0.32688 0.0
N43 N 0.56539 0.01462 0.31013 0.0
C44 C 0.54032 0.0513 0.13738 0.0
C45 C 0.49016 0.04446 0.1302 0.0
C46 C 0.5376 0.03705 0.0979 0.0
N47 N 0.51681 0.05477 0.15249 0.0
C48 C 0.4865 0.03023 0.09046 0.0
C49 C 0.51052 0.0266 0.07375 0.0
H50 H 0.5615 0.06039 0.1555 0.0
H51 H 0.47209 0.04805 0.14285 0.0
C52 C 0.50994 0.07352 0.36661 0.0
N53 N 0.50812 0.05769 0.33027 0.0
C54 C 0.50344 0.05891 0.40643 0.0
C55 C 0.4921 0.01155 0.37068 0.0
C56 C 0.49868 0.02706 0.33152 0.0
C57 C 0.49491 0.02765 0.40884 0.0
H58 H 0.5169 0.09768 0.36482 0.0
H59 H 0.49674 0.01472 0.30226 0.0
O60 O 0.54117 0.12392 0.19115 0.0
O61 O 0.53519 0.12456 0.28837 0.0
O62 O 0.48593 0.06999 0.23492 0.0
O63 O 0.55368 0.07935 0.24352 0.0
H64 H 0.59413 0.13234 0.16046 0.0
H65 H 0.50434 0.11696 0.12594 0.0
H66 H 0.60615 0.13299 0.08317 0.0
H67 H 0.51792 0.11777 0.04922 0.0
H68 H 0.61394 0.17949 0.38121 0.0
H69 H 0.5424 0.1799 0.27279 0.0
H70 H 0.57538 0.13009 0.34778 0.0
H71 H 0.58138 0.22833 0.3077 0.0
H72 H 0.49525 0.19746 0.17288 0.0
H73 H 0.44895 0.16032 0.29375 0.0
H74 H 0.67504 0.17328 0.28083 0.0
H75 H 0.64377 0.22756 0.21178 0.0
H76 H 0.47095 0.01298 0.21365 0.0
H77 H 0.44876 0.06771 0.29693 0.0
H78 H 0.4287 0.9657 0.24705 0.0
H79 H 0.40703 0.01946 0.32913 0.0
H80 H 0.5336 0.02175 0.21888 0.0
H81 H 0.582 0.08839 0.31839 0.0
H82 H 0.5413 0.98357 0.25954 0.0
H83 H 0.58872 0.04899 0.3574 0.0
H84 H 0.55678 0.03504 0.08585 0.0
H85 H 0.46517 0.02223 0.07296 0.0
H86 H 0.50599 0.0722 0.43511 0.0
H87 H 0.48507 0.98727 0.37111 0.0
Li88 Li 0.45697 0.54843 0.8101 0.0
Li89 Li 0.47024 0.59033 0.75879 0.0
Li90 Li 0.41709 0.54337 0.75887 0.0
Li91 Li 0.46191 0.54197 0.73171 0.0
C92 C 0.42491 0.58062 0.83841 0.0
N93 N 0.39746 0.59256 0.90702 0.0
C94 C 0.43978 0.60943 0.85856 0.0
C95 C 0.3958 0.55808 0.85276 0.0
C96 C 0.42562 0.61496 0.89332 0.0
C97 C 0.38237 0.56451 0.88758 0.0
C98 C 0.52334 0.5942 0.77794 0.0
C99 C 0.56927 0.63709 0.7483 0.0
N100 N 0.58166 0.64459 0.78833 0.0
C101 C 0.5366 0.60221 0.81874 0.0
C102 C 0.53987 0.61163 0.74237 0.0
C103 C 0.56609 0.6278 0.82334 0.0
C104 C 0.46445 0.51239 0.8729 0.0
N105 N 0.46416 0.53907 0.86643 0.0
C106 C 0.4744 0.5522 0.94062 0.0
C107 C 0.46929 0.55905 0.89911 0.0
C108 C 0.47448 0.52461 0.94846 0.0
C109 C 0.46949 0.5046 0.91389 0.0
H110 H 0.46078 0.49717 0.84614 0.0
H111 H 0.46977 0.58048 0.89295 0.0
C112 C 0.48559 0.64517 0.71549 0.0
N113 N 0.49104 0.63389 0.75202 0.0
C114 C 0.49681 0.67674 0.71104 0.0
C115 C 0.52 0.68465 0.7813 0.0
C116 C 0.50835 0.6529 0.78436 0.0
C117 C 0.51359 0.69684 0.74469 0.0
H118 H 0.47133 0.62953 0.69059 0.0
H119 H 0.51206 0.64329 0.81327 0.0
C120 C 0.40667 0.48511 0.78758 0.0
N121 N 0.35971 0.42967 0.81864 0.0
C122 C 0.39553 0.45825 0.76302 0.0
C123 C 0.3942 0.48364 0.82819 0.0
C124 C 0.3717 0.43048 0.7792 0.0
C125 C 0.37041 0.45545 0.84327 0.0
C126 C 0.44257 0.56212 0.66673 0.0
C127 C 0.41474 0.54113 0.64722 0.0
C128 C 0.46922 0.57788 0.64184 0.0
C129 C 0.41414 0.53592 0.6031 0.0
C130 C 0.46768 0.57196 0.59785 0.0
N131 N 0.44041 0.55126 0.57955 0.0
C132 C 0.36988 0.55547 0.74912 0.0
C133 C 0.35182 0.50181 0.74496 0.0
C134 C 0.34028 0.55044 0.7422 0.0
N135 N 0.37508 0.53135 0.75049 0.0
C136 C 0.3217 0.49567 0.73804 0.0
C137 C 0.31572 0.52024 0.73635 0.0
H138 H 0.3889 0.57871 0.75342 0.0
H139 H 0.35657 0.48305 0.74533 0.0
C140 C 0.50437 0.5353 0.67919 0.0
N141 N 0.47405 0.52368 0.68835 0.0
C142 C 0.51311 0.52528 0.64281 0.0
C143 C 0.45925 0.49058 0.62724 0.0
C144 C 0.4516 0.50119 0.66394 0.0
C145 C 0.49036 0.50316 0.61572 0.0
H146 H 0.52174 0.55308 0.69927 0.0
H147 H 0.42767 0.49272 0.6717 0.0
O148 O 0.4384 0.57498 0.80399 0.0
O149 O 0.49443 0.56931 0.77286 0.0
O150 O 0.42999 0.51247 0.77206 0.0
O151 O 0.44376 0.567 0.71004 0.0
H152 H 0.46212 0.6273 0.84771 0.0
H153 H 0.38341 0.53599 0.83693 0.0
H154 H 0.43701 0.63709 0.90936 0.0
H155 H 0.35988 0.54724 0.89901 0.0
H156 H 0.58222 0.65092 0.7211 0.0
H157 H 0.52426 0.58885 0.84658 0.0
H158 H 0.52995 0.60579 0.71058 0.0
H159 H 0.57658 0.63434 0.85475 0.0
H160 H 0.47804 0.56824 0.9663 0.0
H161 H 0.46996 0.48339 0.91829 0.0
H162 H 0.49081 0.68501 0.68259 0.0
H163 H 0.53298 0.69937 0.80788 0.0
H164 H 0.40512 0.45881 0.73175 0.0
H165 H 0.40299 0.50392 0.84813 0.0
H166 H 0.36277 0.40957 0.76043 0.0
H167 H 0.36054 0.45404 0.87462 0.0
H168 H 0.3939 0.52873 0.66599 0.0
H169 H 0.49092 0.59425 0.65643 0.0
H170 H 0.39281 0.51958 0.5876 0.0
H171 H 0.48818 0.58376 0.57827 0.0
H172 H 0.33664 0.57001 0.74178 0.0
H173 H 0.30343 0.47209 0.73327 0.0
H174 H 0.53736 0.53524 0.63547 0.0
H175 H 0.44094 0.47384 0.60702 0.0
Li176 Li 0.87165 0.46085 0.22362 0.0
Li177 Li 0.90661 0.45403 0.27424 0.0
Li178 Li 0.91149 0.4538 0.1942 0.0
Li179 Li 0.86949 0.41179 0.22917 0.0
C180 C 0.91686 0.51547 0.2368 0.0
N181 N 0.91443 0.56906 0.24678 0.0
C182 C 0.92113 0.52903 0.27727 0.0
C183 C 0.9115 0.52927 0.20135 0.0
C184 C 0.9198 0.55611 0.28166 0.0
C185 C 0.9103 0.55631 0.20708 0.0
C186 C 0.83672 0.41257 0.29594 0.0
C187 C 0.81396 0.37282 0.34985 0.0
N188 N 0.78543 0.36559 0.33575 0.0
C189 C 0.80719 0.40489 0.28214 0.0
C190 C 0.84018 0.3965 0.33013 0.0
C191 C 0.78155 0.381 0.30262 0.0
C192 C 0.83085 0.4756 0.18162 0.0
N193 N 0.84515 0.47756 0.21945 0.0
C194 C 0.81261 0.4922 0.25613 0.0
C195 C 0.83718 0.4865 0.25613 0.0
C196 C 0.79613 0.48851 0.218 0.0
C197 C 0.80636 0.48131 0.18006 0.0
H198 H 0.83723 0.46785 0.15315 0.0
H199 H 0.8486 0.48722 0.28592 0.0
C200 C 0.95694 0.47385 0.33067 0.0
N201 N 0.92684 0.46595 0.3278 0.0
C202 C 0.97195 0.48194 0.37026 0.0
C203 C 0.92485 0.47433 0.40284 0.0
C204 C 0.91077 0.46636 0.36265 0.0
C205 C 0.9558 0.48204 0.40709 0.0
H206 H 0.96915 0.47354 0.30222 0.0
H207 H 0.88694 0.46037 0.35921 0.0
C208 C 0.87065 0.42893 0.13431 0.0
N209 N 0.87882 0.42172 0.04824 0.0
C210 C 0.86682 0.40093 0.11917 0.0
C211 C 0.87854 0.45322 0.10558 0.0
C212 C 0.87102 0.39773 0.07555 0.0
C213 C 0.88265 0.44915 0.06224 0.0
C214 C 0.91368 0.39882 0.24746 0.0
C215 C 0.90782 0.3769 0.21559 0.0
C216 C 0.91949 0.39331 0.28946 0.0
C217 C 0.90786 0.34982 0.22628 0.0
C218 C 0.91939 0.36597 0.29885 0.0
N219 N 0.91361 0.34497 0.26733 0.0
C220 C 0.9541 0.49578 0.13448 0.0
C221 C 0.94433 0.44456 0.12703 0.0
C222 C 0.9715 0.50455 0.09685 0.0
N223 N 0.9403 0.46604 0.14812 0.0
C224 C 0.96152 0.45229 0.08923 0.0
C225 C 0.97478 0.48249 0.07317 0.0
H226 H 0.95078 0.51247 0.15202 0.0
H227 H 0.93305 0.42108 0.13841 0.0
C228 C 0.81382 0.36306 0.20429 0.0
N229 N 0.83825 0.369 0.22963 0.0
C230 C 0.78654 0.33496 0.20706 0.0
C231 C 0.8101 0.31865 0.26086 0.0
C232 C 0.83698 0.3474 0.25745 0.0
C233 C 0.78428 0.31266 0.23625 0.0
H234 H 0.81487 0.38089 0.18363 0.0
H235 H 0.85591 0.35299 0.27894 0.0
O236 O 0.91747 0.48862 0.232 0.0
O237 O 0.86211 0.43522 0.27542 0.0
O238 O 0.8673 0.43274 0.1771 0.0
O239 O 0.91429 0.42574 0.2375 0.0
H240 H 0.92532 0.51874 0.30505 0.0
H241 H 0.90774 0.5189 0.16987 0.0
H242 H 0.92298 0.56681 0.31283 0.0
H243 H 0.90594 0.56709 0.17998 0.0
H244 H 0.81628 0.36004 0.37615 0.0
H245 H 0.80411 0.41689 0.25544 0.0
H246 H 0.86288 0.40189 0.34082 0.0
H247 H 0.75856 0.37461 0.29204 0.0
H248 H 0.80532 0.49728 0.28624 0.0
H249 H 0.79458 0.47861 0.14987 0.0
H250 H -0.00403 0.48821 0.37198 0.0
H251 H 0.91148 0.47389 0.4304 0.0
H252 H 0.86103 0.38196 0.14088 0.0
H253 H 0.88212 0.47523 0.11675 0.0
H254 H 0.86825 0.37624 0.06346 0.0
H255 H 0.88906 0.46785 0.03977 0.0
H256 H 0.90282 0.38047 0.18309 0.0
H257 H 0.92385 0.40981 0.31466 0.0
H258 H 0.90321 0.33261 0.20197 0.0
H259 H 0.92381 0.36142 0.33122 0.0
H260 H 0.98182 0.52822 0.08602 0.0
H261 H 0.96324 0.43449 0.07183 0.0
H262 H 0.76699 0.33108 0.18765 0.0
H263 H 0.80889 0.30207 0.28422 0.0
Li264 Li 0.46723 0.91628 0.70167 0.0
Li265 Li 0.46935 0.91378 0.77935 0.0
Li266 Li 0.47891 0.87991 0.73365 0.0
Li267 Li 0.42708 0.87281 0.74131 0.0
C268 C 0.53231 0.93001 0.74111 0.0
N269 N 0.59013 0.93643 0.74911 0.0
C270 C 0.54763 0.9383 0.78054 0.0
C271 C 0.54647 0.92514 0.70569 0.0
C272 C 0.57685 0.94142 0.78393 0.0
C273 C 0.57567 0.92843 0.71042 0.0
C274 C 0.43414 0.93815 0.7646 0.0
C275 C 0.41591 0.95452 0.82515 0.0
N276 N 0.42943 0.98352 0.80859 0.0
C277 C 0.44779 0.9681 0.74813 0.0
C278 C 0.41795 0.93123 0.80333 0.0
C279 C 0.44514 0.99072 0.77085 0.0
C280 C 0.44934 0.94214 0.63582 0.0
N281 N 0.47388 0.94134 0.65284 0.0
C282 C 0.50582 0.97074 0.59441 0.0
C283 C 0.50193 0.95569 0.63352 0.0
C284 C 0.48062 0.97109 0.5753 0.0
C285 C 0.45221 0.95703 0.59684 0.0
H286 H 0.42726 0.93028 0.65188 0.0
H287 H 0.52102 0.9547 0.64785 0.0
C288 C 0.4751 0.92028 0.86863 0.0
N289 N 0.48097 0.9364 0.83144 0.0
C290 C 0.48174 0.93551 0.90794 0.0
C291 C 0.5013 0.98386 0.86996 0.0
C292 C 0.49451 0.96767 0.83129 0.0
C293 C 0.49463 0.96767 0.90892 0.0
H294 H 0.46504 0.89554 0.86782 0.0
H295 H 0.49964 0.97996 0.80116 0.0
C296 C 0.44273 0.87109 0.64601 0.0
N297 N 0.43172 0.87299 0.55952 0.0
C298 C 0.41364 0.86467 0.6319 0.0
C299 C 0.46618 0.87834 0.61612 0.0
C300 C 0.40853 0.86574 0.58804 0.0
C301 C 0.46017 0.87926 0.57255 0.0
C302 C 0.4326 0.84245 0.80519 0.0
C303 C 0.43148 0.81488 0.79393 0.0
C304 C 0.41132 0.84195 0.83467 0.0
C305 C 0.40901 0.78723 0.81228 0.0
C306 C 0.38917 0.81382 0.85223 0.0
N307 N 0.38848 0.78727 0.84077 0.0
C308 C 0.51576 0.85637 0.76478 0.0
C309 C 0.49416 0.83822 0.69592 0.0
C310 C 0.52593 0.83506 0.76669 0.0
N311 N 0.4997 0.8571 0.73011 0.0
C312 C 0.50378 0.81647 0.69654 0.0
C313 C 0.51901 0.814 0.73288 0.0
H314 H 0.51913 0.87115 0.79197 0.0
H315 H 0.48053 0.83865 0.66938 0.0
C316 C 0.36244 0.84526 0.76087 0.0
N317 N 0.38499 0.84164 0.74235 0.0
C318 C 0.33225 0.82041 0.76276 0.0
C319 C 0.34922 0.78917 0.7255 0.0
C320 C 0.37891 0.81444 0.72449 0.0
C321 C 0.32545 0.79179 0.74532 0.0
H322 H 0.36796 0.86719 0.77477 0.0
H323 H 0.39735 0.81235 0.70988 0.0
O324 O 0.50358 0.92657 0.73724 0.0
O325 O 0.43676 0.91577 0.74306 0.0
O326 O 0.44843 0.87099 0.68892 0.0
O327 O 0.45387 0.86969 0.78667 0.0
H328 H 0.53704 0.94214 0.8083 0.0
H329 H 0.5348 0.91835 0.67506 0.0
H330 H 0.58894 0.94774 0.81427 0.0
H331 H 0.58679 0.9245 0.68336 0.0
H332 H 0.40369 0.94956 0.85534 0.0
H333 H 0.46056 0.97392 0.71835 0.0
H334 H 0.40755 0.90828 0.81679 0.0
H335 H 0.45569 0.01402 0.75858 0.0
H336 H 0.52821 0.98171 0.57909 0.0
H337 H 0.43217 0.95657 0.583 0.0
H338 H 0.47613 0.92216 0.93726 0.0
H339 H 0.51169 0.00873 0.86941 0.0
H340 H 0.39532 0.85938 0.65459 0.0
H341 H 0.48893 0.88373 0.62652 0.0
H342 H 0.38618 0.86098 0.57668 0.0
H343 H 0.47817 0.8851 0.5491 0.0
H344 H 0.44749 0.81469 0.7709 0.0
H345 H 0.41158 0.86299 0.84336 0.0
H346 H 0.4078 0.76571 0.80371 0.0
H347 H 0.37244 0.81308 0.87483 0.0
H348 H 0.53777 0.83409 0.79519 0.0
H349 H 0.49737 0.80036 0.67012 0.0
H350 H 0.31464 0.82338 0.77847 0.0
H351 H 0.34494 0.76779 0.71078 0.0
Li352 Li 0.53476 0.44835 0.31013 0.0
Li353 Li 0.5213 0.40629 0.25902 0.0
Li354 Li 0.57452 0.45321 0.25881 0.0
Li355 Li 0.5297 0.45465 0.23175 0.0
C356 C 0.56655 0.41576 0.33836 0.0
N357 N 0.59365 0.40311 0.40674 0.0
C358 C 0.55136 0.38691 0.35838 0.0
C359 C 0.5958 0.43797 0.35272 0.0
C360 C 0.56534 0.38102 0.39302 0.0
C361 C 0.60905 0.43119 0.38742 0.0
C362 C 0.46823 0.40273 0.27822 0.0
C363 C 0.42214 0.35991 0.24877 0.0
N364 N 0.40972 0.35269 0.2888 0.0
C365 C 0.45493 0.39501 0.31901 0.0
C366 C 0.45165 0.38518 0.24274 0.0
C367 C 0.42534 0.36958 0.32371 0.0
C368 C 0.52761 0.48454 0.37309 0.0
N369 N 0.5277 0.45777 0.36648 0.0
C370 C 0.51738 0.44452 0.44062 0.0
C371 C 0.52243 0.43769 0.39907 0.0
C372 C 0.51749 0.47219 0.4486 0.0
C373 C 0.52263 0.49231 0.41413 0.0
H374 H 0.53138 0.49984 0.3464 0.0
H375 H 0.52179 0.41619 0.39279 0.0
C376 C 0.50612 0.35137 0.2162 0.0
N377 N 0.50037 0.3627 0.25243 0.0
C378 C 0.49466 0.31977 0.21173 0.0
C379 C 0.47063 0.31191 0.28136 0.0
C380 C 0.48259 0.34371 0.28449 0.0
C381 C 0.47727 0.29964 0.24503 0.0
H382 H 0.52077 0.367 0.19154 0.0
H383 H 0.47866 0.35335 0.31321 0.0
C384 C 0.58507 0.51148 0.28767 0.0
N385 N 0.6321 0.56671 0.31915 0.0
C386 C 0.59614 0.53849 0.26349 0.0
C387 C 0.59765 0.51268 0.32811 0.0
C388 C 0.62001 0.56615 0.27988 0.0
C389 C 0.62146 0.54077 0.34341 0.0
C390 C 0.54879 0.43423 0.16681 0.0
C391 C 0.57653 0.45529 0.14715 0.0
C392 C 0.5221 0.41829 0.14205 0.0
C393 C 0.577 0.46037 0.10301 0.0
C394 C 0.52351 0.4241 0.09803 0.0
N395 N 0.55069 0.44485 0.07959 0.0
C396 C 0.62177 0.44114 0.24906 0.0
C397 C 0.63971 0.49477 0.2446 0.0
C398 C 0.65139 0.44623 0.24208 0.0
N399 N 0.61651 0.46522 0.25032 0.0
C400 C 0.66984 0.50096 0.23763 0.0
C401 C 0.67589 0.47645 0.23605 0.0
H402 H 0.6028 0.4179 0.25349 0.0
H403 H 0.63489 0.51349 0.24486 0.0
C404 C 0.48729 0.46121 0.17894 0.0
N405 N 0.5176 0.47291 0.18831 0.0
C406 C 0.47864 0.47123 0.1425 0.0
C407 C 0.53251 0.50611 0.1273 0.0
C408 C 0.54009 0.49548 0.16406 0.0
C409 C 0.50144 0.49345 0.11557 0.0
H410 H 0.46989 0.44337 0.1989 0.0
H411 H 0.56401 0.50403 0.17201 0.0
O412 O 0.55325 0.42173 0.30404 0.0
O413 O 0.49724 0.42745 0.27303 0.0
O414 O 0.56173 0.48421 0.27193 0.0
O415 O 0.54772 0.42948 0.21014 0.0
H416 H 0.5289 0.36929 0.34753 0.0
H417 H 0.60843 0.46008 0.33699 0.0
H418 H 0.5537 0.35887 0.40897 0.0
H419 H 0.63164 0.44822 0.39886 0.0
H420 H 0.40915 0.346 0.22165 0.0
H421 H 0.4673 0.40845 0.34677 0.0
H422 H 0.4616 0.3908 0.21096 0.0
H423 H 0.41481 0.36328 0.35512 0.0
H424 H 0.51363 0.42839 0.46622 0.0
H425 H 0.5223 0.51359 0.41864 0.0
H426 H 0.50089 0.31147 0.18353 0.0
H427 H 0.45718 0.2972 0.30768 0.0
H428 H 0.58648 0.53812 0.23234 0.0
H429 H 0.5889 0.49226 0.34776 0.0
H430 H 0.6289 0.58719 0.26139 0.0
H431 H 0.63141 0.54198 0.37464 0.0
H432 H 0.5974 0.46782 0.16583 0.0
H433 H 0.50047 0.40187 0.15675 0.0
H434 H 0.59826 0.47675 0.08741 0.0
H435 H 0.50297 0.41216 0.07855 0.0
H436 H 0.65509 0.4267 0.24175 0.0
H437 H 0.68806 0.52455 0.23271 0.0
H438 H 0.4544 0.46122 0.13499 0.0
H439 H 0.55087 0.52293 0.10722 0.0
Li440 Li 0.08378 0.54113 0.77429 0.0
Li441 Li 0.11925 0.53504 0.7238 0.0
Li442 Li 0.12063 0.58371 0.72944 0.0
Li443 Li 0.07904 0.54143 0.69423 0.0
C444 C 0.15329 0.5834 0.79661 0.0
N445 N 0.20371 0.63089 0.83725 0.0
C446 C 0.1831 0.59165 0.78345 0.0
C447 C 0.1491 0.59915 0.83059 0.0
C448 C 0.20829 0.61579 0.80434 0.0
C449 C 0.1749 0.6231 0.85073 0.0
C450 C 0.07456 0.4801 0.73651 0.0
C451 C 0.08192 0.43985 0.70645 0.0
N452 N 0.07797 0.42702 0.74607 0.0
C453 C 0.07049 0.46648 0.7769 0.0
C454 C 0.08022 0.46664 0.70094 0.0
C455 C 0.07232 0.43965 0.78108 0.0
C456 C 0.03332 0.52075 0.8306 0.0
N457 N 0.06348 0.52886 0.82776 0.0
C458 C 0.06546 0.52032 0.90275 0.0
C459 C 0.07957 0.52845 0.86258 0.0
C460 C 0.03446 0.51245 0.90698 0.0
C461 C 0.01828 0.51251 0.87017 0.0
H462 H 0.0211 0.52106 0.80217 0.0
H463 H 0.10345 0.53463 0.85916 0.0
C464 C 0.16062 0.52095 0.68194 0.0
N465 N 0.14622 0.51886 0.71973 0.0
C466 C 0.18525 0.51543 0.68045 0.0
C467 C 0.17897 0.50455 0.75652 0.0
C468 C 0.15428 0.51006 0.75645 0.0
C469 C 0.1955 0.50829 0.71841 0.0
H470 H 0.15416 0.52858 0.65344 0.0
H471 H 0.14278 0.50923 0.7862 0.0
C472 C 0.0759 0.59587 0.74772 0.0
N473 N 0.07507 0.64922 0.76791 0.0
C474 C 0.08139 0.61775 0.71595 0.0
C475 C 0.07001 0.60117 0.78979 0.0
C476 C 0.0809 0.64457 0.7268 0.0
C477 C 0.06966 0.62826 0.79934 0.0
C478 C 0.11998 0.56693 0.63455 0.0
C479 C 0.12345 0.59482 0.61959 0.0
C480 C 0.11252 0.54282 0.60566 0.0
C481 C 0.11933 0.59809 0.57598 0.0
C482 C 0.10848 0.54697 0.56232 0.0
N483 N 0.11195 0.57429 0.5485 0.0
C484 C 0.17605 0.63275 0.70482 0.0
C485 C 0.15245 0.64822 0.75758 0.0
C486 C 0.20315 0.66101 0.70756 0.0
N487 N 0.15149 0.62664 0.72998 0.0
C488 C 0.17915 0.67713 0.76095 0.0
C489 C 0.2051 0.68329 0.73652 0.0
H490 H 0.17526 0.61496 0.68435 0.0
H491 H 0.13342 0.64251 0.77894 0.0
C492 C 0.03672 0.49922 0.63437 0.0
N493 N 0.0503 0.52894 0.64804 0.0
C494 C 0.01929 0.49031 0.59676 0.0
C495 C 0.02883 0.54242 0.58917 0.0
C496 C 0.04604 0.55028 0.62696 0.0
C497 C 0.01576 0.51223 0.57312 0.0
H498 H 0.04021 0.48264 0.65191 0.0
H499 H 0.05715 0.57375 0.63835 0.0
O500 O 0.12833 0.5605 0.77568 0.0
O501 O 0.07349 0.50674 0.73193 0.0
O502 O 0.0757 0.56917 0.7376 0.0
O503 O 0.12327 0.56303 0.67733 0.0
H504 H 0.18674 0.57988 0.75694 0.0
H505 H 0.12617 0.59331 0.8408 0.0
H506 H 0.23149 0.62262 0.79426 0.0
H507 H 0.17201 0.63564 0.87687 0.0
H508 H 0.08652 0.42933 0.67926 0.0
H509 H 0.06607 0.47653 0.80477 0.0
H510 H 0.08383 0.47708 0.66953 0.0
H511 H 0.06929 0.42891 0.81217 0.0
H512 H 0.07885 0.5208 0.9303 0.0
H513 H 0.99423 0.50613 0.87189 0.0
H514 H 0.19706 0.51817 0.65028 0.0
H515 H 0.18628 0.49951 0.78664 0.0
H516 H 0.08645 0.61434 0.6834 0.0
H517 H 0.06594 0.58471 0.81492 0.0
H518 H 0.08526 0.66175 0.70257 0.0
H519 H 0.06517 0.63265 0.83176 0.0
H520 H 0.12888 0.61364 0.64143 0.0
H521 H 0.10923 0.52089 0.61669 0.0
H522 H 0.12181 0.61951 0.56402 0.0
H523 H 0.10241 0.5284 0.53971 0.0
H524 H 0.22282 0.66502 0.68831 0.0
H525 H 0.18014 0.69371 0.78414 0.0
H526 H 0.00912 0.46665 0.58595 0.0
H527 H 0.02693 0.56012 0.5718 0.0
C528 C 0.45916 0.22151 0.20227 0.0
C529 C 0.46601 0.20895 0.23808 0.0
H530 H 0.45656 0.25981 0.17658 0.0
C531 C 0.47244 0.22463 0.27748 0.0
H532 H 0.45366 0.20973 0.17163 0.0
C533 C 0.47416 0.25327 0.2803 0.0
C534 C 0.46947 0.26687 0.24377 0.0
H535 H 0.47826 0.21585 0.30556 0.0
H536 H 0.48121 0.26562 0.31047 0.0
C537 C 0.46085 0.25018 0.20509 0.0
C538 C 0.27977 0.53449 0.70112 0.0
C539 C 0.28419 0.51479 0.72854 0.0
H540 H 0.24857 0.54801 0.6767 0.0
C541 C 0.25861 0.49108 0.74996 0.0
H542 H 0.29894 0.55268 0.68366 0.0
C543 C 0.22944 0.48808 0.74552 0.0
C544 C 0.2253 0.50863 0.71938 0.0
H545 H 0.26134 0.47559 0.7714 0.0
H546 H 0.21026 0.47006 0.76317 0.0
C547 C 0.25073 0.53149 0.69665 0.0
C548 C 0.7215 0.22878 0.24138 0.0
C549 C 0.69527 0.23162 0.24828 0.0
H550 H 0.7706 0.2525 0.2323 0.0
C551 C 0.69914 0.26116 0.25462 0.0
H552 H 0.7193 0.20637 0.23622 0.0
C553 C 0.72824 0.28731 0.25173 0.0
C554 C 0.75419 0.28454 0.24302 0.0
H555 H 0.67958 0.26414 0.26125 0.0
H556 H 0.73045 0.30983 0.25583 0.0
C557 C 0.7508 0.25509 0.23898 0.0
C558 C 0.51623 0.77085 0.77682 0.0
C559 C 0.52356 0.78703 0.73774 0.0
H560 H 0.50725 0.72972 0.80954 0.0
C561 C 0.53154 0.77504 0.70235 0.0
H562 H 0.50948 0.77911 0.80456 0.0
C563 C 0.53014 0.7465 0.7052 0.0
C564 C 0.52082 0.72943 0.74353 0.0
H565 H 0.53776 0.78718 0.67199 0.0
H566 H 0.53531 0.73729 0.67698 0.0
C567 C 0.51491 0.74242 0.77969 0.0
C568 C 0.73301 0.50571 0.24954 0.0
C569 C 0.70743 0.48195 0.22818 0.0
H570 H 0.78138 0.52678 0.26268 0.0
C571 C 0.71186 0.46225 0.20076 0.0
H572 H 0.73027 0.5212 0.27096 0.0
C573 C 0.7409 0.46528 0.19626 0.0
C574 C 0.76634 0.48819 0.21894 0.0
H575 H 0.69268 0.44401 0.18337 0.0
H576 H 0.74307 0.44875 0.17633 0.0
C577 C 0.7622 0.50875 0.24505 0.0
C578 C 0.26771 0.76727 0.74008 0.0
C579 C 0.29395 0.76454 0.74757 0.0
H580 H 0.21861 0.74335 0.73087 0.0
C581 C 0.29009 0.73514 0.75517 0.0
H582 H 0.26993 0.78959 0.73402 0.0
C583 C 0.261 0.70894 0.75279 0.0
C584 C 0.23506 0.71155 0.74331 0.0
H585 H 0.30967 0.73228 0.76228 0.0
H586 H 0.25881 0.6865 0.75772 0.0
C587 C 0.23841 0.74091 0.73815 0.0
C588 C 0.51311 0.97627 0.98505 0.0
C589 C 0.50022 0.98394 0.95049 0.0
H590 H 0.52635 0.98366 0.05119 0.0
C591 C 0.49151 0.00634 0.95641 0.0
H592 H 0.52028 0.95927 0.98128 0.0
C593 C 0.49502 0.02032 -0.00362 0.0
C594 C 0.50747 0.0123 0.03112 0.0
H595 H 0.48128 0.01252 0.93043 0.0
H596 H 0.48803 0.03746 9e-05 0.0
C597 C 0.51679 0.99038 0.02494 0.0
C598 C 0.48903 0.45679 0.5187 0.0
C599 C 0.51168 0.47976 0.49241 0.0
H600 H 0.46492 0.44601 0.57855 0.0
C601 C 0.52827 0.51016 0.50792 0.0
H602 H 0.47564 0.43319 0.50759 0.0
C603 C 0.52186 0.51757 0.54836 0.0
C604 C 0.49876 0.49472 0.57429 0.0
H605 H 0.54615 0.52832 0.48871 0.0
H606 H 0.53443 0.54139 0.55877 0.0
C607 C 0.48266 0.46419 0.5592 0.0
C608 C -0.00032 0.51597 0.96166 0.0
C609 C 0.01927 0.50474 0.94964 0.0
H610 H 0.97017 0.51759 0.00984 0.0
C611 C 0.02443 0.48636 0.97879 0.0
H612 H 0.9955 0.53047 0.94014 0.0
C613 C 0.01021 0.4793 0.01901 0.0
C614 C 0.99061 0.49054 0.03099 0.0
H615 H 0.03919 0.47713 0.97033 0.0
H616 H 0.01472 0.46518 0.04084 0.0
C617 C 0.98551 0.50895 0.00185 0.0
C618 C 0.47402 0.01739 0.48389 0.0
C619 C 0.49019 0.01233 0.45105 0.0
H620 H 0.45843 0.00843 0.54906 0.0
C621 C 0.50281 0.99332 0.45921 0.0
H622 H 0.46385 0.03175 0.47839 0.0
C623 C 0.49967 0.97995 0.49954 0.0
C624 C 0.48375 0.98523 0.53251 0.0
H625 H 0.51567 0.98925 0.43466 0.0
H626 H 0.50956 0.96532 0.50484 0.0
C627 C 0.47074 0.00388 0.5242 0.0
C628 C 0.46378 0.48653 0.00758 0.0
C629 C 0.48029 0.51698 0.99223 0.0
H630 H 0.45763 0.45523 0.05831 0.0
C631 C 0.50283 0.53994 0.01866 0.0
H632 H 0.44599 0.46838 0.98826 0.0
C633 C 0.50916 0.53249 0.05914 0.0
C634 C 0.49312 0.50192 0.07409 0.0
H635 H 0.51615 0.56357 0.00767 0.0
H636 H 0.52681 0.55066 0.07861 0.0
C637 C 0.47015 0.47908 0.04801 0.0
C638 C 0.98013 0.51521 0.51911 0.0
C639 C -0.00019 0.50405 0.53101 0.0
H640 H 0.95106 0.51732 0.47052 0.0
C641 C 0.00489 0.48563 0.50186 0.0
H642 H 0.97562 0.52932 0.54094 0.0
C643 C 0.99064 0.47854 0.46171 0.0
C644 C 0.971 0.48973 0.44974 0.0
H645 H 0.02028 0.47704 0.50978 0.0
H646 H 0.99482 0.46404 0.44018 0.0
C647 C 0.96585 0.5081 0.47893 0.0
loop_
_geom_bond_atom_site_label_1
_geom_bond_atom_site_label_2
_geom_bond_distance
_geom_bond_site_symmetry_2
_ccdc_geom_bond_type
Li0 N17 1.990 . S
Li0 O60 1.956 . S
Li0 O61 1.970 . S
Li0 O62 1.961 . S
Li1 N25 1.990 . S
Li1 O60 1.970 . S
Li1 O61 1.956 . S
Li1 O63 1.961 . S
Li2 N47 1.990 . S
Li2 O60 1.961 . S
Li2 O62 1.956 . S
Li2 O63 1.970 . S
Li3 N53 1.990 . S
Li3 O61 1.961 . S
Li3 O62 1.970 . S
Li3 O63 1.956 . S
C4 C6 1.348 . S
C4 C7 1.356 . S
C4 O60 1.325 . S
N5 C8 1.314 . S
N5 C9 1.279 . S
C6 C4 1.348 . S
C6 C8 1.353 . S
C6 H64 0.929 . S
C7 C4 1.356 . S
C7 C9 1.358 . S
C7 H65 0.930 . S
C8 N5 1.314 . S
C8 C6 1.353 . S
C8 H66 0.930 . S
C9 N5 1.279 . S
C9 C7 1.358 . S
C9 H67 0.930 . S
C10 C13 1.348 . S
C10 C14 1.356 . S
C10 O61 1.325 . S
C11 N12 1.279 . S
C11 C14 1.358 . S
C11 H68 0.930 . S
N12 C11 1.279 . S
N12 C15 1.314 . S
C13 C10 1.348 . S
C13 C15 1.353 . S
C13 H69 0.929 . S
C14 C10 1.356 . S
C14 C11 1.358 . S
C14 H70 0.930 . S
C15 N12 1.314 . S
C15 C13 1.353 . S
C15 H71 0.930 . S
C16 N17 1.314 . S
C16 C21 1.353 . S
C16 H22 0.930 . S
N17 Li0 1.990 . S
N17 C16 1.314 . S
N17 C19 1.279 . S
C18 C19 1.358 . S
C18 C20 1.356 . S
C18 H72 0.930 . S
C19 N17 1.279 . S
C19 C18 1.358 . S
C19 H23 0.930 . S
C20 C18 1.356 . S
C20 C21 1.348 . S
C21 C16 1.353 . S
C21 C20 1.348 . S
C21 H73 0.929 . S
H22 C16 0.930 . S
H23 C19 0.930 . S
C24 N25 1.314 . S
C24 C26 1.353 . S
C24 H30 0.930 . S
N25 Li1 1.990 . S
N25 C24 1.314 . S
N25 C28 1.279 . S
C26 C24 1.353 . S
C26 C29 1.348 . S
C26 H74 0.929 . S
C27 C28 1.358 . S
C27 C29 1.356 . S
C27 H75 0.930 . S
C28 N25 1.279 . S
C28 C27 1.358 . S
C28 H31 0.930 . S
C29 C26 1.348 . S
C29 C27 1.356 . S
H30 C24 0.930 . S
H31 C28 0.930 . S
C32 C34 1.348 . S
C32 C35 1.356 . S
C32 O62 1.325 . S
N33 C36 1.314 . S
N33 C37 1.279 . S
C34 C32 1.348 . S
C34 C36 1.353 . S
C34 H76 0.929 . S
C35 C32 1.356 . S
C35 C37 1.358 . S
C35 H77 0.930 . S
C36 N33 1.314 . S
C36 C34 1.353 . S
C36 H78 0.930 . S
C37 N33 1.279 . S
C37 C35 1.358 . S
C37 H79 0.930 . S
C38 C39 1.348 . S
C38 C40 1.356 . S
C38 O63 1.325 . S
C39 C38 1.348 . S
C39 C41 1.353 . S
C39 H80 0.929 . S
C40 C38 1.356 . S
C40 C42 1.358 . S
C40 H81 0.930 . S
C41 C39 1.353 . S
C41 N43 1.314 . S
C41 H82 0.930 . S
C42 C40 1.358 . S
C42 N43 1.279 . S
C42 H83 0.930 . S
N43 C41 1.314 . S
N43 C42 1.279 . S
C44 C46 1.353 . S
C44 N47 1.314 . S
C44 H50 0.930 . S
C45 N47 1.279 . S
C45 C48 1.358 . S
C45 H51 0.930 . S
C46 C44 1.353 . S
C46 C49 1.348 . S
C46 H84 0.929 . S
N47 Li2 1.990 . S
N47 C44 1.314 . S
N47 C45 1.279 . S
C48 C45 1.358 . S
C48 C49 1.356 . S
C48 H85 0.930 . S
C49 C46 1.348 . S
C49 C48 1.356 . S
H50 C44 0.930 . S
H51 C45 0.930 . S
C52 N53 1.314 . S
C52 C54 1.353 . S
C52 H58 0.930 . S
N53 Li3 1.990 . S
N53 C52 1.314 . S
N53 C56 1.279 . S
C54 C52 1.353 . S
C54 C57 1.348 . S
C54 H86 0.929 . S
C55 C56 1.358 . S
C55 C57 1.356 . S
C55 H87 0.930 . S
C56 N53 1.279 . S
C56 C55 1.358 . S
C56 H59 0.930 . S
C57 C54 1.348 . S
C57 C55 1.356 . S
H58 C52 0.930 . S
H59 C56 0.930 . S
O60 Li0 1.956 . S
O60 Li1 1.970 . S
O60 Li2 1.961 . S
O60 C4 1.325 . S
O61 Li0 1.970 . S
O61 Li1 1.956 . S
O61 Li3 1.961 . S
O61 C10 1.325 . S
O62 Li0 1.961 . S
O62 Li2 1.956 . S
O62 Li3 1.970 . S
O62 C32 1.325 . S
O63 Li1 1.961 . S
O63 Li2 1.970 . S
O63 Li3 1.956 . S
O63 C38 1.325 . S
H64 C6 0.929 . S
H65 C7 0.930 . S
H66 C8 0.930 . S
H67 C9 0.930 . S
H68 C11 0.930 . S
H69 C13 0.929 . S
H70 C14 0.930 . S
H71 C15 0.930 . S
H72 C18 0.930 . S
H73 C21 0.929 . S
H74 C26 0.929 . S
H75 C27 0.930 . S
H76 C34 0.929 . S
H77 C35 0.930 . S
H78 C36 0.930 . S
H79 C37 0.930 . S
H80 C39 0.929 . S
H81 C40 0.930 . S
H82 C41 0.930 . S
H83 C42 0.930 . S
H84 C46 0.929 . S
H85 C48 0.930 . S
H86 C54 0.929 . S
H87 C55 0.930 . S
Li88 N105 1.990 . S
Li88 O148 1.956 . S
Li88 O149 1.970 . S
Li88 O150 1.961 . S
Li89 N113 1.990 . S
Li89 O148 1.970 . S
Li89 O149 1.956 . S
Li89 O151 1.961 . S
Li90 N135 1.990 . S
Li90 O148 1.961 . S
Li90 O150 1.956 . S
Li90 O151 1.970 . S
Li91 N141 1.990 . S
Li91 O149 1.961 . S
Li91 O150 1.970 . S
Li91 O151 1.956 . S
C92 C94 1.348 . S
C92 C95 1.356 . S
C92 O148 1.325 . S
N93 C96 1.314 . S
N93 C97 1.279 . S
C94 C92 1.348 . S
C94 C96 1.353 . S
C94 H152 0.929 . S
C95 C92 1.356 . S
C95 C97 1.358 . S
C95 H153 0.930 . S
C96 N93 1.314 . S
C96 C94 1.353 . S
C96 H154 0.930 . S
C97 N93 1.279 . S
C97 C95 1.358 . S
C97 H155 0.930 . S
C98 C101 1.348 . S
C98 C102 1.356 . S
C98 O149 1.325 . S
C99 N100 1.279 . S
C99 C102 1.358 . S
C99 H156 0.930 . S
N100 C99 1.279 . S
N100 C103 1.314 . S
C101 C98 1.348 . S
C101 C103 1.353 . S
C101 H157 0.929 . S
C102 C98 1.356 . S
C102 C99 1.358 . S
C102 H158 0.930 . S
C103 N100 1.314 . S
C103 C101 1.353 . S
C103 H159 0.930 . S
C104 N105 1.314 . S
C104 C109 1.353 . S
C104 H110 0.930 . S
N105 Li88 1.990 . S
N105 C104 1.314 . S
N105 C107 1.279 . S
C106 C107 1.358 . S
C106 C108 1.356 . S
C106 H160 0.930 . S
C107 N105 1.279 . S
C107 C106 1.358 . S
C107 H111 0.930 . S
C108 C106 1.356 . S
C108 C109 1.348 . S
C109 C104 1.353 . S
C109 C108 1.348 . S
C109 H161 0.929 . S
H110 C104 0.930 . S
H111 C107 0.930 . S
C112 N113 1.314 . S
C112 C114 1.353 . S
C112 H118 0.930 . S
N113 Li89 1.990 . S
N113 C112 1.314 . S
N113 C116 1.279 . S
C114 C112 1.353 . S
C114 C117 1.348 . S
C114 H162 0.929 . S
C115 C116 1.358 . S
C115 C117 1.356 . S
C115 H163 0.930 . S
C116 N113 1.279 . S
C116 C115 1.358 . S
C116 H119 0.930 . S
C117 C114 1.348 . S
C117 C115 1.356 . S
H118 C112 0.930 . S
H119 C116 0.930 . S
C120 C122 1.348 . S
C120 C123 1.356 . S
C120 O150 1.325 . S
N121 C124 1.314 . S
N121 C125 1.279 . S
C122 C120 1.348 . S
C122 C124 1.353 . S
C122 H164 0.929 . S
C123 C120 1.356 . S
C123 C125 1.358 . S
C123 H165 0.930 . S
C124 N121 1.314 . S
C124 C122 1.353 . S
C124 H166 0.930 . S
C125 N121 1.279 . S
C125 C123 1.358 . S
C125 H167 0.930 . S
C126 C127 1.348 . S
C126 C128 1.356 . S
C126 O151 1.325 . S
C127 C126 1.348 . S
C127 C129 1.353 . S
C127 H168 0.929 . S
C128 C126 1.356 . S
C128 C130 1.358 . S
C128 H169 0.930 . S
C129 C127 1.353 . S
C129 N131 1.314 . S
C129 H170 0.930 . S
C130 C128 1.358 . S
C130 N131 1.279 . S
C130 H171 0.930 . S
N131 C129 1.314 . S
N131 C130 1.279 . S
C132 C134 1.353 . S
C132 N135 1.314 . S
C132 H138 0.930 . S
C133 N135 1.279 . S
C133 C136 1.358 . S
C133 H139 0.930 . S
C134 C132 1.353 . S
C134 C137 1.348 . S
C134 H172 0.929 . S
N135 Li90 1.990 . S
N135 C132 1.314 . S
N135 C133 1.279 . S
C136 C133 1.358 . S
C136 C137 1.356 . S
C136 H173 0.930 . S
C137 C134 1.348 . S
C137 C136 1.356 . S
H138 C132 0.930 . S
H139 C133 0.930 . S
C140 N141 1.314 . S
C140 C142 1.353 . S
C140 H146 0.930 . S
N141 Li91 1.990 . S
N141 C140 1.314 . S
N141 C144 1.279 . S
C142 C140 1.353 . S
C142 C145 1.348 . S
C142 H174 0.929 . S
C143 C144 1.358 . S
C143 C145 1.356 . S
C143 H175 0.930 . S
C144 N141 1.279 . S
C144 C143 1.358 . S
C144 H147 0.930 . S
C145 C142 1.348 . S
C145 C143 1.356 . S
H146 C140 0.930 . S
H147 C144 0.930 . S
O148 Li88 1.956 . S
O148 Li89 1.970 . S
O148 Li90 1.961 . S
O148 C92 1.325 . S
O149 Li88 1.970 . S
O149 Li89 1.956 . S
O149 Li91 1.961 . S
O149 C98 1.325 . S
O150 Li88 1.961 . S
O150 Li90 1.956 . S
O150 Li91 1.970 . S
O150 C120 1.325 . S
O151 Li89 1.961 . S
O151 Li90 1.970 . S
O151 Li91 1.956 . S
O151 C126 1.325 . S
H152 C94 0.929 . S
H153 C95 0.930 . S
H154 C96 0.930 . S
H155 C97 0.930 . S
H156 C99 0.930 . S
H157 C101 0.929 . S
H158 C102 0.930 . S
H159 C103 0.930 . S
H160 C106 0.930 . S
H161 C109 0.929 . S
H162 C114 0.929 . S
H163 C115 0.930 . S
H164 C122 0.929 . S
H165 C123 0.930 . S
H166 C124 0.930 . S
H167 C125 0.930 . S
H168 C127 0.929 . S
H169 C128 0.930 . S
H170 C129 0.930 . S
H171 C130 0.930 . S
H172 C134 0.929 . S
H173 C136 0.930 . S
H174 C142 0.929 . S
H175 C143 0.930 . S
Li176 N193 1.990 . S
Li176 O236 1.956 . S
Li176 O237 1.970 . S
Li176 O238 1.961 . S
Li177 N201 1.990 . S
Li177 O236 1.970 . S
Li177 O237 1.956 . S
Li177 O239 1.961 . S
Li178 N223 1.990 . S
Li178 O236 1.961 . S
Li178 O238 1.956 . S
Li178 O239 1.970 . S
Li179 N229 1.990 . S
Li179 O237 1.961 . S
Li179 O238 1.970 . S
Li179 O239 1.956 . S
C180 C182 1.348 . S
C180 C183 1.356 . S
C180 O236 1.325 . S
N181 C184 1.314 . S
N181 C185 1.279 . S
C182 C180 1.348 . S
C182 C184 1.353 . S
C182 H240 0.929 . S
C183 C180 1.356 . S
C183 C185 1.358 . S
C183 H241 0.930 . S
C184 N181 1.314 . S
C184 C182 1.353 . S
C184 H242 0.930 . S
C185 N181 1.279 . S
C185 C183 1.358 . S
C185 H243 0.930 . S
C186 C189 1.348 . S
C186 C190 1.356 . S
C186 O237 1.325 . S
C187 N188 1.279 . S
C187 C190 1.358 . S
C187 H244 0.930 . S
N188 C187 1.279 . S
N188 C191 1.314 . S
C189 C186 1.348 . S
C189 C191 1.353 . S
C189 H245 0.929 . S
C190 C186 1.356 . S
C190 C187 1.358 . S
C190 H246 0.930 . S
C191 N188 1.314 . S
C191 C189 1.353 . S
C191 H247 0.930 . S
C192 N193 1.314 . S
C192 C197 1.353 . S
C192 H198 0.930 . S
N193 Li176 1.990 . S
N193 C192 1.314 . S
N193 C195 1.279 . S
C194 C195 1.358 . S
C194 C196 1.356 . S
C194 H248 0.930 . S
C195 N193 1.279 . S
C195 C194 1.358 . S
C195 H199 0.930 . S
C196 C194 1.356 . S
C196 C197 1.348 . S
C197 C192 1.353 . S
C197 C196 1.348 . S
C197 H249 0.929 . S
H198 C192 0.930 . S
H199 C195 0.930 . S
C200 N201 1.314 . S
C200 C202 1.353 . S
C200 H206 0.930 . S
N201 Li177 1.990 . S
N201 C200 1.314 . S
N201 C204 1.279 . S
C202 C200 1.353 . S
C202 C205 1.348 . S
C202 H250 0.929 1_655 S
C203 C204 1.358 . S
C203 C205 1.356 . S
C203 H251 0.930 . S
C204 N201 1.279 . S
C204 C203 1.358 . S
C204 H207 0.930 . S
C205 C202 1.348 . S
C205 C203 1.356 . S
H206 C200 0.930 . S
H207 C204 0.930 . S
C208 C210 1.348 . S
C208 C211 1.356 . S
C208 O238 1.325 . S
N209 C212 1.314 . S
N209 C213 1.279 . S
C210 C208 1.348 . S
C210 C212 1.353 . S
C210 H252 0.929 . S
C211 C208 1.356 . S
C211 C213 1.358 . S
C211 H253 0.930 . S
C212 N209 1.314 . S
C212 C210 1.353 . S
C212 H254 0.930 . S
C213 N209 1.279 . S
C213 C211 1.358 . S
C213 H255 0.930 . S
C214 C215 1.348 . S
C214 C216 1.356 . S
C214 O239 1.325 . S
C215 C214 1.348 . S
C215 C217 1.353 . S
C215 H256 0.929 . S
C216 C214 1.356 . S
C216 C218 1.358 . S
C216 H257 0.930 . S
C217 C215 1.353 . S
C217 N219 1.314 . S
C217 H258 0.930 . S
C218 C216 1.358 . S
C218 N219 1.279 . S
C218 H259 0.930 . S
N219 C217 1.314 . S
N219 C218 1.279 . S
C220 C222 1.353 . S
C220 N223 1.314 . S
C220 H226 0.930 . S
C221 N223 1.279 . S
C221 C224 1.358 . S
C221 H227 0.930 . S
C222 C220 1.353 . S
C222 C225 1.348 . S
C222 H260 0.929 1_655 S
N223 Li178 1.990 . S
N223 C220 1.314 . S
N223 C221 1.279 . S
C224 C221 1.358 . S
C224 C225 1.356 . S
C224 H261 0.930 . S
C225 C222 1.348 . S
C225 C224 1.356 . S
H226 C220 0.930 . S
H227 C221 0.930 . S
C228 N229 1.314 . S
C228 C230 1.353 . S
C228 H234 0.930 . S
N229 Li179 1.990 . S
N229 C228 1.314 . S
N229 C232 1.279 . S
C230 C228 1.353 . S
C230 C233 1.348 . S
C230 H262 0.929 . S
C231 C232 1.358 . S
C231 C233 1.356 . S
C231 H263 0.930 . S
C232 N229 1.279 . S
C232 C231 1.358 . S
C232 H235 0.930 . S
C233 C230 1.348 . S
C233 C231 1.356 . S
H234 C228 0.930 . S
H235 C232 0.930 . S
O236 Li176 1.956 . S
O236 Li177 1.970 . S
O236 Li178 1.961 . S
O236 C180 1.325 . S
O237 Li176 1.970 . S
O237 Li177 1.956 . S
O237 Li179 1.961 . S
O237 C186 1.325 . S
O238 Li176 1.961 . S
O238 Li178 1.956 . S
O238 Li179 1.970 . S
O238 C208 1.325 . S
O239 Li177 1.961 . S
O239 Li178 1.970 . S
O239 Li179 1.956 . S
O239 C214 1.325 . S
H240 C182 0.929 . S
H241 C183 0.930 . S
H242 C184 0.930 . S
H243 C185 0.930 . S
H244 C187 0.930 . S
H245 C189 0.929 . S
H246 C190 0.930 . S
H247 C191 0.930 . S
H248 C194 0.930 . S
H249 C197 0.929 . S
H250 C202 0.929 1_455 S
H251 C203 0.930 . S
H252 C210 0.929 . S
H253 C211 0.930 . S
H254 C212 0.930 . S
H255 C213 0.930 . S
H256 C215 0.929 . S
H257 C216 0.930 . S
H258 C217 0.930 . S
H259 C218 0.930 . S
H260 C222 0.929 1_455 S
H261 C224 0.930 . S
H262 C230 0.929 . S
H263 C231 0.930 . S
Li264 N281 1.990 . S
Li264 O324 1.956 . S
Li264 O325 1.970 . S
Li264 O326 1.961 . S
Li265 N289 1.990 . S
Li265 O324 1.970 . S
Li265 O325 1.956 . S
Li265 O327 1.961 . S
Li266 N311 1.990 . S
Li266 O324 1.961 . S
Li266 O326 1.956 . S
Li266 O327 1.970 . S
Li267 N317 1.990 . S
Li267 O325 1.961 . S
Li267 O326 1.970 . S
Li267 O327 1.956 . S
C268 C270 1.348 . S
C268 C271 1.356 . S
C268 O324 1.325 . S
N269 C272 1.314 . S
N269 C273 1.279 . S
C270 C268 1.348 . S
C270 C272 1.353 . S
C270 H328 0.929 . S
C271 C268 1.356 . S
C271 C273 1.358 . S
C271 H329 0.930 . S
C272 N269 1.314 . S
C272 C270 1.353 . S
C272 H330 0.930 . S
C273 N269 1.279 . S
C273 C271 1.358 . S
C273 H331 0.930 . S
C274 C277 1.348 . S
C274 C278 1.356 . S
C274 O325 1.325 . S
C275 N276 1.279 . S
C275 C278 1.358 . S
C275 H332 0.930 . S
N276 C275 1.279 . S
N276 C279 1.314 . S
C277 C274 1.348 . S
C277 C279 1.353 . S
C277 H333 0.929 . S
C278 C274 1.356 . S
C278 C275 1.358 . S
C278 H334 0.930 . S
C279 N276 1.314 . S
C279 C277 1.353 . S
C279 H335 0.930 . S
C280 N281 1.314 . S
C280 C285 1.353 . S
C280 H286 0.930 . S
N281 Li264 1.990 . S
N281 C280 1.314 . S
N281 C283 1.279 . S
C282 C283 1.358 . S
C282 C284 1.356 . S
C282 H336 0.930 . S
C283 N281 1.279 . S
C283 C282 1.358 . S
C283 H287 0.930 . S
C284 C282 1.356 . S
C284 C285 1.348 . S
C285 C280 1.353 . S
C285 C284 1.348 . S
C285 H337 0.929 . S
H286 C280 0.930 . S
H287 C283 0.930 . S
C288 N289 1.314 . S
C288 C290 1.353 . S
C288 H294 0.930 . S
N289 Li265 1.990 . S
N289 C288 1.314 . S
N289 C292 1.279 . S
C290 C288 1.353 . S
C290 C293 1.348 . S
C290 H338 0.929 . S
C291 C292 1.358 . S
C291 C293 1.356 . S
C291 H339 0.930 . S
C292 N289 1.279 . S
C292 C291 1.358 . S
C292 H295 0.930 . S
C293 C290 1.348 . S
C293 C291 1.356 . S
H294 C288 0.930 . S
H295 C292 0.930 . S
C296 C298 1.348 . S
C296 C299 1.356 . S
C296 O326 1.325 . S
N297 C300 1.314 . S
N297 C301 1.279 . S
C298 C296 1.348 . S
C298 C300 1.353 . S
C298 H340 0.929 . S
C299 C296 1.356 . S
C299 C301 1.358 . S
C299 H341 0.930 . S
C300 N297 1.314 . S
C300 C298 1.353 . S
C300 H342 0.930 . S
C301 N297 1.279 . S
C301 C299 1.358 . S
C301 H343 0.930 . S
C302 C303 1.348 . S
C302 C304 1.356 . S
C302 O327 1.325 . S
C303 C302 1.348 . S
C303 C305 1.353 . S
C303 H344 0.929 . S
C304 C302 1.356 . S
C304 C306 1.358 . S
C304 H345 0.930 . S
C305 C303 1.353 . S
C305 N307 1.314 . S
C305 H346 0.930 . S
C306 C304 1.358 . S
C306 N307 1.279 . S
C306 H347 0.930 . S
N307 C305 1.314 . S
N307 C306 1.279 . S
C308 C310 1.353 . S
C308 N311 1.314 . S
C308 H314 0.930 . S
C309 N311 1.279 . S
C309 C312 1.358 . S
C309 H315 0.930 . S
C310 C308 1.353 . S
C310 C313 1.348 . S
C310 H348 0.929 . S
N311 Li266 1.990 . S
N311 C308 1.314 . S
N311 C309 1.279 . S
C312 C309 1.358 . S
C312 C313 1.356 . S
C312 H349 0.930 . S
C313 C310 1.348 . S
C313 C312 1.356 . S
H314 C308 0.930 . S
H315 C309 0.930 . S
C316 N317 1.314 . S
C316 C318 1.353 . S
C316 H322 0.930 . S
N317 Li267 1.990 . S
N317 C316 1.314 . S
N317 C320 1.279 . S
C318 C316 1.353 . S
C318 C321 1.348 . S
C318 H350 0.929 . S
C319 C320 1.358 . S
C319 C321 1.356 . S
C319 H351 0.930 . S
C320 N317 1.279 . S
C320 C319 1.358 . S
C320 H323 0.930 . S
C321 C318 1.348 . S
C321 C319 1.356 . S
H322 C316 0.930 . S
H323 C320 0.930 . S
O324 Li264 1.956 . S
O324 Li265 1.970 . S
O324 Li266 1.961 . S
O324 C268 1.325 . S
O325 Li264 1.970 . S
O325 Li265 1.956 . S
O325 Li267 1.961 . S
O325 C274 1.325 . S
O326 Li264 1.961 . S
O326 Li266 1.956 . S
O326 Li267 1.970 . S
O326 C296 1.325 . S
O327 Li265 1.961 . S
O327 Li266 1.970 . S
O327 Li267 1.956 . S
O327 C302 1.325 . S
H328 C270 0.929 . S
H329 C271 0.930 . S
H330 C272 0.930 . S
H331 C273 0.930 . S
H332 C275 0.930 . S
H333 C277 0.929 . S
H334 C278 0.930 . S
H335 C279 0.930 . S
H336 C282 0.930 . S
H337 C285 0.929 . S
H338 C290 0.929 . S
H339 C291 0.930 . S
H340 C298 0.929 . S
H341 C299 0.930 . S
H342 C300 0.930 . S
H343 C301 0.930 . S
H344 C303 0.929 . S
H345 C304 0.930 . S
H346 C305 0.930 . S
H347 C306 0.930 . S
H348 C310 0.929 . S
H349 C312 0.930 . S
H350 C318 0.929 . S
H351 C319 0.930 . S
Li352 N369 1.990 . S
Li352 O412 1.956 . S
Li352 O413 1.970 . S
Li352 O414 1.961 . S
Li353 N377 1.990 . S
Li353 O412 1.970 . S
Li353 O413 1.956 . S
Li353 O415 1.961 . S
Li354 N399 1.990 . S
Li354 O412 1.961 . S
Li354 O414 1.956 . S
Li354 O415 1.970 . S
Li355 N405 1.990 . S
Li355 O413 1.961 . S
Li355 O414 1.970 . S
Li355 O415 1.956 . S
C356 C358 1.348 . S
C356 C359 1.356 . S
C356 O412 1.325 . S
N357 C360 1.314 . S
N357 C361 1.279 . S
C358 C356 1.348 . S
C358 C360 1.353 . S
C358 H416 0.929 . S
C359 C356 1.356 . S
C359 C361 1.358 . S
C359 H417 0.930 . S
C360 N357 1.314 . S
C360 C358 1.353 . S
C360 H418 0.930 . S
C361 N357 1.279 . S
C361 C359 1.358 . S
C361 H419 0.930 . S
C362 C365 1.348 . S
C362 C366 1.356 . S
C362 O413 1.325 . S
C363 N364 1.279 . S
C363 C366 1.358 . S
C363 H420 0.930 . S
N364 C363 1.279 . S
N364 C367 1.314 . S
C365 C362 1.348 . S
C365 C367 1.353 . S
C365 H421 0.929 . S
C366 C362 1.356 . S
C366 C363 1.358 . S
C366 H422 0.930 . S
C367 N364 1.314 . S
C367 C365 1.353 . S
C367 H423 0.930 . S
C368 N369 1.314 . S
C368 C373 1.353 . S
C368 H374 0.930 . S
N369 Li352 1.990 . S
N369 C368 1.314 . S
N369 C371 1.279 . S
C370 C371 1.358 . S
C370 C372 1.356 . S
C370 H424 0.930 . S
C371 N369 1.279 . S
C371 C370 1.358 . S
C371 H375 0.930 . S
C372 C370 1.356 . S
C372 C373 1.348 . S
C373 C368 1.353 . S
C373 C372 1.348 . S
C373 H425 0.929 . S
H374 C368 0.930 . S
H375 C371 0.930 . S
C376 N377 1.314 . S
C376 C378 1.353 . S
C376 H382 0.930 . S
N377 Li353 1.990 . S
N377 C376 1.314 . S
N377 C380 1.279 . S
C378 C376 1.353 . S
C378 C381 1.348 . S
C378 H426 0.929 . S
C379 C380 1.358 . S
C379 C381 1.356 . S
C379 H427 0.930 . S
C380 N377 1.279 . S
C380 C379 1.358 . S
C380 H383 0.930 . S
C381 C378 1.348 . S
C381 C379 1.356 . S
H382 C376 0.930 . S
H383 C380 0.930 . S
C384 C386 1.348 . S
C384 C387 1.356 . S
C384 O414 1.325 . S
N385 C388 1.314 . S
N385 C389 1.279 . S
C386 C384 1.348 . S
C386 C388 1.353 . S
C386 H428 0.929 . S
C387 C384 1.356 . S
C387 C389 1.358 . S
C387 H429 0.930 . S
C388 N385 1.314 . S
C388 C386 1.353 . S
C388 H430 0.930 . S
C389 N385 1.279 . S
C389 C387 1.358 . S
C389 H431 0.930 . S
C390 C391 1.348 . S
C390 C392 1.356 . S
C390 O415 1.325 . S
C391 C390 1.348 . S
C391 C393 1.353 . S
C391 H432 0.929 . S
C392 C390 1.356 . S
C392 C394 1.358 . S
C392 H433 0.930 . S
C393 C391 1.353 . S
C393 N395 1.314 . S
C393 H434 0.930 . S
C394 C392 1.358 . S
C394 N395 1.279 . S
C394 H435 0.930 . S
N395 C393 1.314 . S
N395 C394 1.279 . S
C396 C398 1.353 . S
C396 N399 1.314 . S
C396 H402 0.930 . S
C397 N399 1.279 . S
C397 C400 1.358 . S
C397 H403 0.930 . S
C398 C396 1.353 . S
C398 C401 1.348 . S
C398 H436 0.929 . S
N399 Li354 1.990 . S
N399 C396 1.314 . S
N399 C397 1.279 . S
C400 C397 1.358 . S
C400 C401 1.356 . S
C400 H437 0.930 . S
C401 C398 1.348 . S
C401 C400 1.356 . S
H402 C396 0.930 . S
H403 C397 0.930 . S
C404 N405 1.314 . S
C404 C406 1.353 . S
C404 H410 0.930 . S
N405 Li355 1.990 . S
N405 C404 1.314 . S
N405 C408 1.279 . S
C406 C404 1.353 . S
C406 C409 1.348 . S
C406 H438 0.929 . S
C407 C408 1.358 . S
C407 C409 1.356 . S
C407 H439 0.930 . S
C408 N405 1.279 . S
C408 C407 1.358 . S
C408 H411 0.930 . S
C409 C406 1.348 . S
C409 C407 1.356 . S
H410 C404 0.930 . S
H411 C408 0.930 . S
O412 Li352 1.956 . S
O412 Li353 1.970 . S
O412 Li354 1.961 . S
O412 C356 1.325 . S
O413 Li352 1.970 . S
O413 Li353 1.956 . S
O413 Li355 1.961 . S
O413 C362 1.325 . S
O414 Li352 1.961 . S
O414 Li354 1.956 . S
O414 Li355 1.970 . S
O414 C384 1.325 . S
O415 Li353 1.961 . S
O415 Li354 1.970 . S
O415 Li355 1.956 . S
O415 C390 1.325 . S
H416 C358 0.929 . S
H417 C359 0.930 . S
H418 C360 0.930 . S
H419 C361 0.930 . S
H420 C363 0.930 . S
H421 C365 0.929 . S
H422 C366 0.930 . S
H423 C367 0.930 . S
H424 C370 0.930 . S
H425 C373 0.929 . S
H426 C378 0.929 . S
H427 C379 0.930 . S
H428 C386 0.929 . S
H429 C387 0.930 . S
H430 C388 0.930 . S
H431 C389 0.930 . S
H432 C391 0.929 . S
H433 C392 0.930 . S
H434 C393 0.930 . S
H435 C394 0.930 . S
H436 C398 0.929 . S
H437 C400 0.930 . S
H438 C406 0.929 . S
H439 C407 0.930 . S
Li440 N457 1.990 . S
Li440 O500 1.956 . S
Li440 O501 1.970 . S
Li440 O502 1.961 . S
Li441 N465 1.990 . S
Li441 O500 1.970 . S
Li441 O501 1.956 . S
Li441 O503 1.961 . S
Li442 N487 1.990 . S
Li442 O500 1.961 . S
Li442 O502 1.956 . S
Li442 O503 1.970 . S
Li443 N493 1.990 . S
Li443 O501 1.961 . S
Li443 O502 1.970 . S
Li443 O503 1.956 . S
C444 C446 1.348 . S
C444 C447 1.356 . S
C444 O500 1.325 . S
N445 C448 1.314 . S
N445 C449 1.279 . S
C446 C444 1.348 . S
C446 C448 1.353 . S
C446 H504 0.929 . S
C447 C444 1.356 . S
C447 C449 1.358 . S
C447 H505 0.930 . S
C448 N445 1.314 . S
C448 C446 1.353 . S
C448 H506 0.930 . S
C449 N445 1.279 . S
C449 C447 1.358 . S
C449 H507 0.930 . S
C450 C453 1.348 . S
C450 C454 1.356 . S
C450 O501 1.325 . S
C451 N452 1.279 . S
C451 C454 1.358 . S
C451 H508 0.930 . S
N452 C451 1.279 . S
N452 C455 1.314 . S
C453 C450 1.348 . S
C453 C455 1.353 . S
C453 H509 0.929 . S
C454 C450 1.356 . S
C454 C451 1.358 . S
C454 H510 0.930 . S
C455 N452 1.314 . S
C455 C453 1.353 . S
C455 H511 0.930 . S
C456 N457 1.314 . S
C456 C461 1.353 . S
C456 H462 0.930 . S
N457 Li440 1.990 . S
N457 C456 1.314 . S
N457 C459 1.279 . S
C458 C459 1.358 . S
C458 C460 1.356 . S
C458 H512 0.930 . S
C459 N457 1.279 . S
C459 C458 1.358 . S
C459 H463 0.930 . S
C460 C458 1.356 . S
C460 C461 1.348 . S
C461 C456 1.353 . S
C461 C460 1.348 . S
C461 H513 0.929 1_455 S
H462 C456 0.930 . S
H463 C459 0.930 . S
C464 N465 1.314 . S
C464 C466 1.353 . S
C464 H470 0.930 . S
N465 Li441 1.990 . S
N465 C464 1.314 . S
N465 C468 1.279 . S
C466 C464 1.353 . S
C466 C469 1.348 . S
C466 H514 0.929 . S
C467 C468 1.358 . S
C467 C469 1.356 . S
C467 H515 0.930 . S
C468 N465 1.279 . S
C468 C467 1.358 . S
C468 H471 0.930 . S
C469 C466 1.348 . S
C469 C467 1.356 . S
H470 C464 0.930 . S
H471 C468 0.930 . S
C472 C474 1.348 . S
C472 C475 1.356 . S
C472 O502 1.325 . S
N473 C476 1.314 . S
N473 C477 1.279 . S
C474 C472 1.348 . S
C474 C476 1.353 . S
C474 H516 0.929 . S
C475 C472 1.356 . S
C475 C477 1.358 . S
C475 H517 0.930 . S
C476 N473 1.314 . S
C476 C474 1.353 . S
C476 H518 0.930 . S
C477 N473 1.279 . S
C477 C475 1.358 . S
C477 H519 0.930 . S
C478 C479 1.348 . S
C478 C480 1.356 . S
C478 O503 1.325 . S
C479 C478 1.348 . S
C479 C481 1.353 . S
C479 H520 0.929 . S
C480 C478 1.356 . S
C480 C482 1.358 . S
C480 H521 0.930 . S
C481 C479 1.353 . S
C481 N483 1.314 . S
C481 H522 0.930 . S
C482 C480 1.358 . S
C482 N483 1.279 . S
C482 H523 0.930 . S
N483 C481 1.314 . S
N483 C482 1.279 . S
C484 C486 1.353 . S
C484 N487 1.314 . S
C484 H490 0.930 . S
C485 N487 1.279 . S
C485 C488 1.358 . S
C485 H491 0.930 . S
C486 C484 1.353 . S
C486 C489 1.348 . S
C486 H524 0.929 . S
N487 Li442 1.990 . S
N487 C484 1.314 . S
N487 C485 1.279 . S
C488 C485 1.358 . S
C488 C489 1.356 . S
C488 H525 0.930 . S
C489 C486 1.348 . S
C489 C488 1.356 . S
H490 C484 0.930 . S
H491 C485 0.930 . S
C492 N493 1.314 . S
C492 C494 1.353 . S
C492 H498 0.930 . S
N493 Li443 1.990 . S
N493 C492 1.314 . S
N493 C496 1.279 . S
C494 C492 1.353 . S
C494 C497 1.348 . S
C494 H526 0.929 1_455 S
C495 C496 1.358 . S
C495 C497 1.356 . S
C495 H527 0.930 . S
C496 N493 1.279 . S
C496 C495 1.358 . S
C496 H499 0.930 . S
C497 C494 1.348 . S
C497 C495 1.356 . S
H498 C492 0.930 . S
H499 C496 0.930 . S
O500 Li440 1.956 . S
O500 Li441 1.970 . S
O500 Li442 1.961 . S
O500 C444 1.325 . S
O501 Li440 1.970 . S
O501 Li441 1.956 . S
O501 Li443 1.961 . S
O501 C450 1.325 . S
O502 Li440 1.961 . S
O502 Li442 1.956 . S
O502 Li443 1.970 . S
O502 C472 1.325 . S
O503 Li441 1.961 . S
O503 Li442 1.970 . S
O503 Li443 1.956 . S
O503 C478 1.325 . S
H504 C446 0.929 . S
H505 C447 0.930 . S
H506 C448 0.930 . S
H507 C449 0.930 . S
H508 C451 0.930 . S
H509 C453 0.929 . S
H510 C454 0.930 . S
H511 C455 0.930 . S
H512 C458 0.930 . S
H513 C461 0.929 1_655 S
H514 C466 0.929 . S
H515 C467 0.930 . S
H516 C474 0.929 . S
H517 C475 0.930 . S
H518 C476 0.930 . S
H519 C477 0.930 . S
H520 C479 0.929 . S
H521 C480 0.930 . S
H522 C481 0.930 . S
H523 C482 0.930 . S
H524 C486 0.929 . S
H525 C488 0.930 . S
H526 C494 0.929 1_655 S
H527 C495 0.930 . S
C528 C529 1.387 . S
C528 H532 0.950 . S
C528 C537 1.390 . S
C529 C528 1.387 . S
C529 C531 1.387 . S
H530 C537 0.950 . S
C531 C529 1.387 . S
C531 C533 1.390 . S
C531 H535 0.950 . S
H532 C528 0.950 . S
C533 C531 1.390 . S
C533 C534 1.387 . S
C533 H536 0.950 . S
C534 C533 1.387 . S
C534 C537 1.387 . S
H535 C531 0.950 . S
H536 C533 0.950 . S
C537 C528 1.390 . S
C537 H530 0.950 . S
C537 C534 1.387 . S
C538 C539 1.387 . S
C538 H542 0.950 . S
C538 C547 1.390 . S
C539 C538 1.387 . S
C539 C541 1.387 . S
H540 C547 0.950 . S
C541 C539 1.387 . S
C541 C543 1.390 . S
C541 H545 0.950 . S
H542 C538 0.950 . S
C543 C541 1.390 . S
C543 C544 1.387 . S
C543 H546 0.950 . S
C544 C543 1.387 . S
C544 C547 1.387 . S
H545 C541 0.950 . S
H546 C543 0.950 . S
C547 C538 1.390 . S
C547 H540 0.950 . S
C547 C544 1.387 . S
C548 C549 1.387 . S
C548 H552 0.950 . S
C548 C557 1.390 . S
C549 C548 1.387 . S
C549 C551 1.387 . S
H550 C557 0.950 . S
C551 C549 1.387 . S
C551 C553 1.390 . S
C551 H555 0.950 . S
H552 C548 0.950 . S
C553 C551 1.390 . S
C553 C554 1.387 . S
C553 H556 0.950 . S
C554 C553 1.387 . S
C554 C557 1.387 . S
H555 C551 0.950 . S
H556 C553 0.950 . S
C557 C548 1.390 . S
C557 H550 0.950 . S
C557 C554 1.387 . S
C558 C559 1.387 . S
C558 H562 0.950 . S
C558 C567 1.390 . S
C559 C558 1.387 . S
C559 C561 1.387 . S
H560 C567 0.950 . S
C561 C559 1.387 . S
C561 C563 1.390 . S
C561 H565 0.950 . S
H562 C558 0.950 . S
C563 C561 1.390 . S
C563 C564 1.387 . S
C563 H566 0.950 . S
C564 C563 1.387 . S
C564 C567 1.387 . S
H565 C561 0.950 . S
H566 C563 0.950 . S
C567 C558 1.390 . S
C567 H560 0.950 . S
C567 C564 1.387 . S
C568 C569 1.387 . S
C568 H572 0.950 . S
C568 C577 1.390 . S
C569 C568 1.387 . S
C569 C571 1.387 . S
H570 C577 0.950 . S
C571 C569 1.387 . S
C571 C573 1.390 . S
C571 H575 0.950 . S
H572 C568 0.950 . S
C573 C571 1.390 . S
C573 C574 1.387 . S
C573 H576 0.950 . S
C574 C573 1.387 . S
C574 C577 1.387 . S
H575 C571 0.950 . S
H576 C573 0.950 . S
C577 C568 1.390 . S
C577 H570 0.950 . S
C577 C574 1.387 . S
C578 C579 1.387 . S
C578 H582 0.950 . S
C578 C587 1.390 . S
C579 C578 1.387 . S
C579 C581 1.387 . S
H580 C587 0.950 . S
C581 C579 1.387 . S
C581 C583 1.390 . S
C581 H585 0.950 . S
H582 C578 0.950 . S
C583 C581 1.390 . S
C583 C584 1.387 . S
C583 H586 0.950 . S
C584 C583 1.387 . S
C584 C587 1.387 . S
H585 C581 0.950 . S
H586 C583 0.950 . S
C587 C578 1.390 . S
C587 H580 0.950 . S
C587 C584 1.387 . S
C588 C589 1.387 . S
C588 H592 0.950 . S
C588 C597 1.390 1_566 S
C589 C588 1.387 . S
C589 C591 1.387 . S
H590 C597 0.950 . S
C591 C589 1.387 . S
C591 C593 1.390 1_566 S
C591 H595 0.950 . S
H592 C588 0.950 . S
C593 C591 1.390 1_544 S
C593 C594 1.387 . S
C593 H596 0.950 . S
C594 C593 1.387 . S
C594 C597 1.387 . S
H595 C591 0.950 . S
H596 C593 0.950 . S
C597 C588 1.390 1_544 S
C597 H590 0.950 . S
C597 C594 1.387 . S
C598 C599 1.387 . S
C598 H602 0.950 . S
C598 C607 1.390 . S
C599 C598 1.387 . S
C599 C601 1.387 . S
H600 C607 0.950 . S
C601 C599 1.387 . S
C601 C603 1.390 . S
C601 H605 0.950 . S
H602 C598 0.950 . S
C603 C601 1.390 . S
C603 C604 1.387 . S
C603 H606 0.950 . S
C604 C603 1.387 . S
C604 C607 1.387 . S
H605 C601 0.950 . S
H606 C603 0.950 . S
C607 C598 1.390 . S
C607 H600 0.950 . S
C607 C604 1.387 . S
C608 C609 1.387 1_655 S
C608 H612 0.950 . S
C608 C617 1.390 1_556 S
C609 C608 1.387 1_455 S
C609 C611 1.387 . S
H610 C617 0.950 . S
C611 C609 1.387 . S
C611 C613 1.390 1_556 S
C611 H615 0.950 . S
H612 C608 0.950 . S
C613 C611 1.390 1_554 S
C613 C614 1.387 1_455 S
C613 H616 0.950 . S
C614 C613 1.387 1_655 S
C614 C617 1.387 . S
H615 C611 0.950 . S
H616 C613 0.950 . S
C617 C608 1.390 1_554 S
C617 H610 0.950 . S
C617 C614 1.387 . S
C618 C619 1.387 . S
C618 H622 0.950 . S
C618 C627 1.390 1_545 S
C619 C618 1.387 . S
C619 C621 1.387 . S
H620 C627 0.950 . S
C621 C619 1.387 . S
C621 C623 1.390 1_545 S
C621 H625 0.950 . S
H622 C618 0.950 . S
C623 C621 1.390 1_565 S
C623 C624 1.387 . S
C623 H626 0.950 . S
C624 C623 1.387 . S
C624 C627 1.387 . S
H625 C621 0.950 . S
H626 C623 0.950 . S
C627 C618 1.390 1_565 S
C627 H620 0.950 . S
C627 C624 1.387 . S
C628 C629 1.387 . S
C628 H632 0.950 . S
C628 C637 1.390 1_556 S
C629 C628 1.387 . S
C629 C631 1.387 . S
H630 C637 0.950 . S
C631 C629 1.387 . S
C631 C633 1.390 1_556 S
C631 H635 0.950 . S
H632 C628 0.950 . S
C633 C631 1.390 1_554 S
C633 C634 1.387 . S
C633 H636 0.950 . S
C634 C633 1.387 . S
C634 C637 1.387 . S
H635 C631 0.950 . S
H636 C633 0.950 . S
C637 C628 1.390 1_554 S
C637 H630 0.950 . S
C637 C634 1.387 . S
C638 C639 1.387 . S
C638 H642 0.950 . S
C638 C647 1.390 . S
C639 C638 1.387 . S
C639 C641 1.387 1_455 S
H640 C647 0.950 . S
C641 C639 1.387 1_655 S
C641 C643 1.390 . S
C641 H645 0.950 . S
H642 C638 0.950 . S
C643 C641 1.390 . S
C643 C644 1.387 . S
C643 H646 0.950 . S
C644 C643 1.387 . S
C644 C647 1.387 1_655 S
H645 C641 0.950 . S
H646 C643 0.950 . S
C647 C638 1.390 . S
C647 H640 0.950 . S
C647 C644 1.387 1_455 S
C529 C20 1.082 . S
C534 C381 1.088 . S
C539 C137 1.088 . S
C544 C469 1.088 . S
C549 C29 1.085 . S
C554 C233 1.084 . S
C559 C313 1.086 . S
C564 C117 1.085 . S
C569 C401 1.088 . S
C574 C196 1.088 . S
C579 C321 1.085 . S
C584 C489 1.084 . S
C589 C293 1.325 . S
C594 C49 1.326 . S
C599 C372 1.333 . S
C604 C145 1.333 . S
C609 C460 1.331 . S
C614 C225 1.332 . S
C619 C57 1.325 . S
C624 C284 1.326 . S
C629 C108 1.332 . S
C634 C409 1.331 . S
C639 C497 1.333 . S
C644 C205 1.333 . S
