# Generated by pormake.
# Topology wio, (6)-cn, num edge types: 1
# Building blocks:
#     Node 0, Type 0, BuildingBlock: VOLQOD_clean_sbu_1, # of connection points: 6
#     Node 1, Type 0, BuildingBlock: VOLQOD_clean_sbu_1, # of connection points: 6
#     Node 2, Type 0, BuildingBlock: VOLQOD_clean_sbu_1, # of connection points: 6
#     Node 3, Type 0, BuildingBlock: VOLQOD_clean_sbu_1, # of connection points: 6
#     Node 4, Type 0, BuildingBlock: VOLQOD_clean_sbu_1, # of connection points: 6
#     Node 5, Type 0, BuildingBlock: VOLQOD_clean_sbu_1, # of connection points: 6
#     Node 6, Type 0, BuildingBlock: VOLQOD_clean_sbu_1, # of connection points: 6
#     Node 7, Type 0, BuildingBlock: VOLQOD_clean_sbu_1, # of connection points: 6
#     Node 8, Type 0, BuildingBlock: VOLQOD_clean_sbu_1, # of connection points: 6
#     Node 9, Type 0, BuildingBlock: VOLQOD_clean_sbu_1, # of connection points: 6
#     Node 10, Type 0, BuildingBlock: VOLQOD_clean_sbu_1, # of connection points: 6
#     Node 11, Type 0, BuildingBlock: VOLQOD_clean_sbu_1, # of connection points: 6
#     Node 12, Type 0, BuildingBlock: VOLQOD_clean_sbu_1, # of connection points: 6
#     Node 13, Type 0, BuildingBlock: VOLQOD_clean_sbu_1, # of connection points: 6
#     Node 14, Type 0, BuildingBlock: VOLQOD_clean_sbu_1, # of connection points: 6
#     Node 15, Type 0, BuildingBlock: VOLQOD_clean_sbu_1, # of connection points: 6
#     Node 16, Type 0, BuildingBlock: VOLQOD_clean_sbu_1, # of connection points: 6
#     Node 17, Type 0, BuildingBlock: VOLQOD_clean_sbu_1, # of connection points: 6
#     Node 18, Type 0, BuildingBlock: VOLQOD_clean_sbu_1, # of connection points: 6
#     Node 19, Type 0, BuildingBlock: VOLQOD_clean_sbu_1, # of connection points: 6
#     Node 20, Type 0, BuildingBlock: VOLQOD_clean_sbu_1, # of connection points: 6
#     Node 21, Type 0, BuildingBlock: VOLQOD_clean_sbu_1, # of connection points: 6
#     Node 22, Type 0, BuildingBlock: VOLQOD_clean_sbu_1, # of connection points: 6
#     Node 23, Type 0, BuildingBlock: VOLQOD_clean_sbu_1, # of connection points: 6
#     Node 24, Type 0, BuildingBlock: VOLQOD_clean_sbu_1, # of connection points: 6
#     Node 25, Type 0, BuildingBlock: VOLQOD_clean_sbu_1, # of connection points: 6
#     Node 26, Type 0, BuildingBlock: VOLQOD_clean_sbu_1, # of connection points: 6
#     Node 27, Type 0, BuildingBlock: VOLQOD_clean_sbu_1, # of connection points: 6
#     Node 28, Type 0, BuildingBlock: VOLQOD_clean_sbu_1, # of connection points: 6
#     Node 29, Type 0, BuildingBlock: VOLQOD_clean_sbu_1, # of connection points: 6
#     Node 30, Type 0, BuildingBlock: VOLQOD_clean_sbu_1, # of connection points: 6
#     Node 31, Type 0, BuildingBlock: VOLQOD_clean_sbu_1, # of connection points: 6
#     Edge 32, Type (0, 0), None
#     Edge 33, Type (0, 0), None
#     Edge 34, Type (0, 0), None
#     Edge 35, Type (0, 0), None
#     Edge 36, Type (0, 0), None
#     Edge 37, Type (0, 0), None
#     Edge 38, Type (0, 0), None
#     Edge 39, Type (0, 0), None
#     Edge 40, Type (0, 0), None
#     Edge 41, Type (0, 0), None
#     Edge 42, Type (0, 0), None
#     Edge 43, Type (0, 0), None
#     Edge 44, Type (0, 0), None
#     Edge 45, Type (0, 0), None
#     Edge 46, Type (0, 0), None
#     Edge 47, Type (0, 0), None
#     Edge 48, Type (0, 0), None
#     Edge 49, Type (0, 0), None
#     Edge 50, Type (0, 0), None
#     Edge 51, Type (0, 0), None
#     Edge 52, Type (0, 0), None
#     Edge 53, Type (0, 0), None
#     Edge 54, Type (0, 0), None
#     Edge 55, Type (0, 0), None
#     Edge 56, Type (0, 0), None
#     Edge 57, Type (0, 0), None
#     Edge 58, Type (0, 0), None
#     Edge 59, Type (0, 0), None
#     Edge 60, Type (0, 0), None
#     Edge 61, Type (0, 0), None
#     Edge 62, Type (0, 0), None
#     Edge 63, Type (0, 0), None
#     Edge 64, Type (0, 0), None
#     Edge 65, Type (0, 0), None
#     Edge 66, Type (0, 0), None
#     Edge 67, Type (0, 0), None
#     Edge 68, Type (0, 0), None
#     Edge 69, Type (0, 0), None
#     Edge 70, Type (0, 0), None
#     Edge 71, Type (0, 0), None
#     Edge 72, Type (0, 0), None
#     Edge 73, Type (0, 0), None
#     Edge 74, Type (0, 0), None
#     Edge 75, Type (0, 0), None
#     Edge 76, Type (0, 0), None
#     Edge 77, Type (0, 0), None
#     Edge 78, Type (0, 0), None
#     Edge 79, Type (0, 0), None
#     Edge 80, Type (0, 0), None
#     Edge 81, Type (0, 0), None
#     Edge 82, Type (0, 0), None
#     Edge 83, Type (0, 0), None
#     Edge 84, Type (0, 0), None
#     Edge 85, Type (0, 0), None
#     Edge 86, Type (0, 0), None
#     Edge 87, Type (0, 0), None
#     Edge 88, Type (0, 0), None
#     Edge 89, Type (0, 0), None
#     Edge 90, Type (0, 0), None
#     Edge 91, Type (0, 0), None
#     Edge 92, Type (0, 0), None
#     Edge 93, Type (0, 0), None
#     Edge 94, Type (0, 0), None
#     Edge 95, Type (0, 0), None
#     Edge 96, Type (0, 0), None
#     Edge 97, Type (0, 0), None
#     Edge 98, Type (0, 0), None
#     Edge 99, Type (0, 0), None
#     Edge 100, Type (0, 0), None
#     Edge 101, Type (0, 0), None
#     Edge 102, Type (0, 0), None
#     Edge 103, Type (0, 0), None
#     Edge 104, Type (0, 0), None
#     Edge 105, Type (0, 0), None
#     Edge 106, Type (0, 0), None
#     Edge 107, Type (0, 0), None
#     Edge 108, Type (0, 0), None
#     Edge 109, Type (0, 0), None
#     Edge 110, Type (0, 0), None
#     Edge 111, Type (0, 0), None
#     Edge 112, Type (0, 0), None
#     Edge 113, Type (0, 0), None
#     Edge 114, Type (0, 0), None
#     Edge 115, Type (0, 0), None
#     Edge 116, Type (0, 0), None
#     Edge 117, Type (0, 0), None
#     Edge 118, Type (0, 0), None
#     Edge 119, Type (0, 0), None
#     Edge 120, Type (0, 0), None
#     Edge 121, Type (0, 0), None
#     Edge 122, Type (0, 0), None
#     Edge 123, Type (0, 0), None
#     Edge 124, Type (0, 0), None
#     Edge 125, Type (0, 0), None
#     Edge 126, Type (0, 0), None
#     Edge 127, Type (0, 0), None
# Relax obj value: 0.386
# Max RMSD: 0.209
# Mean RMSD: 0.204
data_MOF--net-wio--node1-VOLQOD_clean_sbu_1--edge1-none
_symmetry_space_group_name_H-M    P1
_symmetry_Int_Tables_number       1
_symmetry_cell_setting            triclinic
loop_
_symmetry_equiv_pos_as_xyz
'x, y, z'
_cell_length_a     30.420898
_cell_length_b     30.432758
_cell_length_c     19.566694
_cell_angle_alpha  89.617176
_cell_angle_beta   90.035912
_cell_angle_gamma 90.410887
loop_
_atom_site_label
_atom_site_type_symbol
_atom_site_fract_x
_atom_site_fract_y
_atom_site_fract_z
_atom_type_partial_charge
O0 O 0.16636 0.02577 0.27262 0.0
Zn1 Zn 0.17599 0.06688 0.34597 0.0
O2 O 0.13351 0.11086 0.32274 0.0
Zn3 Zn 0.16678 0.15341 0.27114 0.0
Zn4 Zn 0.08849 0.08723 0.26185 0.0
Zn5 Zn 0.10085 0.12818 0.40231 0.0
O6 O 0.14737 0.21069 0.30835 0.0
O7 O 0.11399 0.19518 0.40886 0.0
O8 O 0.24027 0.07982 0.32613 0.0
O9 O 0.23345 0.14324 0.2716 0.0
O10 O 0.1546 0.14813 0.16978 0.0
O11 O 0.10036 0.09937 0.16589 0.0
O12 O 0.02622 0.10178 0.27813 0.0
O13 O 0.16132 0.03815 0.43618 0.0
O14 O 0.03466 0.12205 0.38564 0.0
O15 O 0.11058 0.08175 0.48154 0.0
C16 C 0.13128 0.012 0.24535 0.0
C17 C 0.12822 0.22255 0.36321 0.0
C18 C 0.1283 0.1237 0.13635 0.0
C19 C 0.25699 0.11072 0.2902 0.0
C20 C 0.01009 0.11291 0.33475 0.0
C21 C 0.13442 0.04707 0.48408 0.0
O22 O 0.09377 0.02427 0.26508 0.0
O23 O 0.21157 0.914 0.53004 0.0
Zn24 Zn 0.16755 0.93048 0.59591 0.0
O25 O 0.12297 0.88831 0.57656 0.0
Zn26 Zn 0.0815 0.9184 0.51973 0.0
Zn27 Zn 0.14652 0.84109 0.5221 0.0
Zn28 Zn 0.10526 0.85714 0.65807 0.0
O29 O 0.02393 0.89685 0.55555 0.0
O30 O 0.03785 0.86543 0.65821 0.0
O31 O 0.15594 0.9938 0.5657 0.0
O32 O 0.09107 0.9858 0.51574 0.0
O33 O 0.08873 0.9013 0.42011 0.0
O34 O 0.13989 0.85008 0.42488 0.0
O35 O 0.12508 0.78122 0.53803 0.0
O36 O 0.19425 0.91931 0.68881 0.0
O37 O 0.11398 0.79104 0.6482 0.0
O38 O 0.14914 0.87087 0.73884 0.0
C39 C 0.2262 0.87682 0.51289 0.0
C40 C 0.01131 0.87711 0.61005 0.0
C41 C 0.11476 0.87469 0.39105 0.0
C42 C 0.12412 0.00994 0.53149 0.0
C43 C 0.11873 0.76585 0.59707 0.0
C44 C 0.18439 0.89441 0.73936 0.0
O45 O 0.20937 0.84112 0.53375 0.0
O46 O 0.37263 0.97997 0.83455 0.0
Zn47 Zn 0.38285 0.92321 0.79216 0.0
O48 O 0.34105 0.88649 0.83902 0.0
Zn49 Zn 0.37497 0.86348 0.91308 0.0
Zn50 Zn 0.29248 0.92278 0.87262 0.0
Zn51 Zn 0.31723 0.84696 0.77646 0.0
O52 O 0.35842 0.79773 0.91821 0.0
O53 O 0.33035 0.78769 0.81289 0.0
O54 O 0.44602 0.909 0.80352 0.0
O55 O 0.44081 0.86517 0.89336 0.0
O56 O 0.36874 0.90968 -0.00986 0.0
O57 O 0.30362 0.94069 0.9712 0.0
O58 O 0.2301 0.90669 0.8377 0.0
O59 O 0.37558 0.92216 0.69077 0.0
O60 O 0.25218 0.86013 0.75824 0.0
O61 O 0.34768 0.8545 0.68709 0.0
C62 C 0.33698 -0.00136 0.81916 0.0
C63 C 0.3455 0.77282 0.86911 0.0
C64 C 0.33939 0.93797 0.00542 0.0
C65 C 0.46379 0.88441 0.84757 0.0
C66 C 0.22188 0.8832 0.7852 0.0
C67 C 0.3665 0.88719 0.65832 0.0
O68 O 0.3006 0.9785 0.82358 0.0
O69 O 0.25695 0.12096 0.04121 0.0
Zn70 Zn 0.31586 0.14111 0.02443 0.0
O71 O 0.34981 0.09994 0.07746 0.0
Zn72 Zn 0.37082 0.13335 0.15378 0.0
Zn73 Zn 0.31061 0.0519 0.10917 0.0
Zn74 Zn 0.39137 0.07326 0.01848 0.0
O75 O 0.43571 0.11677 0.1643 0.0
O76 O 0.44876 0.08353 0.06392 0.0
O77 O 0.32049 0.20284 0.04836 0.0
O78 O 0.36973 0.19892 0.13127 0.0
O79 O 0.32564 0.12603 0.23362 0.0
O80 O 0.28516 0.06822 0.20136 0.0
O81 O 0.33268 0.98954 0.09621 0.0
O82 O 0.33245 0.14303 0.92748 0.0
O83 O 0.37421 0.00747 0.00671 0.0
O84 O 0.39431 0.10491 0.92543 0.0
C85 C 0.2506 0.08509 0.0108 0.0
C86 C 0.46185 0.10018 0.12003 0.0
C87 C 0.29352 0.09917 0.24351 0.0
C88 C 0.34701 0.22114 0.08872 0.0
C89 C 0.353 0.97857 0.0419 0.0
C90 C 0.36713 0.13114 0.89719 0.0
O91 O 0.26445 0.04999 0.03771 0.0
O92 O 0.1727 0.96993 0.17272 0.0
Zn93 Zn 0.18827 0.92332 0.11002 0.0
O94 O 0.14293 0.88045 0.13329 0.0
Zn95 Zn 0.17022 0.8408 0.19546 0.0
Zn96 Zn 0.0962 0.90884 0.18351 0.0
Zn97 Zn 0.11243 0.85941 0.05299 0.0
O98 O 0.15698 0.78188 0.1572 0.0
O99 O 0.12763 0.79265 0.05245 0.0
O100 O 0.2516 0.91199 0.14405 0.0
O101 O 0.23602 0.85557 0.2121 0.0
O102 O 0.14309 0.84538 0.28928 0.0
O103 O 0.10213 0.90519 0.28286 0.0
O104 O 0.03546 0.8897 0.16771 0.0
O105 O 0.17866 0.94703 0.01416 0.0
O106 O 0.04481 0.86294 0.06424 0.0
O107 O 0.12499 0.90461 0.97239 0.0
C108 C 0.13511 0.9852 0.18606 0.0
C109 C 0.14113 0.76736 0.10124 0.0
C110 C 0.11917 0.87443 0.31712 0.0
C111 C 0.26342 0.88442 0.18993 0.0
C112 C 0.01976 0.87393 0.11356 0.0
C113 C 0.15118 0.93783 0.96678 0.0
O114 O 0.10063 0.96985 0.15914 0.0
O115 O 0.27447 0.91322 0.44252 0.0
Zn116 Zn 0.31886 0.93228 0.3786 0.0
O117 O 0.36355 0.89005 0.39839 0.0
Zn118 Zn 0.40586 0.9216 0.45111 0.0
Zn119 Zn 0.34357 0.84262 0.45755 0.0
Zn120 Zn 0.38117 0.85894 0.31821 0.0
O121 O 0.46314 0.89796 0.41913 0.0
O122 O 0.44854 0.87018 0.31479 0.0
O123 O 0.32963 -0.00513 0.41583 0.0
O124 O 0.39988 0.98792 0.44234 0.0
O125 O 0.39685 0.91294 0.5532 0.0
O126 O 0.35213 0.85542 0.55341 0.0
O127 O 0.36569 0.78245 0.44298 0.0
O128 O 0.2925 0.92255 0.28402 0.0
O129 O 0.37471 0.79272 0.33215 0.0
O130 O 0.33499 0.87058 0.23944 0.0
C131 C 0.26143 0.87636 0.46531 0.0
C132 C 0.4754 0.87999 0.36357 0.0
C133 C 0.37304 0.885 0.58476 0.0
C134 C 0.36466 0.01061 0.4422 0.0
C135 C 0.37168 0.76728 0.38394 0.0
C136 C 0.30108 0.89551 0.23611 0.0
O137 O 0.28029 0.84058 0.4516 0.0
O138 O 0.32855 0.18864 0.57697 0.0
Zn139 Zn 0.31902 0.11932 0.57903 0.0
O140 O 0.36105 0.11063 0.6492 0.0
Zn141 Zn 0.39143 0.05867 0.64422 0.0
Zn142 Zn 0.40382 0.14699 0.689 0.0
Zn143 Zn 0.3196 0.12179 0.72387 0.0
O144 O 0.36997 0.02717 0.72378 0.0
O145 O 0.31485 0.06508 0.77178 0.0
O146 O 0.33723 0.07796 0.49572 0.0
O147 O 0.37939 0.03126 0.55442 0.0
O148 O 0.45731 0.06499 0.64949 0.0
O149 O 0.4653 0.13691 0.65996 0.0
O150 O 0.40482 0.13287 0.79066 0.0
O151 O 0.25692 0.0957 0.61896 0.0
O152 O 0.34021 0.16209 0.79574 0.0
O153 O 0.26026 0.1441 0.69914 0.0
C154 C 0.35259 0.21579 0.61227 0.0
C155 C 0.34046 0.03234 0.76905 0.0
C156 C 0.48167 0.09895 0.65339 0.0
C157 C 0.36068 0.04283 0.49894 0.0
C158 C 0.37277 0.14558 0.82614 0.0
C159 C 0.23781 0.11583 0.66768 0.0
O160 O 0.38073 0.2037 0.65723 0.0
O161 O 0.23661 0.05093 0.90834 0.0
Zn162 Zn 0.18591 0.04908 0.84478 0.0
O163 O 0.1466 0.09679 0.87886 0.0
Zn164 Zn 0.10345 0.07037 0.9362 0.0
Zn165 Zn 0.17922 0.13883 0.93456 0.0
Zn166 Zn 0.12478 0.13085 0.80292 0.0
O167 O 0.04537 0.08695 0.89867 0.0
O168 O 0.05826 0.11881 0.79675 0.0
O169 O 0.1657 0.98579 0.87124 0.0
O170 O 0.11568 0.00466 0.94818 0.0
O171 O 0.10542 0.09544 0.03069 0.0
O172 O 0.16722 0.13428 0.03379 0.0
O173 O 0.16885 0.20165 0.91748 0.0
O174 O 0.20935 0.06495 0.74823 0.0
O175 O 0.12816 0.19631 0.8243 0.0
O176 O 0.16823 0.12289 0.72112 0.0
C177 C 0.24808 0.08636 0.93677 0.0
C178 C 0.032 0.10571 0.84423 0.0
C179 C 0.13324 0.11889 0.06281 0.0
C180 C 0.14005 0.97554 0.92093 0.0
C181 C 0.1457 0.21917 0.87151 0.0
C182 C 0.20023 0.09697 0.70774 0.0
O183 O 0.23823 0.12257 0.90902 0.0
O184 O 0.82439 0.96677 0.6852 0.0
Zn185 Zn 0.80314 0.92626 0.61751 0.0
O186 O 0.84082 0.87804 0.63494 0.0
Zn187 Zn 0.80657 0.83761 0.68908 0.0
Zn188 Zn 0.88993 0.8945 0.69221 0.0
Zn189 Zn 0.87233 0.8617 0.5536 0.0
O190 O 0.82277 0.78089 0.64929 0.0
O191 O 0.86044 0.79462 0.55155 0.0
O192 O 0.7391 0.91894 0.64834 0.0
O193 O 0.74037 0.85163 0.69194 0.0
O194 O 0.82402 0.83785 0.78979 0.0
O195 O 0.87973 0.8848 0.78825 0.0
O196 O 0.94799 0.86911 0.6772 0.0
O197 O 0.8164 0.95408 0.52561 0.0
O198 O 0.9389 0.87062 0.56576 0.0
O199 O 0.86059 0.90686 0.47332 0.0
C200 C 0.86288 0.97698 0.7043 0.0
C201 C 0.84376 0.76827 0.59666 0.0
C202 C 0.85349 0.86011 0.82048 0.0
C203 C 0.71973 0.88721 0.67924 0.0
C204 C 0.96395 0.87014 0.61798 0.0
C205 C 0.83999 0.94358 0.47436 0.0
O206 O 0.89665 0.95711 0.68396 0.0
O207 O 0.76362 0.05688 0.42279 0.0
Zn208 Zn 0.81076 0.0543 0.35501 0.0
O209 O 0.84963 0.10276 0.38544 0.0
Zn210 Zn 0.89212 0.07593 0.44213 0.0
Zn211 Zn 0.81708 0.14399 0.44133 0.0
Zn212 Zn 0.86929 0.13714 0.30825 0.0
O213 O 0.94989 0.09075 0.40018 0.0
O214 O 0.93571 0.12425 0.29967 0.0
O215 O 0.82948 0.99072 0.377 0.0
O216 O 0.87718 0.01045 0.45683 0.0
O217 O 0.89084 0.10141 0.53648 0.0
O218 O 0.82807 0.13791 0.54044 0.0
O219 O 0.82664 0.20696 0.42416 0.0
O220 O 0.78519 0.06929 0.26219 0.0
O221 O 0.86475 0.20275 0.32824 0.0
O222 O 0.82383 0.12834 0.22905 0.0
C223 C 0.74837 0.09209 0.44661 0.0
C224 C 0.96258 0.10929 0.34487 0.0
C225 C 0.86218 0.12307 0.56926 0.0
C226 C 0.85316 0.98096 0.42883 0.0
C227 C 0.84731 0.22517 0.37578 0.0
C228 C 0.79226 0.10079 0.21991 0.0
O229 O 0.75748 0.12848 0.41857 0.0
O230 O 0.67517 0.02234 0.18506 0.0
Zn231 Zn 0.67803 0.06724 0.11403 0.0
O232 O 0.63126 0.10586 0.14389 0.0
Zn233 Zn 0.65968 0.14821 0.19997 0.0
Zn234 Zn 0.58886 0.07393 0.20052 0.0
Zn235 Zn 0.59833 0.12572 0.06602 0.0
O236 O 0.6408 0.20605 0.16315 0.0
O237 O 0.61011 0.19198 0.06069 0.0
O238 O 0.74158 0.08641 0.13028 0.0
O239 O 0.72623 0.13824 0.20517 0.0
O240 O 0.6412 0.1414 0.29833 0.0
O241 O 0.59576 0.08417 0.29928 0.0
O242 O 0.52587 0.08312 0.18118 0.0
O243 O 0.6624 0.04099 0.0226 0.0
O244 O 0.53294 0.11926 0.08323 0.0
O245 O 0.60795 0.0832 0.98423 0.0
C246 C 0.64102 0.0046 0.20985 0.0
C247 C 0.62268 0.21865 0.10763 0.0
C248 C 0.61728 0.11361 0.33028 0.0
C249 C 0.75401 0.11294 0.17676 0.0
C250 C 0.50916 0.10238 0.1302 0.0
C251 C 0.63353 0.05023 0.97736 0.0
O252 O 0.60318 0.01311 0.18666 0.0
O253 O 0.71169 0.93365 0.93549 0.0
Zn254 Zn 0.66611 0.93929 0.86489 0.0
O255 O 0.62543 0.89226 0.89067 0.0
Zn256 Zn 0.58374 0.9192 0.94933 0.0
Zn257 Zn 0.65701 0.84869 0.94367 0.0
Zn258 Zn 0.60442 0.86067 0.81197 0.0
O259 O 0.52532 0.90258 0.9119 0.0
O260 O 0.5375 0.87432 0.80748 0.0
O261 O 0.64818 0.00231 0.88515 0.0
O262 O 0.59505 0.98515 0.95798 0.0
O263 O 0.59039 0.89844 0.04699 0.0
O264 O 0.64794 0.85436 0.04181 0.0
O265 O 0.64535 0.78623 0.92415 0.0
O266 O 0.69181 0.92646 0.77179 0.0
O267 O 0.60881 0.79416 0.82719 0.0
O268 O 0.6496 0.87188 0.73219 0.0
C269 C 0.72907 0.89829 0.95572 0.0
C270 C 0.51154 0.88654 0.8557 0.0
C271 C 0.61917 0.87443 0.07573 0.0
C272 C 0.62124 0.01351 0.93169 0.0
C273 C 0.62517 0.76986 0.87395 0.0
C274 C 0.68283 0.89796 0.72603 0.0
O275 O 0.71852 0.8617 0.92989 0.0
O276 O 0.83143 0.02304 0.78165 0.0
Zn277 Zn 0.81925 0.06481 0.85163 0.0
O278 O 0.86109 0.1095 0.82921 0.0
Zn279 Zn 0.82729 0.15189 0.77913 0.0
Zn280 Zn 0.90564 0.08759 0.7671 0.0
Zn281 Zn 0.89505 0.12524 0.9088 0.0
O282 O 0.84674 0.20835 0.8195 0.0
O283 O 0.88363 0.19235 0.91676 0.0
O284 O 0.75506 0.07506 0.82977 0.0
O285 O 0.76046 0.13986 0.77877 0.0
O286 O 0.84044 0.1499 0.67751 0.0
O287 O 0.8925 0.09967 0.67191 0.0
O288 O 0.96723 0.10499 0.77951 0.0
O289 O 0.83322 0.03582 0.94074 0.0
O290 O 0.961 0.11715 0.89022 0.0
O291 O 0.88435 0.07872 -0.01204 0.0
C292 C 0.86675 0.00885 0.75644 0.0
C293 C 0.86766 0.21995 0.87314 0.0
C294 C 0.86606 0.12563 0.64322 0.0
C295 C 0.73756 0.1062 0.79593 0.0
C296 C 0.98453 0.11114 0.83713 0.0
C297 C 0.86002 0.04402 -0.0109 0.0
O298 O 0.90402 0.02441 0.77175 0.0
O299 O 0.72551 0.05567 0.54392 0.0
Zn300 Zn 0.68079 0.04921 0.61516 0.0
O301 O 0.63868 0.09515 0.58783 0.0
Zn302 Zn 0.59518 0.06442 0.53586 0.0
Zn303 Zn 0.66657 0.13855 0.52883 0.0
Zn304 Zn 0.62177 0.13017 0.6651 0.0
O305 O 0.53918 0.07372 0.58617 0.0
O306 O 0.55621 0.11631 0.6765 0.0
O307 O 0.66489 0.98461 0.59417 0.0
O308 O 0.61121 -0.00015 0.52183 0.0
O309 O 0.59222 0.08851 0.43857 0.0
O310 O 0.65294 0.12933 0.4325 0.0
O311 O 0.65513 0.2018 0.54253 0.0
O312 O 0.70747 0.0644 0.70721 0.0
O313 O 0.62602 0.19625 0.64545 0.0
O314 O 0.66792 0.1214 0.74295 0.0
C315 C 0.73835 0.09184 0.51862 0.0
C316 C 0.52847 0.09494 0.63966 0.0
C317 C 0.61991 0.1115 0.40452 0.0
C318 C 0.63842 0.97246 0.54708 0.0
C319 C 0.639 0.21948 0.59479 0.0
C320 C 0.70009 0.09479 0.75055 0.0
O321 O 0.72774 0.12767 0.54596 0.0
O322 O 0.68171 0.96853 0.29232 0.0
Zn323 Zn 0.69139 0.92216 0.36023 0.0
O324 O 0.64529 0.88029 0.33443 0.0
Zn325 Zn 0.67297 0.84115 0.27304 0.0
Zn326 Zn 0.60024 0.9105 0.28283 0.0
Zn327 Zn 0.61467 0.85766 0.41355 0.0
O328 O 0.66094 0.78226 0.30967 0.0
O329 O 0.63128 0.79122 0.41421 0.0
O330 O 0.7551 0.90721 0.33509 0.0
O331 O 0.73822 0.85511 0.26096 0.0
O332 O 0.64798 0.84566 0.17812 0.0
O333 O 0.6047 0.90377 0.18342 0.0
O334 O 0.5389 0.896 0.30205 0.0
O335 O 0.67862 0.94631 0.45433 0.0
O336 O 0.54737 0.86124 0.40062 0.0
O337 O 0.62585 0.90188 0.49474 0.0
C338 C 0.64469 0.98388 0.27563 0.0
C339 C 0.64569 0.76687 0.36545 0.0
C340 C 0.6229 0.87365 0.14974 0.0
C341 C 0.76643 0.88113 0.28749 0.0
C342 C 0.5228 0.87657 0.35329 0.0
C343 C 0.65094 0.93584 0.50093 0.0
O344 O 0.60995 0.97111 0.30505 0.0
O345 O 0.77451 0.9327 0.03486 0.0
Zn346 Zn 0.82151 0.93485 0.10399 0.0
O347 O 0.85674 0.88459 0.0769 0.0
Zn348 Zn 0.89851 0.90798 0.01478 0.0
Zn349 Zn 0.81835 0.8421 0.03085 0.0
Zn350 Zn 0.87906 0.85405 0.15443 0.0
O351 O 0.95783 0.88939 0.04717 0.0
O352 O 0.94614 0.8665 0.15514 0.0
O353 O 0.84562 -0.00325 0.08407 0.0
O354 O 0.89116 0.9747 0.00341 0.0
O355 O 0.88641 0.88427 0.92163 0.0
O356 O 0.82551 0.84385 0.93005 0.0
O357 O 0.82333 0.77913 0.05812 0.0
O358 O 0.79603 0.92208 0.19748 0.0
O359 O 0.873 0.78847 0.13954 0.0
O360 O 0.8361 0.86583 0.23583 0.0
C361 C 0.753 0.89852 0.0191 0.0
C362 C 0.97193 0.87518 0.10452 0.0
C363 C 0.85587 0.86136 0.89471 0.0
C364 C 0.87051 0.00557 0.03322 0.0
C365 C 0.8492 0.76347 0.10246 0.0
C366 C 0.8042 0.89285 0.2429 0.0
O367 O 0.75969 0.86227 0.04916 0.0
O368 O 0.66639 0.52577 0.77262 0.0
Zn369 Zn 0.67601 0.56689 0.84597 0.0
O370 O 0.63352 0.61086 0.82274 0.0
Zn371 Zn 0.66679 0.6534 0.77113 0.0
Zn372 Zn 0.58851 0.58721 0.76186 0.0
Zn373 Zn 0.60086 0.62818 0.9023 0.0
O374 O 0.64737 0.71069 0.80833 0.0
O375 O 0.614 0.69519 0.90885 0.0
O376 O 0.74029 0.57984 0.82615 0.0
O377 O 0.73345 0.64324 0.77157 0.0
O378 O 0.6546 0.64813 0.66977 0.0
O379 O 0.60037 0.59934 0.66589 0.0
O380 O 0.52623 0.60175 0.77813 0.0
O381 O 0.66134 0.53815 0.93618 0.0
O382 O 0.53467 0.62206 0.88562 0.0
O383 O 0.61058 0.58175 0.98153 0.0
C384 C 0.63131 0.51199 0.74536 0.0
C385 C 0.62822 0.72256 0.86319 0.0
C386 C 0.6283 0.62369 0.63635 0.0
C387 C 0.757 0.61073 0.7902 0.0
C388 C 0.5101 0.6129 0.83474 0.0
C389 C 0.63443 0.54707 0.98408 0.0
O390 O 0.5938 0.52425 0.7651 0.0
O391 O 0.71157 0.41399 0.03004 0.0
Zn392 Zn 0.66755 0.43048 0.09591 0.0
O393 O 0.62297 0.38832 0.07656 0.0
Zn394 Zn 0.5815 0.4184 0.01973 0.0
Zn395 Zn 0.64652 0.34109 0.0221 0.0
Zn396 Zn 0.60525 0.35714 0.15807 0.0
O397 O 0.52392 0.39686 0.05555 0.0
O398 O 0.53785 0.36544 0.15821 0.0
O399 O 0.65594 0.4938 0.06569 0.0
O400 O 0.59108 0.48581 0.01574 0.0
O401 O 0.58873 0.40131 0.92011 0.0
O402 O 0.63988 0.35009 0.92488 0.0
O403 O 0.62507 0.28123 0.03803 0.0
O404 O 0.69425 0.41931 0.18881 0.0
O405 O 0.61398 0.29105 0.1482 0.0
O406 O 0.64914 0.37088 0.23884 0.0
C407 C 0.7262 0.37682 0.01289 0.0
C408 C 0.5113 0.37712 0.11005 0.0
C409 C 0.61476 0.3747 0.89105 0.0
C410 C 0.62413 0.50995 0.03149 0.0
C411 C 0.61871 0.26586 0.09707 0.0
C412 C 0.68439 0.39441 0.23936 0.0
O413 O 0.70936 0.34112 0.03375 0.0
O414 O 0.87263 0.47998 0.33456 0.0
Zn415 Zn 0.88284 0.42322 0.29216 0.0
O416 O 0.84105 0.38649 0.33903 0.0
Zn417 Zn 0.87496 0.36348 0.41309 0.0
Zn418 Zn 0.79247 0.42278 0.37263 0.0
Zn419 Zn 0.81723 0.34697 0.27646 0.0
O420 O 0.8584 0.29773 0.41822 0.0
O421 O 0.83034 0.28769 0.31289 0.0
O422 O 0.94601 0.409 0.30353 0.0
O423 O 0.9408 0.36516 0.39336 0.0
O424 O 0.86874 0.40968 0.49015 0.0
O425 O 0.80361 0.44069 0.4712 0.0
O426 O 0.73009 0.40669 0.33771 0.0
O427 O 0.87558 0.42216 0.19078 0.0
O428 O 0.75218 0.36014 0.25824 0.0
O429 O 0.84768 0.3545 0.1871 0.0
C430 C 0.83697 0.49864 0.31916 0.0
C431 C 0.84549 0.27282 0.36911 0.0
C432 C 0.83939 0.43797 0.50542 0.0
C433 C 0.96379 0.38441 0.34758 0.0
C434 C 0.72188 0.3832 0.2852 0.0
C435 C 0.86651 0.3872 0.15832 0.0
O436 O 0.8006 0.4785 0.32358 0.0
O437 O 0.75695 0.62096 0.54121 0.0
Zn438 Zn 0.81586 0.64111 0.52443 0.0
O439 O 0.84982 0.59994 0.57746 0.0
Zn440 Zn 0.87083 0.63335 0.65377 0.0
Zn441 Zn 0.81062 0.5519 0.60918 0.0
Zn442 Zn 0.89137 0.57326 0.51847 0.0
O443 O 0.93571 0.61677 0.6643 0.0
O444 O 0.94876 0.58353 0.56391 0.0
O445 O 0.82048 0.70284 0.54836 0.0
O446 O 0.86974 0.69893 0.63125 0.0
O447 O 0.82565 0.62604 0.73361 0.0
O448 O 0.78517 0.56823 0.70136 0.0
O449 O 0.83269 0.48954 0.59622 0.0
O450 O 0.83245 0.64303 0.42747 0.0
O451 O 0.87421 0.50747 0.50671 0.0
O452 O 0.89431 0.60491 0.42542 0.0
C453 C 0.75061 0.58509 0.5108 0.0
C454 C 0.96186 0.60018 0.62003 0.0
C455 C 0.79353 0.59918 0.74351 0.0
C456 C 0.84703 0.72113 0.58869 0.0
C457 C 0.853 0.47857 0.5419 0.0
C458 C 0.86713 0.63114 0.39718 0.0
O459 O 0.76446 0.54999 0.53771 0.0
O460 O 0.67273 0.46993 0.67272 0.0
Zn461 Zn 0.68828 0.42332 0.61001 0.0
O462 O 0.64293 0.38045 0.63329 0.0
Zn463 Zn 0.67023 0.34081 0.69546 0.0
Zn464 Zn 0.59622 0.40886 0.6835 0.0
Zn465 Zn 0.61243 0.3594 0.553 0.0
O466 O 0.65699 0.28188 0.65721 0.0
O467 O 0.62764 0.29265 0.55246 0.0
O468 O 0.75161 0.41197 0.64403 0.0
O469 O 0.73602 0.35558 0.71212 0.0
O470 O 0.64308 0.34538 0.78929 0.0
O471 O 0.60214 0.4052 0.78286 0.0
O472 O 0.53547 0.38973 0.6677 0.0
O473 O 0.67866 0.44702 0.51415 0.0
O474 O 0.54481 0.36293 0.56425 0.0
O475 O 0.62499 0.4046 0.47239 0.0
C476 C 0.63514 0.48521 0.68606 0.0
C477 C 0.64114 0.26736 0.60125 0.0
C478 C 0.61917 0.37444 0.81712 0.0
C479 C 0.76343 0.38442 0.68993 0.0
C480 C 0.51977 0.37394 0.61356 0.0
C481 C 0.65118 0.43783 0.46678 0.0
O482 O 0.60067 0.46986 0.65913 0.0
O483 O 0.77447 0.41322 0.94252 0.0
Zn484 Zn 0.81887 0.43227 0.87861 0.0
O485 O 0.86356 0.39004 0.8984 0.0
Zn486 Zn 0.90586 0.4216 0.95111 0.0
Zn487 Zn 0.84357 0.34262 0.95756 0.0
Zn488 Zn 0.88118 0.35894 0.81822 0.0
O489 O 0.96315 0.39797 0.91914 0.0
O490 O 0.94855 0.37018 0.8148 0.0
O491 O 0.82962 0.49486 0.91583 0.0
O492 O 0.89988 0.48791 0.94234 0.0
O493 O 0.89685 0.41295 0.0532 0.0
O494 O 0.85213 0.35542 0.05341 0.0
O495 O 0.86569 0.28244 0.94299 0.0
O496 O 0.7925 0.42254 0.78402 0.0
O497 O 0.87473 0.29272 0.83215 0.0
O498 O 0.835 0.37058 0.73945 0.0
C499 C 0.76143 0.37635 0.96531 0.0
C500 C 0.9754 0.38 0.86357 0.0
C501 C 0.87304 0.385 0.08477 0.0
C502 C 0.86466 0.51061 0.94219 0.0
C503 C 0.8717 0.26727 0.88395 0.0
C504 C 0.80108 0.3955 0.73611 0.0
O505 O 0.78029 0.34057 0.95161 0.0
O506 O 0.82854 0.68863 0.07696 0.0
Zn507 Zn 0.81902 0.61931 0.07903 0.0
O508 O 0.86104 0.61063 0.1492 0.0
Zn509 Zn 0.89142 0.55867 0.14422 0.0
Zn510 Zn 0.90381 0.64699 0.18899 0.0
Zn511 Zn 0.81959 0.62178 0.22386 0.0
O512 O 0.86996 0.52717 0.22378 0.0
O513 O 0.81484 0.56508 0.27177 0.0
O514 O 0.83723 0.57796 -0.00428 0.0
O515 O 0.87938 0.53125 0.05441 0.0
O516 O 0.9573 0.56499 0.14949 0.0
O517 O 0.96529 0.63691 0.15995 0.0
O518 O 0.90482 0.63287 0.29065 0.0
O519 O 0.75691 0.59569 0.11896 0.0
O520 O 0.8402 0.66209 0.29574 0.0
O521 O 0.76025 0.6441 0.19913 0.0
C522 C 0.85258 0.71579 0.11226 0.0
C523 C 0.84045 0.53234 0.26905 0.0
C524 C 0.98166 0.59895 0.15338 0.0
C525 C 0.86068 0.54283 -0.00106 0.0
C526 C 0.87276 0.64558 0.32613 0.0
C527 C 0.73781 0.61582 0.16768 0.0
O528 O 0.88071 0.70369 0.15722 0.0
O529 O 0.7366 0.55092 0.40834 0.0
Zn530 Zn 0.68591 0.54907 0.34478 0.0
O531 O 0.64659 0.59679 0.37885 0.0
Zn532 Zn 0.60344 0.57036 0.4362 0.0
Zn533 Zn 0.67921 0.63882 0.43456 0.0
Zn534 Zn 0.62477 0.63084 0.30292 0.0
O535 O 0.54537 0.58694 0.39867 0.0
O536 O 0.55826 0.6188 0.29674 0.0
O537 O 0.6657 0.48579 0.37124 0.0
O538 O 0.61568 0.50465 0.44817 0.0
O539 O 0.60542 0.59542 0.53069 0.0
O540 O 0.66721 0.63427 0.53378 0.0
O541 O 0.66884 0.70164 0.41748 0.0
O542 O 0.70935 0.56494 0.24823 0.0
O543 O 0.62814 0.6963 0.3243 0.0
O544 O 0.66822 0.62288 0.22111 0.0
C545 C 0.74807 0.58636 0.43677 0.0
C546 C 0.532 0.60569 0.34423 0.0
C547 C 0.63323 0.61887 0.5628 0.0
C548 C 0.64005 0.47553 0.42093 0.0
C549 C 0.64568 0.71916 0.37152 0.0
C550 C 0.70022 0.59696 0.20774 0.0
O551 O 0.73822 0.62257 0.40902 0.0
O552 O 0.32434 0.46678 0.18519 0.0
Zn553 Zn 0.30311 0.42626 0.11749 0.0
O554 O 0.34082 0.37805 0.13494 0.0
Zn555 Zn 0.30657 0.33761 0.18909 0.0
Zn556 Zn 0.38991 0.39453 0.19221 0.0
Zn557 Zn 0.37233 0.3617 0.0536 0.0
O558 O 0.32277 0.2809 0.14931 0.0
O559 O 0.36043 0.29462 0.05156 0.0
O560 O 0.23908 0.41892 0.14831 0.0
O561 O 0.24037 0.35163 0.19198 0.0
O562 O 0.32404 0.33786 0.2898 0.0
O563 O 0.37972 0.38485 0.28825 0.0
O564 O 0.44799 0.36917 0.17721 0.0
O565 O 0.31639 0.45408 0.02559 0.0
O566 O 0.4389 0.37061 0.06577 0.0
O567 O 0.36059 0.40686 0.97333 0.0
C568 C 0.36283 0.477 0.20428 0.0
C569 C 0.34375 0.26827 0.09668 0.0
C570 C 0.3535 0.36013 0.32049 0.0
C571 C 0.21972 0.3872 0.17924 0.0
C572 C 0.46395 0.37016 0.11798 0.0
C573 C 0.33999 0.44357 0.97435 0.0
O574 O 0.39661 0.45715 0.18392 0.0
O575 O 0.26364 0.55689 0.92281 0.0
Zn576 Zn 0.31077 0.55431 0.85502 0.0
O577 O 0.34965 0.60276 0.88544 0.0
Zn578 Zn 0.39213 0.57592 0.94212 0.0
Zn579 Zn 0.31711 0.64399 0.94132 0.0
Zn580 Zn 0.36931 0.63714 0.80824 0.0
O581 O 0.4499 0.59074 0.90017 0.0
O582 O 0.43572 0.62424 0.79966 0.0
O583 O 0.32947 0.49072 0.87699 0.0
O584 O 0.37719 0.51044 0.95682 0.0
O585 O 0.39086 0.60139 0.03648 0.0
O586 O 0.32809 0.6379 0.04043 0.0
O587 O 0.32667 0.70696 0.92417 0.0
O588 O 0.28519 0.56929 0.7622 0.0
O589 O 0.36476 0.70275 0.82823 0.0
O590 O 0.32384 0.62833 0.72904 0.0
C591 C 0.24838 0.59211 0.94662 0.0
C592 C 0.46259 0.60928 0.84486 0.0
C593 C 0.3622 0.62305 0.06926 0.0
C594 C 0.35316 0.48095 0.92882 0.0
C595 C 0.34733 0.72517 0.87578 0.0
C596 C 0.29226 0.60079 0.71991 0.0
O597 O 0.2575 0.6285 0.91858 0.0
O598 O 0.17519 0.52233 0.68505 0.0
Zn599 Zn 0.17804 0.56723 0.61402 0.0
O600 O 0.13126 0.60585 0.64388 0.0
Zn601 Zn 0.15968 0.6482 0.69997 0.0
Zn602 Zn 0.08886 0.57392 0.70052 0.0
Zn603 Zn 0.09833 0.62572 0.56602 0.0
O604 O 0.1408 0.70604 0.66315 0.0
O605 O 0.11012 0.69198 0.56068 0.0
O606 O 0.24158 0.58641 0.63028 0.0
O607 O 0.22623 0.63824 0.70518 0.0
O608 O 0.1412 0.64139 0.79833 0.0
O609 O 0.09576 0.58416 0.79927 0.0
O610 O 0.02587 0.5831 0.68117 0.0
O611 O 0.16241 0.54099 0.52259 0.0
O612 O 0.03295 0.61926 0.58323 0.0
O613 O 0.10796 0.5832 0.48423 0.0
C614 C 0.14104 0.5046 0.70984 0.0
C615 C 0.12268 0.71864 0.60763 0.0
C616 C 0.11728 0.6136 0.83027 0.0
C617 C 0.25401 0.61294 0.67676 0.0
C618 C 0.00917 0.60237 0.6302 0.0
C619 C 0.13353 0.55022 0.47736 0.0
O620 O 0.1032 0.5131 0.68664 0.0
O621 O 0.21169 0.43364 0.43548 0.0
Zn622 Zn 0.16611 0.43928 0.36489 0.0
O623 O 0.12542 0.39225 0.39067 0.0
Zn624 Zn 0.08374 0.4192 0.44933 0.0
Zn625 Zn 0.157 0.34868 0.44368 0.0
Zn626 Zn 0.10441 0.36066 0.31198 0.0
O627 O 0.02532 0.40258 0.4119 0.0
O628 O 0.03749 0.37431 0.30749 0.0
O629 O 0.14818 0.5023 0.38515 0.0
O630 O 0.09504 0.48516 0.45797 0.0
O631 O 0.09038 0.39845 0.54699 0.0
O632 O 0.14793 0.35437 0.54182 0.0
O633 O 0.14534 0.28622 0.42417 0.0
O634 O 0.1918 0.42646 0.27178 0.0
O635 O 0.10881 0.29415 0.32719 0.0
O636 O 0.1496 0.37187 0.23219 0.0
C637 C 0.22907 0.39828 0.45572 0.0
C638 C 0.01153 0.38654 0.3557 0.0
C639 C 0.11916 0.37444 0.57574 0.0
C640 C 0.12124 0.5135 0.43168 0.0
C641 C 0.12515 0.26986 0.37398 0.0
C642 C 0.18282 0.39795 0.22603 0.0
O643 O 0.21851 0.36168 0.42989 0.0
O644 O 0.33138 0.52304 0.28166 0.0
Zn645 Zn 0.31923 0.56482 0.35165 0.0
O646 O 0.36108 0.6095 0.32921 0.0
Zn647 Zn 0.3273 0.65189 0.27911 0.0
Zn648 Zn 0.40562 0.58757 0.26712 0.0
Zn649 Zn 0.39504 0.62524 0.40879 0.0
O650 O 0.34674 0.70835 0.31948 0.0
O651 O 0.38362 0.69235 0.41676 0.0
O652 O 0.25503 0.57509 0.32982 0.0
O653 O 0.26046 0.63986 0.27872 0.0
O654 O 0.34046 0.6499 0.1775 0.0
O655 O 0.3925 0.59963 0.17192 0.0
O656 O 0.46722 0.60493 0.27952 0.0
O657 O 0.3332 0.53582 0.44076 0.0
O658 O 0.46099 0.61716 0.39021 0.0
O659 O 0.38435 0.57872 0.48796 0.0
C660 C 0.3667 0.50885 0.25645 0.0
C661 C 0.36765 0.71995 0.37313 0.0
C662 C 0.36607 0.62561 0.14322 0.0
C663 C 0.23756 0.60621 0.29592 0.0
C664 C 0.48452 0.61112 0.33713 0.0
C665 C 0.36002 0.54403 0.48911 0.0
O666 O 0.40397 0.52438 0.2718 0.0
O667 O 0.2255 0.55568 0.04392 0.0
Zn668 Zn 0.18078 0.54922 0.11516 0.0
O669 O 0.13867 0.59515 0.08784 0.0
Zn670 Zn 0.09517 0.56442 0.03587 0.0
Zn671 Zn 0.16656 0.63856 0.02883 0.0
Zn672 Zn 0.12176 0.63018 0.1651 0.0
O673 O 0.03917 0.57372 0.08617 0.0
O674 O 0.0562 0.61631 0.17649 0.0
O675 O 0.1649 0.48462 0.09417 0.0
O676 O 0.11121 0.49985 0.02184 0.0
O677 O 0.09221 0.58851 0.93857 0.0
O678 O 0.15294 0.62933 0.9325 0.0
O679 O 0.15511 0.7018 0.04252 0.0
O680 O 0.20747 0.56441 0.20721 0.0
O681 O 0.12601 0.69626 0.14545 0.0
O682 O 0.16791 0.62141 0.24295 0.0
C683 C 0.23834 0.59185 0.01862 0.0
C684 C 0.02846 0.59494 0.13966 0.0
C685 C 0.1199 0.61149 0.90452 0.0
C686 C 0.13843 0.47246 0.04709 0.0
C687 C 0.13898 0.71948 0.09478 0.0
C688 C 0.20008 0.5948 0.25055 0.0
O689 O 0.22773 0.62768 0.04595 0.0
O690 O 0.18173 0.46854 0.79234 0.0
Zn691 Zn 0.1914 0.42217 0.86024 0.0
O692 O 0.14529 0.3803 0.83443 0.0
Zn693 Zn 0.17297 0.34116 0.77304 0.0
Zn694 Zn 0.10025 0.41052 0.78284 0.0
Zn695 Zn 0.11468 0.35766 0.91355 0.0
O696 O 0.16095 0.28228 0.80966 0.0
O697 O 0.13129 0.29123 0.91422 0.0
O698 O 0.25511 0.40722 0.8351 0.0
O699 O 0.23821 0.35512 0.76096 0.0
O700 O 0.14798 0.34568 0.67812 0.0
O701 O 0.1047 0.40379 0.68342 0.0
O702 O 0.03891 0.39602 0.80207 0.0
O703 O 0.17863 0.44631 0.95434 0.0
O704 O 0.04738 0.36124 0.90062 0.0
O705 O 0.12585 0.40189 -0.00526 0.0
C706 C 0.1447 0.48389 0.77563 0.0
C707 C 0.1457 0.26689 0.86545 0.0
C708 C 0.12289 0.37366 0.64975 0.0
C709 C 0.26643 0.38113 0.78749 0.0
C710 C 0.02281 0.37658 0.8533 0.0
C711 C 0.15094 0.43584 0.00094 0.0
O712 O 0.10996 0.47113 0.80506 0.0
O713 O 0.27451 0.43269 0.53485 0.0
Zn714 Zn 0.32151 0.43486 0.60398 0.0
O715 O 0.35675 0.3846 0.57691 0.0
Zn716 Zn 0.39852 0.408 0.51478 0.0
Zn717 Zn 0.31836 0.3421 0.53085 0.0
Zn718 Zn 0.37907 0.35406 0.65444 0.0
O719 O 0.45784 0.3894 0.54718 0.0
O720 O 0.44615 0.36651 0.65514 0.0
O721 O 0.34561 0.49676 0.58407 0.0
O722 O 0.39117 0.47471 0.50342 0.0
O723 O 0.38642 0.3843 0.42163 0.0
O724 O 0.32553 0.34386 0.43005 0.0
O725 O 0.32335 0.27914 0.55812 0.0
O726 O 0.29603 0.42208 0.69747 0.0
O727 O 0.37301 0.28848 0.63955 0.0
O728 O 0.33611 0.36584 0.73584 0.0
C729 C 0.25301 0.39851 0.51909 0.0
C730 C 0.47194 0.37519 0.60452 0.0
C731 C 0.35588 0.36138 0.39471 0.0
C732 C 0.3705 0.50558 0.53323 0.0
C733 C 0.34922 0.26347 0.60246 0.0
C734 C 0.3042 0.39286 0.7429 0.0
O735 O 0.2597 0.36226 0.54915 0.0
loop_
_geom_bond_atom_site_label_1
_geom_bond_atom_site_label_2
_geom_bond_distance
_geom_bond_site_symmetry_2
_ccdc_geom_bond_type
O0 Zn1 1.953 . S
O0 C16 1.225 1_545 S
Zn1 O0 1.953 . S
Zn1 O2 1.949 . S
Zn1 O8 1.919 . S
Zn1 O13 1.924 . S
O2 Zn1 1.949 . S
O2 Zn3 1.923 . S
O2 Zn4 1.950 . S
O2 Zn5 1.945 . S
Zn3 O2 1.923 . S
Zn3 O6 1.933 . S
Zn3 O9 1.941 . S
Zn3 O10 1.965 . S
Zn4 O2 1.950 . S
Zn4 O11 1.938 . S
Zn4 O12 1.906 . S
Zn4 O22 1.953 . S
Zn5 O2 1.945 . S
Zn5 O7 1.932 . S
Zn5 O14 1.977 . S
Zn5 O15 1.910 . S
O6 Zn3 1.933 . S
O6 C17 1.226 . S
O7 Zn5 1.932 . S
O7 C17 1.307 . S
O8 Zn1 1.919 . S
O8 C19 1.253 . S
O9 Zn3 1.941 . S
O9 C19 1.283 . S
O10 Zn3 1.965 . S
O10 C18 1.303 . S
O11 Zn4 1.938 . S
O11 C18 1.247 . S
O12 Zn4 1.906 . S
O12 C20 1.304 . S
O13 Zn1 1.924 . S
O13 C21 1.311 . S
O14 Zn5 1.977 . S
O14 C20 1.272 . S
O15 Zn5 1.910 . S
O15 C21 1.231 . S
C16 O0 1.225 1_565 S
C16 O22 1.298 1_565 S
C17 O6 1.226 . S
C17 O7 1.307 . S
C18 O10 1.303 . S
C18 O11 1.247 . S
C19 O8 1.253 . S
C19 O9 1.283 . S
C20 O12 1.304 . S
C20 O14 1.272 . S
C21 O13 1.311 . S
C21 O15 1.231 . S
O22 Zn4 1.953 . S
O22 C16 1.298 1_545 S
O23 Zn24 1.953 . S
O23 C39 1.225 . S
Zn24 O23 1.953 . S
Zn24 O25 1.949 . S
Zn24 O31 1.919 . S
Zn24 O36 1.924 . S
O25 Zn24 1.949 . S
O25 Zn26 1.923 . S
O25 Zn27 1.950 . S
O25 Zn28 1.945 . S
Zn26 O25 1.923 . S
Zn26 O29 1.933 . S
Zn26 O32 1.941 . S
Zn26 O33 1.965 . S
Zn27 O25 1.950 . S
Zn27 O34 1.938 . S
Zn27 O35 1.906 . S
Zn27 O45 1.953 . S
Zn28 O25 1.945 . S
Zn28 O30 1.932 . S
Zn28 O37 1.977 . S
Zn28 O38 1.910 . S
O29 Zn26 1.933 . S
O29 C40 1.226 . S
O30 Zn28 1.932 . S
O30 C40 1.307 . S
O31 Zn24 1.919 . S
O31 C42 1.253 . S
O32 Zn26 1.941 . S
O32 C42 1.283 . S
O33 Zn26 1.965 . S
O33 C41 1.303 . S
O34 Zn27 1.938 . S
O34 C41 1.247 . S
O35 Zn27 1.906 . S
O35 C43 1.304 . S
O36 Zn24 1.924 . S
O36 C44 1.311 . S
O37 Zn28 1.977 . S
O37 C43 1.272 . S
O38 Zn28 1.910 . S
O38 C44 1.231 . S
C39 O23 1.225 . S
C39 O45 1.298 . S
C40 O29 1.226 . S
C40 O30 1.307 . S
C41 O33 1.303 . S
C41 O34 1.247 . S
C42 O31 1.253 . S
C42 O32 1.283 . S
C43 O35 1.304 . S
C43 O37 1.272 . S
C44 O36 1.311 . S
C44 O38 1.231 . S
O45 Zn27 1.953 . S
O45 C39 1.298 . S
O46 Zn47 1.953 . S
O46 C62 1.225 1_565 S
Zn47 O46 1.953 . S
Zn47 O48 1.949 . S
Zn47 O54 1.919 . S
Zn47 O59 1.924 . S
O48 Zn47 1.949 . S
O48 Zn49 1.923 . S
O48 Zn50 1.950 . S
O48 Zn51 1.945 . S
Zn49 O48 1.923 . S
Zn49 O52 1.933 . S
Zn49 O55 1.941 . S
Zn49 O56 1.965 . S
Zn50 O48 1.950 . S
Zn50 O57 1.938 . S
Zn50 O58 1.906 . S
Zn50 O68 1.953 . S
Zn51 O48 1.945 . S
Zn51 O53 1.932 . S
Zn51 O60 1.977 . S
Zn51 O61 1.910 . S
O52 Zn49 1.933 . S
O52 C63 1.226 . S
O53 Zn51 1.932 . S
O53 C63 1.307 . S
O54 Zn47 1.919 . S
O54 C65 1.253 . S
O55 Zn49 1.941 . S
O55 C65 1.283 . S
O56 Zn49 1.965 . S
O56 C64 1.303 . S
O57 Zn50 1.938 . S
O57 C64 1.247 . S
O58 Zn50 1.906 . S
O58 C66 1.304 . S
O59 Zn47 1.924 . S
O59 C67 1.311 . S
O60 Zn51 1.977 . S
O60 C66 1.272 . S
O61 Zn51 1.910 . S
O61 C67 1.231 . S
C62 O46 1.225 1_545 S
C62 O68 1.298 1_545 S
C63 O52 1.226 . S
C63 O53 1.307 . S
C64 O56 1.303 . S
C64 O57 1.247 . S
C65 O54 1.253 . S
C65 O55 1.283 . S
C66 O58 1.304 . S
C66 O60 1.272 . S
C67 O59 1.311 . S
C67 O61 1.231 . S
O68 Zn50 1.953 . S
O68 C62 1.298 1_565 S
O69 Zn70 1.953 . S
O69 C85 1.225 . S
Zn70 O69 1.953 . S
Zn70 O71 1.949 . S
Zn70 O77 1.919 . S
Zn70 O82 1.924 1_554 S
O71 Zn70 1.949 . S
O71 Zn72 1.923 . S
O71 Zn73 1.950 . S
O71 Zn74 1.945 . S
Zn72 O71 1.923 . S
Zn72 O75 1.933 . S
Zn72 O78 1.941 . S
Zn72 O79 1.965 . S
Zn73 O71 1.950 . S
Zn73 O80 1.938 . S
Zn73 O81 1.906 . S
Zn73 O91 1.953 . S
Zn74 O71 1.945 . S
Zn74 O76 1.932 . S
Zn74 O83 1.977 . S
Zn74 O84 1.910 1_554 S
O75 Zn72 1.933 . S
O75 C86 1.226 . S
O76 Zn74 1.932 . S
O76 C86 1.307 . S
O77 Zn70 1.919 . S
O77 C88 1.253 . S
O78 Zn72 1.941 . S
O78 C88 1.283 . S
O79 Zn72 1.965 . S
O79 C87 1.303 . S
O80 Zn73 1.938 . S
O80 C87 1.247 . S
O81 Zn73 1.906 . S
O81 C89 1.304 . S
O82 Zn70 1.924 1_556 S
O82 C90 1.311 . S
O83 Zn74 1.977 . S
O83 C89 1.272 . S
O84 Zn74 1.910 1_556 S
O84 C90 1.231 . S
C85 O69 1.225 . S
C85 O91 1.298 . S
C86 O75 1.226 . S
C86 O76 1.307 . S
C87 O79 1.303 . S
C87 O80 1.247 . S
C88 O77 1.253 . S
C88 O78 1.283 . S
C89 O81 1.304 . S
C89 O83 1.272 . S
C90 O82 1.311 . S
C90 O84 1.231 . S
O91 Zn73 1.953 . S
O91 C85 1.298 . S
O92 Zn93 1.953 . S
O92 C108 1.225 1_565 S
Zn93 O92 1.953 . S
Zn93 O94 1.949 . S
Zn93 O100 1.919 . S
Zn93 O105 1.924 . S
O94 Zn93 1.949 . S
O94 Zn95 1.923 . S
O94 Zn96 1.950 . S
O94 Zn97 1.945 . S
Zn95 O94 1.923 . S
Zn95 O98 1.933 . S
Zn95 O101 1.941 . S
Zn95 O102 1.965 . S
Zn96 O94 1.950 . S
Zn96 O103 1.938 . S
Zn96 O104 1.906 . S
Zn96 O114 1.953 . S
Zn97 O94 1.945 . S
Zn97 O99 1.932 . S
Zn97 O106 1.977 . S
Zn97 O107 1.910 . S
O98 Zn95 1.933 . S
O98 C109 1.226 . S
O99 Zn97 1.932 . S
O99 C109 1.307 . S
O100 Zn93 1.919 . S
O100 C111 1.253 . S
O101 Zn95 1.941 . S
O101 C111 1.283 . S
O102 Zn95 1.965 . S
O102 C110 1.303 . S
O103 Zn96 1.938 . S
O103 C110 1.247 . S
O104 Zn96 1.906 . S
O104 C112 1.304 . S
O105 Zn93 1.924 . S
O105 C113 1.311 . S
O106 Zn97 1.977 . S
O106 C112 1.272 . S
O107 Zn97 1.910 . S
O107 C113 1.231 . S
C108 O92 1.225 1_545 S
C108 O114 1.298 1_545 S
C109 O98 1.226 . S
C109 O99 1.307 . S
C110 O102 1.303 . S
C110 O103 1.247 . S
C111 O100 1.253 . S
C111 O101 1.283 . S
C112 O104 1.304 . S
C112 O106 1.272 . S
C113 O105 1.311 . S
C113 O107 1.231 . S
O114 Zn96 1.953 . S
O114 C108 1.298 1_565 S
O115 Zn116 1.953 . S
O115 C131 1.225 . S
Zn116 O115 1.953 . S
Zn116 O117 1.949 . S
Zn116 O123 1.919 . S
Zn116 O128 1.924 . S
O117 Zn116 1.949 . S
O117 Zn118 1.923 . S
O117 Zn119 1.950 . S
O117 Zn120 1.945 . S
Zn118 O117 1.923 . S
Zn118 O121 1.933 . S
Zn118 O124 1.941 . S
Zn118 O125 1.965 . S
Zn119 O117 1.950 . S
Zn119 O126 1.938 . S
Zn119 O127 1.906 . S
Zn119 O137 1.953 . S
Zn120 O117 1.945 . S
Zn120 O122 1.932 . S
Zn120 O129 1.977 . S
Zn120 O130 1.910 . S
O121 Zn118 1.933 . S
O121 C132 1.226 . S
O122 Zn120 1.932 . S
O122 C132 1.307 . S
O123 Zn116 1.919 . S
O123 C134 1.253 . S
O124 Zn118 1.941 . S
O124 C134 1.283 . S
O125 Zn118 1.965 . S
O125 C133 1.303 . S
O126 Zn119 1.938 . S
O126 C133 1.247 . S
O127 Zn119 1.906 . S
O127 C135 1.304 . S
O128 Zn116 1.924 . S
O128 C136 1.311 . S
O129 Zn120 1.977 . S
O129 C135 1.272 . S
O130 Zn120 1.910 . S
O130 C136 1.231 . S
C131 O115 1.225 . S
C131 O137 1.298 . S
C132 O121 1.226 . S
C132 O122 1.307 . S
C133 O125 1.303 . S
C133 O126 1.247 . S
C134 O123 1.253 . S
C134 O124 1.283 . S
C135 O127 1.304 . S
C135 O129 1.272 . S
C136 O128 1.311 . S
C136 O130 1.231 . S
O137 Zn119 1.953 . S
O137 C131 1.298 . S
O138 Zn139 1.953 . S
O138 C154 1.225 . S
Zn139 O138 1.953 . S
Zn139 O140 1.949 . S
Zn139 O146 1.919 . S
Zn139 O151 1.924 . S
O140 Zn139 1.949 . S
O140 Zn141 1.923 . S
O140 Zn142 1.950 . S
O140 Zn143 1.945 . S
Zn141 O140 1.923 . S
Zn141 O144 1.933 . S
Zn141 O147 1.941 . S
Zn141 O148 1.965 . S
Zn142 O140 1.950 . S
Zn142 O149 1.938 . S
Zn142 O150 1.906 . S
Zn142 O160 1.953 . S
Zn143 O140 1.945 . S
Zn143 O145 1.932 . S
Zn143 O152 1.977 . S
Zn143 O153 1.910 . S
O144 Zn141 1.933 . S
O144 C155 1.226 1_545 S
O145 Zn143 1.932 . S
O145 C155 1.307 1_545 S
O146 Zn139 1.919 . S
O146 C157 1.253 . S
O147 Zn141 1.941 . S
O147 C157 1.283 . S
O148 Zn141 1.965 . S
O148 C156 1.303 . S
O149 Zn142 1.938 . S
O149 C156 1.247 . S
O150 Zn142 1.906 . S
O150 C158 1.304 . S
O151 Zn139 1.924 . S
O151 C159 1.311 . S
O152 Zn143 1.977 . S
O152 C158 1.272 . S
O153 Zn143 1.910 . S
O153 C159 1.231 . S
C154 O138 1.225 . S
C154 O160 1.298 . S
C155 O144 1.226 1_565 S
C155 O145 1.307 1_565 S
C156 O148 1.303 . S
C156 O149 1.247 . S
C157 O146 1.253 . S
C157 O147 1.283 . S
C158 O150 1.304 . S
C158 O152 1.272 . S
C159 O151 1.311 . S
C159 O153 1.231 . S
O160 Zn142 1.953 . S
O160 C154 1.298 . S
O161 Zn162 1.953 . S
O161 C177 1.225 . S
Zn162 O161 1.953 . S
Zn162 O163 1.949 . S
Zn162 O169 1.919 . S
Zn162 O174 1.924 . S
O163 Zn162 1.949 . S
O163 Zn164 1.923 . S
O163 Zn165 1.950 . S
O163 Zn166 1.945 . S
Zn164 O163 1.923 . S
Zn164 O167 1.933 . S
Zn164 O170 1.941 . S
Zn164 O171 1.965 1_556 S
Zn165 O163 1.950 . S
Zn165 O172 1.938 1_556 S
Zn165 O173 1.906 . S
Zn165 O183 1.953 . S
Zn166 O163 1.945 . S
Zn166 O168 1.932 . S
Zn166 O175 1.977 . S
Zn166 O176 1.910 . S
O167 Zn164 1.933 . S
O167 C178 1.226 . S
O168 Zn166 1.932 . S
O168 C178 1.307 . S
O169 Zn162 1.919 . S
O169 C180 1.253 . S
O170 Zn164 1.941 . S
O170 C180 1.283 . S
O171 Zn164 1.965 1_554 S
O171 C179 1.303 . S
O172 Zn165 1.938 1_554 S
O172 C179 1.247 . S
O173 Zn165 1.906 . S
O173 C181 1.304 . S
O174 Zn162 1.924 . S
O174 C182 1.311 . S
O175 Zn166 1.977 . S
O175 C181 1.272 . S
O176 Zn166 1.910 . S
O176 C182 1.231 . S
C177 O161 1.225 . S
C177 O183 1.298 . S
C178 O167 1.226 . S
C178 O168 1.307 . S
C179 O171 1.303 . S
C179 O172 1.247 . S
C180 O169 1.253 . S
C180 O170 1.283 . S
C181 O173 1.304 . S
C181 O175 1.272 . S
C182 O174 1.311 . S
C182 O176 1.231 . S
O183 Zn165 1.953 . S
O183 C177 1.298 . S
O184 Zn185 1.953 . S
O184 C200 1.225 1_565 S
Zn185 O184 1.953 . S
Zn185 O186 1.949 . S
Zn185 O192 1.919 . S
Zn185 O197 1.924 . S
O186 Zn185 1.949 . S
O186 Zn187 1.923 . S
O186 Zn188 1.950 . S
O186 Zn189 1.945 . S
Zn187 O186 1.923 . S
Zn187 O190 1.933 . S
Zn187 O193 1.941 . S
Zn187 O194 1.965 . S
Zn188 O186 1.950 . S
Zn188 O195 1.938 . S
Zn188 O196 1.906 . S
Zn188 O206 1.953 . S
Zn189 O186 1.945 . S
Zn189 O191 1.932 . S
Zn189 O198 1.977 . S
Zn189 O199 1.910 . S
O190 Zn187 1.933 . S
O190 C201 1.226 . S
O191 Zn189 1.932 . S
O191 C201 1.307 . S
O192 Zn185 1.919 . S
O192 C203 1.253 . S
O193 Zn187 1.941 . S
O193 C203 1.283 . S
O194 Zn187 1.965 . S
O194 C202 1.303 . S
O195 Zn188 1.938 . S
O195 C202 1.247 . S
O196 Zn188 1.906 . S
O196 C204 1.304 . S
O197 Zn185 1.924 . S
O197 C205 1.311 . S
O198 Zn189 1.977 . S
O198 C204 1.272 . S
O199 Zn189 1.910 . S
O199 C205 1.231 . S
C200 O184 1.225 1_545 S
C200 O206 1.298 1_545 S
C201 O190 1.226 . S
C201 O191 1.307 . S
C202 O194 1.303 . S
C202 O195 1.247 . S
C203 O192 1.253 . S
C203 O193 1.283 . S
C204 O196 1.304 . S
C204 O198 1.272 . S
C205 O197 1.311 . S
C205 O199 1.231 . S
O206 Zn188 1.953 . S
O206 C200 1.298 1_565 S
O207 Zn208 1.953 . S
O207 C223 1.225 . S
Zn208 O207 1.953 . S
Zn208 O209 1.949 . S
Zn208 O215 1.919 . S
Zn208 O220 1.924 . S
O209 Zn208 1.949 . S
O209 Zn210 1.923 . S
O209 Zn211 1.950 . S
O209 Zn212 1.945 . S
Zn210 O209 1.923 . S
Zn210 O213 1.933 . S
Zn210 O216 1.941 . S
Zn210 O217 1.965 . S
Zn211 O209 1.950 . S
Zn211 O218 1.938 . S
Zn211 O219 1.906 . S
Zn211 O229 1.953 . S
Zn212 O209 1.945 . S
Zn212 O214 1.932 . S
Zn212 O221 1.977 . S
Zn212 O222 1.910 . S
O213 Zn210 1.933 . S
O213 C224 1.226 . S
O214 Zn212 1.932 . S
O214 C224 1.307 . S
O215 Zn208 1.919 . S
O215 C226 1.253 . S
O216 Zn210 1.941 . S
O216 C226 1.283 . S
O217 Zn210 1.965 . S
O217 C225 1.303 . S
O218 Zn211 1.938 . S
O218 C225 1.247 . S
O219 Zn211 1.906 . S
O219 C227 1.304 . S
O220 Zn208 1.924 . S
O220 C228 1.311 . S
O221 Zn212 1.977 . S
O221 C227 1.272 . S
O222 Zn212 1.910 . S
O222 C228 1.231 . S
C223 O207 1.225 . S
C223 O229 1.298 . S
C224 O213 1.226 . S
C224 O214 1.307 . S
C225 O217 1.303 . S
C225 O218 1.247 . S
C226 O215 1.253 . S
C226 O216 1.283 . S
C227 O219 1.304 . S
C227 O221 1.272 . S
C228 O220 1.311 . S
C228 O222 1.231 . S
O229 Zn211 1.953 . S
O229 C223 1.298 . S
O230 Zn231 1.953 . S
O230 C246 1.225 1_545 S
Zn231 O230 1.953 . S
Zn231 O232 1.949 . S
Zn231 O238 1.919 . S
Zn231 O243 1.924 . S
O232 Zn231 1.949 . S
O232 Zn233 1.923 . S
O232 Zn234 1.950 . S
O232 Zn235 1.945 . S
Zn233 O232 1.923 . S
Zn233 O236 1.933 . S
Zn233 O239 1.941 . S
Zn233 O240 1.965 . S
Zn234 O232 1.950 . S
Zn234 O241 1.938 . S
Zn234 O242 1.906 . S
Zn234 O252 1.953 . S
Zn235 O232 1.945 . S
Zn235 O237 1.932 . S
Zn235 O244 1.977 . S
Zn235 O245 1.910 . S
O236 Zn233 1.933 . S
O236 C247 1.226 . S
O237 Zn235 1.932 . S
O237 C247 1.307 . S
O238 Zn231 1.919 . S
O238 C249 1.253 . S
O239 Zn233 1.941 . S
O239 C249 1.283 . S
O240 Zn233 1.965 . S
O240 C248 1.303 . S
O241 Zn234 1.938 . S
O241 C248 1.247 . S
O242 Zn234 1.906 . S
O242 C250 1.304 . S
O243 Zn231 1.924 . S
O243 C251 1.311 . S
O244 Zn235 1.977 . S
O244 C250 1.272 . S
O245 Zn235 1.910 . S
O245 C251 1.231 . S
C246 O230 1.225 1_565 S
C246 O252 1.298 1_565 S
C247 O236 1.226 . S
C247 O237 1.307 . S
C248 O240 1.303 . S
C248 O241 1.247 . S
C249 O238 1.253 . S
C249 O239 1.283 . S
C250 O242 1.304 . S
C250 O244 1.272 . S
C251 O243 1.311 . S
C251 O245 1.231 . S
O252 Zn234 1.953 . S
O252 C246 1.298 1_545 S
O253 Zn254 1.953 . S
O253 C269 1.225 . S
Zn254 O253 1.953 . S
Zn254 O255 1.949 . S
Zn254 O261 1.919 . S
Zn254 O266 1.924 . S
O255 Zn254 1.949 . S
O255 Zn256 1.923 . S
O255 Zn257 1.950 . S
O255 Zn258 1.945 . S
Zn256 O255 1.923 . S
Zn256 O259 1.933 . S
Zn256 O262 1.941 . S
Zn256 O263 1.965 1_556 S
Zn257 O255 1.950 . S
Zn257 O264 1.938 1_556 S
Zn257 O265 1.906 . S
Zn257 O275 1.953 . S
Zn258 O255 1.945 . S
Zn258 O260 1.932 . S
Zn258 O267 1.977 . S
Zn258 O268 1.910 . S
O259 Zn256 1.933 . S
O259 C270 1.226 . S
O260 Zn258 1.932 . S
O260 C270 1.307 . S
O261 Zn254 1.919 . S
O261 C272 1.253 . S
O262 Zn256 1.941 . S
O262 C272 1.283 . S
O263 Zn256 1.965 1_554 S
O263 C271 1.303 . S
O264 Zn257 1.938 1_554 S
O264 C271 1.247 . S
O265 Zn257 1.906 . S
O265 C273 1.304 . S
O266 Zn254 1.924 . S
O266 C274 1.311 . S
O267 Zn258 1.977 . S
O267 C273 1.272 . S
O268 Zn258 1.910 . S
O268 C274 1.231 . S
C269 O253 1.225 . S
C269 O275 1.298 . S
C270 O259 1.226 . S
C270 O260 1.307 . S
C271 O263 1.303 . S
C271 O264 1.247 . S
C272 O261 1.253 . S
C272 O262 1.283 . S
C273 O265 1.304 . S
C273 O267 1.272 . S
C274 O266 1.311 . S
C274 O268 1.231 . S
O275 Zn257 1.953 . S
O275 C269 1.298 . S
O276 Zn277 1.953 . S
O276 C292 1.225 1_545 S
Zn277 O276 1.953 . S
Zn277 O278 1.949 . S
Zn277 O284 1.919 . S
Zn277 O289 1.924 . S
O278 Zn277 1.949 . S
O278 Zn279 1.923 . S
O278 Zn280 1.950 . S
O278 Zn281 1.945 . S
Zn279 O278 1.923 . S
Zn279 O282 1.933 . S
Zn279 O285 1.941 . S
Zn279 O286 1.965 . S
Zn280 O278 1.950 . S
Zn280 O287 1.938 . S
Zn280 O288 1.906 . S
Zn280 O298 1.953 . S
Zn281 O278 1.945 . S
Zn281 O283 1.932 . S
Zn281 O290 1.977 . S
Zn281 O291 1.910 . S
O282 Zn279 1.933 . S
O282 C293 1.226 . S
O283 Zn281 1.932 . S
O283 C293 1.307 . S
O284 Zn277 1.919 . S
O284 C295 1.253 . S
O285 Zn279 1.941 . S
O285 C295 1.283 . S
O286 Zn279 1.965 . S
O286 C294 1.303 . S
O287 Zn280 1.938 . S
O287 C294 1.247 . S
O288 Zn280 1.906 . S
O288 C296 1.304 . S
O289 Zn277 1.924 . S
O289 C297 1.311 . S
O290 Zn281 1.977 . S
O290 C296 1.272 . S
O291 Zn281 1.910 . S
O291 C297 1.231 . S
C292 O276 1.225 1_565 S
C292 O298 1.298 1_565 S
C293 O282 1.226 . S
C293 O283 1.307 . S
C294 O286 1.303 . S
C294 O287 1.247 . S
C295 O284 1.253 . S
C295 O285 1.283 . S
C296 O288 1.304 . S
C296 O290 1.272 . S
C297 O289 1.311 . S
C297 O291 1.231 . S
O298 Zn280 1.953 . S
O298 C292 1.298 1_545 S
O299 Zn300 1.953 . S
O299 C315 1.225 . S
Zn300 O299 1.953 . S
Zn300 O301 1.949 . S
Zn300 O307 1.919 . S
Zn300 O312 1.924 . S
O301 Zn300 1.949 . S
O301 Zn302 1.923 . S
O301 Zn303 1.950 . S
O301 Zn304 1.945 . S
Zn302 O301 1.923 . S
Zn302 O305 1.933 . S
Zn302 O308 1.941 . S
Zn302 O309 1.965 . S
Zn303 O301 1.950 . S
Zn303 O310 1.938 . S
Zn303 O311 1.906 . S
Zn303 O321 1.953 . S
Zn304 O301 1.945 . S
Zn304 O306 1.932 . S
Zn304 O313 1.977 . S
Zn304 O314 1.910 . S
O305 Zn302 1.933 . S
O305 C316 1.226 . S
O306 Zn304 1.932 . S
O306 C316 1.307 . S
O307 Zn300 1.919 . S
O307 C318 1.253 . S
O308 Zn302 1.941 . S
O308 C318 1.283 . S
O309 Zn302 1.965 . S
O309 C317 1.303 . S
O310 Zn303 1.938 . S
O310 C317 1.247 . S
O311 Zn303 1.906 . S
O311 C319 1.304 . S
O312 Zn300 1.924 . S
O312 C320 1.311 . S
O313 Zn304 1.977 . S
O313 C319 1.272 . S
O314 Zn304 1.910 . S
O314 C320 1.231 . S
C315 O299 1.225 . S
C315 O321 1.298 . S
C316 O305 1.226 . S
C316 O306 1.307 . S
C317 O309 1.303 . S
C317 O310 1.247 . S
C318 O307 1.253 . S
C318 O308 1.283 . S
C319 O311 1.304 . S
C319 O313 1.272 . S
C320 O312 1.311 . S
C320 O314 1.231 . S
O321 Zn303 1.953 . S
O321 C315 1.298 . S
O322 Zn323 1.953 . S
O322 C338 1.225 1_565 S
Zn323 O322 1.953 . S
Zn323 O324 1.949 . S
Zn323 O330 1.919 . S
Zn323 O335 1.924 . S
O324 Zn323 1.949 . S
O324 Zn325 1.923 . S
O324 Zn326 1.950 . S
O324 Zn327 1.945 . S
Zn325 O324 1.923 . S
Zn325 O328 1.933 . S
Zn325 O331 1.941 . S
Zn325 O332 1.965 . S
Zn326 O324 1.950 . S
Zn326 O333 1.938 . S
Zn326 O334 1.906 . S
Zn326 O344 1.953 . S
Zn327 O324 1.945 . S
Zn327 O329 1.932 . S
Zn327 O336 1.977 . S
Zn327 O337 1.910 . S
O328 Zn325 1.933 . S
O328 C339 1.226 . S
O329 Zn327 1.932 . S
O329 C339 1.307 . S
O330 Zn323 1.919 . S
O330 C341 1.253 . S
O331 Zn325 1.941 . S
O331 C341 1.283 . S
O332 Zn325 1.965 . S
O332 C340 1.303 . S
O333 Zn326 1.938 . S
O333 C340 1.247 . S
O334 Zn326 1.906 . S
O334 C342 1.304 . S
O335 Zn323 1.924 . S
O335 C343 1.311 . S
O336 Zn327 1.977 . S
O336 C342 1.272 . S
O337 Zn327 1.910 . S
O337 C343 1.231 . S
C338 O322 1.225 1_545 S
C338 O344 1.298 1_545 S
C339 O328 1.226 . S
C339 O329 1.307 . S
C340 O332 1.303 . S
C340 O333 1.247 . S
C341 O330 1.253 . S
C341 O331 1.283 . S
C342 O334 1.304 . S
C342 O336 1.272 . S
C343 O335 1.311 . S
C343 O337 1.231 . S
O344 Zn326 1.953 . S
O344 C338 1.298 1_565 S
O345 Zn346 1.953 . S
O345 C361 1.225 . S
Zn346 O345 1.953 . S
Zn346 O347 1.949 . S
Zn346 O353 1.919 . S
Zn346 O358 1.924 . S
O347 Zn346 1.949 . S
O347 Zn348 1.923 . S
O347 Zn349 1.950 . S
O347 Zn350 1.945 . S
Zn348 O347 1.923 . S
Zn348 O351 1.933 . S
Zn348 O354 1.941 . S
Zn348 O355 1.965 1_554 S
Zn349 O347 1.950 . S
Zn349 O356 1.938 1_554 S
Zn349 O357 1.906 . S
Zn349 O367 1.953 . S
Zn350 O347 1.945 . S
Zn350 O352 1.932 . S
Zn350 O359 1.977 . S
Zn350 O360 1.910 . S
O351 Zn348 1.933 . S
O351 C362 1.226 . S
O352 Zn350 1.932 . S
O352 C362 1.307 . S
O353 Zn346 1.919 . S
O353 C364 1.253 . S
O354 Zn348 1.941 . S
O354 C364 1.283 . S
O355 Zn348 1.965 1_556 S
O355 C363 1.303 . S
O356 Zn349 1.938 1_556 S
O356 C363 1.247 . S
O357 Zn349 1.906 . S
O357 C365 1.304 . S
O358 Zn346 1.924 . S
O358 C366 1.311 . S
O359 Zn350 1.977 . S
O359 C365 1.272 . S
O360 Zn350 1.910 . S
O360 C366 1.231 . S
C361 O345 1.225 . S
C361 O367 1.298 . S
C362 O351 1.226 . S
C362 O352 1.307 . S
C363 O355 1.303 . S
C363 O356 1.247 . S
C364 O353 1.253 . S
C364 O354 1.283 . S
C365 O357 1.304 . S
C365 O359 1.272 . S
C366 O358 1.311 . S
C366 O360 1.231 . S
O367 Zn349 1.953 . S
O367 C361 1.298 . S
O368 Zn369 1.953 . S
O368 C384 1.225 . S
Zn369 O368 1.953 . S
Zn369 O370 1.949 . S
Zn369 O376 1.919 . S
Zn369 O381 1.924 . S
O370 Zn369 1.949 . S
O370 Zn371 1.923 . S
O370 Zn372 1.950 . S
O370 Zn373 1.945 . S
Zn371 O370 1.923 . S
Zn371 O374 1.933 . S
Zn371 O377 1.941 . S
Zn371 O378 1.965 . S
Zn372 O370 1.950 . S
Zn372 O379 1.938 . S
Zn372 O380 1.906 . S
Zn372 O390 1.953 . S
Zn373 O370 1.945 . S
Zn373 O375 1.932 . S
Zn373 O382 1.977 . S
Zn373 O383 1.910 . S
O374 Zn371 1.933 . S
O374 C385 1.226 . S
O375 Zn373 1.932 . S
O375 C385 1.307 . S
O376 Zn369 1.919 . S
O376 C387 1.253 . S
O377 Zn371 1.941 . S
O377 C387 1.283 . S
O378 Zn371 1.965 . S
O378 C386 1.303 . S
O379 Zn372 1.938 . S
O379 C386 1.247 . S
O380 Zn372 1.906 . S
O380 C388 1.304 . S
O381 Zn369 1.924 . S
O381 C389 1.311 . S
O382 Zn373 1.977 . S
O382 C388 1.272 . S
O383 Zn373 1.910 . S
O383 C389 1.231 . S
C384 O368 1.225 . S
C384 O390 1.298 . S
C385 O374 1.226 . S
C385 O375 1.307 . S
C386 O378 1.303 . S
C386 O379 1.247 . S
C387 O376 1.253 . S
C387 O377 1.283 . S
C388 O380 1.304 . S
C388 O382 1.272 . S
C389 O381 1.311 . S
C389 O383 1.231 . S
O390 Zn372 1.953 . S
O390 C384 1.298 . S
O391 Zn392 1.953 . S
O391 C407 1.225 . S
Zn392 O391 1.953 . S
Zn392 O393 1.949 . S
Zn392 O399 1.919 . S
Zn392 O404 1.924 . S
O393 Zn392 1.949 . S
O393 Zn394 1.923 . S
O393 Zn395 1.950 . S
O393 Zn396 1.945 . S
Zn394 O393 1.923 . S
Zn394 O397 1.933 . S
Zn394 O400 1.941 . S
Zn394 O401 1.965 1_554 S
Zn395 O393 1.950 . S
Zn395 O402 1.938 1_554 S
Zn395 O403 1.906 . S
Zn395 O413 1.953 . S
Zn396 O393 1.945 . S
Zn396 O398 1.932 . S
Zn396 O405 1.977 . S
Zn396 O406 1.910 . S
O397 Zn394 1.933 . S
O397 C408 1.226 . S
O398 Zn396 1.932 . S
O398 C408 1.307 . S
O399 Zn392 1.919 . S
O399 C410 1.253 . S
O400 Zn394 1.941 . S
O400 C410 1.283 . S
O401 Zn394 1.965 1_556 S
O401 C409 1.303 . S
O402 Zn395 1.938 1_556 S
O402 C409 1.247 . S
O403 Zn395 1.906 . S
O403 C411 1.304 . S
O404 Zn392 1.924 . S
O404 C412 1.311 . S
O405 Zn396 1.977 . S
O405 C411 1.272 . S
O406 Zn396 1.910 . S
O406 C412 1.231 . S
C407 O391 1.225 . S
C407 O413 1.298 . S
C408 O397 1.226 . S
C408 O398 1.307 . S
C409 O401 1.303 . S
C409 O402 1.247 . S
C410 O399 1.253 . S
C410 O400 1.283 . S
C411 O403 1.304 . S
C411 O405 1.272 . S
C412 O404 1.311 . S
C412 O406 1.231 . S
O413 Zn395 1.953 . S
O413 C407 1.298 . S
O414 Zn415 1.953 . S
O414 C430 1.225 . S
Zn415 O414 1.953 . S
Zn415 O416 1.949 . S
Zn415 O422 1.919 . S
Zn415 O427 1.924 . S
O416 Zn415 1.949 . S
O416 Zn417 1.923 . S
O416 Zn418 1.950 . S
O416 Zn419 1.945 . S
Zn417 O416 1.923 . S
Zn417 O420 1.933 . S
Zn417 O423 1.941 . S
Zn417 O424 1.965 . S
Zn418 O416 1.950 . S
Zn418 O425 1.938 . S
Zn418 O426 1.906 . S
Zn418 O436 1.953 . S
Zn419 O416 1.945 . S
Zn419 O421 1.932 . S
Zn419 O428 1.977 . S
Zn419 O429 1.910 . S
O420 Zn417 1.933 . S
O420 C431 1.226 . S
O421 Zn419 1.932 . S
O421 C431 1.307 . S
O422 Zn415 1.919 . S
O422 C433 1.253 . S
O423 Zn417 1.941 . S
O423 C433 1.283 . S
O424 Zn417 1.965 . S
O424 C432 1.303 . S
O425 Zn418 1.938 . S
O425 C432 1.247 . S
O426 Zn418 1.906 . S
O426 C434 1.304 . S
O427 Zn415 1.924 . S
O427 C435 1.311 . S
O428 Zn419 1.977 . S
O428 C434 1.272 . S
O429 Zn419 1.910 . S
O429 C435 1.231 . S
C430 O414 1.225 . S
C430 O436 1.298 . S
C431 O420 1.226 . S
C431 O421 1.307 . S
C432 O424 1.303 . S
C432 O425 1.247 . S
C433 O422 1.253 . S
C433 O423 1.283 . S
C434 O426 1.304 . S
C434 O428 1.272 . S
C435 O427 1.311 . S
C435 O429 1.231 . S
O436 Zn418 1.953 . S
O436 C430 1.298 . S
O437 Zn438 1.953 . S
O437 C453 1.225 . S
Zn438 O437 1.953 . S
Zn438 O439 1.949 . S
Zn438 O445 1.919 . S
Zn438 O450 1.924 . S
O439 Zn438 1.949 . S
O439 Zn440 1.923 . S
O439 Zn441 1.950 . S
O439 Zn442 1.945 . S
Zn440 O439 1.923 . S
Zn440 O443 1.933 . S
Zn440 O446 1.941 . S
Zn440 O447 1.965 . S
Zn441 O439 1.950 . S
Zn441 O448 1.938 . S
Zn441 O449 1.906 . S
Zn441 O459 1.953 . S
Zn442 O439 1.945 . S
Zn442 O444 1.932 . S
Zn442 O451 1.977 . S
Zn442 O452 1.910 . S
O443 Zn440 1.933 . S
O443 C454 1.226 . S
O444 Zn442 1.932 . S
O444 C454 1.307 . S
O445 Zn438 1.919 . S
O445 C456 1.253 . S
O446 Zn440 1.941 . S
O446 C456 1.283 . S
O447 Zn440 1.965 . S
O447 C455 1.303 . S
O448 Zn441 1.938 . S
O448 C455 1.247 . S
O449 Zn441 1.906 . S
O449 C457 1.304 . S
O450 Zn438 1.924 . S
O450 C458 1.311 . S
O451 Zn442 1.977 . S
O451 C457 1.272 . S
O452 Zn442 1.910 . S
O452 C458 1.231 . S
C453 O437 1.225 . S
C453 O459 1.298 . S
C454 O443 1.226 . S
C454 O444 1.307 . S
C455 O447 1.303 . S
C455 O448 1.247 . S
C456 O445 1.253 . S
C456 O446 1.283 . S
C457 O449 1.304 . S
C457 O451 1.272 . S
C458 O450 1.311 . S
C458 O452 1.231 . S
O459 Zn441 1.953 . S
O459 C453 1.298 . S
O460 Zn461 1.953 . S
O460 C476 1.225 . S
Zn461 O460 1.953 . S
Zn461 O462 1.949 . S
Zn461 O468 1.919 . S
Zn461 O473 1.924 . S
O462 Zn461 1.949 . S
O462 Zn463 1.923 . S
O462 Zn464 1.950 . S
O462 Zn465 1.945 . S
Zn463 O462 1.923 . S
Zn463 O466 1.933 . S
Zn463 O469 1.941 . S
Zn463 O470 1.965 . S
Zn464 O462 1.950 . S
Zn464 O471 1.938 . S
Zn464 O472 1.906 . S
Zn464 O482 1.953 . S
Zn465 O462 1.945 . S
Zn465 O467 1.932 . S
Zn465 O474 1.977 . S
Zn465 O475 1.910 . S
O466 Zn463 1.933 . S
O466 C477 1.226 . S
O467 Zn465 1.932 . S
O467 C477 1.307 . S
O468 Zn461 1.919 . S
O468 C479 1.253 . S
O469 Zn463 1.941 . S
O469 C479 1.283 . S
O470 Zn463 1.965 . S
O470 C478 1.303 . S
O471 Zn464 1.938 . S
O471 C478 1.247 . S
O472 Zn464 1.906 . S
O472 C480 1.304 . S
O473 Zn461 1.924 . S
O473 C481 1.311 . S
O474 Zn465 1.977 . S
O474 C480 1.272 . S
O475 Zn465 1.910 . S
O475 C481 1.231 . S
C476 O460 1.225 . S
C476 O482 1.298 . S
C477 O466 1.226 . S
C477 O467 1.307 . S
C478 O470 1.303 . S
C478 O471 1.247 . S
C479 O468 1.253 . S
C479 O469 1.283 . S
C480 O472 1.304 . S
C480 O474 1.272 . S
C481 O473 1.311 . S
C481 O475 1.231 . S
O482 Zn464 1.953 . S
O482 C476 1.298 . S
O483 Zn484 1.953 . S
O483 C499 1.225 . S
Zn484 O483 1.953 . S
Zn484 O485 1.949 . S
Zn484 O491 1.919 . S
Zn484 O496 1.924 . S
O485 Zn484 1.949 . S
O485 Zn486 1.923 . S
O485 Zn487 1.950 . S
O485 Zn488 1.945 . S
Zn486 O485 1.923 . S
Zn486 O489 1.933 . S
Zn486 O492 1.941 . S
Zn486 O493 1.965 1_556 S
Zn487 O485 1.950 . S
Zn487 O494 1.938 1_556 S
Zn487 O495 1.906 . S
Zn487 O505 1.953 . S
Zn488 O485 1.945 . S
Zn488 O490 1.932 . S
Zn488 O497 1.977 . S
Zn488 O498 1.910 . S
O489 Zn486 1.933 . S
O489 C500 1.226 . S
O490 Zn488 1.932 . S
O490 C500 1.307 . S
O491 Zn484 1.919 . S
O491 C502 1.253 . S
O492 Zn486 1.941 . S
O492 C502 1.283 . S
O493 Zn486 1.965 1_554 S
O493 C501 1.303 . S
O494 Zn487 1.938 1_554 S
O494 C501 1.247 . S
O495 Zn487 1.906 . S
O495 C503 1.304 . S
O496 Zn484 1.924 . S
O496 C504 1.311 . S
O497 Zn488 1.977 . S
O497 C503 1.272 . S
O498 Zn488 1.910 . S
O498 C504 1.231 . S
C499 O483 1.225 . S
C499 O505 1.298 . S
C500 O489 1.226 . S
C500 O490 1.307 . S
C501 O493 1.303 . S
C501 O494 1.247 . S
C502 O491 1.253 . S
C502 O492 1.283 . S
C503 O495 1.304 . S
C503 O497 1.272 . S
C504 O496 1.311 . S
C504 O498 1.231 . S
O505 Zn487 1.953 . S
O505 C499 1.298 . S
O506 Zn507 1.953 . S
O506 C522 1.225 . S
Zn507 O506 1.953 . S
Zn507 O508 1.949 . S
Zn507 O514 1.919 . S
Zn507 O519 1.924 . S
O508 Zn507 1.949 . S
O508 Zn509 1.923 . S
O508 Zn510 1.950 . S
O508 Zn511 1.945 . S
Zn509 O508 1.923 . S
Zn509 O512 1.933 . S
Zn509 O515 1.941 . S
Zn509 O516 1.965 . S
Zn510 O508 1.950 . S
Zn510 O517 1.938 . S
Zn510 O518 1.906 . S
Zn510 O528 1.953 . S
Zn511 O508 1.945 . S
Zn511 O513 1.932 . S
Zn511 O520 1.977 . S
Zn511 O521 1.910 . S
O512 Zn509 1.933 . S
O512 C523 1.226 . S
O513 Zn511 1.932 . S
O513 C523 1.307 . S
O514 Zn507 1.919 . S
O514 C525 1.253 . S
O515 Zn509 1.941 . S
O515 C525 1.283 . S
O516 Zn509 1.965 . S
O516 C524 1.303 . S
O517 Zn510 1.938 . S
O517 C524 1.247 . S
O518 Zn510 1.906 . S
O518 C526 1.304 . S
O519 Zn507 1.924 . S
O519 C527 1.311 . S
O520 Zn511 1.977 . S
O520 C526 1.272 . S
O521 Zn511 1.910 . S
O521 C527 1.231 . S
C522 O506 1.225 . S
C522 O528 1.298 . S
C523 O512 1.226 . S
C523 O513 1.307 . S
C524 O516 1.303 . S
C524 O517 1.247 . S
C525 O514 1.253 . S
C525 O515 1.283 . S
C526 O518 1.304 . S
C526 O520 1.272 . S
C527 O519 1.311 . S
C527 O521 1.231 . S
O528 Zn510 1.953 . S
O528 C522 1.298 . S
O529 Zn530 1.953 . S
O529 C545 1.225 . S
Zn530 O529 1.953 . S
Zn530 O531 1.949 . S
Zn530 O537 1.919 . S
Zn530 O542 1.924 . S
O531 Zn530 1.949 . S
O531 Zn532 1.923 . S
O531 Zn533 1.950 . S
O531 Zn534 1.945 . S
Zn532 O531 1.923 . S
Zn532 O535 1.933 . S
Zn532 O538 1.941 . S
Zn532 O539 1.965 . S
Zn533 O531 1.950 . S
Zn533 O540 1.938 . S
Zn533 O541 1.906 . S
Zn533 O551 1.953 . S
Zn534 O531 1.945 . S
Zn534 O536 1.932 . S
Zn534 O543 1.977 . S
Zn534 O544 1.910 . S
O535 Zn532 1.933 . S
O535 C546 1.226 . S
O536 Zn534 1.932 . S
O536 C546 1.307 . S
O537 Zn530 1.919 . S
O537 C548 1.253 . S
O538 Zn532 1.941 . S
O538 C548 1.283 . S
O539 Zn532 1.965 . S
O539 C547 1.303 . S
O540 Zn533 1.938 . S
O540 C547 1.247 . S
O541 Zn533 1.906 . S
O541 C549 1.304 . S
O542 Zn530 1.924 . S
O542 C550 1.311 . S
O543 Zn534 1.977 . S
O543 C549 1.272 . S
O544 Zn534 1.910 . S
O544 C550 1.231 . S
C545 O529 1.225 . S
C545 O551 1.298 . S
C546 O535 1.226 . S
C546 O536 1.307 . S
C547 O539 1.303 . S
C547 O540 1.247 . S
C548 O537 1.253 . S
C548 O538 1.283 . S
C549 O541 1.304 . S
C549 O543 1.272 . S
C550 O542 1.311 . S
C550 O544 1.231 . S
O551 Zn533 1.953 . S
O551 C545 1.298 . S
O552 Zn553 1.953 . S
O552 C568 1.225 . S
Zn553 O552 1.953 . S
Zn553 O554 1.949 . S
Zn553 O560 1.919 . S
Zn553 O565 1.924 . S
O554 Zn553 1.949 . S
O554 Zn555 1.923 . S
O554 Zn556 1.950 . S
O554 Zn557 1.945 . S
Zn555 O554 1.923 . S
Zn555 O558 1.933 . S
Zn555 O561 1.941 . S
Zn555 O562 1.965 . S
Zn556 O554 1.950 . S
Zn556 O563 1.938 . S
Zn556 O564 1.906 . S
Zn556 O574 1.953 . S
Zn557 O554 1.945 . S
Zn557 O559 1.932 . S
Zn557 O566 1.977 . S
Zn557 O567 1.910 . S
O558 Zn555 1.933 . S
O558 C569 1.226 . S
O559 Zn557 1.932 . S
O559 C569 1.307 . S
O560 Zn553 1.919 . S
O560 C571 1.253 . S
O561 Zn555 1.941 . S
O561 C571 1.283 . S
O562 Zn555 1.965 . S
O562 C570 1.303 . S
O563 Zn556 1.938 . S
O563 C570 1.247 . S
O564 Zn556 1.906 . S
O564 C572 1.304 . S
O565 Zn553 1.924 . S
O565 C573 1.311 . S
O566 Zn557 1.977 . S
O566 C572 1.272 . S
O567 Zn557 1.910 . S
O567 C573 1.231 . S
C568 O552 1.225 . S
C568 O574 1.298 . S
C569 O558 1.226 . S
C569 O559 1.307 . S
C570 O562 1.303 . S
C570 O563 1.247 . S
C571 O560 1.253 . S
C571 O561 1.283 . S
C572 O564 1.304 . S
C572 O566 1.272 . S
C573 O565 1.311 . S
C573 O567 1.231 . S
O574 Zn556 1.953 . S
O574 C568 1.298 . S
O575 Zn576 1.953 . S
O575 C591 1.225 . S
Zn576 O575 1.953 . S
Zn576 O577 1.949 . S
Zn576 O583 1.919 . S
Zn576 O588 1.924 . S
O577 Zn576 1.949 . S
O577 Zn578 1.923 . S
O577 Zn579 1.950 . S
O577 Zn580 1.945 . S
Zn578 O577 1.923 . S
Zn578 O581 1.933 . S
Zn578 O584 1.941 . S
Zn578 O585 1.965 1_556 S
Zn579 O577 1.950 . S
Zn579 O586 1.938 1_556 S
Zn579 O587 1.906 . S
Zn579 O597 1.953 . S
Zn580 O577 1.945 . S
Zn580 O582 1.932 . S
Zn580 O589 1.977 . S
Zn580 O590 1.910 . S
O581 Zn578 1.933 . S
O581 C592 1.226 . S
O582 Zn580 1.932 . S
O582 C592 1.307 . S
O583 Zn576 1.919 . S
O583 C594 1.253 . S
O584 Zn578 1.941 . S
O584 C594 1.283 . S
O585 Zn578 1.965 1_554 S
O585 C593 1.303 . S
O586 Zn579 1.938 1_554 S
O586 C593 1.247 . S
O587 Zn579 1.906 . S
O587 C595 1.304 . S
O588 Zn576 1.924 . S
O588 C596 1.311 . S
O589 Zn580 1.977 . S
O589 C595 1.272 . S
O590 Zn580 1.910 . S
O590 C596 1.231 . S
C591 O575 1.225 . S
C591 O597 1.298 . S
C592 O581 1.226 . S
C592 O582 1.307 . S
C593 O585 1.303 . S
C593 O586 1.247 . S
C594 O583 1.253 . S
C594 O584 1.283 . S
C595 O587 1.304 . S
C595 O589 1.272 . S
C596 O588 1.311 . S
C596 O590 1.231 . S
O597 Zn579 1.953 . S
O597 C591 1.298 . S
O598 Zn599 1.953 . S
O598 C614 1.225 . S
Zn599 O598 1.953 . S
Zn599 O600 1.949 . S
Zn599 O606 1.919 . S
Zn599 O611 1.924 . S
O600 Zn599 1.949 . S
O600 Zn601 1.923 . S
O600 Zn602 1.950 . S
O600 Zn603 1.945 . S
Zn601 O600 1.923 . S
Zn601 O604 1.933 . S
Zn601 O607 1.941 . S
Zn601 O608 1.965 . S
Zn602 O600 1.950 . S
Zn602 O609 1.938 . S
Zn602 O610 1.906 . S
Zn602 O620 1.953 . S
Zn603 O600 1.945 . S
Zn603 O605 1.932 . S
Zn603 O612 1.977 . S
Zn603 O613 1.910 . S
O604 Zn601 1.933 . S
O604 C615 1.226 . S
O605 Zn603 1.932 . S
O605 C615 1.307 . S
O606 Zn599 1.919 . S
O606 C617 1.253 . S
O607 Zn601 1.941 . S
O607 C617 1.283 . S
O608 Zn601 1.965 . S
O608 C616 1.303 . S
O609 Zn602 1.938 . S
O609 C616 1.247 . S
O610 Zn602 1.906 . S
O610 C618 1.304 . S
O611 Zn599 1.924 . S
O611 C619 1.311 . S
O612 Zn603 1.977 . S
O612 C618 1.272 . S
O613 Zn603 1.910 . S
O613 C619 1.231 . S
C614 O598 1.225 . S
C614 O620 1.298 . S
C615 O604 1.226 . S
C615 O605 1.307 . S
C616 O608 1.303 . S
C616 O609 1.247 . S
C617 O606 1.253 . S
C617 O607 1.283 . S
C618 O610 1.304 . S
C618 O612 1.272 . S
C619 O611 1.311 . S
C619 O613 1.231 . S
O620 Zn602 1.953 . S
O620 C614 1.298 . S
O621 Zn622 1.953 . S
O621 C637 1.225 . S
Zn622 O621 1.953 . S
Zn622 O623 1.949 . S
Zn622 O629 1.919 . S
Zn622 O634 1.924 . S
O623 Zn622 1.949 . S
O623 Zn624 1.923 . S
O623 Zn625 1.950 . S
O623 Zn626 1.945 . S
Zn624 O623 1.923 . S
Zn624 O627 1.933 . S
Zn624 O630 1.941 . S
Zn624 O631 1.965 . S
Zn625 O623 1.950 . S
Zn625 O632 1.938 . S
Zn625 O633 1.906 . S
Zn625 O643 1.953 . S
Zn626 O623 1.945 . S
Zn626 O628 1.932 . S
Zn626 O635 1.977 . S
Zn626 O636 1.910 . S
O627 Zn624 1.933 . S
O627 C638 1.226 . S
O628 Zn626 1.932 . S
O628 C638 1.307 . S
O629 Zn622 1.919 . S
O629 C640 1.253 . S
O630 Zn624 1.941 . S
O630 C640 1.283 . S
O631 Zn624 1.965 . S
O631 C639 1.303 . S
O632 Zn625 1.938 . S
O632 C639 1.247 . S
O633 Zn625 1.906 . S
O633 C641 1.304 . S
O634 Zn622 1.924 . S
O634 C642 1.311 . S
O635 Zn626 1.977 . S
O635 C641 1.272 . S
O636 Zn626 1.910 . S
O636 C642 1.231 . S
C637 O621 1.225 . S
C637 O643 1.298 . S
C638 O627 1.226 . S
C638 O628 1.307 . S
C639 O631 1.303 . S
C639 O632 1.247 . S
C640 O629 1.253 . S
C640 O630 1.283 . S
C641 O633 1.304 . S
C641 O635 1.272 . S
C642 O634 1.311 . S
C642 O636 1.231 . S
O643 Zn625 1.953 . S
O643 C637 1.298 . S
O644 Zn645 1.953 . S
O644 C660 1.225 . S
Zn645 O644 1.953 . S
Zn645 O646 1.949 . S
Zn645 O652 1.919 . S
Zn645 O657 1.924 . S
O646 Zn645 1.949 . S
O646 Zn647 1.923 . S
O646 Zn648 1.950 . S
O646 Zn649 1.945 . S
Zn647 O646 1.923 . S
Zn647 O650 1.933 . S
Zn647 O653 1.941 . S
Zn647 O654 1.965 . S
Zn648 O646 1.950 . S
Zn648 O655 1.938 . S
Zn648 O656 1.906 . S
Zn648 O666 1.953 . S
Zn649 O646 1.945 . S
Zn649 O651 1.932 . S
Zn649 O658 1.977 . S
Zn649 O659 1.910 . S
O650 Zn647 1.933 . S
O650 C661 1.226 . S
O651 Zn649 1.932 . S
O651 C661 1.307 . S
O652 Zn645 1.919 . S
O652 C663 1.253 . S
O653 Zn647 1.941 . S
O653 C663 1.283 . S
O654 Zn647 1.965 . S
O654 C662 1.303 . S
O655 Zn648 1.938 . S
O655 C662 1.247 . S
O656 Zn648 1.906 . S
O656 C664 1.304 . S
O657 Zn645 1.924 . S
O657 C665 1.311 . S
O658 Zn649 1.977 . S
O658 C664 1.272 . S
O659 Zn649 1.910 . S
O659 C665 1.231 . S
C660 O644 1.225 . S
C660 O666 1.298 . S
C661 O650 1.226 . S
C661 O651 1.307 . S
C662 O654 1.303 . S
C662 O655 1.247 . S
C663 O652 1.253 . S
C663 O653 1.283 . S
C664 O656 1.304 . S
C664 O658 1.272 . S
C665 O657 1.311 . S
C665 O659 1.231 . S
O666 Zn648 1.953 . S
O666 C660 1.298 . S
O667 Zn668 1.953 . S
O667 C683 1.225 . S
Zn668 O667 1.953 . S
Zn668 O669 1.949 . S
Zn668 O675 1.919 . S
Zn668 O680 1.924 . S
O669 Zn668 1.949 . S
O669 Zn670 1.923 . S
O669 Zn671 1.950 . S
O669 Zn672 1.945 . S
Zn670 O669 1.923 . S
Zn670 O673 1.933 . S
Zn670 O676 1.941 . S
Zn670 O677 1.965 1_554 S
Zn671 O669 1.950 . S
Zn671 O678 1.938 1_554 S
Zn671 O679 1.906 . S
Zn671 O689 1.953 . S
Zn672 O669 1.945 . S
Zn672 O674 1.932 . S
Zn672 O681 1.977 . S
Zn672 O682 1.910 . S
O673 Zn670 1.933 . S
O673 C684 1.226 . S
O674 Zn672 1.932 . S
O674 C684 1.307 . S
O675 Zn668 1.919 . S
O675 C686 1.253 . S
O676 Zn670 1.941 . S
O676 C686 1.283 . S
O677 Zn670 1.965 1_556 S
O677 C685 1.303 . S
O678 Zn671 1.938 1_556 S
O678 C685 1.247 . S
O679 Zn671 1.906 . S
O679 C687 1.304 . S
O680 Zn668 1.924 . S
O680 C688 1.311 . S
O681 Zn672 1.977 . S
O681 C687 1.272 . S
O682 Zn672 1.910 . S
O682 C688 1.231 . S
C683 O667 1.225 . S
C683 O689 1.298 . S
C684 O673 1.226 . S
C684 O674 1.307 . S
C685 O677 1.303 . S
C685 O678 1.247 . S
C686 O675 1.253 . S
C686 O676 1.283 . S
C687 O679 1.304 . S
C687 O681 1.272 . S
C688 O680 1.311 . S
C688 O682 1.231 . S
O689 Zn671 1.953 . S
O689 C683 1.298 . S
O690 Zn691 1.953 . S
O690 C706 1.225 . S
Zn691 O690 1.953 . S
Zn691 O692 1.949 . S
Zn691 O698 1.919 . S
Zn691 O703 1.924 . S
O692 Zn691 1.949 . S
O692 Zn693 1.923 . S
O692 Zn694 1.950 . S
O692 Zn695 1.945 . S
Zn693 O692 1.923 . S
Zn693 O696 1.933 . S
Zn693 O699 1.941 . S
Zn693 O700 1.965 . S
Zn694 O692 1.950 . S
Zn694 O701 1.938 . S
Zn694 O702 1.906 . S
Zn694 O712 1.953 . S
Zn695 O692 1.945 . S
Zn695 O697 1.932 . S
Zn695 O704 1.977 . S
Zn695 O705 1.910 . S
O696 Zn693 1.933 . S
O696 C707 1.226 . S
O697 Zn695 1.932 . S
O697 C707 1.307 . S
O698 Zn691 1.919 . S
O698 C709 1.253 . S
O699 Zn693 1.941 . S
O699 C709 1.283 . S
O700 Zn693 1.965 . S
O700 C708 1.303 . S
O701 Zn694 1.938 . S
O701 C708 1.247 . S
O702 Zn694 1.906 . S
O702 C710 1.304 . S
O703 Zn691 1.924 . S
O703 C711 1.311 . S
O704 Zn695 1.977 . S
O704 C710 1.272 . S
O705 Zn695 1.910 . S
O705 C711 1.231 . S
C706 O690 1.225 . S
C706 O712 1.298 . S
C707 O696 1.226 . S
C707 O697 1.307 . S
C708 O700 1.303 . S
C708 O701 1.247 . S
C709 O698 1.253 . S
C709 O699 1.283 . S
C710 O702 1.304 . S
C710 O704 1.272 . S
C711 O703 1.311 . S
C711 O705 1.231 . S
O712 Zn694 1.953 . S
O712 C706 1.298 . S
O713 Zn714 1.953 . S
O713 C729 1.225 . S
Zn714 O713 1.953 . S
Zn714 O715 1.949 . S
Zn714 O721 1.919 . S
Zn714 O726 1.924 . S
O715 Zn714 1.949 . S
O715 Zn716 1.923 . S
O715 Zn717 1.950 . S
O715 Zn718 1.945 . S
Zn716 O715 1.923 . S
Zn716 O719 1.933 . S
Zn716 O722 1.941 . S
Zn716 O723 1.965 . S
Zn717 O715 1.950 . S
Zn717 O724 1.938 . S
Zn717 O725 1.906 . S
Zn717 O735 1.953 . S
Zn718 O715 1.945 . S
Zn718 O720 1.932 . S
Zn718 O727 1.977 . S
Zn718 O728 1.910 . S
O719 Zn716 1.933 . S
O719 C730 1.226 . S
O720 Zn718 1.932 . S
O720 C730 1.307 . S
O721 Zn714 1.919 . S
O721 C732 1.253 . S
O722 Zn716 1.941 . S
O722 C732 1.283 . S
O723 Zn716 1.965 . S
O723 C731 1.303 . S
O724 Zn717 1.938 . S
O724 C731 1.247 . S
O725 Zn717 1.906 . S
O725 C733 1.304 . S
O726 Zn714 1.924 . S
O726 C734 1.311 . S
O727 Zn718 1.977 . S
O727 C733 1.272 . S
O728 Zn718 1.910 . S
O728 C734 1.231 . S
C729 O713 1.225 . S
C729 O735 1.298 . S
C730 O719 1.226 . S
C730 O720 1.307 . S
C731 O723 1.303 . S
C731 O724 1.247 . S
C732 O721 1.253 . S
C732 O722 1.283 . S
C733 O725 1.304 . S
C733 O727 1.272 . S
C734 O726 1.311 . S
C734 O728 1.231 . S
O735 Zn717 1.953 . S
O735 C729 1.298 . S
C19 C87 2.161 . S
C21 C42 2.155 1_545 S
C66 C44 2.152 . S
C64 C89 2.185 1_566 S
C136 C111 2.155 . S
C134 C157 2.087 1_565 S
C182 C159 2.193 . S
C113 C180 2.142 1_564 S
C203 C274 2.171 . S
C226 C205 2.168 1_545 S
C249 C228 2.149 . S
C272 C251 2.158 1_566 S
C295 C320 2.151 . S
C318 C343 2.152 1_545 S
C366 C341 2.139 . S
C297 C364 2.143 1_546 S
C387 C455 2.161 . S
C389 C410 2.155 1_556 S
C412 C434 2.152 . S
C457 C432 2.185 . S
C479 C504 2.155 . S
C525 C502 2.087 1_554 S
C527 C550 2.193 . S
C481 C548 2.142 . S
C642 C571 2.171 . S
C573 C594 2.168 1_554 S
C617 C596 2.149 . S
C619 C640 2.158 . S
C688 C663 2.151 . S
C711 C686 2.152 1_556 S
C734 C709 2.139 . S
C732 C665 2.143 . S
C641 C17 1.649 . S
C40 C204 1.664 1_455 S
C63 C595 1.652 . S
C86 C250 1.636 . S
C109 C687 1.666 . S
C342 C132 1.630 . S
C733 C154 1.718 . S
C178 C296 1.657 1_455 S
C201 C456 1.709 . S
C20 C224 1.647 1_455 S
C411 C247 1.665 . S
C65 C270 1.736 . S
C503 C293 1.657 . S
C156 C316 1.581 . S
C339 C549 1.658 . S
C362 C112 1.655 1_655 S
C385 C273 1.649 . S
C408 C572 1.664 . S
C431 C227 1.652 . S
C454 C618 1.636 1_655 S
C477 C319 1.666 . S
C500 C710 1.630 1_655 S
C365 C522 1.718 . S
C546 C664 1.657 . S
C88 C569 1.709 . S
C388 C592 1.647 . S
C43 C615 1.665 . S
C433 C638 1.736 1_655 S
C135 C661 1.657 . S
C684 C524 1.581 1_455 S
C707 C181 1.658 . S
C480 C730 1.655 . S
C16 C108 0.415 1_565 S
C39 C131 0.402 . S
C62 C155 0.427 1_545 S
C177 C85 0.441 1_556 S
C292 C200 0.408 1_565 S
C315 C223 0.418 . S
C246 C338 0.423 1_565 S
C269 C361 0.407 1_556 S
C384 C476 0.415 . S
C499 C407 0.402 1_556 S
C523 C430 0.427 . S
C545 C453 0.441 . S
C660 C568 0.408 . S
C591 C683 0.418 1_556 S
C706 C614 0.423 . S
C637 C729 0.407 . S
C179 C18 1.299 . S
C41 C110 1.303 . S
C67 C133 1.256 . S
C158 C90 1.102 . S
C202 C363 1.290 . S
C294 C225 1.302 . S
C317 C248 1.297 . S
C271 C340 1.283 . S
C386 C547 1.299 . S
C478 C409 1.303 . S
C501 C435 1.256 . S
C526 C458 1.102 . S
C570 C731 1.290 . S
C662 C593 1.302 . S
C616 C685 1.297 . S
C708 C639 1.283 . S
