# Generated by pormake.
# Topology sra, (4)-cn, num edge types: 1
# Building blocks:
#     Node 0, Type 0, BuildingBlock: NAHDIM_clean_sbu_0, # of connection points: 4
#     Node 1, Type 0, BuildingBlock: NAHDIM_clean_sbu_0, # of connection points: 4
#     Node 2, Type 0, BuildingBlock: NAHDIM_clean_sbu_0, # of connection points: 4
#     Node 3, Type 0, BuildingBlock: NAHDIM_clean_sbu_0, # of connection points: 4
#     Node 4, Type 0, BuildingBlock: NAHDIM_clean_sbu_0, # of connection points: 4
#     Node 5, Type 0, BuildingBlock: NAHDIM_clean_sbu_0, # of connection points: 4
#     Node 6, Type 0, BuildingBlock: NAHDIM_clean_sbu_0, # of connection points: 4
#     Node 7, Type 0, BuildingBlock: NAHDIM_clean_sbu_0, # of connection points: 4
#     Edge 8, Type (0, 0), BuildingBlock: FUNLAD_clean_linker_0, # of connection points: 2
#     Edge 9, Type (0, 0), BuildingBlock: FUNLAD_clean_linker_0, # of connection points: 2
#     Edge 10, Type (0, 0), BuildingBlock: FUNLAD_clean_linker_0, # of connection points: 2
#     Edge 11, Type (0, 0), BuildingBlock: FUNLAD_clean_linker_0, # of connection points: 2
#     Edge 12, Type (0, 0), BuildingBlock: FUNLAD_clean_linker_0, # of connection points: 2
#     Edge 13, Type (0, 0), BuildingBlock: FUNLAD_clean_linker_0, # of connection points: 2
#     Edge 14, Type (0, 0), BuildingBlock: FUNLAD_clean_linker_0, # of connection points: 2
#     Edge 15, Type (0, 0), BuildingBlock: FUNLAD_clean_linker_0, # of connection points: 2
#     Edge 16, Type (0, 0), BuildingBlock: FUNLAD_clean_linker_0, # of connection points: 2
#     Edge 17, Type (0, 0), BuildingBlock: FUNLAD_clean_linker_0, # of connection points: 2
#     Edge 18, Type (0, 0), BuildingBlock: FUNLAD_clean_linker_0, # of connection points: 2
#     Edge 19, Type (0, 0), BuildingBlock: FUNLAD_clean_linker_0, # of connection points: 2
#     Edge 20, Type (0, 0), BuildingBlock: FUNLAD_clean_linker_0, # of connection points: 2
#     Edge 21, Type (0, 0), BuildingBlock: FUNLAD_clean_linker_0, # of connection points: 2
#     Edge 22, Type (0, 0), BuildingBlock: FUNLAD_clean_linker_0, # of connection points: 2
#     Edge 23, Type (0, 0), BuildingBlock: FUNLAD_clean_linker_0, # of connection points: 2
# Relax obj value: 0.091
# Max RMSD: 0.091
# Mean RMSD: 0.091
data_MOF--net-sra--node1-NAHDIM_clean_sbu_0--edge1-FUNLAD_clean_linker_0
_symmetry_space_group_name_H-M    P1
_symmetry_Int_Tables_number       1
_symmetry_cell_setting            triclinic
loop_
_symmetry_equiv_pos_as_xyz
'x, y, z'
_cell_length_a     29.215982
_cell_length_b     55.976398
_cell_length_c     47.798012
_cell_angle_alpha  90.208766
_cell_angle_beta   90.075165
_cell_angle_gamma 89.905168
loop_
_atom_site_label
_atom_site_type_symbol
_atom_site_fract_x
_atom_site_fract_y
_atom_site_fract_z
_atom_type_partial_charge
C0 C 0.98516 0.06779 0.08535 0.0
O1 O 0.94599 0.07887 0.08923 0.0
O2 O 0.94649 0.08796 0.15247 0.0
Zn3 Zn 0.00932 0.09233 0.13621 0.0
O4 O 0.05763 0.08458 0.16468 0.0
C5 C 0.98258 0.13943 0.11815 0.0
O6 O 0.9418 0.12961 0.11726 0.0
O7 O 0.01743 0.07096 0.1028 0.0
C8 C 0.05581 0.09345 0.18916 0.0
O9 O 0.02101 0.10719 0.19594 0.0
C10 C 0.93452 0.06998 0.16682 0.0
O11 O 0.96444 0.05296 0.17179 0.0
O12 O 0.01684 0.12674 0.12513 0.0
C13 C 0.99365 0.44341 0.10477 0.0
O14 O 0.98178 0.45406 0.1282 0.0
O15 O 0.07114 0.4119 0.16104 0.0
Zn16 Zn 0.01148 0.40437 0.14191 0.0
O17 O 0.95757 0.41322 0.16594 0.0
C18 C 0.04423 0.35751 0.12694 0.0
O19 O 0.08315 0.36894 0.12398 0.0
O20 O 0.00773 0.42194 0.10551 0.0
C21 C 0.9575 0.41022 0.19227 0.0
O22 O 0.99419 0.40153 0.20451 0.0
C23 C 0.0789 0.4308 0.17506 0.0
O24 O 0.04636 0.44686 0.17781 0.0
O25 O 0.00876 0.36909 0.13429 0.0
C26 C 0.05662 0.91884 0.89774 0.0
O27 O 0.09473 0.90671 0.89422 0.0
O28 O 0.97772 0.90147 0.82036 0.0
Zn29 Zn 0.0289 0.89427 0.84718 0.0
O30 O 0.08989 0.89757 0.82831 0.0
C31 C 0.98512 0.84971 0.86177 0.0
O32 O 0.94737 0.86193 0.85737 0.0
O33 O 0.02416 0.91621 0.88032 0.0
C34 C 0.11064 0.9171 0.82374 0.0
O35 O 0.09143 0.93737 0.83121 0.0
C36 C 0.96279 0.92253 0.81651 0.0
O37 O 0.9825 0.94046 0.82959 0.0
O38 O 0.02354 0.86011 0.85939 0.0
C39 C 0.00126 0.54299 0.87365 0.0
O40 O 0.00986 0.53256 0.84955 0.0
O41 O 0.05579 0.57964 0.81999 0.0
Zn42 Zn 0.99528 0.58483 0.83928 0.0
O43 O 0.94175 0.57638 0.81474 0.0
C44 C 0.02308 0.63054 0.86084 0.0
O45 O 0.06155 0.61902 0.86551 0.0
O46 O 0.99359 0.56532 0.87427 0.0
C47 C 0.93623 0.58684 0.79143 0.0
O48 O 0.96705 0.60234 0.78313 0.0
C49 C 0.06206 0.5664 0.79869 0.0
O50 O 0.0272 0.55492 0.78766 0.0
O51 O 0.98971 0.61945 0.84978 0.0
C52 C 0.49306 0.55824 0.59734 0.0
O53 O 0.48811 0.54623 0.6207 0.0
O54 O 0.43618 0.59039 0.65462 0.0
Zn55 Zn 0.49639 0.59726 0.63579 0.0
O56 O 0.55013 0.58629 0.65874 0.0
C57 C 0.46997 0.64514 0.62028 0.0
O58 O 0.43169 0.63457 0.61284 0.0
O59 O 0.49753 0.58079 0.59849 0.0
C60 C 0.55634 0.59456 0.68324 0.0
O61 O 0.52611 0.60949 0.69376 0.0
C62 C 0.4305 0.57508 0.67388 0.0
O63 O 0.46572 0.56266 0.68286 0.0
O64 O 0.50235 0.63266 0.63035 0.0
C65 C 0.52899 0.95075 0.60852 0.0
O66 O 0.53148 0.9621 0.63258 0.0
O67 O 0.59082 0.9129 0.66232 0.0
Zn68 Zn 0.52883 0.90983 0.64433 0.0
O69 O 0.47894 0.92166 0.66978 0.0
C70 C 0.54743 0.86265 0.62361 0.0
O71 O 0.58517 0.873 0.61498 0.0
O72 O 0.5275 0.92807 0.60836 0.0
C73 C 0.47381 0.91201 0.69357 0.0
O74 O 0.50241 0.89512 0.70131 0.0
C75 C 0.60079 0.92804 0.68123 0.0
O76 O 0.56937 0.94314 0.68991 0.0
O77 O 0.51763 0.87507 0.63644 0.0
C78 C 0.50947 0.44019 0.37753 0.0
O79 O 0.51729 0.45254 0.35471 0.0
O80 O 0.45456 0.41537 0.31392 0.0
Zn81 Zn 0.50726 0.4034 0.3371 0.0
O82 O 0.56785 0.41226 0.32018 0.0
C83 C 0.51475 0.35587 0.31714 0.0
O84 O 0.52852 0.36764 0.29497 0.0
O85 O 0.50349 0.41777 0.3755 0.0
C86 C 0.60344 0.40338 0.33141 0.0
O87 O 0.59876 0.38953 0.35335 0.0
C88 C 0.45763 0.41954 0.28787 0.0
O89 O 0.49728 0.4168 0.27532 0.0
O90 O 0.50331 0.36753 0.3389 0.0
C91 C 0.50162 0.04689 0.37591 0.0
O92 O 0.49777 0.03509 0.3522 0.0
O93 O 0.56388 0.07572 0.3174 0.0
Zn94 Zn 0.50698 0.0857 0.33802 0.0
O95 O 0.45031 0.07674 0.31651 0.0
C96 C 0.49517 0.13466 0.32333 0.0
O97 O 0.48182 0.12468 0.29978 0.0
O98 O 0.50599 0.06945 0.37528 0.0
C99 C 0.41166 0.08134 0.32745 0.0
O100 O 0.41034 0.09114 0.35246 0.0
C101 C 0.56548 0.07402 0.29091 0.0
O102 O 0.52848 0.07853 0.27619 0.0
O103 O 0.50793 0.12137 0.3434 0.0
C104 C -0.00017 0.31933 0.12448 0.0
C105 C 0.04193 0.33134 0.12271 0.0
C106 C -0.00223 0.29452 0.12152 0.0
C107 C 0.03784 0.28116 0.11664 0.0
C108 C 0.07986 0.29317 0.11485 0.0
C109 C 0.0819 0.31801 0.11766 0.0
C110 C 0.03744 0.25464 0.11523 0.0
C111 C 0.0007 0.24192 0.10686 0.0
C112 C -0.00209 0.21538 0.1079 0.0
C113 C 0.95452 0.20468 0.10635 0.0
C114 C 0.9496 0.17997 0.10899 0.0
C115 C 0.98809 0.16534 0.11319 0.0
H116 H 0.07093 0.20779 0.11127 0.0
C117 C 0.03171 0.17587 0.11368 0.0
C118 C 0.03666 0.20058 0.11094 0.0
H119 H 0.06213 0.16505 0.11651 0.0
H120 H 0.96843 0.32905 0.12853 0.0
H121 H 0.96491 0.2859 0.12398 0.0
H122 H 0.11129 0.28329 0.1114 0.0
H123 H 0.11491 0.3267 0.1163 0.0
H124 H 0.0685 0.24563 0.12175 0.0
H125 H 0.97026 0.25135 0.09991 0.0
H126 H 0.92407 0.21553 0.10376 0.0
H127 H 0.91549 0.17243 0.10835 0.0
C128 C 0.0239 0.81059 0.87091 0.0
C129 C 0.98334 0.82365 0.8667 0.0
C130 C 0.02287 0.78572 0.87295 0.0
C131 C 0.98109 0.77331 0.87101 0.0
C132 C 0.9405 0.78643 0.86744 0.0
C133 C 0.94153 0.81133 0.86547 0.0
C134 C 0.97892 0.74679 0.87014 0.0
C135 C 0.01154 0.73245 0.88097 0.0
C136 C 0.01243 0.70603 0.8772 0.0
C137 C 0.05404 0.69392 0.88131 0.0
C138 C 0.0574 0.66935 0.87644 0.0
C139 C 0.01909 0.6563 0.8674 0.0
H140 H 0.94044 0.70104 0.86669 0.0
C141 C 0.97705 0.66821 0.86416 0.0
C142 C 0.97362 0.69276 0.86915 0.0
H143 H 0.9467 0.6586 0.85763 0.0
H144 H 0.05674 0.81952 0.87182 0.0
H145 H 0.05512 0.77636 0.87486 0.0
H146 H 0.9079 0.77734 0.86568 0.0
H147 H 0.90966 0.82083 0.86218 0.0
H148 H 0.94977 0.73912 0.85934 0.0
H149 H 0.04024 0.74036 0.89204 0.0
H150 H 0.08441 0.70359 0.88773 0.0
H151 H 0.09025 0.6607 0.8793 0.0
C152 C 0.51587 0.68256 0.6261 0.0
C153 C 0.47499 0.67135 0.61783 0.0
C154 C 0.52031 0.70736 0.62468 0.0
C155 C 0.48399 0.72155 0.61474 0.0
C156 C 0.44315 0.71034 0.6065 0.0
C157 C 0.43873 0.68551 0.60788 0.0
C158 C 0.48657 0.74807 0.61427 0.0
C159 C 0.52633 0.7602 0.61297 0.0
C160 C 0.52943 0.78668 0.61443 0.0
C161 C 0.56902 0.79789 0.60431 0.0
C162 C 0.57452 0.8226 0.60677 0.0
C163 C 0.54063 0.83666 0.61967 0.0
H164 H 0.46492 0.79285 0.63603 0.0
C165 C 0.50083 0.82549 0.62965 0.0
C166 C 0.49532 0.80079 0.62716 0.0
H167 H 0.4742 0.83578 0.63988 0.0
H168 H 0.54436 0.6722 0.63408 0.0
H169 H 0.55181 0.71528 0.63214 0.0
H170 H 0.41447 0.72085 0.59903 0.0
H171 H 0.40671 0.67745 0.60144 0.0
H172 H 0.45438 0.75779 0.61433 0.0
H173 H 0.55816 0.75045 0.61015 0.0
H174 H 0.59601 0.78746 0.59463 0.0
H175 H 0.60565 0.83062 0.59893 0.0
C176 C 0.49578 0.31664 0.33957 0.0
C177 C 0.51233 0.32947 0.31649 0.0
C178 C 0.49299 0.2917 0.33861 0.0
C179 C 0.50707 0.27907 0.31456 0.0
C180 C 0.52339 0.29198 0.29153 0.0
C181 C 0.52613 0.31686 0.29248 0.0
C182 C 0.50385 0.25263 0.31209 0.0
C183 C 0.50107 0.23772 0.33409 0.0
C184 C 0.49861 0.2113 0.33096 0.0
C185 C 0.51354 0.19681 0.3531 0.0
C186 C 0.51231 0.17191 0.35074 0.0
C187 C 0.49578 0.16098 0.32622 0.0
H188 H 0.46752 0.21078 0.28956 0.0
C189 C 0.47987 0.17547 0.30432 0.0
C190 C 0.48102 0.20033 0.30669 0.0
H191 H 0.46634 0.16762 0.28528 0.0
H192 H 0.48453 0.32586 0.35831 0.0
H193 H 0.47893 0.28257 0.35654 0.0
H194 H 0.53416 0.28278 0.27266 0.0
H195 H 0.53896 0.32618 0.27429 0.0
H196 H 0.50603 0.24521 0.29112 0.0
H197 H 0.50315 0.24481 0.35521 0.0
H198 H 0.52676 0.20477 0.37216 0.0
H199 H 0.52458 0.16126 0.36808 0.0
C200 C 0.32636 0.08357 0.3231 0.0
C201 C 0.36889 0.07716 0.31158 0.0
C202 C 0.28615 0.08098 0.30753 0.0
C203 C 0.28767 0.07203 0.27999 0.0
C204 C 0.32996 0.06475 0.26892 0.0
C205 C 0.3702 0.0674 0.28447 0.0
C206 C 0.24618 0.07021 0.26209 0.0
C207 C 0.20971 0.08483 0.26495 0.0
C208 C 0.16958 0.08507 0.2457 0.0
C209 C 0.13015 0.09764 0.25397 0.0
C210 C 0.09275 0.09989 0.23591 0.0
C211 C 0.09399 0.08968 0.20904 0.0
H212 H 0.20026 0.06514 0.21119 0.0
C213 C 0.13301 0.07671 0.20088 0.0
C214 C 0.17045 0.0745 0.2189 0.0
H215 H 0.13516 0.06871 0.18025 0.0
H216 H 0.32408 0.09086 0.34408 0.0
H217 H 0.25407 0.08595 0.31723 0.0
H218 H 0.33207 0.05756 0.24789 0.0
H219 H 0.40238 0.06212 0.27504 0.0
H220 H 0.24725 0.05722 0.24524 0.0
H221 H 0.20948 0.09793 0.28175 0.0
H222 H 0.12848 0.10607 0.27439 0.0
H223 H 0.06321 0.11 0.24287 0.0
C224 C 0.65506 0.4235 0.29692 0.0
C225 C 0.64917 0.40739 0.31909 0.0
C226 C 0.69796 0.42634 0.28443 0.0
C227 C 0.73582 0.41283 0.29364 0.0
C228 C 0.73003 0.39733 0.3164 0.0
C229 C 0.68727 0.39463 0.32898 0.0
C230 C 0.78162 0.41385 0.28003 0.0
C231 C 0.78905 0.4228 0.25427 0.0
C232 C 0.83368 0.42107 0.23937 0.0
C233 C 0.83397 0.42376 0.21018 0.0
C234 C 0.87435 0.42079 0.19496 0.0
C235 C 0.91552 0.41506 0.20862 0.0
H236 H 0.87734 0.4151 0.27571 0.0
C237 C 0.91576 0.41327 0.23792 0.0
C238 C 0.87539 0.4164 0.25319 0.0
H239 H 0.9471 0.40926 0.2491 0.0
H240 H 0.62645 0.43385 0.28908 0.0
H241 H 0.7009 0.43914 0.26766 0.0
H242 H 0.75853 0.38685 0.32416 0.0
H243 H 0.68398 0.38215 0.34613 0.0
H244 H 0.80945 0.40511 0.29102 0.0
H245 H 0.7606 0.43002 0.24241 0.0
H246 H 0.80258 0.42761 0.19896 0.0
H247 H 0.873 0.42246 0.1724 0.0
C248 C 0.17998 0.93795 0.80467 0.0
C249 C 0.15655 0.91667 0.81069 0.0
C250 C 0.22353 0.93726 0.79248 0.0
C251 C 0.24439 0.91521 0.78603 0.0
C252 C 0.2211 0.89403 0.7924 0.0
C253 C 0.17767 0.89471 0.80444 0.0
C254 C 0.29051 0.9133 0.77314 0.0
C255 C 0.31005 0.93067 0.75782 0.0
C256 C 0.35417 0.9271 0.74292 0.0
C257 C 0.36202 0.93946 0.7179 0.0
C258 C 0.40148 0.93506 0.70218 0.0
C259 C 0.43412 0.91832 0.71133 0.0
H260 H 0.384 0.9021 0.77254 0.0
C261 C 0.42739 0.90686 0.7371 0.0
C262 C 0.38795 0.91126 0.75279 0.0
H263 H 0.4522 0.89415 0.74497 0.0
H264 H 0.1648 0.95514 0.80945 0.0
H265 H 0.24084 0.95398 0.78861 0.0
H266 H 0.23641 0.8768 0.78784 0.0
H267 H 0.16076 0.87796 0.80892 0.0
H268 H 0.30747 0.89607 0.77468 0.0
H269 H 0.29152 0.94715 0.7539 0.0
H270 H 0.33685 0.95199 0.71001 0.0
H271 H 0.40582 0.94437 0.68253 0.0
C272 C 0.63469 0.57642 0.68582 0.0
C273 C 0.59856 0.58873 0.69892 0.0
C274 C 0.67591 0.5725 0.69997 0.0
C275 C 0.68177 0.58079 0.72756 0.0
C276 C 0.64498 0.59213 0.74103 0.0
C277 C 0.60391 0.59624 0.72681 0.0
C278 C 0.72581 0.57818 0.74277 0.0
C279 C 0.7667 0.57843 0.72977 0.0
C280 C 0.81078 0.57889 0.74522 0.0
C281 C 0.84817 0.5909 0.73344 0.0
C282 C 0.88928 0.59309 0.7482 0.0
C283 C 0.89403 0.58296 0.7749 0.0
H284 H 0.78841 0.55792 0.78081 0.0
C285 C 0.85729 0.56997 0.78615 0.0
C286 C 0.81605 0.56797 0.77149 0.0
H287 H 0.85999 0.56176 0.80657 0.0
H288 H 0.63152 0.5702 0.66442 0.0
H289 H 0.70305 0.56302 0.68924 0.0
H290 H 0.64845 0.59845 0.76238 0.0
H291 H 0.5766 0.60559 0.73758 0.0
H292 H 0.72453 0.5784 0.76549 0.0
H293 H 0.76806 0.58071 0.70722 0.0
H294 H 0.84515 0.59924 0.7131 0.0
H295 H 0.91707 0.60303 0.73884 0.0
C296 C 0.65697 0.94241 0.71725 0.0
C297 C 0.64691 0.92784 0.69406 0.0
C298 C 0.69992 0.94126 0.73016 0.0
C299 C 0.73393 0.92565 0.71991 0.0
C300 C 0.72388 0.91135 0.69652 0.0
C301 C 0.68098 0.91243 0.68371 0.0
C302 C 0.7791 0.92252 0.73386 0.0
C303 C 0.79709 0.93809 0.75241 0.0
C304 C 0.84087 0.93372 0.76751 0.0
C305 C 0.86451 0.95321 0.77912 0.0
C306 C 0.90462 0.94968 0.79458 0.0
C307 C 0.92178 0.92652 0.79892 0.0
H308 H 0.84033 0.8949 0.7642 0.0
C309 C 0.89826 0.90701 0.78722 0.0
C310 C 0.85817 0.91052 0.77185 0.0
H311 H 0.91025 0.8889 0.79042 0.0
H312 H 0.63134 0.95435 0.72586 0.0
H313 H 0.70554 0.95215 0.74857 0.0
H314 H 0.74921 0.89905 0.68825 0.0
H315 H 0.67441 0.90096 0.66586 0.0
H316 H 0.79856 0.90673 0.72807 0.0
H317 H 0.77994 0.95496 0.75644 0.0
H318 H 0.85178 0.97124 0.77635 0.0
H319 H 0.92182 0.9651 0.8034 0.0
C320 C 0.37884 0.55784 0.71044 0.0
C321 C 0.38453 0.57149 0.68607 0.0
C322 C 0.33543 0.555 0.72226 0.0
C323 C 0.29683 0.56569 0.70985 0.0
C324 C 0.30241 0.57875 0.6851 0.0
C325 C 0.3458 0.5818 0.67345 0.0
C326 C 0.25032 0.56353 0.722 0.0
C327 C 0.24282 0.56174 0.7497 0.0
C328 C 0.19624 0.56199 0.76204 0.0
C329 C 0.19014 0.57193 0.78875 0.0
C330 C 0.1466 0.57329 0.80066 0.0
C331 C 0.10825 0.56433 0.78627 0.0
H332 H 0.16174 0.54416 0.72752 0.0
C333 C 0.11451 0.55369 0.75988 0.0
C334 C 0.15807 0.55256 0.74783 0.0
H335 H 0.0857 0.54647 0.74836 0.0
H336 H 0.40796 0.54952 0.72055 0.0
H337 H 0.3322 0.54425 0.74093 0.0
H338 H 0.27318 0.58699 0.67499 0.0
H339 H 0.34894 0.59226 0.65452 0.0
H340 H 0.2214 0.56556 0.70788 0.0
H341 H 0.27167 0.5622 0.76406 0.0
H342 H 0.21905 0.57911 0.80024 0.0
H343 H 0.14301 0.58142 0.82115 0.0
C344 C 0.61229 0.06821 0.24749 0.0
C345 C 0.60926 0.0683 0.27683 0.0
C346 C 0.65428 0.06421 0.23426 0.0
C347 C 0.6942 0.06034 0.25015 0.0
C348 C 0.69076 0.05949 0.27941 0.0
C349 C 0.64884 0.06354 0.29263 0.0
C350 C 0.74 0.05746 0.23706 0.0
C351 C 0.75109 0.06746 0.21239 0.0
C352 C 0.79809 0.06707 0.20055 0.0
C353 C 0.8108 0.0853 0.18207 0.0
C354 C 0.85498 0.08615 0.17107 0.0
C355 C 0.88744 0.0686 0.17807 0.0
H356 H 0.82135 0.03439 0.22059 0.0
C357 C 0.87448 0.04995 0.19599 0.0
C358 C 0.83023 0.04915 0.20711 0.0
H359 H 0.89856 0.03602 0.20157 0.0
H360 H 0.58234 0.07152 0.23469 0.0
H361 H 0.6552 0.06416 0.21163 0.0
H362 H 0.72085 0.05628 0.29214 0.0
H363 H 0.64765 0.06328 0.31528 0.0
H364 H 0.76632 0.04869 0.24938 0.0
H365 H 0.7258 0.07817 0.20143 0.0
H366 H 0.78666 0.09921 0.17646 0.0
H367 H 0.86368 0.10068 0.15715 0.0
C368 C 0.15967 0.41793 0.18367 0.0
C369 C 0.12388 0.43418 0.18875 0.0
C370 C 0.20175 0.42049 0.19719 0.0
C371 C 0.2091 0.43944 0.21608 0.0
C372 C 0.17337 0.45569 0.22115 0.0
C373 C 0.13126 0.45321 0.20747 0.0
C374 C 0.25236 0.44161 0.23226 0.0
C375 C 0.2927 0.43304 0.22293 0.0
C376 C 0.33502 0.43224 0.24019 0.0
C377 C 0.37746 0.42978 0.22672 0.0
C378 C 0.41759 0.42651 0.2422 0.0
C379 C 0.41602 0.42534 0.27155 0.0
H380 H 0.30159 0.43289 0.28084 0.0
C381 C 0.37371 0.42837 0.28508 0.0
C382 C 0.33363 0.43172 0.26961 0.0
H383 H 0.37128 0.4275 0.30767 0.0
H384 H 0.15506 0.40299 0.16948 0.0
H385 H 0.22784 0.40713 0.19339 0.0
H386 H 0.17795 0.47027 0.23585 0.0
H387 H 0.10432 0.46597 0.21193 0.0
H388 H 0.25067 0.45067 0.25235 0.0
H389 H 0.29507 0.42617 0.2017 0.0
H390 H 0.37949 0.42993 0.20408 0.0
H391 H 0.44961 0.42421 0.23111 0.0
C392 C 0.03328 0.03948 0.05726 0.0
C393 C 0.9915 0.05151 0.06121 0.0
C394 C 0.03916 0.02384 0.03471 0.0
C395 C 0.00317 0.01976 0.01568 0.0
C396 C 0.96177 0.03214 0.01937 0.0
C397 C 0.95587 0.04776 0.04194 0.0
C398 C 0.0077 0.00324 -0.00857 0.0
C399 C 0.03763 0.98489 -0.00944 0.0
C400 C 0.04154 0.96814 0.96646 0.0
C401 C 0.08252 0.95537 0.96276 0.0
C402 C 0.08754 0.93934 0.94047 0.0
C403 C 0.05147 0.93562 0.9215 0.0
H404 H 0.97241 0.97285 0.95029 0.0
C405 C 0.0102 0.94812 0.92542 0.0
C406 C 0.00516 0.96411 0.94769 0.0
H407 H 0.98154 0.94548 0.91136 0.0
H408 H 0.0616 0.04217 0.07157 0.0
H409 H 0.07217 0.01536 0.03214 0.0
H410 H 0.93364 0.02952 0.00488 0.0
H411 H 0.92332 0.05684 0.04429 0.0
H412 H 0.98468 0.00624 0.97395 0.0
H413 H 0.06069 0.98191 0.00801 0.0
H414 H 0.11092 0.95793 0.97706 0.0
H415 H 0.11973 0.92993 0.93811 0.0
C416 C 0.99255 0.54041 0.9256 0.0
C417 C 0.00133 0.52908 0.89988 0.0
C418 C 0.9933 0.52746 0.95049 0.0
C419 C 0.00254 0.50277 0.95019 0.0
C420 C 0.01172 0.49151 0.92451 0.0
C421 C 0.01092 0.50447 0.89958 0.0
C422 C 0.00475 0.48845 0.97625 0.0
C423 C 0.98227 0.49445 -0.00013 0.0
C424 C 0.98539 0.48072 0.02636 0.0
C425 C 0.97375 0.49225 0.05151 0.0
C426 C 0.97643 0.48017 0.07698 0.0
C427 C 0.99058 0.45619 0.07782 0.0
H428 H 0.00659 0.44668 0.00828 0.0
C429 C 0.00155 0.44449 0.05264 0.0
C430 C -0.00118 0.45656 0.02717 0.0
H431 H 0.01207 0.42592 0.05254 0.0
H432 H 0.98551 0.5594 0.9266 0.0
H433 H 0.98768 0.53704 0.96987 0.0
H434 H 0.01938 0.47257 0.92371 0.0
H435 H 0.01805 0.49522 0.88013 0.0
H436 H 0.02562 0.47241 0.97561 0.0
H437 H 0.96119 0.51043 0.00024 0.0
H438 H 0.96293 0.51077 0.05151 0.0
H439 H 0.96752 0.48967 0.09598 0.0
C440 C 0.51502 0.47698 0.40716 0.0
C441 C 0.50797 0.45222 0.4051 0.0
C442 C 0.51386 0.48844 0.43315 0.0
C443 C 0.50524 0.47537 0.45769 0.0
C444 C 0.49882 0.45058 0.45564 0.0
C445 C 0.49996 0.43911 0.42963 0.0
C446 C 0.50422 0.48678 0.48581 0.0
C447 C 0.49432 0.51006 0.48994 0.0
C448 C 0.49398 0.52177 0.5179 0.0
C449 C 0.49884 0.54669 0.51931 0.0
C450 C 0.49867 0.55854 0.54506 0.0
C451 C 0.49328 0.5457 0.57005 0.0
H452 H 0.48254 0.48984 0.54282 0.0
C453 C 0.48778 0.5208 0.56869 0.0
C454 C 0.48796 0.50894 0.54292 0.0
H455 H 0.48307 0.51042 0.58755 0.0
H456 H 0.52178 0.48757 0.3887 0.0
H457 H 0.52067 0.50742 0.43383 0.0
H458 H 0.49259 0.44004 0.47422 0.0
H459 H 0.49463 0.41998 0.42878 0.0
H460 H 0.51152 0.47536 0.50355 0.0
H461 H 0.48678 0.52136 0.47212 0.0
H462 H 0.50314 0.55705 0.50039 0.0
H463 H 0.50278 0.57776 0.54535 0.0
C464 C 0.52464 0.95193 0.55624 0.0
C465 C 0.5276 0.96414 0.58192 0.0
C466 C 0.52302 0.96451 0.53109 0.0
C467 C 0.524 0.98965 0.53108 0.0
C468 C 0.52775 0.00181 0.55672 0.0
C469 C 0.52931 0.98922 0.58189 0.0
C470 C 0.52268 0.00375 0.50481 0.0
C471 C 0.50378 0.99562 0.48087 0.0
C472 C 0.50303 0.00941 0.45436 0.0
C473 C 0.49795 -0.00308 0.42903 0.0
C474 C 0.49738 0.00907 0.40356 0.0
C475 C 0.50153 0.03406 0.40289 0.0
H476 H 0.50866 0.04493 0.47275 0.0
C477 C 0.50573 0.04665 0.42825 0.0
C478 C 0.50632 0.0345 0.45373 0.0
H479 H 0.50849 0.06595 0.42847 0.0
H480 H 0.52376 0.93259 0.55551 0.0
H481 H 0.52187 0.95438 0.5118 0.0
H482 H 0.52907 0.02115 0.5573 0.0
H483 H 0.53184 -0.00083 0.60131 0.0
H484 H 0.5375 0.02149 0.50559 0.0
H485 H 0.48881 0.9779 0.48024 0.0
H486 H 0.4949 0.97763 0.42889 0.0
H487 H 0.49385 -0.00117 0.38441 0.0
loop_
_geom_bond_atom_site_label_1
_geom_bond_atom_site_label_2
_geom_bond_distance
_geom_bond_site_symmetry_2
_ccdc_geom_bond_type
C0 O1 1.160 1_455 S
C0 O7 1.185 . S
O1 C0 1.160 1_655 S
O2 Zn3 1.899 1_655 S
O2 C10 1.284 . S
Zn3 O2 1.899 1_455 S
Zn3 O4 2.032 . S
Zn3 O7 2.086 . S
Zn3 O12 1.977 . S
O4 Zn3 2.032 . S
O4 C8 1.278 . S
C5 O6 1.203 1_455 S
C5 O12 1.267 . S
O6 C5 1.203 1_655 S
O7 C0 1.185 . S
O7 Zn3 2.086 . S
C8 O4 1.278 . S
C8 O9 1.211 . S
O9 C8 1.211 . S
C10 O2 1.284 . S
C10 O11 1.273 . S
O11 C10 1.273 . S
O12 Zn3 1.977 . S
O12 C5 1.267 . S
C13 O14 1.160 . S
C13 O20 1.185 . S
O14 C13 1.160 . S
O15 Zn16 1.899 . S
O15 C23 1.284 . S
Zn16 O15 1.899 . S
Zn16 O17 2.032 1_455 S
Zn16 O20 2.086 . S
Zn16 O25 1.977 . S
O17 Zn16 2.032 1_655 S
O17 C21 1.278 . S
C18 O19 1.203 . S
C18 O25 1.267 . S
O19 C18 1.203 . S
O20 C13 1.185 . S
O20 Zn16 2.086 . S
C21 O17 1.278 . S
C21 O22 1.211 . S
O22 C21 1.211 . S
C23 O15 1.284 . S
C23 O24 1.273 . S
O24 C23 1.273 . S
O25 Zn16 1.977 . S
O25 C18 1.267 . S
C26 O27 1.160 1_455 S
C26 O33 1.185 . S
O27 C26 1.160 1_655 S
O28 Zn29 1.899 1_655 S
O28 C36 1.284 . S
Zn29 O28 1.899 1_455 S
Zn29 O30 2.032 . S
Zn29 O33 2.086 . S
Zn29 O38 1.977 . S
O30 Zn29 2.032 . S
O30 C34 1.278 . S
C31 O32 1.203 1_455 S
C31 O38 1.267 . S
O32 C31 1.203 1_655 S
O33 C26 1.185 . S
O33 Zn29 2.086 . S
C34 O30 1.278 . S
C34 O35 1.211 . S
O35 C34 1.211 . S
C36 O28 1.284 . S
C36 O37 1.273 . S
O37 C36 1.273 . S
O38 Zn29 1.977 . S
O38 C31 1.267 . S
C39 O40 1.160 . S
C39 O46 1.185 . S
O40 C39 1.160 . S
O41 Zn42 1.899 . S
O41 C49 1.284 . S
Zn42 O41 1.899 . S
Zn42 O43 2.032 1_455 S
Zn42 O46 2.086 . S
Zn42 O51 1.977 . S
O43 Zn42 2.032 1_655 S
O43 C47 1.278 . S
C44 O45 1.203 . S
C44 O51 1.267 . S
O45 C44 1.203 . S
O46 C39 1.185 . S
O46 Zn42 2.086 . S
C47 O43 1.278 . S
C47 O48 1.211 . S
O48 C47 1.211 . S
C49 O41 1.284 . S
C49 O50 1.273 . S
O50 C49 1.273 . S
O51 Zn42 1.977 . S
O51 C44 1.267 . S
C52 O53 1.160 . S
C52 O59 1.185 . S
O53 C52 1.160 . S
O54 Zn55 1.899 . S
O54 C62 1.284 . S
Zn55 O54 1.899 . S
Zn55 O56 2.032 . S
Zn55 O59 2.086 . S
Zn55 O64 1.977 . S
O56 Zn55 2.032 . S
O56 C60 1.278 . S
C57 O58 1.203 . S
C57 O64 1.267 . S
O58 C57 1.203 . S
O59 C52 1.185 . S
O59 Zn55 2.086 . S
C60 O56 1.278 . S
C60 O61 1.211 . S
O61 C60 1.211 . S
C62 O54 1.284 . S
C62 O63 1.273 . S
O63 C62 1.273 . S
O64 Zn55 1.977 . S
O64 C57 1.267 . S
C65 O66 1.160 . S
C65 O72 1.185 . S
O66 C65 1.160 . S
O67 Zn68 1.899 . S
O67 C75 1.284 . S
Zn68 O67 1.899 . S
Zn68 O69 2.032 . S
Zn68 O72 2.086 . S
Zn68 O77 1.977 . S
O69 Zn68 2.032 . S
O69 C73 1.278 . S
C70 O71 1.203 . S
C70 O77 1.267 . S
O71 C70 1.203 . S
O72 C65 1.185 . S
O72 Zn68 2.086 . S
C73 O69 1.278 . S
C73 O74 1.211 . S
O74 C73 1.211 . S
C75 O67 1.284 . S
C75 O76 1.273 . S
O76 C75 1.273 . S
O77 Zn68 1.977 . S
O77 C70 1.267 . S
C78 O79 1.160 . S
C78 O85 1.185 . S
O79 C78 1.160 . S
O80 Zn81 1.899 . S
O80 C88 1.284 . S
Zn81 O80 1.899 . S
Zn81 O82 2.032 . S
Zn81 O85 2.086 . S
Zn81 O90 1.977 . S
O82 Zn81 2.032 . S
O82 C86 1.278 . S
C83 O84 1.203 . S
C83 O90 1.267 . S
O84 C83 1.203 . S
O85 C78 1.185 . S
O85 Zn81 2.086 . S
C86 O82 1.278 . S
C86 O87 1.211 . S
O87 C86 1.211 . S
C88 O80 1.284 . S
C88 O89 1.273 . S
O89 C88 1.273 . S
O90 Zn81 1.977 . S
O90 C83 1.267 . S
C91 O92 1.160 . S
C91 O98 1.185 . S
O92 C91 1.160 . S
O93 Zn94 1.899 . S
O93 C101 1.284 . S
Zn94 O93 1.899 . S
Zn94 O95 2.032 . S
Zn94 O98 2.086 . S
Zn94 O103 1.977 . S
O95 Zn94 2.032 . S
O95 C99 1.278 . S
C96 O97 1.203 . S
C96 O103 1.267 . S
O97 C96 1.203 . S
O98 C91 1.185 . S
O98 Zn94 2.086 . S
C99 O95 1.278 . S
C99 O100 1.211 . S
O100 C99 1.211 . S
C101 O93 1.284 . S
C101 O102 1.273 . S
O102 C101 1.273 . S
O103 Zn94 1.977 . S
O103 C96 1.267 . S
C104 C105 1.386 1_655 S
C104 C106 1.383 . S
C104 H120 0.951 . S
C105 C104 1.386 1_455 S
C105 C109 1.383 . S
C106 C104 1.383 . S
C106 C107 1.402 1_655 S
C106 H121 0.951 . S
C107 C106 1.402 1_455 S
C107 C108 1.375 . S
C107 C110 1.481 . S
C108 C107 1.375 . S
C108 C109 1.367 . S
C108 H122 0.951 . S
C109 C105 1.383 . S
C109 C108 1.367 . S
C109 H123 0.950 . S
C110 C107 1.481 . S
C110 C111 1.297 . S
C110 H124 0.950 . S
C111 C110 1.297 . S
C111 C112 1.479 . S
C111 H125 0.950 1_455 S
C112 C111 1.479 . S
C112 C113 1.375 1_455 S
C112 C118 1.404 . S
C113 C112 1.375 1_655 S
C113 C114 1.369 . S
C113 H126 0.950 . S
C114 C113 1.369 . S
C114 C115 1.392 1_655 S
C114 H127 0.951 . S
C115 C114 1.392 1_455 S
C115 C117 1.384 . S
H116 C118 0.949 . S
C117 C115 1.384 . S
C117 C118 1.385 . S
C117 H119 0.950 . S
C118 C112 1.404 . S
C118 H116 0.949 . S
C118 C117 1.385 . S
H119 C117 0.950 . S
H120 C104 0.951 . S
H121 C106 0.951 . S
H122 C108 0.951 . S
H123 C109 0.950 . S
H124 C110 0.950 . S
H125 C111 0.950 1_655 S
H126 C113 0.950 . S
H127 C114 0.951 . S
C128 C129 1.386 . S
C128 C130 1.383 . S
C128 H144 0.951 . S
C129 C128 1.386 . S
C129 C133 1.383 1_455 S
C130 C128 1.383 . S
C130 C131 1.402 . S
C130 H145 0.951 . S
C131 C130 1.402 . S
C131 C132 1.375 1_455 S
C131 C134 1.481 . S
C132 C131 1.375 1_655 S
C132 C133 1.367 . S
C132 H146 0.951 . S
C133 C129 1.383 1_655 S
C133 C132 1.367 . S
C133 H147 0.950 . S
C134 C131 1.481 . S
C134 C135 1.297 . S
C134 H148 0.950 1_455 S
C135 C134 1.297 . S
C135 C136 1.479 . S
C135 H149 0.950 . S
C136 C135 1.479 . S
C136 C137 1.375 . S
C136 C142 1.404 1_455 S
C137 C136 1.375 . S
C137 C138 1.369 . S
C137 H150 0.950 . S
C138 C137 1.369 . S
C138 C139 1.392 . S
C138 H151 0.951 . S
C139 C138 1.392 . S
C139 C141 1.384 1_455 S
H140 C142 0.949 . S
C141 C139 1.384 1_655 S
C141 C142 1.385 . S
C141 H143 0.950 . S
C142 C136 1.404 1_655 S
C142 H140 0.949 . S
C142 C141 1.385 . S
H143 C141 0.950 . S
H144 C128 0.951 . S
H145 C130 0.951 . S
H146 C132 0.951 . S
H147 C133 0.950 . S
H148 C134 0.950 1_655 S
H149 C135 0.950 . S
H150 C137 0.950 . S
H151 C138 0.951 . S
C152 C153 1.386 . S
C152 C154 1.383 . S
C152 H168 0.951 . S
C153 C152 1.386 . S
C153 C157 1.383 . S
C154 C152 1.383 . S
C154 C155 1.402 . S
C154 H169 0.951 . S
C155 C154 1.402 . S
C155 C156 1.375 . S
C155 C158 1.481 . S
C156 C155 1.375 . S
C156 C157 1.367 . S
C156 H170 0.951 . S
C157 C153 1.383 . S
C157 C156 1.367 . S
C157 H171 0.950 . S
C158 C155 1.481 . S
C158 C159 1.297 . S
C158 H172 0.950 . S
C159 C158 1.297 . S
C159 C160 1.479 . S
C159 H173 0.950 . S
C160 C159 1.479 . S
C160 C161 1.375 . S
C160 C166 1.404 . S
C161 C160 1.375 . S
C161 C162 1.369 . S
C161 H174 0.950 . S
C162 C161 1.369 . S
C162 C163 1.392 . S
C162 H175 0.951 . S
C163 C162 1.392 . S
C163 C165 1.384 . S
H164 C166 0.949 . S
C165 C163 1.384 . S
C165 C166 1.385 . S
C165 H167 0.950 . S
C166 C160 1.404 . S
C166 H164 0.949 . S
C166 C165 1.385 . S
H167 C165 0.950 . S
H168 C152 0.951 . S
H169 C154 0.951 . S
H170 C156 0.951 . S
H171 C157 0.950 . S
H172 C158 0.950 . S
H173 C159 0.950 . S
H174 C161 0.950 . S
H175 C162 0.951 . S
C176 C177 1.386 . S
C176 C178 1.383 . S
C176 H192 0.951 . S
C177 C176 1.386 . S
C177 C181 1.383 . S
C178 C176 1.383 . S
C178 C179 1.402 . S
C178 H193 0.951 . S
C179 C178 1.402 . S
C179 C180 1.375 . S
C179 C182 1.481 . S
C180 C179 1.375 . S
C180 C181 1.367 . S
C180 H194 0.951 . S
C181 C177 1.383 . S
C181 C180 1.367 . S
C181 H195 0.950 . S
C182 C179 1.481 . S
C182 C183 1.297 . S
C182 H196 0.950 . S
C183 C182 1.297 . S
C183 C184 1.479 . S
C183 H197 0.950 . S
C184 C183 1.479 . S
C184 C185 1.375 . S
C184 C190 1.404 . S
C185 C184 1.375 . S
C185 C186 1.369 . S
C185 H198 0.950 . S
C186 C185 1.369 . S
C186 C187 1.392 . S
C186 H199 0.951 . S
C187 C186 1.392 . S
C187 C189 1.384 . S
H188 C190 0.949 . S
C189 C187 1.384 . S
C189 C190 1.385 . S
C189 H191 0.950 . S
C190 C184 1.404 . S
C190 H188 0.949 . S
C190 C189 1.385 . S
H191 C189 0.950 . S
H192 C176 0.951 . S
H193 C178 0.951 . S
H194 C180 0.951 . S
H195 C181 0.950 . S
H196 C182 0.950 . S
H197 C183 0.950 . S
H198 C185 0.950 . S
H199 C186 0.951 . S
C200 C201 1.386 . S
C200 C202 1.383 . S
C200 H216 0.951 . S
C201 C200 1.386 . S
C201 C205 1.383 . S
C202 C200 1.383 . S
C202 C203 1.402 . S
C202 H217 0.951 . S
C203 C202 1.402 . S
C203 C204 1.375 . S
C203 C206 1.481 . S
C204 C203 1.375 . S
C204 C205 1.367 . S
C204 H218 0.951 . S
C205 C201 1.383 . S
C205 C204 1.367 . S
C205 H219 0.950 . S
C206 C203 1.481 . S
C206 C207 1.297 . S
C206 H220 0.950 . S
C207 C206 1.297 . S
C207 C208 1.479 . S
C207 H221 0.950 . S
C208 C207 1.479 . S
C208 C209 1.375 . S
C208 C214 1.404 . S
C209 C208 1.375 . S
C209 C210 1.369 . S
C209 H222 0.950 . S
C210 C209 1.369 . S
C210 C211 1.392 . S
C210 H223 0.951 . S
C211 C210 1.392 . S
C211 C213 1.384 . S
H212 C214 0.949 . S
C213 C211 1.384 . S
C213 C214 1.385 . S
C213 H215 0.950 . S
C214 C208 1.404 . S
C214 H212 0.949 . S
C214 C213 1.385 . S
H215 C213 0.950 . S
H216 C200 0.951 . S
H217 C202 0.951 . S
H218 C204 0.951 . S
H219 C205 0.950 . S
H220 C206 0.950 . S
H221 C207 0.950 . S
H222 C209 0.950 . S
H223 C210 0.951 . S
C224 C225 1.386 . S
C224 C226 1.383 . S
C224 H240 0.951 . S
C225 C224 1.386 . S
C225 C229 1.383 . S
C226 C224 1.383 . S
C226 C227 1.402 . S
C226 H241 0.951 . S
C227 C226 1.402 . S
C227 C228 1.375 . S
C227 C230 1.481 . S
C228 C227 1.375 . S
C228 C229 1.367 . S
C228 H242 0.951 . S
C229 C225 1.383 . S
C229 C228 1.367 . S
C229 H243 0.950 . S
C230 C227 1.481 . S
C230 C231 1.297 . S
C230 H244 0.950 . S
C231 C230 1.297 . S
C231 C232 1.479 . S
C231 H245 0.950 . S
C232 C231 1.479 . S
C232 C233 1.375 . S
C232 C238 1.404 . S
C233 C232 1.375 . S
C233 C234 1.369 . S
C233 H246 0.950 . S
C234 C233 1.369 . S
C234 C235 1.392 . S
C234 H247 0.951 . S
C235 C234 1.392 . S
C235 C237 1.384 . S
H236 C238 0.949 . S
C237 C235 1.384 . S
C237 C238 1.385 . S
C237 H239 0.950 . S
C238 C232 1.404 . S
C238 H236 0.949 . S
C238 C237 1.385 . S
H239 C237 0.950 . S
H240 C224 0.951 . S
H241 C226 0.951 . S
H242 C228 0.951 . S
H243 C229 0.950 . S
H244 C230 0.950 . S
H245 C231 0.950 . S
H246 C233 0.950 . S
H247 C234 0.951 . S
C248 C249 1.386 . S
C248 C250 1.383 . S
C248 H264 0.951 . S
C249 C248 1.386 . S
C249 C253 1.383 . S
C250 C248 1.383 . S
C250 C251 1.402 . S
C250 H265 0.951 . S
C251 C250 1.402 . S
C251 C252 1.375 . S
C251 C254 1.481 . S
C252 C251 1.375 . S
C252 C253 1.367 . S
C252 H266 0.951 . S
C253 C249 1.383 . S
C253 C252 1.367 . S
C253 H267 0.950 . S
C254 C251 1.481 . S
C254 C255 1.297 . S
C254 H268 0.950 . S
C255 C254 1.297 . S
C255 C256 1.479 . S
C255 H269 0.950 . S
C256 C255 1.479 . S
C256 C257 1.375 . S
C256 C262 1.404 . S
C257 C256 1.375 . S
C257 C258 1.369 . S
C257 H270 0.950 . S
C258 C257 1.369 . S
C258 C259 1.392 . S
C258 H271 0.951 . S
C259 C258 1.392 . S
C259 C261 1.384 . S
H260 C262 0.949 . S
C261 C259 1.384 . S
C261 C262 1.385 . S
C261 H263 0.950 . S
C262 C256 1.404 . S
C262 H260 0.949 . S
C262 C261 1.385 . S
H263 C261 0.950 . S
H264 C248 0.951 . S
H265 C250 0.951 . S
H266 C252 0.951 . S
H267 C253 0.950 . S
H268 C254 0.950 . S
H269 C255 0.950 . S
H270 C257 0.950 . S
H271 C258 0.951 . S
C272 C273 1.386 . S
C272 C274 1.383 . S
C272 H288 0.951 . S
C273 C272 1.386 . S
C273 C277 1.383 . S
C274 C272 1.383 . S
C274 C275 1.402 . S
C274 H289 0.951 . S
C275 C274 1.402 . S
C275 C276 1.375 . S
C275 C278 1.481 . S
C276 C275 1.375 . S
C276 C277 1.367 . S
C276 H290 0.951 . S
C277 C273 1.383 . S
C277 C276 1.367 . S
C277 H291 0.950 . S
C278 C275 1.481 . S
C278 C279 1.297 . S
C278 H292 0.950 . S
C279 C278 1.297 . S
C279 C280 1.479 . S
C279 H293 0.950 . S
C280 C279 1.479 . S
C280 C281 1.375 . S
C280 C286 1.404 . S
C281 C280 1.375 . S
C281 C282 1.369 . S
C281 H294 0.950 . S
C282 C281 1.369 . S
C282 C283 1.392 . S
C282 H295 0.951 . S
C283 C282 1.392 . S
C283 C285 1.384 . S
H284 C286 0.949 . S
C285 C283 1.384 . S
C285 C286 1.385 . S
C285 H287 0.950 . S
C286 C280 1.404 . S
C286 H284 0.949 . S
C286 C285 1.385 . S
H287 C285 0.950 . S
H288 C272 0.951 . S
H289 C274 0.951 . S
H290 C276 0.951 . S
H291 C277 0.950 . S
H292 C278 0.950 . S
H293 C279 0.950 . S
H294 C281 0.950 . S
H295 C282 0.951 . S
C296 C297 1.386 . S
C296 C298 1.383 . S
C296 H312 0.951 . S
C297 C296 1.386 . S
C297 C301 1.383 . S
C298 C296 1.383 . S
C298 C299 1.402 . S
C298 H313 0.951 . S
C299 C298 1.402 . S
C299 C300 1.375 . S
C299 C302 1.481 . S
C300 C299 1.375 . S
C300 C301 1.367 . S
C300 H314 0.951 . S
C301 C297 1.383 . S
C301 C300 1.367 . S
C301 H315 0.950 . S
C302 C299 1.481 . S
C302 C303 1.297 . S
C302 H316 0.950 . S
C303 C302 1.297 . S
C303 C304 1.479 . S
C303 H317 0.950 . S
C304 C303 1.479 . S
C304 C305 1.375 . S
C304 C310 1.404 . S
C305 C304 1.375 . S
C305 C306 1.369 . S
C305 H318 0.950 . S
C306 C305 1.369 . S
C306 C307 1.392 . S
C306 H319 0.951 . S
C307 C306 1.392 . S
C307 C309 1.384 . S
H308 C310 0.949 . S
C309 C307 1.384 . S
C309 C310 1.385 . S
C309 H311 0.950 . S
C310 C304 1.404 . S
C310 H308 0.949 . S
C310 C309 1.385 . S
H311 C309 0.950 . S
H312 C296 0.951 . S
H313 C298 0.951 . S
H314 C300 0.951 . S
H315 C301 0.950 . S
H316 C302 0.950 . S
H317 C303 0.950 . S
H318 C305 0.950 . S
H319 C306 0.951 . S
C320 C321 1.386 . S
C320 C322 1.383 . S
C320 H336 0.951 . S
C321 C320 1.386 . S
C321 C325 1.383 . S
C322 C320 1.383 . S
C322 C323 1.402 . S
C322 H337 0.951 . S
C323 C322 1.402 . S
C323 C324 1.375 . S
C323 C326 1.481 . S
C324 C323 1.375 . S
C324 C325 1.367 . S
C324 H338 0.951 . S
C325 C321 1.383 . S
C325 C324 1.367 . S
C325 H339 0.950 . S
C326 C323 1.481 . S
C326 C327 1.297 . S
C326 H340 0.950 . S
C327 C326 1.297 . S
C327 C328 1.479 . S
C327 H341 0.950 . S
C328 C327 1.479 . S
C328 C329 1.375 . S
C328 C334 1.404 . S
C329 C328 1.375 . S
C329 C330 1.369 . S
C329 H342 0.950 . S
C330 C329 1.369 . S
C330 C331 1.392 . S
C330 H343 0.951 . S
C331 C330 1.392 . S
C331 C333 1.384 . S
H332 C334 0.949 . S
C333 C331 1.384 . S
C333 C334 1.385 . S
C333 H335 0.950 . S
C334 C328 1.404 . S
C334 H332 0.949 . S
C334 C333 1.385 . S
H335 C333 0.950 . S
H336 C320 0.951 . S
H337 C322 0.951 . S
H338 C324 0.951 . S
H339 C325 0.950 . S
H340 C326 0.950 . S
H341 C327 0.950 . S
H342 C329 0.950 . S
H343 C330 0.951 . S
C344 C345 1.386 . S
C344 C346 1.383 . S
C344 H360 0.951 . S
C345 C344 1.386 . S
C345 C349 1.383 . S
C346 C344 1.383 . S
C346 C347 1.402 . S
C346 H361 0.951 . S
C347 C346 1.402 . S
C347 C348 1.375 . S
C347 C350 1.481 . S
C348 C347 1.375 . S
C348 C349 1.367 . S
C348 H362 0.951 . S
C349 C345 1.383 . S
C349 C348 1.367 . S
C349 H363 0.950 . S
C350 C347 1.481 . S
C350 C351 1.297 . S
C350 H364 0.950 . S
C351 C350 1.297 . S
C351 C352 1.479 . S
C351 H365 0.950 . S
C352 C351 1.479 . S
C352 C353 1.375 . S
C352 C358 1.404 . S
C353 C352 1.375 . S
C353 C354 1.369 . S
C353 H366 0.950 . S
C354 C353 1.369 . S
C354 C355 1.392 . S
C354 H367 0.951 . S
C355 C354 1.392 . S
C355 C357 1.384 . S
H356 C358 0.949 . S
C357 C355 1.384 . S
C357 C358 1.385 . S
C357 H359 0.950 . S
C358 C352 1.404 . S
C358 H356 0.949 . S
C358 C357 1.385 . S
H359 C357 0.950 . S
H360 C344 0.951 . S
H361 C346 0.951 . S
H362 C348 0.951 . S
H363 C349 0.950 . S
H364 C350 0.950 . S
H365 C351 0.950 . S
H366 C353 0.950 . S
H367 C354 0.951 . S
C368 C369 1.386 . S
C368 C370 1.383 . S
C368 H384 0.951 . S
C369 C368 1.386 . S
C369 C373 1.383 . S
C370 C368 1.383 . S
C370 C371 1.402 . S
C370 H385 0.951 . S
C371 C370 1.402 . S
C371 C372 1.375 . S
C371 C374 1.481 . S
C372 C371 1.375 . S
C372 C373 1.367 . S
C372 H386 0.951 . S
C373 C369 1.383 . S
C373 C372 1.367 . S
C373 H387 0.950 . S
C374 C371 1.481 . S
C374 C375 1.297 . S
C374 H388 0.950 . S
C375 C374 1.297 . S
C375 C376 1.479 . S
C375 H389 0.950 . S
C376 C375 1.479 . S
C376 C377 1.375 . S
C376 C382 1.404 . S
C377 C376 1.375 . S
C377 C378 1.369 . S
C377 H390 0.950 . S
C378 C377 1.369 . S
C378 C379 1.392 . S
C378 H391 0.951 . S
C379 C378 1.392 . S
C379 C381 1.384 . S
H380 C382 0.949 . S
C381 C379 1.384 . S
C381 C382 1.385 . S
C381 H383 0.950 . S
C382 C376 1.404 . S
C382 H380 0.949 . S
C382 C381 1.385 . S
H383 C381 0.950 . S
H384 C368 0.951 . S
H385 C370 0.951 . S
H386 C372 0.951 . S
H387 C373 0.950 . S
H388 C374 0.950 . S
H389 C375 0.950 . S
H390 C377 0.950 . S
H391 C378 0.951 . S
C392 C393 1.386 . S
C392 C394 1.383 . S
C392 H408 0.951 . S
C393 C392 1.386 . S
C393 C397 1.383 1_455 S
C394 C392 1.383 . S
C394 C395 1.402 . S
C394 H409 0.951 . S
C395 C394 1.402 . S
C395 C396 1.375 1_455 S
C395 C398 1.481 1_545 S
C396 C395 1.375 1_655 S
C396 C397 1.367 . S
C396 H410 0.951 . S
C397 C393 1.383 1_655 S
C397 C396 1.367 . S
C397 H411 0.950 . S
C398 C395 1.481 1_565 S
C398 C399 1.297 1_554 S
C398 H412 0.950 1_455 S
C399 C398 1.297 1_556 S
C399 C400 1.479 . S
C399 H413 0.950 1_556 S
C400 C399 1.479 . S
C400 C401 1.375 . S
C400 C406 1.404 1_455 S
C401 C400 1.375 . S
C401 C402 1.369 . S
C401 H414 0.950 . S
C402 C401 1.369 . S
C402 C403 1.392 . S
C402 H415 0.951 . S
C403 C402 1.392 . S
C403 C405 1.384 1_455 S
H404 C406 0.949 . S
C405 C403 1.384 1_655 S
C405 C406 1.385 . S
C405 H407 0.950 . S
C406 C400 1.404 1_655 S
C406 H404 0.949 . S
C406 C405 1.385 . S
H407 C405 0.950 . S
H408 C392 0.951 . S
H409 C394 0.951 . S
H410 C396 0.951 . S
H411 C397 0.950 . S
H412 C398 0.950 1_655 S
H413 C399 0.950 1_554 S
H414 C401 0.950 . S
H415 C402 0.951 . S
C416 C417 1.386 1_655 S
C416 C418 1.383 . S
C416 H432 0.951 . S
C417 C416 1.386 1_455 S
C417 C421 1.383 . S
C418 C416 1.383 . S
C418 C419 1.402 1_655 S
C418 H433 0.951 . S
C419 C418 1.402 1_455 S
C419 C420 1.375 . S
C419 C422 1.481 . S
C420 C419 1.375 . S
C420 C421 1.367 . S
C420 H434 0.951 . S
C421 C417 1.383 . S
C421 C420 1.367 . S
C421 H435 0.950 . S
C422 C419 1.481 . S
C422 C423 1.297 1_456 S
C422 H436 0.950 . S
C423 C422 1.297 1_654 S
C423 C424 1.479 . S
C423 H437 0.950 1_554 S
C424 C423 1.479 . S
C424 C425 1.375 . S
C424 C430 1.404 1_655 S
C425 C424 1.375 . S
C425 C426 1.369 . S
C425 H438 0.950 . S
C426 C425 1.369 . S
C426 C427 1.392 1_655 S
C426 H439 0.951 . S
C427 C426 1.392 1_455 S
C427 C429 1.384 . S
H428 C430 0.949 . S
C429 C427 1.384 . S
C429 C430 1.385 . S
C429 H431 0.950 . S
C430 C424 1.404 1_455 S
C430 H428 0.949 . S
C430 C429 1.385 . S
H431 C429 0.950 . S
H432 C416 0.951 . S
H433 C418 0.951 . S
H434 C420 0.951 . S
H435 C421 0.950 . S
H436 C422 0.950 . S
H437 C423 0.950 1_556 S
H438 C425 0.950 . S
H439 C426 0.951 . S
C440 C441 1.386 . S
C440 C442 1.383 . S
C440 H456 0.951 . S
C441 C440 1.386 . S
C441 C445 1.383 . S
C442 C440 1.383 . S
C442 C443 1.402 . S
C442 H457 0.951 . S
C443 C442 1.402 . S
C443 C444 1.375 . S
C443 C446 1.481 . S
C444 C443 1.375 . S
C444 C445 1.367 . S
C444 H458 0.951 . S
C445 C441 1.383 . S
C445 C444 1.367 . S
C445 H459 0.950 . S
C446 C443 1.481 . S
C446 C447 1.297 . S
C446 H460 0.950 . S
C447 C446 1.297 . S
C447 C448 1.479 . S
C447 H461 0.950 . S
C448 C447 1.479 . S
C448 C449 1.375 . S
C448 C454 1.404 . S
C449 C448 1.375 . S
C449 C450 1.369 . S
C449 H462 0.950 . S
C450 C449 1.369 . S
C450 C451 1.392 . S
C450 H463 0.951 . S
C451 C450 1.392 . S
C451 C453 1.384 . S
H452 C454 0.949 . S
C453 C451 1.384 . S
C453 C454 1.385 . S
C453 H455 0.950 . S
C454 C448 1.404 . S
C454 H452 0.949 . S
C454 C453 1.385 . S
H455 C453 0.950 . S
H456 C440 0.951 . S
H457 C442 0.951 . S
H458 C444 0.951 . S
H459 C445 0.950 . S
H460 C446 0.950 . S
H461 C447 0.950 . S
H462 C449 0.950 . S
H463 C450 0.951 . S
C464 C465 1.386 . S
C464 C466 1.383 . S
C464 H480 0.951 . S
C465 C464 1.386 . S
C465 C469 1.383 . S
C466 C464 1.383 . S
C466 C467 1.402 . S
C466 H481 0.951 . S
C467 C466 1.402 . S
C467 C468 1.375 . S
C467 C470 1.481 1_565 S
C468 C467 1.375 . S
C468 C469 1.367 . S
C468 H482 0.951 . S
C469 C465 1.383 . S
C469 C468 1.367 . S
C469 H483 0.950 . S
C470 C467 1.481 1_545 S
C470 C471 1.297 . S
C470 H484 0.950 . S
C471 C470 1.297 . S
C471 C472 1.479 . S
C471 H485 0.950 . S
C472 C471 1.479 . S
C472 C473 1.375 . S
C472 C478 1.404 . S
C473 C472 1.375 . S
C473 C474 1.369 . S
C473 H486 0.950 . S
C474 C473 1.369 . S
C474 C475 1.392 . S
C474 H487 0.951 . S
C475 C474 1.392 . S
C475 C477 1.384 . S
H476 C478 0.949 . S
C477 C475 1.384 . S
C477 C478 1.385 . S
C477 H479 0.950 . S
C478 C472 1.404 . S
C478 H476 0.949 . S
C478 C477 1.385 . S
H479 C477 0.950 . S
H480 C464 0.951 . S
H481 C466 0.951 . S
H482 C468 0.951 . S
H483 C469 0.950 . S
H484 C470 0.950 . S
H485 C471 0.950 . S
H486 C473 0.950 . S
H487 C474 0.951 . S
C105 C18 1.413 . S
C115 C5 1.439 . S
C129 C31 1.424 . S
C139 C44 1.424 . S
C153 C57 1.425 . S
C163 C70 1.422 . S
C177 C83 1.378 . S
C187 C96 1.381 . S
C201 C99 1.289 . S
C211 C8 1.235 . S
C225 C86 1.269 . S
C235 C21 1.315 . S
C249 C34 1.293 . S
C259 C73 1.329 . S
C273 C60 1.243 . S
C283 C47 1.209 . S
C297 C75 1.403 . S
C307 C36 1.426 . S
C321 C62 1.419 . S
C331 C49 1.399 . S
C345 C101 1.427 . S
C355 C10 1.386 . S
C369 C23 1.407 . S
C379 C88 1.422 . S
C393 C0 1.203 . S
C403 C26 1.244 . S
C417 C39 1.204 . S
C427 C13 1.244 . S
C441 C78 1.201 . S
C451 C52 1.228 . S
C465 C65 1.209 . S
C475 C91 1.254 . S
