# Generated by pormake.
# Topology dmp, (4)-cn, num edge types: 1
# Building blocks:
#     Node 0, Type 0, BuildingBlock: QUQFOY_clean_sbu_3, # of connection points: 4
#     Node 1, Type 0, BuildingBlock: QUQFOY_clean_sbu_3, # of connection points: 4
#     Node 2, Type 0, BuildingBlock: QUQFOY_clean_sbu_3, # of connection points: 4
#     Node 3, Type 0, BuildingBlock: QUQFOY_clean_sbu_3, # of connection points: 4
#     Edge 4, Type (0, 0), BuildingBlock: ZUJKAS_clean_linker_0, # of connection points: 2
#     Edge 5, Type (0, 0), BuildingBlock: ZUJKAS_clean_linker_0, # of connection points: 2
#     Edge 6, Type (0, 0), BuildingBlock: ZUJKAS_clean_linker_0, # of connection points: 2
#     Edge 7, Type (0, 0), BuildingBlock: ZUJKAS_clean_linker_0, # of connection points: 2
#     Edge 8, Type (0, 0), BuildingBlock: ZUJKAS_clean_linker_0, # of connection points: 2
#     Edge 9, Type (0, 0), BuildingBlock: ZUJKAS_clean_linker_0, # of connection points: 2
#     Edge 10, Type (0, 0), BuildingBlock: ZUJKAS_clean_linker_0, # of connection points: 2
#     Edge 11, Type (0, 0), BuildingBlock: ZUJKAS_clean_linker_0, # of connection points: 2
# Relax obj value: 0.085
# Max RMSD: 0.188
# Mean RMSD: 0.188
data_MOF--net-dmp--node1-QUQFOY_clean_sbu_3--edge1-ZUJKAS_clean_linker_0
_symmetry_space_group_name_H-M    P1
_symmetry_Int_Tables_number       1
_symmetry_cell_setting            triclinic
loop_
_symmetry_equiv_pos_as_xyz
'x, y, z'
_cell_length_a     54.085639
_cell_length_b     25.578693
_cell_length_c     20.552151
_cell_angle_alpha  90.182477
_cell_angle_beta   93.690922
_cell_angle_gamma 90.009448
loop_
_atom_site_label
_atom_site_type_symbol
_atom_site_fract_x
_atom_site_fract_y
_atom_site_fract_z
_atom_type_partial_charge
C0 C 0.06294 0.18413 0.09424 0.0
O1 O 0.08043 0.19553 0.05845 0.0
Cd2 Cd 0.11703 0.24224 0.09688 0.0
O3 O 0.06274 0.20253 0.15196 0.0
Cd4 Cd 0.08726 0.26374 0.22564 0.0
C5 C 0.13164 0.17107 0.23815 0.0
O6 O 0.107 0.32198 0.14875 0.0
O7 O 0.12249 0.32 0.24823 0.0
O8 O 0.05093 0.31746 0.24162 0.0
C9 C 0.12301 0.33918 0.19156 0.0
O10 O 0.13564 0.18458 0.18012 0.0
C11 C 0.05194 0.31386 0.30333 0.0
O12 O 0.11417 0.19186 0.26826 0.0
O13 O 0.06902 0.28515 0.32944 0.0
C14 C 0.39401 0.68265 0.39998 0.0
O15 O 0.37667 0.69257 0.43691 0.0
Cd16 Cd 0.33898 0.73543 0.39957 0.0
O17 O 0.39332 0.70112 0.34233 0.0
Cd18 Cd 0.36664 0.76074 0.27189 0.0
C19 C 0.32494 0.66342 0.25866 0.0
O20 O 0.3459 0.8177 0.34949 0.0
O21 O 0.32929 0.81074 0.25142 0.0
O22 O 0.40123 0.81873 0.25279 0.0
C23 C 0.32902 0.83183 0.30724 0.0
O24 O 0.32092 0.67575 0.31717 0.0
C25 C 0.39948 0.81473 0.19107 0.0
O26 O 0.34161 0.68662 0.22834 0.0
O27 O 0.38284 0.7841 0.16654 0.0
C28 C 0.89158 0.77833 0.88416 0.0
O29 O 0.87436 0.76718 0.92083 0.0
Cd30 Cd 0.83718 0.72442 0.87974 0.0
O31 O 0.89094 0.76077 0.82595 0.0
Cd32 Cd 0.86472 0.70052 0.75473 0.0
C33 C 0.82291 0.79682 0.74008 0.0
O34 O 0.84423 0.6415 0.83014 0.0
O35 O 0.82692 0.65187 0.73327 0.0
O36 O 0.89953 0.6425 0.73831 0.0
C37 C 0.82731 0.62823 0.78742 0.0
O38 O 0.81884 0.78441 0.79842 0.0
C39 C 0.89846 0.64572 0.67658 0.0
O40 O 0.83973 0.77391 0.70988 0.0
O41 O 0.88201 0.67597 0.65054 0.0
C42 C 0.56565 0.27424 0.59817 0.0
O43 O 0.58406 0.26396 0.56486 0.0
Cd44 Cd 0.61759 0.20481 0.59562 0.0
O45 O 0.56304 0.25103 0.65214 0.0
Cd46 Cd 0.58485 0.18354 0.72128 0.0
C47 C 0.6359 0.25969 0.74459 0.0
O48 O 0.60132 0.12678 0.63714 0.0
O49 O 0.61521 0.11446 0.73674 0.0
O50 O 0.54615 0.13791 0.73824 0.0
C51 C 0.61537 0.10113 0.67736 0.0
O52 O 0.64067 0.24616 0.68705 0.0
C53 C 0.54842 0.13946 0.80012 0.0
O54 O 0.61558 0.24714 0.76878 0.0
O55 O 0.56716 0.16374 0.82561 0.0
H56 H 0.32127 0.88196 0.42326 0.0
H57 H 0.28526 0.9359 0.44788 0.0
H58 H 0.25384 0.9116 0.25198 0.0
H59 H 0.28927 0.85849 0.22708 0.0
H60 H 0.26702 0.02905 0.37905 0.0
H61 H 0.1972 0.87106 0.36845 0.0
H62 H 0.23005 0.85857 0.38149 0.0
H63 H 0.21634 0.86872 0.30033 0.0
C64 C 0.30663 0.88818 0.38561 0.0
C65 C 0.30808 0.86577 0.32332 0.0
C66 C 0.2861 0.9188 0.39979 0.0
C67 C 0.26667 0.92668 0.35215 0.0
C68 C 0.26834 0.90495 0.28991 0.0
H69 H 0.1583 0.09791 0.17802 0.0
H70 H 0.18899 0.03791 0.22704 0.0
C71 C 0.28876 0.87487 0.27565 0.0
C72 C 0.24492 0.9595 0.36468 0.0
H73 H 0.18194 0.95816 0.33981 0.0
C74 C 0.24835 0.01354 0.37298 0.0
C75 C 0.2206 0.93905 0.35718 0.0
C76 C 0.2158 0.88106 0.35205 0.0
C77 C 0.22812 0.04808 0.36706 0.0
C78 C 0.20406 0.02781 0.35277 0.0
C79 C 0.20045 0.97355 0.35064 0.0
C80 C 0.18375 0.06174 0.32622 0.0
C81 C 0.23273 0.1062 0.37009 0.0
C82 C 0.17025 0.09427 0.36614 0.0
C83 C 0.15238 0.12868 0.33809 0.0
C84 C 0.14814 0.13122 0.26987 0.0
C85 C 0.16126 0.09729 0.23066 0.0
C86 C 0.17876 0.06283 0.25856 0.0
H87 H 0.2524 0.1157 0.38421 0.0
H88 H 0.22768 0.1238 0.32172 0.0
H89 H 0.22083 0.12447 0.40586 0.0
H90 H 0.17388 0.09376 0.41858 0.0
H91 H 0.1426 0.1545 0.36945 0.0
H92 H 0.15866 0.38009 0.27556 0.0
H93 H 0.19469 0.43128 0.25009 0.0
H94 H 0.17091 0.42758 0.04586 0.0
H95 H 0.13438 0.37562 0.07098 0.0
H96 H 0.23134 0.39493 0.15096 0.0
H97 H 0.18601 0.58812 0.10303 0.0
H98 H 0.17199 0.54063 0.15408 0.0
H99 H 0.17262 0.52886 0.06822 0.0
C100 C 0.16089 0.39029 0.22516 0.0
C101 C 0.14367 0.37367 0.17524 0.0
C102 C 0.18155 0.41948 0.21073 0.0
C103 C 0.18544 0.43296 0.1462 0.0
C104 C 0.16812 0.41753 0.09601 0.0
H105 H 0.31035 0.65393 0.12852 0.0
H106 H 0.27895 0.59314 0.07978 0.0
C107 C 0.1473 0.38802 0.11046 0.0
C108 C 0.2081 0.4624 0.1332 0.0
H109 H 0.22927 0.58765 0.12523 0.0
C110 C 0.23097 0.43688 0.1433 0.0
C111 C 0.2075 0.51692 0.12266 0.0
C112 C 0.18328 0.54566 0.11128 0.0
C113 C 0.25321 0.46518 0.14859 0.0
C114 C 0.25244 0.5203 0.14466 0.0
C115 C 0.22979 0.54533 0.12834 0.0
C116 C 0.27363 0.55263 0.17006 0.0
C117 C 0.27723 0.43616 0.16239 0.0
C118 C 0.28103 0.54962 0.23658 0.0
C119 C 0.29853 0.58433 0.26438 0.0
C120 C 0.30915 0.62271 0.2262 0.0
C121 C 0.30258 0.62439 0.15889 0.0
C122 C 0.28465 0.58991 0.1311 0.0
H123 H 0.27609 0.3958 0.14226 0.0
H124 H 0.29293 0.45686 0.14152 0.0
H125 H 0.28114 0.43321 0.21593 0.0
H126 H 0.27243 0.5218 0.26776 0.0
H127 H 0.30325 0.58203 0.31633 0.0
H128 H 0.637 0.09857 0.56029 0.0
H129 H 0.67346 0.04689 0.53394 0.0
H130 H 0.6735 0.97157 0.72133 0.0
H131 H 0.63762 0.02338 0.74828 0.0
H132 H 0.72034 0.05043 0.62316 0.0
H133 H 0.68204 0.85113 0.58169 0.0
H134 H 0.6636 0.90967 0.56914 0.0
H135 H 0.67033 0.88496 0.6501 0.0
C136 C 0.64449 0.07009 0.59511 0.0
C137 C 0.63454 0.06487 0.65633 0.0
C138 C 0.66531 0.04083 0.58011 0.0
C139 C 0.67597 0.00521 0.62552 0.0
C140 C 0.66533 -0.0016 0.68534 0.0
H141 H 0.80133 0.87961 0.79595 0.0
H142 H 0.76859 0.93544 0.74767 0.0
C143 C 0.6449 0.02811 0.70075 0.0
C144 C 0.69961 -0.02143 0.61461 0.0
H145 H 0.7253 0.85683 0.61683 0.0
C146 C 0.72149 0.00818 0.61976 0.0
C147 C 0.70101 0.92359 0.60972 0.0
C148 C 0.67798 0.89037 0.60175 0.0
C149 C 0.74477 -0.01622 0.62604 0.0
C150 C 0.74605 0.9286 0.62729 0.0
C151 C 0.72427 0.89918 0.61608 0.0
C152 C 0.76883 0.90091 0.65146 0.0
C153 C 0.76773 0.01712 0.63497 0.0
C154 C 0.78011 0.8634 0.61305 0.0
C155 C 0.79914 0.83163 0.64054 0.0
C156 C 0.80659 0.8362 0.70714 0.0
C157 C 0.79592 0.87522 0.74453 0.0
C158 C 0.77732 0.90738 0.71689 0.0
H159 H 0.76471 0.05637 0.61284 0.0
H160 H 0.77252 0.02266 0.68788 0.0
H161 H 0.78371 -0.00185 0.61306 0.0
H162 H 0.77359 0.85749 0.56262 0.0
H163 H 0.80692 0.80151 0.61085 0.0
H164 H 0.82532 0.56083 0.89111 0.0
H165 H 0.79354 0.49394 0.90689 0.0
H166 H 0.75331 0.54395 0.73005 0.0
H167 H 0.78487 0.60956 0.71334 0.0
H168 H 0.73986 0.49983 0.91373 0.0
H169 H 0.76796 0.38804 0.69922 0.0
H170 H 0.78705 0.43877 0.73752 0.0
H171 H 0.7614 0.45543 0.68129 0.0
C172 C 0.80962 0.55759 0.85586 0.0
C173 C 0.80779 0.58988 0.80048 0.0
C174 C 0.79148 0.51958 0.86505 0.0
C175 C 0.77133 0.51357 0.81905 0.0
C176 C 0.76896 0.54735 0.76546 0.0
H177 H 0.63102 0.35819 0.79307 0.0
H178 H 0.66519 0.41743 0.82689 0.0
C179 C 0.78706 0.58483 0.75601 0.0
C180 C 0.75326 0.47052 0.82418 0.0
H181 H 0.72869 0.36681 0.73821 0.0
C182 C 0.73757 0.47015 0.87602 0.0
C183 C 0.7506 0.43147 0.77545 0.0
C184 C 0.76781 0.42799 0.72057 0.0
C185 C 0.7185 0.43288 0.87871 0.0
C186 C 0.7149 0.39581 0.82767 0.0
C187 C 0.7313 0.3952 0.77738 0.0
C188 C 0.69382 0.35842 0.82268 0.0
C189 C 0.70244 0.43368 0.936 0.0
C190 C 0.69838 0.30538 0.81023 0.0
C191 C 0.67901 0.27213 0.78938 0.0
C192 C 0.65465 0.29096 0.78207 0.0
C193 C 0.64967 0.34275 0.7996 0.0
C194 C 0.66919 0.3765 0.81917 0.0
H195 H 0.71241 0.45116 0.97975 0.0
H196 H 0.68581 0.458 0.9237 0.0
H197 H 0.69623 0.39373 0.94827 0.0
H198 H 0.71717 0.29049 0.81251 0.0
H199 H 0.68322 0.23234 0.7756 0.0
H200 H 0.05764 0.13751 0.97403 0.0
H201 H 0.02824 0.06922 0.93788 0.0
H202 H -0.00406 0.07453 0.1242 0.0
H203 H 0.02503 0.14339 0.16061 0.0
H204 H 0.02362 0.97135 -0.00624 0.0
H205 H 0.93522 0.08128 -0.00398 0.0
H206 H 0.96502 0.11332 -0.00113 0.0
H207 H 0.95393 0.08473 0.07131 0.0
C208 C 0.04408 0.12474 0.00712 0.0
C209 C 0.04369 0.14611 0.07025 0.0
C210 C 0.02733 0.08556 0.98638 0.0
C211 C 0.00976 0.06712 0.02809 0.0
C212 C 0.00904 0.08886 0.09074 0.0
H213 H 0.89824 0.8236 0.00484 0.0
H214 H 0.92816 0.89112 0.04005 0.0
C215 C 0.02576 0.12813 0.11156 0.0
C216 C -0.00696 0.02338 0.00713 0.0
H217 H 0.93213 -0.01078 0.98234 0.0
C218 C 0.00361 -0.02471 -0.00911 0.0
C219 C 0.96696 0.02861 0.00359 0.0
C220 C 0.95456 0.07988 0.01778 0.0
C221 C -0.01122 0.93198 0.97236 0.0
C222 C 0.9627 0.93718 0.96906 0.0
C223 C 0.95214 -0.01471 0.98515 0.0
C224 C 0.94593 0.89336 0.94881 0.0
C225 C 0.00113 0.88073 0.95789 0.0
C226 C 0.94615 0.87183 0.88593 0.0
C227 C 0.92909 0.83303 0.86559 0.0
C228 C 0.91137 0.81531 0.90765 0.0
C229 C 0.91161 0.83622 0.97113 0.0
C230 C 0.92866 0.87495 -0.00864 0.0
H231 H 0.02062 0.87953 0.97858 0.0
H232 H -0.00912 0.84736 0.97769 0.0
H233 H 0.0013 0.87556 0.9043 0.0
H234 H 0.95904 0.8861 0.8519 0.0
H235 H 0.92935 0.81806 0.81629 0.0
H236 H 0.54943 0.13294 0.9333 0.0
H237 H 0.5232 0.07847 -0.00151 0.0
H238 H 0.48216 0.0267 0.82328 0.0
H239 H 0.50833 0.08066 0.75772 0.0
H240 H 0.47048 0.07664 0.00619 0.0
H241 H 0.5066 0.88964 0.91193 0.0
H242 H 0.52201 0.95144 0.9019 0.0
H243 H 0.495 0.9348 0.85051 0.0
C244 C 0.53469 0.11031 0.90866 0.0
C245 C 0.53107 0.11089 0.84027 0.0
C246 C 0.51974 0.07917 0.94598 0.0
C247 C 0.50105 0.04784 0.91559 0.0
C248 C 0.4968 0.04981 0.84758 0.0
H249 H 0.39786 0.81991 0.05767 0.0
H250 H 0.42225 0.87695 -0.00927 0.0
C251 C 0.51169 0.08096 0.81024 0.0
C252 C 0.48622 0.01253 0.95495 0.0
H253 H 0.47329 0.88377 0.98073 0.0
C254 C 0.47112 0.03447 0.00082 0.0
C255 C 0.48708 0.95753 0.94765 0.0
C256 C 0.50368 0.93174 0.90077 0.0
C257 C 0.45653 0.0029 0.03902 0.0
C258 C 0.45751 0.94785 0.03206 0.0
C259 C 0.47256 0.92594 0.98596 0.0
C260 C 0.44324 0.91231 0.07262 0.0
C261 C 0.43982 0.02883 0.08551 0.0
C262 C 0.44737 0.91232 0.14073 0.0
C263 C 0.43348 0.87986 0.17904 0.0
C264 C 0.41529 0.84638 0.14996 0.0
C265 C 0.41169 0.84529 0.08158 0.0
C266 C 0.42559 0.87789 0.04327 0.0
H267 H 0.4361 0.07031 0.07229 0.0
H268 H 0.42186 0.00788 0.08643 0.0
H269 H 0.44894 0.02814 0.13544 0.0
H270 H 0.46131 0.93762 0.16433 0.0
H271 H 0.43684 0.88144 0.23154 0.0
H272 H 0.89921 0.64034 0.54336 0.0
H273 H 0.92501 0.58355 0.4794 0.0
H274 H 0.96024 0.52141 0.65678 0.0
H275 H 0.93483 0.57834 0.72096 0.0
H276 H -0.00642 0.54624 0.56343 0.0
H277 H 0.91589 0.42527 0.45623 0.0
H278 H 0.91232 0.49436 0.44343 0.0
H279 H 0.91256 0.46852 0.52469 0.0
C280 C 0.91252 0.61474 0.56873 0.0
C281 C 0.91488 0.61373 0.63727 0.0
C282 C 0.92712 0.58203 0.53212 0.0
C283 C 0.94423 0.54756 0.56335 0.0
C284 C 0.94705 0.54745 0.63168 0.0
H285 H 0.05073 0.31783 0.43649 0.0
H286 H 0.02434 0.37314 0.50062 0.0
C287 C 0.93249 0.58006 0.66828 0.0
C288 C 0.95937 0.51173 0.5251 0.0
H289 H 0.95547 0.40995 0.41681 0.0
C290 C -0.01473 0.51631 0.53153 0.0
C291 C 0.94847 0.47266 0.48359 0.0
C292 C 0.9208 0.46441 0.47682 0.0
C293 C 0.00058 0.48355 0.49666 0.0
C294 C -0.01031 0.44445 0.45516 0.0
C295 C 0.96378 0.43986 0.44874 0.0
C296 C 0.00486 0.40877 0.41679 0.0
C297 C 0.02825 0.49196 0.50332 0.0
C298 C 0.00204 0.40895 0.34846 0.0
C299 C 0.01692 0.37713 0.31176 0.0
C300 C 0.03489 0.34423 0.34266 0.0
C301 C 0.03716 0.34288 0.41119 0.0
C302 C 0.02222 0.37476 0.44791 0.0
H303 H 0.03311 0.53118 0.52371 0.0
H304 H 0.03678 0.46217 0.53687 0.0
H305 H 0.03648 0.48775 0.45546 0.0
H306 H -0.01134 0.43463 0.32344 0.0
H307 H 0.01464 0.37906 0.25908 0.0
H308 H 0.43283 0.64707 0.33225 0.0
H309 H 0.46274 0.57875 0.3654 0.0
H310 H 0.43019 0.56586 0.55068 0.0
H311 H 0.40017 0.63369 0.51813 0.0
H312 H 0.4977 0.57154 0.47698 0.0
H313 H 0.42598 0.41594 0.47412 0.0
H314 H 0.42054 0.47862 0.43567 0.0
H315 H 0.41956 0.47235 0.52253 0.0
C316 C 0.43216 0.63008 0.38031 0.0
C317 C 0.41393 0.64565 0.42229 0.0
C318 C 0.44926 0.591 0.39911 0.0
C319 C 0.44835 0.5666 0.45996 0.0
C320 C 0.43088 0.58349 0.50298 0.0
H321 H 0.52621 0.31237 0.661 0.0
H322 H 0.49827 0.38357 0.62619 0.0
C323 C 0.41382 0.62255 0.48436 0.0
C324 C 0.46533 0.52275 0.47814 0.0
H325 H 0.46627 0.39287 0.51638 0.0
C326 C 0.49089 0.53239 0.4853 0.0
C327 C 0.45634 0.47176 0.48894 0.0
C328 C 0.42913 0.45871 0.47943 0.0
C329 C 0.5077 0.49261 0.50458 0.0
C330 C 0.4987 0.44161 0.51562 0.0
C331 C 0.47313 0.43197 0.50801 0.0
C332 C 0.51547 0.39777 0.53571 0.0
C333 C 0.53487 0.50591 0.51467 0.0
C334 C 0.53408 0.38133 0.49574 0.0
C335 C 0.55013 0.3407 0.51553 0.0
C336 C 0.54775 0.31534 0.57551 0.0
C337 C 0.52863 0.33102 0.6146 0.0
C338 C 0.51264 0.37177 0.59482 0.0
H339 H 0.53786 0.54864 0.52105 0.0
H340 H 0.5435 0.48548 0.55799 0.0
H341 H 0.54452 0.49323 0.47128 0.0
H342 H 0.53621 0.39995 0.44919 0.0
H343 H 0.5645 0.32945 0.48394 0.0
loop_
_geom_bond_atom_site_label_1
_geom_bond_atom_site_label_2
_geom_bond_distance
_geom_bond_site_symmetry_2
_ccdc_geom_bond_type
C0 O1 1.306 . S
C0 O3 1.160 . S
O1 C0 1.306 . S
O1 Cd2 2.228 . S
Cd2 O1 2.228 . S
Cd2 O6 2.273 . S
Cd2 O10 2.277 . S
O3 C0 1.160 . S
O3 Cd4 2.203 . S
Cd4 O3 2.203 . S
Cd4 O6 2.411 . S
Cd4 O7 2.333 . S
Cd4 O8 2.352 . S
Cd4 O12 2.277 . S
Cd4 O13 2.356 . S
C5 O10 1.209 . S
C5 O12 1.226 . S
O6 Cd2 2.273 . S
O6 Cd4 2.411 . S
O6 C9 1.320 . S
O7 Cd4 2.333 . S
O7 C9 1.214 . S
O8 Cd4 2.352 . S
O8 C11 1.258 . S
C9 O6 1.320 . S
C9 O7 1.214 . S
O10 Cd2 2.277 . S
O10 C5 1.209 . S
C11 O8 1.258 . S
C11 O13 1.282 . S
O12 Cd4 2.277 . S
O12 C5 1.226 . S
O13 Cd4 2.356 . S
O13 C11 1.282 . S
C14 O15 1.306 . S
C14 O17 1.160 . S
O15 C14 1.306 . S
O15 Cd16 2.228 . S
Cd16 O15 2.228 . S
Cd16 O20 2.273 . S
Cd16 O24 2.277 . S
O17 C14 1.160 . S
O17 Cd18 2.203 . S
Cd18 O17 2.203 . S
Cd18 O20 2.411 . S
Cd18 O21 2.333 . S
Cd18 O22 2.352 . S
Cd18 O26 2.277 . S
Cd18 O27 2.356 . S
C19 O24 1.209 . S
C19 O26 1.226 . S
O20 Cd16 2.273 . S
O20 Cd18 2.411 . S
O20 C23 1.320 . S
O21 Cd18 2.333 . S
O21 C23 1.214 . S
O22 Cd18 2.352 . S
O22 C25 1.258 . S
C23 O20 1.320 . S
C23 O21 1.214 . S
O24 Cd16 2.277 . S
O24 C19 1.209 . S
C25 O22 1.258 . S
C25 O27 1.282 . S
O26 Cd18 2.277 . S
O26 C19 1.226 . S
O27 Cd18 2.356 . S
O27 C25 1.282 . S
C28 O29 1.306 . S
C28 O31 1.160 . S
O29 C28 1.306 . S
O29 Cd30 2.228 . S
Cd30 O29 2.228 . S
Cd30 O34 2.273 . S
Cd30 O38 2.277 . S
O31 C28 1.160 . S
O31 Cd32 2.203 . S
Cd32 O31 2.203 . S
Cd32 O34 2.411 . S
Cd32 O35 2.333 . S
Cd32 O36 2.352 . S
Cd32 O40 2.277 . S
Cd32 O41 2.356 . S
C33 O38 1.209 . S
C33 O40 1.226 . S
O34 Cd30 2.273 . S
O34 Cd32 2.411 . S
O34 C37 1.320 . S
O35 Cd32 2.333 . S
O35 C37 1.214 . S
O36 Cd32 2.352 . S
O36 C39 1.258 . S
C37 O34 1.320 . S
C37 O35 1.214 . S
O38 Cd30 2.277 . S
O38 C33 1.209 . S
C39 O36 1.258 . S
C39 O41 1.282 . S
O40 Cd32 2.277 . S
O40 C33 1.226 . S
O41 Cd32 2.356 . S
O41 C39 1.282 . S
C42 O43 1.306 . S
C42 O45 1.160 . S
O43 C42 1.306 . S
O43 Cd44 2.228 . S
Cd44 O43 2.228 . S
Cd44 O48 2.273 . S
Cd44 O52 2.277 . S
O45 C42 1.160 . S
O45 Cd46 2.203 . S
Cd46 O45 2.203 . S
Cd46 O48 2.411 . S
Cd46 O49 2.333 . S
Cd46 O50 2.352 . S
Cd46 O54 2.277 . S
Cd46 O55 2.356 . S
C47 O52 1.209 . S
C47 O54 1.226 . S
O48 Cd44 2.273 . S
O48 Cd46 2.411 . S
O48 C51 1.320 . S
O49 Cd46 2.333 . S
O49 C51 1.214 . S
O50 Cd46 2.352 . S
O50 C53 1.258 . S
C51 O48 1.320 . S
C51 O49 1.214 . S
O52 Cd44 2.277 . S
O52 C47 1.209 . S
C53 O50 1.258 . S
C53 O55 1.282 . S
O54 Cd46 2.277 . S
O54 C47 1.226 . S
O55 Cd46 2.356 . S
O55 C53 1.282 . S
H56 C64 0.929 . S
H57 C66 0.930 . S
H58 C68 0.930 . S
H59 C71 0.929 . S
H60 C74 0.930 . S
H61 C76 0.960 . S
H62 C76 0.960 . S
H63 C76 0.960 . S
C64 H56 0.929 . S
C64 C65 1.377 . S
C64 C66 1.384 . S
C65 C64 1.377 . S
C65 C71 1.390 . S
C66 H57 0.930 . S
C66 C64 1.384 . S
C66 C67 1.372 . S
C67 C66 1.372 . S
C67 C68 1.400 . S
C67 C72 1.490 . S
C68 H58 0.930 . S
C68 C67 1.400 . S
C68 C71 1.386 . S
H69 C85 0.930 . S
H70 C86 0.931 . S
C71 H59 0.929 . S
C71 C65 1.390 . S
C71 C68 1.386 . S
C72 C67 1.490 . S
C72 C74 1.395 1_565 S
C72 C75 1.403 . S
H73 C79 0.930 . S
C74 H60 0.930 . S
C74 C72 1.395 1_545 S
C74 C77 1.403 . S
C75 C72 1.403 . S
C75 C76 1.524 . S
C75 C79 1.400 . S
C76 H61 0.960 . S
C76 H62 0.960 . S
C76 H63 0.960 . S
C76 C75 1.524 . S
C77 C74 1.403 . S
C77 C78 1.392 . S
C77 C81 1.495 . S
C78 C77 1.392 . S
C78 C79 1.385 1_545 S
C78 C80 1.478 . S
C79 H73 0.930 . S
C79 C75 1.400 . S
C79 C78 1.385 1_565 S
C80 C78 1.478 . S
C80 C82 1.381 . S
C80 C86 1.383 . S
C81 C77 1.495 . S
C81 H87 0.959 . S
C81 H88 0.961 . S
C81 H89 0.960 . S
C82 C80 1.381 . S
C82 C83 1.394 . S
C82 H90 0.930 . S
C83 C82 1.394 . S
C83 C84 1.383 . S
C83 H91 0.929 . S
C84 C83 1.383 . S
C84 C85 1.377 . S
C85 H69 0.930 . S
C85 C84 1.377 . S
C85 C86 1.379 . S
C86 H70 0.931 . S
C86 C80 1.383 . S
C86 C85 1.379 . S
H87 C81 0.959 . S
H88 C81 0.961 . S
H89 C81 0.960 . S
H90 C82 0.930 . S
H91 C83 0.929 . S
H92 C100 0.929 . S
H93 C102 0.930 . S
H94 C104 0.930 . S
H95 C107 0.929 . S
H96 C110 0.930 . S
H97 C112 0.960 . S
H98 C112 0.960 . S
H99 C112 0.960 . S
C100 H92 0.929 . S
C100 C101 1.377 . S
C100 C102 1.384 . S
C101 C100 1.377 . S
C101 C107 1.390 . S
C102 H93 0.930 . S
C102 C100 1.384 . S
C102 C103 1.372 . S
C103 C102 1.372 . S
C103 C104 1.400 . S
C103 C108 1.490 . S
C104 H94 0.930 . S
C104 C103 1.400 . S
C104 C107 1.386 . S
H105 C121 0.930 . S
H106 C122 0.931 . S
C107 H95 0.929 . S
C107 C101 1.390 . S
C107 C104 1.386 . S
C108 C103 1.490 . S
C108 C110 1.395 . S
C108 C111 1.403 . S
H109 C115 0.930 . S
C110 H96 0.930 . S
C110 C108 1.395 . S
C110 C113 1.403 . S
C111 C108 1.403 . S
C111 C112 1.524 . S
C111 C115 1.400 . S
C112 H97 0.960 . S
C112 H98 0.960 . S
C112 H99 0.960 . S
C112 C111 1.524 . S
C113 C110 1.403 . S
C113 C114 1.392 . S
C113 C117 1.495 . S
C114 C113 1.392 . S
C114 C115 1.385 . S
C114 C116 1.478 . S
C115 H109 0.930 . S
C115 C111 1.400 . S
C115 C114 1.385 . S
C116 C114 1.478 . S
C116 C118 1.381 . S
C116 C122 1.383 . S
C117 C113 1.495 . S
C117 H123 0.959 . S
C117 H124 0.961 . S
C117 H125 0.960 . S
C118 C116 1.381 . S
C118 C119 1.394 . S
C118 H126 0.930 . S
C119 C118 1.394 . S
C119 C120 1.383 . S
C119 H127 0.929 . S
C120 C119 1.383 . S
C120 C121 1.377 . S
C121 H105 0.930 . S
C121 C120 1.377 . S
C121 C122 1.379 . S
C122 H106 0.931 . S
C122 C116 1.383 . S
C122 C121 1.379 . S
H123 C117 0.959 . S
H124 C117 0.961 . S
H125 C117 0.960 . S
H126 C118 0.930 . S
H127 C119 0.929 . S
H128 C136 0.929 . S
H129 C138 0.930 . S
H130 C140 0.930 . S
H131 C143 0.929 . S
H132 C146 0.930 . S
H133 C148 0.960 . S
H134 C148 0.960 . S
H135 C148 0.960 . S
C136 H128 0.929 . S
C136 C137 1.377 . S
C136 C138 1.384 . S
C137 C136 1.377 . S
C137 C143 1.390 . S
C138 H129 0.930 . S
C138 C136 1.384 . S
C138 C139 1.372 . S
C139 C138 1.372 . S
C139 C140 1.400 . S
C139 C144 1.490 . S
C140 H130 0.930 . S
C140 C139 1.400 . S
C140 C143 1.386 . S
H141 C157 0.930 . S
H142 C158 0.931 . S
C143 H131 0.929 . S
C143 C137 1.390 . S
C143 C140 1.386 . S
C144 C139 1.490 . S
C144 C146 1.395 . S
C144 C147 1.403 1_545 S
H145 C151 0.930 . S
C146 H132 0.930 . S
C146 C144 1.395 . S
C146 C149 1.403 . S
C147 C144 1.403 1_565 S
C147 C148 1.524 . S
C147 C151 1.400 . S
C148 H133 0.960 . S
C148 H134 0.960 . S
C148 H135 0.960 . S
C148 C147 1.524 . S
C149 C146 1.403 . S
C149 C150 1.392 1_545 S
C149 C153 1.495 . S
C150 C149 1.392 1_565 S
C150 C151 1.385 . S
C150 C152 1.478 . S
C151 H145 0.930 . S
C151 C147 1.400 . S
C151 C150 1.385 . S
C152 C150 1.478 . S
C152 C154 1.381 . S
C152 C158 1.383 . S
C153 C149 1.495 . S
C153 H159 0.959 . S
C153 H160 0.961 . S
C153 H161 0.960 . S
C154 C152 1.381 . S
C154 C155 1.394 . S
C154 H162 0.930 . S
C155 C154 1.394 . S
C155 C156 1.383 . S
C155 H163 0.929 . S
C156 C155 1.383 . S
C156 C157 1.377 . S
C157 H141 0.930 . S
C157 C156 1.377 . S
C157 C158 1.379 . S
C158 H142 0.931 . S
C158 C152 1.383 . S
C158 C157 1.379 . S
H159 C153 0.959 . S
H160 C153 0.961 . S
H161 C153 0.960 . S
H162 C154 0.930 . S
H163 C155 0.929 . S
H164 C172 0.929 . S
H165 C174 0.930 . S
H166 C176 0.930 . S
H167 C179 0.929 . S
H168 C182 0.930 . S
H169 C184 0.960 . S
H170 C184 0.960 . S
H171 C184 0.960 . S
C172 H164 0.929 . S
C172 C173 1.377 . S
C172 C174 1.384 . S
C173 C172 1.377 . S
C173 C179 1.390 . S
C174 H165 0.930 . S
C174 C172 1.384 . S
C174 C175 1.372 . S
C175 C174 1.372 . S
C175 C176 1.400 . S
C175 C180 1.490 . S
C176 H166 0.930 . S
C176 C175 1.400 . S
C176 C179 1.386 . S
H177 C193 0.930 . S
H178 C194 0.931 . S
C179 H167 0.929 . S
C179 C173 1.390 . S
C179 C176 1.386 . S
C180 C175 1.490 . S
C180 C182 1.395 . S
C180 C183 1.403 . S
H181 C187 0.930 . S
C182 H168 0.930 . S
C182 C180 1.395 . S
C182 C185 1.403 . S
C183 C180 1.403 . S
C183 C184 1.524 . S
C183 C187 1.400 . S
C184 H169 0.960 . S
C184 H170 0.960 . S
C184 H171 0.960 . S
C184 C183 1.524 . S
C185 C182 1.403 . S
C185 C186 1.392 . S
C185 C189 1.495 . S
C186 C185 1.392 . S
C186 C187 1.385 . S
C186 C188 1.478 . S
C187 H181 0.930 . S
C187 C183 1.400 . S
C187 C186 1.385 . S
C188 C186 1.478 . S
C188 C190 1.381 . S
C188 C194 1.383 . S
C189 C185 1.495 . S
C189 H195 0.959 . S
C189 H196 0.961 . S
C189 H197 0.960 . S
C190 C188 1.381 . S
C190 C191 1.394 . S
C190 H198 0.930 . S
C191 C190 1.394 . S
C191 C192 1.383 . S
C191 H199 0.929 . S
C192 C191 1.383 . S
C192 C193 1.377 . S
C193 H177 0.930 . S
C193 C192 1.377 . S
C193 C194 1.379 . S
C194 H178 0.931 . S
C194 C188 1.383 . S
C194 C193 1.379 . S
H195 C189 0.959 . S
H196 C189 0.961 . S
H197 C189 0.960 . S
H198 C190 0.930 . S
H199 C191 0.929 . S
H200 C208 0.929 . S
H201 C210 0.934 . S
H202 C212 0.930 . S
H203 C215 0.929 . S
H204 C218 0.930 . S
H205 C220 0.960 1_556 S
H206 C220 0.960 1_556 S
H207 C220 0.960 . S
C208 H200 0.929 . S
C208 C209 1.377 . S
C208 C210 1.384 . S
C209 C208 1.377 . S
C209 C215 1.390 . S
C210 H201 0.934 . S
C210 C208 1.384 . S
C210 C211 1.372 . S
C211 C210 1.372 . S
C211 C212 1.400 . S
C211 C216 1.490 . S
C212 H202 0.930 . S
C212 C211 1.400 . S
C212 C215 1.386 . S
H213 C229 0.930 . S
H214 C230 0.931 1_554 S
C215 H203 0.929 . S
C215 C209 1.390 . S
C215 C212 1.386 . S
C216 C211 1.490 . S
C216 C218 1.395 1_545 S
C216 C219 1.403 1_455 S
H217 C223 0.930 . S
C218 H204 0.930 . S
C218 C216 1.395 1_565 S
C218 C221 1.403 1_554 S
C219 C216 1.403 1_655 S
C219 C220 1.524 . S
C219 C223 1.400 1_554 S
C220 H205 0.960 1_554 S
C220 H206 0.960 1_554 S
C220 H207 0.960 . S
C220 C219 1.524 . S
C221 C218 1.403 1_556 S
C221 C222 1.392 1_455 S
C221 C225 1.495 . S
C222 C221 1.392 1_655 S
C222 C223 1.385 1_565 S
C222 C224 1.478 . S
C223 H217 0.930 . S
C223 C219 1.400 1_556 S
C223 C222 1.385 1_545 S
C224 C222 1.478 . S
C224 C226 1.381 . S
C224 C230 1.383 . S
C225 C221 1.495 . S
C225 H231 0.963 . S
C225 H232 0.961 1_556 S
C225 H233 0.960 . S
C226 C224 1.381 . S
C226 C227 1.394 . S
C226 H234 0.930 . S
C227 C226 1.394 . S
C227 C228 1.383 . S
C227 H235 0.929 . S
C228 C227 1.383 . S
C228 C229 1.377 . S
C229 H213 0.930 . S
C229 C228 1.377 . S
C229 C230 1.379 . S
C230 H214 0.931 1_556 S
C230 C224 1.383 . S
C230 C229 1.379 . S
H231 C225 0.963 . S
H232 C225 0.961 1_554 S
H233 C225 0.960 . S
H234 C226 0.930 . S
H235 C227 0.929 . S
H236 C244 0.929 . S
H237 C246 0.930 1_554 S
H238 C248 0.930 . S
H239 C251 0.929 . S
H240 C254 0.930 . S
H241 C256 0.960 . S
H242 C256 0.960 . S
H243 C256 0.960 . S
C244 H236 0.929 . S
C244 C245 1.377 . S
C244 C246 1.384 . S
C245 C244 1.377 . S
C245 C251 1.390 . S
C246 H237 0.930 1_556 S
C246 C244 1.384 . S
C246 C247 1.372 . S
C247 C246 1.372 . S
C247 C248 1.400 . S
C247 C252 1.490 . S
C248 H238 0.930 . S
C248 C247 1.400 . S
C248 C251 1.386 . S
H249 C265 0.930 . S
H250 C266 0.931 1_556 S
C251 H239 0.929 . S
C251 C245 1.390 . S
C251 C248 1.386 . S
C252 C247 1.490 . S
C252 C254 1.395 1_556 S
C252 C255 1.403 1_545 S
H253 C259 0.930 . S
C254 H240 0.930 . S
C254 C252 1.395 1_554 S
C254 C257 1.403 . S
C255 C252 1.403 1_565 S
C255 C256 1.524 . S
C255 C259 1.400 . S
C256 H241 0.960 . S
C256 H242 0.960 . S
C256 H243 0.960 . S
C256 C255 1.524 . S
C257 C254 1.403 . S
C257 C258 1.392 1_545 S
C257 C261 1.495 . S
C258 C257 1.392 1_565 S
C258 C259 1.385 1_554 S
C258 C260 1.478 . S
C259 H253 0.930 . S
C259 C255 1.400 . S
C259 C258 1.385 1_556 S
C260 C258 1.478 . S
C260 C262 1.381 . S
C260 C266 1.383 . S
C261 C257 1.495 . S
C261 H267 0.959 . S
C261 H268 0.961 . S
C261 H269 0.960 . S
C262 C260 1.381 . S
C262 C263 1.394 . S
C262 H270 0.930 . S
C263 C262 1.394 . S
C263 C264 1.383 . S
C263 H271 0.929 . S
C264 C263 1.383 . S
C264 C265 1.377 . S
C265 H249 0.930 . S
C265 C264 1.377 . S
C265 C266 1.379 . S
C266 H250 0.931 1_554 S
C266 C260 1.383 . S
C266 C265 1.379 . S
H267 C261 0.959 . S
H268 C261 0.961 . S
H269 C261 0.960 . S
H270 C262 0.930 . S
H271 C263 0.929 . S
H272 C280 0.929 . S
H273 C282 0.930 . S
H274 C284 0.930 . S
H275 C287 0.929 . S
H276 C290 0.930 . S
H277 C292 0.960 . S
H278 C292 0.960 . S
H279 C292 0.960 . S
C280 H272 0.929 . S
C280 C281 1.377 . S
C280 C282 1.384 . S
C281 C280 1.377 . S
C281 C287 1.390 . S
C282 H273 0.930 . S
C282 C280 1.384 . S
C282 C283 1.372 . S
C283 C282 1.372 . S
C283 C284 1.400 . S
C283 C288 1.490 . S
C284 H274 0.930 . S
C284 C283 1.400 . S
C284 C287 1.386 . S
H285 C301 0.930 . S
H286 C302 0.931 . S
C287 H275 0.929 . S
C287 C281 1.390 . S
C287 C284 1.386 . S
C288 C283 1.490 . S
C288 C290 1.395 1_655 S
C288 C291 1.403 . S
H289 C295 0.930 . S
C290 H276 0.930 . S
C290 C288 1.395 1_455 S
C290 C293 1.403 . S
C291 C288 1.403 . S
C291 C292 1.524 . S
C291 C295 1.400 . S
C292 H277 0.960 . S
C292 H278 0.960 . S
C292 H279 0.960 . S
C292 C291 1.524 . S
C293 C290 1.403 . S
C293 C294 1.392 . S
C293 C297 1.495 . S
C294 C293 1.392 . S
C294 C295 1.385 1_455 S
C294 C296 1.478 . S
C295 H289 0.930 . S
C295 C291 1.400 . S
C295 C294 1.385 1_655 S
C296 C294 1.478 . S
C296 C298 1.381 . S
C296 C302 1.383 . S
C297 C293 1.495 . S
C297 H303 0.959 . S
C297 H304 0.961 . S
C297 H305 0.960 . S
C298 C296 1.381 . S
C298 C299 1.394 . S
C298 H306 0.930 . S
C299 C298 1.394 . S
C299 C300 1.383 . S
C299 H307 0.929 . S
C300 C299 1.383 . S
C300 C301 1.377 . S
C301 H285 0.930 . S
C301 C300 1.377 . S
C301 C302 1.379 . S
C302 H286 0.931 . S
C302 C296 1.383 . S
C302 C301 1.379 . S
H303 C297 0.959 . S
H304 C297 0.961 . S
H305 C297 0.960 . S
H306 C298 0.930 . S
H307 C299 0.929 . S
H308 C316 0.929 . S
H309 C318 0.930 . S
H310 C320 0.930 . S
H311 C323 0.929 . S
H312 C326 0.930 . S
H313 C328 0.960 . S
H314 C328 0.960 . S
H315 C328 0.960 . S
C316 H308 0.929 . S
C316 C317 1.377 . S
C316 C318 1.384 . S
C317 C316 1.377 . S
C317 C323 1.390 . S
C318 H309 0.930 . S
C318 C316 1.384 . S
C318 C319 1.372 . S
C319 C318 1.372 . S
C319 C320 1.400 . S
C319 C324 1.490 . S
C320 H310 0.930 . S
C320 C319 1.400 . S
C320 C323 1.386 . S
H321 C337 0.930 . S
H322 C338 0.931 . S
C323 H311 0.929 . S
C323 C317 1.390 . S
C323 C320 1.386 . S
C324 C319 1.490 . S
C324 C326 1.395 . S
C324 C327 1.403 . S
H325 C331 0.930 . S
C326 H312 0.930 . S
C326 C324 1.395 . S
C326 C329 1.403 . S
C327 C324 1.403 . S
C327 C328 1.524 . S
C327 C331 1.400 . S
C328 H313 0.960 . S
C328 H314 0.960 . S
C328 H315 0.960 . S
C328 C327 1.524 . S
C329 C326 1.403 . S
C329 C330 1.392 . S
C329 C333 1.495 . S
C330 C329 1.392 . S
C330 C331 1.385 . S
C330 C332 1.478 . S
C331 H325 0.930 . S
C331 C327 1.400 . S
C331 C330 1.385 . S
C332 C330 1.478 . S
C332 C334 1.381 . S
C332 C338 1.383 . S
C333 C329 1.495 . S
C333 H339 0.959 . S
C333 H340 0.961 . S
C333 H341 0.960 . S
C334 C332 1.381 . S
C334 C335 1.394 . S
C334 H342 0.930 . S
C335 C334 1.394 . S
C335 C336 1.383 . S
C335 H343 0.929 . S
C336 C335 1.383 . S
C336 C337 1.377 . S
C337 H321 0.930 . S
C337 C336 1.377 . S
C337 C338 1.379 . S
C338 H322 0.931 . S
C338 C332 1.383 . S
C338 C337 1.379 . S
H339 C333 0.959 . S
H340 C333 0.961 . S
H341 C333 0.960 . S
H342 C334 0.930 . S
H343 C335 0.929 . S
C65 C23 0.874 . S
C84 C5 0.853 . S
C101 C9 0.869 . S
C120 C19 0.873 . S
C137 C51 0.876 . S
C156 C33 0.886 . S
C173 C37 0.867 . S
C192 C47 0.884 . S
C209 C0 1.512 . S
C228 C28 1.522 . S
C245 C53 1.524 . S
C264 C25 1.510 . S
C281 C39 1.527 . S
C300 C11 1.521 . S
C317 C14 1.509 . S
C336 C42 1.494 . S
