# Generated by pormake.
# Topology sml, (6)-cn, num edge types: 1
# Building blocks:
#     Node 0, Type 0, BuildingBlock: IZENUY_clean_sbu_0, # of connection points: 6
#     Node 1, Type 0, BuildingBlock: IZENUY_clean_sbu_0, # of connection points: 6
#     Node 2, Type 0, BuildingBlock: IZENUY_clean_sbu_0, # of connection points: 6
#     Node 3, Type 0, BuildingBlock: IZENUY_clean_sbu_0, # of connection points: 6
#     Node 4, Type 0, BuildingBlock: IZENUY_clean_sbu_0, # of connection points: 6
#     Node 5, Type 0, BuildingBlock: IZENUY_clean_sbu_0, # of connection points: 6
#     Edge 6, Type (0, 0), BuildingBlock: TEMPAE_clean_linker_10, # of connection points: 2
#     Edge 7, Type (0, 0), BuildingBlock: TEMPAE_clean_linker_10, # of connection points: 2
#     Edge 8, Type (0, 0), BuildingBlock: TEMPAE_clean_linker_10, # of connection points: 2
#     Edge 9, Type (0, 0), BuildingBlock: TEMPAE_clean_linker_10, # of connection points: 2
#     Edge 10, Type (0, 0), BuildingBlock: TEMPAE_clean_linker_10, # of connection points: 2
#     Edge 11, Type (0, 0), BuildingBlock: TEMPAE_clean_linker_10, # of connection points: 2
#     Edge 12, Type (0, 0), BuildingBlock: TEMPAE_clean_linker_10, # of connection points: 2
#     Edge 13, Type (0, 0), BuildingBlock: TEMPAE_clean_linker_10, # of connection points: 2
#     Edge 14, Type (0, 0), BuildingBlock: TEMPAE_clean_linker_10, # of connection points: 2
#     Edge 15, Type (0, 0), BuildingBlock: TEMPAE_clean_linker_10, # of connection points: 2
#     Edge 16, Type (0, 0), BuildingBlock: TEMPAE_clean_linker_10, # of connection points: 2
#     Edge 17, Type (0, 0), BuildingBlock: TEMPAE_clean_linker_10, # of connection points: 2
#     Edge 18, Type (0, 0), BuildingBlock: TEMPAE_clean_linker_10, # of connection points: 2
#     Edge 19, Type (0, 0), BuildingBlock: TEMPAE_clean_linker_10, # of connection points: 2
#     Edge 20, Type (0, 0), BuildingBlock: TEMPAE_clean_linker_10, # of connection points: 2
#     Edge 21, Type (0, 0), BuildingBlock: TEMPAE_clean_linker_10, # of connection points: 2
#     Edge 22, Type (0, 0), BuildingBlock: TEMPAE_clean_linker_10, # of connection points: 2
#     Edge 23, Type (0, 0), BuildingBlock: TEMPAE_clean_linker_10, # of connection points: 2
# Relax obj value: 0.327
# Max RMSD: 0.283
# Mean RMSD: 0.283
data_MOF--net-sml--node1-IZENUY_clean_sbu_0--edge1-TEMPAE_clean_linker_10
_symmetry_space_group_name_H-M    P1
_symmetry_Int_Tables_number       1
_symmetry_cell_setting            triclinic
loop_
_symmetry_equiv_pos_as_xyz
'x, y, z'
_cell_length_a     41.102698
_cell_length_b     41.143345
_cell_length_c     14.798211
_cell_angle_alpha  89.951545
_cell_angle_beta   90.159296
_cell_angle_gamma 119.95476
loop_
_atom_site_label
_atom_site_type_symbol
_atom_site_fract_x
_atom_site_fract_y
_atom_site_fract_z
_atom_type_partial_charge
Fe0 Fe 0.27162 0.45649 0.08075 0.0
Fe1 Fe 0.20088 0.38271 0.03 0.0
O2 O 0.22627 0.43232 0.03137 0.0
Fe3 Fe 0.20645 0.45799 0.98339 0.0
O4 O 0.2084 0.47975 0.09102 0.0
O5 O 0.26741 0.49713 0.1177 0.0
O6 O 0.25331 0.43571 0.18927 0.0
C7 C 0.23329 0.40111 0.20465 0.0
C8 C 0.2843 0.50156 0.93705 0.0
O9 O 0.21863 0.37762 0.14063 0.0
C10 C 0.18843 0.40331 0.85638 0.0
O11 O 0.28448 0.42064 0.05201 0.0
O12 O 0.2375 0.38077 0.96784 0.0
O13 O 0.2521 0.49818 0.9481 0.0
O14 O 0.29234 0.47896 0.9747 0.0
C15 C 0.14423 0.39699 0.06892 0.0
O16 O 0.17874 0.37925 0.91923 0.0
O17 O 0.20379 0.43787 0.87359 0.0
C18 C 0.27146 0.39586 0.99056 0.0
O19 O 0.16247 0.38125 0.09183 0.0
O20 O 0.15723 0.42283 0.01005 0.0
C21 C 0.23919 0.50144 0.12934 0.0
Fe22 Fe 0.81847 0.26326 0.39513 0.0
Fe23 Fe 0.82173 0.19276 0.34492 0.0
O24 O 0.79794 0.21863 0.34288 0.0
Fe25 Fe 0.75368 0.19996 0.28889 0.0
O26 O 0.73155 0.20151 0.39266 0.0
O27 O 0.77316 0.25964 0.4262 0.0
O28 O 0.81827 0.24338 0.50369 0.0
C29 C 0.83313 0.22363 0.52001 0.0
C30 C 0.79018 0.27855 0.24681 0.0
O31 O 0.84322 0.20994 0.45663 0.0
C32 C 0.7914 0.18088 0.16864 0.0
O33 O 0.86749 0.27548 0.37219 0.0
O34 O 0.86141 0.22951 0.28571 0.0
O35 O 0.7609 0.24634 0.2524 0.0
O36 O 0.81954 0.28543 0.28931 0.0
C37 C 0.74981 0.13714 0.37842 0.0
O38 O 0.80453 0.17085 0.2336 0.0
O39 O 0.77313 0.19747 0.18223 0.0
C40 C 0.88016 0.26311 0.31128 0.0
O41 O 0.78347 0.15457 0.40431 0.0
O42 O 0.7384 0.1504 0.31632 0.0
C43 C 0.74027 0.23168 0.43302 0.0
Fe44 Fe 0.56317 0.75271 0.58544 0.0
Fe45 Fe 0.56115 0.81118 0.71179 0.0
O46 O 0.5869 0.79439 0.65071 0.0
Fe47 Fe 0.63675 0.81932 0.65437 0.0
O48 O 0.64127 0.7773 0.64683 0.0
O49 O 0.58343 0.73014 0.6536 0.0
O50 O 0.52229 0.73058 0.65753 0.0
C51 C 0.51517 0.73598 0.73709 0.0
C52 C 0.62581 0.79986 0.47794 0.0
O53 O 0.5351 0.76733 0.7758 0.0
C54 C 0.61873 0.87672 0.64074 0.0
O55 O 0.54027 0.77217 0.51464 0.0
O56 O 0.5237 0.79533 0.6288 0.0
O57 O 0.63979 0.82607 0.5344 0.0
O58 O 0.60001 0.76747 0.50008 0.0
C59 C 0.6213 0.82506 0.82952 0.0
O60 O 0.58386 0.85559 0.65093 0.0
O61 O 0.64144 0.86583 0.66285 0.0
C62 C 0.52108 0.78589 0.54673 0.0
O63 O 0.59474 0.83038 0.80547 0.0
O64 O 0.63721 0.81446 0.77438 0.0
C65 C 0.61813 0.7438 0.66874 0.0
Fe66 Fe 0.81884 0.55903 0.93386 0.0
Fe67 Fe 0.75287 0.55716 0.03472 0.0
O68 O 0.79774 0.58298 0.98402 0.0
Fe69 Fe 0.82146 0.63259 0.98318 0.0
O70 O 0.861 0.63552 0.04437 0.0
O71 O 0.86765 0.59562 0.95947 0.0
O72 O 0.81885 0.53768 0.04026 0.0
C73 C 0.78889 0.51484 0.07965 0.0
C74 C 0.83406 0.61344 0.80873 0.0
O75 O 0.75961 0.51768 0.07118 0.0
C76 C 0.74963 0.61652 0.94582 0.0
O77 O 0.77389 0.51761 0.90016 0.0
O78 O 0.73186 0.53417 0.92868 0.0
O79 O 0.84352 0.63718 0.87222 0.0
O80 O 0.8196 0.5789 0.82493 0.0
C81 C 0.78992 0.61319 0.15798 0.0
O82 O 0.73781 0.59162 0.00705 0.0
O83 O 0.78349 0.6328 0.92185 0.0
C84 C 0.74119 0.51292 0.88942 0.0
O85 O 0.77134 0.57844 0.14291 0.0
O86 O 0.80352 0.6367 0.09395 0.0
C87 C 0.87996 0.62067 0.0204 0.0
Fe88 Fe 0.27142 0.8206 0.25307 0.0
Fe89 Fe 0.20815 0.75372 0.35319 0.0
O90 O 0.22637 0.79864 0.30344 0.0
Fe91 Fe 0.19987 0.82173 0.30441 0.0
O92 O 0.23612 0.86092 0.36606 0.0
O93 O 0.28283 0.8691 0.27985 0.0
O94 O 0.29292 0.82064 0.35937 0.0
C95 C 0.28694 0.7906 0.39629 0.0
C96 C 0.23146 0.83552 0.12937 0.0
O97 O 0.25491 0.76115 0.38855 0.0
C98 C 0.14441 0.75016 0.26708 0.0
O99 O 0.26872 0.77604 0.21824 0.0
O100 O 0.21039 0.7335 0.24628 0.0
O101 O 0.21686 0.8443 0.19349 0.0
O102 O 0.25203 0.82147 0.14459 0.0
C103 C 0.1886 0.78956 0.47852 0.0
O104 O 0.15828 0.73803 0.32609 0.0
O105 O 0.1619 0.784 0.24332 0.0
C106 C 0.24115 0.74308 0.2077 0.0
O107 O 0.20519 0.77146 0.46221 0.0
O108 O 0.1782 0.80313 0.41519 0.0
C109 C 0.26982 0.88043 0.34225 0.0
Fe110 Fe 0.45765 0.19691 0.71925 0.0
Fe111 Fe 0.38359 0.19417 0.67229 0.0
O112 O 0.43325 0.21828 0.67228 0.0
Fe113 Fe 0.4588 0.2639 0.62535 0.0
O114 O 0.48114 0.28332 0.73293 0.0
O115 O 0.49862 0.24158 0.75625 0.0
O116 O 0.43755 0.19423 0.82893 0.0
C117 C 0.40305 0.17997 0.84569 0.0
C118 C 0.50158 0.22946 0.57388 0.0
O119 O 0.37914 0.17127 0.78247 0.0
C120 C 0.40352 0.22748 0.49893 0.0
O121 O 0.42156 0.14833 0.69021 0.0
O122 O 0.38108 0.15562 0.60885 0.0
O123 O 0.49871 0.2584 0.58769 0.0
O124 O 0.47935 0.19886 0.61187 0.0
C125 C 0.3986 0.26513 0.71445 0.0
O126 O 0.37963 0.21298 0.5621 0.0
O127 O 0.43814 0.24685 0.5157 0.0
C128 C 0.39624 0.13665 0.62987 0.0
O129 O 0.38258 0.23103 0.73569 0.0
O130 O 0.42392 0.27802 0.65442 0.0
C131 C 0.50262 0.27379 0.77064 0.0
C132 C 0.39625 0.32513 0.72365 0.0
C133 C 0.38541 0.28918 0.75693 0.0
C134 C 0.382 0.34683 0.76176 0.0
C135 C 0.35647 0.33227 0.8349 0.0
C136 C 0.34648 0.29658 0.87053 0.0
C137 C 0.36111 0.2756 0.83141 0.0
C138 C 0.39324 0.38476 0.72188 0.0
C139 C 0.31938 0.27999 0.94845 0.0
C140 C 0.33045 0.39151 0.98313 0.0
C141 C 0.29511 0.38223 0.9479 0.0
C142 C 0.35167 0.37675 0.94478 0.0
C143 C 0.33725 0.35235 0.86936 0.0
C144 C 0.30229 0.3441 0.83161 0.0
C145 C 0.28175 0.35913 0.87113 0.0
C146 C 0.38885 0.38618 0.98685 0.0
C147 C 0.28587 0.3182 0.7513 0.0
H148 H 0.41518 0.33597 0.66655 0.0
H149 H 0.35298 0.24815 0.85876 0.0
H150 H 0.36861 0.38381 0.68832 0.0
H151 H 0.40263 0.40627 0.77597 0.0
H152 H 0.4161 0.39369 0.67142 0.0
H153 H 0.3134 0.2513 0.96588 0.0
H154 H 0.33108 0.29813 0.00896 0.0
H155 H 0.29241 0.27863 0.93159 0.0
H156 H 0.34113 0.40954 0.04195 0.0
H157 H 0.2548 0.35226 0.84227 0.0
H158 H 0.41088 0.39542 0.93422 0.0
H159 H 0.38652 0.36075 0.01912 0.0
H160 H 0.39799 0.40855 0.03884 0.0
H161 H 0.30548 0.32932 0.69331 0.0
H162 H 0.25837 0.31464 0.73011 0.0
H163 H 0.28192 0.29014 0.76789 0.0
C164 C 0.08087 0.39276 0.07023 0.0
C165 C 0.10596 0.38241 0.10668 0.0
C166 C 0.04392 0.37699 0.10316 0.0
C167 C 0.03191 0.3504 0.17428 0.0
C168 C 0.0575 0.34085 0.21312 0.0
C169 C 0.09409 0.35696 0.17907 0.0
C170 C 0.01741 0.38786 0.06005 0.0
C171 C 0.04593 0.31274 0.28923 0.0
C172 C 0.94349 0.32199 0.31191 0.0
C173 C 0.91838 0.28704 0.2736 0.0
C174 C 0.98021 0.34373 0.27821 0.0
C175 C 0.99197 0.33028 0.20427 0.0
C176 C 0.96631 0.29568 0.16344 0.0
C177 C 0.92995 0.27455 0.19855 0.0
C178 C 1.00678 0.38049 0.3235 0.0
C179 C 0.97763 0.28032 0.0844 0.0
H180 H 0.08979 0.4125 0.01462 0.0
H181 H 0.1133 0.34911 0.20871 0.0
H182 H 0.9946 0.36328 0.02442 0.0
H183 H 1.00404 0.39651 0.11257 0.0
H184 H 0.03184 0.41112 0.01074 0.0
H185 H 0.06908 0.30803 0.31121 0.0
H186 H 0.0366 0.32263 0.34812 0.0
H187 H 0.02186 0.28544 0.26772 0.0
H188 H 0.93475 0.33201 0.36947 0.0
H189 H 0.91066 0.24788 0.16747 0.0
H190 H 0.02001 0.40318 0.27251 0.0
H191 H 0.02967 0.37824 0.35744 0.0
H192 H 0.99243 0.38865 0.37467 0.0
H193 H 0.98853 0.30111 0.02869 0.0
H194 H 0.95391 0.2537 0.05817 0.0
H195 H 1.00057 0.27507 0.10511 0.0
C196 C 0.73166 0.09175 0.50567 0.0
C197 C 0.72479 0.09957 0.41763 0.0
C198 C 0.7107 0.05574 0.54284 0.0
C199 C 0.68262 0.02641 0.49004 0.0
C200 C 0.67464 0.03438 0.4021 0.0
C201 C 0.69558 0.07103 0.36722 0.0
C202 C 0.71982 0.04887 0.6374 0.0
C203 C 0.64528 1.00381 0.34321 0.0
C204 C 0.66705 0.92997 0.55045 0.0
C205 C 0.63383 0.91463 0.60102 0.0
C206 C 0.68223 0.9656 0.51097 0.0
C207 C 0.66434 0.98703 0.52421 0.0
C208 C 0.63052 0.97157 0.5745 0.0
C209 C 0.61535 0.93527 0.61128 0.0
C210 C 0.71777 0.98048 0.45606 0.0
C211 C 0.61104 0.99381 0.5917 0.0
H212 H 0.75388 0.11384 0.5455 0.0
H213 H 0.6902 0.07694 0.29913 0.0
H214 H 0.69376 0.03171 0.67665 0.0
H215 H 0.73515 0.03308 0.63399 0.0
H216 H 0.73758 0.07549 0.67446 0.0
H217 H 0.64011 0.01507 0.2799 0.0
H218 H 0.6546 0.98356 0.32515 0.0
H219 H 0.61842 0.98802 0.38036 0.0
H220 H 0.68107 0.91384 0.54076 0.0
H221 H 0.58959 0.92344 0.65005 0.0
H222 H 0.74097 1.00502 0.49086 0.0
H223 H 0.7139 0.99014 0.38895 0.0
H224 H 0.72635 0.95907 0.44569 0.0
H225 H 0.62962 0.01904 0.63249 0.0
H226 H 0.58407 0.97719 0.62821 0.0
H227 H 0.60546 1.00375 0.52694 0.0
C228 C 0.61435 0.68192 0.70363 0.0
C229 C 0.63282 0.7211 0.71192 0.0
C230 C 0.62962 0.66111 0.7425 0.0
C231 C 0.66359 0.67987 0.79261 0.0
C232 C 0.68145 0.71925 0.80385 0.0
C233 C 0.66611 0.73933 0.7627 0.0
C234 C 0.61012 0.61928 0.72747 0.0
C235 C 0.71724 0.74042 0.85812 0.0
C236 C 0.69551 0.62881 0.95433 0.0
C237 C 0.72466 0.62898 0.90495 0.0
C238 C 0.6744 0.64414 0.91766 0.0
C239 C 0.68205 0.6591 0.82881 0.0
C240 C 0.71006 0.65729 0.77713 0.0
C241 C 0.73131 0.64279 0.81619 0.0
C242 C 0.6452 0.64601 0.97553 0.0
C243 C 0.71886 0.67214 0.68167 0.0
H244 H 0.58859 0.66768 0.66465 0.0
H245 H 0.6802 0.76954 0.77086 0.0
H246 H 0.62856 0.61223 0.68745 0.0
H247 H 0.60483 0.60443 0.79304 0.0
H248 H 0.58299 0.60861 0.69107 0.0
H249 H 0.72577 0.77046 0.86703 0.0
H250 H 0.71374 0.72752 0.92586 0.0
H251 H 0.74031 0.7388 0.82361 0.0
H252 H 0.69031 0.61822 0.02298 0.0
H253 H 0.75348 0.64253 0.77717 0.0
H254 H 0.61818 0.6344 0.93847 0.0
H255 H 0.65445 0.67574 0.99142 0.0
H256 H 0.64037 0.63042 0.04002 0.0
H257 H 0.69275 0.66414 0.64304 0.0
H258 H 0.73524 0.66155 0.64496 0.0
H259 H 0.73561 0.70322 0.6834 0.0
C260 C 0.08062 0.69123 0.26857 0.0
C261 C 0.10589 0.72602 0.23 0.0
C262 C 0.0434 0.67013 0.23633 0.0
C263 C 0.03128 0.68412 0.16383 0.0
C264 C 0.05705 0.71861 0.12308 0.0
C265 C 0.09386 0.73895 0.15631 0.0
C266 C 0.01676 0.63343 0.28144 0.0
C267 C 0.04548 0.7346 0.04552 0.0
C268 C 0.94293 0.62407 0.02462 0.0
C269 C 0.91799 0.63472 0.0602 0.0
C270 C 0.97943 0.63862 0.06014 0.0
C271 C 0.99125 0.66429 0.13327 0.0
C272 C 0.96573 0.67405 0.17147 0.0
C273 C 0.92956 0.65922 0.13457 0.0
C274 C 1.00576 0.62753 0.01742 0.0
C275 C 0.97709 0.7013 0.24941 0.0
H276 H 0.08961 0.68092 0.32528 0.0
H277 H 0.11316 0.76548 0.12492 0.0
H278 H 0.99419 0.63593 0.316 0.0
H279 H 1.00309 0.61086 0.23019 0.0
H280 H 0.03116 0.62496 0.33199 0.0
H281 H 0.06855 0.76238 0.0234 0.0
H282 H 0.03648 0.71509 0.98713 0.0
H283 H 0.02121 0.73778 0.06543 0.0
H284 H 0.93425 0.60496 0.96767 0.0
H285 H 0.91043 0.66727 0.1636 0.0
H286 H 0.01878 0.6184 0.07 0.0
H287 H 0.02883 0.65213 0.98271 0.0
H288 H 0.99129 0.60455 0.96732 0.0
H289 H 0.98758 0.69155 0.30649 0.0
H290 H 0.9535 0.7048 0.27381 0.0
H291 H 1.00035 0.72915 0.22831 0.0
C292 C 0.39475 0.07486 0.61387 0.0
C293 C 0.38236 0.09949 0.58604 0.0
C294 C 0.38054 0.03931 0.57341 0.0
C295 C 0.3534 0.02823 0.50348 0.0
C296 C 0.34158 0.05338 0.47366 0.0
C297 C 0.35624 0.0886 0.51495 0.0
C298 C 0.39373 0.0132 0.60716 0.0
C299 C 0.31274 0.04278 0.39931 0.0
C300 C 0.32732 0.94487 0.34783 0.0
C301 C 0.29313 0.91768 0.38542 0.0
C302 C 0.34817 0.9807 0.38733 0.0
C303 C 0.33462 0.98932 0.4665 0.0
C304 C 0.30088 0.96148 0.50639 0.0
C305 C 0.28061 0.92615 0.46548 0.0
C306 C 0.384 0.00969 0.34276 0.0
C307 C 0.2854 0.96947 0.59066 0.0
H308 H 0.4151 0.08307 0.6682 0.0
H309 H 0.34676 0.10748 0.49184 0.0
H310 H 0.37011 0.98857 0.64044 0.0
H311 H 0.403 1.0025 0.54975 0.0
H312 H 0.41722 0.02709 0.65634 0.0
H313 H 0.30486 0.06463 0.38787 0.0
H314 H 0.32397 0.0383 0.33536 0.0
H315 H 0.28689 0.0161 0.41601 0.0
H316 H 0.33733 0.93851 0.28638 0.0
H317 H 0.25457 0.90518 0.49608 0.0
H318 H 0.40707 0.02257 0.39313 0.0
H319 H 0.38002 0.0325 0.31478 0.0
H320 H 0.39268 0.9976 0.28705 0.0
H321 H 0.30661 0.97926 0.64566 0.0
H322 H 0.25942 0.94446 0.61461 0.0
H323 H 0.27897 0.99221 0.57718 0.0
C324 C 0.18032 0.4133 0.69383 0.0
C325 C 0.18413 0.39138 0.76093 0.0
C326 C 0.18355 0.40692 0.60215 0.0
C327 C 0.19186 0.37864 0.57716 0.0
C328 C 0.19318 0.35476 0.64421 0.0
C329 C 0.18894 0.36121 0.73557 0.0
C330 C 0.18044 0.43206 0.5324 0.0
C331 C 0.20177 0.32422 0.62019 0.0
C332 C 0.18842 0.36134 0.32434 0.0
C333 C 0.22485 0.3887 0.29946 0.0
C334 C 0.17749 0.35589 0.41555 0.0
C335 C 0.20396 0.37777 0.48295 0.0
C336 C 0.24171 0.40281 0.45834 0.0
C337 C 0.25155 0.4084 0.36676 0.0
C338 C 0.1369 0.32913 0.43811 0.0
C339 C 0.27118 0.42572 0.52828 0.0
H340 H 0.17616 0.43637 0.71325 0.0
H341 H 0.19194 0.34423 0.78735 0.0
H342 H 0.20859 0.45124 0.50374 0.0
H343 H 0.16194 0.41509 0.47591 0.0
H344 H 0.16915 0.4493 0.56151 0.0
H345 H 0.19561 0.30432 0.677 0.0
H346 H 0.18537 0.30829 0.56014 0.0
H347 H 0.23197 0.33712 0.60279 0.0
H348 H 0.1677 0.34617 0.27229 0.0
H349 H 0.27983 0.42935 0.34751 0.0
H350 H 0.12146 0.34486 0.43918 0.0
H351 H 0.13377 0.31602 0.50541 0.0
H352 H 0.12356 0.30661 0.38651 0.0
H353 H 0.26556 0.44745 0.55626 0.0
H354 H 0.29996 0.43995 0.49949 0.0
H355 H 0.27014 0.40765 0.5852 0.0
C356 C 0.83491 0.18258 0.04991 0.0
C357 C 0.79896 0.17506 0.07488 0.0
C358 C 0.84522 0.18639 0.95849 0.0
C359 C 0.81858 0.18176 0.89147 0.0
C360 C 0.78115 0.17031 0.91656 0.0
C361 C 0.77194 0.16765 0.00821 0.0
C362 C 0.88546 0.19888 0.93486 0.0
C363 C 0.75158 0.164 0.84698 0.0
C364 C 0.84259 0.24132 0.68212 0.0
C365 C 0.83732 0.21534 0.6146 0.0
C366 C 0.83981 0.23155 0.77347 0.0
C367 C 0.83053 0.19457 0.79747 0.0
C368 C 0.82755 0.16895 0.72975 0.0
C369 C 0.83144 0.17985 0.63868 0.0
C370 C 0.8441 0.26 0.84389 0.0
C371 C 0.81789 0.12943 0.75318 0.0
H372 H 0.85582 0.18842 0.10175 0.0
H373 H 0.74401 0.16145 0.02787 0.0
H374 H 0.88748 0.18648 0.87009 0.0
H375 H 0.90117 0.22985 0.92722 0.0
H376 H 0.89931 0.19129 0.98883 0.0
H377 H 0.72294 0.15025 0.87652 0.0
H378 H 0.75767 0.19135 0.818 0.0
H379 H 0.7519 0.14637 0.79068 0.0
H380 H 0.84755 0.26891 0.66334 0.0
H381 H 0.82734 0.15975 0.58622 0.0
H382 H 0.86267 0.26092 0.89957 0.0
H383 H 0.81626 0.25174 0.87357 0.0
H384 H 0.85588 0.28863 0.81507 0.0
H385 H 0.8389 0.13 0.80135 0.0
H386 H 0.81688 0.11302 0.69258 0.0
H387 H 0.79019 0.11469 0.78724 0.0
C388 C 0.6231 0.77825 0.32058 0.0
C389 C 0.63922 0.80714 0.38445 0.0
C390 C 0.63002 0.78604 0.22876 0.0
C391 C 0.6538 0.82357 0.20103 0.0
C392 C 0.67338 0.85214 0.26548 0.0
C393 C 0.66568 0.8436 0.35707 0.0
C394 C 0.60889 0.75472 0.16146 0.0
C395 C 0.69983 0.89223 0.23794 0.0
C396 C 0.66515 0.82804 0.94964 0.0
C397 C 0.63425 0.83167 0.92361 0.0
C398 C 0.67451 0.82905 0.04076 0.0
C399 C 0.65205 0.83327 0.10636 0.0
C400 C 0.62293 0.84022 0.08013 0.0
C401 C 0.61444 0.83944 0.98862 0.0
C402 C 0.7064 0.8226 0.06661 0.0
C403 C 0.59851 0.84508 0.14878 0.0
H404 H 0.60326 0.74988 0.3417 0.0
H405 H 0.67884 0.86595 0.40654 0.0
H406 H 0.58725 0.7589 0.12688 0.0
H407 H 0.62816 0.7549 0.10896 0.0
H408 H 0.59467 0.72668 0.1942 0.0
H409 H 0.7197 0.90834 0.29332 0.0
H410 H 0.7161 0.89353 0.17698 0.0
H411 H 0.68336 0.90613 0.22144 0.0
H412 H 0.68112 0.82281 0.8993 0.0
H413 H 0.59095 0.8429 0.96859 0.0
H414 H 0.69498 0.79257 0.08359 0.0
H415 H 0.72166 0.83941 0.12686 0.0
H416 H 0.72664 0.8297 0.01021 0.0
H417 H 0.58097 0.81814 0.18461 0.0
H418 H 0.57959 0.85386 0.11704 0.0
H419 H 0.61608 0.8663 0.20011 0.0
C420 C 0.83111 0.65463 0.68917 0.0
C421 C 0.83799 0.6257 0.71391 0.0
C422 C 0.82653 0.66096 0.5979 0.0
C423 C 0.82987 0.6384 0.53054 0.0
C424 C 0.84013 0.61144 0.55517 0.0
C425 C 0.84357 0.60508 0.6467 0.0
C426 C 0.81592 0.69013 0.5739 0.0
C427 C 0.84486 0.5874 0.48522 0.0
C428 C 0.77094 0.60583 0.31907 0.0
C429 C 0.79759 0.62602 0.25245 0.0
C430 C 0.78035 0.61227 0.41084 0.0
C431 C 0.81763 0.63875 0.43623 0.0
C432 C 0.8439 0.66114 0.36936 0.0
C433 C 0.83339 0.65474 0.27786 0.0
C434 C 0.75112 0.58862 0.48025 0.0
C435 C 0.884 0.68937 0.3932 0.0
H436 H 0.82675 0.67056 0.7413 0.0
H437 H 0.84925 0.58295 0.6659 0.0
H438 H 0.83732 0.71134 0.5281 0.0
H439 H 0.78876 0.67686 0.53697 0.0
H440 H 0.81344 0.70466 0.63452 0.0
H441 H 0.85733 0.57118 0.51438 0.0
H442 H 0.81708 0.56731 0.45582 0.0
H443 H 0.86303 0.60503 0.42926 0.0
H444 H 0.74313 0.58386 0.29924 0.0
H445 H 0.85406 0.67025 0.22619 0.0
H446 H 0.75096 0.60641 0.53639 0.0
H447 H 0.758 0.56793 0.50953 0.0
H448 H 0.72247 0.5731 0.45054 0.0
H449 H 0.88577 0.70385 0.45772 0.0
H450 H 0.89756 0.71071 0.33913 0.0
H451 H 0.90017 0.67456 0.40153 0.0
C452 C 0.18699 0.83117 0.59887 0.0
C453 C 0.18343 0.7967 0.57353 0.0
C454 C 0.19052 0.8416 0.69032 0.0
C455 C 0.18975 0.81664 0.75724 0.0
C456 C 0.18251 0.78042 0.73213 0.0
C457 C 0.17997 0.77109 0.64042 0.0
C458 C 0.19775 0.88022 0.71489 0.0
C459 C 0.17998 0.75241 0.80182 0.0
C460 C 0.24956 0.84719 0.96771 0.0
C461 C 0.22273 0.83943 0.03481 0.0
C462 C 0.23966 0.84309 0.87613 0.0
C463 C 0.20173 0.82971 0.85142 0.0
C464 C 0.17508 0.82438 0.9187 0.0
C465 C 0.18608 0.82979 0.00993 0.0
C466 C 0.26929 0.85045 0.80625 0.0
C467 C 0.13429 0.80976 0.89602 0.0
H468 H 0.18964 0.85101 0.54713 0.0
H469 H 0.1767 0.74421 0.62088 0.0
H470 H 0.17913 0.87859 0.77093 0.0
H471 H 0.22712 0.89751 0.73902 0.0
H472 H 0.19332 0.89461 0.65657 0.0
H473 H 0.1693 0.72401 0.77245 0.0
H474 H 0.20822 0.76188 0.831 0.0
H475 H 0.16122 0.75043 0.85794 0.0
H476 H 0.27802 0.85501 0.98707 0.0
H477 H 0.16529 0.82371 0.06194 0.0
H478 H 0.26767 0.86727 0.74957 0.0
H479 H 0.26437 0.82339 0.77793 0.0
H480 H 0.29808 0.86552 0.83526 0.0
H481 H 0.13062 0.8189 0.82811 0.0
H482 H 0.12085 0.8191 0.94685 0.0
H483 H 0.11933 0.77863 0.89659 0.0
C484 C 0.41257 0.24544 0.33635 0.0
C485 C 0.39151 0.21936 0.40345 0.0
C486 C 0.40681 0.23556 0.24465 0.0
C487 C 0.38016 0.19832 0.21959 0.0
C488 C 0.35712 0.17256 0.2867 0.0
C489 C 0.36281 0.18357 0.37799 0.0
C490 C 0.431 0.26436 0.17501 0.0
C491 C 0.32857 0.13254 0.2636 0.0
C492 C 0.36251 0.18326 0.96674 0.0
C493 C 0.39125 0.17622 0.9412 0.0
C494 C 0.35688 0.18841 0.05814 0.0
C495 C 0.38009 0.18573 0.12516 0.0
C496 C 0.40676 0.17518 0.10003 0.0
C497 C 0.4124 0.17111 0.00828 0.0
C498 C 0.32809 0.1995 0.0819 0.0
C499 C 0.43103 0.17047 0.16967 0.0
H500 H 0.43458 0.27324 0.35586 0.0
H501 H 0.34657 0.16328 0.42974 0.0
H502 H 0.45153 0.25701 0.14707 0.0
H503 H 0.41348 0.26454 0.11802 0.0
H504 H 0.44676 0.29307 0.20402 0.0
H505 H 0.30621 0.12001 0.31565 0.0
H506 H 0.31529 0.13039 0.19686 0.0
H507 H 0.34287 0.11572 0.26067 0.0
H508 H 0.34614 0.18731 0.91504 0.0
H509 H 0.43439 0.16528 0.98877 0.0
H510 H 0.34253 0.23028 0.09283 0.0
H511 H 0.31319 0.18577 0.14528 0.0
H512 H 0.30703 0.19213 0.02706 0.0
H513 H 0.4515 0.19828 0.19813 0.0
H514 H 0.44685 0.15762 0.14052 0.0
H515 H 0.41355 0.15268 0.2263 0.0
C516 C 0.21608 0.54186 0.19565 0.0
C517 C 0.24543 0.53847 0.15789 0.0
C518 C 0.2191 0.57718 0.20594 0.0
C519 C 0.25165 0.60962 0.17436 0.0
C520 C 0.28194 0.60647 0.13929 0.0
C521 C 0.27871 0.57096 0.13286 0.0
C522 C 0.18696 0.57962 0.24802 0.0
C523 C 0.31702 0.64034 0.10468 0.0
C524 C 0.23353 0.68908 0.11408 0.0
C525 C 0.2492 0.71271 0.18868 0.0
C526 C 0.2363 0.65647 0.10563 0.0
C527 C 0.25337 0.64658 0.17583 0.0
C528 C 0.27004 0.67103 0.25004 0.0
C529 C 0.26824 0.70405 0.25455 0.0
C530 C 0.21998 0.63203 0.02308 0.0
C531 C 0.28719 0.66116 0.32836 0.0
H532 H 0.19035 0.51676 0.21487 0.0
H533 H 0.30133 0.56844 0.10256 0.0
H534 H 0.1976 0.6014 0.30166 0.0
H535 H 0.17305 0.58799 0.19608 0.0
H536 H 0.1656 0.55249 0.27785 0.0
H537 H 0.30953 0.65438 0.05114 0.0
H538 H 0.3309 0.66105 0.15973 0.0
H539 H 0.33752 0.63287 0.077 0.0
H540 H 0.21859 0.69572 0.06354 0.0
H541 H 0.27977 0.72189 0.31301 0.0
H542 H 0.19473 0.60527 0.04226 0.0
H543 H 0.24061 0.62503 -0.00594 0.0
H544 H 0.21184 0.64582 0.97016 0.0
H545 H 0.2644 0.63845 0.3685 0.0
H546 H 0.30372 0.68554 0.3737 0.0
H547 H 0.30569 0.65054 0.30454 0.0
C548 C 0.6898 0.24271 0.38003 0.0
C549 C 0.70928 0.23856 0.45281 0.0
C550 C 0.65757 0.24537 0.39383 0.0
C551 C 0.64427 0.24336 0.48281 0.0
C552 C 0.66483 0.24076 0.55706 0.0
C553 C 0.69731 0.23838 0.54109 0.0
C554 C 0.6367 0.24817 0.31272 0.0
C555 C 0.65161 0.23887 0.65294 0.0
C556 C 0.56905 0.26921 0.52912 0.0
C557 C 0.53679 0.23364 0.536 0.0
C558 C 0.60426 0.27296 0.51035 0.0
C559 C 0.60713 0.2404 0.49745 0.0
C560 C 0.57437 0.20459 0.49932 0.0
C561 C 0.53965 0.20165 0.5186 0.0
C562 C 0.63851 0.31164 0.50661 0.0
C563 C 0.57616 0.16922 0.48393 0.0
H564 H 0.69919 0.24276 0.31167 0.0
H565 H 0.71254 0.23512 0.59703 0.0
H566 H 0.61041 0.22102 0.3028 0.0
H567 H 0.62869 0.26992 0.32338 0.0
H568 H 0.65361 0.25493 0.24988 0.0
H569 H 0.67253 0.24055 0.70321 0.0
H570 H 0.64582 0.26204 0.66584 0.0
H571 H 0.62495 0.21213 0.66328 0.0
H572 H 0.56718 0.29412 0.54264 0.0
H573 H 0.51484 0.17408 0.52311 0.0
H574 H 0.65123 0.31684 0.43837 0.0
H575 H 0.66004 0.31369 0.55527 0.0
H576 H 0.63177 0.33405 0.52204 0.0
H577 H 0.58981 0.17077 0.41825 0.0
H578 H 0.54791 0.14366 0.48418 0.0
H579 H 0.59348 0.16632 0.5375 0.0
C580 C 0.35077 0.5406 0.88638 0.0
C581 C 0.31568 0.53737 0.90272 0.0
C582 C 0.38225 0.57536 0.86594 0.0
C583 C 0.37871 0.60785 0.86209 0.0
C584 C 0.34328 0.60478 0.87704 0.0
C585 C 0.31212 0.56954 0.89688 0.0
C586 C 0.4193 0.57724 0.84767 0.0
C587 C 0.33829 0.63869 0.87181 0.0
C588 C 0.47215 0.69982 0.86679 0.0
C589 C 0.47874 0.70679 0.77414 0.0
C590 C 0.43856 0.66858 0.89741 0.0
C591 C 0.41144 0.64414 0.83369 0.0
C592 C 0.41719 0.65257 0.74066 0.0
C593 C 0.45048 0.68378 0.71235 0.0
C594 C 0.43272 0.66083 -0.00259 0.0
C595 C 0.3893 0.62736 0.67008 0.0
H596 H 0.35377 0.51592 0.89071 0.0
H597 H 0.28524 0.56745 0.91047 0.0
H598 H 0.42866 0.58745 0.77787 0.0
H599 H 0.44116 0.59749 0.89447 0.0
H600 H 0.41755 0.54955 0.8555 0.0
H601 H 0.35889 0.66124 0.91664 0.0
H602 H 0.34382 0.65003 0.80206 0.0
H603 H 0.30951 0.63204 0.89109 0.0
H604 H 0.49368 0.71772 0.91471 0.0
H605 H 0.45481 0.68955 0.64051 0.0
H606 H 0.43337 0.63481 0.01347 0.0
H607 H 0.40472 0.65616 0.01749 0.0
H608 H 0.45459 0.68418 0.03839 0.0
H609 H 0.38871 0.6001 0.66865 0.0
H610 H 0.39643 0.6398 0.6013 0.0
H611 H 0.36057 0.6214 0.68682 0.0
C612 C 0.75432 0.30623 0.17194 0.0
C613 C 0.78745 0.31102 0.21204 0.0
C614 C 0.75041 0.3374 0.14953 0.0
C615 C 0.78006 0.37408 0.16917 0.0
C616 C 0.81353 0.37901 0.20909 0.0
C617 C 0.81699 0.3476 0.2288 0.0
C618 C 0.71465 0.33112 0.1049 0.0
C619 C 0.84575 0.41759 0.23183 0.0
C620 C 0.79728 0.46094 0.04238 0.0
C621 C 0.78464 0.47812 0.10382 0.0
C622 C 0.79346 0.42582 0.06031 0.0
C623 C 0.77768 0.40782 0.14322 0.0
C624 C 0.76383 0.42451 0.2047 0.0
C625 C 0.76689 0.45934 0.18342 0.0
C626 C 0.80749 0.40858 0.99156 0.0
C627 C 0.74738 0.40642 0.29446 0.0
H628 H 0.73128 0.27815 0.15908 0.0
H629 H 0.84269 0.35184 0.26015 0.0
H630 H 0.7009 0.3429 0.1476 0.0
H631 H 0.72119 0.34604 0.03914 0.0
H632 H 0.69445 0.30091 0.09309 0.0
H633 H 0.86889 0.41647 0.26801 0.0
H634 H 0.85727 0.43411 0.16901 0.0
H635 H 0.83569 0.4329 0.27467 0.0
H636 H 0.80995 0.47494 0.9793 0.0
H637 H 0.75659 0.47241 0.23008 0.0
H638 H 0.78596 0.37888 0.97895 0.0
H639 H 0.83292 0.40889 0.01803 0.0
H640 H 0.81472 0.4239 0.92621 0.0
H641 H 0.72523 0.37674 0.28474 0.0
H642 H 0.73519 0.42132 0.33141 0.0
H643 H 0.76964 0.40643 0.33711 0.0
C644 C 0.34818 0.79971 0.34472 0.0
C645 C 0.32024 0.78644 0.4115 0.0
C646 C 0.37979 0.79549 0.35309 0.0
C647 C 0.38443 0.77875 0.43176 0.0
C648 C 0.35573 0.76414 0.49831 0.0
C649 C 0.3235 0.76755 0.48653 0.0
C650 C 0.40883 0.81006 0.27888 0.0
C651 C 0.35983 0.74634 0.58352 0.0
C652 C 0.46301 0.7549 0.45031 0.0
C653 C 0.49059 0.78669 0.49573 0.0
C654 C 0.42845 0.75212 0.42618 0.0
C655 C 0.42145 0.78153 0.44968 0.0
C656 C 0.45018 0.81442 0.49104 0.0
C657 C 0.48439 0.81668 0.51255 0.0
C658 C 0.39887 0.71701 0.37993 0.0
C659 C 0.44413 0.84652 0.51726 0.0
H660 H 0.34508 0.81314 0.28482 0.0
H661 H 0.3015 0.75654 0.53699 0.0
H662 H 0.43465 0.83534 0.3029 0.0
H663 H 0.41667 0.78871 0.2607 0.0
H664 H 0.39869 0.81767 0.21712 0.0
H665 H 0.33424 0.7345 0.62618 0.0
H666 H 0.36587 0.72363 0.56654 0.0
H667 H 0.38397 0.76761 0.62359 0.0
H668 H 0.46742 0.73136 0.43893 0.0
H669 H 0.50568 0.84119 0.54818 0.0
H670 H 0.38495 0.72394 0.3249 0.0
H671 H 0.37692 0.69927 0.42952 0.0
H672 H 0.41086 0.70031 0.3513 0.0
H673 H 0.4368 0.85751 0.45679 0.0
H674 H 0.46935 0.87002 0.54954 0.0
H675 H 0.42028 0.83644 0.56511 0.0
C676 C 0.68596 0.47017 0.79428 0.0
C677 C 0.71063 0.47535 0.86512 0.0
C678 C 0.65367 0.43505 0.78024 0.0
C679 C 0.64511 0.40527 0.84147 0.0
C680 C 0.67037 0.41045 0.91251 0.0
C681 C 0.70319 0.44527 0.9223 0.0
C682 C 0.62824 0.43008 0.70131 0.0
C683 C 0.66186 0.38 0.98107 0.0
C684 C 0.54107 0.33383 0.8539 0.0
C685 C 0.53909 0.30414 0.80344 0.0
C686 C 0.57578 0.36613 0.87114 0.0
C687 C 0.60895 0.36937 0.83347 0.0
C688 C 0.60714 0.33893 0.78474 0.0
C689 C 0.57225 0.30639 0.77161 0.0
C690 C 0.57677 0.39729 0.92706 0.0
C691 C 0.64157 0.34159 0.74126 0.0
H692 H 0.69172 0.49366 0.75076 0.0
H693 H 0.72202 0.44961 0.97812 0.0
H694 H 0.62188 0.40444 0.66271 0.0
H695 H 0.6012 0.42642 0.72631 0.0
H696 H 0.64091 0.45451 0.65474 0.0
H697 H 0.68486 0.38844 0.0313 0.0
H698 H 0.63564 0.37309 0.01763 0.0
H699 H 0.65712 0.35401 0.94691 0.0
H700 H 0.51536 0.33208 0.8781 0.0
H701 H 0.57067 0.28369 0.73111 0.0
H702 H 0.58385 0.42184 0.88337 0.0
H703 H 0.59888 0.40653 0.97985 0.0
H704 H 0.54942 0.38858 0.96028 0.0
H705 H 0.65087 0.3622 0.68513 0.0
H706 H 0.63605 0.31419 0.71389 0.0
H707 H 0.66511 0.35178 0.79019 0.0
loop_
_geom_bond_atom_site_label_1
_geom_bond_atom_site_label_2
_geom_bond_distance
_geom_bond_site_symmetry_2
_ccdc_geom_bond_type
Fe0 O2 1.918 1_554 S
Fe0 O5 1.997 . S
Fe0 O6 2.002 . S
Fe0 O11 1.976 . S
Fe0 O14 1.996 1_554 S
Fe1 O2 1.918 1_554 S
Fe1 O9 1.999 . S
Fe1 O12 1.995 1_554 S
Fe1 O16 1.973 1_554 S
Fe1 O19 2.003 . S
O2 Fe0 1.918 1_556 S
O2 Fe1 1.918 1_556 S
O2 Fe3 1.918 . S
Fe3 O2 1.918 . S
Fe3 O4 2.002 1_556 S
Fe3 O13 1.976 . S
Fe3 O17 1.996 . S
Fe3 O20 1.997 . S
O4 Fe3 2.002 1_554 S
O4 C21 1.295 . S
O5 Fe0 1.997 . S
O5 C21 1.235 . S
O6 Fe0 2.002 . S
O6 C7 1.295 . S
C7 O6 1.295 . S
C7 O9 1.235 . S
C8 O13 1.287 . S
C8 O14 1.255 . S
O9 Fe1 1.999 . S
O9 C7 1.235 . S
C10 O16 1.287 . S
C10 O17 1.255 . S
O11 Fe0 1.976 . S
O11 C18 1.287 . S
O12 Fe1 1.995 1_556 S
O12 C18 1.255 1_556 S
O13 Fe3 1.976 . S
O13 C8 1.287 . S
O14 Fe0 1.996 1_556 S
O14 C8 1.255 . S
C15 O19 1.297 . S
C15 O20 1.231 1_554 S
O16 Fe1 1.973 1_556 S
O16 C10 1.287 . S
O17 Fe3 1.996 . S
O17 C10 1.255 . S
C18 O11 1.287 . S
C18 O12 1.255 1_554 S
O19 Fe1 2.003 . S
O19 C15 1.297 . S
O20 Fe3 1.997 . S
O20 C15 1.231 1_556 S
C21 O4 1.295 . S
C21 O5 1.235 . S
Fe22 O24 1.918 . S
Fe22 O27 1.997 . S
Fe22 O28 2.002 . S
Fe22 O33 1.976 . S
Fe22 O36 1.996 . S
Fe23 O24 1.918 . S
Fe23 O31 1.997 . S
Fe23 O34 1.996 . S
Fe23 O38 1.976 . S
Fe23 O41 2.002 . S
O24 Fe22 1.918 . S
O24 Fe23 1.918 . S
O24 Fe25 1.918 . S
Fe25 O24 1.918 . S
Fe25 O26 2.002 . S
Fe25 O35 1.976 . S
Fe25 O39 1.996 . S
Fe25 O42 1.997 . S
O26 Fe25 2.002 . S
O26 C43 1.295 . S
O27 Fe22 1.997 . S
O27 C43 1.235 . S
O28 Fe22 2.002 . S
O28 C29 1.295 . S
C29 O28 1.295 . S
C29 O31 1.235 . S
C30 O35 1.287 . S
C30 O36 1.255 . S
O31 Fe23 1.997 . S
O31 C29 1.235 . S
C32 O38 1.287 . S
C32 O39 1.255 . S
O33 Fe22 1.976 . S
O33 C40 1.287 . S
O34 Fe23 1.996 . S
O34 C40 1.255 . S
O35 Fe25 1.976 . S
O35 C30 1.287 . S
O36 Fe22 1.996 . S
O36 C30 1.255 . S
C37 O41 1.295 . S
C37 O42 1.235 . S
O38 Fe23 1.976 . S
O38 C32 1.287 . S
O39 Fe25 1.996 . S
O39 C32 1.255 . S
C40 O33 1.287 . S
C40 O34 1.255 . S
O41 Fe23 2.002 . S
O41 C37 1.295 . S
O42 Fe25 1.997 . S
O42 C37 1.235 . S
C43 O26 1.295 . S
C43 O27 1.235 . S
Fe44 O46 1.918 . S
Fe44 O49 1.997 . S
Fe44 O50 2.002 . S
Fe44 O55 1.976 . S
Fe44 O58 1.996 . S
Fe45 O46 1.918 . S
Fe45 O53 1.997 . S
Fe45 O56 1.996 . S
Fe45 O60 1.976 . S
Fe45 O63 2.002 . S
O46 Fe44 1.918 . S
O46 Fe45 1.918 . S
O46 Fe47 1.918 . S
Fe47 O46 1.918 . S
Fe47 O48 2.002 . S
Fe47 O57 1.976 . S
Fe47 O61 1.996 . S
Fe47 O64 1.997 . S
O48 Fe47 2.002 . S
O48 C65 1.295 . S
O49 Fe44 1.997 . S
O49 C65 1.235 . S
O50 Fe44 2.002 . S
O50 C51 1.295 . S
C51 O50 1.295 . S
C51 O53 1.235 . S
C52 O57 1.287 . S
C52 O58 1.255 . S
O53 Fe45 1.997 . S
O53 C51 1.235 . S
C54 O60 1.287 . S
C54 O61 1.255 . S
O55 Fe44 1.976 . S
O55 C62 1.287 . S
O56 Fe45 1.996 . S
O56 C62 1.255 . S
O57 Fe47 1.976 . S
O57 C52 1.287 . S
O58 Fe44 1.996 . S
O58 C52 1.255 . S
C59 O63 1.295 . S
C59 O64 1.235 . S
O60 Fe45 1.976 . S
O60 C54 1.287 . S
O61 Fe47 1.996 . S
O61 C54 1.255 . S
C62 O55 1.287 . S
C62 O56 1.255 . S
O63 Fe45 2.002 . S
O63 C59 1.295 . S
O64 Fe47 1.997 . S
O64 C59 1.235 . S
C65 O48 1.295 . S
C65 O49 1.235 . S
Fe66 O68 1.918 . S
Fe66 O71 1.997 . S
Fe66 O72 2.002 1_556 S
Fe66 O77 1.976 . S
Fe66 O80 1.996 . S
Fe67 O68 1.918 1_554 S
Fe67 O75 1.997 . S
Fe67 O78 1.996 1_554 S
Fe67 O82 1.976 . S
Fe67 O85 2.002 . S
O68 Fe66 1.918 . S
O68 Fe67 1.918 1_556 S
O68 Fe69 1.918 1_556 S
Fe69 O68 1.918 1_554 S
Fe69 O70 2.003 . S
Fe69 O79 1.973 1_554 S
Fe69 O83 1.995 1_554 S
Fe69 O86 1.999 . S
O70 Fe69 2.003 . S
O70 C87 1.297 . S
O71 Fe66 1.997 . S
O71 C87 1.231 1_556 S
O72 Fe66 2.002 1_554 S
O72 C73 1.295 . S
C73 O72 1.295 . S
C73 O75 1.235 . S
C74 O79 1.287 . S
C74 O80 1.255 . S
O75 Fe67 1.997 . S
O75 C73 1.235 . S
C76 O82 1.287 . S
C76 O83 1.255 1_554 S
O77 Fe66 1.976 . S
O77 C84 1.287 . S
O78 Fe67 1.996 1_556 S
O78 C84 1.255 . S
O79 Fe69 1.973 1_556 S
O79 C74 1.287 . S
O80 Fe66 1.996 . S
O80 C74 1.255 . S
C81 O85 1.295 . S
C81 O86 1.235 . S
O82 Fe67 1.976 . S
O82 C76 1.287 . S
O83 Fe69 1.995 1_556 S
O83 C76 1.255 1_556 S
C84 O77 1.287 . S
C84 O78 1.255 . S
O85 Fe67 2.002 . S
O85 C81 1.295 . S
O86 Fe69 1.999 . S
O86 C81 1.235 . S
C87 O70 1.297 . S
C87 O71 1.231 1_554 S
Fe88 O90 1.918 . S
Fe88 O93 1.997 . S
Fe88 O94 2.002 . S
Fe88 O99 1.976 . S
Fe88 O102 1.996 . S
Fe89 O90 1.918 . S
Fe89 O97 1.997 . S
Fe89 O100 1.996 . S
Fe89 O104 1.976 . S
Fe89 O107 2.002 . S
O90 Fe88 1.918 . S
O90 Fe89 1.918 . S
O90 Fe91 1.918 . S
Fe91 O90 1.918 . S
Fe91 O92 2.002 . S
Fe91 O101 1.976 . S
Fe91 O105 1.996 . S
Fe91 O108 1.997 . S
O92 Fe91 2.002 . S
O92 C109 1.295 . S
O93 Fe88 1.997 . S
O93 C109 1.235 . S
O94 Fe88 2.002 . S
O94 C95 1.295 . S
C95 O94 1.295 . S
C95 O97 1.235 . S
C96 O101 1.287 . S
C96 O102 1.255 . S
O97 Fe89 1.997 . S
O97 C95 1.235 . S
C98 O104 1.287 . S
C98 O105 1.255 . S
O99 Fe88 1.976 . S
O99 C106 1.287 . S
O100 Fe89 1.996 . S
O100 C106 1.255 . S
O101 Fe91 1.976 . S
O101 C96 1.287 . S
O102 Fe88 1.996 . S
O102 C96 1.255 . S
C103 O107 1.295 . S
C103 O108 1.235 . S
O104 Fe89 1.976 . S
O104 C98 1.287 . S
O105 Fe91 1.996 . S
O105 C98 1.255 . S
C106 O99 1.287 . S
C106 O100 1.255 . S
O107 Fe89 2.002 . S
O107 C103 1.295 . S
O108 Fe91 1.997 . S
O108 C103 1.235 . S
C109 O92 1.295 . S
C109 O93 1.235 . S
Fe110 O112 1.918 . S
Fe110 O115 1.997 . S
Fe110 O116 2.002 . S
Fe110 O121 1.976 . S
Fe110 O124 1.996 . S
Fe111 O112 1.918 . S
Fe111 O119 1.997 . S
Fe111 O122 1.996 . S
Fe111 O126 1.976 . S
Fe111 O129 2.002 . S
O112 Fe110 1.918 . S
O112 Fe111 1.918 . S
O112 Fe113 1.918 . S
Fe113 O112 1.918 . S
Fe113 O114 2.002 . S
Fe113 O123 1.976 . S
Fe113 O127 1.996 . S
Fe113 O130 1.997 . S
O114 Fe113 2.002 . S
O114 C131 1.295 . S
O115 Fe110 1.997 . S
O115 C131 1.235 . S
O116 Fe110 2.002 . S
O116 C117 1.295 . S
C117 O116 1.295 . S
C117 O119 1.235 . S
C118 O123 1.287 . S
C118 O124 1.255 . S
O119 Fe111 1.997 . S
O119 C117 1.235 . S
C120 O126 1.287 . S
C120 O127 1.255 . S
O121 Fe110 1.976 . S
O121 C128 1.287 . S
O122 Fe111 1.996 . S
O122 C128 1.255 . S
O123 Fe113 1.976 . S
O123 C118 1.287 . S
O124 Fe110 1.996 . S
O124 C118 1.255 . S
C125 O129 1.295 . S
C125 O130 1.235 . S
O126 Fe111 1.976 . S
O126 C120 1.287 . S
O127 Fe113 1.996 . S
O127 C120 1.255 . S
C128 O121 1.287 . S
C128 O122 1.255 . S
O129 Fe111 2.002 . S
O129 C125 1.295 . S
O130 Fe113 1.997 . S
O130 C125 1.235 . S
C131 O114 1.295 . S
C131 O115 1.235 . S
C132 C133 1.391 . S
C132 C134 1.394 . S
C132 H148 0.931 . S
C133 C132 1.391 . S
C133 C137 1.376 . S
C134 C132 1.394 . S
C134 C135 1.369 . S
C134 C138 1.531 . S
C135 C134 1.369 . S
C135 C136 1.410 . S
C135 C143 1.503 . S
C136 C135 1.410 . S
C136 C137 1.392 . S
C136 C139 1.511 . S
C137 C133 1.376 . S
C137 C136 1.392 . S
C137 H149 0.929 . S
C138 C134 1.531 . S
C138 H150 0.960 . S
C138 H151 0.962 . S
C138 H152 0.960 . S
C139 C136 1.511 . S
C139 H153 0.961 . S
C139 H154 0.961 . S
C139 H155 0.961 . S
C140 C141 1.370 . S
C140 C142 1.363 . S
C140 H156 0.931 1_556 S
C141 C140 1.370 . S
C141 C145 1.408 . S
C142 C140 1.363 . S
C142 C143 1.370 . S
C142 C146 1.524 . S
C143 C135 1.503 . S
C143 C142 1.370 . S
C143 C144 1.403 . S
C144 C143 1.403 . S
C144 C145 1.404 . S
C144 C147 1.539 . S
C145 C141 1.408 . S
C145 C144 1.404 . S
C145 H157 0.930 . S
C146 C142 1.524 . S
C146 H158 0.956 . S
C146 H159 0.961 . S
C146 H160 0.961 . S
C147 C144 1.539 . S
C147 H161 0.958 . S
C147 H162 0.961 . S
C147 H163 0.960 . S
H148 C132 0.931 . S
H149 C137 0.929 . S
H150 C138 0.960 . S
H151 C138 0.962 . S
H152 C138 0.960 . S
H153 C139 0.961 . S
H154 C139 0.961 . S
H155 C139 0.961 . S
H156 C140 0.931 1_554 S
H157 C145 0.930 . S
H158 C146 0.956 . S
H159 C146 0.961 . S
H160 C146 0.961 . S
H161 C147 0.958 . S
H162 C147 0.961 . S
H163 C147 0.960 . S
C164 C165 1.391 . S
C164 C166 1.394 . S
C164 H180 0.931 1_554 S
C165 C164 1.391 . S
C165 C169 1.376 . S
C166 C164 1.394 . S
C166 C167 1.369 . S
C166 C170 1.531 1_455 S
C167 C166 1.369 . S
C167 C168 1.410 . S
C167 C175 1.503 1_455 S
C168 C167 1.410 . S
C168 C169 1.392 . S
C168 C171 1.511 . S
C169 C165 1.376 . S
C169 C168 1.392 . S
C169 H181 0.929 . S
C170 C166 1.531 1_655 S
C170 H182 0.960 . S
C170 H183 0.962 . S
C170 H184 0.960 1_554 S
C171 C168 1.511 . S
C171 H185 0.961 . S
C171 H186 0.961 . S
C171 H187 0.961 . S
C172 C173 1.370 . S
C172 C174 1.363 . S
C172 H188 0.931 . S
C173 C172 1.370 . S
C173 C177 1.408 . S
C174 C172 1.363 . S
C174 C175 1.370 . S
C174 C178 1.524 1_655 S
C175 C167 1.503 1_655 S
C175 C174 1.370 . S
C175 C176 1.403 . S
C176 C175 1.403 . S
C176 C177 1.404 . S
C176 C179 1.539 . S
C177 C173 1.408 . S
C177 C176 1.404 . S
C177 H189 0.930 . S
C178 C174 1.524 1_455 S
C178 H190 0.956 . S
C178 H191 0.961 . S
C178 H192 0.961 1_455 S
C179 C176 1.539 . S
C179 H193 0.958 . S
C179 H194 0.961 . S
C179 H195 0.960 . S
H180 C164 0.931 1_556 S
H181 C169 0.929 . S
H182 C170 0.960 . S
H183 C170 0.962 . S
H184 C170 0.960 1_556 S
H185 C171 0.961 . S
H186 C171 0.961 . S
H187 C171 0.961 . S
H188 C172 0.931 . S
H189 C177 0.930 . S
H190 C178 0.956 . S
H191 C178 0.961 . S
H192 C178 0.961 1_655 S
H193 C179 0.958 . S
H194 C179 0.961 . S
H195 C179 0.960 . S
C196 C197 1.391 . S
C196 C198 1.394 . S
C196 H212 0.931 . S
C197 C196 1.391 . S
C197 C201 1.376 . S
C198 C196 1.394 . S
C198 C199 1.369 . S
C198 C202 1.531 . S
C199 C198 1.369 . S
C199 C200 1.410 . S
C199 C207 1.503 1_545 S
C200 C199 1.410 . S
C200 C201 1.392 . S
C200 C203 1.511 . S
C201 C197 1.376 . S
C201 C200 1.392 . S
C201 H213 0.929 . S
C202 C198 1.531 . S
C202 H214 0.960 . S
C202 H215 0.962 . S
C202 H216 0.960 . S
C203 C200 1.511 . S
C203 H217 0.961 . S
C203 H218 0.953 1_545 S
C203 H219 0.961 . S
C204 C205 1.370 . S
C204 C206 1.363 . S
C204 H220 0.931 . S
C205 C204 1.370 . S
C205 C209 1.408 . S
C206 C204 1.363 . S
C206 C207 1.370 . S
C206 C210 1.524 . S
C207 C199 1.503 1_565 S
C207 C206 1.370 . S
C207 C208 1.403 . S
C208 C207 1.403 . S
C208 C209 1.404 . S
C208 C211 1.539 1_565 S
C209 C205 1.408 . S
C209 C208 1.404 . S
C209 H221 0.930 . S
C210 C206 1.524 . S
C210 H222 0.956 . S
C210 H223 0.961 . S
C210 H224 0.961 . S
C211 C208 1.539 1_545 S
C211 H225 0.958 . S
C211 H226 0.961 . S
C211 H227 0.960 . S
H212 C196 0.931 . S
H213 C201 0.929 . S
H214 C202 0.960 . S
H215 C202 0.962 . S
H216 C202 0.960 . S
H217 C203 0.961 . S
H218 C203 0.953 1_565 S
H219 C203 0.961 . S
H220 C204 0.931 . S
H221 C209 0.930 . S
H222 C210 0.956 . S
H223 C210 0.961 . S
H224 C210 0.961 . S
H225 C211 0.958 . S
H226 C211 0.961 . S
H227 C211 0.960 . S
C228 C229 1.391 . S
C228 C230 1.394 . S
C228 H244 0.931 . S
C229 C228 1.391 . S
C229 C233 1.376 . S
C230 C228 1.394 . S
C230 C231 1.369 . S
C230 C234 1.531 . S
C231 C230 1.369 . S
C231 C232 1.410 . S
C231 C239 1.503 . S
C232 C231 1.410 . S
C232 C233 1.392 . S
C232 C235 1.511 . S
C233 C229 1.376 . S
C233 C232 1.392 . S
C233 H245 0.929 . S
C234 C230 1.531 . S
C234 H246 0.960 . S
C234 H247 0.962 . S
C234 H248 0.960 . S
C235 C232 1.511 . S
C235 H249 0.961 . S
C235 H250 0.961 . S
C235 H251 0.961 . S
C236 C237 1.370 . S
C236 C238 1.363 . S
C236 H252 0.931 1_556 S
C237 C236 1.370 . S
C237 C241 1.408 . S
C238 C236 1.363 . S
C238 C239 1.370 . S
C238 C242 1.524 . S
C239 C231 1.503 . S
C239 C238 1.370 . S
C239 C240 1.403 . S
C240 C239 1.403 . S
C240 C241 1.404 . S
C240 C243 1.539 . S
C241 C237 1.408 . S
C241 C240 1.404 . S
C241 H253 0.930 . S
C242 C238 1.524 . S
C242 H254 0.956 . S
C242 H255 0.961 . S
C242 H256 0.961 1_556 S
C243 C240 1.539 . S
C243 H257 0.958 . S
C243 H258 0.961 . S
C243 H259 0.960 . S
H244 C228 0.931 . S
H245 C233 0.929 . S
H246 C234 0.960 . S
H247 C234 0.962 . S
H248 C234 0.960 . S
H249 C235 0.961 . S
H250 C235 0.961 . S
H251 C235 0.961 . S
H252 C236 0.931 1_554 S
H253 C241 0.930 . S
H254 C242 0.956 . S
H255 C242 0.961 . S
H256 C242 0.961 1_554 S
H257 C243 0.958 . S
H258 C243 0.961 . S
H259 C243 0.960 . S
C260 C261 1.391 . S
C260 C262 1.394 . S
C260 H276 0.931 . S
C261 C260 1.391 . S
C261 C265 1.376 . S
C262 C260 1.394 . S
C262 C263 1.369 . S
C262 C266 1.531 . S
C263 C262 1.369 . S
C263 C264 1.410 . S
C263 C271 1.503 1_455 S
C264 C263 1.410 . S
C264 C265 1.392 . S
C264 C267 1.510 1_455 S
C265 C261 1.376 . S
C265 C264 1.392 . S
C265 H277 0.929 . S
C266 C262 1.531 . S
C266 H278 0.960 1_455 S
C266 H279 0.962 . S
C266 H280 0.960 . S
C267 C264 1.510 1_655 S
C267 H281 0.960 1_655 S
C267 H282 0.962 . S
C267 H283 0.961 . S
C268 C269 1.370 . S
C268 C270 1.363 . S
C268 H284 0.931 1_554 S
C269 C268 1.370 . S
C269 C273 1.408 . S
C270 C268 1.363 . S
C270 C271 1.370 . S
C270 C274 1.524 1_655 S
C271 C263 1.503 1_655 S
C271 C270 1.370 . S
C271 C272 1.403 . S
C272 C271 1.403 . S
C272 C273 1.404 . S
C272 C275 1.539 . S
C273 C269 1.408 . S
C273 C272 1.404 . S
C273 H285 0.930 . S
C274 C270 1.524 1_455 S
C274 H286 0.956 . S
C274 H287 0.961 . S
C274 H288 0.961 1_554 S
C275 C272 1.539 . S
C275 H289 0.958 . S
C275 H290 0.961 . S
C275 H291 0.960 . S
H276 C260 0.931 . S
H277 C265 0.929 . S
H278 C266 0.960 1_655 S
H279 C266 0.962 . S
H280 C266 0.960 . S
H281 C267 0.960 1_455 S
H282 C267 0.962 . S
H283 C267 0.961 . S
H284 C268 0.931 1_556 S
H285 C273 0.930 . S
H286 C274 0.956 . S
H287 C274 0.961 . S
H288 C274 0.961 1_556 S
H289 C275 0.958 . S
H290 C275 0.961 . S
H291 C275 0.960 . S
C292 C293 1.391 . S
C292 C294 1.394 . S
C292 H308 0.931 . S
C293 C292 1.391 . S
C293 C297 1.376 . S
C294 C292 1.394 . S
C294 C295 1.369 . S
C294 C298 1.531 1_545 S
C295 C294 1.369 . S
C295 C296 1.410 . S
C295 C303 1.503 1_545 S
C296 C295 1.410 . S
C296 C297 1.392 . S
C296 C299 1.511 . S
C297 C293 1.376 . S
C297 C296 1.392 . S
C297 H309 0.929 . S
C298 C294 1.531 1_565 S
C298 H310 0.960 . S
C298 H311 0.962 . S
C298 H312 0.960 . S
C299 C296 1.511 . S
C299 H313 0.961 . S
C299 H314 0.961 . S
C299 H315 0.961 . S
C300 C301 1.370 . S
C300 C302 1.363 . S
C300 H316 0.931 . S
C301 C300 1.370 . S
C301 C305 1.408 . S
C302 C300 1.363 . S
C302 C303 1.370 . S
C302 C306 1.524 . S
C303 C295 1.503 1_565 S
C303 C302 1.370 . S
C303 C304 1.403 . S
C304 C303 1.403 . S
C304 C305 1.404 . S
C304 C307 1.549 . S
C305 C301 1.408 . S
C305 C304 1.404 . S
C305 H317 0.930 . S
C306 C302 1.524 . S
C306 H318 0.956 . S
C306 H319 0.961 . S
C306 H320 0.961 . S
C307 C304 1.549 . S
C307 H321 0.955 . S
C307 H322 0.961 . S
C307 H323 0.953 1_565 S
H308 C292 0.931 . S
H309 C297 0.929 . S
H310 C298 0.960 . S
H311 C298 0.962 . S
H312 C298 0.960 . S
H313 C299 0.961 . S
H314 C299 0.961 . S
H315 C299 0.961 . S
H316 C300 0.931 . S
H317 C305 0.930 . S
H318 C306 0.956 . S
H319 C306 0.961 . S
H320 C306 0.961 . S
H321 C307 0.955 . S
H322 C307 0.961 . S
H323 C307 0.953 1_545 S
C324 C325 1.391 . S
C324 C326 1.394 . S
C324 H340 0.931 . S
C325 C324 1.391 . S
C325 C329 1.376 . S
C326 C324 1.394 . S
C326 C327 1.369 . S
C326 C330 1.531 . S
C327 C326 1.369 . S
C327 C328 1.410 . S
C327 C335 1.503 . S
C328 C327 1.410 . S
C328 C329 1.392 . S
C328 C331 1.511 . S
C329 C325 1.376 . S
C329 C328 1.392 . S
C329 H341 0.929 . S
C330 C326 1.531 . S
C330 H342 0.960 . S
C330 H343 0.962 . S
C330 H344 0.960 . S
C331 C328 1.511 . S
C331 H345 0.961 . S
C331 H346 0.961 . S
C331 H347 0.961 . S
C332 C333 1.370 . S
C332 C334 1.363 . S
C332 H348 0.931 . S
C333 C332 1.370 . S
C333 C337 1.408 . S
C334 C332 1.363 . S
C334 C335 1.370 . S
C334 C338 1.524 . S
C335 C327 1.503 . S
C335 C334 1.370 . S
C335 C336 1.403 . S
C336 C335 1.403 . S
C336 C337 1.404 . S
C336 C339 1.539 . S
C337 C333 1.408 . S
C337 C336 1.404 . S
C337 H349 0.930 . S
C338 C334 1.524 . S
C338 H350 0.956 . S
C338 H351 0.961 . S
C338 H352 0.961 . S
C339 C336 1.539 . S
C339 H353 0.958 . S
C339 H354 0.961 . S
C339 H355 0.960 . S
H340 C324 0.931 . S
H341 C329 0.929 . S
H342 C330 0.960 . S
H343 C330 0.962 . S
H344 C330 0.960 . S
H345 C331 0.961 . S
H346 C331 0.961 . S
H347 C331 0.961 . S
H348 C332 0.931 . S
H349 C337 0.930 . S
H350 C338 0.956 . S
H351 C338 0.961 . S
H352 C338 0.961 . S
H353 C339 0.958 . S
H354 C339 0.961 . S
H355 C339 0.960 . S
C356 C357 1.391 . S
C356 C358 1.394 1_554 S
C356 H372 0.931 . S
C357 C356 1.391 . S
C357 C361 1.376 . S
C358 C356 1.394 1_556 S
C358 C359 1.369 . S
C358 C362 1.531 . S
C359 C358 1.369 . S
C359 C360 1.410 . S
C359 C367 1.503 . S
C360 C359 1.410 . S
C360 C361 1.392 1_556 S
C360 C363 1.511 . S
C361 C357 1.376 . S
C361 C360 1.392 1_554 S
C361 H373 0.929 . S
C362 C358 1.531 . S
C362 H374 0.960 . S
C362 H375 0.962 . S
C362 H376 0.960 . S
C363 C360 1.511 . S
C363 H377 0.961 . S
C363 H378 0.961 . S
C363 H379 0.961 . S
C364 C365 1.370 . S
C364 C366 1.363 . S
C364 H380 0.931 . S
C365 C364 1.370 . S
C365 C369 1.408 . S
C366 C364 1.363 . S
C366 C367 1.370 . S
C366 C370 1.524 . S
C367 C359 1.503 . S
C367 C366 1.370 . S
C367 C368 1.403 . S
C368 C367 1.403 . S
C368 C369 1.404 . S
C368 C371 1.539 . S
C369 C365 1.408 . S
C369 C368 1.404 . S
C369 H381 0.930 . S
C370 C366 1.524 . S
C370 H382 0.956 . S
C370 H383 0.961 . S
C370 H384 0.961 . S
C371 C368 1.539 . S
C371 H385 0.958 . S
C371 H386 0.961 . S
C371 H387 0.960 . S
H372 C356 0.931 . S
H373 C361 0.929 . S
H374 C362 0.960 . S
H375 C362 0.962 . S
H376 C362 0.960 . S
H377 C363 0.961 . S
H378 C363 0.961 . S
H379 C363 0.961 . S
H380 C364 0.931 . S
H381 C369 0.930 . S
H382 C370 0.956 . S
H383 C370 0.961 . S
H384 C370 0.961 . S
H385 C371 0.958 . S
H386 C371 0.961 . S
H387 C371 0.960 . S
C388 C389 1.391 . S
C388 C390 1.394 . S
C388 H404 0.931 . S
C389 C388 1.391 . S
C389 C393 1.376 . S
C390 C388 1.394 . S
C390 C391 1.369 . S
C390 C394 1.531 . S
C391 C390 1.369 . S
C391 C392 1.410 . S
C391 C399 1.503 . S
C392 C391 1.410 . S
C392 C393 1.392 . S
C392 C395 1.511 . S
C393 C389 1.376 . S
C393 C392 1.392 . S
C393 H405 0.929 . S
C394 C390 1.531 . S
C394 H406 0.960 . S
C394 H407 0.962 . S
C394 H408 0.960 . S
C395 C392 1.511 . S
C395 H409 0.961 . S
C395 H410 0.961 . S
C395 H411 0.961 . S
C396 C397 1.370 . S
C396 C398 1.363 1_556 S
C396 H412 0.931 . S
C397 C396 1.370 . S
C397 C401 1.408 . S
C398 C396 1.363 1_554 S
C398 C399 1.370 . S
C398 C402 1.524 . S
C399 C391 1.503 . S
C399 C398 1.370 . S
C399 C400 1.403 . S
C400 C399 1.403 . S
C400 C401 1.404 1_554 S
C400 C403 1.539 . S
C401 C397 1.408 . S
C401 C400 1.404 1_556 S
C401 H413 0.930 . S
C402 C398 1.524 . S
C402 H414 0.956 . S
C402 H415 0.961 . S
C402 H416 0.961 . S
C403 C400 1.539 . S
C403 H417 0.958 . S
C403 H418 0.961 . S
C403 H419 0.960 . S
H404 C388 0.931 . S
H405 C393 0.929 . S
H406 C394 0.960 . S
H407 C394 0.962 . S
H408 C394 0.960 . S
H409 C395 0.961 . S
H410 C395 0.961 . S
H411 C395 0.961 . S
H412 C396 0.931 . S
H413 C401 0.930 . S
H414 C402 0.956 . S
H415 C402 0.961 . S
H416 C402 0.961 . S
H417 C403 0.958 . S
H418 C403 0.961 . S
H419 C403 0.960 . S
C420 C421 1.391 . S
C420 C422 1.394 . S
C420 H436 0.931 . S
C421 C420 1.391 . S
C421 C425 1.376 . S
C422 C420 1.394 . S
C422 C423 1.369 . S
C422 C426 1.531 . S
C423 C422 1.369 . S
C423 C424 1.410 . S
C423 C431 1.503 . S
C424 C423 1.410 . S
C424 C425 1.392 . S
C424 C427 1.511 . S
C425 C421 1.376 . S
C425 C424 1.392 . S
C425 H437 0.929 . S
C426 C422 1.531 . S
C426 H438 0.960 . S
C426 H439 0.962 . S
C426 H440 0.960 . S
C427 C424 1.511 . S
C427 H441 0.961 . S
C427 H442 0.961 . S
C427 H443 0.961 . S
C428 C429 1.370 . S
C428 C430 1.363 . S
C428 H444 0.931 . S
C429 C428 1.370 . S
C429 C433 1.408 . S
C430 C428 1.363 . S
C430 C431 1.370 . S
C430 C434 1.524 . S
C431 C423 1.503 . S
C431 C430 1.370 . S
C431 C432 1.403 . S
C432 C431 1.403 . S
C432 C433 1.404 . S
C432 C435 1.539 . S
C433 C429 1.408 . S
C433 C432 1.404 . S
C433 H445 0.930 . S
C434 C430 1.524 . S
C434 H446 0.956 . S
C434 H447 0.961 . S
C434 H448 0.961 . S
C435 C432 1.539 . S
C435 H449 0.958 . S
C435 H450 0.961 . S
C435 H451 0.960 . S
H436 C420 0.931 . S
H437 C425 0.929 . S
H438 C426 0.960 . S
H439 C426 0.962 . S
H440 C426 0.960 . S
H441 C427 0.961 . S
H442 C427 0.961 . S
H443 C427 0.961 . S
H444 C428 0.931 . S
H445 C433 0.930 . S
H446 C434 0.956 . S
H447 C434 0.961 . S
H448 C434 0.961 . S
H449 C435 0.958 . S
H450 C435 0.961 . S
H451 C435 0.960 . S
C452 C453 1.391 . S
C452 C454 1.394 . S
C452 H468 0.931 . S
C453 C452 1.391 . S
C453 C457 1.376 . S
C454 C452 1.394 . S
C454 C455 1.369 . S
C454 C458 1.531 . S
C455 C454 1.369 . S
C455 C456 1.410 . S
C455 C463 1.503 . S
C456 C455 1.410 . S
C456 C457 1.392 . S
C456 C459 1.511 . S
C457 C453 1.376 . S
C457 C456 1.392 . S
C457 H469 0.929 . S
C458 C454 1.531 . S
C458 H470 0.960 . S
C458 H471 0.962 . S
C458 H472 0.960 . S
C459 C456 1.511 . S
C459 H473 0.961 . S
C459 H474 0.961 . S
C459 H475 0.961 . S
C460 C461 1.370 . S
C460 C462 1.363 1_554 S
C460 H476 0.931 . S
C461 C460 1.370 . S
C461 C465 1.408 . S
C462 C460 1.363 1_556 S
C462 C463 1.370 . S
C462 C466 1.524 . S
C463 C455 1.503 . S
C463 C462 1.370 . S
C463 C464 1.403 . S
C464 C463 1.403 . S
C464 C465 1.404 1_556 S
C464 C467 1.539 . S
C465 C461 1.408 . S
C465 C464 1.404 1_554 S
C465 H477 0.930 . S
C466 C462 1.524 . S
C466 H478 0.956 . S
C466 H479 0.961 . S
C466 H480 0.961 . S
C467 C464 1.539 . S
C467 H481 0.958 . S
C467 H482 0.961 . S
C467 H483 0.960 . S
H468 C452 0.931 . S
H469 C457 0.929 . S
H470 C458 0.960 . S
H471 C458 0.962 . S
H472 C458 0.960 . S
H473 C459 0.961 . S
H474 C459 0.961 . S
H475 C459 0.961 . S
H476 C460 0.931 . S
H477 C465 0.930 . S
H478 C466 0.956 . S
H479 C466 0.961 . S
H480 C466 0.961 . S
H481 C467 0.958 . S
H482 C467 0.961 . S
H483 C467 0.960 . S
C484 C485 1.391 . S
C484 C486 1.394 . S
C484 H500 0.931 . S
C485 C484 1.391 . S
C485 C489 1.376 . S
C486 C484 1.394 . S
C486 C487 1.369 . S
C486 C490 1.531 . S
C487 C486 1.369 . S
C487 C488 1.410 . S
C487 C495 1.503 . S
C488 C487 1.410 . S
C488 C489 1.392 . S
C488 C491 1.511 . S
C489 C485 1.376 . S
C489 C488 1.392 . S
C489 H501 0.929 . S
C490 C486 1.531 . S
C490 H502 0.960 . S
C490 H503 0.962 . S
C490 H504 0.960 . S
C491 C488 1.511 . S
C491 H505 0.961 . S
C491 H506 0.961 . S
C491 H507 0.961 . S
C492 C493 1.370 . S
C492 C494 1.363 1_556 S
C492 H508 0.931 . S
C493 C492 1.370 . S
C493 C497 1.408 . S
C494 C492 1.363 1_554 S
C494 C495 1.370 . S
C494 C498 1.524 . S
C495 C487 1.503 . S
C495 C494 1.370 . S
C495 C496 1.403 . S
C496 C495 1.403 . S
C496 C497 1.404 1_554 S
C496 C499 1.539 . S
C497 C493 1.408 . S
C497 C496 1.404 1_556 S
C497 H509 0.930 . S
C498 C494 1.524 . S
C498 H510 0.956 . S
C498 H511 0.961 . S
C498 H512 0.961 . S
C499 C496 1.539 . S
C499 H513 0.958 . S
C499 H514 0.961 . S
C499 H515 0.960 . S
H500 C484 0.931 . S
H501 C489 0.929 . S
H502 C490 0.960 . S
H503 C490 0.962 . S
H504 C490 0.960 . S
H505 C491 0.961 . S
H506 C491 0.961 . S
H507 C491 0.961 . S
H508 C492 0.931 . S
H509 C497 0.930 . S
H510 C498 0.956 . S
H511 C498 0.961 . S
H512 C498 0.961 . S
H513 C499 0.958 . S
H514 C499 0.961 . S
H515 C499 0.960 . S
C516 C517 1.391 . S
C516 C518 1.394 . S
C516 H532 0.931 . S
C517 C516 1.391 . S
C517 C521 1.376 . S
C518 C516 1.394 . S
C518 C519 1.369 . S
C518 C522 1.531 . S
C519 C518 1.369 . S
C519 C520 1.410 . S
C519 C527 1.503 . S
C520 C519 1.410 . S
C520 C521 1.392 . S
C520 C523 1.511 . S
C521 C517 1.376 . S
C521 C520 1.392 . S
C521 H533 0.929 . S
C522 C518 1.531 . S
C522 H534 0.960 . S
C522 H535 0.962 . S
C522 H536 0.960 . S
C523 C520 1.511 . S
C523 H537 0.961 . S
C523 H538 0.961 . S
C523 H539 0.961 . S
C524 C525 1.370 . S
C524 C526 1.363 . S
C524 H540 0.931 . S
C525 C524 1.370 . S
C525 C529 1.408 . S
C526 C524 1.363 . S
C526 C527 1.370 . S
C526 C530 1.524 . S
C527 C519 1.503 . S
C527 C526 1.370 . S
C527 C528 1.403 . S
C528 C527 1.403 . S
C528 C529 1.404 . S
C528 C531 1.539 . S
C529 C525 1.408 . S
C529 C528 1.404 . S
C529 H541 0.930 . S
C530 C526 1.524 . S
C530 H542 0.956 . S
C530 H543 0.961 . S
C530 H544 0.959 1_554 S
C531 C528 1.539 . S
C531 H545 0.958 . S
C531 H546 0.961 . S
C531 H547 0.960 . S
H532 C516 0.931 . S
H533 C521 0.929 . S
H534 C522 0.960 . S
H535 C522 0.962 . S
H536 C522 0.960 . S
H537 C523 0.961 . S
H538 C523 0.961 . S
H539 C523 0.961 . S
H540 C524 0.931 . S
H541 C529 0.930 . S
H542 C530 0.956 . S
H543 C530 0.961 . S
H544 C530 0.959 1_556 S
H545 C531 0.958 . S
H546 C531 0.961 . S
H547 C531 0.960 . S
C548 C549 1.391 . S
C548 C550 1.394 . S
C548 H564 0.931 . S
C549 C548 1.391 . S
C549 C553 1.376 . S
C550 C548 1.394 . S
C550 C551 1.369 . S
C550 C554 1.531 . S
C551 C550 1.369 . S
C551 C552 1.410 . S
C551 C559 1.503 . S
C552 C551 1.410 . S
C552 C553 1.392 . S
C552 C555 1.511 . S
C553 C549 1.376 . S
C553 C552 1.392 . S
C553 H565 0.929 . S
C554 C550 1.531 . S
C554 H566 0.960 . S
C554 H567 0.962 . S
C554 H568 0.960 . S
C555 C552 1.511 . S
C555 H569 0.961 . S
C555 H570 0.961 . S
C555 H571 0.961 . S
C556 C557 1.370 . S
C556 C558 1.363 . S
C556 H572 0.931 . S
C557 C556 1.370 . S
C557 C561 1.408 . S
C558 C556 1.363 . S
C558 C559 1.370 . S
C558 C562 1.524 . S
C559 C551 1.503 . S
C559 C558 1.370 . S
C559 C560 1.403 . S
C560 C559 1.403 . S
C560 C561 1.404 . S
C560 C563 1.539 . S
C561 C557 1.408 . S
C561 C560 1.404 . S
C561 H573 0.930 . S
C562 C558 1.524 . S
C562 H574 0.956 . S
C562 H575 0.961 . S
C562 H576 0.961 . S
C563 C560 1.539 . S
C563 H577 0.958 . S
C563 H578 0.961 . S
C563 H579 0.960 . S
H564 C548 0.931 . S
H565 C553 0.929 . S
H566 C554 0.960 . S
H567 C554 0.962 . S
H568 C554 0.960 . S
H569 C555 0.961 . S
H570 C555 0.961 . S
H571 C555 0.961 . S
H572 C556 0.931 . S
H573 C561 0.930 . S
H574 C562 0.956 . S
H575 C562 0.961 . S
H576 C562 0.961 . S
H577 C563 0.958 . S
H578 C563 0.961 . S
H579 C563 0.960 . S
C580 C581 1.391 . S
C580 C582 1.394 . S
C580 H596 0.931 . S
C581 C580 1.391 . S
C581 C585 1.376 . S
C582 C580 1.394 . S
C582 C583 1.369 . S
C582 C586 1.531 . S
C583 C582 1.369 . S
C583 C584 1.410 . S
C583 C591 1.503 . S
C584 C583 1.410 . S
C584 C585 1.392 . S
C584 C587 1.511 . S
C585 C581 1.376 . S
C585 C584 1.392 . S
C585 H597 0.929 . S
C586 C582 1.531 . S
C586 H598 0.960 . S
C586 H599 0.962 . S
C586 H600 0.960 . S
C587 C584 1.511 . S
C587 H601 0.961 . S
C587 H602 0.961 . S
C587 H603 0.961 . S
C588 C589 1.370 . S
C588 C590 1.363 . S
C588 H604 0.931 . S
C589 C588 1.370 . S
C589 C593 1.408 . S
C590 C588 1.363 . S
C590 C591 1.370 . S
C590 C594 1.524 . S
C591 C583 1.503 . S
C591 C590 1.370 . S
C591 C592 1.403 . S
C592 C591 1.403 . S
C592 C593 1.404 . S
C592 C595 1.539 . S
C593 C589 1.408 . S
C593 C592 1.404 . S
C593 H605 0.930 . S
C594 C590 1.524 . S
C594 H606 0.956 . S
C594 H607 0.961 . S
C594 H608 0.959 1_556 S
C595 C592 1.539 . S
C595 H609 0.958 . S
C595 H610 0.961 . S
C595 H611 0.960 . S
H596 C580 0.931 . S
H597 C585 0.929 . S
H598 C586 0.960 . S
H599 C586 0.962 . S
H600 C586 0.960 . S
H601 C587 0.961 . S
H602 C587 0.961 . S
H603 C587 0.961 . S
H604 C588 0.931 . S
H605 C593 0.930 . S
H606 C594 0.956 . S
H607 C594 0.961 . S
H608 C594 0.959 1_554 S
H609 C595 0.958 . S
H610 C595 0.961 . S
H611 C595 0.960 . S
C612 C613 1.391 . S
C612 C614 1.394 . S
C612 H628 0.931 . S
C613 C612 1.391 . S
C613 C617 1.376 . S
C614 C612 1.394 . S
C614 C615 1.369 . S
C614 C618 1.531 . S
C615 C614 1.369 . S
C615 C616 1.410 . S
C615 C623 1.503 . S
C616 C615 1.410 . S
C616 C617 1.392 . S
C616 C619 1.511 . S
C617 C613 1.376 . S
C617 C616 1.392 . S
C617 H629 0.929 . S
C618 C614 1.531 . S
C618 H630 0.960 . S
C618 H631 0.962 . S
C618 H632 0.960 . S
C619 C616 1.511 . S
C619 H633 0.961 . S
C619 H634 0.961 . S
C619 H635 0.961 . S
C620 C621 1.370 . S
C620 C622 1.363 . S
C620 H636 0.931 . S
C621 C620 1.370 . S
C621 C625 1.408 . S
C622 C620 1.363 . S
C622 C623 1.370 . S
C622 C626 1.524 . S
C623 C615 1.503 . S
C623 C622 1.370 . S
C623 C624 1.403 . S
C624 C623 1.403 . S
C624 C625 1.404 . S
C624 C627 1.539 . S
C625 C621 1.408 . S
C625 C624 1.404 . S
C625 H637 0.930 . S
C626 C622 1.524 . S
C626 H638 0.956 . S
C626 H639 0.961 . S
C626 H640 0.961 1_554 S
C627 C624 1.539 . S
C627 H641 0.958 . S
C627 H642 0.961 . S
C627 H643 0.960 . S
H628 C612 0.931 . S
H629 C617 0.929 . S
H630 C618 0.960 . S
H631 C618 0.962 . S
H632 C618 0.960 . S
H633 C619 0.961 . S
H634 C619 0.961 . S
H635 C619 0.961 . S
H636 C620 0.931 . S
H637 C625 0.930 . S
H638 C626 0.956 . S
H639 C626 0.961 . S
H640 C626 0.961 1_556 S
H641 C627 0.958 . S
H642 C627 0.961 . S
H643 C627 0.960 . S
C644 C645 1.391 . S
C644 C646 1.394 . S
C644 H660 0.931 . S
C645 C644 1.391 . S
C645 C649 1.376 . S
C646 C644 1.394 . S
C646 C647 1.369 . S
C646 C650 1.531 . S
C647 C646 1.369 . S
C647 C648 1.410 . S
C647 C655 1.503 . S
C648 C647 1.410 . S
C648 C649 1.392 . S
C648 C651 1.511 . S
C649 C645 1.376 . S
C649 C648 1.392 . S
C649 H661 0.929 . S
C650 C646 1.531 . S
C650 H662 0.960 . S
C650 H663 0.962 . S
C650 H664 0.960 . S
C651 C648 1.511 . S
C651 H665 0.961 . S
C651 H666 0.961 . S
C651 H667 0.961 . S
C652 C653 1.370 . S
C652 C654 1.363 . S
C652 H668 0.931 . S
C653 C652 1.370 . S
C653 C657 1.408 . S
C654 C652 1.363 . S
C654 C655 1.370 . S
C654 C658 1.524 . S
C655 C647 1.503 . S
C655 C654 1.370 . S
C655 C656 1.403 . S
C656 C655 1.403 . S
C656 C657 1.404 . S
C656 C659 1.539 . S
C657 C653 1.408 . S
C657 C656 1.404 . S
C657 H669 0.930 . S
C658 C654 1.524 . S
C658 H670 0.956 . S
C658 H671 0.961 . S
C658 H672 0.961 . S
C659 C656 1.539 . S
C659 H673 0.958 . S
C659 H674 0.961 . S
C659 H675 0.960 . S
H660 C644 0.931 . S
H661 C649 0.929 . S
H662 C650 0.960 . S
H663 C650 0.962 . S
H664 C650 0.960 . S
H665 C651 0.961 . S
H666 C651 0.961 . S
H667 C651 0.961 . S
H668 C652 0.931 . S
H669 C657 0.930 . S
H670 C658 0.956 . S
H671 C658 0.961 . S
H672 C658 0.961 . S
H673 C659 0.958 . S
H674 C659 0.961 . S
H675 C659 0.960 . S
C676 C677 1.391 . S
C676 C678 1.394 . S
C676 H692 0.931 . S
C677 C676 1.391 . S
C677 C681 1.376 . S
C678 C676 1.394 . S
C678 C679 1.369 . S
C678 C682 1.531 . S
C679 C678 1.369 . S
C679 C680 1.410 . S
C679 C687 1.503 . S
C680 C679 1.410 . S
C680 C681 1.392 . S
C680 C683 1.511 . S
C681 C677 1.376 . S
C681 C680 1.392 . S
C681 H693 0.929 . S
C682 C678 1.531 . S
C682 H694 0.960 . S
C682 H695 0.962 . S
C682 H696 0.960 . S
C683 C680 1.511 . S
C683 H697 0.961 . S
C683 H698 0.961 . S
C683 H699 0.961 . S
C684 C685 1.370 . S
C684 C686 1.363 . S
C684 H700 0.931 . S
C685 C684 1.370 . S
C685 C689 1.408 . S
C686 C684 1.363 . S
C686 C687 1.370 . S
C686 C690 1.524 . S
C687 C679 1.503 . S
C687 C686 1.370 . S
C687 C688 1.403 . S
C688 C687 1.403 . S
C688 C689 1.404 . S
C688 C691 1.539 . S
C689 C685 1.408 . S
C689 C688 1.404 . S
C689 H701 0.930 . S
C690 C686 1.524 . S
C690 H702 0.956 . S
C690 H703 0.963 . S
C690 H704 0.961 1_556 S
C691 C688 1.539 . S
C691 H705 0.958 . S
C691 H706 0.961 . S
C691 H707 0.960 . S
H692 C676 0.931 . S
H693 C681 0.929 . S
H694 C682 0.960 . S
H695 C682 0.962 . S
H696 C682 0.960 . S
H697 C683 0.961 . S
H698 C683 0.961 . S
H699 C683 0.961 . S
H700 C684 0.931 . S
H701 C689 0.930 . S
H702 C690 0.956 . S
H703 C690 0.963 . S
H704 C690 0.961 1_554 S
H705 C691 0.958 . S
H706 C691 0.961 . S
H707 C691 0.960 . S
C133 C125 1.685 . S
C141 C18 1.661 1_556 S
C165 C15 1.685 . S
C173 C40 1.663 . S
C197 C37 1.671 . S
C205 C54 1.679 . S
C229 C65 1.704 . S
C237 C76 1.662 1_556 S
C261 C98 1.689 . S
C269 C87 1.689 . S
C293 C128 1.644 . S
C301 C109 1.691 . S
C325 C10 0.935 . S
C333 C7 0.951 . S
C357 C32 0.980 . S
C365 C29 0.964 . S
C389 C52 0.919 . S
C397 C59 0.950 . S
C421 C74 0.992 . S
C429 C81 0.974 . S
C453 C103 0.991 . S
C461 C96 0.970 . S
C485 C120 0.917 . S
C493 C117 0.950 . S
C517 C21 1.255 . S
C525 C106 1.237 . S
C549 C43 1.233 . S
C557 C118 1.246 . S
C581 C8 1.268 . S
C589 C51 1.217 . S
C613 C30 1.214 . S
C621 C73 1.245 . S
C645 C95 1.245 . S
C653 C62 1.241 . S
C677 C84 1.271 . S
C685 C131 1.216 . S
