# Generated by pormake.
# Topology uot, (4)-cn, num edge types: 1
# Building blocks:
#     Node 0, Type 0, BuildingBlock: NAHDIM_clean_sbu_0, # of connection points: 4
#     Node 1, Type 0, BuildingBlock: NAHDIM_clean_sbu_0, # of connection points: 4
#     Node 2, Type 0, BuildingBlock: NAHDIM_clean_sbu_0, # of connection points: 4
#     Node 3, Type 0, BuildingBlock: NAHDIM_clean_sbu_0, # of connection points: 4
#     Node 4, Type 0, BuildingBlock: NAHDIM_clean_sbu_0, # of connection points: 4
#     Node 5, Type 0, BuildingBlock: NAHDIM_clean_sbu_0, # of connection points: 4
#     Node 6, Type 0, BuildingBlock: NAHDIM_clean_sbu_0, # of connection points: 4
#     Node 7, Type 0, BuildingBlock: NAHDIM_clean_sbu_0, # of connection points: 4
#     Node 8, Type 0, BuildingBlock: NAHDIM_clean_sbu_0, # of connection points: 4
#     Node 9, Type 0, BuildingBlock: NAHDIM_clean_sbu_0, # of connection points: 4
#     Node 10, Type 0, BuildingBlock: NAHDIM_clean_sbu_0, # of connection points: 4
#     Node 11, Type 0, BuildingBlock: NAHDIM_clean_sbu_0, # of connection points: 4
#     Node 12, Type 0, BuildingBlock: NAHDIM_clean_sbu_0, # of connection points: 4
#     Node 13, Type 0, BuildingBlock: NAHDIM_clean_sbu_0, # of connection points: 4
#     Node 14, Type 0, BuildingBlock: NAHDIM_clean_sbu_0, # of connection points: 4
#     Node 15, Type 0, BuildingBlock: NAHDIM_clean_sbu_0, # of connection points: 4
#     Edge 16, Type (0, 0), BuildingBlock: EYOCIG_clean_linker_4, # of connection points: 2
#     Edge 17, Type (0, 0), BuildingBlock: EYOCIG_clean_linker_4, # of connection points: 2
#     Edge 18, Type (0, 0), BuildingBlock: EYOCIG_clean_linker_4, # of connection points: 2
#     Edge 19, Type (0, 0), BuildingBlock: EYOCIG_clean_linker_4, # of connection points: 2
#     Edge 20, Type (0, 0), BuildingBlock: EYOCIG_clean_linker_4, # of connection points: 2
#     Edge 21, Type (0, 0), BuildingBlock: EYOCIG_clean_linker_4, # of connection points: 2
#     Edge 22, Type (0, 0), BuildingBlock: EYOCIG_clean_linker_4, # of connection points: 2
#     Edge 23, Type (0, 0), BuildingBlock: EYOCIG_clean_linker_4, # of connection points: 2
#     Edge 24, Type (0, 0), BuildingBlock: EYOCIG_clean_linker_4, # of connection points: 2
#     Edge 25, Type (0, 0), BuildingBlock: EYOCIG_clean_linker_4, # of connection points: 2
#     Edge 26, Type (0, 0), BuildingBlock: EYOCIG_clean_linker_4, # of connection points: 2
#     Edge 27, Type (0, 0), BuildingBlock: EYOCIG_clean_linker_4, # of connection points: 2
#     Edge 28, Type (0, 0), BuildingBlock: EYOCIG_clean_linker_4, # of connection points: 2
#     Edge 29, Type (0, 0), BuildingBlock: EYOCIG_clean_linker_4, # of connection points: 2
#     Edge 30, Type (0, 0), BuildingBlock: EYOCIG_clean_linker_4, # of connection points: 2
#     Edge 31, Type (0, 0), BuildingBlock: EYOCIG_clean_linker_4, # of connection points: 2
#     Edge 32, Type (0, 0), BuildingBlock: EYOCIG_clean_linker_4, # of connection points: 2
#     Edge 33, Type (0, 0), BuildingBlock: EYOCIG_clean_linker_4, # of connection points: 2
#     Edge 34, Type (0, 0), BuildingBlock: EYOCIG_clean_linker_4, # of connection points: 2
#     Edge 35, Type (0, 0), BuildingBlock: EYOCIG_clean_linker_4, # of connection points: 2
#     Edge 36, Type (0, 0), BuildingBlock: EYOCIG_clean_linker_4, # of connection points: 2
#     Edge 37, Type (0, 0), BuildingBlock: EYOCIG_clean_linker_4, # of connection points: 2
#     Edge 38, Type (0, 0), BuildingBlock: EYOCIG_clean_linker_4, # of connection points: 2
#     Edge 39, Type (0, 0), BuildingBlock: EYOCIG_clean_linker_4, # of connection points: 2
#     Edge 40, Type (0, 0), BuildingBlock: EYOCIG_clean_linker_4, # of connection points: 2
#     Edge 41, Type (0, 0), BuildingBlock: EYOCIG_clean_linker_4, # of connection points: 2
#     Edge 42, Type (0, 0), BuildingBlock: EYOCIG_clean_linker_4, # of connection points: 2
#     Edge 43, Type (0, 0), BuildingBlock: EYOCIG_clean_linker_4, # of connection points: 2
#     Edge 44, Type (0, 0), BuildingBlock: EYOCIG_clean_linker_4, # of connection points: 2
#     Edge 45, Type (0, 0), BuildingBlock: EYOCIG_clean_linker_4, # of connection points: 2
#     Edge 46, Type (0, 0), BuildingBlock: EYOCIG_clean_linker_4, # of connection points: 2
#     Edge 47, Type (0, 0), BuildingBlock: EYOCIG_clean_linker_4, # of connection points: 2
# Relax obj value: 0.174
# Max RMSD: 0.207
# Mean RMSD: 0.207
data_MOF--net-uot--node1-NAHDIM_clean_sbu_0--edge1-EYOCIG_clean_linker_4
_symmetry_space_group_name_H-M    P1
_symmetry_Int_Tables_number       1
_symmetry_cell_setting            triclinic
loop_
_symmetry_equiv_pos_as_xyz
'x, y, z'
_cell_length_a     36.472135
_cell_length_b     36.481746
_cell_length_c     30.991813
_cell_angle_alpha  90.040428
_cell_angle_beta   89.960456
_cell_angle_gamma 89.989367
loop_
_atom_site_label
_atom_site_type_symbol
_atom_site_fract_x
_atom_site_fract_y
_atom_site_fract_z
_atom_type_partial_charge
C0 C 0.25246 0.37831 0.30556 0.0
O1 O 0.22618 0.36109 0.32615 0.0
O2 O 0.15989 0.39592 0.29019 0.0
Zn3 Zn 0.19846 0.43235 0.30967 0.0
O4 O 0.19742 0.43964 0.37463 0.0
C5 C 0.15663 0.48925 0.27045 0.0
O6 O 0.12992 0.46677 0.28051 0.0
O7 O 0.24774 0.4113 0.29382 0.0
C8 C 0.17891 0.46496 0.3925 0.0
O9 O 0.15874 0.487 0.36905 0.0
C10 C 0.13324 0.38572 0.31363 0.0
O11 O 0.12945 0.39883 0.35278 0.0
O12 O 0.18955 0.48081 0.27944 0.0
C13 C 0.3783 0.70821 0.69268 0.0
O14 O 0.36056 0.73454 0.67284 0.0
O15 O 0.39593 0.8009 0.70642 0.0
Zn16 Zn 0.43252 0.76224 0.68755 0.0
O17 O 0.44043 0.76317 0.62269 0.0
C18 C 0.48889 0.80421 0.72773 0.0
O19 O 0.46637 0.83088 0.71766 0.0
O20 O 0.41154 0.71294 0.70344 0.0
C21 C 0.46563 0.78204 0.60513 0.0
O22 O 0.48714 0.80257 0.62885 0.0
C23 C 0.38605 0.82757 0.68287 0.0
O24 O 0.39954 0.83127 0.64389 0.0
O25 O 0.48069 0.77131 0.71834 0.0
C26 C 0.70799 0.58201 0.30417 0.0
O27 O 0.73432 0.59954 0.3243 0.0
O28 O 0.8007 0.564 0.29044 0.0
Zn29 Zn 0.76183 0.52762 0.30929 0.0
O30 O 0.76248 0.5199 0.37418 0.0
C31 C 0.80362 0.47081 0.26957 0.0
O32 O 0.83035 0.49331 0.27946 0.0
O33 O 0.71264 0.54881 0.29319 0.0
C34 C 0.78117 0.49462 0.39182 0.0
O35 O 0.80175 0.47304 0.3682 0.0
C36 C 0.82764 0.57351 0.31382 0.0
O37 O 0.83155 0.55969 0.3526 0.0
O38 O 0.77073 0.47922 0.2788 0.0
C39 C 0.58209 0.25246 0.69263 0.0
O40 O 0.59984 0.22605 0.67285 0.0
O41 O 0.5641 0.15972 0.70663 0.0
Zn42 Zn 0.52771 0.1985 0.68753 0.0
O43 O 0.51999 0.19742 0.62264 0.0
C44 C 0.47092 0.15698 0.72759 0.0
O45 O 0.49343 0.13018 0.71795 0.0
O46 O 0.54882 0.24779 0.70335 0.0
C47 C 0.49472 0.17863 0.60511 0.0
O48 O 0.47308 0.15826 0.62887 0.0
C49 C 0.57363 0.13269 0.68337 0.0
O50 O 0.55989 0.12865 0.64458 0.0
O51 O 0.47931 0.18979 0.71806 0.0
C52 C 0.25271 0.58219 0.69274 0.0
O53 O 0.22642 0.59976 0.67261 0.0
O54 O 0.16001 0.56464 0.70659 0.0
Zn55 Zn 0.19869 0.52799 0.68789 0.0
O56 O 0.19786 0.51988 0.62306 0.0
C57 C 0.15667 0.47165 0.72807 0.0
O58 O 0.13 0.49411 0.71783 0.0
O59 O 0.24797 0.54903 0.7038 0.0
C60 C 0.17912 0.49455 0.6056 0.0
O61 O 0.15862 0.47305 0.62939 0.0
C62 C 0.13336 0.57453 0.68301 0.0
O63 O 0.12961 0.56097 0.64407 0.0
O64 O 0.1896 0.47989 0.71881 0.0
C65 C 0.58234 0.70813 0.30424 0.0
O66 O 0.60002 0.73455 0.32404 0.0
O67 O 0.56422 0.80082 0.29042 0.0
Zn68 Zn 0.52788 0.76199 0.30945 0.0
O69 O 0.52014 0.76297 0.37433 0.0
C70 C 0.47111 0.80351 0.26935 0.0
O71 O 0.49358 0.83032 0.27903 0.0
O72 O 0.54907 0.71275 0.29353 0.0
C73 C 0.49503 0.78193 0.39196 0.0
O74 O 0.47353 0.80252 0.36831 0.0
C75 C 0.57386 0.82768 0.31386 0.0
O76 O 0.56026 0.83149 0.35278 0.0
O77 O 0.4795 0.7707 0.27891 0.0
C78 C 0.70771 0.37849 0.69272 0.0
O79 O 0.73389 0.36094 0.67229 0.0
O80 O 0.80053 0.39597 0.70687 0.0
Zn81 Zn 0.76188 0.43243 0.68772 0.0
O82 O 0.76261 0.43975 0.62275 0.0
C83 C 0.80415 0.48918 0.72673 0.0
O84 O 0.83074 0.46664 0.71639 0.0
O85 O 0.71257 0.41159 0.70399 0.0
C86 C 0.78115 0.465 0.60484 0.0
O87 O 0.80153 0.48691 0.62824 0.0
C88 C 0.82739 0.38616 0.68349 0.0
O89 O 0.83125 0.3996 0.64453 0.0
O90 O 0.77115 0.48086 0.71797 0.0
C91 C 0.37833 0.25216 0.30543 0.0
O92 O 0.36099 0.22573 0.32561 0.0
O93 O 0.39644 0.15962 0.28992 0.0
Zn94 Zn 0.43272 0.19835 0.3094 0.0
O95 O 0.44027 0.19708 0.37431 0.0
C96 C 0.48965 0.15704 0.26939 0.0
O97 O 0.46738 0.13018 0.2795 0.0
O98 O 0.41143 0.24758 0.29397 0.0
C99 C 0.46566 0.17854 0.39193 0.0
O100 O 0.48768 0.15849 0.36823 0.0
C101 C 0.38686 0.13258 0.31306 0.0
O102 O 0.40049 0.12851 0.3519 0.0
O103 O 0.48111 0.18987 0.27873 0.0
C104 C 0.75201 0.87805 0.80529 0.0
O105 O 0.72577 0.86102 0.82618 0.0
O106 O 0.65931 0.89611 0.79054 0.0
Zn107 Zn 0.69819 0.93243 0.80929 0.0
O108 O 0.69746 0.9401 0.8742 0.0
C109 C 0.65624 -0.01079 0.76992 0.0
O110 O 0.62953 0.96695 0.78063 0.0
O111 O 0.74733 0.91098 0.79331 0.0
C112 C 0.67924 0.96565 0.89202 0.0
O113 O 0.65925 -0.01216 0.86854 0.0
C114 C 0.63266 0.88632 0.81424 0.0
O115 O 0.62916 0.89974 0.85329 0.0
O116 O 0.68922 -0.01929 0.77861 0.0
C117 C 0.87832 0.20816 0.19142 0.0
O118 O 0.86107 0.23475 0.17145 0.0
O119 O 0.89657 0.30044 0.20708 0.0
Zn120 Zn 0.93291 0.26178 0.18753 0.0
O121 O 0.94069 0.26323 0.12267 0.0
C122 C -0.01029 0.30305 0.22772 0.0
O123 O 0.96723 0.32986 0.2181 0.0
O124 O 0.91148 0.21253 0.20276 0.0
C125 C 0.96584 0.28222 0.10521 0.0
O126 O -0.01264 0.30266 0.12905 0.0
C127 C 0.88656 0.32723 0.1838 0.0
O128 O 0.89982 0.33114 0.14474 0.0
O129 O -0.01871 0.27024 0.21815 0.0
C130 C 0.20786 0.08224 0.80402 0.0
O131 O 0.23429 0.09992 0.8238 0.0
O132 O 0.30041 0.06444 0.78981 0.0
Zn133 Zn 0.26181 0.02797 0.80909 0.0
O134 O 0.26295 0.0204 0.874 0.0
C135 C 0.30363 0.97132 0.76912 0.0
O136 O 0.33034 -0.00615 0.77897 0.0
O137 O 0.21248 0.04897 0.7933 0.0
C138 C 0.28201 -0.00462 0.8916 0.0
O139 O 0.3026 0.97388 0.86789 0.0
C140 C 0.32714 0.07445 0.81322 0.0
O141 O 0.33098 0.06112 0.85223 0.0
O142 O 0.27075 0.97962 0.77854 0.0
C143 C 0.08197 0.7523 0.19114 0.0
O144 O 0.09932 0.72583 0.17099 0.0
O145 O 0.06433 0.65976 0.20721 0.0
Zn146 Zn 0.02778 0.69819 0.18771 0.0
O147 O 0.01998 0.69658 0.12282 0.0
C148 C 0.97121 0.65646 0.22784 0.0
O149 O -0.00631 0.62978 0.21766 0.0
O150 O 0.04893 0.74765 0.20282 0.0
C151 C -0.00549 0.67802 0.10536 0.0
O152 O 0.97252 0.65811 0.12921 0.0
C153 C 0.07427 0.63284 0.18403 0.0
O154 O 0.06088 0.62873 0.14507 0.0
O155 O 0.9795 0.68936 0.21858 0.0
C156 C 0.75203 0.08226 0.19153 0.0
O157 O 0.72571 0.09937 0.17088 0.0
O158 O 0.65946 0.06441 0.20638 0.0
Zn159 Zn 0.69822 0.0279 0.18769 0.0
O160 O 0.69739 0.01987 0.12286 0.0
C161 C 0.65631 0.97139 0.22764 0.0
O162 O 0.62962 -0.00628 0.21712 0.0
O163 O 0.74739 0.04928 0.20339 0.0
C164 C 0.67904 -0.00569 0.10528 0.0
O165 O 0.65891 0.97239 0.12897 0.0
C166 C 0.6329 0.07437 0.18268 0.0
O167 O 0.62932 0.06094 0.14366 0.0
O168 O 0.68926 0.97976 0.21865 0.0
C169 C 0.08239 0.20843 0.80407 0.0
O170 O 0.10015 0.23474 0.82398 0.0
O171 O 0.06458 0.30121 0.79062 0.0
Zn172 Zn 0.02814 0.26245 0.80951 0.0
O173 O 0.02048 0.26329 0.8744 0.0
C174 C 0.97148 0.30441 0.76977 0.0
O175 O -0.00598 0.3311 0.77967 0.0
O176 O 0.04915 0.21318 0.79336 0.0
C177 C -0.00465 0.28219 0.89209 0.0
O178 O 0.9738 0.30276 0.86849 0.0
C179 C 0.07448 0.32783 0.81429 0.0
O180 O 0.06114 0.33137 0.85337 0.0
O181 O 0.97979 0.27152 0.77906 0.0
C182 C 0.20821 0.87818 0.19078 0.0
O183 O 0.23463 0.86072 0.17066 0.0
O184 O 0.30085 0.89574 0.20612 0.0
Zn185 Zn 0.26236 0.93234 0.18691 0.0
O186 O 0.26373 0.94027 0.12206 0.0
C187 C 0.30425 -0.01121 0.22707 0.0
O188 O 0.3309 0.9662 0.21709 0.0
O189 O 0.21291 0.91126 0.20225 0.0
C190 C 0.28248 0.96563 0.10465 0.0
O191 O 0.30272 -0.0127 0.12852 0.0
C192 C 0.32757 0.88564 0.18271 0.0
O193 O 0.33145 0.8989 0.14366 0.0
O194 O 0.27134 -0.01942 0.21773 0.0
C195 C 0.87824 0.752 0.8055 0.0
O196 O 0.86095 0.72544 0.82551 0.0
O197 O 0.89674 0.65964 0.79 0.0
Zn198 Zn 0.93293 0.6984 0.80958 0.0
O199 O 0.94048 0.69697 0.8745 0.0
C200 C -0.01006 0.6572 0.76944 0.0
O201 O 0.96764 0.63031 0.77935 0.0
O202 O 0.91142 0.74761 0.79424 0.0
C203 C 0.9658 0.67829 0.89207 0.0
O204 O -0.01225 0.65822 0.8683 0.0
C205 C 0.88709 0.6326 0.81309 0.0
O206 O 0.90061 0.62851 0.85198 0.0
O207 O -0.01862 0.69 0.77891 0.0
C208 C 0.31251 0.33967 0.29371 0.0
C209 C 0.28636 0.3596 0.29747 0.0
C210 C 0.33979 0.31227 0.29373 0.0
C211 C 0.35964 0.28607 0.2975 0.0
C212 C 0.34016 0.64792 0.70486 0.0
C213 C 0.35992 0.67417 0.70088 0.0
C214 C 0.31287 0.62053 0.70489 0.0
C215 C 0.28669 0.60068 0.70096 0.0
C216 C 0.62061 0.64788 0.29209 0.0
C217 C 0.60082 0.67412 0.29607 0.0
C218 C 0.64789 0.62047 0.29204 0.0
C219 C 0.67405 0.60057 0.29596 0.0
C220 C 0.62025 0.31275 0.7048 0.0
C221 C 0.6005 0.28649 0.70081 0.0
C222 C 0.64752 0.34017 0.70489 0.0
C223 C 0.67371 0.36003 0.701 0.0
C224 C 0.81201 0.83926 0.79356 0.0
C225 C 0.78587 0.85922 0.79726 0.0
C226 C 0.83939 0.81193 0.79368 0.0
C227 C 0.85937 0.78583 0.79752 0.0
C228 C 0.81206 0.12096 0.20316 0.0
C229 C 0.78589 0.10105 0.19948 0.0
C230 C 0.83946 0.14825 0.20309 0.0
C231 C 0.85945 0.17434 0.19932 0.0
C232 C 0.12048 0.14809 0.79188 0.0
C233 C 0.10075 0.17437 0.79586 0.0
C234 C 0.14773 0.12064 0.79188 0.0
C235 C 0.17389 0.10075 0.79583 0.0
C236 C 0.14796 0.83978 0.20238 0.0
C237 C 0.1742 0.8596 0.19868 0.0
C238 C 0.12056 0.81246 0.20246 0.0
C239 C 0.10065 0.78627 0.1989 0.0
C240 C 0.13561 0.55126 0.23494 0.0
C241 C 0.14782 0.52378 0.25097 0.0
C242 C 0.11662 0.58126 0.2169 0.0
C243 C 0.0973 0.60492 0.20212 0.0
C244 C 0.55063 0.82524 0.76391 0.0
C245 C 0.52326 0.81305 0.74756 0.0
C246 C 0.58062 0.84417 0.78206 0.0
C247 C 0.60442 0.86341 0.79668 0.0
C248 C 0.84389 0.37874 0.2164 0.0
C249 C 0.86336 0.35511 0.20175 0.0
C250 C 0.82471 0.4087 0.23427 0.0
C251 C 0.8124 0.43621 0.25022 0.0
C252 C 0.40876 0.13615 0.76297 0.0
C253 C 0.43628 0.14834 0.74696 0.0
C254 C 0.37875 0.11705 0.78084 0.0
C255 C 0.35508 0.09761 0.79541 0.0
C256 C 0.13563 0.40985 0.76406 0.0
C257 C 0.14782 0.43725 0.74781 0.0
C258 C 0.11669 0.37982 0.7821 0.0
C259 C 0.09743 0.35602 0.79667 0.0
C260 C 0.37917 0.8432 0.21537 0.0
C261 C 0.35553 0.86257 0.20062 0.0
C262 C 0.40912 0.82422 0.23351 0.0
C263 C 0.43658 0.81211 0.24973 0.0
C264 C 0.82557 0.55106 0.7623 0.0
C265 C 0.81317 0.52365 0.74626 0.0
C266 C 0.84471 0.58098 0.78031 0.0
C267 C 0.86405 0.60466 0.79507 0.0
C268 C 0.58128 0.11713 0.21484 0.0
C269 C 0.60488 0.09761 0.20021 0.0
C270 C 0.55144 0.13629 0.23305 0.0
C271 C 0.52408 0.14848 0.24946 0.0
C272 C 0.63506 0.05096 0.73389 0.0
C273 C 0.64737 0.02359 0.75011 0.0
C274 C 0.61598 0.08091 0.71584 0.0
C275 C 0.59666 0.10464 0.7012 0.0
C276 C 0.08175 0.34305 0.2811 0.0
C277 C 0.10536 0.36252 0.29575 0.0
C278 C 0.05181 0.3239 0.26317 0.0
C279 C 0.02432 0.31167 0.24713 0.0
C280 C 0.32461 0.90938 0.73326 0.0
C281 C 0.31241 0.93682 0.74948 0.0
C282 C 0.34363 0.87939 0.71519 0.0
C283 C 0.36299 0.85566 0.70057 0.0
C284 C 0.87942 0.61605 0.28166 0.0
C285 C 0.8557 0.59664 0.29618 0.0
C286 C 0.90937 0.63524 0.26371 0.0
C287 C 0.93675 0.6476 0.24753 0.0
C288 C 0.63519 0.9096 0.26362 0.0
C289 C 0.64745 0.93699 0.2474 0.0
C290 C 0.61617 0.87959 0.2816 0.0
C291 C 0.59686 0.8558 0.29616 0.0
C292 C 0.87936 0.34415 0.71611 0.0
C293 C 0.85554 0.36332 0.70141 0.0
C294 C 0.90946 0.32532 0.73415 0.0
C295 C 0.93696 0.3132 0.75026 0.0
C296 C 0.34455 0.08081 0.28047 0.0
C297 C 0.36385 0.10457 0.2951 0.0
C298 C 0.32548 0.05078 0.26256 0.0
C299 C 0.31317 0.02332 0.24653 0.0
C300 C 0.08175 0.61731 0.7152 0.0
C301 C 0.10536 0.59779 0.70061 0.0
C302 C 0.05185 0.63648 0.73332 0.0
C303 C 0.02444 0.64868 0.74964 0.0
C304 C 0.18129 0.483 0.5215 0.0
C305 C 0.18075 0.48881 0.55981 0.0
C306 C 0.18125 0.47578 0.47672 0.0
C307 C 0.18067 0.47024 0.43836 0.0
C308 C 0.48393 0.77994 0.47615 0.0
C309 C 0.48952 0.7804 0.4378 0.0
C310 C 0.47682 0.77996 0.52096 0.0
C311 C 0.47119 0.78047 0.5593 0.0
C312 C 0.77869 0.48321 0.47591 0.0
C313 C 0.77934 0.489 0.43762 0.0
C314 C 0.77867 0.47593 0.52067 0.0
C315 C 0.77929 0.47031 0.559 0.0
C316 C 0.47648 0.18056 0.47615 0.0
C317 C 0.47099 0.18008 0.43779 0.0
C318 C 0.48355 0.18059 0.52096 0.0
C319 C 0.48918 0.18014 0.55929 0.0
C320 C 0.68137 -0.01676 0.0211 0.0
C321 C 0.68073 -0.01119 0.05945 0.0
C322 C 0.68144 0.97627 0.97627 0.0
C323 C 0.6809 0.97085 0.93789 0.0
C324 C -0.01569 0.28021 0.97628 0.0
C325 C -0.01009 0.28064 0.93793 0.0
C326 C 0.97716 0.28026 0.02107 0.0
C327 C 0.97149 0.28073 0.0594 0.0
C328 C 0.28021 -0.01567 0.97579 0.0
C329 C 0.28055 -0.01006 0.93745 0.0
C330 C 0.28036 0.9771 0.02056 0.0
C331 C 0.2809 0.97135 0.05887 0.0
C332 C 0.97652 0.67997 0.97633 0.0
C333 C 0.97109 0.67964 0.93795 0.0
C334 C -0.0165 0.67988 0.02116 0.0
C335 C -0.01097 0.67944 0.05952 0.0
loop_
_geom_bond_atom_site_label_1
_geom_bond_atom_site_label_2
_geom_bond_distance
_geom_bond_site_symmetry_2
_ccdc_geom_bond_type
C0 O1 1.160 . S
C0 O7 1.185 . S
O1 C0 1.160 . S
O2 Zn3 1.899 . S
O2 C10 1.284 . S
Zn3 O2 1.899 . S
Zn3 O4 2.032 . S
Zn3 O7 2.086 . S
Zn3 O12 1.977 . S
O4 Zn3 2.032 . S
O4 C8 1.278 . S
C5 O6 1.203 . S
C5 O12 1.267 . S
O6 C5 1.203 . S
O7 C0 1.185 . S
O7 Zn3 2.086 . S
C8 O4 1.278 . S
C8 O9 1.211 . S
O9 C8 1.211 . S
C10 O2 1.284 . S
C10 O11 1.273 . S
O11 C10 1.273 . S
O12 Zn3 1.977 . S
O12 C5 1.267 . S
C13 O14 1.160 . S
C13 O20 1.185 . S
O14 C13 1.160 . S
O15 Zn16 1.899 . S
O15 C23 1.284 . S
Zn16 O15 1.899 . S
Zn16 O17 2.032 . S
Zn16 O20 2.086 . S
Zn16 O25 1.977 . S
O17 Zn16 2.032 . S
O17 C21 1.278 . S
C18 O19 1.203 . S
C18 O25 1.267 . S
O19 C18 1.203 . S
O20 C13 1.185 . S
O20 Zn16 2.086 . S
C21 O17 1.278 . S
C21 O22 1.211 . S
O22 C21 1.211 . S
C23 O15 1.284 . S
C23 O24 1.273 . S
O24 C23 1.273 . S
O25 Zn16 1.977 . S
O25 C18 1.267 . S
C26 O27 1.160 . S
C26 O33 1.185 . S
O27 C26 1.160 . S
O28 Zn29 1.899 . S
O28 C36 1.284 . S
Zn29 O28 1.899 . S
Zn29 O30 2.032 . S
Zn29 O33 2.086 . S
Zn29 O38 1.977 . S
O30 Zn29 2.032 . S
O30 C34 1.278 . S
C31 O32 1.203 . S
C31 O38 1.267 . S
O32 C31 1.203 . S
O33 C26 1.185 . S
O33 Zn29 2.086 . S
C34 O30 1.278 . S
C34 O35 1.211 . S
O35 C34 1.211 . S
C36 O28 1.284 . S
C36 O37 1.273 . S
O37 C36 1.273 . S
O38 Zn29 1.977 . S
O38 C31 1.267 . S
C39 O40 1.160 . S
C39 O46 1.185 . S
O40 C39 1.160 . S
O41 Zn42 1.899 . S
O41 C49 1.284 . S
Zn42 O41 1.899 . S
Zn42 O43 2.032 . S
Zn42 O46 2.086 . S
Zn42 O51 1.977 . S
O43 Zn42 2.032 . S
O43 C47 1.278 . S
C44 O45 1.203 . S
C44 O51 1.267 . S
O45 C44 1.203 . S
O46 C39 1.185 . S
O46 Zn42 2.086 . S
C47 O43 1.278 . S
C47 O48 1.211 . S
O48 C47 1.211 . S
C49 O41 1.284 . S
C49 O50 1.273 . S
O50 C49 1.273 . S
O51 Zn42 1.977 . S
O51 C44 1.267 . S
C52 O53 1.160 . S
C52 O59 1.185 . S
O53 C52 1.160 . S
O54 Zn55 1.899 . S
O54 C62 1.284 . S
Zn55 O54 1.899 . S
Zn55 O56 2.032 . S
Zn55 O59 2.086 . S
Zn55 O64 1.977 . S
O56 Zn55 2.032 . S
O56 C60 1.278 . S
C57 O58 1.203 . S
C57 O64 1.267 . S
O58 C57 1.203 . S
O59 C52 1.185 . S
O59 Zn55 2.086 . S
C60 O56 1.278 . S
C60 O61 1.211 . S
O61 C60 1.211 . S
C62 O54 1.284 . S
C62 O63 1.273 . S
O63 C62 1.273 . S
O64 Zn55 1.977 . S
O64 C57 1.267 . S
C65 O66 1.160 . S
C65 O72 1.185 . S
O66 C65 1.160 . S
O67 Zn68 1.899 . S
O67 C75 1.284 . S
Zn68 O67 1.899 . S
Zn68 O69 2.032 . S
Zn68 O72 2.086 . S
Zn68 O77 1.977 . S
O69 Zn68 2.032 . S
O69 C73 1.278 . S
C70 O71 1.203 . S
C70 O77 1.267 . S
O71 C70 1.203 . S
O72 C65 1.185 . S
O72 Zn68 2.086 . S
C73 O69 1.278 . S
C73 O74 1.211 . S
O74 C73 1.211 . S
C75 O67 1.284 . S
C75 O76 1.273 . S
O76 C75 1.273 . S
O77 Zn68 1.977 . S
O77 C70 1.267 . S
C78 O79 1.160 . S
C78 O85 1.185 . S
O79 C78 1.160 . S
O80 Zn81 1.899 . S
O80 C88 1.284 . S
Zn81 O80 1.899 . S
Zn81 O82 2.032 . S
Zn81 O85 2.086 . S
Zn81 O90 1.977 . S
O82 Zn81 2.032 . S
O82 C86 1.278 . S
C83 O84 1.203 . S
C83 O90 1.267 . S
O84 C83 1.203 . S
O85 C78 1.185 . S
O85 Zn81 2.086 . S
C86 O82 1.278 . S
C86 O87 1.211 . S
O87 C86 1.211 . S
C88 O80 1.284 . S
C88 O89 1.273 . S
O89 C88 1.273 . S
O90 Zn81 1.977 . S
O90 C83 1.267 . S
C91 O92 1.160 . S
C91 O98 1.185 . S
O92 C91 1.160 . S
O93 Zn94 1.899 . S
O93 C101 1.284 . S
Zn94 O93 1.899 . S
Zn94 O95 2.032 . S
Zn94 O98 2.086 . S
Zn94 O103 1.977 . S
O95 Zn94 2.032 . S
O95 C99 1.278 . S
C96 O97 1.203 . S
C96 O103 1.267 . S
O97 C96 1.203 . S
O98 C91 1.185 . S
O98 Zn94 2.086 . S
C99 O95 1.278 . S
C99 O100 1.211 . S
O100 C99 1.211 . S
C101 O93 1.284 . S
C101 O102 1.273 . S
O102 C101 1.273 . S
O103 Zn94 1.977 . S
O103 C96 1.267 . S
C104 O105 1.160 . S
C104 O111 1.185 . S
O105 C104 1.160 . S
O106 Zn107 1.899 . S
O106 C114 1.284 . S
Zn107 O106 1.899 . S
Zn107 O108 2.032 . S
Zn107 O111 2.086 . S
Zn107 O116 1.977 . S
O108 Zn107 2.032 . S
O108 C112 1.278 . S
C109 O110 1.203 . S
C109 O116 1.267 1_545 S
O110 C109 1.203 . S
O111 C104 1.185 . S
O111 Zn107 2.086 . S
C112 O108 1.278 . S
C112 O113 1.211 . S
O113 C112 1.211 . S
C114 O106 1.284 . S
C114 O115 1.273 . S
O115 C114 1.273 . S
O116 Zn107 1.977 . S
O116 C109 1.267 1_565 S
C117 O118 1.160 . S
C117 O124 1.185 . S
O118 C117 1.160 . S
O119 Zn120 1.899 . S
O119 C127 1.284 . S
Zn120 O119 1.899 . S
Zn120 O121 2.032 . S
Zn120 O124 2.086 . S
Zn120 O129 1.977 . S
O121 Zn120 2.032 . S
O121 C125 1.278 . S
C122 O123 1.203 . S
C122 O129 1.267 1_455 S
O123 C122 1.203 . S
O124 C117 1.185 . S
O124 Zn120 2.086 . S
C125 O121 1.278 . S
C125 O126 1.211 . S
O126 C125 1.211 . S
C127 O119 1.284 . S
C127 O128 1.273 . S
O128 C127 1.273 . S
O129 Zn120 1.977 . S
O129 C122 1.267 1_655 S
C130 O131 1.160 . S
C130 O137 1.185 . S
O131 C130 1.160 . S
O132 Zn133 1.899 . S
O132 C140 1.284 . S
Zn133 O132 1.899 . S
Zn133 O134 2.032 . S
Zn133 O137 2.086 . S
Zn133 O142 1.977 . S
O134 Zn133 2.032 . S
O134 C138 1.278 . S
C135 O136 1.203 . S
C135 O142 1.267 1_565 S
O136 C135 1.203 . S
O137 C130 1.185 . S
O137 Zn133 2.086 . S
C138 O134 1.278 . S
C138 O139 1.211 . S
O139 C138 1.211 . S
C140 O132 1.284 . S
C140 O141 1.273 . S
O141 C140 1.273 . S
O142 Zn133 1.977 . S
O142 C135 1.267 1_545 S
C143 O144 1.160 . S
C143 O150 1.185 . S
O144 C143 1.160 . S
O145 Zn146 1.899 . S
O145 C153 1.284 . S
Zn146 O145 1.899 . S
Zn146 O147 2.032 . S
Zn146 O150 2.086 . S
Zn146 O155 1.977 . S
O147 Zn146 2.032 . S
O147 C151 1.278 . S
C148 O149 1.203 . S
C148 O155 1.267 1_655 S
O149 C148 1.203 . S
O150 C143 1.185 . S
O150 Zn146 2.086 . S
C151 O147 1.278 . S
C151 O152 1.211 . S
O152 C151 1.211 . S
C153 O145 1.284 . S
C153 O154 1.273 . S
O154 C153 1.273 . S
O155 Zn146 1.977 . S
O155 C148 1.267 1_455 S
C156 O157 1.160 . S
C156 O163 1.185 . S
O157 C156 1.160 . S
O158 Zn159 1.899 . S
O158 C166 1.284 . S
Zn159 O158 1.899 . S
Zn159 O160 2.032 . S
Zn159 O163 2.086 . S
Zn159 O168 1.977 . S
O160 Zn159 2.032 . S
O160 C164 1.278 . S
C161 O162 1.203 . S
C161 O168 1.267 1_565 S
O162 C161 1.203 . S
O163 C156 1.185 . S
O163 Zn159 2.086 . S
C164 O160 1.278 . S
C164 O165 1.211 . S
O165 C164 1.211 . S
C166 O158 1.284 . S
C166 O167 1.273 . S
O167 C166 1.273 . S
O168 Zn159 1.977 . S
O168 C161 1.267 1_545 S
C169 O170 1.160 . S
C169 O176 1.185 . S
O170 C169 1.160 . S
O171 Zn172 1.899 . S
O171 C179 1.284 . S
Zn172 O171 1.899 . S
Zn172 O173 2.032 . S
Zn172 O176 2.086 . S
Zn172 O181 1.977 . S
O173 Zn172 2.032 . S
O173 C177 1.278 . S
C174 O175 1.203 . S
C174 O181 1.267 1_655 S
O175 C174 1.203 . S
O176 C169 1.185 . S
O176 Zn172 2.086 . S
C177 O173 1.278 . S
C177 O178 1.211 . S
O178 C177 1.211 . S
C179 O171 1.284 . S
C179 O180 1.273 . S
O180 C179 1.273 . S
O181 Zn172 1.977 . S
O181 C174 1.267 1_455 S
C182 O183 1.160 . S
C182 O189 1.185 . S
O183 C182 1.160 . S
O184 Zn185 1.899 . S
O184 C192 1.284 . S
Zn185 O184 1.899 . S
Zn185 O186 2.032 . S
Zn185 O189 2.086 . S
Zn185 O194 1.977 . S
O186 Zn185 2.032 . S
O186 C190 1.278 . S
C187 O188 1.203 . S
C187 O194 1.267 1_545 S
O188 C187 1.203 . S
O189 C182 1.185 . S
O189 Zn185 2.086 . S
C190 O186 1.278 . S
C190 O191 1.211 . S
O191 C190 1.211 . S
C192 O184 1.284 . S
C192 O193 1.273 . S
O193 C192 1.273 . S
O194 Zn185 1.977 . S
O194 C187 1.267 1_565 S
C195 O196 1.160 . S
C195 O202 1.185 . S
O196 C195 1.160 . S
O197 Zn198 1.899 . S
O197 C205 1.284 . S
Zn198 O197 1.899 . S
Zn198 O199 2.032 . S
Zn198 O202 2.086 . S
Zn198 O207 1.977 . S
O199 Zn198 2.032 . S
O199 C203 1.278 . S
C200 O201 1.203 . S
C200 O207 1.267 1_455 S
O201 C200 1.203 . S
O202 C195 1.185 . S
O202 Zn198 2.086 . S
C203 O199 1.278 . S
C203 O204 1.211 . S
O204 C203 1.211 . S
C205 O197 1.284 . S
C205 O206 1.273 . S
O206 C205 1.273 . S
O207 Zn198 1.977 . S
O207 C200 1.267 1_655 S
C208 C209 1.170 . S
C208 C210 1.380 . S
C209 C208 1.170 . S
C210 C208 1.380 . S
C210 C211 1.170 . S
C211 C210 1.170 . S
C212 C213 1.170 . S
C212 C214 1.380 . S
C213 C212 1.170 . S
C214 C212 1.380 . S
C214 C215 1.170 . S
C215 C214 1.170 . S
C216 C217 1.170 . S
C216 C218 1.380 . S
C217 C216 1.170 . S
C218 C216 1.380 . S
C218 C219 1.170 . S
C219 C218 1.170 . S
C220 C221 1.170 . S
C220 C222 1.380 . S
C221 C220 1.170 . S
C222 C220 1.380 . S
C222 C223 1.170 . S
C223 C222 1.170 . S
C224 C225 1.170 . S
C224 C226 1.380 . S
C225 C224 1.170 . S
C226 C224 1.380 . S
C226 C227 1.170 . S
C227 C226 1.170 . S
C228 C229 1.170 . S
C228 C230 1.380 . S
C229 C228 1.170 . S
C230 C228 1.380 . S
C230 C231 1.170 . S
C231 C230 1.170 . S
C232 C233 1.170 . S
C232 C234 1.380 . S
C233 C232 1.170 . S
C234 C232 1.380 . S
C234 C235 1.170 . S
C235 C234 1.170 . S
C236 C237 1.170 . S
C236 C238 1.380 . S
C237 C236 1.170 . S
C238 C236 1.380 . S
C238 C239 1.170 . S
C239 C238 1.170 . S
C240 C241 1.170 . S
C240 C242 1.380 . S
C241 C240 1.170 . S
C242 C240 1.380 . S
C242 C243 1.170 . S
C243 C242 1.170 . S
C244 C245 1.170 . S
C244 C246 1.380 . S
C245 C244 1.170 . S
C246 C244 1.380 . S
C246 C247 1.170 . S
C247 C246 1.170 . S
C248 C249 1.170 . S
C248 C250 1.380 . S
C249 C248 1.170 . S
C250 C248 1.380 . S
C250 C251 1.170 . S
C251 C250 1.170 . S
C252 C253 1.170 . S
C252 C254 1.380 . S
C253 C252 1.170 . S
C254 C252 1.380 . S
C254 C255 1.170 . S
C255 C254 1.170 . S
C256 C257 1.170 . S
C256 C258 1.380 . S
C257 C256 1.170 . S
C258 C256 1.380 . S
C258 C259 1.170 . S
C259 C258 1.170 . S
C260 C261 1.170 . S
C260 C262 1.380 . S
C261 C260 1.170 . S
C262 C260 1.380 . S
C262 C263 1.170 . S
C263 C262 1.170 . S
C264 C265 1.170 . S
C264 C266 1.380 . S
C265 C264 1.170 . S
C266 C264 1.380 . S
C266 C267 1.170 . S
C267 C266 1.170 . S
C268 C269 1.170 . S
C268 C270 1.380 . S
C269 C268 1.170 . S
C270 C268 1.380 . S
C270 C271 1.170 . S
C271 C270 1.170 . S
C272 C273 1.170 . S
C272 C274 1.380 . S
C273 C272 1.170 . S
C274 C272 1.380 . S
C274 C275 1.170 . S
C275 C274 1.170 . S
C276 C277 1.170 . S
C276 C278 1.380 . S
C277 C276 1.170 . S
C278 C276 1.380 . S
C278 C279 1.170 . S
C279 C278 1.170 . S
C280 C281 1.170 . S
C280 C282 1.380 . S
C281 C280 1.170 . S
C282 C280 1.380 . S
C282 C283 1.170 . S
C283 C282 1.170 . S
C284 C285 1.170 . S
C284 C286 1.380 . S
C285 C284 1.170 . S
C286 C284 1.380 . S
C286 C287 1.170 . S
C287 C286 1.170 . S
C288 C289 1.170 . S
C288 C290 1.380 . S
C289 C288 1.170 . S
C290 C288 1.380 . S
C290 C291 1.170 . S
C291 C290 1.170 . S
C292 C293 1.170 . S
C292 C294 1.380 . S
C293 C292 1.170 . S
C294 C292 1.380 . S
C294 C295 1.170 . S
C295 C294 1.170 . S
C296 C297 1.170 . S
C296 C298 1.380 . S
C297 C296 1.170 . S
C298 C296 1.380 . S
C298 C299 1.170 . S
C299 C298 1.170 . S
C300 C301 1.170 . S
C300 C302 1.380 . S
C301 C300 1.170 . S
C302 C300 1.380 . S
C302 C303 1.170 . S
C303 C302 1.170 . S
C304 C305 1.170 . S
C304 C306 1.380 . S
C305 C304 1.170 . S
C306 C304 1.380 . S
C306 C307 1.170 . S
C307 C306 1.170 . S
C308 C309 1.170 . S
C308 C310 1.380 . S
C309 C308 1.170 . S
C310 C308 1.380 . S
C310 C311 1.170 . S
C311 C310 1.170 . S
C312 C313 1.170 . S
C312 C314 1.380 . S
C313 C312 1.170 . S
C314 C312 1.380 . S
C314 C315 1.170 . S
C315 C314 1.170 . S
C316 C317 1.170 . S
C316 C318 1.380 . S
C317 C316 1.170 . S
C318 C316 1.380 . S
C318 C319 1.170 . S
C319 C318 1.170 . S
C320 C321 1.170 . S
C320 C322 1.380 1_544 S
C321 C320 1.170 . S
C322 C320 1.380 1_566 S
C322 C323 1.170 . S
C323 C322 1.170 . S
C324 C325 1.170 . S
C324 C326 1.380 1_456 S
C325 C324 1.170 . S
C326 C324 1.380 1_654 S
C326 C327 1.170 . S
C327 C326 1.170 . S
C328 C329 1.170 . S
C328 C330 1.380 1_546 S
C329 C328 1.170 . S
C330 C328 1.380 1_564 S
C330 C331 1.170 . S
C331 C330 1.170 . S
C332 C333 1.170 . S
C332 C334 1.380 1_656 S
C333 C332 1.170 . S
C334 C332 1.380 1_454 S
C334 C335 1.170 . S
C335 C334 1.170 . S
C209 C0 1.218 . S
C211 C91 1.232 . S
C213 C13 1.236 . S
C215 C52 1.250 . S
C217 C65 1.248 . S
C219 C26 1.258 . S
C221 C39 1.251 . S
C223 C78 1.259 . S
C225 C104 1.216 . S
C227 C195 1.229 . S
C229 C156 1.211 . S
C231 C117 1.220 . S
C233 C169 1.230 . S
C235 C130 1.245 . S
C237 C182 1.220 . S
C239 C143 1.235 . S
C241 C5 1.165 . S
C243 C153 1.316 . S
C245 C18 1.178 . S
C247 C114 1.307 . S
C249 C127 1.312 . S
C251 C31 1.211 . S
C253 C44 1.206 . S
C255 C140 1.305 . S
C257 C57 1.170 . S
C259 C179 1.301 . S
C261 C192 1.302 . S
C263 C70 1.215 . S
C265 C83 1.140 . S
C267 C205 1.310 . S
C269 C166 1.301 . S
C271 C96 1.212 . S
C273 C109 1.144 . S
C275 C49 1.306 . S
C277 C10 1.304 . S
C279 C122 1.209 . S
C281 C135 1.193 . S
C283 C23 1.302 . S
C285 C36 1.310 . S
C287 C148 1.163 . S
C289 C161 1.177 . S
C291 C75 1.301 . S
C293 C88 1.316 . S
C295 C174 1.140 . S
C297 C101 1.313 . S
C299 C187 1.146 . S
C301 C62 1.301 . S
C303 C200 1.216 . S
C305 C60 1.494 . S
C307 C8 1.530 . S
C309 C73 1.504 . S
C311 C21 1.502 . S
C313 C34 1.498 . S
C315 C86 1.524 . S
C317 C99 1.528 . S
C319 C47 1.493 . S
C321 C164 1.499 . S
C323 C112 1.523 . S
C325 C177 1.512 . S
C327 C125 1.496 . S
C329 C138 1.530 . S
C331 C190 1.499 . S
C333 C203 1.523 . S
C335 C151 1.493 . S
