# Generated by pormake.
# Topology unb, (4)-cn, num edge types: 1
# Building blocks:
#     Node 0, Type 0, BuildingBlock: GALJAG_clean_sbu_0, # of connection points: 4
#     Node 1, Type 0, BuildingBlock: GALJAG_clean_sbu_0, # of connection points: 4
#     Node 2, Type 0, BuildingBlock: GALJAG_clean_sbu_0, # of connection points: 4
#     Node 3, Type 0, BuildingBlock: GALJAG_clean_sbu_0, # of connection points: 4
#     Node 4, Type 0, BuildingBlock: GALJAG_clean_sbu_0, # of connection points: 4
#     Node 5, Type 0, BuildingBlock: GALJAG_clean_sbu_0, # of connection points: 4
#     Node 6, Type 0, BuildingBlock: GALJAG_clean_sbu_0, # of connection points: 4
#     Node 7, Type 0, BuildingBlock: GALJAG_clean_sbu_0, # of connection points: 4
#     Node 8, Type 0, BuildingBlock: GALJAG_clean_sbu_0, # of connection points: 4
#     Node 9, Type 0, BuildingBlock: GALJAG_clean_sbu_0, # of connection points: 4
#     Node 10, Type 0, BuildingBlock: GALJAG_clean_sbu_0, # of connection points: 4
#     Node 11, Type 0, BuildingBlock: GALJAG_clean_sbu_0, # of connection points: 4
#     Node 12, Type 0, BuildingBlock: GALJAG_clean_sbu_0, # of connection points: 4
#     Node 13, Type 0, BuildingBlock: GALJAG_clean_sbu_0, # of connection points: 4
#     Node 14, Type 0, BuildingBlock: GALJAG_clean_sbu_0, # of connection points: 4
#     Node 15, Type 0, BuildingBlock: GALJAG_clean_sbu_0, # of connection points: 4
#     Node 16, Type 0, BuildingBlock: GALJAG_clean_sbu_0, # of connection points: 4
#     Node 17, Type 0, BuildingBlock: GALJAG_clean_sbu_0, # of connection points: 4
#     Edge 18, Type (0, 0), BuildingBlock: EZIPEK_clean_linker_0, # of connection points: 2
#     Edge 19, Type (0, 0), BuildingBlock: EZIPEK_clean_linker_0, # of connection points: 2
#     Edge 20, Type (0, 0), BuildingBlock: EZIPEK_clean_linker_0, # of connection points: 2
#     Edge 21, Type (0, 0), BuildingBlock: EZIPEK_clean_linker_0, # of connection points: 2
#     Edge 22, Type (0, 0), BuildingBlock: EZIPEK_clean_linker_0, # of connection points: 2
#     Edge 23, Type (0, 0), BuildingBlock: EZIPEK_clean_linker_0, # of connection points: 2
#     Edge 24, Type (0, 0), BuildingBlock: EZIPEK_clean_linker_0, # of connection points: 2
#     Edge 25, Type (0, 0), BuildingBlock: EZIPEK_clean_linker_0, # of connection points: 2
#     Edge 26, Type (0, 0), BuildingBlock: EZIPEK_clean_linker_0, # of connection points: 2
#     Edge 27, Type (0, 0), BuildingBlock: EZIPEK_clean_linker_0, # of connection points: 2
#     Edge 28, Type (0, 0), BuildingBlock: EZIPEK_clean_linker_0, # of connection points: 2
#     Edge 29, Type (0, 0), BuildingBlock: EZIPEK_clean_linker_0, # of connection points: 2
#     Edge 30, Type (0, 0), BuildingBlock: EZIPEK_clean_linker_0, # of connection points: 2
#     Edge 31, Type (0, 0), BuildingBlock: EZIPEK_clean_linker_0, # of connection points: 2
#     Edge 32, Type (0, 0), BuildingBlock: EZIPEK_clean_linker_0, # of connection points: 2
#     Edge 33, Type (0, 0), BuildingBlock: EZIPEK_clean_linker_0, # of connection points: 2
#     Edge 34, Type (0, 0), BuildingBlock: EZIPEK_clean_linker_0, # of connection points: 2
#     Edge 35, Type (0, 0), BuildingBlock: EZIPEK_clean_linker_0, # of connection points: 2
#     Edge 36, Type (0, 0), BuildingBlock: EZIPEK_clean_linker_0, # of connection points: 2
#     Edge 37, Type (0, 0), BuildingBlock: EZIPEK_clean_linker_0, # of connection points: 2
#     Edge 38, Type (0, 0), BuildingBlock: EZIPEK_clean_linker_0, # of connection points: 2
#     Edge 39, Type (0, 0), BuildingBlock: EZIPEK_clean_linker_0, # of connection points: 2
#     Edge 40, Type (0, 0), BuildingBlock: EZIPEK_clean_linker_0, # of connection points: 2
#     Edge 41, Type (0, 0), BuildingBlock: EZIPEK_clean_linker_0, # of connection points: 2
#     Edge 42, Type (0, 0), BuildingBlock: EZIPEK_clean_linker_0, # of connection points: 2
#     Edge 43, Type (0, 0), BuildingBlock: EZIPEK_clean_linker_0, # of connection points: 2
#     Edge 44, Type (0, 0), BuildingBlock: EZIPEK_clean_linker_0, # of connection points: 2
#     Edge 45, Type (0, 0), BuildingBlock: EZIPEK_clean_linker_0, # of connection points: 2
#     Edge 46, Type (0, 0), BuildingBlock: EZIPEK_clean_linker_0, # of connection points: 2
#     Edge 47, Type (0, 0), BuildingBlock: EZIPEK_clean_linker_0, # of connection points: 2
#     Edge 48, Type (0, 0), BuildingBlock: EZIPEK_clean_linker_0, # of connection points: 2
#     Edge 49, Type (0, 0), BuildingBlock: EZIPEK_clean_linker_0, # of connection points: 2
#     Edge 50, Type (0, 0), BuildingBlock: EZIPEK_clean_linker_0, # of connection points: 2
#     Edge 51, Type (0, 0), BuildingBlock: EZIPEK_clean_linker_0, # of connection points: 2
#     Edge 52, Type (0, 0), BuildingBlock: EZIPEK_clean_linker_0, # of connection points: 2
#     Edge 53, Type (0, 0), BuildingBlock: EZIPEK_clean_linker_0, # of connection points: 2
# Relax obj value: 0.185
# Max RMSD: 0.139
# Mean RMSD: 0.139
data_MOF--net-unb--node1-GALJAG_clean_sbu_0--edge1-EZIPEK_clean_linker_0
_symmetry_space_group_name_H-M    P1
_symmetry_Int_Tables_number       1
_symmetry_cell_setting            triclinic
loop_
_symmetry_equiv_pos_as_xyz
'x, y, z'
_cell_length_a     45.521253
_cell_length_b     45.454179
_cell_length_c     19.754463
_cell_angle_alpha  90.026178
_cell_angle_beta   90.060435
_cell_angle_gamma 120.00947
loop_
_atom_site_label
_atom_site_type_symbol
_atom_site_fract_x
_atom_site_fract_y
_atom_site_fract_z
_atom_type_partial_charge
In0 In 0.12199 0.26109 0.10432 0.0
O1 O 0.13297 0.30473 0.17666 0.0
O2 O 0.13098 0.26093 0.21907 0.0
C3 C 0.14096 0.29685 0.98961 0.0
C4 C 0.15838 0.23079 0.07676 0.0
C5 C 0.05457 0.22684 0.08267 0.0
O6 O 0.15259 0.31077 0.0463 0.0
O7 O 0.12013 0.26549 0.99115 0.0
O8 O 0.07018 0.21244 0.10497 0.0
O9 O 0.07221 0.25864 0.07743 0.0
C10 C 0.13592 0.2905 0.22879 0.0
O11 O 0.12742 0.2141 0.09261 0.0
O12 O 0.17162 0.26262 0.08007 0.0
In13 In 0.72059 0.85763 0.07473 0.0
O14 O 0.76917 0.90684 0.04856 0.0
O15 O 0.72281 0.90747 0.0451 0.0
C16 C 0.76072 0.83081 0.05462 0.0
C17 C 0.69124 0.84557 0.19956 0.0
C18 C 0.68271 0.83083 0.96321 0.0
O19 O 0.77269 0.86174 0.06976 0.0
O20 O 0.72878 0.81313 0.05498 0.0
O21 O 0.69088 0.85998 0.98486 0.0
O22 O 0.69179 0.81412 -0.0002 0.0
C23 C 0.75443 0.92336 0.03503 0.0
O24 O 0.67452 0.837 0.1454 0.0
O25 O 0.7229 0.86061 0.19149 0.0
In26 In 0.13493 0.86898 0.06851 0.0
O27 O 0.08199 0.86245 0.06285 0.0
O28 O 0.08691 0.81891 0.04523 0.0
C29 C 0.17236 0.93695 0.05535 0.0
C30 C 0.14575 0.85037 0.19153 0.0
C31 C 0.15423 0.85626 0.94964 0.0
O32 O 0.14055 0.92076 0.04889 0.0
O33 O 0.185 0.91929 0.07498 0.0
O34 O 0.16385 0.84985 0.0049 0.0
O35 O 0.1358 0.86943 0.95482 0.0
C36 C 0.06795 0.83175 0.04433 0.0
O37 O 0.15392 0.84185 0.13709 0.0
O38 O 0.13169 0.86816 0.18453 0.0
In39 In 0.26713 0.14002 0.92474 0.0
O40 O 0.31201 0.15407 0.85459 0.0
O41 O 0.26648 0.14641 0.80905 0.0
C42 C 0.30326 0.15941 0.03894 0.0
C43 C 0.23234 0.17195 0.95415 0.0
C44 C 0.23649 0.07262 0.9454 0.0
O45 O 0.31503 0.17559 0.98438 0.0
O46 O 0.27397 0.13389 0.03541 0.0
O47 O 0.22004 0.08713 0.9291 0.0
O48 O 0.26827 0.09145 0.94511 0.0
C49 C 0.29689 0.15374 0.80108 0.0
O50 O 0.21794 0.14169 0.93315 0.0
O51 O 0.26428 0.18695 0.95493 0.0
In52 In 0.85797 0.12724 0.91244 0.0
O53 O 0.82379 0.13468 0.83794 0.0
O54 O 0.87054 0.142 0.80009 0.0
C55 C 0.83826 0.14442 0.02571 0.0
C56 C 0.82483 0.05933 0.92519 0.0
C57 C 0.92363 0.1608 0.95049 0.0
O58 O 0.84081 0.15956 0.97045 0.0
O59 O 0.84491 0.12072 0.02301 0.0
O60 O 0.90894 0.13026 0.93101 0.0
O61 O 0.9062 0.17523 0.94541 0.0
C62 C 0.8434 0.14218 0.78805 0.0
O63 O 0.85484 0.07552 0.90302 0.0
O64 O 0.81093 0.0769 0.93527 0.0
In65 In 0.86561 0.7333 0.91442 0.0
O66 O 0.91765 0.78118 0.90932 0.0
O67 O 0.91477 0.73421 0.93591 0.0
C68 C 0.8332 0.76771 0.94404 0.0
C69 C 0.85336 0.70322 0.79133 0.0
C70 C 0.8459 0.69687 0.02858 0.0
O71 O 0.86475 0.78048 0.95092 0.0
O72 O 0.81825 0.7386 0.91748 0.0
O73 O 0.82639 0.68898 0.97806 0.0
O74 O 0.87501 0.72203 0.02067 0.0
C75 C 0.93297 0.76598 0.92939 0.0
O76 O 0.85052 0.68756 0.84571 0.0
O77 O 0.86281 0.73432 0.79837 0.0
In78 In 0.80345 0.60271 0.41081 0.0
O79 O 0.82161 0.64868 0.47973 0.0
O80 O 0.80568 0.60079 0.52666 0.0
C81 C 0.81711 0.63344 0.28998 0.0
C82 C 0.84076 0.57281 0.38888 0.0
C83 C 0.73586 0.57137 0.39693 0.0
O84 O 0.83287 0.64915 0.34274 0.0
O85 O 0.79478 0.60299 0.29876 0.0
O86 O 0.75174 0.55526 0.40132 0.0
O87 O 0.75354 0.60294 0.40741 0.0
C88 C 0.81727 0.63236 0.53394 0.0
O89 O 0.80887 0.55627 0.39374 0.0
O90 O 0.85411 0.60404 0.40204 0.0
In91 In 0.39671 0.19842 0.42013 0.0
O92 O 0.35039 0.17519 0.48894 0.0
O93 O 0.39871 0.20038 0.53657 0.0
C94 C 0.36396 0.18481 0.30197 0.0
C95 C 0.43192 0.26589 0.39737 0.0
C96 C 0.42256 0.15774 0.39511 0.0
O97 O 0.34841 0.18026 0.35738 0.0
O98 O 0.39532 0.19591 0.30663 0.0
O99 O 0.44084 0.18785 0.41599 0.0
O100 O 0.39116 0.14715 0.39518 0.0
C101 C 0.36686 0.18424 0.54352 0.0
O102 O 0.44624 0.24894 0.41072 0.0
O103 O 0.40001 0.24954 0.40163 0.0
In104 In 0.7908 0.19096 0.40685 0.0
O105 O 0.79949 0.15659 0.47893 0.0
O106 O 0.8054 0.20245 0.51939 0.0
C107 C 0.80741 0.17312 0.29033 0.0
C108 C 0.72304 0.15859 0.39338 0.0
C109 C 0.82452 0.25731 0.37493 0.0
O110 O 0.82275 0.17472 0.3448 0.0
O111 O 0.78382 0.17978 0.29535 0.0
O112 O 0.79437 0.24259 0.39621 0.0
O113 O 0.83855 0.2394 0.37494 0.0
C114 C 0.80662 0.1757 0.52973 0.0
O115 O 0.73974 0.18898 0.41348 0.0
O116 O 0.73998 0.14382 0.38583 0.0
In117 In 0.92579 0.45858 0.23808 0.0
O118 O 0.96785 0.46904 0.16287 0.0
O119 O 0.92435 0.46931 0.12472 0.0
C120 C 0.9621 0.47514 0.3521 0.0
C121 C 0.8994 0.49797 0.27006 0.0
C122 C 0.89031 0.39093 0.25557 0.0
O123 O 0.97627 0.48278 0.29474 0.0
O124 O 0.93022 0.45927 0.35119 0.0
O125 O 0.87631 0.40746 0.23646 0.0
O126 O 0.92209 0.40788 0.26023 0.0
C127 C 0.95325 0.47309 0.11263 0.0
O128 O 0.88103 0.46681 0.25617 0.0
O129 O 0.93088 0.50986 0.26256 0.0
In130 In 0.53411 0.46793 0.25751 0.0
O131 O 0.53237 0.41673 0.26043 0.0
O132 O 0.48893 0.41891 0.29343 0.0
C133 C 0.60107 0.50012 0.28196 0.0
C134 C 0.51915 0.48319 0.13412 0.0
C135 C 0.51372 0.48438 0.37111 0.0
O136 O 0.58365 0.4682 0.27662 0.0
O137 O 0.58532 0.51583 0.26969 0.0
O138 O 0.49309 0.46731 0.32472 0.0
O139 O 0.54438 0.49453 0.35861 0.0
C140 C 0.50312 0.40141 0.28641 0.0
O141 O 0.51921 0.49836 0.18739 0.0
O142 O 0.52719 0.46063 0.1422 0.0
In143 In 0.52049 0.05821 0.25531 0.0
O144 O 0.49894 0.01114 0.18822 0.0
O145 O 0.5242 0.05922 0.13935 0.0
C146 C 0.50321 0.02761 0.3753 0.0
C147 C 0.58753 0.09185 0.28223 0.0
C148 C 0.47967 0.08539 0.26293 0.0
O149 O 0.50116 0.01131 0.322 0.0
O150 O 0.51315 0.05867 0.36767 0.0
O151 O 0.51151 0.10309 0.25695 0.0
O152 O 0.46857 0.05386 0.26158 0.0
C153 C 0.50829 0.02728 0.13331 0.0
O154 O 0.57214 0.1069 0.26237 0.0
O155 O 0.56987 0.05992 0.28308 0.0
In156 In 0.46131 0.93001 0.75002 0.0
O157 O 0.49158 0.97363 0.823 0.0
O158 O 0.45256 0.92739 0.86498 0.0
C159 C 0.47985 0.97006 0.64057 0.0
C160 C 0.49579 0.89709 0.72706 0.0
C161 C 0.39433 0.89603 0.72474 0.0
O162 O 0.47166 0.97859 0.69499 0.0
O163 O 0.4801 0.94256 0.64264 0.0
O164 O 0.40942 0.88132 0.7483 0.0
O165 O 0.41226 0.92777 0.71928 0.0
C166 C 0.47567 0.95772 0.87508 0.0
O167 O 0.46472 0.88444 0.71365 0.0
O168 O 0.50916 0.92545 0.75696 0.0
In169 In 0.05522 0.53019 0.73489 0.0
O170 O 0.10075 0.58217 0.71351 0.0
O171 O 0.05247 0.57861 0.7202 0.0
C172 C 0.09056 0.49777 0.72895 0.0
C173 C 0.0231 0.51222 0.85546 0.0
C174 C 0.02557 0.51162 0.61348 0.0
O175 O 0.10447 0.52879 0.74545 0.0
O176 O 0.05877 0.48275 0.72213 0.0
O177 O 0.01023 0.51482 0.66375 0.0
O178 O 0.05497 0.51702 0.62497 0.0
C179 C 0.08358 0.5968 0.70669 0.0
O180 O 0.00947 0.49682 0.8012 0.0
O181 O 0.05305 0.5367 0.84955 0.0
In182 In 0.46173 0.52476 0.75155 0.0
O183 O 0.41027 0.52219 0.74715 0.0
O184 O 0.41228 0.47722 0.72602 0.0
C185 C 0.48888 0.59032 0.71456 0.0
C186 C 0.47955 0.51244 0.87535 0.0
C187 C 0.47965 0.50507 0.63907 0.0
O188 O 0.45808 0.5724 0.73084 0.0
O189 O 0.50625 0.57588 0.72043 0.0
O190 O 0.4998 0.53207 0.66972 0.0
O191 O 0.45133 0.48701 0.66693 0.0
C192 C 0.39463 0.49148 0.72839 0.0
O193 O 0.48586 0.50237 0.82103 0.0
O194 O 0.46411 0.52874 0.86804 0.0
In195 In 0.59152 0.79211 0.58136 0.0
O196 O 0.6369 0.82541 0.51333 0.0
O197 O 0.59235 0.78705 0.46557 0.0
C198 C 0.62567 0.80166 0.69721 0.0
C199 C 0.56186 0.82915 0.60851 0.0
C200 C 0.55406 0.72474 0.59991 0.0
O201 O 0.63742 0.79865 0.64132 0.0
O202 O 0.5973 0.80005 0.69416 0.0
O203 O 0.54095 0.74233 0.58242 0.0
O204 O 0.58599 0.74046 0.60233 0.0
C205 C 0.62256 0.81082 0.459 0.0
O206 O 0.5453 0.79903 0.58682 0.0
O207 O 0.59356 0.84147 0.61103 0.0
In208 In 0.19427 0.7985 0.57236 0.0
O209 O 0.1705 0.82102 0.5033 0.0
O210 O 0.19707 0.79925 0.45591 0.0
C211 C 0.17864 0.8173 0.68839 0.0
C212 C 0.15417 0.73135 0.59065 0.0
C213 C 0.26138 0.83118 0.60056 0.0
O214 O 0.17498 0.82826 0.63206 0.0
O215 O 0.18967 0.79687 0.6857 0.0
O216 O 0.24417 0.79945 0.59258 0.0
O217 O 0.24556 0.8468 0.58859 0.0
C218 C 0.18016 0.81418 0.44889 0.0
O219 O 0.18367 0.74381 0.56632 0.0
O220 O 0.14397 0.7522 0.59938 0.0
In221 In 0.19024 0.39238 0.60852 0.0
O222 O 0.16977 0.34558 0.54085 0.0
O223 O 0.1892 0.39364 0.49237 0.0
C224 C 0.17213 0.36142 0.72905 0.0
C225 C 0.25762 0.42061 0.62373 0.0
C226 C 0.15681 0.42658 0.62753 0.0
O227 O 0.15791 0.34594 0.67503 0.0
O228 O 0.19495 0.3918 0.72178 0.0
O229 O 0.18857 0.44036 0.6325 0.0
O230 O 0.14209 0.3963 0.60667 0.0
C231 C 0.17552 0.36176 0.48605 0.0
O232 O 0.24372 0.43785 0.60884 0.0
O233 O 0.23804 0.38883 0.62325 0.0
C234 C 0.18414 0.32882 0.39365 0.0
C235 C 0.16596 0.34422 0.41948 0.0
C236 C 0.1259 0.32098 0.32435 0.0
C237 C 0.1457 0.30798 0.29557 0.0
N238 N 0.19699 0.30464 0.29645 0.0
N239 N 0.12197 0.35864 0.40635 0.0
C240 C 0.17563 0.31307 0.32869 0.0
C241 C 0.13767 0.34155 0.38366 0.0
N242 N 0.20959 0.32924 0.43123 0.0
N243 N 0.09496 0.31219 0.29694 0.0
H244 H 0.12863 0.37251 0.45135 0.0
H245 H 0.1039 0.36105 0.37838 0.0
H246 H 0.08507 0.29647 0.25466 0.0
H247 H 0.07766 0.31777 0.31947 0.0
H248 H 0.22093 0.31489 0.41927 0.0
H249 H 0.21804 0.34231 0.47699 0.0
H250 H 0.22098 0.31116 0.31454 0.0
H251 H 0.19218 0.29373 0.24836 0.0
C252 C 0.66552 0.81109 0.37912 0.0
C253 C 0.64041 0.82009 0.39295 0.0
C254 C 0.65183 0.8494 0.28356 0.0
C255 C 0.67468 0.83776 0.26712 0.0
N256 N 0.69915 0.80278 0.29426 0.0
N257 N 0.60673 0.84455 0.35655 0.0
C258 C 0.68065 0.81753 0.31375 0.0
C259 C 0.6326 0.83817 0.34446 0.0
N260 N 0.67491 0.79632 0.42847 0.0
N261 N 0.64973 0.87251 0.2425 0.0
H262 H 0.59323 0.83826 0.40192 0.0
H263 H 0.59711 0.85403 0.32011 0.0
H264 H 0.66401 0.88197 0.19841 0.0
H265 H 0.63629 0.88472 0.25502 0.0
H266 H 0.69589 0.79302 0.42445 0.0
H267 H 0.6631 0.78931 0.47562 0.0
H268 H 0.70119 0.7847 0.32305 0.0
H269 H 0.71012 0.80621 0.24651 0.0
C270 C 0.14721 0.79732 0.34003 0.0
C271 C 0.17204 0.82323 0.38204 0.0
C272 C 0.1787 0.86692 0.30028 0.0
C273 C 0.15356 0.84114 0.25857 0.0
N274 N 0.11478 0.78203 0.23498 0.0
N275 N 0.20907 0.88253 0.40736 0.0
C276 C 0.13808 0.80635 0.27744 0.0
C277 C 0.18706 0.858 0.36362 0.0
N278 N 0.13121 0.76433 0.36196 0.0
N279 N 0.19605 0.89971 0.27731 0.0
H280 H 0.21778 0.87707 0.45182 0.0
H281 H 0.21754 0.90831 0.4018 0.0
H282 H 0.19075 0.90737 0.23136 0.0
H283 H 0.21733 0.91915 0.30105 0.0
H284 H 0.11088 0.7442 0.33748 0.0
H285 H 0.1373 0.75688 0.40731 0.0
H286 H 0.10477 0.75605 0.24115 0.0
H287 H 0.10574 0.78784 0.19142 0.0
C288 C 0.35531 0.20343 0.65485 0.0
C289 C 0.34968 0.17655 0.61035 0.0
C290 C 0.30639 0.13522 0.68751 0.0
C291 C 0.31404 0.16176 0.73437 0.0
N292 N 0.34839 0.2205 0.76736 0.0
N293 N 0.3244 0.11645 0.58903 0.0
C294 C 0.33941 0.19567 0.71953 0.0
C295 C 0.3263 0.1423 0.62779 0.0
N296 N 0.37434 0.23642 0.63392 0.0
N297 N 0.28011 0.1032 0.70014 0.0
H298 H 0.33924 0.12057 0.54604 0.0
H299 H 0.31053 0.09095 0.60267 0.0
H300 H 0.266 0.09664 0.74474 0.0
H301 H 0.27071 0.08367 0.66456 0.0
H302 H 0.37625 0.257 0.66087 0.0
H303 H 0.38597 0.24325 0.58662 0.0
H304 H 0.36953 0.2447 0.76299 0.0
H305 H 0.33594 0.21638 0.81366 0.0
C306 C 0.79355 0.13636 0.62875 0.0
C307 C 0.81616 0.16739 0.59605 0.0
C308 C 0.85609 0.18282 0.6911 0.0
C309 C 0.83485 0.1505 0.72073 0.0
N310 N 0.78658 0.09395 0.71141 0.0
N311 N 0.87176 0.21731 0.5896 0.0
C312 C 0.80445 0.12654 0.68776 0.0
C313 C 0.84822 0.18989 0.62545 0.0
N314 N 0.76115 0.1169 0.60508 0.0
N315 N 0.88299 0.20733 0.72676 0.0
H316 H 0.86725 0.22319 0.54106 0.0
H317 H 0.89681 0.23245 0.60531 0.0
H318 H 0.88951 0.20334 0.77513 0.0
H319 H 0.89703 0.23251 0.71096 0.0
H320 H 0.74243 0.09593 0.63095 0.0
H321 H 0.75193 0.12351 0.56283 0.0
H322 H 0.76624 0.07441 0.68545 0.0
H323 H 0.79406 0.08556 0.7537 0.0
C324 C 0.8158 0.68171 0.68886 0.0
C325 C 0.84468 0.68576 0.72465 0.0
C326 C 0.85446 0.65298 0.63721 0.0
C327 C 0.82587 0.64946 0.60096 0.0
N328 N 0.78108 0.66263 0.58721 0.0
N329 N 0.89066 0.67428 0.73699 0.0
C330 C 0.80709 0.66451 0.62536 0.0
C331 C 0.86374 0.67103 0.69996 0.0
N332 N 0.79547 0.69249 0.71774 0.0
N333 N 0.87372 0.64064 0.6095 0.0
H334 H 0.89972 0.6894 0.78024 0.0
H335 H 0.90373 0.66148 0.72671 0.0
H336 H 0.86777 0.62745 0.56372 0.0
H337 H 0.89654 0.64457 0.62942 0.0
H338 H 0.77199 0.68702 0.69856 0.0
H339 H 0.80079 0.70503 0.7642 0.0
H340 H 0.76921 0.67668 0.59694 0.0
H341 H 0.7722 0.6481 0.54319 0.0
C342 C 0.97969 0.51516 0.01803 0.0
C343 C 0.96956 0.48255 0.04519 0.0
C344 C -0.00305 0.4706 0.95059 0.0
C345 C 0.00501 0.50222 0.92109 0.0
N346 N -0.00045 0.55231 0.92014 0.0
N347 N 0.9634 0.42698 0.03294 0.0
C348 C 0.99515 0.52391 0.953 0.0
C349 C 0.97678 0.45962 0.01024 0.0
N350 N 0.97586 0.53831 0.05558 0.0
N351 N 0.00965 0.45166 0.92295 0.0
H352 H 0.94834 0.418 0.07622 0.0
H353 H 0.96467 0.40797 0.00596 0.0
H354 H 0.0245 0.45888 0.87929 0.0
H355 H 0.00789 0.43028 0.94613 0.0
H356 H 0.98627 0.56373 0.04203 0.0
H357 H 0.96451 0.53288 0.10324 0.0
H358 H 0.98945 0.56708 0.93719 0.0
H359 H 0.01101 0.5597 0.87272 0.0
C360 C 0.47465 0.48141 0.05653 0.0
C361 C 0.509 0.49049 0.06776 0.0
C362 C 0.52443 0.51703 0.95558 0.0
C363 C 0.48968 0.50559 0.94226 0.0
N364 N 0.43093 0.47213 0.975 0.0
N365 N 0.56611 0.51334 0.02625 0.0
C366 C 0.46455 0.48668 0.99154 0.0
C367 C 0.53372 0.50707 0.01656 0.0
N368 N 0.4516 0.46763 0.10797 0.0
N369 N 0.54871 0.53886 0.91145 0.0
H370 H 0.57441 0.50819 0.07159 0.0
H371 H 0.58422 0.52158 0.98799 0.0
H372 H 0.54301 0.5474 0.86706 0.0
H373 H 0.57462 0.55101 0.9215 0.0
H374 H 0.42735 0.46451 0.10578 0.0
H375 H 0.45727 0.46109 0.1548 0.0
H376 H 0.41136 0.45489 0.00589 0.0
H377 H 0.42243 0.4749 0.92769 0.0
C378 C 0.51233 0.98718 0.05151 0.0
C379 C 0.50016 0.00972 0.06686 0.0
C380 C 0.47253 -0.00137 0.95562 0.0
C381 C 0.48276 0.97437 0.94226 0.0
N382 N 0.50848 0.942 0.97965 0.0
N383 N 0.46385 0.03258 0.03938 0.0
C384 C 0.50136 0.96746 0.99107 0.0
C385 C 0.47906 0.01443 0.02037 0.0
N386 N 0.53568 0.98586 0.09316 0.0
N387 N 0.45667 0.0067 0.90622 0.0
H388 H 0.46764 0.04424 0.08657 0.0
H389 H 0.44522 0.03375 0.01086 0.0
H390 H 0.44948 0.9942 0.85966 0.0
H391 H 0.45242 0.02712 0.90963 0.0
H392 H 0.5483 0.97274 0.08138 0.0
H393 H 0.54476 0.00035 0.13721 0.0
H394 H 0.51861 0.93311 0.01622 0.0
H395 H 0.50201 0.92795 0.93486 0.0
C396 C 0.16685 0.3052 0.8755 0.0
C397 C 0.15118 0.3153 0.92512 0.0
C398 C 0.15243 0.35801 0.84841 0.0
C399 C 0.16436 0.34517 0.79609 0.0
N400 N 0.18184 0.30574 0.75777 0.0
N401 N 0.12438 0.34751 0.95705 0.0
C402 C 0.17103 0.31834 0.80889 0.0
C403 C 0.14289 0.34085 0.9114 0.0
N404 N 0.1792 0.28432 0.89315 0.0
N405 N 0.15048 0.38676 0.83838 0.0
H406 H 0.11689 0.33552 0.00396 0.0
H407 H 0.11399 0.36286 0.94633 0.0
H408 H 0.15608 0.39968 0.79249 0.0
H409 H 0.1458 0.3994 0.87713 0.0
H410 H 0.19381 0.27852 0.86134 0.0
H411 H 0.17761 0.27519 0.94221 0.0
H412 H 0.18286 0.28344 0.76182 0.0
H413 H 0.18822 0.31651 0.70966 0.0
C414 C 0.67553 0.83424 0.77388 0.0
C415 C 0.64285 0.80587 0.76258 0.0
C416 C 0.63678 0.79203 0.88338 0.0
C417 C 0.66963 0.82008 0.89422 0.0
N418 N 0.7242 0.8608 0.84832 0.0
N419 N 0.59642 0.75261 0.80192 0.0
C420 C 0.69028 0.83899 0.83893 0.0
C421 C 0.62469 0.7831 0.81602 0.0
N422 N 0.69169 0.85776 0.72404 0.0
N423 N 0.61676 0.7748 0.93731 0.0
H424 H 0.58773 0.74485 0.75263 0.0
H425 H 0.58369 0.73367 0.8379 0.0
H426 H 0.62511 0.78043 0.98734 0.0
H427 H 0.5912 0.75654 0.93274 0.0
H428 H 0.71373 0.88092 0.73252 0.0
H429 H 0.68174 0.85558 0.67557 0.0
H430 H 0.74106 0.87275 0.80857 0.0
H431 H 0.73608 0.86436 0.89523 0.0
C432 C 0.17956 0.87198 0.83413 0.0
C433 C 0.16118 0.84652 0.88324 0.0
C434 C 0.14946 0.8022 0.79992 0.0
C435 C 0.17116 0.82766 0.7536 0.0
N436 N 0.21169 0.88653 0.73011 0.0
N437 N 0.13027 0.78729 0.91553 0.0
C438 C 0.18742 0.86253 0.77136 0.0
C439 C 0.14686 0.81157 0.86712 0.0
N440 N 0.18923 0.90517 0.84701 0.0
N441 N 0.1299 0.76931 0.77853 0.0
H442 H 0.12512 0.79262 0.96393 0.0
H443 H 0.12325 0.76187 0.90904 0.0
H444 H 0.13008 0.76163 0.72888 0.0
H445 H 0.11099 0.7502 0.8078 0.0
H446 H 0.19913 0.92409 0.81019 0.0
H447 H 0.18491 0.91346 0.89305 0.0
H448 H 0.22722 0.91177 0.74455 0.0
H449 H 0.21865 0.88087 0.6838 0.0
C450 C 0.34692 0.15168 0.19477 0.0
C451 C 0.34733 0.17761 0.23551 0.0
C452 C 0.32543 0.196 0.14132 0.0
C453 C 0.32227 0.16828 0.10276 0.0
N454 N 0.32798 0.11856 0.09143 0.0
N455 N 0.33422 0.22244 0.25177 0.0
C456 C 0.33256 0.14584 0.12906 0.0
C457 C 0.33572 0.19919 0.21006 0.0
N458 N 0.36055 0.13285 0.21878 0.0
N459 N 0.31909 0.21948 0.11181 0.0
H460 H 0.34265 0.22639 0.30179 0.0
H461 H 0.32256 0.23632 0.23857 0.0
H462 H 0.31124 0.21773 0.06166 0.0
H463 H 0.3241 0.24211 0.13491 0.0
H464 H 0.36524 0.11681 0.1888 0.0
H465 H 0.36874 0.13429 0.26857 0.0
H466 H 0.33054 0.09865 0.11063 0.0
H467 H 0.32018 0.11501 0.04096 0.0
C468 C 0.85193 0.18413 0.12305 0.0
C469 C 0.82867 0.15342 0.09021 0.0
C470 C 0.79165 0.1353 0.18962 0.0
C471 C 0.81622 0.1648 0.22424 0.0
N472 N 0.87151 0.21528 0.22848 0.0
N473 N 0.77729 0.0989 0.09089 0.0
C474 C 0.84692 0.18863 0.19233 0.0
C475 C 0.79872 0.12876 0.12314 0.0
N476 N 0.87856 0.20916 0.0878 0.0
N477 N 0.76144 0.11372 0.22031 0.0
H478 H 0.78001 0.09447 0.04009 0.0
H479 H 0.75749 0.07796 0.11469 0.0
H480 H 0.75647 0.11598 0.27099 0.0
H481 H 0.74068 0.09428 0.19523 0.0
H482 H 0.8942 0.23356 0.10649 0.0
H483 H 0.88369 0.20656 0.03749 0.0
H484 H 0.89594 0.23125 0.21054 0.0
H485 H 0.8685 0.22017 0.27873 0.0
C486 C 0.83307 0.69701 0.15098 0.0
C487 C 0.83552 0.67937 0.09393 0.0
C488 C 0.82828 0.63269 0.16617 0.0
C489 C 0.82345 0.64925 0.22259 0.0
N490 N 0.81222 0.6925 0.26516 0.0
N491 N 0.83006 0.6284 0.04416 0.0
C492 C 0.82337 0.68017 0.21417 0.0
C493 C 0.83112 0.64642 0.10049 0.0
N494 N 0.84033 0.72996 0.14515 0.0
N495 N 0.83206 0.60494 0.17556 0.0
H496 H 0.83371 0.63824 0.99526 0.0
H497 H 0.82298 0.60279 0.04536 0.0
H498 H 0.83069 0.59413 0.22274 0.0
H499 H 0.83964 0.59434 0.13745 0.0
H500 H 0.84289 0.74519 0.1867 0.0
H501 H 0.84613 0.74299 0.09926 0.0
H502 H 0.80823 0.713 0.25906 0.0
H503 H 0.80343 0.68017 0.31145 0.0
C504 C 0.97069 0.45876 0.4675 0.0
C505 C 0.9808 0.48402 0.41657 0.0
C506 C 0.02423 0.52563 0.49188 0.0
C507 C 0.01044 0.50192 0.54574 0.0
N508 N 0.96919 0.44637 0.58703 0.0
N509 N 0.01282 0.5433 0.38464 0.0
C510 C 0.98309 0.46864 0.53434 0.0
C511 C 0.00659 0.51794 0.42953 0.0
N512 N 0.95053 0.42518 0.45125 0.0
N513 N 0.05417 0.55542 0.49981 0.0
H514 H -0.00043 0.5393 0.33938 0.0
H515 H 0.02875 0.56895 0.39559 0.0
H516 H 0.06786 0.56257 0.54494 0.0
H517 H 0.06692 0.57173 0.45969 0.0
H518 H 0.94487 0.40542 0.48491 0.0
H519 H 0.94239 0.41676 0.40199 0.0
H520 H 0.94666 0.42324 0.58295 0.0
H521 H 0.97897 0.45183 0.63609 0.0
C522 C 0.47303 0.50658 0.51443 0.0
C523 C 0.48662 0.49786 0.57062 0.0
C524 C 0.51231 0.47477 0.49514 0.0
C525 C 0.50272 0.48768 0.43907 0.0
N526 N 0.47738 0.51923 0.39454 0.0
N527 N 0.52181 0.4769 0.61612 0.0
C528 C 0.48373 0.50427 0.44829 0.0
C529 C 0.50713 0.48297 0.56151 0.0
N530 N 0.44978 0.51685 0.52424 0.0
N531 N 0.52478 0.45328 0.48491 0.0
H532 H 0.51743 0.4814 0.6659 0.0
H533 H 0.54013 0.46968 0.61181 0.0
H534 H 0.52732 0.44526 0.43695 0.0
H535 H 0.52919 0.44056 0.52389 0.0
H536 H 0.43624 0.51991 0.48502 0.0
H537 H 0.44209 0.51994 0.5721 0.0
H538 H 0.46704 0.53502 0.39951 0.0
H539 H 0.48497 0.51817 0.34523 0.0
C540 C 0.46193 0.99426 0.54562 0.0
C541 C 0.4872 0.98936 0.57716 0.0
C542 C 0.52041 0.00526 0.4731 0.0
C543 C 0.49643 0.0124 0.44292 0.0
N544 N 0.44731 0.01924 0.45259 0.0
N545 N 0.54435 -0.00055 0.57812 0.0
C546 C 0.4682 0.00885 0.48006 0.0
C547 C 0.51761 -0.00242 0.54291 0.0
N548 N 0.43126 0.98326 0.57623 0.0
N549 N 0.54571 0.00562 0.43528 0.0
H550 H 0.54359 0.99614 0.63049 0.0
H551 H 0.56829 0.00815 0.55718 0.0
H552 H 0.54915 0.0118 0.38404 0.0
H553 H 0.56167 0.99714 0.45353 0.0
H554 H 0.4105 0.9823 0.55182 0.0
H555 H 0.42557 0.97282 0.62455 0.0
H556 H 0.42891 0.02121 0.48028 0.0
H557 H 0.44972 0.02788 0.40293 0.0
C558 C 0.20227 0.2131 0.08354 0.0
C559 C 0.17649 0.21467 0.04644 0.0
C560 C 0.18931 0.19093 0.9465 0.0
C561 C 0.21321 0.18688 0.98532 0.0
N562 N 0.23674 0.18666 0.09494 0.0
N563 N 0.14193 0.20113 0.94559 0.0
C564 C 0.21829 0.19606 0.05498 0.0
C565 C 0.16883 0.20223 0.97886 0.0
N566 N 0.21147 0.22789 0.14607 0.0
N567 N 0.18726 0.18541 0.87815 0.0
H568 H 0.12721 0.21058 0.966 0.0
H569 H 0.13271 0.18878 0.89948 0.0
H570 H 0.20203 0.17729 0.85277 0.0
H571 H 0.17314 0.19159 0.84568 0.0
H572 H 0.23281 0.2311 0.17204 0.0
H573 H 0.19914 0.23914 0.17009 0.0
H574 H 0.23852 0.18965 0.14732 0.0
H575 H 0.24752 0.17266 0.07692 0.0
C576 C 0.82075 0.01645 0.00955 0.0
C577 C 0.80879 0.02383 0.94901 0.0
C578 C 0.7628 0.96473 0.94196 0.0
C579 C 0.77276 0.95809 0.00587 0.0
N580 N 0.80779 0.9788 0.10573 0.0
N581 N 0.76653 0.00667 0.86132 0.0
C582 C 0.80102 0.98419 0.04086 0.0
C583 C 0.77919 -0.00154 0.91643 0.0
N584 N 0.85077 0.04038 0.03775 0.0
N585 N 0.73889 0.93859 0.90389 0.0
H586 H 0.77903 0.03055 0.83845 0.0
H587 H 0.7427 0.99051 0.84068 0.0
H588 H 0.72656 0.91349 0.92001 0.0
H589 H 0.73342 0.94122 0.85381 0.0
H590 H 0.86284 0.03514 0.0768 0.0
H591 H 0.86508 0.06506 0.01933 0.0
H592 H 0.82562 -0.00212 0.13686 0.0
H593 H 0.7934 0.95584 0.13115 0.0
C594 C 0.99394 0.78163 0.92287 0.0
C595 C 0.96788 0.78413 0.95655 0.0
C596 C 0.00609 0.81306 0.05225 0.0
C597 C 0.03314 0.81371 0.01555 0.0
N598 N 0.05412 0.80389 0.91003 0.0
N599 N 0.94923 0.80477 0.05056 0.0
C600 C 0.02744 0.79922 0.94941 0.0
C601 C 0.97405 0.80083 0.02023 0.0
N602 N 0.98667 0.76231 0.86555 0.0
N603 N 0.01051 0.82242 0.11897 0.0
H604 H 0.9247 0.79445 0.03137 0.0
H605 H 0.95353 0.82026 0.09256 0.0
H606 H 0.03329 0.83044 0.14474 0.0
H607 H 0.99085 0.81912 0.15071 0.0
H608 H 0.00352 0.75588 0.84368 0.0
H609 H 0.96289 0.75068 0.84227 0.0
H610 H 0.05178 0.79741 0.85895 0.0
H611 H 0.07923 0.81703 0.92594 0.0
C612 C 0.79252 0.76906 0.02789 0.0
C613 C 0.81484 0.78418 0.97207 0.0
C614 C 0.802 0.8305 0.97068 0.0
C615 C 0.78181 0.81675 0.02971 0.0
N616 N 0.76317 0.77707 0.12225 0.0
N617 N 0.84473 0.83156 0.89603 0.0
C618 C 0.77854 0.78714 0.06045 0.0
C619 C 0.82101 0.81577 0.94564 0.0
N620 N 0.7844 0.73734 0.04977 0.0
N621 N 0.80131 0.85613 0.93575 0.0
H622 H 0.85738 0.8205 0.87262 0.0
H623 H 0.85341 0.85653 0.88095 0.0
H624 H 0.78737 0.86743 0.95109 0.0
H625 H 0.81218 0.86431 0.88817 0.0
H626 H 0.76523 0.72349 0.08461 0.0
H627 H 0.79509 0.72361 0.03001 0.0
H628 H 0.76317 0.75786 0.15093 0.0
H629 H 0.75324 0.79016 0.14813 0.0
C630 C 0.1836 0.99679 0.05993 0.0
C631 C 0.19279 0.97319 0.03509 0.0
C632 C 0.22845 0.01406 0.94819 0.0
C633 C 0.22026 0.03802 0.97449 0.0
N634 N 0.197 0.05539 0.06605 0.0
N635 N 0.23149 0.96325 0.96736 0.0
C636 C 0.19967 0.0303 0.03325 0.0
C637 C 0.2177 0.98305 0.98324 0.0
N638 N 0.15968 0.98727 0.10969 0.0
N639 N 0.24516 0.02022 0.88776 0.0
H640 H 0.22439 0.93997 0.98976 0.0
H641 H 0.25238 0.97135 0.93558 0.0
H642 H 0.25292 0.0424 0.85992 0.0
H643 H 0.24832 0.00201 0.86192 0.0
H644 H 0.14828 0.00141 0.12292 0.0
H645 H 0.15026 0.96449 0.13627 0.0
H646 H 0.18559 0.05213 0.11321 0.0
H647 H 0.20888 0.08051 0.04967 0.0
C648 C 0.95988 0.18869 0.05273 0.0
C649 C 0.95708 0.17703 0.98488 0.0
C650 C 0.01698 0.19268 0.98671 0.0
C651 C 0.02052 0.20781 0.05151 0.0
N652 N -0.00324 0.22429 0.14284 0.0
N653 N 0.98372 0.17202 0.88365 0.0
C654 C 0.9924 0.20716 0.08339 0.0
C655 C 0.9858 0.17991 0.95096 0.0
N656 N 0.93131 0.18038 0.08935 0.0
N657 N 0.04338 0.1905 0.95918 0.0
H658 H 0.96142 0.16301 0.85561 0.0
H659 H 0.00466 0.17717 0.85404 0.0
H660 H 0.06709 0.2006 0.98215 0.0
H661 H 0.0411 0.17638 0.91597 0.0
H662 H 0.93158 0.18533 0.14089 0.0
H663 H 0.90695 0.16534 0.07009 0.0
H664 H 0.97804 0.22814 0.16426 0.0
H665 H 0.0199 0.23667 0.1685 0.0
C666 C 0.8798 0.56875 0.30365 0.0
C667 C 0.86013 0.55669 0.36398 0.0
C668 C 0.86981 0.50821 0.36637 0.0
C669 C 0.88564 0.518 0.30189 0.0
N670 N 0.90251 0.55504 0.20515 0.0
N671 N 0.83624 0.51517 0.45333 0.0
C672 C 0.89011 0.54779 0.26978 0.0
C673 C 0.85511 0.52646 0.39542 0.0
N674 N 0.8887 0.6001 0.27825 0.0
N675 N 0.87021 0.48244 0.40137 0.0
H676 H 0.82839 0.52968 0.48058 0.0
H677 H 0.8273 0.49097 0.47327 0.0
H678 H 0.8804 0.46817 0.38209 0.0
H679 H 0.86285 0.47675 0.45173 0.0
H680 H 0.90642 0.61173 0.23974 0.0
H681 H 0.88058 0.61597 0.29817 0.0
H682 H 0.90245 0.57394 0.17547 0.0
H683 H 0.91017 0.5402 0.17856 0.0
C684 C 0.49885 0.35886 0.37193 0.0
C685 C 0.48697 0.36615 0.31123 0.0
C686 C 0.44136 0.30706 0.30373 0.0
C687 C 0.45071 0.30061 0.36849 0.0
N688 N 0.48544 0.32142 0.4687 0.0
N689 N 0.4449 0.34875 0.22296 0.0
C690 C 0.47886 0.32675 0.40367 0.0
C691 C 0.45752 0.34073 0.27841 0.0
N692 N 0.52911 0.38266 0.39942 0.0
N693 N 0.41854 0.28078 0.26433 0.0
H694 H 0.45731 0.37255 0.19979 0.0
H695 H 0.42107 0.33243 0.20243 0.0
H696 H 0.40717 0.25553 0.27917 0.0
H697 H 0.41349 0.28356 0.21403 0.0
H698 H 0.54083 0.37763 0.43946 0.0
H699 H 0.54399 0.40684 0.37897 0.0
H700 H 0.5033 0.34054 0.49973 0.0
H701 H 0.4709 0.29846 0.49404 0.0
C702 C 0.64969 0.13443 0.27228 0.0
C703 C 0.62215 0.11019 0.31144 0.0
C704 C 0.66092 0.11753 0.40476 0.0
C705 C 0.68801 0.14343 0.36756 0.0
N706 N 0.70793 0.1806 0.27026 0.0
N707 N 0.60025 0.08524 0.42104 0.0
C708 C 0.68227 0.15328 0.30276 0.0
C709 C 0.62737 0.10344 0.37939 0.0
N710 N 0.6451 0.13824 0.2051 0.0
N711 N 0.66722 0.10625 0.46416 0.0
H712 H 0.57531 0.07627 0.40574 0.0
H713 H 0.6025 0.08219 0.47269 0.0
H714 H 0.69131 0.11711 0.48594 0.0
H715 H 0.64901 0.08464 0.48933 0.0
H716 H 0.66493 0.15268 0.17193 0.0
H717 H 0.62168 0.12459 0.18087 0.0
H718 H 0.7043 0.19127 0.22667 0.0
H719 H 0.73249 0.19445 0.28947 0.0
C720 C 0.43201 0.08447 0.33015 0.0
C721 C 0.4587 0.10097 0.28241 0.0
C722 C 0.45717 0.1537 0.30006 0.0
C723 C 0.4365 0.13898 0.35838 0.0
N724 N 0.40671 0.09087 0.43263 0.0
N725 N 0.49286 0.15005 0.21328 0.0
C726 C 0.42454 0.10447 0.37434 0.0
C727 C 0.47009 0.13528 0.2648 0.0
N728 N 0.41244 0.0499 0.33109 0.0
N729 N 0.46286 0.18431 0.27583 0.0
H730 H 0.49839 0.13591 0.17927 0.0
H731 H 0.50644 0.17613 0.20472 0.0
H732 H 0.45382 0.19879 0.29887 0.0
H733 H 0.47425 0.19434 0.22935 0.0
H734 H 0.39135 0.03699 0.36241 0.0
H735 H 0.41371 0.03443 0.29375 0.0
H736 H 0.40048 0.06681 0.45004 0.0
H737 H 0.40116 0.10489 0.46689 0.0
C738 C 0.84534 0.31974 0.38262 0.0
C739 C 0.84061 0.29147 0.34389 0.0
C740 C 0.86856 0.32853 0.24646 0.0
C741 C 0.87107 0.35631 0.28357 0.0
N742 N 0.85781 0.37819 0.38337 0.0
N743 N 0.84047 0.26746 0.23457 0.0
C744 C 0.85805 0.35181 0.35049 0.0
C745 C 0.85031 0.29542 0.27458 0.0
N746 N 0.83923 0.31629 0.45076 0.0
N747 N 0.88383 0.33381 0.1846 0.0
H748 H 0.82576 0.24273 0.25231 0.0
H749 H 0.84392 0.26867 0.18233 0.0
H750 H 0.89601 0.35752 0.161 0.0
H751 H 0.8864 0.31523 0.1588 0.0
H752 H 0.84578 0.33669 0.48328 0.0
H753 H 0.83022 0.29324 0.47611 0.0
H754 H 0.84536 0.3755 0.42907 0.0
H755 H 0.86782 0.4024 0.36266 0.0
C756 C 0.66224 0.54449 0.2746 0.0
C757 C 0.63563 0.51768 0.31109 0.0
C758 C 0.67453 0.52654 0.40517 0.0
C759 C 0.70063 0.55495 0.37067 0.0
N760 N 0.71779 0.59464 0.27676 0.0
N761 N 0.61431 0.48725 0.41645 0.0
C762 C 0.69399 0.56519 0.30689 0.0
C763 C 0.64117 0.50963 0.37775 0.0
N764 N 0.65764 0.54916 0.20782 0.0
N765 N 0.68157 0.51575 0.46444 0.0
H766 H 0.58936 0.47446 0.39913 0.0
H767 H 0.61622 0.48343 0.46786 0.0
H768 H 0.70479 0.52918 0.48947 0.0
H769 H 0.66496 0.4926 0.48709 0.0
H770 H 0.6772 0.5656 0.17594 0.0
H771 H 0.63483 0.53417 0.18223 0.0
H772 H 0.71265 0.60525 0.23491 0.0
H773 H 0.74196 0.6103 0.296 0.0
C774 C 0.55318 0.87928 0.61574 0.0
C775 C 0.54529 0.84676 0.63945 0.0
C776 C 0.50611 0.84794 0.72329 0.0
C777 C 0.51533 0.88125 0.70204 0.0
N778 N 0.55179 0.93108 0.63553 0.0
N779 N 0.52047 0.8034 0.72575 0.0
C780 C 0.54035 0.89778 0.65091 0.0
C781 C 0.52335 0.83187 0.69584 0.0
N782 N 0.57158 0.89177 0.55755 0.0
N783 N 0.48082 0.8316 0.76987 0.0
H784 H 0.53332 0.79125 0.70879 0.0
H785 H 0.5079 0.79357 0.77136 0.0
H786 H 0.46959 0.84346 0.79567 0.0
H787 H 0.46975 0.80577 0.78043 0.0
H788 H 0.575 0.91355 0.53309 0.0
H789 H 0.58102 0.87872 0.52998 0.0
H790 H 0.57269 0.94556 0.60472 0.0
H791 H 0.54219 0.94528 0.65751 0.0
C792 C 0.14904 0.68915 0.67792 0.0
C793 C 0.13556 0.69682 0.61991 0.0
C794 C 0.08567 0.63961 0.6223 0.0
C795 C 0.09898 0.63212 0.68099 0.0
N796 N 0.13826 0.65209 0.77433 0.0
N797 N 0.08886 0.68221 0.54378 0.0
C798 C 0.12932 0.65756 0.7114 0.0
C799 C 0.10308 0.67296 0.59452 0.0
N800 N 0.18062 0.71214 0.70161 0.0
N801 N 0.05743 0.61457 0.59075 0.0
H802 H 0.10178 0.7055 0.51879 0.0
H803 H 0.06357 0.66776 0.52908 0.0
H804 H 0.0431 0.58999 0.60937 0.0
H805 H 0.04926 0.61731 0.54317 0.0
H806 H 0.19362 0.70623 0.73752 0.0
H807 H 0.19495 0.73678 0.68306 0.0
H808 H 0.15811 0.67076 0.80275 0.0
H809 H 0.12359 0.62975 0.80153 0.0
C810 C 0.3343 0.44498 0.73784 0.0
C811 C 0.35929 0.4741 0.70347 0.0
C812 C 0.31913 0.46393 0.6112 0.0
C813 C 0.29311 0.43694 0.64881 0.0
N814 N 0.27479 0.40519 0.75398 0.0
N815 N 0.37509 0.51395 0.61088 0.0
C816 C 0.30038 0.42811 0.71351 0.0
C817 C 0.35153 0.4845 0.64135 0.0
N818 N 0.34294 0.43338 0.79404 0.0
N819 N 0.31332 0.46882 0.54532 0.0
H820 H 0.39966 0.52907 0.6292 0.0
H821 H 0.36958 0.52482 0.56997 0.0
H822 H 0.29025 0.45346 0.52087 0.0
H823 H 0.3322 0.48572 0.51275 0.0
H824 H 0.32713 0.40969 0.81565 0.0
H825 H 0.36678 0.44647 0.81691 0.0
H826 H 0.27815 0.40137 0.80472 0.0
H827 H 0.24951 0.3917 0.73945 0.0
C828 C 0.11464 0.43003 0.70468 0.0
C829 C 0.13849 0.44405 0.65073 0.0
C830 C 0.1311 0.49395 0.64839 0.0
C831 C 0.10988 0.48136 0.70638 0.0
N832 N 0.08598 0.44074 0.79676 0.0
N833 N 0.17163 0.49048 0.57435 0.0
C834 C 0.10285 0.45027 0.73633 0.0
C835 C 0.14757 0.47648 0.62396 0.0
N836 N 0.10295 0.39739 0.72579 0.0
N837 N 0.13383 0.52129 0.61377 0.0
H838 H 0.18156 0.47717 0.5494 0.0
H839 H 0.1829 0.51587 0.55989 0.0
H840 H 0.12232 0.53502 0.62907 0.0
H841 H 0.14531 0.52887 0.56653 0.0
H842 H 0.08251 0.38467 0.75862 0.0
H843 H 0.11187 0.38183 0.70762 0.0
H844 H 0.08334 0.42033 0.82539 0.0
H845 H 0.07745 0.4553 0.82177 0.0
C846 C 0.51499 0.62916 0.6157 0.0
C847 C 0.50284 0.62426 0.68334 0.0
C848 C 0.51809 0.68404 0.6901 0.0
C849 C 0.53385 0.68968 0.62556 0.0
N850 N 0.55003 0.66881 0.5287 0.0
N851 N 0.49554 0.64709 0.78793 0.0
C852 C 0.5331 0.66256 0.58887 0.0
C853 C 0.50473 0.65163 0.72117 0.0
N854 N 0.50789 0.60169 0.57613 0.0
N855 N 0.51621 0.70974 0.72208 0.0
H856 H 0.48562 0.62371 0.81237 0.0
H857 H 0.5001 0.66688 0.82068 0.0
H858 H 0.52744 0.73442 0.70335 0.0
H859 H 0.50165 0.7062 0.76515 0.0
H860 H 0.51299 0.60324 0.52448 0.0
H861 H 0.49382 0.57679 0.5934 0.0
H862 H 0.55405 0.65095 0.50372 0.0
H863 H 0.56185 0.6926 0.50547 0.0
C864 C 0.30059 0.86383 0.69631 0.0
C865 C 0.29566 0.84795 0.63182 0.0
C866 C 0.3549 0.8607 0.63197 0.0
C867 C 0.35986 0.87746 0.69539 0.0
N868 N 0.33978 0.89943 0.7837 0.0
N869 N 0.31649 0.82872 0.53981 0.0
C870 C 0.33337 0.88031 0.72625 0.0
C871 C 0.32239 0.84558 0.60017 0.0
N872 N 0.27344 0.86114 0.73127 0.0
N873 N 0.38192 0.86119 0.60039 0.0
H874 H 0.29395 0.81977 0.51265 0.0
H875 H 0.33322 0.8225 0.5169 0.0
H876 H 0.40606 0.87201 0.62179 0.0
H877 H 0.38137 0.85244 0.55156 0.0
H878 H 0.2745 0.8685 0.78152 0.0
H879 H 0.24884 0.8487 0.71244 0.0
H880 H 0.32312 0.90663 0.80352 0.0
H881 H 0.36281 0.91002 0.8097 0.0
loop_
_geom_bond_atom_site_label_1
_geom_bond_atom_site_label_2
_geom_bond_distance
_geom_bond_site_symmetry_2
_ccdc_geom_bond_type
In0 O1 2.294 . S
In0 O2 2.326 . S
In0 O6 2.266 1_554 S
In0 O7 2.326 1_554 S
In0 O8 2.266 . S
In0 O9 2.326 . S
In0 O11 2.294 . S
In0 O12 2.326 . S
O1 In0 2.294 . S
O1 C10 1.240 . S
O2 In0 2.326 . S
O2 C10 1.252 . S
C3 O6 1.252 . S
C3 O7 1.260 . S
C4 O11 1.240 . S
C4 O12 1.252 . S
C5 O8 1.252 . S
C5 O9 1.260 . S
O6 In0 2.266 1_556 S
O6 C3 1.252 . S
O7 In0 2.326 1_556 S
O7 C3 1.260 . S
O8 In0 2.266 . S
O8 C5 1.252 . S
O9 In0 2.326 . S
O9 C5 1.260 . S
C10 O1 1.240 . S
C10 O2 1.252 . S
O11 In0 2.294 . S
O11 C4 1.240 . S
O12 In0 2.326 . S
O12 C4 1.252 . S
In13 O14 2.294 . S
In13 O15 2.326 . S
In13 O19 2.266 . S
In13 O20 2.326 . S
In13 O21 2.266 1_554 S
In13 O22 2.326 1_554 S
In13 O24 2.294 . S
In13 O25 2.326 . S
O14 In13 2.294 . S
O14 C23 1.240 . S
O15 In13 2.326 . S
O15 C23 1.252 . S
C16 O19 1.252 . S
C16 O20 1.260 . S
C17 O24 1.240 . S
C17 O25 1.252 . S
C18 O21 1.252 . S
C18 O22 1.260 . S
O19 In13 2.266 . S
O19 C16 1.252 . S
O20 In13 2.326 . S
O20 C16 1.260 . S
O21 In13 2.266 1_556 S
O21 C18 1.252 . S
O22 In13 2.326 1_556 S
O22 C18 1.260 . S
C23 O14 1.240 . S
C23 O15 1.252 . S
O24 In13 2.294 . S
O24 C17 1.240 . S
O25 In13 2.326 . S
O25 C17 1.252 . S
In26 O27 2.294 . S
In26 O28 2.326 . S
In26 O32 2.266 . S
In26 O33 2.326 . S
In26 O34 2.266 1_554 S
In26 O35 2.326 1_554 S
In26 O37 2.294 . S
In26 O38 2.326 . S
O27 In26 2.294 . S
O27 C36 1.240 . S
O28 In26 2.326 . S
O28 C36 1.252 . S
C29 O32 1.252 . S
C29 O33 1.260 . S
C30 O37 1.240 . S
C30 O38 1.252 . S
C31 O34 1.252 . S
C31 O35 1.260 . S
O32 In26 2.266 . S
O32 C29 1.252 . S
O33 In26 2.326 . S
O33 C29 1.260 . S
O34 In26 2.266 1_556 S
O34 C31 1.252 . S
O35 In26 2.326 1_556 S
O35 C31 1.260 . S
C36 O27 1.240 . S
C36 O28 1.252 . S
O37 In26 2.294 . S
O37 C30 1.240 . S
O38 In26 2.326 . S
O38 C30 1.252 . S
In39 O40 2.294 . S
In39 O41 2.326 . S
In39 O45 2.266 1_556 S
In39 O46 2.326 1_556 S
In39 O47 2.266 . S
In39 O48 2.326 . S
In39 O50 2.294 . S
In39 O51 2.326 . S
O40 In39 2.294 . S
O40 C49 1.240 . S
O41 In39 2.326 . S
O41 C49 1.252 . S
C42 O45 1.252 . S
C42 O46 1.260 . S
C43 O50 1.240 . S
C43 O51 1.252 . S
C44 O47 1.252 . S
C44 O48 1.260 . S
O45 In39 2.266 1_554 S
O45 C42 1.252 . S
O46 In39 2.326 1_554 S
O46 C42 1.260 . S
O47 In39 2.266 . S
O47 C44 1.252 . S
O48 In39 2.326 . S
O48 C44 1.260 . S
C49 O40 1.240 . S
C49 O41 1.252 . S
O50 In39 2.294 . S
O50 C43 1.240 . S
O51 In39 2.326 . S
O51 C43 1.252 . S
In52 O53 2.294 . S
In52 O54 2.326 . S
In52 O58 2.266 1_556 S
In52 O59 2.326 1_556 S
In52 O60 2.266 . S
In52 O61 2.326 . S
In52 O63 2.294 . S
In52 O64 2.326 . S
O53 In52 2.294 . S
O53 C62 1.240 . S
O54 In52 2.326 . S
O54 C62 1.252 . S
C55 O58 1.252 . S
C55 O59 1.260 . S
C56 O63 1.240 . S
C56 O64 1.252 . S
C57 O60 1.252 . S
C57 O61 1.260 . S
O58 In52 2.266 1_554 S
O58 C55 1.252 . S
O59 In52 2.326 1_554 S
O59 C55 1.260 . S
O60 In52 2.266 . S
O60 C57 1.252 . S
O61 In52 2.326 . S
O61 C57 1.260 . S
C62 O53 1.240 . S
C62 O54 1.252 . S
O63 In52 2.294 . S
O63 C56 1.240 . S
O64 In52 2.326 . S
O64 C56 1.252 . S
In65 O66 2.294 . S
In65 O67 2.326 . S
In65 O71 2.266 . S
In65 O72 2.326 . S
In65 O73 2.266 1_556 S
In65 O74 2.326 1_556 S
In65 O76 2.294 . S
In65 O77 2.326 . S
O66 In65 2.294 . S
O66 C75 1.240 . S
O67 In65 2.326 . S
O67 C75 1.252 . S
C68 O71 1.252 . S
C68 O72 1.260 . S
C69 O76 1.240 . S
C69 O77 1.252 . S
C70 O73 1.252 . S
C70 O74 1.260 . S
O71 In65 2.266 . S
O71 C68 1.252 . S
O72 In65 2.326 . S
O72 C68 1.260 . S
O73 In65 2.266 1_554 S
O73 C70 1.252 . S
O74 In65 2.326 1_554 S
O74 C70 1.260 . S
C75 O66 1.240 . S
C75 O67 1.252 . S
O76 In65 2.294 . S
O76 C69 1.240 . S
O77 In65 2.326 . S
O77 C69 1.252 . S
In78 O79 2.294 . S
In78 O80 2.326 . S
In78 O84 2.266 . S
In78 O85 2.326 . S
In78 O86 2.266 . S
In78 O87 2.326 . S
In78 O89 2.294 . S
In78 O90 2.326 . S
O79 In78 2.294 . S
O79 C88 1.240 . S
O80 In78 2.326 . S
O80 C88 1.252 . S
C81 O84 1.252 . S
C81 O85 1.260 . S
C82 O89 1.240 . S
C82 O90 1.252 . S
C83 O86 1.252 . S
C83 O87 1.260 . S
O84 In78 2.266 . S
O84 C81 1.252 . S
O85 In78 2.326 . S
O85 C81 1.260 . S
O86 In78 2.266 . S
O86 C83 1.252 . S
O87 In78 2.326 . S
O87 C83 1.260 . S
C88 O79 1.240 . S
C88 O80 1.252 . S
O89 In78 2.294 . S
O89 C82 1.240 . S
O90 In78 2.326 . S
O90 C82 1.252 . S
In91 O92 2.294 . S
In91 O93 2.326 . S
In91 O97 2.266 . S
In91 O98 2.326 . S
In91 O99 2.266 . S
In91 O100 2.326 . S
In91 O102 2.294 . S
In91 O103 2.326 . S
O92 In91 2.294 . S
O92 C101 1.240 . S
O93 In91 2.326 . S
O93 C101 1.252 . S
C94 O97 1.252 . S
C94 O98 1.260 . S
C95 O102 1.240 . S
C95 O103 1.252 . S
C96 O99 1.252 . S
C96 O100 1.260 . S
O97 In91 2.266 . S
O97 C94 1.252 . S
O98 In91 2.326 . S
O98 C94 1.260 . S
O99 In91 2.266 . S
O99 C96 1.252 . S
O100 In91 2.326 . S
O100 C96 1.260 . S
C101 O92 1.240 . S
C101 O93 1.252 . S
O102 In91 2.294 . S
O102 C95 1.240 . S
O103 In91 2.326 . S
O103 C95 1.252 . S
In104 O105 2.294 . S
In104 O106 2.326 . S
In104 O110 2.266 . S
In104 O111 2.326 . S
In104 O112 2.266 . S
In104 O113 2.326 . S
In104 O115 2.294 . S
In104 O116 2.326 . S
O105 In104 2.294 . S
O105 C114 1.240 . S
O106 In104 2.326 . S
O106 C114 1.252 . S
C107 O110 1.252 . S
C107 O111 1.260 . S
C108 O115 1.240 . S
C108 O116 1.252 . S
C109 O112 1.252 . S
C109 O113 1.260 . S
O110 In104 2.266 . S
O110 C107 1.252 . S
O111 In104 2.326 . S
O111 C107 1.260 . S
O112 In104 2.266 . S
O112 C109 1.252 . S
O113 In104 2.326 . S
O113 C109 1.260 . S
C114 O105 1.240 . S
C114 O106 1.252 . S
O115 In104 2.294 . S
O115 C108 1.240 . S
O116 In104 2.326 . S
O116 C108 1.252 . S
In117 O118 2.294 . S
In117 O119 2.326 . S
In117 O123 2.264 . S
In117 O124 2.326 . S
In117 O125 2.266 . S
In117 O126 2.326 . S
In117 O128 2.294 . S
In117 O129 2.326 . S
O118 In117 2.294 . S
O118 C127 1.240 . S
O119 In117 2.326 . S
O119 C127 1.252 . S
C120 O123 1.251 . S
C120 O124 1.260 . S
C121 O128 1.240 . S
C121 O129 1.252 . S
C122 O125 1.252 . S
C122 O126 1.260 . S
O123 In117 2.264 . S
O123 C120 1.251 . S
O124 In117 2.326 . S
O124 C120 1.260 . S
O125 In117 2.266 . S
O125 C122 1.252 . S
O126 In117 2.326 . S
O126 C122 1.260 . S
C127 O118 1.240 . S
C127 O119 1.252 . S
O128 In117 2.294 . S
O128 C121 1.240 . S
O129 In117 2.326 . S
O129 C121 1.252 . S
In130 O131 2.294 . S
In130 O132 2.326 . S
In130 O136 2.266 . S
In130 O137 2.326 . S
In130 O138 2.266 . S
In130 O139 2.326 . S
In130 O141 2.294 . S
In130 O142 2.326 . S
O131 In130 2.294 . S
O131 C140 1.240 . S
O132 In130 2.326 . S
O132 C140 1.252 . S
C133 O136 1.252 . S
C133 O137 1.260 . S
C134 O141 1.240 . S
C134 O142 1.252 . S
C135 O138 1.252 . S
C135 O139 1.260 . S
O136 In130 2.266 . S
O136 C133 1.252 . S
O137 In130 2.326 . S
O137 C133 1.260 . S
O138 In130 2.266 . S
O138 C135 1.252 . S
O139 In130 2.326 . S
O139 C135 1.260 . S
C140 O131 1.240 . S
C140 O132 1.252 . S
O141 In130 2.294 . S
O141 C134 1.240 . S
O142 In130 2.326 . S
O142 C134 1.252 . S
In143 O144 2.294 . S
In143 O145 2.326 . S
In143 O149 2.266 1_545 S
In143 O150 2.326 . S
In143 O151 2.266 . S
In143 O152 2.326 . S
In143 O154 2.294 . S
In143 O155 2.326 . S
O144 In143 2.294 . S
O144 C153 1.240 . S
O145 In143 2.326 . S
O145 C153 1.252 . S
C146 O149 1.252 1_545 S
C146 O150 1.260 . S
C147 O154 1.240 . S
C147 O155 1.252 . S
C148 O151 1.252 . S
C148 O152 1.260 . S
O149 In143 2.266 1_565 S
O149 C146 1.252 1_565 S
O150 In143 2.326 . S
O150 C146 1.260 . S
O151 In143 2.266 . S
O151 C148 1.252 . S
O152 In143 2.326 . S
O152 C148 1.260 . S
C153 O144 1.240 . S
C153 O145 1.252 . S
O154 In143 2.294 . S
O154 C147 1.240 . S
O155 In143 2.326 . S
O155 C147 1.252 . S
In156 O157 2.294 . S
In156 O158 2.326 . S
In156 O162 2.264 . S
In156 O163 2.326 . S
In156 O164 2.266 . S
In156 O165 2.326 . S
In156 O167 2.294 . S
In156 O168 2.326 . S
O157 In156 2.294 . S
O157 C166 1.240 . S
O158 In156 2.326 . S
O158 C166 1.252 . S
C159 O162 1.251 . S
C159 O163 1.260 . S
C160 O167 1.240 . S
C160 O168 1.252 . S
C161 O164 1.252 . S
C161 O165 1.260 . S
O162 In156 2.264 . S
O162 C159 1.251 . S
O163 In156 2.326 . S
O163 C159 1.260 . S
O164 In156 2.266 . S
O164 C161 1.252 . S
O165 In156 2.326 . S
O165 C161 1.260 . S
C166 O157 1.240 . S
C166 O158 1.252 . S
O167 In156 2.294 . S
O167 C160 1.240 . S
O168 In156 2.326 . S
O168 C160 1.252 . S
In169 O170 2.294 . S
In169 O171 2.326 . S
In169 O175 2.266 . S
In169 O176 2.326 . S
In169 O177 2.266 1_455 S
In169 O178 2.326 . S
In169 O180 2.294 . S
In169 O181 2.326 . S
O170 In169 2.294 . S
O170 C179 1.240 . S
O171 In169 2.326 . S
O171 C179 1.252 . S
C172 O175 1.252 . S
C172 O176 1.260 . S
C173 O180 1.240 . S
C173 O181 1.252 . S
C174 O177 1.252 1_455 S
C174 O178 1.260 . S
O175 In169 2.266 . S
O175 C172 1.252 . S
O176 In169 2.326 . S
O176 C172 1.260 . S
O177 In169 2.266 1_655 S
O177 C174 1.252 1_655 S
O178 In169 2.326 . S
O178 C174 1.260 . S
C179 O170 1.240 . S
C179 O171 1.252 . S
O180 In169 2.294 . S
O180 C173 1.240 . S
O181 In169 2.326 . S
O181 C173 1.252 . S
In182 O183 2.294 . S
In182 O184 2.326 . S
In182 O188 2.266 . S
In182 O189 2.326 . S
In182 O190 2.266 . S
In182 O191 2.326 . S
In182 O193 2.294 . S
In182 O194 2.326 . S
O183 In182 2.294 . S
O183 C192 1.240 . S
O184 In182 2.326 . S
O184 C192 1.252 . S
C185 O188 1.252 . S
C185 O189 1.260 . S
C186 O193 1.240 . S
C186 O194 1.252 . S
C187 O190 1.252 . S
C187 O191 1.260 . S
O188 In182 2.266 . S
O188 C185 1.252 . S
O189 In182 2.326 . S
O189 C185 1.260 . S
O190 In182 2.266 . S
O190 C187 1.252 . S
O191 In182 2.326 . S
O191 C187 1.260 . S
C192 O183 1.240 . S
C192 O184 1.252 . S
O193 In182 2.294 . S
O193 C186 1.240 . S
O194 In182 2.326 . S
O194 C186 1.252 . S
In195 O196 2.294 . S
In195 O197 2.326 . S
In195 O201 2.266 . S
In195 O202 2.326 . S
In195 O203 2.266 . S
In195 O204 2.326 . S
In195 O206 2.294 . S
In195 O207 2.326 . S
O196 In195 2.294 . S
O196 C205 1.240 . S
O197 In195 2.326 . S
O197 C205 1.252 . S
C198 O201 1.252 . S
C198 O202 1.260 . S
C199 O206 1.240 . S
C199 O207 1.252 . S
C200 O203 1.252 . S
C200 O204 1.260 . S
O201 In195 2.266 . S
O201 C198 1.252 . S
O202 In195 2.326 . S
O202 C198 1.260 . S
O203 In195 2.266 . S
O203 C200 1.252 . S
O204 In195 2.326 . S
O204 C200 1.260 . S
C205 O196 1.240 . S
C205 O197 1.252 . S
O206 In195 2.294 . S
O206 C199 1.240 . S
O207 In195 2.326 . S
O207 C199 1.252 . S
In208 O209 2.294 . S
In208 O210 2.326 . S
In208 O214 2.266 . S
In208 O215 2.326 . S
In208 O216 2.266 . S
In208 O217 2.326 . S
In208 O219 2.294 . S
In208 O220 2.326 . S
O209 In208 2.294 . S
O209 C218 1.240 . S
O210 In208 2.326 . S
O210 C218 1.252 . S
C211 O214 1.252 . S
C211 O215 1.260 . S
C212 O219 1.240 . S
C212 O220 1.252 . S
C213 O216 1.252 . S
C213 O217 1.260 . S
O214 In208 2.266 . S
O214 C211 1.252 . S
O215 In208 2.326 . S
O215 C211 1.260 . S
O216 In208 2.266 . S
O216 C213 1.252 . S
O217 In208 2.326 . S
O217 C213 1.260 . S
C218 O209 1.240 . S
C218 O210 1.252 . S
O219 In208 2.294 . S
O219 C212 1.240 . S
O220 In208 2.326 . S
O220 C212 1.252 . S
In221 O222 2.294 . S
In221 O223 2.326 . S
In221 O227 2.266 . S
In221 O228 2.326 . S
In221 O229 2.266 . S
In221 O230 2.326 . S
In221 O232 2.294 . S
In221 O233 2.326 . S
O222 In221 2.294 . S
O222 C231 1.240 . S
O223 In221 2.326 . S
O223 C231 1.252 . S
C224 O227 1.252 . S
C224 O228 1.260 . S
C225 O232 1.240 . S
C225 O233 1.252 . S
C226 O229 1.252 . S
C226 O230 1.260 . S
O227 In221 2.266 . S
O227 C224 1.252 . S
O228 In221 2.326 . S
O228 C224 1.260 . S
O229 In221 2.266 . S
O229 C226 1.252 . S
O230 In221 2.326 . S
O230 C226 1.260 . S
C231 O222 1.240 . S
C231 O223 1.252 . S
O232 In221 2.294 . S
O232 C225 1.240 . S
O233 In221 2.326 . S
O233 C225 1.252 . S
C234 C235 1.363 . S
C234 C240 1.379 . S
C234 N242 1.356 . S
C235 C234 1.363 . S
C235 C241 1.363 . S
C236 C237 1.363 . S
C236 C241 1.379 . S
C236 N243 1.356 . S
C237 C236 1.363 . S
C237 C240 1.363 . S
N238 C240 1.356 . S
N238 H250 0.984 . S
N238 H251 0.985 . S
N239 C241 1.356 . S
N239 H244 0.984 . S
N239 H245 0.985 . S
C240 C234 1.379 . S
C240 C237 1.363 . S
C240 N238 1.356 . S
C241 C235 1.363 . S
C241 C236 1.379 . S
C241 N239 1.356 . S
N242 C234 1.356 . S
N242 H248 0.984 . S
N242 H249 0.984 . S
N243 C236 1.356 . S
N243 H246 0.984 . S
N243 H247 0.985 . S
H244 N239 0.984 . S
H245 N239 0.985 . S
H246 N243 0.984 . S
H247 N243 0.985 . S
H248 N242 0.984 . S
H249 N242 0.984 . S
H250 N238 0.984 . S
H251 N238 0.985 . S
C252 C253 1.363 . S
C252 C258 1.379 . S
C252 N260 1.356 . S
C253 C252 1.363 . S
C253 C259 1.363 . S
C254 C255 1.363 . S
C254 C259 1.379 . S
C254 N261 1.356 . S
C255 C254 1.363 . S
C255 C258 1.363 . S
N256 C258 1.356 . S
N256 H268 0.984 . S
N256 H269 0.985 . S
N257 C259 1.356 . S
N257 H262 0.984 . S
N257 H263 0.985 . S
C258 C252 1.379 . S
C258 C255 1.363 . S
C258 N256 1.356 . S
C259 C253 1.363 . S
C259 C254 1.379 . S
C259 N257 1.356 . S
N260 C252 1.356 . S
N260 H266 0.984 . S
N260 H267 0.984 . S
N261 C254 1.356 . S
N261 H264 0.984 . S
N261 H265 0.985 . S
H262 N257 0.984 . S
H263 N257 0.985 . S
H264 N261 0.984 . S
H265 N261 0.985 . S
H266 N260 0.984 . S
H267 N260 0.984 . S
H268 N256 0.984 . S
H269 N256 0.985 . S
C270 C271 1.363 . S
C270 C276 1.379 . S
C270 N278 1.356 . S
C271 C270 1.363 . S
C271 C277 1.363 . S
C272 C273 1.363 . S
C272 C277 1.379 . S
C272 N279 1.356 . S
C273 C272 1.363 . S
C273 C276 1.363 . S
N274 C276 1.356 . S
N274 H286 0.984 . S
N274 H287 0.985 . S
N275 C277 1.356 . S
N275 H280 0.984 . S
N275 H281 0.985 . S
C276 C270 1.379 . S
C276 C273 1.363 . S
C276 N274 1.356 . S
C277 C271 1.363 . S
C277 C272 1.379 . S
C277 N275 1.356 . S
N278 C270 1.356 . S
N278 H284 0.984 . S
N278 H285 0.984 . S
N279 C272 1.356 . S
N279 H282 0.984 . S
N279 H283 0.985 . S
H280 N275 0.984 . S
H281 N275 0.985 . S
H282 N279 0.984 . S
H283 N279 0.985 . S
H284 N278 0.984 . S
H285 N278 0.984 . S
H286 N274 0.984 . S
H287 N274 0.985 . S
C288 C289 1.363 . S
C288 C294 1.379 . S
C288 N296 1.356 . S
C289 C288 1.363 . S
C289 C295 1.363 . S
C290 C291 1.363 . S
C290 C295 1.379 . S
C290 N297 1.356 . S
C291 C290 1.363 . S
C291 C294 1.363 . S
N292 C294 1.356 . S
N292 H304 0.984 . S
N292 H305 0.985 . S
N293 C295 1.356 . S
N293 H298 0.984 . S
N293 H299 0.985 . S
C294 C288 1.379 . S
C294 C291 1.363 . S
C294 N292 1.356 . S
C295 C289 1.363 . S
C295 C290 1.379 . S
C295 N293 1.356 . S
N296 C288 1.356 . S
N296 H302 0.984 . S
N296 H303 0.984 . S
N297 C290 1.356 . S
N297 H300 0.984 . S
N297 H301 0.985 . S
H298 N293 0.984 . S
H299 N293 0.985 . S
H300 N297 0.984 . S
H301 N297 0.985 . S
H302 N296 0.984 . S
H303 N296 0.984 . S
H304 N292 0.984 . S
H305 N292 0.985 . S
C306 C307 1.363 . S
C306 C312 1.379 . S
C306 N314 1.356 . S
C307 C306 1.363 . S
C307 C313 1.363 . S
C308 C309 1.363 . S
C308 C313 1.379 . S
C308 N315 1.356 . S
C309 C308 1.363 . S
C309 C312 1.363 . S
N310 C312 1.356 . S
N310 H322 0.984 . S
N310 H323 0.985 . S
N311 C313 1.356 . S
N311 H316 0.984 . S
N311 H317 0.985 . S
C312 C306 1.379 . S
C312 C309 1.363 . S
C312 N310 1.356 . S
C313 C307 1.363 . S
C313 C308 1.379 . S
C313 N311 1.356 . S
N314 C306 1.356 . S
N314 H320 0.984 . S
N314 H321 0.984 . S
N315 C308 1.356 . S
N315 H318 0.984 . S
N315 H319 0.985 . S
H316 N311 0.984 . S
H317 N311 0.985 . S
H318 N315 0.984 . S
H319 N315 0.985 . S
H320 N314 0.984 . S
H321 N314 0.984 . S
H322 N310 0.984 . S
H323 N310 0.985 . S
C324 C325 1.363 . S
C324 C330 1.379 . S
C324 N332 1.356 . S
C325 C324 1.363 . S
C325 C331 1.363 . S
C326 C327 1.363 . S
C326 C331 1.379 . S
C326 N333 1.356 . S
C327 C326 1.363 . S
C327 C330 1.363 . S
N328 C330 1.356 . S
N328 H340 0.984 . S
N328 H341 0.985 . S
N329 C331 1.356 . S
N329 H334 0.984 . S
N329 H335 0.985 . S
C330 C324 1.379 . S
C330 C327 1.363 . S
C330 N328 1.356 . S
C331 C325 1.363 . S
C331 C326 1.379 . S
C331 N329 1.356 . S
N332 C324 1.356 . S
N332 H338 0.984 . S
N332 H339 0.984 . S
N333 C326 1.356 . S
N333 H336 0.984 . S
N333 H337 0.985 . S
H334 N329 0.984 . S
H335 N329 0.985 . S
H336 N333 0.984 . S
H337 N333 0.985 . S
H338 N332 0.984 . S
H339 N332 0.984 . S
H340 N328 0.984 . S
H341 N328 0.985 . S
C342 C343 1.363 . S
C342 C348 1.370 1_654 S
C342 N350 1.356 . S
C343 C342 1.363 . S
C343 C349 1.363 . S
C344 C345 1.363 . S
C344 C349 1.379 1_456 S
C344 N351 1.356 . S
C345 C344 1.363 . S
C345 C348 1.384 . S
N346 C348 1.351 . S
N346 H358 0.984 . S
N346 H359 0.985 . S
N347 C349 1.356 . S
N347 H352 0.984 . S
N347 H353 0.985 . S
C348 C342 1.370 1_456 S
C348 C345 1.384 . S
C348 N346 1.351 . S
C349 C343 1.363 . S
C349 C344 1.379 1_654 S
C349 N347 1.356 . S
N350 C342 1.356 . S
N350 H356 0.984 . S
N350 H357 0.984 . S
N351 C344 1.356 . S
N351 H354 0.984 . S
N351 H355 0.985 . S
H352 N347 0.984 . S
H353 N347 0.985 . S
H354 N351 0.984 . S
H355 N351 0.985 . S
H356 N350 0.984 . S
H357 N350 0.984 . S
H358 N346 0.984 . S
H359 N346 0.985 . S
C360 C361 1.363 . S
C360 C366 1.379 1_554 S
C360 N368 1.356 . S
C361 C360 1.363 . S
C361 C367 1.363 . S
C362 C363 1.363 . S
C362 C367 1.379 1_556 S
C362 N369 1.356 . S
C363 C362 1.363 . S
C363 C366 1.363 . S
N364 C366 1.356 . S
N364 H376 0.984 . S
N364 H377 0.985 . S
N365 C367 1.356 . S
N365 H370 0.984 . S
N365 H371 0.985 . S
C366 C360 1.379 1_556 S
C366 C363 1.363 . S
C366 N364 1.356 . S
C367 C361 1.363 . S
C367 C362 1.379 1_554 S
C367 N365 1.356 . S
N368 C360 1.356 . S
N368 H374 0.984 . S
N368 H375 0.984 . S
N369 C362 1.356 . S
N369 H372 0.984 . S
N369 H373 0.985 . S
H370 N365 0.984 . S
H371 N365 0.985 . S
H372 N369 0.984 . S
H373 N369 0.985 . S
H374 N368 0.984 . S
H375 N368 0.984 . S
H376 N364 0.984 . S
H377 N364 0.985 . S
C378 C379 1.363 1_565 S
C378 C384 1.379 1_554 S
C378 N386 1.356 . S
C379 C378 1.363 1_545 S
C379 C385 1.363 . S
C380 C381 1.363 1_545 S
C380 C385 1.379 1_556 S
C380 N387 1.356 . S
C381 C380 1.363 1_565 S
C381 C384 1.363 . S
N382 C384 1.356 . S
N382 H394 0.984 . S
N382 H395 0.985 . S
N383 C385 1.356 . S
N383 H388 0.984 . S
N383 H389 0.985 . S
C384 C378 1.379 1_556 S
C384 C381 1.363 . S
C384 N382 1.356 . S
C385 C379 1.363 . S
C385 C380 1.379 1_554 S
C385 N383 1.356 . S
N386 C378 1.356 . S
N386 H392 0.984 . S
N386 H393 0.984 . S
N387 C380 1.356 . S
N387 H390 0.984 . S
N387 H391 0.985 . S
H388 N383 0.984 . S
H389 N383 0.985 . S
H390 N387 0.984 . S
H391 N387 0.985 . S
H392 N386 0.984 . S
H393 N386 0.984 . S
H394 N382 0.984 . S
H395 N382 0.985 . S
C396 C397 1.363 . S
C396 C402 1.379 . S
C396 N404 1.356 . S
C397 C396 1.363 . S
C397 C403 1.363 . S
C398 C399 1.363 . S
C398 C403 1.379 . S
C398 N405 1.356 . S
C399 C398 1.363 . S
C399 C402 1.363 . S
N400 C402 1.356 . S
N400 H412 0.984 . S
N400 H413 0.985 . S
N401 C403 1.356 . S
N401 H406 0.984 . S
N401 H407 0.985 . S
C402 C396 1.379 . S
C402 C399 1.363 . S
C402 N400 1.356 . S
C403 C397 1.363 . S
C403 C398 1.379 . S
C403 N401 1.356 . S
N404 C396 1.356 . S
N404 H410 0.984 . S
N404 H411 0.984 . S
N405 C398 1.356 . S
N405 H408 0.984 . S
N405 H409 0.985 . S
H406 N401 0.984 . S
H407 N401 0.985 . S
H408 N405 0.984 . S
H409 N405 0.985 . S
H410 N404 0.984 . S
H411 N404 0.984 . S
H412 N400 0.984 . S
H413 N400 0.985 . S
C414 C415 1.363 . S
C414 C420 1.379 . S
C414 N422 1.356 . S
C415 C414 1.363 . S
C415 C421 1.363 . S
C416 C417 1.363 . S
C416 C421 1.379 . S
C416 N423 1.356 . S
C417 C416 1.363 . S
C417 C420 1.363 . S
N418 C420 1.356 . S
N418 H430 0.984 . S
N418 H431 0.985 . S
N419 C421 1.356 . S
N419 H424 0.984 . S
N419 H425 0.985 . S
C420 C414 1.379 . S
C420 C417 1.363 . S
C420 N418 1.356 . S
C421 C415 1.363 . S
C421 C416 1.379 . S
C421 N419 1.356 . S
N422 C414 1.356 . S
N422 H428 0.984 . S
N422 H429 0.984 . S
N423 C416 1.356 . S
N423 H426 0.984 . S
N423 H427 0.985 . S
H424 N419 0.984 . S
H425 N419 0.985 . S
H426 N423 0.984 . S
H427 N423 0.985 . S
H428 N422 0.984 . S
H429 N422 0.984 . S
H430 N418 0.984 . S
H431 N418 0.985 . S
C432 C433 1.363 . S
C432 C438 1.379 . S
C432 N440 1.356 . S
C433 C432 1.363 . S
C433 C439 1.363 . S
C434 C435 1.363 . S
C434 C439 1.379 . S
C434 N441 1.356 . S
C435 C434 1.363 . S
C435 C438 1.363 . S
N436 C438 1.356 . S
N436 H448 0.984 . S
N436 H449 0.985 . S
N437 C439 1.356 . S
N437 H442 0.984 . S
N437 H443 0.985 . S
C438 C432 1.379 . S
C438 C435 1.363 . S
C438 N436 1.356 . S
C439 C433 1.363 . S
C439 C434 1.379 . S
C439 N437 1.356 . S
N440 C432 1.356 . S
N440 H446 0.984 . S
N440 H447 0.984 . S
N441 C434 1.356 . S
N441 H444 0.984 . S
N441 H445 0.985 . S
H442 N437 0.984 . S
H443 N437 0.985 . S
H444 N441 0.984 . S
H445 N441 0.985 . S
H446 N440 0.984 . S
H447 N440 0.984 . S
H448 N436 0.984 . S
H449 N436 0.985 . S
C450 C451 1.363 . S
C450 C456 1.379 . S
C450 N458 1.356 . S
C451 C450 1.363 . S
C451 C457 1.363 . S
C452 C453 1.363 . S
C452 C457 1.379 . S
C452 N459 1.356 . S
C453 C452 1.363 . S
C453 C456 1.363 . S
N454 C456 1.356 . S
N454 H466 0.984 . S
N454 H467 0.985 . S
N455 C457 1.356 . S
N455 H460 0.984 . S
N455 H461 0.985 . S
C456 C450 1.379 . S
C456 C453 1.363 . S
C456 N454 1.356 . S
C457 C451 1.363 . S
C457 C452 1.379 . S
C457 N455 1.356 . S
N458 C450 1.356 . S
N458 H464 0.984 . S
N458 H465 0.984 . S
N459 C452 1.356 . S
N459 H462 0.984 . S
N459 H463 0.985 . S
H460 N455 0.984 . S
H461 N455 0.985 . S
H462 N459 0.984 . S
H463 N459 0.985 . S
H464 N458 0.984 . S
H465 N458 0.984 . S
H466 N454 0.984 . S
H467 N454 0.985 . S
C468 C469 1.363 . S
C468 C474 1.379 . S
C468 N476 1.356 . S
C469 C468 1.363 . S
C469 C475 1.363 . S
C470 C471 1.363 . S
C470 C475 1.379 . S
C470 N477 1.356 . S
C471 C470 1.363 . S
C471 C474 1.363 . S
N472 C474 1.356 . S
N472 H484 0.984 . S
N472 H485 0.985 . S
N473 C475 1.356 . S
N473 H478 0.984 . S
N473 H479 0.985 . S
C474 C468 1.379 . S
C474 C471 1.363 . S
C474 N472 1.356 . S
C475 C469 1.363 . S
C475 C470 1.379 . S
C475 N473 1.356 . S
N476 C468 1.356 . S
N476 H482 0.984 . S
N476 H483 0.984 . S
N477 C470 1.356 . S
N477 H480 0.984 . S
N477 H481 0.985 . S
H478 N473 0.984 . S
H479 N473 0.985 . S
H480 N477 0.984 . S
H481 N477 0.985 . S
H482 N476 0.984 . S
H483 N476 0.984 . S
H484 N472 0.984 . S
H485 N472 0.985 . S
C486 C487 1.363 . S
C486 C492 1.379 . S
C486 N494 1.356 . S
C487 C486 1.363 . S
C487 C493 1.363 . S
C488 C489 1.363 . S
C488 C493 1.379 . S
C488 N495 1.356 . S
C489 C488 1.363 . S
C489 C492 1.363 . S
N490 C492 1.356 . S
N490 H502 0.984 . S
N490 H503 0.985 . S
N491 C493 1.356 . S
N491 H496 0.984 . S
N491 H497 0.985 . S
C492 C486 1.379 . S
C492 C489 1.363 . S
C492 N490 1.356 . S
C493 C487 1.363 . S
C493 C488 1.379 . S
C493 N491 1.356 . S
N494 C486 1.356 . S
N494 H500 0.984 . S
N494 H501 0.984 . S
N495 C488 1.356 . S
N495 H498 0.984 . S
N495 H499 0.985 . S
H496 N491 0.984 . S
H497 N491 0.985 . S
H498 N495 0.984 . S
H499 N495 0.985 . S
H500 N494 0.984 . S
H501 N494 0.984 . S
H502 N490 0.984 . S
H503 N490 0.985 . S
C504 C505 1.363 . S
C504 C510 1.379 . S
C504 N512 1.356 . S
C505 C504 1.363 . S
C505 C511 1.363 1_655 S
C506 C507 1.363 . S
C506 C511 1.379 . S
C506 N513 1.356 . S
C507 C506 1.363 . S
C507 C510 1.363 1_455 S
N508 C510 1.356 . S
N508 H520 0.984 . S
N508 H521 0.985 . S
N509 C511 1.356 . S
N509 H514 0.984 . S
N509 H515 0.985 . S
C510 C504 1.379 . S
C510 C507 1.363 1_655 S
C510 N508 1.356 . S
C511 C505 1.363 1_455 S
C511 C506 1.379 . S
C511 N509 1.356 . S
N512 C504 1.356 . S
N512 H518 0.984 . S
N512 H519 0.984 . S
N513 C506 1.356 . S
N513 H516 0.984 . S
N513 H517 0.985 . S
H514 N509 0.984 . S
H515 N509 0.985 . S
H516 N513 0.984 . S
H517 N513 0.985 . S
H518 N512 0.984 . S
H519 N512 0.984 . S
H520 N508 0.984 . S
H521 N508 0.985 . S
C522 C523 1.363 . S
C522 C528 1.379 . S
C522 N530 1.356 . S
C523 C522 1.363 . S
C523 C529 1.363 . S
C524 C525 1.363 . S
C524 C529 1.379 . S
C524 N531 1.356 . S
C525 C524 1.363 . S
C525 C528 1.363 . S
N526 C528 1.356 . S
N526 H538 0.984 . S
N526 H539 0.985 . S
N527 C529 1.356 . S
N527 H532 0.984 . S
N527 H533 0.985 . S
C528 C522 1.379 . S
C528 C525 1.363 . S
C528 N526 1.356 . S
C529 C523 1.363 . S
C529 C524 1.379 . S
C529 N527 1.356 . S
N530 C522 1.356 . S
N530 H536 0.984 . S
N530 H537 0.984 . S
N531 C524 1.356 . S
N531 H534 0.984 . S
N531 H535 0.985 . S
H532 N527 0.984 . S
H533 N527 0.985 . S
H534 N531 0.984 . S
H535 N531 0.985 . S
H536 N530 0.984 . S
H537 N530 0.984 . S
H538 N526 0.984 . S
H539 N526 0.985 . S
C540 C541 1.363 1_545 S
C540 C546 1.379 . S
C540 N548 1.356 . S
C541 C540 1.363 1_565 S
C541 C547 1.363 . S
C542 C543 1.363 1_565 S
C542 C547 1.379 . S
C542 N549 1.356 . S
C543 C542 1.363 1_545 S
C543 C546 1.363 . S
N544 C546 1.356 . S
N544 H556 0.984 . S
N544 H557 0.985 . S
N545 C547 1.356 . S
N545 H550 0.984 . S
N545 H551 0.985 . S
C546 C540 1.379 . S
C546 C543 1.363 . S
C546 N544 1.356 . S
C547 C541 1.363 . S
C547 C542 1.379 . S
C547 N545 1.356 . S
N548 C540 1.356 . S
N548 H554 0.984 . S
N548 H555 0.984 . S
N549 C542 1.356 . S
N549 H552 0.984 . S
N549 H553 0.985 . S
H550 N545 0.984 . S
H551 N545 0.985 . S
H552 N549 0.984 . S
H553 N549 0.985 . S
H554 N548 0.984 . S
H555 N548 0.984 . S
H556 N544 0.984 . S
H557 N544 0.985 . S
C558 C559 1.363 . S
C558 C564 1.379 . S
C558 N566 1.356 . S
C559 C558 1.363 . S
C559 C565 1.363 1_554 S
C560 C561 1.363 . S
C560 C565 1.379 . S
C560 N567 1.356 . S
C561 C560 1.363 . S
C561 C564 1.363 1_556 S
N562 C564 1.356 . S
N562 H574 0.984 . S
N562 H575 0.985 . S
N563 C565 1.356 . S
N563 H568 0.984 . S
N563 H569 0.985 . S
C564 C558 1.379 . S
C564 C561 1.363 1_554 S
C564 N562 1.356 . S
C565 C559 1.363 1_556 S
C565 C560 1.379 . S
C565 N563 1.356 . S
N566 C558 1.356 . S
N566 H572 0.984 . S
N566 H573 0.984 . S
N567 C560 1.356 . S
N567 H570 0.984 . S
N567 H571 0.985 . S
H568 N563 0.984 . S
H569 N563 0.985 . S
H570 N567 0.984 . S
H571 N567 0.985 . S
H572 N566 0.984 . S
H573 N566 0.984 . S
H574 N562 0.984 . S
H575 N562 0.985 . S
C576 C577 1.363 1_554 S
C576 C582 1.379 1_545 S
C576 N584 1.356 . S
C577 C576 1.363 1_556 S
C577 C583 1.363 . S
C578 C579 1.363 1_556 S
C578 C583 1.379 1_565 S
C578 N585 1.356 . S
C579 C578 1.363 1_554 S
C579 C582 1.363 . S
N580 C582 1.356 . S
N580 H592 0.984 . S
N580 H593 0.985 . S
N581 C583 1.356 . S
N581 H586 0.984 . S
N581 H587 0.985 . S
C582 C576 1.379 1_565 S
C582 C579 1.363 . S
C582 N580 1.356 . S
C583 C577 1.363 . S
C583 C578 1.379 1_545 S
C583 N581 1.356 . S
N584 C576 1.356 . S
N584 H590 0.984 . S
N584 H591 0.984 . S
N585 C578 1.356 . S
N585 H588 0.984 . S
N585 H589 0.985 . S
H586 N581 0.984 . S
H587 N581 0.985 . S
H588 N585 0.984 . S
H589 N585 0.985 . S
H590 N584 0.984 . S
H591 N584 0.984 . S
H592 N580 0.984 . S
H593 N580 0.985 . S
C594 C595 1.363 . S
C594 C600 1.379 1_655 S
C594 N602 1.356 . S
C595 C594 1.363 . S
C595 C601 1.363 1_556 S
C596 C597 1.363 . S
C596 C601 1.379 1_455 S
C596 N603 1.356 . S
C597 C596 1.363 . S
C597 C600 1.363 1_554 S
N598 C600 1.356 . S
N598 H610 0.984 . S
N598 H611 0.985 1_556 S
N599 C601 1.356 . S
N599 H604 0.984 1_554 S
N599 H605 0.985 . S
C600 C594 1.379 1_455 S
C600 C597 1.363 1_556 S
C600 N598 1.356 . S
C601 C595 1.363 1_554 S
C601 C596 1.379 1_655 S
C601 N599 1.356 . S
N602 C594 1.356 . S
N602 H608 0.984 . S
N602 H609 0.984 . S
N603 C596 1.356 . S
N603 H606 0.984 . S
N603 H607 0.985 . S
H604 N599 0.984 1_556 S
H605 N599 0.985 . S
H606 N603 0.984 . S
H607 N603 0.985 . S
H608 N602 0.984 . S
H609 N602 0.984 . S
H610 N598 0.984 . S
H611 N598 0.985 1_554 S
C612 C613 1.363 1_554 S
C612 C618 1.379 . S
C612 N620 1.356 . S
C613 C612 1.363 1_556 S
C613 C619 1.363 . S
C614 C615 1.363 1_556 S
C614 C619 1.379 . S
C614 N621 1.356 . S
C615 C614 1.363 1_554 S
C615 C618 1.363 . S
N616 C618 1.356 . S
N616 H628 0.984 . S
N616 H629 0.985 . S
N617 C619 1.356 . S
N617 H622 0.984 . S
N617 H623 0.985 . S
C618 C612 1.379 . S
C618 C615 1.363 . S
C618 N616 1.356 . S
C619 C613 1.363 . S
C619 C614 1.379 . S
C619 N617 1.356 . S
N620 C612 1.356 . S
N620 H626 0.984 . S
N620 H627 0.984 . S
N621 C614 1.356 . S
N621 H624 0.984 . S
N621 H625 0.985 . S
H622 N617 0.984 . S
H623 N617 0.985 . S
H624 N621 0.984 . S
H625 N621 0.985 . S
H626 N620 0.984 . S
H627 N620 0.984 . S
H628 N616 0.984 . S
H629 N616 0.985 . S
C630 C631 1.363 . S
C630 C636 1.379 1_565 S
C630 N638 1.356 . S
C631 C630 1.363 . S
C631 C637 1.363 1_554 S
C632 C633 1.363 . S
C632 C637 1.379 1_545 S
C632 N639 1.356 . S
C633 C632 1.363 . S
C633 C636 1.363 1_556 S
N634 C636 1.356 . S
N634 H646 0.984 . S
N634 H647 0.985 . S
N635 C637 1.356 . S
N635 H640 0.984 . S
N635 H641 0.985 . S
C636 C630 1.379 1_545 S
C636 C633 1.363 1_554 S
C636 N634 1.356 . S
C637 C631 1.363 1_556 S
C637 C632 1.379 1_565 S
C637 N635 1.356 . S
N638 C630 1.356 . S
N638 H644 0.984 . S
N638 H645 0.984 . S
N639 C632 1.356 . S
N639 H642 0.984 . S
N639 H643 0.985 . S
H640 N635 0.984 . S
H641 N635 0.985 . S
H642 N639 0.984 . S
H643 N639 0.985 . S
H644 N638 0.984 . S
H645 N638 0.984 . S
H646 N634 0.984 . S
H647 N634 0.985 . S
C648 C649 1.363 1_554 S
C648 C654 1.379 1_655 S
C648 N656 1.356 . S
C649 C648 1.363 1_556 S
C649 C655 1.363 . S
C650 C651 1.363 1_556 S
C650 C655 1.379 1_455 S
C650 N657 1.356 . S
C651 C650 1.363 1_554 S
C651 C654 1.363 . S
N652 C654 1.356 . S
N652 H664 0.984 . S
N652 H665 0.985 . S
N653 C655 1.356 . S
N653 H658 0.984 . S
N653 H659 0.985 . S
C654 C648 1.379 1_455 S
C654 C651 1.363 . S
C654 N652 1.356 . S
C655 C649 1.363 . S
C655 C650 1.379 1_655 S
C655 N653 1.356 . S
N656 C648 1.356 . S
N656 H662 0.984 . S
N656 H663 0.984 . S
N657 C650 1.356 . S
N657 H660 0.984 . S
N657 H661 0.985 . S
H658 N653 0.984 . S
H659 N653 0.985 . S
H660 N657 0.984 . S
H661 N657 0.985 . S
H662 N656 0.984 . S
H663 N656 0.984 . S
H664 N652 0.984 . S
H665 N652 0.985 . S
C666 C667 1.363 . S
C666 C672 1.379 . S
C666 N674 1.356 . S
C667 C666 1.363 . S
C667 C673 1.363 . S
C668 C669 1.363 . S
C668 C673 1.379 . S
C668 N675 1.356 . S
C669 C668 1.363 . S
C669 C672 1.363 . S
N670 C672 1.356 . S
N670 H682 0.984 . S
N670 H683 0.985 . S
N671 C673 1.356 . S
N671 H676 0.984 . S
N671 H677 0.985 . S
C672 C666 1.379 . S
C672 C669 1.363 . S
C672 N670 1.356 . S
C673 C667 1.363 . S
C673 C668 1.379 . S
C673 N671 1.356 . S
N674 C666 1.356 . S
N674 H680 0.984 . S
N674 H681 0.984 . S
N675 C668 1.356 . S
N675 H678 0.984 . S
N675 H679 0.985 . S
H676 N671 0.984 . S
H677 N671 0.985 . S
H678 N675 0.984 . S
H679 N675 0.985 . S
H680 N674 0.984 . S
H681 N674 0.984 . S
H682 N670 0.984 . S
H683 N670 0.985 . S
C684 C685 1.363 . S
C684 C690 1.379 . S
C684 N692 1.356 . S
C685 C684 1.363 . S
C685 C691 1.363 . S
C686 C687 1.363 . S
C686 C691 1.379 . S
C686 N693 1.356 . S
C687 C686 1.363 . S
C687 C690 1.363 . S
N688 C690 1.356 . S
N688 H700 0.984 . S
N688 H701 0.985 . S
N689 C691 1.356 . S
N689 H694 0.984 . S
N689 H695 0.985 . S
C690 C684 1.379 . S
C690 C687 1.363 . S
C690 N688 1.356 . S
C691 C685 1.363 . S
C691 C686 1.379 . S
C691 N689 1.356 . S
N692 C684 1.356 . S
N692 H698 0.984 . S
N692 H699 0.984 . S
N693 C686 1.356 . S
N693 H696 0.984 . S
N693 H697 0.985 . S
H694 N689 0.984 . S
H695 N689 0.985 . S
H696 N693 0.984 . S
H697 N693 0.985 . S
H698 N692 0.984 . S
H699 N692 0.984 . S
H700 N688 0.984 . S
H701 N688 0.985 . S
C702 C703 1.363 . S
C702 C708 1.379 . S
C702 N710 1.356 . S
C703 C702 1.363 . S
C703 C709 1.363 . S
C704 C705 1.363 . S
C704 C709 1.379 . S
C704 N711 1.356 . S
C705 C704 1.363 . S
C705 C708 1.363 . S
N706 C708 1.356 . S
N706 H718 0.984 . S
N706 H719 0.985 . S
N707 C709 1.356 . S
N707 H712 0.984 . S
N707 H713 0.985 . S
C708 C702 1.379 . S
C708 C705 1.363 . S
C708 N706 1.356 . S
C709 C703 1.363 . S
C709 C704 1.379 . S
C709 N707 1.356 . S
N710 C702 1.356 . S
N710 H716 0.984 . S
N710 H717 0.984 . S
N711 C704 1.356 . S
N711 H714 0.984 . S
N711 H715 0.985 . S
H712 N707 0.984 . S
H713 N707 0.985 . S
H714 N711 0.984 . S
H715 N711 0.985 . S
H716 N710 0.984 . S
H717 N710 0.984 . S
H718 N706 0.984 . S
H719 N706 0.985 . S
C720 C721 1.363 . S
C720 C726 1.379 . S
C720 N728 1.356 . S
C721 C720 1.363 . S
C721 C727 1.363 . S
C722 C723 1.363 . S
C722 C727 1.379 . S
C722 N729 1.356 . S
C723 C722 1.363 . S
C723 C726 1.363 . S
N724 C726 1.356 . S
N724 H736 0.984 . S
N724 H737 0.985 . S
N725 C727 1.356 . S
N725 H730 0.984 . S
N725 H731 0.985 . S
C726 C720 1.379 . S
C726 C723 1.363 . S
C726 N724 1.356 . S
C727 C721 1.363 . S
C727 C722 1.379 . S
C727 N725 1.356 . S
N728 C720 1.356 . S
N728 H734 0.984 . S
N728 H735 0.984 . S
N729 C722 1.356 . S
N729 H732 0.984 . S
N729 H733 0.985 . S
H730 N725 0.984 . S
H731 N725 0.985 . S
H732 N729 0.984 . S
H733 N729 0.985 . S
H734 N728 0.984 . S
H735 N728 0.984 . S
H736 N724 0.984 . S
H737 N724 0.985 . S
C738 C739 1.363 . S
C738 C744 1.379 . S
C738 N746 1.356 . S
C739 C738 1.363 . S
C739 C745 1.363 . S
C740 C741 1.363 . S
C740 C745 1.379 . S
C740 N747 1.356 . S
C741 C740 1.363 . S
C741 C744 1.363 . S
N742 C744 1.356 . S
N742 H754 0.984 . S
N742 H755 0.985 . S
N743 C745 1.356 . S
N743 H748 0.984 . S
N743 H749 0.985 . S
C744 C738 1.379 . S
C744 C741 1.363 . S
C744 N742 1.356 . S
C745 C739 1.363 . S
C745 C740 1.379 . S
C745 N743 1.356 . S
N746 C738 1.356 . S
N746 H752 0.984 . S
N746 H753 0.984 . S
N747 C740 1.356 . S
N747 H750 0.984 . S
N747 H751 0.985 . S
H748 N743 0.984 . S
H749 N743 0.985 . S
H750 N747 0.984 . S
H751 N747 0.985 . S
H752 N746 0.984 . S
H753 N746 0.984 . S
H754 N742 0.984 . S
H755 N742 0.985 . S
C756 C757 1.363 . S
C756 C762 1.379 . S
C756 N764 1.356 . S
C757 C756 1.363 . S
C757 C763 1.363 . S
C758 C759 1.363 . S
C758 C763 1.379 . S
C758 N765 1.356 . S
C759 C758 1.363 . S
C759 C762 1.363 . S
N760 C762 1.356 . S
N760 H772 0.984 . S
N760 H773 0.985 . S
N761 C763 1.356 . S
N761 H766 0.984 . S
N761 H767 0.985 . S
C762 C756 1.379 . S
C762 C759 1.363 . S
C762 N760 1.356 . S
C763 C757 1.363 . S
C763 C758 1.379 . S
C763 N761 1.356 . S
N764 C756 1.356 . S
N764 H770 0.984 . S
N764 H771 0.984 . S
N765 C758 1.356 . S
N765 H768 0.984 . S
N765 H769 0.985 . S
H766 N761 0.984 . S
H767 N761 0.985 . S
H768 N765 0.984 . S
H769 N765 0.985 . S
H770 N764 0.984 . S
H771 N764 0.984 . S
H772 N760 0.984 . S
H773 N760 0.985 . S
C774 C775 1.363 . S
C774 C780 1.379 . S
C774 N782 1.356 . S
C775 C774 1.363 . S
C775 C781 1.363 . S
C776 C777 1.363 . S
C776 C781 1.379 . S
C776 N783 1.356 . S
C777 C776 1.363 . S
C777 C780 1.363 . S
N778 C780 1.356 . S
N778 H790 0.984 . S
N778 H791 0.985 . S
N779 C781 1.356 . S
N779 H784 0.984 . S
N779 H785 0.985 . S
C780 C774 1.379 . S
C780 C777 1.363 . S
C780 N778 1.356 . S
C781 C775 1.363 . S
C781 C776 1.379 . S
C781 N779 1.356 . S
N782 C774 1.356 . S
N782 H788 0.984 . S
N782 H789 0.984 . S
N783 C776 1.356 . S
N783 H786 0.984 . S
N783 H787 0.985 . S
H784 N779 0.984 . S
H785 N779 0.985 . S
H786 N783 0.984 . S
H787 N783 0.985 . S
H788 N782 0.984 . S
H789 N782 0.984 . S
H790 N778 0.984 . S
H791 N778 0.985 . S
C792 C793 1.363 . S
C792 C798 1.379 . S
C792 N800 1.356 . S
C793 C792 1.363 . S
C793 C799 1.363 . S
C794 C795 1.363 . S
C794 C799 1.379 . S
C794 N801 1.356 . S
C795 C794 1.363 . S
C795 C798 1.363 . S
N796 C798 1.356 . S
N796 H808 0.984 . S
N796 H809 0.985 . S
N797 C799 1.356 . S
N797 H802 0.984 . S
N797 H803 0.985 . S
C798 C792 1.379 . S
C798 C795 1.363 . S
C798 N796 1.356 . S
C799 C793 1.363 . S
C799 C794 1.379 . S
C799 N797 1.356 . S
N800 C792 1.356 . S
N800 H806 0.984 . S
N800 H807 0.984 . S
N801 C794 1.356 . S
N801 H804 0.984 . S
N801 H805 0.985 . S
H802 N797 0.984 . S
H803 N797 0.985 . S
H804 N801 0.984 . S
H805 N801 0.985 . S
H806 N800 0.984 . S
H807 N800 0.984 . S
H808 N796 0.984 . S
H809 N796 0.985 . S
C810 C811 1.363 . S
C810 C816 1.379 . S
C810 N818 1.356 . S
C811 C810 1.363 . S
C811 C817 1.363 . S
C812 C813 1.363 . S
C812 C817 1.379 . S
C812 N819 1.356 . S
C813 C812 1.363 . S
C813 C816 1.363 . S
N814 C816 1.356 . S
N814 H826 0.984 . S
N814 H827 0.985 . S
N815 C817 1.356 . S
N815 H820 0.984 . S
N815 H821 0.985 . S
C816 C810 1.379 . S
C816 C813 1.363 . S
C816 N814 1.356 . S
C817 C811 1.363 . S
C817 C812 1.379 . S
C817 N815 1.356 . S
N818 C810 1.356 . S
N818 H824 0.984 . S
N818 H825 0.984 . S
N819 C812 1.356 . S
N819 H822 0.984 . S
N819 H823 0.985 . S
H820 N815 0.984 . S
H821 N815 0.985 . S
H822 N819 0.984 . S
H823 N819 0.985 . S
H824 N818 0.984 . S
H825 N818 0.984 . S
H826 N814 0.984 . S
H827 N814 0.985 . S
C828 C829 1.363 . S
C828 C834 1.379 . S
C828 N836 1.356 . S
C829 C828 1.363 . S
C829 C835 1.363 . S
C830 C831 1.363 . S
C830 C835 1.379 . S
C830 N837 1.356 . S
C831 C830 1.363 . S
C831 C834 1.363 . S
N832 C834 1.356 . S
N832 H844 0.984 . S
N832 H845 0.985 . S
N833 C835 1.356 . S
N833 H838 0.984 . S
N833 H839 0.985 . S
C834 C828 1.379 . S
C834 C831 1.363 . S
C834 N832 1.356 . S
C835 C829 1.363 . S
C835 C830 1.379 . S
C835 N833 1.356 . S
N836 C828 1.356 . S
N836 H842 0.984 . S
N836 H843 0.984 . S
N837 C830 1.356 . S
N837 H840 0.984 . S
N837 H841 0.985 . S
H838 N833 0.984 . S
H839 N833 0.985 . S
H840 N837 0.984 . S
H841 N837 0.985 . S
H842 N836 0.984 . S
H843 N836 0.984 . S
H844 N832 0.984 . S
H845 N832 0.985 . S
C846 C847 1.363 . S
C846 C852 1.379 . S
C846 N854 1.356 . S
C847 C846 1.363 . S
C847 C853 1.363 . S
C848 C849 1.363 . S
C848 C853 1.379 . S
C848 N855 1.356 . S
C849 C848 1.363 . S
C849 C852 1.363 . S
N850 C852 1.356 . S
N850 H862 0.984 . S
N850 H863 0.985 . S
N851 C853 1.356 . S
N851 H856 0.984 . S
N851 H857 0.985 . S
C852 C846 1.379 . S
C852 C849 1.363 . S
C852 N850 1.356 . S
C853 C847 1.363 . S
C853 C848 1.379 . S
C853 N851 1.356 . S
N854 C846 1.356 . S
N854 H860 0.984 . S
N854 H861 0.984 . S
N855 C848 1.356 . S
N855 H858 0.984 . S
N855 H859 0.985 . S
H856 N851 0.984 . S
H857 N851 0.985 . S
H858 N855 0.984 . S
H859 N855 0.985 . S
H860 N854 0.984 . S
H861 N854 0.984 . S
H862 N850 0.984 . S
H863 N850 0.985 . S
C864 C865 1.363 . S
C864 C870 1.379 . S
C864 N872 1.356 . S
C865 C864 1.363 . S
C865 C871 1.363 . S
C866 C867 1.363 . S
C866 C871 1.379 . S
C866 N873 1.356 . S
C867 C866 1.363 . S
C867 C870 1.363 . S
N868 C870 1.356 . S
N868 H880 0.984 . S
N868 H881 0.985 . S
N869 C871 1.356 . S
N869 H874 0.984 . S
N869 H875 0.985 . S
C870 C864 1.379 . S
C870 C867 1.363 . S
C870 N868 1.356 . S
C871 C865 1.363 . S
C871 C866 1.379 . S
C871 N869 1.356 . S
N872 C864 1.356 . S
N872 H878 0.984 . S
N872 H879 0.984 . S
N873 C866 1.356 . S
N873 H876 0.984 . S
N873 H877 0.985 . S
H874 N869 0.984 . S
H875 N869 0.985 . S
H876 N873 0.984 . S
H877 N873 0.985 . S
H878 N872 0.984 . S
H879 N872 0.984 . S
H880 N868 0.984 . S
H881 N868 0.985 . S
C235 C231 1.793 . S
C237 C10 1.793 . S
C253 C205 1.793 . S
C255 C17 1.793 . S
C271 C218 1.794 . S
C273 C30 1.794 . S
C289 C101 1.793 . S
C291 C49 1.793 . S
C307 C114 1.794 . S
C309 C62 1.794 . S
C325 C69 1.793 . S
C327 C88 1.793 . S
C343 C127 1.793 . S
C345 C173 1.793 . S
C361 C134 1.794 . S
C363 C186 1.794 . S
C379 C153 1.793 . S
C381 C166 1.793 . S
C397 C3 0.675 . S
C399 C224 0.675 . S
C415 C198 0.675 . S
C417 C18 0.675 . S
C433 C31 0.675 . S
C435 C211 0.675 . S
C451 C94 0.675 . S
C453 C42 0.675 . S
C469 C55 0.675 . S
C471 C107 0.675 . S
C487 C70 0.675 . S
C489 C81 0.675 . S
C505 C120 0.675 . S
C507 C174 0.675 . S
C523 C187 0.675 . S
C525 C135 0.675 . S
C541 C159 0.675 . S
C543 C146 0.675 . S
C559 C4 1.834 . S
C561 C43 1.834 . S
C577 C56 1.834 . S
C579 C23 1.834 . S
C595 C75 1.834 . S
C597 C36 1.834 . S
C613 C68 1.685 . S
C615 C16 1.685 . S
C631 C29 1.685 . S
C633 C44 1.685 . S
C649 C57 1.685 . S
C651 C5 1.685 . S
C667 C82 1.834 . S
C669 C121 1.834 . S
C685 C140 1.834 . S
C687 C95 1.834 . S
C703 C147 1.834 . S
C705 C108 1.834 . S
C721 C148 1.685 . S
C723 C96 1.685 . S
C739 C109 1.685 . S
C741 C122 1.685 . S
C757 C133 1.685 . S
C759 C83 1.685 . S
C775 C199 1.834 . S
C777 C160 1.834 . S
C793 C212 1.834 . S
C795 C179 1.834 . S
C811 C192 1.834 . S
C813 C225 1.834 . S
C829 C226 1.685 . S
C831 C172 1.685 . S
C847 C185 1.685 . S
C849 C200 1.685 . S
C865 C213 1.685 . S
C867 C161 1.685 . S
