# Generated by pormake.
# Topology wlf, (5)-cn, num edge types: 1
# Building blocks:
#     Node 0, Type 0, BuildingBlock: XOMCOT_clean_sbu_1, # of connection points: 5
#     Node 1, Type 0, BuildingBlock: XOMCOT_clean_sbu_1, # of connection points: 5
#     Node 2, Type 0, BuildingBlock: XOMCOT_clean_sbu_1, # of connection points: 5
#     Node 3, Type 0, BuildingBlock: XOMCOT_clean_sbu_1, # of connection points: 5
#     Node 4, Type 0, BuildingBlock: XOMCOT_clean_sbu_1, # of connection points: 5
#     Node 5, Type 0, BuildingBlock: XOMCOT_clean_sbu_1, # of connection points: 5
#     Node 6, Type 0, BuildingBlock: XOMCOT_clean_sbu_1, # of connection points: 5
#     Node 7, Type 0, BuildingBlock: XOMCOT_clean_sbu_1, # of connection points: 5
#     Node 8, Type 0, BuildingBlock: XOMCOT_clean_sbu_1, # of connection points: 5
#     Node 9, Type 0, BuildingBlock: XOMCOT_clean_sbu_1, # of connection points: 5
#     Node 10, Type 0, BuildingBlock: XOMCOT_clean_sbu_1, # of connection points: 5
#     Node 11, Type 0, BuildingBlock: XOMCOT_clean_sbu_1, # of connection points: 5
#     Node 12, Type 0, BuildingBlock: XOMCOT_clean_sbu_1, # of connection points: 5
#     Node 13, Type 0, BuildingBlock: XOMCOT_clean_sbu_1, # of connection points: 5
#     Node 14, Type 0, BuildingBlock: XOMCOT_clean_sbu_1, # of connection points: 5
#     Node 15, Type 0, BuildingBlock: XOMCOT_clean_sbu_1, # of connection points: 5
#     Node 16, Type 0, BuildingBlock: XOMCOT_clean_sbu_1, # of connection points: 5
#     Node 17, Type 0, BuildingBlock: XOMCOT_clean_sbu_1, # of connection points: 5
#     Node 18, Type 0, BuildingBlock: XOMCOT_clean_sbu_1, # of connection points: 5
#     Node 19, Type 0, BuildingBlock: XOMCOT_clean_sbu_1, # of connection points: 5
#     Node 20, Type 0, BuildingBlock: XOMCOT_clean_sbu_1, # of connection points: 5
#     Node 21, Type 0, BuildingBlock: XOMCOT_clean_sbu_1, # of connection points: 5
#     Node 22, Type 0, BuildingBlock: XOMCOT_clean_sbu_1, # of connection points: 5
#     Node 23, Type 0, BuildingBlock: XOMCOT_clean_sbu_1, # of connection points: 5
#     Node 24, Type 0, BuildingBlock: XOMCOT_clean_sbu_1, # of connection points: 5
#     Node 25, Type 0, BuildingBlock: XOMCOT_clean_sbu_1, # of connection points: 5
#     Node 26, Type 0, BuildingBlock: XOMCOT_clean_sbu_1, # of connection points: 5
#     Node 27, Type 0, BuildingBlock: XOMCOT_clean_sbu_1, # of connection points: 5
#     Node 28, Type 0, BuildingBlock: XOMCOT_clean_sbu_1, # of connection points: 5
#     Node 29, Type 0, BuildingBlock: XOMCOT_clean_sbu_1, # of connection points: 5
#     Node 30, Type 0, BuildingBlock: XOMCOT_clean_sbu_1, # of connection points: 5
#     Node 31, Type 0, BuildingBlock: XOMCOT_clean_sbu_1, # of connection points: 5
#     Node 32, Type 0, BuildingBlock: XOMCOT_clean_sbu_1, # of connection points: 5
#     Node 33, Type 0, BuildingBlock: XOMCOT_clean_sbu_1, # of connection points: 5
#     Node 34, Type 0, BuildingBlock: XOMCOT_clean_sbu_1, # of connection points: 5
#     Node 35, Type 0, BuildingBlock: XOMCOT_clean_sbu_1, # of connection points: 5
#     Edge 36, Type (0, 0), BuildingBlock: EZIPEK_clean_linker_0, # of connection points: 2
#     Edge 37, Type (0, 0), BuildingBlock: EZIPEK_clean_linker_0, # of connection points: 2
#     Edge 38, Type (0, 0), BuildingBlock: EZIPEK_clean_linker_0, # of connection points: 2
#     Edge 39, Type (0, 0), BuildingBlock: EZIPEK_clean_linker_0, # of connection points: 2
#     Edge 40, Type (0, 0), BuildingBlock: EZIPEK_clean_linker_0, # of connection points: 2
#     Edge 41, Type (0, 0), BuildingBlock: EZIPEK_clean_linker_0, # of connection points: 2
#     Edge 42, Type (0, 0), BuildingBlock: EZIPEK_clean_linker_0, # of connection points: 2
#     Edge 43, Type (0, 0), BuildingBlock: EZIPEK_clean_linker_0, # of connection points: 2
#     Edge 44, Type (0, 0), BuildingBlock: EZIPEK_clean_linker_0, # of connection points: 2
#     Edge 45, Type (0, 0), BuildingBlock: EZIPEK_clean_linker_0, # of connection points: 2
#     Edge 46, Type (0, 0), BuildingBlock: EZIPEK_clean_linker_0, # of connection points: 2
#     Edge 47, Type (0, 0), BuildingBlock: EZIPEK_clean_linker_0, # of connection points: 2
#     Edge 48, Type (0, 0), BuildingBlock: EZIPEK_clean_linker_0, # of connection points: 2
#     Edge 49, Type (0, 0), BuildingBlock: EZIPEK_clean_linker_0, # of connection points: 2
#     Edge 50, Type (0, 0), BuildingBlock: EZIPEK_clean_linker_0, # of connection points: 2
#     Edge 51, Type (0, 0), BuildingBlock: EZIPEK_clean_linker_0, # of connection points: 2
#     Edge 52, Type (0, 0), BuildingBlock: EZIPEK_clean_linker_0, # of connection points: 2
#     Edge 53, Type (0, 0), BuildingBlock: EZIPEK_clean_linker_0, # of connection points: 2
#     Edge 54, Type (0, 0), BuildingBlock: EZIPEK_clean_linker_0, # of connection points: 2
#     Edge 55, Type (0, 0), BuildingBlock: EZIPEK_clean_linker_0, # of connection points: 2
#     Edge 56, Type (0, 0), BuildingBlock: EZIPEK_clean_linker_0, # of connection points: 2
#     Edge 57, Type (0, 0), BuildingBlock: EZIPEK_clean_linker_0, # of connection points: 2
#     Edge 58, Type (0, 0), BuildingBlock: EZIPEK_clean_linker_0, # of connection points: 2
#     Edge 59, Type (0, 0), BuildingBlock: EZIPEK_clean_linker_0, # of connection points: 2
#     Edge 60, Type (0, 0), BuildingBlock: EZIPEK_clean_linker_0, # of connection points: 2
#     Edge 61, Type (0, 0), BuildingBlock: EZIPEK_clean_linker_0, # of connection points: 2
#     Edge 62, Type (0, 0), BuildingBlock: EZIPEK_clean_linker_0, # of connection points: 2
#     Edge 63, Type (0, 0), BuildingBlock: EZIPEK_clean_linker_0, # of connection points: 2
#     Edge 64, Type (0, 0), BuildingBlock: EZIPEK_clean_linker_0, # of connection points: 2
#     Edge 65, Type (0, 0), BuildingBlock: EZIPEK_clean_linker_0, # of connection points: 2
#     Edge 66, Type (0, 0), BuildingBlock: EZIPEK_clean_linker_0, # of connection points: 2
#     Edge 67, Type (0, 0), BuildingBlock: EZIPEK_clean_linker_0, # of connection points: 2
#     Edge 68, Type (0, 0), BuildingBlock: EZIPEK_clean_linker_0, # of connection points: 2
#     Edge 69, Type (0, 0), BuildingBlock: EZIPEK_clean_linker_0, # of connection points: 2
#     Edge 70, Type (0, 0), BuildingBlock: EZIPEK_clean_linker_0, # of connection points: 2
#     Edge 71, Type (0, 0), BuildingBlock: EZIPEK_clean_linker_0, # of connection points: 2
#     Edge 72, Type (0, 0), BuildingBlock: EZIPEK_clean_linker_0, # of connection points: 2
#     Edge 73, Type (0, 0), BuildingBlock: EZIPEK_clean_linker_0, # of connection points: 2
#     Edge 74, Type (0, 0), BuildingBlock: EZIPEK_clean_linker_0, # of connection points: 2
#     Edge 75, Type (0, 0), BuildingBlock: EZIPEK_clean_linker_0, # of connection points: 2
#     Edge 76, Type (0, 0), BuildingBlock: EZIPEK_clean_linker_0, # of connection points: 2
#     Edge 77, Type (0, 0), BuildingBlock: EZIPEK_clean_linker_0, # of connection points: 2
#     Edge 78, Type (0, 0), BuildingBlock: EZIPEK_clean_linker_0, # of connection points: 2
#     Edge 79, Type (0, 0), BuildingBlock: EZIPEK_clean_linker_0, # of connection points: 2
#     Edge 80, Type (0, 0), BuildingBlock: EZIPEK_clean_linker_0, # of connection points: 2
#     Edge 81, Type (0, 0), BuildingBlock: EZIPEK_clean_linker_0, # of connection points: 2
#     Edge 82, Type (0, 0), BuildingBlock: EZIPEK_clean_linker_0, # of connection points: 2
#     Edge 83, Type (0, 0), BuildingBlock: EZIPEK_clean_linker_0, # of connection points: 2
#     Edge 84, Type (0, 0), BuildingBlock: EZIPEK_clean_linker_0, # of connection points: 2
#     Edge 85, Type (0, 0), BuildingBlock: EZIPEK_clean_linker_0, # of connection points: 2
#     Edge 86, Type (0, 0), BuildingBlock: EZIPEK_clean_linker_0, # of connection points: 2
#     Edge 87, Type (0, 0), BuildingBlock: EZIPEK_clean_linker_0, # of connection points: 2
#     Edge 88, Type (0, 0), BuildingBlock: EZIPEK_clean_linker_0, # of connection points: 2
#     Edge 89, Type (0, 0), BuildingBlock: EZIPEK_clean_linker_0, # of connection points: 2
#     Edge 90, Type (0, 0), BuildingBlock: EZIPEK_clean_linker_0, # of connection points: 2
#     Edge 91, Type (0, 0), BuildingBlock: EZIPEK_clean_linker_0, # of connection points: 2
#     Edge 92, Type (0, 0), BuildingBlock: EZIPEK_clean_linker_0, # of connection points: 2
#     Edge 93, Type (0, 0), BuildingBlock: EZIPEK_clean_linker_0, # of connection points: 2
#     Edge 94, Type (0, 0), BuildingBlock: EZIPEK_clean_linker_0, # of connection points: 2
#     Edge 95, Type (0, 0), BuildingBlock: EZIPEK_clean_linker_0, # of connection points: 2
#     Edge 96, Type (0, 0), BuildingBlock: EZIPEK_clean_linker_0, # of connection points: 2
#     Edge 97, Type (0, 0), BuildingBlock: EZIPEK_clean_linker_0, # of connection points: 2
#     Edge 98, Type (0, 0), BuildingBlock: EZIPEK_clean_linker_0, # of connection points: 2
#     Edge 99, Type (0, 0), BuildingBlock: EZIPEK_clean_linker_0, # of connection points: 2
#     Edge 100, Type (0, 0), BuildingBlock: EZIPEK_clean_linker_0, # of connection points: 2
#     Edge 101, Type (0, 0), BuildingBlock: EZIPEK_clean_linker_0, # of connection points: 2
#     Edge 102, Type (0, 0), BuildingBlock: EZIPEK_clean_linker_0, # of connection points: 2
#     Edge 103, Type (0, 0), BuildingBlock: EZIPEK_clean_linker_0, # of connection points: 2
#     Edge 104, Type (0, 0), BuildingBlock: EZIPEK_clean_linker_0, # of connection points: 2
#     Edge 105, Type (0, 0), BuildingBlock: EZIPEK_clean_linker_0, # of connection points: 2
#     Edge 106, Type (0, 0), BuildingBlock: EZIPEK_clean_linker_0, # of connection points: 2
#     Edge 107, Type (0, 0), BuildingBlock: EZIPEK_clean_linker_0, # of connection points: 2
#     Edge 108, Type (0, 0), BuildingBlock: EZIPEK_clean_linker_0, # of connection points: 2
#     Edge 109, Type (0, 0), BuildingBlock: EZIPEK_clean_linker_0, # of connection points: 2
#     Edge 110, Type (0, 0), BuildingBlock: EZIPEK_clean_linker_0, # of connection points: 2
#     Edge 111, Type (0, 0), BuildingBlock: EZIPEK_clean_linker_0, # of connection points: 2
#     Edge 112, Type (0, 0), BuildingBlock: EZIPEK_clean_linker_0, # of connection points: 2
#     Edge 113, Type (0, 0), BuildingBlock: EZIPEK_clean_linker_0, # of connection points: 2
#     Edge 114, Type (0, 0), BuildingBlock: EZIPEK_clean_linker_0, # of connection points: 2
#     Edge 115, Type (0, 0), BuildingBlock: EZIPEK_clean_linker_0, # of connection points: 2
#     Edge 116, Type (0, 0), BuildingBlock: EZIPEK_clean_linker_0, # of connection points: 2
#     Edge 117, Type (0, 0), BuildingBlock: EZIPEK_clean_linker_0, # of connection points: 2
#     Edge 118, Type (0, 0), BuildingBlock: EZIPEK_clean_linker_0, # of connection points: 2
#     Edge 119, Type (0, 0), BuildingBlock: EZIPEK_clean_linker_0, # of connection points: 2
#     Edge 120, Type (0, 0), BuildingBlock: EZIPEK_clean_linker_0, # of connection points: 2
#     Edge 121, Type (0, 0), BuildingBlock: EZIPEK_clean_linker_0, # of connection points: 2
#     Edge 122, Type (0, 0), BuildingBlock: EZIPEK_clean_linker_0, # of connection points: 2
#     Edge 123, Type (0, 0), BuildingBlock: EZIPEK_clean_linker_0, # of connection points: 2
#     Edge 124, Type (0, 0), BuildingBlock: EZIPEK_clean_linker_0, # of connection points: 2
#     Edge 125, Type (0, 0), BuildingBlock: EZIPEK_clean_linker_0, # of connection points: 2
# Relax obj value: 0.453
# Max RMSD: 0.278
# Mean RMSD: 0.278
data_MOF--net-wlf--node1-XOMCOT_clean_sbu_1--edge1-EZIPEK_clean_linker_0
_symmetry_space_group_name_H-M    P1
_symmetry_Int_Tables_number       1
_symmetry_cell_setting            triclinic
loop_
_symmetry_equiv_pos_as_xyz
'x, y, z'
_cell_length_a     78.02475
_cell_length_b     78.008792
_cell_length_c     22.568163
_cell_angle_alpha  89.801208
_cell_angle_beta   90.251018
_cell_angle_gamma 120.28061
loop_
_atom_site_label
_atom_site_type_symbol
_atom_site_fract_x
_atom_site_fract_y
_atom_site_fract_z
_atom_type_partial_charge
C0 C 0.27833 0.19973 0.30771 0.0
C1 C 0.29399 0.21311 0.34188 0.0
N2 N 0.30221 0.20338 0.36722 0.0
N3 N 0.27629 0.1815 0.31314 0.0
C4 C 0.29145 0.1844 0.34888 0.0
H5 H 0.26931 0.20324 0.27946 0.0
Co6 Co 0.2585 0.15902 0.26947 0.0
C7 C 0.23604 0.12943 0.37259 0.0
O8 O 0.21859 0.12395 0.34931 0.0
N9 N 0.24115 0.13725 0.21798 0.0
C10 C 0.2158 0.12224 0.15417 0.0
C11 C 0.22124 0.1287 0.21179 0.0
C12 C 0.24702 0.13451 0.16361 0.0
N13 N 0.2321 0.12596 0.12338 0.0
O14 O 0.27935 0.15384 0.2561 0.0
H15 H 0.2115 0.12957 0.24393 0.0
H16 H 0.26223 0.1404 0.15098 0.0
O17 O 0.25155 0.14233 0.34432 0.0
C18 C 0.29184 0.16384 0.21596 0.0
O19 O 0.28828 0.17514 0.18066 0.0
N20 N 0.23873 0.16547 0.28256 0.0
C21 C 0.21762 0.18501 0.29716 0.0
C22 C 0.2231 0.17797 0.34647 0.0
C23 C 0.23384 0.16835 0.33828 0.0
C24 C 0.23309 0.17189 0.23401 0.0
C25 C 0.22218 0.18144 0.24028 0.0
H26 H 0.2398 0.16503 0.37699 0.0
H27 H 0.23808 0.17062 0.19046 0.0
H28 H 0.29523 0.17317 0.35899 0.0
H29 H 0.29921 0.22878 0.34691 0.0
H30 H 0.20114 0.11656 0.13531 0.0
H31 H 0.22022 0.18105 0.39096 0.0
H32 H 0.21843 0.18711 0.20147 0.0
C33 C 0.79185 0.07907 0.31205 0.0
C34 C 0.77944 0.08262 0.34577 0.0
N35 N 0.79062 0.09719 0.38435 0.0
N36 N 0.81072 0.09148 0.32913 0.0
C37 C 0.80957 0.10208 0.37428 0.0
H38 H 0.78761 0.06925 0.27429 0.0
Co39 Co 0.83149 0.09562 0.28203 0.0
C40 C 0.86629 0.11872 0.3776 0.0
O41 O 0.88078 0.1318 0.34422 0.0
N42 N 0.85135 0.0994 0.22571 0.0
C43 C 0.87059 0.09409 0.16429 0.0
C44 C 0.8645 0.09303 0.22276 0.0
C45 C 0.84995 0.10433 0.1685 0.0
N46 N 0.86132 0.1012 0.12992 0.0
O47 O 0.83564 0.12125 0.26402 0.0
H48 H 0.86822 0.08655 0.2595 0.0
H49 H 0.83972 0.10893 0.15395 0.0
O50 O 0.84963 0.10645 0.35332 0.0
C51 C 0.8233 0.12242 0.22942 0.0
O52 O 0.80967 0.10634 0.2025 0.0
N53 N 0.82613 0.06998 0.30097 0.0
C54 C 0.80596 0.03013 0.33254 0.0
C55 C 0.81391 0.04472 0.37608 0.0
C56 C 0.82387 0.06453 0.35944 0.0
C57 C 0.81934 0.05591 0.25767 0.0
C58 C 0.80928 0.03573 0.27261 0.0
H59 H 0.82762 0.0753 0.39416 0.0
H60 H 0.82031 0.06026 0.21169 0.0
H61 H 0.82232 0.11436 0.39537 0.0
H62 H 0.76354 0.0759 0.34025 0.0
H63 H 0.88052 0.0893 0.14799 0.0
H64 H 0.81114 0.04084 0.42261 0.0
H65 H 0.80295 0.02466 0.23795 0.0
C66 C 0.86595 0.71142 0.35158 0.0
C67 C 0.86554 0.69814 0.39183 0.0
N68 N 0.88407 0.70158 0.39814 0.0
N69 N 0.88467 0.7234 0.33171 0.0
C70 C 0.89553 0.71724 0.36272 0.0
H71 H 0.85302 0.71169 0.33583 0.0
Co72 Co 0.88848 0.74103 0.26756 0.0
C73 C 0.88455 0.76063 0.34957 0.0
O74 O 0.90327 0.76602 0.34072 0.0
N75 N 0.88997 0.75706 0.20065 0.0
C76 C 0.88526 0.7768 0.13906 0.0
C77 C 0.88631 0.77223 0.19782 0.0
C78 C 0.89143 0.75303 0.14283 0.0
N79 N 0.88848 0.76465 0.10463 0.0
O80 O 0.86562 0.71885 0.228 0.0
H81 H 0.88345 0.77884 0.23573 0.0
H82 H 0.89388 0.74128 0.12844 0.0
O83 O 0.87199 0.7487 0.31123 0.0
C84 C 0.86248 0.70664 0.18617 0.0
O85 O 0.87767 0.70683 0.1608 0.0
N86 N 0.90866 0.73726 0.23436 0.0
C87 C 0.94645 0.74256 0.25205 0.0
C88 C 0.92979 0.72333 0.24904 0.0
C89 C 0.91086 0.72098 0.2388 0.0
C90 C 0.92516 0.75575 0.23076 0.0
C91 C 0.94408 0.75864 0.23816 0.0
H92 H 0.89794 0.70643 0.24334 0.0
H93 H 0.92387 0.76888 0.23079 0.0
H94 H 0.91111 0.72296 0.35679 0.0
H95 H 0.8525 0.6862 0.41286 0.0
H96 H 0.88145 0.78754 0.12286 0.0
H97 H 0.93115 0.71052 0.25962 0.0
H98 H 0.9566 0.77367 0.24003 0.0
C99 C 0.19679 0.3098 0.29689 0.0
C100 C 0.20722 0.32413 0.25566 0.0
N101 N 0.19575 0.32059 0.20743 0.0
N102 N 0.17817 0.29747 0.27701 0.0
C103 C 0.1781 0.3044 0.22173 0.0
H104 H 0.20244 0.30947 0.34017 0.0
Co105 Co 0.15672 0.2775 0.32174 0.0
C106 C 0.12745 0.25229 0.21762 0.0
O107 O 0.11312 0.2383 0.24939 0.0
N108 N 0.13587 0.25809 0.36975 0.0
C109 C 0.11053 0.24747 0.43291 0.0
C110 C 0.11707 0.25432 0.37588 0.0
C111 C 0.13997 0.25258 0.42288 0.0
N112 N 0.12516 0.24671 0.46257 0.0
O113 O 0.16975 0.29026 0.39581 0.0
H114 H 0.10966 0.25891 0.34443 0.0
H115 H 0.15458 0.25543 0.4353 0.0
O116 O 0.1429 0.26595 0.2441 0.0
C117 C 0.17459 0.3073 0.41666 0.0
O118 O 0.18173 0.31174 0.4708 0.0
N119 N 0.16874 0.2613 0.32211 0.0
C120 C 0.18501 0.23659 0.32149 0.0
C121 C 0.1669 0.23072 0.2937 0.0
C122 C 0.15874 0.24295 0.29638 0.0
C123 C 0.18617 0.26682 0.35144 0.0
C124 C 0.19447 0.25461 0.35205 0.0
H125 H 0.14411 0.2372 0.2787 0.0
H126 H 0.19369 0.2804 0.37624 0.0
H127 H 0.16529 0.29786 0.19281 0.0
H128 H 0.22214 0.33656 0.26138 0.0
H129 H 0.09694 0.24522 0.45274 0.0
H130 H 0.15889 0.21657 0.27113 0.0
H131 H 0.20827 0.2593 0.37556 0.0
C132 C 0.72418 0.9199 0.19401 0.0
C133 C 0.71 0.91989 0.15727 0.0
N134 N 0.69819 0.90124 0.13804 0.0
N135 N 0.72127 0.90127 0.19805 0.0
C136 C 0.70549 0.89042 0.16209 0.0
H137 H 0.73535 0.93269 0.21777 0.0
Co138 Co 0.73344 0.89091 0.24872 0.0
C139 C 0.74575 0.88162 0.14916 0.0
O140 O 0.76188 0.89749 0.16787 0.0
N141 N 0.74488 0.88056 0.30215 0.0
C142 C 0.768 0.88001 0.35926 0.0
C143 C 0.7636 0.88386 0.30304 0.0
C144 C 0.73821 0.87447 0.35836 0.0
N145 N 0.75204 0.87426 0.39423 0.0
O146 O 0.70746 0.87141 0.28012 0.0
H147 H 0.77406 0.89045 0.26713 0.0
H148 H 0.72414 0.87207 0.37463 0.0
O149 O 0.73092 0.87309 0.18461 0.0
C150 C 0.69129 0.87102 0.29186 0.0
O151 O 0.68999 0.88702 0.28517 0.0
N152 N 0.73891 0.91035 0.30407 0.0
C153 C 0.75662 0.94764 0.35445 0.0
C154 C 0.76674 0.94306 0.31253 0.0
C155 C 0.75767 0.9243 0.28836 0.0
C156 C 0.72942 0.91369 0.34927 0.0
C157 C 0.73816 0.93257 0.37549 0.0
H158 H 0.76511 0.92117 0.25343 0.0
H159 H 0.71523 0.9022 0.36453 0.0
H160 H 0.69891 0.87467 0.1552 0.0
H161 H 0.70803 0.93237 0.14724 0.0
H162 H 0.78224 0.88238 0.37424 0.0
H163 H 0.78112 0.95426 0.29598 0.0
H164 H 0.73029 0.93566 0.40931 0.0
C165 C 0.06064 0.80186 0.1706 0.0
C166 C 0.0643 0.79155 0.12814 0.0
N167 N 0.08347 0.80236 0.11208 0.0
N168 N 0.07756 0.81906 0.18261 0.0
C169 C 0.09104 0.81897 0.14518 0.0
H170 H 0.04667 0.79636 0.19284 0.0
Co171 Co 0.08447 0.83794 0.24404 0.0
C172 C 0.09586 0.86438 0.15166 0.0
O173 O 0.07869 0.86258 0.16548 0.0
N174 N 0.09188 0.85657 0.30719 0.0
C175 C 0.10011 0.88312 0.3635 0.0
C176 C 0.09597 0.87557 0.30642 0.0
C177 C 0.0935 0.85299 0.36543 0.0
N178 N 0.09867 0.86888 0.40066 0.0
O179 O 0.10435 0.83111 0.27202 0.0
H180 H 0.09596 0.88349 0.26705 0.0
H181 H 0.09061 0.83885 0.38235 0.0
O182 O 0.10378 0.85786 0.18887 0.0
C183 C 0.10426 0.81466 0.27679 0.0
O184 O 0.08784 0.79806 0.26503 0.0
N185 N 0.06356 0.81913 0.29114 0.0
C186 C 0.02592 0.78767 0.31354 0.0
C187 C 0.02837 0.80455 0.28411 0.0
C188 C 0.04742 0.82028 0.27392 0.0
C189 C 0.06139 0.8046 0.32967 0.0
C190 C 0.04245 0.78822 0.34026 0.0
H191 H 0.04943 0.83242 0.24584 0.0
H192 H 0.07408 0.80494 0.34997 0.0
H193 H 0.10643 0.8306 0.14409 0.0
H194 H 0.05389 0.77679 0.11215 0.0
H195 H 0.10415 0.89803 0.37662 0.0
H196 H 0.01577 0.80488 0.26496 0.0
H197 H 0.04081 0.7758 0.36628 0.0
C198 C 0.70401 0.79468 0.73383 0.0
C199 C 0.69108 0.78055 0.69516 0.0
N200 N 0.68918 0.78955 0.64611 0.0
N201 N 0.70993 0.81271 0.71111 0.0
C202 C 0.70044 0.80924 0.65862 0.0
H203 H 0.70802 0.79204 0.77745 0.0
Co204 Co 0.72537 0.83571 0.7538 0.0
C205 C 0.75077 0.86179 0.64957 0.0
O206 O 0.76763 0.86774 0.67755 0.0
N207 N 0.73992 0.85801 0.80321 0.0
C208 C 0.75924 0.88546 0.85507 0.0
C209 C 0.75448 0.87717 0.79885 0.0
C210 C 0.73584 0.85535 0.862 0.0
N211 N 0.74734 0.87162 0.89478 0.0
O212 O 0.70363 0.84017 0.75729 0.0
H213 H 0.76116 0.88486 0.75811 0.0
H214 H 0.72503 0.84127 0.88096 0.0
O215 O 0.73428 0.85084 0.67671 0.0
C216 C 0.69049 0.82931 0.79499 0.0
O217 O 0.69282 0.81632 0.82591 0.0
N218 N 0.74623 0.83043 0.75303 0.0
C219 C 0.77517 0.81991 0.75665 0.0
C220 C 0.76635 0.81995 0.70281 0.0
C221 C 0.75159 0.82496 0.70214 0.0
C222 C 0.754 0.82925 0.80611 0.0
C223 C 0.7689 0.82451 0.80886 0.0
H224 H 0.74403 0.82388 0.66095 0.0
H225 H 0.74807 0.83101 0.84691 0.0
H226 H 0.7008 0.82101 0.63222 0.0
H227 H 0.68284 0.76502 0.70611 0.0
H228 H 0.77032 0.9006 0.86582 0.0
H229 H 0.77037 0.8155 0.66217 0.0
H230 H 0.77484 0.82354 0.85144 0.0
C231 C 0.1884 0.91357 0.72253 0.0
C232 C 0.20044 0.91265 0.68032 0.0
N233 N 0.18918 0.9009 0.63526 0.0
N234 N 0.16935 0.90205 0.70615 0.0
C235 C 0.17027 0.89395 0.6543 0.0
H236 H 0.19329 0.9208 0.765 0.0
Co237 Co 0.14775 0.89592 0.75518 0.0
C238 C 0.11356 0.87837 0.65617 0.0
O239 O 0.09786 0.87441 0.68755 0.0
N240 N 0.12731 0.89014 0.81019 0.0
C241 C 0.10338 0.8888 0.86737 0.0
C242 C 0.11137 0.8926 0.81081 0.0
C243 C 0.12898 0.88553 0.86732 0.0
N244 N 0.11462 0.88448 0.9029 0.0
O245 O 0.14422 0.87013 0.76726 0.0
H246 H 0.10644 0.89782 0.7738 0.0
H247 H 0.14091 0.88349 0.88329 0.0
O248 O 0.13045 0.8857 0.68239 0.0
C249 C 0.1565 0.86846 0.80056 0.0
O250 O 0.17071 0.88425 0.82703 0.0
N251 N 0.152 0.92173 0.74425 0.0
C252 C 0.16946 0.96096 0.70741 0.0
C253 C 0.15163 0.94647 0.6819 0.0
C254 C 0.14266 0.92698 0.70282 0.0
C255 C 0.16774 0.93606 0.77503 0.0
C256 C 0.17688 0.95586 0.75694 0.0
H257 H 0.129 0.91608 0.68245 0.0
H258 H 0.17422 0.93188 0.81065 0.0
H259 H 0.15725 0.88184 0.63404 0.0
H260 H 0.21618 0.91877 0.68648 0.0
H261 H 0.09056 0.88959 0.88162 0.0
H262 H 0.14513 0.95002 0.64472 0.0
H263 H 0.19034 0.96685 0.77889 0.0
C264 C 0.08132 0.26602 0.71966 0.0
C265 C 0.08495 0.28038 0.67834 0.0
N266 N 0.10374 0.2882 0.65907 0.0
N267 N 0.09809 0.26538 0.7298 0.0
C268 C 0.1112 0.2787 0.69065 0.0
H269 H 0.06758 0.25786 0.74336 0.0
Co270 Co 0.1051 0.25469 0.79586 0.0
C271 C 0.12096 0.24216 0.71436 0.0
O272 O 0.10342 0.22689 0.72637 0.0
N273 N 0.11247 0.24518 0.86368 0.0
C274 C 0.12416 0.23165 0.92769 0.0
C275 C 0.12031 0.23328 0.86853 0.0
C276 C 0.11157 0.2504 0.92059 0.0
N277 N 0.11874 0.24255 0.96042 0.0
O278 O 0.12147 0.28152 0.82812 0.0
H279 H 0.12338 0.22647 0.83156 0.0
H280 H 0.1059 0.26 0.93281 0.0
O281 O 0.1273 0.25719 0.74913 0.0
C282 C 0.12058 0.29744 0.82909 0.0
O283 O 0.10549 0.29742 0.80334 0.0
N284 N 0.08157 0.24877 0.83396 0.0
C285 C 0.04042 0.23133 0.83289 0.0
C286 C 0.0497 0.22151 0.8095 0.0
C287 C 0.07003 0.23005 0.81292 0.0
C288 C 0.07325 0.25827 0.86218 0.0
C289 C 0.05234 0.24943 0.86324 0.0
H290 H 0.07681 0.22252 0.79231 0.0
H291 H 0.08246 0.27293 0.8804 0.0
H292 H 0.12647 0.28255 0.68844 0.0
H293 H 0.07465 0.28515 0.66512 0.0
H294 H 0.13078 0.22338 0.94524 0.0
H295 H 0.04138 0.20753 0.78621 0.0
H296 H 0.04568 0.25717 0.88387 0.0
C297 C 0.80686 0.72188 0.76336 0.0
C298 C 0.7928 0.70628 0.7961 0.0
N299 N 0.80231 0.70108 0.83546 0.0
N300 N 0.82518 0.72651 0.78213 0.0
C301 C 0.82185 0.71359 0.82672 0.0
H302 H 0.80379 0.72835 0.72536 0.0
Co303 Co 0.84867 0.74364 0.74176 0.0
C304 C 0.87802 0.7617 0.84887 0.0
O305 O 0.89109 0.77821 0.82266 0.0
N306 N 0.87128 0.76057 0.6954 0.0
C307 C 0.88615 0.7865 0.63394 0.0
C308 C 0.88085 0.78061 0.69202 0.0
C309 C 0.87212 0.75494 0.63912 0.0
N310 N 0.88042 0.77024 0.60032 0.0
O311 O 0.85309 0.72199 0.72825 0.0
H312 H 0.88123 0.79025 0.7269 0.0
H313 H 0.86432 0.73978 0.62499 0.0
O314 O 0.86292 0.74889 0.81935 0.0
C315 C 0.84079 0.70843 0.69367 0.0
O316 O 0.82696 0.71073 0.66779 0.0
N317 N 0.84333 0.76413 0.75136 0.0
C318 C 0.82765 0.78882 0.75326 0.0
C319 C 0.8392 0.78888 0.80072 0.0
C320 C 0.84699 0.7763 0.79893 0.0
C321 C 0.83351 0.76529 0.70295 0.0
C322 C 0.82538 0.77751 0.70301 0.0
H323 H 0.85531 0.77616 0.83655 0.0
H324 H 0.83087 0.75561 0.66571 0.0
H325 H 0.83342 0.71275 0.85067 0.0
H326 H 0.77689 0.6985 0.78911 0.0
H327 H 0.89214 0.80143 0.61695 0.0
H328 H 0.84111 0.7976 0.84005 0.0
H329 H 0.81637 0.77721 0.66588 0.0
C330 C 0.27358 0.08347 0.80828 0.0
C331 C 0.28733 0.08511 0.84869 0.0
N332 N 0.28658 0.09517 0.89581 0.0
N333 N 0.26411 0.09288 0.82802 0.0
C334 C 0.27196 0.09919 0.88303 0.0
H335 H 0.27179 0.07684 0.7652 0.0
Co336 Co 0.2496 0.10071 0.77571 0.0
C337 C 0.23819 0.11071 0.87375 0.0
O338 O 0.22662 0.09162 0.86404 0.0
N339 N 0.23663 0.10895 0.72006 0.0
C340 C 0.21304 0.10765 0.66046 0.0
C341 C 0.21733 0.10376 0.71706 0.0
C342 C 0.24367 0.11622 0.66503 0.0
N343 N 0.22964 0.11511 0.6273 0.0
O344 O 0.27544 0.11992 0.74104 0.0
H345 H 0.20666 0.09603 0.75187 0.0
H346 H 0.25846 0.12066 0.65054 0.0
O347 O 0.25172 0.12028 0.83475 0.0
C348 C 0.28895 0.11986 0.70918 0.0
O349 O 0.28702 0.10321 0.68924 0.0
N350 N 0.24339 0.07912 0.72548 0.0
C351 C 0.22141 0.04139 0.67632 0.0
C352 C 0.22027 0.04439 0.73655 0.0
C353 C 0.23086 0.06328 0.75961 0.0
C354 C 0.24502 0.07663 0.66609 0.0
C355 C 0.23402 0.05764 0.64038 0.0
H356 H 0.22866 0.06535 0.80559 0.0
H357 H 0.25396 0.08915 0.63775 0.0
H358 H 0.26806 0.10764 0.91202 0.0
H359 H 0.29793 0.08018 0.84245 0.0
H360 H 0.19851 0.10379 0.64372 0.0
H361 H 0.21049 0.03223 0.76539 0.0
H362 H 0.23484 0.05577 0.59316 0.0
C363 C 0.918 0.19255 0.85731 0.0
C364 C 0.92601 0.20239 0.94258 0.0
N365 N 0.9091 0.18091 0.98807 0.0
N366 N 0.89797 0.1667 0.86542 0.0
C367 C 0.89236 0.15917 0.94287 0.0
H368 H 0.92477 0.20049 0.81695 0.0
Co369 Co 0.89054 0.14828 0.80056 0.0
C370 C 0.86745 0.11424 0.87171 0.0
O371 O 0.87526 0.10563 0.84096 0.0
N372 N 0.88373 0.1306 0.73293 0.0
C373 C 0.89092 0.11554 0.66089 0.0
C374 C 0.89388 0.12131 0.71967 0.0
C375 C 0.87435 0.12982 0.68077 0.0
N376 N 0.87875 0.12104 0.6357 0.0
O377 O 0.8762 0.16074 0.76306 0.0
H378 H 0.9043 0.1204 0.74941 0.0
H379 H 0.86523 0.13638 0.67502 0.0
O380 O 0.86713 0.12923 0.8481 0.0
C381 C 0.88024 0.17787 0.74346 0.0
O382 O 0.89854 0.19272 0.74328 0.0
N383 N 0.91533 0.16476 0.76617 0.0
C384 C 0.95666 0.18773 0.77035 0.0
C385 C 0.94608 0.17292 0.81229 0.0
C386 C 0.92586 0.1609 0.80682 0.0
C387 C 0.92497 0.1778 0.72099 0.0
C388 C 0.94598 0.18947 0.72203 0.0
H389 H 0.91813 0.14956 0.83975 0.0
H390 H 0.9167 0.17973 0.68572 0.0
H391 H 0.8783 0.1473 0.95813 0.0
H392 H 0.93541 0.21747 0.95777 0.0
H393 H 0.89823 0.10894 0.63737 0.0
H394 H 0.95337 0.17063 0.84992 0.0
H395 H 0.95367 0.20013 0.68701 0.0
C396 C 0.94264 0.53114 0.6468 0.0
C397 C 0.95744 0.54534 0.68217 0.0
N398 N 0.96426 0.5361 0.71729 0.0
N399 N 0.94029 0.51318 0.66018 0.0
C400 C 0.95354 0.51674 0.70369 0.0
H401 H 0.93508 0.53389 0.61101 0.0
Co402 Co 0.92664 0.48983 0.61725 0.0
C403 C 0.90479 0.46277 0.72653 0.0
O404 O 0.88691 0.45379 0.70325 0.0
N405 N 0.91376 0.46715 0.56935 0.0
C406 C 0.89553 0.43919 0.51866 0.0
C407 C 0.89995 0.44774 0.57448 0.0
C408 C 0.91777 0.46977 0.51065 0.0
N409 N 0.9068 0.45322 0.47857 0.0
O410 O 0.95016 0.48801 0.61297 0.0
H411 H 0.89342 0.44011 0.61535 0.0
H412 H 0.92803 0.48395 0.49132 0.0
O413 O 0.91966 0.47523 0.69535 0.0
C414 C 0.96393 0.50048 0.57933 0.0
O415 O 0.96241 0.51505 0.55556 0.0
N416 N 0.90405 0.49237 0.61588 0.0
C417 C 0.87431 0.50144 0.59959 0.0
C418 C 0.87832 0.497 0.65603 0.0
C419 C 0.89338 0.49262 0.6633 0.0
C420 C 0.9001 0.49663 0.56057 0.0
C421 C 0.88482 0.50057 0.55099 0.0
H422 H 0.89683 0.49047 0.70739 0.0
H423 H 0.9096 0.49821 0.52398 0.0
H424 H 0.956 0.50544 0.72301 0.0
H425 H 0.96353 0.56124 0.67988 0.0
H426 H 0.88498 0.42384 0.50833 0.0
H427 H 0.87068 0.49808 0.69456 0.0
H428 H 0.8824 0.50459 0.50704 0.0
C429 C 0.47347 0.41292 0.62264 0.0
C430 C 0.46088 0.41362 0.66387 0.0
N431 N 0.47039 0.43166 0.68937 0.0
N432 N 0.49089 0.43025 0.62374 0.0
C433 C 0.48846 0.44142 0.66447 0.0
H434 H 0.46998 0.40084 0.59252 0.0
Co435 Co 0.5126 0.4385 0.57489 0.0
C436 C 0.54482 0.45043 0.67273 0.0
O437 O 0.55498 0.44402 0.64332 0.0
N438 N 0.5338 0.4472 0.52009 0.0
C439 C 0.56035 0.46668 0.46456 0.0
C440 C 0.55292 0.46207 0.52183 0.0
C441 C 0.52999 0.44345 0.46123 0.0
N442 N 0.54577 0.45492 0.4266 0.0
O443 O 0.51267 0.46277 0.56166 0.0
H444 H 0.56047 0.47039 0.56109 0.0
H445 H 0.51536 0.4337 0.4433 0.0
O446 O 0.52983 0.45011 0.64769 0.0
C447 C 0.5025 0.46323 0.51799 0.0
O448 O 0.49397 0.44793 0.48211 0.0
N449 N 0.51121 0.41365 0.58677 0.0
C450 C 0.49768 0.37335 0.60455 0.0
C451 C 0.50345 0.38632 0.65267 0.0
C452 C 0.50978 0.40633 0.64289 0.0
C453 C 0.50641 0.40119 0.53936 0.0
C454 C 0.49971 0.38099 0.54726 0.0
H455 H 0.51145 0.41533 0.68102 0.0
H456 H 0.50593 0.40627 0.49542 0.0
H457 H 0.49944 0.45669 0.67423 0.0
H458 H 0.44564 0.4023 0.67223 0.0
H459 H 0.57488 0.47856 0.45164 0.0
H460 H 0.5014 0.38071 0.69762 0.0
H461 H 0.49484 0.37119 0.50924 0.0
C462 C 0.57243 0.04625 0.59695 0.0
C463 C 0.56658 0.03105 0.63722 0.0
N464 N 0.55432 0.03222 0.67684 0.0
N465 N 0.56357 0.05673 0.61009 0.0
C466 C 0.55311 0.04824 0.66003 0.0
H467 H 0.58086 0.04821 0.55703 0.0
Co468 Co 0.55975 0.07187 0.55344 0.0
C469 C 0.54219 0.09111 0.64159 0.0
O470 O 0.53478 0.09981 0.60912 0.0
N471 N 0.55568 0.08621 0.49151 0.0
C472 C 0.55822 0.10948 0.42823 0.0
C473 C 0.56036 0.10534 0.48684 0.0
C474 C 0.55067 0.07914 0.43522 0.0
N475 N 0.55211 0.0929 0.39568 0.0
O476 O 0.53391 0.05004 0.54147 0.0
H477 H 0.56617 0.11594 0.52275 0.0
H478 H 0.54719 0.06445 0.42216 0.0
O479 O 0.55011 0.0821 0.61681 0.0
C480 C 0.53258 0.0357 0.51102 0.0
O481 O 0.54811 0.03807 0.4815 0.0
N482 N 0.58566 0.09268 0.56567 0.0
C483 C 0.62573 0.11898 0.58488 0.0
C484 C 0.61216 0.11418 0.6309 0.0
C485 C 0.59219 0.10068 0.62068 0.0
C486 C 0.59864 0.09767 0.51983 0.0
C487 C 0.61889 0.1109 0.5285 0.0
H488 H 0.58231 0.09582 0.65815 0.0
H489 H 0.59339 0.09067 0.47713 0.0
H490 H 0.54337 0.05253 0.6807 0.0
H491 H 0.57014 0.01932 0.63553 0.0
H492 H 0.56173 0.12379 0.41048 0.0
H493 H 0.61716 0.11985 0.67523 0.0
H494 H 0.6292 0.11414 0.4924 0.0
C495 C 0.86443 0.61054 0.5814 0.0
C496 C 0.87965 0.62663 0.55283 0.0
N497 N 0.87159 0.63539 0.52129 0.0
N498 N 0.84686 0.6092 0.56763 0.0
C499 C 0.85191 0.62454 0.53011 0.0
H500 H 0.86663 0.6017 0.61398 0.0
Co501 Co 0.82215 0.59527 0.6074 0.0
C502 C 0.81385 0.58562 0.47831 0.0
O503 O 0.83075 0.58574 0.47751 0.0
N504 N 0.79942 0.58279 0.65253 0.0
C505 C 0.77228 0.56277 0.7038 0.0
C506 C 0.78077 0.56728 0.6478 0.0
C507 C 0.80184 0.58744 0.71063 0.0
N508 N 0.78571 0.57558 0.7431 0.0
O509 O 0.82119 0.6191 0.61242 0.0
H510 H 0.77419 0.55915 0.60738 0.0
H511 H 0.81577 0.59862 0.72948 0.0
O512 O 0.80751 0.58853 0.5281 0.0
C513 C 0.83422 0.63265 0.64529 0.0
O514 O 0.84769 0.62966 0.67066 0.0
N515 N 0.82278 0.57191 0.60799 0.0
C516 C 0.82977 0.54081 0.61111 0.0
C517 C 0.81508 0.53989 0.57358 0.0
C518 C 0.81124 0.55547 0.57444 0.0
C519 C 0.83444 0.57123 0.65178 0.0
C520 C 0.83845 0.55583 0.6537 0.0
H521 H 0.79947 0.55448 0.54689 0.0
H522 H 0.84165 0.58341 0.6828 0.0
H523 H 0.84149 0.62847 0.51235 0.0
H524 H 0.8954 0.63229 0.55819 0.0
H525 H 0.7576 0.55077 0.71501 0.0
H526 H 0.80759 0.52797 0.54182 0.0
H527 H 0.84947 0.55651 0.68449 0.0
C528 C 0.3849 0.24616 0.60766 0.0
C529 C 0.37192 0.24689 0.56777 0.0
N530 N 0.36713 0.23247 0.52757 0.0
N531 N 0.38814 0.23132 0.59241 0.0
C532 C 0.37732 0.22342 0.54283 0.0
H533 H 0.39063 0.255 0.64741 0.0
Co534 Co 0.40099 0.222 0.64046 0.0
C535 C 0.42487 0.2157 0.54256 0.0
O536 O 0.44163 0.22453 0.57242 0.0
N537 N 0.41281 0.21247 0.69482 0.0
C538 C 0.42558 0.19753 0.74892 0.0
C539 C 0.42239 0.20212 0.69192 0.0
C540 C 0.40981 0.21332 0.75375 0.0
N541 N 0.41767 0.2047 0.78772 0.0
O542 O 0.37698 0.19647 0.64496 0.0
H543 H 0.42617 0.19745 0.65149 0.0
H544 H 0.40173 0.22004 0.77154 0.0
O545 O 0.40888 0.21311 0.56697 0.0
C546 C 0.36161 0.19477 0.6702 0.0
O547 O 0.36221 0.21061 0.69244 0.0
N548 N 0.42422 0.24754 0.63721 0.0
C549 C 0.45251 0.28793 0.63233 0.0
C550 C 0.44471 0.27707 0.58031 0.0
C551 C 0.43036 0.25701 0.58375 0.0
C552 C 0.43212 0.25795 0.68839 0.0
C553 C 0.44641 0.27817 0.68692 0.0
H554 H 0.42311 0.24948 0.54326 0.0
H555 H 0.42648 0.25113 0.73082 0.0
H556 H 0.37593 0.21053 0.52051 0.0
H557 H 0.36538 0.25624 0.57039 0.0
H558 H 0.43289 0.18934 0.76091 0.0
H559 H 0.44865 0.28437 0.5375 0.0
H560 H 0.45178 0.28637 0.72798 0.0
C561 C 0.75901 0.14211 0.63043 0.0
C562 C 0.75565 0.12712 0.59257 0.0
N563 N 0.76464 0.13503 0.54025 0.0
N564 N 0.77068 0.15956 0.60358 0.0
C565 C 0.77452 0.15493 0.54986 0.0
H566 H 0.7536 0.1405 0.67534 0.0
Co567 Co 0.77759 0.18293 0.64138 0.0
C568 C 0.77897 0.20748 0.52947 0.0
O569 O 0.76592 0.2118 0.55021 0.0
N570 N 0.78435 0.2053 0.68797 0.0
C571 C 0.78265 0.22756 0.74536 0.0
C572 C 0.78032 0.22022 0.68822 0.0
C573 C 0.78932 0.20418 0.74491 0.0
N574 N 0.78819 0.21728 0.78106 0.0
O575 O 0.80461 0.18828 0.64818 0.0
H576 H 0.77417 0.22426 0.65159 0.0
H577 H 0.79198 0.19268 0.76099 0.0
O578 O 0.7846 0.19751 0.56178 0.0
C579 C 0.80869 0.17785 0.68283 0.0
O580 O 0.79447 0.16346 0.71372 0.0
N581 N 0.75078 0.17686 0.63546 0.0
C582 C 0.71007 0.16209 0.62745 0.0
C583 C 0.72076 0.1624 0.57784 0.0
C584 C 0.74097 0.1695 0.58313 0.0
C585 C 0.74048 0.17673 0.68441 0.0
C586 C 0.72002 0.16949 0.68132 0.0
H587 H 0.74859 0.16804 0.54569 0.0
H588 H 0.74784 0.18148 0.72659 0.0
H589 H 0.78494 0.16608 0.51982 0.0
H590 H 0.74799 0.11165 0.60498 0.0
H591 H 0.77951 0.23889 0.76014 0.0
H592 H 0.71332 0.15617 0.53609 0.0
H593 H 0.71194 0.16891 0.7209 0.0
C594 C 0.37334 0.12544 0.12426 0.0
C595 C 0.35642 0.11249 0.09389 0.0
N596 N 0.35275 0.12281 0.05272 0.0
N597 N 0.38018 0.14394 0.10319 0.0
C598 C 0.36755 0.14184 0.05918 0.0
H599 H 0.37925 0.12194 0.16292 0.0
Co600 Co 0.39807 0.1661 0.14598 0.0
C601 C 0.41957 0.19514 0.04151 0.0
O602 O 0.437 0.19848 0.05947 0.0
N603 N 0.41537 0.18746 0.19718 0.0
C604 C 0.44118 0.20797 0.25407 0.0
C605 C 0.43527 0.19975 0.19818 0.0
C606 C 0.40976 0.1886 0.25345 0.0
N607 N 0.42506 0.20083 0.28902 0.0
O608 O 0.37718 0.17115 0.16224 0.0
H609 H 0.44528 0.2011 0.16335 0.0
H610 H 0.39492 0.17937 0.27009 0.0
O611 O 0.40428 0.18318 0.07229 0.0
C612 C 0.36368 0.15993 0.19851 0.0
O613 O 0.3657 0.14672 0.22929 0.0
N614 N 0.4178 0.15988 0.12958 0.0
C615 C 0.43979 0.14156 0.10856 0.0
C616 C 0.43213 0.14718 0.06126 0.0
C617 C 0.4208 0.15595 0.07276 0.0
C618 C 0.42558 0.15487 0.17622 0.0
C619 C 0.43679 0.14572 0.16663 0.0
H620 H 0.41329 0.15826 0.03602 0.0
H621 H 0.42213 0.15691 0.22107 0.0
H622 H 0.36827 0.15417 0.0356 0.0
H623 H 0.34674 0.09694 0.10431 0.0
H624 H 0.45631 0.21756 0.26886 0.0
H625 H 0.4338 0.14361 0.01607 0.0
H626 H 0.44225 0.14109 0.20402 0.0
C627 C 0.86943 0.24675 0.0868 0.0
C628 C 0.88217 0.24179 0.06069 0.0
N629 N 0.87209 0.22218 0.0503 0.0
N630 N 0.85098 0.23059 0.08961 0.0
C631 C 0.85323 0.21576 0.06725 0.0
H632 H 0.87378 0.26103 0.10624 0.0
Co633 Co 0.8294 0.22872 0.13326 0.0
C634 C 0.80086 0.22511 0.0365 0.0
O635 O 0.79612 0.23634 0.06736 0.0
N636 N 0.80889 0.22646 0.18433 0.0
C637 C 0.78066 0.2148 0.23499 0.0
C638 C 0.78891 0.21683 0.1796 0.0
C639 C 0.81214 0.22925 0.24383 0.0
N640 N 0.79525 0.22196 0.27608 0.0
O641 O 0.82213 0.2023 0.15392 0.0
H642 H 0.78054 0.20957 0.1402 0.0
H643 H 0.82667 0.23529 0.2637 0.0
O644 O 0.81204 0.21917 0.06025 0.0
C645 C 0.82899 0.19879 0.20068 0.0
O646 O 0.8393 0.21319 0.23833 0.0
N647 N 0.83719 0.25516 0.11137 0.0
C648 C 0.8553 0.29449 0.07471 0.0
C649 C 0.85092 0.27959 0.03389 0.0
C650 C 0.84175 0.26011 0.05284 0.0
C651 C 0.8412 0.26961 0.15208 0.0
C652 C 0.85015 0.28953 0.13443 0.0
H653 H 0.83974 0.24912 0.02033 0.0
H654 H 0.83839 0.26594 0.19851 0.0
H655 H 0.84176 0.20026 0.06791 0.0
H656 H 0.89807 0.25132 0.05616 0.0
H657 H 0.76494 0.2067 0.24477 0.0
H658 H 0.85515 0.28304 0.98778 0.0
H659 H 0.85384 0.301 0.16719 0.0
C660 C 0.74215 0.60543 0.02791 0.0
C661 C 0.74439 0.62017 0.9894 0.0
N662 N 0.76348 0.63031 0.9727 0.0
N663 N 0.75983 0.6063 0.03553 0.0
C664 C 0.77236 0.62147 0.99998 0.0
H665 H 0.72854 0.59542 0.05049 0.0
Co666 Co 0.76767 0.5928 0.08998 0.0
C667 C 0.77792 0.57827 0.99732 0.0
O668 O 0.76245 0.56214 0.01764 0.0
N669 N 0.77557 0.57999 0.14664 0.0
C670 C 0.77094 0.55627 0.21101 0.0
C671 C 0.76681 0.56017 0.15472 0.0
C672 C 0.78523 0.58775 0.19879 0.0
N673 N 0.78249 0.57364 0.23888 0.0
O674 O 0.78793 0.61848 0.122 0.0
H675 H 0.75646 0.54915 0.12415 0.0
H676 H 0.79281 0.60338 0.20954 0.0
O677 O 0.78595 0.59376 0.03033 0.0
C678 C 0.78868 0.6349 0.13248 0.0
O679 O 0.77267 0.63624 0.12661 0.0
N680 N 0.74749 0.58869 0.14102 0.0
C681 C 0.70888 0.57266 0.18063 0.0
C682 C 0.71365 0.56268 0.1388 0.0
C683 C 0.73298 0.57089 0.11998 0.0
C684 C 0.74379 0.59789 0.1864 0.0
C685 C 0.72419 0.59007 0.20685 0.0
H686 H 0.73626 0.56368 0.08468 0.0
H687 H 0.75557 0.61128 0.20577 0.0
H688 H 0.78795 0.62655 0.99564 0.0
H689 H 0.73315 0.62372 0.97662 0.0
H690 H 0.76513 0.54175 0.231 0.0
H691 H 0.70226 0.54912 0.11822 0.0
H692 H 0.72091 0.59781 0.24061 0.0
C693 C 0.47116 0.02678 0.06742 0.0
C694 C 0.46005 0.01293 0.10916 0.0
N695 N 0.4714 0.01615 0.15749 0.0
N696 N 0.49001 0.03814 0.08705 0.0
C697 C 0.48956 0.03154 0.14306 0.0
H698 H 0.4655 0.02879 0.02583 0.0
Co699 Co 0.50985 0.05946 0.04236 0.0
C700 C 0.54112 0.08085 0.13929 0.0
O701 O 0.55606 0.08453 0.10454 0.0
N702 N 0.52927 0.08076 0.99261 0.0
C703 C 0.54031 0.1077 0.9349 0.0
C704 C 0.53442 0.10011 0.99173 0.0
C705 C 0.53347 0.07756 0.93634 0.0
N706 N 0.53938 0.0933 0.89974 0.0
O707 O 0.497 0.04602 0.96963 0.0
H708 H 0.53154 0.1075 0.02753 0.0
H709 H 0.52988 0.06319 0.91947 0.0
O710 O 0.52356 0.07239 0.1177 0.0
C711 C 0.49349 0.0295 0.9474 0.0
O712 O 0.48768 0.02587 0.89182 0.0
N713 N 0.49445 0.0721 0.04757 0.0
C714 C 0.47494 0.09343 0.06078 0.0
C715 C 0.47985 0.08609 0.11034 0.0
C716 C 0.48936 0.07525 0.10279 0.0
C717 C 0.48867 0.07826 0.99859 0.0
C718 C 0.47895 0.0891 1.0042 0.0
H719 H 0.49275 0.06958 0.14202 0.0
H720 H 0.49213 0.07544 0.95501 0.0
H721 H 0.50199 0.03838 0.17348 0.0
H722 H 0.44438 0.00208 0.10578 0.0
H723 H 0.54336 0.12213 0.91955 0.0
H724 H 0.4765 0.08887 0.15461 0.0
H725 H 0.475 0.09442 0.965 0.0
C726 C 0.92301 0.40097 0.1743 0.0
C727 C 0.93627 0.39871 0.20927 0.0
N728 N 0.95005 0.41679 0.2284 0.0
N729 N 0.92867 0.42046 0.17053 0.0
C730 C 0.94501 0.42958 0.20532 0.0
H731 H 0.91029 0.38906 0.15239 0.0
Co732 Co 0.91803 0.43283 0.12279 0.0
C733 C 0.90657 0.4414 0.22523 0.0
O734 O 0.89044 0.42537 0.20718 0.0
N735 N 0.90796 0.44499 0.07245 0.0
C736 C 0.88678 0.44961 0.01759 0.0
C737 C 0.89069 0.44505 0.0737 0.0
C738 C 0.91428 0.44975 0.01564 0.0
N739 N 0.90161 0.45229 0.98136 0.0
O740 O 0.94442 0.45217 0.09362 0.0
H741 H 0.88072 0.44035 0.11113 0.0
H742 H 0.92702 0.44949 0.99796 0.0
O743 O 0.92125 0.44994 0.18939 0.0
C744 C 0.96106 0.45351 0.08229 0.0
O745 O 0.96353 0.43824 0.0896 0.0
N746 N 0.91219 0.41429 0.06389 0.0
C747 C 0.89641 0.37644 0.02059 0.0
C748 C 0.88441 0.38183 0.05158 0.0
C749 C 0.89264 0.40098 0.0726 0.0
C750 C 0.92317 0.41037 0.0253 0.0
C751 C 0.91531 0.39123 1.00203 0.0
H752 H 0.88409 0.40455 0.10243 0.0
H753 H 0.93821 0.42122 0.01566 0.0
H754 H 0.95352 0.44541 0.21219 0.0
H755 H 0.93605 0.38501 0.21905 0.0
H756 H 0.87354 0.44973 1.0037 0.0
H757 H 0.86954 0.37085 0.0653 0.0
H758 H 0.92461 0.3875 0.97606 0.0
C759 C 0.57475 0.53517 0.10766 0.0
C760 C 0.57138 0.54746 0.1425 0.0
N761 N 0.55633 0.53617 0.17945 0.0
N762 N 0.56181 0.51613 0.122 0.0
C763 C 0.55058 0.51714 0.16573 0.0
H764 H 0.58547 0.53974 0.0722 0.0
Co765 Co 0.56096 0.496 0.07629 0.0
C766 C 0.55417 0.46534 0.17269 0.0
O767 O 0.56895 0.46365 0.15217 0.0
N768 N 0.56048 0.47688 0.02163 0.0
C769 C 0.57039 0.46103 0.96051 0.0
C770 C 0.57165 0.46816 0.01742 0.0
C771 C 0.55262 0.47467 0.96604 0.0
N772 N 0.55849 0.46526 0.92787 0.0
O773 O 0.53445 0.48817 0.05395 0.0
H774 H 0.58182 0.46873 0.05098 0.0
H775 H 0.54394 0.48122 0.95195 0.0
O776 O 0.54982 0.47711 0.14524 0.0
C777 C 0.53045 0.49944 0.02364 0.0
O778 O 0.54531 0.51648 1.00526 0.0
N779 N 0.58735 0.50463 0.10085 0.0
C780 C 0.62659 0.52652 0.13987 0.0
C781 C 0.61107 0.5185 0.18047 0.0
C782 C 0.59164 0.50769 0.1602 0.0
C783 C 0.60236 0.51225 0.06042 0.0
C784 C 0.62221 0.52308 0.07912 0.0
H785 H 0.58002 0.50328 0.19257 0.0
H786 H 0.59894 0.51087 1.01357 0.0
H787 H 0.538 0.50434 0.18514 0.0
H788 H 0.5789 0.56349 0.13953 0.0
H789 H 0.5785 0.45423 0.94349 0.0
H790 H 0.61394 0.52134 0.22749 0.0
H791 H 0.63397 0.52948 0.04655 0.0
C792 C 0.60599 0.86514 0.93231 0.0
C793 C 0.62147 0.87841 0.9673 0.0
N794 N 0.62699 0.86802 1.00203 0.0
N795 N 0.60185 0.8465 0.945 0.0
C796 C 0.61484 0.84878 0.98824 0.0
H797 H 0.59899 0.86891 0.8972 0.0
Co798 Co 0.58476 0.82454 0.89884 0.0
C799 C 0.5631 0.79425 0.99963 0.0
O800 O 0.54571 0.79012 0.97887 0.0
N801 N 0.5681 0.80339 0.84593 0.0
C802 C 0.54293 0.78402 0.78538 0.0
C803 C 0.54812 0.79203 0.84168 0.0
C804 C 0.57451 0.80175 0.79133 0.0
N805 N 0.5596 0.79032 0.75345 0.0
O806 O 0.60614 0.82028 0.88067 0.0
H807 H 0.53775 0.79132 0.87441 0.0
H808 H 0.58977 0.81005 0.77758 0.0
O809 O 0.57857 0.80696 0.97095 0.0
C810 C 0.6205 0.83333 0.85003 0.0
O811 O 0.62002 0.84906 0.8315 0.0
N812 N 0.56451 0.82992 0.9151 0.0
C813 C 0.54358 0.84938 0.93421 0.0
C814 C 0.54946 0.84218 0.98215 0.0
C815 C 0.56033 0.83284 0.9717 0.0
C816 C 0.55811 0.83615 0.86784 0.0
C817 C 0.54749 0.84591 0.87643 0.0
H818 H 0.56692 0.8297 1.00927 0.0
H819 H 0.56256 0.83488 0.8235 0.0
H820 H 0.61629 0.83689 1.00673 0.0
H821 H 0.62891 0.89445 0.96489 0.0
H822 H 0.528 0.77523 0.76808 0.0
H823 H 0.54706 0.8452 0.02725 0.0
H824 H 0.54339 0.85171 0.8387 0.0
C825 C 0.12141 0.74244 0.93324 0.0
C826 C 0.10841 0.74512 0.96766 0.0
N827 N 0.11766 0.76424 0.9847 0.0
N828 N 0.13907 0.75958 0.93114 0.0
C829 C 0.13621 0.77253 0.96298 0.0
H830 H 0.11792 0.72905 0.90943 0.0
Co831 Co 0.16121 0.76601 0.88395 0.0
C832 C 0.19104 0.77168 0.98095 0.0
O833 O 0.19825 0.76256 0.94989 0.0
N834 N 0.18243 0.77294 0.83111 0.0
C835 C 0.21011 0.78669 0.77702 0.0
C836 C 0.20247 0.78307 0.83395 0.0
C837 C 0.17845 0.7714 0.77217 0.0
N838 N 0.19487 0.77943 0.73821 0.0
O839 O 0.16495 0.79183 0.87252 0.0
H840 H 0.21112 0.78897 0.87387 0.0
H841 H 0.16361 0.76509 0.75421 0.0
O842 O 0.17808 0.77517 0.95736 0.0
C843 C 0.15473 0.79408 0.83251 0.0
O844 O 0.14253 0.77884 0.7997 0.0
N845 N 0.15702 0.74006 0.89418 0.0
C846 C 0.14721 0.70076 0.90906 0.0
C847 C 0.14895 0.71232 0.95809 0.0
C848 C 0.15375 0.73191 0.9497 0.0
C849 C 0.15495 0.7287 0.84579 0.0
C850 C 0.1503 0.70901 0.85231 0.0
H851 H 0.15395 0.74025 0.98803 0.0
H852 H 0.15607 0.73444 0.80169 0.0
H853 H 0.14724 0.78806 0.96827 0.0
H854 H 0.09303 0.73426 0.97644 0.0
H855 H 0.22564 0.79514 0.76506 0.0
H856 H 0.14596 0.70606 1.00234 0.0
H857 H 0.14834 0.70007 0.81346 0.0
C858 C 0.24147 0.3909 0.93437 0.0
C859 C 0.23817 0.37709 0.97698 0.0
N860 N 0.22386 0.37554 1.01326 0.0
N861 N 0.22885 0.3979 0.94145 0.0
C862 C 0.21865 0.38846 0.99129 0.0
H863 H 0.2517 0.39426 0.89837 0.0
Co864 Co 0.222 0.41121 0.8817 0.0
C865 C 0.21412 0.42713 0.97746 0.0
O866 O 0.2334 0.4379 0.97001 0.0
N867 N 0.2149 0.42296 0.81938 0.0
C868 C 0.2152 0.44492 0.755 0.0
C869 C 0.21741 0.44132 0.81411 0.0
C870 C 0.21112 0.4158 0.76304 0.0
N871 N 0.21128 0.42878 0.72286 0.0
O872 O 0.20029 0.38507 0.85813 0.0
H873 H 0.22206 0.45195 0.84989 0.0
H874 H 0.21015 0.40199 0.75052 0.0
O875 O 0.20434 0.4136 0.9386 0.0
C876 C 0.1979 0.36811 0.84455 0.0
O877 O 0.21337 0.366 0.83656 0.0
N878 N 0.24181 0.41281 0.8321 0.0
C879 C 0.28105 0.42694 0.80159 0.0
C880 C 0.27607 0.43738 0.84096 0.0
C881 C 0.25647 0.43024 0.85476 0.0
C882 C 0.24586 0.40347 0.78774 0.0
C883 C 0.26579 0.41028 0.77213 0.0
H884 H 0.25299 0.43818 0.88685 0.0
H885 H 0.23412 0.39067 0.7656 0.0
H886 H 0.20676 0.38998 1.00941 0.0
H887 H 0.24539 0.36836 0.98007 0.0
H888 H 0.21745 0.45874 0.73664 0.0
H889 H 0.28739 0.45057 0.8633 0.0
H890 H 0.26926 0.40234 0.73959 0.0
C891 C 0.51587 0.96853 0.96187 0.0
C892 C 0.52692 0.98324 0.92227 0.0
N893 N 0.5159 0.98042 0.8734 0.0
N894 N 0.49729 0.95696 0.94057 0.0
C895 C 0.49791 0.96431 0.88548 0.0
H896 H 0.52133 0.96622 1.00342 0.0
Co897 Co 0.47754 0.93502 0.9836 0.0
C898 C 0.45359 0.90592 0.87923 0.0
O899 O 0.44574 0.88899 0.90781 0.0
N900 N 0.45819 0.91308 0.03167 0.0
C901 C 0.44679 0.88623 0.09037 0.0
C902 C 0.45411 0.89402 0.03481 0.0
C903 C 0.45269 0.91608 0.08625 0.0
N904 N 0.4464 0.9004 0.12305 0.0
O905 O 0.48929 0.94838 0.05759 0.0
H906 H 0.4591 0.88714 1.00316 0.0
H907 H 0.45551 0.93031 0.10222 0.0
O908 O 0.46461 0.92231 0.90656 0.0
C909 C 0.49215 0.96463 0.08006 0.0
O910 O 0.4972 0.96802 0.13626 0.0
N911 N 0.49381 0.92348 0.98062 0.0
C912 C 0.51313 0.90197 0.97233 0.0
C913 C 0.50903 0.90939 0.92134 0.0
C914 C 0.49954 0.92033 0.92647 0.0
C915 C 0.49943 0.91785 0.03107 0.0
C916 C 0.5089 0.90675 0.02791 0.0
H917 H 0.49643 0.92587 0.88639 0.0
H918 H 0.49571 0.92105 0.07394 0.0
H919 H 0.48573 0.9576 0.85416 0.0
H920 H 0.54238 0.99453 0.92752 0.0
H921 H 0.44425 0.87215 0.10749 0.0
H922 H 0.51265 0.90629 0.87786 0.0
H923 H 0.51228 0.90141 0.06813 0.0
C924 C 0.05268 0.57812 0.94012 0.0
C925 C 0.03898 0.57924 0.90439 0.0
N926 N 0.0316 0.56377 0.86704 0.0
N927 N 0.05398 0.56206 0.92504 0.0
C928 C 0.04085 0.55359 0.88018 0.0
H929 H 0.06018 0.58772 0.9773 0.0
Co930 Co 0.06773 0.5523 0.9682 0.0
C931 C 0.08399 0.53842 0.86276 0.0
O932 O 0.10032 0.54145 0.88915 0.0
N933 N 0.08123 0.54304 0.01711 0.0
C934 C 0.10518 0.54584 0.0778 0.0
C935 C 0.10088 0.54968 0.02153 0.0
C936 C 0.07402 0.53496 0.07126 0.0
N937 N 0.08826 0.53678 0.1094 0.0
O938 O 0.04352 0.52762 0.97985 0.0
H939 H 0.11183 0.55892 0.98907 0.0
H940 H 0.05894 0.52968 0.0848 0.0
O941 O 0.07184 0.54179 0.89149 0.0
C942 C 0.02989 0.52762 1.0109 0.0
O943 O 0.03234 0.54455 0.03048 0.0
N944 N 0.09101 0.57702 0.96032 0.0
C945 C 0.11663 0.61752 0.95179 0.0
C946 C 0.11554 0.60505 0.90593 0.0
C947 C 0.10251 0.5847 0.91098 0.0
C948 C 0.09389 0.58877 1.00824 0.0
C949 C 0.10652 0.60926 1.00469 0.0
H950 H 0.10103 0.57574 0.87346 0.0
H951 H 0.08477 0.58243 0.04718 0.0
H952 H 0.03747 0.53977 0.85927 0.0
H953 H 0.03393 0.58983 0.9078 0.0
H954 H 0.11984 0.55065 0.09552 0.0
H955 H 0.12332 0.61114 0.86462 0.0
H956 H 0.10712 0.61864 0.04085 0.0
C957 C 0.4126 0.45952 0.90681 0.0
C958 C 0.41805 0.44864 0.87228 0.0
N959 N 0.4353 0.46138 0.8461 0.0
N960 N 0.42621 0.47899 0.90113 0.0
C961 C 0.4401 0.47966 0.86442 0.0
H962 H 0.39965 0.45368 0.93494 0.0
Co963 Co 0.42565 0.49859 0.94512 0.0
C964 C 0.43277 0.5283 0.84639 0.0
O965 O 0.41672 0.52854 0.8624 0.0
N966 N 0.42525 0.51726 0.99766 0.0
C967 C 0.4309 0.54328 0.05308 0.0
C968 C 0.42899 0.53615 0.99577 0.0
C969 C 0.42519 0.51348 0.05658 0.0
N970 N 0.42877 0.52903 0.0914 0.0
O971 O 0.45145 0.50643 0.97345 0.0
H972 H 0.4319 0.54497 0.95624 0.0
H973 H 0.42384 0.49987 0.0736 0.0
O974 O 0.43795 0.51778 0.87736 0.0
C975 C 0.45479 0.49522 1.00633 0.0
O976 O 0.43957 0.47812 0.02265 0.0
N977 N 0.39978 0.49006 0.91468 0.0
C978 C 0.36157 0.46953 0.86671 0.0
C979 C 0.37806 0.47614 0.83036 0.0
C980 C 0.39691 0.48622 0.85501 0.0
C981 C 0.3838 0.48401 0.951 0.0
C982 C 0.36443 0.47373 0.9277 0.0
H983 H 0.40922 0.48984 0.8259 0.0
H984 H 0.38597 0.48624 0.99831 0.0
H985 H 0.45365 0.49305 0.85277 0.0
H986 H 0.41018 0.43266 0.86715 0.0
H987 H 0.43498 0.55826 0.06546 0.0
H988 H 0.37636 0.47283 0.78337 0.0
H989 H 0.35182 0.4685 0.95709 0.0
C990 C 0.04189 0.4522 0.43443 0.0
C991 C 0.02702 0.43836 0.39903 0.0
N992 N 0.02105 0.44804 0.36269 0.0
N993 N 0.04543 0.47049 0.41971 0.0
C994 C 0.03262 0.4675 0.37527 0.0
H995 H 0.04897 0.44908 0.47087 0.0
Co996 Co 0.06182 0.493 0.46374 0.0
C997 C 0.08544 0.52195 0.3638 0.0
O998 O 0.10217 0.52904 0.39347 0.0
N999 N 0.07718 0.51458 0.5147 0.0
C1000 C 0.09129 0.5427 0.56683 0.0
C1001 C 0.08688 0.53457 0.51043 0.0
C1002 C 0.07537 0.51108 0.57396 0.0
N1003 N 0.08386 0.5278 0.60682 0.0
O1004 O 0.0403 0.49738 0.47636 0.0
H1005 H 0.0891 0.54282 0.46992 0.0
H1006 H 0.06684 0.49636 0.59284 0.0
O1007 O 0.06908 0.50929 0.38882 0.0
C1008 C 0.02773 0.48683 0.51577 0.0
O1009 O 0.02934 0.47273 0.54263 0.0
N1010 N 0.08266 0.48786 0.45273 0.0
C1011 C 0.10496 0.46964 0.43697 0.0
C1012 C 0.09755 0.47475 0.38806 0.0
C1013 C 0.08608 0.48347 0.39696 0.0
C1014 C 0.09061 0.4837 0.50087 0.0
C1015 C 0.10193 0.47457 0.49391 0.0
H1016 H 0.07847 0.48493 0.359 0.0
H1017 H 0.08692 0.48585 0.54507 0.0
H1018 H 0.03081 0.47916 0.35551 0.0
H1019 H 0.02004 0.42239 0.40277 0.0
H1020 H 0.09817 0.5583 0.57764 0.0
H1021 H 0.09925 0.47056 0.34368 0.0
H1022 H 0.10719 0.47029 0.53254 0.0
C1023 C 0.51698 0.57815 0.418 0.0
C1024 C 0.53062 0.58001 0.37691 0.0
N1025 N 0.52121 0.56776 0.33066 0.0
N1026 N 0.49876 0.56445 0.39957 0.0
C1027 C 0.50184 0.5579 0.34759 0.0
H1028 H 0.5205 0.58492 0.46129 0.0
Co1029 Co 0.47625 0.55363 0.4471 0.0
C1030 C 0.44325 0.53947 0.34678 0.0
O1031 O 0.42897 0.53933 0.37778 0.0
N1032 N 0.45478 0.54287 0.50014 0.0
C1033 C 0.42927 0.52188 0.55658 0.0
C1034 C 0.43675 0.52621 0.49937 0.0
C1035 C 0.45797 0.54811 0.55817 0.0
N1036 N 0.44277 0.5357 0.59337 0.0
O1037 O 0.47657 0.52937 0.44985 0.0
H1038 H 0.4303 0.51671 0.46123 0.0
H1039 H 0.47193 0.55984 0.57531 0.0
O1040 O 0.45987 0.54439 0.37223 0.0
C1041 C 0.48835 0.52885 0.4881 0.0
O1042 O 0.49858 0.54426 0.52274 0.0
N1043 N 0.47716 0.57833 0.44761 0.0
C1044 C 0.48954 0.61857 0.44385 0.0
C1045 C 0.47461 0.60531 0.40564 0.0
C1046 C 0.46844 0.5851 0.40864 0.0
C1047 C 0.49014 0.59087 0.48916 0.0
C1048 C 0.49671 0.61113 0.48775 0.0
H1049 H 0.45746 0.57544 0.37748 0.0
H1050 H 0.49669 0.58541 0.52079 0.0
H1051 H 0.49027 0.54478 0.32608 0.0
H1052 H 0.54639 0.58829 0.38505 0.0
H1053 H 0.41562 0.50891 0.57056 0.0
H1054 H 0.46863 0.61067 0.37159 0.0
H1055 H 0.50822 0.62104 0.51817 0.0
C1056 C 0.41736 0.9545 0.44332 0.0
C1057 C 0.42309 0.96987 0.4036 0.0
N1058 N 0.43425 0.96814 0.36131 0.0
N1059 N 0.42512 0.94324 0.42684 0.0
C1060 C 0.43495 0.95171 0.37597 0.0
H1061 H 0.40988 0.95299 0.48485 0.0
Co1062 Co 0.42919 0.92661 0.47784 0.0
C1063 C 0.44036 0.9048 0.37936 0.0
O1064 O 0.44002 0.89015 0.40919 0.0
N1065 N 0.43351 0.91073 0.53335 0.0
C1066 C 0.42898 0.88576 0.59261 0.0
C1067 C 0.42607 0.8909 0.53625 0.0
C1068 C 0.44085 0.91715 0.58875 0.0
N1069 N 0.43825 0.90235 0.6257 0.0
O1070 O 0.45581 0.94747 0.48643 0.0
H1071 H 0.41765 0.88052 0.50152 0.0
H1072 H 0.4467 0.93221 0.60365 0.0
O1073 O 0.43669 0.91698 0.40644 0.0
C1074 C 0.45828 0.96159 0.52031 0.0
O1075 O 0.44357 0.95927 0.55403 0.0
N1076 N 0.40241 0.90689 0.47105 0.0
C1077 C 0.36162 0.88374 0.45598 0.0
C1078 C 0.37442 0.87982 0.42339 0.0
C1079 C 0.39475 0.8912 0.43282 0.0
C1080 C 0.3901 0.90993 0.50651 0.0
C1081 C 0.36952 0.89839 0.5 0.0
H1082 H 0.40403 0.88747 0.40781 0.0
H1083 H 0.39633 0.92187 0.53848 0.0
H1084 H 0.44404 0.94711 0.35269 0.0
H1085 H 0.42029 0.98208 0.40745 0.0
H1086 H 0.4238 0.87088 0.60889 0.0
H1087 H 0.36876 0.86825 0.39007 0.0
H1088 H 0.35992 0.90146 0.52691 0.0
C1089 C 0.14224 0.35484 0.38117 0.0
C1090 C 0.13195 0.33954 0.41933 0.0
N1091 N 0.14159 0.34407 0.47155 0.0
N1092 N 0.15955 0.36851 0.40616 0.0
C1093 C 0.1584 0.3618 0.46245 0.0
H1094 H 0.13693 0.35593 0.33788 0.0
Co1095 Co 0.17756 0.39211 0.36565 0.0
C1096 C 0.20591 0.41622 0.46668 0.0
O1097 O 0.22187 0.42306 0.43365 0.0
N1098 N 0.19489 0.41573 0.31976 0.0
C1099 C 0.20011 0.44197 0.26515 0.0
C1100 C 0.19597 0.43358 0.32145 0.0
C1101 C 0.20011 0.41467 0.26265 0.0
N1102 N 0.20239 0.42979 0.22788 0.0
O1103 O 0.16763 0.37904 0.29018 0.0
H1104 H 0.19115 0.43881 0.35858 0.0
H1105 H 0.19962 0.40179 0.24356 0.0
O1106 O 0.18886 0.40511 0.44323 0.0
C1107 C 0.16875 0.36471 0.26698 0.0
O1108 O 0.16582 0.36181 0.20969 0.0
N1109 N 0.15819 0.39998 0.37142 0.0
C1110 C 0.13644 0.41872 0.3879 0.0
C1111 C 0.1413 0.41088 0.43623 0.0
C1112 C 0.15189 0.40125 0.42694 0.0
C1113 C 0.15144 0.40554 0.32338 0.0
C1114 C 0.14068 0.41524 0.33061 0.0
H1115 H 0.15579 0.3957 0.46541 0.0
H1116 H 0.1555 0.40381 0.27963 0.0
H1117 H 0.16906 0.37025 0.49677 0.0
H1118 H 0.11769 0.32649 0.41032 0.0
H1119 H 0.19973 0.45511 0.25173 0.0
H1120 H 0.13767 0.41293 0.48098 0.0
H1121 H 0.13665 0.42087 0.29231 0.0
C1122 C 0.60115 0.74724 0.42251 0.0
C1123 C 0.61621 0.74738 0.45441 0.0
N1124 N 0.6231 0.76247 0.49322 0.0
N1125 N 0.59853 0.76218 0.44115 0.0
C1126 C 0.61204 0.77115 0.48491 0.0
H1127 H 0.59344 0.7377 0.38528 0.0
Co1128 Co 0.58344 0.77021 0.39774 0.0
C1129 C 0.56084 0.77572 0.5001 0.0
O1130 O 0.54385 0.76642 0.47155 0.0
N1131 N 0.56965 0.77846 0.34701 0.0
C1132 C 0.55549 0.79222 0.29368 0.0
C1133 C 0.55928 0.78801 0.35055 0.0
C1134 C 0.57249 0.77774 0.28795 0.0
N1135 N 0.56389 0.78569 0.25448 0.0
O1136 O 0.60628 0.79598 0.38773 0.0
H1137 H 0.5555 0.79257 0.3912 0.0
H1138 H 0.58106 0.7716 0.26972 0.0
O1139 O 0.57682 0.77903 0.47378 0.0
C1140 C 0.62037 0.7974 0.35595 0.0
O1141 O 0.619 0.78114 0.33424 0.0
N1142 N 0.56101 0.74427 0.40573 0.0
C1143 C 0.53344 0.70382 0.41484 0.0
C1144 C 0.54313 0.71482 0.46523 0.0
C1145 C 0.55696 0.73499 0.45967 0.0
C1146 C 0.55131 0.73368 0.3563 0.0
C1147 C 0.53726 0.71345 0.36001 0.0
H1148 H 0.56533 0.74287 0.49852 0.0
H1149 H 0.55515 0.74039 0.31305 0.0
H1150 H 0.61466 0.78449 0.50729 0.0
H1151 H 0.62239 0.73785 0.4476 0.0
H1152 H 0.5476 0.79987 0.28211 0.0
H1153 H 0.54079 0.70767 0.50805 0.0
H1154 H 0.5303 0.70517 0.32001 0.0
C1155 C 0.22715 0.85847 0.39101 0.0
C1156 C 0.22542 0.87196 0.42537 0.0
N1157 N 0.21327 0.86217 0.47086 0.0
N1158 N 0.21621 0.84021 0.41474 0.0
C1159 C 0.20794 0.84294 0.46373 0.0
H1160 H 0.23486 0.86163 0.3492 0.0
Co1161 Co 0.21073 0.81732 0.37441 0.0
C1162 C 0.19932 0.78743 0.4809 0.0
O1163 O 0.20043 0.77323 0.45333 0.0
N1164 N 0.20556 0.79521 0.32754 0.0
C1165 C 0.21264 0.77605 0.27151 0.0
C1166 C 0.21424 0.78395 0.32743 0.0
C1167 C 0.1988 0.79373 0.27115 0.0
N1168 N 0.20306 0.78242 0.23602 0.0
O1169 O 0.18406 0.81149 0.36406 0.0
H1170 H 0.22325 0.78339 0.363 0.0
H1171 H 0.19274 0.80247 0.25386 0.0
O1172 O 0.20272 0.80295 0.45179 0.0
C1173 C 0.1805 0.82123 0.32545 0.0
O1174 O 0.19506 0.83438 0.29236 0.0
N1175 N 0.23736 0.82391 0.38315 0.0
C1176 C 0.2782 0.84126 0.3956 0.0
C1177 C 0.26547 0.82795 0.43811 0.0
C1178 C 0.24511 0.81904 0.4303 0.0
C1179 C 0.2495 0.83561 0.33887 0.0
C1180 C 0.2701 0.84443 0.344 0.0
H1181 H 0.23598 0.80861 0.46329 0.0
H1182 H 0.24317 0.83878 0.30059 0.0
H1183 H 0.19729 0.83101 0.49155 0.0
H1184 H 0.23188 0.88767 0.41643 0.0
H1185 H 0.21929 0.76752 0.25693 0.0
H1186 H 0.27127 0.82476 0.47775 0.0
H1187 H 0.27961 0.85435 0.30963 0.0
C1188 C 0.34647 0.17933 0.21355 0.0
C1189 C 0.34528 0.16087 0.20308 0.0
C1190 C 0.30894 0.14408 0.20352 0.0
C1191 C 0.31015 0.1628 0.20932 0.0
N1192 N 0.33033 0.19873 0.21011 0.0
N1193 N 0.32552 0.12628 0.17575 0.0
C1194 C 0.32897 0.18056 0.21084 0.0
C1195 C 0.32656 0.14338 0.19505 0.0
N1196 N 0.36413 0.19552 0.2298 0.0
N1197 N 0.29099 0.12686 0.20562 0.0
H1198 H 0.33793 0.12498 0.16847 0.0
H1199 H 0.31245 0.11392 0.1612 0.0
H1200 H 0.27741 0.12632 0.2056 0.0
H1201 H 0.28958 0.11292 0.2107 0.0
H1202 H 0.3654 0.20868 0.2452 0.0
H1203 H 0.3773 0.19526 0.23369 0.0
H1204 H 0.34355 0.21187 0.20162 0.0
H1205 H 0.31827 0.20083 0.21472 0.0
C1206 C 0.80687 0.14316 0.22237 0.0
C1207 C 0.82433 0.14169 0.21956 0.0
C1208 C 0.84469 0.17775 0.21229 0.0
C1209 C 0.82726 0.17917 0.209 0.0
N1210 N 0.7915 0.16298 0.20372 0.0
N1211 N 0.8591 0.15725 0.1946 0.0
C1212 C 0.80826 0.16176 0.21113 0.0
C1213 C 0.84303 0.15888 0.20989 0.0
N1214 N 0.78922 0.12723 0.2399 0.0
N1215 N 0.86298 0.19432 0.21789 0.0
H1216 H 0.85842 0.14369 0.18893 0.0
H1217 H 0.87252 0.1693 0.18067 0.0
H1218 H 0.86557 0.20872 0.21502 0.0
H1219 H 0.87554 0.1936 0.22975 0.0
H1220 H 0.77663 0.12813 0.24912 0.0
H1221 H 0.78759 0.11363 0.25228 0.0
H1222 H 0.77747 0.15062 0.1972 0.0
H1223 H 0.79167 0.17639 0.20053 0.0
C1224 C 0.82358 0.6614 0.10576 0.0
C1225 C 0.80782 0.65312 0.14751 0.0
C1226 C 0.82544 0.6835 0.20767 0.0
C1227 C 0.84187 0.69084 0.1684 0.0
N1228 N 0.85116 0.69157 0.06664 0.0
N1229 N 0.79527 0.65484 0.24327 0.0
C1230 C 0.83936 0.68117 0.11339 0.0
C1231 C 0.80912 0.66385 0.19971 0.0
N1232 N 0.82412 0.65027 0.06005 0.0
N1233 N 0.82435 0.69578 0.24852 0.0
H1234 H 0.78354 0.64027 0.2398 0.0
H1235 H 0.79658 0.66092 0.2852 0.0
H1236 H 0.83398 0.71106 0.24851 0.0
H1237 H 0.81212 0.69159 0.27572 0.0
H1238 H 0.83626 0.65517 0.03189 0.0
H1239 H 0.81379 0.63533 0.05454 0.0
H1240 H 0.84883 0.68599 0.02365 0.0
H1241 H 0.86143 0.70675 0.06923 0.0
C1242 C 0.1882 0.35606 0.33997 0.0
C1243 C 0.17117 0.35014 0.30357 0.0
C1244 C 0.15538 0.31728 0.34972 0.0
C1245 C 0.1732 0.32236 0.38 0.0
N1246 N 0.20814 0.34577 0.39472 0.0
N1247 N 0.13938 0.32351 0.26801 0.0
C1248 C 0.19003 0.34158 0.37304 0.0
C1249 C 0.15526 0.33013 0.30559 0.0
N1250 N 0.20269 0.37547 0.3436 0.0
N1251 N 0.13806 0.3011 0.36714 0.0
H1252 H 0.13702 0.33262 0.23943 0.0
H1253 H 0.12892 0.30848 0.26319 0.0
H1254 H 0.13739 0.29276 0.40391 0.0
H1255 H 0.12418 0.29771 0.35083 0.0
H1256 H 0.21377 0.38092 0.37594 0.0
H1257 H 0.20291 0.3863 0.31681 0.0
H1258 H 0.22129 0.35878 0.38462 0.0
H1259 H 0.21054 0.33551 0.41737 0.0
C1260 C 0.64811 0.83194 0.38379 0.0
C1261 C 0.6378 0.81698 0.34035 0.0
C1262 C 0.66425 0.83621 0.269 0.0
C1263 C 0.67345 0.85214 0.30993 0.0
N1264 N 0.67222 0.8663 0.40386 0.0
N1265 N 0.63327 0.80829 0.23645 0.0
C1266 C 0.66469 0.85041 0.3664 0.0
C1267 C 0.64506 0.82011 0.28144 0.0
N1268 N 0.6429 0.82828 0.44218 0.0
N1269 N 0.67374 0.83612 0.21842 0.0
H1270 H 0.61859 0.79708 0.2427 0.0
H1271 H 0.63719 0.81124 0.19192 0.0
H1272 H 0.68804 0.84717 0.20777 0.0
H1273 H 0.66826 0.82387 0.19035 0.0
H1274 H 0.65145 0.83776 0.47626 0.0
H1275 H 0.63119 0.81497 0.45764 0.0
H1276 H 0.66496 0.8666 0.44214 0.0
H1277 H 0.685 0.87972 0.39478 0.0
C1278 C 0.12639 0.79875 0.28018 0.0
C1279 C 0.12273 0.81447 0.29565 0.0
C1280 C 0.15716 0.83431 0.33018 0.0
C1281 C 0.16036 0.81835 0.3185 0.0
N1282 N 0.14642 0.78348 0.29711 0.0
N1283 N 0.13274 0.84235 0.36149 0.0
C1284 C 0.14438 0.79988 0.2991 0.0
C1285 C 0.1376 0.83093 0.328 0.0
N1286 N 0.11376 0.78339 0.24422 0.0
N1287 N 0.17256 0.85263 0.34506 0.0
H1288 H 0.11806 0.83806 0.36982 0.0
H1289 H 0.14283 0.85379 0.38879 0.0
H1290 H 0.18702 0.85562 0.35197 0.0
H1291 H 0.17099 0.86512 0.34766 0.0
H1292 H 0.11706 0.77292 0.22789 0.0
H1293 H 0.10128 0.78204 0.22347 0.0
H1294 H 0.13446 0.76917 0.29088 0.0
H1295 H 0.1596 0.78378 0.30695 0.0
C1296 C 0.65976 0.82939 0.76091 0.0
C1297 C 0.67315 0.83158 0.8069 0.0
C1298 C 0.64998 0.83068 0.88076 0.0
C1299 C 0.6377 0.83108 0.83489 0.0
N1300 N 0.63226 0.83335 0.73 0.0
N1301 N 0.6834 0.84015 0.90878 0.0
C1302 C 0.64307 0.83136 0.77451 0.0
C1303 C 0.66896 0.83393 0.8663 0.0
N1304 N 0.66232 0.82439 0.70498 0.0
N1305 N 0.64366 0.82696 0.93813 0.0
H1306 H 0.69785 0.84373 0.89932 0.0
H1307 H 0.68169 0.84414 0.95145 0.0
H1308 H 0.62958 0.82359 0.95103 0.0
H1309 H 0.65158 0.82485 0.97188 0.0
H1310 H 0.65174 0.82033 0.67148 0.0
H1311 H 0.67418 0.82255 0.69328 0.0
H1312 H 0.63697 0.83606 0.68608 0.0
H1313 H 0.6192 0.83357 0.73706 0.0
C1314 C 0.17292 0.83026 0.8066 0.0
C1315 C 0.15527 0.81321 0.82589 0.0
C1316 C 0.13855 0.83267 0.8319 0.0
C1317 C 0.15563 0.84918 0.80734 0.0
N1318 N 0.1875 0.86253 0.75977 0.0
N1319 N 0.1206 0.79741 0.85208 0.0
C1320 C 0.17244 0.8477 0.79171 0.0
C1321 C 0.13785 0.81417 0.8368 0.0
N1322 N 0.19021 0.82989 0.80263 0.0
N1323 N 0.12341 0.83487 0.85334 0.0
H1324 H 0.11976 0.78392 0.86125 0.0
H1325 H 0.10685 0.79658 0.85244 0.0
H1326 H 0.12316 0.84804 0.84991 0.0
H1327 H 0.11179 0.82416 0.8787 0.0
H1328 H 0.20398 0.84254 0.79554 0.0
H1329 H 0.19111 0.81723 0.81095 0.0
H1330 H 0.19908 0.86134 0.74136 0.0
H1331 H 0.18744 0.87529 0.74637 0.0
C1332 C 0.15388 0.31642 0.88131 0.0
C1333 C 0.13857 0.31665 0.84786 0.0
C1334 C 0.16146 0.35088 0.81769 0.0
C1335 C 0.17746 0.35027 0.84605 0.0
N1336 N 0.18857 0.33255 0.90937 0.0
N1337 N 0.12618 0.33815 0.81767 0.0
C1338 C 0.17358 0.33305 0.87927 0.0
C1339 C 0.14177 0.33508 0.82603 0.0
N1340 N 0.14893 0.30123 0.92036 0.0
N1341 N 0.16501 0.36594 0.77964 0.0
H1342 H 0.11195 0.32822 0.83288 0.0
H1343 H 0.128 0.35188 0.80564 0.0
H1344 H 0.17922 0.37718 0.76895 0.0
H1345 H 0.15396 0.3659 0.75336 0.0
H1346 H 0.15876 0.30033 0.9497 0.0
H1347 H 0.13417 0.2908 0.92903 0.0
H1348 H 0.18758 0.3196 0.9258 0.0
H1349 H 0.20224 0.34509 0.91812 0.0
C1350 C 0.83717 0.6583 0.71731 0.0
C1351 C 0.8342 0.65133 0.65781 0.0
C1352 C 0.83944 0.68334 0.62254 0.0
C1353 C 0.84142 0.69002 0.682 0.0
N1354 N 0.84177 0.68372 0.78692 0.0
N1355 N 0.8278 0.65579 0.55518 0.0
C1356 C 0.84047 0.67758 0.72961 0.0
C1357 C 0.83391 0.66337 0.61083 0.0
N1358 N 0.83659 0.64629 0.76254 0.0
N1359 N 0.84366 0.69637 0.57668 0.0
H1360 H 0.82308 0.64126 0.54344 0.0
H1361 H 0.82514 0.66332 0.52147 0.0
H1362 H 0.84761 0.7111 0.58267 0.0
H1363 H 0.84527 0.69321 0.53294 0.0
H1364 H 0.84204 0.65129 0.80499 0.0
H1365 H 0.83075 0.63109 0.75762 0.0
H1366 H 0.8374 0.6743 0.82347 0.0
H1367 H 0.84691 0.69833 0.79873 0.0
C1368 C 0.32089 0.14852 0.7462 0.0
C1369 C 0.3078 0.1387 0.69826 0.0
C1370 C 0.33165 0.16398 0.62991 0.0
C1371 C 0.34356 0.175 0.67906 0.0
N1372 N 0.34828 0.17881 0.78518 0.0
N1373 N 0.29966 0.1377 0.59471 0.0
C1374 C 0.33776 0.16761 0.73752 0.0
C1375 C 0.31293 0.14655 0.64005 0.0
N1376 N 0.31794 0.13906 0.79937 0.0
N1377 N 0.33826 0.17003 0.57354 0.0
H1378 H 0.2862 0.12449 0.59982 0.0
H1379 H 0.30131 0.14408 0.55299 0.0
H1380 H 0.35154 0.18292 0.5644 0.0
H1381 H 0.33137 0.1616 0.53598 0.0
H1382 H 0.32844 0.14431 0.83335 0.0
H1383 H 0.30594 0.12493 0.80721 0.0
H1384 H 0.34312 0.17533 0.82857 0.0
H1385 H 0.36167 0.19216 0.78149 0.0
C1386 C 0.84273 0.19584 0.72831 0.0
C1387 C 0.82913 0.1813 0.68832 0.0
C1388 C 0.85303 0.17046 0.66992 0.0
C1389 C 0.8641 0.18113 0.72024 0.0
N1390 N 0.87157 0.20687 0.79208 0.0
N1391 N 0.82135 0.15479 0.61931 0.0
C1392 C 0.85973 0.19491 0.74751 0.0
C1393 C 0.83431 0.16865 0.65839 0.0
N1394 N 0.83943 0.21054 0.74725 0.0
N1395 N 0.8613 0.16366 0.63025 0.0
H1396 H 0.80787 0.15365 0.60757 0.0
H1397 H 0.82361 0.14381 0.60116 0.0
H1398 H 0.87595 0.16699 0.63499 0.0
H1399 H 0.8547 0.15715 0.58992 0.0
H1400 H 0.84934 0.22254 0.77297 0.0
H1401 H 0.82747 0.21178 0.7322 0.0
H1402 H 0.86833 0.216 0.81731 0.0
H1403 H 0.88448 0.20721 0.80583 0.0
C1404 C -0.0029 0.48784 0.48958 0.0
C1405 C 0.01165 0.49066 0.5323 0.0
C1406 C -0.00487 0.50033 0.60645 0.0
C1407 C 0.98077 0.49776 0.56308 0.0
N1408 N 0.97062 0.49346 0.46007 0.0
N1409 N 0.0246 0.49871 0.63195 0.0
C1410 C 0.98252 0.49284 0.50371 0.0
C1411 C 0.01069 0.49666 0.59102 0.0
N1412 N -0.00359 0.47912 0.43654 0.0
N1413 N -0.00547 0.50748 0.66115 0.0
H1414 H 0.03693 0.49754 0.62139 0.0
H1415 H 0.02395 0.5011 0.67694 0.0
H1416 H 0.98375 0.51091 0.67277 0.0
H1417 H 0.00519 0.51133 0.69409 0.0
H1418 H 0.98462 0.47407 0.40673 0.0
H1419 H 0.00666 0.475 0.42481 0.0
H1420 H 0.97291 0.49251 0.41508 0.0
H1421 H 0.95952 0.49678 0.46768 0.0
C1422 C 0.47907 0.47643 0.51153 0.0
C1423 C 0.49886 0.48002 0.50988 0.0
C1424 C 0.51098 0.51484 0.48401 0.0
C1425 C 0.49156 0.51171 0.49201 0.0
N1426 N 0.45752 0.49025 0.52121 0.0
N1427 N 0.53404 0.50312 0.50085 0.0
C1428 C 0.47566 0.49266 0.50738 0.0
C1429 C 0.51495 0.4994 0.49831 0.0
N1430 N 0.46342 0.45751 0.51716 0.0
N1431 N 0.52541 0.53227 0.45983 0.0
H1432 H 0.53766 0.49211 0.50777 0.0
H1433 H 0.54639 0.51737 0.49995 0.0
H1434 H 0.52291 0.54369 0.44718 0.0
H1435 H 0.53923 0.53468 0.44673 0.0
H1436 H 0.44873 0.45372 0.51013 0.0
H1437 H 0.46502 0.44527 0.52597 0.0
H1438 H 0.44613 0.47742 0.54051 0.0
H1439 H 0.45428 0.50163 0.51792 0.0
C1440 C 0.49611 0.016 0.49427 0.0
C1441 C 0.51385 0.01642 0.51052 0.0
C1442 C 0.49505 0.98083 0.53467 0.0
C1443 C 0.47727 0.98064 0.51996 0.0
N1444 N 0.46041 -0.00113 0.49765 0.0
N1445 N 0.53093 -0.0011 0.53865 0.0
C1446 C 0.47764 -0.00155 0.50338 0.0
C1447 C 0.51355 -0.00127 0.52848 0.0
N1448 N 0.49702 0.03202 0.46615 0.0
N1449 N 0.49405 0.96421 0.55875 0.0
H1450 H 0.54479 0.01167 0.53814 0.0
H1451 H 0.53197 0.98622 0.54407 0.0
H1452 H 0.48076 0.95095 0.56505 0.0
H1453 H 0.50604 0.96377 0.5773 0.0
H1454 H 0.48484 0.03177 0.44618 0.0
H1455 H 0.51032 0.04498 0.45682 0.0
H1456 H 0.45994 0.01192 0.49322 0.0
H1457 H 0.44641 0.98652 0.50264 0.0
C1458 C 0.50994 -0.00012 0.04507 0.0
C1459 C 0.49243 0.98088 0.04404 0.0
C1460 C 0.47579 0.99434 0.98293 0.0
C1461 C 0.49336 0.01329 0.98327 0.0
N1462 N 0.52604 0.03486 0.02381 0.0
N1463 N 0.46018 0.95924 1.00076 0.0
C1464 C 0.51009 0.01628 0.017 0.0
C1465 C 0.47582 0.97788 1.00972 0.0
N1466 N 0.52715 0.0019 0.06814 0.0
N1467 N 0.45842 0.99237 0.96154 0.0
H1468 H 0.45901 0.94687 0.02121 0.0
H1469 H 0.44925 0.95578 0.96876 0.0
H1470 H 0.45719 0.00412 0.94436 0.0
H1471 H 0.44461 0.97964 0.9672 0.0
H1472 H 0.54101 0.01459 0.06336 0.0
H1473 H 0.52823 0.9902 0.08641 0.0
H1474 H 0.53702 0.03863 0.05579 0.0
H1475 H 0.52761 0.04694 1.0005 0.0
C1476 C 0.98536 0.4751 1.00415 0.0
C1477 C 0.97803 0.47275 0.06287 0.0
C1478 C 0.00585 0.5055 0.08874 0.0
C1479 C 0.01203 0.50872 0.02854 0.0
N1480 N 0.00452 0.49819 0.92651 0.0
N1481 N 0.97885 0.48769 0.15732 0.0
C1482 C 0.00095 0.49394 0.98549 0.0
C1483 C 0.98744 0.48859 0.1039 0.0
N1484 N 0.9775 0.45941 0.96592 0.0
N1485 N 0.01795 0.51792 0.13227 0.0
H1486 H 0.96539 0.47565 0.17058 0.0
H1487 H 0.98409 0.49977 0.18596 0.0
H1488 H 0.0319 0.53019 0.12429 0.0
H1489 H 0.01507 0.51484 0.17728 0.0
H1490 H 0.98387 0.45972 0.92516 0.0
H1491 H 0.96548 0.4456 0.97659 0.0
H1492 H -0.00452 0.4887 0.89314 0.0
H1493 H 0.0152 0.51206 0.91083 0.0
C1494 C 0.50604 0.50511 0.96819 0.0
C1495 C 0.50964 0.49518 1.01499 0.0
C1496 C 0.47862 0.48857 0.06224 0.0
C1497 C 0.47539 0.49899 0.01601 0.0
N1498 N 0.49101 0.52429 0.94 0.0
N1499 N 0.49486 0.47067 0.09343 0.0
C1500 C 0.49044 0.50929 0.97298 0.0
C1501 C 0.49472 0.48496 0.05858 0.0
N1502 N 0.51694 0.50958 0.91738 0.0
N1503 N 0.46702 0.48331 0.11179 0.0
H1504 H 0.5043 0.46511 0.0865 0.0
H1505 H 0.48352 0.46188 0.12283 0.0
H1506 H 0.45639 0.4875 0.11812 0.0
H1507 H 0.46974 0.4774 0.14971 0.0
H1508 H 0.51371 0.51511 0.87947 0.0
H1509 H 0.52741 0.5052 0.91062 0.0
H1510 H 0.50253 0.53294 0.91084 0.0
H1511 H 0.48228 0.53055 0.94897 0.0
C1512 C 0.18999 0.19064 0.32801 0.0
C1513 C 0.20942 0.19826 0.3055 0.0
C1514 C 0.21258 0.23078 0.29105 0.0
C1515 C 0.19387 0.22369 0.31852 0.0
N1516 N 0.16698 0.19824 0.37614 0.0
N1517 N 0.24117 0.22678 0.28091 0.0
C1518 C 0.18319 0.20399 0.34091 0.0
C1519 C 0.22134 0.21872 0.2917 0.0
N1520 N 0.17786 0.17065 0.33548 0.0
N1521 N 0.2216 0.24857 0.26182 0.0
H1522 H 0.2483 0.21853 0.2822 0.0
H1523 H 0.25087 0.24202 0.27682 0.0
H1524 H 0.21538 0.25761 0.25795 0.0
H1525 H 0.23432 0.2534 0.23625 0.0
H1526 H 0.16285 0.16414 0.34577 0.0
H1527 H 0.18234 0.1604 0.32624 0.0
H1528 H 0.15973 0.18461 0.39796 0.0
H1529 H 0.162 0.20787 0.38853 0.0
C1530 C 0.7586 0.98033 0.34048 0.0
C1531 C 0.76545 0.96883 0.37005 0.0
C1532 C 0.79841 -0.00194 0.3818 0.0
C1533 C 0.7918 0.00938 0.35 0.0
N1534 N 0.76425 0.01319 0.31888 0.0
N1535 N 0.7891 0.96749 0.43518 0.0
C1536 C 0.7714 0.00114 0.33593 0.0
C1537 C 0.78442 0.97814 0.39701 0.0
N1538 N 0.74051 0.97131 0.31298 0.0
N1539 N 0.81813 0.00589 0.39418 0.0
H1540 H 0.77885 0.95278 0.4461 0.0
H1541 H 0.80218 0.97368 0.45987 0.0
H1542 H 0.82889 0.02031 0.38256 0.0
H1543 H 0.82404 -0.00237 0.41196 0.0
H1544 H 0.736 0.97871 0.28396 0.0
H1545 H 0.73036 0.95618 0.31661 0.0
H1546 H 0.74917 0.00814 0.31353 0.0
H1547 H 0.77317 0.0286 0.31599 0.0
C1548 C 0.971 0.75628 0.33542 0.0
C1549 C 0.96583 0.74707 0.27862 0.0
C1550 C 0.00063 0.75698 0.26195 0.0
C1551 C 0.00598 0.76955 0.31219 0.0
N1552 N -0.00298 0.77974 0.40121 0.0
N1553 N 0.97512 0.73703 0.18952 0.0
C1554 C 0.99131 0.7683 0.3512 0.0
C1555 C 0.98043 0.74648 0.24302 0.0
N1556 N 0.95638 0.75402 0.37315 0.0
N1557 N 0.01505 0.75561 0.23191 0.0
H1558 H 0.96037 0.72879 0.17566 0.0
H1559 H 0.98522 0.73786 0.15806 0.0
H1560 H 0.02985 0.76314 0.24561 0.0
H1561 H 0.01223 0.74584 0.19703 0.0
H1562 H 0.95875 0.75876 0.41698 0.0
H1563 H 0.9415 0.74617 0.36135 0.0
H1564 H 0.9874 0.78164 0.42848 0.0
H1565 H 0.01184 0.78787 0.41468 0.0
C1566 C 0.79545 0.78557 0.78036 0.0
C1567 C 0.81513 0.79776 0.75971 0.0
C1568 C 0.80937 0.82545 0.74487 0.0
C1569 C 0.78915 0.81257 0.75932 0.0
N1570 N 0.76202 0.7799 0.78357 0.0
N1571 N 0.84092 0.82851 0.71853 0.0
C1572 C 0.78193 0.79251 0.77546 0.0
C1573 C 0.8222 0.81756 0.74115 0.0
N1574 N 0.78979 0.76744 0.8051 0.0
N1575 N 0.81626 0.84521 0.73576 0.0
H1576 H 0.85089 0.8233 0.71713 0.0
H1577 H 0.84624 0.84225 0.69812 0.0
H1578 H 0.80711 0.85137 0.73739 0.0
H1579 H 0.83122 0.85576 0.7308 0.0
H1580 H 0.77637 0.75891 0.82708 0.0
H1581 H 0.79911 0.7615 0.80813 0.0
H1582 H 0.75562 0.7646 0.78834 0.0
H1583 H 0.75153 0.78441 0.7809 0.0
C1584 C 0.17434 0.99455 0.67871 0.0
C1585 C 0.18139 0.98096 0.68004 0.0
C1586 C 0.21454 0.0074 0.65064 0.0
C1587 C 0.20777 0.02111 0.65383 0.0
N1588 N 0.18056 0.02706 0.64761 0.0
N1589 N 0.20575 0.97284 0.64611 0.0
C1590 C 0.18725 0.01423 0.65872 0.0
C1591 C 0.20071 0.98687 0.6586 0.0
N1592 N 0.15607 0.98927 0.70096 0.0
N1593 N 0.23432 0.01417 0.64403 0.0
H1594 H 0.19573 0.95765 0.65039 0.0
H1595 H 0.21907 0.97613 0.62614 0.0
H1596 H 0.24455 0.02909 0.63585 0.0
H1597 H 0.24059 0.0052 0.64888 0.0
H1598 H 0.1511 -0.00071 0.70667 0.0
H1599 H 0.14641 0.97524 0.71818 0.0
H1600 H 0.16556 0.02274 0.64633 0.0
H1601 H 0.19016 0.04165 0.63388 0.0
C1602 C 0.98906 0.19051 0.79751 0.0
C1603 C 0.97872 0.20026 0.77931 0.0
C1604 C 0.00967 0.23205 0.79443 0.0
C1605 C 0.01844 0.22195 0.82287 0.0
N1606 N 0.01237 0.19142 0.86926 0.0
N1607 N 0.97879 0.23136 0.77487 0.0
C1608 C 0.0067 0.20113 0.83055 0.0
C1609 C 0.98886 0.22139 0.7818 0.0
N1610 N 0.98219 0.17116 0.78283 0.0
N1611 N 0.02102 0.25132 0.77666 0.0
H1612 H 0.9635 0.22426 0.76854 0.0
H1613 H 0.98547 0.24663 0.78157 0.0
H1614 H 0.03636 0.25947 0.78186 0.0
H1615 H 0.01531 0.25849 0.75122 0.0
H1616 H 0.99006 0.16396 0.79272 0.0
H1617 H 0.96989 0.16322 0.75522 0.0
H1618 H 0.00349 0.1763 0.87829 0.0
H1619 H 0.0248 0.19897 0.89666 0.0
C1620 C 0.84116 0.49897 0.60604 0.0
C1621 C 0.86174 0.5104 0.59356 0.0
C1622 C 0.85875 0.53946 0.57463 0.0
C1623 C 0.8393 0.52916 0.59801 0.0
N1624 N 0.81173 0.49938 0.63811 0.0
N1625 N 0.89101 0.54261 0.57684 0.0
C1626 C 0.83026 0.50887 0.61374 0.0
C1627 C 0.87081 0.53092 0.58012 0.0
N1628 N 0.83215 0.47878 0.61011 0.0
N1629 N 0.8657 0.55747 0.54748 0.0
H1630 H 0.90076 0.53733 0.58358 0.0
H1631 H 0.89823 0.55803 0.57356 0.0
H1632 H 0.85709 0.56414 0.54191 0.0
H1633 H 0.87919 0.56471 0.52505 0.0
H1634 H 0.81686 0.46951 0.614 0.0
H1635 H 0.83986 0.47119 0.60429 0.0
H1636 H 0.80523 0.48518 0.65628 0.0
H1637 H 0.80331 0.50624 0.64343 0.0
C1638 C 0.49639 0.3405 0.61366 0.0
C1639 C 0.48645 0.35153 0.6145 0.0
C1640 C 0.45443 0.32089 0.62771 0.0
C1641 C 0.46443 0.30993 0.62927 0.0
N1642 N 0.49475 0.30892 0.63146 0.0
N1643 N 0.45663 0.35298 0.63063 0.0
C1644 C 0.4854 0.31965 0.62457 0.0
C1645 C 0.46564 0.34193 0.62407 0.0
N1646 N 0.51622 0.34996 0.60115 0.0
N1647 N 0.43411 0.3111 0.62769 0.0
H1648 H 0.46406 0.36835 0.6256 0.0
H1649 H 0.44209 0.34718 0.64508 0.0
H1650 H 0.42528 0.29577 0.63291 0.0
H1651 H 0.42586 0.31792 0.61872 0.0
H1652 H 0.52405 0.34264 0.5936 0.0
H1653 H 0.52475 0.36528 0.59489 0.0
H1654 H 0.51007 0.31523 0.63434 0.0
H1655 H 0.48705 0.2936 0.63836 0.0
C1656 C 0.6774 0.13059 0.63025 0.0
C1657 C 0.68815 0.15154 0.62353 0.0
C1658 C 0.65806 0.15122 0.58999 0.0
C1659 C 0.64725 0.13034 0.5981 0.0
N1660 N 0.64547 0.10023 0.63342 0.0
N1661 N 0.68894 0.18234 0.60541 0.0
C1662 C 0.65659 0.12005 0.62058 0.0
C1663 C 0.67851 0.16204 0.60602 0.0
N1664 N 0.68728 0.12072 0.6437 0.0
N1665 N 0.64883 0.16055 0.5657 0.0
H1666 H 0.70398 0.19059 0.61629 0.0
H1667 H 0.68255 0.19109 0.59832 0.0
H1668 H 0.63376 0.15309 0.55502 0.0
H1669 H 0.65618 0.17538 0.55285 0.0
H1670 H 0.68089 0.10537 0.64144 0.0
H1671 H 0.70237 0.12793 0.65415 0.0
H1672 H 0.65086 0.09239 0.65675 0.0
H1673 H 0.63034 0.09166 0.62402 0.0
C1674 C 0.46971 0.13847 0.08973 0.0
C1675 C 0.44888 0.12925 0.0969 0.0
C1676 C 0.44503 0.0965 0.07908 0.0
C1677 C 0.46576 0.10582 0.0692 0.0
N1678 N 0.49777 0.1354 0.05829 0.0
N1679 N 0.4162 0.10013 0.09257 0.0
C1680 C 0.4781 0.12676 0.07246 0.0
C1681 C 0.43638 0.10842 0.08992 0.0
N1682 N 0.48144 0.15834 0.10073 0.0
N1683 N 0.43375 0.07622 0.07954 0.0
H1684 H 0.40928 0.10817 0.10346 0.0
H1685 H 0.40616 0.08553 0.08076 0.0
H1686 H 0.43939 0.06703 0.06878 0.0
H1687 H 0.41907 0.06838 0.09363 0.0
H1688 H 0.49686 0.16571 0.10253 0.0
H1689 H 0.47569 0.16741 0.112 0.0
H1690 H 0.50721 0.15062 0.05367 0.0
H1691 H 0.50454 0.12724 0.04717 0.0
C1692 C 0.85895 0.3231 1.01405 0.0
C1693 C 0.86719 0.31527 0.05465 0.0
C1694 C 0.89803 0.34713 0.05885 0.0
C1695 C 0.88972 0.35504 0.01848 0.0
N1696 N 0.86531 0.3494 0.94428 0.0
N1697 N 0.89651 0.31764 0.09916 0.0
C1698 C 0.87123 0.34245 0.99103 0.0
C1699 C 0.88738 0.32657 0.07171 0.0
N1700 N 0.83922 0.3125 1.00001 0.0
N1701 N 0.91536 0.35925 0.08822 0.0
H1702 H 0.88924 0.30252 0.10909 0.0
H1703 H 0.91176 0.32484 0.10676 0.0
H1704 H 0.92437 0.37429 0.07928 0.0
H1705 H 0.9203 0.35452 0.12427 0.0
H1706 H 0.83203 0.31823 0.97492 0.0
H1707 H 0.82961 0.29853 0.01783 0.0
H1708 H 0.85263 0.34053 0.91925 0.0
H1709 H 0.8743 0.36368 0.92724 0.0
C1710 C 0.65673 0.56049 0.14776 0.0
C1711 C 0.64717 0.53992 0.16123 0.0
C1712 C 0.67666 0.54551 0.21627 0.0
C1713 C 0.68744 0.56471 0.19114 0.0
N1714 N 0.68799 0.59091 0.13272 0.0
N1715 N 0.64814 0.51242 0.20736 0.0
C1716 C 0.67746 0.57253 0.15794 0.0
C1717 C 0.65701 0.53234 0.19633 0.0
N1718 N 0.64595 0.56855 0.12601 0.0
N1719 N 0.68568 0.53982 0.25745 0.0
H1720 H 0.63396 0.50218 0.19211 0.0
H1721 H 0.65539 0.50581 0.22752 0.0
H1722 H 0.70019 0.54945 0.27184 0.0
H1723 H 0.67831 0.52656 0.28108 0.0
H1724 H 0.65179 0.58376 0.12066 0.0
H1725 H 0.63067 0.5602 0.11874 0.0
H1726 H 0.68201 0.5963 0.10145 0.0
H1727 H 0.70304 0.60046 0.14098 0.0
C1728 C 0.54922 0.88318 0.95631 0.0
C1729 C 0.53572 0.86276 0.94498 0.0
C1730 C 0.50749 0.86778 0.95911 0.0
C1731 C 0.521 0.88839 0.96655 0.0
N1732 N 0.55432 0.91638 0.96719 0.0
N1733 N 0.50242 0.83561 0.92985 0.0
C1734 C 0.54178 0.89628 0.96404 0.0
C1735 C 0.51494 0.85503 0.94486 0.0
N1736 N 0.56914 0.88993 0.9603 0.0
N1737 N 0.48759 0.86045 0.96663 0.0
H1738 H 0.50738 0.82571 0.92109 0.0
H1739 H 0.48728 0.8295 0.92241 0.0
H1740 H 0.48156 0.86942 0.97577 0.0
H1741 H 0.47707 0.84539 0.96782 0.0
H1742 H 0.57955 0.90401 0.97541 0.0
H1743 H 0.57534 0.88108 0.95164 0.0
H1744 H 0.56947 0.92338 0.95865 0.0
H1745 H 0.5494 0.92636 0.97513 0.0
C1746 C 0.11205 0.64524 0.91673 0.0
C1747 C 0.12488 0.63887 0.93981 0.0
C1748 C 0.15299 0.67287 0.93565 0.0
C1749 C 0.13979 0.67938 0.91729 0.0
N1750 N 0.10643 0.67263 0.89914 0.0
N1751 N 0.15684 0.64618 0.97685 0.0
C1752 C 0.11922 0.6658 0.91007 0.0
C1753 C 0.1452 0.65257 0.95082 0.0
N1754 N 0.0931 0.63159 0.89998 0.0
N1755 N 0.17295 0.68607 0.93744 0.0
H1756 H 0.15161 0.63129 0.98713 0.0
H1757 H 0.17124 0.65565 0.99176 0.0
H1758 H 0.17905 0.70109 0.92724 0.0
H1759 H 0.1836 0.68201 0.94488 0.0
H1760 H 0.08388 0.63522 0.87628 0.0
H1761 H 0.08697 0.61634 0.90552 0.0
H1762 H 0.09105 0.66367 0.90082 0.0
H1763 H 0.11107 0.6876 0.89291 0.0
C1764 C 0.33369 0.46558 0.80083 0.0
C1765 C 0.34151 0.45703 0.84046 0.0
C1766 C 0.31063 0.42497 0.83388 0.0
C1767 C 0.30252 0.43382 0.79678 0.0
N1768 N 0.3078 0.45992 0.72989 0.0
N1769 N 0.34006 0.42744 0.87908 0.0
C1770 C 0.3148 0.45323 0.77451 0.0
C1771 C 0.33083 0.4363 0.85187 0.0
N1772 N 0.34376 0.48562 0.79111 0.0
N1773 N 0.29868 0.40619 0.85506 0.0
H1774 H 0.35485 0.4353 0.89276 0.0
H1775 H 0.33363 0.41212 0.88325 0.0
H1776 H 0.28411 0.39716 0.84057 0.0
H1777 H 0.30293 0.39988 0.88857 0.0
H1778 H 0.33789 0.49296 0.76742 0.0
H1779 H 0.35745 0.49522 0.81063 0.0
H1780 H 0.31636 0.47343 0.7083 0.0
H1781 H 0.29382 0.45087 0.71097 0.0
C1782 C 0.09991 0.4358 0.42175 0.0
C1783 C 0.11319 0.45653 0.42806 0.0
C1784 C 0.14138 0.45257 0.40255 0.0
C1785 C 0.12821 0.43175 0.39855 0.0
N1786 N 0.09568 0.40298 0.41019 0.0
N1787 N 0.14633 0.4847 0.43185 0.0
C1788 C 0.10765 0.42319 0.40978 0.0
C1789 C 0.1339 0.46495 0.42059 0.0
N1790 N 0.07987 0.42831 0.42579 0.0
N1791 N 0.16098 0.46044 0.38832 0.0
H1792 H 0.1412 0.49422 0.44401 0.0
H1793 H 0.16172 0.49151 0.43315 0.0
H1794 H 0.16719 0.45179 0.37706 0.0
H1795 H 0.17097 0.47556 0.38408 0.0
H1796 H 0.06928 0.41386 0.4143 0.0
H1797 H 0.07362 0.43686 0.4379 0.0
H1798 H 0.08108 0.39565 0.42507 0.0
H1799 H 0.10066 0.3933 0.39857 0.0
C1800 C 0.49176 0.65179 0.45428 0.0
C1801 C 0.49978 0.64026 0.43274 0.0
C1802 C 0.52984 0.67035 0.40034 0.0
C1803 C 0.52139 0.68186 0.4187 0.0
N1804 N 0.49337 0.68372 0.45476 0.0
N1805 N 0.52439 0.63787 0.37458 0.0
C1806 C 0.50202 0.67261 0.4432 0.0
C1807 C 0.5182 0.64935 0.40241 0.0
N1808 N 0.47468 0.6429 0.4868 0.0
N1809 N 0.54932 0.6795 0.38351 0.0
H1810 H 0.51638 0.62239 0.37541 0.0
H1811 H 0.53656 0.64362 0.34627 0.0
H1812 H 0.55848 0.69488 0.38139 0.0
H1813 H 0.55694 0.67192 0.3765 0.0
H1814 H 0.46916 0.65072 0.50931 0.0
H1815 H 0.46663 0.62764 0.49453 0.0
H1816 H 0.47859 0.67767 0.46716 0.0
H1817 H 0.50058 0.69902 0.44751 0.0
C1818 C 0.31009 0.87335 0.41283 0.0
C1819 C 0.29984 0.85236 0.40745 0.0
C1820 C 0.32918 0.85196 0.44385 0.0
C1821 C 0.34014 0.873 0.44156 0.0
N1822 N 0.34196 0.90344 0.4085 0.0
N1823 N 0.30119 0.82211 0.4047 0.0
C1824 C 0.3309 0.88367 0.42156 0.0
C1825 C 0.30988 0.84177 0.41893 0.0
N1826 N 0.29997 0.88343 0.41247 0.0
N1827 N 0.33688 0.84173 0.47159 0.0
H1828 H 0.2873 0.81431 0.38433 0.0
H1829 H 0.30865 0.81419 0.40739 0.0
H1830 H 0.35069 0.84875 0.49265 0.0
H1831 H 0.3287 0.82647 0.47906 0.0
H1832 H 0.30672 0.89852 0.42214 0.0
H1833 H 0.28457 0.87646 0.40883 0.0
H1834 H 0.33594 0.9113 0.38848 0.0
H1835 H 0.3574 0.9115 0.41157 0.0
C1836 C 0.21851 0.10659 0.96623 0.0
C1837 C 0.23637 0.11853 0.93396 0.0
C1838 C 0.24915 0.13901 0.02464 0.0
C1839 C 0.23357 0.12381 0.05929 0.0
N1840 N 0.20552 0.0904 0.05989 0.0
N1841 N 0.26998 0.1469 0.93797 0.0
C1842 C 0.21881 0.10682 0.02914 0.0
C1843 C 0.25214 0.13501 0.96457 0.0
N1844 N 0.20096 0.09538 0.93701 0.0
N1845 N 0.2602 0.15771 0.04706 0.0
H1846 H 0.27284 0.14595 0.89364 0.0
H1847 H 0.2824 0.15731 0.9616 0.0
H1848 H 0.25692 0.16187 0.08736 0.0
H1849 H 0.27069 0.16964 0.02207 0.0
H1850 H 0.18747 0.08736 0.95921 0.0
H1851 H 0.19964 0.09641 0.89126 0.0
H1852 H 0.19534 0.07724 0.03881 0.0
H1853 H 0.20639 0.0891 0.10564 0.0
C1854 C 0.84668 0.10138 0.96713 0.0
C1855 C 0.86546 0.1105 0.9385 0.0
C1856 C 0.88129 0.11516 0.03739 0.0
C1857 C 0.86256 0.1041 0.06527 0.0
N1858 N 0.82729 0.08266 0.05262 0.0
N1859 N 0.90068 0.12215 0.94819 0.0
C1860 C 0.84517 0.09618 0.02901 0.0
C1861 C 0.88269 0.11584 0.97414 0.0
N1862 N 0.8302 0.09747 0.93527 0.0
N1863 N 0.8978 0.12626 0.07125 0.0
H1864 H 0.90302 0.12405 0.90283 0.0
H1865 H 0.91304 0.12407 0.9718 0.0
H1866 H 0.89723 0.12723 0.11718 0.0
H1867 H 0.91157 0.13635 0.05333 0.0
H1868 H 0.81643 0.09275 0.95466 0.0
H1869 H 0.83069 0.10039 0.88996 0.0
H1870 H 0.81436 0.07502 0.02754 0.0
H1871 H 0.82585 0.07738 0.09587 0.0
C1872 C 0.89891 0.76566 0.94005 0.0
C1873 C 0.87982 0.75948 0.91517 0.0
C1874 C 0.86619 0.75254 0.01704 0.0
C1875 C 0.88559 0.76202 0.04095 0.0
N1876 N 0.92074 0.77862 0.02594 0.0
N1877 N 0.84509 0.74877 0.93407 0.0
C1878 C 0.90204 0.76879 1.00257 0.0
C1879 C 0.86332 0.75313 0.95466 0.0
N1880 N 0.9139 0.76769 0.90421 0.0
N1881 N 0.85039 0.74254 0.05416 0.0
H1882 H 0.84155 0.74851 0.88974 0.0
H1883 H 0.83361 0.74686 0.96181 0.0
H1884 H 0.85206 0.74187 0.09986 0.0
H1885 H 0.83592 0.73329 0.03916 0.0
H1886 H 0.92759 0.77043 0.92021 0.0
H1887 H 0.91189 0.76441 0.85907 0.0
H1888 H 0.93352 0.78586 1.00021 0.0
H1889 H 0.92334 0.78075 0.07146 0.0
C1890 C 0.12045 0.22562 0.61742 0.0
C1891 C 0.1287 0.24327 0.65212 0.0
C1892 C 0.13759 0.263 0.56099 0.0
C1893 C 0.12698 0.24546 0.52647 0.0
N1894 N 0.10922 0.20998 0.5205 0.0
N1895 N 0.15451 0.27749 0.65378 0.0
C1896 C 0.11891 0.22669 0.55439 0.0
C1897 C 0.14023 0.26165 0.62303 0.0
N1898 N 0.11514 0.20803 0.64504 0.0
N1899 N 0.14414 0.28103 0.53515 0.0
H1900 H 0.15789 0.27623 0.69776 0.0
H1901 H 0.16446 0.29096 0.63391 0.0
H1902 H 0.14175 0.28244 0.49059 0.0
H1903 H 0.1502 0.29422 0.55899 0.0
H1904 H 0.11 0.19459 0.62316 0.0
H1905 H 0.11792 0.20739 0.69006 0.0
H1906 H 0.10124 0.19567 0.53765 0.0
H1907 H 0.10845 0.21059 0.47442 0.0
C1908 C 0.75801 0.85587 0.54376 0.0
C1909 C 0.75098 0.86516 0.58356 0.0
C1910 C 0.74667 0.88235 0.49773 0.0
C1911 C 0.75099 0.87088 0.45806 0.0
N1912 N 0.7561 0.84328 0.44446 0.0
N1913 N 0.73621 0.88561 0.5963 0.0
C1914 C 0.75523 0.8566 0.48156 0.0
C1915 C 0.74434 0.87771 0.55974 0.0
N1916 N 0.76807 0.84697 0.56446 0.0
N1917 N 0.74625 0.89857 0.47695 0.0
H1918 H 0.73519 0.8834 0.64207 0.0
H1919 H 0.72927 0.89316 0.58059 0.0
H1920 H 0.74965 0.90335 0.4332 0.0
H1921 H 0.74489 0.90855 0.50429 0.0
H1922 H 0.77492 0.84158 0.53666 0.0
H1923 H 0.77181 0.84715 0.60869 0.0
H1924 H 0.75719 0.83123 0.45967 0.0
H1925 H 0.75351 0.84303 0.39899 0.0
C1926 C 0.12177 0.88551 0.48542 0.0
C1927 C 0.10301 0.87062 0.4641 0.0
C1928 C 0.09401 0.85812 0.56644 0.0
C1929 C 0.11135 0.87506 0.58931 0.0
N1930 N 0.14095 0.90658 0.56633 0.0
N1931 N 0.06986 0.84455 0.48656 0.0
C1932 C 0.12505 0.8892 0.54766 0.0
C1933 C 0.08875 0.85737 0.50527 0.0
N1934 N 0.13692 0.89558 0.4462 0.0
N1935 N 0.08292 0.84222 0.60249 0.0
H1936 H 0.0653 0.84415 0.44283 0.0
H1937 H 0.0583 0.83587 0.51554 0.0
H1938 H 0.08698 0.84149 0.64612 0.0
H1939 H 0.07118 0.82884 0.587 0.0
H1940 H 0.15149 0.90541 0.45918 0.0
H1941 H 0.13541 0.89243 0.40099 0.0
H1942 H 0.14925 0.9185 0.53795 0.0
H1943 H 0.14571 0.90949 0.60981 0.0
C1944 C 0.74471 0.89239 0.04382 0.0
C1945 C 0.74377 0.87768 0.08368 0.0
C1946 C 0.74752 0.86021 0.99857 0.0
C1947 C 0.74621 0.87367 0.9586 0.0
N1948 N 0.73894 0.89988 0.94384 0.0
N1949 N 0.74138 0.84595 0.09759 0.0
C1950 C 0.7435 0.88901 0.98151 0.0
C1951 C 0.74401 0.86093 0.06046 0.0
N1952 N 0.74716 0.90987 0.06507 0.0
N1953 N 0.75363 0.84775 0.97802 0.0
H1954 H 0.73935 0.84633 0.14314 0.0
H1955 H 0.73954 0.83251 0.08255 0.0
H1956 H 0.75814 0.84828 0.93438 0.0
H1957 H 0.75653 0.83874 1.00541 0.0
H1958 H 0.75066 0.92207 0.03813 0.0
H1959 H 0.74703 0.91279 0.10991 0.0
H1960 H 0.73593 0.91079 0.95783 0.0
H1961 H 0.73618 0.89666 0.89884 0.0
C1962 C 0.09537 0.86008 0.98137 0.0
C1963 C 0.11132 0.87889 0.96525 0.0
C1964 C 0.12 0.88642 0.07138 0.0
C1965 C 0.10239 0.86865 0.08769 0.0
N1966 N 0.07189 0.83943 0.05609 0.0
N1967 N 0.13833 0.91073 0.99396 0.0
C1968 C 0.08973 0.8557 0.04205 0.0
C1969 C 0.12365 0.89221 1.01009 0.0
N1970 N 0.08591 0.84611 0.93833 0.0
N1971 N 0.13311 0.89785 0.1145 0.0
H1972 H 0.1412 0.91523 0.94976 0.0
H1973 H 0.14673 0.92202 0.024 0.0
H1974 H 0.13056 0.89431 0.15942 0.0
H1975 H 0.14707 0.90999 0.10572 0.0
H1976 H 0.07566 0.83129 0.9473 0.0
H1977 H 0.0898 0.84893 0.89369 0.0
H1978 H 0.06109 0.83099 0.02469 0.0
H1979 H 0.0671 0.83502 0.09926 0.0
C1980 C 0.10445 0.24038 0.06097 0.0
C1981 C 0.12115 0.24603 0.02421 0.0
C1982 C 0.14237 0.25547 0.11349 0.0
C1983 C 0.12586 0.25137 0.15038 0.0
N1984 N 0.09233 0.24549 0.15399 0.0
N1985 N 0.15664 0.26404 1.01487 0.0
C1986 C 0.10721 0.24541 0.12254 0.0
C1987 C 0.1403 0.25513 0.05038 0.0
N1988 N 0.08583 0.2296 0.03755 0.0
N1989 N 0.15975 0.25855 0.13783 0.0
H1990 H 0.15561 0.26451 0.96886 0.0
H1991 H 0.17101 0.27276 0.03135 0.0
H1992 H 0.16194 0.25797 0.18303 0.0
H1993 H 0.17139 0.2596 0.11256 0.0
H1994 H 0.07303 0.22331 0.06334 0.0
H1995 H 0.08329 0.22531 0.99317 0.0
H1996 H 0.0791 0.24295 0.13462 0.0
H1997 H 0.09411 0.25048 0.19761 0.0
C1998 C 0.89536 0.78226 0.43931 0.0
C1999 C 0.8796 0.76582 0.40928 0.0
C2000 C 0.86185 0.75606 0.50478 0.0
C2001 C 0.87975 0.7692 0.53563 0.0
N2002 N 0.91472 0.79308 0.52936 0.0
N2003 N 0.84629 0.73749 0.41535 0.0
C2004 C 0.89679 0.78198 0.50203 0.0
C2005 C 0.86231 0.75284 0.44241 0.0
N2006 N 0.90898 0.79828 0.40763 0.0
N2007 N 0.84417 0.74768 0.53401 0.0
H2008 H 0.84431 0.73638 0.36967 0.0
H2009 H 0.83488 0.7258 0.43883 0.0
H2010 H 0.84304 0.75117 0.5777 0.0
H2011 H 0.83048 0.73932 0.51306 0.0
H2012 H 0.91998 0.81124 0.42764 0.0
H2013 H 0.90762 0.79937 0.3619 0.0
H2014 H 0.9279 0.80136 0.50591 0.0
H2015 H 0.91675 0.7922 0.57471 0.0
C2016 C 0.25151 0.13704 0.47713 0.0
C2017 C 0.2369 0.1235 0.43686 0.0
C2018 C 0.21996 0.10187 0.52362 0.0
C2019 C 0.2317 0.11782 0.56299 0.0
N2020 N 0.25775 0.15175 0.5748 0.0
N2021 N 0.20829 0.09084 0.42327 0.0
C2022 C 0.24718 0.13575 0.53888 0.0
C2023 C 0.22133 0.10529 0.46073 0.0
N2024 N 0.27021 0.14988 0.45789 0.0
N2025 N 0.20866 0.08313 0.54587 0.0
H2026 H 0.21074 0.0912 0.37777 0.0
H2027 H 0.19506 0.07861 0.43742 0.0
H2028 H 0.20853 0.07985 0.59071 0.0
H2029 H 0.20121 0.07052 0.51951 0.0
H2030 H 0.28173 0.15911 0.48643 0.0
H2031 H 0.27497 0.14819 0.41657 0.0
H2032 H 0.26821 0.16563 0.55843 0.0
H2033 H 0.25457 0.1516 0.6197 0.0
C2034 C 0.88157 0.13815 0.53828 0.0
C2035 C 0.87456 0.12041 0.57184 0.0
C2036 C 0.86488 0.1018 0.4771 0.0
C2037 C 0.86896 0.11918 0.44479 0.0
N2038 N 0.87766 0.15358 0.44985 0.0
N2039 N 0.85666 0.08475 0.57221 0.0
C2040 C 0.87625 0.13726 0.47699 0.0
C2041 C 0.86529 0.10205 0.54079 0.0
N2042 N 0.89456 0.15591 0.56355 0.0
N2043 N 0.86208 0.0854 0.4472 0.0
H2044 H 0.85648 0.0845 0.61844 0.0
H2045 H 0.84812 0.07088 0.55246 0.0
H2046 H 0.86324 0.08521 0.40121 0.0
H2047 H 0.86078 0.0729 0.46826 0.0
H2048 H 0.90165 0.16917 0.53973 0.0
H2049 H 0.8998 0.15696 0.6067 0.0
H2050 H 0.88117 0.16652 0.47287 0.0
H2051 H 0.87327 0.15347 0.40607 0.0
C2052 C 0.90459 0.46333 0.37474 0.0
C2053 C 0.9077 0.45105 0.41492 0.0
C2054 C 0.90961 0.43233 0.33084 0.0
C2055 C 0.90875 0.44592 0.29021 0.0
N2056 N 0.90808 0.4761 0.27426 0.0
N2057 N 0.9184 0.42739 0.42981 0.0
C2058 C 0.9073 0.46212 0.31251 0.0
C2059 C 0.91175 0.43659 0.39247 0.0
N2060 N 0.89775 0.47516 0.39566 0.0
N2061 N 0.90766 0.4149 0.3113 0.0
H2062 H 0.9214 0.43109 0.4745 0.0
H2063 H 0.92296 0.41769 0.41517 0.0
H2064 H 0.90644 0.41107 0.26682 0.0
H2065 H 0.90529 0.40341 0.33996 0.0
H2066 H 0.89349 0.48316 0.36832 0.0
H2067 H 0.89426 0.47526 0.44012 0.0
H2068 H 0.90894 0.48922 0.28825 0.0
H2069 H 0.90949 0.47527 0.22854 0.0
C2070 C 0.55382 0.446 0.32916 0.0
C2071 C 0.54596 0.45586 0.36216 0.0
C2072 C 0.53626 0.46524 0.2686 0.0
C2073 C 0.54699 0.4582 0.23567 0.0
N2074 N 0.55631 0.4331 0.23384 0.0
N2075 N 0.53038 0.47566 0.36407 0.0
C2076 C 0.55308 0.44605 0.26579 0.0
C2077 C 0.53721 0.46556 0.33198 0.0
N2078 N 0.56232 0.43686 0.35872 0.0
N2079 N 0.52355 0.46967 0.23987 0.0
H2080 H 0.53073 0.47596 0.41022 0.0
H2081 H 0.52589 0.48496 0.34507 0.0
H2082 H 0.52012 0.46658 0.19508 0.0
H2083 H 0.51423 0.47354 0.26154 0.0
H2084 H 0.57046 0.43137 0.33799 0.0
H2085 H 0.5623 0.43593 0.40486 0.0
H2086 H 0.5594 0.42277 0.2528 0.0
H2087 H 0.55311 0.43077 0.18866 0.0
C2088 C 0.5363 0.09471 0.30043 0.0
C2089 C 0.54987 0.09074 0.33125 0.0
C2090 C 0.55606 0.07848 0.23777 0.0
C2091 C 0.54434 0.08461 0.20541 0.0
N2092 N 0.52678 0.10272 0.20632 0.0
N2093 N 0.57655 0.0838 0.32456 0.0
C2094 C 0.5354 0.09389 0.23692 0.0
C2095 C 0.56089 0.08408 0.29845 0.0
N2096 N 0.5237 0.09852 0.33185 0.0
N2097 N 0.56175 0.06631 0.21198 0.0
H2098 H 0.58122 0.08887 0.3676 0.0
H2099 H 0.58624 0.08079 0.30125 0.0
H2100 H 0.55749 0.06064 0.16929 0.0
H2101 H 0.56868 0.05996 0.2355 0.0
H2102 H 0.51215 0.09958 0.31228 0.0
H2103 H 0.52357 0.09864 0.37804 0.0
H2104 H 0.52156 0.11118 0.22662 0.0
H2105 H 0.52679 0.10342 0.16017 0.0
C2106 C 0.76883 0.57941 0.83066 0.0
C2107 C 0.78391 0.57649 0.80684 0.0
C2108 C 0.79755 0.57906 0.90745 0.0
C2109 C 0.78113 0.57965 0.93174 0.0
N2110 N 0.74905 0.57682 0.91591 0.0
N2111 N 0.81037 0.56965 0.82349 0.0
C2112 C 0.76614 0.57875 0.89316 0.0
C2113 C 0.79777 0.5754 0.84551 0.0
N2114 N 0.75755 0.58361 0.79352 0.0
N2115 N 0.81279 0.58175 0.9436 0.0
H2116 H 0.81003 0.56564 0.77929 0.0
H2117 H 0.81963 0.56681 0.84997 0.0
H2118 H 0.81279 0.58402 0.98914 0.0
H2119 H 0.82606 0.58339 0.9278 0.0
H2120 H 0.74727 0.58741 0.8082 0.0
H2121 H 0.75984 0.58526 0.7479 0.0
H2122 H 0.73674 0.57372 0.89001 0.0
H2123 H 0.74645 0.57682 0.96105 0.0
C2124 C 0.43522 0.2158 0.94797 0.0
C2125 C 0.41784 0.20155 0.97873 0.0
C2126 C 0.4 0.19134 0.88335 0.0
C2127 C 0.41777 0.20382 0.85219 0.0
N2128 N 0.45231 0.22866 0.85388 0.0
N2129 N 0.3822 0.1857 0.97539 0.0
C2130 C 0.43538 0.21636 0.88441 0.0
C2131 C 0.39969 0.19206 0.94653 0.0
N2132 N 0.45084 0.23 0.97987 0.0
N2133 N 0.38352 0.17811 0.85261 0.0
H2134 H 0.38169 0.18897 0.01988 0.0
H2135 H 0.3686 0.17998 0.95355 0.0
H2136 H 0.38345 0.17696 0.80654 0.0
H2137 H 0.37068 0.16718 0.87323 0.0
H2138 H 0.46357 0.24165 0.96117 0.0
H2139 H 0.44997 0.23161 0.02545 0.0
H2140 H 0.4663 0.23658 0.87329 0.0
H2141 H 0.45249 0.23025 0.80795 0.0
C2142 C 0.78586 0.20378 0.94464 0.0
C2143 C 0.79673 0.2229 0.9708 0.0
C2144 C 0.80383 0.23765 0.8707 0.0
C2145 C 0.79104 0.21894 0.84509 0.0
N2146 N 0.76605 0.18463 0.86075 0.0
N2147 N 0.81095 0.25853 0.95591 0.0
C2148 C 0.78106 0.20204 0.88285 0.0
C2149 C 0.8041 0.23999 0.9332 0.0
N2150 N 0.77966 0.1872 0.97878 0.0
N2151 N 0.81651 0.25316 0.83556 0.0
H2152 H 0.81108 0.26157 1.00063 0.0
H2153 H 0.81456 0.27084 0.92926 0.0
H2154 H 0.81755 0.25172 0.78999 0.0
H2155 H 0.8276 0.26666 0.85263 0.0
H2156 H 0.77373 0.17301 0.96095 0.0
H2157 H 0.78155 0.18773 0.02465 0.0
H2158 H 0.757 0.17238 0.8871 0.0
H2159 H 0.76116 0.18317 0.81718 0.0
C2160 C 0.43277 0.22388 0.374 0.0
C2161 C 0.42462 0.20426 0.35246 0.0
C2162 C 0.41485 0.19186 0.45501 0.0
C2163 C 0.4251 0.21163 0.47716 0.0
N2164 N 0.448 0.2464 0.45602 0.0
N2165 N 0.41171 0.16969 0.37492 0.0
C2166 C 0.43535 0.22761 0.43621 0.0
C2167 C 0.41656 0.18822 0.39363 0.0
N2168 N 0.43735 0.23898 0.33494 0.0
N2169 N 0.4037 0.17646 0.49259 0.0
H2170 H 0.41396 0.16675 0.33153 0.0
H2171 H 0.40752 0.15774 0.40358 0.0
H2172 H 0.40296 0.17835 0.53806 0.0
H2173 H 0.39416 0.16203 0.47798 0.0
H2174 H 0.44141 0.25333 0.34822 0.0
H2175 H 0.43491 0.23665 0.28945 0.0
H2176 H 0.45721 0.25805 0.42791 0.0
H2177 H 0.45103 0.25003 0.50053 0.0
C2178 C 0.77799 0.19949 0.36159 0.0
C2179 C 0.79281 0.21829 0.3401 0.0
C2180 C 0.80136 0.22896 0.44472 0.0
C2181 C 0.78428 0.21128 0.46446 0.0
N2182 N 0.75237 0.18391 0.43457 0.0
N2183 N 0.81653 0.25242 0.3635 0.0
C2184 C 0.77145 0.19766 0.42099 0.0
C2185 C 0.80412 0.23347 0.38236 0.0
N2186 N 0.77033 0.18318 0.32597 0.0
N2187 N 0.81474 0.24162 0.48528 0.0
H2188 H 0.8179 0.25651 0.31902 0.0
H2189 H 0.82381 0.2644 0.39234 0.0
H2190 H 0.8128 0.23897 0.53081 0.0
H2191 H 0.82836 0.25379 0.47344 0.0
H2192 H 0.76005 0.169 0.34108 0.0
H2193 H 0.7762 0.18344 0.28436 0.0
H2194 H 0.74231 0.1743 0.40309 0.0
H2195 H 0.74581 0.1847 0.47357 0.0
C2196 C 0.79389 0.59187 0.39864 0.0
C2197 C 0.80243 0.5807 0.42071 0.0
C2198 C 0.79935 0.56666 0.32094 0.0
C2199 C 0.78918 0.57624 0.30027 0.0
N2200 N 0.77204 0.5937 0.32513 0.0
N2201 N 0.80686 0.55247 0.40506 0.0
C2202 C 0.78503 0.58761 0.34081 0.0
C2203 C 0.80311 0.56653 0.38251 0.0
N2204 N 0.79501 0.60716 0.43097 0.0
N2205 N 0.80633 0.55843 0.28147 0.0
H2206 H 0.80859 0.55102 0.4502 0.0
H2207 H 0.80583 0.54083 0.37976 0.0
H2208 H 0.80494 0.55928 0.23574 0.0
H2209 H 0.81548 0.55286 0.29388 0.0
H2210 H 0.79092 0.61703 0.41395 0.0
H2211 H 0.80157 0.61108 0.47272 0.0
H2212 H 0.76716 0.60058 0.35463 0.0
H2213 H 0.76444 0.58985 0.28485 0.0
C2214 C 0.55743 0.10751 0.74034 0.0
C2215 C 0.54158 0.09186 0.70808 0.0
C2216 C 0.52338 0.07881 0.80151 0.0
C2217 C 0.54005 0.09311 0.83483 0.0
N2218 N 0.57424 0.11911 0.8353 0.0
N2219 N 0.51098 0.0605 0.70958 0.0
C2220 C 0.55743 0.10699 0.80391 0.0
C2221 C 0.52506 0.07684 0.73925 0.0
N2222 N 0.57235 0.12308 0.71029 0.0
N2223 N 0.50545 0.0679 0.82852 0.0
H2224 H 0.51142 0.05872 0.66391 0.0
H2225 H 0.49988 0.04797 0.73102 0.0
H2226 H 0.50326 0.06987 0.87268 0.0
H2227 H 0.49234 0.05868 0.80571 0.0
H2228 H 0.58328 0.1359 0.73095 0.0
H2229 H 0.57293 0.12381 0.66411 0.0
H2230 H 0.58798 0.12819 0.81566 0.0
H2231 H 0.57481 0.11872 0.88144 0.0
C2232 C 0.91218 0.47708 0.83154 0.0
C2233 C 0.90671 0.46071 0.79245 0.0
C2234 C 0.89698 0.43846 0.8796 0.0
C2235 C 0.90288 0.45495 0.9177 0.0
N2236 N 0.91928 0.49007 0.9319 0.0
N2237 N 0.89709 0.42637 0.78027 0.0
C2238 C 0.91136 0.47425 0.89407 0.0
C2239 C 0.90001 0.44152 0.81696 0.0
N2240 N 0.91729 0.49529 0.8095 0.0
N2241 N 0.8881 0.41984 0.90362 0.0
H2242 H 0.89956 0.42828 0.73469 0.0
H2243 H 0.89387 0.41241 0.79508 0.0
H2244 H 0.88597 0.41735 0.94915 0.0
H2245 H 0.88171 0.40685 0.87879 0.0
H2246 H 0.91712 0.50635 0.83475 0.0
H2247 H 0.92097 0.49915 0.76564 0.0
H2248 H 0.92787 0.50475 0.91803 0.0
H2249 H 0.91847 0.48841 0.97789 0.0
C2250 C 0.54621 0.44227 0.84148 0.0
C2251 C 0.5544 0.46175 0.86427 0.0
C2252 C 0.55433 0.47364 0.76224 0.0
C2253 C 0.54843 0.45451 0.73874 0.0
N2254 N 0.54272 0.4214 0.75814 0.0
N2255 N 0.56997 0.49676 0.84386 0.0
C2256 C 0.54561 0.43909 0.77895 0.0
C2257 C 0.55933 0.47767 0.82399 0.0
N2258 N 0.53816 0.42656 0.87979 0.0
N2259 N 0.55548 0.48814 0.72554 0.0
H2260 H 0.57486 0.50029 0.88753 0.0
H2261 H 0.57571 0.50907 0.81594 0.0
H2262 H 0.55311 0.48621 0.67993 0.0
H2263 H 0.55747 0.5016 0.74097 0.0
H2264 H 0.53004 0.41184 0.8659 0.0
H2265 H 0.53769 0.42833 0.92543 0.0
H2266 H 0.54276 0.41064 0.78551 0.0
H2267 H 0.54218 0.41806 0.71344 0.0
C2268 C 0.57139 0.79946 0.5882 0.0
C2269 C 0.56096 0.77971 0.56578 0.0
C2270 C 0.55255 0.76737 0.66885 0.0
C2271 C 0.56086 0.78699 0.69038 0.0
N2272 N 0.57494 0.82175 0.66849 0.0
N2273 N 0.53816 0.74484 0.58645 0.0
C2274 C 0.56956 0.80309 0.64953 0.0
C2275 C 0.55049 0.76368 0.60656 0.0
N2276 N 0.58281 0.81485 0.55087 0.0
N2277 N 0.54729 0.75221 0.70826 0.0
H2278 H 0.53591 0.74106 0.54192 0.0
H2279 H 0.5286 0.7332 0.61401 0.0
H2280 H 0.54916 0.75452 0.7539 0.0
H2281 H 0.54314 0.7378 0.69555 0.0
H2282 H 0.59254 0.82921 0.56567 0.0
H2283 H 0.58358 0.81303 0.5054 0.0
H2284 H 0.57956 0.83383 0.64008 0.0
H2285 H 0.57284 0.82478 0.71193 0.0
C2286 C 0.20803 0.80313 0.58576 0.0
C2287 C 0.19688 0.78632 0.54778 0.0
C2288 C 0.18581 0.76495 0.63691 0.0
C2289 C 0.19561 0.78179 0.67414 0.0
N2290 N 0.21113 0.81723 0.68333 0.0
N2291 N 0.17021 0.7522 0.54175 0.0
C2292 C 0.20522 0.80095 0.64832 0.0
C2293 C 0.18431 0.7675 0.57479 0.0
N2294 N 0.22216 0.82106 0.56378 0.0
N2295 N 0.17844 0.74643 0.66059 0.0
H2296 H 0.16754 0.75381 0.49733 0.0
H2297 H 0.15958 0.73873 0.5602 0.0
H2298 H 0.17984 0.74411 0.70545 0.0
H2299 H 0.1728 0.73365 0.63481 0.0
H2300 H 0.23225 0.83262 0.59073 0.0
H2301 H 0.22517 0.82426 0.51932 0.0
H2302 H 0.216 0.83139 0.66635 0.0
H2303 H 0.20918 0.81626 0.72902 0.0
C2304 C 0.22429 0.42298 0.62869 0.0
C2305 C 0.21053 0.42676 0.6584 0.0
C2306 C 0.19589 0.42691 0.56123 0.0
C2307 C 0.20775 0.42025 0.5327 0.0
N2308 N 0.23037 0.40779 0.54421 0.0
N2309 N 0.18105 0.42918 0.65318 0.0
C2310 C 0.22121 0.41719 0.56779 0.0
C2311 C 0.19572 0.42787 0.62463 0.0
N2312 N 0.2408 0.4257 0.65805 0.0
N2313 N 0.1855 0.43324 0.52787 0.0
H2314 H 0.18031 0.42954 0.69925 0.0
H2315 H 0.1687 0.42803 0.63145 0.0
H2316 H 0.18621 0.4339 0.48173 0.0
H2317 H 0.17798 0.43985 0.54598 0.0
H2318 H 0.25226 0.42484 0.63736 0.0
H2319 H 0.2441 0.43112 0.70128 0.0
H2320 H 0.2388 0.40352 0.56954 0.0
H2321 H 0.22779 0.40225 0.50112 0.0
C2322 C 0.45876 0.90413 0.28771 0.0
C2323 C 0.4427 0.90548 0.31255 0.0
C2324 C 0.42852 0.90172 0.21161 0.0
C2325 C 0.4448 0.90107 0.18714 0.0
N2326 N 0.47708 0.90477 0.20008 0.0
N2327 N 0.41431 0.90977 0.29413 0.0
C2328 C 0.46033 0.90302 0.2248 0.0
C2329 C 0.42822 0.90559 0.27339 0.0
N2330 N 0.47279 0.90417 0.32436 0.0
N2331 N 0.41289 0.89793 0.1755 0.0
H2332 H 0.41289 0.91244 0.33811 0.0
H2333 H 0.40522 0.91255 0.26672 0.0
H2334 H 0.41286 0.89521 0.13023 0.0
H2335 H 0.39935 0.89569 0.19086 0.0
H2336 H 0.48305 0.9002 0.31079 0.0
H2337 H 0.47389 0.90766 0.36928 0.0
H2338 H 0.49004 0.90868 0.22357 0.0
H2339 H 0.47854 0.90356 0.15478 0.0
C2340 C 0.07633 0.53569 0.27386 0.0
C2341 C 0.086 0.52587 0.298 0.0
C2342 C 0.0939 0.52061 0.19617 0.0
C2343 C 0.08655 0.5325 0.17278 0.0
N2344 N 0.07463 0.55507 0.19199 0.0
N2345 N 0.10822 0.51311 0.28003 0.0
C2346 C 0.07865 0.54095 0.21227 0.0
C2347 C 0.09607 0.5196 0.25863 0.0
N2348 N 0.06527 0.54039 0.30979 0.0
N2349 N 0.09822 0.50965 0.15852 0.0
H2350 H 0.11095 0.51244 0.32476 0.0
H2351 H 0.11734 0.51036 0.25291 0.0
H2352 H 0.09613 0.50954 0.11281 0.0
H2353 H 0.1017 0.49907 0.1731 0.0
H2354 H 0.0561 0.54548 0.29359 0.0
H2355 H 0.0642 0.53794 0.35543 0.0
H2356 H 0.0706 0.56312 0.2196 0.0
H2357 H 0.07745 0.56034 0.14859 0.0
C2358 C 0.45169 0.54563 0.17679 0.0
C2359 C 0.43282 0.53103 0.15504 0.0
C2360 C 0.42266 0.51957 0.25788 0.0
C2361 C 0.4405 0.53598 0.28036 0.0
N2362 N 0.47057 0.56698 0.25806 0.0
N2363 N 0.39924 0.50585 0.17595 0.0
C2364 C 0.45468 0.54962 0.23896 0.0
C2365 C 0.41802 0.51843 0.19598 0.0
N2366 N 0.4671 0.55522 0.1381 0.0
N2367 N 0.41041 0.50458 0.29531 0.0
H2368 H 0.39534 0.50496 0.13133 0.0
H2369 H 0.38722 0.49773 0.20401 0.0
H2370 H 0.41363 0.5044 0.34013 0.0
H2371 H 0.39821 0.49139 0.28075 0.0
H2372 H 0.48165 0.5649 0.15147 0.0
H2373 H 0.46574 0.55184 0.09305 0.0
H2374 H 0.47973 0.57847 0.22942 0.0
H2375 H 0.47391 0.57068 0.30237 0.0
C2376 C 0.08748 0.52091 0.77253 0.0
C2377 C 0.08157 0.53402 0.79668 0.0
C2378 C 0.0732 0.53922 0.6948 0.0
C2379 C 0.08249 0.52924 0.6708 0.0
N2380 N 0.10102 0.51269 0.6877 0.0
N2381 N 0.07257 0.55908 0.77478 0.0
C2382 C 0.09027 0.52059 0.70998 0.0
C2383 C 0.07527 0.54399 0.75633 0.0
N2384 N 0.08973 0.50817 0.80898 0.0
N2385 N 0.0618 0.5437 0.65917 0.0
H2386 H 0.07427 0.56391 0.81816 0.0
H2387 H 0.07076 0.56831 0.74511 0.0
H2388 H 0.05928 0.5397 0.61457 0.0
H2389 H 0.05303 0.54918 0.67563 0.0
H2390 H 0.09234 0.49715 0.79323 0.0
H2391 H 0.08667 0.50705 0.85423 0.0
H2392 H 0.10875 0.50793 0.7144 0.0
H2393 H 0.10376 0.51269 0.64252 0.0
C2394 C 0.45218 0.52843 0.75429 0.0
C2395 C 0.44065 0.5352 0.78397 0.0
C2396 C 0.43384 0.54566 0.68739 0.0
C2397 C 0.44246 0.5359 0.65773 0.0
N2398 N 0.45951 0.51749 0.66197 0.0
N2399 N 0.4297 0.55902 0.77981 0.0
C2400 C 0.45167 0.52727 0.691 0.0
C2401 C 0.43408 0.54638 0.75072 0.0
N2402 N 0.46516 0.52508 0.78589 0.0
N2403 N 0.42496 0.55379 0.65468 0.0
H2404 H 0.4322 0.56168 0.82519 0.0
H2405 H 0.42618 0.56872 0.7586 0.0
H2406 H 0.42515 0.55395 0.60843 0.0
H2407 H 0.41638 0.5592 0.67294 0.0
H2408 H 0.47495 0.52137 0.7666 0.0
H2409 H 0.46826 0.52897 0.83042 0.0
H2410 H 0.46428 0.50878 0.68341 0.0
H2411 H 0.45986 0.51695 0.61588 0.0
C2412 C 0.43889 0.91372 0.78989 0.0
C2413 C 0.45037 0.90578 0.81346 0.0
C2414 C 0.45543 0.89747 0.71184 0.0
C2415 C 0.44244 0.90367 0.68906 0.0
N2416 N 0.41872 0.91404 0.70813 0.0
N2417 N 0.46774 0.88788 0.79719 0.0
C2418 C 0.43346 0.91097 0.72855 0.0
C2419 C 0.45802 0.89692 0.77449 0.0
N2420 N 0.43292 0.92369 0.82622 0.0
N2421 N 0.46603 0.89299 0.67322 0.0
H2422 H 0.47114 0.88821 0.84203 0.0
H2423 H 0.47135 0.87897 0.7721 0.0
H2424 H 0.46491 0.89388 0.62737 0.0
H2425 H 0.47721 0.89021 0.68626 0.0
H2426 H 0.42666 0.93189 0.81059 0.0
H2427 H 0.43543 0.92495 0.87183 0.0
H2428 H 0.41017 0.91749 0.73548 0.0
H2429 H 0.41358 0.91112 0.66455 0.0
C2430 C 0.19028 0.41266 0.06682 0.0
C2431 C 0.20605 0.42903 0.03669 0.0
C2432 C 0.21775 0.44676 0.13212 0.0
C2433 C 0.20272 0.43018 0.16294 0.0
N2434 N 0.17078 0.40032 0.15618 0.0
N2435 N 0.22803 0.46448 0.03879 0.0
C2436 C 0.18787 0.41396 0.12922 0.0
C2437 C 0.21758 0.447 0.06892 0.0
N2438 N 0.17752 0.39578 0.03675 0.0
N2439 N 0.23287 0.4619 0.16288 0.0
H2440 H 0.22707 0.46526 0.99279 0.0
H2441 H 0.23547 0.47825 0.05973 0.0
H2442 H 0.23391 0.46191 0.20894 0.0
H2443 H 0.24529 0.47344 0.14233 0.0
H2444 H 0.16843 0.38224 0.05763 0.0
H2445 H 0.17595 0.3952 0.99094 0.0
H2446 H 0.15843 0.38936 0.13374 0.0
H2447 H 0.1682 0.40133 0.20052 0.0
C2448 C 0.58228 0.79854 0.09659 0.0
C2449 C 0.56441 0.78818 0.0633 0.0
C2450 C 0.54678 0.77294 0.15748 0.0
C2451 C 0.56382 0.78666 0.19006 0.0
N2452 N 0.59741 0.81385 0.19034 0.0
N2453 N 0.53104 0.76023 0.06153 0.0
C2454 C 0.58146 0.7998 0.15942 0.0
C2455 C 0.54697 0.77379 0.09379 0.0
N2456 N 0.6001 0.80535 0.0693 0.0
N2457 N 0.53073 0.75877 0.1879 0.0
H2458 H 0.53218 0.75781 0.01666 0.0
H2459 H 0.51707 0.75067 0.07891 0.0
H2460 H 0.53055 0.75776 0.23402 0.0
H2461 H 0.51783 0.74762 0.16843 0.0
H2462 H 0.61355 0.81178 0.09226 0.0
H2463 H 0.60112 0.80173 0.02554 0.0
H2464 H 0.61003 0.82513 0.16972 0.0
H2465 H 0.59722 0.81518 0.23631 0.0
C2466 C 0.18961 0.75812 0.08513 0.0
C2467 C 0.19522 0.77471 0.04659 0.0
C2468 C 0.20869 0.79672 0.13361 0.0
C2469 C 0.20045 0.77998 0.17211 0.0
N2470 N 0.17929 0.74482 0.18418 0.0
N2471 N 0.20857 0.81 0.03619 0.0
C2472 C 0.18985 0.76071 0.14765 0.0
C2473 C 0.20413 0.79406 0.07161 0.0
N2474 N 0.18446 0.73987 0.06295 0.0
N2475 N 0.22186 0.81503 0.15562 0.0
H2476 H 0.20677 0.80892 0.99028 0.0
H2477 H 0.21293 0.82405 0.05286 0.0
H2478 H 0.22654 0.81729 0.19969 0.0
H2479 H 0.2298 0.82754 0.12908 0.0
H2480 H 0.1822 0.72799 0.08967 0.0
H2481 H 0.18455 0.73696 0.0182 0.0
H2482 H 0.16949 0.73059 0.16854 0.0
H2483 H 0.17867 0.74628 0.22993 0.0
C2484 C 0.33125 0.21324 0.50791 0.0
C2485 C 0.35086 0.22513 0.48662 0.0
C2486 C 0.33837 0.22275 0.38559 0.0
C2487 C 0.31874 0.21141 0.40746 0.0
N2488 N 0.29615 0.19959 0.48934 0.0
N2489 N 0.37368 0.24264 0.40805 0.0
C2490 C 0.31509 0.20766 0.46866 0.0
C2491 C 0.3546 0.23026 0.42604 0.0
N2492 N 0.32817 0.20677 0.56529 0.0
N2493 N 0.34128 0.22621 0.32619 0.0
H2494 H 0.3857 0.24802 0.43727 0.0
H2495 H 0.37767 0.2483 0.36536 0.0
H2496 H 0.32951 0.22194 0.29674 0.0
H2497 H 0.35508 0.2328 0.30574 0.0
H2498 H 0.31434 0.19622 0.58173 0.0
H2499 H 0.33976 0.21074 0.59531 0.0
H2500 H 0.29278 0.1989 0.53417 0.0
H2501 H 0.28397 0.19523 0.46131 0.0
C2502 C 0.77834 0.13498 0.4408 0.0
C2503 C 0.76635 0.12451 0.48967 0.0
C2504 C 0.76835 0.09541 0.46312 0.0
C2505 C 0.78334 0.10697 0.42155 0.0
N2506 N 0.80277 0.13824 0.36977 0.0
N2507 N 0.73949 0.09185 0.5128 0.0
C2508 C 0.7884 0.12692 0.40984 0.0
C2509 C 0.75817 0.10373 0.49144 0.0
N2510 N 0.77775 0.15102 0.41911 0.0
N2511 N 0.76427 0.07669 0.47692 0.0
H2512 H 0.73043 0.09765 0.52383 0.0
H2513 H 0.73216 0.0764 0.51081 0.0
H2514 H 0.77208 0.0704 0.45858 0.0
H2515 H 0.75455 0.06832 0.51078 0.0
H2516 H 0.78486 0.15842 0.38032 0.0
H2517 H 0.7677 0.15493 0.43554 0.0
H2518 H 0.80851 0.15347 0.3651 0.0
H2519 H 0.80985 0.13281 0.34351 0.0
C2520 C 0.88505 0.65539 0.43146 0.0
C2521 C 0.88155 0.65443 0.49297 0.0
C2522 C 0.88756 0.68832 0.49257 0.0
C2523 C 0.88888 0.68861 0.43027 0.0
N2524 N 0.89349 0.67479 0.34089 0.0
N2525 N 0.88251 0.67116 0.58411 0.0
C2526 C 0.8894 0.67295 0.39994 0.0
C2527 C 0.88416 0.67131 0.52415 0.0
N2528 N 0.88288 0.63894 0.40324 0.0
N2529 N 0.88864 0.70415 0.52159 0.0
H2530 H 0.88012 0.65919 0.61072 0.0
H2531 H 0.88012 0.65919 0.61072 0.0
H2532 H 0.89133 0.71703 0.4993 0.0
H2533 H 0.88716 0.70436 0.56751 0.0
H2534 H 0.88329 0.63757 0.35754 0.0
H2535 H 0.8801 0.62618 0.42635 0.0
H2536 H 0.89524 0.6646 0.31594 0.0
H2537 H 0.89659 0.68748 0.31755 0.0
C2538 C 0.22175 0.34236 0.13607 0.0
C2539 C 0.20168 0.33275 0.15418 0.0
C2540 C 0.19504 0.34966 0.07273 0.0
C2541 C 0.21588 0.36203 0.06327 0.0
N2542 N 0.24884 0.37337 0.10162 0.0
N2543 N 0.16964 0.32922 0.14508 0.0
C2544 C 0.22916 0.35937 0.09983 0.0
C2545 C 0.18837 0.33701 0.12368 0.0
N2546 N 0.23356 0.3348 0.15122 0.0
N2547 N 0.1817 0.34889 0.032 0.0
H2548 H 0.15914 0.33248 0.12819 0.0
H2549 H 0.15914 0.33248 0.12819 0.0
H2550 H 0.18583 0.35681 0.99247 0.0
H2551 H 0.16658 0.33854 0.03402 0.0
H2552 H 0.24805 0.34083 0.13559 0.0
H2553 H 0.22798 0.32112 0.17251 0.0
H2554 H 0.25876 0.37238 0.13062 0.0
H2555 H 0.25457 0.38699 0.07989 0.0
C2556 C 0.68094 0.89093 0.04191 0.0
C2557 C 0.68025 0.89374 0.10348 0.0
C2558 C 0.64409 0.87942 0.09804 0.0
C2559 C 0.64485 0.87611 0.03682 0.0
N2560 N 0.66289 0.87628 0.95066 0.0
N2561 N 0.66205 0.89203 0.19094 0.0
C2562 C 0.66301 0.88121 1.00876 0.0
C2563 C 0.662 0.88833 0.13186 0.0
N2564 N 0.69894 0.89838 1.0151 0.0
N2565 N 0.62615 0.8741 0.123 0.0
H2566 H 0.67516 0.90007 0.2149 0.0
H2567 H 0.64944 0.88765 0.21636 0.0
H2568 H 0.61297 0.86741 0.0986 0.0
H2569 H 0.62405 0.87623 0.1672 0.0
H2570 H 0.70086 0.89864 0.96947 0.0
H2571 H 0.7122 0.90587 0.03879 0.0
H2572 H 0.67518 0.87757 0.92866 0.0
H2573 H 0.64999 0.86958 0.92506 0.0
C2574 C 0.08558 0.78651 0.01977 0.0
C2575 C 0.09389 0.79554 0.07487 0.0
C2576 C 0.11834 0.78474 0.06829 0.0
C2577 C 0.10937 0.77463 1.01492 0.0
N2578 N 0.08485 0.76613 0.93772 0.0
N2579 N 0.12187 0.80969 0.13923 0.0
C2580 C 0.0931 0.77563 0.98986 0.0
C2581 C 0.11155 0.79663 0.09522 0.0
N2582 N 0.07156 0.7898 0.99442 0.0
N2583 N 0.13229 0.78169 0.09538 0.0
H2584 H 0.13598 0.81317 0.15361 0.0
H2585 H 0.13598 0.81317 0.15361 0.0
H2586 H 0.13669 0.77207 0.07852 0.0
H2587 H 0.13806 0.78698 0.13738 0.0
H2588 H 0.06554 0.785 0.95242 0.0
H2589 H 0.06717 0.79911 1.01371 0.0
H2590 H 0.07161 0.76415 0.92041 0.0
H2591 H 0.09105 0.75974 0.91147 0.0
C2592 C 0.6762 0.79214 0.54675 0.0
C2593 C 0.67511 0.78068 0.59711 0.0
C2594 C 0.64068 0.75656 0.57386 0.0
C2595 C 0.64066 0.76919 0.52896 0.0
N2596 N 0.65891 0.79747 0.46514 0.0
N2597 N 0.66145 0.74614 0.62148 0.0
C2598 C 0.65864 0.7866 0.513 0.0
C2599 C 0.65879 0.76109 0.60111 0.0
N2600 N 0.69439 0.80668 0.52771 0.0
N2601 N 0.62338 0.74015 0.59047 0.0
H2602 H 0.67566 0.74821 0.62681 0.0
H2603 H 0.65013 0.73132 0.62182 0.0
H2604 H 0.6097 0.73652 0.57173 0.0
H2605 H 0.62258 0.73132 0.62639 0.0
H2606 H 0.69679 0.81532 0.49007 0.0
H2607 H 0.70747 0.80861 0.54677 0.0
H2608 H 0.67078 0.81137 0.45427 0.0
H2609 H 0.64687 0.79263 0.43641 0.0
C2610 C 0.21603 0.8999 0.5772 0.0
C2611 C 0.19574 0.89385 0.58503 0.0
C2612 C 0.18674 0.86702 0.51333 0.0
C2613 C 0.20663 0.87107 0.51409 0.0
N2614 N 0.23977 0.88981 0.5532 0.0
N2615 N 0.16575 0.88105 0.52813 0.0
C2616 C 0.22111 0.88704 0.54817 0.0
C2617 C 0.18191 0.8798 0.54445 0.0
N2618 N 0.23028 0.91907 0.58823 0.0
N2619 N 0.17243 0.85116 0.48274 0.0
H2620 H 0.16444 0.89314 0.54088 0.0
H2621 H 0.1558 0.87238 0.49508 0.0
H2622 H 0.17529 0.84183 0.45725 0.0
H2623 H 0.15736 0.84638 0.4865 0.0
H2624 H 0.24527 0.92468 0.57901 0.0
H2625 H 0.22661 0.92996 0.59683 0.0
H2626 H 0.25045 0.90032 0.58163 0.0
H2627 H 0.24377 0.88024 0.53359 0.0
C2628 C 0.14445 0.32942 0.56816 0.0
C2629 C 0.13313 0.33298 0.52569 0.0
C2630 C 0.10301 0.30585 0.56777 0.0
C2631 C 0.11381 0.30387 0.61537 0.0
N2632 N 0.14473 0.32087 0.67081 0.0
N2633 N 0.10131 0.33042 0.50781 0.0
C2634 C 0.13459 0.31778 0.61896 0.0
C2635 C 0.11228 0.32321 0.53324 0.0
N2636 N 0.16408 0.33599 0.55954 0.0
N2637 N 0.08469 0.29081 0.55181 0.0
H2638 H 0.10793 0.3442 0.4866 0.0
H2639 H 0.08605 0.32379 0.5147 0.0
H2640 H 0.07861 0.2765 0.56889 0.0
H2641 H 0.07708 0.29196 0.51524 0.0
H2642 H 0.17225 0.33241 0.58862 0.0
H2643 H 0.17146 0.34278 0.52049 0.0
H2644 H 0.15968 0.33169 0.67513 0.0
H2645 H 0.13756 0.31482 0.71077 0.0
C2646 C 0.78838 0.68443 0.93042 0.0
C2647 C 0.79335 0.68338 0.87098 0.0
C2648 C 0.77774 0.6472 0.87804 0.0
C2649 C 0.77312 0.64824 0.93797 0.0
N2650 N 0.77467 0.66727 0.02341 0.0
N2651 N 0.79458 0.66481 0.78812 0.0
C2652 C 0.77863 0.66675 0.96482 0.0
C2653 C 0.78856 0.66501 0.84476 0.0
N2654 N 0.79253 0.70238 0.95288 0.0
N2655 N 0.77115 0.62901 0.85302 0.0
H2656 H 0.80213 0.67766 0.76257 0.0
H2657 H 0.79317 0.65231 0.76718 0.0
H2658 H 0.76309 0.61588 0.87696 0.0
H2659 H 0.7726 0.62671 0.80843 0.0
H2660 H 0.78804 0.70435 0.99436 0.0
H2661 H 0.79996 0.7155 0.92839 0.0
H2662 H 0.78002 0.68021 0.0481 0.0
H2663 H 0.76632 0.65444 0.04818 0.0
C2664 C 0.31087 0.12169 0.9653 0.0
C2665 C 0.30066 0.10169 0.94453 0.0
C2666 C 0.32593 0.09637 0.9912 0.0
C2667 C 0.33501 0.11555 0.01669 0.0
N2668 N 0.33175 0.14323 0.04454 0.0
N2669 N 0.29477 0.06853 0.95932 0.0
C2670 C 0.32595 0.12719 1.00894 0.0
C2671 C 0.30693 0.08853 0.96514 0.0
N2672 N 0.30777 0.13591 0.94073 0.0
N2673 N 0.33582 0.08615 0.98788 0.0
H2674 H 0.28029 0.06236 0.94317 0.0
H2675 H 0.29833 0.05832 0.97691 0.0
H2676 H 0.35068 0.09236 0.99999 0.0
H2677 H 0.33002 0.07261 0.96582 0.0
H2678 H 0.31657 0.15092 0.951 0.0
H2679 H 0.29839 0.13346 0.90511 0.0
H2680 H 0.32487 0.15175 0.04528 0.0
H2681 H 0.32487 0.15175 0.04528 0.0
C2682 C 0.87844 0.20097 0.98331 0.0
C2683 C 0.88083 0.21006 0.03975 0.0
C2684 C 0.90144 0.19606 0.07311 0.0
C2685 C 0.89756 0.18685 0.01814 0.0
N2686 N 0.89503 0.18697 0.91948 0.0
N2687 N 0.89683 0.21846 0.13646 0.0
C2688 C 0.88862 0.19062 0.97335 0.0
C2689 C 0.89301 0.20824 0.08458 0.0
N2690 N 0.86692 0.20241 0.94058 0.0
N2691 N 0.9131 0.19325 0.11237 0.0
H2692 H 0.89048 0.22699 0.14723 0.0
H2693 H 0.90632 0.21862 0.16918 0.0
H2694 H 0.91895 0.1842 0.10156 0.0
H2695 H 0.91648 0.19917 0.15487 0.0
H2696 H 0.86334 0.19407 0.90184 0.0
H2697 H 0.85995 0.21072 0.9464 0.0
H2698 H 0.88784 0.18933 0.88315 0.0
H2699 H 0.91784 0.17678 0.91886 0.0
C2700 C -0.00459 0.54742 0.85373 0.0
C2701 C 0.01469 0.55742 0.82907 0.0
C2702 C 0.00069 0.55364 0.72968 0.0
C2703 C 0.98148 0.5449 0.75487 0.0
N2704 N 0.96067 0.53701 0.8402 0.0
N2705 N 0.03623 0.5733 0.74647 0.0
C2706 C 0.97889 0.54284 0.81687 0.0
C2707 C 0.01749 0.56151 0.76773 0.0
N2708 N 0.99295 0.54185 0.91192 0.0
N2709 N 0.00274 0.55368 0.66963 0.0
H2710 H 0.04866 0.57945 0.77418 0.0
H2711 H 0.03929 0.5783 0.70283 0.0
H2712 H 0.99066 0.54793 0.64069 0.0
H2713 H 0.0162 0.55793 0.64885 0.0
H2714 H 0.97912 0.53275 0.93109 0.0
H2715 H 0.00487 0.54504 0.9399 0.0
H2716 H 0.95804 0.53679 0.88546 0.0
H2717 H 0.94864 0.53438 0.81349 0.0
C2718 C 0.45952 0.4507 0.82852 0.0
C2719 C 0.44602 0.45616 0.80592 0.0
C2720 C 0.44896 0.44591 0.70632 0.0
C2721 C 0.46222 0.44003 0.72884 0.0
N2722 N 0.48197 0.43833 0.80807 0.0
N2723 N 0.43023 0.46256 0.72442 0.0
C2724 C 0.46817 0.44302 0.7891 0.0
C2725 C 0.4415 0.4549 0.74492 0.0
N2726 N 0.46358 0.45254 0.8879 0.0
N2727 N 0.44327 0.44248 0.64824 0.0
H2728 H 0.42437 0.46892 0.75244 0.0
H2729 H 0.42773 0.4639 0.6798 0.0
H2730 H 0.44894 0.43641 0.61865 0.0
H2731 H 0.43231 0.44467 0.62965 0.0
H2732 H 0.47223 0.44768 0.90906 0.0
H2733 H 0.45781 0.45876 0.91684 0.0
H2734 H 0.48823 0.44137 0.85022 0.0
H2735 H 0.48772 0.43177 0.78044 0.0
C2736 C 0.52303 0.01069 0.73426 0.0
C2737 C 0.54365 0.01811 0.72387 0.0
C2738 C 0.54266 0.99508 0.79917 0.0
C2739 C 0.52372 0.9911 0.81828 0.0
N2740 N 0.49629 0.99696 0.80469 0.0
N2741 N 0.57394 0.02039 0.76014 0.0
C2742 C 0.51402 -0.00053 0.78621 0.0
C2743 C 0.55372 0.01109 0.76004 0.0
N2744 N 0.51134 0.01339 0.69494 0.0
N2745 N 0.54992 0.98326 0.81729 0.0
H2746 H 0.58282 0.03354 0.73705 0.0
H2747 H 0.5818 0.01644 0.78925 0.0
H2748 H 0.54145 0.9704 0.84217 0.0
H2749 H 0.56318 0.9849 0.80119 0.0
H2750 H 0.51601 0.01968 0.65304 0.0
H2751 H 0.51601 0.01968 0.65304 0.0
H2752 H 0.48899 0.00306 0.78165 0.0
H2753 H 0.48967 0.99003 0.84448 0.0
C2754 C 0.47345 -0.00178 0.24689 0.0
C2755 C 0.46393 0.00662 0.21423 0.0
C2756 C 0.43473 0.98914 0.27766 0.0
C2757 C 0.44472 0.98197 0.31358 0.0
N2758 N 0.47671 0.98542 0.33948 0.0
N2759 N 0.43891 0.01611 0.2151 0.0
C2760 C 0.46494 0.98825 0.30079 0.0
C2761 C 0.44564 0.00403 0.23503 0.0
N2762 N 0.49048 -0.00059 0.22688 0.0
N2763 N 0.41463 0.98093 0.28102 0.0
H2764 H 0.44737 0.0282 0.18733 0.0
H2765 H 0.42626 0.01559 0.23216 0.0
H2766 H 0.40569 0.9686 0.30723 0.0
H2767 H 0.4067 0.98483 0.25207 0.0
H2768 H 0.49765 0.99325 0.25036 0.0
H2769 H 0.49658 0.00524 0.18558 0.0
H2770 H 0.4724 0.97986 0.38228 0.0
H2771 H 0.4724 0.97986 0.38228 0.0
C2772 C 0.98451 0.43068 0.35824 0.0
C2773 C 0.00302 0.43909 0.32863 0.0
C2774 C 0.98604 0.42932 0.23277 0.0
C2775 C 0.96768 0.42204 0.26225 0.0
N2776 N 0.94867 0.41055 0.35138 0.0
N2777 N 0.02211 0.44737 0.23925 0.0
C2778 C 0.9667 0.42118 0.32464 0.0
C2779 C 0.00398 0.43863 0.26614 0.0
N2780 N 0.98407 0.43278 0.41822 0.0
N2781 N 0.98599 0.42615 0.17335 0.0
H2782 H 0.03536 0.45362 0.26326 0.0
H2783 H 0.02418 0.44928 0.19369 0.0
H2784 H 0.97281 0.41762 0.14997 0.0
H2785 H -0.00136 0.43014 0.14842 0.0
H2786 H 0.97121 0.429 0.44182 0.0
H2787 H -0.00314 0.43987 0.44419 0.0
H2788 H 0.94687 0.40725 0.39643 0.0
H2789 H 0.9355 0.40328 0.32721 0.0
C2790 C 0.51865 0.5481 0.23946 0.0
C2791 C 0.53033 0.56274 0.28229 0.0
C2792 C 0.55907 0.55999 0.25537 0.0
C2793 C 0.54703 0.54373 0.21815 0.0
N2794 N 0.51595 0.52203 0.17345 0.0
N2795 N 0.5634 0.59084 0.2913 0.0
C2796 C 0.52681 0.53768 0.21005 0.0
C2797 C 0.55118 0.57118 0.27963 0.0
N2798 N 0.50131 0.54658 0.22068 0.0
N2799 N 0.578 0.5646 0.26841 0.0
H2800 H 0.55778 0.60037 0.29683 0.0
H2801 H 0.57874 0.59801 0.28568 0.0
H2802 H 0.5839 0.55599 0.25365 0.0
H2803 H 0.58683 0.57559 0.2989 0.0
H2804 H 0.49248 0.53735 0.18666 0.0
H2805 H 0.49743 0.55698 0.23361 0.0
H2806 H 0.50069 0.51547 0.16698 0.0
H2807 H 0.50069 0.51547 0.16698 0.0
loop_
_geom_bond_atom_site_label_1
_geom_bond_atom_site_label_2
_geom_bond_distance
_geom_bond_site_symmetry_2
_ccdc_geom_bond_type
C0 C1 1.351 . S
C0 N3 1.368 . S
C0 H5 0.931 . S
C1 C0 1.351 . S
C1 N2 1.373 . S
C1 H29 0.930 . S
N2 C1 1.373 . S
N2 C4 1.340 . S
N3 C0 1.368 . S
N3 C4 1.321 . S
N3 Co6 2.135 . S
C4 N2 1.340 . S
C4 N3 1.321 . S
C4 H28 0.930 . S
H5 C0 0.931 . S
Co6 N3 2.135 . S
Co6 N9 2.121 . S
Co6 O14 2.055 . S
Co6 O17 2.039 . S
Co6 N20 2.140 . S
C7 O8 1.227 . S
C7 O17 1.265 . S
O8 C7 1.227 . S
N9 Co6 2.121 . S
N9 C11 1.375 . S
N9 C12 1.313 . S
C10 C11 1.338 . S
C10 N13 1.377 . S
C10 H30 0.930 . S
C11 N9 1.375 . S
C11 C10 1.338 . S
C11 H15 0.931 . S
C12 N9 1.313 . S
C12 N13 1.344 . S
C12 H16 0.930 . S
N13 C10 1.377 . S
N13 C12 1.344 . S
O14 Co6 2.055 . S
O14 C18 1.253 . S
H15 C11 0.931 . S
H16 C12 0.930 . S
O17 Co6 2.039 . S
O17 C7 1.265 . S
C18 O14 1.253 . S
C18 O19 1.227 . S
O19 C18 1.227 . S
N20 Co6 2.140 . S
N20 C23 1.346 . S
N20 C24 1.345 . S
C21 C22 1.387 . S
C21 C25 1.391 . S
C22 C21 1.387 . S
C22 C23 1.369 . S
C22 H31 0.929 . S
C23 N20 1.346 . S
C23 C22 1.369 . S
C23 H26 0.928 . S
C24 N20 1.345 . S
C24 C25 1.371 . S
C24 H27 0.931 . S
C25 C21 1.391 . S
C25 C24 1.371 . S
C25 H32 0.930 . S
H26 C23 0.928 . S
H27 C24 0.931 . S
H28 C4 0.930 . S
H29 C1 0.930 . S
H30 C10 0.930 . S
H31 C22 0.929 . S
H32 C25 0.930 . S
C33 C34 1.351 . S
C33 N36 1.368 . S
C33 H38 0.931 . S
C34 C33 1.351 . S
C34 N35 1.373 . S
C34 H62 0.930 . S
N35 C34 1.373 . S
N35 C37 1.340 . S
N36 C33 1.368 . S
N36 C37 1.321 . S
N36 Co39 2.135 . S
C37 N35 1.340 . S
C37 N36 1.321 . S
C37 H61 0.930 . S
H38 C33 0.931 . S
Co39 N36 2.135 . S
Co39 N42 2.121 . S
Co39 O47 2.055 . S
Co39 O50 2.039 . S
Co39 N53 2.140 . S
C40 O41 1.227 . S
C40 O50 1.265 . S
O41 C40 1.227 . S
N42 Co39 2.121 . S
N42 C44 1.375 . S
N42 C45 1.313 . S
C43 C44 1.338 . S
C43 N46 1.377 . S
C43 H63 0.930 . S
C44 N42 1.375 . S
C44 C43 1.338 . S
C44 H48 0.931 . S
C45 N42 1.313 . S
C45 N46 1.344 . S
C45 H49 0.930 . S
N46 C43 1.377 . S
N46 C45 1.344 . S
O47 Co39 2.055 . S
O47 C51 1.253 . S
H48 C44 0.931 . S
H49 C45 0.930 . S
O50 Co39 2.039 . S
O50 C40 1.265 . S
C51 O47 1.253 . S
C51 O52 1.227 . S
O52 C51 1.227 . S
N53 Co39 2.140 . S
N53 C56 1.346 . S
N53 C57 1.345 . S
C54 C55 1.387 . S
C54 C58 1.391 . S
C55 C54 1.387 . S
C55 C56 1.369 . S
C55 H64 0.929 . S
C56 N53 1.346 . S
C56 C55 1.369 . S
C56 H59 0.928 . S
C57 N53 1.345 . S
C57 C58 1.371 . S
C57 H60 0.931 . S
C58 C54 1.391 . S
C58 C57 1.371 . S
C58 H65 0.930 . S
H59 C56 0.928 . S
H60 C57 0.931 . S
H61 C37 0.930 . S
H62 C34 0.930 . S
H63 C43 0.930 . S
H64 C55 0.929 . S
H65 C58 0.930 . S
C66 C67 1.351 . S
C66 N69 1.368 . S
C66 H71 0.931 . S
C67 C66 1.351 . S
C67 N68 1.373 . S
C67 H95 0.930 . S
N68 C67 1.373 . S
N68 C70 1.340 . S
N69 C66 1.368 . S
N69 C70 1.321 . S
N69 Co72 2.135 . S
C70 N68 1.340 . S
C70 N69 1.321 . S
C70 H94 0.930 . S
H71 C66 0.931 . S
Co72 N69 2.135 . S
Co72 N75 2.121 . S
Co72 O80 2.055 . S
Co72 O83 2.039 . S
Co72 N86 2.140 . S
C73 O74 1.227 . S
C73 O83 1.265 . S
O74 C73 1.227 . S
N75 Co72 2.121 . S
N75 C77 1.375 . S
N75 C78 1.313 . S
C76 C77 1.338 . S
C76 N79 1.377 . S
C76 H96 0.930 . S
C77 N75 1.375 . S
C77 C76 1.338 . S
C77 H81 0.931 . S
C78 N75 1.313 . S
C78 N79 1.344 . S
C78 H82 0.930 . S
N79 C76 1.377 . S
N79 C78 1.344 . S
O80 Co72 2.055 . S
O80 C84 1.253 . S
H81 C77 0.931 . S
H82 C78 0.930 . S
O83 Co72 2.039 . S
O83 C73 1.265 . S
C84 O80 1.253 . S
C84 O85 1.227 . S
O85 C84 1.227 . S
N86 Co72 2.140 . S
N86 C89 1.346 . S
N86 C90 1.345 . S
C87 C88 1.387 . S
C87 C91 1.391 . S
C88 C87 1.387 . S
C88 C89 1.369 . S
C88 H97 0.929 . S
C89 N86 1.346 . S
C89 C88 1.369 . S
C89 H92 0.928 . S
C90 N86 1.345 . S
C90 C91 1.371 . S
C90 H93 0.931 . S
C91 C87 1.391 . S
C91 C90 1.371 . S
C91 H98 0.930 . S
H92 C89 0.928 . S
H93 C90 0.931 . S
H94 C70 0.930 . S
H95 C67 0.930 . S
H96 C76 0.930 . S
H97 C88 0.929 . S
H98 C91 0.930 . S
C99 C100 1.351 . S
C99 N102 1.368 . S
C99 H104 0.931 . S
C100 C99 1.351 . S
C100 N101 1.373 . S
C100 H128 0.930 . S
N101 C100 1.373 . S
N101 C103 1.340 . S
N102 C99 1.368 . S
N102 C103 1.321 . S
N102 Co105 2.135 . S
C103 N101 1.340 . S
C103 N102 1.321 . S
C103 H127 0.930 . S
H104 C99 0.931 . S
Co105 N102 2.135 . S
Co105 N108 2.121 . S
Co105 O113 2.055 . S
Co105 O116 2.039 . S
Co105 N119 2.140 . S
C106 O107 1.227 . S
C106 O116 1.265 . S
O107 C106 1.227 . S
N108 Co105 2.121 . S
N108 C110 1.375 . S
N108 C111 1.313 . S
C109 C110 1.338 . S
C109 N112 1.377 . S
C109 H129 0.930 . S
C110 N108 1.375 . S
C110 C109 1.338 . S
C110 H114 0.931 . S
C111 N108 1.313 . S
C111 N112 1.344 . S
C111 H115 0.930 . S
N112 C109 1.377 . S
N112 C111 1.344 . S
O113 Co105 2.055 . S
O113 C117 1.253 . S
H114 C110 0.931 . S
H115 C111 0.930 . S
O116 Co105 2.039 . S
O116 C106 1.265 . S
C117 O113 1.253 . S
C117 O118 1.227 . S
O118 C117 1.227 . S
N119 Co105 2.140 . S
N119 C122 1.346 . S
N119 C123 1.345 . S
C120 C121 1.387 . S
C120 C124 1.391 . S
C121 C120 1.387 . S
C121 C122 1.369 . S
C121 H130 0.929 . S
C122 N119 1.346 . S
C122 C121 1.369 . S
C122 H125 0.928 . S
C123 N119 1.345 . S
C123 C124 1.371 . S
C123 H126 0.931 . S
C124 C120 1.391 . S
C124 C123 1.371 . S
C124 H131 0.930 . S
H125 C122 0.928 . S
H126 C123 0.931 . S
H127 C103 0.930 . S
H128 C100 0.930 . S
H129 C109 0.930 . S
H130 C121 0.929 . S
H131 C124 0.930 . S
C132 C133 1.351 . S
C132 N135 1.368 . S
C132 H137 0.931 . S
C133 C132 1.351 . S
C133 N134 1.373 . S
C133 H161 0.930 . S
N134 C133 1.373 . S
N134 C136 1.340 . S
N135 C132 1.368 . S
N135 C136 1.321 . S
N135 Co138 2.135 . S
C136 N134 1.340 . S
C136 N135 1.321 . S
C136 H160 0.930 . S
H137 C132 0.931 . S
Co138 N135 2.135 . S
Co138 N141 2.121 . S
Co138 O146 2.055 . S
Co138 O149 2.039 . S
Co138 N152 2.140 . S
C139 O140 1.227 . S
C139 O149 1.265 . S
O140 C139 1.227 . S
N141 Co138 2.121 . S
N141 C143 1.375 . S
N141 C144 1.313 . S
C142 C143 1.338 . S
C142 N145 1.377 . S
C142 H162 0.930 . S
C143 N141 1.375 . S
C143 C142 1.338 . S
C143 H147 0.931 . S
C144 N141 1.313 . S
C144 N145 1.344 . S
C144 H148 0.930 . S
N145 C142 1.377 . S
N145 C144 1.344 . S
O146 Co138 2.055 . S
O146 C150 1.253 . S
H147 C143 0.931 . S
H148 C144 0.930 . S
O149 Co138 2.039 . S
O149 C139 1.265 . S
C150 O146 1.253 . S
C150 O151 1.227 . S
O151 C150 1.227 . S
N152 Co138 2.140 . S
N152 C155 1.346 . S
N152 C156 1.345 . S
C153 C154 1.387 . S
C153 C157 1.391 . S
C154 C153 1.387 . S
C154 C155 1.369 . S
C154 H163 0.929 . S
C155 N152 1.346 . S
C155 C154 1.369 . S
C155 H158 0.928 . S
C156 N152 1.345 . S
C156 C157 1.371 . S
C156 H159 0.931 . S
C157 C153 1.391 . S
C157 C156 1.371 . S
C157 H164 0.930 . S
H158 C155 0.928 . S
H159 C156 0.931 . S
H160 C136 0.930 . S
H161 C133 0.930 . S
H162 C142 0.930 . S
H163 C154 0.929 . S
H164 C157 0.930 . S
C165 C166 1.351 . S
C165 N168 1.368 . S
C165 H170 0.931 . S
C166 C165 1.351 . S
C166 N167 1.373 . S
C166 H194 0.930 . S
N167 C166 1.373 . S
N167 C169 1.340 . S
N168 C165 1.368 . S
N168 C169 1.321 . S
N168 Co171 2.135 . S
C169 N167 1.340 . S
C169 N168 1.321 . S
C169 H193 0.930 . S
H170 C165 0.931 . S
Co171 N168 2.135 . S
Co171 N174 2.121 . S
Co171 O179 2.055 . S
Co171 O182 2.039 . S
Co171 N185 2.140 . S
C172 O173 1.227 . S
C172 O182 1.265 . S
O173 C172 1.227 . S
N174 Co171 2.121 . S
N174 C176 1.375 . S
N174 C177 1.313 . S
C175 C176 1.338 . S
C175 N178 1.377 . S
C175 H195 0.930 . S
C176 N174 1.375 . S
C176 C175 1.338 . S
C176 H180 0.931 . S
C177 N174 1.313 . S
C177 N178 1.344 . S
C177 H181 0.930 . S
N178 C175 1.377 . S
N178 C177 1.344 . S
O179 Co171 2.055 . S
O179 C183 1.253 . S
H180 C176 0.931 . S
H181 C177 0.930 . S
O182 Co171 2.039 . S
O182 C172 1.265 . S
C183 O179 1.253 . S
C183 O184 1.227 . S
O184 C183 1.227 . S
N185 Co171 2.140 . S
N185 C188 1.346 . S
N185 C189 1.345 . S
C186 C187 1.387 . S
C186 C190 1.391 . S
C187 C186 1.387 . S
C187 C188 1.369 . S
C187 H196 0.929 . S
C188 N185 1.346 . S
C188 C187 1.369 . S
C188 H191 0.928 . S
C189 N185 1.345 . S
C189 C190 1.371 . S
C189 H192 0.931 . S
C190 C186 1.391 . S
C190 C189 1.371 . S
C190 H197 0.930 . S
H191 C188 0.928 . S
H192 C189 0.931 . S
H193 C169 0.930 . S
H194 C166 0.930 . S
H195 C175 0.930 . S
H196 C187 0.929 . S
H197 C190 0.930 . S
C198 C199 1.351 . S
C198 N201 1.368 . S
C198 H203 0.931 . S
C199 C198 1.351 . S
C199 N200 1.373 . S
C199 H227 0.930 . S
N200 C199 1.373 . S
N200 C202 1.340 . S
N201 C198 1.368 . S
N201 C202 1.321 . S
N201 Co204 2.135 . S
C202 N200 1.340 . S
C202 N201 1.321 . S
C202 H226 0.930 . S
H203 C198 0.931 . S
Co204 N201 2.135 . S
Co204 N207 2.121 . S
Co204 O212 2.055 . S
Co204 O215 2.039 . S
Co204 N218 2.140 . S
C205 O206 1.227 . S
C205 O215 1.265 . S
O206 C205 1.227 . S
N207 Co204 2.121 . S
N207 C209 1.375 . S
N207 C210 1.313 . S
C208 C209 1.338 . S
C208 N211 1.377 . S
C208 H228 0.930 . S
C209 N207 1.375 . S
C209 C208 1.338 . S
C209 H213 0.931 . S
C210 N207 1.313 . S
C210 N211 1.344 . S
C210 H214 0.930 . S
N211 C208 1.377 . S
N211 C210 1.344 . S
O212 Co204 2.055 . S
O212 C216 1.253 . S
H213 C209 0.931 . S
H214 C210 0.930 . S
O215 Co204 2.039 . S
O215 C205 1.265 . S
C216 O212 1.253 . S
C216 O217 1.227 . S
O217 C216 1.227 . S
N218 Co204 2.140 . S
N218 C221 1.346 . S
N218 C222 1.345 . S
C219 C220 1.387 . S
C219 C223 1.391 . S
C220 C219 1.387 . S
C220 C221 1.369 . S
C220 H229 0.929 . S
C221 N218 1.346 . S
C221 C220 1.369 . S
C221 H224 0.928 . S
C222 N218 1.345 . S
C222 C223 1.371 . S
C222 H225 0.931 . S
C223 C219 1.391 . S
C223 C222 1.371 . S
C223 H230 0.930 . S
H224 C221 0.928 . S
H225 C222 0.931 . S
H226 C202 0.930 . S
H227 C199 0.930 . S
H228 C208 0.930 . S
H229 C220 0.929 . S
H230 C223 0.930 . S
C231 C232 1.351 . S
C231 N234 1.368 . S
C231 H236 0.931 . S
C232 C231 1.351 . S
C232 N233 1.373 . S
C232 H260 0.930 . S
N233 C232 1.373 . S
N233 C235 1.340 . S
N234 C231 1.368 . S
N234 C235 1.321 . S
N234 Co237 2.135 . S
C235 N233 1.340 . S
C235 N234 1.321 . S
C235 H259 0.930 . S
H236 C231 0.931 . S
Co237 N234 2.135 . S
Co237 N240 2.121 . S
Co237 O245 2.055 . S
Co237 O248 2.039 . S
Co237 N251 2.140 . S
C238 O239 1.227 . S
C238 O248 1.265 . S
O239 C238 1.227 . S
N240 Co237 2.121 . S
N240 C242 1.375 . S
N240 C243 1.313 . S
C241 C242 1.338 . S
C241 N244 1.377 . S
C241 H261 0.930 . S
C242 N240 1.375 . S
C242 C241 1.338 . S
C242 H246 0.931 . S
C243 N240 1.313 . S
C243 N244 1.344 . S
C243 H247 0.930 . S
N244 C241 1.377 . S
N244 C243 1.344 . S
O245 Co237 2.055 . S
O245 C249 1.253 . S
H246 C242 0.931 . S
H247 C243 0.930 . S
O248 Co237 2.039 . S
O248 C238 1.265 . S
C249 O245 1.253 . S
C249 O250 1.227 . S
O250 C249 1.227 . S
N251 Co237 2.140 . S
N251 C254 1.346 . S
N251 C255 1.345 . S
C252 C253 1.387 . S
C252 C256 1.391 . S
C253 C252 1.387 . S
C253 C254 1.369 . S
C253 H262 0.929 . S
C254 N251 1.346 . S
C254 C253 1.369 . S
C254 H257 0.928 . S
C255 N251 1.345 . S
C255 C256 1.371 . S
C255 H258 0.931 . S
C256 C252 1.391 . S
C256 C255 1.371 . S
C256 H263 0.930 . S
H257 C254 0.928 . S
H258 C255 0.931 . S
H259 C235 0.930 . S
H260 C232 0.930 . S
H261 C241 0.930 . S
H262 C253 0.929 . S
H263 C256 0.930 . S
C264 C265 1.351 . S
C264 N267 1.368 . S
C264 H269 0.931 . S
C265 C264 1.351 . S
C265 N266 1.373 . S
C265 H293 0.930 . S
N266 C265 1.373 . S
N266 C268 1.340 . S
N267 C264 1.368 . S
N267 C268 1.321 . S
N267 Co270 2.135 . S
C268 N266 1.340 . S
C268 N267 1.321 . S
C268 H292 0.930 . S
H269 C264 0.931 . S
Co270 N267 2.135 . S
Co270 N273 2.121 . S
Co270 O278 2.055 . S
Co270 O281 2.039 . S
Co270 N284 2.140 . S
C271 O272 1.227 . S
C271 O281 1.265 . S
O272 C271 1.227 . S
N273 Co270 2.121 . S
N273 C275 1.375 . S
N273 C276 1.313 . S
C274 C275 1.338 . S
C274 N277 1.377 . S
C274 H294 0.930 . S
C275 N273 1.375 . S
C275 C274 1.338 . S
C275 H279 0.931 . S
C276 N273 1.313 . S
C276 N277 1.344 . S
C276 H280 0.930 . S
N277 C274 1.377 . S
N277 C276 1.344 . S
O278 Co270 2.055 . S
O278 C282 1.253 . S
H279 C275 0.931 . S
H280 C276 0.930 . S
O281 Co270 2.039 . S
O281 C271 1.265 . S
C282 O278 1.253 . S
C282 O283 1.227 . S
O283 C282 1.227 . S
N284 Co270 2.140 . S
N284 C287 1.346 . S
N284 C288 1.345 . S
C285 C286 1.387 . S
C285 C289 1.391 . S
C286 C285 1.387 . S
C286 C287 1.369 . S
C286 H295 0.929 . S
C287 N284 1.346 . S
C287 C286 1.369 . S
C287 H290 0.928 . S
C288 N284 1.345 . S
C288 C289 1.371 . S
C288 H291 0.931 . S
C289 C285 1.391 . S
C289 C288 1.371 . S
C289 H296 0.930 . S
H290 C287 0.928 . S
H291 C288 0.931 . S
H292 C268 0.930 . S
H293 C265 0.930 . S
H294 C274 0.930 . S
H295 C286 0.929 . S
H296 C289 0.930 . S
C297 C298 1.351 . S
C297 N300 1.368 . S
C297 H302 0.931 . S
C298 C297 1.351 . S
C298 N299 1.373 . S
C298 H326 0.930 . S
N299 C298 1.373 . S
N299 C301 1.340 . S
N300 C297 1.368 . S
N300 C301 1.321 . S
N300 Co303 2.135 . S
C301 N299 1.340 . S
C301 N300 1.321 . S
C301 H325 0.930 . S
H302 C297 0.931 . S
Co303 N300 2.135 . S
Co303 N306 2.121 . S
Co303 O311 2.055 . S
Co303 O314 2.039 . S
Co303 N317 2.140 . S
C304 O305 1.227 . S
C304 O314 1.265 . S
O305 C304 1.227 . S
N306 Co303 2.121 . S
N306 C308 1.375 . S
N306 C309 1.313 . S
C307 C308 1.338 . S
C307 N310 1.377 . S
C307 H327 0.930 . S
C308 N306 1.375 . S
C308 C307 1.338 . S
C308 H312 0.931 . S
C309 N306 1.313 . S
C309 N310 1.344 . S
C309 H313 0.930 . S
N310 C307 1.377 . S
N310 C309 1.344 . S
O311 Co303 2.055 . S
O311 C315 1.253 . S
H312 C308 0.931 . S
H313 C309 0.930 . S
O314 Co303 2.039 . S
O314 C304 1.265 . S
C315 O311 1.253 . S
C315 O316 1.227 . S
O316 C315 1.227 . S
N317 Co303 2.140 . S
N317 C320 1.346 . S
N317 C321 1.345 . S
C318 C319 1.387 . S
C318 C322 1.391 . S
C319 C318 1.387 . S
C319 C320 1.369 . S
C319 H328 0.929 . S
C320 N317 1.346 . S
C320 C319 1.369 . S
C320 H323 0.928 . S
C321 N317 1.345 . S
C321 C322 1.371 . S
C321 H324 0.931 . S
C322 C318 1.391 . S
C322 C321 1.371 . S
C322 H329 0.930 . S
H323 C320 0.928 . S
H324 C321 0.931 . S
H325 C301 0.930 . S
H326 C298 0.930 . S
H327 C307 0.930 . S
H328 C319 0.929 . S
H329 C322 0.930 . S
C330 C331 1.351 . S
C330 N333 1.368 . S
C330 H335 0.931 . S
C331 C330 1.351 . S
C331 N332 1.373 . S
C331 H359 0.930 . S
N332 C331 1.373 . S
N332 C334 1.340 . S
N333 C330 1.368 . S
N333 C334 1.321 . S
N333 Co336 2.135 . S
C334 N332 1.340 . S
C334 N333 1.321 . S
C334 H358 0.930 . S
H335 C330 0.931 . S
Co336 N333 2.135 . S
Co336 N339 2.121 . S
Co336 O344 2.055 . S
Co336 O347 2.039 . S
Co336 N350 2.140 . S
C337 O338 1.227 . S
C337 O347 1.265 . S
O338 C337 1.227 . S
N339 Co336 2.121 . S
N339 C341 1.375 . S
N339 C342 1.313 . S
C340 C341 1.338 . S
C340 N343 1.377 . S
C340 H360 0.930 . S
C341 N339 1.375 . S
C341 C340 1.338 . S
C341 H345 0.931 . S
C342 N339 1.313 . S
C342 N343 1.344 . S
C342 H346 0.930 . S
N343 C340 1.377 . S
N343 C342 1.344 . S
O344 Co336 2.055 . S
O344 C348 1.253 . S
H345 C341 0.931 . S
H346 C342 0.930 . S
O347 Co336 2.039 . S
O347 C337 1.265 . S
C348 O344 1.253 . S
C348 O349 1.227 . S
O349 C348 1.227 . S
N350 Co336 2.140 . S
N350 C353 1.346 . S
N350 C354 1.345 . S
C351 C352 1.387 . S
C351 C355 1.391 . S
C352 C351 1.387 . S
C352 C353 1.369 . S
C352 H361 0.929 . S
C353 N350 1.346 . S
C353 C352 1.369 . S
C353 H356 0.928 . S
C354 N350 1.345 . S
C354 C355 1.371 . S
C354 H357 0.931 . S
C355 C351 1.391 . S
C355 C354 1.371 . S
C355 H362 0.930 . S
H356 C353 0.928 . S
H357 C354 0.931 . S
H358 C334 0.930 . S
H359 C331 0.930 . S
H360 C340 0.930 . S
H361 C352 0.929 . S
H362 C355 0.930 . S
C363 C364 1.351 . S
C363 N366 1.368 . S
C363 H368 0.931 . S
C364 C363 1.351 . S
C364 N365 1.373 . S
C364 H392 0.930 . S
N365 C364 1.373 . S
N365 C367 1.340 . S
N366 C363 1.368 . S
N366 C367 1.321 . S
N366 Co369 2.135 . S
C367 N365 1.340 . S
C367 N366 1.321 . S
C367 H391 0.930 . S
H368 C363 0.931 . S
Co369 N366 2.135 . S
Co369 N372 2.121 . S
Co369 O377 2.055 . S
Co369 O380 2.039 . S
Co369 N383 2.140 . S
C370 O371 1.227 . S
C370 O380 1.265 . S
O371 C370 1.227 . S
N372 Co369 2.121 . S
N372 C374 1.375 . S
N372 C375 1.313 . S
C373 C374 1.338 . S
C373 N376 1.377 . S
C373 H393 0.930 . S
C374 N372 1.375 . S
C374 C373 1.338 . S
C374 H378 0.931 . S
C375 N372 1.313 . S
C375 N376 1.344 . S
C375 H379 0.930 . S
N376 C373 1.377 . S
N376 C375 1.344 . S
O377 Co369 2.055 . S
O377 C381 1.253 . S
H378 C374 0.931 . S
H379 C375 0.930 . S
O380 Co369 2.039 . S
O380 C370 1.265 . S
C381 O377 1.253 . S
C381 O382 1.227 . S
O382 C381 1.227 . S
N383 Co369 2.140 . S
N383 C386 1.346 . S
N383 C387 1.345 . S
C384 C385 1.387 . S
C384 C388 1.391 . S
C385 C384 1.387 . S
C385 C386 1.369 . S
C385 H394 0.929 . S
C386 N383 1.346 . S
C386 C385 1.369 . S
C386 H389 0.928 . S
C387 N383 1.345 . S
C387 C388 1.371 . S
C387 H390 0.931 . S
C388 C384 1.391 . S
C388 C387 1.371 . S
C388 H395 0.930 . S
H389 C386 0.928 . S
H390 C387 0.931 . S
H391 C367 0.930 . S
H392 C364 0.930 . S
H393 C373 0.930 . S
H394 C385 0.929 . S
H395 C388 0.930 . S
C396 C397 1.351 . S
C396 N399 1.368 . S
C396 H401 0.931 . S
C397 C396 1.351 . S
C397 N398 1.373 . S
C397 H425 0.930 . S
N398 C397 1.373 . S
N398 C400 1.340 . S
N399 C396 1.368 . S
N399 C400 1.321 . S
N399 Co402 2.135 . S
C400 N398 1.340 . S
C400 N399 1.321 . S
C400 H424 0.930 . S
H401 C396 0.931 . S
Co402 N399 2.135 . S
Co402 N405 2.121 . S
Co402 O410 2.055 . S
Co402 O413 2.039 . S
Co402 N416 2.140 . S
C403 O404 1.227 . S
C403 O413 1.265 . S
O404 C403 1.227 . S
N405 Co402 2.121 . S
N405 C407 1.375 . S
N405 C408 1.313 . S
C406 C407 1.338 . S
C406 N409 1.377 . S
C406 H426 0.930 . S
C407 N405 1.375 . S
C407 C406 1.338 . S
C407 H411 0.931 . S
C408 N405 1.313 . S
C408 N409 1.344 . S
C408 H412 0.930 . S
N409 C406 1.377 . S
N409 C408 1.344 . S
O410 Co402 2.055 . S
O410 C414 1.253 . S
H411 C407 0.931 . S
H412 C408 0.930 . S
O413 Co402 2.039 . S
O413 C403 1.265 . S
C414 O410 1.253 . S
C414 O415 1.227 . S
O415 C414 1.227 . S
N416 Co402 2.140 . S
N416 C419 1.346 . S
N416 C420 1.345 . S
C417 C418 1.387 . S
C417 C421 1.391 . S
C418 C417 1.387 . S
C418 C419 1.369 . S
C418 H427 0.929 . S
C419 N416 1.346 . S
C419 C418 1.369 . S
C419 H422 0.928 . S
C420 N416 1.345 . S
C420 C421 1.371 . S
C420 H423 0.931 . S
C421 C417 1.391 . S
C421 C420 1.371 . S
C421 H428 0.930 . S
H422 C419 0.928 . S
H423 C420 0.931 . S
H424 C400 0.930 . S
H425 C397 0.930 . S
H426 C406 0.930 . S
H427 C418 0.929 . S
H428 C421 0.930 . S
C429 C430 1.351 . S
C429 N432 1.368 . S
C429 H434 0.931 . S
C430 C429 1.351 . S
C430 N431 1.373 . S
C430 H458 0.930 . S
N431 C430 1.373 . S
N431 C433 1.340 . S
N432 C429 1.368 . S
N432 C433 1.321 . S
N432 Co435 2.135 . S
C433 N431 1.340 . S
C433 N432 1.321 . S
C433 H457 0.930 . S
H434 C429 0.931 . S
Co435 N432 2.135 . S
Co435 N438 2.121 . S
Co435 O443 2.055 . S
Co435 O446 2.039 . S
Co435 N449 2.140 . S
C436 O437 1.227 . S
C436 O446 1.265 . S
O437 C436 1.227 . S
N438 Co435 2.121 . S
N438 C440 1.375 . S
N438 C441 1.313 . S
C439 C440 1.338 . S
C439 N442 1.377 . S
C439 H459 0.930 . S
C440 N438 1.375 . S
C440 C439 1.338 . S
C440 H444 0.931 . S
C441 N438 1.313 . S
C441 N442 1.344 . S
C441 H445 0.930 . S
N442 C439 1.377 . S
N442 C441 1.344 . S
O443 Co435 2.055 . S
O443 C447 1.253 . S
H444 C440 0.931 . S
H445 C441 0.930 . S
O446 Co435 2.039 . S
O446 C436 1.265 . S
C447 O443 1.253 . S
C447 O448 1.227 . S
O448 C447 1.227 . S
N449 Co435 2.140 . S
N449 C452 1.346 . S
N449 C453 1.345 . S
C450 C451 1.387 . S
C450 C454 1.391 . S
C451 C450 1.387 . S
C451 C452 1.369 . S
C451 H460 0.929 . S
C452 N449 1.346 . S
C452 C451 1.369 . S
C452 H455 0.928 . S
C453 N449 1.345 . S
C453 C454 1.371 . S
C453 H456 0.931 . S
C454 C450 1.391 . S
C454 C453 1.371 . S
C454 H461 0.930 . S
H455 C452 0.928 . S
H456 C453 0.931 . S
H457 C433 0.930 . S
H458 C430 0.930 . S
H459 C439 0.930 . S
H460 C451 0.929 . S
H461 C454 0.930 . S
C462 C463 1.351 . S
C462 N465 1.368 . S
C462 H467 0.931 . S
C463 C462 1.351 . S
C463 N464 1.373 . S
C463 H491 0.930 . S
N464 C463 1.373 . S
N464 C466 1.340 . S
N465 C462 1.368 . S
N465 C466 1.321 . S
N465 Co468 2.135 . S
C466 N464 1.340 . S
C466 N465 1.321 . S
C466 H490 0.930 . S
H467 C462 0.931 . S
Co468 N465 2.135 . S
Co468 N471 2.121 . S
Co468 O476 2.055 . S
Co468 O479 2.039 . S
Co468 N482 2.140 . S
C469 O470 1.227 . S
C469 O479 1.265 . S
O470 C469 1.227 . S
N471 Co468 2.121 . S
N471 C473 1.375 . S
N471 C474 1.313 . S
C472 C473 1.338 . S
C472 N475 1.377 . S
C472 H492 0.930 . S
C473 N471 1.375 . S
C473 C472 1.338 . S
C473 H477 0.931 . S
C474 N471 1.313 . S
C474 N475 1.344 . S
C474 H478 0.930 . S
N475 C472 1.377 . S
N475 C474 1.344 . S
O476 Co468 2.055 . S
O476 C480 1.253 . S
H477 C473 0.931 . S
H478 C474 0.930 . S
O479 Co468 2.039 . S
O479 C469 1.265 . S
C480 O476 1.253 . S
C480 O481 1.227 . S
O481 C480 1.227 . S
N482 Co468 2.140 . S
N482 C485 1.346 . S
N482 C486 1.345 . S
C483 C484 1.387 . S
C483 C487 1.391 . S
C484 C483 1.387 . S
C484 C485 1.369 . S
C484 H493 0.929 . S
C485 N482 1.346 . S
C485 C484 1.369 . S
C485 H488 0.928 . S
C486 N482 1.345 . S
C486 C487 1.371 . S
C486 H489 0.931 . S
C487 C483 1.391 . S
C487 C486 1.371 . S
C487 H494 0.930 . S
H488 C485 0.928 . S
H489 C486 0.931 . S
H490 C466 0.930 . S
H491 C463 0.930 . S
H492 C472 0.930 . S
H493 C484 0.929 . S
H494 C487 0.930 . S
C495 C496 1.351 . S
C495 N498 1.368 . S
C495 H500 0.931 . S
C496 C495 1.351 . S
C496 N497 1.373 . S
C496 H524 0.930 . S
N497 C496 1.373 . S
N497 C499 1.340 . S
N498 C495 1.368 . S
N498 C499 1.321 . S
N498 Co501 2.135 . S
C499 N497 1.340 . S
C499 N498 1.321 . S
C499 H523 0.930 . S
H500 C495 0.931 . S
Co501 N498 2.135 . S
Co501 N504 2.121 . S
Co501 O509 2.055 . S
Co501 O512 2.039 . S
Co501 N515 2.140 . S
C502 O503 1.227 . S
C502 O512 1.265 . S
O503 C502 1.227 . S
N504 Co501 2.121 . S
N504 C506 1.375 . S
N504 C507 1.313 . S
C505 C506 1.338 . S
C505 N508 1.377 . S
C505 H525 0.930 . S
C506 N504 1.375 . S
C506 C505 1.338 . S
C506 H510 0.931 . S
C507 N504 1.313 . S
C507 N508 1.344 . S
C507 H511 0.930 . S
N508 C505 1.377 . S
N508 C507 1.344 . S
O509 Co501 2.055 . S
O509 C513 1.253 . S
H510 C506 0.931 . S
H511 C507 0.930 . S
O512 Co501 2.039 . S
O512 C502 1.265 . S
C513 O509 1.253 . S
C513 O514 1.227 . S
O514 C513 1.227 . S
N515 Co501 2.140 . S
N515 C518 1.346 . S
N515 C519 1.345 . S
C516 C517 1.387 . S
C516 C520 1.391 . S
C517 C516 1.387 . S
C517 C518 1.369 . S
C517 H526 0.929 . S
C518 N515 1.346 . S
C518 C517 1.369 . S
C518 H521 0.928 . S
C519 N515 1.345 . S
C519 C520 1.371 . S
C519 H522 0.931 . S
C520 C516 1.391 . S
C520 C519 1.371 . S
C520 H527 0.930 . S
H521 C518 0.928 . S
H522 C519 0.931 . S
H523 C499 0.930 . S
H524 C496 0.930 . S
H525 C505 0.930 . S
H526 C517 0.929 . S
H527 C520 0.930 . S
C528 C529 1.351 . S
C528 N531 1.368 . S
C528 H533 0.931 . S
C529 C528 1.351 . S
C529 N530 1.373 . S
C529 H557 0.930 . S
N530 C529 1.373 . S
N530 C532 1.340 . S
N531 C528 1.368 . S
N531 C532 1.321 . S
N531 Co534 2.135 . S
C532 N530 1.340 . S
C532 N531 1.321 . S
C532 H556 0.930 . S
H533 C528 0.931 . S
Co534 N531 2.135 . S
Co534 N537 2.121 . S
Co534 O542 2.055 . S
Co534 O545 2.039 . S
Co534 N548 2.140 . S
C535 O536 1.227 . S
C535 O545 1.265 . S
O536 C535 1.227 . S
N537 Co534 2.121 . S
N537 C539 1.375 . S
N537 C540 1.313 . S
C538 C539 1.338 . S
C538 N541 1.377 . S
C538 H558 0.930 . S
C539 N537 1.375 . S
C539 C538 1.338 . S
C539 H543 0.931 . S
C540 N537 1.313 . S
C540 N541 1.344 . S
C540 H544 0.930 . S
N541 C538 1.377 . S
N541 C540 1.344 . S
O542 Co534 2.055 . S
O542 C546 1.253 . S
H543 C539 0.931 . S
H544 C540 0.930 . S
O545 Co534 2.039 . S
O545 C535 1.265 . S
C546 O542 1.253 . S
C546 O547 1.227 . S
O547 C546 1.227 . S
N548 Co534 2.140 . S
N548 C551 1.346 . S
N548 C552 1.345 . S
C549 C550 1.387 . S
C549 C553 1.391 . S
C550 C549 1.387 . S
C550 C551 1.369 . S
C550 H559 0.929 . S
C551 N548 1.346 . S
C551 C550 1.369 . S
C551 H554 0.928 . S
C552 N548 1.345 . S
C552 C553 1.371 . S
C552 H555 0.931 . S
C553 C549 1.391 . S
C553 C552 1.371 . S
C553 H560 0.930 . S
H554 C551 0.928 . S
H555 C552 0.931 . S
H556 C532 0.930 . S
H557 C529 0.930 . S
H558 C538 0.930 . S
H559 C550 0.929 . S
H560 C553 0.930 . S
C561 C562 1.351 . S
C561 N564 1.368 . S
C561 H566 0.931 . S
C562 C561 1.351 . S
C562 N563 1.373 . S
C562 H590 0.930 . S
N563 C562 1.373 . S
N563 C565 1.340 . S
N564 C561 1.368 . S
N564 C565 1.321 . S
N564 Co567 2.135 . S
C565 N563 1.340 . S
C565 N564 1.321 . S
C565 H589 0.930 . S
H566 C561 0.931 . S
Co567 N564 2.135 . S
Co567 N570 2.121 . S
Co567 O575 2.055 . S
Co567 O578 2.039 . S
Co567 N581 2.140 . S
C568 O569 1.227 . S
C568 O578 1.265 . S
O569 C568 1.227 . S
N570 Co567 2.121 . S
N570 C572 1.375 . S
N570 C573 1.313 . S
C571 C572 1.338 . S
C571 N574 1.377 . S
C571 H591 0.930 . S
C572 N570 1.375 . S
C572 C571 1.338 . S
C572 H576 0.931 . S
C573 N570 1.313 . S
C573 N574 1.344 . S
C573 H577 0.930 . S
N574 C571 1.377 . S
N574 C573 1.344 . S
O575 Co567 2.055 . S
O575 C579 1.253 . S
H576 C572 0.931 . S
H577 C573 0.930 . S
O578 Co567 2.039 . S
O578 C568 1.265 . S
C579 O575 1.253 . S
C579 O580 1.227 . S
O580 C579 1.227 . S
N581 Co567 2.140 . S
N581 C584 1.346 . S
N581 C585 1.345 . S
C582 C583 1.387 . S
C582 C586 1.391 . S
C583 C582 1.387 . S
C583 C584 1.369 . S
C583 H592 0.929 . S
C584 N581 1.346 . S
C584 C583 1.369 . S
C584 H587 0.928 . S
C585 N581 1.345 . S
C585 C586 1.371 . S
C585 H588 0.931 . S
C586 C582 1.391 . S
C586 C585 1.371 . S
C586 H593 0.930 . S
H587 C584 0.928 . S
H588 C585 0.931 . S
H589 C565 0.930 . S
H590 C562 0.930 . S
H591 C571 0.930 . S
H592 C583 0.929 . S
H593 C586 0.930 . S
C594 C595 1.351 . S
C594 N597 1.368 . S
C594 H599 0.931 . S
C595 C594 1.351 . S
C595 N596 1.373 1_554 S
C595 H623 0.930 . S
N596 C595 1.373 1_556 S
N596 C598 1.340 . S
N597 C594 1.368 . S
N597 C598 1.321 1_554 S
N597 Co600 2.135 . S
C598 N596 1.340 . S
C598 N597 1.321 1_556 S
C598 H622 0.930 . S
H599 C594 0.931 . S
Co600 N597 2.135 . S
Co600 N603 2.121 . S
Co600 O608 2.055 . S
Co600 O611 2.039 . S
Co600 N614 2.140 . S
C601 O602 1.227 . S
C601 O611 1.265 1_556 S
O602 C601 1.227 . S
N603 Co600 2.121 . S
N603 C605 1.375 . S
N603 C606 1.313 . S
C604 C605 1.338 . S
C604 N607 1.377 . S
C604 H624 0.930 . S
C605 N603 1.375 . S
C605 C604 1.338 . S
C605 H609 0.931 . S
C606 N603 1.313 . S
C606 N607 1.344 . S
C606 H610 0.930 . S
N607 C604 1.377 . S
N607 C606 1.344 . S
O608 Co600 2.055 . S
O608 C612 1.253 . S
H609 C605 0.931 . S
H610 C606 0.930 . S
O611 Co600 2.039 . S
O611 C601 1.265 1_554 S
C612 O608 1.253 . S
C612 O613 1.227 . S
O613 C612 1.227 . S
N614 Co600 2.140 . S
N614 C617 1.346 . S
N614 C618 1.345 . S
C615 C616 1.387 . S
C615 C619 1.391 . S
C616 C615 1.387 . S
C616 C617 1.369 . S
C616 H625 0.929 . S
C617 N614 1.346 . S
C617 C616 1.369 . S
C617 H620 0.928 . S
C618 N614 1.345 . S
C618 C619 1.371 . S
C618 H621 0.931 . S
C619 C615 1.391 . S
C619 C618 1.371 . S
C619 H626 0.930 . S
H620 C617 0.928 . S
H621 C618 0.931 . S
H622 C598 0.930 . S
H623 C595 0.930 . S
H624 C604 0.930 . S
H625 C616 0.929 . S
H626 C619 0.930 . S
C627 C628 1.351 . S
C627 N630 1.368 . S
C627 H632 0.931 . S
C628 C627 1.351 . S
C628 N629 1.373 1_554 S
C628 H656 0.930 . S
N629 C628 1.373 1_556 S
N629 C631 1.340 . S
N630 C627 1.368 . S
N630 C631 1.321 1_554 S
N630 Co633 2.135 . S
C631 N629 1.340 . S
C631 N630 1.321 1_556 S
C631 H655 0.930 . S
H632 C627 0.931 . S
Co633 N630 2.135 . S
Co633 N636 2.121 . S
Co633 O641 2.055 . S
Co633 O644 2.039 . S
Co633 N647 2.140 . S
C634 O635 1.227 . S
C634 O644 1.265 1_556 S
O635 C634 1.227 . S
N636 Co633 2.121 . S
N636 C638 1.375 . S
N636 C639 1.313 . S
C637 C638 1.338 . S
C637 N640 1.377 . S
C637 H657 0.930 . S
C638 N636 1.375 . S
C638 C637 1.338 . S
C638 H642 0.931 . S
C639 N636 1.313 . S
C639 N640 1.344 . S
C639 H643 0.930 . S
N640 C637 1.377 . S
N640 C639 1.344 . S
O641 Co633 2.055 . S
O641 C645 1.253 . S
H642 C638 0.931 . S
H643 C639 0.930 . S
O644 Co633 2.039 . S
O644 C634 1.265 1_554 S
C645 O641 1.253 . S
C645 O646 1.227 . S
O646 C645 1.227 . S
N647 Co633 2.140 . S
N647 C650 1.346 . S
N647 C651 1.345 . S
C648 C649 1.387 . S
C648 C652 1.391 . S
C649 C648 1.387 . S
C649 C650 1.369 . S
C649 H658 0.929 . S
C650 N647 1.346 . S
C650 C649 1.369 . S
C650 H653 0.928 . S
C651 N647 1.345 . S
C651 C652 1.371 . S
C651 H654 0.931 . S
C652 C648 1.391 . S
C652 C651 1.371 . S
C652 H659 0.930 . S
H653 C650 0.928 . S
H654 C651 0.931 . S
H655 C631 0.930 . S
H656 C628 0.930 . S
H657 C637 0.930 . S
H658 C649 0.929 . S
H659 C652 0.930 . S
C660 C661 1.351 . S
C660 N663 1.368 . S
C660 H665 0.931 . S
C661 C660 1.351 . S
C661 N662 1.373 1_554 S
C661 H689 0.930 . S
N662 C661 1.373 1_556 S
N662 C664 1.340 . S
N663 C660 1.368 . S
N663 C664 1.321 1_554 S
N663 Co666 2.135 . S
C664 N662 1.340 . S
C664 N663 1.321 1_556 S
C664 H688 0.930 . S
H665 C660 0.931 . S
Co666 N663 2.135 . S
Co666 N669 2.121 . S
Co666 O674 2.055 . S
Co666 O677 2.039 . S
Co666 N680 2.140 . S
C667 O668 1.227 . S
C667 O677 1.265 1_556 S
O668 C667 1.227 . S
N669 Co666 2.121 . S
N669 C671 1.375 . S
N669 C672 1.313 . S
C670 C671 1.338 . S
C670 N673 1.377 . S
C670 H690 0.930 . S
C671 N669 1.375 . S
C671 C670 1.338 . S
C671 H675 0.931 . S
C672 N669 1.313 . S
C672 N673 1.344 . S
C672 H676 0.930 . S
N673 C670 1.377 . S
N673 C672 1.344 . S
O674 Co666 2.055 . S
O674 C678 1.253 . S
H675 C671 0.931 . S
H676 C672 0.930 . S
O677 Co666 2.039 . S
O677 C667 1.265 1_554 S
C678 O674 1.253 . S
C678 O679 1.227 . S
O679 C678 1.227 . S
N680 Co666 2.140 . S
N680 C683 1.346 . S
N680 C684 1.345 . S
C681 C682 1.387 . S
C681 C685 1.391 . S
C682 C681 1.387 . S
C682 C683 1.369 . S
C682 H691 0.929 . S
C683 N680 1.346 . S
C683 C682 1.369 . S
C683 H686 0.928 . S
C684 N680 1.345 . S
C684 C685 1.371 . S
C684 H687 0.931 . S
C685 C681 1.391 . S
C685 C684 1.371 . S
C685 H692 0.930 . S
H686 C683 0.928 . S
H687 C684 0.931 . S
H688 C664 0.930 . S
H689 C661 0.930 . S
H690 C670 0.930 . S
H691 C682 0.929 . S
H692 C685 0.930 . S
C693 C694 1.351 . S
C693 N696 1.368 . S
C693 H698 0.931 . S
C694 C693 1.351 . S
C694 N695 1.373 . S
C694 H722 0.930 . S
N695 C694 1.373 . S
N695 C697 1.340 . S
N696 C693 1.368 . S
N696 C697 1.321 . S
N696 Co699 2.135 . S
C697 N695 1.340 . S
C697 N696 1.321 . S
C697 H721 0.930 . S
H698 C693 0.931 . S
Co699 N696 2.135 . S
Co699 N702 2.121 . S
Co699 O707 2.055 . S
Co699 O710 2.039 . S
Co699 N713 2.140 . S
C700 O701 1.227 . S
C700 O710 1.265 . S
O701 C700 1.227 . S
N702 Co699 2.121 . S
N702 C704 1.375 . S
N702 C705 1.313 1_554 S
C703 C704 1.338 1_556 S
C703 N706 1.377 . S
C703 H723 0.930 . S
C704 N702 1.375 . S
C704 C703 1.338 1_554 S
C704 H708 0.931 . S
C705 N702 1.313 1_556 S
C705 N706 1.344 . S
C705 H709 0.930 . S
N706 C703 1.377 . S
N706 C705 1.344 . S
O707 Co699 2.055 . S
O707 C711 1.244 1_554 S
H708 C704 0.931 . S
H709 C705 0.930 . S
O710 Co699 2.039 . S
O710 C700 1.265 . S
C711 O707 1.244 1_556 S
C711 O712 1.229 . S
O712 C711 1.229 . S
N713 Co699 2.140 . S
N713 C716 1.346 . S
N713 C717 1.345 . S
C714 C715 1.387 . S
C714 C718 1.391 . S
C715 C714 1.387 . S
C715 C716 1.369 . S
C715 H724 0.929 . S
C716 N713 1.346 . S
C716 C715 1.369 . S
C716 H719 0.928 . S
C717 N713 1.345 . S
C717 C718 1.371 . S
C717 H720 0.931 1_554 S
C718 C714 1.391 . S
C718 C717 1.371 . S
C718 H725 0.930 1_554 S
H719 C716 0.928 . S
H720 C717 0.931 1_556 S
H721 C697 0.930 . S
H722 C694 0.930 . S
H723 C703 0.930 . S
H724 C715 0.929 . S
H725 C718 0.930 1_556 S
C726 C727 1.351 . S
C726 N729 1.368 . S
C726 H731 0.931 . S
C727 C726 1.351 . S
C727 N728 1.373 . S
C727 H755 0.930 . S
N728 C727 1.373 . S
N728 C730 1.340 . S
N729 C726 1.368 . S
N729 C730 1.321 . S
N729 Co732 2.135 . S
C730 N728 1.340 . S
C730 N729 1.321 . S
C730 H754 0.930 . S
H731 C726 0.931 . S
Co732 N729 2.135 . S
Co732 N735 2.121 . S
Co732 O740 2.055 . S
Co732 O743 2.039 . S
Co732 N746 2.140 . S
C733 O734 1.227 . S
C733 O743 1.265 . S
O734 C733 1.227 . S
N735 Co732 2.121 . S
N735 C737 1.375 . S
N735 C738 1.313 1_554 S
C736 C737 1.338 1_556 S
C736 N739 1.377 . S
C736 H756 0.930 . S
C737 N735 1.375 . S
C737 C736 1.338 1_554 S
C737 H741 0.931 . S
C738 N735 1.313 1_556 S
C738 N739 1.344 . S
C738 H742 0.930 . S
N739 C736 1.377 . S
N739 C738 1.344 . S
O740 Co732 2.055 . S
O740 C744 1.245 1_554 S
H741 C737 0.931 . S
H742 C738 0.930 . S
O743 Co732 2.039 . S
O743 C733 1.265 . S
C744 O740 1.245 1_556 S
C744 O745 1.229 . S
O745 C744 1.229 . S
N746 Co732 2.140 . S
N746 C749 1.346 . S
N746 C750 1.345 . S
C747 C748 1.387 . S
C747 C751 1.391 . S
C748 C747 1.387 . S
C748 C749 1.369 . S
C748 H757 0.929 . S
C749 N746 1.346 . S
C749 C748 1.369 . S
C749 H752 0.928 . S
C750 N746 1.345 . S
C750 C751 1.371 . S
C750 H753 0.931 1_554 S
C751 C747 1.391 . S
C751 C750 1.371 . S
C751 H758 0.930 1_554 S
H752 C749 0.928 . S
H753 C750 0.931 1_556 S
H754 C730 0.930 . S
H755 C727 0.930 . S
H756 C736 0.930 . S
H757 C748 0.929 . S
H758 C751 0.930 1_556 S
C759 C760 1.351 . S
C759 N762 1.368 . S
C759 H764 0.931 . S
C760 C759 1.351 . S
C760 N761 1.373 . S
C760 H788 0.930 . S
N761 C760 1.373 . S
N761 C763 1.340 . S
N762 C759 1.368 . S
N762 C763 1.321 . S
N762 Co765 2.135 . S
C763 N761 1.340 . S
C763 N762 1.321 . S
C763 H787 0.930 . S
H764 C759 0.931 . S
Co765 N762 2.135 . S
Co765 N768 2.121 . S
Co765 O773 2.055 . S
Co765 O776 2.039 . S
Co765 N779 2.140 . S
C766 O767 1.227 . S
C766 O776 1.265 . S
O767 C766 1.227 . S
N768 Co765 2.121 . S
N768 C770 1.375 . S
N768 C771 1.313 1_554 S
C769 C770 1.338 1_556 S
C769 N772 1.377 . S
C769 H789 0.930 . S
C770 N768 1.375 . S
C770 C769 1.338 1_554 S
C770 H774 0.931 . S
C771 N768 1.313 1_556 S
C771 N772 1.344 . S
C771 H775 0.930 . S
N772 C769 1.377 . S
N772 C771 1.344 . S
O773 Co765 2.055 . S
O773 C777 1.245 1_554 S
H774 C770 0.931 . S
H775 C771 0.930 . S
O776 Co765 2.039 . S
O776 C766 1.265 . S
C777 O773 1.245 1_556 S
C777 O778 1.229 . S
O778 C777 1.229 . S
N779 Co765 2.140 . S
N779 C782 1.346 . S
N779 C783 1.345 . S
C780 C781 1.387 . S
C780 C784 1.391 . S
C781 C780 1.387 . S
C781 C782 1.369 . S
C781 H790 0.929 . S
C782 N779 1.346 . S
C782 C781 1.369 . S
C782 H785 0.928 . S
C783 N779 1.345 . S
C783 C784 1.371 . S
C783 H786 0.931 1_554 S
C784 C780 1.391 . S
C784 C783 1.371 . S
C784 H791 0.930 1_554 S
H785 C782 0.928 . S
H786 C783 0.931 1_556 S
H787 C763 0.930 . S
H788 C760 0.930 . S
H789 C769 0.930 . S
H790 C781 0.929 . S
H791 C784 0.930 1_556 S
C792 C793 1.351 . S
C792 N795 1.368 . S
C792 H797 0.931 . S
C793 C792 1.351 . S
C793 N794 1.373 1_556 S
C793 H821 0.930 . S
N794 C793 1.373 1_554 S
N794 C796 1.340 . S
N795 C792 1.368 . S
N795 C796 1.321 1_556 S
N795 Co798 2.135 . S
C796 N794 1.340 . S
C796 N795 1.321 1_554 S
C796 H820 0.930 . S
H797 C792 0.931 . S
Co798 N795 2.135 . S
Co798 N801 2.121 . S
Co798 O806 2.055 . S
Co798 O809 2.039 . S
Co798 N812 2.140 . S
C799 O800 1.227 . S
C799 O809 1.265 1_554 S
O800 C799 1.227 . S
N801 Co798 2.121 . S
N801 C803 1.375 . S
N801 C804 1.313 . S
C802 C803 1.338 . S
C802 N805 1.377 . S
C802 H822 0.930 . S
C803 N801 1.375 . S
C803 C802 1.338 . S
C803 H807 0.931 . S
C804 N801 1.313 . S
C804 N805 1.344 . S
C804 H808 0.930 . S
N805 C802 1.377 . S
N805 C804 1.344 . S
O806 Co798 2.055 . S
O806 C810 1.253 . S
H807 C803 0.931 . S
H808 C804 0.930 . S
O809 Co798 2.039 . S
O809 C799 1.265 1_556 S
C810 O806 1.253 . S
C810 O811 1.227 . S
O811 C810 1.227 . S
N812 Co798 2.140 . S
N812 C815 1.346 . S
N812 C816 1.345 . S
C813 C814 1.387 . S
C813 C817 1.391 . S
C814 C813 1.387 . S
C814 C815 1.369 . S
C814 H823 0.929 . S
C815 N812 1.346 . S
C815 C814 1.369 . S
C815 H818 0.928 . S
C816 N812 1.345 . S
C816 C817 1.371 . S
C816 H819 0.931 . S
C817 C813 1.391 . S
C817 C816 1.371 . S
C817 H824 0.930 . S
H818 C815 0.928 . S
H819 C816 0.931 . S
H820 C796 0.930 . S
H821 C793 0.930 . S
H822 C802 0.930 . S
H823 C814 0.929 . S
H824 C817 0.930 . S
C825 C826 1.351 . S
C825 N828 1.368 . S
C825 H830 0.931 . S
C826 C825 1.351 . S
C826 N827 1.373 1_556 S
C826 H854 0.930 . S
N827 C826 1.373 1_554 S
N827 C829 1.340 . S
N828 C825 1.368 . S
N828 C829 1.321 1_556 S
N828 Co831 2.135 . S
C829 N827 1.340 . S
C829 N828 1.321 1_554 S
C829 H853 0.930 . S
H830 C825 0.931 . S
Co831 N828 2.135 . S
Co831 N834 2.121 . S
Co831 O839 2.055 . S
Co831 O842 2.039 . S
Co831 N845 2.140 . S
C832 O833 1.227 . S
C832 O842 1.265 1_554 S
O833 C832 1.227 . S
N834 Co831 2.121 . S
N834 C836 1.375 . S
N834 C837 1.313 . S
C835 C836 1.338 . S
C835 N838 1.377 . S
C835 H855 0.930 . S
C836 N834 1.375 . S
C836 C835 1.338 . S
C836 H840 0.931 . S
C837 N834 1.313 . S
C837 N838 1.344 . S
C837 H841 0.930 . S
N838 C835 1.377 . S
N838 C837 1.344 . S
O839 Co831 2.055 . S
O839 C843 1.253 . S
H840 C836 0.931 . S
H841 C837 0.930 . S
O842 Co831 2.039 . S
O842 C832 1.265 1_556 S
C843 O839 1.253 . S
C843 O844 1.227 . S
O844 C843 1.227 . S
N845 Co831 2.140 . S
N845 C848 1.346 . S
N845 C849 1.345 . S
C846 C847 1.387 . S
C846 C850 1.391 . S
C847 C846 1.387 . S
C847 C848 1.369 . S
C847 H856 0.929 . S
C848 N845 1.346 . S
C848 C847 1.369 . S
C848 H851 0.928 . S
C849 N845 1.345 . S
C849 C850 1.371 . S
C849 H852 0.931 . S
C850 C846 1.391 . S
C850 C849 1.371 . S
C850 H857 0.930 . S
H851 C848 0.928 . S
H852 C849 0.931 . S
H853 C829 0.930 . S
H854 C826 0.930 . S
H855 C835 0.930 . S
H856 C847 0.929 . S
H857 C850 0.930 . S
C858 C859 1.351 . S
C858 N861 1.368 . S
C858 H863 0.931 . S
C859 C858 1.351 . S
C859 N860 1.373 1_556 S
C859 H887 0.930 . S
N860 C859 1.373 1_554 S
N860 C862 1.340 . S
N861 C858 1.368 . S
N861 C862 1.321 1_556 S
N861 Co864 2.135 . S
C862 N860 1.340 . S
C862 N861 1.321 1_554 S
C862 H886 0.930 . S
H863 C858 0.931 . S
Co864 N861 2.135 . S
Co864 N867 2.121 . S
Co864 O872 2.055 . S
Co864 O875 2.039 . S
Co864 N878 2.140 . S
C865 O866 1.227 . S
C865 O875 1.265 1_554 S
O866 C865 1.227 . S
N867 Co864 2.121 . S
N867 C869 1.375 . S
N867 C870 1.313 . S
C868 C869 1.338 . S
C868 N871 1.377 . S
C868 H888 0.930 . S
C869 N867 1.375 . S
C869 C868 1.338 . S
C869 H873 0.931 . S
C870 N867 1.313 . S
C870 N871 1.344 . S
C870 H874 0.930 . S
N871 C868 1.377 . S
N871 C870 1.344 . S
O872 Co864 2.055 . S
O872 C876 1.253 . S
H873 C869 0.931 . S
H874 C870 0.930 . S
O875 Co864 2.039 . S
O875 C865 1.265 1_556 S
C876 O872 1.253 . S
C876 O877 1.227 . S
O877 C876 1.227 . S
N878 Co864 2.140 . S
N878 C881 1.346 . S
N878 C882 1.345 . S
C879 C880 1.387 . S
C879 C883 1.391 . S
C880 C879 1.387 . S
C880 C881 1.369 . S
C880 H889 0.929 . S
C881 N878 1.346 . S
C881 C880 1.369 . S
C881 H884 0.928 . S
C882 N878 1.345 . S
C882 C883 1.371 . S
C882 H885 0.931 . S
C883 C879 1.391 . S
C883 C882 1.371 . S
C883 H890 0.930 . S
H884 C881 0.928 . S
H885 C882 0.931 . S
H886 C862 0.930 . S
H887 C859 0.930 . S
H888 C868 0.930 . S
H889 C880 0.929 . S
H890 C883 0.930 . S
C891 C892 1.351 . S
C891 N894 1.368 . S
C891 H896 0.931 . S
C892 C891 1.351 . S
C892 N893 1.373 . S
C892 H920 0.930 . S
N893 C892 1.373 . S
N893 C895 1.340 . S
N894 C891 1.368 . S
N894 C895 1.321 . S
N894 Co897 2.135 . S
C895 N893 1.340 . S
C895 N894 1.321 . S
C895 H919 0.930 . S
H896 C891 0.931 . S
Co897 N894 2.135 . S
Co897 N900 2.121 . S
Co897 O905 2.055 . S
Co897 O908 2.039 . S
Co897 N911 2.140 . S
C898 O899 1.227 . S
C898 O908 1.265 . S
O899 C898 1.227 . S
N900 Co897 2.121 . S
N900 C902 1.375 . S
N900 C903 1.313 1_556 S
C901 C902 1.338 1_554 S
C901 N904 1.377 . S
C901 H921 0.930 . S
C902 N900 1.375 . S
C902 C901 1.338 1_556 S
C902 H906 0.931 . S
C903 N900 1.313 1_554 S
C903 N904 1.344 . S
C903 H907 0.930 . S
N904 C901 1.377 . S
N904 C903 1.344 . S
O905 Co897 2.055 . S
O905 C909 1.244 1_556 S
H906 C902 0.931 . S
H907 C903 0.930 . S
O908 Co897 2.039 . S
O908 C898 1.265 . S
C909 O905 1.244 1_554 S
C909 O910 1.229 . S
O910 C909 1.229 . S
N911 Co897 2.140 . S
N911 C914 1.346 . S
N911 C915 1.345 . S
C912 C913 1.387 . S
C912 C916 1.391 . S
C913 C912 1.387 . S
C913 C914 1.369 . S
C913 H922 0.929 . S
C914 N911 1.346 . S
C914 C913 1.369 . S
C914 H917 0.928 . S
C915 N911 1.345 . S
C915 C916 1.371 . S
C915 H918 0.931 1_556 S
C916 C912 1.391 . S
C916 C915 1.371 . S
C916 H923 0.930 1_556 S
H917 C914 0.928 . S
H918 C915 0.931 1_554 S
H919 C895 0.930 . S
H920 C892 0.930 . S
H921 C901 0.930 . S
H922 C913 0.929 . S
H923 C916 0.930 1_554 S
C924 C925 1.351 . S
C924 N927 1.368 . S
C924 H929 0.931 . S
C925 C924 1.351 . S
C925 N926 1.373 . S
C925 H953 0.930 . S
N926 C925 1.373 . S
N926 C928 1.340 . S
N927 C924 1.368 . S
N927 C928 1.321 . S
N927 Co930 2.135 . S
C928 N926 1.340 . S
C928 N927 1.321 . S
C928 H952 0.930 . S
H929 C924 0.931 . S
Co930 N927 2.135 . S
Co930 N933 2.121 . S
Co930 O938 2.055 . S
Co930 O941 2.039 . S
Co930 N944 2.140 . S
C931 O932 1.227 . S
C931 O941 1.265 . S
O932 C931 1.227 . S
N933 Co930 2.121 . S
N933 C935 1.375 . S
N933 C936 1.313 1_556 S
C934 C935 1.338 1_554 S
C934 N937 1.377 . S
C934 H954 0.930 . S
C935 N933 1.375 . S
C935 C934 1.338 1_556 S
C935 H939 0.931 . S
C936 N933 1.313 1_554 S
C936 N937 1.344 . S
C936 H940 0.930 . S
N937 C934 1.377 . S
N937 C936 1.344 . S
O938 Co930 2.055 . S
O938 C942 1.245 1_556 S
H939 C935 0.931 . S
H940 C936 0.930 . S
O941 Co930 2.039 . S
O941 C931 1.265 . S
C942 O938 1.245 1_554 S
C942 O943 1.229 . S
O943 C942 1.229 . S
N944 Co930 2.140 . S
N944 C947 1.346 . S
N944 C948 1.345 . S
C945 C946 1.387 . S
C945 C949 1.391 . S
C946 C945 1.387 . S
C946 C947 1.369 . S
C946 H955 0.929 . S
C947 N944 1.346 . S
C947 C946 1.369 . S
C947 H950 0.928 . S
C948 N944 1.345 . S
C948 C949 1.371 . S
C948 H951 0.931 1_556 S
C949 C945 1.391 . S
C949 C948 1.371 . S
C949 H956 0.930 1_556 S
H950 C947 0.928 . S
H951 C948 0.931 1_554 S
H952 C928 0.930 . S
H953 C925 0.930 . S
H954 C934 0.930 . S
H955 C946 0.929 . S
H956 C949 0.930 1_554 S
C957 C958 1.351 . S
C957 N960 1.368 . S
C957 H962 0.931 . S
C958 C957 1.351 . S
C958 N959 1.373 . S
C958 H986 0.930 . S
N959 C958 1.373 . S
N959 C961 1.340 . S
N960 C957 1.368 . S
N960 C961 1.321 . S
N960 Co963 2.135 . S
C961 N959 1.340 . S
C961 N960 1.321 . S
C961 H985 0.930 . S
H962 C957 0.931 . S
Co963 N960 2.135 . S
Co963 N966 2.121 . S
Co963 O971 2.055 . S
Co963 O974 2.039 . S
Co963 N977 2.140 . S
C964 O965 1.227 . S
C964 O974 1.265 . S
O965 C964 1.227 . S
N966 Co963 2.121 . S
N966 C968 1.375 . S
N966 C969 1.313 1_556 S
C967 C968 1.338 1_554 S
C967 N970 1.377 . S
C967 H987 0.930 . S
C968 N966 1.375 . S
C968 C967 1.338 1_556 S
C968 H972 0.931 . S
C969 N966 1.313 1_554 S
C969 N970 1.344 . S
C969 H973 0.930 . S
N970 C967 1.377 . S
N970 C969 1.344 . S
O971 Co963 2.055 . S
O971 C975 1.245 1_556 S
H972 C968 0.931 . S
H973 C969 0.930 . S
O974 Co963 2.039 . S
O974 C964 1.265 . S
C975 O971 1.245 1_554 S
C975 O976 1.229 . S
O976 C975 1.229 . S
N977 Co963 2.140 . S
N977 C980 1.346 . S
N977 C981 1.345 . S
C978 C979 1.387 . S
C978 C982 1.391 . S
C979 C978 1.387 . S
C979 C980 1.369 . S
C979 H988 0.929 . S
C980 N977 1.346 . S
C980 C979 1.369 . S
C980 H983 0.928 . S
C981 N977 1.345 . S
C981 C982 1.371 . S
C981 H984 0.931 1_556 S
C982 C978 1.391 . S
C982 C981 1.371 . S
C982 H989 0.930 1_556 S
H983 C980 0.928 . S
H984 C981 0.931 1_554 S
H985 C961 0.930 . S
H986 C958 0.930 . S
H987 C967 0.930 . S
H988 C979 0.929 . S
H989 C982 0.930 1_554 S
C990 C991 1.351 . S
C990 N993 1.368 . S
C990 H995 0.931 . S
C991 C990 1.351 . S
C991 N992 1.373 . S
C991 H1019 0.930 . S
N992 C991 1.373 . S
N992 C994 1.340 . S
N993 C990 1.368 . S
N993 C994 1.321 . S
N993 Co996 2.135 . S
C994 N992 1.340 . S
C994 N993 1.321 . S
C994 H1018 0.930 . S
H995 C990 0.931 . S
Co996 N993 2.135 . S
Co996 N999 2.121 . S
Co996 O1004 2.055 . S
Co996 O1007 2.039 . S
Co996 N1010 2.140 . S
C997 O998 1.227 . S
C997 O1007 1.265 . S
O998 C997 1.227 . S
N999 Co996 2.121 . S
N999 C1001 1.375 . S
N999 C1002 1.313 . S
C1000 C1001 1.338 . S
C1000 N1003 1.377 . S
C1000 H1020 0.930 . S
C1001 N999 1.375 . S
C1001 C1000 1.338 . S
C1001 H1005 0.931 . S
C1002 N999 1.313 . S
C1002 N1003 1.344 . S
C1002 H1006 0.930 . S
N1003 C1000 1.377 . S
N1003 C1002 1.344 . S
O1004 Co996 2.055 . S
O1004 C1008 1.253 . S
H1005 C1001 0.931 . S
H1006 C1002 0.930 . S
O1007 Co996 2.039 . S
O1007 C997 1.265 . S
C1008 O1004 1.253 . S
C1008 O1009 1.227 . S
O1009 C1008 1.227 . S
N1010 Co996 2.140 . S
N1010 C1013 1.346 . S
N1010 C1014 1.345 . S
C1011 C1012 1.387 . S
C1011 C1015 1.391 . S
C1012 C1011 1.387 . S
C1012 C1013 1.369 . S
C1012 H1021 0.929 . S
C1013 N1010 1.346 . S
C1013 C1012 1.369 . S
C1013 H1016 0.928 . S
C1014 N1010 1.345 . S
C1014 C1015 1.371 . S
C1014 H1017 0.931 . S
C1015 C1011 1.391 . S
C1015 C1014 1.371 . S
C1015 H1022 0.930 . S
H1016 C1013 0.928 . S
H1017 C1014 0.931 . S
H1018 C994 0.930 . S
H1019 C991 0.930 . S
H1020 C1000 0.930 . S
H1021 C1012 0.929 . S
H1022 C1015 0.930 . S
C1023 C1024 1.351 . S
C1023 N1026 1.368 . S
C1023 H1028 0.931 . S
C1024 C1023 1.351 . S
C1024 N1025 1.373 . S
C1024 H1052 0.930 . S
N1025 C1024 1.373 . S
N1025 C1027 1.340 . S
N1026 C1023 1.368 . S
N1026 C1027 1.321 . S
N1026 Co1029 2.135 . S
C1027 N1025 1.340 . S
C1027 N1026 1.321 . S
C1027 H1051 0.930 . S
H1028 C1023 0.931 . S
Co1029 N1026 2.135 . S
Co1029 N1032 2.121 . S
Co1029 O1037 2.055 . S
Co1029 O1040 2.039 . S
Co1029 N1043 2.140 . S
C1030 O1031 1.227 . S
C1030 O1040 1.265 . S
O1031 C1030 1.227 . S
N1032 Co1029 2.121 . S
N1032 C1034 1.375 . S
N1032 C1035 1.313 . S
C1033 C1034 1.338 . S
C1033 N1036 1.377 . S
C1033 H1053 0.930 . S
C1034 N1032 1.375 . S
C1034 C1033 1.338 . S
C1034 H1038 0.931 . S
C1035 N1032 1.313 . S
C1035 N1036 1.344 . S
C1035 H1039 0.930 . S
N1036 C1033 1.377 . S
N1036 C1035 1.344 . S
O1037 Co1029 2.055 . S
O1037 C1041 1.253 . S
H1038 C1034 0.931 . S
H1039 C1035 0.930 . S
O1040 Co1029 2.039 . S
O1040 C1030 1.265 . S
C1041 O1037 1.253 . S
C1041 O1042 1.227 . S
O1042 C1041 1.227 . S
N1043 Co1029 2.140 . S
N1043 C1046 1.346 . S
N1043 C1047 1.345 . S
C1044 C1045 1.387 . S
C1044 C1048 1.391 . S
C1045 C1044 1.387 . S
C1045 C1046 1.369 . S
C1045 H1054 0.929 . S
C1046 N1043 1.346 . S
C1046 C1045 1.369 . S
C1046 H1049 0.928 . S
C1047 N1043 1.345 . S
C1047 C1048 1.371 . S
C1047 H1050 0.931 . S
C1048 C1044 1.391 . S
C1048 C1047 1.371 . S
C1048 H1055 0.930 . S
H1049 C1046 0.928 . S
H1050 C1047 0.931 . S
H1051 C1027 0.930 . S
H1052 C1024 0.930 . S
H1053 C1033 0.930 . S
H1054 C1045 0.929 . S
H1055 C1048 0.930 . S
C1056 C1057 1.351 . S
C1056 N1059 1.368 . S
C1056 H1061 0.931 . S
C1057 C1056 1.351 . S
C1057 N1058 1.373 . S
C1057 H1085 0.930 . S
N1058 C1057 1.373 . S
N1058 C1060 1.340 . S
N1059 C1056 1.368 . S
N1059 C1060 1.321 . S
N1059 Co1062 2.135 . S
C1060 N1058 1.340 . S
C1060 N1059 1.321 . S
C1060 H1084 0.930 . S
H1061 C1056 0.931 . S
Co1062 N1059 2.135 . S
Co1062 N1065 2.121 . S
Co1062 O1070 2.055 . S
Co1062 O1073 2.039 . S
Co1062 N1076 2.140 . S
C1063 O1064 1.227 . S
C1063 O1073 1.265 . S
O1064 C1063 1.227 . S
N1065 Co1062 2.121 . S
N1065 C1067 1.375 . S
N1065 C1068 1.313 . S
C1066 C1067 1.338 . S
C1066 N1069 1.377 . S
C1066 H1086 0.930 . S
C1067 N1065 1.375 . S
C1067 C1066 1.338 . S
C1067 H1071 0.931 . S
C1068 N1065 1.313 . S
C1068 N1069 1.344 . S
C1068 H1072 0.930 . S
N1069 C1066 1.377 . S
N1069 C1068 1.344 . S
O1070 Co1062 2.055 . S
O1070 C1074 1.253 . S
H1071 C1067 0.931 . S
H1072 C1068 0.930 . S
O1073 Co1062 2.039 . S
O1073 C1063 1.265 . S
C1074 O1070 1.253 . S
C1074 O1075 1.227 . S
O1075 C1074 1.227 . S
N1076 Co1062 2.140 . S
N1076 C1079 1.346 . S
N1076 C1080 1.345 . S
C1077 C1078 1.387 . S
C1077 C1081 1.391 . S
C1078 C1077 1.387 . S
C1078 C1079 1.369 . S
C1078 H1087 0.929 . S
C1079 N1076 1.346 . S
C1079 C1078 1.369 . S
C1079 H1082 0.928 . S
C1080 N1076 1.345 . S
C1080 C1081 1.371 . S
C1080 H1083 0.931 . S
C1081 C1077 1.391 . S
C1081 C1080 1.371 . S
C1081 H1088 0.930 . S
H1082 C1079 0.928 . S
H1083 C1080 0.931 . S
H1084 C1060 0.930 . S
H1085 C1057 0.930 . S
H1086 C1066 0.930 . S
H1087 C1078 0.929 . S
H1088 C1081 0.930 . S
C1089 C1090 1.351 . S
C1089 N1092 1.368 . S
C1089 H1094 0.931 . S
C1090 C1089 1.351 . S
C1090 N1091 1.373 . S
C1090 H1118 0.930 . S
N1091 C1090 1.373 . S
N1091 C1093 1.340 . S
N1092 C1089 1.368 . S
N1092 C1093 1.321 . S
N1092 Co1095 2.135 . S
C1093 N1091 1.340 . S
C1093 N1092 1.321 . S
C1093 H1117 0.930 . S
H1094 C1089 0.931 . S
Co1095 N1092 2.135 . S
Co1095 N1098 2.121 . S
Co1095 O1103 2.055 . S
Co1095 O1106 2.039 . S
Co1095 N1109 2.140 . S
C1096 O1097 1.227 . S
C1096 O1106 1.265 . S
O1097 C1096 1.227 . S
N1098 Co1095 2.121 . S
N1098 C1100 1.375 . S
N1098 C1101 1.313 . S
C1099 C1100 1.338 . S
C1099 N1102 1.377 . S
C1099 H1119 0.930 . S
C1100 N1098 1.375 . S
C1100 C1099 1.338 . S
C1100 H1104 0.931 . S
C1101 N1098 1.313 . S
C1101 N1102 1.344 . S
C1101 H1105 0.930 . S
N1102 C1099 1.377 . S
N1102 C1101 1.344 . S
O1103 Co1095 2.055 . S
O1103 C1107 1.253 . S
H1104 C1100 0.931 . S
H1105 C1101 0.930 . S
O1106 Co1095 2.039 . S
O1106 C1096 1.265 . S
C1107 O1103 1.253 . S
C1107 O1108 1.227 . S
O1108 C1107 1.227 . S
N1109 Co1095 2.140 . S
N1109 C1112 1.346 . S
N1109 C1113 1.345 . S
C1110 C1111 1.387 . S
C1110 C1114 1.391 . S
C1111 C1110 1.387 . S
C1111 C1112 1.369 . S
C1111 H1120 0.929 . S
C1112 N1109 1.346 . S
C1112 C1111 1.369 . S
C1112 H1115 0.928 . S
C1113 N1109 1.345 . S
C1113 C1114 1.371 . S
C1113 H1116 0.931 . S
C1114 C1110 1.391 . S
C1114 C1113 1.371 . S
C1114 H1121 0.930 . S
H1115 C1112 0.928 . S
H1116 C1113 0.931 . S
H1117 C1093 0.930 . S
H1118 C1090 0.930 . S
H1119 C1099 0.930 . S
H1120 C1111 0.929 . S
H1121 C1114 0.930 . S
C1122 C1123 1.351 . S
C1122 N1125 1.368 . S
C1122 H1127 0.931 . S
C1123 C1122 1.351 . S
C1123 N1124 1.373 . S
C1123 H1151 0.930 . S
N1124 C1123 1.373 . S
N1124 C1126 1.340 . S
N1125 C1122 1.368 . S
N1125 C1126 1.321 . S
N1125 Co1128 2.135 . S
C1126 N1124 1.340 . S
C1126 N1125 1.321 . S
C1126 H1150 0.930 . S
H1127 C1122 0.931 . S
Co1128 N1125 2.135 . S
Co1128 N1131 2.121 . S
Co1128 O1136 2.055 . S
Co1128 O1139 2.039 . S
Co1128 N1142 2.140 . S
C1129 O1130 1.227 . S
C1129 O1139 1.265 . S
O1130 C1129 1.227 . S
N1131 Co1128 2.121 . S
N1131 C1133 1.375 . S
N1131 C1134 1.313 . S
C1132 C1133 1.338 . S
C1132 N1135 1.377 . S
C1132 H1152 0.930 . S
C1133 N1131 1.375 . S
C1133 C1132 1.338 . S
C1133 H1137 0.931 . S
C1134 N1131 1.313 . S
C1134 N1135 1.344 . S
C1134 H1138 0.930 . S
N1135 C1132 1.377 . S
N1135 C1134 1.344 . S
O1136 Co1128 2.055 . S
O1136 C1140 1.253 . S
H1137 C1133 0.931 . S
H1138 C1134 0.930 . S
O1139 Co1128 2.039 . S
O1139 C1129 1.265 . S
C1140 O1136 1.253 . S
C1140 O1141 1.227 . S
O1141 C1140 1.227 . S
N1142 Co1128 2.140 . S
N1142 C1145 1.346 . S
N1142 C1146 1.345 . S
C1143 C1144 1.387 . S
C1143 C1147 1.391 . S
C1144 C1143 1.387 . S
C1144 C1145 1.369 . S
C1144 H1153 0.929 . S
C1145 N1142 1.346 . S
C1145 C1144 1.369 . S
C1145 H1148 0.928 . S
C1146 N1142 1.345 . S
C1146 C1147 1.371 . S
C1146 H1149 0.931 . S
C1147 C1143 1.391 . S
C1147 C1146 1.371 . S
C1147 H1154 0.930 . S
H1148 C1145 0.928 . S
H1149 C1146 0.931 . S
H1150 C1126 0.930 . S
H1151 C1123 0.930 . S
H1152 C1132 0.930 . S
H1153 C1144 0.929 . S
H1154 C1147 0.930 . S
C1155 C1156 1.351 . S
C1155 N1158 1.368 . S
C1155 H1160 0.931 . S
C1156 C1155 1.351 . S
C1156 N1157 1.373 . S
C1156 H1184 0.930 . S
N1157 C1156 1.373 . S
N1157 C1159 1.340 . S
N1158 C1155 1.368 . S
N1158 C1159 1.321 . S
N1158 Co1161 2.135 . S
C1159 N1157 1.340 . S
C1159 N1158 1.321 . S
C1159 H1183 0.930 . S
H1160 C1155 0.931 . S
Co1161 N1158 2.135 . S
Co1161 N1164 2.121 . S
Co1161 O1169 2.055 . S
Co1161 O1172 2.039 . S
Co1161 N1175 2.140 . S
C1162 O1163 1.227 . S
C1162 O1172 1.265 . S
O1163 C1162 1.227 . S
N1164 Co1161 2.121 . S
N1164 C1166 1.375 . S
N1164 C1167 1.313 . S
C1165 C1166 1.338 . S
C1165 N1168 1.377 . S
C1165 H1185 0.930 . S
C1166 N1164 1.375 . S
C1166 C1165 1.338 . S
C1166 H1170 0.931 . S
C1167 N1164 1.313 . S
C1167 N1168 1.344 . S
C1167 H1171 0.930 . S
N1168 C1165 1.377 . S
N1168 C1167 1.344 . S
O1169 Co1161 2.055 . S
O1169 C1173 1.253 . S
H1170 C1166 0.931 . S
H1171 C1167 0.930 . S
O1172 Co1161 2.039 . S
O1172 C1162 1.265 . S
C1173 O1169 1.253 . S
C1173 O1174 1.227 . S
O1174 C1173 1.227 . S
N1175 Co1161 2.140 . S
N1175 C1178 1.346 . S
N1175 C1179 1.345 . S
C1176 C1177 1.387 . S
C1176 C1180 1.391 . S
C1177 C1176 1.387 . S
C1177 C1178 1.369 . S
C1177 H1186 0.929 . S
C1178 N1175 1.346 . S
C1178 C1177 1.369 . S
C1178 H1181 0.928 . S
C1179 N1175 1.345 . S
C1179 C1180 1.371 . S
C1179 H1182 0.931 . S
C1180 C1176 1.391 . S
C1180 C1179 1.371 . S
C1180 H1187 0.930 . S
H1181 C1178 0.928 . S
H1182 C1179 0.931 . S
H1183 C1159 0.930 . S
H1184 C1156 0.930 . S
H1185 C1165 0.930 . S
H1186 C1177 0.929 . S
H1187 C1180 0.930 . S
C1188 C1189 1.363 . S
C1188 C1194 1.379 . S
C1188 N1196 1.356 . S
C1189 C1188 1.363 . S
C1189 C1195 1.363 . S
C1190 C1191 1.363 . S
C1190 C1195 1.379 . S
C1190 N1197 1.356 . S
C1191 C1190 1.363 . S
C1191 C1194 1.363 . S
N1192 C1194 1.356 . S
N1192 H1204 0.984 . S
N1192 H1205 0.985 . S
N1193 C1195 1.356 . S
N1193 H1198 0.984 . S
N1193 H1199 0.985 . S
C1194 C1188 1.379 . S
C1194 C1191 1.363 . S
C1194 N1192 1.356 . S
C1195 C1189 1.363 . S
C1195 C1190 1.379 . S
C1195 N1193 1.356 . S
N1196 C1188 1.356 . S
N1196 H1202 0.984 . S
N1196 H1203 0.984 . S
N1197 C1190 1.356 . S
N1197 H1200 0.984 . S
N1197 H1201 0.985 . S
H1198 N1193 0.984 . S
H1199 N1193 0.985 . S
H1200 N1197 0.984 . S
H1201 N1197 0.985 . S
H1202 N1196 0.984 . S
H1203 N1196 0.984 . S
H1204 N1192 0.984 . S
H1205 N1192 0.985 . S
C1206 C1207 1.363 . S
C1206 C1212 1.379 . S
C1206 N1214 1.356 . S
C1207 C1206 1.363 . S
C1207 C1213 1.363 . S
C1208 C1209 1.363 . S
C1208 C1213 1.379 . S
C1208 N1215 1.356 . S
C1209 C1208 1.363 . S
C1209 C1212 1.363 . S
N1210 C1212 1.356 . S
N1210 H1222 0.984 . S
N1210 H1223 0.985 . S
N1211 C1213 1.356 . S
N1211 H1216 0.984 . S
N1211 H1217 0.985 . S
C1212 C1206 1.379 . S
C1212 C1209 1.363 . S
C1212 N1210 1.356 . S
C1213 C1207 1.363 . S
C1213 C1208 1.379 . S
C1213 N1211 1.356 . S
N1214 C1206 1.356 . S
N1214 H1220 0.984 . S
N1214 H1221 0.984 . S
N1215 C1208 1.356 . S
N1215 H1218 0.984 . S
N1215 H1219 0.985 . S
H1216 N1211 0.984 . S
H1217 N1211 0.985 . S
H1218 N1215 0.984 . S
H1219 N1215 0.985 . S
H1220 N1214 0.984 . S
H1221 N1214 0.984 . S
H1222 N1210 0.984 . S
H1223 N1210 0.985 . S
C1224 C1225 1.363 . S
C1224 C1230 1.379 . S
C1224 N1232 1.356 . S
C1225 C1224 1.363 . S
C1225 C1231 1.363 . S
C1226 C1227 1.363 . S
C1226 C1231 1.379 . S
C1226 N1233 1.356 . S
C1227 C1226 1.363 . S
C1227 C1230 1.363 . S
N1228 C1230 1.356 . S
N1228 H1240 0.984 . S
N1228 H1241 0.985 . S
N1229 C1231 1.356 . S
N1229 H1234 0.984 . S
N1229 H1235 0.985 . S
C1230 C1224 1.379 . S
C1230 C1227 1.363 . S
C1230 N1228 1.356 . S
C1231 C1225 1.363 . S
C1231 C1226 1.379 . S
C1231 N1229 1.356 . S
N1232 C1224 1.356 . S
N1232 H1238 0.984 . S
N1232 H1239 0.984 . S
N1233 C1226 1.356 . S
N1233 H1236 0.984 . S
N1233 H1237 0.985 . S
H1234 N1229 0.984 . S
H1235 N1229 0.985 . S
H1236 N1233 0.984 . S
H1237 N1233 0.985 . S
H1238 N1232 0.984 . S
H1239 N1232 0.984 . S
H1240 N1228 0.984 . S
H1241 N1228 0.985 . S
C1242 C1243 1.363 . S
C1242 C1248 1.379 . S
C1242 N1250 1.356 . S
C1243 C1242 1.363 . S
C1243 C1249 1.363 . S
C1244 C1245 1.363 . S
C1244 C1249 1.379 . S
C1244 N1251 1.356 . S
C1245 C1244 1.363 . S
C1245 C1248 1.363 . S
N1246 C1248 1.356 . S
N1246 H1258 0.984 . S
N1246 H1259 0.985 . S
N1247 C1249 1.356 . S
N1247 H1252 0.984 . S
N1247 H1253 0.985 . S
C1248 C1242 1.379 . S
C1248 C1245 1.363 . S
C1248 N1246 1.356 . S
C1249 C1243 1.363 . S
C1249 C1244 1.379 . S
C1249 N1247 1.356 . S
N1250 C1242 1.356 . S
N1250 H1256 0.984 . S
N1250 H1257 0.984 . S
N1251 C1244 1.356 . S
N1251 H1254 0.984 . S
N1251 H1255 0.985 . S
H1252 N1247 0.984 . S
H1253 N1247 0.985 . S
H1254 N1251 0.984 . S
H1255 N1251 0.985 . S
H1256 N1250 0.984 . S
H1257 N1250 0.984 . S
H1258 N1246 0.984 . S
H1259 N1246 0.985 . S
C1260 C1261 1.363 . S
C1260 C1266 1.379 . S
C1260 N1268 1.356 . S
C1261 C1260 1.363 . S
C1261 C1267 1.363 . S
C1262 C1263 1.363 . S
C1262 C1267 1.379 . S
C1262 N1269 1.356 . S
C1263 C1262 1.363 . S
C1263 C1266 1.363 . S
N1264 C1266 1.356 . S
N1264 H1276 0.984 . S
N1264 H1277 0.985 . S
N1265 C1267 1.356 . S
N1265 H1270 0.984 . S
N1265 H1271 0.985 . S
C1266 C1260 1.379 . S
C1266 C1263 1.363 . S
C1266 N1264 1.356 . S
C1267 C1261 1.363 . S
C1267 C1262 1.379 . S
C1267 N1265 1.356 . S
N1268 C1260 1.356 . S
N1268 H1274 0.984 . S
N1268 H1275 0.984 . S
N1269 C1262 1.356 . S
N1269 H1272 0.984 . S
N1269 H1273 0.985 . S
H1270 N1265 0.984 . S
H1271 N1265 0.985 . S
H1272 N1269 0.984 . S
H1273 N1269 0.985 . S
H1274 N1268 0.984 . S
H1275 N1268 0.984 . S
H1276 N1264 0.984 . S
H1277 N1264 0.985 . S
C1278 C1279 1.363 . S
C1278 C1284 1.379 . S
C1278 N1286 1.356 . S
C1279 C1278 1.363 . S
C1279 C1285 1.363 . S
C1280 C1281 1.363 . S
C1280 C1285 1.379 . S
C1280 N1287 1.356 . S
C1281 C1280 1.363 . S
C1281 C1284 1.363 . S
N1282 C1284 1.356 . S
N1282 H1294 0.984 . S
N1282 H1295 0.985 . S
N1283 C1285 1.356 . S
N1283 H1288 0.984 . S
N1283 H1289 0.985 . S
C1284 C1278 1.379 . S
C1284 C1281 1.363 . S
C1284 N1282 1.356 . S
C1285 C1279 1.363 . S
C1285 C1280 1.379 . S
C1285 N1283 1.356 . S
N1286 C1278 1.356 . S
N1286 H1292 0.984 . S
N1286 H1293 0.984 . S
N1287 C1280 1.356 . S
N1287 H1290 0.984 . S
N1287 H1291 0.985 . S
H1288 N1283 0.984 . S
H1289 N1283 0.985 . S
H1290 N1287 0.984 . S
H1291 N1287 0.985 . S
H1292 N1286 0.984 . S
H1293 N1286 0.984 . S
H1294 N1282 0.984 . S
H1295 N1282 0.985 . S
C1296 C1297 1.363 . S
C1296 C1302 1.379 . S
C1296 N1304 1.356 . S
C1297 C1296 1.363 . S
C1297 C1303 1.363 . S
C1298 C1299 1.363 . S
C1298 C1303 1.379 . S
C1298 N1305 1.356 . S
C1299 C1298 1.363 . S
C1299 C1302 1.363 . S
N1300 C1302 1.356 . S
N1300 H1312 0.984 . S
N1300 H1313 0.985 . S
N1301 C1303 1.356 . S
N1301 H1306 0.984 . S
N1301 H1307 0.985 . S
C1302 C1296 1.379 . S
C1302 C1299 1.363 . S
C1302 N1300 1.356 . S
C1303 C1297 1.363 . S
C1303 C1298 1.379 . S
C1303 N1301 1.356 . S
N1304 C1296 1.356 . S
N1304 H1310 0.984 . S
N1304 H1311 0.984 . S
N1305 C1298 1.356 . S
N1305 H1308 0.984 . S
N1305 H1309 0.985 . S
H1306 N1301 0.984 . S
H1307 N1301 0.985 . S
H1308 N1305 0.984 . S
H1309 N1305 0.985 . S
H1310 N1304 0.984 . S
H1311 N1304 0.984 . S
H1312 N1300 0.984 . S
H1313 N1300 0.985 . S
C1314 C1315 1.363 . S
C1314 C1320 1.379 . S
C1314 N1322 1.356 . S
C1315 C1314 1.363 . S
C1315 C1321 1.363 . S
C1316 C1317 1.363 . S
C1316 C1321 1.379 . S
C1316 N1323 1.356 . S
C1317 C1316 1.363 . S
C1317 C1320 1.363 . S
N1318 C1320 1.356 . S
N1318 H1330 0.984 . S
N1318 H1331 0.985 . S
N1319 C1321 1.356 . S
N1319 H1324 0.984 . S
N1319 H1325 0.985 . S
C1320 C1314 1.379 . S
C1320 C1317 1.363 . S
C1320 N1318 1.356 . S
C1321 C1315 1.363 . S
C1321 C1316 1.379 . S
C1321 N1319 1.356 . S
N1322 C1314 1.356 . S
N1322 H1328 0.984 . S
N1322 H1329 0.984 . S
N1323 C1316 1.356 . S
N1323 H1326 0.984 . S
N1323 H1327 0.985 . S
H1324 N1319 0.984 . S
H1325 N1319 0.985 . S
H1326 N1323 0.984 . S
H1327 N1323 0.985 . S
H1328 N1322 0.984 . S
H1329 N1322 0.984 . S
H1330 N1318 0.984 . S
H1331 N1318 0.985 . S
C1332 C1333 1.363 . S
C1332 C1338 1.379 . S
C1332 N1340 1.356 . S
C1333 C1332 1.363 . S
C1333 C1339 1.363 . S
C1334 C1335 1.363 . S
C1334 C1339 1.379 . S
C1334 N1341 1.356 . S
C1335 C1334 1.363 . S
C1335 C1338 1.363 . S
N1336 C1338 1.356 . S
N1336 H1348 0.984 . S
N1336 H1349 0.985 . S
N1337 C1339 1.356 . S
N1337 H1342 0.984 . S
N1337 H1343 0.985 . S
C1338 C1332 1.379 . S
C1338 C1335 1.363 . S
C1338 N1336 1.356 . S
C1339 C1333 1.363 . S
C1339 C1334 1.379 . S
C1339 N1337 1.356 . S
N1340 C1332 1.356 . S
N1340 H1346 0.984 . S
N1340 H1347 0.984 . S
N1341 C1334 1.356 . S
N1341 H1344 0.984 . S
N1341 H1345 0.985 . S
H1342 N1337 0.984 . S
H1343 N1337 0.985 . S
H1344 N1341 0.984 . S
H1345 N1341 0.985 . S
H1346 N1340 0.984 . S
H1347 N1340 0.984 . S
H1348 N1336 0.984 . S
H1349 N1336 0.985 . S
C1350 C1351 1.363 . S
C1350 C1356 1.379 . S
C1350 N1358 1.356 . S
C1351 C1350 1.363 . S
C1351 C1357 1.363 . S
C1352 C1353 1.363 . S
C1352 C1357 1.379 . S
C1352 N1359 1.356 . S
C1353 C1352 1.363 . S
C1353 C1356 1.363 . S
N1354 C1356 1.356 . S
N1354 H1366 0.984 . S
N1354 H1367 0.985 . S
N1355 C1357 1.356 . S
N1355 H1360 0.984 . S
N1355 H1361 0.985 . S
C1356 C1350 1.379 . S
C1356 C1353 1.363 . S
C1356 N1354 1.356 . S
C1357 C1351 1.363 . S
C1357 C1352 1.379 . S
C1357 N1355 1.356 . S
N1358 C1350 1.356 . S
N1358 H1364 0.984 . S
N1358 H1365 0.984 . S
N1359 C1352 1.356 . S
N1359 H1362 0.984 . S
N1359 H1363 0.985 . S
H1360 N1355 0.984 . S
H1361 N1355 0.985 . S
H1362 N1359 0.984 . S
H1363 N1359 0.985 . S
H1364 N1358 0.984 . S
H1365 N1358 0.984 . S
H1366 N1354 0.984 . S
H1367 N1354 0.985 . S
C1368 C1369 1.363 . S
C1368 C1374 1.379 . S
C1368 N1376 1.356 . S
C1369 C1368 1.363 . S
C1369 C1375 1.363 . S
C1370 C1371 1.363 . S
C1370 C1375 1.379 . S
C1370 N1377 1.356 . S
C1371 C1370 1.363 . S
C1371 C1374 1.363 . S
N1372 C1374 1.356 . S
N1372 H1384 0.984 . S
N1372 H1385 0.985 . S
N1373 C1375 1.356 . S
N1373 H1378 0.984 . S
N1373 H1379 0.985 . S
C1374 C1368 1.379 . S
C1374 C1371 1.363 . S
C1374 N1372 1.356 . S
C1375 C1369 1.363 . S
C1375 C1370 1.379 . S
C1375 N1373 1.356 . S
N1376 C1368 1.356 . S
N1376 H1382 0.984 . S
N1376 H1383 0.984 . S
N1377 C1370 1.356 . S
N1377 H1380 0.984 . S
N1377 H1381 0.985 . S
H1378 N1373 0.984 . S
H1379 N1373 0.985 . S
H1380 N1377 0.984 . S
H1381 N1377 0.985 . S
H1382 N1376 0.984 . S
H1383 N1376 0.984 . S
H1384 N1372 0.984 . S
H1385 N1372 0.985 . S
C1386 C1387 1.363 . S
C1386 C1392 1.379 . S
C1386 N1394 1.356 . S
C1387 C1386 1.363 . S
C1387 C1393 1.363 . S
C1388 C1389 1.363 . S
C1388 C1393 1.379 . S
C1388 N1395 1.356 . S
C1389 C1388 1.363 . S
C1389 C1392 1.363 . S
N1390 C1392 1.356 . S
N1390 H1402 0.984 . S
N1390 H1403 0.985 . S
N1391 C1393 1.356 . S
N1391 H1396 0.984 . S
N1391 H1397 0.985 . S
C1392 C1386 1.379 . S
C1392 C1389 1.363 . S
C1392 N1390 1.356 . S
C1393 C1387 1.363 . S
C1393 C1388 1.379 . S
C1393 N1391 1.356 . S
N1394 C1386 1.356 . S
N1394 H1400 0.984 . S
N1394 H1401 0.984 . S
N1395 C1388 1.356 . S
N1395 H1398 0.984 . S
N1395 H1399 0.985 . S
H1396 N1391 0.984 . S
H1397 N1391 0.985 . S
H1398 N1395 0.984 . S
H1399 N1395 0.985 . S
H1400 N1394 0.984 . S
H1401 N1394 0.984 . S
H1402 N1390 0.984 . S
H1403 N1390 0.985 . S
C1404 C1405 1.363 . S
C1404 C1410 1.379 1_455 S
C1404 N1412 1.356 . S
C1405 C1404 1.363 . S
C1405 C1411 1.363 . S
C1406 C1407 1.363 . S
C1406 C1411 1.379 1_655 S
C1406 N1413 1.356 . S
C1407 C1406 1.363 . S
C1407 C1410 1.363 . S
N1408 C1410 1.356 . S
N1408 H1420 0.984 . S
N1408 H1421 0.985 . S
N1409 C1411 1.356 . S
N1409 H1414 0.984 . S
N1409 H1415 0.985 . S
C1410 C1404 1.379 1_655 S
C1410 C1407 1.363 . S
C1410 N1408 1.356 . S
C1411 C1405 1.363 . S
C1411 C1406 1.379 1_455 S
C1411 N1409 1.356 . S
N1412 C1404 1.356 . S
N1412 H1418 0.984 . S
N1412 H1419 0.984 . S
N1413 C1406 1.356 . S
N1413 H1416 0.984 . S
N1413 H1417 0.985 . S
H1414 N1409 0.984 . S
H1415 N1409 0.985 . S
H1416 N1413 0.984 . S
H1417 N1413 0.985 . S
H1418 N1412 0.984 . S
H1419 N1412 0.984 . S
H1420 N1408 0.984 . S
H1421 N1408 0.985 . S
C1422 C1423 1.363 . S
C1422 C1428 1.379 . S
C1422 N1430 1.356 . S
C1423 C1422 1.363 . S
C1423 C1429 1.363 . S
C1424 C1425 1.363 . S
C1424 C1429 1.379 . S
C1424 N1431 1.356 . S
C1425 C1424 1.363 . S
C1425 C1428 1.363 . S
N1426 C1428 1.356 . S
N1426 H1438 0.984 . S
N1426 H1439 0.985 . S
N1427 C1429 1.356 . S
N1427 H1432 0.984 . S
N1427 H1433 0.985 . S
C1428 C1422 1.379 . S
C1428 C1425 1.363 . S
C1428 N1426 1.356 . S
C1429 C1423 1.363 . S
C1429 C1424 1.379 . S
C1429 N1427 1.356 . S
N1430 C1422 1.356 . S
N1430 H1436 0.984 . S
N1430 H1437 0.984 . S
N1431 C1424 1.356 . S
N1431 H1434 0.984 . S
N1431 H1435 0.985 . S
H1432 N1427 0.984 . S
H1433 N1427 0.985 . S
H1434 N1431 0.984 . S
H1435 N1431 0.985 . S
H1436 N1430 0.984 . S
H1437 N1430 0.984 . S
H1438 N1426 0.984 . S
H1439 N1426 0.985 . S
C1440 C1441 1.363 . S
C1440 C1446 1.379 1_545 S
C1440 N1448 1.356 . S
C1441 C1440 1.363 . S
C1441 C1447 1.363 . S
C1442 C1443 1.363 . S
C1442 C1447 1.379 1_565 S
C1442 N1449 1.356 . S
C1443 C1442 1.363 . S
C1443 C1446 1.363 . S
N1444 C1446 1.356 . S
N1444 H1456 0.984 . S
N1444 H1457 0.985 . S
N1445 C1447 1.356 . S
N1445 H1450 0.984 . S
N1445 H1451 0.985 . S
C1446 C1440 1.379 1_565 S
C1446 C1443 1.363 . S
C1446 N1444 1.356 . S
C1447 C1441 1.363 . S
C1447 C1442 1.379 1_545 S
C1447 N1445 1.356 . S
N1448 C1440 1.356 . S
N1448 H1454 0.984 . S
N1448 H1455 0.984 . S
N1449 C1442 1.356 . S
N1449 H1452 0.984 . S
N1449 H1453 0.985 . S
H1450 N1445 0.984 . S
H1451 N1445 0.985 . S
H1452 N1449 0.984 . S
H1453 N1449 0.985 . S
H1454 N1448 0.984 . S
H1455 N1448 0.984 . S
H1456 N1444 0.984 . S
H1457 N1444 0.985 . S
C1458 C1459 1.363 1_545 S
C1458 C1464 1.379 . S
C1458 N1466 1.322 1_545 S
C1459 C1458 1.363 1_565 S
C1459 C1465 1.363 1_554 S
C1460 C1461 1.363 1_565 S
C1460 C1465 1.379 . S
C1460 N1467 1.322 1_565 S
C1461 C1460 1.363 1_545 S
C1461 C1464 1.363 1_556 S
N1462 C1464 1.356 . S
N1462 H1474 0.984 . S
N1462 H1475 0.985 . S
N1463 C1465 1.356 . S
N1463 H1468 0.984 . S
N1463 H1469 0.985 . S
C1464 C1458 1.379 . S
C1464 C1461 1.363 1_554 S
C1464 N1462 1.356 . S
C1465 C1459 1.363 1_556 S
C1465 C1460 1.379 . S
C1465 N1463 1.356 . S
N1466 C1458 1.322 1_565 S
N1466 H1472 0.952 1_565 S
N1466 H1473 1.054 . S
N1467 C1460 1.322 1_545 S
N1467 H1470 1.054 . S
N1467 H1471 0.952 1_545 S
H1468 N1463 0.984 . S
H1469 N1463 0.985 . S
H1470 N1467 1.054 . S
H1471 N1467 0.952 1_565 S
H1472 N1466 0.952 1_545 S
H1473 N1466 1.054 . S
H1474 N1462 0.984 . S
H1475 N1462 0.985 . S
C1476 C1477 1.344 1_455 S
C1476 C1482 1.388 . S
C1476 N1484 1.361 1_455 S
C1477 C1476 1.344 1_655 S
C1477 C1483 1.363 1_556 S
C1478 C1479 1.344 1_655 S
C1478 C1483 1.388 . S
C1478 N1485 1.361 1_655 S
C1479 C1478 1.344 1_455 S
C1479 C1482 1.363 1_554 S
N1480 C1482 1.356 . S
N1480 H1492 0.984 . S
N1480 H1493 0.985 . S
N1481 C1483 1.356 . S
N1481 H1486 0.984 . S
N1481 H1487 0.985 . S
C1482 C1476 1.388 . S
C1482 C1479 1.363 1_556 S
C1482 N1480 1.356 . S
C1483 C1477 1.363 1_554 S
C1483 C1478 1.388 . S
C1483 N1481 1.356 . S
N1484 C1476 1.361 1_655 S
N1484 H1490 0.984 1_655 S
N1484 H1491 0.984 . S
N1485 C1478 1.361 1_455 S
N1485 H1488 0.984 . S
N1485 H1489 0.985 1_455 S
H1486 N1481 0.984 . S
H1487 N1481 0.985 . S
H1488 N1485 0.984 . S
H1489 N1485 0.985 1_655 S
H1490 N1484 0.984 1_455 S
H1491 N1484 0.984 . S
H1492 N1480 0.984 . S
H1493 N1480 0.985 . S
C1494 C1495 1.363 . S
C1494 C1500 1.379 . S
C1494 N1502 1.356 . S
C1495 C1494 1.363 . S
C1495 C1501 1.363 1_556 S
C1496 C1497 1.363 . S
C1496 C1501 1.379 . S
C1496 N1503 1.356 . S
C1497 C1496 1.363 . S
C1497 C1500 1.363 1_554 S
N1498 C1500 1.356 . S
N1498 H1510 0.984 . S
N1498 H1511 0.985 . S
N1499 C1501 1.356 . S
N1499 H1504 0.984 . S
N1499 H1505 0.985 . S
C1500 C1494 1.379 . S
C1500 C1497 1.363 1_556 S
C1500 N1498 1.356 . S
C1501 C1495 1.363 1_554 S
C1501 C1496 1.379 . S
C1501 N1499 1.356 . S
N1502 C1494 1.356 . S
N1502 H1508 0.984 . S
N1502 H1509 0.984 . S
N1503 C1496 1.356 . S
N1503 H1506 0.984 . S
N1503 H1507 0.985 . S
H1504 N1499 0.984 . S
H1505 N1499 0.985 . S
H1506 N1503 0.984 . S
H1507 N1503 0.985 . S
H1508 N1502 0.984 . S
H1509 N1502 0.984 . S
H1510 N1498 0.984 . S
H1511 N1498 0.985 . S
C1512 C1513 1.363 . S
C1512 C1518 1.379 . S
C1512 N1520 1.356 . S
C1513 C1512 1.363 . S
C1513 C1519 1.363 . S
C1514 C1515 1.363 . S
C1514 C1519 1.379 . S
C1514 N1521 1.356 . S
C1515 C1514 1.363 . S
C1515 C1518 1.363 . S
N1516 C1518 1.356 . S
N1516 H1528 0.984 . S
N1516 H1529 0.985 . S
N1517 C1519 1.356 . S
N1517 H1522 0.984 . S
N1517 H1523 0.985 . S
C1518 C1512 1.379 . S
C1518 C1515 1.363 . S
C1518 N1516 1.356 . S
C1519 C1513 1.363 . S
C1519 C1514 1.379 . S
C1519 N1517 1.356 . S
N1520 C1512 1.356 . S
N1520 H1526 0.984 . S
N1520 H1527 0.984 . S
N1521 C1514 1.356 . S
N1521 H1524 0.984 . S
N1521 H1525 0.985 . S
H1522 N1517 0.984 . S
H1523 N1517 0.985 . S
H1524 N1521 0.984 . S
H1525 N1521 0.985 . S
H1526 N1520 0.984 . S
H1527 N1520 0.984 . S
H1528 N1516 0.984 . S
H1529 N1516 0.985 . S
C1530 C1531 1.363 . S
C1530 C1536 1.379 1_565 S
C1530 N1538 1.356 . S
C1531 C1530 1.363 . S
C1531 C1537 1.363 . S
C1532 C1533 1.363 . S
C1532 C1537 1.379 1_545 S
C1532 N1539 1.356 . S
C1533 C1532 1.363 . S
C1533 C1536 1.363 . S
N1534 C1536 1.356 . S
N1534 H1546 0.984 . S
N1534 H1547 0.985 . S
N1535 C1537 1.356 . S
N1535 H1540 0.984 . S
N1535 H1541 0.985 . S
C1536 C1530 1.379 1_545 S
C1536 C1533 1.363 . S
C1536 N1534 1.356 . S
C1537 C1531 1.363 . S
C1537 C1532 1.379 1_565 S
C1537 N1535 1.356 . S
N1538 C1530 1.356 . S
N1538 H1544 0.984 . S
N1538 H1545 0.984 . S
N1539 C1532 1.356 . S
N1539 H1542 0.984 . S
N1539 H1543 0.985 . S
H1540 N1535 0.984 . S
H1541 N1535 0.985 . S
H1542 N1539 0.984 . S
H1543 N1539 0.985 . S
H1544 N1538 0.984 . S
H1545 N1538 0.984 . S
H1546 N1534 0.984 . S
H1547 N1534 0.985 . S
C1548 C1549 1.363 . S
C1548 C1554 1.379 1_655 S
C1548 N1556 1.356 . S
C1549 C1548 1.363 . S
C1549 C1555 1.363 . S
C1550 C1551 1.363 . S
C1550 C1555 1.379 1_455 S
C1550 N1557 1.356 . S
C1551 C1550 1.363 . S
C1551 C1554 1.363 . S
N1552 C1554 1.356 . S
N1552 H1564 0.984 . S
N1552 H1565 0.985 . S
N1553 C1555 1.356 . S
N1553 H1558 0.984 . S
N1553 H1559 0.985 . S
C1554 C1548 1.379 1_455 S
C1554 C1551 1.363 . S
C1554 N1552 1.356 . S
C1555 C1549 1.363 . S
C1555 C1550 1.379 1_655 S
C1555 N1553 1.356 . S
N1556 C1548 1.356 . S
N1556 H1562 0.984 . S
N1556 H1563 0.984 . S
N1557 C1550 1.356 . S
N1557 H1560 0.984 . S
N1557 H1561 0.985 . S
H1558 N1553 0.984 . S
H1559 N1553 0.985 . S
H1560 N1557 0.984 . S
H1561 N1557 0.985 . S
H1562 N1556 0.984 . S
H1563 N1556 0.984 . S
H1564 N1552 0.984 . S
H1565 N1552 0.985 . S
C1566 C1567 1.363 . S
C1566 C1572 1.379 . S
C1566 N1574 1.356 . S
C1567 C1566 1.363 . S
C1567 C1573 1.363 . S
C1568 C1569 1.363 . S
C1568 C1573 1.379 . S
C1568 N1575 1.356 . S
C1569 C1568 1.363 . S
C1569 C1572 1.363 . S
N1570 C1572 1.356 . S
N1570 H1582 0.984 . S
N1570 H1583 0.985 . S
N1571 C1573 1.356 . S
N1571 H1576 0.984 . S
N1571 H1577 0.985 . S
C1572 C1566 1.379 . S
C1572 C1569 1.363 . S
C1572 N1570 1.356 . S
C1573 C1567 1.363 . S
C1573 C1568 1.379 . S
C1573 N1571 1.356 . S
N1574 C1566 1.356 . S
N1574 H1580 0.984 . S
N1574 H1581 0.984 . S
N1575 C1568 1.356 . S
N1575 H1578 0.984 . S
N1575 H1579 0.985 . S
H1576 N1571 0.984 . S
H1577 N1571 0.985 . S
H1578 N1575 0.984 . S
H1579 N1575 0.985 . S
H1580 N1574 0.984 . S
H1581 N1574 0.984 . S
H1582 N1570 0.984 . S
H1583 N1570 0.985 . S
C1584 C1585 1.363 . S
C1584 C1590 1.379 1_565 S
C1584 N1592 1.356 . S
C1585 C1584 1.363 . S
C1585 C1591 1.363 . S
C1586 C1587 1.363 . S
C1586 C1591 1.379 1_545 S
C1586 N1593 1.356 . S
C1587 C1586 1.363 . S
C1587 C1590 1.363 . S
N1588 C1590 1.356 . S
N1588 H1600 0.984 . S
N1588 H1601 0.985 . S
N1589 C1591 1.356 . S
N1589 H1594 0.984 . S
N1589 H1595 0.985 . S
C1590 C1584 1.379 1_545 S
C1590 C1587 1.363 . S
C1590 N1588 1.356 . S
C1591 C1585 1.363 . S
C1591 C1586 1.379 1_565 S
C1591 N1589 1.356 . S
N1592 C1584 1.356 . S
N1592 H1598 0.984 . S
N1592 H1599 0.984 . S
N1593 C1586 1.356 . S
N1593 H1596 0.984 . S
N1593 H1597 0.985 . S
H1594 N1589 0.984 . S
H1595 N1589 0.985 . S
H1596 N1593 0.984 . S
H1597 N1593 0.985 . S
H1598 N1592 0.984 . S
H1599 N1592 0.984 . S
H1600 N1588 0.984 . S
H1601 N1588 0.985 . S
C1602 C1603 1.363 . S
C1602 C1608 1.379 1_655 S
C1602 N1610 1.356 . S
C1603 C1602 1.363 . S
C1603 C1609 1.363 . S
C1604 C1605 1.363 . S
C1604 C1609 1.379 1_455 S
C1604 N1611 1.356 . S
C1605 C1604 1.363 . S
C1605 C1608 1.363 . S
N1606 C1608 1.356 . S
N1606 H1618 0.984 . S
N1606 H1619 0.985 . S
N1607 C1609 1.356 . S
N1607 H1612 0.984 . S
N1607 H1613 0.985 . S
C1608 C1602 1.379 1_455 S
C1608 C1605 1.363 . S
C1608 N1606 1.356 . S
C1609 C1603 1.363 . S
C1609 C1604 1.379 1_655 S
C1609 N1607 1.356 . S
N1610 C1602 1.356 . S
N1610 H1616 0.984 . S
N1610 H1617 0.984 . S
N1611 C1604 1.356 . S
N1611 H1614 0.984 . S
N1611 H1615 0.985 . S
H1612 N1607 0.984 . S
H1613 N1607 0.985 . S
H1614 N1611 0.984 . S
H1615 N1611 0.985 . S
H1616 N1610 0.984 . S
H1617 N1610 0.984 . S
H1618 N1606 0.984 . S
H1619 N1606 0.985 . S
C1620 C1621 1.363 . S
C1620 C1626 1.379 . S
C1620 N1628 1.356 . S
C1621 C1620 1.363 . S
C1621 C1627 1.363 . S
C1622 C1623 1.363 . S
C1622 C1627 1.379 . S
C1622 N1629 1.356 . S
C1623 C1622 1.363 . S
C1623 C1626 1.363 . S
N1624 C1626 1.356 . S
N1624 H1636 0.984 . S
N1624 H1637 0.985 . S
N1625 C1627 1.356 . S
N1625 H1630 0.984 . S
N1625 H1631 0.985 . S
C1626 C1620 1.379 . S
C1626 C1623 1.363 . S
C1626 N1624 1.356 . S
C1627 C1621 1.363 . S
C1627 C1622 1.379 . S
C1627 N1625 1.356 . S
N1628 C1620 1.356 . S
N1628 H1634 0.984 . S
N1628 H1635 0.984 . S
N1629 C1622 1.356 . S
N1629 H1632 0.984 . S
N1629 H1633 0.985 . S
H1630 N1625 0.984 . S
H1631 N1625 0.985 . S
H1632 N1629 0.984 . S
H1633 N1629 0.985 . S
H1634 N1628 0.984 . S
H1635 N1628 0.984 . S
H1636 N1624 0.984 . S
H1637 N1624 0.985 . S
C1638 C1639 1.363 . S
C1638 C1644 1.379 . S
C1638 N1646 1.356 . S
C1639 C1638 1.363 . S
C1639 C1645 1.363 . S
C1640 C1641 1.363 . S
C1640 C1645 1.379 . S
C1640 N1647 1.356 . S
C1641 C1640 1.363 . S
C1641 C1644 1.363 . S
N1642 C1644 1.356 . S
N1642 H1654 0.984 . S
N1642 H1655 0.985 . S
N1643 C1645 1.356 . S
N1643 H1648 0.984 . S
N1643 H1649 0.985 . S
C1644 C1638 1.379 . S
C1644 C1641 1.363 . S
C1644 N1642 1.356 . S
C1645 C1639 1.363 . S
C1645 C1640 1.379 . S
C1645 N1643 1.356 . S
N1646 C1638 1.356 . S
N1646 H1652 0.984 . S
N1646 H1653 0.984 . S
N1647 C1640 1.356 . S
N1647 H1650 0.984 . S
N1647 H1651 0.985 . S
H1648 N1643 0.984 . S
H1649 N1643 0.985 . S
H1650 N1647 0.984 . S
H1651 N1647 0.985 . S
H1652 N1646 0.984 . S
H1653 N1646 0.984 . S
H1654 N1642 0.984 . S
H1655 N1642 0.985 . S
C1656 C1657 1.363 . S
C1656 C1662 1.379 . S
C1656 N1664 1.356 . S
C1657 C1656 1.363 . S
C1657 C1663 1.363 . S
C1658 C1659 1.363 . S
C1658 C1663 1.379 . S
C1658 N1665 1.356 . S
C1659 C1658 1.363 . S
C1659 C1662 1.363 . S
N1660 C1662 1.356 . S
N1660 H1672 0.984 . S
N1660 H1673 0.985 . S
N1661 C1663 1.356 . S
N1661 H1666 0.984 . S
N1661 H1667 0.985 . S
C1662 C1656 1.379 . S
C1662 C1659 1.363 . S
C1662 N1660 1.356 . S
C1663 C1657 1.363 . S
C1663 C1658 1.379 . S
C1663 N1661 1.356 . S
N1664 C1656 1.356 . S
N1664 H1670 0.984 . S
N1664 H1671 0.984 . S
N1665 C1658 1.356 . S
N1665 H1668 0.984 . S
N1665 H1669 0.985 . S
H1666 N1661 0.984 . S
H1667 N1661 0.985 . S
H1668 N1665 0.984 . S
H1669 N1665 0.985 . S
H1670 N1664 0.984 . S
H1671 N1664 0.984 . S
H1672 N1660 0.984 . S
H1673 N1660 0.985 . S
C1674 C1675 1.363 . S
C1674 C1680 1.379 . S
C1674 N1682 1.356 . S
C1675 C1674 1.363 . S
C1675 C1681 1.363 . S
C1676 C1677 1.363 . S
C1676 C1681 1.379 . S
C1676 N1683 1.356 . S
C1677 C1676 1.363 . S
C1677 C1680 1.363 . S
N1678 C1680 1.356 . S
N1678 H1690 0.984 . S
N1678 H1691 0.985 . S
N1679 C1681 1.356 . S
N1679 H1684 0.984 . S
N1679 H1685 0.985 . S
C1680 C1674 1.379 . S
C1680 C1677 1.363 . S
C1680 N1678 1.356 . S
C1681 C1675 1.363 . S
C1681 C1676 1.379 . S
C1681 N1679 1.356 . S
N1682 C1674 1.356 . S
N1682 H1688 0.984 . S
N1682 H1689 0.984 . S
N1683 C1676 1.356 . S
N1683 H1686 0.984 . S
N1683 H1687 0.985 . S
H1684 N1679 0.984 . S
H1685 N1679 0.985 . S
H1686 N1683 0.984 . S
H1687 N1683 0.985 . S
H1688 N1682 0.984 . S
H1689 N1682 0.984 . S
H1690 N1678 0.984 . S
H1691 N1678 0.985 . S
C1692 C1693 1.363 . S
C1692 C1698 1.379 . S
C1692 N1700 1.356 . S
C1693 C1692 1.363 . S
C1693 C1699 1.363 . S
C1694 C1695 1.363 . S
C1694 C1699 1.379 . S
C1694 N1701 1.356 1_554 S
C1695 C1694 1.363 . S
C1695 C1698 1.363 . S
N1696 C1698 1.356 . S
N1696 H1708 0.984 . S
N1696 H1709 0.985 . S
N1697 C1699 1.356 . S
N1697 H1702 0.984 . S
N1697 H1703 0.985 1_554 S
C1698 C1692 1.379 . S
C1698 C1695 1.363 . S
C1698 N1696 1.356 . S
C1699 C1693 1.363 . S
C1699 C1694 1.379 . S
C1699 N1697 1.356 . S
N1700 C1692 1.356 . S
N1700 H1706 0.984 . S
N1700 H1707 0.984 . S
N1701 C1694 1.356 1_556 S
N1701 H1704 0.984 . S
N1701 H1705 0.985 . S
H1702 N1697 0.984 . S
H1703 N1697 0.985 1_556 S
H1704 N1701 0.984 . S
H1705 N1701 0.985 . S
H1706 N1700 0.984 . S
H1707 N1700 0.984 . S
H1708 N1696 0.984 . S
H1709 N1696 0.985 . S
C1710 C1711 1.363 . S
C1710 C1716 1.379 . S
C1710 N1718 1.356 . S
C1711 C1710 1.363 . S
C1711 C1717 1.363 . S
C1712 C1713 1.363 . S
C1712 C1717 1.379 . S
C1712 N1719 1.356 . S
C1713 C1712 1.363 . S
C1713 C1716 1.363 . S
N1714 C1716 1.356 . S
N1714 H1726 0.984 . S
N1714 H1727 0.985 . S
N1715 C1717 1.356 1_556 S
N1715 H1720 0.984 . S
N1715 H1721 0.985 . S
C1716 C1710 1.379 . S
C1716 C1713 1.363 . S
C1716 N1714 1.356 . S
C1717 C1711 1.363 . S
C1717 C1712 1.379 . S
C1717 N1715 1.356 1_554 S
N1718 C1710 1.356 . S
N1718 H1724 0.984 . S
N1718 H1725 0.984 . S
N1719 C1712 1.356 . S
N1719 H1722 0.984 . S
N1719 H1723 0.985 . S
H1720 N1715 0.984 . S
H1721 N1715 0.985 . S
H1722 N1719 0.984 . S
H1723 N1719 0.985 . S
H1724 N1718 0.984 . S
H1725 N1718 0.984 . S
H1726 N1714 0.984 . S
H1727 N1714 0.985 . S
C1728 C1729 1.363 . S
C1728 C1734 1.379 . S
C1728 N1736 1.356 . S
C1729 C1728 1.363 . S
C1729 C1735 1.363 . S
C1730 C1731 1.363 . S
C1730 C1735 1.379 . S
C1730 N1737 1.356 . S
C1731 C1730 1.363 . S
C1731 C1734 1.363 . S
N1732 C1734 1.356 . S
N1732 H1744 0.984 . S
N1732 H1745 0.985 . S
N1733 C1735 1.356 . S
N1733 H1738 0.984 . S
N1733 H1739 0.985 . S
C1734 C1728 1.379 . S
C1734 C1731 1.363 . S
C1734 N1732 1.356 . S
C1735 C1729 1.363 . S
C1735 C1730 1.379 . S
C1735 N1733 1.356 . S
N1736 C1728 1.356 . S
N1736 H1742 0.984 . S
N1736 H1743 0.984 . S
N1737 C1730 1.356 . S
N1737 H1740 0.983 1_556 S
N1737 H1741 0.985 1_556 S
H1738 N1733 0.984 . S
H1739 N1733 0.985 . S
H1740 N1737 0.983 1_554 S
H1741 N1737 0.985 1_554 S
H1742 N1736 0.984 . S
H1743 N1736 0.984 . S
H1744 N1732 0.984 . S
H1745 N1732 0.985 . S
C1746 C1747 1.363 . S
C1746 C1752 1.379 . S
C1746 N1754 1.356 . S
C1747 C1746 1.363 . S
C1747 C1753 1.363 . S
C1748 C1749 1.363 . S
C1748 C1753 1.379 . S
C1748 N1755 1.356 . S
C1749 C1748 1.363 . S
C1749 C1752 1.363 . S
N1750 C1752 1.356 . S
N1750 H1762 0.984 . S
N1750 H1763 0.985 . S
N1751 C1753 1.356 1_554 S
N1751 H1756 0.984 . S
N1751 H1757 0.985 . S
C1752 C1746 1.379 . S
C1752 C1749 1.363 . S
C1752 N1750 1.356 . S
C1753 C1747 1.363 . S
C1753 C1748 1.379 . S
C1753 N1751 1.356 1_556 S
N1754 C1746 1.356 . S
N1754 H1760 0.984 . S
N1754 H1761 0.984 . S
N1755 C1748 1.356 . S
N1755 H1758 0.984 . S
N1755 H1759 0.985 . S
H1756 N1751 0.984 . S
H1757 N1751 0.985 . S
H1758 N1755 0.984 . S
H1759 N1755 0.985 . S
H1760 N1754 0.984 . S
H1761 N1754 0.984 . S
H1762 N1750 0.984 . S
H1763 N1750 0.985 . S
C1764 C1765 1.363 . S
C1764 C1770 1.379 . S
C1764 N1772 1.356 . S
C1765 C1764 1.363 . S
C1765 C1771 1.363 . S
C1766 C1767 1.363 . S
C1766 C1771 1.379 . S
C1766 N1773 1.356 . S
C1767 C1766 1.363 . S
C1767 C1770 1.363 . S
N1768 C1770 1.356 . S
N1768 H1780 0.984 . S
N1768 H1781 0.985 . S
N1769 C1771 1.356 . S
N1769 H1774 0.984 . S
N1769 H1775 0.985 . S
C1770 C1764 1.379 . S
C1770 C1767 1.363 . S
C1770 N1768 1.356 . S
C1771 C1765 1.363 . S
C1771 C1766 1.379 . S
C1771 N1769 1.356 . S
N1772 C1764 1.356 . S
N1772 H1778 0.984 . S
N1772 H1779 0.984 . S
N1773 C1766 1.356 . S
N1773 H1776 0.984 . S
N1773 H1777 0.985 . S
H1774 N1769 0.984 . S
H1775 N1769 0.985 . S
H1776 N1773 0.984 . S
H1777 N1773 0.985 . S
H1778 N1772 0.984 . S
H1779 N1772 0.984 . S
H1780 N1768 0.984 . S
H1781 N1768 0.985 . S
C1782 C1783 1.363 . S
C1782 C1788 1.379 . S
C1782 N1790 1.356 . S
C1783 C1782 1.363 . S
C1783 C1789 1.363 . S
C1784 C1785 1.363 . S
C1784 C1789 1.379 . S
C1784 N1791 1.356 . S
C1785 C1784 1.363 . S
C1785 C1788 1.363 . S
N1786 C1788 1.356 . S
N1786 H1798 0.984 . S
N1786 H1799 0.985 . S
N1787 C1789 1.356 . S
N1787 H1792 0.984 . S
N1787 H1793 0.985 . S
C1788 C1782 1.379 . S
C1788 C1785 1.363 . S
C1788 N1786 1.356 . S
C1789 C1783 1.363 . S
C1789 C1784 1.379 . S
C1789 N1787 1.356 . S
N1790 C1782 1.356 . S
N1790 H1796 0.984 . S
N1790 H1797 0.984 . S
N1791 C1784 1.356 . S
N1791 H1794 0.984 . S
N1791 H1795 0.985 . S
H1792 N1787 0.984 . S
H1793 N1787 0.985 . S
H1794 N1791 0.984 . S
H1795 N1791 0.985 . S
H1796 N1790 0.984 . S
H1797 N1790 0.984 . S
H1798 N1786 0.984 . S
H1799 N1786 0.985 . S
C1800 C1801 1.363 . S
C1800 C1806 1.379 . S
C1800 N1808 1.356 . S
C1801 C1800 1.363 . S
C1801 C1807 1.363 . S
C1802 C1803 1.363 . S
C1802 C1807 1.379 . S
C1802 N1809 1.356 . S
C1803 C1802 1.363 . S
C1803 C1806 1.363 . S
N1804 C1806 1.356 . S
N1804 H1816 0.984 . S
N1804 H1817 0.985 . S
N1805 C1807 1.356 . S
N1805 H1810 0.984 . S
N1805 H1811 0.985 . S
C1806 C1800 1.379 . S
C1806 C1803 1.363 . S
C1806 N1804 1.356 . S
C1807 C1801 1.363 . S
C1807 C1802 1.379 . S
C1807 N1805 1.356 . S
N1808 C1800 1.356 . S
N1808 H1814 0.984 . S
N1808 H1815 0.984 . S
N1809 C1802 1.356 . S
N1809 H1812 0.984 . S
N1809 H1813 0.985 . S
H1810 N1805 0.984 . S
H1811 N1805 0.985 . S
H1812 N1809 0.984 . S
H1813 N1809 0.985 . S
H1814 N1808 0.984 . S
H1815 N1808 0.984 . S
H1816 N1804 0.984 . S
H1817 N1804 0.985 . S
C1818 C1819 1.363 . S
C1818 C1824 1.379 . S
C1818 N1826 1.356 . S
C1819 C1818 1.363 . S
C1819 C1825 1.363 . S
C1820 C1821 1.363 . S
C1820 C1825 1.379 . S
C1820 N1827 1.356 . S
C1821 C1820 1.363 . S
C1821 C1824 1.363 . S
N1822 C1824 1.356 . S
N1822 H1834 0.984 . S
N1822 H1835 0.985 . S
N1823 C1825 1.356 . S
N1823 H1828 0.984 . S
N1823 H1829 0.985 . S
C1824 C1818 1.379 . S
C1824 C1821 1.363 . S
C1824 N1822 1.356 . S
C1825 C1819 1.363 . S
C1825 C1820 1.379 . S
C1825 N1823 1.356 . S
N1826 C1818 1.356 . S
N1826 H1832 0.984 . S
N1826 H1833 0.984 . S
N1827 C1820 1.356 . S
N1827 H1830 0.984 . S
N1827 H1831 0.985 . S
H1828 N1823 0.984 . S
H1829 N1823 0.985 . S
H1830 N1827 0.984 . S
H1831 N1827 0.985 . S
H1832 N1826 0.984 . S
H1833 N1826 0.984 . S
H1834 N1822 0.984 . S
H1835 N1822 0.985 . S
C1836 C1837 1.363 . S
C1836 C1842 1.379 . S
C1836 N1844 1.356 . S
C1837 C1836 1.363 . S
C1837 C1843 1.363 . S
C1838 C1839 1.363 . S
C1838 C1843 1.379 1_554 S
C1838 N1845 1.356 . S
C1839 C1838 1.363 . S
C1839 C1842 1.363 1_554 S
N1840 C1842 1.356 1_554 S
N1840 H1852 0.984 . S
N1840 H1853 0.985 . S
N1841 C1843 1.356 . S
N1841 H1846 0.984 . S
N1841 H1847 0.985 . S
C1842 C1836 1.379 . S
C1842 C1839 1.363 1_556 S
C1842 N1840 1.356 1_556 S
C1843 C1837 1.363 . S
C1843 C1838 1.379 1_556 S
C1843 N1841 1.356 . S
N1844 C1836 1.356 . S
N1844 H1850 0.984 . S
N1844 H1851 0.984 . S
N1845 C1838 1.356 . S
N1845 H1848 0.984 . S
N1845 H1849 0.985 . S
H1846 N1841 0.984 . S
H1847 N1841 0.985 . S
H1848 N1845 0.984 . S
H1849 N1845 0.985 . S
H1850 N1844 0.984 . S
H1851 N1844 0.984 . S
H1852 N1840 0.984 . S
H1853 N1840 0.985 . S
C1854 C1855 1.363 . S
C1854 C1860 1.379 . S
C1854 N1862 1.356 . S
C1855 C1854 1.363 . S
C1855 C1861 1.363 . S
C1856 C1857 1.363 . S
C1856 C1861 1.379 1_554 S
C1856 N1863 1.356 . S
C1857 C1856 1.363 . S
C1857 C1860 1.363 1_554 S
N1858 C1860 1.356 1_554 S
N1858 H1870 0.984 . S
N1858 H1871 0.985 . S
N1859 C1861 1.356 . S
N1859 H1864 0.984 . S
N1859 H1865 0.985 . S
C1860 C1854 1.379 . S
C1860 C1857 1.363 1_556 S
C1860 N1858 1.356 1_556 S
C1861 C1855 1.363 . S
C1861 C1856 1.379 1_556 S
C1861 N1859 1.356 . S
N1862 C1854 1.356 . S
N1862 H1868 0.984 . S
N1862 H1869 0.984 . S
N1863 C1856 1.356 . S
N1863 H1866 0.984 . S
N1863 H1867 0.985 . S
H1864 N1859 0.984 . S
H1865 N1859 0.985 . S
H1866 N1863 0.984 . S
H1867 N1863 0.985 . S
H1868 N1862 0.984 . S
H1869 N1862 0.984 . S
H1870 N1858 0.984 . S
H1871 N1858 0.985 . S
C1872 C1873 1.363 . S
C1872 C1878 1.379 . S
C1872 N1880 1.356 . S
C1873 C1872 1.363 . S
C1873 C1879 1.363 . S
C1874 C1875 1.363 . S
C1874 C1879 1.379 1_554 S
C1874 N1881 1.356 . S
C1875 C1874 1.363 . S
C1875 C1878 1.363 1_554 S
N1876 C1878 1.356 1_554 S
N1876 H1888 0.984 . S
N1876 H1889 0.985 . S
N1877 C1879 1.356 . S
N1877 H1882 0.984 . S
N1877 H1883 0.985 . S
C1878 C1872 1.379 . S
C1878 C1875 1.363 1_556 S
C1878 N1876 1.356 1_556 S
C1879 C1873 1.363 . S
C1879 C1874 1.379 1_556 S
C1879 N1877 1.356 . S
N1880 C1872 1.356 . S
N1880 H1886 0.984 . S
N1880 H1887 0.984 . S
N1881 C1874 1.356 . S
N1881 H1884 0.984 . S
N1881 H1885 0.985 . S
H1882 N1877 0.984 . S
H1883 N1877 0.985 . S
H1884 N1881 0.984 . S
H1885 N1881 0.985 . S
H1886 N1880 0.984 . S
H1887 N1880 0.984 . S
H1888 N1876 0.984 . S
H1889 N1876 0.985 . S
C1890 C1891 1.363 . S
C1890 C1896 1.379 . S
C1890 N1898 1.356 . S
C1891 C1890 1.363 . S
C1891 C1897 1.363 . S
C1892 C1893 1.363 . S
C1892 C1897 1.379 . S
C1892 N1899 1.356 . S
C1893 C1892 1.363 . S
C1893 C1896 1.363 . S
N1894 C1896 1.356 . S
N1894 H1906 0.984 . S
N1894 H1907 0.985 . S
N1895 C1897 1.356 . S
N1895 H1900 0.984 . S
N1895 H1901 0.985 . S
C1896 C1890 1.379 . S
C1896 C1893 1.363 . S
C1896 N1894 1.356 . S
C1897 C1891 1.363 . S
C1897 C1892 1.379 . S
C1897 N1895 1.356 . S
N1898 C1890 1.356 . S
N1898 H1904 0.984 . S
N1898 H1905 0.984 . S
N1899 C1892 1.356 . S
N1899 H1902 0.984 . S
N1899 H1903 0.985 . S
H1900 N1895 0.984 . S
H1901 N1895 0.985 . S
H1902 N1899 0.984 . S
H1903 N1899 0.985 . S
H1904 N1898 0.984 . S
H1905 N1898 0.984 . S
H1906 N1894 0.984 . S
H1907 N1894 0.985 . S
C1908 C1909 1.363 . S
C1908 C1914 1.379 . S
C1908 N1916 1.356 . S
C1909 C1908 1.363 . S
C1909 C1915 1.363 . S
C1910 C1911 1.363 . S
C1910 C1915 1.379 . S
C1910 N1917 1.356 . S
C1911 C1910 1.363 . S
C1911 C1914 1.363 . S
N1912 C1914 1.356 . S
N1912 H1924 0.984 . S
N1912 H1925 0.985 . S
N1913 C1915 1.356 . S
N1913 H1918 0.984 . S
N1913 H1919 0.985 . S
C1914 C1908 1.379 . S
C1914 C1911 1.363 . S
C1914 N1912 1.356 . S
C1915 C1909 1.363 . S
C1915 C1910 1.379 . S
C1915 N1913 1.356 . S
N1916 C1908 1.356 . S
N1916 H1922 0.984 . S
N1916 H1923 0.984 . S
N1917 C1910 1.356 . S
N1917 H1920 0.984 . S
N1917 H1921 0.985 . S
H1918 N1913 0.984 . S
H1919 N1913 0.985 . S
H1920 N1917 0.984 . S
H1921 N1917 0.985 . S
H1922 N1916 0.984 . S
H1923 N1916 0.984 . S
H1924 N1912 0.984 . S
H1925 N1912 0.985 . S
C1926 C1927 1.363 . S
C1926 C1932 1.379 . S
C1926 N1934 1.356 . S
C1927 C1926 1.363 . S
C1927 C1933 1.363 . S
C1928 C1929 1.363 . S
C1928 C1933 1.379 . S
C1928 N1935 1.356 . S
C1929 C1928 1.363 . S
C1929 C1932 1.363 . S
N1930 C1932 1.356 . S
N1930 H1942 0.984 . S
N1930 H1943 0.985 . S
N1931 C1933 1.356 . S
N1931 H1936 0.984 . S
N1931 H1937 0.985 . S
C1932 C1926 1.379 . S
C1932 C1929 1.363 . S
C1932 N1930 1.356 . S
C1933 C1927 1.363 . S
C1933 C1928 1.379 . S
C1933 N1931 1.356 . S
N1934 C1926 1.356 . S
N1934 H1940 0.984 . S
N1934 H1941 0.984 . S
N1935 C1928 1.356 . S
N1935 H1938 0.984 . S
N1935 H1939 0.985 . S
H1936 N1931 0.984 . S
H1937 N1931 0.985 . S
H1938 N1935 0.984 . S
H1939 N1935 0.985 . S
H1940 N1934 0.984 . S
H1941 N1934 0.984 . S
H1942 N1930 0.984 . S
H1943 N1930 0.985 . S
C1944 C1945 1.363 . S
C1944 C1950 1.379 1_554 S
C1944 N1952 1.356 . S
C1945 C1944 1.363 . S
C1945 C1951 1.363 . S
C1946 C1947 1.363 1_554 S
C1946 C1951 1.379 . S
C1946 N1953 1.356 1_554 S
C1947 C1946 1.363 1_556 S
C1947 C1950 1.363 . S
N1948 C1950 1.356 . S
N1948 H1960 0.984 . S
N1948 H1961 0.985 . S
N1949 C1951 1.356 . S
N1949 H1954 0.984 . S
N1949 H1955 0.985 . S
C1950 C1944 1.379 1_556 S
C1950 C1947 1.363 . S
C1950 N1948 1.356 . S
C1951 C1945 1.363 . S
C1951 C1946 1.379 . S
C1951 N1949 1.356 . S
N1952 C1944 1.356 . S
N1952 H1958 0.984 . S
N1952 H1959 0.984 . S
N1953 C1946 1.356 1_556 S
N1953 H1956 0.984 . S
N1953 H1957 0.985 . S
H1954 N1949 0.984 . S
H1955 N1949 0.985 . S
H1956 N1953 0.984 . S
H1957 N1953 0.985 . S
H1958 N1952 0.984 . S
H1959 N1952 0.984 . S
H1960 N1948 0.984 . S
H1961 N1948 0.985 . S
C1962 C1963 1.363 . S
C1962 C1968 1.379 1_556 S
C1962 N1970 1.356 . S
C1963 C1962 1.363 . S
C1963 C1969 1.363 1_556 S
C1964 C1965 1.363 . S
C1964 C1969 1.379 . S
C1964 N1971 1.356 . S
C1965 C1964 1.363 . S
C1965 C1968 1.363 . S
N1966 C1968 1.356 . S
N1966 H1978 0.984 . S
N1966 H1979 0.985 . S
N1967 C1969 1.356 1_556 S
N1967 H1972 0.984 . S
N1967 H1973 0.985 . S
C1968 C1962 1.379 1_554 S
C1968 C1965 1.363 . S
C1968 N1966 1.356 . S
C1969 C1963 1.363 1_554 S
C1969 C1964 1.379 . S
C1969 N1967 1.356 1_554 S
N1970 C1962 1.356 . S
N1970 H1976 0.984 . S
N1970 H1977 0.984 . S
N1971 C1964 1.356 . S
N1971 H1974 0.984 . S
N1971 H1975 0.985 . S
H1972 N1967 0.984 . S
H1973 N1967 0.985 . S
H1974 N1971 0.984 . S
H1975 N1971 0.985 . S
H1976 N1970 0.984 . S
H1977 N1970 0.984 . S
H1978 N1966 0.984 . S
H1979 N1966 0.985 . S
C1980 C1981 1.363 1_554 S
C1980 C1986 1.379 . S
C1980 N1988 1.356 1_554 S
C1981 C1980 1.363 1_556 S
C1981 C1987 1.363 . S
C1982 C1983 1.363 . S
C1982 C1987 1.379 1_554 S
C1982 N1989 1.356 . S
C1983 C1982 1.363 . S
C1983 C1986 1.363 . S
N1984 C1986 1.356 . S
N1984 H1996 0.984 . S
N1984 H1997 0.985 . S
N1985 C1987 1.356 . S
N1985 H1990 0.984 . S
N1985 H1991 0.985 . S
C1986 C1980 1.379 . S
C1986 C1983 1.363 . S
C1986 N1984 1.356 . S
C1987 C1981 1.363 . S
C1987 C1982 1.379 1_556 S
C1987 N1985 1.356 . S
N1988 C1980 1.356 1_556 S
N1988 H1994 0.984 . S
N1988 H1995 0.984 . S
N1989 C1982 1.356 . S
N1989 H1992 0.984 . S
N1989 H1993 0.985 . S
H1990 N1985 0.984 . S
H1991 N1985 0.985 . S
H1992 N1989 0.984 . S
H1993 N1989 0.985 . S
H1994 N1988 0.984 . S
H1995 N1988 0.984 . S
H1996 N1984 0.984 . S
H1997 N1984 0.985 . S
C1998 C1999 1.363 . S
C1998 C2004 1.379 . S
C1998 N2006 1.356 . S
C1999 C1998 1.363 . S
C1999 C2005 1.363 . S
C2000 C2001 1.363 . S
C2000 C2005 1.379 . S
C2000 N2007 1.356 . S
C2001 C2000 1.363 . S
C2001 C2004 1.363 . S
N2002 C2004 1.356 . S
N2002 H2014 0.984 . S
N2002 H2015 0.985 . S
N2003 C2005 1.356 . S
N2003 H2008 0.984 . S
N2003 H2009 0.985 . S
C2004 C1998 1.379 . S
C2004 C2001 1.363 . S
C2004 N2002 1.356 . S
C2005 C1999 1.363 . S
C2005 C2000 1.379 . S
C2005 N2003 1.356 . S
N2006 C1998 1.356 . S
N2006 H2012 0.984 . S
N2006 H2013 0.984 . S
N2007 C2000 1.356 . S
N2007 H2010 0.984 . S
N2007 H2011 0.985 . S
H2008 N2003 0.984 . S
H2009 N2003 0.985 . S
H2010 N2007 0.984 . S
H2011 N2007 0.985 . S
H2012 N2006 0.984 . S
H2013 N2006 0.984 . S
H2014 N2002 0.984 . S
H2015 N2002 0.985 . S
C2016 C2017 1.363 . S
C2016 C2022 1.379 . S
C2016 N2024 1.356 . S
C2017 C2016 1.363 . S
C2017 C2023 1.363 . S
C2018 C2019 1.363 . S
C2018 C2023 1.379 . S
C2018 N2025 1.356 . S
C2019 C2018 1.363 . S
C2019 C2022 1.363 . S
N2020 C2022 1.356 . S
N2020 H2032 0.984 . S
N2020 H2033 0.985 . S
N2021 C2023 1.356 . S
N2021 H2026 0.984 . S
N2021 H2027 0.985 . S
C2022 C2016 1.379 . S
C2022 C2019 1.363 . S
C2022 N2020 1.356 . S
C2023 C2017 1.363 . S
C2023 C2018 1.379 . S
C2023 N2021 1.356 . S
N2024 C2016 1.356 . S
N2024 H2030 0.984 . S
N2024 H2031 0.984 . S
N2025 C2018 1.356 . S
N2025 H2028 0.984 . S
N2025 H2029 0.985 . S
H2026 N2021 0.984 . S
H2027 N2021 0.985 . S
H2028 N2025 0.984 . S
H2029 N2025 0.985 . S
H2030 N2024 0.984 . S
H2031 N2024 0.984 . S
H2032 N2020 0.984 . S
H2033 N2020 0.985 . S
C2034 C2035 1.363 . S
C2034 C2040 1.379 . S
C2034 N2042 1.356 . S
C2035 C2034 1.363 . S
C2035 C2041 1.363 . S
C2036 C2037 1.363 . S
C2036 C2041 1.379 . S
C2036 N2043 1.356 . S
C2037 C2036 1.363 . S
C2037 C2040 1.363 . S
N2038 C2040 1.356 . S
N2038 H2050 0.984 . S
N2038 H2051 0.985 . S
N2039 C2041 1.356 . S
N2039 H2044 0.984 . S
N2039 H2045 0.985 . S
C2040 C2034 1.379 . S
C2040 C2037 1.363 . S
C2040 N2038 1.356 . S
C2041 C2035 1.363 . S
C2041 C2036 1.379 . S
C2041 N2039 1.356 . S
N2042 C2034 1.356 . S
N2042 H2048 0.984 . S
N2042 H2049 0.984 . S
N2043 C2036 1.356 . S
N2043 H2046 0.984 . S
N2043 H2047 0.985 . S
H2044 N2039 0.984 . S
H2045 N2039 0.985 . S
H2046 N2043 0.984 . S
H2047 N2043 0.985 . S
H2048 N2042 0.984 . S
H2049 N2042 0.984 . S
H2050 N2038 0.984 . S
H2051 N2038 0.985 . S
C2052 C2053 1.363 . S
C2052 C2058 1.379 . S
C2052 N2060 1.356 . S
C2053 C2052 1.363 . S
C2053 C2059 1.363 . S
C2054 C2055 1.363 . S
C2054 C2059 1.379 . S
C2054 N2061 1.356 . S
C2055 C2054 1.363 . S
C2055 C2058 1.363 . S
N2056 C2058 1.356 . S
N2056 H2068 0.984 . S
N2056 H2069 0.985 . S
N2057 C2059 1.356 . S
N2057 H2062 0.984 . S
N2057 H2063 0.985 . S
C2058 C2052 1.379 . S
C2058 C2055 1.363 . S
C2058 N2056 1.356 . S
C2059 C2053 1.363 . S
C2059 C2054 1.379 . S
C2059 N2057 1.356 . S
N2060 C2052 1.356 . S
N2060 H2066 0.984 . S
N2060 H2067 0.984 . S
N2061 C2054 1.356 . S
N2061 H2064 0.984 . S
N2061 H2065 0.985 . S
H2062 N2057 0.984 . S
H2063 N2057 0.985 . S
H2064 N2061 0.984 . S
H2065 N2061 0.985 . S
H2066 N2060 0.984 . S
H2067 N2060 0.984 . S
H2068 N2056 0.984 . S
H2069 N2056 0.985 . S
C2070 C2071 1.363 . S
C2070 C2076 1.379 . S
C2070 N2078 1.356 . S
C2071 C2070 1.363 . S
C2071 C2077 1.363 . S
C2072 C2073 1.363 . S
C2072 C2077 1.379 . S
C2072 N2079 1.356 . S
C2073 C2072 1.363 . S
C2073 C2076 1.363 . S
N2074 C2076 1.356 . S
N2074 H2086 0.984 . S
N2074 H2087 0.985 . S
N2075 C2077 1.356 . S
N2075 H2080 0.984 . S
N2075 H2081 0.985 . S
C2076 C2070 1.379 . S
C2076 C2073 1.363 . S
C2076 N2074 1.356 . S
C2077 C2071 1.363 . S
C2077 C2072 1.379 . S
C2077 N2075 1.356 . S
N2078 C2070 1.356 . S
N2078 H2084 0.984 . S
N2078 H2085 0.984 . S
N2079 C2072 1.356 . S
N2079 H2082 0.984 . S
N2079 H2083 0.985 . S
H2080 N2075 0.984 . S
H2081 N2075 0.985 . S
H2082 N2079 0.984 . S
H2083 N2079 0.985 . S
H2084 N2078 0.984 . S
H2085 N2078 0.984 . S
H2086 N2074 0.984 . S
H2087 N2074 0.985 . S
C2088 C2089 1.363 . S
C2088 C2094 1.379 . S
C2088 N2096 1.356 . S
C2089 C2088 1.363 . S
C2089 C2095 1.363 . S
C2090 C2091 1.363 . S
C2090 C2095 1.379 . S
C2090 N2097 1.356 . S
C2091 C2090 1.363 . S
C2091 C2094 1.363 . S
N2092 C2094 1.356 . S
N2092 H2104 0.984 . S
N2092 H2105 0.985 . S
N2093 C2095 1.356 . S
N2093 H2098 0.984 . S
N2093 H2099 0.985 . S
C2094 C2088 1.379 . S
C2094 C2091 1.363 . S
C2094 N2092 1.356 . S
C2095 C2089 1.363 . S
C2095 C2090 1.379 . S
C2095 N2093 1.356 . S
N2096 C2088 1.356 . S
N2096 H2102 0.984 . S
N2096 H2103 0.984 . S
N2097 C2090 1.356 . S
N2097 H2100 0.984 . S
N2097 H2101 0.985 . S
H2098 N2093 0.984 . S
H2099 N2093 0.985 . S
H2100 N2097 0.984 . S
H2101 N2097 0.985 . S
H2102 N2096 0.984 . S
H2103 N2096 0.984 . S
H2104 N2092 0.984 . S
H2105 N2092 0.985 . S
C2106 C2107 1.363 . S
C2106 C2112 1.379 . S
C2106 N2114 1.356 . S
C2107 C2106 1.363 . S
C2107 C2113 1.363 . S
C2108 C2109 1.363 . S
C2108 C2113 1.379 . S
C2108 N2115 1.356 . S
C2109 C2108 1.363 . S
C2109 C2112 1.363 . S
N2110 C2112 1.356 . S
N2110 H2122 0.984 . S
N2110 H2123 0.985 . S
N2111 C2113 1.356 . S
N2111 H2116 0.984 . S
N2111 H2117 0.985 . S
C2112 C2106 1.379 . S
C2112 C2109 1.363 . S
C2112 N2110 1.356 . S
C2113 C2107 1.363 . S
C2113 C2108 1.379 . S
C2113 N2111 1.356 . S
N2114 C2106 1.356 . S
N2114 H2120 0.984 . S
N2114 H2121 0.984 . S
N2115 C2108 1.356 . S
N2115 H2118 0.984 . S
N2115 H2119 0.985 . S
H2116 N2111 0.984 . S
H2117 N2111 0.985 . S
H2118 N2115 0.984 . S
H2119 N2115 0.985 . S
H2120 N2114 0.984 . S
H2121 N2114 0.984 . S
H2122 N2110 0.984 . S
H2123 N2110 0.985 . S
C2124 C2125 1.363 . S
C2124 C2130 1.379 . S
C2124 N2132 1.356 . S
C2125 C2124 1.363 . S
C2125 C2131 1.363 . S
C2126 C2127 1.363 . S
C2126 C2131 1.379 . S
C2126 N2133 1.356 . S
C2127 C2126 1.363 . S
C2127 C2130 1.363 . S
N2128 C2130 1.356 . S
N2128 H2140 0.984 . S
N2128 H2141 0.985 . S
N2129 C2131 1.356 . S
N2129 H2134 0.984 . S
N2129 H2135 0.985 . S
C2130 C2124 1.379 . S
C2130 C2127 1.363 . S
C2130 N2128 1.356 . S
C2131 C2125 1.363 . S
C2131 C2126 1.379 . S
C2131 N2129 1.356 . S
N2132 C2124 1.356 . S
N2132 H2138 0.984 . S
N2132 H2139 0.984 . S
N2133 C2126 1.356 . S
N2133 H2136 0.984 . S
N2133 H2137 0.985 . S
H2134 N2129 0.984 . S
H2135 N2129 0.985 . S
H2136 N2133 0.984 . S
H2137 N2133 0.985 . S
H2138 N2132 0.984 . S
H2139 N2132 0.984 . S
H2140 N2128 0.984 . S
H2141 N2128 0.985 . S
C2142 C2143 1.363 . S
C2142 C2148 1.379 . S
C2142 N2150 1.356 . S
C2143 C2142 1.363 . S
C2143 C2149 1.363 . S
C2144 C2145 1.363 . S
C2144 C2149 1.379 . S
C2144 N2151 1.356 . S
C2145 C2144 1.363 . S
C2145 C2148 1.363 . S
N2146 C2148 1.356 . S
N2146 H2158 0.984 . S
N2146 H2159 0.985 . S
N2147 C2149 1.356 . S
N2147 H2152 0.984 . S
N2147 H2153 0.985 . S
C2148 C2142 1.379 . S
C2148 C2145 1.363 . S
C2148 N2146 1.356 . S
C2149 C2143 1.363 . S
C2149 C2144 1.379 . S
C2149 N2147 1.356 . S
N2150 C2142 1.356 . S
N2150 H2156 0.984 . S
N2150 H2157 0.984 . S
N2151 C2144 1.356 . S
N2151 H2154 0.984 . S
N2151 H2155 0.985 . S
H2152 N2147 0.984 . S
H2153 N2147 0.985 . S
H2154 N2151 0.984 . S
H2155 N2151 0.985 . S
H2156 N2150 0.984 . S
H2157 N2150 0.984 . S
H2158 N2146 0.984 . S
H2159 N2146 0.985 . S
C2160 C2161 1.363 . S
C2160 C2166 1.379 . S
C2160 N2168 1.356 . S
C2161 C2160 1.363 . S
C2161 C2167 1.363 . S
C2162 C2163 1.363 . S
C2162 C2167 1.379 . S
C2162 N2169 1.356 . S
C2163 C2162 1.363 . S
C2163 C2166 1.363 . S
N2164 C2166 1.356 . S
N2164 H2176 0.984 . S
N2164 H2177 0.985 . S
N2165 C2167 1.356 . S
N2165 H2170 0.984 . S
N2165 H2171 0.985 . S
C2166 C2160 1.379 . S
C2166 C2163 1.363 . S
C2166 N2164 1.356 . S
C2167 C2161 1.363 . S
C2167 C2162 1.379 . S
C2167 N2165 1.356 . S
N2168 C2160 1.356 . S
N2168 H2174 0.984 . S
N2168 H2175 0.984 . S
N2169 C2162 1.356 . S
N2169 H2172 0.984 . S
N2169 H2173 0.985 . S
H2170 N2165 0.984 . S
H2171 N2165 0.985 . S
H2172 N2169 0.984 . S
H2173 N2169 0.985 . S
H2174 N2168 0.984 . S
H2175 N2168 0.984 . S
H2176 N2164 0.984 . S
H2177 N2164 0.985 . S
C2178 C2179 1.363 . S
C2178 C2184 1.379 . S
C2178 N2186 1.356 . S
C2179 C2178 1.363 . S
C2179 C2185 1.363 . S
C2180 C2181 1.363 . S
C2180 C2185 1.379 . S
C2180 N2187 1.356 . S
C2181 C2180 1.363 . S
C2181 C2184 1.363 . S
N2182 C2184 1.356 . S
N2182 H2194 0.984 . S
N2182 H2195 0.985 . S
N2183 C2185 1.356 . S
N2183 H2188 0.984 . S
N2183 H2189 0.985 . S
C2184 C2178 1.379 . S
C2184 C2181 1.363 . S
C2184 N2182 1.356 . S
C2185 C2179 1.363 . S
C2185 C2180 1.379 . S
C2185 N2183 1.356 . S
N2186 C2178 1.356 . S
N2186 H2192 0.984 . S
N2186 H2193 0.984 . S
N2187 C2180 1.356 . S
N2187 H2190 0.984 . S
N2187 H2191 0.985 . S
H2188 N2183 0.984 . S
H2189 N2183 0.985 . S
H2190 N2187 0.984 . S
H2191 N2187 0.985 . S
H2192 N2186 0.984 . S
H2193 N2186 0.984 . S
H2194 N2182 0.984 . S
H2195 N2182 0.985 . S
C2196 C2197 1.363 . S
C2196 C2202 1.379 . S
C2196 N2204 1.356 . S
C2197 C2196 1.363 . S
C2197 C2203 1.363 . S
C2198 C2199 1.363 . S
C2198 C2203 1.379 . S
C2198 N2205 1.356 . S
C2199 C2198 1.363 . S
C2199 C2202 1.363 . S
N2200 C2202 1.356 . S
N2200 H2212 0.984 . S
N2200 H2213 0.985 . S
N2201 C2203 1.356 . S
N2201 H2206 0.984 . S
N2201 H2207 0.985 . S
C2202 C2196 1.379 . S
C2202 C2199 1.363 . S
C2202 N2200 1.356 . S
C2203 C2197 1.363 . S
C2203 C2198 1.379 . S
C2203 N2201 1.356 . S
N2204 C2196 1.356 . S
N2204 H2210 0.984 . S
N2204 H2211 0.984 . S
N2205 C2198 1.356 . S
N2205 H2208 0.984 . S
N2205 H2209 0.985 . S
H2206 N2201 0.984 . S
H2207 N2201 0.985 . S
H2208 N2205 0.984 . S
H2209 N2205 0.985 . S
H2210 N2204 0.984 . S
H2211 N2204 0.984 . S
H2212 N2200 0.984 . S
H2213 N2200 0.985 . S
C2214 C2215 1.363 . S
C2214 C2220 1.379 . S
C2214 N2222 1.356 . S
C2215 C2214 1.363 . S
C2215 C2221 1.363 . S
C2216 C2217 1.363 . S
C2216 C2221 1.379 . S
C2216 N2223 1.356 . S
C2217 C2216 1.363 . S
C2217 C2220 1.363 . S
N2218 C2220 1.356 . S
N2218 H2230 0.984 . S
N2218 H2231 0.985 . S
N2219 C2221 1.356 . S
N2219 H2224 0.984 . S
N2219 H2225 0.985 . S
C2220 C2214 1.379 . S
C2220 C2217 1.363 . S
C2220 N2218 1.356 . S
C2221 C2215 1.363 . S
C2221 C2216 1.379 . S
C2221 N2219 1.356 . S
N2222 C2214 1.356 . S
N2222 H2228 0.984 . S
N2222 H2229 0.984 . S
N2223 C2216 1.356 . S
N2223 H2226 0.984 . S
N2223 H2227 0.985 . S
H2224 N2219 0.984 . S
H2225 N2219 0.985 . S
H2226 N2223 0.984 . S
H2227 N2223 0.985 . S
H2228 N2222 0.984 . S
H2229 N2222 0.984 . S
H2230 N2218 0.984 . S
H2231 N2218 0.985 . S
C2232 C2233 1.363 . S
C2232 C2238 1.379 . S
C2232 N2240 1.356 . S
C2233 C2232 1.363 . S
C2233 C2239 1.363 . S
C2234 C2235 1.363 . S
C2234 C2239 1.379 . S
C2234 N2241 1.356 . S
C2235 C2234 1.363 . S
C2235 C2238 1.363 . S
N2236 C2238 1.356 . S
N2236 H2248 0.984 . S
N2236 H2249 0.985 . S
N2237 C2239 1.356 . S
N2237 H2242 0.984 . S
N2237 H2243 0.985 . S
C2238 C2232 1.379 . S
C2238 C2235 1.363 . S
C2238 N2236 1.356 . S
C2239 C2233 1.363 . S
C2239 C2234 1.379 . S
C2239 N2237 1.356 . S
N2240 C2232 1.356 . S
N2240 H2246 0.984 . S
N2240 H2247 0.984 . S
N2241 C2234 1.356 . S
N2241 H2244 0.984 . S
N2241 H2245 0.985 . S
H2242 N2237 0.984 . S
H2243 N2237 0.985 . S
H2244 N2241 0.984 . S
H2245 N2241 0.985 . S
H2246 N2240 0.984 . S
H2247 N2240 0.984 . S
H2248 N2236 0.984 . S
H2249 N2236 0.985 . S
C2250 C2251 1.363 . S
C2250 C2256 1.379 . S
C2250 N2258 1.356 . S
C2251 C2250 1.363 . S
C2251 C2257 1.363 . S
C2252 C2253 1.363 . S
C2252 C2257 1.379 . S
C2252 N2259 1.356 . S
C2253 C2252 1.363 . S
C2253 C2256 1.363 . S
N2254 C2256 1.356 . S
N2254 H2266 0.984 . S
N2254 H2267 0.985 . S
N2255 C2257 1.356 . S
N2255 H2260 0.984 . S
N2255 H2261 0.985 . S
C2256 C2250 1.379 . S
C2256 C2253 1.363 . S
C2256 N2254 1.356 . S
C2257 C2251 1.363 . S
C2257 C2252 1.379 . S
C2257 N2255 1.356 . S
N2258 C2250 1.356 . S
N2258 H2264 0.984 . S
N2258 H2265 0.984 . S
N2259 C2252 1.356 . S
N2259 H2262 0.984 . S
N2259 H2263 0.985 . S
H2260 N2255 0.984 . S
H2261 N2255 0.985 . S
H2262 N2259 0.984 . S
H2263 N2259 0.985 . S
H2264 N2258 0.984 . S
H2265 N2258 0.984 . S
H2266 N2254 0.984 . S
H2267 N2254 0.985 . S
C2268 C2269 1.363 . S
C2268 C2274 1.379 . S
C2268 N2276 1.356 . S
C2269 C2268 1.363 . S
C2269 C2275 1.363 . S
C2270 C2271 1.363 . S
C2270 C2275 1.379 . S
C2270 N2277 1.356 . S
C2271 C2270 1.363 . S
C2271 C2274 1.363 . S
N2272 C2274 1.356 . S
N2272 H2284 0.984 . S
N2272 H2285 0.985 . S
N2273 C2275 1.356 . S
N2273 H2278 0.984 . S
N2273 H2279 0.985 . S
C2274 C2268 1.379 . S
C2274 C2271 1.363 . S
C2274 N2272 1.356 . S
C2275 C2269 1.363 . S
C2275 C2270 1.379 . S
C2275 N2273 1.356 . S
N2276 C2268 1.356 . S
N2276 H2282 0.984 . S
N2276 H2283 0.984 . S
N2277 C2270 1.356 . S
N2277 H2280 0.984 . S
N2277 H2281 0.985 . S
H2278 N2273 0.984 . S
H2279 N2273 0.985 . S
H2280 N2277 0.984 . S
H2281 N2277 0.985 . S
H2282 N2276 0.984 . S
H2283 N2276 0.984 . S
H2284 N2272 0.984 . S
H2285 N2272 0.985 . S
C2286 C2287 1.363 . S
C2286 C2292 1.379 . S
C2286 N2294 1.356 . S
C2287 C2286 1.363 . S
C2287 C2293 1.363 . S
C2288 C2289 1.363 . S
C2288 C2293 1.379 . S
C2288 N2295 1.356 . S
C2289 C2288 1.363 . S
C2289 C2292 1.363 . S
N2290 C2292 1.356 . S
N2290 H2302 0.984 . S
N2290 H2303 0.985 . S
N2291 C2293 1.356 . S
N2291 H2296 0.984 . S
N2291 H2297 0.985 . S
C2292 C2286 1.379 . S
C2292 C2289 1.363 . S
C2292 N2290 1.356 . S
C2293 C2287 1.363 . S
C2293 C2288 1.379 . S
C2293 N2291 1.356 . S
N2294 C2286 1.356 . S
N2294 H2300 0.984 . S
N2294 H2301 0.984 . S
N2295 C2288 1.356 . S
N2295 H2298 0.984 . S
N2295 H2299 0.985 . S
H2296 N2291 0.984 . S
H2297 N2291 0.985 . S
H2298 N2295 0.984 . S
H2299 N2295 0.985 . S
H2300 N2294 0.984 . S
H2301 N2294 0.984 . S
H2302 N2290 0.984 . S
H2303 N2290 0.985 . S
C2304 C2305 1.363 . S
C2304 C2310 1.379 . S
C2304 N2312 1.356 . S
C2305 C2304 1.363 . S
C2305 C2311 1.363 . S
C2306 C2307 1.363 . S
C2306 C2311 1.379 . S
C2306 N2313 1.356 . S
C2307 C2306 1.363 . S
C2307 C2310 1.363 . S
N2308 C2310 1.356 . S
N2308 H2320 0.984 . S
N2308 H2321 0.985 . S
N2309 C2311 1.356 . S
N2309 H2314 0.984 . S
N2309 H2315 0.985 . S
C2310 C2304 1.379 . S
C2310 C2307 1.363 . S
C2310 N2308 1.356 . S
C2311 C2305 1.363 . S
C2311 C2306 1.379 . S
C2311 N2309 1.356 . S
N2312 C2304 1.356 . S
N2312 H2318 0.984 . S
N2312 H2319 0.984 . S
N2313 C2306 1.356 . S
N2313 H2316 0.984 . S
N2313 H2317 0.985 . S
H2314 N2309 0.984 . S
H2315 N2309 0.985 . S
H2316 N2313 0.984 . S
H2317 N2313 0.985 . S
H2318 N2312 0.984 . S
H2319 N2312 0.984 . S
H2320 N2308 0.984 . S
H2321 N2308 0.985 . S
C2322 C2323 1.363 . S
C2322 C2328 1.379 . S
C2322 N2330 1.356 . S
C2323 C2322 1.363 . S
C2323 C2329 1.363 . S
C2324 C2325 1.363 . S
C2324 C2329 1.379 . S
C2324 N2331 1.356 . S
C2325 C2324 1.363 . S
C2325 C2328 1.363 . S
N2326 C2328 1.356 . S
N2326 H2338 0.984 . S
N2326 H2339 0.985 . S
N2327 C2329 1.356 . S
N2327 H2332 0.984 . S
N2327 H2333 0.985 . S
C2328 C2322 1.379 . S
C2328 C2325 1.363 . S
C2328 N2326 1.356 . S
C2329 C2323 1.363 . S
C2329 C2324 1.379 . S
C2329 N2327 1.356 . S
N2330 C2322 1.356 . S
N2330 H2336 0.984 . S
N2330 H2337 0.984 . S
N2331 C2324 1.356 . S
N2331 H2334 0.984 . S
N2331 H2335 0.985 . S
H2332 N2327 0.984 . S
H2333 N2327 0.985 . S
H2334 N2331 0.984 . S
H2335 N2331 0.985 . S
H2336 N2330 0.984 . S
H2337 N2330 0.984 . S
H2338 N2326 0.984 . S
H2339 N2326 0.985 . S
C2340 C2341 1.363 . S
C2340 C2346 1.379 . S
C2340 N2348 1.356 . S
C2341 C2340 1.363 . S
C2341 C2347 1.363 . S
C2342 C2343 1.363 . S
C2342 C2347 1.379 . S
C2342 N2349 1.356 . S
C2343 C2342 1.363 . S
C2343 C2346 1.363 . S
N2344 C2346 1.356 . S
N2344 H2356 0.984 . S
N2344 H2357 0.985 . S
N2345 C2347 1.356 . S
N2345 H2350 0.984 . S
N2345 H2351 0.985 . S
C2346 C2340 1.379 . S
C2346 C2343 1.363 . S
C2346 N2344 1.356 . S
C2347 C2341 1.363 . S
C2347 C2342 1.379 . S
C2347 N2345 1.356 . S
N2348 C2340 1.356 . S
N2348 H2354 0.984 . S
N2348 H2355 0.984 . S
N2349 C2342 1.356 . S
N2349 H2352 0.984 . S
N2349 H2353 0.985 . S
H2350 N2345 0.984 . S
H2351 N2345 0.985 . S
H2352 N2349 0.984 . S
H2353 N2349 0.985 . S
H2354 N2348 0.984 . S
H2355 N2348 0.984 . S
H2356 N2344 0.984 . S
H2357 N2344 0.985 . S
C2358 C2359 1.363 . S
C2358 C2364 1.379 . S
C2358 N2366 1.356 . S
C2359 C2358 1.363 . S
C2359 C2365 1.363 . S
C2360 C2361 1.363 . S
C2360 C2365 1.379 . S
C2360 N2367 1.356 . S
C2361 C2360 1.363 . S
C2361 C2364 1.363 . S
N2362 C2364 1.356 . S
N2362 H2374 0.984 . S
N2362 H2375 0.985 . S
N2363 C2365 1.356 . S
N2363 H2368 0.984 . S
N2363 H2369 0.985 . S
C2364 C2358 1.379 . S
C2364 C2361 1.363 . S
C2364 N2362 1.356 . S
C2365 C2359 1.363 . S
C2365 C2360 1.379 . S
C2365 N2363 1.356 . S
N2366 C2358 1.356 . S
N2366 H2372 0.984 . S
N2366 H2373 0.984 . S
N2367 C2360 1.356 . S
N2367 H2370 0.984 . S
N2367 H2371 0.985 . S
H2368 N2363 0.984 . S
H2369 N2363 0.985 . S
H2370 N2367 0.984 . S
H2371 N2367 0.985 . S
H2372 N2366 0.984 . S
H2373 N2366 0.984 . S
H2374 N2362 0.984 . S
H2375 N2362 0.985 . S
C2376 C2377 1.363 . S
C2376 C2382 1.379 . S
C2376 N2384 1.356 . S
C2377 C2376 1.363 . S
C2377 C2383 1.363 . S
C2378 C2379 1.363 . S
C2378 C2383 1.379 . S
C2378 N2385 1.356 . S
C2379 C2378 1.363 . S
C2379 C2382 1.363 . S
N2380 C2382 1.356 . S
N2380 H2392 0.984 . S
N2380 H2393 0.985 . S
N2381 C2383 1.356 . S
N2381 H2386 0.984 . S
N2381 H2387 0.985 . S
C2382 C2376 1.379 . S
C2382 C2379 1.363 . S
C2382 N2380 1.356 . S
C2383 C2377 1.363 . S
C2383 C2378 1.379 . S
C2383 N2381 1.356 . S
N2384 C2376 1.356 . S
N2384 H2390 0.984 . S
N2384 H2391 0.984 . S
N2385 C2378 1.356 . S
N2385 H2388 0.984 . S
N2385 H2389 0.985 . S
H2386 N2381 0.984 . S
H2387 N2381 0.985 . S
H2388 N2385 0.984 . S
H2389 N2385 0.985 . S
H2390 N2384 0.984 . S
H2391 N2384 0.984 . S
H2392 N2380 0.984 . S
H2393 N2380 0.985 . S
C2394 C2395 1.363 . S
C2394 C2400 1.379 . S
C2394 N2402 1.356 . S
C2395 C2394 1.363 . S
C2395 C2401 1.363 . S
C2396 C2397 1.363 . S
C2396 C2401 1.379 . S
C2396 N2403 1.356 . S
C2397 C2396 1.363 . S
C2397 C2400 1.363 . S
N2398 C2400 1.356 . S
N2398 H2410 0.984 . S
N2398 H2411 0.985 . S
N2399 C2401 1.356 . S
N2399 H2404 0.984 . S
N2399 H2405 0.985 . S
C2400 C2394 1.379 . S
C2400 C2397 1.363 . S
C2400 N2398 1.356 . S
C2401 C2395 1.363 . S
C2401 C2396 1.379 . S
C2401 N2399 1.356 . S
N2402 C2394 1.356 . S
N2402 H2408 0.984 . S
N2402 H2409 0.984 . S
N2403 C2396 1.356 . S
N2403 H2406 0.984 . S
N2403 H2407 0.985 . S
H2404 N2399 0.984 . S
H2405 N2399 0.985 . S
H2406 N2403 0.984 . S
H2407 N2403 0.985 . S
H2408 N2402 0.984 . S
H2409 N2402 0.984 . S
H2410 N2398 0.984 . S
H2411 N2398 0.985 . S
C2412 C2413 1.363 . S
C2412 C2418 1.379 . S
C2412 N2420 1.356 . S
C2413 C2412 1.363 . S
C2413 C2419 1.363 . S
C2414 C2415 1.363 . S
C2414 C2419 1.379 . S
C2414 N2421 1.356 . S
C2415 C2414 1.363 . S
C2415 C2418 1.363 . S
N2416 C2418 1.356 . S
N2416 H2428 0.984 . S
N2416 H2429 0.985 . S
N2417 C2419 1.356 . S
N2417 H2422 0.984 . S
N2417 H2423 0.985 . S
C2418 C2412 1.379 . S
C2418 C2415 1.363 . S
C2418 N2416 1.356 . S
C2419 C2413 1.363 . S
C2419 C2414 1.379 . S
C2419 N2417 1.356 . S
N2420 C2412 1.356 . S
N2420 H2426 0.984 . S
N2420 H2427 0.984 . S
N2421 C2414 1.356 . S
N2421 H2424 0.984 . S
N2421 H2425 0.985 . S
H2422 N2417 0.984 . S
H2423 N2417 0.985 . S
H2424 N2421 0.984 . S
H2425 N2421 0.985 . S
H2426 N2420 0.984 . S
H2427 N2420 0.984 . S
H2428 N2416 0.984 . S
H2429 N2416 0.985 . S
C2430 C2431 1.363 . S
C2430 C2436 1.379 . S
C2430 N2438 1.356 . S
C2431 C2430 1.363 . S
C2431 C2437 1.363 . S
C2432 C2433 1.363 . S
C2432 C2437 1.379 . S
C2432 N2439 1.356 . S
C2433 C2432 1.363 . S
C2433 C2436 1.363 . S
N2434 C2436 1.356 . S
N2434 H2446 0.984 . S
N2434 H2447 0.985 . S
N2435 C2437 1.356 . S
N2435 H2440 0.984 . S
N2435 H2441 0.985 . S
C2436 C2430 1.379 . S
C2436 C2433 1.363 . S
C2436 N2434 1.356 . S
C2437 C2431 1.363 . S
C2437 C2432 1.379 . S
C2437 N2435 1.356 . S
N2438 C2430 1.356 . S
N2438 H2444 0.984 . S
N2438 H2445 0.984 . S
N2439 C2432 1.356 . S
N2439 H2442 0.984 . S
N2439 H2443 0.985 . S
H2440 N2435 0.984 . S
H2441 N2435 0.985 . S
H2442 N2439 0.984 . S
H2443 N2439 0.985 . S
H2444 N2438 0.984 . S
H2445 N2438 0.984 . S
H2446 N2434 0.984 . S
H2447 N2434 0.985 . S
C2448 C2449 1.363 . S
C2448 C2454 1.379 . S
C2448 N2456 1.356 . S
C2449 C2448 1.363 . S
C2449 C2455 1.363 . S
C2450 C2451 1.363 . S
C2450 C2455 1.379 . S
C2450 N2457 1.356 . S
C2451 C2450 1.363 . S
C2451 C2454 1.363 . S
N2452 C2454 1.356 . S
N2452 H2464 0.984 . S
N2452 H2465 0.985 . S
N2453 C2455 1.356 . S
N2453 H2458 0.984 . S
N2453 H2459 0.985 . S
C2454 C2448 1.379 . S
C2454 C2451 1.363 . S
C2454 N2452 1.356 . S
C2455 C2449 1.363 . S
C2455 C2450 1.379 . S
C2455 N2453 1.356 . S
N2456 C2448 1.356 . S
N2456 H2462 0.984 . S
N2456 H2463 0.984 . S
N2457 C2450 1.356 . S
N2457 H2460 0.984 . S
N2457 H2461 0.985 . S
H2458 N2453 0.984 . S
H2459 N2453 0.985 . S
H2460 N2457 0.984 . S
H2461 N2457 0.985 . S
H2462 N2456 0.984 . S
H2463 N2456 0.984 . S
H2464 N2452 0.984 . S
H2465 N2452 0.985 . S
C2466 C2467 1.363 . S
C2466 C2472 1.379 . S
C2466 N2474 1.356 . S
C2467 C2466 1.363 . S
C2467 C2473 1.363 . S
C2468 C2469 1.363 . S
C2468 C2473 1.379 . S
C2468 N2475 1.356 . S
C2469 C2468 1.363 . S
C2469 C2472 1.363 . S
N2470 C2472 1.356 . S
N2470 H2482 0.984 . S
N2470 H2483 0.985 . S
N2471 C2473 1.356 . S
N2471 H2476 0.984 . S
N2471 H2477 0.985 . S
C2472 C2466 1.379 . S
C2472 C2469 1.363 . S
C2472 N2470 1.356 . S
C2473 C2467 1.363 . S
C2473 C2468 1.379 . S
C2473 N2471 1.356 . S
N2474 C2466 1.356 . S
N2474 H2480 0.984 . S
N2474 H2481 0.984 . S
N2475 C2468 1.356 . S
N2475 H2478 0.984 . S
N2475 H2479 0.985 . S
H2476 N2471 0.984 . S
H2477 N2471 0.985 . S
H2478 N2475 0.984 . S
H2479 N2475 0.985 . S
H2480 N2474 0.984 . S
H2481 N2474 0.984 . S
H2482 N2470 0.984 . S
H2483 N2470 0.985 . S
C2484 C2485 1.363 . S
C2484 C2490 1.379 . S
C2484 N2492 1.356 . S
C2485 C2484 1.363 . S
C2485 C2491 1.363 . S
C2486 C2487 1.363 . S
C2486 C2491 1.379 . S
C2486 N2493 1.356 . S
C2487 C2486 1.363 . S
C2487 C2490 1.363 . S
N2488 C2490 1.356 . S
N2488 H2500 0.984 . S
N2488 H2501 0.985 . S
N2489 C2491 1.356 . S
N2489 H2494 0.984 . S
N2489 H2495 0.985 . S
C2490 C2484 1.379 . S
C2490 C2487 1.363 . S
C2490 N2488 1.356 . S
C2491 C2485 1.363 . S
C2491 C2486 1.379 . S
C2491 N2489 1.356 . S
N2492 C2484 1.356 . S
N2492 H2498 0.984 . S
N2492 H2499 0.984 . S
N2493 C2486 1.356 . S
N2493 H2496 0.984 . S
N2493 H2497 0.985 . S
H2494 N2489 0.984 . S
H2495 N2489 0.985 . S
H2496 N2493 0.984 . S
H2497 N2493 0.985 . S
H2498 N2492 0.984 . S
H2499 N2492 0.984 . S
H2500 N2488 0.984 . S
H2501 N2488 0.985 . S
C2502 C2503 1.363 . S
C2502 C2508 1.379 . S
C2502 N2510 1.356 . S
C2503 C2502 1.363 . S
C2503 C2509 1.363 . S
C2504 C2505 1.363 . S
C2504 C2509 1.379 . S
C2504 N2511 1.356 . S
C2505 C2504 1.363 . S
C2505 C2508 1.363 . S
N2506 C2508 1.356 . S
N2506 H2518 0.984 . S
N2506 H2519 0.985 . S
N2507 C2509 1.356 . S
N2507 H2512 0.984 . S
N2507 H2513 0.985 . S
C2508 C2502 1.379 . S
C2508 C2505 1.363 . S
C2508 N2506 1.356 . S
C2509 C2503 1.363 . S
C2509 C2504 1.379 . S
C2509 N2507 1.356 . S
N2510 C2502 1.356 . S
N2510 H2516 0.984 . S
N2510 H2517 0.984 . S
N2511 C2504 1.356 . S
N2511 H2514 0.984 . S
N2511 H2515 0.985 . S
H2512 N2507 0.984 . S
H2513 N2507 0.985 . S
H2514 N2511 0.984 . S
H2515 N2511 0.985 . S
H2516 N2510 0.984 . S
H2517 N2510 0.984 . S
H2518 N2506 0.984 . S
H2519 N2506 0.985 . S
C2520 C2521 1.363 . S
C2520 C2526 1.379 . S
C2520 N2528 1.356 . S
C2521 C2520 1.363 . S
C2521 C2527 1.363 . S
C2522 C2523 1.363 . S
C2522 C2527 1.379 . S
C2522 N2529 1.356 . S
C2523 C2522 1.363 . S
C2523 C2526 1.363 . S
N2524 C2526 1.356 . S
N2524 H2536 0.984 . S
N2524 H2537 0.985 . S
N2525 C2527 1.356 . S
N2525 H2530 0.984 . S
N2525 H2531 0.985 . S
C2526 C2520 1.379 . S
C2526 C2523 1.363 . S
C2526 N2524 1.356 . S
C2527 C2521 1.363 . S
C2527 C2522 1.379 . S
C2527 N2525 1.356 . S
N2528 C2520 1.356 . S
N2528 H2534 0.984 . S
N2528 H2535 0.984 . S
N2529 C2522 1.356 . S
N2529 H2532 0.984 . S
N2529 H2533 0.985 . S
H2530 N2525 0.984 . S
H2531 N2525 0.985 . S
H2532 N2529 0.984 . S
H2533 N2529 0.985 . S
H2534 N2528 0.984 . S
H2535 N2528 0.984 . S
H2536 N2524 0.984 . S
H2537 N2524 0.985 . S
C2538 C2539 1.363 . S
C2538 C2544 1.379 . S
C2538 N2546 1.356 . S
C2539 C2538 1.363 . S
C2539 C2545 1.363 . S
C2540 C2541 1.363 . S
C2540 C2545 1.379 . S
C2540 N2547 1.356 . S
C2541 C2540 1.363 . S
C2541 C2544 1.363 . S
N2542 C2544 1.346 1_556 S
N2542 H2554 0.998 . S
N2542 H2555 0.982 1_556 S
N2543 C2545 1.356 . S
N2543 H2548 0.984 . S
N2543 H2549 0.985 . S
C2544 C2538 1.379 . S
C2544 C2541 1.363 . S
C2544 N2542 1.346 1_554 S
C2545 C2539 1.363 . S
C2545 C2540 1.379 . S
C2545 N2543 1.356 . S
N2546 C2538 1.356 . S
N2546 H2552 0.984 1_554 S
N2546 H2553 0.984 . S
N2547 C2540 1.356 . S
N2547 H2550 0.984 . S
N2547 H2551 0.985 . S
H2548 N2543 0.984 . S
H2549 N2543 0.985 . S
H2550 N2547 0.984 . S
H2551 N2547 0.985 . S
H2552 N2546 0.984 1_556 S
H2553 N2546 0.984 . S
H2554 N2542 0.998 . S
H2555 N2542 0.982 1_554 S
C2556 C2557 1.363 . S
C2556 C2562 1.379 . S
C2556 N2564 1.356 . S
C2557 C2556 1.363 . S
C2557 C2563 1.363 . S
C2558 C2559 1.363 . S
C2558 C2563 1.379 . S
C2558 N2565 1.356 . S
C2559 C2558 1.363 . S
C2559 C2562 1.363 . S
N2560 C2562 1.356 . S
N2560 H2572 0.984 1_554 S
N2560 H2573 0.985 . S
N2561 C2563 1.356 . S
N2561 H2566 0.984 . S
N2561 H2567 0.985 . S
C2562 C2556 1.379 . S
C2562 C2559 1.363 . S
C2562 N2560 1.356 . S
C2563 C2557 1.363 . S
C2563 C2558 1.379 . S
C2563 N2561 1.356 . S
N2564 C2556 1.356 . S
N2564 H2570 0.984 1_554 S
N2564 H2571 0.984 . S
N2565 C2558 1.356 . S
N2565 H2568 0.984 . S
N2565 H2569 0.985 . S
H2566 N2561 0.984 . S
H2567 N2561 0.985 . S
H2568 N2565 0.984 . S
H2569 N2565 0.985 . S
H2570 N2564 0.984 1_556 S
H2571 N2564 0.984 . S
H2572 N2560 0.984 1_556 S
H2573 N2560 0.985 . S
C2574 C2575 1.363 . S
C2574 C2580 1.379 . S
C2574 N2582 1.356 . S
C2575 C2574 1.363 . S
C2575 C2581 1.363 . S
C2576 C2577 1.363 . S
C2576 C2581 1.379 . S
C2576 N2583 1.356 . S
C2577 C2576 1.363 . S
C2577 C2580 1.363 . S
N2578 C2580 1.356 1_556 S
N2578 H2590 0.984 . S
N2578 H2591 0.985 1_556 S
N2579 C2581 1.356 . S
N2579 H2584 0.984 . S
N2579 H2585 0.985 . S
C2580 C2574 1.379 . S
C2580 C2577 1.363 . S
C2580 N2578 1.356 1_554 S
C2581 C2575 1.363 . S
C2581 C2576 1.379 . S
C2581 N2579 1.356 . S
N2582 C2574 1.356 . S
N2582 H2588 0.984 1_554 S
N2582 H2589 0.984 . S
N2583 C2576 1.356 . S
N2583 H2586 0.984 . S
N2583 H2587 0.985 . S
H2584 N2579 0.984 . S
H2585 N2579 0.985 . S
H2586 N2583 0.984 . S
H2587 N2583 0.985 . S
H2588 N2582 0.984 1_556 S
H2589 N2582 0.984 . S
H2590 N2578 0.984 . S
H2591 N2578 0.985 1_554 S
C2592 C2593 1.363 . S
C2592 C2598 1.379 . S
C2592 N2600 1.356 . S
C2593 C2592 1.363 . S
C2593 C2599 1.363 . S
C2594 C2595 1.363 . S
C2594 C2599 1.379 . S
C2594 N2601 1.356 . S
C2595 C2594 1.363 . S
C2595 C2598 1.363 . S
N2596 C2598 1.356 . S
N2596 H2608 0.984 . S
N2596 H2609 0.985 . S
N2597 C2599 1.356 . S
N2597 H2602 0.984 . S
N2597 H2603 0.985 . S
C2598 C2592 1.379 . S
C2598 C2595 1.363 . S
C2598 N2596 1.356 . S
C2599 C2593 1.363 . S
C2599 C2594 1.379 . S
C2599 N2597 1.356 . S
N2600 C2592 1.356 . S
N2600 H2606 0.984 . S
N2600 H2607 0.984 . S
N2601 C2594 1.356 . S
N2601 H2604 0.984 . S
N2601 H2605 0.985 . S
H2602 N2597 0.984 . S
H2603 N2597 0.985 . S
H2604 N2601 0.984 . S
H2605 N2601 0.985 . S
H2606 N2600 0.984 . S
H2607 N2600 0.984 . S
H2608 N2596 0.984 . S
H2609 N2596 0.985 . S
C2610 C2611 1.363 . S
C2610 C2616 1.379 . S
C2610 N2618 1.356 . S
C2611 C2610 1.363 . S
C2611 C2617 1.363 . S
C2612 C2613 1.363 . S
C2612 C2617 1.379 . S
C2612 N2619 1.356 . S
C2613 C2612 1.363 . S
C2613 C2616 1.363 . S
N2614 C2616 1.356 . S
N2614 H2626 0.984 . S
N2614 H2627 0.985 . S
N2615 C2617 1.356 . S
N2615 H2620 0.984 . S
N2615 H2621 0.985 . S
C2616 C2610 1.379 . S
C2616 C2613 1.363 . S
C2616 N2614 1.356 . S
C2617 C2611 1.363 . S
C2617 C2612 1.379 . S
C2617 N2615 1.356 . S
N2618 C2610 1.356 . S
N2618 H2624 0.984 . S
N2618 H2625 0.984 . S
N2619 C2612 1.356 . S
N2619 H2622 0.984 . S
N2619 H2623 0.985 . S
H2620 N2615 0.984 . S
H2621 N2615 0.985 . S
H2622 N2619 0.984 . S
H2623 N2619 0.985 . S
H2624 N2618 0.984 . S
H2625 N2618 0.984 . S
H2626 N2614 0.984 . S
H2627 N2614 0.985 . S
C2628 C2629 1.363 . S
C2628 C2634 1.379 . S
C2628 N2636 1.356 . S
C2629 C2628 1.363 . S
C2629 C2635 1.363 . S
C2630 C2631 1.363 . S
C2630 C2635 1.379 . S
C2630 N2637 1.356 . S
C2631 C2630 1.363 . S
C2631 C2634 1.363 . S
N2632 C2634 1.356 . S
N2632 H2644 0.984 . S
N2632 H2645 0.985 . S
N2633 C2635 1.356 . S
N2633 H2638 0.984 . S
N2633 H2639 0.985 . S
C2634 C2628 1.379 . S
C2634 C2631 1.363 . S
C2634 N2632 1.356 . S
C2635 C2629 1.363 . S
C2635 C2630 1.379 . S
C2635 N2633 1.356 . S
N2636 C2628 1.356 . S
N2636 H2642 0.984 . S
N2636 H2643 0.984 . S
N2637 C2630 1.356 . S
N2637 H2640 0.984 . S
N2637 H2641 0.985 . S
H2638 N2633 0.984 . S
H2639 N2633 0.985 . S
H2640 N2637 0.984 . S
H2641 N2637 0.985 . S
H2642 N2636 0.984 . S
H2643 N2636 0.984 . S
H2644 N2632 0.984 . S
H2645 N2632 0.985 . S
C2646 C2647 1.363 . S
C2646 C2652 1.379 . S
C2646 N2654 1.356 . S
C2647 C2646 1.363 . S
C2647 C2653 1.363 . S
C2648 C2649 1.363 . S
C2648 C2653 1.379 . S
C2648 N2655 1.356 . S
C2649 C2648 1.363 . S
C2649 C2652 1.363 . S
N2650 C2652 1.356 . S
N2650 H2662 0.984 1_556 S
N2650 H2663 0.985 . S
N2651 C2653 1.356 . S
N2651 H2656 0.984 . S
N2651 H2657 0.985 . S
C2652 C2646 1.379 . S
C2652 C2649 1.363 . S
C2652 N2650 1.356 . S
C2653 C2647 1.363 . S
C2653 C2648 1.379 . S
C2653 N2651 1.356 . S
N2654 C2646 1.356 . S
N2654 H2660 0.984 . S
N2654 H2661 0.984 . S
N2655 C2648 1.356 . S
N2655 H2658 0.984 . S
N2655 H2659 0.985 . S
H2656 N2651 0.984 . S
H2657 N2651 0.985 . S
H2658 N2655 0.984 . S
H2659 N2655 0.985 . S
H2660 N2654 0.984 . S
H2661 N2654 0.984 . S
H2662 N2650 0.984 1_554 S
H2663 N2650 0.985 . S
C2664 C2665 1.363 . S
C2664 C2670 1.379 . S
C2664 N2672 1.356 . S
C2665 C2664 1.363 . S
C2665 C2671 1.363 . S
C2666 C2667 1.363 . S
C2666 C2671 1.379 . S
C2666 N2673 1.356 . S
C2667 C2666 1.363 . S
C2667 C2670 1.363 . S
N2668 C2670 1.356 1_554 S
N2668 H2680 0.985 . S
N2668 H2681 0.984 1_554 S
N2669 C2671 1.356 . S
N2669 H2674 0.984 . S
N2669 H2675 0.985 . S
C2670 C2664 1.379 . S
C2670 C2667 1.363 . S
C2670 N2668 1.356 1_556 S
C2671 C2665 1.363 . S
C2671 C2666 1.379 . S
C2671 N2669 1.356 . S
N2672 C2664 1.356 . S
N2672 H2678 0.984 1_556 S
N2672 H2679 0.984 . S
N2673 C2666 1.356 . S
N2673 H2676 0.984 . S
N2673 H2677 0.985 . S
H2674 N2669 0.984 . S
H2675 N2669 0.985 . S
H2676 N2673 0.984 . S
H2677 N2673 0.985 . S
H2678 N2672 0.984 1_554 S
H2679 N2672 0.984 . S
H2680 N2668 0.985 . S
H2681 N2668 0.984 1_556 S
C2682 C2683 1.363 . S
C2682 C2688 1.379 . S
C2682 N2690 1.356 . S
C2683 C2682 1.363 . S
C2683 C2689 1.363 . S
C2684 C2685 1.363 . S
C2684 C2689 1.379 . S
C2684 N2691 1.356 . S
C2685 C2684 1.363 . S
C2685 C2688 1.363 . S
N2686 C2688 1.356 . S
N2686 H2698 0.984 . S
N2686 H2699 0.985 . S
N2687 C2689 1.356 1_554 S
N2687 H2692 0.984 . S
N2687 H2693 0.985 . S
C2688 C2682 1.379 . S
C2688 C2685 1.363 . S
C2688 N2686 1.356 . S
C2689 C2683 1.363 . S
C2689 C2684 1.379 . S
C2689 N2687 1.356 1_556 S
N2690 C2682 1.356 . S
N2690 H2696 0.984 . S
N2690 H2697 0.984 . S
N2691 C2684 1.356 . S
N2691 H2694 0.984 . S
N2691 H2695 0.985 1_556 S
H2692 N2687 0.984 . S
H2693 N2687 0.985 . S
H2694 N2691 0.984 . S
H2695 N2691 0.985 1_554 S
H2696 N2690 0.984 . S
H2697 N2690 0.984 . S
H2698 N2686 0.984 . S
H2699 N2686 0.985 . S
C2700 C2701 1.363 . S
C2700 C2706 1.379 1_455 S
C2700 N2708 1.356 . S
C2701 C2700 1.363 . S
C2701 C2707 1.363 . S
C2702 C2703 1.363 . S
C2702 C2707 1.379 1_655 S
C2702 N2709 1.356 . S
C2703 C2702 1.363 . S
C2703 C2706 1.363 . S
N2704 C2706 1.356 . S
N2704 H2716 0.984 . S
N2704 H2717 0.985 . S
N2705 C2707 1.356 . S
N2705 H2710 0.984 . S
N2705 H2711 0.985 . S
C2706 C2700 1.379 1_655 S
C2706 C2703 1.363 . S
C2706 N2704 1.356 . S
C2707 C2701 1.363 . S
C2707 C2702 1.379 1_455 S
C2707 N2705 1.356 . S
N2708 C2700 1.356 . S
N2708 H2714 0.984 . S
N2708 H2715 0.984 . S
N2709 C2702 1.356 . S
N2709 H2712 0.984 . S
N2709 H2713 0.985 . S
H2710 N2705 0.984 . S
H2711 N2705 0.985 . S
H2712 N2709 0.984 . S
H2713 N2709 0.985 . S
H2714 N2708 0.984 . S
H2715 N2708 0.984 . S
H2716 N2704 0.984 . S
H2717 N2704 0.985 . S
C2718 C2719 1.363 . S
C2718 C2724 1.379 . S
C2718 N2726 1.356 . S
C2719 C2718 1.363 . S
C2719 C2725 1.363 . S
C2720 C2721 1.363 . S
C2720 C2725 1.379 . S
C2720 N2727 1.356 . S
C2721 C2720 1.363 . S
C2721 C2724 1.363 . S
N2722 C2724 1.356 . S
N2722 H2734 0.984 . S
N2722 H2735 0.985 . S
N2723 C2725 1.356 . S
N2723 H2728 0.984 . S
N2723 H2729 0.985 . S
C2724 C2718 1.379 . S
C2724 C2721 1.363 . S
C2724 N2722 1.356 . S
C2725 C2719 1.363 . S
C2725 C2720 1.379 . S
C2725 N2723 1.356 . S
N2726 C2718 1.356 . S
N2726 H2732 0.984 . S
N2726 H2733 0.984 . S
N2727 C2720 1.356 . S
N2727 H2730 0.984 . S
N2727 H2731 0.985 . S
H2728 N2723 0.984 . S
H2729 N2723 0.985 . S
H2730 N2727 0.984 . S
H2731 N2727 0.985 . S
H2732 N2726 0.984 . S
H2733 N2726 0.984 . S
H2734 N2722 0.984 . S
H2735 N2722 0.985 . S
C2736 C2737 1.363 . S
C2736 C2742 1.379 1_545 S
C2736 N2744 1.356 . S
C2737 C2736 1.363 . S
C2737 C2743 1.363 . S
C2738 C2739 1.363 . S
C2738 C2743 1.379 1_565 S
C2738 N2745 1.356 . S
C2739 C2738 1.363 . S
C2739 C2742 1.363 . S
N2740 C2742 1.356 . S
N2740 H2752 0.984 . S
N2740 H2753 0.985 . S
N2741 C2743 1.356 . S
N2741 H2746 0.984 . S
N2741 H2747 0.985 . S
C2742 C2736 1.379 1_565 S
C2742 C2739 1.363 . S
C2742 N2740 1.356 . S
C2743 C2737 1.363 . S
C2743 C2738 1.379 1_545 S
C2743 N2741 1.356 . S
N2744 C2736 1.356 . S
N2744 H2750 0.984 . S
N2744 H2751 0.984 . S
N2745 C2738 1.356 . S
N2745 H2748 0.984 . S
N2745 H2749 0.985 . S
H2746 N2741 0.984 . S
H2747 N2741 0.985 . S
H2748 N2745 0.984 . S
H2749 N2745 0.985 . S
H2750 N2744 0.984 . S
H2751 N2744 0.984 . S
H2752 N2740 0.984 . S
H2753 N2740 0.985 . S
C2754 C2755 1.363 . S
C2754 C2760 1.379 1_545 S
C2754 N2762 1.356 . S
C2755 C2754 1.363 . S
C2755 C2761 1.363 . S
C2756 C2757 1.363 . S
C2756 C2761 1.379 1_565 S
C2756 N2763 1.356 . S
C2757 C2756 1.363 . S
C2757 C2760 1.363 . S
N2758 C2760 1.356 . S
N2758 H2770 0.984 . S
N2758 H2771 0.985 . S
N2759 C2761 1.356 . S
N2759 H2764 0.984 . S
N2759 H2765 0.985 . S
C2760 C2754 1.379 1_565 S
C2760 C2757 1.363 . S
C2760 N2758 1.356 . S
C2761 C2755 1.363 . S
C2761 C2756 1.379 1_545 S
C2761 N2759 1.356 . S
N2762 C2754 1.356 . S
N2762 H2768 0.984 . S
N2762 H2769 0.984 . S
N2763 C2756 1.356 . S
N2763 H2766 0.984 . S
N2763 H2767 0.985 . S
H2764 N2759 0.984 . S
H2765 N2759 0.985 . S
H2766 N2763 0.984 . S
H2767 N2763 0.985 . S
H2768 N2762 0.984 . S
H2769 N2762 0.984 . S
H2770 N2758 0.984 . S
H2771 N2758 0.985 . S
C2772 C2773 1.363 . S
C2772 C2778 1.379 1_455 S
C2772 N2780 1.356 . S
C2773 C2772 1.363 . S
C2773 C2779 1.363 . S
C2774 C2775 1.363 . S
C2774 C2779 1.379 1_655 S
C2774 N2781 1.356 . S
C2775 C2774 1.363 . S
C2775 C2778 1.363 . S
N2776 C2778 1.356 . S
N2776 H2788 0.984 . S
N2776 H2789 0.985 . S
N2777 C2779 1.356 . S
N2777 H2782 0.984 . S
N2777 H2783 0.985 . S
C2778 C2772 1.379 1_655 S
C2778 C2775 1.363 . S
C2778 N2776 1.356 . S
C2779 C2773 1.363 . S
C2779 C2774 1.379 1_455 S
C2779 N2777 1.356 . S
N2780 C2772 1.356 . S
N2780 H2786 0.984 . S
N2780 H2787 0.984 . S
N2781 C2774 1.356 . S
N2781 H2784 0.984 . S
N2781 H2785 0.985 . S
H2782 N2777 0.984 . S
H2783 N2777 0.985 . S
H2784 N2781 0.984 . S
H2785 N2781 0.985 . S
H2786 N2780 0.984 . S
H2787 N2780 0.984 . S
H2788 N2776 0.984 . S
H2789 N2776 0.985 . S
C2790 C2791 1.363 . S
C2790 C2796 1.379 . S
C2790 N2798 1.356 . S
C2791 C2790 1.363 . S
C2791 C2797 1.363 . S
C2792 C2793 1.363 . S
C2792 C2797 1.379 . S
C2792 N2799 1.356 . S
C2793 C2792 1.363 . S
C2793 C2796 1.363 . S
N2794 C2796 1.356 . S
N2794 H2806 0.984 . S
N2794 H2807 0.985 . S
N2795 C2797 1.356 . S
N2795 H2800 0.984 . S
N2795 H2801 0.985 . S
C2796 C2790 1.379 . S
C2796 C2793 1.363 . S
C2796 N2794 1.356 . S
C2797 C2791 1.363 . S
C2797 C2792 1.379 . S
C2797 N2795 1.356 . S
N2798 C2790 1.356 . S
N2798 H2804 0.984 . S
N2798 H2805 0.984 . S
N2799 C2792 1.356 . S
N2799 H2802 0.984 . S
N2799 H2803 0.985 . S
H2800 N2795 0.984 . S
H2801 N2795 0.985 . S
H2802 N2799 0.984 . S
H2803 N2799 0.985 . S
H2804 N2798 0.984 . S
H2805 N2798 0.984 . S
H2806 N2794 0.984 . S
H2807 N2794 0.985 . S
C1189 C612 1.320 . S
C1191 C18 1.320 . S
C1207 C51 1.319 . S
C1209 C645 1.319 . S
C1225 C678 1.319 . S
C1227 C84 1.319 . S
C1243 C1107 1.319 . S
C1245 C117 1.319 . S
C1261 C1140 1.319 . S
C1263 C150 1.319 . S
C1279 C183 1.319 . S
C1281 C1173 1.319 . S
C1297 C216 1.320 . S
C1299 C810 1.320 . S
C1315 C843 1.319 . S
C1317 C249 1.319 . S
C1333 C282 1.319 . S
C1335 C876 1.319 . S
C1351 C513 1.319 . S
C1353 C315 1.319 . S
C1369 C348 1.319 . S
C1371 C546 1.319 . S
C1387 C579 1.319 . S
C1389 C381 1.319 . S
C1405 C1008 1.319 . S
C1407 C414 1.319 . S
C1423 C447 1.319 . S
C1425 C1041 1.319 . S
C1441 C480 1.319 . S
C1443 C1074 1.319 . S
C1459 C909 1.322 . S
C1461 C711 1.322 . S
C1477 C744 1.322 . S
C1479 C942 1.322 . S
C1495 C777 1.322 . S
C1497 C975 1.322 . S
C1513 C21 1.306 . S
C1515 C120 1.306 . S
C1531 C153 1.305 . S
C1533 C54 1.305 . S
C1549 C87 1.305 . S
C1551 C186 1.305 . S
C1567 C318 1.306 . S
C1569 C219 1.306 . S
C1585 C252 1.305 . S
C1587 C351 1.305 . S
C1603 C384 1.305 . S
C1605 C285 1.305 . S
C1621 C417 1.306 . S
C1623 C516 1.306 . S
C1639 C450 1.305 . S
C1641 C549 1.305 . S
C1657 C582 1.305 . S
C1659 C483 1.305 . S
C1675 C615 1.306 . S
C1677 C714 1.306 . S
C1693 C648 1.305 . S
C1695 C747 1.305 . S
C1711 C780 1.305 . S
C1713 C681 1.305 . S
C1729 C813 1.306 . S
C1731 C912 1.306 . S
C1747 C945 1.305 . S
C1749 C846 1.305 . S
C1765 C978 1.305 . S
C1767 C879 1.305 . S
C1783 C1011 1.306 . S
C1785 C1110 1.306 . S
C1801 C1044 1.305 . S
C1803 C1143 1.305 . S
C1819 C1176 1.305 . S
C1821 C1077 1.305 . S
C1837 C337 1.844 . S
C1839 N13 1.951 . S
C1855 C370 1.844 . S
C1857 N46 1.951 . S
C1873 C304 1.844 . S
C1875 N79 1.951 . S
C1891 C271 1.844 . S
C1893 N112 1.951 . S
C1909 C205 1.844 . S
C1911 N145 1.951 . S
C1927 N178 1.951 . S
C1929 C238 1.844 . S
C1945 C139 1.844 . S
C1947 N211 1.951 . S
C1963 N244 1.951 . S
C1965 C172 1.844 . S
C1981 N277 1.951 . S
C1983 C106 1.844 . S
C1999 C73 1.844 . S
C2001 N310 1.951 . S
C2017 C7 1.844 . S
C2019 N343 1.951 . S
C2035 N376 1.951 . S
C2037 C40 1.844 . S
C2053 N409 1.951 . S
C2055 C733 1.844 . S
C2071 N442 1.951 . S
C2073 C766 1.844 . S
C2089 N475 1.951 . S
C2091 C700 1.844 . S
C2107 N508 1.951 . S
C2109 C667 1.844 . S
C2125 C601 1.844 . S
C2127 N541 1.951 . S
C2143 C634 1.844 . S
C2145 N574 1.951 . S
C2161 N607 1.951 . S
C2163 C535 1.844 . S
C2179 N640 1.951 . S
C2181 C568 1.844 . S
C2197 C502 1.844 . S
C2199 N673 1.951 . S
C2215 C469 1.844 . S
C2217 N706 1.951 . S
C2233 C403 1.844 . S
C2235 N739 1.951 . S
C2251 N772 1.951 . S
C2253 C436 1.844 . S
C2269 C1129 1.844 . S
C2271 N805 1.951 . S
C2287 C1162 1.844 . S
C2289 N838 1.951 . S
C2305 N871 1.951 . S
C2307 C1096 1.844 . S
C2323 C1063 1.844 . S
C2325 N904 1.951 . S
C2341 C997 1.844 . S
C2343 N937 1.951 . S
C2359 N970 1.951 . S
C2361 C1030 1.844 . S
C2377 C931 1.844 . S
C2379 N1003 1.951 . S
C2395 C964 1.844 . S
C2397 N1036 1.951 . S
C2413 C898 1.844 . S
C2415 N1069 1.951 . S
C2431 C865 1.844 . S
C2433 N1102 1.951 . S
C2449 C799 1.844 . S
C2451 N1135 1.951 . S
C2467 C832 1.844 . S
C2469 N1168 1.951 . S
C2485 N530 0.770 . S
C2487 N2 0.770 . S
C2503 N563 0.770 . S
C2505 N35 0.770 . S
C2521 N497 0.770 . S
C2523 N68 0.770 . S
C2539 N101 0.770 . S
C2541 N860 0.770 . S
C2557 N134 0.770 . S
C2559 N794 0.770 . S
C2575 N167 0.770 . S
C2577 N827 0.770 . S
C2593 N200 0.770 . S
C2595 N1124 0.770 . S
C2611 N233 0.770 . S
C2613 N1157 0.770 . S
C2629 N1091 0.770 . S
C2631 N266 0.770 . S
C2647 N299 0.770 . S
C2649 N662 0.770 . S
C2665 N332 0.770 . S
C2667 N596 0.770 . S
C2683 N629 0.770 . S
C2685 N365 0.770 . S
C2701 N926 0.770 . S
C2703 N398 0.770 . S
C2719 N959 0.770 . S
C2721 N431 0.770 . S
C2737 N464 0.770 . S
C2739 N893 0.770 . S
C2755 N695 0.770 . S
C2757 N1058 0.770 . S
C2773 N992 0.770 . S
C2775 N728 0.770 . S
C2791 N1025 0.770 . S
C2793 N761 0.770 . S
