# Generated by pormake.
# Topology oof, (8)-cn, num edge types: 1
# Building blocks:
#     Node 0, Type 0, BuildingBlock: VETTIZ_charged_sbu_0, # of connection points: 8
#     Node 1, Type 0, BuildingBlock: VETTIZ_charged_sbu_0, # of connection points: 8
#     Node 2, Type 0, BuildingBlock: VETTIZ_charged_sbu_0, # of connection points: 8
#     Node 3, Type 0, BuildingBlock: VETTIZ_charged_sbu_0, # of connection points: 8
#     Edge 4, Type (0, 0), BuildingBlock: EZIPEK_clean_linker_0, # of connection points: 2
#     Edge 5, Type (0, 0), BuildingBlock: EZIPEK_clean_linker_0, # of connection points: 2
#     Edge 6, Type (0, 0), BuildingBlock: EZIPEK_clean_linker_0, # of connection points: 2
#     Edge 7, Type (0, 0), BuildingBlock: EZIPEK_clean_linker_0, # of connection points: 2
#     Edge 8, Type (0, 0), BuildingBlock: EZIPEK_clean_linker_0, # of connection points: 2
#     Edge 9, Type (0, 0), BuildingBlock: EZIPEK_clean_linker_0, # of connection points: 2
#     Edge 10, Type (0, 0), BuildingBlock: EZIPEK_clean_linker_0, # of connection points: 2
#     Edge 11, Type (0, 0), BuildingBlock: EZIPEK_clean_linker_0, # of connection points: 2
#     Edge 12, Type (0, 0), BuildingBlock: EZIPEK_clean_linker_0, # of connection points: 2
#     Edge 13, Type (0, 0), BuildingBlock: EZIPEK_clean_linker_0, # of connection points: 2
#     Edge 14, Type (0, 0), BuildingBlock: EZIPEK_clean_linker_0, # of connection points: 2
#     Edge 15, Type (0, 0), BuildingBlock: EZIPEK_clean_linker_0, # of connection points: 2
#     Edge 16, Type (0, 0), BuildingBlock: EZIPEK_clean_linker_0, # of connection points: 2
#     Edge 17, Type (0, 0), BuildingBlock: EZIPEK_clean_linker_0, # of connection points: 2
#     Edge 18, Type (0, 0), BuildingBlock: EZIPEK_clean_linker_0, # of connection points: 2
#     Edge 19, Type (0, 0), BuildingBlock: EZIPEK_clean_linker_0, # of connection points: 2
# Relax obj value: 0.130
# Max RMSD: 0.230
# Mean RMSD: 0.230
data_MOF--net-oof--node1-VETTIZ_charged_sbu_0--edge1-EZIPEK_clean_linker_0
_symmetry_space_group_name_H-M    P1
_symmetry_Int_Tables_number       1
_symmetry_cell_setting            triclinic
loop_
_symmetry_equiv_pos_as_xyz
'x, y, z'
_cell_length_a     13.034877
_cell_length_b     41.691085
_cell_length_c     12.928042
_cell_angle_alpha  86.989588
_cell_angle_beta   105.78917
_cell_angle_gamma 91.14839
loop_
_atom_site_label
_atom_site_type_symbol
_atom_site_fract_x
_atom_site_fract_y
_atom_site_fract_z
_atom_type_partial_charge
Fe0 Fe 0.17182 0.15595 0.4683 0.0
O1 O 0.06646 0.16339 0.32689 0.0
Fe2 Fe 0.03911 0.12645 0.21502 0.0
Fe3 Fe 0.91554 0.17225 0.31982 0.0
O4 O 0.07132 0.16157 0.32118 0.0
O5 O 0.89066 0.1337 0.21495 0.0
O6 O 0.8855 0.13388 0.22687 0.0
Fe7 Fe 0.77493 0.13093 0.08787 0.0
C8 C 0.98364 0.15023 0.55395 0.0
O9 O 0.16551 0.20497 0.45883 0.0
O10 O 0.98066 0.21225 0.41532 0.0
O11 O 0.869 0.13709 0.98566 0.0
O12 O 0.02508 0.15765 0.07869 0.0
O13 O 0.19786 0.12132 0.23204 0.0
O14 O 0.27676 0.14946 0.38192 0.0
O15 O 0.89209 0.20311 0.18136 0.0
O16 O 0.75012 0.17968 0.07124 0.0
C17 C 0.27764 0.13412 0.29868 0.0
O18 O 0.81959 0.08184 0.09368 0.0
O19 O 0.99734 0.09087 0.11277 0.0
O20 O 0.07378 0.16203 0.56059 0.0
O21 O 0.92061 0.14424 0.4624 0.0
C22 C 0.08055 0.22192 0.45209 0.0
C23 C 0.80757 0.2045 0.10124 0.0
C24 C 0.68353 0.15221 0.26703 0.0
O25 O 0.75458 0.17417 0.30294 0.0
O26 O 0.68599 0.13084 0.19726 0.0
C27 C 0.95578 0.15191 0.98889 0.0
O28 O 0.04083 0.09152 0.33059 0.0
O29 O 0.14882 0.10586 0.48556 0.0
C30 C 0.91402 0.07321 0.08822 0.0
C31 C 0.0838 0.08586 0.42925 0.0
Fe32 Fe 0.98245 0.9224 0.81698 0.0
O33 O 0.94671 0.88817 0.70789 0.0
Fe34 Fe 0.248 0.91528 0.94101 0.0
Fe35 Fe 0.8478 0.89537 0.56047 0.0
O36 O 0.13019 0.91435 0.81455 0.0
O37 O 0.13561 0.91394 0.80268 0.0
O38 O 0.95148 0.88641 0.70214 0.0
Fe39 Fe 0.10127 0.87563 0.70981 0.0
C40 C 0.7419 0.91652 0.73212 0.0
O41 O 0.98224 0.95817 0.70353 0.0
O42 O 0.87696 0.9449 0.54586 0.0
O43 O 0.26387 0.87246 0.72603 0.0
O44 O 0.33475 0.91583 0.83001 0.0
O45 O 0.20705 0.96462 0.94061 0.0
O46 O 0.0285 0.957 0.92221 0.0
O47 O 0.94519 0.88768 0.46871 0.0
O48 O 0.10033 0.90345 0.56817 0.0
C49 C 0.11376 0.97382 0.94795 0.0
O50 O 0.11911 0.84515 0.84824 0.0
O51 O 0.26968 0.86604 0.95239 0.0
O52 O 0.82268 0.92796 0.80188 0.0
O53 O 0.74273 0.90282 0.64584 0.0
C54 C 0.94151 0.96438 0.60461 0.0
C55 C 0.03718 0.89807 0.47631 0.0
C56 C 0.92703 0.82754 0.57916 0.0
O57 O 0.84682 0.84689 0.56788 0.0
O58 O 0.02889 0.83558 0.61593 0.0
C59 C 0.33505 0.89486 0.75846 0.0
O60 O 0.15549 0.90925 0.04421 0.0
O61 O 0.99623 0.89054 0.95198 0.0
C62 C 0.20474 0.84249 0.92633 0.0
C63 C 0.06717 0.89551 0.04159 0.0
Fe64 Fe 0.73082 0.63958 0.51619 0.0
O65 O 0.5979 0.64095 0.39734 0.0
Fe66 Fe 0.6244 0.61726 0.23552 0.0
Fe67 Fe 0.50668 0.67945 0.34026 0.0
O68 O 0.60656 0.63564 0.37879 0.0
O69 O 0.5112 0.65325 0.2068 0.0
O70 O 0.50468 0.65908 0.20079 0.0
Fe71 Fe 0.37635 0.65265 0.08146 0.0
C72 C 0.57014 0.6803 0.58517 0.0
O73 O 0.76848 0.68615 0.48375 0.0
O74 O 0.64452 0.70588 0.33866 0.0
O75 O 0.47267 0.66613 0.99366 0.0
O76 O 0.61786 0.63406 0.07222 0.0
O77 O 0.76478 0.64345 0.27466 0.0
O78 O 0.83814 0.62363 0.4376 0.0
O79 O 0.41621 0.71881 0.26396 0.0
O80 O 0.34182 0.70035 0.0982 0.0
C81 C 0.84781 0.63419 0.34662 0.0
O82 O 0.40628 0.60552 0.04253 0.0
O83 O 0.49937 0.58717 0.19763 0.0
O84 O 0.63446 0.65678 0.59769 0.0
O85 O 0.52014 0.69418 0.49448 0.0
C86 C 0.73214 0.70842 0.41298 0.0
C87 C 0.35784 0.72244 0.16634 0.0
C88 C 0.27931 0.64452 0.27428 0.0
O89 O 0.35926 0.65711 0.34291 0.0
O90 O 0.2825 0.6376 0.17998 0.0
C91 C 0.56225 0.65368 0.9964 0.0
O92 O 0.61814 0.58638 0.37519 0.0
O93 O 0.69012 0.59384 0.55008 0.0
C94 C 0.46174 0.58297 0.09977 0.0
C95 C 0.63447 0.57691 0.47533 0.0
Fe96 Fe 0.39787 0.42559 0.78521 0.0
O97 O 0.40965 0.41253 0.64295 0.0
Fe98 Fe 0.62852 0.39182 0.95739 0.0
Fe99 Fe 0.28016 0.41323 0.51993 0.0
O100 O 0.49239 0.38689 0.83855 0.0
O101 O 0.50203 0.38459 0.83361 0.0
O102 O 0.41474 0.40997 0.63767 0.0
Fe103 Fe 0.50972 0.37119 0.68812 0.0
C104 C 0.16738 0.41191 0.69503 0.0
O105 O 0.33621 0.4681 0.68263 0.0
O106 O 0.32319 0.4597 0.50747 0.0
O107 O 0.65006 0.39795 0.69359 0.0
O108 O 0.73725 0.40022 0.86739 0.0
O109 O 0.60762 0.44127 0.97941 0.0
O110 O 0.52533 0.45594 0.81595 0.0
O111 O 0.3774 0.39881 0.43367 0.0
O112 O 0.50666 0.36336 0.53011 0.0
C113 C 0.56157 0.46343 0.91247 0.0
O114 O 0.60678 0.33194 0.76547 0.0
O115 O 0.65322 0.34354 0.94476 0.0
O116 O 0.25173 0.40068 0.76185 0.0
O117 O 0.17517 0.42606 0.60786 0.0
C118 C 0.35591 0.47658 0.5904 0.0
C119 C 0.45483 0.37919 0.44339 0.0
C120 C 0.28375 0.3413 0.59621 0.0
O121 O 0.24268 0.36652 0.54262 0.0
O122 O 0.37549 0.3408 0.66658 0.0
C123 C 0.73613 0.40215 0.76845 0.0
O124 O 0.52069 0.38582 0.03962 0.0
O125 O 0.39688 0.42444 0.95288 0.0
C126 C 0.64938 0.32474 0.86754 0.0
C127 C 0.43926 0.40374 0.03214 0.0
C128 C 0.89985 0.17412 0.79752 0.0
C129 C 0.97647 0.15673 0.88076 0.0
C130 C 0.02708 0.1276 0.74207 0.0
C131 C 0.95679 0.14663 0.65911 0.0
N132 N 0.83481 0.19081 0.60826 0.0
N133 N 0.12508 0.12048 0.93059 0.0
C134 C 0.89489 0.17053 0.68705 0.0
C135 C 0.04447 0.13477 0.85222 0.0
N136 N 0.82952 0.19362 0.82459 0.0
N137 N 0.07603 0.10212 0.71419 0.0
H138 H 0.14064 0.12548 1.01143 0.0
H139 H 0.18309 0.10611 0.91525 0.0
H140 H 0.0573 0.0953 0.63509 0.0
H141 H 0.12538 0.08603 0.76865 0.0
H142 H 0.76282 0.20371 0.76968 0.0
H143 H 0.83638 0.1985 0.90403 0.0
H144 H 0.79949 0.21156 0.62369 0.0
H145 H 0.82441 0.18766 0.52658 0.0
C146 C 0.12937 0.87811 0.34504 0.0
C147 C 0.06497 0.9015 0.37167 0.0
C148 C 0.9778 0.91262 0.17832 0.0
C149 C 0.04795 0.89113 0.15061 0.0
N150 N 0.20312 0.85707 0.21034 0.0
N151 N 0.94646 0.94612 0.31443 0.0
C152 C 0.12706 0.87485 0.23509 0.0
C153 C 0.995 0.9203 0.28796 0.0
N154 N 0.19034 0.8582 0.4244 0.0
N155 N 0.89533 0.92607 0.10005 0.0
H156 H 0.96469 0.9533 0.39327 0.0
H157 H 0.89879 0.96227 0.25859 0.0
H158 H 0.87937 0.92086 0.01942 0.0
H159 H 0.83605 0.93978 0.11598 0.0
H160 H 0.2277 0.83779 0.40934 0.0
H161 H 0.19887 0.86113 0.50589 0.0
H162 H 0.27049 0.84807 0.26715 0.0
H163 H 0.20214 0.85305 0.13159 0.0
C164 C 0.64397 0.68662 0.87508 0.0
C165 C 0.58608 0.65879 0.89316 0.0
C166 C 0.47424 0.66432 0.70975 0.0
C167 C 0.54516 0.68704 0.68455 0.0
N168 N 0.70141 0.72004 0.74209 0.0
N169 N 0.46493 0.6163 0.81863 0.0
C170 C 0.63027 0.69885 0.76771 0.0
C171 C 0.50793 0.64587 0.80671 0.0
N172 N 0.70956 0.7015 0.95994 0.0
N173 N 0.37863 0.65898 0.63765 0.0
H174 H 0.49438 0.60171 0.88802 0.0
H175 H 0.41054 0.60527 0.75571 0.0
H176 H 0.35501 0.67241 0.56465 0.0
H177 H 0.32058 0.64403 0.6566 0.0
H178 H 0.74584 0.72366 0.95209 0.0
H179 H 0.72278 0.69209 0.03879 0.0
H180 H 0.77161 0.72713 0.79698 0.0
H181 H 0.69093 0.72903 0.66324 0.0
C182 C 0.47462 0.42211 0.21029 0.0
C183 C 0.41002 0.40245 0.13264 0.0
C184 C 0.42342 0.35849 0.26784 0.0
C185 C 0.48687 0.3784 0.34489 0.0
N186 N 0.59807 0.42479 0.38829 0.0
N187 N 0.30563 0.35476 0.08718 0.0
C188 C 0.52268 0.40864 0.3143 0.0
C189 C 0.37764 0.37154 0.16231 0.0
N190 N 0.48925 0.45354 0.18285 0.0
N191 N 0.40863 0.32723 0.29726 0.0
H192 H 0.27245 0.36471 1.00957 0.0
H193 H 0.27393 0.33255 0.10331 0.0
H194 H 0.44425 0.31803 0.37533 0.0
H195 H 0.36753 0.31037 0.24446 0.0
H196 H 0.53196 0.47002 0.2362 0.0
H197 H 0.44854 0.46347 0.10762 0.0
H198 H 0.63201 0.44656 0.37127 0.0
H199 H 0.63188 0.41463 0.46545 0.0
C200 C 0.51309 0.17511 0.26514 0.0
C201 C 0.58967 0.15118 0.3057 0.0
C202 C 0.45483 0.11263 0.32811 0.0
C203 C 0.37786 0.13547 0.27401 0.0
N204 N 0.32865 0.18602 0.17523 0.0
N205 N 0.64284 0.10219 0.40914 0.0
C206 C 0.40563 0.16595 0.23669 0.0
C207 C 0.56316 0.12122 0.34748 0.0
N208 N 0.54289 0.20659 0.26081 0.0
N209 N 0.42314 0.08312 0.35965 0.0
H210 H 0.72187 0.11019 0.42959 0.0
H211 H 0.63072 0.08042 0.44721 0.0
H212 H 0.34282 0.0765 0.34314 0.0
H213 H 0.47511 0.06465 0.39588 0.0
H214 H 0.48855 0.2254 0.2402 0.0
H215 H 0.62206 0.21399 0.28859 0.0
H216 H 0.3459 0.2076 0.13887 0.0
H217 H 0.24821 0.17943 0.15246 0.0
C218 C 0.56298 0.93701 0.70592 0.0
C219 C 0.64042 0.91378 0.75577 0.0
C220 C 0.50415 0.87291 0.7488 0.0
C221 C 0.42721 0.89698 0.7154 0.0
N222 N 0.37524 0.94737 0.62184 0.0
N223 N 0.68801 0.86093 0.8381 0.0
C224 C 0.45446 0.92788 0.6815 0.0
C225 C 0.61171 0.88215 0.78262 0.0
N226 N 0.59424 0.96744 0.68311 0.0
N227 N 0.47481 0.84146 0.73839 0.0
H228 H 0.76839 0.86742 0.86452 0.0
H229 H 0.6699 0.83818 0.86595 0.0
H230 H 0.39607 0.83471 0.70287 0.0
H231 H 0.52949 0.82274 0.75282 0.0
H232 H 0.54178 0.98619 0.65132 0.0
H233 H 0.67441 0.97436 0.70299 0.0
H234 H 0.38791 0.96977 0.58803 0.0
H235 H 0.29657 0.9391 0.59802 0.0
C236 C 0.04454 0.61722 0.38874 0.0
C237 C 0.95824 0.63675 0.32665 0.0
C238 C 0.08053 0.65811 0.22254 0.0
C239 C 0.17014 0.64247 0.29602 0.0
N240 N 0.23518 0.61365 0.46765 0.0
N241 N 0.91087 0.68322 0.2012 0.0
C242 C 0.15164 0.62439 0.38554 0.0
C243 C 0.98053 0.65912 0.24778 0.0
N244 N 0.02488 0.59021 0.44501 0.0
N245 N 0.08942 0.67296 0.12859 0.0
H246 H 0.84142 0.68793 0.22211 0.0
H247 H 0.92962 0.70181 0.15223 0.0
H248 H 0.16112 0.67759 0.11019 0.0
H249 H 0.02306 0.67987 0.06614 0.0
H250 H 0.08466 0.57438 0.48632 0.0
H251 H 0.94856 0.58094 0.43743 0.0
H252 H 0.22505 0.60262 0.53852 0.0
H253 H 0.31422 0.61837 0.46937 0.0
C254 C 0.90617 0.43441 0.76586 0.0
C255 C 0.84328 0.40599 0.74196 0.0
C256 C 0.99918 0.38016 0.70469 0.0
C257 C 0.05813 0.40946 0.7178 0.0
N258 N 0.0595 0.4661 0.74644 0.0
N259 N 0.82747 0.3531 0.67113 0.0
C260 C 0.00885 0.43705 0.74395 0.0
C261 C 0.88911 0.37937 0.70573 0.0
N262 N 0.86865 0.45889 0.81132 0.0
N263 N 0.04924 0.35261 0.69399 0.0
H264 H 0.74818 0.35094 0.6722 0.0
H265 H 0.85197 0.33459 0.63247 0.0
H266 H 0.12887 0.35235 0.6938 0.0
H267 H 0.01569 0.32979 0.6963 0.0
H268 H 0.91486 0.47859 0.84274 0.0
H269 H 0.7928 0.45856 0.82362 0.0
H270 H 0.02375 0.48776 0.75278 0.0
H271 H 0.13506 0.4688 0.73428 0.0
C272 C 0.18448 0.30606 0.44769 0.0
C273 C 0.2241 0.3108 0.56111 0.0
C274 C 0.1346 0.26063 0.59833 0.0
C275 C 0.1037 0.25513 0.48668 0.0
N276 N 0.09383 0.27169 0.30406 0.0
N277 N 0.23567 0.29268 0.74443 0.0
C278 C 0.12481 0.27805 0.41112 0.0
C279 C 0.19868 0.28807 0.63663 0.0
N280 N 0.20589 0.32803 0.37394 0.0
N281 N 0.1004 0.23961 0.66683 0.0
H282 H 0.2756 0.31344 0.7753 0.0
H283 H 0.2299 0.27571 0.80446 0.0
H284 H 0.05123 0.22006 0.63914 0.0
H285 H 0.11294 0.2425 0.74871 0.0
H286 H 0.1638 0.32965 0.293 0.0
H287 H 0.2665 0.345 0.39274 0.0
H288 H 0.11929 0.28448 0.24426 0.0
H289 H 0.04381 0.25246 0.27452 0.0
C290 C 0.80417 0.28764 0.95076 0.0
C291 C 0.69285 0.29197 0.90444 0.0
C292 C 0.65833 0.24171 0.99623 0.0
C293 C 0.7704 0.23569 0.03728 0.0
N294 N 0.94817 0.25015 0.02612 0.0
N295 N 0.51648 0.26922 0.86174 0.0
C296 C 0.84313 0.25794 1.00715 0.0
C297 C 0.62121 0.26751 0.91936 0.0
N298 N 0.87291 0.31214 0.94193 0.0
N299 N 0.58638 0.22424 0.03573 0.0
H300 H 0.48625 0.28808 0.80629 0.0
H301 H 0.46242 0.2504 0.86071 0.0
H302 H 0.60812 0.20639 0.09634 0.0
H303 H 0.50577 0.22994 0.01762 0.0
H304 H 0.95316 0.31211 0.9848 0.0
H305 H 0.84788 0.33332 0.89607 0.0
H306 H 1.00208 0.26413 0.99662 0.0
H307 H 0.97946 0.2281 0.06061 0.0
C308 C 0.72979 0.7622 0.48629 0.0
C309 C 0.7826 0.74054 0.43766 0.0
C310 C 0.94092 0.77587 0.48228 0.0
C311 C 0.89207 0.79437 0.54503 0.0
N312 N 0.75527 0.7949 0.63944 0.0
N313 N 0.95199 0.72285 0.41887 0.0
C314 C 0.79146 0.78408 0.55778 0.0
C315 C 0.89255 0.74611 0.44455 0.0
N316 N 0.62154 0.7618 0.467 0.0
N317 N 0.02998 0.78662 0.45493 0.0
H318 H 0.9206 0.70036 0.39657 0.0
H319 H 0.03421 0.72492 0.43073 0.0
H320 H 0.06701 0.80839 0.47808 0.0
H321 H 0.0612 0.77497 0.40088 0.0
H322 H 0.58095 0.77872 0.49733 0.0
H323 H 0.57185 0.74745 0.41084 0.0
H324 H 0.68376 0.7871 0.65404 0.0
H325 H 0.80282 0.80873 0.69956 0.0
C326 C 0.21253 0.76444 0.10533 0.0
C327 C 0.32025 0.75521 0.12092 0.0
C328 C 0.34508 0.80009 0.99961 0.0
C329 C 0.23847 0.81055 0.98592 0.0
N330 N 0.07304 0.8042 0.03508 0.0
N331 N 0.49521 0.7681 0.10258 0.0
C332 C 0.17223 0.79292 0.04063 0.0
C333 C 0.38826 0.77438 0.07445 0.0
N334 N 0.1496 0.74603 0.15401 0.0
N335 N 0.40368 0.81359 0.93573 0.0
H336 H 0.5297 0.74918 0.15589 0.0
H337 H 0.55128 0.78339 0.08164 0.0
H338 H 0.37333 0.83141 0.87692 0.0
H339 H 0.47701 0.80488 0.9326 0.0
H340 H 0.06742 0.7485 0.13763 0.0
H341 H 0.18095 0.72761 0.21102 0.0
H342 H 0.02427 0.79459 0.08067 0.0
H343 H 0.04104 0.8247 0.98909 0.0
C344 C 1.00477 1.02125 0.12531 0.0
C345 C 0.93845 0.04258 0.04722 0.0
C346 C 0.02697 0.0262 0.91272 0.0
C347 C 0.09222 1.00454 0.99033 0.0
N348 N 0.14677 0.98147 0.17021 0.0
N349 N 0.88176 0.06494 0.86649 0.0
C350 C 0.08315 1.0026 0.09735 0.0
C351 C 0.9473 0.04442 0.94011 0.0
N352 N 0.99475 1.02025 0.22785 0.0
N353 N 0.03919 0.02778 0.81099 0.0
H354 H 0.82028 0.07714 0.88489 0.0
H355 H 0.88625 0.06976 0.78815 0.0
H356 H 0.10255 1.01635 0.79351 0.0
H357 H 0.98924 0.04018 0.74524 0.0
H358 H 0.04645 1.00835 0.29363 0.0
H359 H 0.93218 0.03185 0.24626 0.0
H360 H 0.14039 0.97617 0.24769 0.0
H361 H 0.20748 0.96894 0.15155 0.0
C362 C 0.93707 0.04766 0.45875 0.0
C363 C 0.04856 0.05522 0.47889 0.0
C364 C 0.08884 1.00263 0.57728 0.0
C365 C 0.97744 0.99517 0.55703 0.0
N366 N 0.79677 1.01386 0.49749 0.0
N367 N 0.22968 0.037 0.54188 0.0
C368 C 0.90205 1.01839 0.50146 0.0
C369 C 0.1241 0.03213 0.53574 0.0
N370 N 0.86298 0.06818 0.39584 0.0
N371 N 0.16231 0.9817 0.63893 0.0
H372 H 0.25885 0.05765 0.51042 0.0
H373 H 0.28813 1.01964 0.5703 0.0
H374 H 0.1446 0.95794 0.6557 0.0
H375 H 0.23997 0.98846 0.67787 0.0
H376 H 0.78544 0.06109 0.35758 0.0
H377 H 0.87968 0.09185 0.37736 0.0
H378 H 0.73899 0.03151 0.47074 0.0
H379 H 0.76763 0.99337 0.52993 0.0
C380 C 0.40533 0.5342 0.99003 0.0
C381 C 0.48907 0.553 0.05047 0.0
C382 C 0.61935 0.51479 1.01366 0.0
C383 C 0.53513 0.49563 0.95322 0.0
N384 N 0.34417 0.49161 0.87327 0.0
N385 N 0.67888 0.55812 0.1336 0.0
C386 C 0.42782 0.50694 0.93757 0.0
C387 C 0.59683 0.54243 0.06602 0.0
N388 N 0.30276 0.54022 0.99185 0.0
N389 N 0.72189 0.50788 1.01484 0.0
H390 H 0.66986 0.57955 0.1664 0.0
H391 H 0.75554 0.54892 0.16291 0.0
H392 H 0.74159 0.48849 0.97635 0.0
H393 H 0.7868 0.52291 0.04442 0.0
H394 H 0.23886 0.52465 0.96402 0.0
H395 H 0.28175 0.55909 0.03164 0.0
H396 H 0.271 0.50249 0.83728 0.0
H397 H 0.3488 0.46838 0.85443 0.0
C398 C 0.54106 0.50072 0.60195 0.0
C399 C 0.42771 0.50446 0.57592 0.0
C400 C 0.44894 0.553 0.46518 0.0
C401 C 0.56282 0.55146 0.50624 0.0
N402 N 0.7146 0.52547 0.62973 0.0
N403 N 0.27389 0.53465 0.47917 0.0
C404 C 0.60742 0.52632 0.58149 0.0
C405 C 0.3821 0.53086 0.50636 0.0
N406 N 0.58608 0.47135 0.63122 0.0
N407 N 0.40364 0.57573 0.38738 0.0
H408 H 0.22388 0.51973 0.5114 0.0
H409 H 0.23316 0.55316 0.42883 0.0
H410 H 0.4433 0.59633 0.37074 0.0
H411 H 0.32611 0.57404 0.33816 0.0
H412 H 0.66589 0.46667 0.63762 0.0
H413 H 0.5412 0.4509 0.63288 0.0
H414 H 0.74785 0.50973 0.69512 0.0
H415 H 0.76932 0.54136 0.60901 0.0
loop_
_geom_bond_atom_site_label_1
_geom_bond_atom_site_label_2
_geom_bond_distance
_geom_bond_site_symmetry_2
_ccdc_geom_bond_type
Fe0 O1 1.886 . S
Fe0 O4 1.715 . S
Fe0 O9 2.077 . S
Fe0 O14 1.935 . S
Fe0 O20 2.077 . S
Fe0 O29 1.935 . S
O1 Fe0 1.886 . S
O1 Fe3 1.715 1_455 S
Fe2 O4 1.886 . S
Fe2 O5 1.715 1_455 S
Fe2 O12 1.935 . S
Fe2 O13 2.077 . S
Fe2 O19 1.935 1_455 S
Fe2 O28 2.077 . S
Fe3 O1 1.715 1_655 S
Fe3 O6 1.886 . S
Fe3 O10 1.935 1_655 S
Fe3 O15 2.077 . S
Fe3 O21 1.935 . S
Fe3 O25 2.077 . S
O4 Fe0 1.715 . S
O4 Fe2 1.886 . S
O5 Fe2 1.715 1_655 S
O5 Fe7 1.886 . S
O6 Fe3 1.886 . S
O6 Fe7 1.715 . S
Fe7 O5 1.886 . S
Fe7 O6 1.715 . S
Fe7 O11 2.077 1_554 S
Fe7 O16 1.935 . S
Fe7 O18 2.077 . S
Fe7 O26 1.935 . S
C8 O20 1.381 1_655 S
C8 O21 1.421 . S
O9 Fe0 2.077 . S
O9 C22 1.381 . S
O10 Fe3 1.935 1_455 S
O10 C22 1.421 . S
O11 Fe7 2.077 1_556 S
O11 C27 1.381 1_655 S
O12 Fe2 1.935 . S
O12 C27 1.421 1_554 S
O13 Fe2 2.077 . S
O13 C17 1.381 . S
O14 Fe0 1.935 . S
O14 C17 1.421 . S
O15 Fe3 2.077 . S
O15 C23 1.381 . S
O16 Fe7 1.935 . S
O16 C23 1.421 . S
C17 O13 1.381 . S
C17 O14 1.421 . S
O18 Fe7 2.077 . S
O18 C30 1.381 . S
O19 Fe2 1.935 1_655 S
O19 C30 1.421 . S
O20 Fe0 2.077 . S
O20 C8 1.381 1_455 S
O21 Fe3 1.935 . S
O21 C8 1.421 . S
C22 O9 1.381 . S
C22 O10 1.421 . S
C23 O15 1.381 . S
C23 O16 1.421 . S
C24 O25 1.381 . S
C24 O26 1.421 . S
O25 Fe3 2.077 . S
O25 C24 1.381 . S
O26 Fe7 1.935 . S
O26 C24 1.421 . S
C27 O11 1.381 1_455 S
C27 O12 1.421 1_556 S
O28 Fe2 2.077 . S
O28 C31 1.381 . S
O29 Fe0 1.935 . S
O29 C31 1.421 . S
C30 O18 1.381 . S
C30 O19 1.421 . S
C31 O28 1.381 . S
C31 O29 1.421 . S
Fe32 O33 1.886 . S
Fe32 O36 1.715 1_655 S
Fe32 O41 2.077 . S
Fe32 O46 1.935 1_655 S
Fe32 O52 2.077 . S
Fe32 O61 1.935 . S
O33 Fe32 1.886 . S
O33 Fe35 1.715 . S
Fe34 O36 1.886 . S
Fe34 O37 1.715 . S
Fe34 O44 1.935 . S
Fe34 O45 2.077 . S
Fe34 O51 1.935 . S
Fe34 O60 2.077 1_556 S
Fe35 O33 1.715 . S
Fe35 O38 1.886 . S
Fe35 O42 1.935 . S
Fe35 O47 2.077 . S
Fe35 O53 1.935 . S
Fe35 O57 2.077 . S
O36 Fe32 1.715 1_455 S
O36 Fe34 1.886 . S
O37 Fe34 1.715 . S
O37 Fe39 1.886 . S
O38 Fe35 1.886 . S
O38 Fe39 1.715 1_655 S
Fe39 O37 1.886 . S
Fe39 O38 1.715 1_455 S
Fe39 O43 2.077 . S
Fe39 O48 1.935 . S
Fe39 O50 2.077 . S
Fe39 O58 1.935 1_455 S
C40 O52 1.381 . S
C40 O53 1.421 . S
O41 Fe32 2.077 . S
O41 C54 1.381 . S
O42 Fe35 1.935 . S
O42 C54 1.421 . S
O43 Fe39 2.077 . S
O43 C59 1.381 . S
O44 Fe34 1.935 . S
O44 C59 1.421 . S
O45 Fe34 2.077 . S
O45 C49 1.381 . S
O46 Fe32 1.935 1_455 S
O46 C49 1.421 . S
O47 Fe35 2.077 . S
O47 C55 1.381 1_655 S
O48 Fe39 1.935 . S
O48 C55 1.421 . S
C49 O45 1.381 . S
C49 O46 1.421 . S
O50 Fe39 2.077 . S
O50 C62 1.381 . S
O51 Fe34 1.935 . S
O51 C62 1.421 . S
O52 Fe32 2.077 . S
O52 C40 1.381 . S
O53 Fe35 1.935 . S
O53 C40 1.421 . S
C54 O41 1.381 . S
C54 O42 1.421 . S
C55 O47 1.381 1_455 S
C55 O48 1.421 . S
C56 O57 1.381 . S
C56 O58 1.421 . S
O57 Fe35 2.077 . S
O57 C56 1.381 . S
O58 Fe39 1.935 1_655 S
O58 C56 1.421 . S
C59 O43 1.381 . S
C59 O44 1.421 . S
O60 Fe34 2.077 1_554 S
O60 C63 1.381 1_455 S
O61 Fe32 1.935 . S
O61 C63 1.421 1_556 S
C62 O50 1.381 . S
C62 O51 1.421 . S
C63 O60 1.381 1_655 S
C63 O61 1.421 1_554 S
Fe64 O65 1.886 . S
Fe64 O68 1.715 . S
Fe64 O73 2.077 . S
Fe64 O78 1.935 . S
Fe64 O84 2.077 . S
Fe64 O93 1.935 . S
O65 Fe64 1.886 . S
O65 Fe67 1.715 . S
Fe66 O68 1.886 . S
Fe66 O69 1.715 . S
Fe66 O76 1.935 . S
Fe66 O77 2.077 . S
Fe66 O83 1.935 . S
Fe66 O92 2.077 . S
Fe67 O65 1.715 . S
Fe67 O70 1.886 . S
Fe67 O74 1.935 . S
Fe67 O79 2.077 . S
Fe67 O85 1.935 . S
Fe67 O89 2.077 . S
O68 Fe64 1.715 . S
O68 Fe66 1.886 . S
O69 Fe66 1.715 . S
O69 Fe71 1.886 . S
O70 Fe67 1.886 . S
O70 Fe71 1.715 . S
Fe71 O69 1.886 . S
Fe71 O70 1.715 . S
Fe71 O75 2.077 1_554 S
Fe71 O80 1.935 . S
Fe71 O82 2.077 . S
Fe71 O90 1.935 . S
C72 O84 1.381 . S
C72 O85 1.421 . S
O73 Fe64 2.077 . S
O73 C86 1.381 . S
O74 Fe67 1.935 . S
O74 C86 1.421 . S
O75 Fe71 2.077 1_556 S
O75 C91 1.381 . S
O76 Fe66 1.935 . S
O76 C91 1.421 1_554 S
O77 Fe66 2.077 . S
O77 C81 1.381 . S
O78 Fe64 1.935 . S
O78 C81 1.421 . S
O79 Fe67 2.077 . S
O79 C87 1.381 . S
O80 Fe71 1.935 . S
O80 C87 1.421 . S
C81 O77 1.381 . S
C81 O78 1.421 . S
O82 Fe71 2.077 . S
O82 C94 1.381 . S
O83 Fe66 1.935 . S
O83 C94 1.421 . S
O84 Fe64 2.077 . S
O84 C72 1.381 . S
O85 Fe67 1.935 . S
O85 C72 1.421 . S
C86 O73 1.381 . S
C86 O74 1.421 . S
C87 O79 1.381 . S
C87 O80 1.421 . S
C88 O89 1.381 . S
C88 O90 1.421 . S
O89 Fe67 2.077 . S
O89 C88 1.381 . S
O90 Fe71 1.935 . S
O90 C88 1.421 . S
C91 O75 1.381 . S
C91 O76 1.421 1_556 S
O92 Fe66 2.077 . S
O92 C95 1.381 . S
O93 Fe64 1.935 . S
O93 C95 1.421 . S
C94 O82 1.381 . S
C94 O83 1.421 . S
C95 O92 1.381 . S
C95 O93 1.421 . S
Fe96 O97 1.886 . S
Fe96 O100 1.715 . S
Fe96 O105 2.077 . S
Fe96 O110 1.935 . S
Fe96 O116 2.077 . S
Fe96 O125 1.935 . S
O97 Fe96 1.886 . S
O97 Fe99 1.715 . S
Fe98 O100 1.886 . S
Fe98 O101 1.715 . S
Fe98 O108 1.935 . S
Fe98 O109 2.077 . S
Fe98 O115 1.935 . S
Fe98 O124 2.077 1_556 S
Fe99 O97 1.715 . S
Fe99 O102 1.886 . S
Fe99 O106 1.935 . S
Fe99 O111 2.077 . S
Fe99 O117 1.935 . S
Fe99 O121 2.077 . S
O100 Fe96 1.715 . S
O100 Fe98 1.886 . S
O101 Fe98 1.715 . S
O101 Fe103 1.886 . S
O102 Fe99 1.886 . S
O102 Fe103 1.715 . S
Fe103 O101 1.886 . S
Fe103 O102 1.715 . S
Fe103 O107 2.077 . S
Fe103 O112 1.935 . S
Fe103 O114 2.077 . S
Fe103 O122 1.935 . S
C104 O116 1.381 . S
C104 O117 1.421 . S
O105 Fe96 2.077 . S
O105 C118 1.381 . S
O106 Fe99 1.935 . S
O106 C118 1.421 . S
O107 Fe103 2.077 . S
O107 C123 1.381 . S
O108 Fe98 1.935 . S
O108 C123 1.421 . S
O109 Fe98 2.077 . S
O109 C113 1.381 . S
O110 Fe96 1.935 . S
O110 C113 1.421 . S
O111 Fe99 2.077 . S
O111 C119 1.381 . S
O112 Fe103 1.935 . S
O112 C119 1.421 . S
C113 O109 1.381 . S
C113 O110 1.421 . S
O114 Fe103 2.077 . S
O114 C126 1.381 . S
O115 Fe98 1.935 . S
O115 C126 1.421 . S
O116 Fe96 2.077 . S
O116 C104 1.381 . S
O117 Fe99 1.935 . S
O117 C104 1.421 . S
C118 O105 1.381 . S
C118 O106 1.421 . S
C119 O111 1.381 . S
C119 O112 1.421 . S
C120 O121 1.381 . S
C120 O122 1.421 . S
O121 Fe99 2.077 . S
O121 C120 1.381 . S
O122 Fe103 1.935 . S
O122 C120 1.421 . S
C123 O107 1.381 . S
C123 O108 1.421 . S
O124 Fe98 2.077 1_554 S
O124 C127 1.381 . S
O125 Fe96 1.935 . S
O125 C127 1.421 1_556 S
C126 O114 1.381 . S
C126 O115 1.421 . S
C127 O124 1.381 . S
C127 O125 1.421 1_554 S
C128 C129 1.363 1_655 S
C128 C134 1.379 . S
C128 N136 1.356 . S
C129 C128 1.363 1_455 S
C129 C135 1.363 . S
C130 C131 1.363 1_455 S
C130 C135 1.379 . S
C130 N137 1.356 . S
C131 C130 1.363 1_655 S
C131 C134 1.363 . S
N132 C134 1.356 . S
N132 H144 0.984 . S
N132 H145 0.985 . S
N133 C135 1.356 . S
N133 H138 0.984 . S
N133 H139 0.985 . S
C134 C128 1.379 . S
C134 C131 1.363 . S
C134 N132 1.356 . S
C135 C129 1.363 . S
C135 C130 1.379 . S
C135 N133 1.356 . S
N136 C128 1.356 . S
N136 H142 0.984 . S
N136 H143 0.984 . S
N137 C130 1.356 . S
N137 H140 0.984 . S
N137 H141 0.985 . S
H138 N133 0.984 . S
H139 N133 0.985 . S
H140 N137 0.984 . S
H141 N137 0.985 . S
H142 N136 0.984 . S
H143 N136 0.984 . S
H144 N132 0.984 . S
H145 N132 0.985 . S
C146 C147 1.363 . S
C146 C152 1.379 . S
C146 N154 1.356 . S
C147 C146 1.363 . S
C147 C153 1.363 1_455 S
C148 C149 1.363 . S
C148 C153 1.379 . S
C148 N155 1.356 . S
C149 C148 1.363 . S
C149 C152 1.363 1_655 S
N150 C152 1.356 . S
N150 H162 0.984 . S
N150 H163 0.985 . S
N151 C153 1.356 . S
N151 H156 0.985 1_655 S
N151 H157 0.985 . S
C152 C146 1.379 . S
C152 C149 1.363 1_455 S
C152 N150 1.356 . S
C153 C147 1.363 1_655 S
C153 C148 1.379 . S
C153 N151 1.356 . S
N154 C146 1.356 . S
N154 H160 0.984 . S
N154 H161 0.984 . S
N155 C148 1.356 . S
N155 H158 0.984 . S
N155 H159 0.985 . S
H156 N151 0.985 1_455 S
H157 N151 0.985 . S
H158 N155 0.984 . S
H159 N155 0.985 . S
H160 N154 0.984 . S
H161 N154 0.984 . S
H162 N150 0.984 . S
H163 N150 0.985 . S
C164 C165 1.363 . S
C164 C170 1.379 . S
C164 N172 1.356 . S
C165 C164 1.363 . S
C165 C171 1.363 . S
C166 C167 1.363 . S
C166 C171 1.379 . S
C166 N173 1.356 . S
C167 C166 1.363 . S
C167 C170 1.363 . S
N168 C170 1.356 . S
N168 H180 0.984 . S
N168 H181 0.985 . S
N169 C171 1.356 . S
N169 H174 0.984 . S
N169 H175 0.985 . S
C170 C164 1.379 . S
C170 C167 1.363 . S
C170 N168 1.356 . S
C171 C165 1.363 . S
C171 C166 1.379 . S
C171 N169 1.356 . S
N172 C164 1.356 . S
N172 H178 0.984 . S
N172 H179 0.984 . S
N173 C166 1.356 . S
N173 H176 0.984 . S
N173 H177 0.985 . S
H174 N169 0.984 . S
H175 N169 0.985 . S
H176 N173 0.984 . S
H177 N173 0.985 . S
H178 N172 0.984 . S
H179 N172 0.984 . S
H180 N168 0.984 . S
H181 N168 0.985 . S
C182 C183 1.363 . S
C182 C188 1.379 . S
C182 N190 1.356 . S
C183 C182 1.363 . S
C183 C189 1.363 . S
C184 C185 1.363 . S
C184 C189 1.379 . S
C184 N191 1.356 . S
C185 C184 1.363 . S
C185 C188 1.363 . S
N186 C188 1.356 . S
N186 H198 0.984 . S
N186 H199 0.985 . S
N187 C189 1.356 . S
N187 H192 0.984 . S
N187 H193 0.985 . S
C188 C182 1.379 . S
C188 C185 1.363 . S
C188 N186 1.356 . S
C189 C183 1.363 . S
C189 C184 1.379 . S
C189 N187 1.356 . S
N190 C182 1.356 . S
N190 H196 0.984 . S
N190 H197 0.984 . S
N191 C184 1.356 . S
N191 H194 0.984 . S
N191 H195 0.985 . S
H192 N187 0.984 . S
H193 N187 0.985 . S
H194 N191 0.984 . S
H195 N191 0.985 . S
H196 N190 0.984 . S
H197 N190 0.984 . S
H198 N186 0.984 . S
H199 N186 0.985 . S
C200 C201 1.363 . S
C200 C206 1.379 . S
C200 N208 1.356 . S
C201 C200 1.363 . S
C201 C207 1.363 . S
C202 C203 1.363 . S
C202 C207 1.379 . S
C202 N209 1.356 . S
C203 C202 1.363 . S
C203 C206 1.363 . S
N204 C206 1.356 . S
N204 H216 0.984 . S
N204 H217 0.985 . S
N205 C207 1.356 . S
N205 H210 0.984 . S
N205 H211 0.985 . S
C206 C200 1.379 . S
C206 C203 1.363 . S
C206 N204 1.356 . S
C207 C201 1.363 . S
C207 C202 1.379 . S
C207 N205 1.356 . S
N208 C200 1.356 . S
N208 H214 0.984 . S
N208 H215 0.984 . S
N209 C202 1.356 . S
N209 H212 0.984 . S
N209 H213 0.985 . S
H210 N205 0.984 . S
H211 N205 0.985 . S
H212 N209 0.984 . S
H213 N209 0.985 . S
H214 N208 0.984 . S
H215 N208 0.984 . S
H216 N204 0.984 . S
H217 N204 0.985 . S
C218 C219 1.363 . S
C218 C224 1.379 . S
C218 N226 1.356 . S
C219 C218 1.363 . S
C219 C225 1.363 . S
C220 C221 1.363 . S
C220 C225 1.379 . S
C220 N227 1.356 . S
C221 C220 1.363 . S
C221 C224 1.363 . S
N222 C224 1.356 . S
N222 H234 0.984 . S
N222 H235 0.985 . S
N223 C225 1.356 . S
N223 H228 0.984 . S
N223 H229 0.985 . S
C224 C218 1.379 . S
C224 C221 1.363 . S
C224 N222 1.356 . S
C225 C219 1.363 . S
C225 C220 1.379 . S
C225 N223 1.356 . S
N226 C218 1.356 . S
N226 H232 0.984 . S
N226 H233 0.984 . S
N227 C220 1.356 . S
N227 H230 0.984 . S
N227 H231 0.985 . S
H228 N223 0.984 . S
H229 N223 0.985 . S
H230 N227 0.984 . S
H231 N227 0.985 . S
H232 N226 0.984 . S
H233 N226 0.984 . S
H234 N222 0.984 . S
H235 N222 0.985 . S
C236 C237 1.363 . S
C236 C242 1.379 1_655 S
C236 N244 1.356 . S
C237 C236 1.363 . S
C237 C243 1.363 . S
C238 C239 1.363 . S
C238 C243 1.379 1_455 S
C238 N245 1.356 . S
C239 C238 1.363 . S
C239 C242 1.363 . S
N240 C242 1.356 . S
N240 H252 0.984 . S
N240 H253 0.985 . S
N241 C243 1.356 . S
N241 H246 0.984 . S
N241 H247 0.985 . S
C242 C236 1.379 1_455 S
C242 C239 1.363 . S
C242 N240 1.356 . S
C243 C237 1.363 . S
C243 C238 1.379 1_655 S
C243 N241 1.356 . S
N244 C236 1.356 . S
N244 H250 0.984 . S
N244 H251 0.984 . S
N245 C238 1.356 . S
N245 H248 0.984 . S
N245 H249 0.985 . S
H246 N241 0.984 . S
H247 N241 0.985 . S
H248 N245 0.984 . S
H249 N245 0.985 . S
H250 N244 0.984 . S
H251 N244 0.984 . S
H252 N240 0.984 . S
H253 N240 0.985 . S
C254 C255 1.363 . S
C254 C260 1.379 1_655 S
C254 N262 1.356 . S
C255 C254 1.363 . S
C255 C261 1.363 . S
C256 C257 1.363 . S
C256 C261 1.379 1_455 S
C256 N263 1.356 . S
C257 C256 1.363 . S
C257 C260 1.363 . S
N258 C260 1.356 . S
N258 H270 0.984 . S
N258 H271 0.985 . S
N259 C261 1.356 . S
N259 H264 0.984 . S
N259 H265 0.985 . S
C260 C254 1.379 1_455 S
C260 C257 1.363 . S
C260 N258 1.356 . S
C261 C255 1.363 . S
C261 C256 1.379 1_655 S
C261 N259 1.356 . S
N262 C254 1.356 . S
N262 H268 0.984 . S
N262 H269 0.984 . S
N263 C256 1.356 . S
N263 H266 0.984 . S
N263 H267 0.985 . S
H264 N259 0.984 . S
H265 N259 0.985 . S
H266 N263 0.984 . S
H267 N263 0.985 . S
H268 N262 0.984 . S
H269 N262 0.984 . S
H270 N258 0.984 . S
H271 N258 0.985 . S
C272 C273 1.363 . S
C272 C278 1.379 . S
C272 N280 1.356 . S
C273 C272 1.363 . S
C273 C279 1.363 . S
C274 C275 1.363 . S
C274 C279 1.379 . S
C274 N281 1.356 . S
C275 C274 1.363 . S
C275 C278 1.363 . S
N276 C278 1.356 . S
N276 H288 0.984 . S
N276 H289 0.985 . S
N277 C279 1.356 . S
N277 H282 0.984 . S
N277 H283 0.985 . S
C278 C272 1.379 . S
C278 C275 1.363 . S
C278 N276 1.356 . S
C279 C273 1.363 . S
C279 C274 1.379 . S
C279 N277 1.356 . S
N280 C272 1.356 . S
N280 H286 0.984 . S
N280 H287 0.984 . S
N281 C274 1.356 . S
N281 H284 0.984 . S
N281 H285 0.985 . S
H282 N277 0.984 . S
H283 N277 0.985 . S
H284 N281 0.984 . S
H285 N281 0.985 . S
H286 N280 0.984 . S
H287 N280 0.984 . S
H288 N276 0.984 . S
H289 N276 0.985 . S
C290 C291 1.363 1_554 S
C290 C296 1.379 . S
C290 N298 1.356 . S
C291 C290 1.363 1_556 S
C291 C297 1.363 . S
C292 C293 1.363 1_556 S
C292 C297 1.379 . S
C292 N299 1.356 . S
C293 C292 1.363 1_554 S
C293 C296 1.363 . S
N294 C296 1.356 . S
N294 H306 0.984 . S
N294 H307 0.985 . S
N295 C297 1.356 . S
N295 H300 0.984 . S
N295 H301 0.985 . S
C296 C290 1.379 . S
C296 C293 1.363 . S
C296 N294 1.356 . S
C297 C291 1.363 . S
C297 C292 1.379 . S
C297 N295 1.356 . S
N298 C290 1.356 . S
N298 H304 0.984 . S
N298 H305 0.984 1_554 S
N299 C292 1.356 . S
N299 H302 0.984 1_556 S
N299 H303 0.985 . S
H300 N295 0.984 . S
H301 N295 0.985 . S
H302 N299 0.984 1_554 S
H303 N299 0.985 . S
H304 N298 0.984 . S
H305 N298 0.984 1_556 S
H306 N294 0.984 . S
H307 N294 0.985 . S
C308 C309 1.363 . S
C308 C314 1.379 . S
C308 N316 1.356 . S
C309 C308 1.363 . S
C309 C315 1.363 . S
C310 C311 1.363 . S
C310 C315 1.379 . S
C310 N317 1.356 . S
C311 C310 1.363 . S
C311 C314 1.363 . S
N312 C314 1.356 . S
N312 H324 0.984 . S
N312 H325 0.985 . S
N313 C315 1.356 . S
N313 H318 0.984 . S
N313 H319 0.985 . S
C314 C308 1.379 . S
C314 C311 1.363 . S
C314 N312 1.356 . S
C315 C309 1.363 . S
C315 C310 1.379 . S
C315 N313 1.356 . S
N316 C308 1.356 . S
N316 H322 0.984 . S
N316 H323 0.984 . S
N317 C310 1.356 . S
N317 H320 0.984 . S
N317 H321 0.985 . S
H318 N313 0.984 . S
H319 N313 0.985 . S
H320 N317 0.984 . S
H321 N317 0.985 . S
H322 N316 0.984 . S
H323 N316 0.984 . S
H324 N312 0.984 . S
H325 N312 0.985 . S
C326 C327 1.363 . S
C326 C332 1.379 . S
C326 N334 1.356 . S
C327 C326 1.363 . S
C327 C333 1.363 1_554 S
C328 C329 1.363 . S
C328 C333 1.379 . S
C328 N335 1.356 . S
C329 C328 1.363 . S
C329 C332 1.363 1_556 S
N330 C332 1.356 . S
N330 H342 0.984 . S
N330 H343 0.988 . S
N331 C333 1.356 . S
N331 H336 0.989 . S
N331 H337 0.985 . S
C332 C326 1.379 . S
C332 C329 1.363 1_554 S
C332 N330 1.356 . S
C333 C327 1.363 1_556 S
C333 C328 1.379 . S
C333 N331 1.356 . S
N334 C326 1.356 . S
N334 H340 0.984 . S
N334 H341 0.984 . S
N335 C328 1.356 . S
N335 H338 0.984 . S
N335 H339 0.985 . S
H336 N331 0.989 . S
H337 N331 0.985 . S
H338 N335 0.984 . S
H339 N335 0.985 . S
H340 N334 0.984 . S
H341 N334 0.984 . S
H342 N330 0.984 . S
H343 N330 0.988 . S
C344 C345 1.363 1_455 S
C344 C350 1.379 1_545 S
C344 N352 1.356 . S
C345 C344 1.363 1_655 S
C345 C351 1.363 1_554 S
C346 C347 1.363 1_655 S
C346 C351 1.379 1_565 S
C346 N353 1.356 . S
C347 C346 1.363 1_455 S
C347 C350 1.363 1_556 S
N348 C350 1.356 . S
N348 H360 0.984 . S
N348 H361 0.985 . S
N349 C351 1.356 . S
N349 H354 0.984 . S
N349 H355 0.985 . S
C350 C344 1.379 1_565 S
C350 C347 1.363 1_554 S
C350 N348 1.356 . S
C351 C345 1.363 1_556 S
C351 C346 1.379 1_545 S
C351 N349 1.356 . S
N352 C344 1.356 . S
N352 H358 0.984 . S
N352 H359 0.984 1_455 S
N353 C346 1.356 . S
N353 H356 0.984 1_655 S
N353 H357 0.985 . S
H354 N349 0.984 . S
H355 N349 0.985 . S
H356 N353 0.984 1_455 S
H357 N353 0.985 . S
H358 N352 0.984 . S
H359 N352 0.984 1_655 S
H360 N348 0.984 . S
H361 N348 0.985 . S
C362 C363 1.363 1_655 S
C362 C368 1.379 1_545 S
C362 N370 1.356 . S
C363 C362 1.363 1_455 S
C363 C369 1.363 . S
C364 C365 1.363 1_455 S
C364 C369 1.379 1_565 S
C364 N371 1.356 . S
C365 C364 1.363 1_655 S
C365 C368 1.363 . S
N366 C368 1.356 . S
N366 H378 0.972 1_565 S
N366 H379 0.985 . S
N367 C369 1.356 . S
N367 H372 0.984 . S
N367 H373 0.972 1_545 S
C368 C362 1.379 1_565 S
C368 C365 1.363 . S
C368 N366 1.356 . S
C369 C363 1.363 . S
C369 C364 1.379 1_545 S
C369 N367 1.356 . S
N370 C362 1.356 . S
N370 H376 0.984 . S
N370 H377 0.984 1_655 S
N371 C364 1.356 . S
N371 H374 0.984 1_455 S
N371 H375 0.985 . S
H372 N367 0.984 . S
H373 N367 0.972 1_565 S
H374 N371 0.984 1_655 S
H375 N371 0.985 . S
H376 N370 0.984 . S
H377 N370 0.984 1_455 S
H378 N366 0.972 1_545 S
H379 N366 0.985 . S
C380 C381 1.363 1_556 S
C380 C386 1.379 . S
C380 N388 1.356 1_556 S
C381 C380 1.363 1_554 S
C381 C387 1.363 . S
C382 C383 1.363 1_554 S
C382 C387 1.379 . S
C382 N389 1.356 1_554 S
C383 C382 1.363 1_556 S
C383 C386 1.363 . S
N384 C386 1.356 . S
N384 H396 0.984 . S
N384 H397 0.985 . S
N385 C387 1.356 . S
N385 H390 0.984 . S
N385 H391 0.985 . S
C386 C380 1.379 . S
C386 C383 1.363 . S
C386 N384 1.356 . S
C387 C381 1.363 . S
C387 C382 1.379 . S
C387 N385 1.356 . S
N388 C380 1.356 1_554 S
N388 H394 0.984 1_554 S
N388 H395 0.984 . S
N389 C382 1.356 1_556 S
N389 H392 0.984 . S
N389 H393 0.985 1_556 S
H390 N385 0.984 . S
H391 N385 0.985 . S
H392 N389 0.984 . S
H393 N389 0.985 1_554 S
H394 N388 0.984 1_556 S
H395 N388 0.984 . S
H396 N384 0.984 . S
H397 N384 0.985 . S
C398 C399 1.363 . S
C398 C404 1.379 . S
C398 N406 1.356 . S
C399 C398 1.363 . S
C399 C405 1.363 . S
C400 C401 1.363 . S
C400 C405 1.379 . S
C400 N407 1.356 . S
C401 C400 1.363 . S
C401 C404 1.363 . S
N402 C404 1.356 . S
N402 H414 0.984 . S
N402 H415 0.985 . S
N403 C405 1.356 . S
N403 H408 0.984 . S
N403 H409 0.985 . S
C404 C398 1.379 . S
C404 C401 1.363 . S
C404 N402 1.356 . S
C405 C399 1.363 . S
C405 C400 1.379 . S
C405 N403 1.356 . S
N406 C398 1.356 . S
N406 H412 0.984 . S
N406 H413 0.984 . S
N407 C400 1.356 . S
N407 H410 0.984 . S
N407 H411 0.985 . S
H408 N403 0.984 . S
H409 N403 0.985 . S
H410 N407 0.984 . S
H411 N407 0.985 . S
H412 N406 0.984 . S
H413 N406 0.984 . S
H414 N402 0.984 . S
H415 N402 0.985 . S
C129 C27 1.363 . S
C131 C8 1.363 . S
C147 C55 1.363 . S
C149 C63 1.363 . S
C165 C91 1.363 . S
C167 C72 1.363 . S
C183 C127 1.363 . S
C185 C119 1.363 . S
C201 C24 1.285 . S
C203 C17 1.285 . S
C219 C40 1.285 . S
C221 C59 1.285 . S
C237 C81 1.285 . S
C239 C88 1.285 . S
C255 C123 1.285 . S
C257 C104 1.285 . S
C273 C120 1.604 . S
C275 C22 1.604 . S
C291 C126 1.545 . S
C293 C23 1.545 . S
C309 C86 1.604 . S
C311 C56 1.604 . S
C327 C87 1.546 . S
C329 C62 1.546 . S
C345 C30 1.842 . S
C347 C49 1.842 . S
C363 C31 2.203 . S
C365 C54 2.203 . S
C381 C94 1.842 . S
C383 C113 1.842 . S
C399 C118 2.203 . S
C401 C95 2.203 . S
