# Generated by pormake.
# Topology smm, (6)-cn, num edge types: 1
# Building blocks:
#     Node 0, Type 0, BuildingBlock: FUNLAD_clean_sbu_0, # of connection points: 6
#     Node 1, Type 0, BuildingBlock: FUNLAD_clean_sbu_0, # of connection points: 6
#     Node 2, Type 0, BuildingBlock: FUNLAD_clean_sbu_0, # of connection points: 6
#     Node 3, Type 0, BuildingBlock: FUNLAD_clean_sbu_0, # of connection points: 6
#     Node 4, Type 0, BuildingBlock: FUNLAD_clean_sbu_0, # of connection points: 6
#     Node 5, Type 0, BuildingBlock: FUNLAD_clean_sbu_0, # of connection points: 6
#     Node 6, Type 0, BuildingBlock: FUNLAD_clean_sbu_0, # of connection points: 6
#     Node 7, Type 0, BuildingBlock: FUNLAD_clean_sbu_0, # of connection points: 6
#     Node 8, Type 0, BuildingBlock: FUNLAD_clean_sbu_0, # of connection points: 6
#     Edge 9, Type (0, 0), BuildingBlock: XIVTED_clean_linker_0, # of connection points: 2
#     Edge 10, Type (0, 0), BuildingBlock: XIVTED_clean_linker_0, # of connection points: 2
#     Edge 11, Type (0, 0), BuildingBlock: XIVTED_clean_linker_0, # of connection points: 2
#     Edge 12, Type (0, 0), BuildingBlock: XIVTED_clean_linker_0, # of connection points: 2
#     Edge 13, Type (0, 0), BuildingBlock: XIVTED_clean_linker_0, # of connection points: 2
#     Edge 14, Type (0, 0), BuildingBlock: XIVTED_clean_linker_0, # of connection points: 2
#     Edge 15, Type (0, 0), BuildingBlock: XIVTED_clean_linker_0, # of connection points: 2
#     Edge 16, Type (0, 0), BuildingBlock: XIVTED_clean_linker_0, # of connection points: 2
#     Edge 17, Type (0, 0), BuildingBlock: XIVTED_clean_linker_0, # of connection points: 2
#     Edge 18, Type (0, 0), BuildingBlock: XIVTED_clean_linker_0, # of connection points: 2
#     Edge 19, Type (0, 0), BuildingBlock: XIVTED_clean_linker_0, # of connection points: 2
#     Edge 20, Type (0, 0), BuildingBlock: XIVTED_clean_linker_0, # of connection points: 2
#     Edge 21, Type (0, 0), BuildingBlock: XIVTED_clean_linker_0, # of connection points: 2
#     Edge 22, Type (0, 0), BuildingBlock: XIVTED_clean_linker_0, # of connection points: 2
#     Edge 23, Type (0, 0), BuildingBlock: XIVTED_clean_linker_0, # of connection points: 2
#     Edge 24, Type (0, 0), BuildingBlock: XIVTED_clean_linker_0, # of connection points: 2
#     Edge 25, Type (0, 0), BuildingBlock: XIVTED_clean_linker_0, # of connection points: 2
#     Edge 26, Type (0, 0), BuildingBlock: XIVTED_clean_linker_0, # of connection points: 2
#     Edge 27, Type (0, 0), BuildingBlock: XIVTED_clean_linker_0, # of connection points: 2
#     Edge 28, Type (0, 0), BuildingBlock: XIVTED_clean_linker_0, # of connection points: 2
#     Edge 29, Type (0, 0), BuildingBlock: XIVTED_clean_linker_0, # of connection points: 2
#     Edge 30, Type (0, 0), BuildingBlock: XIVTED_clean_linker_0, # of connection points: 2
#     Edge 31, Type (0, 0), BuildingBlock: XIVTED_clean_linker_0, # of connection points: 2
#     Edge 32, Type (0, 0), BuildingBlock: XIVTED_clean_linker_0, # of connection points: 2
#     Edge 33, Type (0, 0), BuildingBlock: XIVTED_clean_linker_0, # of connection points: 2
#     Edge 34, Type (0, 0), BuildingBlock: XIVTED_clean_linker_0, # of connection points: 2
#     Edge 35, Type (0, 0), BuildingBlock: XIVTED_clean_linker_0, # of connection points: 2
# Relax obj value: 0.421
# Max RMSD: 0.281
# Mean RMSD: 0.279
data_MOF--net-smm--node1-FUNLAD_clean_sbu_0--edge1-XIVTED_clean_linker_0
_symmetry_space_group_name_H-M    P1
_symmetry_Int_Tables_number       1
_symmetry_cell_setting            triclinic
loop_
_symmetry_equiv_pos_as_xyz
'x, y, z'
_cell_length_a     47.892907
_cell_length_b     47.771943
_cell_length_c     21.322988
_cell_angle_alpha  90.58472
_cell_angle_beta   90.419954
_cell_angle_gamma 119.9399
loop_
_atom_site_label
_atom_site_type_symbol
_atom_site_fract_x
_atom_site_fract_y
_atom_site_fract_z
_atom_type_partial_charge
C0 C 0.96649 0.13485 0.01199 0.0
N1 N 0.03158 0.20379 0.14446 0.0
C2 C 0.00401 0.18915 0.17802 0.0
C3 C 0.0047 0.1949 0.24194 0.0
C4 C 0.03393 0.21659 0.27184 0.0
C5 C 0.06233 0.2306 0.23671 0.0
C6 C 0.06059 0.22371 0.1725 0.0
Zn7 Zn 0.02593 0.19944 0.0503 0.0
C8 C 0.056 0.16688 -0.00586 0.0
N9 N 0.00649 0.18969 0.85663 0.0
C10 C 0.98151 0.19065 0.828 0.0
C11 C 0.03187 0.19252 0.82337 0.0
C12 C 0.03356 0.19793 0.75945 0.0
C13 C 0.00943 0.20152 0.72936 0.0
C14 C 0.98258 0.19679 0.76392 0.0
Zn15 Zn 0.01175 0.19219 0.95116 0.0
O16 O 0.98604 0.14961 0.05753 0.0
C17 C 0.98093 0.22329 0.01744 0.0
O18 O 0.97065 0.14895 0.96019 0.0
H19 H 0.05192 0.19252 0.84673 0.0
H20 H 0.98105 0.17403 0.15491 0.0
H21 H 0.96157 0.18838 0.85529 0.0
O22 O 0.99517 0.2171 0.06027 0.0
O23 O 0.98388 0.21691 0.9606 0.0
H24 H 0.08217 0.23524 0.14476 0.0
O25 O 0.05322 0.2355 0.93838 0.0
O26 O 0.06541 0.24853 0.03746 0.0
O27 O 0.03895 0.16672 0.94775 0.0
O28 O 0.05685 0.18175 0.04417 0.0
C29 C 0.07144 0.25536 0.97983 0.0
H30 H 0.98234 0.18279 0.2674 0.0
H31 H 0.08539 0.24746 0.258 0.0
H32 H 0.05421 0.20035 0.73436 0.0
H33 H 0.96338 0.19928 0.74255 0.0
C34 C 0.84257 0.89501 0.99292 0.0
N35 N 0.83529 0.83146 0.84731 0.0
C36 C 0.82828 0.85174 0.81543 0.0
C37 C 0.82983 0.85288 0.75066 0.0
C38 C 0.83839 0.83275 0.7181 0.0
C39 C 0.84649 0.81267 0.75192 0.0
C40 C 0.84489 0.81251 0.81728 0.0
Zn41 Zn 0.827 0.82876 0.94002 0.0
C42 C 0.88283 0.84339 0.01359 0.0
N43 N 0.80651 0.82803 0.13073 0.0
C44 C 0.79081 0.84184 0.15872 0.0
C45 C 0.81832 0.81209 0.16431 0.0
C46 C 0.81472 0.80961 0.22869 0.0
C47 C 0.79926 0.82411 0.2591 0.0
C48 C 0.7871 0.84037 0.22371 0.0
Zn49 Zn 0.81469 0.83063 0.03802 0.0
O50 O 0.84612 0.88097 0.94499 0.0
C51 C 0.75975 0.81656 0.95674 0.0
O52 O 0.828 0.87845 0.03996 0.0
H53 H 0.83113 0.80169 0.1413 0.0
H54 H 0.82003 0.8661 0.83996 0.0
H55 H 0.7817 0.85441 0.13081 0.0
O56 O 0.78169 0.82129 0.91874 0.0
O57 O 0.76514 0.81719 0.01549 0.0
H58 H 0.85028 0.79657 0.84382 0.0
O59 O 0.80109 0.78271 0.03893 0.0
O60 O 0.80844 0.77666 0.9396 0.0
O61 O 0.8651 0.8445 0.05676 0.0
O62 O 0.87195 0.83595 0.95816 0.0
C63 C 0.79982 0.76482 -0.00605 0.0
H64 H 0.82268 0.86813 0.72622 0.0
H65 H 0.85321 0.79682 0.72807 0.0
H66 H 0.82508 0.79754 0.25471 0.0
H67 H 0.77522 0.85199 0.24609 0.0
C68 C 0.15592 0.02643 0.00853 0.0
N69 N 0.1626 0.96687 0.14695 0.0
C70 C 0.16814 0.9939 0.17935 0.0
C71 C 0.16686 0.99399 0.24419 0.0
C72 C 0.16027 0.96615 0.27683 0.0
C73 C 0.15405 0.93822 0.24274 0.0
C74 C 0.15518 0.93907 0.17709 0.0
Zn75 Zn 0.17122 0.97352 0.05332 0.0
C76 C 0.11707 0.9367 0.97662 0.0
N77 N 0.19507 0.00085 0.86599 0.0
C78 C 0.20965 0.03004 0.83746 0.0
C79 C 0.1835 0.97282 0.83224 0.0
C80 C 0.18663 0.97325 0.76773 0.0
C81 C 0.20111 0.00276 0.73682 0.0
C82 C 0.21266 0.03155 0.77205 0.0
Zn83 Zn 0.18672 0.99434 0.95963 0.0
O84 O 0.15122 0.00642 0.05203 0.0
C85 C 0.23879 0.03196 0.04659 0.0
O86 O 0.17277 0.02788 0.96211 0.0
H87 H 0.17119 0.94976 0.85517 0.0
H88 H 0.17525 0.0162 0.15535 0.0
H89 H 0.21838 0.05199 0.86518 0.0
O90 O 0.21577 0.011 0.07805 0.0
O91 O 0.23585 0.0314 0.98694 0.0
H92 H 0.15122 0.91797 0.15048 0.0
O93 O 0.20126 0.96071 0.95429 0.0
O94 O 0.19036 0.9405 0.0485 0.0
O95 O 0.13618 0.95789 0.93834 0.0
O96 O 0.12679 0.9361 0.03155 0.0
C97 C 0.20112 0.94122 -0.00628 0.0
H98 H 0.17271 0.01629 0.26864 0.0
H99 H 0.14901 0.9163 0.26657 0.0
H100 H 0.17667 0.95053 0.74198 0.0
H101 H 0.22367 0.05474 0.74928 0.0
C102 C 0.72397 0.5086 0.32452 0.0
N103 N 0.66837 0.5118 0.17341 0.0
C104 C 0.69605 0.52019 0.14223 0.0
C105 C 0.69579 0.51806 0.07735 0.0
C106 C 0.66681 0.50746 0.04413 0.0
C107 C 0.63827 0.49769 0.07735 0.0
C108 C 0.6396 0.49997 0.1427 0.0
Zn109 Zn 0.6729 0.52129 0.26622 0.0
C110 C 0.63175 0.46516 0.33762 0.0
N111 N 0.6889 0.54411 0.4585 0.0
C112 C 0.7181 0.55983 0.48818 0.0
C113 C 0.66094 0.5325 0.49057 0.0
C114 C 0.66155 0.53585 0.55525 0.0
C115 C 0.69119 0.55084 0.5874 0.0
C116 C 0.71982 0.56329 0.55339 0.0
Zn117 Zn 0.68453 0.53464 0.36565 0.0
O118 O 0.70828 0.50524 0.27375 0.0
C119 C 0.72509 0.58968 0.2858 0.0
O120 O 0.71927 0.52186 0.37161 0.0
H121 H 0.63797 0.51968 0.46618 0.0
H122 H 0.71874 0.53002 0.16744 0.0
H123 H 0.73996 0.56882 0.46146 0.0
O124 O 0.70862 0.56733 0.2467 0.0
O125 O 0.72049 0.58437 0.34434 0.0
H126 H 0.61794 0.49339 0.16871 0.0
O127 O 0.6501 0.54767 0.36265 0.0
O128 O 0.63694 0.53686 0.2632 0.0
O129 O 0.648 0.48405 0.38307 0.0
O130 O 0.63735 0.47562 0.28237 0.0
C131 C 0.63329 0.54693 0.31633 0.0
H132 H 0.7184 0.52643 0.05338 0.0
H133 H 0.61546 0.48928 0.05302 0.0
H134 H 0.63896 0.52534 0.58007 0.0
H135 H 0.7431 0.57492 0.57703 0.0
C136 C 0.51737 0.22536 0.34372 0.0
N137 N 0.51373 0.1615 0.20091 0.0
C138 C 0.50517 0.1806 0.16887 0.0
C139 C 0.50643 0.18163 0.1041 0.0
C140 C 0.51627 0.16256 0.07144 0.0
C141 C 0.52573 0.1435 0.10525 0.0
C142 C 0.52442 0.14347 0.17076 0.0
Zn143 Zn 0.50552 0.15916 0.29407 0.0
C144 C 0.56196 0.17795 0.36788 0.0
N145 N 0.48394 0.15971 0.48432 0.0
C146 C 0.4667 0.17186 0.51224 0.0
C147 C 0.49731 0.14529 0.51815 0.0
C148 C 0.49356 0.14244 0.58245 0.0
C149 C 0.47637 0.15508 0.61277 0.0
C150 C 0.46282 0.17005 0.5773 0.0
Zn151 Zn 0.49243 0.16224 0.39133 0.0
O152 O 0.52118 0.21092 0.29672 0.0
C153 C 0.43719 0.14432 0.30726 0.0
O154 O 0.50381 0.20946 0.39204 0.0
H155 H 0.5114 0.13629 0.49542 0.0
H156 H 0.49586 0.19407 0.19322 0.0
H157 H 0.45644 0.18334 0.48425 0.0
O158 O 0.45972 0.1481 0.27186 0.0
O159 O 0.44204 0.14707 0.36654 0.0
H160 H 0.53094 0.12836 0.19729 0.0
O161 O 0.48139 0.11506 0.39418 0.0
O162 O 0.49115 0.10797 0.29699 0.0
O163 O 0.54367 0.17811 0.41103 0.0
O164 O 0.55097 0.16997 0.31264 0.0
C165 C 0.48302 0.0972 0.35223 0.0
H166 H 0.49814 0.19598 0.07974 0.0
H167 H 0.53337 0.12842 0.08131 0.0
H168 H 0.50505 0.13148 0.6085 0.0
H169 H 0.44965 0.1803 0.59963 0.0
C170 C 0.79987 0.30259 0.34827 0.0
N171 N 0.85824 0.35617 0.19888 0.0
C172 C 0.83859 0.32843 0.16646 0.0
C173 C 0.83688 0.3285 0.10158 0.0
C174 C 0.8557 0.35738 0.0698 0.0
C175 C 0.87466 0.38603 0.10437 0.0
C176 C 0.87553 0.38488 0.16959 0.0
Zn177 Zn 0.86335 0.3522 0.29124 0.0
C178 C 0.84889 0.39505 0.36262 0.0
N179 N 0.87035 0.33906 0.48296 0.0
C180 C 0.85823 0.30967 0.51002 0.0
C181 C 0.88562 0.36697 0.51728 0.0
C182 C 0.88867 0.36605 0.58178 0.0
C183 C 0.87546 0.33612 0.61123 0.0
C184 C 0.86034 0.30761 0.57486 0.0
Zn185 Zn 0.86524 0.34301 0.39061 0.0
O186 O 0.81184 0.31816 0.29811 0.0
C187 C 0.87948 0.30075 0.31064 0.0
O188 O 0.81813 0.30719 0.3949 0.0
H189 H 0.89481 0.39004 0.49478 0.0
H190 H 0.82534 0.30583 0.1907 0.0
H191 H 0.84628 0.28787 0.48146 0.0
O192 O 0.87177 0.31516 0.27097 0.0
O193 O 0.88066 0.30791 0.36873 0.0
H194 H 0.89084 0.4066 0.19665 0.0
O195 O 0.91203 0.37879 0.38969 0.0
O196 O 0.91512 0.38674 0.28841 0.0
O197 O 0.8499 0.37859 0.40843 0.0
O198 O 0.85502 0.38919 0.30817 0.0
C199 C 0.92831 0.39346 0.34269 0.0
H200 H 0.82242 0.30581 0.07652 0.0
H201 H 0.88933 0.40878 0.08118 0.0
H202 H 0.89991 0.38851 0.60859 0.0
H203 H 0.84983 0.28413 0.59645 0.0
C204 C 0.28806 0.79364 0.69496 0.0
N205 N 0.35798 0.87224 0.80459 0.0
C206 C 0.33077 0.86474 0.83697 0.0
C207 C 0.33149 0.86728 0.90183 0.0
C208 C 0.36031 0.87687 0.93475 0.0
C209 C 0.3883 0.88473 0.90081 0.0
C210 C 0.38664 0.88247 0.83504 0.0
Zn211 Zn 0.3501 0.86211 0.71028 0.0
C212 C 0.37776 0.82556 0.66386 0.0
N213 N 0.31958 0.83379 0.52218 0.0
C214 C 0.29278 0.82936 0.49073 0.0
C215 C 0.34552 0.83676 0.49067 0.0
C216 C 0.3457 0.83621 0.42566 0.0
C217 C 0.3191 0.83302 0.39177 0.0
C218 C 0.29209 0.82904 0.42491 0.0
Zn219 Zn 0.32738 0.84345 0.61665 0.0
O220 O 0.30956 0.81343 0.73375 0.0
C221 C 0.2995 0.87928 0.67314 0.0
O222 O 0.28952 0.80101 0.63792 0.0
H223 H 0.36723 0.84172 0.5156 0.0
H224 H 0.30787 0.85545 0.81284 0.0
H225 H 0.27256 0.82749 0.51646 0.0
O226 O 0.32041 0.88148 0.71215 0.0
O227 O 0.29583 0.86424 0.62128 0.0
H228 H 0.40789 0.88783 0.80861 0.0
O229 O 0.36587 0.88681 0.59207 0.0
O230 O 0.38979 0.90896 0.68147 0.0
O231 O 0.35768 0.82086 0.61973 0.0
O232 O 0.38053 0.84367 0.70989 0.0
C233 C 0.38867 0.91009 0.62172 0.0
H234 H 0.30919 0.86015 0.92615 0.0
H235 H 0.41096 0.89199 0.92485 0.0
H236 H 0.36739 0.84027 0.40229 0.0
H237 H 0.27108 0.82655 0.40032 0.0
C238 C 0.17348 0.55672 0.70171 0.0
N239 N 0.17531 0.49823 0.55274 0.0
C240 C 0.16557 0.51653 0.52111 0.0
C241 C 0.16732 0.51829 0.4563 0.0
C242 C 0.17878 0.5007 0.4232 0.0
C243 C 0.18965 0.48271 0.45673 0.0
C244 C 0.18783 0.48194 0.52219 0.0
Zn245 Zn 0.16525 0.49318 0.64558 0.0
C246 C 0.21922 0.51108 0.72527 0.0
N247 N 0.13765 0.48638 0.83475 0.0
C248 C 0.12292 0.50067 0.86472 0.0
C249 C 0.14879 0.46934 0.86673 0.0
C250 C 0.146 0.46669 0.93132 0.0
C251 C 0.13217 0.48222 0.96389 0.0
C252 C 0.1201 0.49907 0.93001 0.0
Zn253 Zn 0.1483 0.4922 0.74221 0.0
O254 O 0.1775 0.54381 0.65248 0.0
C255 C 0.09529 0.47465 0.65495 0.0
O256 O 0.16046 0.53955 0.749 0.0
H257 H 0.16116 0.45881 0.84252 0.0
H258 H 0.15482 0.52857 0.54576 0.0
H259 H 0.11443 0.51425 0.83832 0.0
O260 O 0.11847 0.47901 0.62075 0.0
O261 O 0.09934 0.47855 0.71422 0.0
H262 H 0.19526 0.46741 0.54831 0.0
O263 O 0.13581 0.44447 0.73733 0.0
O264 O 0.15396 0.44308 0.64403 0.0
O265 O 0.19834 0.50687 0.76638 0.0
O266 O 0.21148 0.50679 0.6678 0.0
C267 C 0.14057 0.42898 0.69455 0.0
H268 H 0.158 0.53183 0.43217 0.0
H269 H 0.19864 0.46882 0.43255 0.0
H270 H 0.15627 0.4541 0.95583 0.0
H271 H 0.10935 0.51143 0.95385 0.0
C272 C 0.49895 0.70791 0.68735 0.0
N273 N 0.51946 0.64768 0.79667 0.0
C274 C 0.53454 0.67564 0.83102 0.0
C275 C 0.53673 0.67501 0.89576 0.0
C276 C 0.52269 0.64533 0.92616 0.0
C277 C 0.50729 0.61664 0.89011 0.0
C278 C 0.50618 0.61838 0.82466 0.0
Zn279 Zn 0.51608 0.65371 0.70311 0.0
C280 C 0.45212 0.61778 0.65675 0.0
N281 N 0.51279 0.67827 0.51572 0.0
C282 C 0.5321 0.70631 0.4856 0.0
C283 C 0.49214 0.65083 0.48333 0.0
C284 C 0.49112 0.65043 0.4183 0.0
C285 C 0.51178 0.67845 0.38569 0.0
C286 C 0.53205 0.70692 0.41998 0.0
Zn287 Zn 0.51701 0.67235 0.60899 0.0
O288 O 0.4984 0.68713 0.72519 0.0
C289 C 0.58058 0.70878 0.6645 0.0
O290 O 0.50856 0.70898 0.63192 0.0
H291 H 0.47768 0.6285 0.50766 0.0
H292 H 0.5442 0.69872 0.80843 0.0
H293 H 0.54853 0.72777 0.51227 0.0
O294 O 0.56317 0.69031 0.70701 0.0
O295 O 0.56853 0.70687 0.61013 0.0
H296 H 0.49406 0.59647 0.79645 0.0
O297 O 0.52564 0.63524 0.58351 0.0
O298 O 0.53259 0.62068 0.67694 0.0
O299 O 0.46515 0.63875 0.61401 0.0
O300 O 0.46939 0.61668 0.70064 0.0
C301 C 0.53224 0.61773 0.61745 0.0
H302 H 0.54808 0.69765 0.92198 0.0
H303 H 0.496 0.59329 0.91229 0.0
H304 H 0.47567 0.62777 0.3939 0.0
H305 H 0.54828 0.72907 0.39637 0.0
H306 H 0.06881 0.31023 0.98993 0.0
H307 H 0.18258 0.40706 0.71512 0.0
H308 H 0.12412 0.27045 0.91025 0.0
H309 H 0.08221 0.37941 0.72054 0.0
H310 H 0.17284 0.36651 0.79555 0.0
H311 H 0.0885 0.35105 0.90794 0.0
C312 C 0.08664 0.31133 0.9575 0.0
C313 C 0.09522 0.2873 0.9572 0.0
C314 C 0.15287 0.36877 0.77751 0.0
C315 C 0.11669 0.33281 0.86221 0.0
C316 C 0.15819 0.3912 0.73054 0.0
C317 C 0.13301 0.39621 0.7107 0.0
C318 C 0.12247 0.3522 0.80528 0.0
C319 C 0.10212 0.37594 0.73404 0.0
C320 C 0.09716 0.33401 0.90979 0.0
C321 C 0.11744 0.28901 0.91244 0.0
N322 N 0.09788 0.35551 0.7814 0.0
N323 N 0.12718 0.31114 0.86596 0.0
H324 H 0.70725 0.757 0.96187 0.0
H325 H 0.60831 0.77406 0.68163 0.0
H326 H 0.74246 0.85085 0.88141 0.0
H327 H 0.62553 0.69422 0.69954 0.0
H328 H 0.65071 0.80431 0.76152 0.0
H329 H 0.66548 0.7337 0.87943 0.0
C330 C 0.70507 0.77291 0.92883 0.0
C331 C 0.72782 0.8059 0.92896 0.0
C332 C 0.64574 0.78051 0.74647 0.0
C333 C 0.68127 0.77943 0.8333 0.0
C334 C 0.62221 0.76363 0.69983 0.0
C335 C 0.61393 0.73188 0.6832 0.0
C336 C 0.66012 0.76497 0.77739 0.0
C337 C 0.63166 0.71888 0.7103 0.0
C338 C 0.68184 0.75956 0.8809 0.0
C339 C 0.72483 0.82536 0.8834 0.0
N340 N 0.65332 0.73511 0.7571 0.0
N341 N 0.7021 0.81182 0.83693 0.0
H342 H 0.26295 0.95536 0.99 0.0
H343 H 0.23556 0.84044 0.69583 0.0
H344 H 0.16668 0.88304 0.93493 0.0
H345 H 0.31395 0.9382 0.71623 0.0
H346 H 0.20929 0.84952 0.78638 0.0
H347 H 0.28383 0.93975 0.90011 0.0
C348 C 0.24635 0.93482 0.96114 0.0
C349 C 0.21309 0.92017 0.97054 0.0
C350 C 0.2318 0.86923 0.76979 0.0
C351 C 0.23654 0.90344 0.86519 0.0
C352 C 0.24634 0.86436 0.71701 0.0
C353 C 0.27679 0.88878 0.69789 0.0
C354 C 0.24823 0.89849 0.80391 0.0
C355 C 0.29028 0.91891 0.72881 0.0
C356 C 0.25816 0.92663 0.90858 0.0
C357 C 0.19256 0.89449 0.93005 0.0
N358 N 0.27636 0.92266 0.78107 0.0
N359 N 0.20452 0.88725 0.87838 0.0
H360 H 0.43048 0.16334 0.19235 0.0
H361 H 0.24096 0.04608 0.1702 0.0
H362 H 0.37425 0.10663 0.34786 0.0
H363 H 0.30202 0.07234 0.00802 0.0
H364 H 0.28776 0.07857 0.23641 0.0
H365 H 0.38185 0.14098 0.12749 0.0
C366 C 0.4077 0.14655 0.21334 0.0
C367 C 0.40648 0.13647 0.27561 0.0
C368 C 0.29098 0.07745 0.1864 0.0
C369 C 0.35061 0.11077 0.20087 0.0
C370 C 0.26426 0.05888 0.14812 0.0
C371 C 0.26754 0.05589 0.0831 0.0
C372 C 0.32151 0.09368 0.15993 0.0
C373 C 0.29835 0.07375 0.05772 0.0
C374 C 0.38002 0.13371 0.17594 0.0
C375 C 0.37629 0.11507 0.30029 0.0
N376 N 0.32429 0.09175 0.0964 0.0
N377 N 0.34949 0.10263 0.26252 0.0
H378 H 0.84532 0.24461 0.24557 0.0
H379 H 0.00348 0.28429 0.05786 0.0
H380 H 0.94132 0.31405 0.30829 0.0
H381 H 0.91614 0.19287 0.03367 0.0
H382 H 0.97742 0.29963 0.13857 0.0
H383 H 0.86808 0.22605 0.16325 0.0
C384 C 0.87122 0.25478 0.24393 0.0
C385 C 0.89152 0.28028 0.28474 0.0
C386 C 0.96364 0.2765 0.11463 0.0
C387 C 0.91766 0.26094 0.1881 0.0
C388 C 0.9782 0.26815 0.06729 0.0
C389 C 0.96165 0.23761 0.03807 0.0
C390 C 0.93223 0.25412 0.13296 0.0
C391 C 0.92938 0.21699 0.0539 0.0
C392 C 0.88417 0.24471 0.1961 0.0
C393 C 0.92488 0.2937 0.27893 0.0
N394 N 0.91574 0.22547 0.10083 0.0
N395 N 0.93694 0.2843 0.23069 0.0
H396 H 0.73863 0.71878 0.01298 0.0
H397 H 0.78256 0.6117 0.22874 0.0
H398 H 0.83629 0.73747 0.02126 0.0
H399 H 0.71015 0.6367 0.27346 0.0
H400 H 0.80161 0.65149 0.14431 0.0
H401 H 0.72389 0.6776 0.09295 0.0
C402 C 0.75655 0.71284 0.02903 0.0
C403 C 0.78857 0.73109 0.00969 0.0
C404 C 0.78216 0.64889 0.1738 0.0
C405 C 0.77237 0.68534 0.10365 0.0
C406 C 0.7718 0.62681 0.22282 0.0
C407 C 0.74543 0.62173 0.2593 0.0
C408 C 0.76522 0.66506 0.16005 0.0
C409 C 0.7312 0.64066 0.2477 0.0
C410 C 0.74838 0.69006 0.07604 0.0
C411 C 0.81118 0.72334 0.0339 0.0
N412 N 0.74085 0.66103 0.19832 0.0
N413 N 0.80278 0.70128 0.08037 0.0
H414 H 0.06913 0.51088 0.61663 0.0
H415 H 0.97747 0.38136 0.34202 0.0
H416 H 0.05576 0.41486 0.61033 0.0
H417 H 0.95371 0.45528 0.38355 0.0
H418 H 0.01834 0.40312 0.42564 0.0
H419 H 0.03347 0.49731 0.52386 0.0
C420 C 0.05736 0.48646 0.59759 0.0
C421 C 0.06444 0.46356 0.62225 0.0
C422 C 0.00487 0.41524 0.41525 0.0
C423 C 0.02611 0.44881 0.51381 0.0
C424 C 0.98229 0.40346 0.36609 0.0
C425 C 0.96228 0.4166 0.35579 0.0
C426 C 0.00761 0.44056 0.4538 0.0
C427 C 0.96893 0.44468 0.38972 0.0
C428 C 0.03776 0.47901 0.54381 0.0
C429 C 0.05005 0.43282 0.59385 0.0
N430 N 0.99054 0.45535 0.43837 0.0
N431 N 0.03198 0.42649 0.54067 0.0
H432 H 0.59335 0.62934 0.61005 0.0
H433 H 0.56893 0.50866 0.33393 0.0
H434 H 0.49667 0.56525 0.54265 0.0
H435 H 0.64611 0.60747 0.33974 0.0
H436 H 0.54068 0.52208 0.41427 0.0
H437 H 0.61408 0.612 0.52193 0.0
C438 C 0.57648 0.6104 0.57846 0.0
C439 C 0.5433 0.59805 0.58433 0.0
C440 C 0.56329 0.54101 0.3963 0.0
C441 C 0.56669 0.57926 0.48217 0.0
C442 C 0.57899 0.53359 0.34928 0.0
C443 C 0.60969 0.55713 0.32961 0.0
C444 C 0.57896 0.57191 0.4244 0.0
C445 C 0.62225 0.58877 0.35298 0.0
C446 C 0.58828 0.60117 0.52734 0.0
C447 C 0.52242 0.57465 0.54041 0.0
N448 N 0.60736 0.59504 0.4005 0.0
N449 N 0.53443 0.56599 0.4909 0.0
H450 H 0.43876 0.035 0.31478 0.0
H451 H 0.43174 0.97435 0.65532 0.0
H452 H 0.5172 0.09058 0.44459 0.0
H453 H 0.39867 0.90729 0.498 0.0
H454 H 0.46212 0.01864 0.5813 0.0
H455 H 0.42183 0.98742 0.38114 0.0
C456 C 0.45316 0.03678 0.35564 0.0
C457 C 0.47948 0.06651 0.37411 0.0
C458 C 0.44848 0.99402 0.56359 0.0
C459 C 0.45935 0.01329 0.45179 0.0
C460 C 0.4313 0.96885 0.6058 0.0
C461 C 0.41215 0.93716 0.58294 0.0
C462 C 0.44593 0.98725 0.49855 0.0
C463 C 0.41245 0.93141 0.51795 0.0
C464 C 0.44328 0.00989 0.39408 0.0
C465 C 0.49678 0.0679 0.42882 0.0
N466 N 0.42844 0.95617 0.47812 0.0
N467 N 0.48598 0.04195 0.46662 0.0
H468 H 0.12974 0.04261 0.10749 0.0
H469 H 0.06564 0.13596 0.89409 0.0
H470 H 0.14715 0.056 0.90867 0.0
H471 H 0.08223 0.15273 0.09385 0.0
H472 H 0.0894 0.10083 0.89811 0.0
H473 H 0.10528 0.07722 0.10335 0.0
C474 C 0.12837 0.05276 0.06315 0.0
C475 C 0.14071 0.0467 0.00856 0.0
C476 C 0.08791 0.11239 0.9409 0.0
C477 C 0.11266 0.08571 0.00326 0.0
C478 C 0.07443 0.13243 0.93856 0.0
C479 C 0.07212 0.14741 -0.00645 0.0
C480 C 0.0986 0.10699 -0.00125 0.0
C481 C 0.08372 0.14186 0.05013 0.0
C482 C 0.11456 0.07252 0.06078 0.0
C483 C 0.13827 0.06034 0.95212 0.0
N484 N 0.09626 0.12195 0.05133 0.0
N485 N 0.12444 0.0791 0.95089 0.0
H486 H 0.85394 0.93171 0.0985 0.0
H487 H 0.92399 0.09799 0.91976 0.0
H488 H 0.86418 0.93885 0.89732 0.0
H489 H 0.95342 0.09261 0.1092 0.0
H490 H 0.89062 0.03944 0.91607 0.0
H491 H 0.87992 0.99043 0.10675 0.0
C492 C 0.8614 0.94561 0.05591 0.0
C493 C 0.85696 0.93039 -0.00303 0.0
C494 C 0.90416 0.05111 0.95859 0.0
C495 C 0.88641 -0.00249 0.00648 0.0
C496 C 0.9231 0.08458 0.96107 0.0
C497 C 0.94192 0.10027 0.01475 0.0
C498 C 0.90362 0.03312 0.01035 0.0
C499 C 0.93946 0.08151 0.06683 0.0
C500 C 0.87632 0.9791 0.06087 0.0
C501 C 0.86727 0.94964 0.94359 0.0
N502 N 0.92077 0.04878 0.06322 0.0
N503 N 0.88148 0.98231 0.9496 0.0
H504 H 0.93027 0.9038 0.0444 0.0
H505 H 0.07641 0.87329 0.00021 0.0
H506 H 0.9125 0.80833 -0.00271 0.0
H507 H 0.07893 0.9595 0.93437 0.0
H508 H 0.018 0.8484 0.01459 0.0
H509 H 0.98806 0.92514 0.02682 0.0
C510 C 0.93881 0.88723 0.03286 0.0
C511 C 0.91702 0.85428 0.02351 0.0
C512 C 0.03128 0.87248 -0.0043 0.0
C513 C 0.98229 0.87837 0.00154 0.0
C514 C 0.06439 0.88646 0.98666 0.0
C515 C 0.08219 0.91817 0.96494 0.0
C516 C 0.01632 0.89086 0.98508 0.0
C517 C 0.06583 0.93471 0.94981 0.0
C518 C 0.97152 0.89943 0.02152 0.0
C519 C 0.92887 0.83382 0.00611 0.0
N520 N 0.03382 0.9211 0.96141 0.0
N521 N 0.96084 0.84618 -0.00425 0.0
H522 H 0.75292 0.49176 0.23237 0.0
H523 H 0.81344 0.40181 0.45719 0.0
H524 H 0.74443 0.49523 0.43341 0.0
H525 H 0.85778 0.44112 0.27965 0.0
H526 H 0.78553 0.43323 0.45074 0.0
H527 H 0.78811 0.46865 0.24775 0.0
C528 C 0.75853 0.48774 0.27957 0.0
C529 C 0.74588 0.49548 0.33157 0.0
C530 C 0.80181 0.43524 0.41383 0.0
C531 C 0.78558 0.46888 0.34957 0.0
C532 C 0.81786 0.41754 0.41776 0.0
C533 C 0.83754 0.41851 0.36852 0.0
C534 C 0.80532 0.45349 0.36002 0.0
C535 C 0.84235 0.43919 0.31821 0.0
C536 C 0.77868 0.47475 0.28842 0.0
C537 C 0.75387 0.48979 0.39194 0.0
N538 N 0.82594 0.4554 0.31473 0.0
N539 N 0.77296 0.47653 0.39931 0.0
H540 H 0.588 0.42428 0.25182 0.0
H541 H 0.52939 0.26408 0.44666 0.0
H542 H 0.62286 0.42679 0.44037 0.0
H543 H 0.5354 0.2669 0.24465 0.0
H544 H 0.5532 0.32278 0.45002 0.0
H545 H 0.55703 0.3657 0.25521 0.0
C546 C 0.58885 0.41254 0.29442 0.0
C547 C 0.60853 0.43048 0.34567 0.0
C548 C 0.54915 0.31049 0.40506 0.0
C549 C 0.57293 0.3632 0.34942 0.0
C550 C 0.53545 0.27702 0.40289 0.0
C551 C 0.53044 0.26061 0.34511 0.0
C552 C 0.55736 0.32762 0.34904 0.0
C553 C 0.53896 0.27861 0.29009 0.0
C554 C 0.57123 0.37905 0.29602 0.0
C555 C 0.60815 0.41388 0.39979 0.0
N556 N 0.55192 0.31122 0.29341 0.0
N557 N 0.59078 0.38098 0.40012 0.0
H558 H 0.5993 0.1636 0.29558 0.0
H559 H 0.76659 0.2866 0.45695 0.0
H560 H 0.60341 0.21875 0.46061 0.0
H561 H 0.75379 0.27032 0.25665 0.0
H562 H 0.70844 0.25222 0.46983 0.0
H563 H 0.65785 0.19167 0.29437 0.0
C564 C 0.61255 0.18128 0.33234 0.0
C565 C 0.5965 0.18935 0.3777 0.0
C566 C 0.71845 0.25611 0.42323 0.0
C567 C 0.66355 0.22147 0.37618 0.0
C568 C 0.75155 0.27555 0.41567 0.0
C569 C 0.76494 0.28122 0.35547 0.0
C570 C 0.69875 0.24169 0.37039 0.0
C571 C 0.74438 0.26661 0.30372 0.0
C572 C 0.64595 0.19737 0.33123 0.0
C573 C 0.61489 0.21197 0.42473 0.0
N574 N 0.71222 0.24727 0.31242 0.0
N575 N 0.64768 0.22761 0.42244 0.0
H576 H 0.52572 0.77297 0.68281 0.0
H577 H 0.35921 0.76392 0.62448 0.0
H578 H 0.43669 0.68537 0.71808 0.0
H579 H 0.4387 0.84938 0.70845 0.0
H580 H 0.38927 0.73511 0.64069 0.0
H581 H 0.49612 0.80265 0.67895 0.0
C582 C 0.50007 0.76029 0.69168 0.0
C583 C 0.48357 0.727 0.7022 0.0
C584 C 0.40005 0.76021 0.65526 0.0
C585 C 0.44955 0.76006 0.69403 0.0
C586 C 0.38318 0.7767 0.64523 0.0
C587 C 0.39669 0.80901 0.66488 0.0
C588 C 0.4308 0.77649 0.68365 0.0
C589 C 0.42756 0.82444 0.69259 0.0
C590 C 0.48321 0.77706 0.68884 0.0
C591 C 0.45023 0.71124 0.71141 0.0
N592 N 0.44374 0.80812 0.70073 0.0
N593 N 0.4341 0.72783 0.70593 0.0
H594 H 0.19204 0.59368 0.80805 0.0
H595 H 0.23172 0.75505 0.63393 0.0
H596 H 0.18343 0.59922 0.60749 0.0
H597 H 0.28921 0.75662 0.79227 0.0
H598 H 0.19934 0.69652 0.64107 0.0
H599 H 0.21487 0.65228 0.81679 0.0
C600 C 0.19463 0.60721 0.76591 0.0
C601 C 0.18592 0.59171 0.70679 0.0
C602 C 0.21868 0.70975 0.67488 0.0
C603 C 0.21134 0.65828 0.717 0.0
C604 C 0.23706 0.74313 0.67124 0.0
C605 C 0.26361 0.76058 0.71186 0.0
C606 C 0.22662 0.69372 0.71991 0.0
C607 C 0.26907 0.74399 0.75989 0.0
C608 C 0.20771 0.64054 0.7711 0.0
C609 C 0.19 0.61032 0.65377 0.0
N610 N 0.25091 0.7112 0.76214 0.0
N611 N 0.20231 0.64273 0.66017 0.0
H612 H 0.41732 0.55736 0.70356 0.0
H613 H 0.26156 0.57363 0.75015 0.0
H614 H 0.40785 0.63574 0.62835 0.0
H615 H 0.25386 0.48039 0.72621 0.0
H616 H 0.31985 0.59941 0.73372 0.0
H617 H 0.36047 0.53037 0.73363 0.0
C618 C 0.40303 0.56853 0.69233 0.0
C619 C 0.41698 0.59853 0.66272 0.0
C620 C 0.30548 0.57329 0.73375 0.0
C621 C 0.3529 0.56874 0.69954 0.0
C622 C 0.27249 0.55864 0.74445 0.0
C623 C 0.25334 0.52497 0.74078 0.0
C624 C 0.31916 0.55398 0.71972 0.0
C625 C 0.26818 0.50645 0.7307 0.0
C626 C 0.37083 0.55331 0.70998 0.0
C627 C 0.39775 0.61233 0.65006 0.0
N628 N 0.30035 0.52122 0.72018 0.0
N629 N 0.36669 0.59749 0.66932 0.0
H630 H 0.96255 0.18195 0.63746 0.0
H631 H 0.07953 0.22623 0.36133 0.0
H632 H 0.06495 0.2436 0.66978 0.0
H633 H 0.98897 0.22435 0.33619 0.0
H634 H 0.07507 0.23078 0.47462 0.0
H635 H 0.97072 0.19458 0.52602 0.0
C636 C 0.98664 0.19843 0.62144 0.0
C637 C 0.01318 0.2111 0.66285 0.0
C638 C 0.05647 0.22984 0.44397 0.0
C639 C 0.02264 0.225 0.53582 0.0
C640 C 0.05902 0.22733 0.37939 0.0
C641 C 0.03419 0.22407 0.33933 0.0
C642 C 0.02869 0.22846 0.46828 0.0
C643 C 0.00809 0.22554 0.36552 0.0
C644 C 0.99127 0.20558 0.55792 0.0
C645 C 0.04392 0.23226 0.63922 0.0
N646 N 0.00565 0.22692 0.42857 0.0
N647 N 0.04791 0.23806 0.57697 0.0
H648 H 0.80983 0.77837 0.64437 0.0
H649 H 0.81763 0.87602 0.33692 0.0
H650 H 0.8589 0.88245 0.63619 0.0
H651 H 0.78145 0.77324 0.3368 0.0
H652 H 0.82752 0.87799 0.44989 0.0
H653 H 0.79679 0.77535 0.53267 0.0
C654 C 0.81842 0.80057 0.61869 0.0
C655 C 0.83538 0.8307 0.64928 0.0
C656 C 0.81715 0.85495 0.42525 0.0
C657 C 0.81977 0.82745 0.52256 0.0
C658 C 0.81109 0.85378 0.36109 0.0
C659 C 0.79893 0.82447 0.32795 0.0
C660 C 0.81092 0.82659 0.45605 0.0
C661 C 0.79119 0.79635 0.36098 0.0
C662 C 0.81061 0.79884 0.55524 0.0
C663 C 0.84545 0.85874 0.61427 0.0
N664 N 0.79757 0.79813 0.42333 0.0
N665 N 0.8373 0.85644 0.55273 0.0
H666 H 0.22219 0.9714 0.66034 0.0
H667 H 0.136 0.99294 0.35784 0.0
H668 H 0.17868 0.03157 0.65723 0.0
H669 H 0.19194 0.94484 0.35247 0.0
H670 H 0.14919 0.00487 0.46919 0.0
H671 H 0.21142 0.96108 0.54775 0.0
C672 C 0.2109 0.98291 0.63547 0.0
C673 C 0.20123 0.00231 0.66774 0.0
C674 C 0.15848 0.99158 0.44381 0.0
C675 C 0.18816 0.99006 0.53973 0.0
C676 C 0.15078 0.98458 0.38042 0.0
C677 C 0.16305 0.96803 0.34597 0.0
C678 C 0.17852 0.98187 0.47308 0.0
C679 C 0.18178 0.95742 0.37749 0.0
C680 C 0.20458 0.97686 0.57144 0.0
C681 C 0.18671 0.01669 0.63377 0.0
N682 N 0.18914 0.96471 0.43933 0.0
N683 N 0.18026 0.00996 0.57157 0.0
H684 H 0.65712 0.56649 0.66835 0.0
H685 H 0.69864 0.49 0.96081 0.0
H686 H 0.72471 0.53173 0.66194 0.0
H687 H 0.63773 0.53259 0.97211 0.0
H688 H 0.707 0.50348 0.84988 0.0
H689 H 0.64991 0.55473 0.78018 0.0
C690 C 0.67079 0.55683 0.69092 0.0
C691 C 0.69143 0.54993 0.65625 0.0
C692 C 0.69166 0.50972 0.87653 0.0
C693 C 0.68297 0.53594 0.78323 0.0
C694 C 0.68677 0.50189 0.93962 0.0
C695 C 0.66756 0.5103 0.97544 0.0
C696 C 0.67723 0.52608 0.84924 0.0
C697 C 0.65245 0.52539 0.94588 0.0
C698 C 0.66657 0.54998 0.7545 0.0
C699 C 0.70876 0.53761 0.68732 0.0
N700 N 0.65778 0.533 0.88442 0.0
N701 N 0.70389 0.53068 0.74912 0.0
H702 H 0.49201 0.20587 0.69223 0.0
H703 H 0.48947 0.10843 -0.00328 0.0
H704 H 0.46044 0.10403 0.68894 0.0
H705 H 0.53513 0.21235 0.99032 0.0
H706 H 0.47592 0.10542 0.88514 0.0
H707 H 0.50211 0.20745 0.80513 0.0
C708 C 0.48648 0.18371 0.71571 0.0
C709 C 0.47561 0.15483 0.68166 0.0
C710 C 0.48912 0.12889 0.90809 0.0
C711 C 0.48787 0.15655 0.80968 0.0
C712 C 0.49722 0.13061 0.97145 0.0
C713 C 0.51332 0.16066 0.00254 0.0
C714 C 0.49712 0.15741 0.87603 0.0
C715 C 0.52236 0.18868 0.96803 0.0
C716 C 0.49267 0.18468 0.77982 0.0
C717 C 0.46915 0.12682 0.71383 0.0
N718 N 0.51391 0.18637 0.90665 0.0
N719 N 0.47565 0.12841 0.77613 0.0
H720 H 0.92494 0.37101 0.69372 0.0
H721 H 0.80684 0.32534 0.98418 0.0
H722 H 0.82363 0.30016 0.68398 0.0
H723 H 0.91013 0.38626 0.00023 0.0
H724 H 0.81239 0.31731 0.87276 0.0
H725 H 0.92035 0.37684 0.80654 0.0
C726 C 0.90186 0.35634 0.71575 0.0
C727 C 0.87458 0.33521 0.67997 0.0
C728 C 0.83383 0.33254 0.90061 0.0
C729 C 0.86898 0.34207 0.80794 0.0
C730 C 0.83065 0.33724 0.96398 0.0
C731 C 0.85808 0.35644 0.00119 0.0
C732 C 0.86466 0.34719 0.87447 0.0
C733 C 0.88834 0.3716 0.9729 0.0
C734 C 0.8992 0.35974 0.77988 0.0
C735 C 0.84525 0.31655 0.71026 0.0
N736 N 0.89085 0.36651 0.9111 0.0
N737 N 0.84312 0.32069 0.77262 0.0
H738 H 0.30136 0.86878 0.31939 0.0
H739 H 0.38491 0.84864 0.01122 0.0
H740 H 0.3437 0.8076 0.30773 0.0
H741 H 0.33257 0.90045 0.01518 0.0
H742 H 0.37403 0.8373 0.12283 0.0
H743 H 0.31384 0.88216 0.20891 0.0
C744 C 0.31272 0.85769 0.29328 0.0
C745 C 0.32159 0.83713 0.32284 0.0
C746 C 0.36515 0.85138 0.09942 0.0
C747 C 0.33677 0.85302 0.19705 0.0
C748 C 0.37175 0.85823 0.03597 0.0
C749 C 0.35952 0.87538 0.00403 0.0
C750 C 0.34625 0.86186 0.13103 0.0
C751 C 0.34218 0.88686 0.03808 0.0
C752 C 0.32022 0.86565 0.23044 0.0
C753 C 0.33679 0.82388 0.28697 0.0
N754 N 0.33588 0.87972 0.09964 0.0
N755 N 0.34408 0.83221 0.22613 0.0
H756 H 0.11719 0.43248 0.04372 0.0
H757 H 0.19475 0.55009 0.34189 0.0
H758 H 0.15265 0.53509 0.04047 0.0
H759 H 0.155 0.44683 0.34811 0.0
H760 H 0.18088 0.5452 0.23039 0.0
H761 H 0.13016 0.43698 0.15571 0.0
C762 C 0.12729 0.45588 0.06694 0.0
C763 C 0.13397 0.48348 0.033 0.0
C764 C 0.17537 0.52362 0.25599 0.0
C765 C 0.14932 0.48893 0.1605 0.0
C766 C 0.18342 0.52643 0.31948 0.0
C767 C 0.17589 0.4988 0.35414 0.0
C768 C 0.15962 0.49294 0.22702 0.0
C769 C 0.16149 0.46876 0.3229 0.0
C770 C 0.13484 0.45847 0.13068 0.0
C771 C 0.14687 0.51319 0.06513 0.0
N772 N 0.1536 0.46659 0.26108 0.0
N773 N 0.15441 0.51519 0.12709 0.0
H774 H 0.56626 0.70408 0.31503 0.0
H775 H 0.47086 0.61136 0.00114 0.0
H776 H 0.46257 0.64719 0.30001 0.0
H777 H 0.57274 0.6802 0.0077 0.0
H778 H 0.46829 0.61972 0.1139 0.0
H779 H 0.56979 0.69358 0.20381 0.0
C780 C 0.54422 0.68988 0.28807 0.0
C781 C 0.51407 0.67644 0.3168 0.0
C782 C 0.49127 0.63279 0.09077 0.0
C783 C 0.51796 0.66355 0.19017 0.0
C784 C 0.4928 0.62767 0.02669 0.0
C785 C 0.52201 0.64523 -0.00467 0.0
C786 C 0.5192 0.65554 0.12348 0.0
C787 C 0.54969 0.66643 0.03029 0.0
C788 C 0.54626 0.68355 0.2248 0.0
C789 C 0.48632 0.65769 0.27986 0.0
N790 N 0.54758 0.67117 0.09249 0.0
N791 N 0.48894 0.65165 0.21855 0.0
loop_
_geom_bond_atom_site_label_1
_geom_bond_atom_site_label_2
_geom_bond_distance
_geom_bond_site_symmetry_2
_ccdc_geom_bond_type
C0 O16 1.251 . S
C0 O18 1.254 1_554 S
N1 C2 1.333 . S
N1 C6 1.307 . S
N1 Zn7 2.020 . S
C2 N1 1.333 . S
C2 C3 1.379 . S
C2 H20 0.952 1_455 S
C3 C2 1.379 . S
C3 C4 1.390 . S
C3 H30 0.949 1_455 S
C4 C3 1.390 . S
C4 C5 1.357 . S
C5 C4 1.357 . S
C5 C6 1.370 . S
C5 H31 0.950 . S
C6 N1 1.307 . S
C6 C5 1.370 . S
C6 H24 0.948 . S
Zn7 N1 2.020 . S
Zn7 O16 2.039 1_455 S
Zn7 O22 2.034 1_455 S
Zn7 O26 2.025 . S
Zn7 O28 2.024 . S
C8 O27 1.246 . S
C8 O28 1.249 1_556 S
N9 C10 1.307 . S
N9 C11 1.333 1_655 S
N9 Zn15 2.020 1_655 S
C10 N9 1.307 . S
C10 C14 1.370 . S
C10 H21 0.948 . S
C11 N9 1.333 1_455 S
C11 C12 1.379 . S
C11 H19 0.952 . S
C12 C11 1.379 . S
C12 C13 1.390 1_455 S
C12 H32 0.949 . S
C13 C12 1.390 1_655 S
C13 C14 1.357 . S
C14 C10 1.370 . S
C14 C13 1.357 . S
C14 H33 0.950 . S
Zn15 N9 2.020 1_455 S
Zn15 O18 2.025 1_455 S
Zn15 O23 2.024 1_455 S
Zn15 O25 2.039 . S
Zn15 O27 2.034 . S
O16 C0 1.251 . S
O16 Zn7 2.039 1_655 S
C17 O22 1.246 . S
C17 O23 1.249 1_554 S
O18 C0 1.254 1_556 S
O18 Zn15 2.025 1_655 S
H19 C11 0.952 . S
H20 C2 0.952 1_655 S
H21 C10 0.948 . S
O22 Zn7 2.034 1_655 S
O22 C17 1.246 . S
O23 Zn15 2.024 1_655 S
O23 C17 1.249 1_556 S
H24 C6 0.948 . S
O25 Zn15 2.039 . S
O25 C29 1.251 . S
O26 Zn7 2.025 . S
O26 C29 1.254 1_554 S
O27 C8 1.246 . S
O27 Zn15 2.034 . S
O28 Zn7 2.024 . S
O28 C8 1.249 1_554 S
C29 O25 1.251 . S
C29 O26 1.254 1_556 S
H30 C3 0.949 1_655 S
H31 C5 0.950 . S
H32 C12 0.949 . S
H33 C14 0.950 . S
C34 O50 1.251 . S
C34 O52 1.254 1_556 S
N35 C36 1.333 . S
N35 C40 1.307 . S
N35 Zn41 2.020 . S
C36 N35 1.333 . S
C36 C37 1.379 . S
C36 H54 0.952 . S
C37 C36 1.379 . S
C37 C38 1.390 . S
C37 H64 0.949 . S
C38 C37 1.390 . S
C38 C39 1.357 . S
C39 C38 1.357 . S
C39 C40 1.370 . S
C39 H65 0.950 . S
C40 N35 1.307 . S
C40 C39 1.370 . S
C40 H58 0.948 . S
Zn41 N35 2.020 . S
Zn41 O50 2.039 . S
Zn41 O56 2.034 . S
Zn41 O60 2.025 . S
Zn41 O62 2.024 . S
C42 O61 1.246 . S
C42 O62 1.249 1_554 S
N43 C44 1.307 . S
N43 C45 1.333 . S
N43 Zn49 2.020 . S
C44 N43 1.307 . S
C44 C48 1.370 . S
C44 H55 0.948 . S
C45 N43 1.333 . S
C45 C46 1.379 . S
C45 H53 0.952 . S
C46 C45 1.379 . S
C46 C47 1.390 . S
C46 H66 0.949 . S
C47 C46 1.390 . S
C47 C48 1.357 . S
C48 C44 1.370 . S
C48 C47 1.357 . S
C48 H67 0.950 . S
Zn49 N43 2.020 . S
Zn49 O52 2.025 . S
Zn49 O57 2.024 . S
Zn49 O59 2.039 . S
Zn49 O61 2.034 . S
O50 C34 1.251 . S
O50 Zn41 2.039 . S
C51 O56 1.246 . S
C51 O57 1.249 1_556 S
O52 C34 1.254 1_554 S
O52 Zn49 2.025 . S
H53 C45 0.952 . S
H54 C36 0.952 . S
H55 C44 0.948 . S
O56 Zn41 2.034 . S
O56 C51 1.246 . S
O57 Zn49 2.024 . S
O57 C51 1.249 1_554 S
H58 C40 0.948 . S
O59 Zn49 2.039 . S
O59 C63 1.251 . S
O60 Zn41 2.025 . S
O60 C63 1.254 1_556 S
O61 C42 1.246 . S
O61 Zn49 2.034 . S
O62 Zn41 2.024 . S
O62 C42 1.249 1_556 S
C63 O59 1.251 . S
C63 O60 1.254 1_554 S
H64 C37 0.949 . S
H65 C39 0.950 . S
H66 C46 0.949 . S
H67 C48 0.950 . S
C68 O84 1.251 . S
C68 O86 1.254 1_554 S
N69 C70 1.333 1_565 S
N69 C74 1.307 . S
N69 Zn75 2.016 1_565 S
C70 N69 1.333 1_545 S
C70 C71 1.379 . S
C70 H88 0.952 . S
C71 C70 1.379 . S
C71 C72 1.390 1_545 S
C71 H98 0.949 . S
C72 C71 1.390 1_565 S
C72 C73 1.357 . S
C73 C72 1.357 . S
C73 C74 1.370 . S
C73 H99 0.950 . S
C74 N69 1.307 . S
C74 C73 1.370 . S
C74 H92 0.948 . S
Zn75 N69 2.016 1_545 S
Zn75 O84 2.059 . S
Zn75 O90 2.040 . S
Zn75 O94 2.007 1_545 S
Zn75 O96 2.020 1_545 S
C76 O95 1.246 . S
C76 O96 1.249 1_556 S
N77 C78 1.307 . S
N77 C79 1.333 . S
N77 Zn83 2.020 . S
C78 N77 1.307 . S
C78 C82 1.370 . S
C78 H89 0.948 . S
C79 N77 1.333 . S
C79 C80 1.379 . S
C79 H87 0.952 1_545 S
C80 C79 1.379 . S
C80 C81 1.390 . S
C80 H100 0.949 1_545 S
C81 C80 1.390 . S
C81 C82 1.357 . S
C82 C78 1.370 . S
C82 C81 1.357 . S
C82 H101 0.950 . S
Zn83 N77 2.020 . S
Zn83 O86 2.025 . S
Zn83 O91 2.024 . S
Zn83 O93 2.039 1_545 S
Zn83 O95 2.034 1_545 S
O84 C68 1.251 . S
O84 Zn75 2.059 . S
C85 O90 1.246 . S
C85 O91 1.249 1_554 S
O86 C68 1.254 1_556 S
O86 Zn83 2.025 . S
H87 C79 0.952 1_565 S
H88 C70 0.952 . S
H89 C78 0.948 . S
O90 Zn75 2.040 . S
O90 C85 1.246 . S
O91 Zn83 2.024 . S
O91 C85 1.249 1_556 S
H92 C74 0.948 . S
O93 Zn83 2.039 1_565 S
O93 C97 1.251 . S
O94 Zn75 2.007 1_565 S
O94 C97 1.254 1_554 S
O95 C76 1.246 . S
O95 Zn83 2.034 1_565 S
O96 Zn75 2.020 1_565 S
O96 C76 1.249 1_554 S
C97 O93 1.251 . S
C97 O94 1.254 1_556 S
H98 C71 0.949 . S
H99 C73 0.950 . S
H100 C80 0.949 1_565 S
H101 C82 0.950 . S
C102 O118 1.251 . S
C102 O120 1.254 . S
N103 C104 1.333 . S
N103 C108 1.307 . S
N103 Zn109 2.020 . S
C104 N103 1.333 . S
C104 C105 1.379 . S
C104 H122 0.952 . S
C105 C104 1.379 . S
C105 C106 1.390 . S
C105 H132 0.949 . S
C106 C105 1.390 . S
C106 C107 1.357 . S
C107 C106 1.357 . S
C107 C108 1.370 . S
C107 H133 0.950 . S
C108 N103 1.307 . S
C108 C107 1.370 . S
C108 H126 0.948 . S
Zn109 N103 2.020 . S
Zn109 O118 2.039 . S
Zn109 O124 2.034 . S
Zn109 O128 2.025 . S
Zn109 O130 2.024 . S
C110 O129 1.246 . S
C110 O130 1.249 . S
N111 C112 1.307 . S
N111 C113 1.333 . S
N111 Zn117 2.020 . S
C112 N111 1.307 . S
C112 C116 1.370 . S
C112 H123 0.948 . S
C113 N111 1.333 . S
C113 C114 1.379 . S
C113 H121 0.952 . S
C114 C113 1.379 . S
C114 C115 1.390 . S
C114 H134 0.949 . S
C115 C114 1.390 . S
C115 C116 1.357 . S
C116 C112 1.370 . S
C116 C115 1.357 . S
C116 H135 0.950 . S
Zn117 N111 2.020 . S
Zn117 O120 2.025 . S
Zn117 O125 2.024 . S
Zn117 O127 2.039 . S
Zn117 O129 2.034 . S
O118 C102 1.251 . S
O118 Zn109 2.039 . S
C119 O124 1.246 . S
C119 O125 1.249 . S
O120 C102 1.254 . S
O120 Zn117 2.025 . S
H121 C113 0.952 . S
H122 C104 0.952 . S
H123 C112 0.948 . S
O124 Zn109 2.034 . S
O124 C119 1.246 . S
O125 Zn117 2.024 . S
O125 C119 1.249 . S
H126 C108 0.948 . S
O127 Zn117 2.039 . S
O127 C131 1.251 . S
O128 Zn109 2.025 . S
O128 C131 1.254 . S
O129 C110 1.246 . S
O129 Zn117 2.034 . S
O130 Zn109 2.024 . S
O130 C110 1.249 . S
C131 O127 1.251 . S
C131 O128 1.254 . S
H132 C105 0.949 . S
H133 C107 0.950 . S
H134 C114 0.949 . S
H135 C116 0.950 . S
C136 O152 1.251 . S
C136 O154 1.254 . S
N137 C138 1.333 . S
N137 C142 1.307 . S
N137 Zn143 2.020 . S
C138 N137 1.333 . S
C138 C139 1.379 . S
C138 H156 0.952 . S
C139 C138 1.379 . S
C139 C140 1.390 . S
C139 H166 0.949 . S
C140 C139 1.390 . S
C140 C141 1.357 . S
C141 C140 1.357 . S
C141 C142 1.370 . S
C141 H167 0.950 . S
C142 N137 1.307 . S
C142 C141 1.370 . S
C142 H160 0.948 . S
Zn143 N137 2.020 . S
Zn143 O152 2.039 . S
Zn143 O158 2.034 . S
Zn143 O162 2.025 . S
Zn143 O164 2.024 . S
C144 O163 1.246 . S
C144 O164 1.249 . S
N145 C146 1.307 . S
N145 C147 1.333 . S
N145 Zn151 2.020 . S
C146 N145 1.307 . S
C146 C150 1.370 . S
C146 H157 0.948 . S
C147 N145 1.333 . S
C147 C148 1.379 . S
C147 H155 0.952 . S
C148 C147 1.379 . S
C148 C149 1.390 . S
C148 H168 0.949 . S
C149 C148 1.390 . S
C149 C150 1.357 . S
C150 C146 1.370 . S
C150 C149 1.357 . S
C150 H169 0.950 . S
Zn151 N145 2.020 . S
Zn151 O154 2.025 . S
Zn151 O159 2.024 . S
Zn151 O161 2.039 . S
Zn151 O163 2.034 . S
O152 C136 1.251 . S
O152 Zn143 2.039 . S
C153 O158 1.246 . S
C153 O159 1.249 . S
O154 C136 1.254 . S
O154 Zn151 2.025 . S
H155 C147 0.952 . S
H156 C138 0.952 . S
H157 C146 0.948 . S
O158 Zn143 2.034 . S
O158 C153 1.246 . S
O159 Zn151 2.024 . S
O159 C153 1.249 . S
H160 C142 0.948 . S
O161 Zn151 2.039 . S
O161 C165 1.251 . S
O162 Zn143 2.025 . S
O162 C165 1.254 . S
O163 C144 1.246 . S
O163 Zn151 2.034 . S
O164 Zn143 2.024 . S
O164 C144 1.249 . S
C165 O161 1.251 . S
C165 O162 1.254 . S
H166 C139 0.949 . S
H167 C141 0.950 . S
H168 C148 0.949 . S
H169 C150 0.950 . S
C170 O186 1.251 . S
C170 O188 1.254 . S
N171 C172 1.333 . S
N171 C176 1.307 . S
N171 Zn177 2.020 . S
C172 N171 1.333 . S
C172 C173 1.379 . S
C172 H190 0.952 . S
C173 C172 1.379 . S
C173 C174 1.390 . S
C173 H200 0.949 . S
C174 C173 1.390 . S
C174 C175 1.357 . S
C175 C174 1.357 . S
C175 C176 1.370 . S
C175 H201 0.950 . S
C176 N171 1.307 . S
C176 C175 1.370 . S
C176 H194 0.948 . S
Zn177 N171 2.020 . S
Zn177 O186 2.039 . S
Zn177 O192 2.034 . S
Zn177 O196 2.025 . S
Zn177 O198 2.024 . S
C178 O197 1.246 . S
C178 O198 1.249 . S
N179 C180 1.307 . S
N179 C181 1.333 . S
N179 Zn185 2.020 . S
C180 N179 1.307 . S
C180 C184 1.370 . S
C180 H191 0.948 . S
C181 N179 1.333 . S
C181 C182 1.379 . S
C181 H189 0.952 . S
C182 C181 1.379 . S
C182 C183 1.390 . S
C182 H202 0.949 . S
C183 C182 1.390 . S
C183 C184 1.357 . S
C184 C180 1.370 . S
C184 C183 1.357 . S
C184 H203 0.950 . S
Zn185 N179 2.020 . S
Zn185 O188 2.025 . S
Zn185 O193 2.024 . S
Zn185 O195 2.039 . S
Zn185 O197 2.034 . S
O186 C170 1.251 . S
O186 Zn177 2.039 . S
C187 O192 1.246 . S
C187 O193 1.249 . S
O188 C170 1.254 . S
O188 Zn185 2.025 . S
H189 C181 0.952 . S
H190 C172 0.952 . S
H191 C180 0.948 . S
O192 Zn177 2.034 . S
O192 C187 1.246 . S
O193 Zn185 2.024 . S
O193 C187 1.249 . S
H194 C176 0.948 . S
O195 Zn185 2.039 . S
O195 C199 1.251 . S
O196 Zn177 2.025 . S
O196 C199 1.254 . S
O197 C178 1.246 . S
O197 Zn185 2.034 . S
O198 Zn177 2.024 . S
O198 C178 1.249 . S
C199 O195 1.251 . S
C199 O196 1.254 . S
H200 C173 0.949 . S
H201 C175 0.950 . S
H202 C182 0.949 . S
H203 C184 0.950 . S
C204 O220 1.251 . S
C204 O222 1.254 . S
N205 C206 1.333 . S
N205 C210 1.307 . S
N205 Zn211 2.020 . S
C206 N205 1.333 . S
C206 C207 1.379 . S
C206 H224 0.952 . S
C207 C206 1.379 . S
C207 C208 1.390 . S
C207 H234 0.949 . S
C208 C207 1.390 . S
C208 C209 1.357 . S
C209 C208 1.357 . S
C209 C210 1.370 . S
C209 H235 0.950 . S
C210 N205 1.307 . S
C210 C209 1.370 . S
C210 H228 0.948 . S
Zn211 N205 2.020 . S
Zn211 O220 2.039 . S
Zn211 O226 2.034 . S
Zn211 O230 2.025 . S
Zn211 O232 2.024 . S
C212 O231 1.246 . S
C212 O232 1.249 . S
N213 C214 1.307 . S
N213 C215 1.333 . S
N213 Zn219 2.020 . S
C214 N213 1.307 . S
C214 C218 1.370 . S
C214 H225 0.948 . S
C215 N213 1.333 . S
C215 C216 1.379 . S
C215 H223 0.952 . S
C216 C215 1.379 . S
C216 C217 1.390 . S
C216 H236 0.949 . S
C217 C216 1.390 . S
C217 C218 1.357 . S
C218 C214 1.370 . S
C218 C217 1.357 . S
C218 H237 0.950 . S
Zn219 N213 2.020 . S
Zn219 O222 2.025 . S
Zn219 O227 2.024 . S
Zn219 O229 2.039 . S
Zn219 O231 2.034 . S
O220 C204 1.251 . S
O220 Zn211 2.039 . S
C221 O226 1.246 . S
C221 O227 1.249 . S
O222 C204 1.254 . S
O222 Zn219 2.025 . S
H223 C215 0.952 . S
H224 C206 0.952 . S
H225 C214 0.948 . S
O226 Zn211 2.034 . S
O226 C221 1.246 . S
O227 Zn219 2.024 . S
O227 C221 1.249 . S
H228 C210 0.948 . S
O229 Zn219 2.039 . S
O229 C233 1.251 . S
O230 Zn211 2.025 . S
O230 C233 1.254 . S
O231 C212 1.246 . S
O231 Zn219 2.034 . S
O232 Zn211 2.024 . S
O232 C212 1.249 . S
C233 O229 1.251 . S
C233 O230 1.254 . S
H234 C207 0.949 . S
H235 C209 0.950 . S
H236 C216 0.949 . S
H237 C218 0.950 . S
C238 O254 1.251 . S
C238 O256 1.254 . S
N239 C240 1.333 . S
N239 C244 1.307 . S
N239 Zn245 2.020 . S
C240 N239 1.333 . S
C240 C241 1.379 . S
C240 H258 0.952 . S
C241 C240 1.379 . S
C241 C242 1.390 . S
C241 H268 0.949 . S
C242 C241 1.390 . S
C242 C243 1.357 . S
C243 C242 1.357 . S
C243 C244 1.370 . S
C243 H269 0.950 . S
C244 N239 1.307 . S
C244 C243 1.370 . S
C244 H262 0.948 . S
Zn245 N239 2.020 . S
Zn245 O254 2.039 . S
Zn245 O260 2.034 . S
Zn245 O264 2.025 . S
Zn245 O266 2.024 . S
C246 O265 1.246 . S
C246 O266 1.249 . S
N247 C248 1.307 . S
N247 C249 1.333 . S
N247 Zn253 2.020 . S
C248 N247 1.307 . S
C248 C252 1.370 . S
C248 H259 0.948 . S
C249 N247 1.333 . S
C249 C250 1.379 . S
C249 H257 0.952 . S
C250 C249 1.379 . S
C250 C251 1.390 . S
C250 H270 0.949 . S
C251 C250 1.390 . S
C251 C252 1.357 . S
C252 C248 1.370 . S
C252 C251 1.357 . S
C252 H271 0.950 . S
Zn253 N247 2.020 . S
Zn253 O256 2.025 . S
Zn253 O261 2.024 . S
Zn253 O263 2.039 . S
Zn253 O265 2.034 . S
O254 C238 1.251 . S
O254 Zn245 2.039 . S
C255 O260 1.246 . S
C255 O261 1.249 . S
O256 C238 1.254 . S
O256 Zn253 2.025 . S
H257 C249 0.952 . S
H258 C240 0.952 . S
H259 C248 0.948 . S
O260 Zn245 2.034 . S
O260 C255 1.246 . S
O261 Zn253 2.024 . S
O261 C255 1.249 . S
H262 C244 0.948 . S
O263 Zn253 2.039 . S
O263 C267 1.251 . S
O264 Zn245 2.025 . S
O264 C267 1.254 . S
O265 C246 1.246 . S
O265 Zn253 2.034 . S
O266 Zn245 2.024 . S
O266 C246 1.249 . S
C267 O263 1.251 . S
C267 O264 1.254 . S
H268 C241 0.949 . S
H269 C243 0.950 . S
H270 C250 0.949 . S
H271 C252 0.950 . S
C272 O288 1.251 . S
C272 O290 1.254 . S
N273 C274 1.333 . S
N273 C278 1.307 . S
N273 Zn279 2.020 . S
C274 N273 1.333 . S
C274 C275 1.379 . S
C274 H292 0.952 . S
C275 C274 1.379 . S
C275 C276 1.390 . S
C275 H302 0.949 . S
C276 C275 1.390 . S
C276 C277 1.357 . S
C277 C276 1.357 . S
C277 C278 1.370 . S
C277 H303 0.950 . S
C278 N273 1.307 . S
C278 C277 1.370 . S
C278 H296 0.948 . S
Zn279 N273 2.020 . S
Zn279 O288 2.039 . S
Zn279 O294 2.034 . S
Zn279 O298 2.025 . S
Zn279 O300 2.024 . S
C280 O299 1.246 . S
C280 O300 1.249 . S
N281 C282 1.307 . S
N281 C283 1.333 . S
N281 Zn287 2.020 . S
C282 N281 1.307 . S
C282 C286 1.370 . S
C282 H293 0.948 . S
C283 N281 1.333 . S
C283 C284 1.379 . S
C283 H291 0.952 . S
C284 C283 1.379 . S
C284 C285 1.390 . S
C284 H304 0.949 . S
C285 C284 1.390 . S
C285 C286 1.357 . S
C286 C282 1.370 . S
C286 C285 1.357 . S
C286 H305 0.950 . S
Zn287 N281 2.020 . S
Zn287 O290 2.025 . S
Zn287 O295 2.024 . S
Zn287 O297 2.039 . S
Zn287 O299 2.034 . S
O288 C272 1.251 . S
O288 Zn279 2.039 . S
C289 O294 1.246 . S
C289 O295 1.249 . S
O290 C272 1.254 . S
O290 Zn287 2.025 . S
H291 C283 0.952 . S
H292 C274 0.952 . S
H293 C282 0.948 . S
O294 Zn279 2.034 . S
O294 C289 1.246 . S
O295 Zn287 2.024 . S
O295 C289 1.249 . S
H296 C278 0.948 . S
O297 Zn287 2.039 . S
O297 C301 1.251 . S
O298 Zn279 2.025 . S
O298 C301 1.254 . S
O299 C280 1.246 . S
O299 Zn287 2.034 . S
O300 Zn279 2.024 . S
O300 C280 1.249 . S
C301 O297 1.251 . S
C301 O298 1.254 . S
H302 C275 0.949 . S
H303 C277 0.950 . S
H304 C284 0.949 . S
H305 C286 0.950 . S
H306 C312 0.930 . S
H307 C316 0.930 . S
H308 C321 0.929 1_554 S
H309 C319 0.929 . S
H310 C314 0.929 . S
H311 C320 0.929 . S
C312 H306 0.930 . S
C312 C313 1.367 . S
C312 C320 1.378 . S
C313 C312 1.367 . S
C313 C321 1.433 . S
C314 H310 0.929 . S
C314 C316 1.378 . S
C314 C318 1.350 . S
C315 C318 1.463 . S
C315 C320 1.350 . S
C315 N323 1.427 . S
C316 H307 0.930 . S
C316 C314 1.378 . S
C316 C317 1.367 . S
C317 C316 1.367 . S
C317 C319 1.433 . S
C318 C314 1.350 . S
C318 C315 1.463 . S
C318 N322 1.427 . S
C319 H309 0.929 . S
C319 C317 1.433 . S
C319 N322 1.384 . S
C320 H311 0.929 . S
C320 C312 1.378 . S
C320 C315 1.350 . S
C321 H308 0.929 1_556 S
C321 C313 1.433 . S
C321 N323 1.384 . S
N322 C318 1.427 . S
N322 C319 1.384 . S
N323 C315 1.427 . S
N323 C321 1.384 . S
H324 C330 0.930 . S
H325 C334 0.930 . S
H326 C339 0.929 . S
H327 C337 0.929 . S
H328 C332 0.929 . S
H329 C338 0.929 . S
C330 H324 0.930 . S
C330 C331 1.367 . S
C330 C338 1.378 . S
C331 C330 1.367 . S
C331 C339 1.433 . S
C332 H328 0.929 . S
C332 C334 1.378 . S
C332 C336 1.350 . S
C333 C336 1.463 . S
C333 C338 1.350 . S
C333 N341 1.427 . S
C334 H325 0.930 . S
C334 C332 1.378 . S
C334 C335 1.367 . S
C335 C334 1.367 . S
C335 C337 1.433 . S
C336 C332 1.350 . S
C336 C333 1.463 . S
C336 N340 1.427 . S
C337 H327 0.929 . S
C337 C335 1.433 . S
C337 N340 1.384 . S
C338 H329 0.929 . S
C338 C330 1.378 . S
C338 C333 1.350 . S
C339 H326 0.929 . S
C339 C331 1.433 . S
C339 N341 1.384 . S
N340 C336 1.427 . S
N340 C337 1.384 . S
N341 C333 1.427 . S
N341 C339 1.384 . S
H342 C348 0.930 . S
H343 C352 0.930 . S
H344 C357 0.929 . S
H345 C355 0.929 . S
H346 C350 0.929 . S
H347 C356 0.929 . S
C348 H342 0.930 . S
C348 C349 1.367 . S
C348 C356 1.378 . S
C349 C348 1.367 . S
C349 C357 1.433 . S
C350 H346 0.929 . S
C350 C352 1.378 . S
C350 C354 1.350 . S
C351 C354 1.463 . S
C351 C356 1.350 . S
C351 N359 1.427 . S
C352 H343 0.930 . S
C352 C350 1.378 . S
C352 C353 1.367 . S
C353 C352 1.367 . S
C353 C355 1.433 . S
C354 C350 1.350 . S
C354 C351 1.463 . S
C354 N358 1.427 . S
C355 H345 0.929 . S
C355 C353 1.433 . S
C355 N358 1.384 . S
C356 H347 0.929 . S
C356 C348 1.378 . S
C356 C351 1.350 . S
C357 H344 0.929 . S
C357 C349 1.433 . S
C357 N359 1.384 . S
N358 C354 1.427 . S
N358 C355 1.384 . S
N359 C351 1.427 . S
N359 C357 1.384 . S
H360 C366 0.930 . S
H361 C370 0.930 . S
H362 C375 0.929 . S
H363 C373 0.929 1_556 S
H364 C368 0.929 . S
H365 C374 0.929 . S
C366 H360 0.930 . S
C366 C367 1.367 . S
C366 C374 1.378 . S
C367 C366 1.367 . S
C367 C375 1.433 . S
C368 H364 0.929 . S
C368 C370 1.378 . S
C368 C372 1.350 . S
C369 C372 1.463 . S
C369 C374 1.350 . S
C369 N377 1.427 . S
C370 H361 0.930 . S
C370 C368 1.378 . S
C370 C371 1.367 . S
C371 C370 1.367 . S
C371 C373 1.433 . S
C372 C368 1.350 . S
C372 C369 1.463 . S
C372 N376 1.427 . S
C373 H363 0.929 1_554 S
C373 C371 1.433 . S
C373 N376 1.384 . S
C374 H365 0.929 . S
C374 C366 1.378 . S
C374 C369 1.350 . S
C375 H362 0.929 . S
C375 C367 1.433 . S
C375 N377 1.384 . S
N376 C372 1.427 . S
N376 C373 1.384 . S
N377 C369 1.427 . S
N377 C375 1.384 . S
H378 C384 0.930 . S
H379 C388 0.930 . S
H380 C393 0.929 . S
H381 C391 0.929 . S
H382 C386 0.929 . S
H383 C392 0.929 . S
C384 H378 0.930 . S
C384 C385 1.367 . S
C384 C392 1.378 . S
C385 C384 1.367 . S
C385 C393 1.433 . S
C386 H382 0.929 . S
C386 C388 1.378 . S
C386 C390 1.350 . S
C387 C390 1.463 . S
C387 C392 1.350 . S
C387 N395 1.427 . S
C388 H379 0.930 . S
C388 C386 1.378 . S
C388 C389 1.367 . S
C389 C388 1.367 . S
C389 C391 1.433 . S
C390 C386 1.350 . S
C390 C387 1.463 . S
C390 N394 1.427 . S
C391 H381 0.929 . S
C391 C389 1.433 . S
C391 N394 1.384 . S
C392 H383 0.929 . S
C392 C384 1.378 . S
C392 C387 1.350 . S
C393 H380 0.929 . S
C393 C385 1.433 . S
C393 N395 1.384 . S
N394 C390 1.427 . S
N394 C391 1.384 . S
N395 C387 1.427 . S
N395 C393 1.384 . S
H396 C402 0.930 . S
H397 C406 0.930 . S
H398 C411 0.929 . S
H399 C409 0.929 . S
H400 C404 0.929 . S
H401 C410 0.929 . S
C402 H396 0.930 . S
C402 C403 1.367 . S
C402 C410 1.378 . S
C403 C402 1.367 . S
C403 C411 1.433 . S
C404 H400 0.929 . S
C404 C406 1.378 . S
C404 C408 1.350 . S
C405 C408 1.463 . S
C405 C410 1.350 . S
C405 N413 1.427 . S
C406 H397 0.930 . S
C406 C404 1.378 . S
C406 C407 1.367 . S
C407 C406 1.367 . S
C407 C409 1.433 . S
C408 C404 1.350 . S
C408 C405 1.463 . S
C408 N412 1.427 . S
C409 H399 0.929 . S
C409 C407 1.433 . S
C409 N412 1.384 . S
C410 H401 0.929 . S
C410 C402 1.378 . S
C410 C405 1.350 . S
C411 H398 0.929 . S
C411 C403 1.433 . S
C411 N413 1.384 . S
N412 C408 1.427 . S
N412 C409 1.384 . S
N413 C405 1.427 . S
N413 C411 1.384 . S
H414 C420 0.930 . S
H415 C424 0.930 . S
H416 C429 0.929 . S
H417 C427 0.929 . S
H418 C422 0.929 . S
H419 C428 0.929 . S
C420 H414 0.930 . S
C420 C421 1.367 . S
C420 C428 1.378 . S
C421 C420 1.367 . S
C421 C429 1.433 . S
C422 H418 0.929 . S
C422 C424 1.378 1_455 S
C422 C426 1.345 1_455 S
C423 C426 1.454 1_455 S
C423 C428 1.350 . S
C423 N431 1.427 . S
C424 H415 0.930 . S
C424 C422 1.378 1_655 S
C424 C425 1.367 . S
C425 C424 1.367 . S
C425 C427 1.433 . S
C426 C422 1.345 1_655 S
C426 C423 1.454 1_655 S
C426 N430 1.441 . S
C427 H417 0.929 . S
C427 C425 1.433 . S
C427 N430 1.384 . S
C428 H419 0.929 . S
C428 C420 1.378 . S
C428 C423 1.350 . S
C429 H416 0.929 . S
C429 C421 1.433 . S
C429 N431 1.384 . S
N430 C426 1.441 . S
N430 C427 1.384 . S
N431 C423 1.427 . S
N431 C429 1.384 . S
H432 C438 0.930 . S
H433 C442 0.930 . S
H434 C447 0.929 . S
H435 C445 0.929 . S
H436 C440 0.929 . S
H437 C446 0.929 . S
C438 H432 0.930 . S
C438 C439 1.367 . S
C438 C446 1.378 . S
C439 C438 1.367 . S
C439 C447 1.433 . S
C440 H436 0.929 . S
C440 C442 1.378 . S
C440 C444 1.350 . S
C441 C444 1.463 . S
C441 C446 1.350 . S
C441 N449 1.427 . S
C442 H433 0.930 . S
C442 C440 1.378 . S
C442 C443 1.367 . S
C443 C442 1.367 . S
C443 C445 1.433 . S
C444 C440 1.350 . S
C444 C441 1.463 . S
C444 N448 1.427 . S
C445 H435 0.929 . S
C445 C443 1.433 . S
C445 N448 1.384 . S
C446 H437 0.929 . S
C446 C438 1.378 . S
C446 C441 1.350 . S
C447 H434 0.929 . S
C447 C439 1.433 . S
C447 N449 1.384 . S
N448 C444 1.427 . S
N448 C445 1.384 . S
N449 C441 1.427 . S
N449 C447 1.384 . S
H450 C456 0.930 . S
H451 C460 0.930 . S
H452 C465 0.929 . S
H453 C463 0.929 . S
H454 C458 0.929 . S
H455 C464 0.929 1_565 S
C456 H450 0.930 . S
C456 C457 1.367 . S
C456 C464 1.378 . S
C457 C456 1.367 . S
C457 C465 1.433 . S
C458 H454 0.929 . S
C458 C460 1.378 1_545 S
C458 C462 1.350 1_545 S
C459 C462 1.463 1_545 S
C459 C464 1.350 . S
C459 N467 1.427 . S
C460 H451 0.930 . S
C460 C458 1.378 1_565 S
C460 C461 1.367 . S
C461 C460 1.367 . S
C461 C463 1.433 . S
C462 C458 1.350 1_565 S
C462 C459 1.463 1_565 S
C462 N466 1.427 . S
C463 H453 0.929 . S
C463 C461 1.433 . S
C463 N466 1.384 . S
C464 H455 0.929 1_545 S
C464 C456 1.378 . S
C464 C459 1.350 . S
C465 H452 0.929 . S
C465 C457 1.433 . S
C465 N467 1.384 . S
N466 C462 1.427 . S
N466 C463 1.384 . S
N467 C459 1.427 . S
N467 C465 1.384 . S
H468 C474 0.930 . S
H469 C478 0.930 . S
H470 C483 0.929 . S
H471 C481 0.929 . S
H472 C476 0.929 . S
H473 C482 0.929 . S
C474 H468 0.930 . S
C474 C475 1.367 . S
C474 C482 1.378 . S
C475 C474 1.367 . S
C475 C483 1.433 1_554 S
C476 H472 0.929 . S
C476 C478 1.378 . S
C476 C480 1.350 1_556 S
C477 C480 1.463 . S
C477 C482 1.350 . S
C477 N485 1.427 1_554 S
C478 H469 0.930 . S
C478 C476 1.378 . S
C478 C479 1.367 . S
C479 C478 1.367 . S
C479 C481 1.433 1_556 S
C480 C476 1.350 1_554 S
C480 C477 1.463 . S
C480 N484 1.427 . S
C481 H471 0.929 . S
C481 C479 1.433 1_554 S
C481 N484 1.384 . S
C482 H473 0.929 . S
C482 C474 1.378 . S
C482 C477 1.350 . S
C483 H470 0.929 . S
C483 C475 1.433 1_556 S
C483 N485 1.384 . S
N484 C480 1.427 . S
N484 C481 1.384 . S
N485 C477 1.427 1_556 S
N485 C483 1.384 . S
H486 C492 0.930 . S
H487 C496 0.930 . S
H488 C501 0.929 . S
H489 C499 0.929 . S
H490 C494 0.929 . S
H491 C500 0.929 . S
C492 H486 0.930 . S
C492 C493 1.367 1_554 S
C492 C500 1.378 . S
C493 C492 1.367 1_556 S
C493 C501 1.433 . S
C494 H490 0.929 . S
C494 C496 1.378 . S
C494 C498 1.350 1_556 S
C495 C498 1.463 1_565 S
C495 C500 1.350 . S
C495 N503 1.427 1_554 S
C496 H487 0.930 . S
C496 C494 1.378 . S
C496 C497 1.367 1_556 S
C497 C496 1.367 1_554 S
C497 C499 1.433 . S
C498 C494 1.350 1_554 S
C498 C495 1.463 1_545 S
C498 N502 1.427 . S
C499 H489 0.929 . S
C499 C497 1.433 . S
C499 N502 1.384 . S
C500 H491 0.929 . S
C500 C492 1.378 . S
C500 C495 1.350 . S
C501 H488 0.929 . S
C501 C493 1.433 . S
C501 N503 1.384 . S
N502 C498 1.427 . S
N502 C499 1.384 . S
N503 C495 1.427 1_556 S
N503 C501 1.384 . S
H504 C510 0.930 . S
H505 C514 0.930 . S
H506 C519 0.929 . S
H507 C517 0.929 . S
H508 C512 0.929 . S
H509 C518 0.929 . S
C510 H504 0.930 . S
C510 C511 1.367 1_556 S
C510 C518 1.378 . S
C511 C510 1.367 1_554 S
C511 C519 1.433 . S
C512 H508 0.929 . S
C512 C514 1.378 . S
C512 C516 1.350 . S
C513 C516 1.463 1_655 S
C513 C518 1.350 1_554 S
C513 N521 1.427 . S
C514 H505 0.930 . S
C514 C512 1.378 . S
C514 C515 1.367 1_554 S
C515 C514 1.367 1_556 S
C515 C517 1.433 . S
C516 C512 1.350 . S
C516 C513 1.463 1_455 S
C516 N520 1.427 1_554 S
C517 H507 0.929 . S
C517 C515 1.433 . S
C517 N520 1.384 . S
C518 H509 0.929 . S
C518 C510 1.378 . S
C518 C513 1.350 1_556 S
C519 H506 0.929 . S
C519 C511 1.433 . S
C519 N521 1.384 . S
N520 C516 1.427 1_556 S
N520 C517 1.384 . S
N521 C513 1.427 . S
N521 C519 1.384 . S
H522 C528 0.930 . S
H523 C532 0.930 . S
H524 C537 0.929 . S
H525 C535 0.929 . S
H526 C530 0.929 . S
H527 C536 0.929 . S
C528 H522 0.930 . S
C528 C529 1.367 . S
C528 C536 1.378 . S
C529 C528 1.367 . S
C529 C537 1.433 . S
C530 H526 0.929 . S
C530 C532 1.378 . S
C530 C534 1.350 . S
C531 C534 1.463 . S
C531 C536 1.350 . S
C531 N539 1.427 . S
C532 H523 0.930 . S
C532 C530 1.378 . S
C532 C533 1.367 . S
C533 C532 1.367 . S
C533 C535 1.433 . S
C534 C530 1.350 . S
C534 C531 1.463 . S
C534 N538 1.427 . S
C535 H525 0.929 . S
C535 C533 1.433 . S
C535 N538 1.384 . S
C536 H527 0.929 . S
C536 C528 1.378 . S
C536 C531 1.350 . S
C537 H524 0.929 . S
C537 C529 1.433 . S
C537 N539 1.384 . S
N538 C534 1.427 . S
N538 C535 1.384 . S
N539 C531 1.427 . S
N539 C537 1.384 . S
H540 C546 0.930 . S
H541 C550 0.930 . S
H542 C555 0.929 . S
H543 C553 0.929 . S
H544 C548 0.929 . S
H545 C554 0.929 . S
C546 H540 0.930 . S
C546 C547 1.367 . S
C546 C554 1.378 . S
C547 C546 1.367 . S
C547 C555 1.433 . S
C548 H544 0.929 . S
C548 C550 1.378 . S
C548 C552 1.350 . S
C549 C552 1.463 . S
C549 C554 1.350 . S
C549 N557 1.427 . S
C550 H541 0.930 . S
C550 C548 1.378 . S
C550 C551 1.367 . S
C551 C550 1.367 . S
C551 C553 1.433 . S
C552 C548 1.350 . S
C552 C549 1.463 . S
C552 N556 1.427 . S
C553 H543 0.929 . S
C553 C551 1.433 . S
C553 N556 1.384 . S
C554 H545 0.929 . S
C554 C546 1.378 . S
C554 C549 1.350 . S
C555 H542 0.929 . S
C555 C547 1.433 . S
C555 N557 1.384 . S
N556 C552 1.427 . S
N556 C553 1.384 . S
N557 C549 1.427 . S
N557 C555 1.384 . S
H558 C564 0.930 . S
H559 C568 0.930 . S
H560 C573 0.929 . S
H561 C571 0.929 . S
H562 C566 0.929 . S
H563 C572 0.929 . S
C564 H558 0.930 . S
C564 C565 1.367 . S
C564 C572 1.378 . S
C565 C564 1.367 . S
C565 C573 1.433 . S
C566 H562 0.929 . S
C566 C568 1.378 . S
C566 C570 1.350 . S
C567 C570 1.463 . S
C567 C572 1.350 . S
C567 N575 1.427 . S
C568 H559 0.930 . S
C568 C566 1.378 . S
C568 C569 1.367 . S
C569 C568 1.367 . S
C569 C571 1.433 . S
C570 C566 1.350 . S
C570 C567 1.463 . S
C570 N574 1.427 . S
C571 H561 0.929 . S
C571 C569 1.433 . S
C571 N574 1.384 . S
C572 H563 0.929 . S
C572 C564 1.378 . S
C572 C567 1.350 . S
C573 H560 0.929 . S
C573 C565 1.433 . S
C573 N575 1.384 . S
N574 C570 1.427 . S
N574 C571 1.384 . S
N575 C567 1.427 . S
N575 C573 1.384 . S
H576 C582 0.930 . S
H577 C586 0.930 . S
H578 C591 0.929 . S
H579 C589 0.929 . S
H580 C584 0.929 . S
H581 C590 0.929 . S
C582 H576 0.930 . S
C582 C583 1.367 . S
C582 C590 1.378 . S
C583 C582 1.367 . S
C583 C591 1.433 . S
C584 H580 0.929 . S
C584 C586 1.378 . S
C584 C588 1.350 . S
C585 C588 1.463 . S
C585 C590 1.350 . S
C585 N593 1.427 . S
C586 H577 0.930 . S
C586 C584 1.378 . S
C586 C587 1.367 . S
C587 C586 1.367 . S
C587 C589 1.433 . S
C588 C584 1.350 . S
C588 C585 1.463 . S
C588 N592 1.427 . S
C589 H579 0.929 . S
C589 C587 1.433 . S
C589 N592 1.384 . S
C590 H581 0.929 . S
C590 C582 1.378 . S
C590 C585 1.350 . S
C591 H578 0.929 . S
C591 C583 1.433 . S
C591 N593 1.384 . S
N592 C588 1.427 . S
N592 C589 1.384 . S
N593 C585 1.427 . S
N593 C591 1.384 . S
H594 C600 0.930 . S
H595 C604 0.930 . S
H596 C609 0.929 . S
H597 C607 0.929 . S
H598 C602 0.929 . S
H599 C608 0.929 . S
C600 H594 0.930 . S
C600 C601 1.367 . S
C600 C608 1.378 . S
C601 C600 1.367 . S
C601 C609 1.433 . S
C602 H598 0.929 . S
C602 C604 1.378 . S
C602 C606 1.350 . S
C603 C606 1.463 . S
C603 C608 1.350 . S
C603 N611 1.427 . S
C604 H595 0.930 . S
C604 C602 1.378 . S
C604 C605 1.367 . S
C605 C604 1.367 . S
C605 C607 1.433 . S
C606 C602 1.350 . S
C606 C603 1.463 . S
C606 N610 1.427 . S
C607 H597 0.929 . S
C607 C605 1.433 . S
C607 N610 1.384 . S
C608 H599 0.929 . S
C608 C600 1.378 . S
C608 C603 1.350 . S
C609 H596 0.929 . S
C609 C601 1.433 . S
C609 N611 1.384 . S
N610 C606 1.427 . S
N610 C607 1.384 . S
N611 C603 1.427 . S
N611 C609 1.384 . S
H612 C618 0.930 . S
H613 C622 0.930 . S
H614 C627 0.929 . S
H615 C625 0.929 . S
H616 C620 0.929 . S
H617 C626 0.929 . S
C618 H612 0.930 . S
C618 C619 1.367 . S
C618 C626 1.378 . S
C619 C618 1.367 . S
C619 C627 1.433 . S
C620 H616 0.929 . S
C620 C622 1.378 . S
C620 C624 1.350 . S
C621 C624 1.463 . S
C621 C626 1.350 . S
C621 N629 1.427 . S
C622 H613 0.930 . S
C622 C620 1.378 . S
C622 C623 1.367 . S
C623 C622 1.367 . S
C623 C625 1.433 . S
C624 C620 1.350 . S
C624 C621 1.463 . S
C624 N628 1.427 . S
C625 H615 0.929 . S
C625 C623 1.433 . S
C625 N628 1.384 . S
C626 H617 0.929 . S
C626 C618 1.378 . S
C626 C621 1.350 . S
C627 H614 0.929 . S
C627 C619 1.433 . S
C627 N629 1.384 . S
N628 C624 1.427 . S
N628 C625 1.384 . S
N629 C621 1.427 . S
N629 C627 1.384 . S
H630 C636 0.930 . S
H631 C640 0.930 . S
H632 C645 0.929 . S
H633 C643 0.929 1_655 S
H634 C638 0.929 . S
H635 C644 0.929 . S
C636 H630 0.930 . S
C636 C637 1.367 . S
C636 C644 1.378 . S
C637 C636 1.367 . S
C637 C645 1.433 1_655 S
C638 H634 0.929 . S
C638 C640 1.378 . S
C638 C642 1.350 . S
C639 C642 1.463 . S
C639 C644 1.350 1_455 S
C639 N647 1.427 . S
C640 H631 0.930 . S
C640 C638 1.378 . S
C640 C641 1.367 . S
C641 C640 1.367 . S
C641 C643 1.433 . S
C642 C638 1.350 . S
C642 C639 1.463 . S
C642 N646 1.427 1_455 S
C643 H633 0.929 1_455 S
C643 C641 1.433 . S
C643 N646 1.384 1_455 S
C644 H635 0.929 . S
C644 C636 1.378 . S
C644 C639 1.350 1_655 S
C645 H632 0.929 . S
C645 C637 1.433 1_455 S
C645 N647 1.384 . S
N646 C642 1.427 1_655 S
N646 C643 1.384 1_655 S
N647 C639 1.427 . S
N647 C645 1.384 . S
H648 C654 0.930 . S
H649 C658 0.930 . S
H650 C663 0.929 . S
H651 C661 0.929 . S
H652 C656 0.929 . S
H653 C662 0.929 . S
C654 H648 0.930 . S
C654 C655 1.367 . S
C654 C662 1.378 . S
C655 C654 1.367 . S
C655 C663 1.433 . S
C656 H652 0.929 . S
C656 C658 1.378 . S
C656 C660 1.350 . S
C657 C660 1.463 . S
C657 C662 1.350 . S
C657 N665 1.427 . S
C658 H649 0.930 . S
C658 C656 1.378 . S
C658 C659 1.367 . S
C659 C658 1.367 . S
C659 C661 1.433 . S
C660 C656 1.350 . S
C660 C657 1.463 . S
C660 N664 1.427 . S
C661 H651 0.929 . S
C661 C659 1.433 . S
C661 N664 1.384 . S
C662 H653 0.929 . S
C662 C654 1.378 . S
C662 C657 1.350 . S
C663 H650 0.929 . S
C663 C655 1.433 . S
C663 N665 1.384 . S
N664 C660 1.427 . S
N664 C661 1.384 . S
N665 C657 1.427 . S
N665 C663 1.384 . S
H666 C672 0.930 . S
H667 C676 0.930 . S
H668 C681 0.929 . S
H669 C679 0.929 . S
H670 C674 0.929 . S
H671 C680 0.929 . S
C672 H666 0.930 . S
C672 C673 1.367 . S
C672 C680 1.378 . S
C673 C672 1.367 . S
C673 C681 1.433 . S
C674 H670 0.929 . S
C674 C676 1.378 . S
C674 C678 1.350 1_565 S
C675 C678 1.463 . S
C675 C680 1.350 . S
C675 N683 1.427 . S
C676 H667 0.930 . S
C676 C674 1.378 . S
C676 C677 1.367 . S
C677 C676 1.367 . S
C677 C679 1.433 1_565 S
C678 C674 1.350 1_545 S
C678 C675 1.463 . S
C678 N682 1.427 . S
C679 H669 0.929 . S
C679 C677 1.433 1_545 S
C679 N682 1.384 . S
C680 H671 0.929 . S
C680 C672 1.378 . S
C680 C675 1.350 . S
C681 H668 0.929 . S
C681 C673 1.433 . S
C681 N683 1.384 . S
N682 C678 1.427 . S
N682 C679 1.384 . S
N683 C675 1.427 . S
N683 C681 1.384 . S
H684 C690 0.930 . S
H685 C694 0.930 . S
H686 C699 0.929 . S
H687 C697 0.929 . S
H688 C692 0.929 . S
H689 C698 0.929 . S
C690 H684 0.930 . S
C690 C691 1.367 . S
C690 C698 1.378 . S
C691 C690 1.367 . S
C691 C699 1.433 . S
C692 H688 0.929 . S
C692 C694 1.378 . S
C692 C696 1.350 . S
C693 C696 1.463 . S
C693 C698 1.350 . S
C693 N701 1.427 . S
C694 H685 0.930 . S
C694 C692 1.378 . S
C694 C695 1.367 . S
C695 C694 1.367 . S
C695 C697 1.433 . S
C696 C692 1.350 . S
C696 C693 1.463 . S
C696 N700 1.427 . S
C697 H687 0.929 . S
C697 C695 1.433 . S
C697 N700 1.384 . S
C698 H689 0.929 . S
C698 C690 1.378 . S
C698 C693 1.350 . S
C699 H686 0.929 . S
C699 C691 1.433 . S
C699 N701 1.384 . S
N700 C696 1.427 . S
N700 C697 1.384 . S
N701 C693 1.427 . S
N701 C699 1.384 . S
H702 C708 0.930 . S
H703 C712 0.930 1_554 S
H704 C717 0.929 . S
H705 C715 0.929 . S
H706 C710 0.929 . S
H707 C716 0.929 . S
C708 H702 0.930 . S
C708 C709 1.367 . S
C708 C716 1.378 . S
C709 C708 1.367 . S
C709 C717 1.433 . S
C710 H706 0.929 . S
C710 C712 1.378 . S
C710 C714 1.350 . S
C711 C714 1.463 . S
C711 C716 1.350 . S
C711 N719 1.427 . S
C712 H703 0.930 1_556 S
C712 C710 1.378 . S
C712 C713 1.367 . S
C713 C712 1.367 . S
C713 C715 1.433 . S
C714 C710 1.350 . S
C714 C711 1.463 . S
C714 N718 1.427 . S
C715 H705 0.929 . S
C715 C713 1.433 . S
C715 N718 1.384 . S
C716 H707 0.929 . S
C716 C708 1.378 . S
C716 C711 1.350 . S
C717 H704 0.929 . S
C717 C709 1.433 . S
C717 N719 1.384 . S
N718 C714 1.427 . S
N718 C715 1.384 . S
N719 C711 1.427 . S
N719 C717 1.384 . S
H720 C726 0.930 . S
H721 C730 0.930 . S
H722 C735 0.929 . S
H723 C733 0.929 . S
H724 C728 0.929 . S
H725 C734 0.929 . S
C726 H720 0.930 . S
C726 C727 1.367 . S
C726 C734 1.378 . S
C727 C726 1.367 . S
C727 C735 1.433 . S
C728 H724 0.929 . S
C728 C730 1.378 . S
C728 C732 1.350 . S
C729 C732 1.463 . S
C729 C734 1.350 . S
C729 N737 1.427 . S
C730 H721 0.930 . S
C730 C728 1.378 . S
C730 C731 1.367 . S
C731 C730 1.367 . S
C731 C733 1.433 . S
C732 C728 1.350 . S
C732 C729 1.463 . S
C732 N736 1.427 . S
C733 H723 0.929 . S
C733 C731 1.433 . S
C733 N736 1.384 . S
C734 H725 0.929 . S
C734 C726 1.378 . S
C734 C729 1.350 . S
C735 H722 0.929 . S
C735 C727 1.433 . S
C735 N737 1.384 . S
N736 C732 1.427 . S
N736 C733 1.384 . S
N737 C729 1.427 . S
N737 C735 1.384 . S
H738 C744 0.930 . S
H739 C748 0.930 . S
H740 C753 0.929 . S
H741 C751 0.929 . S
H742 C746 0.929 . S
H743 C752 0.929 . S
C744 H738 0.930 . S
C744 C745 1.367 . S
C744 C752 1.378 . S
C745 C744 1.367 . S
C745 C753 1.433 . S
C746 H742 0.929 . S
C746 C748 1.378 . S
C746 C750 1.350 . S
C747 C750 1.463 . S
C747 C752 1.350 . S
C747 N755 1.427 . S
C748 H739 0.930 . S
C748 C746 1.378 . S
C748 C749 1.367 . S
C749 C748 1.367 . S
C749 C751 1.433 . S
C750 C746 1.350 . S
C750 C747 1.463 . S
C750 N754 1.427 . S
C751 H741 0.929 . S
C751 C749 1.433 . S
C751 N754 1.384 . S
C752 H743 0.929 . S
C752 C744 1.378 . S
C752 C747 1.350 . S
C753 H740 0.929 . S
C753 C745 1.433 . S
C753 N755 1.384 . S
N754 C750 1.427 . S
N754 C751 1.384 . S
N755 C747 1.427 . S
N755 C753 1.384 . S
H756 C762 0.930 . S
H757 C766 0.930 . S
H758 C771 0.929 . S
H759 C769 0.929 . S
H760 C764 0.929 . S
H761 C770 0.929 . S
C762 H756 0.930 . S
C762 C763 1.367 . S
C762 C770 1.378 . S
C763 C762 1.367 . S
C763 C771 1.433 . S
C764 H760 0.929 . S
C764 C766 1.378 . S
C764 C768 1.350 . S
C765 C768 1.463 . S
C765 C770 1.350 . S
C765 N773 1.427 . S
C766 H757 0.930 . S
C766 C764 1.378 . S
C766 C767 1.367 . S
C767 C766 1.367 . S
C767 C769 1.433 . S
C768 C764 1.350 . S
C768 C765 1.463 . S
C768 N772 1.427 . S
C769 H759 0.929 . S
C769 C767 1.433 . S
C769 N772 1.384 . S
C770 H761 0.929 . S
C770 C762 1.378 . S
C770 C765 1.350 . S
C771 H758 0.929 . S
C771 C763 1.433 . S
C771 N773 1.384 . S
N772 C768 1.427 . S
N772 C769 1.384 . S
N773 C765 1.427 . S
N773 C771 1.384 . S
H774 C780 0.930 . S
H775 C784 0.930 . S
H776 C789 0.929 . S
H777 C787 0.929 . S
H778 C782 0.929 . S
H779 C788 0.929 . S
C780 H774 0.930 . S
C780 C781 1.367 . S
C780 C788 1.378 . S
C781 C780 1.367 . S
C781 C789 1.433 . S
C782 H778 0.929 . S
C782 C784 1.378 . S
C782 C786 1.350 . S
C783 C786 1.463 . S
C783 C788 1.350 . S
C783 N791 1.427 . S
C784 H775 0.930 . S
C784 C782 1.378 . S
C784 C785 1.367 . S
C785 C784 1.367 . S
C785 C787 1.433 . S
C786 C782 1.350 . S
C786 C783 1.463 . S
C786 N790 1.427 . S
C787 H777 0.929 . S
C787 C785 1.433 . S
C787 N790 1.384 . S
C788 H779 0.929 . S
C788 C780 1.378 . S
C788 C783 1.350 . S
C789 H776 0.929 . S
C789 C781 1.433 . S
C789 N791 1.384 . S
N790 C786 1.427 . S
N790 C787 1.384 . S
N791 C783 1.427 . S
N791 C789 1.384 . S
C313 C29 1.745 . S
C317 C267 1.747 . S
C331 C51 1.733 . S
C335 C289 1.736 . S
C349 C97 1.736 . S
C353 C221 1.742 . S
C367 C153 1.679 . S
C371 C85 1.679 . S
C385 C187 1.715 . S
C389 C17 1.714 . S
C403 C63 1.728 . S
C407 C119 1.733 . S
C421 C255 1.754 . S
C425 C199 1.749 . S
C439 C301 1.762 . S
C443 C131 1.765 . S
C457 C165 1.804 . S
C461 C233 1.806 . S
C475 C68 1.265 . S
C479 C8 1.267 . S
C493 C34 1.265 . S
C497 C0 1.269 . S
C511 C42 1.275 . S
C515 C76 1.277 . S
C529 C102 1.279 . S
C533 C178 1.283 . S
C547 C110 1.279 . S
C551 C136 1.274 . S
C565 C144 1.270 . S
C569 C170 1.265 . S
C583 C272 1.295 . S
C587 C212 1.296 . S
C601 C238 1.268 . S
C605 C204 1.271 . S
C619 C280 1.280 . S
C623 C246 1.278 . S
C637 C13 1.093 . S
C641 C4 1.093 . S
C655 C38 1.061 . S
C659 C47 1.061 . S
C673 C81 1.059 . S
C677 C72 1.059 . S
C691 C115 1.086 . S
C695 C106 1.086 1_556 S
C709 C149 1.065 . S
C713 C140 1.065 1_556 S
C727 C183 1.063 . S
C731 C174 1.063 1_556 S
C745 C217 1.087 . S
C749 C208 1.087 1_554 S
C763 C251 1.077 1_554 S
C767 C242 1.077 . S
C781 C285 1.068 . S
C785 C276 1.068 1_554 S
