# Generated by pormake.
# Topology smd, (6)-cn, num edge types: 1
# Building blocks:
#     Node 0, Type 0, BuildingBlock: GEDQOX_clean_sbu_0, # of connection points: 6
#     Node 1, Type 0, BuildingBlock: GEDQOX_clean_sbu_0, # of connection points: 6
#     Node 2, Type 0, BuildingBlock: GEDQOX_clean_sbu_0, # of connection points: 6
#     Node 3, Type 0, BuildingBlock: GEDQOX_clean_sbu_0, # of connection points: 6
#     Node 4, Type 0, BuildingBlock: GEDQOX_clean_sbu_0, # of connection points: 6
#     Node 5, Type 0, BuildingBlock: GEDQOX_clean_sbu_0, # of connection points: 6
#     Node 6, Type 0, BuildingBlock: GEDQOX_clean_sbu_0, # of connection points: 6
#     Node 7, Type 0, BuildingBlock: GEDQOX_clean_sbu_0, # of connection points: 6
#     Node 8, Type 0, BuildingBlock: GEDQOX_clean_sbu_0, # of connection points: 6
#     Node 9, Type 0, BuildingBlock: GEDQOX_clean_sbu_0, # of connection points: 6
#     Node 10, Type 0, BuildingBlock: GEDQOX_clean_sbu_0, # of connection points: 6
#     Node 11, Type 0, BuildingBlock: GEDQOX_clean_sbu_0, # of connection points: 6
#     Node 12, Type 0, BuildingBlock: GEDQOX_clean_sbu_0, # of connection points: 6
#     Node 13, Type 0, BuildingBlock: GEDQOX_clean_sbu_0, # of connection points: 6
#     Node 14, Type 0, BuildingBlock: GEDQOX_clean_sbu_0, # of connection points: 6
#     Node 15, Type 0, BuildingBlock: GEDQOX_clean_sbu_0, # of connection points: 6
#     Node 16, Type 0, BuildingBlock: GEDQOX_clean_sbu_0, # of connection points: 6
#     Node 17, Type 0, BuildingBlock: GEDQOX_clean_sbu_0, # of connection points: 6
#     Edge 18, Type (0, 0), BuildingBlock: KIFKEQ_clean_linker_1, # of connection points: 2
#     Edge 19, Type (0, 0), BuildingBlock: KIFKEQ_clean_linker_1, # of connection points: 2
#     Edge 20, Type (0, 0), BuildingBlock: KIFKEQ_clean_linker_1, # of connection points: 2
#     Edge 21, Type (0, 0), BuildingBlock: KIFKEQ_clean_linker_1, # of connection points: 2
#     Edge 22, Type (0, 0), BuildingBlock: KIFKEQ_clean_linker_1, # of connection points: 2
#     Edge 23, Type (0, 0), BuildingBlock: KIFKEQ_clean_linker_1, # of connection points: 2
#     Edge 24, Type (0, 0), BuildingBlock: KIFKEQ_clean_linker_1, # of connection points: 2
#     Edge 25, Type (0, 0), BuildingBlock: KIFKEQ_clean_linker_1, # of connection points: 2
#     Edge 26, Type (0, 0), BuildingBlock: KIFKEQ_clean_linker_1, # of connection points: 2
#     Edge 27, Type (0, 0), BuildingBlock: KIFKEQ_clean_linker_1, # of connection points: 2
#     Edge 28, Type (0, 0), BuildingBlock: KIFKEQ_clean_linker_1, # of connection points: 2
#     Edge 29, Type (0, 0), BuildingBlock: KIFKEQ_clean_linker_1, # of connection points: 2
#     Edge 30, Type (0, 0), BuildingBlock: KIFKEQ_clean_linker_1, # of connection points: 2
#     Edge 31, Type (0, 0), BuildingBlock: KIFKEQ_clean_linker_1, # of connection points: 2
#     Edge 32, Type (0, 0), BuildingBlock: KIFKEQ_clean_linker_1, # of connection points: 2
#     Edge 33, Type (0, 0), BuildingBlock: KIFKEQ_clean_linker_1, # of connection points: 2
#     Edge 34, Type (0, 0), BuildingBlock: KIFKEQ_clean_linker_1, # of connection points: 2
#     Edge 35, Type (0, 0), BuildingBlock: KIFKEQ_clean_linker_1, # of connection points: 2
#     Edge 36, Type (0, 0), BuildingBlock: KIFKEQ_clean_linker_1, # of connection points: 2
#     Edge 37, Type (0, 0), BuildingBlock: KIFKEQ_clean_linker_1, # of connection points: 2
#     Edge 38, Type (0, 0), BuildingBlock: KIFKEQ_clean_linker_1, # of connection points: 2
#     Edge 39, Type (0, 0), BuildingBlock: KIFKEQ_clean_linker_1, # of connection points: 2
#     Edge 40, Type (0, 0), BuildingBlock: KIFKEQ_clean_linker_1, # of connection points: 2
#     Edge 41, Type (0, 0), BuildingBlock: KIFKEQ_clean_linker_1, # of connection points: 2
#     Edge 42, Type (0, 0), BuildingBlock: KIFKEQ_clean_linker_1, # of connection points: 2
#     Edge 43, Type (0, 0), BuildingBlock: KIFKEQ_clean_linker_1, # of connection points: 2
#     Edge 44, Type (0, 0), BuildingBlock: KIFKEQ_clean_linker_1, # of connection points: 2
#     Edge 45, Type (0, 0), BuildingBlock: KIFKEQ_clean_linker_1, # of connection points: 2
#     Edge 46, Type (0, 0), BuildingBlock: KIFKEQ_clean_linker_1, # of connection points: 2
#     Edge 47, Type (0, 0), BuildingBlock: KIFKEQ_clean_linker_1, # of connection points: 2
#     Edge 48, Type (0, 0), BuildingBlock: KIFKEQ_clean_linker_1, # of connection points: 2
#     Edge 49, Type (0, 0), BuildingBlock: KIFKEQ_clean_linker_1, # of connection points: 2
#     Edge 50, Type (0, 0), BuildingBlock: KIFKEQ_clean_linker_1, # of connection points: 2
#     Edge 51, Type (0, 0), BuildingBlock: KIFKEQ_clean_linker_1, # of connection points: 2
#     Edge 52, Type (0, 0), BuildingBlock: KIFKEQ_clean_linker_1, # of connection points: 2
#     Edge 53, Type (0, 0), BuildingBlock: KIFKEQ_clean_linker_1, # of connection points: 2
#     Edge 54, Type (0, 0), BuildingBlock: KIFKEQ_clean_linker_1, # of connection points: 2
#     Edge 55, Type (0, 0), BuildingBlock: KIFKEQ_clean_linker_1, # of connection points: 2
#     Edge 56, Type (0, 0), BuildingBlock: KIFKEQ_clean_linker_1, # of connection points: 2
#     Edge 57, Type (0, 0), BuildingBlock: KIFKEQ_clean_linker_1, # of connection points: 2
#     Edge 58, Type (0, 0), BuildingBlock: KIFKEQ_clean_linker_1, # of connection points: 2
#     Edge 59, Type (0, 0), BuildingBlock: KIFKEQ_clean_linker_1, # of connection points: 2
#     Edge 60, Type (0, 0), BuildingBlock: KIFKEQ_clean_linker_1, # of connection points: 2
#     Edge 61, Type (0, 0), BuildingBlock: KIFKEQ_clean_linker_1, # of connection points: 2
#     Edge 62, Type (0, 0), BuildingBlock: KIFKEQ_clean_linker_1, # of connection points: 2
#     Edge 63, Type (0, 0), BuildingBlock: KIFKEQ_clean_linker_1, # of connection points: 2
#     Edge 64, Type (0, 0), BuildingBlock: KIFKEQ_clean_linker_1, # of connection points: 2
#     Edge 65, Type (0, 0), BuildingBlock: KIFKEQ_clean_linker_1, # of connection points: 2
#     Edge 66, Type (0, 0), BuildingBlock: KIFKEQ_clean_linker_1, # of connection points: 2
#     Edge 67, Type (0, 0), BuildingBlock: KIFKEQ_clean_linker_1, # of connection points: 2
#     Edge 68, Type (0, 0), BuildingBlock: KIFKEQ_clean_linker_1, # of connection points: 2
#     Edge 69, Type (0, 0), BuildingBlock: KIFKEQ_clean_linker_1, # of connection points: 2
#     Edge 70, Type (0, 0), BuildingBlock: KIFKEQ_clean_linker_1, # of connection points: 2
#     Edge 71, Type (0, 0), BuildingBlock: KIFKEQ_clean_linker_1, # of connection points: 2
# Relax obj value: 0.274
# Max RMSD: 0.258
# Mean RMSD: 0.258
data_MOF--net-smd--node1-GEDQOX_clean_sbu_0--edge1-KIFKEQ_clean_linker_1
_symmetry_space_group_name_H-M    P1
_symmetry_Int_Tables_number       1
_symmetry_cell_setting            triclinic
loop_
_symmetry_equiv_pos_as_xyz
'x, y, z'
_cell_length_a     95.256891
_cell_length_b     95.211447
_cell_length_c     15.842453
_cell_angle_alpha  89.897832
_cell_angle_beta   89.94253
_cell_angle_gamma 119.98183
loop_
_atom_site_label
_atom_site_type_symbol
_atom_site_fract_x
_atom_site_fract_y
_atom_site_fract_z
_atom_type_partial_charge
Nd0 Nd 0.04674 0.24213 0.5996 0.0
Nd1 Nd 0.01438 0.24766 0.60257 0.0
C2 C 0.07684 0.24769 0.60372 0.0
C3 C 0.09016 0.24526 0.57316 0.0
C4 C 0.10595 0.25855 0.57466 0.0
C5 C 0.11923 0.2567 0.55492 0.0
C6 C 0.1171 0.24147 0.53198 0.0
C7 C 0.10113 0.22816 0.52862 0.0
C8 C 0.08779 0.23002 0.54943 0.0
C9 C 0.01701 0.21363 0.58398 0.0
C10 C 0.02999 0.244 0.42183 0.0
C11 C 0.98538 0.24458 0.61379 0.0
C12 C 0.97875 0.25412 0.65284 0.0
C13 C 0.96349 0.24616 0.69185 0.0
C14 C 0.9571 0.25504 0.72973 0.0
C15 C 0.96584 0.27211 0.72914 0.0
C16 C 0.9812 0.28004 0.69012 0.0
C17 C 0.98763 0.27115 0.65292 0.0
C18 C 0.04355 0.27655 0.60809 0.0
C19 C 0.03076 0.24492 0.78105 0.0
O20 O 0.07246 0.25635 0.55795 0.0
O21 O 0.06492 0.23601 0.64671 0.0
O22 O 0.03083 0.2139 0.58115 0.0
O23 O 0.02001 0.22787 0.59498 0.0
O24 O 0.04324 0.24595 0.46013 0.0
O25 O 0.01693 0.24214 0.46288 0.0
O26 O 0.99046 0.23737 0.66607 0.0
O27 O 0.99498 0.25117 0.54839 0.0
O28 O 0.02954 0.27575 0.6094 0.0
O29 O 0.04125 0.26236 0.60703 0.0
O30 O 0.01803 0.24408 0.7423 0.0
O31 O 0.04342 0.24584 0.74059 0.0
H32 H 0.10808 0.27039 0.59373 0.0
H33 H 0.13121 0.2672 0.56036 0.0
H34 H 0.09888 0.21627 0.51012 0.0
H35 H 0.0757 0.21954 0.54803 0.0
H36 H 0.95652 0.23303 0.69331 0.0
H37 H 0.94538 0.2485 0.7604 0.0
H38 H 0.98824 0.29314 0.68721 0.0
H39 H 0.99951 0.27761 0.62391 0.0
Nd40 Nd 0.82368 0.83233 0.59732 0.0
Nd41 Nd 0.81397 0.79472 0.59735 0.0
C42 C 0.82744 0.86174 0.58776 0.0
C43 C 0.82708 0.87578 0.55015 0.0
C44 C 0.81311 0.87447 0.51287 0.0
C45 C 0.81283 0.88845 0.48689 0.0
C46 C 0.82647 0.90402 0.49849 0.0
C47 C 0.84046 0.9051 0.53486 0.0
C48 C 0.84076 0.89118 0.55986 0.0
C49 C 0.84855 0.82548 0.61191 0.0
C50 C 0.81781 0.81302 0.41672 0.0
C51 C 0.81465 0.76746 0.6116 0.0
C52 C 0.80547 0.75183 0.65686 0.0
C53 C 0.81387 0.74555 0.70107 0.0
C54 C 0.80547 0.7305 0.74175 0.0
C55 C 0.78844 0.72135 0.73887 0.0
C56 C 0.78003 0.72786 0.69582 0.0
C57 C 0.78844 0.74296 0.65561 0.0
C58 C 0.78637 0.79738 0.60232 0.0
C59 C 0.81789 0.81397 0.77711 0.0
O60 O 0.81392 0.84899 0.61244 0.0
O61 O 0.83878 0.85853 0.56542 0.0
O62 O 0.84829 0.83727 0.65169 0.0
O63 O 0.83631 0.81826 0.56529 0.0
O64 O 0.81809 0.82534 0.45733 0.0
O65 O 0.81817 0.80091 0.45616 0.0
O66 O 0.82363 0.78027 0.658 0.0
O67 O 0.80714 0.7703 0.55025 0.0
O68 O 0.78607 0.78362 0.601 0.0
O69 O 0.80089 0.80857 0.60326 0.0
O70 O 0.81866 0.80216 0.7373 0.0
O71 O 0.81748 0.82591 0.73666 0.0
H72 H 0.80234 0.86272 0.50508 0.0
H73 H 0.8019 0.88704 0.45814 0.0
H74 H 0.8511 0.91676 0.54689 0.0
H75 H 0.8516 0.89251 0.58966 0.0
H76 H 0.827 0.75225 0.70351 0.0
H77 H 0.81234 0.72602 0.77534 0.0
H78 H 0.76695 0.72112 0.6911 0.0
H79 H 0.78161 0.74755 0.62254 0.0
Nd80 Nd 0.23129 0.01531 0.60402 0.0
Nd81 Nd 0.2687 0.04799 0.60611 0.0
C82 C 0.20677 0.98513 0.60642 0.0
C83 C 0.19011 0.97291 0.57972 0.0
C84 C 0.18711 0.96532 0.50042 0.0
C85 C 0.17181 0.95211 0.48128 0.0
C86 C 0.15916 0.94607 0.54115 0.0
C87 C 0.16212 0.95397 0.61962 0.0
C88 C 0.17736 0.96719 0.63854 0.0
C89 C 0.23173 0.04472 0.58814 0.0
C90 C 0.24991 0.03208 0.42588 0.0
C91 C 0.29413 0.07731 0.61655 0.0
C92 C 0.31036 0.0849 0.65642 0.0
C93 C 0.31231 0.08621 0.74468 0.0
C94 C 0.32783 0.0936 0.78051 0.0
C95 C 0.34171 0.09981 0.72894 0.0
C96 C 0.33966 0.09825 0.64081 0.0
C97 C 0.3242 0.09097 0.60511 0.0
C98 C 0.26926 0.01921 0.61197 0.0
C99 C 0.25013 0.03118 0.78499 0.0
O100 O 0.21862 0.99044 0.55112 0.0
O101 O 0.20853 0.9961 0.66198 0.0
O102 O 0.21836 0.03074 0.58707 0.0
O103 O 0.24317 0.04201 0.59795 0.0
O104 O 0.23894 0.01869 0.46488 0.0
O105 O 0.26073 0.04535 0.46644 0.0
O106 O 0.28148 0.07213 0.66662 0.0
O107 O 0.29172 0.06755 0.55286 0.0
O108 O 0.28221 0.03343 0.61319 0.0
O109 O 0.2571 0.02107 0.61086 0.0
O110 O 0.26169 0.04417 0.7461 0.0
O111 O 0.23866 0.01838 0.74451 0.0
H112 H 0.19669 0.9693 0.45383 0.0
H113 H 0.16997 0.94654 0.41973 0.0
H114 H 0.15285 0.94959 0.66805 0.0
H115 H 0.17933 0.97255 0.70075 0.0
H116 H 0.30189 0.0816 0.78622 0.0
H117 H 0.32894 0.09466 0.84854 0.0
H118 H 0.35001 0.10252 0.59908 0.0
H119 H 0.32308 0.09006 0.53702 0.0
Nd120 Nd 0.05145 0.81114 0.42524 0.0
Nd121 Nd 0.01956 0.81729 0.42829 0.0
C122 C 0.08023 0.81373 0.41313 0.0
C123 C 0.08662 0.80409 0.37284 0.0
C124 C 0.10175 0.81197 0.33246 0.0
C125 C 0.10792 0.803 0.29342 0.0
C126 C 0.09909 0.78593 0.29422 0.0
C127 C 0.08386 0.77809 0.33459 0.0
C128 C 0.07765 0.78707 0.37294 0.0
C129 C 0.02195 0.78258 0.41952 0.0
C130 C 0.0351 0.81393 0.24686 0.0
C131 C 0.98966 0.81236 0.42765 0.0
C132 C 0.97758 0.81665 0.45889 0.0
C133 C 0.96954 0.81069 0.53644 0.0
C134 C 0.95627 0.8125 0.55844 0.0
C135 C 0.95068 0.82025 0.50325 0.0
C136 C 0.95918 0.82677 0.42733 0.0
C137 C 0.9724 0.82494 0.40535 0.0
C138 C 0.04943 0.84563 0.44334 0.0
C139 C 0.03606 0.81487 0.606 0.0
O140 O 0.07536 0.82126 0.36178 0.0
O141 O 0.07058 0.80708 0.47829 0.0
O142 O 0.03578 0.78301 0.4189 0.0
O143 O 0.02463 0.79689 0.41986 0.0
O144 O 0.04785 0.81479 0.28552 0.0
O145 O 0.0225 0.81308 0.28752 0.0
O146 O 0.99446 0.80465 0.47826 0.0
O147 O 1.00099 0.82236 0.3754 0.0
O148 O 0.03569 0.84553 0.44467 0.0
O149 O 0.04632 0.83131 0.43423 0.0
O150 O 0.0229 0.8131 0.56749 0.0
O151 O 0.04909 0.81667 0.56506 0.0
H152 H 0.10878 0.82509 0.33084 0.0
H153 H 0.11953 0.80947 0.26171 0.0
H154 H 0.07676 0.76499 0.33767 0.0
H155 H 0.06585 0.78067 0.40296 0.0
H156 H 0.97308 0.80406 0.57882 0.0
H157 H 0.94997 0.8072 0.61708 0.0
H158 H 0.95543 0.83307 0.3839 0.0
H159 H 0.97821 0.82954 0.34479 0.0
Nd160 Nd 0.24986 0.26308 0.40682 0.0
Nd161 Nd 0.24335 0.22639 0.41322 0.0
C162 C 0.24751 0.28953 0.39671 0.0
C163 C 0.25698 0.30605 0.35992 0.0
C164 C 0.25815 0.30869 0.27206 0.0
C165 C 0.26668 0.32446 0.23905 0.0
C166 C 0.27425 0.33795 0.29306 0.0
C167 C 0.2733 0.33521 0.38079 0.0
C168 C 0.26471 0.31949 0.41369 0.0
C169 C 0.2789 0.26315 0.40854 0.0
C170 C 0.24823 0.24527 0.2284 0.0
C171 C 0.24428 0.19919 0.39709 0.0
C172 C 0.24102 0.1832 0.42909 0.0
C173 C 0.2471 0.1814 0.50671 0.0
C174 C 0.2456 0.16644 0.52945 0.0
C175 C 0.23809 0.15298 0.47483 0.0
C176 C 0.23174 0.15485 0.39806 0.0
C177 C 0.23315 0.16972 0.37579 0.0
C178 C 0.217 0.23034 0.44264 0.0
C179 C 0.24748 0.24509 0.58852 0.0
O180 O 0.24024 0.27734 0.34432 0.0
O181 O 0.25387 0.28622 0.46175 0.0
O182 O 0.27797 0.27625 0.40308 0.0
O183 O 0.26483 0.25111 0.4091 0.0
O184 O 0.24938 0.25815 0.26608 0.0
O185 O 0.24654 0.23244 0.27041 0.0
O186 O 0.25594 0.21239 0.43166 0.0
O187 O 0.23212 0.20078 0.3702 0.0
O188 O 0.21888 0.21907 0.47846 0.0
O189 O 0.22817 0.23815 0.38982 0.0
O190 O 0.25029 0.23447 0.54944 0.0
O191 O 0.2441 0.25519 0.54695 0.0
H192 H 0.25236 0.29861 0.22863 0.0
H193 H 0.26706 0.32608 0.17125 0.0
H194 H 0.27927 0.34523 0.42442 0.0
H195 H 0.26408 0.31785 0.48156 0.0
H196 H 0.2533 0.19161 0.54904 0.0
H197 H 0.25042 0.16548 0.58966 0.0
H198 H 0.22615 0.14498 0.35332 0.0
H199 H 0.22856 0.17083 0.31507 0.0
Nd200 Nd 0.79781 0.0127 0.42441 0.0
Nd201 Nd 0.83412 0.04205 0.42468 0.0
C202 C 0.77138 0.98409 0.4109 0.0
C203 C 0.75494 0.9775 0.37422 0.0
C204 C 0.7505 0.96759 0.30219 0.0
C205 C 0.73478 0.96072 0.26932 0.0
C206 C 0.72313 0.96352 0.30823 0.0
C207 C 0.72772 0.97374 0.37916 0.0
C208 C 0.7434 0.98062 0.41178 0.0
C209 C 0.79714 0.04133 0.42981 0.0
C210 C 0.81669 0.02947 0.24416 0.0
C211 C 0.86213 0.06867 0.4491 0.0
C212 C 0.87787 0.08366 0.4628 0.0
C213 C 0.87901 0.09893 0.45788 0.0
C214 C 0.89382 0.11312 0.47207 0.0
C215 C 0.90787 0.11237 0.49076 0.0
C216 C 0.90669 0.09705 0.49543 0.0
C217 C 0.89184 0.08286 0.48196 0.0
C218 C 0.82958 0.01109 0.40811 0.0
C219 C 0.81505 0.02734 0.60433 0.0
O220 O 0.78357 0.98921 0.35784 0.0
O221 O 0.77477 0.99335 0.47768 0.0
O222 O 0.78438 0.02705 0.42677 0.0
O223 O 0.8096 0.03992 0.42539 0.0
O224 O 0.80517 0.0166 0.28393 0.0
O225 O 0.82841 0.04194 0.28463 0.0
O226 O 0.85007 0.06869 0.40948 0.0
O227 O 0.85929 0.0544 0.47506 0.0
O228 O 0.8409 0.02361 0.36841 0.0
O229 O 0.82188 0.01541 0.45552 0.0
O230 O 0.82601 0.04031 0.56301 0.0
O231 O 0.80435 0.01403 0.56472 0.0
H232 H 0.75913 0.96497 0.27188 0.0
H233 H 0.73165 0.95288 0.21479 0.0
H234 H 0.71916 0.97644 0.40964 0.0
H235 H 0.74639 0.9883 0.46693 0.0
H236 H 0.86842 0.09992 0.44355 0.0
H237 H 0.89431 0.1247 0.46716 0.0
H238 H 0.91721 0.09599 0.51057 0.0
H239 H 0.89133 0.07125 0.48626 0.0
Nd240 Nd 0.71147 0.575 0.92004 0.0
Nd241 Nd 0.68048 0.58026 0.91801 0.0
C242 C 0.74151 0.58016 0.91903 0.0
C243 C 0.7538 0.57589 0.89042 0.0
C244 C 0.76236 0.58203 0.81429 0.0
C245 C 0.7758 0.5803 0.79494 0.0
C246 C 0.78109 0.57248 0.85149 0.0
C247 C 0.77212 0.56582 0.92606 0.0
C248 C 0.75872 0.56755 0.94534 0.0
C249 C 0.68235 0.54571 0.9039 0.0
C250 C 0.69427 0.57507 0.74137 0.0
C251 C 0.65225 0.57897 0.93746 0.0
C252 C 0.64505 0.58688 0.98668 0.0
C253 C 0.6289 0.58256 0.97184 0.0
C254 C 0.62203 0.59066 0.01294 0.0
C255 C 0.63121 0.60331 0.06975 0.0
C256 C 0.64737 0.60738 0.08598 0.0
C257 C 0.65424 0.59925 0.04462 0.0
C258 C 0.70977 0.60743 0.88997 0.0
C259 C 0.69684 0.57922 0.10104 0.0
O260 O 0.73636 0.58722 0.86619 0.0
O261 O 0.73045 0.57063 0.9736 0.0
O262 O 0.69639 0.54652 0.90545 0.0
O263 O 0.68484 0.55982 0.91051 0.0
O264 O 0.70809 0.57922 0.78054 0.0
O265 O 0.68076 0.57137 0.78327 0.0
O266 O 0.65622 0.56952 0.97854 0.0
O267 O 0.66303 0.58804 0.88104 0.0
O268 O 0.6962 0.60491 0.85788 0.0
O269 O 0.7075 0.59643 0.94268 0.0
O270 O 0.68541 0.58057 0.06055 0.0
O271 O 0.70829 0.57775 0.06155 0.0
H272 H 0.75908 0.58873 0.77099 0.0
H273 H 0.78245 0.58572 0.73729 0.0
H274 H 0.77562 0.55947 0.97052 0.0
H275 H 0.75254 0.56283 1.00498 0.0
H276 H 0.62164 0.57305 0.92726 0.0
H277 H 0.60952 0.58705 0.99988 0.0
H278 H 0.65484 0.61718 0.12865 0.0
H279 H 0.66679 0.60281 0.05651 0.0
Nd280 Nd 0.48736 0.16278 0.92566 0.0
Nd281 Nd 0.48056 0.12827 0.91908 0.0
C282 C 0.48707 0.19046 0.91887 0.0
C283 C 0.49092 0.20686 0.89049 0.0
C284 C 0.48471 0.20931 0.81493 0.0
C285 C 0.48642 0.22452 0.79626 0.0
C286 C 0.49424 0.23757 0.8531 0.0
C287 C 0.50073 0.23508 0.92773 0.0
C288 C 0.49912 0.21997 0.94594 0.0
C289 C 0.5148 0.15959 0.93034 0.0
C290 C 0.48603 0.14637 0.74137 0.0
C291 C 0.47855 0.09966 0.93798 0.0
C292 C 0.46915 0.0843 0.98562 0.0
C293 C 0.47723 0.07909 0.04036 0.0
C294 C 0.46889 0.06387 0.07935 0.0
C295 C 0.45231 0.05345 0.06369 0.0
C296 C 0.4441 0.05887 1.01104 0.0
C297 C 0.4524 0.07414 0.97261 0.0
C298 C 0.45349 0.1309 0.90074 0.0
C299 C 0.48233 0.14494 0.10274 0.0
O300 O 0.47709 0.17758 0.87567 0.0
O301 O 0.49756 0.18857 0.96347 0.0
O302 O 0.51341 0.17054 0.97206 0.0
O303 O 0.50257 0.15166 0.88489 0.0
O304 O 0.48377 0.15714 0.78275 0.0
O305 O 0.48844 0.13562 0.78208 0.0
O306 O 0.48885 0.11256 0.97995 0.0
O307 O 0.4709 0.10286 0.87946 0.0
O308 O 0.45598 0.12049 0.86147 0.0
O309 O 0.46456 0.13898 0.95366 0.0
O310 O 0.48502 0.13456 0.06083 0.0
O311 O 0.47967 0.15549 0.06253 0.0
H312 H 0.47818 0.19941 0.77121 0.0
H313 H 0.48147 0.22597 0.73756 0.0
H314 H 0.50654 0.24462 0.97409 0.0
H315 H 0.50375 0.21836 1.00546 0.0
H316 H 0.49012 0.08665 0.05129 0.0
H317 H 0.47556 0.06002 0.11939 0.0
H318 H 0.43125 0.05122 0.999 0.0
H319 H 0.44574 0.07781 0.9313 0.0
Nd320 Nd 0.8975 0.352 0.92876 0.0
Nd321 Nd 0.93457 0.38 0.92802 0.0
C322 C 0.86807 0.32628 0.92067 0.0
C323 C 0.8546 0.31094 0.88633 0.0
C324 C 0.85268 0.29587 0.91085 0.0
C325 C 0.8384 0.28141 0.89199 0.0
C326 C 0.82564 0.28165 0.8484 0.0
C327 C 0.82789 0.29672 0.82095 0.0
C328 C 0.84214 0.31116 0.83998 0.0
C329 C 0.90376 0.38357 0.94265 0.0
C330 C 0.91673 0.36482 0.74805 0.0
C331 C 0.96164 0.40819 0.93734 0.0
C332 C 0.97748 0.41482 0.97998 0.0
C333 C 0.9847 0.43036 0.01555 0.0
C334 C 0.99983 0.43698 0.05493 0.0
C335 C 1.00812 0.42822 0.05926 0.0
C336 C 1.00072 0.41254 0.0241 0.0
C337 C 0.98553 0.40588 0.98537 0.0
C338 C 0.93312 0.35038 0.93619 0.0
C339 C 0.91563 0.36488 0.10823 0.0
O340 O 0.8802 0.32625 0.95946 0.0
O341 O 0.87196 0.34017 0.88464 0.0
O342 O 0.89221 0.37148 0.98356 0.0
O343 O 0.91104 0.37865 0.89571 0.0
O344 O 0.90471 0.35263 0.78953 0.0
O345 O 0.9285 0.3776 0.78683 0.0
O346 O 0.94906 0.40433 0.98594 0.0
O347 O 0.95862 0.39769 0.8767 0.0
O348 O 0.94652 0.36415 0.93808 0.0
O349 O 0.92128 0.35278 0.93393 0.0
O350 O 0.92714 0.37765 0.06802 0.0
O351 O 0.90399 0.35234 0.0679 0.0
H352 H 0.8619 0.29525 0.9479 0.0
H353 H 0.83709 0.27011 0.9151 0.0
H354 H 0.81849 0.29742 0.78603 0.0
H355 H 0.84311 0.32256 0.82113 0.0
H356 H 0.97862 0.4374 0.01274 0.0
H357 H 1.00496 0.44893 0.08258 0.0
H358 H 1.00676 0.40547 0.02507 0.0
H359 H 0.98018 0.3938 0.95899 0.0
Nd360 Nd 0.71733 0.14684 0.74414 0.0
Nd361 Nd 0.68651 0.15225 0.75206 0.0
C362 C 0.74659 0.15054 0.72685 0.0
C363 C 0.75359 0.14079 0.69485 0.0
C364 C 0.767 0.14793 0.64027 0.0
C365 C 0.77402 0.139 0.61031 0.0
C366 C 0.76777 0.12275 0.63479 0.0
C367 C 0.75407 0.11551 0.68795 0.0
C368 C 0.74703 0.12441 0.71749 0.0
C369 C 0.68895 0.11733 0.75913 0.0
C370 C 0.69992 0.14717 0.56613 0.0
C371 C 0.658 0.15062 0.73954 0.0
C372 C 0.6453 0.15323 0.77858 0.0
C373 C 0.63388 0.14189 0.83535 0.0
C374 C 0.62046 0.14312 0.86125 0.0
C375 C 0.61804 0.15565 0.83063 0.0
C376 C 0.62978 0.16728 0.77605 0.0
C377 C 0.6432 0.16607 0.75033 0.0
C378 C 0.7165 0.1792 0.77737 0.0
C379 C 0.70228 0.14944 0.92701 0.0
O380 O 0.74003 0.15555 0.67046 0.0
O381 O 0.73826 0.14576 0.79732 0.0
O382 O 0.70326 0.11885 0.75682 0.0
O383 O 0.69056 0.13119 0.75079 0.0
O384 O 0.7112 0.14519 0.60361 0.0
O385 O 0.68951 0.14992 0.6084 0.0
O386 O 0.6598 0.13858 0.76665 0.0
O387 O 0.67166 0.16333 0.71604 0.0
O388 O 0.70335 0.17702 0.81454 0.0
O389 O 0.71325 0.16795 0.72549 0.0
O390 O 0.68855 0.14617 0.88975 0.0
O391 O 0.71571 0.15308 0.88428 0.0
H392 H 0.77216 0.1605 0.62135 0.0
H393 H 0.78455 0.14494 0.5696 0.0
H394 H 0.74873 0.10291 0.7065 0.0
H395 H 0.7365 0.11849 0.75827 0.0
H396 H 0.63502 0.13176 0.85793 0.0
H397 H 0.61185 0.13408 0.9044 0.0
H398 H 0.62828 0.17698 0.75011 0.0
H399 H 0.65162 0.17486 0.70551 0.0
Nd400 Nd 0.91803 0.59973 0.76723 0.0
Nd401 Nd 0.91068 0.56321 0.76617 0.0
C402 C 0.91611 0.62636 0.75711 0.0
C403 C 0.92548 0.6425 0.71644 0.0
C404 C 0.9182 0.64721 0.65394 0.0
C405 C 0.92674 0.66258 0.61651 0.0
C406 C 0.94269 0.67362 0.64138 0.0
C407 C 0.95005 0.66881 0.70312 0.0
C408 C 0.94158 0.65342 0.74006 0.0
C409 C 0.94696 0.59979 0.75321 0.0
C410 C 0.91513 0.58129 0.58828 0.0
C411 C 0.91032 0.53524 0.771 0.0
C412 C 0.90835 0.51985 0.80482 0.0
C413 C 0.91823 0.51949 0.86968 0.0
C414 C 0.9177 0.50491 0.89114 0.0
C415 C 0.9074 0.49048 0.84753 0.0
C416 C 0.89719 0.49085 0.78459 0.0
C417 C 0.89767 0.50534 0.76359 0.0
C418 C 0.88427 0.56794 0.75792 0.0
C419 C 0.91456 0.58133 0.94891 0.0
O420 O 0.908 0.61391 0.70696 0.0
O421 O 0.92301 0.62321 0.82027 0.0
O422 O 0.94583 0.61278 0.7533 0.0
O423 O 0.93296 0.58758 0.75702 0.0
O424 O 0.91205 0.5916 0.62871 0.0
O425 O 0.91797 0.57086 0.62902 0.0
O426 O 0.92304 0.54911 0.79107 0.0
O427 O 0.89759 0.53636 0.7511 0.0
O428 O 0.88506 0.55649 0.71758 0.0
O429 O 0.89671 0.57573 0.80252 0.0
O430 O 0.9134 0.5686 0.90854 0.0
O431 O 0.91517 0.59391 0.9092 0.0
H432 H 0.90584 0.63903 0.63449 0.0
H433 H 0.92072 0.66594 0.56932 0.0
H434 H 0.96244 0.67693 0.7225 0.0
H435 H 0.94764 0.65015 0.78738 0.0
H436 H 0.92671 0.53053 0.90201 0.0
H437 H 0.92579 0.50507 0.93958 0.0
H438 H 0.88895 0.47994 0.75059 0.0
H439 H 0.89004 0.5053 0.71278 0.0
Nd440 Nd 0.46365 0.3446 0.76029 0.0
Nd441 Nd 0.4998 0.37543 0.75636 0.0
C442 C 0.4364 0.3166 0.74307 0.0
C443 C 0.42069 0.30978 0.69904 0.0
C444 C 0.41951 0.3138 0.61495 0.0
C445 C 0.40432 0.3072 0.57582 0.0
C446 C 0.39006 0.2965 0.6201 0.0
C447 C 0.39138 0.29263 0.70433 0.0
C448 C 0.40652 0.2992 0.74323 0.0
C449 C 0.46578 0.37395 0.78665 0.0
C450 C 0.48088 0.36067 0.5762 0.0
C451 C 0.52481 0.40541 0.75558 0.0
C452 C 0.5416 0.41744 0.78163 0.0
C453 C 0.54482 0.42525 0.86037 0.0
C454 C 0.56025 0.43836 0.8786 0.0
C455 C 0.57283 0.4441 0.81832 0.0
C456 C 0.56965 0.43594 0.74051 0.0
C457 C 0.55428 0.42283 0.72251 0.0
C458 C 0.50009 0.34635 0.77198 0.0
C459 C 0.48283 0.35831 0.93577 0.0
O460 O 0.44939 0.32073 0.69752 0.0
O461 O 0.43885 0.32689 0.80357 0.0
O462 O 0.45478 0.36042 0.81955 0.0
O463 O 0.47448 0.37164 0.73413 0.0
O464 O 0.46821 0.34915 0.61726 0.0
O465 O 0.4937 0.37227 0.61522 0.0
O466 O 0.51298 0.4002 0.81102 0.0
O467 O 0.52279 0.39445 0.69947 0.0
O468 O 0.51328 0.36042 0.7694 0.0
O469 O 0.48839 0.34874 0.76666 0.0
O470 O 0.49233 0.37217 0.89615 0.0
O471 O 0.47314 0.34478 0.89411 0.0
H472 H 0.43027 0.32204 0.57961 0.0
H473 H 0.40375 0.31037 0.51072 0.0
H474 H 0.38066 0.28472 0.74084 0.0
H475 H 0.40715 0.29608 0.80839 0.0
H476 H 0.53531 0.42154 0.90717 0.0
H477 H 0.56224 0.44411 0.93973 0.0
H478 H 0.57885 0.44008 0.69176 0.0
H479 H 0.55216 0.4173 0.66066 0.0
Nd480 Nd 0.3797 0.9085 0.27039 0.0
Nd481 Nd 0.34759 0.91451 0.27426 0.0
C482 C 0.40974 0.91393 0.27569 0.0
C483 C 0.42317 0.91171 0.24496 0.0
C484 C 0.43892 0.92504 0.24783 0.0
C485 C 0.45229 0.92333 0.2282 0.0
C486 C 0.45029 0.9082 0.20404 0.0
C487 C 0.43435 0.89486 0.19928 0.0
C488 C 0.42093 0.89658 0.21996 0.0
C489 C 0.34979 0.88027 0.25196 0.0
C490 C 0.36322 0.91098 0.09315 0.0
C491 C 0.31862 0.91159 0.28498 0.0
C492 C 0.3117 0.92057 0.32673 0.0
C493 C 0.29604 0.91721 0.30596 0.0
C494 C 0.28938 0.9258 0.34416 0.0
C495 C 0.29828 0.93796 0.40395 0.0
C496 C 0.31402 0.94125 0.42482 0.0
C497 C 0.32067 0.93264 0.38647 0.0
C498 C 0.37706 0.94308 0.2804 0.0
C499 C 0.36385 0.91151 0.45246 0.0
O500 O 0.40557 0.92295 0.2315 0.0
O501 O 0.39765 0.90198 0.31644 0.0
O502 O 0.36356 0.88045 0.24704 0.0
O503 O 0.35295 0.89446 0.26705 0.0
O504 O 0.37642 0.91277 0.13137 0.0
O505 O 0.35018 0.90914 0.13426 0.0
O506 O 0.32348 0.90387 0.33504 0.0
O507 O 0.32868 0.91913 0.22248 0.0
O508 O 0.36321 0.94263 0.28175 0.0
O509 O 0.3744 0.92878 0.27901 0.0
O510 O 0.35132 0.91117 0.41402 0.0
O511 O 0.37625 0.9119 0.41179 0.0
H512 H 0.44096 0.93679 0.26792 0.0
H513 H 0.46424 0.93384 0.23471 0.0
H514 H 0.4322 0.88305 0.17982 0.0
H515 H 0.40887 0.88607 0.21751 0.0
H516 H 0.28895 0.90793 0.25999 0.0
H517 H 0.27718 0.92281 0.32729 0.0
H518 H 0.32133 0.95069 0.46959 0.0
H519 H 0.33285 0.93548 0.40299 0.0
Nd520 Nd 0.15629 0.49821 0.26259 0.0
Nd521 Nd 0.14702 0.46105 0.26312 0.0
C522 C 0.16016 0.52769 0.25374 0.0
C523 C 0.15927 0.54189 0.22193 0.0
C524 C 0.14467 0.54223 0.22205 0.0
C525 C 0.14467 0.5567 0.20478 0.0
C526 C 0.15927 0.57115 0.18781 0.0
C527 C 0.17374 0.57058 0.18496 0.0
C528 C 0.17373 0.55616 0.20194 0.0
C529 C 0.18152 0.49182 0.27625 0.0
C530 C 0.1499 0.47896 0.08241 0.0
C531 C 0.14777 0.43374 0.27244 0.0
C532 C 0.13855 0.41764 0.31414 0.0
C533 C 0.14443 0.4143 0.38837 0.0
C534 C 0.13615 0.39892 0.42594 0.0
C535 C 0.12183 0.38649 0.38988 0.0
C536 C 0.11586 0.3899 0.31613 0.0
C537 C 0.12412 0.40526 0.27864 0.0
C538 C 0.11898 0.4627 0.2713 0.0
C539 C 0.1511 0.48012 0.4427 0.0
O540 O 0.1474 0.51534 0.28786 0.0
O541 O 0.17059 0.52401 0.22164 0.0
O542 O 0.18106 0.50344 0.31662 0.0
O543 O 0.16926 0.48451 0.22986 0.0
O544 O 0.14995 0.49111 0.12334 0.0
O545 O 0.15069 0.46708 0.1217 0.0
O546 O 0.15659 0.44629 0.3209 0.0
O547 O 0.14049 0.43698 0.21153 0.0
O548 O 0.11925 0.44924 0.27366 0.0
O549 O 0.13325 0.47448 0.26868 0.0
O550 O 0.15225 0.46853 0.40281 0.0
O551 O 0.15027 0.4918 0.40207 0.0
H552 H 0.13334 0.53148 0.23823 0.0
H553 H 0.13332 0.55671 0.2081 0.0
H554 H 0.18517 0.58137 0.1708 0.0
H555 H 0.18519 0.55633 0.20236 0.0
H556 H 0.15557 0.42352 0.41702 0.0
H557 H 0.14117 0.3967 0.48231 0.0
H558 H 0.10471 0.38071 0.28747 0.0
H559 H 0.11921 0.40736 0.22148 0.0
Nd560 Nd 0.56503 0.6849 0.26349 0.0
Nd561 Nd 0.60165 0.71328 0.26351 0.0
C562 C 0.53566 0.65932 0.25147 0.0
C563 C 0.52126 0.6441 0.22326 0.0
C564 C 0.52068 0.62905 0.22688 0.0
C565 C 0.50612 0.61461 0.21092 0.0
C566 C 0.49183 0.61492 0.19177 0.0
C567 C 0.49263 0.63005 0.18596 0.0
C568 C 0.50714 0.64442 0.2016 0.0
C569 C 0.57051 0.71624 0.27677 0.0
C570 C 0.58418 0.6981 0.08369 0.0
C571 C 0.62849 0.74169 0.27182 0.0
C572 C 0.64471 0.74888 0.3118 0.0
C573 C 0.6469 0.75244 0.39864 0.0
C574 C 0.66242 0.7597 0.43429 0.0
C575 C 0.67608 0.76362 0.38392 0.0
C576 C 0.67381 0.75989 0.2974 0.0
C577 C 0.65834 0.75267 0.26182 0.0
C578 C 0.60133 0.6842 0.26983 0.0
C579 C 0.58278 0.69778 0.44392 0.0
O580 O 0.54763 0.65899 0.29051 0.0
O581 O 0.53966 0.67324 0.21574 0.0
O582 O 0.55911 0.70402 0.31749 0.0
O583 O 0.57804 0.71154 0.23032 0.0
O584 O 0.57277 0.68544 0.12523 0.0
O585 O 0.59527 0.71126 0.12289 0.0
O586 O 0.61592 0.73761 0.32107 0.0
O587 O 0.6255 0.73127 0.21086 0.0
O588 O 0.61437 0.69826 0.27134 0.0
O589 O 0.58903 0.68591 0.26798 0.0
O590 O 0.59446 0.71047 0.40393 0.0
O591 O 0.57098 0.68538 0.40353 0.0
H592 H 0.53132 0.62839 0.24431 0.0
H593 H 0.50593 0.60319 0.21659 0.0
H594 H 0.48197 0.6308 0.17011 0.0
H595 H 0.50717 0.65581 0.19923 0.0
H596 H 0.63668 0.74973 0.43907 0.0
H597 H 0.66375 0.76251 0.50103 0.0
H598 H 0.68401 0.76246 0.25704 0.0
H599 H 0.65706 0.75009 0.1948 0.0
Nd600 Nd 0.38348 0.47765 0.0975 0.0
Nd601 Nd 0.35319 0.48392 0.09564 0.0
C602 C 0.41101 0.47778 0.07363 0.0
C603 C 0.41715 0.46903 0.02236 0.0
C604 C 0.43233 0.47774 0.983 0.0
C605 C 0.43898 0.46963 0.93974 0.0
C606 C 0.4306 0.45259 0.93517 0.0
C607 C 0.41511 0.44391 0.97237 0.0
C608 C 0.40843 0.45205 0.01523 0.0
C609 C 0.35382 0.45093 0.12334 0.0
C610 C 0.3675 0.47956 0.91447 0.0
C611 C 0.32335 0.47926 0.09782 0.0
C612 C 0.31119 0.48352 0.12838 0.0
C613 C 0.30299 0.47748 0.2055 0.0
C614 C 0.28962 0.47921 0.22667 0.0
C615 C 0.28407 0.48693 0.17103 0.0
C616 C 0.29269 0.4935 0.09549 0.0
C617 C 0.30602 0.49177 0.07437 0.0
C618 C 0.38263 0.51281 0.11233 0.0
C619 C 0.37022 0.48337 0.27426 0.0
O620 O 0.40742 0.48762 0.03365 0.0
O621 O 0.40066 0.46952 0.1336 0.0
O622 O 0.36714 0.45294 0.15641 0.0
O623 O 0.35647 0.46215 0.07153 0.0
O624 O 0.37866 0.47776 0.95502 0.0
O625 O 0.35625 0.48135 0.95393 0.0
O626 O 0.32827 0.47169 0.14866 0.0
O627 O 0.33455 0.48907 0.04457 0.0
O628 O 0.36874 0.51231 0.11066 0.0
O629 O 0.3799 0.4986 0.10565 0.0
O630 O 0.35648 0.47959 0.23511 0.0
O631 O 0.38361 0.48666 0.23236 0.0
H632 H 0.4392 0.49085 0.98715 0.0
H633 H 0.4508 0.47672 0.9107 0.0
H634 H 0.40836 0.43079 0.9711 0.0
H635 H 0.39663 0.445 0.04453 0.0
H636 H 0.30649 0.47087 0.24817 0.0
H637 H 0.28323 0.47386 0.28503 0.0
H638 H 0.28898 0.49977 0.05169 0.0
H639 H 0.31193 0.49641 0.01405 0.0
Nd640 Nd 0.5832 0.93142 0.08318 0.0
Nd641 Nd 0.57774 0.89506 0.08898 0.0
C642 C 0.58031 0.95749 0.06761 0.0
C643 C 0.59043 0.97425 0.0349 0.0
C644 C 0.5854 0.97927 0.96323 0.0
C645 C 0.59462 0.99512 0.93221 0.0
C646 C 0.60907 1.00636 0.97247 0.0
C647 C 0.61422 1.00124 0.04349 0.0
C648 C 0.60503 0.98539 0.07433 0.0
C649 C 0.61264 0.93223 0.09417 0.0
C650 C 0.58245 0.91374 0.90448 0.0
C651 C 0.5794 0.86817 0.07637 0.0
C652 C 0.57687 0.85288 0.11565 0.0
C653 C 0.58797 0.85292 0.17432 0.0
C654 C 0.58688 0.83834 0.20066 0.0
C655 C 0.57473 0.82335 0.16872 0.0
C656 C 0.56333 0.82334 0.11216 0.0
C657 C 0.56441 0.83791 0.08593 0.0
C658 C 0.55083 0.89819 0.11654 0.0
C659 C 0.58083 0.91349 0.26441 0.0
O660 O 0.57476 0.94584 1.01163 0.0
O661 O 0.58493 0.95365 0.13767 0.0
O662 O 0.61124 0.94509 0.09345 0.0
O663 O 0.59872 0.92014 0.08596 0.0
O664 O 0.58377 0.92668 0.94252 0.0
O665 O 0.5805 0.90079 0.94611 0.0
O666 O 0.59141 0.88201 0.10324 0.0
O667 O 0.56669 0.86911 0.053 0.0
O668 O 0.55303 0.88716 0.15301 0.0
O669 O 0.56207 0.90623 0.06444 0.0
O670 O 0.58432 0.90332 0.22536 0.0
O671 O 0.57691 0.92318 0.22268 0.0
H672 H 0.57423 0.97094 0.93146 0.0
H673 H 0.59024 0.99865 0.87773 0.0
H674 H 0.62544 0.00946 0.0751 0.0
H675 H 0.60938 0.98191 0.12916 0.0
H676 H 0.5978 0.86422 0.19814 0.0
H677 H 0.59572 0.83885 0.24532 0.0
H678 H 0.55394 0.81212 0.0852 0.0
H679 H 0.55583 0.83747 0.03968 0.0
Nd680 Nd 0.13002 0.67807 0.08456 0.0
Nd681 Nd 0.16806 0.71029 0.0873 0.0
C682 C 0.10409 0.649 0.07421 0.0
C683 C 0.08826 0.642 0.03173 0.0
C684 C 0.07624 0.62603 0.04965 0.0
C685 C 0.061 0.61934 1.01135 0.0
C686 C 0.05749 0.62852 0.95429 0.0
C687 C 0.06969 0.64454 0.93607 0.0
C688 C 0.08492 0.65122 0.97452 0.0
C689 C 0.13075 0.70745 0.07636 0.0
C690 C 0.14922 0.69446 0.906 0.0
C691 C 0.19271 0.7404 0.08539 0.0
C692 C 0.20862 0.75328 0.11739 0.0
C693 C 0.21004 0.76795 0.14469 0.0
C694 C 0.2252 0.78128 0.164 0.0
C695 C 0.23943 0.7803 0.15679 0.0
C696 C 0.23791 0.76538 0.13191 0.0
C697 C 0.2227 0.75204 0.11213 0.0
C698 C 0.16663 0.68045 0.10409 0.0
C699 C 0.14912 0.69366 0.26527 0.0
O700 O 0.11678 0.65387 0.02487 0.0
O701 O 0.10646 0.65912 0.13596 0.0
O702 O 0.11741 0.69354 0.07569 0.0
O703 O 0.14247 0.70491 0.07826 0.0
O704 O 0.13728 0.68175 0.94487 0.0
O705 O 0.16102 0.70706 0.9463 0.0
O706 O 0.17974 0.7358 0.13223 0.0
O707 O 0.19215 0.72874 0.03878 0.0
O708 O 0.18023 0.69423 0.10535 0.0
O709 O 0.15541 0.68352 0.09428 0.0
O710 O 0.16056 0.70683 0.22661 0.0
O711 O 0.13786 0.68064 0.22461 0.0
H712 H 0.07861 0.61874 0.09361 0.0
H713 H 0.052 0.60693 0.02609 0.0
H714 H 0.06736 0.65205 0.89344 0.0
H715 H 0.09405 0.66363 0.9602 0.0
H716 H 0.19943 0.76933 0.14815 0.0
H717 H 0.22578 0.79253 0.18151 0.0
H718 H 0.2485 0.76401 0.12691 0.0
H719 H 0.22203 0.74092 0.09092 0.0
H720 H 0.11654 0.37862 0.55804 0.0
H721 H 0.10736 0.35702 0.31006 0.0
H722 H 0.10111 0.35172 0.6212 0.0
H723 H 0.09138 0.33019 0.37305 0.0
H724 H 0.06956 0.28223 0.50897 0.0
H725 H 0.09135 0.30893 0.46216 0.0
H726 H 0.07251 0.33198 0.62546 0.0
H727 H 0.05112 0.30553 0.67208 0.0
C728 C 0.11139 0.36814 0.51699 0.0
C729 C 0.1131 0.37002 0.42886 0.0
C730 C 0.10244 0.35271 0.5532 0.0
C731 C 0.09496 0.33878 0.50225 0.0
C732 C 0.09712 0.34062 0.4143 0.0
C733 C 0.10608 0.35604 0.37808 0.0
C734 C 0.07055 0.29304 0.53707 0.0
C735 C 0.05882 0.29189 0.59474 0.0
C736 C 0.08284 0.30832 0.50941 0.0
C737 C 0.08364 0.32261 0.53973 0.0
C738 C 0.07244 0.3213 0.60147 0.0
C739 C 0.06014 0.30613 0.62819 0.0
H740 H 0.77847 0.79994 0.44263 0.0
H741 H 0.76232 0.79614 0.69996 0.0
H742 H 0.75185 0.79375 0.39231 0.0
H743 H 0.73575 0.7908 0.6506 0.0
H744 H 0.68559 0.75695 0.53494 0.0
H745 H 0.71294 0.76865 0.59073 0.0
H746 H 0.73148 0.80027 0.37316 0.0
H747 H 0.70414 0.78825 0.31674 0.0
C748 C 0.76937 0.79852 0.4883 0.0
C749 C 0.77242 0.79879 0.57494 0.0
C750 C 0.75405 0.79493 0.45965 0.0
C751 C 0.74147 0.7916 0.51725 0.0
C752 C 0.74499 0.79295 0.60429 0.0
C753 C 0.76027 0.79631 0.63281 0.0
C754 C 0.69548 0.76654 0.49955 0.0
C755 C 0.69267 0.77154 0.42095 0.0
C756 C 0.71122 0.77334 0.53176 0.0
C757 C 0.72456 0.78544 0.48656 0.0
C758 C 0.72162 0.79078 0.40918 0.0
C759 C 0.70591 0.78389 0.37672 0.0
H760 H 0.2932 0.01402 0.66115 0.0
H761 H 0.24729 0.99101 0.53157 0.0
H762 H 0.29801 0.99238 0.61798 0.0
H763 H 0.25191 0.96883 0.48894 0.0
H764 H 0.28014 0.94948 0.32804 0.0
H765 H 0.27018 0.96629 0.38969 0.0
H766 H 0.29057 0.96454 0.63027 0.0
H767 H 0.3006 0.9478 0.5685 0.0
C768 C 0.28389 1.00402 0.62526 0.0
C769 C 0.26985 1.00414 0.60002 0.0
C770 C 0.28662 0.99154 0.6007 0.0
C771 C 0.27538 0.97882 0.54973 0.0
C772 C 0.26088 0.97852 0.52764 0.0
C773 C 0.2581 0.99107 0.55293 0.0
C774 C 0.28227 0.95244 0.39447 0.0
C775 C 0.29132 0.94739 0.44305 0.0
C776 C 0.27649 0.96205 0.42996 0.0
C777 C 0.27961 0.96685 0.51496 0.0
C778 C 0.28816 0.9613 0.56425 0.0
C779 C 0.29397 0.95174 0.52875 0.0
H780 H 0.36897 0.12661 0.67027 0.0
H781 H 0.3521 0.09122 0.87188 0.0
H782 H 0.39664 0.13793 0.72072 0.0
H783 H 0.3799 0.10277 0.92297 0.0
H784 H 0.43232 0.13205 0.01523 0.0
H785 H 0.40493 0.12717 0.98265 0.0
H786 H 0.41456 0.12637 0.71659 0.0
H787 H 0.44147 0.13112 0.74926 0.0
C788 C 0.37113 0.12127 0.7256 0.0
C789 C 0.3583 0.10779 0.76597 0.0
C790 C 0.387 0.12785 0.75485 0.0
C791 C 0.39048 0.12119 0.82549 0.0
C792 C 0.37759 0.10829 0.86889 0.0
C793 C 0.36166 0.10164 0.83938 0.0
C794 C 0.42865 0.13135 0.94997 0.0
C795 C 0.43891 0.13203 0.88454 0.0
C796 C 0.41297 0.12837 0.9313 0.0
C797 C 0.40758 0.12637 0.84702 0.0
C798 C 0.41835 0.12807 0.782 0.0
C799 C 0.43377 0.13077 0.80064 0.0
H800 H 0.91587 0.3263 0.82219 0.0
H801 H 0.95079 0.34048 0.0231 0.0
H802 H 0.9223 0.30551 0.778 0.0
H803 H 0.95654 0.31921 0.98338 0.0
H804 H 0.98213 0.3006 0.81696 0.0
H805 H 0.97161 0.31701 0.87459 0.0
H806 H 0.9233 0.28128 0.79566 0.0
H807 H 0.93413 0.26535 0.73198 0.0
C808 C 0.92436 0.32443 0.85916 0.0
C809 C 0.93285 0.3349 0.92597 0.0
C810 C 0.92813 0.31257 0.83378 0.0
C811 C 0.94028 0.3109 0.87573 0.0
C812 C 0.94755 0.32046 0.94759 0.0
C813 C 0.94407 0.33249 0.97146 0.0
C814 C 0.96929 0.29627 0.81084 0.0
C815 C 0.95905 0.28166 0.76899 0.0
C816 C 0.96314 0.30557 0.84555 0.0
C817 C 0.9465 0.30045 0.8409 0.0
C818 C 0.93618 0.2857 0.80014 0.0
C819 C 0.94238 0.27645 0.76448 0.0
H820 H 0.75925 0.70724 0.82254 0.0
H821 H 0.79714 0.69783 0.74138 0.0
H822 H 0.74302 0.67904 0.86865 0.0
H823 H 0.78093 0.66975 0.79023 0.0
H824 H 0.73587 0.62511 0.99623 0.0
H825 H 0.75768 0.65343 0.97234 0.0
H826 H 0.73888 0.65234 0.72352 0.0
H827 H 0.71741 0.62447 0.7466 0.0
C828 C 0.76425 0.69928 0.81562 0.0
C829 C 0.77947 0.70483 0.77729 0.0
C830 C 0.75504 0.68323 0.84318 0.0
C831 C 0.76091 0.67243 0.83397 0.0
C832 C 0.77636 0.67802 0.79941 0.0
C833 C 0.78558 0.69409 0.77144 0.0
C834 C 0.73676 0.63083 0.93576 0.0
C835 C 0.72496 0.62271 0.87335 0.0
C836 C 0.74911 0.64697 0.92237 0.0
C837 C 0.74974 0.65492 0.84635 0.0
C838 C 0.73855 0.64641 0.78257 0.0
C839 C 0.72631 0.63049 0.79589 0.0
H840 H 0.99758 0.77786 0.52808 0.0
H841 H 1.0123 0.75348 0.34993 0.0
H842 H 0.97564 0.75148 0.57796 0.0
H843 H 0.99045 0.72729 0.39836 0.0
H844 H 0.94441 0.68207 0.47476 0.0
H845 H 0.96038 0.70905 0.412 0.0
H846 H 0.9774 0.72934 0.65945 0.0
H847 H 0.96129 0.70245 0.7223 0.0
C848 C 0.9957 0.76689 0.4974 0.0
C849 C 1.00646 0.76761 0.43472 0.0
C850 C 0.98331 0.75182 0.52655 0.0
C851 C 0.98138 0.73732 0.49225 0.0
C852 C 0.99151 0.73821 0.42549 0.0
C853 C 1.00401 0.75319 0.3977 0.0
C854 C 0.95136 0.69233 0.51584 0.0
C855 C 0.95168 0.69011 0.60343 0.0
C856 C 0.96054 0.70776 0.47989 0.0
C857 C 0.97009 0.72132 0.53082 0.0
C858 C 0.96999 0.71918 0.61865 0.0
C859 C 0.96094 0.70374 0.65451 0.0
H860 H 0.30647 0.2794 0.31876 0.0
H861 H 0.28592 0.2483 0.53559 0.0
H862 H 0.33347 0.28534 0.36061 0.0
H863 H 0.31306 0.2551 0.58202 0.0
H864 H 0.36425 0.2655 0.63155 0.0
H865 H 0.33732 0.25474 0.57077 0.0
H866 H 0.35211 0.30167 0.45987 0.0
H867 H 0.37901 0.31215 0.51851 0.0
C868 C 0.30779 0.27361 0.37475 0.0
C869 C 0.29421 0.26331 0.42357 0.0
C870 C 0.32328 0.27722 0.39978 0.0
C871 C 0.32564 0.27109 0.47612 0.0
C872 C 0.31183 0.25999 0.52256 0.0
C873 C 0.29623 0.25603 0.49601 0.0
C874 C 0.36173 0.27348 0.59386 0.0
C875 C 0.37382 0.2897 0.57984 0.0
C876 C 0.34624 0.26731 0.55908 0.0
C877 C 0.34239 0.27724 0.50977 0.0
C878 C 0.35459 0.29344 0.49543 0.0
C879 C 0.37009 0.29954 0.52948 0.0
H880 H 0.77976 0.12212 0.47726 0.0
H881 H 0.7737 0.10227 0.72879 0.0
H882 H 0.79037 0.10469 0.42974 0.0
H883 H 0.78415 0.08495 0.68128 0.0
H884 H 0.77414 0.03978 0.53181 0.0
H885 H 0.77007 0.0614 0.58195 0.0
H886 H 0.81332 0.09655 0.4511 0.0
H887 H 0.81761 0.07436 0.4004 0.0
C888 C 0.78096 0.11427 0.5227 0.0
C889 C 0.77558 0.11336 0.60651 0.0
C890 C 0.78711 0.10438 0.49552 0.0
C891 C 0.78798 0.0934 0.55168 0.0
C892 C 0.78344 0.09316 0.63634 0.0
C893 C 0.77732 0.10299 0.66337 0.0
C894 C 0.7829 0.0521 0.5137 0.0
C895 C 0.79616 0.05538 0.4618 0.0
C896 C 0.7806 0.06452 0.54311 0.0
C897 C 0.79141 0.08068 0.521 0.0
C898 C 0.80481 0.08415 0.46909 0.0
C899 C 0.80731 0.07155 0.44052 0.0
H900 H 0.63006 0.91857 0.03132 0.0
H901 H 0.62769 0.94698 0.23665 0.0
H902 H 0.65659 0.92356 0.08322 0.0
H903 H 0.65377 0.95194 0.28821 0.0
H904 H 0.69523 0.94979 0.40111 0.0
H905 H 0.66755 0.93879 0.35136 0.0
H906 H 0.68468 0.94817 0.09368 0.0
H907 H 0.71255 0.95926 0.14363 0.0
C908 C 0.63505 0.92552 0.08851 0.0
C909 C 0.62692 0.93236 0.13042 0.0
C910 C 0.65025 0.92852 0.11771 0.0
C911 C 0.65729 0.93815 0.18991 0.0
C912 C 0.64866 0.94431 0.23323 0.0
C913 C 0.63373 0.94152 0.20357 0.0
C914 C 0.69313 0.94953 0.3338 0.0
C915 C 0.70616 0.95567 0.27649 0.0
C916 C 0.67724 0.94314 0.30526 0.0
C917 C 0.67391 0.94271 0.21859 0.0
C918 C 0.68683 0.94817 0.16081 0.0
C919 C 0.7028 0.95458 0.18947 0.0
H920 H 0.13072 0.7925 0.28814 0.0
H921 H 0.08237 0.75742 0.20694 0.0
H922 H 0.1412 0.77646 0.22223 0.0
H923 H 0.09256 0.7409 0.14711 0.0
H924 H 0.11278 0.71744 0.9935 0.0
H925 H 0.10722 0.73871 0.03606 0.0
H926 H 0.1421 0.75212 0.23812 0.0
H927 H 0.1483 0.73131 0.19118 0.0
C928 C 0.12232 0.78142 0.25601 0.0
C929 C 0.10566 0.77629 0.25317 0.0
C930 C 0.12832 0.7721 0.21908 0.0
C931 C 0.11781 0.75737 0.17869 0.0
C932 C 0.10117 0.75232 0.1758 0.0
C933 C 0.09522 0.76169 0.21177 0.0
C934 C 0.11967 0.72536 0.04506 0.0
C935 C 0.13101 0.72287 0.08875 0.0
C936 C 0.1163 0.73738 0.07054 0.0
C937 C 0.12383 0.74687 0.14228 0.0
C938 C 0.13608 0.74511 0.18249 0.0
C939 C 0.13971 0.73325 0.1555 0.0
H940 H 0.33128 0.42963 1.01129 0.0
H941 H 0.34212 0.43889 0.2763 0.0
H942 H 0.30933 0.40202 0.04518 0.0
H943 H 0.32043 0.41169 0.31042 0.0
H944 H 0.27494 0.365 0.3571 0.0
H945 H 0.29111 0.39294 0.30928 0.0
H946 H 0.30951 0.37732 0.1024 0.0
H947 H 0.29349 0.34928 0.15095 0.0
C948 C 0.32855 0.42594 0.07675 0.0
C949 C 0.33819 0.43632 0.14142 0.0
C950 C 0.31619 0.41011 0.09615 0.0
C951 C 0.31318 0.40464 0.18051 0.0
C952 C 0.32226 0.41552 0.24497 0.0
C953 C 0.33468 0.43112 0.22553 0.0
C954 C 0.28244 0.36747 0.30149 0.0
C955 C 0.28308 0.35484 0.25885 0.0
C956 C 0.29163 0.3835 0.27374 0.0
C957 C 0.30165 0.38738 0.20226 0.0
C958 C 0.30176 0.37472 0.15712 0.0
C959 C 0.29259 0.35864 0.18517 0.0
H960 H 0.03302 0.45995 0.0556 0.0
H961 H 0.02031 0.41274 0.15486 0.0
H962 H 0.05972 0.47138 0.1202 0.0
H963 H 0.0472 0.42382 0.21359 0.0
H964 H 0.09158 0.44594 0.36105 0.0
H965 H 0.06452 0.43984 0.31969 0.0
H966 H 0.08492 0.47231 0.10624 0.0
H967 H 0.11214 0.47912 0.15187 0.0
C968 C 0.03585 0.452 0.09148 0.0
C969 C 0.02442 0.43537 0.09973 0.0
C970 C 0.05128 0.45854 0.12769 0.0
C971 C 0.05572 0.44862 0.17273 0.0
C972 C 0.04423 0.43201 0.18115 0.0
C973 C 0.0288 0.42553 0.14586 0.0
C974 C 0.09026 0.45224 0.30726 0.0
C975 C 0.10386 0.46306 0.25998 0.0
C976 C 0.07474 0.44854 0.28246 0.0
C977 C 0.07239 0.45517 0.20797 0.0
C978 C 0.08618 0.46697 0.16406 0.0
C979 C 0.10182 0.47097 0.19028 0.0
H980 H 0.61188 0.61352 0.99565 0.0
H981 H 0.6345 0.61417 0.23288 0.0
H982 H 0.60166 0.63011 0.05673 0.0
H983 H 0.62408 0.63061 0.29454 0.0
H984 H 0.62545 0.67946 0.32067 0.0
H985 H 0.63045 0.65784 0.28055 0.0
H986 H 0.58394 0.63312 0.15558 0.0
H987 H 0.57914 0.65537 0.1949 0.0
C988 C 0.61441 0.61693 0.06142 0.0
C989 C 0.62413 0.61259 0.10916 0.0
C990 C 0.60847 0.62641 0.09664 0.0
C991 C 0.61205 0.63178 0.18062 0.0
C992 C 0.62128 0.62693 0.22923 0.0
C993 C 0.6273 0.61753 0.19387 0.0
C994 C 0.6161 0.66922 0.2863 0.0
C995 C 0.60193 0.66908 0.2608 0.0
C996 C 0.61893 0.65674 0.26355 0.0
C997 C 0.60765 0.6437 0.21443 0.0
C998 C 0.59298 0.64308 0.19268 0.0
C999 C 0.59011 0.65567 0.216 0.0
H1000 H 0.43171 0.02518 0.98319 0.0
H1001 H 0.45363 0.0441 0.2257 0.0
H1002 H 0.41697 0.99788 0.04316 0.0
H1003 H 0.43893 0.01672 0.28559 0.0
H1004 H 0.38783 0.97145 0.3606 0.0
H1005 H 0.40887 0.99808 0.31196 0.0
H1006 H 0.42098 0.97551 0.11033 0.0
H1007 H 0.39998 0.94868 0.16077 0.0
C1008 C 0.43341 0.02349 0.04926 0.0
C1009 C 0.44373 0.0368 0.09992 0.0
C1010 C 0.42515 1.00783 0.08326 0.0
C1011 C 0.42688 1.00516 0.16893 0.0
C1012 C 0.43739 0.01843 0.21933 0.0
C1013 C 0.44581 0.03407 0.18505 0.0
C1014 C 0.39544 0.97218 0.30797 0.0
C1015 C 0.39248 0.9581 0.26502 0.0
C1016 C 0.40746 0.98741 0.27996 0.0
C1017 C 0.41649 0.98888 0.20702 0.0
C1018 C 0.41414 0.9747 0.16661 0.0
C1019 C 0.4023 0.95938 0.19598 0.0
H1020 H 0.65771 0.10004 0.69879 0.0
H1021 H 0.68906 0.10184 0.89971 0.0
H1022 H 0.63629 0.07342 0.75094 0.0
H1023 H 0.66803 0.07568 0.95172 0.0
H1024 H 0.6242 0.03409 0.06649 0.0
H1025 H 0.64127 0.06183 0.01736 0.0
H1026 H 0.63267 0.04526 0.75909 0.0
H1027 H 0.61559 0.01736 0.8083 0.0
C1028 C 0.65983 0.0949 0.75508 0.0
C1029 C 0.67492 0.1029 0.79562 0.0
C1030 C 0.6477 0.07965 0.78443 0.0
C1031 C 0.65046 0.07242 0.85554 0.0
C1032 C 0.66538 0.08092 0.89758 0.0
C1033 C 0.67747 0.0959 0.86765 0.0
C1034 C 0.62595 0.03631 0.99919 0.0
C1035 C 0.61868 0.02342 0.94149 0.0
C1036 C 0.63568 0.05224 0.971 0.0
C1037 C 0.6384 0.05576 0.8843 0.0
C1038 C 0.63066 0.04299 0.82626 0.0
C1039 C 0.62091 0.02699 0.85454 0.0
H1040 H 0.04987 0.63186 0.79133 0.0
H1041 H 0.0279 0.60933 0.02922 0.0
H1042 H 0.02307 0.62188 0.73046 0.0
H1043 H 1.00109 0.59947 0.96864 0.0
H1044 H 0.95336 0.57741 0.82853 0.0
H1045 H 0.98024 0.58196 0.86892 0.0
H1046 H 1.0025 0.62878 0.74576 0.0
H1047 H 0.97601 0.62404 0.70461 0.0
C1048 C 0.03933 0.62478 0.83072 0.0
C1049 C 0.04109 0.62154 0.91547 0.0
C1050 C 0.02393 0.61901 0.79574 0.0
C1051 C 1.00985 0.60993 0.84467 0.0
C1052 C 1.0116 0.60621 0.92859 0.0
C1053 C 0.02702 0.61193 0.9635 0.0
C1054 C 0.96408 0.58839 0.80798 0.0
C1055 C 0.96265 0.60035 0.76318 0.0
C1056 C 0.97946 0.59112 0.832 0.0
C1057 C 0.9936 0.60579 0.81098 0.0
C1058 C 0.99201 0.61725 0.76217 0.0
C1059 C 0.97677 0.61457 0.73876 0.0
H1060 H 0.41635 0.42499 0.83824 0.0
H1061 H 0.46235 0.46013 0.94617 0.0
H1062 H 0.42837 0.40882 0.79167 0.0
H1063 H 0.47426 0.444 0.89771 0.0
H1064 H 0.47319 0.39933 0.67662 0.0
H1065 H 0.46672 0.42118 0.69916 0.0
H1066 H 0.45105 0.40391 0.95277 0.0
H1067 H 0.45725 0.38226 0.93065 0.0
C1068 C 0.42905 0.42943 0.85078 0.0
C1069 C 0.43833 0.44384 0.89654 0.0
C1070 C 0.43596 0.42028 0.82306 0.0
C1071 C 0.45226 0.4254 0.84003 0.0
C1072 C 0.46175 0.44006 0.88249 0.0
C1073 C 0.45488 0.44924 0.91018 0.0
C1074 C 0.4688 0.40055 0.73769 0.0
C1075 C 0.46565 0.38914 0.8019 0.0
C1076 C 0.46501 0.41291 0.75031 0.0
C1077 C 0.45834 0.41403 0.82752 0.0
C1078 C 0.45618 0.40322 0.89287 0.0
C1079 C 0.45976 0.39089 0.88012 0.0
H1080 H 0.14625 0.26349 0.45897 0.0
H1081 H 0.12104 0.21515 0.5648 0.0
H1082 H 0.17037 0.26138 0.44119 0.0
H1083 H 0.14472 0.21246 0.53962 0.0
H1084 H 0.19415 0.21712 0.56647 0.0
H1085 H 0.17037 0.21997 0.58718 0.0
H1086 H 0.18342 0.25063 0.36557 0.0
H1087 H 0.20766 0.24839 0.34828 0.0
C1088 C 0.14576 0.25234 0.47827 0.0
C1089 C 0.13156 0.23956 0.5143 0.0
C1090 C 0.15963 0.25102 0.46657 0.0
C1091 C 0.15972 0.23675 0.489 0.0
C1092 C 0.14538 0.2238 0.52299 0.0
C1093 C 0.13158 0.22523 0.53602 0.0
C1094 C 0.19195 0.22453 0.52251 0.0
C1095 C 0.20276 0.2325 0.45571 0.0
C1096 C 0.17818 0.22606 0.53379 0.0
C1097 C 0.17469 0.23542 0.47773 0.0
C1098 C 0.18567 0.24349 0.41105 0.0
C1099 C 0.19958 0.24214 0.40062 0.0
H1100 H 0.81 0.98608 0.51201 0.0
H1101 H 0.84565 0.99933 0.31437 0.0
H1102 H 0.80883 0.96016 0.52888 0.0
H1103 H 0.84393 0.97294 0.32769 0.0
H1104 H 0.85135 0.93291 0.43752 0.0
H1105 H 0.8515 0.9581 0.4133 0.0
H1106 H 0.80056 0.93451 0.47663 0.0
H1107 H 0.80077 0.90965 0.50811 0.0
C1108 C 0.81744 0.98333 0.47118 0.0
C1109 C 0.82802 0.99481 0.41222 0.0
C1110 C 0.81667 0.96834 0.48034 0.0
C1111 C 0.82631 0.96428 0.42991 0.0
C1112 C 0.83655 0.97566 0.36905 0.0
C1113 C 0.83746 0.99077 0.36069 0.0
C1114 C 0.84019 0.93308 0.44744 0.0
C1115 C 0.82609 0.91912 0.47579 0.0
C1116 C 0.84021 0.94756 0.43196 0.0
C1117 C 0.82605 0.94854 0.44285 0.0
C1118 C 0.81181 0.93444 0.4688 0.0
C1119 C 0.81185 0.92 0.48553 0.0
H1120 H 0.07863 0.84688 0.4644 0.0
H1121 H 0.05686 0.87708 0.44738 0.0
H1122 H 0.10518 0.87096 0.48682 0.0
H1123 H 0.08329 0.90114 0.46644 0.0
H1124 H 0.12889 0.93984 0.59023 0.0
H1125 H 0.10299 0.91545 0.56812 0.0
H1126 H 0.12673 0.89462 0.42503 0.0
H1127 H 0.15286 0.91866 0.4523 0.0
C1128 C 0.07957 0.85869 0.46462 0.0
C1129 C 0.06568 0.86011 0.45436 0.0
C1130 C 0.0948 0.87254 0.47704 0.0
C1131 C 0.09649 0.88812 0.47899 0.0
C1132 C 0.08253 0.88941 0.4673 0.0
C1133 C 0.06734 0.8756 0.45566 0.0
C1134 C 0.12868 0.93002 0.55488 0.0
C1135 C 0.1431 0.93134 0.52331 0.0
C1136 C 0.11371 0.91604 0.54102 0.0
C1137 C 0.11261 0.90297 0.49421 0.0
C1138 C 0.12703 0.9043 0.46212 0.0
C1139 C 0.14205 0.91826 0.47666 0.0
H1140 H 0.26044 0.14781 0.55956 0.0
H1141 H 0.2137 0.12209 0.43792 0.0
H1142 H 0.25902 0.1221 0.59143 0.0
H1143 H 0.21288 0.09663 0.46359 0.0
H1144 H 0.20725 0.05152 0.58701 0.0
H1145 H 0.2089 0.0776 0.56544 0.0
H1146 H 0.26086 0.10028 0.53498 0.0
H1147 H 0.25911 0.07412 0.56048 0.0
C1148 C 0.24983 0.13671 0.53971 0.0
C1149 C 0.23718 0.13718 0.49611 0.0
C1150 C 0.24913 0.12191 0.5568 0.0
C1151 C 0.23583 0.10711 0.53024 0.0
C1152 C 0.22322 0.10763 0.48662 0.0
C1153 C 0.22382 0.12237 0.47051 0.0
C1154 C 0.21902 0.06211 0.57605 0.0
C1155 C 0.23304 0.06077 0.57555 0.0
C1156 C 0.21999 0.07711 0.56291 0.0
C1157 C 0.23501 0.09121 0.54756 0.0
C1158 C 0.24909 0.08983 0.54765 0.0
C1159 C 0.24811 0.0748 0.56183 0.0
H1160 H 0.93777 0.11951 0.43232 0.0
H1161 H 0.91388 0.13954 0.58001 0.0
H1162 H 0.96365 0.14404 0.45428 0.0
H1163 H 0.93989 0.16406 0.60385 0.0
H1164 H 0.98766 0.21217 0.56528 0.0
H1165 H 0.96118 0.18802 0.54236 0.0
H1166 H 0.98351 0.15816 0.55596 0.0
H1167 H 1.00985 0.1823 0.57564 0.0
C1168 C 0.93807 0.1291 0.47035 0.0
C1169 C 0.92372 0.12749 0.50459 0.0
C1170 C 0.95297 0.14321 0.48324 0.0
C1171 C 0.95402 0.15612 0.53148 0.0
C1172 C 0.93962 0.15454 0.5654 0.0
C1173 C 0.92467 0.14043 0.55191 0.0
C1174 C 0.98683 0.20041 0.56339 0.0
C1175 C 1.00082 0.19911 0.57198 0.0
C1176 C 0.97164 0.18653 0.55067 0.0
C1177 C 0.97009 0.17102 0.54668 0.0
C1178 C 0.98416 0.16984 0.55663 0.0
C1179 C 0.9993 0.18369 0.5686 0.0
H1180 H 0.94042 0.8255 0.65642 0.0
H1181 H 0.92665 0.81614 0.39394 0.0
H1182 H 0.91543 0.82573 0.68752 0.0
H1183 H 0.90212 0.81709 0.42425 0.0
H1184 H 0.8519 0.80362 0.51579 0.0
H1185 H 0.87632 0.80189 0.49304 0.0
H1186 H 0.90252 0.84175 0.66547 0.0
H1187 H 0.87793 0.84321 0.68936 0.0
C1188 C 0.93209 0.82351 0.6053 0.0
C1189 C 0.93564 0.82085 0.52258 0.0
C1190 C 0.91782 0.8238 0.623 0.0
C1191 C 0.90669 0.8214 0.5585 0.0
C1192 C 0.91026 0.81877 0.47583 0.0
C1193 C 0.92449 0.81847 0.45818 0.0
C1194 C 0.86284 0.81191 0.54945 0.0
C1195 C 0.86302 0.82359 0.60416 0.0
C1196 C 0.8769 0.81101 0.53589 0.0
C1197 C 0.89149 0.82178 0.57676 0.0
C1198 C 0.8915 0.83317 0.63342 0.0
C1199 C 0.87742 0.83406 0.64695 0.0
H1200 H 0.88006 0.58913 0.85552 0.0
H1201 H 0.85518 0.55012 0.67751 0.0
H1202 H 0.85542 0.59061 0.87511 0.0
H1203 H 0.83037 0.55136 0.69801 0.0
H1204 H 0.79238 0.56763 0.70035 0.0
H1205 H 0.81752 0.5674 0.67386 0.0
H1206 H 0.82915 0.57531 0.93921 0.0
H1207 H 0.80445 0.57623 0.96503 0.0
C1208 C 0.86931 0.58089 0.82036 0.0
C1209 C 0.86954 0.56945 0.76525 0.0
C1210 C 0.85513 0.58165 0.83204 0.0
C1211 C 0.84078 0.57101 0.78875 0.0
C1212 C 0.84117 0.55984 0.73195 0.0
C1213 C 0.85538 0.55906 0.72042 0.0
C1214 C 0.80036 0.56946 0.75295 0.0
C1215 C 0.79628 0.5719 0.83492 0.0
C1216 C 0.81473 0.56916 0.73788 0.0
C1217 C 0.82545 0.57135 0.8043 0.0
C1218 C 0.82134 0.57378 0.8862 0.0
C1219 C 0.807 0.57407 0.90125 0.0
H1220 H 0.47306 0.31678 0.79834 0.0
H1221 H 0.52486 0.33989 0.76562 0.0
H1222 H 0.47158 0.2906 0.81658 0.0
H1223 H 0.52344 0.31373 0.77967 0.0
H1224 H 0.51893 0.26812 0.89349 0.0
H1225 H 0.51983 0.29383 0.87567 0.0
H1226 H 0.47323 0.26942 0.75172 0.0
H1227 H 0.47175 0.24348 0.77581 0.0
C1228 C 0.48412 0.31621 0.7943 0.0
C1229 C 0.49909 0.33038 0.7809 0.0
C1230 C 0.48328 0.30116 0.80411 0.0
C1231 C 0.49739 0.29989 0.79989 0.0
C1232 C 0.51233 0.31414 0.78522 0.0
C1233 C 0.51316 0.32918 0.77645 0.0
C1234 C 0.50874 0.26814 0.8634 0.0
C1235 C 0.49523 0.25356 0.83656 0.0
C1236 C 0.50938 0.28302 0.85184 0.0
C1237 C 0.49664 0.28389 0.81182 0.0
C1238 C 0.48321 0.26933 0.78384 0.0
C1239 C 0.48248 0.25439 0.79639 0.0
H1240 H 0.74461 0.18721 0.69228 0.0
H1241 H 0.72515 0.20383 0.88924 0.0
H1242 H 0.77102 0.21176 0.70768 0.0
H1243 H 0.75155 0.22811 0.90656 0.0
H1244 H 0.79504 0.27756 0.85753 0.0
H1245 H 0.76922 0.25288 0.83831 0.0
H1246 H 0.79416 0.22606 0.7966 0.0
H1247 H 0.82013 0.25103 0.81115 0.0
C1248 C 0.74603 0.19606 0.73938 0.0
C1249 C 0.73278 0.19365 0.78916 0.0
C1250 C 0.7612 0.21011 0.74857 0.0
C1251 C 0.76349 0.22207 0.80799 0.0
C1252 C 0.75023 0.2194 0.85886 0.0
C1253 C 0.73509 0.2054 0.84943 0.0
C1254 C 0.7951 0.26649 0.84279 0.0
C1255 C 0.80979 0.26641 0.83548 0.0
C1256 C 0.7802 0.25221 0.8331 0.0
C1257 C 0.77949 0.23735 0.81645 0.0
C1258 C 0.79417 0.23726 0.80862 0.0
C1259 C 0.80911 0.25158 0.81798 0.0
H1260 H 0.90837 0.47751 1.00112 0.0
H1261 H 0.90708 0.46887 0.73299 0.0
H1262 H 0.90846 0.45223 0.02833 0.0
H1263 H 0.90683 0.44355 0.76014 0.0
H1264 H 0.92325 0.40781 0.83431 0.0
H1265 H 0.92483 0.43399 0.81432 0.0
H1266 H 0.88988 0.42245 0.01444 0.0
H1267 H 0.88833 0.39619 0.03447 0.0
C1268 C 0.90816 0.47026 0.94804 0.0
C1269 C 0.90764 0.4752 0.86492 0.0
C1270 C 0.90807 0.45571 0.96363 0.0
C1271 C 0.90766 0.44586 0.89644 0.0
C1272 C 0.90731 0.45091 0.81337 0.0
C1273 C 0.90727 0.46535 0.79784 0.0
C1274 C 0.91599 0.41091 0.87449 0.0
C1275 C 0.9056 0.39992 0.93574 0.0
C1276 C 0.91683 0.42588 0.86268 0.0
C1277 C 0.9074 0.43029 0.91238 0.0
C1278 C 0.89738 0.41948 0.97547 0.0
C1279 C 0.89644 0.40442 0.98677 0.0
H1280 H 0.60302 0.45008 0.76822 0.0
H1281 H 0.57944 0.47179 0.90517 0.0
H1282 H 0.62901 0.47456 0.78757 0.0
H1283 H 0.60562 0.49589 0.92953 0.0
H1284 H 0.65287 0.54357 0.88261 0.0
H1285 H 0.62656 0.51916 0.86338 0.0
H1286 H 0.64935 0.48983 0.88569 0.0
H1287 H 0.67566 0.51434 0.90187 0.0
C1288 C 0.60334 0.46003 0.80282 0.0
C1289 C 0.58899 0.45883 0.83485 0.0
C1290 C 0.61836 0.47406 0.81505 0.0
C1291 C 0.61958 0.48733 0.86044 0.0
C1292 C 0.60525 0.48608 0.89331 0.0
C1293 C 0.59019 0.47207 0.88047 0.0
C1294 C 0.65221 0.53189 0.88349 0.0
C1295 C 0.66632 0.53086 0.89372 0.0
C1296 C 0.63709 0.51784 0.87297 0.0
C1297 C 0.63569 0.50238 0.87286 0.0
C1298 C 0.64988 0.50145 0.88383 0.0
C1299 C 0.665 0.51551 0.89375 0.0
H1300 H 0.58701 0.13006 0.84803 0.0
H1301 H 0.61477 0.18236 0.86067 0.0
H1302 H 0.56239 0.1308 0.87886 0.0
H1303 H 0.58996 0.18314 0.8867 0.0
H1304 H 0.54421 0.17869 1.0062 0.0
H1305 H 0.56913 0.17755 0.98747 0.0
H1306 H 0.54421 0.1376 0.81395 0.0
H1307 H 0.51935 0.13848 0.83485 0.0
C1308 C 0.58792 0.14174 0.85794 0.0
C1309 C 0.60299 0.15615 0.85203 0.0
C1310 C 0.5737 0.14217 0.8744 0.0
C1311 C 0.57408 0.15704 0.88495 0.0
C1312 C 0.58916 0.17145 0.87994 0.0
C1313 C 0.60341 0.17101 0.86386 0.0
C1314 C 0.54408 0.16962 0.96457 0.0
C1315 C 0.52984 0.15871 0.92193 0.0
C1316 C 0.55839 0.16902 0.95324 0.0
C1317 C 0.55877 0.1575 0.89901 0.0
C1318 C 0.5444 0.14649 0.85717 0.0
C1319 C 0.53014 0.14707 0.86866 0.0
H1320 H 0.54141 0.9162 0.02282 0.0
H1321 H 0.52773 0.88441 0.23894 0.0
H1322 H 0.51699 0.91813 0.0395 0.0
H1323 H 0.50375 0.88696 0.25914 0.0
H1324 H 0.45432 0.88189 0.23528 0.0
H1325 H 0.47813 0.87941 0.21047 0.0
H1326 H 0.50376 0.9286 0.11569 0.0
H1327 H 0.47952 0.93052 0.13308 0.0
C1328 C 0.53324 0.90976 0.07454 0.0
C1329 C 0.53643 0.90007 0.12924 0.0
C1330 C 0.51923 0.91094 0.08465 0.0
C1331 C 0.50816 0.90265 0.15064 0.0
C1332 C 0.51164 0.89322 0.20628 0.0
C1333 C 0.52552 0.89186 0.19531 0.0
C1334 C 0.46488 0.89207 0.20737 0.0
C1335 C 0.46482 0.90643 0.18655 0.0
C1336 C 0.47875 0.89076 0.19455 0.0
C1337 C 0.49312 0.90385 0.16169 0.0
C1338 C 0.49299 0.91814 0.14017 0.0
C1339 C 0.47906 0.91935 0.15165 0.0
H1340 H 0.13873 0.65107 0.12285 0.0
H1341 H 0.19075 0.67319 0.11081 0.0
H1342 H 0.13634 0.62447 0.14385 0.0
H1343 H 0.18849 0.64677 0.12914 0.0
H1344 H 0.18143 0.60084 0.25052 0.0
H1345 H 0.18257 0.62668 0.23108 0.0
H1346 H 0.13909 0.60328 0.07984 0.0
H1347 H 0.13784 0.57724 0.10068 0.0
C1348 C 0.14963 0.65021 0.12391 0.0
C1349 C 0.16492 0.6642 0.11522 0.0
C1350 C 0.14829 0.63495 0.13562 0.0
C1351 C 0.16223 0.63336 0.13877 0.0
C1352 C 0.17748 0.64745 0.12898 0.0
C1353 C 0.1788 0.66264 0.1178 0.0
C1354 C 0.17217 0.60118 0.21246 0.0
C1355 C 0.15964 0.58692 0.1764 0.0
C1356 C 0.17283 0.61607 0.20114 0.0
C1357 C 0.16103 0.61723 0.15298 0.0
C1358 C 0.14832 0.60291 0.118 0.0
C1359 C 0.14761 0.58795 0.12976 0.0
H1360 H 0.48574 0.58707 0.1085 0.0
H1361 H 0.462 0.60794 0.25072 0.0
H1362 H 0.45968 0.5624 0.08793 0.0
H1363 H 0.4361 0.58332 0.23171 0.0
H1364 H 0.38965 0.54423 0.11478 0.0
H1365 H 0.41603 0.56856 0.13154 0.0
H1366 H 0.43847 0.53888 0.15275 0.0
H1367 H 0.41202 0.51459 0.13278 0.0
C1368 C 0.47499 0.58635 0.13603 0.0
C1369 C 0.476 0.59959 0.18056 0.0
C1370 C 0.46 0.57216 0.12441 0.0
C1371 C 0.44563 0.57079 0.1575 0.0
C1372 C 0.44675 0.58398 0.2033 0.0
C1373 C 0.46168 0.59815 0.21443 0.0
C1374 C 0.40024 0.54293 0.12282 0.0
C1375 C 0.39877 0.52752 0.12249 0.0
C1376 C 0.4154 0.55689 0.13311 0.0
C1377 C 0.42951 0.55581 0.14423 0.0
C1378 C 0.42799 0.5403 0.14338 0.0
C1379 C 0.4128 0.52633 0.13243 0.0
H1380 H 0.5925 0.74203 0.18386 0.0
H1381 H 0.55161 0.72692 0.35102 0.0
H1382 H 0.59362 0.76789 0.16109 0.0
H1383 H 0.55294 0.753 0.3302 0.0
H1384 H 0.54814 0.7932 0.19672 0.0
H1385 H 0.54757 0.76779 0.22546 0.0
H1386 H 0.59992 0.79304 0.22393 0.0
H1387 H 0.60048 0.81828 0.1907 0.0
C1388 C 0.58386 0.74433 0.21656 0.0
C1389 C 0.57194 0.73242 0.26908 0.0
C1390 C 0.58455 0.75922 0.20389 0.0
C1391 C 0.57334 0.76261 0.24356 0.0
C1392 C 0.56161 0.75077 0.29752 0.0
C1393 C 0.56093 0.73586 0.31014 0.0
C1394 C 0.55955 0.79335 0.20189 0.0
C1395 C 0.57435 0.80789 0.19122 0.0
C1396 C 0.55922 0.77876 0.21952 0.0
C1397 C 0.5737 0.77828 0.22727 0.0
C1398 C 0.58851 0.79285 0.21754 0.0
C1399 C 0.58883 0.80742 0.19964 0.0
H1400 H 0.3428 0.84951 0.21766 0.0
H1401 H 0.32013 0.87853 0.25321 0.0
H1402 H 0.3163 0.82554 0.19603 0.0
H1403 H 0.29347 0.85454 0.23088 0.0
H1404 H 0.24782 0.80453 0.27446 0.0
H1405 H 0.27408 0.82878 0.29584 0.0
H1406 H 0.29442 0.8137 0.09582 0.0
H1407 H 0.26815 0.7896 0.0734 0.0
C1408 C 0.33212 0.85077 0.22056 0.0
C1409 C 0.33355 0.86591 0.23744 0.0
C1410 C 0.3169 0.83703 0.20771 0.0
C1411 C 0.30267 0.83803 0.2115 0.0
C1412 C 0.30412 0.85323 0.22847 0.0
C1413 C 0.3194 0.86702 0.24101 0.0
C1414 C 0.25782 0.80641 0.23438 0.0
C1415 C 0.25572 0.79495 0.1722 0.0
C1416 C 0.27293 0.82037 0.24673 0.0
C1417 C 0.28645 0.82326 0.1977 0.0
C1418 C 0.28438 0.81179 0.13579 0.0
C1419 C 0.26926 0.79788 0.12312 0.0
H1420 H 0.27345 0.49199 0.3237 0.0
H1421 H 0.2602 0.48291 0.0605 0.0
H1422 H 0.24841 0.4922 0.3535 0.0
H1423 H 0.23561 0.48385 0.08955 0.0
H1424 H 0.18517 0.47029 0.17882 0.0
H1425 H 0.20967 0.46867 0.15662 0.0
H1426 H 0.23549 0.50818 0.3314 0.0
H1427 H 0.21082 0.50954 0.35469 0.0
C1428 C 0.26523 0.49005 0.27213 0.0
C1429 C 0.26895 0.48749 0.1896 0.0
C1430 C 0.25093 0.49034 0.28909 0.0
C1431 C 0.23992 0.48803 0.22404 0.0
C1432 C 0.24365 0.48547 0.14156 0.0
C1433 C 0.25793 0.48518 0.12463 0.0
C1434 C 0.19605 0.47853 0.21306 0.0
C1435 C 0.19609 0.49008 0.26832 0.0
C1436 C 0.21015 0.4777 0.19982 0.0
C1437 C 0.22467 0.48839 0.24158 0.0
C1438 C 0.22454 0.49966 0.29865 0.0
C1439 C 0.21042 0.50049 0.31182 0.0
H1440 H 0.05577 0.25331 0.31548 0.0
H1441 H 1.00408 0.23469 0.31529 0.0
H1442 H 0.056 0.25377 0.16248 0.0
H1443 H 1.00413 0.23441 0.16158 0.0
H1444 H 1.01142 0.25048 0.88739 0.0
H1445 H 1.01129 0.25041 0.04068 0.0
H1446 H 0.04936 0.23821 0.04104 0.0
H1447 H 0.04999 0.23908 0.88751 0.0
C1448 C 0.04438 0.24913 0.28279 0.0
C1449 C 0.02989 0.24395 0.32802 0.0
C1450 C 0.0445 0.24929 0.19455 0.0
C1451 C 0.03008 0.24407 0.1487 0.0
C1452 C 0.01555 0.23879 0.19415 0.0
C1453 C 0.01548 0.23884 0.28261 0.0
C1454 C 0.0198 0.24781 0.92014 0.0
C1455 C 0.03074 0.24482 0.87488 0.0
C1456 C 0.01964 0.24764 1.00844 0.0
C1457 C 0.03027 0.24425 0.05418 0.0
C1458 C 0.04117 0.24117 1.00863 0.0
C1459 C 0.04148 0.24157 0.92023 0.0
H1460 H 0.82515 0.8386 0.3117 0.0
H1461 H 0.80989 0.78758 0.31006 0.0
H1462 H 0.82542 0.83894 0.15837 0.0
H1463 H 0.80929 0.78764 0.15662 0.0
H1464 H 0.825 0.79569 0.88289 0.0
H1465 H 0.82518 0.79568 0.03608 0.0
H1466 H 0.80977 0.8314 0.03709 0.0
H1467 H 0.81043 0.83199 0.88357 0.0
C1468 C 0.82166 0.82739 0.27854 0.0
C1469 C 0.81753 0.81307 0.3232 0.0
C1470 C 0.8217 0.82754 0.19028 0.0
C1471 C 0.81735 0.81331 0.14423 0.0
C1472 C 0.81304 0.79894 0.18931 0.0
C1473 C 0.81326 0.79885 0.2776 0.0
C1474 C 0.82166 0.80356 0.91577 0.0
C1475 C 0.81771 0.81385 0.87077 0.0
C1476 C 0.82164 0.80347 1.00401 0.0
C1477 C 0.81743 0.81349 0.04984 0.0
C1478 C 0.81337 0.82371 1.00453 0.0
C1479 C 0.81363 0.82397 0.91619 0.0
H1480 H 0.23423 1.00605 0.32064 0.0
H1481 H 0.26576 0.05804 0.31822 0.0
H1482 H 0.23452 1.00572 0.16759 0.0
H1483 H 0.26545 0.05785 0.16455 0.0
H1484 H 0.27472 0.05112 0.89095 0.0
H1485 H 0.27479 0.05121 0.04422 0.0
H1486 H 0.22519 0.01172 0.04541 0.0
H1487 H 0.22546 0.01114 0.89188 0.0
C1488 C 0.24111 0.01747 0.28743 0.0
C1489 C 0.24998 0.03208 0.33205 0.0
C1490 C 0.24118 0.01729 0.19918 0.0
C1491 C 0.24996 0.03176 0.15271 0.0
C1492 C 0.25876 0.0464 0.19757 0.0
C1493 C 0.25886 0.04655 0.28602 0.0
C1494 C 0.26383 0.04241 0.92387 0.0
C1495 C 0.25009 0.03109 0.87883 0.0
C1496 C 0.26382 0.04255 0.01218 0.0
C1497 C 0.24998 0.03153 0.05817 0.0
C1498 C 0.23621 0.02023 0.01283 0.0
C1499 C 0.23631 0.01994 0.92443 0.0
H1500 H 1.0102 0.80556 0.71183 0.0
H1501 H 0.06186 0.82401 0.71304 0.0
H1502 H 1.00985 0.80502 0.86487 0.0
H1503 H 0.06169 0.82421 0.86674 0.0
H1504 H 0.05432 0.80819 0.14064 0.0
H1505 H 0.05443 0.80819 0.98739 0.0
H1506 H 0.01644 0.82049 0.98666 0.0
H1507 H 0.01582 0.81969 0.14025 0.0
C1508 C 0.02155 0.80968 0.74476 0.0
C1509 C 0.03607 0.81484 0.69982 0.0
C1510 C 0.02137 0.80948 0.83302 0.0
C1511 C 0.03575 0.81463 0.87915 0.0
C1512 C 0.0503 0.81988 0.83396 0.0
C1513 C 0.05044 0.81988 0.74551 0.0
C1514 C 0.04595 0.81087 0.10783 0.0
C1515 C 0.03505 0.81392 0.15302 0.0
C1516 C 0.04611 0.811 0.01953 0.0
C1517 C 0.0355 0.81441 0.97369 0.0
C1518 C 0.02461 0.81752 0.01915 0.0
C1519 C 0.02431 0.81716 0.10757 0.0
H1520 H 0.24131 0.21977 0.12261 0.0
H1521 H 0.25569 0.27061 0.12142 0.0
H1522 H 0.24072 0.21962 0.96882 0.0
H1523 H 0.25571 0.27062 0.96826 0.0
H1524 H 0.23875 0.26209 0.69563 0.0
H1525 H 0.23866 0.26178 0.84941 0.0
H1526 H 0.25717 0.22855 0.84719 0.0
H1527 H 0.2567 0.22842 0.69401 0.0
C1528 C 0.24451 0.23096 0.08965 0.0
C1529 C 0.24853 0.24519 0.13465 0.0
C1530 C 0.24425 0.2309 1.00124 0.0
C1531 C 0.24814 0.24512 0.95557 0.0
C1532 C 0.25233 0.25936 1.00086 0.0
C1533 C 0.25245 0.25938 0.08906 0.0
C1534 C 0.24279 0.25471 0.72797 0.0
C1535 C 0.2477 0.24527 0.68222 0.0
C1536 C 0.24283 0.2546 0.81637 0.0
C1537 C 0.24791 0.24513 0.86128 0.0
C1538 C 0.2529 0.23577 0.81522 0.0
C1539 C 0.25274 0.23579 0.72701 0.0
H1540 H 0.84127 0.04908 0.13569 0.0
H1541 H 0.79153 0.01009 0.14033 0.0
H1542 H 0.84102 0.04841 0.98199 0.0
H1543 H 0.79096 0.00992 0.98717 0.0
H1544 H 0.79898 1.0019 0.71401 0.0
H1545 H 0.79975 1.00255 0.86746 0.0
H1546 H 0.83156 0.05454 0.85996 0.0
H1547 H 0.83138 0.05372 0.70671 0.0
C1548 C 0.83022 0.04048 0.10391 0.0
C1549 C 0.81645 0.0296 0.15047 0.0
C1550 C 0.83002 0.04015 0.0155 0.0
C1551 C 0.81596 0.02907 0.97134 0.0
C1552 C 0.80213 0.01838 0.01834 0.0
C1553 C 0.80242 0.01856 0.10656 0.0
C1554 C 0.80614 0.01347 0.74517 0.0
C1555 C 0.81512 0.02774 0.69793 0.0
C1556 C 0.80651 0.01388 0.83346 0.0
C1557 C 0.81569 0.02862 0.87695 0.0
C1558 C 0.82458 0.04291 0.8293 0.0
C1559 C 0.82437 0.04246 0.74106 0.0
H1560 H 0.71521 0.5723 0.20759 0.0
H1561 H 0.67784 0.5854 0.20766 0.0
H1562 H 0.71403 0.57063 0.36062 0.0
H1563 H 0.67709 0.58436 0.36132 0.0
H1564 H 0.6685 0.56599 0.63365 0.0
H1565 H 0.66901 0.56684 0.47963 0.0
H1566 H 0.72085 0.58624 0.48336 0.0
H1567 H 0.72023 0.5848 0.63608 0.0
C1568 C 0.70686 0.57502 0.24022 0.0
C1569 C 0.69665 0.57902 0.19493 0.0
C1570 C 0.70623 0.57414 0.32841 0.0
C1571 C 0.69548 0.57738 0.37405 0.0
C1572 C 0.68534 0.58151 0.32866 0.0
C1573 C 0.68587 0.58225 0.2403 0.0
C1574 C 0.67998 0.57032 0.60148 0.0
C1575 C 0.69429 0.57521 0.64754 0.0
C1576 C 0.68031 0.57095 0.513 0.0
C1577 C 0.69498 0.57659 0.4684 0.0
C1578 C 0.70926 0.58152 0.51487 0.0
C1579 C 0.70891 0.58078 0.60298 0.0
H1580 H 0.48961 0.17065 0.63557 0.0
H1581 H 0.48199 0.12198 0.63632 0.0
H1582 H 0.48906 0.17046 0.48202 0.0
H1583 H 0.48048 0.12134 0.48322 0.0
H1584 H 0.49346 0.1297 0.20627 0.0
H1585 H 0.49501 0.13054 0.3593 0.0
H1586 H 0.47264 0.16045 0.36433 0.0
H1587 H 0.47197 0.16031 0.21085 0.0
C1588 C 0.48772 0.15987 0.60283 0.0
C1589 C 0.48595 0.14638 0.64803 0.0
C1590 C 0.48724 0.15968 0.51458 0.0
C1591 C 0.48468 0.14586 0.46934 0.0
C1592 C 0.48282 0.13234 0.51513 0.0
C1593 C 0.4836 0.13265 0.60325 0.0
C1594 C 0.48885 0.13644 0.24008 0.0
C1595 C 0.48257 0.14492 0.19627 0.0
C1596 C 0.48964 0.13685 0.32821 0.0
C1597 C 0.48392 0.14553 0.37508 0.0
C1598 C 0.47747 0.15388 0.33091 0.0
C1599 C 0.47693 0.15368 0.24265 0.0
H1600 H 0.89828 0.33908 0.21419 0.0
H1601 H 0.93324 0.39032 0.21454 0.0
H1602 H 0.89891 0.33873 0.36758 0.0
H1603 H 0.93328 0.39023 0.36783 0.0
H1604 H 0.94192 0.38303 0.64066 0.0
H1605 H 0.94181 0.38264 0.48723 0.0
H1606 H 0.89099 0.34604 0.49027 0.0
H1607 H 0.89142 0.34587 0.64365 0.0
C1608 C 0.906 0.35032 0.24704 0.0
C1609 C 0.91575 0.36472 0.2019 0.0
C1610 C 0.90628 0.35016 0.33535 0.0
C1611 C 0.91615 0.36446 0.38101 0.0
C1612 C 0.92578 0.37888 0.33548 0.0
C1613 C 0.92567 0.37898 0.2472 0.0
C1614 C 0.93075 0.37485 0.60849 0.0
C1615 C 0.91669 0.36445 0.65449 0.0
C1616 C 0.93063 0.3747 0.5202 0.0
C1617 C 0.91637 0.36435 0.47544 0.0
C1618 C 0.90231 0.35397 0.52188 0.0
C1619 C 0.90251 0.35393 0.61017 0.0
H1620 H 0.6923 0.12318 0.02849 0.0
H1621 H 0.71231 0.17497 0.03423 0.0
H1622 H 0.69123 0.1223 0.18332 0.0
H1623 H 0.71114 0.17419 0.18933 0.0
H1624 H 0.68872 0.16218 0.45976 0.0
H1625 H 0.68956 0.16289 0.30508 0.0
H1626 H 0.71087 0.13215 0.30564 0.0
H1627 H 0.71025 0.13161 0.4598 0.0
C1628 C 0.69659 0.13438 0.06327 0.0
C1629 C 0.70254 0.14916 0.02011 0.0
C1630 C 0.69598 0.1339 0.15171 0.0
C1631 C 0.70108 0.14818 0.19875 0.0
C1632 C 0.70699 0.16297 0.15502 0.0
C1633 C 0.70779 0.16346 0.06651 0.0
C1634 C 0.69347 0.15548 0.42682 0.0
C1635 C 0.6994 0.14682 0.47222 0.0
C1636 C 0.69407 0.156 0.33824 0.0
C1637 C 0.70031 0.14761 0.29297 0.0
C1638 C 0.70591 0.13868 0.33846 0.0
C1639 C 0.7056 0.13842 0.42688 0.0
H1640 H 0.90798 0.55601 0.05486 0.0
H1641 H 0.92146 0.60661 0.05503 0.0
H1642 H 0.90786 0.55589 0.20832 0.0
H1643 H 0.92204 0.60671 0.20839 0.0
H1644 H 0.9061 0.59807 0.48226 0.0
H1645 H 0.90567 0.5978 0.32894 0.0
H1646 H 0.92438 0.56473 0.32837 0.0
H1647 H 0.92413 0.56447 0.48193 0.0
C1648 C 0.91105 0.56716 0.08761 0.0
C1649 C 0.91469 0.58131 0.04248 0.0
C1650 C 0.91109 0.56713 0.17588 0.0
C1651 C 0.91496 0.58129 0.22138 0.0
C1652 C 0.91871 0.59547 0.17595 0.0
C1653 C 0.91848 0.59545 0.08771 0.0
C1654 C 0.91011 0.59072 0.44949 0.0
C1655 C 0.91515 0.5813 0.49462 0.0
C1656 C 0.90998 0.59065 0.36125 0.0
C1657 C 0.91503 0.58128 0.31564 0.0
C1658 C 0.92014 0.5719 0.36097 0.0
C1659 C 0.92012 0.57184 0.44929 0.0
H1660 H 0.46659 0.3324 0.04383 0.0
H1661 H 0.49855 0.38432 0.04074 0.0
H1662 H 0.46614 0.33283 0.19782 0.0
H1663 H 0.49761 0.38486 0.19347 0.0
H1664 H 0.50601 0.37948 0.46941 0.0
H1665 H 0.5066 0.37835 0.31651 0.0
H1666 H 0.45633 0.34043 0.31605 0.0
H1667 H 0.45594 0.34113 0.46975 0.0
C1668 C 0.4735 0.3439 0.07586 0.0
C1669 C 0.48269 0.35829 0.02962 0.0
C1670 C 0.47314 0.34418 0.16434 0.0
C1671 C 0.48186 0.35888 0.20878 0.0
C1672 C 0.49099 0.37325 0.16212 0.0
C1673 C 0.49145 0.37295 0.07401 0.0
C1674 C 0.49504 0.37092 0.43689 0.0
C1675 C 0.4809 0.36043 0.48229 0.0
C1676 C 0.49535 0.37032 0.34874 0.0
C1677 C 0.48149 0.35932 0.30316 0.0
C1678 C 0.46732 0.34889 0.34864 0.0
C1679 C 0.46705 0.34939 0.43702 0.0
H1680 H 0.38277 0.90523 0.55903 0.0
H1681 H 0.34501 0.91778 0.5587 0.0
H1682 H 0.38221 0.90454 0.71265 0.0
H1683 H 0.34495 0.91785 0.71193 0.0
H1684 H 0.3374 0.90209 0.98652 0.0
H1685 H 0.33746 0.90176 0.83282 0.0
H1686 H 0.3892 0.92034 0.83381 0.0
H1687 H 0.38896 0.91996 0.98686 0.0
C1688 C 0.37445 0.908 0.5917 0.0
C1689 C 0.3639 0.91151 0.54628 0.0
C1690 C 0.37419 0.9077 0.68011 0.0
C1691 C 0.36352 0.91114 0.72555 0.0
C1692 C 0.3531 0.9148 0.67975 0.0
C1693 C 0.35322 0.91489 0.59147 0.0
C1694 C 0.34878 0.90607 0.95388 0.0
C1695 C 0.36315 0.91098 0.99933 0.0
C1696 C 0.34885 0.90599 0.86543 0.0
C1697 C 0.36335 0.91102 0.82004 0.0
C1698 C 0.37773 0.91605 0.8659 0.0
C1699 C 0.37761 0.91595 0.95414 0.0
H1700 H 0.14251 0.45364 0.97576 0.0
H1701 H 0.15677 0.50441 0.97737 0.0
H1702 H 0.14223 0.45376 0.82228 0.0
H1703 H 0.15737 0.50483 0.82403 0.0
H1704 H 0.14308 0.49779 0.54829 0.0
H1705 H 0.14209 0.49713 0.70168 0.0
H1706 H 0.15838 0.46209 0.70268 0.0
H1707 H 0.15853 0.46216 0.54939 0.0
C1708 C 0.1457 0.46487 0.94328 0.0
C1709 C 0.14961 0.479 0.98888 0.0
C1710 C 0.14568 0.465 0.85498 0.0
C1711 C 0.14984 0.47933 0.80986 0.0
C1712 C 0.15379 0.49347 0.85592 0.0
C1713 C 0.15354 0.49327 0.9442 0.0
C1714 C 0.14642 0.48992 0.58129 0.0
C1715 C 0.15084 0.48 0.53637 0.0
C1716 C 0.14597 0.48962 0.6696 0.0
C1717 C 0.15016 0.47956 0.71546 0.0
C1718 C 0.15473 0.46975 0.67015 0.0
C1719 C 0.15495 0.46988 0.58188 0.0
H1720 H 0.56746 0.672 0.97951 0.0
H1721 H 0.60074 0.72366 0.97589 0.0
H1722 H 0.56735 0.67166 0.82593 0.0
H1723 H 0.60004 0.72353 0.82271 0.0
H1724 H 0.608 0.71677 0.54844 0.0
H1725 H 0.60856 0.71641 0.70163 0.0
H1726 H 0.55824 0.67851 0.70513 0.0
H1727 H 0.55801 0.67834 0.5515 0.0
C1728 C 0.57468 0.68332 0.94591 0.0
C1729 C 0.58416 0.69784 0.9901 0.0
C1730 C 0.57452 0.68316 0.85757 0.0
C1731 C 0.58367 0.69757 0.81105 0.0
C1732 C 0.59308 0.71211 0.8557 0.0
C1733 C 0.59341 0.71221 0.94393 0.0
C1734 C 0.59706 0.70834 0.58189 0.0
C1735 C 0.58297 0.69758 0.53756 0.0
C1736 C 0.59733 0.7082 0.67011 0.0
C1737 C 0.58342 0.69748 0.71664 0.0
C1738 C 0.5693 0.68675 0.672 0.0
C1739 C 0.56911 0.68672 0.58363 0.0
H1740 H 0.38633 0.47311 0.80819 0.0
H1741 H 0.34946 0.4869 0.80764 0.0
H1742 H 0.38714 0.47413 0.6546 0.0
H1743 H 0.35071 0.48854 0.65455 0.0
H1744 H 0.34431 0.474 0.37941 0.0
H1745 H 0.34369 0.47276 0.53218 0.0
H1746 H 0.39545 0.49162 0.53607 0.0
H1747 H 0.39595 0.49228 0.38202 0.0
C1748 C 0.37842 0.47641 0.77542 0.0
C1749 C 0.36777 0.47983 0.8206 0.0
C1750 C 0.37899 0.47714 0.6871 0.0
C1751 C 0.36901 0.48144 0.64153 0.0
C1752 C 0.35839 0.4849 0.68695 0.0
C1753 C 0.35772 0.48403 0.77515 0.0
C1754 C 0.35561 0.47795 0.41257 0.0
C1755 C 0.37021 0.4833 0.36806 0.0
C1756 C 0.35526 0.47732 0.50068 0.0
C1757 C 0.36952 0.48215 0.54719 0.0
C1758 C 0.38416 0.48758 0.50265 0.0
C1759 C 0.38449 0.4881 0.41416 0.0
H1760 H 0.57602 0.88843 0.79827 0.0
H1761 H 0.58922 0.93896 0.79768 0.0
H1762 H 0.57516 0.88825 0.64456 0.0
H1763 H 0.58892 0.93894 0.64449 0.0
H1764 H 0.57144 0.92989 0.37223 0.0
H1765 H 0.57159 0.92964 0.52615 0.0
H1766 H 0.59149 0.89759 0.52248 0.0
H1767 H 0.59081 0.89741 0.36943 0.0
C1768 C 0.5789 0.89955 0.76547 0.0
C1769 C 0.58268 0.9137 0.81067 0.0
C1770 C 0.57848 0.89948 0.67708 0.0
C1771 C 0.58194 0.91359 0.63157 0.0
C1772 C 0.58588 0.92776 0.677 0.0
C1773 C 0.58619 0.9278 0.76521 0.0
C1774 C 0.57582 0.92277 0.40431 0.0
C1775 C 0.58107 0.91365 0.35818 0.0
C1776 C 0.576 0.92269 0.49275 0.0
C1777 C 0.58155 0.91358 0.53728 0.0
C1778 C 0.58686 0.90453 0.49084 0.0
C1779 C 0.58657 0.90452 0.40265 0.0
H1780 H 0.13251 0.66779 0.37269 0.0
H1781 H 0.16559 0.7195 0.37072 0.0
H1782 H 0.1329 0.6679 0.5264 0.0
H1783 H 0.16543 0.71978 0.52376 0.0
H1784 H 0.17424 0.71373 0.79893 0.0
H1785 H 0.17439 0.71313 0.64537 0.0
H1786 H 0.12413 0.67512 0.64705 0.0
H1787 H 0.12427 0.67522 0.8003 0.0
C1788 C 0.13977 0.67921 0.40499 0.0
C1789 C 0.14906 0.69361 0.35909 0.0
C1790 C 0.13992 0.67931 0.49344 0.0
C1791 C 0.14921 0.69386 0.53839 0.0
C1792 C 0.15839 0.70826 0.49206 0.0
C1793 C 0.15839 0.70812 0.40382 0.0
C1794 C 0.16323 0.70524 0.76648 0.0
C1795 C 0.14926 0.6945 0.81219 0.0
C1796 C 0.16326 0.70495 0.67808 0.0
C1797 C 0.14926 0.69406 0.6329 0.0
C1798 C 0.13526 0.68344 0.67899 0.0
C1799 C 0.1353 0.68359 0.76728 0.0
loop_
_geom_bond_atom_site_label_1
_geom_bond_atom_site_label_2
_geom_bond_distance
_geom_bond_site_symmetry_2
_ccdc_geom_bond_type
Nd0 C2 2.836 . S
Nd0 O20 2.500 . S
Nd0 O21 2.492 . S
Nd0 O22 2.487 . S
Nd0 O23 2.682 . S
Nd0 O24 2.410 . S
Nd0 O29 2.414 . S
Nd0 O31 2.424 . S
Nd1 C11 2.836 1_455 S
Nd1 O23 2.414 . S
Nd1 O25 2.424 . S
Nd1 O26 2.500 1_455 S
Nd1 O27 2.492 1_455 S
Nd1 O28 2.487 . S
Nd1 O29 2.682 . S
Nd1 O30 2.410 . S
C2 Nd0 2.836 . S
C2 C3 1.498 . S
C2 O20 1.258 . S
C2 O21 1.239 . S
C3 C2 1.498 . S
C3 C4 1.366 . S
C3 C8 1.407 . S
C4 C3 1.366 . S
C4 C5 1.392 . S
C4 H32 0.930 . S
C5 C4 1.392 . S
C5 C6 1.398 . S
C5 H33 0.929 . S
C6 C5 1.398 . S
C6 C7 1.352 . S
C7 C6 1.352 . S
C7 C8 1.384 . S
C7 H34 0.930 . S
C8 C3 1.407 . S
C8 C7 1.384 . S
C8 H35 0.929 . S
C9 O22 1.241 . S
C9 O23 1.273 . S
C10 O24 1.251 . S
C10 O25 1.268 . S
C11 Nd1 2.836 1_655 S
C11 C12 1.498 . S
C11 O26 1.258 . S
C11 O27 1.239 . S
C12 C11 1.498 . S
C12 C13 1.366 . S
C12 C17 1.407 . S
C13 C12 1.366 . S
C13 C14 1.392 . S
C13 H36 0.930 . S
C14 C13 1.392 . S
C14 C15 1.398 . S
C14 H37 0.929 . S
C15 C14 1.398 . S
C15 C16 1.352 . S
C16 C15 1.352 . S
C16 C17 1.384 . S
C16 H38 0.930 . S
C17 C12 1.407 . S
C17 C16 1.384 . S
C17 H39 0.929 . S
C18 O28 1.241 . S
C18 O29 1.273 . S
C19 O30 1.251 . S
C19 O31 1.268 . S
O20 Nd0 2.500 . S
O20 C2 1.258 . S
O21 Nd0 2.492 . S
O21 C2 1.239 . S
O22 Nd0 2.487 . S
O22 C9 1.241 . S
O23 Nd0 2.682 . S
O23 Nd1 2.414 . S
O23 C9 1.273 . S
O24 Nd0 2.410 . S
O24 C10 1.251 . S
O25 Nd1 2.424 . S
O25 C10 1.268 . S
O26 Nd1 2.500 1_655 S
O26 C11 1.258 . S
O27 Nd1 2.492 1_655 S
O27 C11 1.239 . S
O28 Nd1 2.487 . S
O28 C18 1.241 . S
O29 Nd0 2.414 . S
O29 Nd1 2.682 . S
O29 C18 1.273 . S
O30 Nd1 2.410 . S
O30 C19 1.251 . S
O31 Nd0 2.424 . S
O31 C19 1.268 . S
H32 C4 0.930 . S
H33 C5 0.929 . S
H34 C7 0.930 . S
H35 C8 0.929 . S
H36 C13 0.930 . S
H37 C14 0.929 . S
H38 C16 0.930 . S
H39 C17 0.929 . S
Nd40 C42 2.836 . S
Nd40 O60 2.500 . S
Nd40 O61 2.492 . S
Nd40 O62 2.487 . S
Nd40 O63 2.682 . S
Nd40 O64 2.410 . S
Nd40 O69 2.414 . S
Nd40 O71 2.424 . S
Nd41 C51 2.836 . S
Nd41 O63 2.414 . S
Nd41 O65 2.424 . S
Nd41 O66 2.500 . S
Nd41 O67 2.492 . S
Nd41 O68 2.487 . S
Nd41 O69 2.682 . S
Nd41 O70 2.410 . S
C42 Nd40 2.836 . S
C42 C43 1.498 . S
C42 O60 1.258 . S
C42 O61 1.239 . S
C43 C42 1.498 . S
C43 C44 1.366 . S
C43 C48 1.407 . S
C44 C43 1.366 . S
C44 C45 1.392 . S
C44 H72 0.930 . S
C45 C44 1.392 . S
C45 C46 1.398 . S
C45 H73 0.929 . S
C46 C45 1.398 . S
C46 C47 1.352 . S
C47 C46 1.352 . S
C47 C48 1.384 . S
C47 H74 0.930 . S
C48 C43 1.407 . S
C48 C47 1.384 . S
C48 H75 0.929 . S
C49 O62 1.241 . S
C49 O63 1.273 . S
C50 O64 1.251 . S
C50 O65 1.268 . S
C51 Nd41 2.836 . S
C51 C52 1.498 . S
C51 O66 1.258 . S
C51 O67 1.239 . S
C52 C51 1.498 . S
C52 C53 1.366 . S
C52 C57 1.407 . S
C53 C52 1.366 . S
C53 C54 1.392 . S
C53 H76 0.930 . S
C54 C53 1.392 . S
C54 C55 1.398 . S
C54 H77 0.929 . S
C55 C54 1.398 . S
C55 C56 1.352 . S
C56 C55 1.352 . S
C56 C57 1.384 . S
C56 H78 0.930 . S
C57 C52 1.407 . S
C57 C56 1.384 . S
C57 H79 0.929 . S
C58 O68 1.241 . S
C58 O69 1.273 . S
C59 O70 1.251 . S
C59 O71 1.268 . S
O60 Nd40 2.500 . S
O60 C42 1.258 . S
O61 Nd40 2.492 . S
O61 C42 1.239 . S
O62 Nd40 2.487 . S
O62 C49 1.241 . S
O63 Nd40 2.682 . S
O63 Nd41 2.414 . S
O63 C49 1.273 . S
O64 Nd40 2.410 . S
O64 C50 1.251 . S
O65 Nd41 2.424 . S
O65 C50 1.268 . S
O66 Nd41 2.500 . S
O66 C51 1.258 . S
O67 Nd41 2.492 . S
O67 C51 1.239 . S
O68 Nd41 2.487 . S
O68 C58 1.241 . S
O69 Nd40 2.414 . S
O69 Nd41 2.682 . S
O69 C58 1.273 . S
O70 Nd41 2.410 . S
O70 C59 1.251 . S
O71 Nd40 2.424 . S
O71 C59 1.268 . S
H72 C44 0.930 . S
H73 C45 0.929 . S
H74 C47 0.930 . S
H75 C48 0.929 . S
H76 C53 0.930 . S
H77 C54 0.929 . S
H78 C56 0.930 . S
H79 C57 0.929 . S
Nd80 C82 2.836 1_545 S
Nd80 O100 2.500 1_545 S
Nd80 O101 2.492 1_545 S
Nd80 O102 2.487 . S
Nd80 O103 2.682 . S
Nd80 O104 2.410 . S
Nd80 O109 2.414 . S
Nd80 O111 2.424 . S
Nd81 C91 2.836 . S
Nd81 O103 2.414 . S
Nd81 O105 2.424 . S
Nd81 O106 2.500 . S
Nd81 O107 2.492 . S
Nd81 O108 2.487 . S
Nd81 O109 2.682 . S
Nd81 O110 2.410 . S
C82 Nd80 2.836 1_565 S
C82 C83 1.498 . S
C82 O100 1.258 . S
C82 O101 1.239 . S
C83 C82 1.498 . S
C83 C84 1.366 . S
C83 C88 1.407 . S
C84 C83 1.366 . S
C84 C85 1.392 . S
C84 H112 0.930 . S
C85 C84 1.392 . S
C85 C86 1.398 . S
C85 H113 0.929 . S
C86 C85 1.398 . S
C86 C87 1.352 . S
C87 C86 1.352 . S
C87 C88 1.384 . S
C87 H114 0.930 . S
C88 C83 1.407 . S
C88 C87 1.384 . S
C88 H115 0.929 . S
C89 O102 1.241 . S
C89 O103 1.273 . S
C90 O104 1.251 . S
C90 O105 1.268 . S
C91 Nd81 2.836 . S
C91 C92 1.498 . S
C91 O106 1.258 . S
C91 O107 1.239 . S
C92 C91 1.498 . S
C92 C93 1.366 . S
C92 C97 1.407 . S
C93 C92 1.366 . S
C93 C94 1.392 . S
C93 H116 0.930 . S
C94 C93 1.392 . S
C94 C95 1.398 . S
C94 H117 0.929 . S
C95 C94 1.398 . S
C95 C96 1.352 . S
C96 C95 1.352 . S
C96 C97 1.384 . S
C96 H118 0.930 . S
C97 C92 1.407 . S
C97 C96 1.384 . S
C97 H119 0.929 . S
C98 O108 1.241 1_565 S
C98 O109 1.273 1_565 S
C99 O110 1.251 . S
C99 O111 1.268 . S
O100 Nd80 2.500 1_565 S
O100 C82 1.258 . S
O101 Nd80 2.492 1_565 S
O101 C82 1.239 . S
O102 Nd80 2.487 . S
O102 C89 1.241 . S
O103 Nd80 2.682 . S
O103 Nd81 2.414 . S
O103 C89 1.273 . S
O104 Nd80 2.410 . S
O104 C90 1.251 . S
O105 Nd81 2.424 . S
O105 C90 1.268 . S
O106 Nd81 2.500 . S
O106 C91 1.258 . S
O107 Nd81 2.492 . S
O107 C91 1.239 . S
O108 Nd81 2.487 . S
O108 C98 1.241 1_545 S
O109 Nd80 2.414 . S
O109 Nd81 2.682 . S
O109 C98 1.273 1_545 S
O110 Nd81 2.410 . S
O110 C99 1.251 . S
O111 Nd80 2.424 . S
O111 C99 1.268 . S
H112 C84 0.930 . S
H113 C85 0.929 . S
H114 C87 0.930 . S
H115 C88 0.929 . S
H116 C93 0.930 . S
H117 C94 0.929 . S
H118 C96 0.930 . S
H119 C97 0.929 . S
Nd120 C122 2.836 . S
Nd120 O140 2.500 . S
Nd120 O141 2.492 . S
Nd120 O142 2.487 . S
Nd120 O143 2.752 . S
Nd120 O144 2.410 . S
Nd120 O149 2.414 . S
Nd120 O151 2.424 . S
Nd121 C131 2.836 1_455 S
Nd121 O143 2.381 . S
Nd121 O145 2.424 . S
Nd121 O146 2.500 1_455 S
Nd121 O147 2.492 1_455 S
Nd121 O148 2.487 . S
Nd121 O149 2.682 . S
Nd121 O150 2.410 . S
C122 Nd120 2.836 . S
C122 C123 1.498 . S
C122 O140 1.258 . S
C122 O141 1.239 . S
C123 C122 1.498 . S
C123 C124 1.366 . S
C123 C128 1.407 . S
C124 C123 1.366 . S
C124 C125 1.392 . S
C124 H152 0.930 . S
C125 C124 1.392 . S
C125 C126 1.398 . S
C125 H153 0.929 . S
C126 C125 1.398 . S
C126 C127 1.352 . S
C127 C126 1.352 . S
C127 C128 1.384 . S
C127 H154 0.930 . S
C128 C123 1.407 . S
C128 C127 1.384 . S
C128 H155 0.929 . S
C129 O142 1.241 1_655 S
C129 O143 1.294 1_655 S
C130 O144 1.251 . S
C130 O145 1.268 . S
C131 Nd121 2.836 1_655 S
C131 C132 1.498 . S
C131 O146 1.258 . S
C131 O147 1.239 . S
C132 C131 1.498 . S
C132 C133 1.366 . S
C132 C137 1.407 . S
C133 C132 1.366 . S
C133 C134 1.392 . S
C133 H156 0.930 . S
C134 C133 1.392 . S
C134 C135 1.398 . S
C134 H157 0.929 . S
C135 C134 1.398 . S
C135 C136 1.352 . S
C136 C135 1.352 . S
C136 C137 1.384 . S
C136 H158 0.930 . S
C137 C132 1.407 . S
C137 C136 1.384 . S
C137 H159 0.929 . S
C138 O148 1.241 . S
C138 O149 1.273 . S
C139 O150 1.251 . S
C139 O151 1.268 . S
O140 Nd120 2.500 . S
O140 C122 1.258 . S
O141 Nd120 2.492 . S
O141 C122 1.239 . S
O142 Nd120 2.487 . S
O142 C129 1.241 1_455 S
O143 Nd120 2.752 . S
O143 Nd121 2.381 . S
O143 C129 1.294 1_455 S
O144 Nd120 2.410 . S
O144 C130 1.251 . S
O145 Nd121 2.424 . S
O145 C130 1.268 . S
O146 Nd121 2.500 1_655 S
O146 C131 1.258 . S
O147 Nd121 2.492 1_655 S
O147 C131 1.239 . S
O148 Nd121 2.487 . S
O148 C138 1.241 . S
O149 Nd120 2.414 . S
O149 Nd121 2.682 . S
O149 C138 1.273 . S
O150 Nd121 2.410 . S
O150 C139 1.251 . S
O151 Nd120 2.424 . S
O151 C139 1.268 . S
H152 C124 0.930 . S
H153 C125 0.929 . S
H154 C127 0.930 . S
H155 C128 0.929 . S
H156 C133 0.930 . S
H157 C134 0.929 . S
H158 C136 0.930 . S
H159 C137 0.929 . S
Nd160 C162 2.836 . S
Nd160 O180 2.500 . S
Nd160 O181 2.492 . S
Nd160 O182 2.487 . S
Nd160 O183 2.682 . S
Nd160 O184 2.410 . S
Nd160 O189 2.414 . S
Nd160 O191 2.424 . S
Nd161 C171 2.836 . S
Nd161 O183 2.414 . S
Nd161 O185 2.424 . S
Nd161 O186 2.500 . S
Nd161 O187 2.492 . S
Nd161 O188 2.487 . S
Nd161 O189 2.682 . S
Nd161 O190 2.410 . S
C162 Nd160 2.836 . S
C162 C163 1.498 . S
C162 O180 1.258 . S
C162 O181 1.239 . S
C163 C162 1.498 . S
C163 C164 1.366 . S
C163 C168 1.407 . S
C164 C163 1.366 . S
C164 C165 1.392 . S
C164 H192 0.930 . S
C165 C164 1.392 . S
C165 C166 1.398 . S
C165 H193 0.929 . S
C166 C165 1.398 . S
C166 C167 1.352 . S
C167 C166 1.352 . S
C167 C168 1.384 . S
C167 H194 0.930 . S
C168 C163 1.407 . S
C168 C167 1.384 . S
C168 H195 0.929 . S
C169 O182 1.241 . S
C169 O183 1.273 . S
C170 O184 1.251 . S
C170 O185 1.268 . S
C171 Nd161 2.836 . S
C171 C172 1.498 . S
C171 O186 1.258 . S
C171 O187 1.239 . S
C172 C171 1.498 . S
C172 C173 1.366 . S
C172 C177 1.407 . S
C173 C172 1.366 . S
C173 C174 1.392 . S
C173 H196 0.930 . S
C174 C173 1.392 . S
C174 C175 1.398 . S
C174 H197 0.929 . S
C175 C174 1.398 . S
C175 C176 1.352 . S
C176 C175 1.352 . S
C176 C177 1.384 . S
C176 H198 0.930 . S
C177 C172 1.407 . S
C177 C176 1.384 . S
C177 H199 0.929 . S
C178 O188 1.241 . S
C178 O189 1.273 . S
C179 O190 1.251 . S
C179 O191 1.268 . S
O180 Nd160 2.500 . S
O180 C162 1.258 . S
O181 Nd160 2.492 . S
O181 C162 1.239 . S
O182 Nd160 2.487 . S
O182 C169 1.241 . S
O183 Nd160 2.682 . S
O183 Nd161 2.414 . S
O183 C169 1.273 . S
O184 Nd160 2.410 . S
O184 C170 1.251 . S
O185 Nd161 2.424 . S
O185 C170 1.268 . S
O186 Nd161 2.500 . S
O186 C171 1.258 . S
O187 Nd161 2.492 . S
O187 C171 1.239 . S
O188 Nd161 2.487 . S
O188 C178 1.241 . S
O189 Nd160 2.414 . S
O189 Nd161 2.682 . S
O189 C178 1.273 . S
O190 Nd161 2.410 . S
O190 C179 1.251 . S
O191 Nd160 2.424 . S
O191 C179 1.268 . S
H192 C164 0.930 . S
H193 C165 0.929 . S
H194 C167 0.930 . S
H195 C168 0.929 . S
H196 C173 0.930 . S
H197 C174 0.929 . S
H198 C176 0.930 . S
H199 C177 0.929 . S
Nd200 C202 2.836 1_545 S
Nd200 O220 2.500 1_545 S
Nd200 O221 2.492 1_545 S
Nd200 O222 2.487 . S
Nd200 O223 2.682 . S
Nd200 O224 2.410 . S
Nd200 O229 2.414 . S
Nd200 O231 2.424 . S
Nd201 C211 2.836 . S
Nd201 O223 2.414 . S
Nd201 O225 2.424 . S
Nd201 O226 2.500 . S
Nd201 O227 2.492 . S
Nd201 O228 2.487 . S
Nd201 O229 2.682 . S
Nd201 O230 2.410 . S
C202 Nd200 2.836 1_565 S
C202 C203 1.498 . S
C202 O220 1.258 . S
C202 O221 1.239 . S
C203 C202 1.498 . S
C203 C204 1.366 . S
C203 C208 1.407 . S
C204 C203 1.366 . S
C204 C205 1.392 . S
C204 H232 0.930 . S
C205 C204 1.392 . S
C205 C206 1.398 . S
C205 H233 0.929 . S
C206 C205 1.398 . S
C206 C207 1.352 . S
C207 C206 1.352 . S
C207 C208 1.384 . S
C207 H234 0.930 . S
C208 C203 1.407 . S
C208 C207 1.384 . S
C208 H235 0.929 . S
C209 O222 1.241 . S
C209 O223 1.273 . S
C210 O224 1.251 . S
C210 O225 1.268 . S
C211 Nd201 2.836 . S
C211 C212 1.498 . S
C211 O226 1.258 . S
C211 O227 1.239 . S
C212 C211 1.498 . S
C212 C213 1.366 . S
C212 C217 1.407 . S
C213 C212 1.366 . S
C213 C214 1.392 . S
C213 H236 0.930 . S
C214 C213 1.392 . S
C214 C215 1.398 . S
C214 H237 0.929 . S
C215 C214 1.398 . S
C215 C216 1.352 . S
C216 C215 1.352 . S
C216 C217 1.384 . S
C216 H238 0.930 . S
C217 C212 1.407 . S
C217 C216 1.384 . S
C217 H239 0.929 . S
C218 O228 1.241 . S
C218 O229 1.273 . S
C219 O230 1.251 . S
C219 O231 1.268 . S
O220 Nd200 2.500 1_565 S
O220 C202 1.258 . S
O221 Nd200 2.492 1_565 S
O221 C202 1.239 . S
O222 Nd200 2.487 . S
O222 C209 1.241 . S
O223 Nd200 2.682 . S
O223 Nd201 2.414 . S
O223 C209 1.273 . S
O224 Nd200 2.410 . S
O224 C210 1.251 . S
O225 Nd201 2.424 . S
O225 C210 1.268 . S
O226 Nd201 2.500 . S
O226 C211 1.258 . S
O227 Nd201 2.492 . S
O227 C211 1.239 . S
O228 Nd201 2.487 . S
O228 C218 1.241 . S
O229 Nd200 2.414 . S
O229 Nd201 2.682 . S
O229 C218 1.273 . S
O230 Nd201 2.410 . S
O230 C219 1.251 . S
O231 Nd200 2.424 . S
O231 C219 1.268 . S
H232 C204 0.930 . S
H233 C205 0.929 . S
H234 C207 0.930 . S
H235 C208 0.929 . S
H236 C213 0.930 . S
H237 C214 0.929 . S
H238 C216 0.930 . S
H239 C217 0.929 . S
Nd240 C242 2.836 1_554 S
Nd240 O260 2.500 1_554 S
Nd240 O261 2.492 1_554 S
Nd240 O262 2.487 . S
Nd240 O263 2.682 . S
Nd240 O264 2.410 1_554 S
Nd240 O269 2.414 1_554 S
Nd240 O271 2.424 . S
Nd241 C251 2.836 1_556 S
Nd241 O263 2.414 1_556 S
Nd241 O265 2.424 . S
Nd241 O266 2.500 1_556 S
Nd241 O267 2.492 1_556 S
Nd241 O268 2.487 . S
Nd241 O269 2.682 . S
Nd241 O270 2.410 1_556 S
C242 Nd240 2.836 1_556 S
C242 C243 1.498 . S
C242 O260 1.258 . S
C242 O261 1.239 . S
C243 C242 1.498 . S
C243 C244 1.366 . S
C243 C248 1.407 . S
C244 C243 1.366 . S
C244 C245 1.392 . S
C244 H272 0.930 . S
C245 C244 1.392 . S
C245 C246 1.398 . S
C245 H273 0.929 . S
C246 C245 1.398 . S
C246 C247 1.352 . S
C247 C246 1.352 . S
C247 C248 1.384 . S
C247 H274 0.930 . S
C248 C243 1.407 . S
C248 C247 1.384 . S
C248 H275 0.929 . S
C249 O262 1.241 . S
C249 O263 1.273 . S
C250 O264 1.251 . S
C250 O265 1.268 . S
C251 Nd241 2.836 1_554 S
C251 C252 1.498 . S
C251 O266 1.258 . S
C251 O267 1.239 . S
C252 C251 1.498 . S
C252 C253 1.366 . S
C252 C257 1.407 . S
C253 C252 1.366 . S
C253 C254 1.392 . S
C253 H276 0.930 . S
C254 C253 1.392 . S
C254 C255 1.398 . S
C254 H277 0.929 . S
C255 C254 1.398 . S
C255 C256 1.352 . S
C256 C255 1.352 . S
C256 C257 1.384 . S
C256 H278 0.930 . S
C257 C252 1.407 . S
C257 C256 1.384 . S
C257 H279 0.929 . S
C258 O268 1.241 . S
C258 O269 1.273 . S
C259 O270 1.251 . S
C259 O271 1.268 . S
O260 Nd240 2.500 1_556 S
O260 C242 1.258 . S
O261 Nd240 2.492 1_556 S
O261 C242 1.239 . S
O262 Nd240 2.487 . S
O262 C249 1.241 . S
O263 Nd240 2.682 . S
O263 Nd241 2.414 1_554 S
O263 C249 1.273 . S
O264 Nd240 2.410 1_556 S
O264 C250 1.251 . S
O265 Nd241 2.424 . S
O265 C250 1.268 . S
O266 Nd241 2.500 1_554 S
O266 C251 1.258 . S
O267 Nd241 2.492 1_554 S
O267 C251 1.239 . S
O268 Nd241 2.487 . S
O268 C258 1.241 . S
O269 Nd240 2.414 1_556 S
O269 Nd241 2.682 . S
O269 C258 1.273 . S
O270 Nd241 2.410 1_554 S
O270 C259 1.251 . S
O271 Nd240 2.424 . S
O271 C259 1.268 . S
H272 C244 0.930 . S
H273 C245 0.929 . S
H274 C247 0.930 . S
H275 C248 0.929 . S
H276 C253 0.930 . S
H277 C254 0.929 . S
H278 C256 0.930 . S
H279 C257 0.929 . S
Nd280 C282 2.836 1_554 S
Nd280 O300 2.500 1_554 S
Nd280 O301 2.492 1_554 S
Nd280 O302 2.487 . S
Nd280 O303 2.682 . S
Nd280 O304 2.410 1_554 S
Nd280 O309 2.414 1_554 S
Nd280 O311 2.424 . S
Nd281 C291 2.836 1_556 S
Nd281 O303 2.414 1_556 S
Nd281 O305 2.424 . S
Nd281 O306 2.500 1_556 S
Nd281 O307 2.492 1_556 S
Nd281 O308 2.487 . S
Nd281 O309 2.682 . S
Nd281 O310 2.410 1_556 S
C282 Nd280 2.836 1_556 S
C282 C283 1.498 . S
C282 O300 1.258 . S
C282 O301 1.239 . S
C283 C282 1.498 . S
C283 C284 1.366 . S
C283 C288 1.407 . S
C284 C283 1.366 . S
C284 C285 1.392 . S
C284 H312 0.930 . S
C285 C284 1.392 . S
C285 C286 1.398 . S
C285 H313 0.929 . S
C286 C285 1.398 . S
C286 C287 1.352 . S
C287 C286 1.352 . S
C287 C288 1.384 . S
C287 H314 0.930 . S
C288 C283 1.407 . S
C288 C287 1.384 . S
C288 H315 0.929 . S
C289 O302 1.241 . S
C289 O303 1.273 . S
C290 O304 1.251 . S
C290 O305 1.268 . S
C291 Nd281 2.836 1_554 S
C291 C292 1.498 . S
C291 O306 1.258 . S
C291 O307 1.239 . S
C292 C291 1.498 . S
C292 C293 1.366 . S
C292 C297 1.407 . S
C293 C292 1.366 . S
C293 C294 1.392 . S
C293 H316 0.930 . S
C294 C293 1.392 . S
C294 C295 1.398 . S
C294 H317 0.929 . S
C295 C294 1.398 . S
C295 C296 1.352 . S
C296 C295 1.352 . S
C296 C297 1.384 . S
C296 H318 0.930 . S
C297 C292 1.407 . S
C297 C296 1.384 . S
C297 H319 0.929 . S
C298 O308 1.241 . S
C298 O309 1.273 . S
C299 O310 1.251 . S
C299 O311 1.268 . S
O300 Nd280 2.500 1_556 S
O300 C282 1.258 . S
O301 Nd280 2.492 1_556 S
O301 C282 1.239 . S
O302 Nd280 2.487 . S
O302 C289 1.241 . S
O303 Nd280 2.682 . S
O303 Nd281 2.414 1_554 S
O303 C289 1.273 . S
O304 Nd280 2.410 1_556 S
O304 C290 1.251 . S
O305 Nd281 2.424 . S
O305 C290 1.268 . S
O306 Nd281 2.500 1_554 S
O306 C291 1.258 . S
O307 Nd281 2.492 1_554 S
O307 C291 1.239 . S
O308 Nd281 2.487 . S
O308 C298 1.241 . S
O309 Nd280 2.414 1_556 S
O309 Nd281 2.682 . S
O309 C298 1.273 . S
O310 Nd281 2.410 1_554 S
O310 C299 1.251 . S
O311 Nd280 2.424 . S
O311 C299 1.268 . S
H312 C284 0.930 . S
H313 C285 0.929 . S
H314 C287 0.930 . S
H315 C288 0.929 . S
H316 C293 0.930 . S
H317 C294 0.929 . S
H318 C296 0.930 . S
H319 C297 0.929 . S
Nd320 C322 2.836 1_554 S
Nd320 O340 2.500 1_554 S
Nd320 O341 2.492 1_554 S
Nd320 O342 2.487 . S
Nd320 O343 2.682 . S
Nd320 O344 2.410 1_554 S
Nd320 O349 2.414 1_554 S
Nd320 O351 2.424 . S
Nd321 C331 2.836 1_556 S
Nd321 O343 2.414 1_556 S
Nd321 O345 2.424 . S
Nd321 O346 2.500 1_556 S
Nd321 O347 2.492 1_556 S
Nd321 O348 2.487 . S
Nd321 O349 2.682 . S
Nd321 O350 2.410 1_556 S
C322 Nd320 2.836 1_556 S
C322 C323 1.498 . S
C322 O340 1.258 . S
C322 O341 1.239 . S
C323 C322 1.498 . S
C323 C324 1.366 . S
C323 C328 1.407 . S
C324 C323 1.366 . S
C324 C325 1.392 . S
C324 H352 0.930 . S
C325 C324 1.392 . S
C325 C326 1.398 . S
C325 H353 0.929 . S
C326 C325 1.398 . S
C326 C327 1.352 . S
C327 C326 1.352 . S
C327 C328 1.384 . S
C327 H354 0.930 . S
C328 C323 1.407 . S
C328 C327 1.384 . S
C328 H355 0.929 . S
C329 O342 1.241 . S
C329 O343 1.273 . S
C330 O344 1.251 . S
C330 O345 1.268 . S
C331 Nd321 2.836 1_554 S
C331 C332 1.498 . S
C331 O346 1.258 . S
C331 O347 1.239 . S
C332 C331 1.498 . S
C332 C333 1.366 . S
C332 C337 1.407 . S
C333 C332 1.366 . S
C333 C334 1.392 . S
C333 H356 0.930 . S
C334 C333 1.392 . S
C334 C335 1.398 . S
C334 H357 0.929 . S
C335 C334 1.398 . S
C335 C336 1.352 . S
C336 C335 1.352 . S
C336 C337 1.384 . S
C336 H358 0.930 . S
C337 C332 1.407 . S
C337 C336 1.384 . S
C337 H359 0.929 . S
C338 O348 1.241 . S
C338 O349 1.273 . S
C339 O350 1.251 . S
C339 O351 1.268 . S
O340 Nd320 2.500 1_556 S
O340 C322 1.258 . S
O341 Nd320 2.492 1_556 S
O341 C322 1.239 . S
O342 Nd320 2.487 . S
O342 C329 1.241 . S
O343 Nd320 2.682 . S
O343 Nd321 2.414 1_554 S
O343 C329 1.273 . S
O344 Nd320 2.410 1_556 S
O344 C330 1.251 . S
O345 Nd321 2.424 . S
O345 C330 1.268 . S
O346 Nd321 2.500 1_554 S
O346 C331 1.258 . S
O347 Nd321 2.492 1_554 S
O347 C331 1.239 . S
O348 Nd321 2.487 . S
O348 C338 1.241 . S
O349 Nd320 2.414 1_556 S
O349 Nd321 2.682 . S
O349 C338 1.273 . S
O350 Nd321 2.410 1_554 S
O350 C339 1.251 . S
O351 Nd320 2.424 . S
O351 C339 1.268 . S
H352 C324 0.930 . S
H353 C325 0.929 . S
H354 C327 0.930 . S
H355 C328 0.929 . S
H356 C333 0.930 . S
H357 C334 0.929 . S
H358 C336 0.930 . S
H359 C337 0.929 . S
Nd360 C362 2.836 . S
Nd360 O380 2.500 . S
Nd360 O381 2.492 . S
Nd360 O382 2.487 . S
Nd360 O383 2.682 . S
Nd360 O384 2.410 . S
Nd360 O389 2.414 . S
Nd360 O391 2.424 . S
Nd361 C371 2.836 . S
Nd361 O383 2.414 . S
Nd361 O385 2.424 . S
Nd361 O386 2.500 . S
Nd361 O387 2.492 . S
Nd361 O388 2.487 . S
Nd361 O389 2.682 . S
Nd361 O390 2.410 . S
C362 Nd360 2.836 . S
C362 C363 1.498 . S
C362 O380 1.258 . S
C362 O381 1.239 . S
C363 C362 1.498 . S
C363 C364 1.366 . S
C363 C368 1.407 . S
C364 C363 1.366 . S
C364 C365 1.392 . S
C364 H392 0.930 . S
C365 C364 1.392 . S
C365 C366 1.398 . S
C365 H393 0.929 . S
C366 C365 1.398 . S
C366 C367 1.352 . S
C367 C366 1.352 . S
C367 C368 1.384 . S
C367 H394 0.930 . S
C368 C363 1.407 . S
C368 C367 1.384 . S
C368 H395 0.929 . S
C369 O382 1.241 . S
C369 O383 1.273 . S
C370 O384 1.251 . S
C370 O385 1.268 . S
C371 Nd361 2.836 . S
C371 C372 1.498 . S
C371 O386 1.258 . S
C371 O387 1.239 . S
C372 C371 1.498 . S
C372 C373 1.366 . S
C372 C377 1.407 . S
C373 C372 1.366 . S
C373 C374 1.392 . S
C373 H396 0.930 . S
C374 C373 1.392 . S
C374 C375 1.398 . S
C374 H397 0.929 . S
C375 C374 1.398 . S
C375 C376 1.352 . S
C376 C375 1.352 . S
C376 C377 1.384 . S
C376 H398 0.930 . S
C377 C372 1.407 . S
C377 C376 1.384 . S
C377 H399 0.929 . S
C378 O388 1.241 . S
C378 O389 1.273 . S
C379 O390 1.251 . S
C379 O391 1.268 . S
O380 Nd360 2.500 . S
O380 C362 1.258 . S
O381 Nd360 2.492 . S
O381 C362 1.239 . S
O382 Nd360 2.487 . S
O382 C369 1.241 . S
O383 Nd360 2.682 . S
O383 Nd361 2.414 . S
O383 C369 1.273 . S
O384 Nd360 2.410 . S
O384 C370 1.251 . S
O385 Nd361 2.424 . S
O385 C370 1.268 . S
O386 Nd361 2.500 . S
O386 C371 1.258 . S
O387 Nd361 2.492 . S
O387 C371 1.239 . S
O388 Nd361 2.487 . S
O388 C378 1.241 . S
O389 Nd360 2.414 . S
O389 Nd361 2.682 . S
O389 C378 1.273 . S
O390 Nd361 2.410 . S
O390 C379 1.251 . S
O391 Nd360 2.424 . S
O391 C379 1.268 . S
H392 C364 0.930 . S
H393 C365 0.929 . S
H394 C367 0.930 . S
H395 C368 0.929 . S
H396 C373 0.930 . S
H397 C374 0.929 . S
H398 C376 0.930 . S
H399 C377 0.929 . S
Nd400 C402 2.836 . S
Nd400 O420 2.500 . S
Nd400 O421 2.492 . S
Nd400 O422 2.487 . S
Nd400 O423 2.682 . S
Nd400 O424 2.410 . S
Nd400 O429 2.414 . S
Nd400 O431 2.424 . S
Nd401 C411 2.836 . S
Nd401 O423 2.414 . S
Nd401 O425 2.424 . S
Nd401 O426 2.500 . S
Nd401 O427 2.492 . S
Nd401 O428 2.487 . S
Nd401 O429 2.682 . S
Nd401 O430 2.410 . S
C402 Nd400 2.836 . S
C402 C403 1.498 . S
C402 O420 1.258 . S
C402 O421 1.239 . S
C403 C402 1.498 . S
C403 C404 1.366 . S
C403 C408 1.407 . S
C404 C403 1.366 . S
C404 C405 1.392 . S
C404 H432 0.930 . S
C405 C404 1.392 . S
C405 C406 1.398 . S
C405 H433 0.929 . S
C406 C405 1.398 . S
C406 C407 1.352 . S
C407 C406 1.352 . S
C407 C408 1.384 . S
C407 H434 0.930 . S
C408 C403 1.407 . S
C408 C407 1.384 . S
C408 H435 0.929 . S
C409 O422 1.241 . S
C409 O423 1.273 . S
C410 O424 1.251 . S
C410 O425 1.268 . S
C411 Nd401 2.836 . S
C411 C412 1.498 . S
C411 O426 1.258 . S
C411 O427 1.239 . S
C412 C411 1.498 . S
C412 C413 1.366 . S
C412 C417 1.407 . S
C413 C412 1.366 . S
C413 C414 1.392 . S
C413 H436 0.930 . S
C414 C413 1.392 . S
C414 C415 1.398 . S
C414 H437 0.929 . S
C415 C414 1.398 . S
C415 C416 1.352 . S
C416 C415 1.352 . S
C416 C417 1.384 . S
C416 H438 0.930 . S
C417 C412 1.407 . S
C417 C416 1.384 . S
C417 H439 0.929 . S
C418 O428 1.241 . S
C418 O429 1.273 . S
C419 O430 1.251 . S
C419 O431 1.268 . S
O420 Nd400 2.500 . S
O420 C402 1.258 . S
O421 Nd400 2.492 . S
O421 C402 1.239 . S
O422 Nd400 2.487 . S
O422 C409 1.241 . S
O423 Nd400 2.682 . S
O423 Nd401 2.414 . S
O423 C409 1.273 . S
O424 Nd400 2.410 . S
O424 C410 1.251 . S
O425 Nd401 2.424 . S
O425 C410 1.268 . S
O426 Nd401 2.500 . S
O426 C411 1.258 . S
O427 Nd401 2.492 . S
O427 C411 1.239 . S
O428 Nd401 2.487 . S
O428 C418 1.241 . S
O429 Nd400 2.414 . S
O429 Nd401 2.682 . S
O429 C418 1.273 . S
O430 Nd401 2.410 . S
O430 C419 1.251 . S
O431 Nd400 2.424 . S
O431 C419 1.268 . S
H432 C404 0.930 . S
H433 C405 0.929 . S
H434 C407 0.930 . S
H435 C408 0.929 . S
H436 C413 0.930 . S
H437 C414 0.929 . S
H438 C416 0.930 . S
H439 C417 0.929 . S
Nd440 C442 2.836 . S
Nd440 O460 2.500 . S
Nd440 O461 2.492 . S
Nd440 O462 2.487 . S
Nd440 O463 2.682 . S
Nd440 O464 2.410 . S
Nd440 O469 2.414 . S
Nd440 O471 2.424 . S
Nd441 C451 2.836 . S
Nd441 O463 2.414 . S
Nd441 O465 2.424 . S
Nd441 O466 2.500 . S
Nd441 O467 2.492 . S
Nd441 O468 2.487 . S
Nd441 O469 2.682 . S
Nd441 O470 2.410 . S
C442 Nd440 2.836 . S
C442 C443 1.498 . S
C442 O460 1.258 . S
C442 O461 1.239 . S
C443 C442 1.498 . S
C443 C444 1.366 . S
C443 C448 1.407 . S
C444 C443 1.366 . S
C444 C445 1.392 . S
C444 H472 0.930 . S
C445 C444 1.392 . S
C445 C446 1.398 . S
C445 H473 0.929 . S
C446 C445 1.398 . S
C446 C447 1.352 . S
C447 C446 1.352 . S
C447 C448 1.384 . S
C447 H474 0.930 . S
C448 C443 1.407 . S
C448 C447 1.384 . S
C448 H475 0.929 . S
C449 O462 1.241 . S
C449 O463 1.273 . S
C450 O464 1.251 . S
C450 O465 1.268 . S
C451 Nd441 2.836 . S
C451 C452 1.498 . S
C451 O466 1.258 . S
C451 O467 1.239 . S
C452 C451 1.498 . S
C452 C453 1.366 . S
C452 C457 1.407 . S
C453 C452 1.366 . S
C453 C454 1.392 . S
C453 H476 0.930 . S
C454 C453 1.392 . S
C454 C455 1.398 . S
C454 H477 0.929 . S
C455 C454 1.398 . S
C455 C456 1.352 . S
C456 C455 1.352 . S
C456 C457 1.384 . S
C456 H478 0.930 . S
C457 C452 1.407 . S
C457 C456 1.384 . S
C457 H479 0.929 . S
C458 O468 1.241 . S
C458 O469 1.273 . S
C459 O470 1.251 . S
C459 O471 1.268 . S
O460 Nd440 2.500 . S
O460 C442 1.258 . S
O461 Nd440 2.492 . S
O461 C442 1.239 . S
O462 Nd440 2.487 . S
O462 C449 1.241 . S
O463 Nd440 2.682 . S
O463 Nd441 2.414 . S
O463 C449 1.273 . S
O464 Nd440 2.410 . S
O464 C450 1.251 . S
O465 Nd441 2.424 . S
O465 C450 1.268 . S
O466 Nd441 2.500 . S
O466 C451 1.258 . S
O467 Nd441 2.492 . S
O467 C451 1.239 . S
O468 Nd441 2.487 . S
O468 C458 1.241 . S
O469 Nd440 2.414 . S
O469 Nd441 2.682 . S
O469 C458 1.273 . S
O470 Nd441 2.410 . S
O470 C459 1.251 . S
O471 Nd440 2.424 . S
O471 C459 1.268 . S
H472 C444 0.930 . S
H473 C445 0.929 . S
H474 C447 0.930 . S
H475 C448 0.929 . S
H476 C453 0.930 . S
H477 C454 0.929 . S
H478 C456 0.930 . S
H479 C457 0.929 . S
Nd480 C482 2.836 . S
Nd480 O500 2.500 . S
Nd480 O501 2.492 . S
Nd480 O502 2.487 . S
Nd480 O503 2.682 . S
Nd480 O504 2.410 . S
Nd480 O509 2.414 . S
Nd480 O511 2.424 . S
Nd481 C491 2.836 . S
Nd481 O503 2.414 . S
Nd481 O505 2.424 . S
Nd481 O506 2.500 . S
Nd481 O507 2.492 . S
Nd481 O508 2.487 . S
Nd481 O509 2.682 . S
Nd481 O510 2.410 . S
C482 Nd480 2.836 . S
C482 C483 1.498 . S
C482 O500 1.258 . S
C482 O501 1.239 . S
C483 C482 1.498 . S
C483 C484 1.366 . S
C483 C488 1.407 . S
C484 C483 1.366 . S
C484 C485 1.392 . S
C484 H512 0.930 . S
C485 C484 1.392 . S
C485 C486 1.398 . S
C485 H513 0.929 . S
C486 C485 1.398 . S
C486 C487 1.352 . S
C487 C486 1.352 . S
C487 C488 1.384 . S
C487 H514 0.930 . S
C488 C483 1.407 . S
C488 C487 1.384 . S
C488 H515 0.929 . S
C489 O502 1.241 . S
C489 O503 1.273 . S
C490 O504 1.251 . S
C490 O505 1.268 . S
C491 Nd481 2.836 . S
C491 C492 1.498 . S
C491 O506 1.258 . S
C491 O507 1.239 . S
C492 C491 1.498 . S
C492 C493 1.366 . S
C492 C497 1.407 . S
C493 C492 1.366 . S
C493 C494 1.392 . S
C493 H516 0.930 . S
C494 C493 1.392 . S
C494 C495 1.398 . S
C494 H517 0.929 . S
C495 C494 1.398 . S
C495 C496 1.352 . S
C496 C495 1.352 . S
C496 C497 1.384 . S
C496 H518 0.930 . S
C497 C492 1.407 . S
C497 C496 1.384 . S
C497 H519 0.929 . S
C498 O508 1.241 . S
C498 O509 1.273 . S
C499 O510 1.251 . S
C499 O511 1.268 . S
O500 Nd480 2.500 . S
O500 C482 1.258 . S
O501 Nd480 2.492 . S
O501 C482 1.239 . S
O502 Nd480 2.487 . S
O502 C489 1.241 . S
O503 Nd480 2.682 . S
O503 Nd481 2.414 . S
O503 C489 1.273 . S
O504 Nd480 2.410 . S
O504 C490 1.251 . S
O505 Nd481 2.424 . S
O505 C490 1.268 . S
O506 Nd481 2.500 . S
O506 C491 1.258 . S
O507 Nd481 2.492 . S
O507 C491 1.239 . S
O508 Nd481 2.487 . S
O508 C498 1.241 . S
O509 Nd480 2.414 . S
O509 Nd481 2.682 . S
O509 C498 1.273 . S
O510 Nd481 2.410 . S
O510 C499 1.251 . S
O511 Nd480 2.424 . S
O511 C499 1.268 . S
H512 C484 0.930 . S
H513 C485 0.929 . S
H514 C487 0.930 . S
H515 C488 0.929 . S
H516 C493 0.930 . S
H517 C494 0.929 . S
H518 C496 0.930 . S
H519 C497 0.929 . S
Nd520 C522 2.836 . S
Nd520 O540 2.500 . S
Nd520 O541 2.492 . S
Nd520 O542 2.487 . S
Nd520 O543 2.682 . S
Nd520 O544 2.410 . S
Nd520 O549 2.414 . S
Nd520 O551 2.424 . S
Nd521 C531 2.836 . S
Nd521 O543 2.414 . S
Nd521 O545 2.424 . S
Nd521 O546 2.500 . S
Nd521 O547 2.492 . S
Nd521 O548 2.487 . S
Nd521 O549 2.682 . S
Nd521 O550 2.410 . S
C522 Nd520 2.836 . S
C522 C523 1.498 . S
C522 O540 1.258 . S
C522 O541 1.239 . S
C523 C522 1.498 . S
C523 C524 1.366 . S
C523 C528 1.407 . S
C524 C523 1.366 . S
C524 C525 1.392 . S
C524 H552 0.930 . S
C525 C524 1.392 . S
C525 C526 1.398 . S
C525 H553 0.929 . S
C526 C525 1.398 . S
C526 C527 1.352 . S
C527 C526 1.352 . S
C527 C528 1.384 . S
C527 H554 0.930 . S
C528 C523 1.407 . S
C528 C527 1.384 . S
C528 H555 0.929 . S
C529 O542 1.241 . S
C529 O543 1.273 . S
C530 O544 1.251 . S
C530 O545 1.268 . S
C531 Nd521 2.836 . S
C531 C532 1.498 . S
C531 O546 1.258 . S
C531 O547 1.239 . S
C532 C531 1.498 . S
C532 C533 1.366 . S
C532 C537 1.407 . S
C533 C532 1.366 . S
C533 C534 1.392 . S
C533 H556 0.930 . S
C534 C533 1.392 . S
C534 C535 1.398 . S
C534 H557 0.929 . S
C535 C534 1.398 . S
C535 C536 1.352 . S
C536 C535 1.352 . S
C536 C537 1.384 . S
C536 H558 0.930 . S
C537 C532 1.407 . S
C537 C536 1.384 . S
C537 H559 0.929 . S
C538 O548 1.241 . S
C538 O549 1.273 . S
C539 O550 1.251 . S
C539 O551 1.268 . S
O540 Nd520 2.500 . S
O540 C522 1.258 . S
O541 Nd520 2.492 . S
O541 C522 1.239 . S
O542 Nd520 2.487 . S
O542 C529 1.241 . S
O543 Nd520 2.682 . S
O543 Nd521 2.414 . S
O543 C529 1.273 . S
O544 Nd520 2.410 . S
O544 C530 1.251 . S
O545 Nd521 2.424 . S
O545 C530 1.268 . S
O546 Nd521 2.500 . S
O546 C531 1.258 . S
O547 Nd521 2.492 . S
O547 C531 1.239 . S
O548 Nd521 2.487 . S
O548 C538 1.241 . S
O549 Nd520 2.414 . S
O549 Nd521 2.682 . S
O549 C538 1.273 . S
O550 Nd521 2.410 . S
O550 C539 1.251 . S
O551 Nd520 2.424 . S
O551 C539 1.268 . S
H552 C524 0.930 . S
H553 C525 0.929 . S
H554 C527 0.930 . S
H555 C528 0.929 . S
H556 C533 0.930 . S
H557 C534 0.929 . S
H558 C536 0.930 . S
H559 C537 0.929 . S
Nd560 C562 2.836 . S
Nd560 O580 2.500 . S
Nd560 O581 2.492 . S
Nd560 O582 2.487 . S
Nd560 O583 2.682 . S
Nd560 O584 2.410 . S
Nd560 O589 2.414 . S
Nd560 O591 2.424 . S
Nd561 C571 2.836 . S
Nd561 O583 2.414 . S
Nd561 O585 2.424 . S
Nd561 O586 2.500 . S
Nd561 O587 2.492 . S
Nd561 O588 2.487 . S
Nd561 O589 2.682 . S
Nd561 O590 2.410 . S
C562 Nd560 2.836 . S
C562 C563 1.498 . S
C562 O580 1.258 . S
C562 O581 1.239 . S
C563 C562 1.498 . S
C563 C564 1.366 . S
C563 C568 1.407 . S
C564 C563 1.366 . S
C564 C565 1.392 . S
C564 H592 0.930 . S
C565 C564 1.392 . S
C565 C566 1.398 . S
C565 H593 0.929 . S
C566 C565 1.398 . S
C566 C567 1.352 . S
C567 C566 1.352 . S
C567 C568 1.384 . S
C567 H594 0.930 . S
C568 C563 1.407 . S
C568 C567 1.384 . S
C568 H595 0.929 . S
C569 O582 1.241 . S
C569 O583 1.273 . S
C570 O584 1.251 . S
C570 O585 1.268 . S
C571 Nd561 2.836 . S
C571 C572 1.498 . S
C571 O586 1.258 . S
C571 O587 1.239 . S
C572 C571 1.498 . S
C572 C573 1.366 . S
C572 C577 1.407 . S
C573 C572 1.366 . S
C573 C574 1.392 . S
C573 H596 0.930 . S
C574 C573 1.392 . S
C574 C575 1.398 . S
C574 H597 0.929 . S
C575 C574 1.398 . S
C575 C576 1.352 . S
C576 C575 1.352 . S
C576 C577 1.384 . S
C576 H598 0.930 . S
C577 C572 1.407 . S
C577 C576 1.384 . S
C577 H599 0.929 . S
C578 O588 1.241 . S
C578 O589 1.273 . S
C579 O590 1.251 . S
C579 O591 1.268 . S
O580 Nd560 2.500 . S
O580 C562 1.258 . S
O581 Nd560 2.492 . S
O581 C562 1.239 . S
O582 Nd560 2.487 . S
O582 C569 1.241 . S
O583 Nd560 2.682 . S
O583 Nd561 2.414 . S
O583 C569 1.273 . S
O584 Nd560 2.410 . S
O584 C570 1.251 . S
O585 Nd561 2.424 . S
O585 C570 1.268 . S
O586 Nd561 2.500 . S
O586 C571 1.258 . S
O587 Nd561 2.492 . S
O587 C571 1.239 . S
O588 Nd561 2.487 . S
O588 C578 1.241 . S
O589 Nd560 2.414 . S
O589 Nd561 2.682 . S
O589 C578 1.273 . S
O590 Nd561 2.410 . S
O590 C579 1.251 . S
O591 Nd560 2.424 . S
O591 C579 1.268 . S
H592 C564 0.930 . S
H593 C565 0.929 . S
H594 C567 0.930 . S
H595 C568 0.929 . S
H596 C573 0.930 . S
H597 C574 0.929 . S
H598 C576 0.930 . S
H599 C577 0.929 . S
Nd600 C602 2.836 1_554 S
Nd600 O620 2.500 1_554 S
Nd600 O621 2.492 1_554 S
Nd600 O622 2.487 . S
Nd600 O623 2.682 . S
Nd600 O624 2.410 1_554 S
Nd600 O629 2.414 1_554 S
Nd600 O631 2.424 . S
Nd601 C611 2.836 1_556 S
Nd601 O623 2.414 1_556 S
Nd601 O625 2.424 . S
Nd601 O626 2.500 1_556 S
Nd601 O627 2.492 1_556 S
Nd601 O628 2.487 . S
Nd601 O629 2.682 . S
Nd601 O630 2.410 1_556 S
C602 Nd600 2.836 1_556 S
C602 C603 1.498 . S
C602 O620 1.258 . S
C602 O621 1.239 . S
C603 C602 1.498 . S
C603 C604 1.366 . S
C603 C608 1.407 . S
C604 C603 1.366 . S
C604 C605 1.392 . S
C604 H632 0.930 . S
C605 C604 1.392 . S
C605 C606 1.398 . S
C605 H633 0.929 . S
C606 C605 1.398 . S
C606 C607 1.352 . S
C607 C606 1.352 . S
C607 C608 1.384 . S
C607 H634 0.930 . S
C608 C603 1.407 . S
C608 C607 1.384 . S
C608 H635 0.929 . S
C609 O622 1.241 . S
C609 O623 1.273 . S
C610 O624 1.251 . S
C610 O625 1.268 . S
C611 Nd601 2.836 1_554 S
C611 C612 1.498 . S
C611 O626 1.258 . S
C611 O627 1.239 . S
C612 C611 1.498 . S
C612 C613 1.366 . S
C612 C617 1.407 . S
C613 C612 1.366 . S
C613 C614 1.392 . S
C613 H636 0.930 . S
C614 C613 1.392 . S
C614 C615 1.398 . S
C614 H637 0.929 . S
C615 C614 1.398 . S
C615 C616 1.352 . S
C616 C615 1.352 . S
C616 C617 1.384 . S
C616 H638 0.930 . S
C617 C612 1.407 . S
C617 C616 1.384 . S
C617 H639 0.929 . S
C618 O628 1.241 . S
C618 O629 1.273 . S
C619 O630 1.251 . S
C619 O631 1.268 . S
O620 Nd600 2.500 1_556 S
O620 C602 1.258 . S
O621 Nd600 2.492 1_556 S
O621 C602 1.239 . S
O622 Nd600 2.487 . S
O622 C609 1.241 . S
O623 Nd600 2.682 . S
O623 Nd601 2.414 1_554 S
O623 C609 1.273 . S
O624 Nd600 2.410 1_556 S
O624 C610 1.251 . S
O625 Nd601 2.424 . S
O625 C610 1.268 . S
O626 Nd601 2.500 1_554 S
O626 C611 1.258 . S
O627 Nd601 2.492 1_554 S
O627 C611 1.239 . S
O628 Nd601 2.487 . S
O628 C618 1.241 . S
O629 Nd600 2.414 1_556 S
O629 Nd601 2.682 . S
O629 C618 1.273 . S
O630 Nd601 2.410 1_554 S
O630 C619 1.251 . S
O631 Nd600 2.424 . S
O631 C619 1.268 . S
H632 C604 0.930 . S
H633 C605 0.929 . S
H634 C607 0.930 . S
H635 C608 0.929 . S
H636 C613 0.930 . S
H637 C614 0.929 . S
H638 C616 0.930 . S
H639 C617 0.929 . S
Nd640 C642 2.836 1_554 S
Nd640 O660 2.500 1_554 S
Nd640 O661 2.492 1_554 S
Nd640 O662 2.487 . S
Nd640 O663 2.682 . S
Nd640 O664 2.410 1_554 S
Nd640 O669 2.414 1_554 S
Nd640 O671 2.424 . S
Nd641 C651 2.836 1_556 S
Nd641 O663 2.414 1_556 S
Nd641 O665 2.424 . S
Nd641 O666 2.500 1_556 S
Nd641 O667 2.492 1_556 S
Nd641 O668 2.487 . S
Nd641 O669 2.682 . S
Nd641 O670 2.410 1_556 S
C642 Nd640 2.836 1_556 S
C642 C643 1.498 . S
C642 O660 1.258 . S
C642 O661 1.239 . S
C643 C642 1.498 . S
C643 C644 1.366 . S
C643 C648 1.407 . S
C644 C643 1.366 . S
C644 C645 1.392 . S
C644 H672 0.930 . S
C645 C644 1.392 . S
C645 C646 1.398 . S
C645 H673 0.929 . S
C646 C645 1.398 . S
C646 C647 1.352 . S
C647 C646 1.352 . S
C647 C648 1.384 . S
C647 H674 0.930 . S
C648 C643 1.407 . S
C648 C647 1.384 . S
C648 H675 0.929 . S
C649 O662 1.241 . S
C649 O663 1.273 . S
C650 O664 1.251 . S
C650 O665 1.268 . S
C651 Nd641 2.836 1_554 S
C651 C652 1.498 . S
C651 O666 1.258 . S
C651 O667 1.239 . S
C652 C651 1.498 . S
C652 C653 1.366 . S
C652 C657 1.407 . S
C653 C652 1.366 . S
C653 C654 1.392 . S
C653 H676 0.930 . S
C654 C653 1.392 . S
C654 C655 1.398 . S
C654 H677 0.929 . S
C655 C654 1.398 . S
C655 C656 1.352 . S
C656 C655 1.352 . S
C656 C657 1.384 . S
C656 H678 0.930 . S
C657 C652 1.407 . S
C657 C656 1.384 . S
C657 H679 0.929 . S
C658 O668 1.241 . S
C658 O669 1.273 . S
C659 O670 1.251 . S
C659 O671 1.268 . S
O660 Nd640 2.500 1_556 S
O660 C642 1.258 . S
O661 Nd640 2.492 1_556 S
O661 C642 1.239 . S
O662 Nd640 2.487 . S
O662 C649 1.241 . S
O663 Nd640 2.682 . S
O663 Nd641 2.414 1_554 S
O663 C649 1.273 . S
O664 Nd640 2.410 1_556 S
O664 C650 1.251 . S
O665 Nd641 2.424 . S
O665 C650 1.268 . S
O666 Nd641 2.500 1_554 S
O666 C651 1.258 . S
O667 Nd641 2.492 1_554 S
O667 C651 1.239 . S
O668 Nd641 2.487 . S
O668 C658 1.241 . S
O669 Nd640 2.414 1_556 S
O669 Nd641 2.682 . S
O669 C658 1.273 . S
O670 Nd641 2.410 1_554 S
O670 C659 1.251 . S
O671 Nd640 2.424 . S
O671 C659 1.268 . S
H672 C644 0.930 . S
H673 C645 0.929 . S
H674 C647 0.930 . S
H675 C648 0.929 . S
H676 C653 0.930 . S
H677 C654 0.929 . S
H678 C656 0.930 . S
H679 C657 0.929 . S
Nd680 C682 2.836 1_554 S
Nd680 O700 2.500 1_554 S
Nd680 O701 2.492 1_554 S
Nd680 O702 2.487 . S
Nd680 O703 2.682 . S
Nd680 O704 2.410 1_554 S
Nd680 O709 2.414 1_554 S
Nd680 O711 2.424 . S
Nd681 C691 2.836 1_556 S
Nd681 O703 2.414 1_556 S
Nd681 O705 2.424 . S
Nd681 O706 2.500 1_556 S
Nd681 O707 2.492 1_556 S
Nd681 O708 2.487 . S
Nd681 O709 2.682 . S
Nd681 O710 2.410 1_556 S
C682 Nd680 2.836 1_556 S
C682 C683 1.498 . S
C682 O700 1.258 . S
C682 O701 1.239 . S
C683 C682 1.498 . S
C683 C684 1.366 . S
C683 C688 1.407 . S
C684 C683 1.366 . S
C684 C685 1.392 . S
C684 H712 0.930 . S
C685 C684 1.392 . S
C685 C686 1.398 . S
C685 H713 0.929 . S
C686 C685 1.398 . S
C686 C687 1.352 . S
C687 C686 1.352 . S
C687 C688 1.384 . S
C687 H714 0.930 . S
C688 C683 1.407 . S
C688 C687 1.384 . S
C688 H715 0.929 . S
C689 O702 1.241 . S
C689 O703 1.273 . S
C690 O704 1.251 . S
C690 O705 1.268 . S
C691 Nd681 2.836 1_554 S
C691 C692 1.498 . S
C691 O706 1.258 . S
C691 O707 1.239 . S
C692 C691 1.498 . S
C692 C693 1.366 . S
C692 C697 1.407 . S
C693 C692 1.366 . S
C693 C694 1.392 . S
C693 H716 0.930 . S
C694 C693 1.392 . S
C694 C695 1.398 . S
C694 H717 0.929 . S
C695 C694 1.398 . S
C695 C696 1.352 . S
C696 C695 1.352 . S
C696 C697 1.384 . S
C696 H718 0.930 . S
C697 C692 1.407 . S
C697 C696 1.384 . S
C697 H719 0.929 . S
C698 O708 1.241 . S
C698 O709 1.273 . S
C699 O710 1.251 . S
C699 O711 1.268 . S
O700 Nd680 2.500 1_556 S
O700 C682 1.258 . S
O701 Nd680 2.492 1_556 S
O701 C682 1.239 . S
O702 Nd680 2.487 . S
O702 C689 1.241 . S
O703 Nd680 2.682 . S
O703 Nd681 2.414 1_554 S
O703 C689 1.273 . S
O704 Nd680 2.410 1_556 S
O704 C690 1.251 . S
O705 Nd681 2.424 . S
O705 C690 1.268 . S
O706 Nd681 2.500 1_554 S
O706 C691 1.258 . S
O707 Nd681 2.492 1_554 S
O707 C691 1.239 . S
O708 Nd681 2.487 . S
O708 C698 1.241 . S
O709 Nd680 2.414 1_556 S
O709 Nd681 2.682 . S
O709 C698 1.273 . S
O710 Nd681 2.410 1_554 S
O710 C699 1.251 . S
O711 Nd680 2.424 . S
O711 C699 1.268 . S
H712 C684 0.930 . S
H713 C685 0.929 . S
H714 C687 0.930 . S
H715 C688 0.929 . S
H716 C693 0.930 . S
H717 C694 0.929 . S
H718 C696 0.930 . S
H719 C697 0.929 . S
H720 C728 0.950 . S
H721 C733 0.950 . S
H722 C730 0.950 . S
H723 C732 0.950 . S
H724 C734 0.950 . S
H725 C736 0.950 . S
H726 C738 0.950 . S
H727 C739 0.950 . S
C728 H720 0.950 . S
C728 C729 1.386 . S
C728 C730 1.391 . S
C729 C728 1.386 . S
C729 C733 1.393 . S
C730 H722 0.950 . S
C730 C728 1.391 . S
C730 C731 1.400 . S
C731 C730 1.400 . S
C731 C732 1.398 . S
C731 C737 1.491 . S
C732 H723 0.950 . S
C732 C731 1.398 . S
C732 C733 1.391 . S
C733 H721 0.950 . S
C733 C729 1.393 . S
C733 C732 1.391 . S
C734 H724 0.950 . S
C734 C735 1.386 . S
C734 C736 1.391 . S
C735 C734 1.386 . S
C735 C739 1.393 . S
C736 H725 0.950 . S
C736 C734 1.391 . S
C736 C737 1.400 . S
C737 C731 1.491 . S
C737 C736 1.400 . S
C737 C738 1.398 . S
C738 H726 0.950 . S
C738 C737 1.398 . S
C738 C739 1.391 . S
C739 H727 0.950 . S
C739 C735 1.393 . S
C739 C738 1.391 . S
H740 C748 0.950 . S
H741 C753 0.950 . S
H742 C750 0.950 . S
H743 C752 0.950 . S
H744 C754 0.950 . S
H745 C756 0.950 . S
H746 C758 0.950 . S
H747 C759 0.950 . S
C748 H740 0.950 . S
C748 C749 1.386 . S
C748 C750 1.391 . S
C749 C748 1.386 . S
C749 C753 1.393 . S
C750 H742 0.950 . S
C750 C748 1.391 . S
C750 C751 1.400 . S
C751 C750 1.400 . S
C751 C752 1.398 . S
C751 C757 1.491 . S
C752 H743 0.950 . S
C752 C751 1.398 . S
C752 C753 1.391 . S
C753 H741 0.950 . S
C753 C749 1.393 . S
C753 C752 1.391 . S
C754 H744 0.950 . S
C754 C755 1.386 . S
C754 C756 1.391 . S
C755 C754 1.386 . S
C755 C759 1.393 . S
C756 H745 0.950 . S
C756 C754 1.391 . S
C756 C757 1.400 . S
C757 C751 1.491 . S
C757 C756 1.400 . S
C757 C758 1.398 . S
C758 H746 0.950 . S
C758 C757 1.398 . S
C758 C759 1.391 . S
C759 H747 0.950 . S
C759 C755 1.393 . S
C759 C758 1.391 . S
H760 C768 0.991 . S
H761 C773 0.950 . S
H762 C770 0.950 . S
H763 C772 0.950 . S
H764 C774 0.950 . S
H765 C776 0.950 . S
H766 C778 0.950 . S
H767 C779 0.950 . S
C768 H760 0.991 . S
C768 C769 1.386 . S
C768 C770 1.391 . S
C769 C768 1.386 . S
C769 C773 1.393 . S
C770 H762 0.950 . S
C770 C768 1.391 . S
C770 C771 1.400 . S
C771 C770 1.400 . S
C771 C772 1.398 . S
C771 C777 1.491 . S
C772 H763 0.950 . S
C772 C771 1.398 . S
C772 C773 1.391 . S
C773 H761 0.950 . S
C773 C769 1.393 . S
C773 C772 1.391 . S
C774 H764 0.950 . S
C774 C775 1.386 . S
C774 C776 1.391 . S
C775 C774 1.386 . S
C775 C779 1.393 . S
C776 H765 0.950 . S
C776 C774 1.391 . S
C776 C777 1.400 . S
C777 C771 1.491 . S
C777 C776 1.400 . S
C777 C778 1.398 . S
C778 H766 0.950 . S
C778 C777 1.398 . S
C778 C779 1.391 . S
C779 H767 0.950 . S
C779 C775 1.393 . S
C779 C778 1.391 . S
H780 C788 0.950 . S
H781 C793 0.943 1_554 S
H782 C790 0.950 . S
H783 C792 0.950 . S
H784 C794 0.950 . S
H785 C796 0.950 . S
H786 C798 0.950 . S
H787 C799 0.950 . S
C788 H780 0.950 . S
C788 C789 1.386 . S
C788 C790 1.391 . S
C789 C788 1.386 . S
C789 C793 1.400 . S
C790 H782 0.950 . S
C790 C788 1.391 . S
C790 C791 1.400 . S
C791 C790 1.400 . S
C791 C792 1.398 1_556 S
C791 C797 1.491 . S
C792 H783 0.950 . S
C792 C791 1.398 1_554 S
C792 C793 1.390 1_554 S
C793 H781 0.943 1_556 S
C793 C789 1.400 . S
C793 C792 1.390 1_556 S
C794 H784 0.950 . S
C794 C795 1.386 1_554 S
C794 C796 1.391 . S
C795 C794 1.386 1_556 S
C795 C799 1.393 . S
C796 H785 0.950 . S
C796 C794 1.391 . S
C796 C797 1.400 1_554 S
C797 C791 1.491 . S
C797 C796 1.400 1_556 S
C797 C798 1.398 . S
C798 H786 0.950 . S
C798 C797 1.398 . S
C798 C799 1.391 . S
C799 H787 0.950 . S
C799 C795 1.393 . S
C799 C798 1.391 . S
H800 C808 0.950 . S
H801 C813 0.950 . S
H802 C810 0.950 . S
H803 C812 0.950 . S
H804 C814 0.950 1_554 S
H805 C816 0.950 1_554 S
H806 C818 0.950 . S
H807 C819 0.950 . S
C808 H800 0.950 . S
C808 C809 1.386 . S
C808 C810 1.391 . S
C809 C808 1.386 . S
C809 C813 1.393 1_556 S
C810 H802 0.950 . S
C810 C808 1.391 . S
C810 C811 1.400 . S
C811 C810 1.400 . S
C811 C812 1.398 1_556 S
C811 C817 1.491 . S
C812 H803 0.950 . S
C812 C811 1.398 1_554 S
C812 C813 1.391 . S
C813 H801 0.950 . S
C813 C809 1.393 1_554 S
C813 C812 1.391 . S
C814 H804 0.950 1_556 S
C814 C815 1.386 . S
C814 C816 1.391 . S
C815 C814 1.386 . S
C815 C819 1.393 . S
C816 H805 0.950 1_556 S
C816 C814 1.391 . S
C816 C817 1.400 . S
C817 C811 1.491 . S
C817 C816 1.400 . S
C817 C818 1.398 . S
C818 H806 0.950 . S
C818 C817 1.398 . S
C818 C819 1.391 . S
C819 H807 0.950 . S
C819 C815 1.393 . S
C819 C818 1.391 . S
H820 C828 0.950 . S
H821 C833 0.950 . S
H822 C830 0.950 . S
H823 C832 0.950 . S
H824 C834 0.950 1_554 S
H825 C836 0.950 1_554 S
H826 C838 0.950 . S
H827 C839 0.950 . S
C828 H820 0.950 . S
C828 C829 1.386 . S
C828 C830 1.391 . S
C829 C828 1.386 . S
C829 C833 1.393 . S
C830 H822 0.950 . S
C830 C828 1.391 . S
C830 C831 1.400 . S
C831 C830 1.400 . S
C831 C832 1.398 . S
C831 C837 1.491 . S
C832 H823 0.950 . S
C832 C831 1.398 . S
C832 C833 1.391 . S
C833 H821 0.950 . S
C833 C829 1.393 . S
C833 C832 1.391 . S
C834 H824 0.950 1_556 S
C834 C835 1.386 . S
C834 C836 1.391 . S
C835 C834 1.386 . S
C835 C839 1.393 . S
C836 H825 0.950 1_556 S
C836 C834 1.391 . S
C836 C837 1.400 . S
C837 C831 1.491 . S
C837 C836 1.400 . S
C837 C838 1.398 . S
C838 H826 0.950 . S
C838 C837 1.398 . S
C838 C839 1.391 . S
C839 H827 0.950 . S
C839 C835 1.393 . S
C839 C838 1.391 . S
H840 C848 0.950 . S
H841 C853 0.950 . S
H842 C850 0.950 . S
H843 C852 0.950 . S
H844 C854 0.950 . S
H845 C856 0.950 . S
H846 C858 0.950 . S
H847 C859 0.950 . S
C848 H840 0.950 . S
C848 C849 1.386 . S
C848 C850 1.391 . S
C849 C848 1.386 . S
C849 C853 1.393 . S
C850 H842 0.950 . S
C850 C848 1.391 . S
C850 C851 1.400 . S
C851 C850 1.400 . S
C851 C852 1.398 . S
C851 C857 1.491 . S
C852 H843 0.950 . S
C852 C851 1.398 . S
C852 C853 1.391 . S
C853 H841 0.950 . S
C853 C849 1.393 . S
C853 C852 1.391 . S
C854 H844 0.950 . S
C854 C855 1.386 . S
C854 C856 1.391 . S
C855 C854 1.386 . S
C855 C859 1.393 . S
C856 H845 0.950 . S
C856 C854 1.391 . S
C856 C857 1.400 . S
C857 C851 1.491 . S
C857 C856 1.400 . S
C857 C858 1.398 . S
C858 H846 0.950 . S
C858 C857 1.398 . S
C858 C859 1.391 . S
C859 H847 0.950 . S
C859 C855 1.393 . S
C859 C858 1.391 . S
H860 C868 0.950 . S
H861 C873 0.950 . S
H862 C870 0.950 . S
H863 C872 0.950 . S
H864 C874 0.950 . S
H865 C876 0.950 . S
H866 C878 0.950 . S
H867 C879 0.950 . S
C868 H860 0.950 . S
C868 C869 1.386 . S
C868 C870 1.391 . S
C869 C868 1.386 . S
C869 C873 1.393 . S
C870 H862 0.950 . S
C870 C868 1.391 . S
C870 C871 1.400 . S
C871 C870 1.400 . S
C871 C872 1.398 . S
C871 C877 1.491 . S
C872 H863 0.950 . S
C872 C871 1.398 . S
C872 C873 1.391 . S
C873 H861 0.950 . S
C873 C869 1.393 . S
C873 C872 1.391 . S
C874 H864 0.950 . S
C874 C875 1.386 . S
C874 C876 1.391 . S
C875 C874 1.386 . S
C875 C879 1.393 . S
C876 H865 0.950 . S
C876 C874 1.391 . S
C876 C877 1.400 . S
C877 C871 1.491 . S
C877 C876 1.400 . S
C877 C878 1.398 . S
C878 H866 0.950 . S
C878 C877 1.398 . S
C878 C879 1.391 . S
C879 H867 0.950 . S
C879 C875 1.393 . S
C879 C878 1.391 . S
H880 C888 0.950 . S
H881 C893 0.950 . S
H882 C890 0.950 . S
H883 C892 0.950 . S
H884 C894 0.950 . S
H885 C896 0.950 . S
H886 C898 0.950 . S
H887 C899 0.950 . S
C888 H880 0.950 . S
C888 C889 1.386 . S
C888 C890 1.391 . S
C889 C888 1.386 . S
C889 C893 1.393 . S
C890 H882 0.950 . S
C890 C888 1.391 . S
C890 C891 1.400 . S
C891 C890 1.400 . S
C891 C892 1.398 . S
C891 C897 1.491 . S
C892 H883 0.950 . S
C892 C891 1.398 . S
C892 C893 1.391 . S
C893 H881 0.950 . S
C893 C889 1.393 . S
C893 C892 1.391 . S
C894 H884 0.950 . S
C894 C895 1.386 . S
C894 C896 1.391 . S
C895 C894 1.386 . S
C895 C899 1.393 . S
C896 H885 0.950 . S
C896 C894 1.391 . S
C896 C897 1.400 . S
C897 C891 1.491 . S
C897 C896 1.400 . S
C897 C898 1.398 . S
C898 H886 0.950 . S
C898 C897 1.398 . S
C898 C899 1.391 . S
C899 H887 0.950 . S
C899 C895 1.393 . S
C899 C898 1.391 . S
H900 C908 0.950 . S
H901 C913 0.950 . S
H902 C910 0.950 . S
H903 C912 0.950 . S
H904 C914 0.950 . S
H905 C916 0.950 . S
H906 C918 0.950 . S
H907 C919 0.950 1_556 S
C908 H900 0.950 . S
C908 C909 1.386 1_556 S
C908 C910 1.391 . S
C909 C908 1.386 1_554 S
C909 C913 1.393 . S
C910 H902 0.950 . S
C910 C908 1.391 . S
C910 C911 1.400 1_556 S
C911 C910 1.400 1_554 S
C911 C912 1.398 . S
C911 C917 1.491 . S
C912 H903 0.950 . S
C912 C911 1.398 . S
C912 C913 1.391 . S
C913 H901 0.950 . S
C913 C909 1.393 . S
C913 C912 1.391 . S
C914 H904 0.950 . S
C914 C915 1.386 . S
C914 C916 1.391 . S
C915 C914 1.386 . S
C915 C919 1.393 . S
C916 H905 0.950 . S
C916 C914 1.391 . S
C916 C917 1.400 . S
C917 C911 1.491 . S
C917 C916 1.400 . S
C917 C918 1.398 1_554 S
C918 H906 0.950 . S
C918 C917 1.398 1_556 S
C918 C919 1.391 1_556 S
C919 H907 0.950 1_554 S
C919 C915 1.393 . S
C919 C918 1.391 1_554 S
H920 C928 0.950 . S
H921 C933 0.950 . S
H922 C930 0.950 . S
H923 C932 0.950 1_556 S
H924 C934 0.950 . S
H925 C936 0.950 . S
H926 C938 0.950 . S
H927 C939 0.950 . S
C928 H920 0.950 . S
C928 C929 1.386 . S
C928 C930 1.391 . S
C929 C928 1.386 . S
C929 C933 1.393 . S
C930 H922 0.950 . S
C930 C928 1.391 . S
C930 C931 1.400 . S
C931 C930 1.400 . S
C931 C932 1.398 . S
C931 C937 1.491 . S
C932 H923 0.950 1_554 S
C932 C931 1.398 . S
C932 C933 1.391 . S
C933 H921 0.950 . S
C933 C929 1.393 . S
C933 C932 1.391 . S
C934 H924 0.950 . S
C934 C935 1.386 1_556 S
C934 C936 1.391 . S
C935 C934 1.386 1_554 S
C935 C939 1.393 . S
C936 H925 0.950 . S
C936 C934 1.391 . S
C936 C937 1.400 1_556 S
C937 C931 1.491 . S
C937 C936 1.400 1_554 S
C937 C938 1.398 . S
C938 H926 0.950 . S
C938 C937 1.398 . S
C938 C939 1.391 . S
C939 H927 0.950 . S
C939 C935 1.393 . S
C939 C938 1.391 . S
H940 C948 0.950 . S
H941 C953 0.950 . S
H942 C950 0.950 . S
H943 C952 0.950 . S
H944 C954 0.950 . S
H945 C956 0.950 . S
H946 C958 0.950 . S
H947 C959 0.950 . S
C948 H940 0.950 . S
C948 C949 1.386 1_556 S
C948 C950 1.391 . S
C949 C948 1.386 1_554 S
C949 C953 1.393 . S
C950 H942 0.950 . S
C950 C948 1.391 . S
C950 C951 1.400 1_556 S
C951 C950 1.400 1_554 S
C951 C952 1.398 . S
C951 C957 1.491 . S
C952 H943 0.950 . S
C952 C951 1.398 . S
C952 C953 1.391 . S
C953 H941 0.950 . S
C953 C949 1.393 . S
C953 C952 1.391 . S
C954 H944 0.950 . S
C954 C955 1.386 . S
C954 C956 1.391 . S
C955 C954 1.386 . S
C955 C959 1.393 1_554 S
C956 H945 0.950 . S
C956 C954 1.391 . S
C956 C957 1.400 . S
C957 C951 1.491 . S
C957 C956 1.400 . S
C957 C958 1.398 1_554 S
C958 H946 0.950 . S
C958 C957 1.398 1_556 S
C958 C959 1.391 . S
C959 H947 0.950 . S
C959 C955 1.393 1_556 S
C959 C958 1.391 . S
H960 C968 0.950 . S
H961 C973 0.950 . S
H962 C970 0.950 . S
H963 C972 0.950 . S
H964 C974 0.950 . S
H965 C976 0.950 . S
H966 C978 0.950 . S
H967 C979 0.950 . S
C968 H960 0.950 . S
C968 C969 1.386 . S
C968 C970 1.391 . S
C969 C968 1.386 . S
C969 C973 1.393 . S
C970 H962 0.950 . S
C970 C968 1.391 . S
C970 C971 1.400 . S
C971 C970 1.400 . S
C971 C972 1.398 . S
C971 C977 1.491 . S
C972 H963 0.950 . S
C972 C971 1.398 . S
C972 C973 1.391 . S
C973 H961 0.950 . S
C973 C969 1.393 . S
C973 C972 1.391 . S
C974 H964 0.950 . S
C974 C975 1.386 . S
C974 C976 1.391 . S
C975 C974 1.386 . S
C975 C979 1.393 . S
C976 H965 0.950 . S
C976 C974 1.391 . S
C976 C977 1.400 . S
C977 C971 1.491 . S
C977 C976 1.400 . S
C977 C978 1.398 . S
C978 H966 0.950 . S
C978 C977 1.398 . S
C978 C979 1.391 . S
C979 H967 0.950 . S
C979 C975 1.393 . S
C979 C978 1.391 . S
H980 C988 0.950 . S
H981 C993 0.950 . S
H982 C990 0.950 . S
H983 C992 0.950 . S
H984 C994 0.950 . S
H985 C996 0.950 . S
H986 C998 0.950 . S
H987 C999 0.950 . S
C988 H980 0.950 . S
C988 C989 1.386 . S
C988 C990 1.391 . S
C989 C988 1.386 . S
C989 C993 1.393 . S
C990 H982 0.950 . S
C990 C988 1.391 . S
C990 C991 1.400 . S
C991 C990 1.400 . S
C991 C992 1.398 . S
C991 C997 1.491 . S
C992 H983 0.950 . S
C992 C991 1.398 . S
C992 C993 1.391 . S
C993 H981 0.950 . S
C993 C989 1.393 . S
C993 C992 1.391 . S
C994 H984 0.950 . S
C994 C995 1.386 . S
C994 C996 1.391 . S
C995 C994 1.386 . S
C995 C999 1.393 . S
C996 H985 0.950 . S
C996 C994 1.391 . S
C996 C997 1.400 . S
C997 C991 1.491 . S
C997 C996 1.400 . S
C997 C998 1.398 . S
C998 H986 0.950 . S
C998 C997 1.398 . S
C998 C999 1.391 . S
C999 H987 0.950 . S
C999 C995 1.393 . S
C999 C998 1.391 . S
H1000 C1008 0.950 . S
H1001 C1013 0.950 . S
H1002 C1010 0.950 . S
H1003 C1012 0.950 . S
H1004 C1014 0.950 . S
H1005 C1016 0.950 . S
H1006 C1018 0.950 . S
H1007 C1019 0.950 . S
C1008 H1000 0.950 . S
C1008 C1009 1.386 . S
C1008 C1010 1.391 . S
C1009 C1008 1.386 . S
C1009 C1013 1.393 . S
C1010 H1002 0.950 . S
C1010 C1008 1.391 . S
C1010 C1011 1.471 . S
C1011 C1010 1.471 . S
C1011 C1012 1.400 . S
C1011 C1017 1.425 1_545 S
C1012 H1003 0.950 . S
C1012 C1011 1.400 . S
C1012 C1013 1.391 . S
C1013 H1001 0.950 . S
C1013 C1009 1.393 . S
C1013 C1012 1.391 . S
C1014 H1004 0.950 . S
C1014 C1015 1.386 . S
C1014 C1016 1.391 . S
C1015 C1014 1.386 . S
C1015 C1019 1.393 . S
C1016 H1005 0.950 . S
C1016 C1014 1.391 . S
C1016 C1017 1.400 . S
C1017 C1011 1.425 1_565 S
C1017 C1016 1.400 . S
C1017 C1018 1.398 . S
C1018 H1006 0.950 . S
C1018 C1017 1.398 . S
C1018 C1019 1.391 . S
C1019 H1007 0.950 . S
C1019 C1015 1.393 . S
C1019 C1018 1.391 . S
H1020 C1028 0.950 . S
H1021 C1033 0.950 . S
H1022 C1030 0.950 . S
H1023 C1032 0.950 . S
H1024 C1034 0.950 . S
H1025 C1036 0.950 . S
H1026 C1038 0.950 . S
H1027 C1039 0.950 . S
C1028 H1020 0.950 . S
C1028 C1029 1.386 . S
C1028 C1030 1.391 . S
C1029 C1028 1.386 . S
C1029 C1033 1.393 . S
C1030 H1022 0.950 . S
C1030 C1028 1.391 . S
C1030 C1031 1.400 . S
C1031 C1030 1.400 . S
C1031 C1032 1.398 . S
C1031 C1037 1.491 . S
C1032 H1023 0.950 . S
C1032 C1031 1.398 . S
C1032 C1033 1.391 . S
C1033 H1021 0.950 . S
C1033 C1029 1.393 . S
C1033 C1032 1.391 . S
C1034 H1024 0.950 . S
C1034 C1035 1.386 . S
C1034 C1036 1.391 . S
C1035 C1034 1.386 . S
C1035 C1039 1.393 . S
C1036 H1025 0.950 . S
C1036 C1034 1.391 . S
C1036 C1037 1.400 . S
C1037 C1031 1.491 . S
C1037 C1036 1.400 . S
C1037 C1038 1.398 . S
C1038 H1026 0.950 . S
C1038 C1037 1.398 . S
C1038 C1039 1.391 . S
C1039 H1027 0.950 . S
C1039 C1035 1.393 . S
C1039 C1038 1.391 . S
H1040 C1048 0.950 . S
H1041 C1053 0.950 . S
H1042 C1050 0.950 . S
H1043 C1052 0.945 1_655 S
H1044 C1054 0.950 . S
H1045 C1056 0.950 . S
H1046 C1058 0.950 . S
H1047 C1059 0.950 . S
C1048 H1040 0.950 . S
C1048 C1049 1.386 . S
C1048 C1050 1.391 . S
C1049 C1048 1.386 . S
C1049 C1053 1.393 . S
C1050 H1042 0.950 . S
C1050 C1048 1.391 . S
C1050 C1051 1.394 1_455 S
C1051 C1050 1.394 1_655 S
C1051 C1052 1.364 1_655 S
C1051 C1057 1.531 . S
C1052 H1043 0.945 1_455 S
C1052 C1051 1.364 1_455 S
C1052 C1053 1.391 . S
C1053 H1041 0.950 . S
C1053 C1049 1.393 . S
C1053 C1052 1.391 . S
C1054 H1044 0.950 . S
C1054 C1055 1.386 . S
C1054 C1056 1.391 . S
C1055 C1054 1.386 . S
C1055 C1059 1.393 . S
C1056 H1045 0.950 . S
C1056 C1054 1.391 . S
C1056 C1057 1.400 . S
C1057 C1051 1.531 . S
C1057 C1056 1.400 . S
C1057 C1058 1.398 . S
C1058 H1046 0.950 . S
C1058 C1057 1.398 . S
C1058 C1059 1.391 . S
C1059 H1047 0.950 . S
C1059 C1055 1.393 . S
C1059 C1058 1.391 . S
H1060 C1068 0.950 . S
H1061 C1073 0.950 . S
H1062 C1070 0.950 . S
H1063 C1072 0.950 . S
H1064 C1074 0.950 . S
H1065 C1076 0.950 . S
H1066 C1078 0.950 . S
H1067 C1079 0.950 . S
C1068 H1060 0.950 . S
C1068 C1069 1.386 . S
C1068 C1070 1.391 . S
C1069 C1068 1.386 . S
C1069 C1073 1.393 . S
C1070 H1062 0.950 . S
C1070 C1068 1.391 . S
C1070 C1071 1.400 . S
C1071 C1070 1.400 . S
C1071 C1072 1.398 . S
C1071 C1077 1.491 . S
C1072 H1063 0.950 . S
C1072 C1071 1.398 . S
C1072 C1073 1.391 . S
C1073 H1061 0.950 . S
C1073 C1069 1.393 . S
C1073 C1072 1.391 . S
C1074 H1064 0.950 . S
C1074 C1075 1.386 . S
C1074 C1076 1.391 . S
C1075 C1074 1.386 . S
C1075 C1079 1.393 . S
C1076 H1065 0.950 . S
C1076 C1074 1.391 . S
C1076 C1077 1.400 . S
C1077 C1071 1.491 . S
C1077 C1076 1.400 . S
C1077 C1078 1.398 . S
C1078 H1066 0.950 . S
C1078 C1077 1.398 . S
C1078 C1079 1.391 . S
C1079 H1067 0.950 . S
C1079 C1075 1.393 . S
C1079 C1078 1.391 . S
H1080 C1088 0.950 . S
H1081 C1093 0.950 . S
H1082 C1090 0.950 . S
H1083 C1092 0.950 . S
H1084 C1094 0.950 . S
H1085 C1096 0.950 . S
H1086 C1098 0.950 . S
H1087 C1099 0.950 . S
C1088 H1080 0.950 . S
C1088 C1089 1.386 . S
C1088 C1090 1.391 . S
C1089 C1088 1.386 . S
C1089 C1093 1.393 . S
C1090 H1082 0.950 . S
C1090 C1088 1.391 . S
C1090 C1091 1.400 . S
C1091 C1090 1.400 . S
C1091 C1092 1.398 . S
C1091 C1097 1.491 . S
C1092 H1083 0.950 . S
C1092 C1091 1.398 . S
C1092 C1093 1.391 . S
C1093 H1081 0.950 . S
C1093 C1089 1.393 . S
C1093 C1092 1.391 . S
C1094 H1084 0.950 . S
C1094 C1095 1.386 . S
C1094 C1096 1.391 . S
C1095 C1094 1.386 . S
C1095 C1099 1.393 . S
C1096 H1085 0.950 . S
C1096 C1094 1.391 . S
C1096 C1097 1.400 . S
C1097 C1091 1.491 . S
C1097 C1096 1.400 . S
C1097 C1098 1.398 . S
C1098 H1086 0.950 . S
C1098 C1097 1.398 . S
C1098 C1099 1.391 . S
C1099 H1087 0.950 . S
C1099 C1095 1.393 . S
C1099 C1098 1.391 . S
H1100 C1108 0.950 . S
H1101 C1113 0.950 . S
H1102 C1110 0.950 . S
H1103 C1112 0.950 . S
H1104 C1114 0.950 . S
H1105 C1116 0.950 . S
H1106 C1118 0.950 . S
H1107 C1119 0.950 . S
C1108 H1100 0.950 . S
C1108 C1109 1.386 . S
C1108 C1110 1.391 . S
C1109 C1108 1.386 . S
C1109 C1113 1.393 . S
C1110 H1102 0.950 . S
C1110 C1108 1.391 . S
C1110 C1111 1.400 . S
C1111 C1110 1.400 . S
C1111 C1112 1.398 . S
C1111 C1117 1.491 . S
C1112 H1103 0.950 . S
C1112 C1111 1.398 . S
C1112 C1113 1.391 . S
C1113 H1101 0.950 . S
C1113 C1109 1.393 . S
C1113 C1112 1.391 . S
C1114 H1104 0.950 . S
C1114 C1115 1.386 . S
C1114 C1116 1.391 . S
C1115 C1114 1.386 . S
C1115 C1119 1.393 . S
C1116 H1105 0.950 . S
C1116 C1114 1.391 . S
C1116 C1117 1.400 . S
C1117 C1111 1.491 . S
C1117 C1116 1.400 . S
C1117 C1118 1.398 . S
C1118 H1106 0.950 . S
C1118 C1117 1.398 . S
C1118 C1119 1.391 . S
C1119 H1107 0.950 . S
C1119 C1115 1.393 . S
C1119 C1118 1.391 . S
H1120 C1128 0.950 . S
H1121 C1133 0.950 . S
H1122 C1130 0.950 . S
H1123 C1132 0.950 . S
H1124 C1134 0.950 . S
H1125 C1136 0.950 . S
H1126 C1138 0.950 . S
H1127 C1139 0.950 . S
C1128 H1120 0.950 . S
C1128 C1129 1.386 . S
C1128 C1130 1.391 . S
C1129 C1128 1.386 . S
C1129 C1133 1.393 . S
C1130 H1122 0.950 . S
C1130 C1128 1.391 . S
C1130 C1131 1.400 . S
C1131 C1130 1.400 . S
C1131 C1132 1.398 . S
C1131 C1137 1.491 . S
C1132 H1123 0.950 . S
C1132 C1131 1.398 . S
C1132 C1133 1.391 . S
C1133 H1121 0.950 . S
C1133 C1129 1.393 . S
C1133 C1132 1.391 . S
C1134 H1124 0.950 . S
C1134 C1135 1.386 . S
C1134 C1136 1.391 . S
C1135 C1134 1.386 . S
C1135 C1139 1.393 . S
C1136 H1125 0.950 . S
C1136 C1134 1.391 . S
C1136 C1137 1.400 . S
C1137 C1131 1.491 . S
C1137 C1136 1.400 . S
C1137 C1138 1.398 . S
C1138 H1126 0.950 . S
C1138 C1137 1.398 . S
C1138 C1139 1.391 . S
C1139 H1127 0.950 . S
C1139 C1135 1.393 . S
C1139 C1138 1.391 . S
H1140 C1148 0.950 . S
H1141 C1153 0.950 . S
H1142 C1150 0.950 . S
H1143 C1152 0.950 . S
H1144 C1154 0.950 . S
H1145 C1156 0.950 . S
H1146 C1158 0.950 . S
H1147 C1159 0.950 . S
C1148 H1140 0.950 . S
C1148 C1149 1.386 . S
C1148 C1150 1.391 . S
C1149 C1148 1.386 . S
C1149 C1153 1.393 . S
C1150 H1142 0.950 . S
C1150 C1148 1.391 . S
C1150 C1151 1.400 . S
C1151 C1150 1.400 . S
C1151 C1152 1.398 . S
C1151 C1157 1.491 . S
C1152 H1143 0.950 . S
C1152 C1151 1.398 . S
C1152 C1153 1.391 . S
C1153 H1141 0.950 . S
C1153 C1149 1.393 . S
C1153 C1152 1.391 . S
C1154 H1144 0.950 . S
C1154 C1155 1.386 . S
C1154 C1156 1.391 . S
C1155 C1154 1.386 . S
C1155 C1159 1.393 . S
C1156 H1145 0.950 . S
C1156 C1154 1.391 . S
C1156 C1157 1.400 . S
C1157 C1151 1.491 . S
C1157 C1156 1.400 . S
C1157 C1158 1.398 . S
C1158 H1146 0.950 . S
C1158 C1157 1.398 . S
C1158 C1159 1.391 . S
C1159 H1147 0.950 . S
C1159 C1155 1.393 . S
C1159 C1158 1.391 . S
H1160 C1168 0.950 . S
H1161 C1173 0.950 . S
H1162 C1170 0.950 . S
H1163 C1172 0.950 . S
H1164 C1174 0.950 . S
H1165 C1176 0.950 . S
H1166 C1178 0.950 . S
H1167 C1179 0.950 . S
C1168 H1160 0.950 . S
C1168 C1169 1.386 . S
C1168 C1170 1.391 . S
C1169 C1168 1.386 . S
C1169 C1173 1.393 . S
C1170 H1162 0.950 . S
C1170 C1168 1.391 . S
C1170 C1171 1.400 . S
C1171 C1170 1.400 . S
C1171 C1172 1.398 . S
C1171 C1177 1.491 . S
C1172 H1163 0.950 . S
C1172 C1171 1.398 . S
C1172 C1173 1.391 . S
C1173 H1161 0.950 . S
C1173 C1169 1.393 . S
C1173 C1172 1.391 . S
C1174 H1164 0.950 . S
C1174 C1175 1.386 . S
C1174 C1176 1.391 . S
C1175 C1174 1.386 . S
C1175 C1179 1.393 . S
C1176 H1165 0.950 . S
C1176 C1174 1.391 . S
C1176 C1177 1.400 . S
C1177 C1171 1.491 . S
C1177 C1176 1.400 . S
C1177 C1178 1.398 . S
C1178 H1166 0.950 . S
C1178 C1177 1.398 . S
C1178 C1179 1.391 . S
C1179 H1167 0.950 . S
C1179 C1175 1.393 . S
C1179 C1178 1.391 . S
H1180 C1188 0.950 . S
H1181 C1193 0.950 . S
H1182 C1190 0.950 . S
H1183 C1192 0.950 . S
H1184 C1194 0.950 . S
H1185 C1196 0.950 . S
H1186 C1198 0.950 . S
H1187 C1199 0.950 . S
C1188 H1180 0.950 . S
C1188 C1189 1.386 . S
C1188 C1190 1.391 . S
C1189 C1188 1.386 . S
C1189 C1193 1.393 . S
C1190 H1182 0.950 . S
C1190 C1188 1.391 . S
C1190 C1191 1.400 . S
C1191 C1190 1.400 . S
C1191 C1192 1.398 . S
C1191 C1197 1.491 . S
C1192 H1183 0.950 . S
C1192 C1191 1.398 . S
C1192 C1193 1.391 . S
C1193 H1181 0.950 . S
C1193 C1189 1.393 . S
C1193 C1192 1.391 . S
C1194 H1184 0.950 . S
C1194 C1195 1.386 . S
C1194 C1196 1.391 . S
C1195 C1194 1.386 . S
C1195 C1199 1.393 . S
C1196 H1185 0.950 . S
C1196 C1194 1.391 . S
C1196 C1197 1.400 . S
C1197 C1191 1.491 . S
C1197 C1196 1.400 . S
C1197 C1198 1.398 . S
C1198 H1186 0.950 . S
C1198 C1197 1.398 . S
C1198 C1199 1.391 . S
C1199 H1187 0.950 . S
C1199 C1195 1.393 . S
C1199 C1198 1.391 . S
H1200 C1208 0.950 . S
H1201 C1213 0.950 . S
H1202 C1210 0.950 . S
H1203 C1212 0.950 . S
H1204 C1214 0.950 . S
H1205 C1216 0.950 . S
H1206 C1218 0.950 . S
H1207 C1219 0.950 . S
C1208 H1200 0.950 . S
C1208 C1209 1.386 . S
C1208 C1210 1.391 . S
C1209 C1208 1.386 . S
C1209 C1213 1.393 . S
C1210 H1202 0.950 . S
C1210 C1208 1.391 . S
C1210 C1211 1.400 . S
C1211 C1210 1.400 . S
C1211 C1212 1.398 . S
C1211 C1217 1.491 . S
C1212 H1203 0.950 . S
C1212 C1211 1.398 . S
C1212 C1213 1.391 . S
C1213 H1201 0.950 . S
C1213 C1209 1.393 . S
C1213 C1212 1.391 . S
C1214 H1204 0.950 . S
C1214 C1215 1.386 . S
C1214 C1216 1.391 . S
C1215 C1214 1.386 . S
C1215 C1219 1.393 . S
C1216 H1205 0.950 . S
C1216 C1214 1.391 . S
C1216 C1217 1.400 . S
C1217 C1211 1.491 . S
C1217 C1216 1.400 . S
C1217 C1218 1.398 . S
C1218 H1206 0.950 . S
C1218 C1217 1.398 . S
C1218 C1219 1.391 . S
C1219 H1207 0.950 . S
C1219 C1215 1.393 . S
C1219 C1218 1.391 . S
H1220 C1228 0.950 . S
H1221 C1233 0.950 . S
H1222 C1230 0.950 . S
H1223 C1232 0.950 . S
H1224 C1234 0.950 . S
H1225 C1236 0.950 . S
H1226 C1238 0.950 . S
H1227 C1239 0.950 . S
C1228 H1220 0.950 . S
C1228 C1229 1.386 . S
C1228 C1230 1.391 . S
C1229 C1228 1.386 . S
C1229 C1233 1.393 . S
C1230 H1222 0.950 . S
C1230 C1228 1.391 . S
C1230 C1231 1.400 . S
C1231 C1230 1.400 . S
C1231 C1232 1.398 . S
C1231 C1237 1.491 . S
C1232 H1223 0.950 . S
C1232 C1231 1.398 . S
C1232 C1233 1.391 . S
C1233 H1221 0.950 . S
C1233 C1229 1.393 . S
C1233 C1232 1.391 . S
C1234 H1224 0.950 . S
C1234 C1235 1.386 . S
C1234 C1236 1.391 . S
C1235 C1234 1.386 . S
C1235 C1239 1.393 . S
C1236 H1225 0.950 . S
C1236 C1234 1.391 . S
C1236 C1237 1.400 . S
C1237 C1231 1.491 . S
C1237 C1236 1.400 . S
C1237 C1238 1.398 . S
C1238 H1226 0.950 . S
C1238 C1237 1.398 . S
C1238 C1239 1.391 . S
C1239 H1227 0.950 . S
C1239 C1235 1.393 . S
C1239 C1238 1.391 . S
H1240 C1248 0.950 . S
H1241 C1253 0.950 . S
H1242 C1250 0.950 . S
H1243 C1252 0.950 . S
H1244 C1254 0.950 . S
H1245 C1256 0.950 . S
H1246 C1258 0.950 . S
H1247 C1259 0.950 . S
C1248 H1240 0.950 . S
C1248 C1249 1.386 . S
C1248 C1250 1.391 . S
C1249 C1248 1.386 . S
C1249 C1253 1.393 . S
C1250 H1242 0.950 . S
C1250 C1248 1.391 . S
C1250 C1251 1.400 . S
C1251 C1250 1.400 . S
C1251 C1252 1.398 . S
C1251 C1257 1.491 . S
C1252 H1243 0.950 . S
C1252 C1251 1.398 . S
C1252 C1253 1.391 . S
C1253 H1241 0.950 . S
C1253 C1249 1.393 . S
C1253 C1252 1.391 . S
C1254 H1244 0.950 . S
C1254 C1255 1.386 . S
C1254 C1256 1.391 . S
C1255 C1254 1.386 . S
C1255 C1259 1.393 . S
C1256 H1245 0.950 . S
C1256 C1254 1.391 . S
C1256 C1257 1.400 . S
C1257 C1251 1.491 . S
C1257 C1256 1.400 . S
C1257 C1258 1.398 . S
C1258 H1246 0.950 . S
C1258 C1257 1.398 . S
C1258 C1259 1.391 . S
C1259 H1247 0.950 . S
C1259 C1255 1.393 . S
C1259 C1258 1.391 . S
H1260 C1268 0.950 . S
H1261 C1273 0.950 . S
H1262 C1270 0.950 . S
H1263 C1272 0.950 . S
H1264 C1274 0.950 . S
H1265 C1276 0.950 . S
H1266 C1278 0.950 . S
H1267 C1279 0.950 . S
C1268 H1260 0.950 . S
C1268 C1269 1.386 1_554 S
C1268 C1270 1.391 . S
C1269 C1268 1.386 1_556 S
C1269 C1273 1.393 . S
C1270 H1262 0.950 . S
C1270 C1268 1.391 . S
C1270 C1271 1.400 1_554 S
C1271 C1270 1.400 1_556 S
C1271 C1272 1.398 . S
C1271 C1277 1.491 . S
C1272 H1263 0.950 . S
C1272 C1271 1.398 . S
C1272 C1273 1.391 . S
C1273 H1261 0.950 . S
C1273 C1269 1.393 . S
C1273 C1272 1.391 . S
C1274 H1264 0.950 . S
C1274 C1275 1.386 1_556 S
C1274 C1276 1.391 . S
C1275 C1274 1.386 1_554 S
C1275 C1279 1.393 . S
C1276 H1265 0.950 . S
C1276 C1274 1.391 . S
C1276 C1277 1.400 . S
C1277 C1271 1.491 . S
C1277 C1276 1.400 . S
C1277 C1278 1.398 1_556 S
C1278 H1266 0.950 . S
C1278 C1277 1.398 1_554 S
C1278 C1279 1.391 . S
C1279 H1267 0.950 . S
C1279 C1275 1.393 . S
C1279 C1278 1.391 . S
H1280 C1288 0.950 . S
H1281 C1293 0.950 . S
H1282 C1290 0.950 . S
H1283 C1292 0.950 . S
H1284 C1294 0.950 . S
H1285 C1296 0.950 . S
H1286 C1298 0.950 . S
H1287 C1299 0.950 . S
C1288 H1280 0.950 . S
C1288 C1289 1.386 . S
C1288 C1290 1.391 . S
C1289 C1288 1.386 . S
C1289 C1293 1.393 . S
C1290 H1282 0.950 . S
C1290 C1288 1.391 . S
C1290 C1291 1.400 . S
C1291 C1290 1.400 . S
C1291 C1292 1.398 . S
C1291 C1297 1.491 . S
C1292 H1283 0.950 . S
C1292 C1291 1.398 . S
C1292 C1293 1.391 . S
C1293 H1281 0.950 . S
C1293 C1289 1.393 . S
C1293 C1292 1.391 . S
C1294 H1284 0.950 . S
C1294 C1295 1.386 1_556 S
C1294 C1296 1.391 . S
C1295 C1294 1.386 1_554 S
C1295 C1299 1.393 . S
C1296 H1285 0.950 . S
C1296 C1294 1.391 . S
C1296 C1297 1.400 . S
C1297 C1291 1.491 . S
C1297 C1296 1.400 . S
C1297 C1298 1.398 1_556 S
C1298 H1286 0.950 . S
C1298 C1297 1.398 1_554 S
C1298 C1299 1.391 . S
C1299 H1287 0.950 . S
C1299 C1295 1.393 . S
C1299 C1298 1.391 . S
H1300 C1308 0.950 . S
H1301 C1313 0.950 1_554 S
H1302 C1310 0.950 . S
H1303 C1312 0.950 . S
H1304 C1314 0.950 . S
H1305 C1316 0.950 . S
H1306 C1318 0.950 . S
H1307 C1319 0.950 . S
C1308 H1300 0.950 . S
C1308 C1309 1.386 . S
C1308 C1310 1.391 . S
C1309 C1308 1.386 . S
C1309 C1313 1.393 . S
C1310 H1302 0.950 . S
C1310 C1308 1.391 . S
C1310 C1311 1.400 . S
C1311 C1310 1.400 . S
C1311 C1312 1.398 1_556 S
C1311 C1317 1.491 . S
C1312 H1303 0.950 . S
C1312 C1311 1.398 1_554 S
C1312 C1313 1.391 1_554 S
C1313 H1301 0.950 1_556 S
C1313 C1309 1.393 . S
C1313 C1312 1.391 1_556 S
C1314 H1304 0.950 . S
C1314 C1315 1.394 . S
C1314 C1316 1.391 . S
C1315 C1314 1.394 . S
C1315 C1319 1.382 1_554 S
C1316 H1305 0.950 . S
C1316 C1314 1.391 . S
C1316 C1317 1.400 1_554 S
C1317 C1311 1.491 . S
C1317 C1316 1.400 1_556 S
C1317 C1318 1.398 . S
C1318 H1306 0.950 . S
C1318 C1317 1.398 . S
C1318 C1319 1.391 . S
C1319 H1307 0.950 . S
C1319 C1315 1.382 1_556 S
C1319 C1318 1.391 . S
H1320 C1328 0.950 . S
H1321 C1333 0.950 . S
H1322 C1330 0.950 . S
H1323 C1332 0.950 . S
H1324 C1334 0.950 . S
H1325 C1336 0.950 . S
H1326 C1338 0.950 . S
H1327 C1339 0.950 1_556 S
C1328 H1320 0.950 . S
C1328 C1329 1.386 . S
C1328 C1330 1.391 . S
C1329 C1328 1.386 . S
C1329 C1333 1.393 1_556 S
C1330 H1322 0.950 . S
C1330 C1328 1.391 . S
C1330 C1331 1.400 1_556 S
C1331 C1330 1.400 1_554 S
C1331 C1332 1.398 . S
C1331 C1337 1.491 . S
C1332 H1323 0.950 . S
C1332 C1331 1.398 . S
C1332 C1333 1.391 . S
C1333 H1321 0.950 . S
C1333 C1329 1.393 1_554 S
C1333 C1332 1.391 . S
C1334 H1324 0.950 . S
C1334 C1335 1.386 . S
C1334 C1336 1.391 . S
C1335 C1334 1.386 . S
C1335 C1339 1.393 . S
C1336 H1325 0.950 . S
C1336 C1334 1.391 . S
C1336 C1337 1.400 . S
C1337 C1331 1.491 . S
C1337 C1336 1.400 . S
C1337 C1338 1.398 1_554 S
C1338 H1326 0.950 . S
C1338 C1337 1.398 1_556 S
C1338 C1339 1.391 1_556 S
C1339 H1327 0.950 1_554 S
C1339 C1335 1.393 . S
C1339 C1338 1.391 1_554 S
H1340 C1348 0.950 . S
H1341 C1353 0.950 . S
H1342 C1350 0.950 . S
H1343 C1352 0.950 . S
H1344 C1354 0.950 . S
H1345 C1356 0.950 . S
H1346 C1358 0.950 1_556 S
H1347 C1359 0.945 1_556 S
C1348 H1340 0.950 . S
C1348 C1349 1.386 . S
C1348 C1350 1.391 . S
C1349 C1348 1.386 . S
C1349 C1353 1.393 1_556 S
C1350 H1342 0.950 . S
C1350 C1348 1.391 . S
C1350 C1351 1.400 1_556 S
C1351 C1350 1.400 1_554 S
C1351 C1352 1.398 . S
C1351 C1357 1.491 . S
C1352 H1343 0.950 . S
C1352 C1351 1.398 . S
C1352 C1353 1.391 . S
C1353 H1341 0.950 . S
C1353 C1349 1.393 1_554 S
C1353 C1352 1.391 . S
C1354 H1344 0.950 . S
C1354 C1355 1.386 . S
C1354 C1356 1.391 . S
C1355 C1354 1.386 . S
C1355 C1359 1.393 . S
C1356 H1345 0.950 . S
C1356 C1354 1.391 . S
C1356 C1357 1.400 . S
C1357 C1351 1.491 . S
C1357 C1356 1.400 . S
C1357 C1358 1.398 . S
C1358 H1346 0.950 1_554 S
C1358 C1357 1.398 . S
C1358 C1359 1.391 . S
C1359 H1347 0.945 1_554 S
C1359 C1355 1.393 . S
C1359 C1358 1.391 . S
H1360 C1368 0.950 . S
H1361 C1373 0.950 . S
H1362 C1370 0.950 1_556 S
H1363 C1372 0.950 . S
H1364 C1374 0.950 . S
H1365 C1376 0.950 . S
H1366 C1378 0.950 . S
H1367 C1379 0.950 . S
C1368 H1360 0.950 . S
C1368 C1369 1.386 . S
C1368 C1370 1.391 . S
C1369 C1368 1.386 . S
C1369 C1373 1.393 . S
C1370 H1362 0.950 1_554 S
C1370 C1368 1.391 . S
C1370 C1371 1.400 . S
C1371 C1370 1.400 . S
C1371 C1372 1.398 . S
C1371 C1377 1.491 . S
C1372 H1363 0.950 . S
C1372 C1371 1.398 . S
C1372 C1373 1.391 . S
C1373 H1361 0.950 . S
C1373 C1369 1.393 . S
C1373 C1372 1.391 . S
C1374 H1364 0.950 . S
C1374 C1375 1.386 1_554 S
C1374 C1376 1.391 . S
C1375 C1374 1.386 1_556 S
C1375 C1379 1.393 . S
C1376 H1365 0.950 . S
C1376 C1374 1.391 . S
C1376 C1377 1.400 . S
C1377 C1371 1.491 . S
C1377 C1376 1.400 . S
C1377 C1378 1.398 1_554 S
C1378 H1366 0.950 . S
C1378 C1377 1.398 1_556 S
C1378 C1379 1.391 . S
C1379 H1367 0.950 . S
C1379 C1375 1.393 . S
C1379 C1378 1.391 . S
H1380 C1388 0.950 . S
H1381 C1393 0.950 . S
H1382 C1390 0.950 . S
H1383 C1392 0.950 . S
H1384 C1394 0.950 . S
H1385 C1396 0.950 . S
H1386 C1398 0.950 . S
H1387 C1399 0.950 . S
C1388 H1380 0.950 . S
C1388 C1389 1.386 . S
C1388 C1390 1.391 . S
C1389 C1388 1.386 . S
C1389 C1393 1.393 . S
C1390 H1382 0.950 . S
C1390 C1388 1.391 . S
C1390 C1391 1.400 . S
C1391 C1390 1.400 . S
C1391 C1392 1.398 . S
C1391 C1397 1.491 . S
C1392 H1383 0.950 . S
C1392 C1391 1.398 . S
C1392 C1393 1.391 . S
C1393 H1381 0.950 . S
C1393 C1389 1.393 . S
C1393 C1392 1.391 . S
C1394 H1384 0.950 . S
C1394 C1395 1.386 . S
C1394 C1396 1.391 . S
C1395 C1394 1.386 . S
C1395 C1399 1.393 . S
C1396 H1385 0.950 . S
C1396 C1394 1.391 . S
C1396 C1397 1.400 . S
C1397 C1391 1.491 . S
C1397 C1396 1.400 . S
C1397 C1398 1.398 . S
C1398 H1386 0.950 . S
C1398 C1397 1.398 . S
C1398 C1399 1.391 . S
C1399 H1387 0.950 . S
C1399 C1395 1.393 . S
C1399 C1398 1.391 . S
H1400 C1408 0.950 . S
H1401 C1413 0.950 . S
H1402 C1410 0.950 . S
H1403 C1412 0.950 . S
H1404 C1414 0.950 . S
H1405 C1416 0.950 . S
H1406 C1418 0.950 . S
H1407 C1419 0.950 . S
C1408 H1400 0.950 . S
C1408 C1409 1.386 . S
C1408 C1410 1.391 . S
C1409 C1408 1.386 . S
C1409 C1413 1.393 . S
C1410 H1402 0.950 . S
C1410 C1408 1.391 . S
C1410 C1411 1.400 . S
C1411 C1410 1.400 . S
C1411 C1412 1.398 . S
C1411 C1417 1.491 . S
C1412 H1403 0.950 . S
C1412 C1411 1.398 . S
C1412 C1413 1.391 . S
C1413 H1401 0.950 . S
C1413 C1409 1.393 . S
C1413 C1412 1.391 . S
C1414 H1404 0.950 . S
C1414 C1415 1.386 . S
C1414 C1416 1.391 . S
C1415 C1414 1.386 . S
C1415 C1419 1.393 . S
C1416 H1405 0.950 . S
C1416 C1414 1.391 . S
C1416 C1417 1.400 . S
C1417 C1411 1.491 . S
C1417 C1416 1.400 . S
C1417 C1418 1.398 . S
C1418 H1406 0.950 . S
C1418 C1417 1.398 . S
C1418 C1419 1.391 . S
C1419 H1407 0.950 . S
C1419 C1415 1.393 . S
C1419 C1418 1.391 . S
H1420 C1428 0.950 . S
H1421 C1433 0.950 . S
H1422 C1430 0.950 . S
H1423 C1432 0.950 . S
H1424 C1434 0.950 . S
H1425 C1436 0.950 . S
H1426 C1438 0.950 . S
H1427 C1439 0.950 . S
C1428 H1420 0.950 . S
C1428 C1429 1.386 . S
C1428 C1430 1.391 . S
C1429 C1428 1.386 . S
C1429 C1433 1.393 . S
C1430 H1422 0.950 . S
C1430 C1428 1.391 . S
C1430 C1431 1.400 . S
C1431 C1430 1.400 . S
C1431 C1432 1.398 . S
C1431 C1437 1.491 . S
C1432 H1423 0.950 . S
C1432 C1431 1.398 . S
C1432 C1433 1.391 . S
C1433 H1421 0.950 . S
C1433 C1429 1.393 . S
C1433 C1432 1.391 . S
C1434 H1424 0.950 . S
C1434 C1435 1.386 . S
C1434 C1436 1.391 . S
C1435 C1434 1.386 . S
C1435 C1439 1.393 . S
C1436 H1425 0.950 . S
C1436 C1434 1.391 . S
C1436 C1437 1.400 . S
C1437 C1431 1.491 . S
C1437 C1436 1.400 . S
C1437 C1438 1.398 . S
C1438 H1426 0.950 . S
C1438 C1437 1.398 . S
C1438 C1439 1.391 . S
C1439 H1427 0.950 . S
C1439 C1435 1.393 . S
C1439 C1438 1.391 . S
H1440 C1448 0.950 . S
H1441 C1453 0.950 . S
H1442 C1450 0.950 . S
H1443 C1452 0.950 . S
H1444 C1454 0.950 1_556 S
H1445 C1456 0.950 . S
H1446 C1458 0.950 . S
H1447 C1459 0.950 . S
C1448 H1440 0.950 . S
C1448 C1449 1.386 . S
C1448 C1450 1.391 . S
C1449 C1448 1.386 . S
C1449 C1453 1.393 . S
C1450 H1442 0.950 . S
C1450 C1448 1.391 . S
C1450 C1451 1.400 . S
C1451 C1450 1.400 . S
C1451 C1452 1.398 . S
C1451 C1457 1.491 . S
C1452 H1443 0.950 . S
C1452 C1451 1.398 . S
C1452 C1453 1.391 . S
C1453 H1441 0.950 . S
C1453 C1449 1.393 . S
C1453 C1452 1.391 . S
C1454 H1444 0.950 1_554 S
C1454 C1455 1.386 1_554 S
C1454 C1456 1.391 . S
C1455 C1454 1.386 1_556 S
C1455 C1459 1.393 . S
C1456 H1445 0.950 . S
C1456 C1454 1.391 . S
C1456 C1457 1.400 . S
C1457 C1451 1.491 . S
C1457 C1456 1.400 . S
C1457 C1458 1.398 . S
C1458 H1446 0.950 . S
C1458 C1457 1.398 . S
C1458 C1459 1.391 1_554 S
C1459 H1447 0.950 . S
C1459 C1455 1.393 . S
C1459 C1458 1.391 1_556 S
H1460 C1468 0.950 . S
H1461 C1473 0.950 . S
H1462 C1470 0.950 . S
H1463 C1472 0.950 . S
H1464 C1474 0.950 1_556 S
H1465 C1476 0.950 . S
H1466 C1478 0.950 . S
H1467 C1479 0.950 . S
C1468 H1460 0.950 . S
C1468 C1469 1.386 . S
C1468 C1470 1.391 . S
C1469 C1468 1.386 . S
C1469 C1473 1.393 . S
C1470 H1462 0.950 . S
C1470 C1468 1.391 . S
C1470 C1471 1.400 . S
C1471 C1470 1.400 . S
C1471 C1472 1.398 . S
C1471 C1477 1.491 . S
C1472 H1463 0.950 . S
C1472 C1471 1.398 . S
C1472 C1473 1.391 . S
C1473 H1461 0.950 . S
C1473 C1469 1.393 . S
C1473 C1472 1.391 . S
C1474 H1464 0.950 1_554 S
C1474 C1475 1.386 1_554 S
C1474 C1476 1.391 . S
C1475 C1474 1.386 1_556 S
C1475 C1479 1.393 . S
C1476 H1465 0.950 . S
C1476 C1474 1.391 . S
C1476 C1477 1.400 . S
C1477 C1471 1.491 . S
C1477 C1476 1.400 . S
C1477 C1478 1.398 . S
C1478 H1466 0.950 . S
C1478 C1477 1.398 . S
C1478 C1479 1.391 1_554 S
C1479 H1467 0.950 . S
C1479 C1475 1.393 . S
C1479 C1478 1.391 1_556 S
H1480 C1488 0.950 1_565 S
H1481 C1493 0.950 . S
H1482 C1490 0.950 1_565 S
H1483 C1492 0.950 . S
H1484 C1494 0.950 1_556 S
H1485 C1496 0.950 . S
H1486 C1498 0.970 . S
H1487 C1499 0.950 . S
C1488 H1480 0.950 1_545 S
C1488 C1489 1.386 . S
C1488 C1490 1.391 . S
C1489 C1488 1.386 . S
C1489 C1493 1.393 . S
C1490 H1482 0.950 1_545 S
C1490 C1488 1.391 . S
C1490 C1491 1.400 . S
C1491 C1490 1.400 . S
C1491 C1492 1.398 . S
C1491 C1497 1.491 . S
C1492 H1483 0.950 . S
C1492 C1491 1.398 . S
C1492 C1493 1.391 . S
C1493 H1481 0.950 . S
C1493 C1489 1.393 . S
C1493 C1492 1.391 . S
C1494 H1484 0.950 1_554 S
C1494 C1495 1.386 1_554 S
C1494 C1496 1.391 . S
C1495 C1494 1.386 1_556 S
C1495 C1499 1.393 . S
C1496 H1485 0.950 . S
C1496 C1494 1.391 . S
C1496 C1497 1.400 . S
C1497 C1491 1.491 . S
C1497 C1496 1.400 . S
C1497 C1498 1.398 . S
C1498 H1486 0.970 . S
C1498 C1497 1.398 . S
C1498 C1499 1.391 1_554 S
C1499 H1487 0.950 . S
C1499 C1495 1.393 . S
C1499 C1498 1.391 1_556 S
H1500 C1508 0.950 . S
H1501 C1513 0.950 . S
H1502 C1510 0.927 1_655 S
H1503 C1512 0.950 . S
H1504 C1514 0.950 1_554 S
H1505 C1516 0.950 . S
H1506 C1518 0.950 1_655 S
H1507 C1519 0.950 1_655 S
C1508 H1500 0.950 . S
C1508 C1509 1.386 1_655 S
C1508 C1510 1.387 1_655 S
C1509 C1508 1.386 1_455 S
C1509 C1513 1.393 . S
C1510 H1502 0.927 1_455 S
C1510 C1508 1.387 1_455 S
C1510 C1511 1.428 . S
C1511 C1510 1.428 . S
C1511 C1512 1.398 . S
C1511 C1517 1.491 . S
C1512 H1503 0.950 . S
C1512 C1511 1.398 . S
C1512 C1513 1.391 . S
C1513 H1501 0.950 . S
C1513 C1509 1.393 . S
C1513 C1512 1.391 . S
C1514 H1504 0.950 1_556 S
C1514 C1515 1.386 1_556 S
C1514 C1516 1.391 . S
C1515 C1514 1.386 1_554 S
C1515 C1519 1.393 . S
C1516 H1505 0.950 . S
C1516 C1514 1.391 . S
C1516 C1517 1.400 . S
C1517 C1511 1.491 . S
C1517 C1516 1.400 . S
C1517 C1518 1.398 . S
C1518 H1506 0.950 1_455 S
C1518 C1517 1.398 . S
C1518 C1519 1.391 1_556 S
C1519 H1507 0.950 1_455 S
C1519 C1515 1.393 . S
C1519 C1518 1.391 1_554 S
H1520 C1528 0.950 . S
H1521 C1533 0.950 1_554 S
H1522 C1530 0.950 . S
H1523 C1532 0.950 . S
H1524 C1534 0.950 . S
H1525 C1536 0.950 . S
H1526 C1538 0.950 . S
H1527 C1539 0.950 . S
C1528 H1520 0.950 . S
C1528 C1529 1.386 . S
C1528 C1530 1.391 1_554 S
C1529 C1528 1.386 . S
C1529 C1533 1.393 1_554 S
C1530 H1522 0.950 . S
C1530 C1528 1.391 1_556 S
C1530 C1531 1.400 . S
C1531 C1530 1.400 . S
C1531 C1532 1.398 . S
C1531 C1537 1.491 . S
C1532 H1523 0.950 . S
C1532 C1531 1.398 . S
C1532 C1533 1.391 . S
C1533 H1521 0.950 1_556 S
C1533 C1529 1.393 1_556 S
C1533 C1532 1.391 . S
C1534 H1524 0.950 . S
C1534 C1535 1.386 . S
C1534 C1536 1.391 . S
C1535 C1534 1.386 . S
C1535 C1539 1.393 . S
C1536 H1525 0.950 . S
C1536 C1534 1.391 . S
C1536 C1537 1.400 . S
C1537 C1531 1.491 . S
C1537 C1536 1.400 . S
C1537 C1538 1.398 . S
C1538 H1526 0.950 . S
C1538 C1537 1.398 . S
C1538 C1539 1.391 . S
C1539 H1527 0.950 . S
C1539 C1535 1.393 . S
C1539 C1538 1.391 . S
H1540 C1548 0.950 . S
H1541 C1553 0.950 1_564 S
H1542 C1550 0.950 . S
H1543 C1552 0.984 . S
H1544 C1554 0.950 . S
H1545 C1556 0.950 . S
H1546 C1558 0.950 . S
H1547 C1559 0.950 . S
C1548 H1540 0.950 . S
C1548 C1549 1.386 . S
C1548 C1550 1.391 1_554 S
C1549 C1548 1.386 . S
C1549 C1553 1.393 1_554 S
C1550 H1542 0.950 . S
C1550 C1548 1.391 1_556 S
C1550 C1551 1.400 . S
C1551 C1550 1.400 . S
C1551 C1552 1.398 . S
C1551 C1557 1.491 . S
C1552 H1543 0.984 . S
C1552 C1551 1.398 . S
C1552 C1553 1.391 . S
C1553 H1541 0.950 1_546 S
C1553 C1549 1.393 1_556 S
C1553 C1552 1.391 . S
C1554 H1544 0.950 . S
C1554 C1555 1.386 . S
C1554 C1556 1.391 . S
C1555 C1554 1.386 . S
C1555 C1559 1.393 . S
C1556 H1545 0.950 . S
C1556 C1554 1.391 . S
C1556 C1557 1.400 . S
C1557 C1551 1.491 . S
C1557 C1556 1.400 . S
C1557 C1558 1.398 . S
C1558 H1546 0.950 . S
C1558 C1557 1.398 . S
C1558 C1559 1.391 . S
C1559 H1547 0.950 . S
C1559 C1555 1.393 . S
C1559 C1558 1.391 . S
H1560 C1568 0.950 . S
H1561 C1573 0.950 . S
H1562 C1570 0.950 . S
H1563 C1572 0.950 . S
H1564 C1574 0.950 . S
H1565 C1576 0.950 . S
H1566 C1578 0.950 . S
H1567 C1579 0.950 . S
C1568 H1560 0.950 . S
C1568 C1569 1.386 . S
C1568 C1570 1.391 . S
C1569 C1568 1.386 . S
C1569 C1573 1.393 . S
C1570 H1562 0.950 . S
C1570 C1568 1.391 . S
C1570 C1571 1.400 . S
C1571 C1570 1.400 . S
C1571 C1572 1.398 . S
C1571 C1577 1.491 . S
C1572 H1563 0.950 . S
C1572 C1571 1.398 . S
C1572 C1573 1.391 . S
C1573 H1561 0.950 . S
C1573 C1569 1.393 . S
C1573 C1572 1.391 . S
C1574 H1564 0.950 . S
C1574 C1575 1.386 . S
C1574 C1576 1.391 . S
C1575 C1574 1.386 . S
C1575 C1579 1.393 . S
C1576 H1565 0.950 . S
C1576 C1574 1.391 . S
C1576 C1577 1.400 . S
C1577 C1571 1.491 . S
C1577 C1576 1.400 . S
C1577 C1578 1.398 . S
C1578 H1566 0.950 . S
C1578 C1577 1.398 . S
C1578 C1579 1.391 . S
C1579 H1567 0.950 . S
C1579 C1575 1.393 . S
C1579 C1578 1.391 . S
H1580 C1588 0.950 . S
H1581 C1593 0.950 . S
H1582 C1590 0.950 . S
H1583 C1592 0.950 . S
H1584 C1594 0.950 . S
H1585 C1596 0.950 . S
H1586 C1598 0.950 . S
H1587 C1599 0.950 . S
C1588 H1580 0.950 . S
C1588 C1589 1.386 . S
C1588 C1590 1.391 . S
C1589 C1588 1.386 . S
C1589 C1593 1.393 . S
C1590 H1582 0.950 . S
C1590 C1588 1.391 . S
C1590 C1591 1.400 . S
C1591 C1590 1.400 . S
C1591 C1592 1.398 . S
C1591 C1597 1.491 . S
C1592 H1583 0.950 . S
C1592 C1591 1.398 . S
C1592 C1593 1.391 . S
C1593 H1581 0.950 . S
C1593 C1589 1.393 . S
C1593 C1592 1.391 . S
C1594 H1584 0.950 . S
C1594 C1595 1.386 . S
C1594 C1596 1.391 . S
C1595 C1594 1.386 . S
C1595 C1599 1.393 . S
C1596 H1585 0.950 . S
C1596 C1594 1.391 . S
C1596 C1597 1.400 . S
C1597 C1591 1.491 . S
C1597 C1596 1.400 . S
C1597 C1598 1.398 . S
C1598 H1586 0.950 . S
C1598 C1597 1.398 . S
C1598 C1599 1.391 . S
C1599 H1587 0.950 . S
C1599 C1595 1.393 . S
C1599 C1598 1.391 . S
H1600 C1608 0.950 . S
H1601 C1613 0.950 . S
H1602 C1610 0.950 . S
H1603 C1612 0.950 . S
H1604 C1614 0.950 . S
H1605 C1616 0.950 . S
H1606 C1618 0.950 . S
H1607 C1619 0.950 . S
C1608 H1600 0.950 . S
C1608 C1609 1.386 . S
C1608 C1610 1.391 . S
C1609 C1608 1.386 . S
C1609 C1613 1.393 . S
C1610 H1602 0.950 . S
C1610 C1608 1.391 . S
C1610 C1611 1.400 . S
C1611 C1610 1.400 . S
C1611 C1612 1.398 . S
C1611 C1617 1.491 . S
C1612 H1603 0.950 . S
C1612 C1611 1.398 . S
C1612 C1613 1.391 . S
C1613 H1601 0.950 . S
C1613 C1609 1.393 . S
C1613 C1612 1.391 . S
C1614 H1604 0.950 . S
C1614 C1615 1.386 . S
C1614 C1616 1.391 . S
C1615 C1614 1.386 . S
C1615 C1619 1.393 . S
C1616 H1605 0.950 . S
C1616 C1614 1.391 . S
C1616 C1617 1.400 . S
C1617 C1611 1.491 . S
C1617 C1616 1.400 . S
C1617 C1618 1.398 . S
C1618 H1606 0.950 . S
C1618 C1617 1.398 . S
C1618 C1619 1.391 . S
C1619 H1607 0.950 . S
C1619 C1615 1.393 . S
C1619 C1618 1.391 . S
H1620 C1628 0.950 . S
H1621 C1633 0.950 . S
H1622 C1630 0.950 . S
H1623 C1632 0.950 . S
H1624 C1634 0.950 . S
H1625 C1636 0.950 . S
H1626 C1638 0.950 . S
H1627 C1639 0.950 . S
C1628 H1620 0.950 . S
C1628 C1629 1.386 . S
C1628 C1630 1.391 1_556 S
C1629 C1628 1.386 . S
C1629 C1633 1.393 . S
C1630 H1622 0.950 . S
C1630 C1628 1.391 1_554 S
C1630 C1631 1.400 . S
C1631 C1630 1.400 . S
C1631 C1632 1.398 . S
C1631 C1637 1.491 . S
C1632 H1623 0.950 . S
C1632 C1631 1.398 . S
C1632 C1633 1.391 1_554 S
C1633 H1621 0.950 . S
C1633 C1629 1.393 . S
C1633 C1632 1.391 1_556 S
C1634 H1624 0.950 . S
C1634 C1635 1.386 . S
C1634 C1636 1.391 . S
C1635 C1634 1.386 . S
C1635 C1639 1.393 . S
C1636 H1625 0.950 . S
C1636 C1634 1.391 . S
C1636 C1637 1.400 . S
C1637 C1631 1.491 . S
C1637 C1636 1.400 . S
C1637 C1638 1.398 . S
C1638 H1626 0.950 . S
C1638 C1637 1.398 . S
C1638 C1639 1.391 . S
C1639 H1627 0.950 . S
C1639 C1635 1.393 . S
C1639 C1638 1.391 . S
H1640 C1648 0.950 . S
H1641 C1653 0.950 . S
H1642 C1650 0.950 . S
H1643 C1652 0.950 . S
H1644 C1654 0.950 . S
H1645 C1656 0.950 . S
H1646 C1658 0.950 . S
H1647 C1659 0.950 . S
C1648 H1640 0.950 . S
C1648 C1649 1.386 . S
C1648 C1650 1.391 1_556 S
C1649 C1648 1.386 . S
C1649 C1653 1.393 . S
C1650 H1642 0.950 . S
C1650 C1648 1.391 1_554 S
C1650 C1651 1.400 . S
C1651 C1650 1.400 . S
C1651 C1652 1.398 . S
C1651 C1657 1.491 . S
C1652 H1643 0.950 . S
C1652 C1651 1.398 . S
C1652 C1653 1.391 1_554 S
C1653 H1641 0.950 . S
C1653 C1649 1.393 . S
C1653 C1652 1.391 1_556 S
C1654 H1644 0.950 . S
C1654 C1655 1.386 . S
C1654 C1656 1.391 . S
C1655 C1654 1.386 . S
C1655 C1659 1.393 . S
C1656 H1645 0.950 . S
C1656 C1654 1.391 . S
C1656 C1657 1.400 . S
C1657 C1651 1.491 . S
C1657 C1656 1.400 . S
C1657 C1658 1.398 . S
C1658 H1646 0.950 . S
C1658 C1657 1.398 . S
C1658 C1659 1.391 . S
C1659 H1647 0.950 . S
C1659 C1655 1.393 . S
C1659 C1658 1.391 . S
H1660 C1668 0.950 . S
H1661 C1673 0.950 . S
H1662 C1670 0.950 . S
H1663 C1672 0.950 . S
H1664 C1674 0.950 . S
H1665 C1676 0.950 . S
H1666 C1678 0.950 . S
H1667 C1679 0.950 . S
C1668 H1660 0.950 . S
C1668 C1669 1.386 . S
C1668 C1670 1.391 1_556 S
C1669 C1668 1.386 . S
C1669 C1673 1.393 . S
C1670 H1662 0.950 . S
C1670 C1668 1.391 1_554 S
C1670 C1671 1.400 . S
C1671 C1670 1.400 . S
C1671 C1672 1.398 . S
C1671 C1677 1.491 . S
C1672 H1663 0.950 . S
C1672 C1671 1.398 . S
C1672 C1673 1.391 1_554 S
C1673 H1661 0.950 . S
C1673 C1669 1.393 . S
C1673 C1672 1.391 1_556 S
C1674 H1664 0.950 . S
C1674 C1675 1.386 . S
C1674 C1676 1.391 . S
C1675 C1674 1.386 . S
C1675 C1679 1.393 . S
C1676 H1665 0.950 . S
C1676 C1674 1.391 . S
C1676 C1677 1.400 . S
C1677 C1671 1.491 . S
C1677 C1676 1.400 . S
C1677 C1678 1.398 . S
C1678 H1666 0.950 . S
C1678 C1677 1.398 . S
C1678 C1679 1.391 . S
C1679 H1667 0.950 . S
C1679 C1675 1.393 . S
C1679 C1678 1.391 . S
H1680 C1688 0.950 . S
H1681 C1693 0.950 . S
H1682 C1690 0.950 . S
H1683 C1692 0.950 . S
H1684 C1694 0.950 . S
H1685 C1696 0.950 . S
H1686 C1698 0.950 . S
H1687 C1699 0.950 . S
C1688 H1680 0.950 . S
C1688 C1689 1.386 . S
C1688 C1690 1.391 . S
C1689 C1688 1.386 . S
C1689 C1693 1.393 . S
C1690 H1682 0.950 . S
C1690 C1688 1.391 . S
C1690 C1691 1.400 . S
C1691 C1690 1.400 . S
C1691 C1692 1.398 . S
C1691 C1697 1.491 . S
C1692 H1683 0.950 . S
C1692 C1691 1.398 . S
C1692 C1693 1.391 . S
C1693 H1681 0.950 . S
C1693 C1689 1.393 . S
C1693 C1692 1.391 . S
C1694 H1684 0.950 . S
C1694 C1695 1.386 . S
C1694 C1696 1.391 1_554 S
C1695 C1694 1.386 . S
C1695 C1699 1.393 . S
C1696 H1685 0.950 . S
C1696 C1694 1.391 1_556 S
C1696 C1697 1.400 . S
C1697 C1691 1.491 . S
C1697 C1696 1.400 . S
C1697 C1698 1.398 . S
C1698 H1686 0.950 . S
C1698 C1697 1.398 . S
C1698 C1699 1.391 1_556 S
C1699 H1687 0.950 . S
C1699 C1695 1.393 . S
C1699 C1698 1.391 1_554 S
H1700 C1708 0.950 . S
H1701 C1713 0.950 . S
H1702 C1710 0.950 . S
H1703 C1712 0.950 . S
H1704 C1714 0.950 . S
H1705 C1716 0.950 . S
H1706 C1718 0.950 . S
H1707 C1719 0.950 . S
C1708 H1700 0.950 . S
C1708 C1709 1.386 . S
C1708 C1710 1.391 1_554 S
C1709 C1708 1.386 . S
C1709 C1713 1.393 . S
C1710 H1702 0.950 . S
C1710 C1708 1.391 1_556 S
C1710 C1711 1.400 . S
C1711 C1710 1.400 . S
C1711 C1712 1.398 . S
C1711 C1717 1.491 . S
C1712 H1703 0.950 . S
C1712 C1711 1.398 . S
C1712 C1713 1.391 1_556 S
C1713 H1701 0.950 . S
C1713 C1709 1.393 . S
C1713 C1712 1.391 1_554 S
C1714 H1704 0.950 . S
C1714 C1715 1.386 . S
C1714 C1716 1.391 . S
C1715 C1714 1.386 . S
C1715 C1719 1.393 . S
C1716 H1705 0.950 . S
C1716 C1714 1.391 . S
C1716 C1717 1.400 . S
C1717 C1711 1.491 . S
C1717 C1716 1.400 . S
C1717 C1718 1.398 . S
C1718 H1706 0.950 . S
C1718 C1717 1.398 . S
C1718 C1719 1.391 . S
C1719 H1707 0.950 . S
C1719 C1715 1.393 . S
C1719 C1718 1.391 . S
H1720 C1728 0.950 . S
H1721 C1733 0.950 . S
H1722 C1730 0.950 . S
H1723 C1732 0.950 . S
H1724 C1734 0.950 . S
H1725 C1736 0.950 . S
H1726 C1738 0.950 . S
H1727 C1739 0.950 . S
C1728 H1720 0.950 . S
C1728 C1729 1.386 . S
C1728 C1730 1.391 1_554 S
C1729 C1728 1.386 . S
C1729 C1733 1.393 . S
C1730 H1722 0.950 . S
C1730 C1728 1.391 1_556 S
C1730 C1731 1.400 . S
C1731 C1730 1.400 . S
C1731 C1732 1.398 . S
C1731 C1737 1.491 . S
C1732 H1723 0.950 . S
C1732 C1731 1.398 . S
C1732 C1733 1.391 1_556 S
C1733 H1721 0.950 . S
C1733 C1729 1.393 . S
C1733 C1732 1.391 1_554 S
C1734 H1724 0.950 . S
C1734 C1735 1.386 . S
C1734 C1736 1.391 . S
C1735 C1734 1.386 . S
C1735 C1739 1.393 . S
C1736 H1725 0.950 . S
C1736 C1734 1.391 . S
C1736 C1737 1.400 . S
C1737 C1731 1.491 . S
C1737 C1736 1.400 . S
C1737 C1738 1.398 . S
C1738 H1726 0.950 . S
C1738 C1737 1.398 . S
C1738 C1739 1.391 . S
C1739 H1727 0.950 . S
C1739 C1735 1.393 . S
C1739 C1738 1.391 . S
H1740 C1748 0.950 . S
H1741 C1753 0.950 . S
H1742 C1750 0.950 . S
H1743 C1752 0.950 . S
H1744 C1754 0.950 . S
H1745 C1756 0.950 . S
H1746 C1758 0.950 . S
H1747 C1759 0.950 . S
C1748 H1740 0.950 . S
C1748 C1749 1.386 . S
C1748 C1750 1.391 . S
C1749 C1748 1.386 . S
C1749 C1753 1.393 . S
C1750 H1742 0.950 . S
C1750 C1748 1.391 . S
C1750 C1751 1.400 . S
C1751 C1750 1.400 . S
C1751 C1752 1.398 . S
C1751 C1757 1.491 . S
C1752 H1743 0.950 . S
C1752 C1751 1.398 . S
C1752 C1753 1.391 . S
C1753 H1741 0.950 . S
C1753 C1749 1.393 . S
C1753 C1752 1.391 . S
C1754 H1744 0.950 . S
C1754 C1755 1.386 . S
C1754 C1756 1.391 . S
C1755 C1754 1.386 . S
C1755 C1759 1.393 . S
C1756 H1745 0.950 . S
C1756 C1754 1.391 . S
C1756 C1757 1.400 . S
C1757 C1751 1.491 . S
C1757 C1756 1.400 . S
C1757 C1758 1.398 . S
C1758 H1746 0.950 . S
C1758 C1757 1.398 . S
C1758 C1759 1.391 . S
C1759 H1747 0.950 . S
C1759 C1755 1.393 . S
C1759 C1758 1.391 . S
H1760 C1768 0.950 . S
H1761 C1773 0.950 . S
H1762 C1770 0.950 . S
H1763 C1772 0.950 . S
H1764 C1774 0.950 . S
H1765 C1776 0.950 . S
H1766 C1778 0.950 . S
H1767 C1779 0.950 . S
C1768 H1760 0.950 . S
C1768 C1769 1.386 . S
C1768 C1770 1.391 . S
C1769 C1768 1.386 . S
C1769 C1773 1.393 . S
C1770 H1762 0.950 . S
C1770 C1768 1.391 . S
C1770 C1771 1.400 . S
C1771 C1770 1.400 . S
C1771 C1772 1.398 . S
C1771 C1777 1.491 . S
C1772 H1763 0.950 . S
C1772 C1771 1.398 . S
C1772 C1773 1.391 . S
C1773 H1761 0.950 . S
C1773 C1769 1.393 . S
C1773 C1772 1.391 . S
C1774 H1764 0.950 . S
C1774 C1775 1.386 . S
C1774 C1776 1.391 . S
C1775 C1774 1.386 . S
C1775 C1779 1.393 . S
C1776 H1765 0.950 . S
C1776 C1774 1.391 . S
C1776 C1777 1.400 . S
C1777 C1771 1.491 . S
C1777 C1776 1.400 . S
C1777 C1778 1.398 . S
C1778 H1766 0.950 . S
C1778 C1777 1.398 . S
C1778 C1779 1.391 . S
C1779 H1767 0.950 . S
C1779 C1775 1.393 . S
C1779 C1778 1.391 . S
H1780 C1788 0.950 . S
H1781 C1793 0.950 . S
H1782 C1790 0.950 . S
H1783 C1792 0.950 . S
H1784 C1794 0.950 . S
H1785 C1796 0.950 . S
H1786 C1798 0.950 . S
H1787 C1799 0.950 . S
C1788 H1780 0.950 . S
C1788 C1789 1.386 . S
C1788 C1790 1.391 . S
C1789 C1788 1.386 . S
C1789 C1793 1.393 . S
C1790 H1782 0.950 . S
C1790 C1788 1.391 . S
C1790 C1791 1.400 . S
C1791 C1790 1.400 . S
C1791 C1792 1.398 . S
C1791 C1797 1.491 . S
C1792 H1783 0.950 . S
C1792 C1791 1.398 . S
C1792 C1793 1.391 . S
C1793 H1781 0.950 . S
C1793 C1789 1.393 . S
C1793 C1792 1.391 . S
C1794 H1784 0.950 . S
C1794 C1795 1.386 . S
C1794 C1796 1.391 . S
C1795 C1794 1.386 . S
C1795 C1799 1.393 . S
C1796 H1785 0.950 . S
C1796 C1794 1.391 . S
C1796 C1797 1.400 . S
C1797 C1791 1.491 . S
C1797 C1796 1.400 . S
C1797 C1798 1.398 . S
C1798 H1786 0.950 . S
C1798 C1797 1.398 . S
C1798 C1799 1.391 . S
C1799 H1787 0.950 . S
C1799 C1795 1.393 . S
C1799 C1798 1.391 . S
C729 C535 1.688 . S
C735 C18 1.703 . S
C749 C58 1.683 . S
C755 C575 1.696 . S
C769 C98 1.695 . S
C775 C495 1.688 . S
C789 C95 1.703 . S
C795 C298 1.682 . S
C809 C338 1.684 . S
C815 C15 1.711 . S
C829 C55 1.694 . S
C835 C258 1.689 . S
C849 C129 1.700 . S
C855 C406 1.698 . S
C869 C169 1.676 . S
C875 C446 1.707 . S
C889 C366 1.695 . S
C895 C209 1.685 . S
C909 C649 1.682 . S
C915 C206 1.702 . S
C929 C126 1.686 . S
C935 C689 1.703 . S
C949 C609 1.680 . S
C955 C166 1.707 . S
C969 C335 1.721 1_455 S
C975 C538 1.687 . S
C989 C255 1.718 . S
C995 C578 1.700 . S
C1009 C295 1.708 . S
C1015 C498 1.692 . S
C1029 C369 1.687 . S
C1035 C646 1.715 1_545 S
C1049 C686 1.719 . S
C1055 C409 1.697 . S
C1069 C606 1.716 . S
C1075 C449 1.700 . S
C1089 C6 1.852 . S
C1095 C178 1.858 . S
C1109 C218 1.868 1_565 S
C1115 C46 1.856 . S
C1129 C138 1.865 . S
C1135 C86 1.852 . S
C1149 C175 1.865 . S
C1155 C89 1.855 . S
C1169 C215 1.851 . S
C1175 C9 1.860 1_655 S
C1189 C135 1.860 . S
C1195 C49 1.869 . S
C1209 C418 1.877 . S
C1215 C246 1.866 . S
C1229 C458 1.872 . S
C1235 C286 1.857 . S
C1249 C378 1.863 . S
C1255 C326 1.859 . S
C1269 C415 1.861 . S
C1275 C329 1.868 . S
C1289 C455 1.850 . S
C1295 C249 1.865 . S
C1309 C375 1.858 . S
C1315 C289 1.854 . S
C1329 C658 1.855 . S
C1335 C486 1.849 . S
C1349 C698 1.858 . S
C1355 C526 1.848 . S
C1369 C566 1.848 . S
C1375 C618 1.862 . S
C1389 C569 1.862 . S
C1395 C655 1.866 . S
C1409 C489 1.868 . S
C1415 C695 1.856 . S
C1429 C615 1.867 . S
C1435 C529 1.878 . S
C1449 C10 1.846 . S
C1455 C19 1.846 . S
C1469 C50 1.844 . S
C1475 C59 1.844 . S
C1489 C90 1.848 . S
C1495 C99 1.848 . S
C1509 C139 1.850 . S
C1515 C130 1.850 . S
C1529 C170 1.863 . S
C1535 C179 1.863 . S
C1549 C210 1.848 . S
C1555 C219 1.848 . S
C1569 C259 1.845 . S
C1575 C250 1.845 . S
C1589 C290 1.854 . S
C1595 C299 1.854 . S
C1609 C339 1.852 . S
C1615 C330 1.852 . S
C1629 C379 1.844 . S
C1635 C370 1.844 . S
C1649 C419 1.855 . S
C1655 C410 1.855 . S
C1669 C459 1.856 . S
C1675 C450 1.856 . S
C1689 C499 1.846 . S
C1695 C490 1.846 . S
C1709 C530 1.862 . S
C1715 C539 1.862 . S
C1729 C570 1.857 . S
C1735 C579 1.857 . S
C1749 C610 1.849 . S
C1755 C619 1.849 . S
C1769 C650 1.847 . S
C1775 C659 1.847 . S
C1789 C699 1.851 . S
C1795 C690 1.851 . S
