# Generated by pormake.
# Topology uoe, (4)-cn, num edge types: 1
# Building blocks:
#     Node 0, Type 0, BuildingBlock: NAWXER_clean_sbu_0, # of connection points: 4
#     Node 1, Type 0, BuildingBlock: NAWXER_clean_sbu_0, # of connection points: 4
#     Node 2, Type 0, BuildingBlock: NAWXER_clean_sbu_0, # of connection points: 4
#     Node 3, Type 0, BuildingBlock: NAWXER_clean_sbu_0, # of connection points: 4
#     Node 4, Type 0, BuildingBlock: NAWXER_clean_sbu_0, # of connection points: 4
#     Node 5, Type 0, BuildingBlock: NAWXER_clean_sbu_0, # of connection points: 4
#     Node 6, Type 0, BuildingBlock: NAWXER_clean_sbu_0, # of connection points: 4
#     Node 7, Type 0, BuildingBlock: NAWXER_clean_sbu_0, # of connection points: 4
#     Node 8, Type 0, BuildingBlock: NAWXER_clean_sbu_0, # of connection points: 4
#     Node 9, Type 0, BuildingBlock: NAWXER_clean_sbu_0, # of connection points: 4
#     Node 10, Type 0, BuildingBlock: NAWXER_clean_sbu_0, # of connection points: 4
#     Node 11, Type 0, BuildingBlock: NAWXER_clean_sbu_0, # of connection points: 4
#     Node 12, Type 0, BuildingBlock: NAWXER_clean_sbu_0, # of connection points: 4
#     Node 13, Type 0, BuildingBlock: NAWXER_clean_sbu_0, # of connection points: 4
#     Node 14, Type 0, BuildingBlock: NAWXER_clean_sbu_0, # of connection points: 4
#     Node 15, Type 0, BuildingBlock: NAWXER_clean_sbu_0, # of connection points: 4
#     Node 16, Type 0, BuildingBlock: NAWXER_clean_sbu_0, # of connection points: 4
#     Node 17, Type 0, BuildingBlock: NAWXER_clean_sbu_0, # of connection points: 4
#     Node 18, Type 0, BuildingBlock: NAWXER_clean_sbu_0, # of connection points: 4
#     Node 19, Type 0, BuildingBlock: NAWXER_clean_sbu_0, # of connection points: 4
#     Node 20, Type 0, BuildingBlock: NAWXER_clean_sbu_0, # of connection points: 4
#     Node 21, Type 0, BuildingBlock: NAWXER_clean_sbu_0, # of connection points: 4
#     Node 22, Type 0, BuildingBlock: NAWXER_clean_sbu_0, # of connection points: 4
#     Node 23, Type 0, BuildingBlock: NAWXER_clean_sbu_0, # of connection points: 4
#     Node 24, Type 0, BuildingBlock: NAWXER_clean_sbu_0, # of connection points: 4
#     Node 25, Type 0, BuildingBlock: NAWXER_clean_sbu_0, # of connection points: 4
#     Node 26, Type 0, BuildingBlock: NAWXER_clean_sbu_0, # of connection points: 4
#     Node 27, Type 0, BuildingBlock: NAWXER_clean_sbu_0, # of connection points: 4
#     Node 28, Type 0, BuildingBlock: NAWXER_clean_sbu_0, # of connection points: 4
#     Node 29, Type 0, BuildingBlock: NAWXER_clean_sbu_0, # of connection points: 4
#     Node 30, Type 0, BuildingBlock: NAWXER_clean_sbu_0, # of connection points: 4
#     Node 31, Type 0, BuildingBlock: NAWXER_clean_sbu_0, # of connection points: 4
#     Edge 32, Type (0, 0), BuildingBlock: UVAHIK_clean_linker_0, # of connection points: 2
#     Edge 33, Type (0, 0), BuildingBlock: UVAHIK_clean_linker_0, # of connection points: 2
#     Edge 34, Type (0, 0), BuildingBlock: UVAHIK_clean_linker_0, # of connection points: 2
#     Edge 35, Type (0, 0), BuildingBlock: UVAHIK_clean_linker_0, # of connection points: 2
#     Edge 36, Type (0, 0), BuildingBlock: UVAHIK_clean_linker_0, # of connection points: 2
#     Edge 37, Type (0, 0), BuildingBlock: UVAHIK_clean_linker_0, # of connection points: 2
#     Edge 38, Type (0, 0), BuildingBlock: UVAHIK_clean_linker_0, # of connection points: 2
#     Edge 39, Type (0, 0), BuildingBlock: UVAHIK_clean_linker_0, # of connection points: 2
#     Edge 40, Type (0, 0), BuildingBlock: UVAHIK_clean_linker_0, # of connection points: 2
#     Edge 41, Type (0, 0), BuildingBlock: UVAHIK_clean_linker_0, # of connection points: 2
#     Edge 42, Type (0, 0), BuildingBlock: UVAHIK_clean_linker_0, # of connection points: 2
#     Edge 43, Type (0, 0), BuildingBlock: UVAHIK_clean_linker_0, # of connection points: 2
#     Edge 44, Type (0, 0), BuildingBlock: UVAHIK_clean_linker_0, # of connection points: 2
#     Edge 45, Type (0, 0), BuildingBlock: UVAHIK_clean_linker_0, # of connection points: 2
#     Edge 46, Type (0, 0), BuildingBlock: UVAHIK_clean_linker_0, # of connection points: 2
#     Edge 47, Type (0, 0), BuildingBlock: UVAHIK_clean_linker_0, # of connection points: 2
#     Edge 48, Type (0, 0), BuildingBlock: UVAHIK_clean_linker_0, # of connection points: 2
#     Edge 49, Type (0, 0), BuildingBlock: UVAHIK_clean_linker_0, # of connection points: 2
#     Edge 50, Type (0, 0), BuildingBlock: UVAHIK_clean_linker_0, # of connection points: 2
#     Edge 51, Type (0, 0), BuildingBlock: UVAHIK_clean_linker_0, # of connection points: 2
#     Edge 52, Type (0, 0), BuildingBlock: UVAHIK_clean_linker_0, # of connection points: 2
#     Edge 53, Type (0, 0), BuildingBlock: UVAHIK_clean_linker_0, # of connection points: 2
#     Edge 54, Type (0, 0), BuildingBlock: UVAHIK_clean_linker_0, # of connection points: 2
#     Edge 55, Type (0, 0), BuildingBlock: UVAHIK_clean_linker_0, # of connection points: 2
#     Edge 56, Type (0, 0), BuildingBlock: UVAHIK_clean_linker_0, # of connection points: 2
#     Edge 57, Type (0, 0), BuildingBlock: UVAHIK_clean_linker_0, # of connection points: 2
#     Edge 58, Type (0, 0), BuildingBlock: UVAHIK_clean_linker_0, # of connection points: 2
#     Edge 59, Type (0, 0), BuildingBlock: UVAHIK_clean_linker_0, # of connection points: 2
#     Edge 60, Type (0, 0), BuildingBlock: UVAHIK_clean_linker_0, # of connection points: 2
#     Edge 61, Type (0, 0), BuildingBlock: UVAHIK_clean_linker_0, # of connection points: 2
#     Edge 62, Type (0, 0), BuildingBlock: UVAHIK_clean_linker_0, # of connection points: 2
#     Edge 63, Type (0, 0), BuildingBlock: UVAHIK_clean_linker_0, # of connection points: 2
#     Edge 64, Type (0, 0), BuildingBlock: UVAHIK_clean_linker_0, # of connection points: 2
#     Edge 65, Type (0, 0), BuildingBlock: UVAHIK_clean_linker_0, # of connection points: 2
#     Edge 66, Type (0, 0), BuildingBlock: UVAHIK_clean_linker_0, # of connection points: 2
#     Edge 67, Type (0, 0), BuildingBlock: UVAHIK_clean_linker_0, # of connection points: 2
#     Edge 68, Type (0, 0), BuildingBlock: UVAHIK_clean_linker_0, # of connection points: 2
#     Edge 69, Type (0, 0), BuildingBlock: UVAHIK_clean_linker_0, # of connection points: 2
#     Edge 70, Type (0, 0), BuildingBlock: UVAHIK_clean_linker_0, # of connection points: 2
#     Edge 71, Type (0, 0), BuildingBlock: UVAHIK_clean_linker_0, # of connection points: 2
#     Edge 72, Type (0, 0), BuildingBlock: UVAHIK_clean_linker_0, # of connection points: 2
#     Edge 73, Type (0, 0), BuildingBlock: UVAHIK_clean_linker_0, # of connection points: 2
#     Edge 74, Type (0, 0), BuildingBlock: UVAHIK_clean_linker_0, # of connection points: 2
#     Edge 75, Type (0, 0), BuildingBlock: UVAHIK_clean_linker_0, # of connection points: 2
#     Edge 76, Type (0, 0), BuildingBlock: UVAHIK_clean_linker_0, # of connection points: 2
#     Edge 77, Type (0, 0), BuildingBlock: UVAHIK_clean_linker_0, # of connection points: 2
#     Edge 78, Type (0, 0), BuildingBlock: UVAHIK_clean_linker_0, # of connection points: 2
#     Edge 79, Type (0, 0), BuildingBlock: UVAHIK_clean_linker_0, # of connection points: 2
#     Edge 80, Type (0, 0), BuildingBlock: UVAHIK_clean_linker_0, # of connection points: 2
#     Edge 81, Type (0, 0), BuildingBlock: UVAHIK_clean_linker_0, # of connection points: 2
#     Edge 82, Type (0, 0), BuildingBlock: UVAHIK_clean_linker_0, # of connection points: 2
#     Edge 83, Type (0, 0), BuildingBlock: UVAHIK_clean_linker_0, # of connection points: 2
#     Edge 84, Type (0, 0), BuildingBlock: UVAHIK_clean_linker_0, # of connection points: 2
#     Edge 85, Type (0, 0), BuildingBlock: UVAHIK_clean_linker_0, # of connection points: 2
#     Edge 86, Type (0, 0), BuildingBlock: UVAHIK_clean_linker_0, # of connection points: 2
#     Edge 87, Type (0, 0), BuildingBlock: UVAHIK_clean_linker_0, # of connection points: 2
#     Edge 88, Type (0, 0), BuildingBlock: UVAHIK_clean_linker_0, # of connection points: 2
#     Edge 89, Type (0, 0), BuildingBlock: UVAHIK_clean_linker_0, # of connection points: 2
#     Edge 90, Type (0, 0), BuildingBlock: UVAHIK_clean_linker_0, # of connection points: 2
#     Edge 91, Type (0, 0), BuildingBlock: UVAHIK_clean_linker_0, # of connection points: 2
#     Edge 92, Type (0, 0), BuildingBlock: UVAHIK_clean_linker_0, # of connection points: 2
#     Edge 93, Type (0, 0), BuildingBlock: UVAHIK_clean_linker_0, # of connection points: 2
#     Edge 94, Type (0, 0), BuildingBlock: UVAHIK_clean_linker_0, # of connection points: 2
#     Edge 95, Type (0, 0), BuildingBlock: UVAHIK_clean_linker_0, # of connection points: 2
# Relax obj value: 0.105
# Max RMSD: 0.239
# Mean RMSD: 0.239
data_MOF--net-uoe--node1-NAWXER_clean_sbu_0--edge1-UVAHIK_clean_linker_0
_symmetry_space_group_name_H-M    P1
_symmetry_Int_Tables_number       1
_symmetry_cell_setting            triclinic
loop_
_symmetry_equiv_pos_as_xyz
'x, y, z'
_cell_length_a     95.758581
_cell_length_b     95.637703
_cell_length_c     37.197862
_cell_angle_alpha  89.968769
_cell_angle_beta   90.022434
_cell_angle_gamma 89.99154
loop_
_atom_site_label
_atom_site_type_symbol
_atom_site_fract_x
_atom_site_fract_y
_atom_site_fract_z
_atom_type_partial_charge
C0 C 0.12986 0.47798 0.08986 0.0
C1 C 0.08278 0.49636 0.06875 0.0
O2 O 0.12602 0.49065 0.09316 0.0
Zn3 Zn 0.10692 0.48831 0.07577 0.0
O4 O 0.12142 0.469 0.07646 0.0
Zn5 Zn 0.10033 0.46788 0.05844 0.0
O6 O 0.10174 0.46336 0.00769 0.0
O7 O 0.10843 0.48498 0.01892 0.0
O8 O 0.08435 0.48346 0.06022 0.0
O9 O 0.0933 0.5034 0.07927 0.0
O10 O 0.09943 0.47465 0.11675 0.0
O11 O 0.09301 0.45437 0.09328 0.0
C12 C 0.10609 0.47512 -0.00366 0.0
C13 C 0.09456 0.46229 0.12051 0.0
C14 C 0.77467 0.82176 0.29467 0.0
C15 C 0.79847 0.86489 0.32603 0.0
O16 O 0.766 0.83188 0.299 0.0
Zn17 Zn 0.7673 0.85422 0.30972 0.0
O18 O 0.78769 0.82425 0.29536 0.0
Zn19 Zn 0.78631 0.84385 0.30554 0.0
O20 O 0.77613 0.84327 0.35814 0.0
O21 O 0.75654 0.85531 0.35243 0.0
O22 O 0.80353 0.85332 0.31568 0.0
O23 O 0.78521 0.86676 0.32468 0.0
O24 O 0.75904 0.86291 0.26888 0.0
O25 O 0.77881 0.85242 0.25534 0.0
C26 C 0.76477 0.84809 0.37173 0.0
C27 C 0.76802 0.85943 0.24558 0.0
C28 C 0.4013 0.51676 0.62496 0.0
C29 C 0.38979 0.51898 0.49884 0.0
O30 O 0.4061 0.52805 0.61078 0.0
Zn31 Zn 0.40548 0.5378 0.55746 0.0
O32 O 0.39413 0.50836 0.60604 0.0
Zn33 Zn 0.39513 0.51886 0.56295 0.0
O34 O 0.41743 0.5174 0.55214 0.0
O35 O 0.42504 0.53909 0.54716 0.0
O36 O 0.38626 0.51032 0.52289 0.0
O37 O 0.39689 0.52983 0.50769 0.0
O38 O 0.39606 0.55515 0.56682 0.0
O39 O 0.38274 0.53688 0.57765 0.0
C40 C 0.42753 0.52605 0.54726 0.0
C41 C 0.38461 0.55017 0.5782 0.0
C42 C 0.73384 0.15348 0.87454 0.0
C43 C 0.73029 0.14475 0.74702 0.0
O44 O 0.72268 0.15898 0.86154 0.0
Zn45 Zn 0.71255 0.15981 0.80882 0.0
O46 O 0.74186 0.14642 0.85428 0.0
Zn47 Zn 0.73109 0.14863 0.81185 0.0
O48 O 0.73326 0.17116 0.80349 0.0
O49 O 0.7118 0.17956 0.80132 0.0
O50 O 0.73879 0.14004 0.7701 0.0
O51 O 0.71998 0.1523 0.75748 0.0
O52 O 0.69495 0.15073 0.81752 0.0
O53 O 0.71279 0.13663 0.82602 0.0
C54 C 0.7249 0.18163 0.80051 0.0
C55 C 0.6996 0.13891 0.82732 0.0
C56 C 0.10287 0.49434 0.48673 0.0
C57 C 0.11063 0.50176 0.61416 0.0
O58 O 0.09819 0.50641 0.49624 0.0
Zn59 Zn 0.09782 0.51844 0.54703 0.0
O60 O 0.10939 0.48688 0.50942 0.0
Zn61 Zn 0.10777 0.49948 0.54867 0.0
O62 O 0.08492 0.49906 0.55596 0.0
O63 O 0.07837 0.52115 0.55307 0.0
O64 O 0.11511 0.49239 0.5931 0.0
O65 O 0.10407 0.51227 0.60089 0.0
O66 O 0.10757 0.5352 0.53648 0.0
O67 O 0.12118 0.51682 0.53138 0.0
C68 C 0.0752 0.50835 0.55662 0.0
C69 C 0.11932 0.53009 0.52822 0.0
C70 C 0.7334 0.85887 0.87185 0.0
C71 C 0.73496 0.84689 0.74599 0.0
O72 O 0.72235 0.85203 0.86331 0.0
Zn73 Zn 0.71394 0.84358 0.81389 0.0
O74 O 0.74207 0.86209 0.8476 0.0
Zn75 Zn 0.73323 0.85328 0.80785 0.0
O76 O 0.71566 0.86612 0.79259 0.0
O77 O 0.69688 0.85378 0.80511 0.0
O78 O 0.74366 0.85374 0.76479 0.0
O79 O 0.72353 0.84254 0.76031 0.0
O80 O 0.71214 0.82397 0.82459 0.0
O81 O 0.73398 0.83103 0.81937 0.0
C82 C 0.70233 0.86487 0.79276 0.0
C83 C 0.72511 0.82116 0.82458 0.0
C84 C 0.38479 0.45281 0.04535 0.0
C85 C 0.42729 0.47753 0.07692 0.0
O86 O 0.38267 0.46606 0.04621 0.0
Zn87 Zn 0.39478 0.48427 0.06129 0.0
O88 O 0.39635 0.44801 0.0565 0.0
Zn89 Zn 0.40544 0.46546 0.06623 0.0
O90 O 0.39671 0.47303 0.11609 0.0
O91 O 0.38585 0.49253 0.10177 0.0
O92 O 0.425 0.46445 0.07666 0.0
O93 O 0.41706 0.48603 0.07218 0.0
O94 O 0.3936 0.4949 0.01838 0.0
O95 O 0.40591 0.47544 0.01326 0.0
C96 C 0.3895 0.48374 0.12542 0.0
C97 C 0.40094 0.4867 -0.00067 0.0
C98 C 0.77653 0.18096 0.32345 0.0
C99 C 0.8014 0.13808 0.29537 0.0
O100 O 0.76813 0.17052 0.32084 0.0
Zn101 Zn 0.77009 0.14802 0.31215 0.0
O102 O 0.78962 0.17887 0.32187 0.0
Zn103 Zn 0.78874 0.15911 0.3143 0.0
O104 O 0.77823 0.15842 0.26217 0.0
O105 O 0.75904 0.14594 0.27009 0.0
O106 O 0.80621 0.14989 0.30466 0.0
O107 O 0.78821 0.13589 0.29738 0.0
O108 O 0.76264 0.13946 0.35427 0.0
O109 O 0.78163 0.15159 0.36594 0.0
C110 C 0.76695 0.15302 0.24959 0.0
C111 C 0.77135 0.1441 0.37691 0.0
C112 C 0.91318 0.52132 0.00042 0.0
C113 C 0.90103 0.52314 0.1263 0.0
O114 O 0.90765 0.51211 0.02045 0.0
Zn115 Zn 0.90695 0.52322 0.06237 0.0
O116 O 0.91624 0.53341 0.01344 0.0
Zn117 Zn 0.91456 0.54332 0.06691 0.0
O118 O 0.93371 0.54739 0.07786 0.0
O119 O 0.92919 0.52485 0.07384 0.0
O120 O 0.90668 0.53478 0.11711 0.0
O121 O 0.899 0.51389 0.1026 0.0
O122 O 0.89228 0.53945 0.04597 0.0
O123 O 0.90317 0.55926 0.05697 0.0
C124 C 0.93797 0.53483 0.07873 0.0
C125 C 0.89251 0.55288 0.04516 0.0
C126 C 0.22932 0.14404 0.88463 0.0
C127 C 0.23242 0.15246 0.75676 0.0
O128 O 0.23772 0.13908 0.86167 0.0
Zn129 Zn 0.22987 0.14736 0.81946 0.0
O130 O 0.21893 0.15142 0.87389 0.0
Zn131 Zn 0.21119 0.15849 0.82262 0.0
O132 O 0.1937 0.14908 0.81403 0.0
O133 O 0.21171 0.13521 0.8056 0.0
O134 O 0.22126 0.15779 0.77015 0.0
O135 O 0.24054 0.14529 0.77655 0.0
O136 O 0.23184 0.16991 0.8273 0.0
O137 O 0.21038 0.17832 0.8295 0.0
C138 C 0.1985 0.13732 0.80428 0.0
C139 C 0.22349 0.18039 0.83003 0.0
C140 C 0.60667 0.48328 0.62972 0.0
C141 C 0.59568 0.48756 0.50372 0.0
O142 O 0.61006 0.49249 0.60692 0.0
Zn143 Zn 0.60143 0.48457 0.56567 0.0
O144 O 0.59969 0.47255 0.61941 0.0
Zn145 Zn 0.59116 0.4655 0.56878 0.0
O146 O 0.60053 0.44832 0.55841 0.0
O147 O 0.61399 0.46669 0.54979 0.0
O148 O 0.59104 0.47594 0.51634 0.0
O149 O 0.60246 0.49584 0.5239 0.0
O150 O 0.57912 0.48581 0.57585 0.0
O151 O 0.57153 0.46407 0.57835 0.0
C152 C 0.61209 0.45341 0.5481 0.0
C153 C 0.56902 0.47709 0.5795 0.0
C154 C 0.26624 0.84349 0.24374 0.0
C155 C 0.27189 0.85254 0.37052 0.0
O156 O 0.25848 0.85046 0.26484 0.0
Zn157 Zn 0.26988 0.84824 0.30613 0.0
O158 O 0.2776 0.83799 0.25561 0.0
Zn159 Zn 0.28851 0.8371 0.30719 0.0
O160 O 0.28922 0.81729 0.31492 0.0
O161 O 0.2678 0.82578 0.31508 0.0
O162 O 0.28203 0.84496 0.35916 0.0
O163 O 0.26288 0.85697 0.34836 0.0
O164 O 0.28794 0.86029 0.29025 0.0
O165 O 0.30596 0.84621 0.29618 0.0
C166 C 0.27614 0.81528 0.31727 0.0
C167 C 0.3011 0.85806 0.2873 0.0
C168 C 0.90396 0.48861 0.6263 0.0
C169 C 0.89228 0.48668 0.49983 0.0
O170 O 0.89792 0.49767 0.60676 0.0
Zn171 Zn 0.8974 0.48662 0.56437 0.0
O172 O 0.90729 0.47667 0.61286 0.0
Zn173 Zn 0.90557 0.4667 0.5598 0.0
O174 O 0.92467 0.46289 0.54952 0.0
O175 O 0.91977 0.48539 0.55285 0.0
O176 O 0.89818 0.47523 0.50947 0.0
O177 O 0.88944 0.49577 0.52344 0.0
O178 O 0.88313 0.47003 0.58076 0.0
O179 O 0.8945 0.45057 0.56907 0.0
C180 C 0.92871 0.47551 0.54831 0.0
C181 C 0.88371 0.4566 0.58119 0.0
C182 C 0.26381 0.16246 0.38167 0.0
C183 C 0.26895 0.1536 0.25472 0.0
O184 O 0.25593 0.15566 0.36054 0.0
Zn185 Zn 0.26712 0.15801 0.31904 0.0
O186 O 0.27512 0.16799 0.36965 0.0
Zn187 Zn 0.28576 0.16909 0.31773 0.0
O188 O 0.2864 0.18891 0.3101 0.0
O189 O 0.26498 0.18048 0.31036 0.0
O190 O 0.27917 0.16114 0.26586 0.0
O191 O 0.25994 0.14932 0.27701 0.0
O192 O 0.28529 0.14587 0.33411 0.0
O193 O 0.30329 0.15997 0.32818 0.0
C194 C 0.27332 0.19096 0.30804 0.0
C195 C 0.29846 0.14807 0.3368 0.0
C196 C 0.6069 0.51702 0.00298 0.0
C197 C 0.59492 0.51718 0.12891 0.0
O198 O 0.60992 0.50847 0.02777 0.0
Zn199 Zn 0.60119 0.51789 0.06677 0.0
O200 O 0.60016 0.52822 0.01069 0.0
Zn201 Zn 0.59149 0.53714 0.05916 0.0
O202 O 0.60138 0.55431 0.06666 0.0
O203 O 0.61413 0.53581 0.07963 0.0
O204 O 0.59072 0.52845 0.1135 0.0
O205 O 0.60152 0.50803 0.11097 0.0
O206 O 0.57901 0.51697 0.05537 0.0
O207 O 0.57193 0.53873 0.0483 0.0
C208 C 0.61267 0.54915 0.07867 0.0
C209 C 0.56914 0.52576 0.04942 0.0
C210 C 0.22525 0.82208 0.7951 0.0
C211 C 0.20058 0.86536 0.82007 0.0
O212 O 0.21217 0.82432 0.79522 0.0
Zn213 Zn 0.21317 0.84412 0.80213 0.0
O214 O 0.23373 0.83245 0.79807 0.0
Zn215 Zn 0.23192 0.85504 0.8057 0.0
O216 O 0.24247 0.8571 0.84869 0.0
O217 O 0.22305 0.84482 0.85501 0.0
O218 O 0.21381 0.86737 0.8191 0.0
O219 O 0.19573 0.85364 0.8102 0.0
O220 O 0.22111 0.85119 0.75099 0.0
O221 O 0.24 0.86327 0.76383 0.0
C222 C 0.23422 0.85011 0.86851 0.0
C223 C 0.23161 0.85849 0.74061 0.0
C224 C 0.56765 0.97497 0.55305 0.0
C225 C 0.61152 0.95197 0.58238 0.0
O226 O 0.57774 0.98376 0.556 0.0
Zn227 Zn 0.60016 0.9828 0.56527 0.0
O228 O 0.57023 0.96195 0.55452 0.0
Zn229 Zn 0.58999 0.96358 0.56252 0.0
O230 O 0.5901 0.97402 0.61496 0.0
O231 O 0.60152 0.9939 0.6073 0.0
O232 O 0.60018 0.94647 0.57184 0.0
O233 O 0.6129 0.9653 0.58099 0.0
O234 O 0.60865 0.99062 0.52348 0.0
O235 O 0.59737 0.97117 0.51121 0.0
C236 C 0.5949 0.98557 0.62769 0.0
C237 C 0.60448 0.98176 0.5006 0.0
C238 C 0.27642 0.32037 0.79083 0.0
C239 C 0.30065 0.36322 0.82299 0.0
O240 O 0.26791 0.33064 0.79451 0.0
Zn241 Zn 0.26949 0.35291 0.80473 0.0
O242 O 0.28948 0.32264 0.79199 0.0
Zn243 Zn 0.28845 0.34233 0.80193 0.0
O244 O 0.27786 0.34224 0.854 0.0
O245 O 0.25839 0.35435 0.84664 0.0
O246 O 0.30571 0.35154 0.81339 0.0
O247 O 0.28743 0.36523 0.82052 0.0
O248 O 0.26178 0.36171 0.76358 0.0
O249 O 0.28176 0.35135 0.75143 0.0
C250 C 0.26644 0.34726 0.86676 0.0
C251 C 0.27113 0.35847 0.74104 0.0
C252 C 0.89289 0.01795 -0.00208 0.0
C253 C 0.90449 0.01658 0.12408 0.0
O254 O 0.89976 0.02896 0.00662 0.0
Zn255 Zn 0.90845 0.03718 0.05579 0.0
O256 O 0.88967 0.00916 0.02197 0.0
Zn257 Zn 0.89839 0.01803 0.0619 0.0
O258 O 0.88574 0.03606 0.07586 0.0
O259 O 0.89885 0.05444 0.06432 0.0
O260 O 0.89776 0.00772 0.10545 0.0
O261 O 0.90892 0.02792 0.10947 0.0
O262 O 0.92807 0.03851 0.04545 0.0
O263 O 0.9206 0.01681 0.05101 0.0
C264 C 0.88746 0.04938 0.07586 0.0
C265 C 0.93063 0.02548 0.04586 0.0
C266 C 0.23435 0.63624 0.25463 0.0
C267 C 0.23719 0.64735 0.38084 0.0
O268 O 0.22323 0.64261 0.26477 0.0
Zn269 Zn 0.2153 0.65053 0.31523 0.0
O270 O 0.24356 0.63307 0.27767 0.0
Zn271 Zn 0.23492 0.64107 0.3188 0.0
O272 O 0.21784 0.62743 0.33287 0.0
O273 O 0.1987 0.63985 0.32567 0.0
O274 O 0.24574 0.64048 0.36164 0.0
O275 O 0.22559 0.65157 0.36728 0.0
O276 O 0.21303 0.67022 0.30549 0.0
O277 O 0.23503 0.66344 0.30816 0.0
C278 C 0.20451 0.62845 0.33472 0.0
C279 C 0.22595 0.67322 0.30427 0.0
C280 C 0.56887 0.02763 0.07682 0.0
C281 C 0.61164 0.05249 0.04821 0.0
O282 O 0.57927 0.01919 0.07399 0.0
Zn283 Zn 0.60177 0.02114 0.06521 0.0
O284 O 0.571 0.04073 0.07557 0.0
Zn285 Zn 0.59071 0.03982 0.06776 0.0
O286 O 0.59123 0.02934 0.01554 0.0
O287 O 0.60374 0.01011 0.02305 0.0
O288 O 0.59992 0.0573 0.05809 0.0
O289 O 0.61382 0.03928 0.05002 0.0
O290 O 0.6104 0.01363 0.10726 0.0
O291 O 0.59825 0.03258 0.11923 0.0
C292 C 0.59659 0.01806 0.00277 0.0
C293 C 0.60575 0.02228 0.13004 0.0
C294 C 0.2403 0.35935 0.24075 0.0
C295 C 0.24065 0.3706 0.36707 0.0
O296 O 0.22855 0.35637 0.25555 0.0
Zn297 Zn 0.21926 0.35834 0.30858 0.0
O298 O 0.24985 0.36523 0.259 0.0
Zn299 Zn 0.23979 0.36576 0.30297 0.0
O300 O 0.23782 0.34363 0.31388 0.0
O301 O 0.21537 0.33878 0.31852 0.0
O302 O 0.24977 0.37287 0.34314 0.0
O303 O 0.22881 0.36535 0.35805 0.0
O304 O 0.20372 0.37103 0.29999 0.0
O305 O 0.22409 0.38101 0.2906 0.0
C306 C 0.22801 0.33467 0.31868 0.0
C307 C 0.21072 0.38166 0.29021 0.0
C308 C 0.8919 0.98305 0.62457 0.0
C309 C 0.90318 0.98633 0.49871 0.0
O310 O 0.89891 0.97222 0.61506 0.0
Zn311 Zn 0.90733 0.96462 0.5647 0.0
O312 O 0.88843 0.99196 0.60106 0.0
Zn313 Zn 0.89718 0.98373 0.56054 0.0
O314 O 0.88454 0.96593 0.54495 0.0
O315 O 0.89772 0.94746 0.55474 0.0
O316 O 0.8964 0.99477 0.51841 0.0
O317 O 0.90769 0.97474 0.51185 0.0
O318 O 0.92698 0.96313 0.57443 0.0
O319 O 0.91946 0.98488 0.57122 0.0
C320 C 0.88628 0.95263 0.5438 0.0
C321 C 0.92953 0.97616 0.57526 0.0
C322 C 0.29922 0.63762 0.80243 0.0
C323 C 0.27536 0.68092 0.83211 0.0
O324 O 0.28594 0.63588 0.80301 0.0
Zn325 Zn 0.26801 0.64852 0.81689 0.0
O326 O 0.30431 0.64913 0.81325 0.0
Zn327 Zn 0.28703 0.65871 0.82232 0.0
O328 O 0.27901 0.65006 0.87203 0.0
O329 O 0.25931 0.63981 0.85678 0.0
O330 O 0.28837 0.67835 0.8324 0.0
O331 O 0.26669 0.67084 0.82728 0.0
O332 O 0.25765 0.64741 0.77377 0.0
O333 O 0.27746 0.65913 0.76882 0.0
C334 C 0.26806 0.64309 0.8808 0.0
C335 C 0.26618 0.65435 0.75467 0.0
C336 C 0.38452 0.05337 0.54185 0.0
C337 C 0.42668 0.02726 0.56988 0.0
O338 O 0.39636 0.05772 0.55222 0.0
Zn339 Zn 0.40509 0.03993 0.56081 0.0
O340 O 0.38199 0.04019 0.54258 0.0
Zn341 Zn 0.39375 0.02158 0.55659 0.0
O342 O 0.38509 0.01346 0.59766 0.0
O343 O 0.39707 0.0323 0.61168 0.0
O344 O 0.41615 0.01906 0.56599 0.0
O345 O 0.4248 0.0404 0.56945 0.0
O346 O 0.40468 0.02998 0.5077 0.0
O347 O 0.39174 0.01099 0.51388 0.0
C348 C 0.38961 0.0218 0.62135 0.0
C349 C 0.39917 0.01889 0.49423 0.0
C350 C 0.72926 0.64376 0.3785 0.0
C351 C 0.73332 0.65245 0.25109 0.0
O352 O 0.73794 0.63916 0.35576 0.0
Zn353 Zn 0.73037 0.64766 0.31374 0.0
O354 O 0.71894 0.65122 0.36768 0.0
Zn355 Zn 0.71172 0.65871 0.31611 0.0
O356 O 0.69423 0.6495 0.30683 0.0
O357 O 0.71222 0.63551 0.29926 0.0
O358 O 0.72207 0.65789 0.26373 0.0
O359 O 0.74131 0.64546 0.27161 0.0
O360 O 0.73235 0.67019 0.32184 0.0
O361 O 0.71084 0.67847 0.32342 0.0
C362 C 0.69903 0.63769 0.29745 0.0
C363 C 0.72393 0.68061 0.32447 0.0
C364 C 0.11538 0.95278 0.04495 0.0
C365 C 0.07212 0.97633 0.07598 0.0
O366 O 0.10404 0.94762 0.05659 0.0
Zn367 Zn 0.09435 0.9648 0.06563 0.0
O368 O 0.11703 0.9661 0.04523 0.0
Zn369 Zn 0.10432 0.98401 0.05981 0.0
O370 O 0.11304 0.99279 0.09993 0.0
O371 O 0.10298 0.97294 0.11497 0.0
O372 O 0.08211 0.98507 0.07094 0.0
O373 O 0.07475 0.96332 0.07607 0.0
O374 O 0.09372 0.97425 0.01219 0.0
O375 O 0.10481 0.99448 0.01645 0.0
C376 C 0.10982 0.98395 0.12386 0.0
C377 C 0.09807 0.98565 -0.00226 0.0
C378 C 0.76855 0.35969 0.87905 0.0
C379 C 0.76527 0.35074 0.75164 0.0
O380 O 0.75969 0.36389 0.8562 0.0
Zn381 Zn 0.76776 0.35574 0.81439 0.0
O382 O 0.77921 0.35268 0.8684 0.0
Zn383 Zn 0.78689 0.34542 0.81709 0.0
O384 O 0.80398 0.35543 0.80818 0.0
O385 O 0.78542 0.3687 0.80094 0.0
O386 O 0.77668 0.34578 0.76466 0.0
O387 O 0.75695 0.35745 0.77183 0.0
O388 O 0.76671 0.3332 0.82293 0.0
O389 O 0.78849 0.32567 0.82469 0.0
C390 C 0.7987 0.3671 0.79935 0.0
C391 C 0.77548 0.32308 0.82581 0.0
C392 C 0.40057 0.98432 0.12123 0.0
C393 C 0.39127 0.98237 0.99388 0.0
O394 O 0.39346 0.99252 0.10157 0.0
Zn395 Zn 0.39539 0.98212 0.05868 0.0
O396 O 0.4059 0.97318 0.10753 0.0
Zn397 Zn 0.4063 0.96356 0.05383 0.0
O398 O 0.42601 0.96269 0.04562 0.0
O399 O 0.41786 0.98419 0.05009 0.0
O400 O 0.3985 0.97164 0.00311 0.0
O401 O 0.38696 0.99066 0.01792 0.0
O402 O 0.38325 0.96371 0.07209 0.0
O403 O 0.39722 0.94592 0.06161 0.0
C404 C 0.42821 0.97578 0.04606 0.0
C405 C 0.3855 0.95048 0.07233 0.0
C406 C 0.76651 0.65124 0.87629 0.0
C407 C 0.77015 0.64274 0.74872 0.0
O408 O 0.75856 0.6441 0.85604 0.0
Zn409 Zn 0.76931 0.64643 0.81358 0.0
O410 O 0.77764 0.65681 0.86334 0.0
Zn411 Zn 0.78779 0.65774 0.81082 0.0
O412 O 0.78841 0.67751 0.80349 0.0
O413 O 0.76701 0.66896 0.80535 0.0
O414 O 0.78041 0.6503 0.75939 0.0
O415 O 0.76164 0.63793 0.77164 0.0
O416 O 0.78767 0.63443 0.82729 0.0
O417 O 0.80541 0.64871 0.81945 0.0
C418 C 0.7753 0.67949 0.80253 0.0
C419 C 0.80085 0.63679 0.82868 0.0
C420 C 0.09723 0.01587 0.62296 0.0
C421 C 0.10885 0.01904 0.49724 0.0
O422 O 0.10411 0.00744 0.60344 0.0
Zn423 Zn 0.10337 0.01843 0.56123 0.0
O424 O 0.09265 0.0274 0.60963 0.0
Zn425 Zn 0.09306 0.03742 0.55659 0.0
O426 O 0.07343 0.03871 0.54649 0.0
O427 O 0.08113 0.01703 0.55015 0.0
O428 O 0.1017 0.02981 0.50647 0.0
O429 O 0.11235 0.01023 0.52096 0.0
O430 O 0.11575 0.0364 0.57716 0.0
O431 O 0.10244 0.05471 0.56656 0.0
C432 C 0.071 0.02566 0.54579 0.0
C433 C 0.11386 0.04968 0.57809 0.0
C434 C 0.6987 0.36446 0.33088 0.0
C435 C 0.72357 0.32164 0.30216 0.0
O436 O 0.69388 0.35265 0.32156 0.0
Zn437 Zn 0.71134 0.34346 0.31176 0.0
O438 O 0.71189 0.36663 0.32889 0.0
Zn439 Zn 0.73001 0.35454 0.31402 0.0
O440 O 0.73744 0.36323 0.27213 0.0
O441 O 0.7184 0.3512 0.26032 0.0
O442 O 0.73197 0.33208 0.30494 0.0
O443 O 0.71049 0.32372 0.30378 0.0
O444 O 0.72185 0.34405 0.36386 0.0
O445 O 0.74104 0.35654 0.35609 0.0
C446 C 0.72867 0.35872 0.24947 0.0
C447 C 0.73313 0.34943 0.37649 0.0
C448 C 0.96263 0.54247 0.09071 0.0
C449 C 0.95308 0.53179 0.08212 0.0
C450 C 0.97702 0.53988 0.09023 0.0
C451 C 0.00247 0.51717 0.04642 0.0
H452 H 0.02794 0.52778 0.12277 0.0
C453 C 0.05737 0.49421 0.05535 0.0
C454 C 0.06854 0.50244 0.06775 0.0
C455 C 0.04374 0.49923 0.05616 0.0
C456 C 0.02101 0.52498 0.10091 0.0
H457 H 0.95116 0.50993 0.06741 0.0
H458 H 0.97622 0.50548 0.06631 0.0
H459 H 0.00309 0.53358 0.12771 0.0
H460 H 0.07409 0.52259 0.09027 0.0
H461 H 0.05007 0.53154 0.09119 0.0
H462 H 0.0202 0.50868 0.01937 0.0
C463 C 0.97257 0.51585 0.07326 0.0
C464 C 0.00678 0.52824 0.10386 0.0
C465 C 0.95821 0.51839 0.07414 0.0
C466 C 0.06572 0.516 0.08046 0.0
C467 C 0.05197 0.52108 0.08123 0.0
C468 C 0.01664 0.51405 0.0433 0.0
C469 C 0.98213 0.52662 0.0807 0.0
C470 C 0.99734 0.52407 0.07698 0.0
C471 C 0.04081 0.5127 0.06918 0.0
C472 C 0.02606 0.5176 0.07087 0.0
H473 H 0.95902 0.55291 0.09706 0.0
H474 H 0.98416 0.54837 0.09604 0.0
H475 H 0.99548 0.51413 0.02489 0.0
H476 H 0.05909 0.48369 0.04549 0.0
H477 H 0.03542 0.49236 0.04735 0.0
C478 C 0.75516 0.8043 0.295 0.0
C479 C 0.76953 0.80717 0.29251 0.0
C480 C 0.75039 0.79051 0.29718 0.0
C481 C 0.76215 0.75536 0.32429 0.0
H482 H 0.72821 0.74323 0.2768 0.0
C483 C 0.74382 0.69764 0.3223 0.0
C484 C 0.72941 0.69509 0.3253 0.0
C485 C 0.74887 0.71131 0.31914 0.0
C486 C 0.73761 0.7465 0.29061 0.0
H487 H 0.7901 0.79776 0.28893 0.0
H488 H 0.78174 0.77372 0.29224 0.0
H489 H 0.73677 0.76694 0.26722 0.0
H490 H 0.70905 0.70496 0.32872 0.0
H491 H 0.71787 0.72877 0.32372 0.0
H492 H 0.76297 0.73492 0.34773 0.0
C493 C 0.77419 0.78214 0.29315 0.0
C494 C 0.74254 0.76009 0.28503 0.0
C495 C 0.77897 0.79593 0.29094 0.0
C496 C 0.72021 0.70654 0.3263 0.0
C497 C 0.72525 0.72019 0.32313 0.0
C498 C 0.75722 0.74177 0.32986 0.0
C499 C 0.75986 0.77928 0.29691 0.0
C500 C 0.75485 0.76469 0.30187 0.0
C501 C 0.73962 0.72273 0.31889 0.0
C502 C 0.74487 0.7372 0.31318 0.0
H503 H 0.7476 0.8127 0.29638 0.0
H504 H 0.73929 0.78869 0.30036 0.0
H505 H 0.77153 0.75865 0.33816 0.0
H506 H 0.75121 0.68907 0.32133 0.0
H507 H 0.75999 0.71289 0.31567 0.0
C508 C 0.45333 0.53035 0.54388 0.0
C509 C 0.44211 0.52089 0.54559 0.0
C510 C 0.46709 0.5256 0.54679 0.0
C511 C 0.48929 0.49399 0.54096 0.0
H512 H 0.51392 0.51498 0.60372 0.0
C513 C 0.54322 0.47272 0.58251 0.0
C514 C 0.55443 0.4822 0.58119 0.0
C515 C 0.52946 0.47745 0.57963 0.0
C516 C 0.50722 0.50907 0.58586 0.0
H517 H 0.4366 0.49896 0.55034 0.0
H518 H 0.46058 0.49071 0.55548 0.0
H519 H 0.49018 0.52327 0.5932 0.0
H520 H 0.55989 0.50417 0.57714 0.0
H521 H 0.53591 0.51239 0.57196 0.0
H522 H 0.50632 0.4798 0.53356 0.0
C523 C 0.45875 0.50179 0.55171 0.0
C524 C 0.49362 0.51384 0.57974 0.0
C525 C 0.44499 0.50653 0.54885 0.0
C526 C 0.55151 0.49657 0.57834 0.0
C527 C 0.53775 0.5013 0.57546 0.0
C528 C 0.50288 0.48923 0.54705 0.0
C529 C 0.46995 0.5113 0.5514 0.0
C530 C 0.4845 0.50636 0.55721 0.0
C531 C 0.52657 0.49177 0.57539 0.0
C532 C 0.51201 0.49671 0.5696 0.0
H533 H 0.45149 0.54148 0.54128 0.0
H534 H 0.47549 0.53317 0.54582 0.0
H535 H 0.48258 0.48808 0.52311 0.0
H536 H 0.54509 0.46158 0.58481 0.0
H537 H 0.52107 0.46985 0.58035 0.0
C538 C 0.72128 0.20756 0.79795 0.0
C539 C 0.73045 0.19609 0.7993 0.0
C540 C 0.72636 0.22121 0.80054 0.0
C541 C 0.75829 0.24272 0.79228 0.0
H542 H 0.73806 0.26822 0.85438 0.0
C543 C 0.77998 0.29725 0.82848 0.0
C544 C 0.77046 0.30844 0.82739 0.0
C545 C 0.77528 0.28343 0.8265 0.0
C546 C 0.74376 0.26128 0.83668 0.0
H547 H 0.75223 0.19002 0.80329 0.0
H548 H 0.76109 0.21386 0.80789 0.0
H549 H 0.72953 0.24444 0.84611 0.0
H550 H 0.74848 0.31383 0.82432 0.0
H551 H 0.7403 0.28977 0.82066 0.0
H552 H 0.7725 0.25959 0.78274 0.0
C553 C 0.74997 0.21229 0.80463 0.0
C554 C 0.73886 0.24765 0.83188 0.0
C555 C 0.74487 0.19861 0.80209 0.0
C556 C 0.7561 0.30547 0.82534 0.0
C557 C 0.7514 0.29166 0.82337 0.0
C558 C 0.76319 0.25637 0.79705 0.0
C559 C 0.74074 0.22373 0.8045 0.0
C560 C 0.74603 0.23822 0.80952 0.0
C561 C 0.76094 0.28048 0.82342 0.0
C562 C 0.75596 0.26583 0.81922 0.0
H563 H 0.71011 0.206 0.79566 0.0
H564 H 0.71901 0.22981 0.79967 0.0
H565 H 0.76397 0.23577 0.77457 0.0
H566 H 0.79111 0.29916 0.83014 0.0
H567 H 0.78289 0.27506 0.82721 0.0
C568 C 0.0562 0.49024 0.55584 0.0
C569 C 0.06031 0.5043 0.55885 0.0
C570 C 0.04202 0.48671 0.55436 0.0
C571 C 0.00782 0.50212 0.53125 0.0
H572 H 0.99266 0.46998 0.58132 0.0
C573 C 0.94859 0.49257 0.54691 0.0
C574 C 0.94376 0.47873 0.54452 0.0
C575 C 0.9629 0.49543 0.54675 0.0
C576 C 0.99677 0.47889 0.56678 0.0
H577 H 0.05277 0.5256 0.56424 0.0
H578 H 0.02817 0.51943 0.56221 0.0
H579 H 0.01751 0.4753 0.58632 0.0
H580 H 0.95019 0.45707 0.53881 0.0
H581 H 0.97512 0.4621 0.5381 0.0
H582 H 0.9871 0.50577 0.51185 0.0
C583 C 0.03585 0.51116 0.56017 0.0
C584 C 0.01101 0.48194 0.56969 0.0
C585 C 0.04997 0.51468 0.5616 0.0
C586 C 0.95355 0.46786 0.54086 0.0
C587 C 0.96785 0.47072 0.54072 0.0
C588 C 0.99361 0.49908 0.52834 0.0
C589 C 0.03171 0.49717 0.55587 0.0
C590 C 0.01667 0.49365 0.55218 0.0
C591 C 0.97269 0.48452 0.54419 0.0
C592 C 0.9879 0.48748 0.54623 0.0
H593 H 0.06391 0.48201 0.55355 0.0
H594 H 0.03916 0.47584 0.55088 0.0
H595 H 0.01191 0.51107 0.51684 0.0
H596 H 0.94133 0.50118 0.54987 0.0
H597 H 0.9663 0.50617 0.54977 0.0
C598 C 0.7552 0.69634 0.80363 0.0
C599 C 0.76964 0.69391 0.80106 0.0
C600 C 0.74999 0.70999 0.80556 0.0
C601 C 0.75939 0.74699 0.78834 0.0
H602 H 0.73033 0.75487 0.85807 0.0
C603 C 0.74432 0.80339 0.8249 0.0
C604 C 0.72998 0.80647 0.82697 0.0
C605 C 0.74891 0.78955 0.82289 0.0
C606 C 0.73835 0.75282 0.83824 0.0
H607 H 0.78992 0.70396 0.7976 0.0
H608 H 0.78086 0.72769 0.80115 0.0
H609 H 0.7386 0.73092 0.85024 0.0
H610 H 0.70927 0.79736 0.8299 0.0
H611 H 0.71731 0.77319 0.82632 0.0
H612 H 0.7592 0.76887 0.77643 0.0
C613 C 0.77352 0.71907 0.80136 0.0
C614 C 0.74307 0.73909 0.83367 0.0
C615 C 0.77872 0.70544 0.79947 0.0
C616 C 0.72038 0.79536 0.82839 0.0
C617 C 0.72499 0.78149 0.82641 0.0
C618 C 0.75469 0.7607 0.79293 0.0
C619 C 0.75911 0.72151 0.80488 0.0
C620 C 0.7537 0.73602 0.80878 0.0
C621 C 0.7393 0.77845 0.82292 0.0
C622 C 0.74418 0.7638 0.81808 0.0
H623 H 0.7479 0.6877 0.80488 0.0
H624 H 0.73881 0.71151 0.80772 0.0
H625 H 0.76742 0.74496 0.76852 0.0
H626 H 0.75201 0.81168 0.82392 0.0
H627 H 0.76002 0.78755 0.82095 0.0
C628 C 0.54341 0.53046 0.04535 0.0
C629 C 0.55449 0.52085 0.04757 0.0
C630 C 0.52956 0.52591 0.04799 0.0
C631 C 0.50879 0.49678 0.08471 0.0
H632 H 0.47899 0.51242 0.02668 0.0
C633 C 0.4531 0.47357 0.08148 0.0
C634 C 0.44178 0.48288 0.07901 0.0
C635 C 0.46682 0.47848 0.07924 0.0
C636 C 0.48716 0.50809 0.04345 0.0
H637 H 0.55967 0.49885 0.05274 0.0
H638 H 0.53556 0.49093 0.05683 0.0
H639 H 0.50295 0.52026 0.01732 0.0
H640 H 0.43602 0.50473 0.07365 0.0
H641 H 0.45997 0.5133 0.07025 0.0
H642 H 0.49302 0.4846 0.11083 0.0
C643 C 0.53757 0.50201 0.05375 0.0
C644 C 0.5009 0.51256 0.038 0.0
C645 C 0.5514 0.50655 0.05109 0.0
C646 C 0.4445 0.49727 0.07555 0.0
C647 C 0.45822 0.50217 0.07329 0.0
C648 C 0.49506 0.49232 0.09017 0.0
C649 C 0.5265 0.51166 0.05293 0.0
C650 C 0.51188 0.50691 0.05848 0.0
C651 C 0.46954 0.49281 0.07449 0.0
C652 C 0.48408 0.49789 0.06954 0.0
H653 H 0.54542 0.54156 0.04272 0.0
H654 H 0.52129 0.53363 0.04746 0.0
H655 H 0.51696 0.49242 0.10143 0.0
H656 H 0.45139 0.46242 0.08406 0.0
H657 H 0.47528 0.47097 0.07997 0.0
C658 C 0.71999 0.29569 0.29937 0.0
C659 C 0.72913 0.3072 0.3002 0.0
C660 C 0.72518 0.28205 0.30117 0.0
C661 C 0.7559 0.26224 0.33248 0.0
H662 H 0.73976 0.23211 0.27651 0.0
C663 C 0.78013 0.20691 0.32596 0.0
C664 C 0.77099 0.19541 0.32521 0.0
C665 C 0.77496 0.22055 0.32406 0.0
C666 C 0.74426 0.24038 0.29268 0.0
H667 H 0.75092 0.31335 0.30234 0.0
H668 H 0.75996 0.28953 0.305 0.0
H669 H 0.73106 0.25589 0.26881 0.0
H670 H 0.74919 0.18928 0.32308 0.0
H671 H 0.74017 0.2131 0.32023 0.0
H672 H 0.76909 0.24673 0.35635 0.0
C673 C 0.74877 0.29108 0.30357 0.0
C674 C 0.7393 0.25401 0.2882 0.0
C675 C 0.74359 0.30473 0.30174 0.0
C676 C 0.75653 0.19789 0.32362 0.0
C677 C 0.75136 0.21154 0.32168 0.0
C678 C 0.76086 0.2486 0.33696 0.0
C679 C 0.73961 0.27958 0.30385 0.0
C680 C 0.74506 0.26511 0.30804 0.0
C681 C 0.76053 0.22303 0.32135 0.0
C682 C 0.7551 0.23751 0.31713 0.0
H683 H 0.70879 0.29721 0.29828 0.0
H684 H 0.71783 0.27344 0.30163 0.0
H685 H 0.7604 0.2705 0.34866 0.0
H686 H 0.79133 0.20538 0.32709 0.0
H687 H 0.78232 0.22915 0.32357 0.0
C688 C 0.25656 0.30333 0.791 0.0
C689 C 0.27101 0.30586 0.78933 0.0
C690 C 0.25146 0.28971 0.79436 0.0
C691 C 0.26096 0.25238 0.78439 0.0
H692 H 0.23144 0.24673 0.85427 0.0
C693 C 0.24358 0.19717 0.82791 0.0
C694 C 0.22911 0.19482 0.83025 0.0
C695 C 0.24882 0.21073 0.82407 0.0
C696 C 0.23959 0.24813 0.83442 0.0
H697 H 0.2914 0.29597 0.78842 0.0
H698 H 0.28249 0.27221 0.79438 0.0
H699 H 0.24014 0.27025 0.84283 0.0
H700 H 0.20884 0.20495 0.83151 0.0
H701 H 0.21798 0.22857 0.82466 0.0
H702 H 0.26039 0.23025 0.77596 0.0
C703 C 0.2751 0.28076 0.79291 0.0
C704 C 0.24456 0.26163 0.82779 0.0
C705 C 0.28021 0.2944 0.78957 0.0
C706 C 0.22004 0.20638 0.82989 0.0
C707 C 0.22529 0.21994 0.82605 0.0
C708 C 0.25598 0.23888 0.791 0.0
C709 C 0.26067 0.27828 0.79611 0.0
C710 C 0.25529 0.26392 0.80265 0.0
C711 C 0.23972 0.22226 0.8225 0.0
C712 C 0.24522 0.23659 0.81608 0.0
H713 H 0.24916 0.3119 0.79074 0.0
H714 H 0.24028 0.28813 0.79606 0.0
H715 H 0.26912 0.2538 0.76457 0.0
H716 H 0.25087 0.18852 0.8282 0.0
H717 H 0.26001 0.21218 0.82205 0.0
C718 C 0.25605 0.79841 0.31922 0.0
C719 C 0.27053 0.80085 0.31972 0.0
C720 C 0.2508 0.78475 0.3184 0.0
C721 C 0.2606 0.74778 0.33528 0.0
H722 H 0.22987 0.73959 0.27067 0.0
C723 C 0.24496 0.69119 0.30189 0.0
C724 C 0.23063 0.68798 0.3017 0.0
C725 C 0.24949 0.70507 0.30334 0.0
C726 C 0.23836 0.74173 0.28911 0.0
H727 H 0.29084 0.79079 0.32053 0.0
H728 H 0.28171 0.76705 0.31888 0.0
H729 H 0.23828 0.76358 0.27651 0.0
H730 H 0.20982 0.69694 0.30172 0.0
H731 H 0.21773 0.72119 0.30432 0.0
H732 H 0.26075 0.72594 0.34776 0.0
C733 C 0.27438 0.77567 0.31948 0.0
C734 C 0.24317 0.75549 0.29253 0.0
C735 C 0.27962 0.78931 0.32028 0.0
C736 C 0.22093 0.69903 0.30175 0.0
C737 C 0.22547 0.71294 0.30317 0.0
C738 C 0.25582 0.73404 0.33183 0.0
C739 C 0.25991 0.77321 0.31811 0.0
C740 C 0.25441 0.75867 0.31551 0.0
C741 C 0.23981 0.71611 0.30463 0.0
C742 C 0.2447 0.73081 0.30852 0.0
H743 H 0.24873 0.80705 0.31881 0.0
H744 H 0.23959 0.78323 0.3179 0.0
H745 H 0.26911 0.74988 0.35369 0.0
H746 H 0.25274 0.68297 0.3017 0.0
H747 H 0.2606 0.70714 0.30371 0.0
C748 C 0.27691 0.2169 0.30418 0.0
C749 C 0.26775 0.20542 0.30545 0.0
C750 C 0.27176 0.23058 0.3044 0.0
C751 C 0.2408 0.25143 0.33025 0.0
H752 H 0.25913 0.28016 0.27385 0.0
C753 C 0.22121 0.30919 0.32074 0.0
C754 C 0.2316 0.31959 0.32115 0.0
C755 C 0.22487 0.29499 0.31913 0.0
C756 C 0.25397 0.27229 0.29003 0.0
H757 H 0.24592 0.19939 0.30724 0.0
H758 H 0.23693 0.2233 0.30715 0.0
H759 H 0.26676 0.25597 0.26859 0.0
H760 H 0.254 0.32313 0.32177 0.0
H761 H 0.2603 0.29855 0.31933 0.0
H762 H 0.22802 0.26786 0.35168 0.0
C763 C 0.24812 0.22169 0.30649 0.0
C764 C 0.25834 0.2584 0.28701 0.0
C765 C 0.25328 0.20798 0.30625 0.0
C766 C 0.24569 0.31544 0.32121 0.0
C767 C 0.24933 0.30132 0.31953 0.0
C768 C 0.23639 0.26536 0.3332 0.0
C769 C 0.25731 0.23317 0.30585 0.0
C770 C 0.25197 0.24781 0.30743 0.0
C771 C 0.23899 0.29093 0.31776 0.0
C772 C 0.24307 0.27598 0.31352 0.0
H773 H 0.28811 0.21535 0.30372 0.0
H774 H 0.27917 0.23913 0.30439 0.0
H775 H 0.23574 0.24357 0.34666 0.0
H776 H 0.21025 0.31201 0.32059 0.0
H777 H 0.21665 0.28724 0.31773 0.0
C778 C 0.27971 0.70676 0.83529 0.0
C779 C 0.27025 0.69553 0.83363 0.0
C780 C 0.27498 0.72055 0.83241 0.0
C781 C 0.24332 0.74274 0.83823 0.0
H782 H 0.26423 0.7675 0.77559 0.0
C783 C 0.22142 0.79615 0.79405 0.0
C784 C 0.23066 0.80756 0.79501 0.0
C785 C 0.22639 0.78249 0.79795 0.0
C786 C 0.25835 0.76077 0.79344 0.0
H787 H 0.24833 0.69005 0.82894 0.0
H788 H 0.24012 0.71406 0.8238 0.0
H789 H 0.27268 0.74382 0.78646 0.0
H790 H 0.25246 0.81351 0.7997 0.0
H791 H 0.2611 0.78969 0.80662 0.0
H792 H 0.22897 0.75967 0.84514 0.0
C793 C 0.25119 0.71223 0.82756 0.0
C794 C 0.26321 0.7472 0.79976 0.0
C795 C 0.25591 0.69844 0.8304 0.0
C796 C 0.24504 0.80496 0.79873 0.0
C797 C 0.25001 0.79129 0.80262 0.0
C798 C 0.23846 0.7563 0.83191 0.0
C799 C 0.26069 0.72343 0.82789 0.0
C800 C 0.25574 0.73801 0.82217 0.0
C801 C 0.24072 0.77992 0.80288 0.0
C802 C 0.24589 0.76546 0.80935 0.0
H803 H 0.29082 0.7049 0.83786 0.0
H804 H 0.28255 0.72896 0.83338 0.0
H805 H 0.23742 0.736 0.85602 0.0
H806 H 0.21028 0.79777 0.7911 0.0
H807 H 0.21897 0.77394 0.79736 0.0
C808 C 0.44331 0.00696 0.57003 0.0
C809 C 0.44102 0.02146 0.57203 0.0
C810 C 0.45689 0.00158 0.56886 0.0
C811 C 0.49388 0.0107 0.58701 0.0
H812 H 0.5017 0.98089 0.51926 0.0
C813 C 0.55017 0.99447 0.55239 0.0
C814 C 0.55304 0.98006 0.55108 0.0
C815 C 0.53642 0.99929 0.55419 0.0
C816 C 0.49967 0.98912 0.53855 0.0
H817 H 0.45126 0.04166 0.57523 0.0
H818 H 0.47488 0.03231 0.57291 0.0
H819 H 0.47787 0.98957 0.52576 0.0
H820 H 0.54363 0.95943 0.54947 0.0
H821 H 0.51961 0.96787 0.55264 0.0
H822 H 0.51568 0.01032 0.59964 0.0
C823 C 0.4662 0.02506 0.57261 0.0
C824 C 0.486 0.99408 0.54236 0.0
C825 C 0.45263 0.03043 0.57379 0.0
C826 C 0.5418 0.9706 0.5504 0.0
C827 C 0.52802 0.97543 0.55212 0.0
C828 C 0.50754 0.00577 0.58315 0.0
C829 C 0.4685 0.01058 0.56968 0.0
C830 C 0.48295 0.00497 0.56653 0.0
C831 C 0.52518 0.98983 0.55465 0.0
C832 C 0.51061 0.99497 0.55875 0.0
H833 H 0.4346 0.99974 0.5687 0.0
H834 H 0.45829 0.99036 0.56717 0.0
H835 H 0.49188 0.01893 0.6063 0.0
H836 H 0.55857 0.00206 0.55283 0.0
H837 H 0.53458 0.01045 0.55545 0.0
C838 C 0.95644 0.0298 0.04261 0.0
C839 C 0.94522 0.02035 0.04415 0.0
C840 C 0.9702 0.02502 0.04539 0.0
C841 C 0.99231 0.99333 0.03886 0.0
H842 H 0.01709 0.0141 0.10168 0.0
C843 C 0.04633 0.97189 0.07946 0.0
C844 C 0.05752 0.98139 0.07793 0.0
C845 C 0.03255 0.97662 0.07689 0.0
C846 C 0.01034 0.00825 0.08381 0.0
H847 H 0.93969 0.9984 0.04847 0.0
H848 H 0.96364 0.99011 0.05341 0.0
H849 H 0.99338 0.0225 0.09148 0.0
H850 H 0.06295 0.00337 0.07384 0.0
H851 H 0.03895 0.01157 0.06922 0.0
H852 H 0.00928 0.97909 0.03116 0.0
C853 C 0.96183 1.0012 0.04986 0.0
C854 C 0.99676 0.01308 0.07787 0.0
C855 C 0.94808 0.00598 0.04713 0.0
C856 C 0.05459 0.99576 0.07517 0.0
C857 C 0.04081 1.00048 0.07263 0.0
C858 C 0.00589 0.9885 0.04479 0.0
C859 C 0.97304 0.01069 0.04969 0.0
C860 C 0.98758 0.00568 0.0553 0.0
C861 C 0.02964 0.99095 0.07279 0.0
C862 C 0.01507 0.9959 0.06733 0.0
H863 H 0.95461 0.04094 0.04024 0.0
H864 H 0.97862 0.03257 0.04453 0.0
H865 H 0.98556 0.98748 0.02099 0.0
H866 H 0.04822 0.96076 0.08167 0.0
H867 H 0.02416 0.96903 0.07773 0.0
C868 C 0.54299 0.03136 0.07985 0.0
C869 C 0.55441 0.02215 0.07815 0.0
C870 C 0.52933 0.02632 0.07717 0.0
C871 C 0.50785 0.9942 0.08369 0.0
H872 H 0.48232 0.01493 0.02267 0.0
C873 C 0.45411 0.97202 0.0433 0.0
C874 C 0.44269 0.98124 0.0452 0.0
C875 C 0.46777 0.97702 0.04622 0.0
C876 C 0.48927 0.00909 0.04006 0.0
H877 H 0.56039 1.00034 0.07343 0.0
H878 H 0.53657 0.99157 0.06857 0.0
H879 H 0.50598 0.02361 0.03203 0.0
H880 H 0.43675 0.00303 0.05058 0.0
H881 H 0.46058 0.01174 0.05577 0.0
H882 H 0.49114 0.97967 0.09167 0.0
C883 C 0.53817 0.00269 0.07225 0.0
C884 C 0.50283 0.01408 0.04551 0.0
C885 C 0.55184 0.00773 0.07495 0.0
C886 C 0.44529 0.99564 0.04891 0.0
C887 C 0.45896 1.00064 0.05179 0.0
C888 C 0.49429 0.98921 0.07822 0.0
C889 C 0.52676 0.01195 0.07271 0.0
C890 C 0.51228 0.00671 0.06742 0.0
C891 C 0.47036 0.99137 0.05105 0.0
C892 C 0.48484 0.99659 0.05634 0.0
H893 H 0.54458 0.04252 0.08246 0.0
H894 H 0.52077 0.03371 0.07831 0.0
H895 H 0.5148 0.98836 0.10109 0.0
H896 H 0.4525 0.96087 0.04034 0.0
H897 H 0.47633 0.96963 0.04492 0.0
C898 C 0.04514 0.02981 0.54295 0.0
C899 C 0.05645 0.02043 0.54381 0.0
C900 C 0.03142 0.02492 0.54551 0.0
C901 C 0.01134 0.99475 0.57943 0.0
H902 H 0.98097 0.01127 0.52511 0.0
C903 C 0.95536 0.97181 0.57765 0.0
C904 C 0.94413 0.98127 0.57704 0.0
C905 C 0.96912 0.97661 0.57492 0.0
C906 C 0.98931 0.00666 0.54083 0.0
H907 H 0.06213 0.99848 0.54651 0.0
H908 H 0.03819 0.98997 0.55042 0.0
H909 H 0.00479 0.0194 0.51531 0.0
H910 H 0.9386 0.00326 0.5746 0.0
H911 H 0.96257 0.01161 0.57035 0.0
H912 H 0.99584 0.98202 0.60495 0.0
C913 C 0.03996 1.00113 0.54847 0.0
C914 C 0.00297 0.01131 0.53514 0.0
C915 C 0.05368 0.00601 0.5459 0.0
C916 C 0.94699 0.99567 0.57502 0.0
C917 C 0.96074 1.00046 0.57226 0.0
C918 C 0.99767 0.99011 0.58511 0.0
C919 C 0.02867 0.01053 0.54898 0.0
C920 C 0.01416 0.00541 0.55438 0.0
C921 C 0.97195 0.99098 0.5715 0.0
C922 C 0.98649 0.99602 0.56592 0.0
H923 H 0.0469 0.04098 0.54146 0.0
H924 H 0.02299 0.03246 0.54608 0.0
H925 H 0.01967 0.99016 0.59519 0.0
H926 H 0.95354 0.96065 0.57909 0.0
H927 H 0.9775 0.96901 0.57418 0.0
C928 C 0.10844 0.49161 0.94435 0.0
C929 C 0.10779 0.47781 0.95726 0.0
C930 C 0.10937 0.49434 0.90749 0.0
C931 C 0.10398 0.47745 0.81796 0.0
H932 H 0.1238 0.51019 0.78349 0.0
C933 C 0.11576 0.4867 0.66767 0.0
C934 C 0.1119 0.49982 0.65367 0.0
C935 C 0.1158 0.48429 0.70473 0.0
C936 C 0.11816 0.50106 0.79279 0.0
H937 H 0.10795 0.45601 0.94147 0.0
H938 H 0.11018 0.4607 0.87727 0.0
H939 H 0.12328 0.50509 0.84776 0.0
H940 H 0.10547 0.52083 0.66792 0.0
H941 H 0.10587 0.51668 0.733 0.0
H942 H 0.09926 0.47327 0.76267 0.0
C943 C 0.10952 0.46949 0.89549 0.0
C944 C 0.11779 0.49813 0.82969 0.0
C945 C 0.10835 0.46677 0.9324 0.0
C946 C 0.1085 0.51062 0.67779 0.0
C947 C 0.10875 0.50826 0.71503 0.0
C948 C 0.10456 0.48026 0.78107 0.0
C949 C 0.10991 0.48333 0.88241 0.0
C950 C 0.11063 0.4863 0.8429 0.0
C951 C 0.11217 0.49499 0.72881 0.0
C952 C 0.11161 0.49211 0.76808 0.0
H953 H 0.10789 0.50038 0.96271 0.0
H954 H 0.10936 0.50513 0.89872 0.0
H955 H 0.09809 0.46843 0.82686 0.0
H956 H 0.11842 0.47812 0.64995 0.0
H957 H 0.11861 0.47401 0.71459 0.0
C958 C 0.75044 0.86556 0.91959 0.0
C959 C 0.7367 0.86195 0.90985 0.0
C960 C 0.75409 0.86715 0.95565 0.0
C961 C 0.74123 0.87476 0.04513 0.0
H962 H 0.77112 0.85062 0.07834 0.0
C963 C 0.75176 0.86562 0.19565 0.0
C964 C 0.76536 0.86242 0.20721 0.0
C965 C 0.74878 0.86714 0.15916 0.0
C966 C 0.76297 0.85769 0.06955 0.0
H967 H 0.7159 0.85779 0.9302 0.0
H968 H 0.72228 0.86096 0.99356 0.0
H969 H 0.76472 0.8507 0.01504 0.0
H970 H 0.78666 0.85899 0.18975 0.0
H971 H 0.78164 0.86229 0.126 0.0
H972 H 0.73964 0.88207 0.09925 0.0
C973 C 0.73018 0.86239 0.97305 0.0
C974 C 0.75925 0.85762 0.03328 0.0
C975 C 0.72656 0.86054 0.9369 0.0
C976 C 0.77606 0.86133 0.18159 0.0
C977 C 0.77313 0.86312 0.14502 0.0
C978 C 0.74513 0.87504 0.08135 0.0
C979 C 0.74404 0.86543 0.98268 0.0
C980 C 0.74824 0.86603 0.02087 0.0
C981 C 0.75939 0.86576 0.13324 0.0
C982 C 0.75593 0.86635 0.09418 0.0
H983 H 0.75852 0.8667 0.89943 0.0
H984 H 0.76482 0.86957 0.96247 0.0
H985 H 0.7328 0.88143 0.03602 0.0
H986 H 0.74325 0.86641 0.21472 0.0
H987 H 0.73804 0.86889 0.15132 0.0
C988 C 0.38763 0.47599 0.18965 0.0
C989 C 0.38651 0.48657 0.16368 0.0
C990 C 0.3859 0.47909 0.22613 0.0
C991 C 0.37413 0.50744 0.28897 0.0
H992 H 0.39829 0.48788 0.35584 0.0
C993 C 0.38857 0.52595 0.43377 0.0
C994 C 0.38679 0.5158 0.46073 0.0
C995 C 0.38683 0.5224 0.39754 0.0
C996 C 0.39143 0.49336 0.33743 0.0
H997 H 0.38252 0.50867 0.15543 0.0
H998 H 0.38014 0.5142 0.21868 0.0
H999 H 0.39842 0.48133 0.29265 0.0
H1000 H 0.38149 0.49407 0.47087 0.0
H1001 H 0.37881 0.48788 0.40771 0.0
H1002 H 0.36775 0.51992 0.33406 0.0
C1003 C 0.38187 0.5034 0.2112 0.0
C1004 C 0.39139 0.48954 0.30123 0.0
C1005 C 0.38333 0.50025 0.17479 0.0
C1006 C 0.38291 0.50215 0.4508 0.0
C1007 C 0.38143 0.49856 0.41468 0.0
C1008 C 0.3744 0.51144 0.32512 0.0
C1009 C 0.38329 0.49291 0.23746 0.0
C1010 C 0.38276 0.49654 0.27642 0.0
C1011 C 0.38353 0.5086 0.38776 0.0
C1012 C 0.38305 0.50442 0.34958 0.0
H1013 H 0.38997 0.46533 0.18183 0.0
H1014 H 0.38674 0.47065 0.24541 0.0
H1015 H 0.36714 0.51291 0.27094 0.0
H1016 H 0.39154 0.53655 0.44062 0.0
H1017 H 0.38854 0.53029 0.3771 0.0
C1018 C 0.74333 0.13289 0.69745 0.0
C1019 C 0.73306 0.1425 0.70834 0.0
C1020 C 0.7472 0.13187 0.66136 0.0
C1021 C 0.74864 0.12761 0.58007 0.0
H1022 H 0.75566 0.16274 0.5311 0.0
C1023 C 0.7586 0.13235 0.42718 0.0
C1024 C 0.76884 0.1419 0.41573 0.0
C1025 C 0.75493 0.13144 0.46343 0.0
C1026 C 0.75386 0.15285 0.54453 0.0
H1027 H 0.71842 0.15822 0.6897 0.0
H1028 H 0.72521 0.15644 0.62653 0.0
H1029 H 0.7469 0.1629 0.5927 0.0
H1030 H 0.78366 0.1576 0.43354 0.0
H1031 H 0.7772 0.15601 0.49698 0.0
H1032 H 0.75565 0.11758 0.53184 0.0
C1033 C 0.73033 0.14978 0.64607 0.0
C1034 C 0.74866 0.15294 0.57959 0.0
C1035 C 0.72636 0.15071 0.68217 0.0
C1036 C 0.77573 0.15014 0.44151 0.0
C1037 C 0.77196 0.14931 0.47776 0.0
C1038 C 0.75373 0.12752 0.54485 0.0
C1039 C 0.74095 0.14051 0.63542 0.0
C1040 C 0.74601 0.14033 0.59774 0.0
C1041 C 0.76135 0.14013 0.48897 0.0
C1042 C 0.75642 0.14014 0.52675 0.0
H1043 H 0.74867 0.12638 0.71695 0.0
H1044 H 0.75546 0.12469 0.65399 0.0
H1045 H 0.74665 0.11774 0.59338 0.0
H1046 H 0.75312 0.12583 0.408 0.0
H1047 H 0.74667 0.12433 0.47122 0.0
C1048 C 0.89844 0.53029 0.19116 0.0
C1049 C 0.89776 0.51994 0.16436 0.0
C1050 C 0.89616 0.5268 0.2273 0.0
C1051 C 0.89985 0.49756 0.28906 0.0
H1052 H 0.87454 0.51768 0.3517 0.0
C1053 C 0.89133 0.47948 0.43499 0.0
C1054 C 0.89009 0.48992 0.46131 0.0
C1055 C 0.89067 0.48292 0.39845 0.0
C1056 C 0.88179 0.51204 0.33476 0.0
H1057 H 0.89389 0.49789 0.15452 0.0
H1058 H 0.8902 0.49187 0.21734 0.0
H1059 H 0.87684 0.52473 0.28883 0.0
H1060 H 0.88686 0.51213 0.46992 0.0
H1061 H 0.88624 0.51818 0.40662 0.0
H1062 H 0.9053 0.48521 0.33474 0.0
C1063 C 0.89245 0.50264 0.21041 0.0
C1064 C 0.88306 0.51608 0.29873 0.0
C1065 C 0.89451 0.50614 0.17441 0.0
C1066 C 0.88777 0.5038 0.45034 0.0
C1067 C 0.88734 0.50727 0.41387 0.0
C1068 C 0.89877 0.49366 0.32512 0.0
C1069 C 0.8934 0.51289 0.23725 0.0
C1070 C 0.89207 0.50884 0.27555 0.0
C1071 C 0.889 0.49692 0.38737 0.0
C1072 C 0.88971 0.50082 0.34854 0.0
H1073 H 0.9009 0.54102 0.18428 0.0
H1074 H 0.897 0.53489 0.24758 0.0
H1075 H 0.90701 0.4919 0.27182 0.0
H1076 H 0.89301 0.46868 0.44259 0.0
H1077 H 0.89165 0.47459 0.37891 0.0
C1078 C 0.24322 0.13374 0.93513 0.0
C1079 C 0.23239 0.14258 0.92342 0.0
C1080 C 0.24739 0.13371 0.97113 0.0
C1081 C 0.24825 0.1567 0.04952 0.0
H1082 H 0.2567 0.12293 0.10304 0.0
C1083 C 0.25738 0.14032 0.20521 0.0
C1084 C 0.26703 0.15057 0.21607 0.0
C1085 C 0.25432 0.13838 0.16889 0.0
C1086 C 0.2544 0.13244 0.08836 0.0
H1087 H 0.21709 0.15791 0.94061 0.0
H1088 H 0.2244 0.15785 0.00348 0.0
H1089 H 0.24794 0.12118 0.0414 0.0
H1090 H 0.28142 0.16646 0.19725 0.0
H1091 H 0.27598 0.1631 0.13352 0.0
H1092 H 0.25456 0.16797 0.09649 0.0
C1093 C 0.22972 0.15104 0.98468 0.0
C1094 C 0.24945 0.13144 0.0531 0.0
C1095 C 0.22546 0.15098 0.94875 0.0
C1096 C 0.27395 0.15849 0.18971 0.0
C1097 C 0.27077 0.15663 0.15329 0.0
C1098 C 0.25332 0.1577 0.08462 0.0
C1099 C 0.2409 0.14261 -0.00393 0.0
C1100 C 0.2462 0.14357 0.03345 0.0
C1101 C 0.26076 0.14671 0.14261 0.0
C1102 C 0.25634 0.14559 0.10451 0.0
H1103 H 0.24876 0.12712 0.9163 0.0
H1104 H 0.25607 0.12714 0.97912 0.0
H1105 H 0.24601 0.16623 0.03484 0.0
H1106 H 0.25192 0.13401 0.22487 0.0
H1107 H 0.24649 0.13072 0.16151 0.0
C1108 C 0.6092 0.52352 0.9379 0.0
C1109 C 0.61017 0.51344 0.96528 0.0
C1110 C 0.6112 0.51971 0.90196 0.0
C1111 C 0.60603 0.49057 0.84231 0.0
H1112 H 0.63077 0.50987 0.77645 0.0
C1113 C 0.60874 0.47463 0.69319 0.0
C1114 C 0.60985 0.48555 0.66813 0.0
C1115 C 0.61081 0.4772 0.72983 0.0
C1116 C 0.62367 0.50446 0.79434 0.0
H1117 H 0.61429 0.49154 0.97655 0.0
H1118 H 0.61743 0.4849 0.91378 0.0
H1119 H 0.63036 0.51654 0.83979 0.0
H1120 H 0.61419 0.50768 0.66169 0.0
H1121 H 0.61719 0.51227 0.7252 0.0
H1122 H 0.5987 0.47899 0.79708 0.0
C1123 C 0.61524 0.49573 0.92022 0.0
C1124 C 0.62353 0.50826 0.83061 0.0
C1125 C 0.61349 0.49957 0.9561 0.0
C1126 C 0.61335 0.499 0.6803 0.0
C1127 C 0.61518 0.50162 0.71686 0.0
C1128 C 0.60596 0.48695 0.80598 0.0
C1129 C 0.61395 0.50573 0.89285 0.0
C1130 C 0.61464 0.5014 0.8548 0.0
C1131 C 0.6138 0.4908 0.74222 0.0
C1132 C 0.61469 0.49392 0.78139 0.0
H1133 H 0.60668 0.53429 0.94417 0.0
H1134 H 0.6101 0.52758 0.88119 0.0
H1135 H 0.59898 0.48522 0.86049 0.0
H1136 H 0.60615 0.46413 0.68454 0.0
H1137 H 0.60995 0.46853 0.74843 0.0
C1138 C 0.22793 0.85192 0.67613 0.0
C1139 C 0.23475 0.86018 0.70193 0.0
C1140 C 0.23221 0.85219 0.64022 0.0
C1141 C 0.25179 0.87264 0.57316 0.0
H1142 H 0.25727 0.83662 0.52733 0.0
C1143 C 0.27683 0.84716 0.43528 0.0
C1144 C 0.26994 0.8553 0.4093 0.0
C1145 C 0.27355 0.84865 0.47173 0.0
C1146 C 0.25592 0.84675 0.53989 0.0
H1147 H 0.25098 0.87571 0.70999 0.0
H1148 H 0.25834 0.87627 0.64727 0.0
H1149 H 0.2486 0.83765 0.58897 0.0
H1150 H 0.25478 0.87188 0.40125 0.0
H1151 H 0.24918 0.87452 0.46471 0.0
H1152 H 0.25909 0.88173 0.52395 0.0
C1153 C 0.24972 0.86955 0.65484 0.0
C1154 C 0.25078 0.84734 0.57498 0.0
C1155 C 0.24552 0.86919 0.69078 0.0
C1156 C 0.26023 0.86541 0.42061 0.0
C1157 C 0.25707 0.86698 0.45699 0.0
C1158 C 0.25682 0.87205 0.53792 0.0
C1159 C 0.24332 0.86083 0.62935 0.0
C1160 C 0.24861 0.86029 0.59193 0.0
C1161 C 0.26345 0.85841 0.48285 0.0
C1162 C 0.25891 0.8591 0.52091 0.0
H1163 H 0.2196 0.84486 0.68385 0.0
H1164 H 0.22696 0.8455 0.62101 0.0
H1165 H 0.25019 0.88276 0.58554 0.0
H1166 H 0.28436 0.83928 0.42739 0.0
H1167 H 0.27874 0.842 0.49118 0.0
C1168 C 0.59963 0.02645 0.19463 0.0
C1169 C 0.60793 0.01967 0.16883 0.0
C1170 C 0.60042 0.02259 0.23083 0.0
C1171 C 0.62218 0.00451 0.29808 0.0
H1172 H 0.58681 0.99722 0.34533 0.0
C1173 C 0.59902 0.97729 0.43571 0.0
C1174 C 0.60688 0.98437 0.4619 0.0
C1175 C 0.60007 0.98105 0.39948 0.0
C1176 C 0.59677 0.99911 0.3324 0.0
H1177 H 0.62407 0.00403 0.16101 0.0
H1178 H 0.62553 0.99743 0.22421 0.0
H1179 H 0.58703 0.00588 0.2836 0.0
H1180 H 0.62251 1.00046 0.47043 0.0
H1181 H 0.62442 0.0069 0.40722 0.0
H1182 H 0.6319 0.99772 0.34699 0.0
C1183 C 0.61839 0.00568 0.21644 0.0
C1184 C 0.59689 0.00424 0.29725 0.0
C1185 C 0.6175 0.00943 0.18022 0.0
C1186 C 0.61627 0.99483 0.45092 0.0
C1187 C 0.61742 0.99849 0.4147 0.0
C1188 C 0.62206 0.99951 0.33341 0.0
C1189 C 0.60963 0.01198 0.24198 0.0
C1190 C 0.60959 0.00699 0.27972 0.0
C1191 C 0.60911 0.99185 0.38871 0.0
C1192 C 0.60934 0.99672 0.35087 0.0
H1193 H 0.59214 0.03437 0.18671 0.0
H1194 H 0.59366 0.02774 0.25006 0.0
H1195 H 0.63212 0.00657 0.28523 0.0
H1196 H 0.59168 0.96919 0.44332 0.0
H1197 H 0.59365 0.97565 0.37992 0.0
C1198 C 0.23382 0.37213 0.43202 0.0
C1199 C 0.24417 0.37283 0.40531 0.0
C1200 C 0.23747 0.37289 0.46836 0.0
C1201 C 0.26574 0.36376 0.52806 0.0
H1202 H 0.24721 0.38743 0.59786 0.0
C1203 C 0.28036 0.36138 0.67835 0.0
C1204 C 0.26926 0.3623 0.70288 0.0
C1205 C 0.27822 0.36447 0.64199 0.0
C1206 C 0.2524 0.38063 0.57881 0.0
H1207 H 0.26641 0.37527 0.39571 0.0
H1208 H 0.27274 0.3763 0.45914 0.0
H1209 H 0.24123 0.38949 0.53428 0.0
H1210 H 0.24725 0.36723 0.70866 0.0
H1211 H 0.24341 0.37204 0.64552 0.0
H1212 H 0.2764 0.35435 0.57229 0.0
C1213 C 0.26184 0.37524 0.45188 0.0
C1214 C 0.249 0.38189 0.54243 0.0
C1215 C 0.25818 0.37471 0.41562 0.0
C1216 C 0.25606 0.36652 0.69048 0.0
C1217 C 0.25388 0.3694 0.65419 0.0
C1218 C 0.26897 0.36232 0.56446 0.0
C1219 C 0.25155 0.37413 0.47854 0.0
C1220 C 0.25558 0.3734 0.51682 0.0
C1221 C 0.26489 0.36834 0.62937 0.0
C1222 C 0.26224 0.37064 0.59039 0.0
H1223 H 0.22294 0.37071 0.42489 0.0
H1224 H 0.22937 0.37194 0.48852 0.0
H1225 H 0.27085 0.35699 0.50878 0.0
H1226 H 0.29067 0.35825 0.6872 0.0
H1227 H 0.28701 0.36378 0.62379 0.0
C1228 C 0.89014 0.02545 0.93377 0.0
C1229 C 0.88974 0.01487 0.95989 0.0
C1230 C 0.88823 0.0222 0.89746 0.0
C1231 C 0.87726 0.9933 0.83544 0.0
H1232 H 0.90003 0.01387 0.76739 0.0
C1233 C 0.89115 0.9757 0.68943 0.0
C1234 C 0.8889 0.98591 0.66285 0.0
C1235 C 0.88948 0.97904 0.72583 0.0
C1236 C 0.89355 0.00811 0.78613 0.0
H1237 H 0.88686 0.99263 0.96862 0.0
H1238 H 0.88419 0.98687 0.90553 0.0
H1239 H 0.90043 0.02038 0.83056 0.0
H1240 H 0.88276 0.00749 0.65354 0.0
H1241 H 0.88019 0.01329 0.71691 0.0
H1242 H 0.87099 0.98061 0.79062 0.0
C1243 C 0.88549 0.99775 0.91283 0.0
C1244 C 0.89366 0.01189 0.82233 0.0
C1245 C 0.88712 1.00104 0.94912 0.0
C1246 C 0.88458 0.99937 0.6733 0.0
C1247 C 0.88315 0.00274 0.70955 0.0
C1248 C 0.87737 0.98934 0.79925 0.0
C1249 C 0.88619 0.00825 0.88641 0.0
C1250 C 0.88552 0.00455 0.84754 0.0
C1251 C 0.88578 0.99268 0.7361 0.0
C1252 C 0.8855 0.99674 0.77437 0.0
H1253 H 0.89202 0.03622 0.94135 0.0
H1254 H 0.8885 0.03063 0.87804 0.0
H1255 H 0.87066 0.98754 0.85384 0.0
H1256 H 0.89446 0.96525 0.68218 0.0
H1257 H 0.89161 0.97114 0.74597 0.0
C1258 C 0.25139 0.63576 0.92869 0.0
C1259 C 0.265 0.63975 0.91877 0.0
C1260 C 0.24798 0.63368 0.9647 0.0
C1261 C 0.2615 0.62508 0.05286 0.0
H1262 H 0.23092 0.64762 0.08908 0.0
C1263 C 0.2508 0.63126 0.20429 0.0
C1264 C 0.2371 0.63375 0.2161 0.0
C1265 C 0.25382 0.63042 0.16769 0.0
C1266 C 0.23927 0.64099 0.0794 0.0
H1267 H 0.28582 0.64415 0.93871 0.0
H1268 H 0.27984 0.64014 0.00204 0.0
H1269 H 0.2372 0.64891 0.02581 0.0
H1270 H 0.21566 0.63657 0.19893 0.0
H1271 H 0.22078 0.63446 0.13493 0.0
H1272 H 0.26341 0.61685 0.10605 0.0
C1273 C 0.27186 0.63878 0.98169 0.0
C1274 C 0.24293 0.64185 0.04317 0.0
C1275 C 0.27525 0.64112 0.94558 0.0
C1276 C 0.22634 0.63476 0.19059 0.0
C1277 C 0.22932 0.63367 0.15389 0.0
C1278 C 0.25768 0.62402 0.08902 0.0
C1279 C 0.25813 0.6353 0.99151 0.0
C1280 C 0.25415 0.63401 0.0297 0.0
C1281 C 0.24316 0.63181 0.14192 0.0
C1282 C 0.24661 0.63209 0.10289 0.0
H1283 H 0.24323 0.63464 0.90872 0.0
H1284 H 0.23734 0.63091 0.97167 0.0
H1285 H 0.2701 0.61883 0.04288 0.0
H1286 H 0.25935 0.63053 0.22329 0.0
H1287 H 0.26462 0.62922 0.15969 0.0
C1288 C 0.39098 0.97596 0.92827 0.0
C1289 C 0.38901 0.98591 0.95559 0.0
C1290 C 0.38967 0.97982 0.89207 0.0
C1291 C 0.39497 0.00901 0.83269 0.0
H1292 H 0.36914 0.9913 0.76671 0.0
C1293 C 0.38969 0.02861 0.68659 0.0
C1294 C 0.38741 0.01853 0.65981 0.0
C1295 C 0.38863 0.025 0.72299 0.0
C1296 C 0.37659 0.99624 0.78453 0.0
H1297 H 0.38405 0.00768 0.96637 0.0
H1298 H 0.38218 0.01439 0.90335 0.0
H1299 H 0.37017 0.98352 0.82917 0.0
H1300 H 0.38219 0.99678 0.65017 0.0
H1301 H 0.38099 0.99036 0.71303 0.0
H1302 H 0.40194 0.0213 0.78828 0.0
C1303 C 0.38456 0.00362 0.90997 0.0
C1304 C 0.3771 0.99179 0.82033 0.0
C1305 C 0.38557 0.99972 0.94601 0.0
C1306 C 0.38386 0.00485 0.67014 0.0
C1307 C 0.38308 1.00118 0.70638 0.0
C1308 C 0.3947 0.01326 0.79676 0.0
C1309 C 0.38669 0.99374 0.88272 0.0
C1310 C 0.38627 0.99818 0.84467 0.0
C1311 C 0.38556 0.01116 0.73341 0.0
C1312 C 0.38549 0.00695 0.77209 0.0
H1313 H 0.39364 0.96525 0.93485 0.0
H1314 H 0.39139 0.97204 0.87137 0.0
H1315 H 0.4022 0.01402 0.85104 0.0
H1316 H 0.39237 0.03926 0.67944 0.0
H1317 H 0.3903 0.03308 0.74289 0.0
C1318 C 0.74205 0.63185 0.42846 0.0
C1319 C 0.73181 0.64146 0.41725 0.0
C1320 C 0.74572 0.63079 0.46467 0.0
C1321 C 0.7468 0.6518 0.54641 0.0
H1322 H 0.75386 0.61642 0.59418 0.0
C1323 C 0.75713 0.6311 0.69874 0.0
C1324 C 0.76742 0.64063 0.70998 0.0
C1325 C 0.7533 0.63025 0.66259 0.0
C1326 C 0.75191 0.62637 0.58117 0.0
H1327 H 0.71703 0.65711 0.43543 0.0
H1328 H 0.72349 0.65525 0.49886 0.0
H1329 H 0.7449 0.61659 0.53258 0.0
H1330 H 0.78215 0.65636 0.69189 0.0
H1331 H 0.77542 0.65486 0.62862 0.0
H1332 H 0.75377 0.66159 0.59494 0.0
C1333 C 0.72871 0.64863 0.47946 0.0
C1334 C 0.74685 0.62647 0.54593 0.0
C1335 C 0.72495 0.64961 0.44322 0.0
C1336 C 0.77418 0.64891 0.68409 0.0
C1337 C 0.77026 0.64814 0.64794 0.0
C1338 C 0.75198 0.6517 0.5815 0.0
C1339 C 0.73931 0.63938 0.49043 0.0
C1340 C 0.74421 0.63919 0.52823 0.0
C1341 C 0.75961 0.63897 0.63695 0.0
C1342 C 0.75458 0.63899 0.59926 0.0
H1343 H 0.74751 0.6254 0.40911 0.0
H1344 H 0.75397 0.62363 0.47229 0.0
H1345 H 0.74504 0.66176 0.53329 0.0
H1346 H 0.75174 0.62455 0.71802 0.0
H1347 H 0.74501 0.62314 0.65495 0.0
C1348 C 0.10985 0.02628 0.4323 0.0
C1349 C 0.11198 0.01611 0.45906 0.0
C1350 C 0.1117 0.02289 0.39599 0.0
C1351 C 0.10807 0.99375 0.33563 0.0
H1352 H 0.13132 0.01435 0.26881 0.0
C1353 C 0.11232 0.97642 0.18808 0.0
C1354 C 0.11285 0.987 0.16198 0.0
C1355 C 0.11404 0.97965 0.22447 0.0
C1356 C 0.12462 0.00858 0.28695 0.0
H1357 H 0.11808 0.99455 0.46874 0.0
H1358 H 0.12096 0.98866 0.40551 0.0
H1359 H 0.13057 0.02131 0.33198 0.0
H1360 H 0.1158 0.00924 0.1534 0.0
H1361 H 0.11816 0.01498 0.21657 0.0
H1362 H 0.1015 0.98144 0.29096 0.0
C1363 C 0.11796 0.99922 0.41267 0.0
C1364 C 0.12427 0.01255 0.32312 0.0
C1365 C 0.11635 0.00264 0.44884 0.0
C1366 C 0.11545 1.00082 0.17287 0.0
C1367 C 0.11689 0.0041 0.20922 0.0
C1368 C 0.10819 0.98994 0.29944 0.0
C1369 C 0.11547 0.00925 0.38594 0.0
C1370 C 0.116 0.00515 0.3477 0.0
C1371 C 0.11603 0.9936 0.23562 0.0
C1372 C 0.11646 0.9973 0.27453 0.0
H1373 H 0.10651 0.03674 0.43936 0.0
H1374 H 0.10968 0.03078 0.37571 0.0
H1375 H 0.10149 0.98798 0.35412 0.0
H1376 H 0.11045 0.96565 0.18042 0.0
H1377 H 0.11365 0.97122 0.24386 0.0
C1378 C 0.72421 0.35295 0.18482 0.0
C1379 C 0.73107 0.36113 0.21073 0.0
C1380 C 0.72789 0.35399 0.14855 0.0
C1381 C 0.74556 0.37626 0.08178 0.0
H1382 H 0.75314 0.34115 0.03338 0.0
C1383 C 0.77305 0.35402 0.94376 0.0
C1384 C 0.7659 0.36191 0.91775 0.0
C1385 C 0.76925 0.35488 0.97997 0.0
C1386 C 0.75116 0.35104 0.04664 0.0
H1387 H 0.74661 0.37735 0.21878 0.0
H1388 H 0.7529 0.37924 0.15549 0.0
H1389 H 0.74453 0.34098 0.09512 0.0
H1390 H 0.74964 0.3774 0.90948 0.0
H1391 H 0.74313 0.37897 0.97268 0.0
H1392 H 0.75223 0.3863 0.03321 0.0
C1393 C 0.74474 0.372 0.1632 0.0
C1394 C 0.74606 0.35094 0.08178 0.0
C1395 C 0.74117 0.37086 0.19946 0.0
C1396 C 0.75532 0.37115 0.92887 0.0
C1397 C 0.75163 0.3721 0.96508 0.0
C1398 C 0.75054 0.37636 0.04647 0.0
C1399 C 0.73837 0.36335 0.13751 0.0
C1400 C 0.74323 0.36354 0.09972 0.0
C1401 C 0.75834 0.36375 0.99086 0.0
C1402 C 0.75344 0.36374 0.02862 0.0
H1403 H 0.71639 0.34536 0.19267 0.0
H1404 H 0.7227 0.34731 0.12919 0.0
H1405 H 0.74343 0.38613 0.09498 0.0
H1406 H 0.78124 0.34681 0.93603 0.0
H1407 H 0.77471 0.34844 -0.00059 0.0
C1408 C 0.10123 0.47434 0.44372 0.0
C1409 C 0.1002 0.48878 0.45021 0.0
C1410 C 0.09857 0.46888 0.40958 0.0
C1411 C 0.08315 0.47795 0.32017 0.0
H1412 H 0.1061 0.44702 0.28791 0.0
C1413 C 0.07943 0.45917 0.17409 0.0
C1414 C 0.09242 0.45738 0.15741 0.0
C1415 C 0.0785 0.45963 0.21168 0.0
C1416 C 0.0996 0.45567 0.29639 0.0
H1417 H 0.09557 0.50884 0.42593 0.0
H1418 H 0.09154 0.49944 0.36584 0.0
H1419 H 0.10865 0.45569 0.34881 0.0
H1420 H 0.11449 0.45411 0.16623 0.0
H1421 H 0.11302 0.45494 0.2313 0.0
H1422 H 0.07483 0.47859 0.26691 0.0
C1423 C 0.09398 0.49222 0.38737 0.0
C1424 C 0.10094 0.46056 0.33163 0.0
C1425 C 0.09642 0.49766 0.42177 0.0
C1426 C 0.10429 0.45509 0.17865 0.0
C1427 C 0.10341 0.45564 0.21605 0.0
C1428 C 0.08196 0.47319 0.28475 0.0
C1429 C 0.09505 0.47774 0.38077 0.0
C1430 C 0.09291 0.47194 0.34388 0.0
C1431 C 0.09061 0.45854 0.23309 0.0
C1432 C 0.09036 0.46215 0.27213 0.0
H1433 H 0.10392 0.46718 0.46521 0.0
H1434 H 0.0992 0.45767 0.40594 0.0
H1435 H 0.07656 0.48652 0.32874 0.0
H1436 H 0.0702 0.46131 0.15813 0.0
H1437 H 0.06842 0.46162 0.22384 0.0
C1438 C 0.72925 0.8354 0.6873 0.0
C1439 C 0.738 0.84409 0.70781 0.0
C1440 C 0.7321 0.83303 0.65097 0.0
C1441 C 0.76009 0.83659 0.5825 0.0
H1442 H 0.72914 0.839 0.51558 0.0
C1443 C 0.7501 0.85224 0.42612 0.0
C1444 C 0.76122 0.84517 0.40955 0.0
C1445 C 0.74687 0.84972 0.46206 0.0
C1446 C 0.7379 0.83833 0.53394 0.0
H1447 H 0.75662 0.85702 0.70647 0.0
H1448 H 0.76136 0.85319 0.64322 0.0
H1449 H 0.72456 0.83912 0.57994 0.0
H1450 H 0.77741 0.82959 0.41728 0.0
H1451 H 0.77161 0.82499 0.48 0.0
H1452 H 0.77348 0.83666 0.53663 0.0
C1453 C 0.75249 0.84793 0.65521 0.0
C1454 C 0.73526 0.83821 0.57082 0.0
C1455 C 0.7497 0.85023 0.69145 0.0
C1456 C 0.76887 0.83531 0.42945 0.0
C1457 C 0.76557 0.83269 0.46537 0.0
C1458 C 0.76274 0.83683 0.54565 0.0
C1459 C 0.74371 0.83935 0.6345 0.0
C1460 C 0.74636 0.83768 0.5955 0.0
C1461 C 0.75461 0.83997 0.48217 0.0
C1462 C 0.75169 0.83803 0.52098 0.0
H1463 H 0.7202 0.83045 0.69925 0.0
H1464 H 0.72521 0.82626 0.63579 0.0
H1465 H 0.76885 0.83592 0.60085 0.0
H1466 H 0.74403 0.85994 0.41152 0.0
H1467 H 0.73854 0.8557 0.47433 0.0
C1468 C 0.39752 0.50204 0.67944 0.0
C1469 C 0.40407 0.51353 0.66305 0.0
C1470 C 0.39985 0.49908 0.71561 0.0
C1471 C 0.41121 0.49092 0.78807 0.0
H1472 H 0.41037 0.52194 0.85508 0.0
C1473 C 0.41329 0.48218 0.94122 0.0
C1474 C 0.40375 0.49013 0.96137 0.0
C1475 C 0.41576 0.48536 0.90514 0.0
C1476 C 0.4106 0.51317 0.83669 0.0
H1477 H 0.41848 0.53073 0.67146 0.0
H1478 H 0.4227 0.52543 0.73472 0.0
H1479 H 0.41005 0.52657 0.79074 0.0
H1480 H 0.38943 0.5077 0.95969 0.0
H1481 H 0.39344 0.513 0.89669 0.0
H1482 H 0.41094 0.4775 0.83397 0.0
C1483 C 0.41559 0.51885 0.71966 0.0
C1484 C 0.41061 0.51582 0.79982 0.0
C1485 C 0.41319 0.52187 0.68343 0.0
C1486 C 0.39687 0.5014 0.94491 0.0
C1487 C 0.39926 0.50452 0.90884 0.0
C1488 C 0.41111 0.48826 0.82493 0.0
C1489 C 0.40886 0.50748 0.73618 0.0
C1490 C 0.41058 0.50472 0.77512 0.0
C1491 C 0.40868 0.4965 0.8885 0.0
C1492 C 0.41047 0.49935 0.84962 0.0
H1493 H 0.3904 0.49543 0.6645 0.0
H1494 H 0.39429 0.4904 0.72767 0.0
H1495 H 0.41144 0.48215 0.76968 0.0
H1496 H 0.41885 0.4735 0.95328 0.0
H1497 H 0.42319 0.47909 0.89028 0.0
C1498 C 0.75188 0.1477 0.19652 0.0
C1499 C 0.76322 0.15498 0.21145 0.0
C1500 C 0.74852 0.1493 0.16028 0.0
C1501 C 0.76398 0.15978 0.07394 0.0
H1502 H 0.72539 0.1592 0.04225 0.0
C1503 C 0.72936 0.16418 0.93481 0.0
C1504 C 0.73734 0.15529 0.91287 0.0
C1505 C 0.73262 0.16572 0.97118 0.0
C1506 C 0.73621 0.15957 0.05065 0.0
H1507 H 0.77972 0.16992 0.20037 0.0
H1508 H 0.7737 0.17289 0.13715 0.0
H1509 H 0.73064 0.15953 0.1063 0.0
H1510 H 0.75503 0.14109 0.91177 0.0
H1511 H 0.76051 0.14355 0.97524 0.0
H1512 H 0.76955 0.15999 0.01831 0.0
C1513 C 0.76757 0.16574 0.15333 0.0
C1514 C 0.73922 0.15958 0.08735 0.0
C1515 C 0.77099 0.16408 0.18956 0.0
C1516 C 0.7487 0.14806 0.92793 0.0
C1517 C 0.75191 0.14956 0.96427 0.0
C1518 C 0.76097 0.15984 0.03726 0.0
C1519 C 0.75636 0.15829 0.13824 0.0
C1520 C 0.75314 0.15944 0.09938 0.0
C1521 C 0.74389 0.15837 0.98633 0.0
C1522 C 0.74706 0.15949 0.02521 0.0
H1523 H 0.74571 0.14058 0.21266 0.0
H1524 H 0.73997 0.14323 0.14936 0.0
H1525 H 0.77481 0.15956 0.08231 0.0
H1526 H 0.72059 0.16995 0.92393 0.0
H1527 H 0.72634 0.17272 0.9874 0.0
C1528 C 0.91114 0.48121 0.6882 0.0
C1529 C 0.90711 0.49184 0.66427 0.0
C1530 C 0.91365 0.48425 0.72436 0.0
C1531 C 0.92209 0.51274 0.78701 0.0
H1532 H 0.90299 0.48972 0.85728 0.0
C1533 C 0.91595 0.52879 0.93627 0.0
C1534 C 0.91554 0.51811 0.96215 0.0
C1535 C 0.91663 0.52548 0.89967 0.0
C1536 C 0.90864 0.49611 0.83816 0.0
H1537 H 0.90295 0.51407 0.65924 0.0
H1538 H 0.90741 0.51936 0.72233 0.0
H1539 H 0.90125 0.48395 0.79382 0.0
H1540 H 0.91646 0.49568 0.9704 0.0
H1541 H 0.91819 0.48993 0.90694 0.0
H1542 H 0.92954 0.52489 0.83136 0.0
C1543 C 0.90863 0.50869 0.71308 0.0
C1544 C 0.90759 0.49281 0.80176 0.0
C1545 C 0.90597 0.50563 0.67705 0.0
C1546 C 0.91655 0.50413 0.95097 0.0
C1547 C 0.91745 0.50083 0.91455 0.0
C1548 C 0.92327 0.51598 0.82354 0.0
C1549 C 0.91234 0.49801 0.73716 0.0
C1550 C 0.9142 0.50115 0.77582 0.0
C1551 C 0.91711 0.51143 0.88837 0.0
C1552 C 0.91647 0.50775 0.84956 0.0
H1553 H 0.91214 0.47049 0.67915 0.0
H1554 H 0.91659 0.47585 0.74236 0.0
H1555 H 0.92738 0.51927 0.7675 0.0
H1556 H 0.91514 0.53965 0.94419 0.0
H1557 H 0.91622 0.53391 0.88027 0.0
C1558 C 0.24684 0.14761 0.70215 0.0
C1559 C 0.23585 0.15491 0.71866 0.0
C1560 C 0.25 0.14995 0.66603 0.0
C1561 C 0.2592 0.16198 0.59466 0.0
H1562 H 0.22853 0.16566 0.52723 0.0
C1563 C 0.26843 0.17162 0.44354 0.0
C1564 C 0.2602 0.16358 0.42007 0.0
C1565 C 0.26532 0.17211 0.48018 0.0
C1566 C 0.2372 0.16461 0.54571 0.0
H1567 H 0.21976 0.17059 0.71059 0.0
H1568 H 0.22544 0.17483 0.64779 0.0
H1569 H 0.22361 0.1631 0.59103 0.0
H1570 H 0.24215 0.14992 0.41647 0.0
H1571 H 0.2369 0.15057 0.48029 0.0
H1572 H 0.27277 0.16285 0.5491 0.0
C1573 C 0.23143 0.1671 0.6625 0.0
C1574 C 0.2344 0.16331 0.58232 0.0
C1575 C 0.2282 0.1647 0.69851 0.0
C1576 C 0.24867 0.15625 0.43382 0.0
C1577 C 0.2456 0.15669 0.4704 0.0
C1578 C 0.26201 0.1632 0.558 0.0
C1579 C 0.2423 0.15969 0.6458 0.0
C1580 C 0.24536 0.16182 0.60716 0.0
C1581 C 0.25394 0.16454 0.49402 0.0
C1582 C 0.25103 0.16435 0.5331 0.0
H1583 H 0.25289 0.13998 0.71698 0.0
H1584 H 0.2583 0.14391 0.6538 0.0
H1585 H 0.26788 0.16106 0.61319 0.0
H1586 H 0.27735 0.17744 0.43369 0.0
H1587 H 0.27183 0.17839 0.49767 0.0
C1588 C 0.59287 0.50135 0.18187 0.0
C1589 C 0.59221 0.51489 0.1674 0.0
C1590 C 0.59083 0.49919 0.21856 0.0
C1591 C 0.59623 0.51602 0.30356 0.0
H1592 H 0.57207 0.48711 0.34202 0.0
C1593 C 0.59377 0.50541 0.45519 0.0
C1594 C 0.59312 0.49136 0.46597 0.0
C1595 C 0.59168 0.50905 0.4193 0.0
C1596 C 0.57897 0.49513 0.33169 0.0
H1597 H 0.58871 0.53679 0.17965 0.0
H1598 H 0.58551 0.53302 0.24421 0.0
H1599 H 0.57192 0.49202 0.27757 0.0
H1600 H 0.58966 0.47009 0.44799 0.0
H1601 H 0.58662 0.47633 0.38499 0.0
H1602 H 0.6039 0.5187 0.35693 0.0
C1603 C 0.58746 0.5241 0.22697 0.0
C1604 C 0.5788 0.49798 0.2949 0.0
C1605 C 0.58926 0.52624 0.19014 0.0
C1606 C 0.59016 0.48101 0.44036 0.0
C1607 C 0.58832 0.48462 0.40431 0.0
C1608 C 0.59658 0.51303 0.34022 0.0
C1609 C 0.58832 0.51057 0.24143 0.0
C1610 C 0.58753 0.50835 0.28056 0.0
C1611 C 0.58916 0.49868 0.39331 0.0
C1612 C 0.58806 0.50244 0.3547 0.0
H1613 H 0.59504 0.49241 0.16489 0.0
H1614 H 0.59166 0.48868 0.22923 0.0
H1615 H 0.60319 0.52394 0.29296 0.0
H1616 H 0.59584 0.51362 0.47453 0.0
H1617 H 0.5921 0.52 0.41196 0.0
C1618 C 0.22952 0.83862 0.92759 0.0
C1619 C 0.2375 0.84792 0.90681 0.0
C1620 C 0.23264 0.8365 0.96382 0.0
C1621 C 0.23589 0.84105 0.04388 0.0
H1622 H 0.27436 0.84062 0.07644 0.0
C1623 C 0.251 0.8495 0.19156 0.0
C1624 C 0.26239 0.84203 0.20556 0.0
C1625 C 0.24771 0.84866 0.15513 0.0
C1626 C 0.26356 0.84051 0.06777 0.0
H1627 H 0.255 0.86233 0.90765 0.0
H1628 H 0.26024 0.8589 0.97106 0.0
H1629 H 0.26934 0.84176 0.01236 0.0
H1630 H 0.27904 0.82748 0.19261 0.0
H1631 H 0.27314 0.82584 0.12899 0.0
H1632 H 0.23011 0.8396 0.09926 0.0
C1633 C 0.25176 0.853 0.9592 0.0
C1634 C 0.26069 0.84136 0.03108 0.0
C1635 C 0.24869 0.85505 0.92293 0.0
C1636 C 0.27025 0.83345 0.18255 0.0
C1637 C 0.26691 0.83255 0.1461 0.0
C1638 C 0.23876 0.84012 0.08055 0.0
C1639 C 0.24376 0.84372 0.98004 0.0
C1640 C 0.24682 0.84186 0.01878 0.0
C1641 C 0.25569 0.84026 0.13194 0.0
C1642 C 0.25263 0.84007 0.09292 0.0
H1643 H 0.22089 0.83289 0.91585 0.0
H1644 H 0.2264 0.82915 0.97905 0.0
H1645 H 0.22509 0.84152 0.0353 0.0
H1646 H 0.24476 0.85624 0.20857 0.0
H1647 H 0.23913 0.85491 0.14497 0.0
C1648 C 0.59962 1.00076 0.68085 0.0
C1649 C 0.59291 0.98906 0.66597 0.0
C1650 C 0.59813 0.00388 0.71723 0.0
C1651 C 0.58938 0.98754 0.80378 0.0
H1652 H 0.58822 0.02607 0.83602 0.0
C1653 C 0.6019 0.00324 0.94922 0.0
C1654 C 0.59444 0.01435 0.9647 0.0
C1655 C 0.60009 0.9999 0.91303 0.0
C1656 C 0.58833 0.01524 0.82752 0.0
H1657 H 0.57912 0.97161 0.67736 0.0
H1658 H 0.57633 0.97721 0.74092 0.0
H1659 H 0.58741 0.02095 0.77201 0.0
H1660 H 0.57895 0.03046 0.95467 0.0
H1661 H 0.57561 0.02446 0.89159 0.0
H1662 H 0.5901 0.98182 0.85932 0.0
C1663 C 0.58294 0.98383 0.72453 0.0
C1664 C 0.58805 0.01232 0.7908 0.0
C1665 C 0.58449 0.98066 0.68811 0.0
C1666 C 0.58495 0.02191 0.94341 0.0
C1667 C 0.58307 0.01851 0.90726 0.0
C1668 C 0.58957 0.99046 0.84052 0.0
C1669 C 0.58983 0.99542 0.73953 0.0
C1670 C 0.58883 0.99845 0.77851 0.0
C1671 C 0.5907 0.00753 0.8916 0.0
C1672 C 0.5893 0.00436 0.85277 0.0
H1673 H 0.60623 0.00741 0.66454 0.0
H1674 H 0.60378 0.01274 0.72805 0.0
H1675 H 0.5901 0.97674 0.7952 0.0
H1676 H 0.60933 0.99725 0.9649 0.0
H1677 H 0.60632 0.99155 0.90167 0.0
C1678 C 0.25435 0.36107 0.18448 0.0
C1679 C 0.24281 0.35559 0.20294 0.0
C1680 C 0.25673 0.35749 0.1487 0.0
C1681 C 0.23853 0.34434 0.06852 0.0
H1682 H 0.27633 0.34141 0.03194 0.0
C1683 C 0.27066 0.33594 0.92638 0.0
C1684 C 0.26283 0.34512 0.90484 0.0
C1685 C 0.26761 0.3345 0.96288 0.0
C1686 C 0.26569 0.34193 0.04174 0.0
H1687 H 0.22487 0.34181 0.19884 0.0
H1688 H 0.22919 0.33533 0.13651 0.0
H1689 H 0.27249 0.34356 0.09629 0.0
H1690 H 0.2455 0.35975 0.90434 0.0
H1691 H 0.24047 0.35756 0.96799 0.0
H1692 H 0.23173 0.34254 0.01401 0.0
C1693 C 0.23624 0.34262 0.14943 0.0
C1694 C 0.2635 0.34338 0.07859 0.0
C1695 C 0.23378 0.34632 0.18513 0.0
C1696 C 0.25171 0.35257 0.92023 0.0
C1697 C 0.24874 0.35122 0.9567 0.0
C1698 C 0.24071 0.34275 0.0317 0.0
C1699 C 0.24769 0.34824 0.13076 0.0
C1700 C 0.24992 0.345 0.09227 0.0
C1701 C 0.25675 0.34229 0.97853 0.0
C1702 C 0.25433 0.34194 0.01783 0.0
H1703 H 0.26146 0.36828 0.1975 0.0
H1704 H 0.26549 0.36223 0.13489 0.0
H1705 H 0.22793 0.34562 0.07813 0.0
H1706 H 0.27921 0.32996 0.91515 0.0
H1707 H 0.27385 0.3274 0.97891 0.0
C1708 C 0.90845 0.97941 0.43549 0.0
C1709 C 0.90588 0.98992 0.46093 0.0
C1710 C 0.91031 0.98286 0.39935 0.0
C1711 C 0.90267 0.0114 0.33514 0.0
H1712 H 0.92644 0.98964 0.27194 0.0
C1713 C 0.91039 0.02499 0.18571 0.0
C1714 C 0.90706 0.01391 0.16246 0.0
C1715 C 0.9121 0.02255 0.22243 0.0
C1716 C 0.91981 0.9958 0.28942 0.0
H1717 H 0.90396 0.01228 0.46915 0.0
H1718 H 0.90777 0.01836 0.40646 0.0
H1719 H 0.9263 0.98466 0.33638 0.0
H1720 H 0.90343 0.99156 0.15895 0.0
H1721 H 0.90663 0.9873 0.22317 0.0
H1722 H 0.89631 0.0226 0.2881 0.0
C1723 C 0.90782 0.00742 0.41397 0.0
C1724 C 0.91964 0.99291 0.32621 0.0
C1725 C 0.9057 0.00395 0.44993 0.0
C1726 C 0.90591 1.0003 0.17633 0.0
C1727 C 0.90785 0.99783 0.21294 0.0
C1728 C 0.90302 0.01441 0.29852 0.0
C1729 C 0.90989 0.99691 0.38811 0.0
C1730 C 0.9109 1.00055 0.34943 0.0
C1731 C 0.91074 0.00897 0.2363 0.0
C1732 C 0.91142 0.00651 0.27534 0.0
H1733 H 0.90859 0.9685 0.44333 0.0
H1734 H 0.91166 0.97447 0.38013 0.0
H1735 H 0.8956 0.01731 0.352 0.0
H1736 H 0.91133 0.03559 0.17571 0.0
H1737 H 0.91437 0.03127 0.24005 0.0
C1738 C 0.27187 0.66521 0.6952 0.0
C1739 C 0.26315 0.65671 0.7163 0.0
C1740 C 0.26911 0.66705 0.65863 0.0
C1741 C 0.24142 0.66224 0.58997 0.0
H1742 H 0.27258 0.65878 0.52409 0.0
C1743 C 0.25184 0.64404 0.43569 0.0
C1744 C 0.24069 0.65077 0.41836 0.0
C1745 C 0.25502 0.64715 0.47137 0.0
C1746 C 0.26377 0.65973 0.54216 0.0
H1747 H 0.24466 0.64359 0.7158 0.0
H1748 H 0.24007 0.64651 0.65215 0.0
H1749 H 0.27696 0.6598 0.58851 0.0
H1750 H 0.22441 0.6664 0.42426 0.0
H1751 H 0.23015 0.67204 0.48636 0.0
H1752 H 0.22817 0.6613 0.54392 0.0
C1753 C 0.24884 0.65202 0.66384 0.0
C1754 C 0.26629 0.66052 0.57904 0.0
C1755 C 0.25155 0.65025 0.70031 0.0
C1756 C 0.23296 0.6609 0.4371 0.0
C1757 C 0.23624 0.66412 0.47267 0.0
C1758 C 0.23889 0.66134 0.55316 0.0
C1759 C 0.25762 0.66038 0.64254 0.0
C1760 C 0.25511 0.66143 0.60337 0.0
C1761 C 0.24721 0.65718 0.49032 0.0
C1762 C 0.25002 0.65975 0.52891 0.0
H1763 H 0.28085 0.6704 0.70686 0.0
H1764 H 0.27599 0.67366 0.64295 0.0
H1765 H 0.2326 0.66319 0.60804 0.0
H1766 H 0.25796 0.63616 0.42192 0.0
H1767 H 0.26337 0.64142 0.48435 0.0
C1768 C 0.41158 0.97956 0.18116 0.0
C1769 C 0.40274 0.98774 0.1595 0.0
C1770 C 0.41356 0.98293 0.21737 0.0
C1771 C 0.40894 0.01184 0.28278 0.0
H1772 H 0.40744 0.98192 0.353 0.0
C1773 C 0.39438 0.00391 0.44073 0.0
C1774 C 0.40159 0.01519 0.45624 0.0
C1775 C 0.39659 1.00033 0.40488 0.0
C1776 C 0.40786 0.99039 0.33371 0.0
H1777 H 0.38907 0.00585 0.15879 0.0
H1778 H 0.39228 0.01151 0.2218 0.0
H1779 H 0.40735 0.97628 0.28916 0.0
H1780 H 0.41696 0.03141 0.4465 0.0
H1781 H 0.42095 0.02503 0.38383 0.0
H1782 H 0.40871 0.02597 0.32723 0.0
C1783 C 0.39793 0.00269 0.21078 0.0
C1784 C 0.40798 0.98715 0.29713 0.0
C1785 C 0.39599 0.99936 0.17468 0.0
C1786 C 0.41117 0.02273 0.43522 0.0
C1787 C 0.41344 0.0191 0.39932 0.0
C1788 C 0.40874 0.01508 0.31933 0.0
C1789 C 0.40672 0.99452 0.23256 0.0
C1790 C 0.40821 0.99786 0.27127 0.0
C1791 C 0.40612 0.00788 0.38374 0.0
C1792 C 0.40789 0.0044 0.34518 0.0
H1793 H 0.41699 0.97058 0.17017 0.0
H1794 H 0.42049 0.97651 0.23341 0.0
H1795 H 0.40937 0.02031 0.26349 0.0
H1796 H 0.38689 0.99791 0.45616 0.0
H1797 H 0.39058 0.99181 0.39353 0.0
C1798 C 0.72898 0.66309 0.19067 0.0
C1799 C 0.73694 0.65426 0.21284 0.0
C1800 C 0.73231 0.6646 0.15434 0.0
C1801 C 0.736 0.65821 0.07512 0.0
H1802 H 0.77461 0.65824 0.04364 0.0
C1803 C 0.7517 0.64582 0.92973 0.0
C1804 C 0.76292 0.65317 0.91451 0.0
C1805 C 0.74839 0.6475 0.96596 0.0
C1806 C 0.76377 0.65844 0.05196 0.0
H1807 H 0.75469 0.64016 0.21444 0.0
H1808 H 0.76031 0.64255 0.15104 0.0
H1809 H 0.76932 0.6589 0.10762 0.0
H1810 H 0.77933 0.66828 0.9251 0.0
H1811 H 0.7734 0.67137 0.98833 0.0
H1812 H 0.73045 0.65791 0.01945 0.0
C1813 C 0.75166 0.64853 0.16178 0.0
C1814 C 0.76075 0.65864 0.08863 0.0
C1815 C 0.74838 0.64708 0.19809 0.0
C1816 C 0.77067 0.66238 0.93614 0.0
C1817 C 0.76731 0.66412 0.97237 0.0
C1818 C 0.73903 0.65808 0.03845 0.0
C1819 C 0.74364 0.65727 0.13948 0.0
C1820 C 0.74683 0.65827 0.1006 0.0
C1821 C 0.75618 0.65663 0.9877 0.0
C1822 C 0.75295 0.65794 0.02649 0.0
H1823 H 0.72016 0.66885 0.20132 0.0
H1824 H 0.72604 0.67154 0.13792 0.0
H1825 H 0.72517 0.65781 0.08347 0.0
H1826 H 0.74555 0.63861 0.9138 0.0
H1827 H 0.7399 0.64139 0.97709 0.0
C1828 C 0.09653 0.00206 0.94573 0.0
C1829 C 0.09537 0.98842 0.95946 0.0
C1830 C 0.09442 0.00461 0.90922 0.0
C1831 C 0.09859 0.98812 0.82322 0.0
H1832 H 0.07518 0.01799 0.78652 0.0
C1833 C 0.09473 0.99836 0.67198 0.0
C1834 C 0.09459 0.01237 0.66082 0.0
C1835 C 0.09283 0.99497 0.70807 0.0
C1836 C 0.08187 0.00971 0.79636 0.0
H1837 H 0.09088 0.96681 0.94605 0.0
H1838 H 0.08753 0.97127 0.8819 0.0
H1839 H 0.07555 0.01305 0.85099 0.0
H1840 H 0.09211 0.03384 0.67822 0.0
H1841 H 0.08941 0.02801 0.74165 0.0
H1842 H 0.10554 0.98514 0.76936 0.0
C1843 C 0.08995 0.97995 0.89955 0.0
C1844 C 0.082 0.00685 0.83317 0.0
C1845 C 0.09184 0.97742 0.93617 0.0
C1846 C 0.09222 0.02294 0.68621 0.0
C1847 C 0.09058 0.01958 0.72248 0.0
C1848 C 0.09865 0.99111 0.78657 0.0
C1849 C 0.09132 0.99355 0.88581 0.0
C1850 C 0.09042 0.99608 0.84682 0.0
C1851 C 0.09103 0.00555 0.73389 0.0
C1852 C 0.09035 0.00199 0.77268 0.0
H1853 H 0.09915 0.01075 0.96315 0.0
H1854 H 0.09564 0.01517 0.89908 0.0
H1855 H 0.10532 0.97989 0.83329 0.0
H1856 H 0.09632 0.98999 0.65279 0.0
H1857 H 0.09287 0.98405 0.71572 0.0
C1858 C 0.77004 0.33976 0.69191 0.0
C1859 C 0.76185 0.34864 0.71338 0.0
C1860 C 0.76686 0.33791 0.6556 0.0
C1861 C 0.76338 0.34351 0.57596 0.0
H1862 H 0.7249 0.34287 0.54347 0.0
C1863 C 0.74806 0.35485 0.42971 0.0
C1864 C 0.73682 0.34746 0.41463 0.0
C1865 C 0.75134 0.35329 0.466 0.0
C1866 C 0.73571 0.34282 0.55208 0.0
H1867 H 0.7439 0.36248 0.71376 0.0
H1868 H 0.73857 0.35952 0.65033 0.0
H1869 H 0.72995 0.34278 0.60758 0.0
H1870 H 0.72044 0.33236 0.42548 0.0
H1871 H 0.72633 0.32948 0.4888 0.0
H1872 H 0.76914 0.34337 0.52045 0.0
C1873 C 0.74726 0.35375 0.66163 0.0
C1874 C 0.73859 0.34296 0.58882 0.0
C1875 C 0.75038 0.35553 0.69794 0.0
C1876 C 0.72909 0.33829 0.43641 0.0
C1877 C 0.73243 0.33667 0.4727 0.0
C1878 C 0.7605 0.34329 0.53921 0.0
C1879 C 0.75548 0.34495 0.64003 0.0
C1880 C 0.75245 0.34357 0.60115 0.0
C1881 C 0.74353 0.34425 0.48794 0.0
C1882 C 0.74662 0.34321 0.52687 0.0
H1883 H 0.77889 0.33422 0.70312 0.0
H1884 H 0.77329 0.33093 0.63976 0.0
H1885 H 0.77417 0.34408 0.58456 0.0
H1886 H 0.75419 0.36203 0.41366 0.0
H1887 H 0.7598 0.35947 0.47704 0.0
C1888 C 0.14667 0.47771 0.14134 0.0
C1889 C 0.14266 0.47264 0.10742 0.0
C1890 C 0.15605 0.4701 0.16272 0.0
C1891 C 0.18208 0.44143 0.1621 0.0
H1892 H 0.1677 0.43276 0.25704 0.0
C1893 C 0.21169 0.40499 0.25955 0.0
C1894 C 0.2037 0.39425 0.27524 0.0
C1895 C 0.20523 0.41614 0.24181 0.0
C1896 C 0.17187 0.43511 0.23065 0.0
H1897 H 0.14602 0.45624 0.06825 0.0
H1898 H 0.16271 0.44326 0.10488 0.0
H1899 H 0.15567 0.44998 0.21944 0.0
H1900 H 0.18258 0.38717 0.28574 0.0
H1901 H 0.17129 0.40675 0.25496 0.0
H1902 H 0.19806 0.42632 0.17285 0.0
C1903 C 0.15856 0.45301 0.1152 0.0
C1904 C 0.16507 0.44508 0.20927 0.0
C1905 C 0.14902 0.46045 0.09416 0.0
C1906 C 0.18906 0.39525 0.27398 0.0
C1907 C 0.18258 0.4065 0.25645 0.0
C1908 C 0.18896 0.43159 0.18361 0.0
C1909 C 0.16177 0.45744 0.15026 0.0
C1910 C 0.16998 0.44818 0.17452 0.0
C1911 C 0.19061 0.41693 0.23952 0.0
C1912 C 0.18381 0.42814 0.21791 0.0
H1913 H 0.14176 0.48694 0.1525 0.0
H1914 H 0.15842 0.47383 0.18953 0.0
H1915 H 0.18612 0.4436 0.13548 0.0
H1916 H 0.223 0.40461 0.26002 0.0
H1917 H 0.21171 0.42409 0.22946 0.0
C1918 C 0.86308 0.94914 0.51346 0.0
C1919 C 0.87585 0.9436 0.52565 0.0
C1920 C 0.85413 0.9411 0.49203 0.0
C1921 C 0.85529 0.91233 0.42742 0.0
H1922 H 0.81535 0.90952 0.44259 0.0
C1923 C 0.82155 0.87216 0.35155 0.0
C1924 C 0.8076 0.87545 0.34338 0.0
C1925 C 0.82971 0.88127 0.37204 0.0
C1926 C 0.82644 0.91039 0.43751 0.0
H1927 H 0.88893 0.92506 0.52596 0.0
H1928 H 0.87336 0.91113 0.48852 0.0
H1929 H 0.8295 0.92362 0.48344 0.0
H1930 H 0.79149 0.89123 0.34903 0.0
H1931 H 0.80587 0.90736 0.38381 0.0
H1932 H 0.85234 0.89937 0.38128 0.0
C1933 C 0.87033 0.92172 0.49535 0.0
C1934 C 0.83455 0.91841 0.4611 0.0
C1935 C 0.87919 0.92968 0.51706 0.0
C1936 C 0.80219 0.88835 0.35494 0.0
C1937 C 0.8104 0.89754 0.37522 0.0
C1938 C 0.84719 0.90446 0.40363 0.0
C1939 C 0.85784 0.92743 0.48203 0.0
C1940 C 0.84908 0.9193 0.45656 0.0
C1941 C 0.8242 0.894 0.38463 0.0
C1942 C 0.83268 0.90321 0.40859 0.0
H1943 H 0.86019 0.95983 0.51955 0.0
H1944 H 0.84457 0.94577 0.4821 0.0
H1945 H 0.86644 0.91306 0.42285 0.0
H1946 H 0.82605 0.86228 0.34332 0.0
H1947 H 0.8402 0.87805 0.3791 0.0
C1948 C 0.36165 0.554 0.6093 0.0
C1949 C 0.37439 0.55937 0.59653 0.0
C1950 C 0.35298 0.56212 0.63127 0.0
C1951 C 0.35514 0.59066 0.69633 0.0
H1952 H 0.31506 0.59371 0.6842 0.0
C1953 C 0.32222 0.63041 0.77628 0.0
C1954 C 0.30832 0.62709 0.78494 0.0
C1955 C 0.33022 0.6214 0.75506 0.0
C1956 C 0.3262 0.59278 0.68844 0.0
H1957 H 0.38771 0.57774 0.59565 0.0
H1958 H 0.37263 0.59182 0.63404 0.0
H1959 H 0.32867 0.5798 0.64183 0.0
H1960 H 0.29218 0.61131 0.77963 0.0
H1961 H 0.30629 0.59537 0.74366 0.0
H1962 H 0.35277 0.60337 0.74317 0.0
C1963 C 0.36941 0.58129 0.62725 0.0
C1964 C 0.334 0.58487 0.66396 0.0
C1965 C 0.37798 0.57325 0.60499 0.0
C1966 C 0.30284 0.61422 0.77332 0.0
C1967 C 0.31089 0.60514 0.75235 0.0
C1968 C 0.34735 0.59842 0.72101 0.0
C1969 C 0.35697 0.57572 0.64124 0.0
C1970 C 0.34857 0.58387 0.66743 0.0
C1971 C 0.32459 0.60875 0.74224 0.0
C1972 C 0.33278 0.59973 0.71721 0.0
H1973 H 0.35857 0.54335 0.60332 0.0
H1974 H 0.34346 0.55755 0.64171 0.0
H1975 H 0.36633 0.58985 0.70007 0.0
H1976 H 0.32676 0.64026 0.78455 0.0
H1977 H 0.34064 0.62466 0.74754 0.0
C1978 C 0.69527 0.11557 0.85619 0.0
C1979 C 0.69016 0.12859 0.8445 0.0
C1980 C 0.68691 0.10668 0.87694 0.0
C1981 C 0.65021 0.10071 0.90703 0.0
H1982 H 0.66808 0.08188 0.98717 0.0
C1983 C 0.6183 0.07552 0.02098 0.0
C1984 C 0.62194 0.06173 0.03024 0.0
C1985 C 0.62707 0.08355 -0.00086 0.0
C1986 C 0.66296 0.087 0.96476 0.0
H1987 H 0.67205 0.14223 0.84447 0.0
H1988 H 0.65762 0.12692 0.88099 0.0
H1989 H 0.68217 0.09555 0.9453 0.0
H1990 H 0.63801 0.04585 0.02527 0.0
H1991 H 0.6534 0.06 0.98755 0.0
H1992 H 0.63097 0.09238 0.92704 0.0
C1993 C 0.668 0.12342 0.87376 0.0
C1994 C 0.67104 0.09477 0.94059 0.0
C1995 C 0.67631 0.13225 0.85283 0.0
C1996 C 0.63489 0.05643 0.01867 0.0
C1997 C 0.64372 0.06453 -0.00293 0.0
C1998 C 0.64214 0.09305 0.93136 0.0
C1999 C 0.67327 0.11063 0.88669 0.0
C2000 C 0.66476 0.10179 0.91146 0.0
C2001 C 0.63973 0.07805 0.98633 0.0
C2002 C 0.64841 0.08617 0.9606 0.0
H2003 H 0.70587 0.1124 0.85016 0.0
H2004 H 0.69123 0.09679 0.88575 0.0
H2005 H 0.64502 0.10573 0.8846 0.0
H2006 H 0.60842 0.07995 0.0294 0.0
H2007 H 0.62382 0.09402 0.99178 0.0
C2008 C 0.20223 0.60384 0.35793 0.0
C2009 C 0.19616 0.61697 0.3509 0.0
C2010 C 0.19483 0.59357 0.37692 0.0
C2011 C 0.16752 0.5904 0.44482 0.0
H2012 H 0.164 0.55179 0.41446 0.0
C2013 C 0.12732 0.55378 0.50897 0.0
C2014 C 0.13011 0.5394 0.51236 0.0
C2015 C 0.13657 0.56261 0.49101 0.0
C2016 C 0.16509 0.56246 0.42373 0.0
H2017 H 0.17739 0.62942 0.35745 0.0
H2018 H 0.1646 0.61159 0.39086 0.0
H2019 H 0.17758 0.56822 0.37807 0.0
H2020 H 0.14512 0.52312 0.50021 0.0
H2021 H 0.16157 0.53868 0.4694 0.0
H2022 H 0.15532 0.58479 0.49064 0.0
C2023 C 0.17508 0.60926 0.38171 0.0
C2024 C 0.17281 0.57188 0.40272 0.0
C2025 C 0.18239 0.61943 0.36233 0.0
C2026 C 0.14266 0.53414 0.49814 0.0
C2027 C 0.15202 0.54305 0.48019 0.0
C2028 C 0.15999 0.58099 0.466 0.0
C2029 C 0.1813 0.59631 0.38973 0.0
C2030 C 0.17384 0.58602 0.4127 0.0
C2031 C 0.14901 0.5574 0.47609 0.0
C2032 C 0.15838 0.56695 0.45539 0.0
H2033 H 0.21282 0.6016 0.34949 0.0
H2034 H 0.19988 0.5837 0.38276 0.0
H2035 H 0.1684 0.60117 0.45361 0.0
H2036 H 0.11775 0.55825 0.5194 0.0
H2037 H 0.13368 0.57349 0.4879 0.0
C2038 C 0.63176 0.94967 0.62441 0.0
C2039 C 0.62234 0.94337 0.60034 0.0
C2040 C 0.64084 0.94151 0.64502 0.0
C2041 C 0.65923 0.90847 0.64993 0.0
H2042 H 0.65731 0.91294 0.75355 0.0
C2043 C 0.69936 0.88421 0.74815 0.0
C2044 C 0.69352 0.87546 0.77458 0.0
C2045 C 0.69086 0.89292 0.72739 0.0
C2046 C 0.65794 0.91162 0.72468 0.0
H2047 H 0.61545 0.9236 0.578 0.0
H2048 H 0.63178 0.90935 0.61327 0.0
H2049 H 0.64237 0.92727 0.71457 0.0
H2050 H 0.67425 0.86944 0.80096 0.0
H2051 H 0.65943 0.88514 0.76542 0.0
H2052 H 0.675 0.89302 0.66001 0.0
C2053 C 0.63193 0.92061 0.61639 0.0
C2054 C 0.64948 0.91983 0.70243 0.0
C2055 C 0.6226 0.92876 0.59627 0.0
C2056 C 0.67905 0.87607 0.78084 0.0
C2057 C 0.67058 0.88503 0.76056 0.0
C2058 C 0.66792 0.90048 0.67214 0.0
C2059 C 0.64091 0.92691 0.64149 0.0
C2060 C 0.65001 0.91828 0.66487 0.0
C2061 C 0.67638 0.8933 0.73314 0.0
C2062 C 0.66731 0.90195 0.70971 0.0
H2063 H 0.63176 0.96089 0.6284 0.0
H2064 H 0.64775 0.94661 0.66402 0.0
H2065 H 0.65984 0.90712 0.62105 0.0
H2066 H 0.71045 0.88391 0.74246 0.0
H2067 H 0.69557 0.89928 0.70656 0.0
C2068 C 0.30416 0.38682 0.85114 0.0
C2069 C 0.30962 0.37377 0.84087 0.0
C2070 C 0.31208 0.39604 0.87205 0.0
C2071 C 0.34828 0.40285 0.90489 0.0
H2072 H 0.32916 0.42266 0.9814 0.0
C2073 C 0.37833 0.42948 0.01972 0.0
C2074 C 0.37468 0.44343 0.02714 0.0
C2075 C 0.36987 0.42119 -0.00223 0.0
C2076 C 0.33462 0.41727 0.96 0.0
H2077 H 0.32787 0.36038 0.84375 0.0
H2078 H 0.34153 0.37625 0.88063 0.0
H2079 H 0.31577 0.40825 0.93962 0.0
H2080 H 0.35887 0.45935 0.01875 0.0
H2081 H 0.34397 0.44475 0.98082 0.0
H2082 H 0.36716 0.41162 0.92589 0.0
C2083 C 0.33122 0.37953 0.87209 0.0
C2084 C 0.32695 0.40907 0.93588 0.0
C2085 C 0.32336 0.37037 0.85096 0.0
C2086 C 0.36199 0.44866 0.0136 0.0
C2087 C 0.35345 0.4403 0.99188 0.0
C2088 C 0.35594 0.41092 0.9292 0.0
C2089 C 0.32562 0.3924 0.88343 0.0
C2090 C 0.33369 0.40168 0.9081 0.0
C2091 C 0.35749 0.4266 0.98299 0.0
C2092 C 0.34922 0.41815 0.95714 0.0
H2093 H 0.29363 0.38979 0.84373 0.0
H2094 H 0.30751 0.40597 0.87962 0.0
H2095 H 0.35382 0.39757 0.88346 0.0
H2096 H 0.38801 0.42509 0.02971 0.0
H2097 H 0.37314 0.4106 0.99186 0.0
C2098 C 0.80545 0.11438 0.26832 0.0
C2099 C 0.81063 0.12759 0.27815 0.0
C2100 C 0.81357 0.10521 0.24776 0.0
C2101 C 0.84991 0.09906 0.21494 0.0
H2102 H 0.83115 0.07847 0.13918 0.0
C2103 C 0.88039 0.07269 0.10051 0.0
C2104 C 0.87711 0.0586 0.09369 0.0
C2105 C 0.87175 0.08087 0.12226 0.0
C2106 C 0.83651 0.08409 0.16037 0.0
H2107 H 0.8286 0.14134 0.27492 0.0
H2108 H 0.8426 0.12557 0.23864 0.0
H2109 H 0.81748 0.09274 0.18065 0.0
H2110 H 0.86176 0.0423 0.1029 0.0
H2111 H 0.84654 0.05673 0.14044 0.0
H2112 H 0.86896 0.09066 0.19398 0.0
C2113 C 0.83237 0.12211 0.24726 0.0
C2114 C 0.82868 0.09221 0.18432 0.0
C2115 C 0.8243 0.13121 0.26805 0.0
C2116 C 0.86459 0.05311 0.10759 0.0
C2117 C 0.85587 0.06137 0.12909 0.0
C2118 C 0.85772 0.09108 0.19078 0.0
C2119 C 0.82703 0.10908 0.23629 0.0
C2120 C 0.83529 0.09988 0.21184 0.0
C2121 C 0.85956 0.07521 0.13741 0.0
C2122 C 0.85112 0.08357 0.16311 0.0
H2123 H 0.79497 0.11123 0.27576 0.0
H2124 H 0.80921 0.09516 0.2405 0.0
H2125 H 0.85536 0.10456 0.23616 0.0
H2126 H 0.88992 0.07728 0.09024 0.0
H2127 H 0.87474 0.09158 0.12775 0.0
C2128 C 0.86958 0.55406 0.01206 0.0
C2129 C 0.88138 0.56084 0.02635 0.0
C2130 C 0.86016 0.56135 0.99007 0.0
C2131 C 0.85942 0.59068 0.92742 0.0
H2132 H 0.81925 0.59071 0.9401 0.0
C2133 C 0.82414 0.63012 0.85401 0.0
C2134 C 0.81041 0.62635 0.84496 0.0
C2135 C 0.83263 0.62103 0.87372 0.0
C2136 C 0.83043 0.59061 0.93567 0.0
H2137 H 0.89219 0.58076 0.02981 0.0
H2138 H 0.87589 0.59331 0.99133 0.0
H2139 H 0.83392 0.57698 0.98069 0.0
H2140 H 0.79503 0.60974 0.84815 0.0
H2141 H 0.81001 0.59366 0.8815 0.0
H2142 H 0.85608 0.60405 0.88222 0.0
C2143 C 0.87396 0.58237 -0.00301 0.0
C2144 C 0.83882 0.58279 0.95911 0.0
C2145 C 0.88324 0.57517 0.01927 0.0
C2146 C 0.80556 0.613 0.85478 0.0
C2147 C 0.81411 0.60383 0.87424 0.0
C2148 C 0.85106 0.59832 0.90373 0.0
C2149 C 0.86249 0.57548 0.98158 0.0
C2150 C 0.85341 0.58298 0.9556 0.0
C2151 C 0.82767 0.60783 0.8846 0.0
C2152 C 0.83645 0.59863 0.9079 0.0
H2153 H 0.86784 0.54303 0.01695 0.0
H2154 H 0.85138 0.55579 0.97853 0.0
H2155 H 0.87064 0.59079 0.92369 0.0
H2156 H 0.8282 0.64035 0.84715 0.0
H2157 H 0.8429 0.62463 0.88158 0.0
C2158 C 0.12064 0.07287 0.60403 0.0
C2159 C 0.12405 0.05887 0.59665 0.0
C2160 C 0.12925 0.08105 0.62589 0.0
C2161 C 0.15656 0.07772 0.69627 0.0
H2162 H 0.16003 0.1177 0.68146 0.0
C2163 C 0.1945 0.11382 0.77601 0.0
C2164 C 0.18926 0.12693 0.78664 0.0
C2165 C 0.18651 0.10493 0.75433 0.0
C2166 C 0.15905 0.10656 0.68613 0.0
H2167 H 0.13958 0.04269 0.60515 0.0
H2168 H 0.15485 0.05711 0.64234 0.0
H2169 H 0.14716 0.10366 0.63809 0.0
H2170 H 0.17124 0.14066 0.78408 0.0
H2171 H 0.15737 0.12516 0.74621 0.0
H2172 H 0.16875 0.08072 0.74409 0.0
C2173 C 0.1453 0.06166 0.63205 0.0
C2174 C 0.15166 0.09849 0.66127 0.0
C2175 C 0.13661 0.05343 0.61038 0.0
C2176 C 0.17561 0.13065 0.77643 0.0
C2177 C 0.1677 0.12183 0.75446 0.0
C2178 C 0.1641 0.0858 0.72096 0.0
C2179 C 0.14159 0.0755 0.64071 0.0
C2180 C 0.15018 0.08397 0.66614 0.0
C2181 C 0.17318 0.10902 0.7425 0.0
C2182 C 0.1653 0.10033 0.71634 0.0
H2183 H 0.11101 0.07739 0.59413 0.0
H2184 H 0.1259 0.09158 0.63225 0.0
H2185 H 0.15548 0.06663 0.70132 0.0
H2186 H 0.20497 0.11063 0.78337 0.0
H2187 H 0.19102 0.09513 0.74549 0.0
C2188 C 0.69473 0.38811 0.3583 0.0
C2189 C 0.68951 0.37492 0.34829 0.0
C2190 C 0.6867 0.39719 0.37934 0.0
C2191 C 0.65901 0.39618 0.44686 0.0
H2192 H 0.65508 0.43588 0.4284 0.0
C2193 C 0.61938 0.43017 0.52359 0.0
C2194 C 0.62255 0.44427 0.53046 0.0
C2195 C 0.62833 0.42192 0.50289 0.0
C2196 C 0.65627 0.42486 0.43435 0.0
H2197 H 0.67148 0.36122 0.3513 0.0
H2198 H 0.65753 0.37703 0.38805 0.0
H2199 H 0.66878 0.42144 0.38731 0.0
H2200 H 0.63795 0.46058 0.52219 0.0
H2201 H 0.6538 0.44604 0.48691 0.0
H2202 H 0.64676 0.39952 0.49409 0.0
C2203 C 0.66789 0.38028 0.37984 0.0
C2204 C 0.66405 0.41659 0.41064 0.0
C2205 C 0.67585 0.37128 0.35852 0.0
C2206 C 0.63518 0.44976 0.51734 0.0
C2207 C 0.6442 0.44146 0.49679 0.0
C2208 C 0.65137 0.40446 0.47074 0.0
C2209 C 0.67334 0.3932 0.3911 0.0
C2210 C 0.66534 0.40213 0.41643 0.0
C2211 C 0.64076 0.42749 0.48874 0.0
C2212 C 0.64974 0.41888 0.4646 0.0
H2213 H 0.70521 0.39125 0.35088 0.0
H2214 H 0.69117 0.40707 0.38767 0.0
H2215 H 0.66007 0.38511 0.45241 0.0
H2216 H 0.60972 0.42559 0.53307 0.0
H2217 H 0.62519 0.41129 0.49691 0.0
C2218 C 0.37892 0.92671 0.09508 0.0
C2219 C 0.37533 0.94078 0.08924 0.0
C2220 C 0.37031 0.91798 0.1155 0.0
C2221 C 0.34258 0.91955 0.18511 0.0
H2222 H 0.33965 0.87988 0.16518 0.0
C2223 C 0.3049 0.88186 0.2604 0.0
C2224 C 0.31017 0.86859 0.26955 0.0
C2225 C 0.3128 0.89109 0.23945 0.0
C2226 C 0.34048 0.89092 0.17129 0.0
H2227 H 0.35948 0.95652 0.09898 0.0
H2228 H 0.34422 0.94118 0.1337 0.0
H2229 H 0.3526 0.8949 0.12413 0.0
H2230 H 0.32813 0.85486 0.26486 0.0
H2231 H 0.34186 0.87097 0.22831 0.0
H2232 H 0.33023 0.9155 0.23209 0.0
C2233 C 0.35391 0.93698 0.12328 0.0
C2234 C 0.34791 0.89955 0.14775 0.0
C2235 C 0.36259 0.94575 0.10302 0.0
C2236 C 0.32373 0.86499 0.25835 0.0
C2237 C 0.33157 0.87417 0.23713 0.0
C2238 C 0.33503 0.91092 0.2085 0.0
C2239 C 0.35779 0.92305 0.13043 0.0
C2240 C 0.34918 0.91398 0.15447 0.0
C2241 C 0.32609 0.88722 0.22689 0.0
C2242 C 0.334 0.89648 0.20203 0.0
H2243 H 0.38869 0.92252 0.08507 0.0
H2244 H 0.37377 0.9074 0.12071 0.0
H2245 H 0.34351 0.93055 0.19159 0.0
H2246 H 0.2945 0.88497 0.26854 0.0
H2247 H 0.30828 0.90106 0.23192 0.0
C2248 C 0.82133 0.37518 0.77285 0.0
C2249 C 0.80756 0.37817 0.78328 0.0
C2250 C 0.8291 0.3849 0.75321 0.0
C2251 C 0.82453 0.41584 0.69387 0.0
H2252 H 0.86486 0.41738 0.70187 0.0
C2253 C 0.8613 0.45461 0.61633 0.0
C2254 C 0.87295 0.44822 0.60012 0.0
C2255 C 0.85241 0.44686 0.63874 0.0
C2256 C 0.85359 0.41703 0.69932 0.0
H2257 H 0.79137 0.39404 0.78276 0.0
H2258 H 0.8051 0.41122 0.74957 0.0
H2259 H 0.85157 0.40309 0.74389 0.0
H2260 H 0.88395 0.42853 0.59348 0.0
H2261 H 0.86861 0.41521 0.63269 0.0
H2262 H 0.82672 0.43004 0.64944 0.0
C2263 C 0.80978 0.40118 0.75564 0.0
C2264 C 0.84596 0.40879 0.72329 0.0
C2265 C 0.80194 0.39138 0.775 0.0
C2266 C 0.87513 0.43383 0.60556 0.0
C2267 C 0.8664 0.42618 0.62823 0.0
C2268 C 0.83218 0.42426 0.67018 0.0
C2269 C 0.82336 0.39797 0.74382 0.0
C2270 C 0.83134 0.40783 0.72046 0.0
C2271 C 0.85515 0.43268 0.64568 0.0
C2272 C 0.84681 0.42469 0.67224 0.0
H2273 H 0.82595 0.36508 0.77852 0.0
H2274 H 0.83942 0.38191 0.74419 0.0
H2275 H 0.81331 0.41526 0.69049 0.0
H2276 H 0.85932 0.46567 0.61273 0.0
H2277 H 0.84377 0.45209 0.65186 0.0
C2278 C 0.3782 0.07726 0.51931 0.0
C2279 C 0.37442 0.06324 0.52523 0.0
C2280 C 0.36951 0.0862 0.49971 0.0
C2281 C 0.34075 0.08551 0.43266 0.0
H2282 H 0.33865 0.12507 0.45469 0.0
C2283 C 0.30241 0.1241 0.36263 0.0
C2284 C 0.30765 0.1374 0.35367 0.0
C2285 C 0.31051 0.11466 0.38248 0.0
C2286 C 0.33923 0.11406 0.44797 0.0
H2287 H 0.3582 0.0478 0.5163 0.0
H2288 H 0.34283 0.06351 0.48298 0.0
H2289 H 0.35206 0.1096 0.49364 0.0
H2290 H 0.32573 0.15098 0.35762 0.0
H2291 H 0.33982 0.13452 0.39222 0.0
H2292 H 0.32771 0.09004 0.38721 0.0
C2293 C 0.35271 0.06751 0.49274 0.0
C2294 C 0.34694 0.10517 0.47031 0.0
C2295 C 0.36146 0.05853 0.51219 0.0
C2296 C 0.32135 0.14084 0.36401 0.0
C2297 C 0.3294 0.13145 0.38413 0.0
C2298 C 0.33293 0.0944 0.41047 0.0
C2299 C 0.35672 0.08141 0.48568 0.0
C2300 C 0.34791 0.09078 0.46284 0.0
C2301 C 0.32399 0.11835 0.39412 0.0
C2302 C 0.33219 0.1088 0.41771 0.0
H2303 H 0.38813 0.08124 0.52873 0.0
H2304 H 0.37308 0.09675 0.49451 0.0
H2305 H 0.34142 0.07454 0.42562 0.0
H2306 H 0.2919 0.12111 0.35515 0.0
H2307 H 0.30602 0.10467 0.38986 0.0
C2308 C 0.6202 0.57254 0.10178 0.0
C2309 C 0.62322 0.55835 0.09575 0.0
C2310 C 0.62912 0.58081 0.12257 0.0
C2311 C 0.65649 0.57769 0.19276 0.0
H2312 H 0.66081 0.61739 0.17474 0.0
C2313 C 0.69496 0.61407 0.26999 0.0
C2314 C 0.68979 0.62728 0.27994 0.0
C2315 C 0.68693 0.60507 0.24869 0.0
C2316 C 0.6596 0.60633 0.18026 0.0
H2317 H 0.63837 0.54191 0.10535 0.0
H2318 H 0.65418 0.55646 0.14063 0.0
H2319 H 0.64763 0.6031 0.13248 0.0
H2320 H 0.67188 0.64113 0.27654 0.0
H2321 H 0.65796 0.62546 0.2393 0.0
H2322 H 0.66873 0.58101 0.24032 0.0
C2323 C 0.6447 0.56111 0.13015 0.0
C2324 C 0.65203 0.59813 0.15606 0.0
C2325 C 0.6357 0.55279 0.10958 0.0
C2326 C 0.6762 0.63104 0.2694 0.0
C2327 C 0.66825 0.62212 0.24779 0.0
C2328 C 0.6642 0.5859 0.21677 0.0
C2329 C 0.64137 0.57515 0.1376 0.0
C2330 C 0.65023 0.58372 0.16216 0.0
C2331 C 0.67365 0.60918 0.23658 0.0
C2332 C 0.66569 0.60033 0.21098 0.0
H2333 H 0.61064 0.57716 0.09174 0.0
H2334 H 0.62607 0.5915 0.12801 0.0
H2335 H 0.65515 0.5667 0.19873 0.0
H2336 H 0.70539 0.61085 0.27764 0.0
H2337 H 0.69136 0.59516 0.24041 0.0
C2338 C 0.17767 0.87214 0.8475 0.0
C2339 C 0.19135 0.87581 0.83751 0.0
C2340 C 0.16976 0.88098 0.86941 0.0
C2341 C 0.1661 0.91694 0.90298 0.0
H2342 H 0.14935 0.89904 0.98599 0.0
C2343 C 0.13824 0.94922 0.01307 0.0
C2344 C 0.12574 0.94366 0.02681 0.0
C2345 C 0.14704 0.94104 0.9916 0.0
C2346 C 0.15379 0.90421 0.96277 0.0
H2347 H 0.20712 0.89204 0.84104 0.0
H2348 H 0.19315 0.90759 0.87878 0.0
H2349 H 0.16228 0.88504 0.94264 0.0
H2350 H 0.11293 0.92498 0.02959 0.0
H2351 H 0.12802 0.91089 0.99178 0.0
H2352 H 0.15734 0.93607 0.9225 0.0
C2353 C 0.18863 0.89781 0.86984 0.0
C2354 C 0.16122 0.89617 0.93793 0.0
C2355 C 0.19662 0.88889 0.84824 0.0
C2356 C 0.12252 0.92959 0.01968 0.0
C2357 C 0.13123 0.92147 -0.002 0.0
C2358 C 0.15852 0.92498 0.92763 0.0
C2359 C 0.17527 0.89376 0.88149 0.0
C2360 C 0.16739 0.90243 0.90767 0.0
C2361 C 0.1435 0.92713 0.98313 0.0
C2362 C 0.15219 0.91871 0.9578 0.0
H2363 H 0.17327 0.86215 0.83977 0.0
H2364 H 0.1594 0.87768 0.87753 0.0
H2365 H 0.1707 0.92203 0.87981 0.0
H2366 H 0.14106 0.96001 0.01811 0.0
H2367 H 0.15654 0.94569 0.98127 0.0
loop_
_geom_bond_atom_site_label_1
_geom_bond_atom_site_label_2
_geom_bond_distance
_geom_bond_site_symmetry_2
_ccdc_geom_bond_type
C0 O2 1.247 . S
C0 O4 1.258 . S
C1 O8 1.247 . S
C1 O9 1.258 . S
O2 C0 1.247 . S
O2 Zn3 2.028 . S
Zn3 O2 2.028 . S
Zn3 O7 2.035 . S
Zn3 O9 2.035 . S
Zn3 O10 2.028 . S
O4 C0 1.258 . S
O4 Zn5 2.035 . S
Zn5 O4 2.035 . S
Zn5 O6 2.028 . S
Zn5 O8 2.028 . S
Zn5 O11 2.035 . S
O6 Zn5 2.028 . S
O6 C12 1.247 . S
O7 Zn3 2.035 . S
O7 C12 1.258 . S
O8 C1 1.247 . S
O8 Zn5 2.028 . S
O9 C1 1.258 . S
O9 Zn3 2.035 . S
O10 Zn3 2.028 . S
O10 C13 1.247 . S
O11 Zn5 2.035 . S
O11 C13 1.258 . S
C12 O6 1.247 . S
C12 O7 1.258 . S
C13 O10 1.247 . S
C13 O11 1.258 . S
C14 O16 1.247 . S
C14 O18 1.258 . S
C15 O22 1.247 . S
C15 O23 1.258 . S
O16 C14 1.247 . S
O16 Zn17 2.028 . S
Zn17 O16 2.028 . S
Zn17 O21 2.035 . S
Zn17 O23 2.035 . S
Zn17 O24 2.028 . S
O18 C14 1.258 . S
O18 Zn19 2.035 . S
Zn19 O18 2.035 . S
Zn19 O20 2.028 . S
Zn19 O22 2.028 . S
Zn19 O25 2.035 . S
O20 Zn19 2.028 . S
O20 C26 1.247 . S
O21 Zn17 2.035 . S
O21 C26 1.258 . S
O22 C15 1.247 . S
O22 Zn19 2.028 . S
O23 C15 1.258 . S
O23 Zn17 2.035 . S
O24 Zn17 2.028 . S
O24 C27 1.247 . S
O25 Zn19 2.035 . S
O25 C27 1.258 . S
C26 O20 1.247 . S
C26 O21 1.258 . S
C27 O24 1.247 . S
C27 O25 1.258 . S
C28 O30 1.247 . S
C28 O32 1.258 . S
C29 O36 1.247 . S
C29 O37 1.258 . S
O30 C28 1.247 . S
O30 Zn31 2.028 . S
Zn31 O30 2.028 . S
Zn31 O35 2.035 . S
Zn31 O37 2.035 . S
Zn31 O38 2.028 . S
O32 C28 1.258 . S
O32 Zn33 2.035 . S
Zn33 O32 2.035 . S
Zn33 O34 2.028 . S
Zn33 O36 2.028 . S
Zn33 O39 2.035 . S
O34 Zn33 2.028 . S
O34 C40 1.247 . S
O35 Zn31 2.035 . S
O35 C40 1.258 . S
O36 C29 1.247 . S
O36 Zn33 2.028 . S
O37 C29 1.258 . S
O37 Zn31 2.035 . S
O38 Zn31 2.028 . S
O38 C41 1.247 . S
O39 Zn33 2.035 . S
O39 C41 1.258 . S
C40 O34 1.247 . S
C40 O35 1.258 . S
C41 O38 1.247 . S
C41 O39 1.258 . S
C42 O44 1.247 . S
C42 O46 1.258 . S
C43 O50 1.247 . S
C43 O51 1.258 . S
O44 C42 1.247 . S
O44 Zn45 2.028 . S
Zn45 O44 2.028 . S
Zn45 O49 2.035 . S
Zn45 O51 2.035 . S
Zn45 O52 2.028 . S
O46 C42 1.258 . S
O46 Zn47 2.035 . S
Zn47 O46 2.035 . S
Zn47 O48 2.028 . S
Zn47 O50 2.028 . S
Zn47 O53 2.035 . S
O48 Zn47 2.028 . S
O48 C54 1.247 . S
O49 Zn45 2.035 . S
O49 C54 1.258 . S
O50 C43 1.247 . S
O50 Zn47 2.028 . S
O51 C43 1.258 . S
O51 Zn45 2.035 . S
O52 Zn45 2.028 . S
O52 C55 1.247 . S
O53 Zn47 2.035 . S
O53 C55 1.258 . S
C54 O48 1.247 . S
C54 O49 1.258 . S
C55 O52 1.247 . S
C55 O53 1.258 . S
C56 O58 1.247 . S
C56 O60 1.258 . S
C57 O64 1.247 . S
C57 O65 1.258 . S
O58 C56 1.247 . S
O58 Zn59 2.028 . S
Zn59 O58 2.028 . S
Zn59 O63 2.035 . S
Zn59 O65 2.035 . S
Zn59 O66 2.028 . S
O60 C56 1.258 . S
O60 Zn61 2.035 . S
Zn61 O60 2.035 . S
Zn61 O62 2.028 . S
Zn61 O64 2.028 . S
Zn61 O67 2.035 . S
O62 Zn61 2.028 . S
O62 C68 1.247 . S
O63 Zn59 2.035 . S
O63 C68 1.258 . S
O64 C57 1.247 . S
O64 Zn61 2.028 . S
O65 C57 1.258 . S
O65 Zn59 2.035 . S
O66 Zn59 2.028 . S
O66 C69 1.247 . S
O67 Zn61 2.035 . S
O67 C69 1.258 . S
C68 O62 1.247 . S
C68 O63 1.258 . S
C69 O66 1.247 . S
C69 O67 1.258 . S
C70 O72 1.247 . S
C70 O74 1.258 . S
C71 O78 1.247 . S
C71 O79 1.258 . S
O72 C70 1.247 . S
O72 Zn73 2.028 . S
Zn73 O72 2.028 . S
Zn73 O77 2.035 . S
Zn73 O79 2.035 . S
Zn73 O80 2.028 . S
O74 C70 1.258 . S
O74 Zn75 2.035 . S
Zn75 O74 2.035 . S
Zn75 O76 2.028 . S
Zn75 O78 2.028 . S
Zn75 O81 2.035 . S
O76 Zn75 2.028 . S
O76 C82 1.247 . S
O77 Zn73 2.035 . S
O77 C82 1.258 . S
O78 C71 1.247 . S
O78 Zn75 2.028 . S
O79 C71 1.258 . S
O79 Zn73 2.035 . S
O80 Zn73 2.028 . S
O80 C83 1.247 . S
O81 Zn75 2.035 . S
O81 C83 1.258 . S
C82 O76 1.247 . S
C82 O77 1.258 . S
C83 O80 1.247 . S
C83 O81 1.258 . S
C84 O86 1.247 . S
C84 O88 1.258 . S
C85 O92 1.247 . S
C85 O93 1.258 . S
O86 C84 1.247 . S
O86 Zn87 2.028 . S
Zn87 O86 2.028 . S
Zn87 O91 2.035 . S
Zn87 O93 2.035 . S
Zn87 O94 2.028 1_554 S
O88 C84 1.258 . S
O88 Zn89 2.035 . S
Zn89 O88 2.035 . S
Zn89 O90 2.028 . S
Zn89 O92 2.028 . S
Zn89 O95 2.035 1_554 S
O90 Zn89 2.028 . S
O90 C96 1.247 . S
O91 Zn87 2.035 . S
O91 C96 1.258 . S
O92 C85 1.247 . S
O92 Zn89 2.028 . S
O93 C85 1.258 . S
O93 Zn87 2.035 . S
O94 Zn87 2.028 1_556 S
O94 C97 1.247 . S
O95 Zn89 2.035 1_556 S
O95 C97 1.258 . S
C96 O90 1.247 . S
C96 O91 1.258 . S
C97 O94 1.247 . S
C97 O95 1.258 . S
C98 O100 1.247 . S
C98 O102 1.258 . S
C99 O106 1.247 . S
C99 O107 1.258 . S
O100 C98 1.247 . S
O100 Zn101 2.028 . S
Zn101 O100 2.028 . S
Zn101 O105 2.035 . S
Zn101 O107 2.035 . S
Zn101 O108 2.028 . S
O102 C98 1.258 . S
O102 Zn103 2.035 . S
Zn103 O102 2.035 . S
Zn103 O104 2.028 . S
Zn103 O106 2.028 . S
Zn103 O109 2.035 . S
O104 Zn103 2.028 . S
O104 C110 1.247 . S
O105 Zn101 2.035 . S
O105 C110 1.258 . S
O106 C99 1.247 . S
O106 Zn103 2.028 . S
O107 C99 1.258 . S
O107 Zn101 2.035 . S
O108 Zn101 2.028 . S
O108 C111 1.247 . S
O109 Zn103 2.035 . S
O109 C111 1.258 . S
C110 O104 1.247 . S
C110 O105 1.258 . S
C111 O108 1.247 . S
C111 O109 1.258 . S
C112 O114 1.247 . S
C112 O116 1.258 . S
C113 O120 1.247 . S
C113 O121 1.258 . S
O114 C112 1.247 . S
O114 Zn115 2.028 1_556 S
Zn115 O114 2.028 1_554 S
Zn115 O119 2.035 . S
Zn115 O121 2.035 . S
Zn115 O122 2.028 . S
O116 C112 1.258 . S
O116 Zn117 2.035 1_556 S
Zn117 O116 2.035 1_554 S
Zn117 O118 2.028 . S
Zn117 O120 2.028 . S
Zn117 O123 2.035 . S
O118 Zn117 2.028 . S
O118 C124 1.247 . S
O119 Zn115 2.035 . S
O119 C124 1.258 . S
O120 C113 1.247 . S
O120 Zn117 2.028 . S
O121 C113 1.258 . S
O121 Zn115 2.035 . S
O122 Zn115 2.028 . S
O122 C125 1.247 . S
O123 Zn117 2.035 . S
O123 C125 1.258 . S
C124 O118 1.247 . S
C124 O119 1.258 . S
C125 O122 1.247 . S
C125 O123 1.258 . S
C126 O128 1.247 . S
C126 O130 1.258 . S
C127 O134 1.247 . S
C127 O135 1.258 . S
O128 C126 1.247 . S
O128 Zn129 2.028 . S
Zn129 O128 2.028 . S
Zn129 O133 2.035 . S
Zn129 O135 2.035 . S
Zn129 O136 2.028 . S
O130 C126 1.258 . S
O130 Zn131 2.035 . S
Zn131 O130 2.035 . S
Zn131 O132 2.028 . S
Zn131 O134 2.028 . S
Zn131 O137 2.035 . S
O132 Zn131 2.028 . S
O132 C138 1.247 . S
O133 Zn129 2.035 . S
O133 C138 1.258 . S
O134 C127 1.247 . S
O134 Zn131 2.028 . S
O135 C127 1.258 . S
O135 Zn129 2.035 . S
O136 Zn129 2.028 . S
O136 C139 1.247 . S
O137 Zn131 2.035 . S
O137 C139 1.258 . S
C138 O132 1.247 . S
C138 O133 1.258 . S
C139 O136 1.247 . S
C139 O137 1.258 . S
C140 O142 1.247 . S
C140 O144 1.258 . S
C141 O148 1.247 . S
C141 O149 1.258 . S
O142 C140 1.247 . S
O142 Zn143 2.028 . S
Zn143 O142 2.028 . S
Zn143 O147 2.035 . S
Zn143 O149 2.035 . S
Zn143 O150 2.028 . S
O144 C140 1.258 . S
O144 Zn145 2.035 . S
Zn145 O144 2.035 . S
Zn145 O146 2.028 . S
Zn145 O148 2.028 . S
Zn145 O151 2.035 . S
O146 Zn145 2.028 . S
O146 C152 1.247 . S
O147 Zn143 2.035 . S
O147 C152 1.258 . S
O148 C141 1.247 . S
O148 Zn145 2.028 . S
O149 C141 1.258 . S
O149 Zn143 2.035 . S
O150 Zn143 2.028 . S
O150 C153 1.247 . S
O151 Zn145 2.035 . S
O151 C153 1.258 . S
C152 O146 1.247 . S
C152 O147 1.258 . S
C153 O150 1.247 . S
C153 O151 1.258 . S
C154 O156 1.247 . S
C154 O158 1.258 . S
C155 O162 1.247 . S
C155 O163 1.258 . S
O156 C154 1.247 . S
O156 Zn157 2.028 . S
Zn157 O156 2.028 . S
Zn157 O161 2.035 . S
Zn157 O163 2.035 . S
Zn157 O164 2.028 . S
O158 C154 1.258 . S
O158 Zn159 2.035 . S
Zn159 O158 2.035 . S
Zn159 O160 2.028 . S
Zn159 O162 2.028 . S
Zn159 O165 2.035 . S
O160 Zn159 2.028 . S
O160 C166 1.247 . S
O161 Zn157 2.035 . S
O161 C166 1.258 . S
O162 C155 1.247 . S
O162 Zn159 2.028 . S
O163 C155 1.258 . S
O163 Zn157 2.035 . S
O164 Zn157 2.028 . S
O164 C167 1.247 . S
O165 Zn159 2.035 . S
O165 C167 1.258 . S
C166 O160 1.247 . S
C166 O161 1.258 . S
C167 O164 1.247 . S
C167 O165 1.258 . S
C168 O170 1.247 . S
C168 O172 1.258 . S
C169 O176 1.247 . S
C169 O177 1.258 . S
O170 C168 1.247 . S
O170 Zn171 2.028 . S
Zn171 O170 2.028 . S
Zn171 O175 2.035 . S
Zn171 O177 2.035 . S
Zn171 O178 2.028 . S
O172 C168 1.258 . S
O172 Zn173 2.035 . S
Zn173 O172 2.035 . S
Zn173 O174 2.028 . S
Zn173 O176 2.028 . S
Zn173 O179 2.035 . S
O174 Zn173 2.028 . S
O174 C180 1.247 . S
O175 Zn171 2.035 . S
O175 C180 1.258 . S
O176 C169 1.247 . S
O176 Zn173 2.028 . S
O177 C169 1.258 . S
O177 Zn171 2.035 . S
O178 Zn171 2.028 . S
O178 C181 1.247 . S
O179 Zn173 2.035 . S
O179 C181 1.258 . S
C180 O174 1.247 . S
C180 O175 1.258 . S
C181 O178 1.247 . S
C181 O179 1.258 . S
C182 O184 1.247 . S
C182 O186 1.258 . S
C183 O190 1.247 . S
C183 O191 1.258 . S
O184 C182 1.247 . S
O184 Zn185 2.028 . S
Zn185 O184 2.028 . S
Zn185 O189 2.035 . S
Zn185 O191 2.035 . S
Zn185 O192 2.028 . S
O186 C182 1.258 . S
O186 Zn187 2.035 . S
Zn187 O186 2.035 . S
Zn187 O188 2.028 . S
Zn187 O190 2.028 . S
Zn187 O193 2.035 . S
O188 Zn187 2.028 . S
O188 C194 1.247 . S
O189 Zn185 2.035 . S
O189 C194 1.258 . S
O190 C183 1.247 . S
O190 Zn187 2.028 . S
O191 C183 1.258 . S
O191 Zn185 2.035 . S
O192 Zn185 2.028 . S
O192 C195 1.247 . S
O193 Zn187 2.035 . S
O193 C195 1.258 . S
C194 O188 1.247 . S
C194 O189 1.258 . S
C195 O192 1.247 . S
C195 O193 1.258 . S
C196 O198 1.247 . S
C196 O200 1.258 . S
C197 O204 1.247 . S
C197 O205 1.258 . S
O198 C196 1.247 . S
O198 Zn199 2.028 . S
Zn199 O198 2.028 . S
Zn199 O203 2.035 . S
Zn199 O205 2.035 . S
Zn199 O206 2.028 . S
O200 C196 1.258 . S
O200 Zn201 2.035 . S
Zn201 O200 2.035 . S
Zn201 O202 2.028 . S
Zn201 O204 2.028 . S
Zn201 O207 2.035 . S
O202 Zn201 2.028 . S
O202 C208 1.247 . S
O203 Zn199 2.035 . S
O203 C208 1.258 . S
O204 C197 1.247 . S
O204 Zn201 2.028 . S
O205 C197 1.258 . S
O205 Zn199 2.035 . S
O206 Zn199 2.028 . S
O206 C209 1.247 . S
O207 Zn201 2.035 . S
O207 C209 1.258 . S
C208 O202 1.247 . S
C208 O203 1.258 . S
C209 O206 1.247 . S
C209 O207 1.258 . S
C210 O212 1.247 . S
C210 O214 1.258 . S
C211 O218 1.247 . S
C211 O219 1.258 . S
O212 C210 1.247 . S
O212 Zn213 2.028 . S
Zn213 O212 2.028 . S
Zn213 O217 2.035 . S
Zn213 O219 2.035 . S
Zn213 O220 2.028 . S
O214 C210 1.258 . S
O214 Zn215 2.035 . S
Zn215 O214 2.035 . S
Zn215 O216 2.028 . S
Zn215 O218 2.028 . S
Zn215 O221 2.035 . S
O216 Zn215 2.028 . S
O216 C222 1.247 . S
O217 Zn213 2.035 . S
O217 C222 1.258 . S
O218 C211 1.247 . S
O218 Zn215 2.028 . S
O219 C211 1.258 . S
O219 Zn213 2.035 . S
O220 Zn213 2.028 . S
O220 C223 1.247 . S
O221 Zn215 2.035 . S
O221 C223 1.258 . S
C222 O216 1.247 . S
C222 O217 1.258 . S
C223 O220 1.247 . S
C223 O221 1.258 . S
C224 O226 1.247 . S
C224 O228 1.258 1_545 S
C225 O232 1.247 . S
C225 O233 1.258 . S
O226 C224 1.247 . S
O226 Zn227 2.028 . S
Zn227 O226 2.028 . S
Zn227 O231 2.035 . S
Zn227 O233 2.035 1_545 S
Zn227 O234 2.026 1_545 S
O228 C224 1.258 1_565 S
O228 Zn229 2.035 . S
Zn229 O228 2.035 . S
Zn229 O230 2.028 . S
Zn229 O232 2.028 . S
Zn229 O235 2.035 . S
O230 Zn229 2.028 . S
O230 C236 1.247 . S
O231 Zn227 2.035 . S
O231 C236 1.258 1_545 S
O232 C225 1.247 . S
O232 Zn229 2.028 . S
O233 C225 1.258 . S
O233 Zn227 2.035 1_565 S
O234 Zn227 2.026 1_565 S
O234 C237 1.254 . S
O235 Zn229 2.035 . S
O235 C237 1.258 . S
C236 O230 1.247 . S
C236 O231 1.258 1_565 S
C237 O234 1.254 . S
C237 O235 1.258 . S
C238 O240 1.247 . S
C238 O242 1.258 . S
C239 O246 1.247 . S
C239 O247 1.258 . S
O240 C238 1.247 . S
O240 Zn241 2.028 . S
Zn241 O240 2.028 . S
Zn241 O245 2.035 . S
Zn241 O247 2.035 . S
Zn241 O248 2.028 . S
O242 C238 1.258 . S
O242 Zn243 2.035 . S
Zn243 O242 2.035 . S
Zn243 O244 2.028 . S
Zn243 O246 2.028 . S
Zn243 O249 2.035 . S
O244 Zn243 2.028 . S
O244 C250 1.247 . S
O245 Zn241 2.035 . S
O245 C250 1.258 . S
O246 C239 1.247 . S
O246 Zn243 2.028 . S
O247 C239 1.258 . S
O247 Zn241 2.035 . S
O248 Zn241 2.028 . S
O248 C251 1.247 . S
O249 Zn243 2.035 . S
O249 C251 1.258 . S
C250 O244 1.247 . S
C250 O245 1.258 . S
C251 O248 1.247 . S
C251 O249 1.258 . S
C252 O254 1.247 . S
C252 O256 1.262 . S
C253 O260 1.247 1_545 S
C253 O261 1.258 . S
O254 C252 1.247 . S
O254 Zn255 2.028 . S
Zn255 O254 2.028 . S
Zn255 O259 2.035 . S
Zn255 O261 2.035 . S
Zn255 O262 2.028 . S
O256 C252 1.262 . S
O256 Zn257 2.034 1_545 S
Zn257 O256 2.034 1_565 S
Zn257 O258 2.028 1_565 S
Zn257 O260 2.028 . S
Zn257 O263 2.035 . S
O258 Zn257 2.028 1_545 S
O258 C264 1.247 . S
O259 Zn255 2.035 . S
O259 C264 1.258 . S
O260 C253 1.247 1_565 S
O260 Zn257 2.028 . S
O261 C253 1.258 . S
O261 Zn255 2.035 . S
O262 Zn255 2.028 . S
O262 C265 1.247 1_545 S
O263 Zn257 2.035 . S
O263 C265 1.258 . S
C264 O258 1.247 . S
C264 O259 1.258 . S
C265 O262 1.247 1_565 S
C265 O263 1.258 . S
C266 O268 1.247 . S
C266 O270 1.258 . S
C267 O274 1.247 . S
C267 O275 1.258 . S
O268 C266 1.247 . S
O268 Zn269 2.028 . S
Zn269 O268 2.028 . S
Zn269 O273 2.035 . S
Zn269 O275 2.035 . S
Zn269 O276 2.028 . S
O270 C266 1.258 . S
O270 Zn271 2.035 . S
Zn271 O270 2.035 . S
Zn271 O272 2.028 . S
Zn271 O274 2.028 . S
Zn271 O277 2.035 . S
O272 Zn271 2.028 . S
O272 C278 1.247 . S
O273 Zn269 2.035 . S
O273 C278 1.258 . S
O274 C267 1.247 . S
O274 Zn271 2.028 . S
O275 C267 1.258 . S
O275 Zn269 2.035 . S
O276 Zn269 2.028 . S
O276 C279 1.247 . S
O277 Zn271 2.035 . S
O277 C279 1.258 . S
C278 O272 1.247 . S
C278 O273 1.258 . S
C279 O276 1.247 . S
C279 O277 1.258 . S
C280 O282 1.247 . S
C280 O284 1.258 1_565 S
C281 O288 1.247 . S
C281 O289 1.258 . S
O282 C280 1.247 . S
O282 Zn283 2.028 . S
Zn283 O282 2.028 . S
Zn283 O287 2.035 1_554 S
Zn283 O289 2.035 1_565 S
Zn283 O290 2.026 1_565 S
O284 C280 1.258 1_545 S
O284 Zn285 2.035 . S
Zn285 O284 2.035 . S
Zn285 O286 2.028 1_554 S
Zn285 O288 2.028 . S
Zn285 O291 2.035 . S
O286 Zn285 2.028 1_556 S
O286 C292 1.247 . S
O287 Zn283 2.035 1_556 S
O287 C292 1.258 1_565 S
O288 C281 1.247 . S
O288 Zn285 2.028 . S
O289 C281 1.258 . S
O289 Zn283 2.035 1_545 S
O290 Zn283 2.026 1_545 S
O290 C293 1.253 . S
O291 Zn285 2.035 . S
O291 C293 1.258 . S
C292 O286 1.247 . S
C292 O287 1.258 1_545 S
C293 O290 1.253 . S
C293 O291 1.258 . S
C294 O296 1.247 . S
C294 O298 1.258 . S
C295 O302 1.247 . S
C295 O303 1.258 . S
O296 C294 1.247 . S
O296 Zn297 2.028 . S
Zn297 O296 2.028 . S
Zn297 O301 2.035 . S
Zn297 O303 2.035 . S
Zn297 O304 2.028 . S
O298 C294 1.258 . S
O298 Zn299 2.035 . S
Zn299 O298 2.035 . S
Zn299 O300 2.028 . S
Zn299 O302 2.028 . S
Zn299 O305 2.035 . S
O300 Zn299 2.028 . S
O300 C306 1.247 . S
O301 Zn297 2.035 . S
O301 C306 1.258 . S
O302 C295 1.247 . S
O302 Zn299 2.028 . S
O303 C295 1.258 . S
O303 Zn297 2.035 . S
O304 Zn297 2.028 . S
O304 C307 1.247 . S
O305 Zn299 2.035 . S
O305 C307 1.258 . S
C306 O300 1.247 . S
C306 O301 1.258 . S
C307 O304 1.247 . S
C307 O305 1.258 . S
C308 O310 1.247 . S
C308 O312 1.261 . S
C309 O316 1.247 1_565 S
C309 O317 1.258 . S
O310 C308 1.247 . S
O310 Zn311 2.028 . S
Zn311 O310 2.028 . S
Zn311 O315 2.035 . S
Zn311 O317 2.035 . S
Zn311 O318 2.028 . S
O312 C308 1.261 . S
O312 Zn313 2.034 1_565 S
Zn313 O312 2.034 1_545 S
Zn313 O314 2.028 1_545 S
Zn313 O316 2.028 . S
Zn313 O319 2.035 . S
O314 Zn313 2.028 1_565 S
O314 C320 1.247 . S
O315 Zn311 2.035 . S
O315 C320 1.258 . S
O316 C309 1.247 1_545 S
O316 Zn313 2.028 . S
O317 C309 1.258 . S
O317 Zn311 2.035 . S
O318 Zn311 2.028 . S
O318 C321 1.247 1_565 S
O319 Zn313 2.035 . S
O319 C321 1.258 . S
C320 O314 1.247 . S
C320 O315 1.258 . S
C321 O318 1.247 1_545 S
C321 O319 1.258 . S
C322 O324 1.247 . S
C322 O326 1.258 . S
C323 O330 1.247 . S
C323 O331 1.258 . S
O324 C322 1.247 . S
O324 Zn325 2.028 . S
Zn325 O324 2.028 . S
Zn325 O329 2.035 . S
Zn325 O331 2.035 . S
Zn325 O332 2.028 . S
O326 C322 1.258 . S
O326 Zn327 2.035 . S
Zn327 O326 2.035 . S
Zn327 O328 2.028 . S
Zn327 O330 2.028 . S
Zn327 O333 2.035 . S
O328 Zn327 2.028 . S
O328 C334 1.247 . S
O329 Zn325 2.035 . S
O329 C334 1.258 . S
O330 C323 1.247 . S
O330 Zn327 2.028 . S
O331 C323 1.258 . S
O331 Zn325 2.035 . S
O332 Zn325 2.028 . S
O332 C335 1.247 . S
O333 Zn327 2.035 . S
O333 C335 1.258 . S
C334 O328 1.247 . S
C334 O329 1.258 . S
C335 O332 1.247 . S
C335 O333 1.258 . S
C336 O338 1.247 . S
C336 O340 1.258 . S
C337 O344 1.247 . S
C337 O345 1.258 1_565 S
O338 C336 1.247 . S
O338 Zn339 2.028 . S
Zn339 O338 2.028 . S
Zn339 O343 2.035 . S
Zn339 O345 2.035 . S
Zn339 O346 2.028 . S
O340 C336 1.258 . S
O340 Zn341 2.035 1_545 S
Zn341 O340 2.035 1_565 S
Zn341 O342 2.026 1_565 S
Zn341 O344 2.028 . S
Zn341 O347 2.035 . S
O342 Zn341 2.026 1_545 S
O342 C348 1.254 . S
O343 Zn339 2.035 . S
O343 C348 1.258 . S
O344 C337 1.247 . S
O344 Zn341 2.028 . S
O345 C337 1.258 1_545 S
O345 Zn339 2.035 . S
O346 Zn339 2.028 . S
O346 C349 1.247 . S
O347 Zn341 2.035 . S
O347 C349 1.258 1_565 S
C348 O342 1.254 . S
C348 O343 1.258 . S
C349 O346 1.247 . S
C349 O347 1.258 1_545 S
C350 O352 1.247 . S
C350 O354 1.258 . S
C351 O358 1.247 . S
C351 O359 1.258 . S
O352 C350 1.247 . S
O352 Zn353 2.028 . S
Zn353 O352 2.028 . S
Zn353 O357 2.035 . S
Zn353 O359 2.035 . S
Zn353 O360 2.028 . S
O354 C350 1.258 . S
O354 Zn355 2.035 . S
Zn355 O354 2.035 . S
Zn355 O356 2.028 . S
Zn355 O358 2.028 . S
Zn355 O361 2.035 . S
O356 Zn355 2.028 . S
O356 C362 1.247 . S
O357 Zn353 2.035 . S
O357 C362 1.258 . S
O358 C351 1.247 . S
O358 Zn355 2.028 . S
O359 C351 1.258 . S
O359 Zn353 2.035 . S
O360 Zn353 2.028 . S
O360 C363 1.247 . S
O361 Zn355 2.035 . S
O361 C363 1.258 . S
C362 O356 1.247 . S
C362 O357 1.258 . S
C363 O360 1.247 . S
C363 O361 1.258 . S
C364 O366 1.247 . S
C364 O368 1.258 . S
C365 O372 1.247 . S
C365 O373 1.258 1_545 S
O366 C364 1.247 . S
O366 Zn367 2.028 . S
Zn367 O366 2.028 . S
Zn367 O371 2.035 . S
Zn367 O373 2.035 . S
Zn367 O374 2.028 1_554 S
O368 C364 1.258 . S
O368 Zn369 2.035 1_565 S
Zn369 O368 2.035 1_545 S
Zn369 O370 2.026 1_545 S
Zn369 O372 2.028 . S
Zn369 O375 2.035 1_554 S
O370 Zn369 2.026 1_565 S
O370 C376 1.253 . S
O371 Zn367 2.035 . S
O371 C376 1.258 . S
O372 C365 1.247 . S
O372 Zn369 2.028 . S
O373 C365 1.258 1_565 S
O373 Zn367 2.035 . S
O374 Zn367 2.028 1_556 S
O374 C377 1.247 . S
O375 Zn369 2.035 1_556 S
O375 C377 1.258 1_545 S
C376 O370 1.253 . S
C376 O371 1.258 . S
C377 O374 1.247 . S
C377 O375 1.258 1_565 S
C378 O380 1.247 . S
C378 O382 1.258 . S
C379 O386 1.247 . S
C379 O387 1.258 . S
O380 C378 1.247 . S
O380 Zn381 2.028 . S
Zn381 O380 2.028 . S
Zn381 O385 2.035 . S
Zn381 O387 2.035 . S
Zn381 O388 2.028 . S
O382 C378 1.258 . S
O382 Zn383 2.035 . S
Zn383 O382 2.035 . S
Zn383 O384 2.028 . S
Zn383 O386 2.028 . S
Zn383 O389 2.035 . S
O384 Zn383 2.028 . S
O384 C390 1.247 . S
O385 Zn381 2.035 . S
O385 C390 1.258 . S
O386 C379 1.247 . S
O386 Zn383 2.028 . S
O387 C379 1.258 . S
O387 Zn381 2.035 . S
O388 Zn381 2.028 . S
O388 C391 1.247 . S
O389 Zn383 2.035 . S
O389 C391 1.258 . S
C390 O384 1.247 . S
C390 O385 1.258 . S
C391 O388 1.247 . S
C391 O389 1.258 . S
C392 O394 1.247 1_565 S
C392 O396 1.258 . S
C393 O400 1.247 . S
C393 O401 1.262 . S
O394 C392 1.247 1_545 S
O394 Zn395 2.028 . S
Zn395 O394 2.028 . S
Zn395 O399 2.035 . S
Zn395 O401 2.034 1_545 S
Zn395 O402 2.028 1_545 S
O396 C392 1.258 . S
O396 Zn397 2.035 . S
Zn397 O396 2.035 . S
Zn397 O398 2.028 . S
Zn397 O400 2.028 . S
Zn397 O403 2.035 . S
O398 Zn397 2.028 . S
O398 C404 1.247 1_565 S
O399 Zn395 2.035 . S
O399 C404 1.258 . S
O400 C393 1.247 . S
O400 Zn397 2.028 . S
O401 C393 1.262 . S
O401 Zn395 2.034 1_565 S
O402 Zn395 2.028 1_565 S
O402 C405 1.247 . S
O403 Zn397 2.035 . S
O403 C405 1.258 . S
C404 O398 1.247 1_545 S
C404 O399 1.258 . S
C405 O402 1.247 . S
C405 O403 1.258 . S
C406 O408 1.247 . S
C406 O410 1.258 . S
C407 O414 1.247 . S
C407 O415 1.258 . S
O408 C406 1.247 . S
O408 Zn409 2.028 . S
Zn409 O408 2.028 . S
Zn409 O413 2.035 . S
Zn409 O415 2.035 . S
Zn409 O416 2.028 . S
O410 C406 1.258 . S
O410 Zn411 2.035 . S
Zn411 O410 2.035 . S
Zn411 O412 2.028 . S
Zn411 O414 2.028 . S
Zn411 O417 2.035 . S
O412 Zn411 2.028 . S
O412 C418 1.247 . S
O413 Zn409 2.035 . S
O413 C418 1.258 . S
O414 C407 1.247 . S
O414 Zn411 2.028 . S
O415 C407 1.258 . S
O415 Zn409 2.035 . S
O416 Zn409 2.028 . S
O416 C419 1.247 . S
O417 Zn411 2.035 . S
O417 C419 1.258 . S
C418 O412 1.247 . S
C418 O413 1.258 . S
C419 O416 1.247 . S
C419 O417 1.258 . S
C420 O422 1.247 1_545 S
C420 O424 1.258 . S
C421 O428 1.247 . S
C421 O429 1.261 . S
O422 C420 1.247 1_565 S
O422 Zn423 2.028 . S
Zn423 O422 2.028 . S
Zn423 O427 2.035 . S
Zn423 O429 2.034 1_565 S
Zn423 O430 2.028 1_565 S
O424 C420 1.258 . S
O424 Zn425 2.035 . S
Zn425 O424 2.035 . S
Zn425 O426 2.028 . S
Zn425 O428 2.028 . S
Zn425 O431 2.035 . S
O426 Zn425 2.028 . S
O426 C432 1.247 1_545 S
O427 Zn423 2.035 . S
O427 C432 1.258 . S
O428 C421 1.247 . S
O428 Zn425 2.028 . S
O429 C421 1.261 . S
O429 Zn423 2.034 1_545 S
O430 Zn423 2.028 1_545 S
O430 C433 1.247 . S
O431 Zn425 2.035 . S
O431 C433 1.258 . S
C432 O426 1.247 1_565 S
C432 O427 1.258 . S
C433 O430 1.247 . S
C433 O431 1.258 . S
C434 O436 1.247 . S
C434 O438 1.258 . S
C435 O442 1.247 . S
C435 O443 1.258 . S
O436 C434 1.247 . S
O436 Zn437 2.028 . S
Zn437 O436 2.028 . S
Zn437 O441 2.035 . S
Zn437 O443 2.035 . S
Zn437 O444 2.028 . S
O438 C434 1.258 . S
O438 Zn439 2.035 . S
Zn439 O438 2.035 . S
Zn439 O440 2.028 . S
Zn439 O442 2.028 . S
Zn439 O445 2.035 . S
O440 Zn439 2.028 . S
O440 C446 1.247 . S
O441 Zn437 2.035 . S
O441 C446 1.258 . S
O442 C435 1.247 . S
O442 Zn439 2.028 . S
O443 C435 1.258 . S
O443 Zn437 2.035 . S
O444 Zn437 2.028 . S
O444 C447 1.247 . S
O445 Zn439 2.035 . S
O445 C447 1.258 . S
C446 O440 1.247 . S
C446 O441 1.258 . S
C447 O444 1.247 . S
C447 O445 1.258 . S
C448 C449 1.349 . S
C448 C450 1.327 . S
C448 H473 0.950 . S
C449 C448 1.349 . S
C449 C465 1.349 . S
C450 C448 1.327 . S
C450 C469 1.429 . S
C450 H474 0.950 . S
C451 C468 1.574 1_655 S
C451 C470 1.368 . S
C451 H475 0.949 . S
H452 C456 0.949 . S
C453 C454 1.349 . S
C453 C455 1.327 . S
C453 H476 0.950 . S
C454 C453 1.349 . S
C454 C466 1.349 . S
C455 C453 1.327 . S
C455 C471 1.429 . S
C455 H477 0.950 . S
C456 H452 0.949 . S
C456 C464 1.574 1_455 S
C456 C472 1.368 . S
H457 C465 0.950 . S
H458 C463 0.950 . S
H459 C464 0.949 . S
H460 C466 0.950 . S
H461 C467 0.950 . S
H462 C468 0.949 . S
C463 H458 0.950 . S
C463 C465 1.327 . S
C463 C469 1.429 . S
C464 C456 1.574 1_655 S
C464 H459 0.949 . S
C464 C470 1.368 . S
C465 C449 1.349 . S
C465 H457 0.950 . S
C465 C463 1.327 . S
C466 C454 1.349 . S
C466 H460 0.950 . S
C466 C467 1.327 . S
C467 H461 0.950 . S
C467 C466 1.327 . S
C467 C471 1.429 . S
C468 C451 1.574 1_455 S
C468 H462 0.949 . S
C468 C472 1.368 . S
C469 C450 1.429 . S
C469 C463 1.429 . S
C469 C470 1.523 . S
C470 C451 1.368 . S
C470 C464 1.368 . S
C470 C469 1.523 . S
C471 C455 1.429 . S
C471 C467 1.429 . S
C471 C472 1.523 . S
C472 C456 1.368 . S
C472 C468 1.368 . S
C472 C471 1.523 . S
H473 C448 0.950 . S
H474 C450 0.950 . S
H475 C451 0.949 . S
H476 C453 0.950 . S
H477 C455 0.950 . S
C478 C479 1.349 . S
C478 C480 1.327 . S
C478 H503 0.950 . S
C479 C478 1.349 . S
C479 C495 1.349 . S
C480 C478 1.327 . S
C480 C499 1.429 . S
C480 H504 0.950 . S
C481 C498 1.574 . S
C481 C500 1.368 . S
C481 H505 0.949 . S
H482 C486 0.949 . S
C483 C484 1.349 . S
C483 C485 1.327 . S
C483 H506 0.950 . S
C484 C483 1.349 . S
C484 C496 1.349 . S
C485 C483 1.327 . S
C485 C501 1.429 . S
C485 H507 0.950 . S
C486 H482 0.949 . S
C486 C494 1.574 . S
C486 C502 1.368 . S
H487 C495 0.950 . S
H488 C493 0.950 . S
H489 C494 0.949 . S
H490 C496 0.950 . S
H491 C497 0.950 . S
H492 C498 0.949 . S
C493 H488 0.950 . S
C493 C495 1.327 . S
C493 C499 1.429 . S
C494 C486 1.574 . S
C494 H489 0.949 . S
C494 C500 1.368 . S
C495 C479 1.349 . S
C495 H487 0.950 . S
C495 C493 1.327 . S
C496 C484 1.349 . S
C496 H490 0.950 . S
C496 C497 1.327 . S
C497 H491 0.950 . S
C497 C496 1.327 . S
C497 C501 1.429 . S
C498 C481 1.574 . S
C498 H492 0.949 . S
C498 C502 1.368 . S
C499 C480 1.429 . S
C499 C493 1.429 . S
C499 C500 1.523 . S
C500 C481 1.368 . S
C500 C494 1.368 . S
C500 C499 1.523 . S
C501 C485 1.429 . S
C501 C497 1.429 . S
C501 C502 1.523 . S
C502 C486 1.368 . S
C502 C498 1.368 . S
C502 C501 1.523 . S
H503 C478 0.950 . S
H504 C480 0.950 . S
H505 C481 0.949 . S
H506 C483 0.950 . S
H507 C485 0.950 . S
C508 C509 1.349 . S
C508 C510 1.327 . S
C508 H533 0.950 . S
C509 C508 1.349 . S
C509 C525 1.349 . S
C510 C508 1.327 . S
C510 C529 1.429 . S
C510 H534 0.950 . S
C511 C528 1.574 . S
C511 C530 1.368 . S
C511 H535 0.949 . S
H512 C516 0.949 . S
C513 C514 1.349 . S
C513 C515 1.327 . S
C513 H536 0.950 . S
C514 C513 1.349 . S
C514 C526 1.349 . S
C515 C513 1.327 . S
C515 C531 1.429 . S
C515 H537 0.950 . S
C516 H512 0.949 . S
C516 C524 1.574 . S
C516 C532 1.368 . S
H517 C525 0.950 . S
H518 C523 0.950 . S
H519 C524 0.949 . S
H520 C526 0.950 . S
H521 C527 0.950 . S
H522 C528 0.949 . S
C523 H518 0.950 . S
C523 C525 1.327 . S
C523 C529 1.429 . S
C524 C516 1.574 . S
C524 H519 0.949 . S
C524 C530 1.368 . S
C525 C509 1.349 . S
C525 H517 0.950 . S
C525 C523 1.327 . S
C526 C514 1.349 . S
C526 H520 0.950 . S
C526 C527 1.327 . S
C527 H521 0.950 . S
C527 C526 1.327 . S
C527 C531 1.429 . S
C528 C511 1.574 . S
C528 H522 0.949 . S
C528 C532 1.368 . S
C529 C510 1.429 . S
C529 C523 1.429 . S
C529 C530 1.523 . S
C530 C511 1.368 . S
C530 C524 1.368 . S
C530 C529 1.523 . S
C531 C515 1.429 . S
C531 C527 1.429 . S
C531 C532 1.523 . S
C532 C516 1.368 . S
C532 C528 1.368 . S
C532 C531 1.523 . S
H533 C508 0.950 . S
H534 C510 0.950 . S
H535 C511 0.949 . S
H536 C513 0.950 . S
H537 C515 0.950 . S
C538 C539 1.349 . S
C538 C540 1.327 . S
C538 H563 0.950 . S
C539 C538 1.349 . S
C539 C555 1.349 . S
C540 C538 1.327 . S
C540 C559 1.429 . S
C540 H564 0.950 . S
C541 C558 1.574 . S
C541 C560 1.368 . S
C541 H565 0.949 . S
H542 C546 0.949 . S
C543 C544 1.349 . S
C543 C545 1.327 . S
C543 H566 0.950 . S
C544 C543 1.349 . S
C544 C556 1.349 . S
C545 C543 1.327 . S
C545 C561 1.429 . S
C545 H567 0.950 . S
C546 H542 0.949 . S
C546 C554 1.574 . S
C546 C562 1.368 . S
H547 C555 0.950 . S
H548 C553 0.950 . S
H549 C554 0.949 . S
H550 C556 0.950 . S
H551 C557 0.950 . S
H552 C558 0.949 . S
C553 H548 0.950 . S
C553 C555 1.327 . S
C553 C559 1.429 . S
C554 C546 1.574 . S
C554 H549 0.949 . S
C554 C560 1.368 . S
C555 C539 1.349 . S
C555 H547 0.950 . S
C555 C553 1.327 . S
C556 C544 1.349 . S
C556 H550 0.950 . S
C556 C557 1.327 . S
C557 H551 0.950 . S
C557 C556 1.327 . S
C557 C561 1.429 . S
C558 C541 1.574 . S
C558 H552 0.949 . S
C558 C562 1.368 . S
C559 C540 1.429 . S
C559 C553 1.429 . S
C559 C560 1.523 . S
C560 C541 1.368 . S
C560 C554 1.368 . S
C560 C559 1.523 . S
C561 C545 1.429 . S
C561 C557 1.429 . S
C561 C562 1.523 . S
C562 C546 1.368 . S
C562 C558 1.368 . S
C562 C561 1.523 . S
H563 C538 0.950 . S
H564 C540 0.950 . S
H565 C541 0.949 . S
H566 C543 0.950 . S
H567 C545 0.950 . S
C568 C569 1.349 . S
C568 C570 1.327 . S
C568 H593 0.950 . S
C569 C568 1.349 . S
C569 C585 1.349 . S
C570 C568 1.327 . S
C570 C589 1.429 . S
C570 H594 0.950 . S
C571 C588 1.574 1_455 S
C571 C590 1.368 . S
C571 H595 0.949 . S
H572 C576 0.949 . S
C573 C574 1.349 . S
C573 C575 1.327 . S
C573 H596 0.950 . S
C574 C573 1.349 . S
C574 C586 1.349 . S
C575 C573 1.327 . S
C575 C591 1.429 . S
C575 H597 0.950 . S
C576 H572 0.949 . S
C576 C584 1.574 1_655 S
C576 C592 1.368 . S
H577 C585 0.950 . S
H578 C583 0.950 . S
H579 C584 0.949 . S
H580 C586 0.950 . S
H581 C587 0.950 . S
H582 C588 0.949 . S
C583 H578 0.950 . S
C583 C585 1.327 . S
C583 C589 1.429 . S
C584 C576 1.574 1_455 S
C584 H579 0.949 . S
C584 C590 1.368 . S
C585 C569 1.349 . S
C585 H577 0.950 . S
C585 C583 1.327 . S
C586 C574 1.349 . S
C586 H580 0.950 . S
C586 C587 1.327 . S
C587 H581 0.950 . S
C587 C586 1.327 . S
C587 C591 1.429 . S
C588 C571 1.574 1_655 S
C588 H582 0.949 . S
C588 C592 1.368 . S
C589 C570 1.429 . S
C589 C583 1.429 . S
C589 C590 1.523 . S
C590 C571 1.368 . S
C590 C584 1.368 . S
C590 C589 1.523 . S
C591 C575 1.429 . S
C591 C587 1.429 . S
C591 C592 1.523 . S
C592 C576 1.368 . S
C592 C588 1.368 . S
C592 C591 1.523 . S
H593 C568 0.950 . S
H594 C570 0.950 . S
H595 C571 0.949 . S
H596 C573 0.950 . S
H597 C575 0.950 . S
C598 C599 1.349 . S
C598 C600 1.327 . S
C598 H623 0.950 . S
C599 C598 1.349 . S
C599 C615 1.349 . S
C600 C598 1.327 . S
C600 C619 1.429 . S
C600 H624 0.950 . S
C601 C618 1.574 . S
C601 C620 1.368 . S
C601 H625 0.949 . S
H602 C606 0.949 . S
C603 C604 1.349 . S
C603 C605 1.327 . S
C603 H626 0.950 . S
C604 C603 1.349 . S
C604 C616 1.349 . S
C605 C603 1.327 . S
C605 C621 1.429 . S
C605 H627 0.950 . S
C606 H602 0.949 . S
C606 C614 1.574 . S
C606 C622 1.368 . S
H607 C615 0.950 . S
H608 C613 0.950 . S
H609 C614 0.949 . S
H610 C616 0.950 . S
H611 C617 0.950 . S
H612 C618 0.949 . S
C613 H608 0.950 . S
C613 C615 1.327 . S
C613 C619 1.429 . S
C614 C606 1.574 . S
C614 H609 0.949 . S
C614 C620 1.368 . S
C615 C599 1.349 . S
C615 H607 0.950 . S
C615 C613 1.327 . S
C616 C604 1.349 . S
C616 H610 0.950 . S
C616 C617 1.327 . S
C617 H611 0.950 . S
C617 C616 1.327 . S
C617 C621 1.429 . S
C618 C601 1.574 . S
C618 H612 0.949 . S
C618 C622 1.368 . S
C619 C600 1.429 . S
C619 C613 1.429 . S
C619 C620 1.523 . S
C620 C601 1.368 . S
C620 C614 1.368 . S
C620 C619 1.523 . S
C621 C605 1.429 . S
C621 C617 1.429 . S
C621 C622 1.523 . S
C622 C606 1.368 . S
C622 C618 1.368 . S
C622 C621 1.523 . S
H623 C598 0.950 . S
H624 C600 0.950 . S
H625 C601 0.949 . S
H626 C603 0.950 . S
H627 C605 0.950 . S
C628 C629 1.349 . S
C628 C630 1.327 . S
C628 H653 0.950 . S
C629 C628 1.349 . S
C629 C645 1.349 . S
C630 C628 1.327 . S
C630 C649 1.429 . S
C630 H654 0.950 . S
C631 C648 1.574 . S
C631 C650 1.368 . S
C631 H655 0.949 . S
H632 C636 0.949 . S
C633 C634 1.349 . S
C633 C635 1.327 . S
C633 H656 0.950 . S
C634 C633 1.349 . S
C634 C646 1.349 . S
C635 C633 1.327 . S
C635 C651 1.429 . S
C635 H657 0.950 . S
C636 H632 0.949 . S
C636 C644 1.574 . S
C636 C652 1.368 . S
H637 C645 0.950 . S
H638 C643 0.950 . S
H639 C644 0.949 . S
H640 C646 0.950 . S
H641 C647 0.950 . S
H642 C648 0.949 . S
C643 H638 0.950 . S
C643 C645 1.327 . S
C643 C649 1.429 . S
C644 C636 1.574 . S
C644 H639 0.949 . S
C644 C650 1.368 . S
C645 C629 1.349 . S
C645 H637 0.950 . S
C645 C643 1.327 . S
C646 C634 1.349 . S
C646 H640 0.950 . S
C646 C647 1.327 . S
C647 H641 0.950 . S
C647 C646 1.327 . S
C647 C651 1.429 . S
C648 C631 1.574 . S
C648 H642 0.949 . S
C648 C652 1.368 . S
C649 C630 1.429 . S
C649 C643 1.429 . S
C649 C650 1.523 . S
C650 C631 1.368 . S
C650 C644 1.368 . S
C650 C649 1.523 . S
C651 C635 1.429 . S
C651 C647 1.429 . S
C651 C652 1.523 . S
C652 C636 1.368 . S
C652 C648 1.368 . S
C652 C651 1.523 . S
H653 C628 0.950 . S
H654 C630 0.950 . S
H655 C631 0.949 . S
H656 C633 0.950 . S
H657 C635 0.950 . S
C658 C659 1.349 . S
C658 C660 1.327 . S
C658 H683 0.950 . S
C659 C658 1.349 . S
C659 C675 1.349 . S
C660 C658 1.327 . S
C660 C679 1.429 . S
C660 H684 0.950 . S
C661 C678 1.574 . S
C661 C680 1.368 . S
C661 H685 0.949 . S
H662 C666 0.949 . S
C663 C664 1.349 . S
C663 C665 1.327 . S
C663 H686 0.950 . S
C664 C663 1.349 . S
C664 C676 1.349 . S
C665 C663 1.327 . S
C665 C681 1.429 . S
C665 H687 0.950 . S
C666 H662 0.949 . S
C666 C674 1.574 . S
C666 C682 1.368 . S
H667 C675 0.950 . S
H668 C673 0.950 . S
H669 C674 0.949 . S
H670 C676 0.950 . S
H671 C677 0.950 . S
H672 C678 0.949 . S
C673 H668 0.950 . S
C673 C675 1.327 . S
C673 C679 1.429 . S
C674 C666 1.574 . S
C674 H669 0.949 . S
C674 C680 1.368 . S
C675 C659 1.349 . S
C675 H667 0.950 . S
C675 C673 1.327 . S
C676 C664 1.349 . S
C676 H670 0.950 . S
C676 C677 1.327 . S
C677 H671 0.950 . S
C677 C676 1.327 . S
C677 C681 1.429 . S
C678 C661 1.574 . S
C678 H672 0.949 . S
C678 C682 1.368 . S
C679 C660 1.429 . S
C679 C673 1.429 . S
C679 C680 1.523 . S
C680 C661 1.368 . S
C680 C674 1.368 . S
C680 C679 1.523 . S
C681 C665 1.429 . S
C681 C677 1.429 . S
C681 C682 1.523 . S
C682 C666 1.368 . S
C682 C678 1.368 . S
C682 C681 1.523 . S
H683 C658 0.950 . S
H684 C660 0.950 . S
H685 C661 0.949 . S
H686 C663 0.950 . S
H687 C665 0.950 . S
C688 C689 1.349 . S
C688 C690 1.327 . S
C688 H713 0.950 . S
C689 C688 1.349 . S
C689 C705 1.349 . S
C690 C688 1.327 . S
C690 C709 1.429 . S
C690 H714 0.950 . S
C691 C708 1.574 . S
C691 C710 1.368 . S
C691 H715 0.949 . S
H692 C696 0.949 . S
C693 C694 1.349 . S
C693 C695 1.327 . S
C693 H716 0.950 . S
C694 C693 1.349 . S
C694 C706 1.349 . S
C695 C693 1.327 . S
C695 C711 1.429 . S
C695 H717 0.950 . S
C696 H692 0.949 . S
C696 C704 1.574 . S
C696 C712 1.368 . S
H697 C705 0.950 . S
H698 C703 0.950 . S
H699 C704 0.949 . S
H700 C706 0.950 . S
H701 C707 0.950 . S
H702 C708 0.949 . S
C703 H698 0.950 . S
C703 C705 1.327 . S
C703 C709 1.429 . S
C704 C696 1.574 . S
C704 H699 0.949 . S
C704 C710 1.368 . S
C705 C689 1.349 . S
C705 H697 0.950 . S
C705 C703 1.327 . S
C706 C694 1.349 . S
C706 H700 0.950 . S
C706 C707 1.327 . S
C707 H701 0.950 . S
C707 C706 1.327 . S
C707 C711 1.429 . S
C708 C691 1.574 . S
C708 H702 0.949 . S
C708 C712 1.368 . S
C709 C690 1.429 . S
C709 C703 1.429 . S
C709 C710 1.523 . S
C710 C691 1.368 . S
C710 C704 1.368 . S
C710 C709 1.523 . S
C711 C695 1.429 . S
C711 C707 1.429 . S
C711 C712 1.523 . S
C712 C696 1.368 . S
C712 C708 1.368 . S
C712 C711 1.523 . S
H713 C688 0.950 . S
H714 C690 0.950 . S
H715 C691 0.949 . S
H716 C693 0.950 . S
H717 C695 0.950 . S
C718 C719 1.349 . S
C718 C720 1.327 . S
C718 H743 0.950 . S
C719 C718 1.349 . S
C719 C735 1.349 . S
C720 C718 1.327 . S
C720 C739 1.429 . S
C720 H744 0.950 . S
C721 C738 1.574 . S
C721 C740 1.368 . S
C721 H745 0.949 . S
H722 C726 0.949 . S
C723 C724 1.349 . S
C723 C725 1.327 . S
C723 H746 0.950 . S
C724 C723 1.349 . S
C724 C736 1.349 . S
C725 C723 1.327 . S
C725 C741 1.429 . S
C725 H747 0.950 . S
C726 H722 0.949 . S
C726 C734 1.574 . S
C726 C742 1.368 . S
H727 C735 0.950 . S
H728 C733 0.950 . S
H729 C734 0.949 . S
H730 C736 0.950 . S
H731 C737 0.950 . S
H732 C738 0.949 . S
C733 H728 0.950 . S
C733 C735 1.327 . S
C733 C739 1.429 . S
C734 C726 1.574 . S
C734 H729 0.949 . S
C734 C740 1.368 . S
C735 C719 1.349 . S
C735 H727 0.950 . S
C735 C733 1.327 . S
C736 C724 1.349 . S
C736 H730 0.950 . S
C736 C737 1.327 . S
C737 H731 0.950 . S
C737 C736 1.327 . S
C737 C741 1.429 . S
C738 C721 1.574 . S
C738 H732 0.949 . S
C738 C742 1.368 . S
C739 C720 1.429 . S
C739 C733 1.429 . S
C739 C740 1.523 . S
C740 C721 1.368 . S
C740 C734 1.368 . S
C740 C739 1.523 . S
C741 C725 1.429 . S
C741 C737 1.429 . S
C741 C742 1.523 . S
C742 C726 1.368 . S
C742 C738 1.368 . S
C742 C741 1.523 . S
H743 C718 0.950 . S
H744 C720 0.950 . S
H745 C721 0.949 . S
H746 C723 0.950 . S
H747 C725 0.950 . S
C748 C749 1.349 . S
C748 C750 1.327 . S
C748 H773 0.950 . S
C749 C748 1.349 . S
C749 C765 1.349 . S
C750 C748 1.327 . S
C750 C769 1.429 . S
C750 H774 0.950 . S
C751 C768 1.574 . S
C751 C770 1.368 . S
C751 H775 0.949 . S
H752 C756 0.949 . S
C753 C754 1.349 . S
C753 C755 1.327 . S
C753 H776 0.950 . S
C754 C753 1.349 . S
C754 C766 1.349 . S
C755 C753 1.327 . S
C755 C771 1.429 . S
C755 H777 0.950 . S
C756 H752 0.949 . S
C756 C764 1.574 . S
C756 C772 1.368 . S
H757 C765 0.950 . S
H758 C763 0.950 . S
H759 C764 0.949 . S
H760 C766 0.950 . S
H761 C767 0.950 . S
H762 C768 0.949 . S
C763 H758 0.950 . S
C763 C765 1.327 . S
C763 C769 1.429 . S
C764 C756 1.574 . S
C764 H759 0.949 . S
C764 C770 1.368 . S
C765 C749 1.349 . S
C765 H757 0.950 . S
C765 C763 1.327 . S
C766 C754 1.349 . S
C766 H760 0.950 . S
C766 C767 1.327 . S
C767 H761 0.950 . S
C767 C766 1.327 . S
C767 C771 1.429 . S
C768 C751 1.574 . S
C768 H762 0.949 . S
C768 C772 1.368 . S
C769 C750 1.429 . S
C769 C763 1.429 . S
C769 C770 1.523 . S
C770 C751 1.368 . S
C770 C764 1.368 . S
C770 C769 1.523 . S
C771 C755 1.429 . S
C771 C767 1.429 . S
C771 C772 1.523 . S
C772 C756 1.368 . S
C772 C768 1.368 . S
C772 C771 1.523 . S
H773 C748 0.950 . S
H774 C750 0.950 . S
H775 C751 0.949 . S
H776 C753 0.950 . S
H777 C755 0.950 . S
C778 C779 1.349 . S
C778 C780 1.327 . S
C778 H803 0.950 . S
C779 C778 1.349 . S
C779 C795 1.349 . S
C780 C778 1.327 . S
C780 C799 1.429 . S
C780 H804 0.950 . S
C781 C798 1.574 . S
C781 C800 1.368 . S
C781 H805 0.949 . S
H782 C786 0.949 . S
C783 C784 1.349 . S
C783 C785 1.327 . S
C783 H806 0.950 . S
C784 C783 1.349 . S
C784 C796 1.349 . S
C785 C783 1.327 . S
C785 C801 1.429 . S
C785 H807 0.950 . S
C786 H782 0.949 . S
C786 C794 1.574 . S
C786 C802 1.368 . S
H787 C795 0.950 . S
H788 C793 0.950 . S
H789 C794 0.949 . S
H790 C796 0.950 . S
H791 C797 0.950 . S
H792 C798 0.949 . S
C793 H788 0.950 . S
C793 C795 1.327 . S
C793 C799 1.429 . S
C794 C786 1.574 . S
C794 H789 0.949 . S
C794 C800 1.368 . S
C795 C779 1.349 . S
C795 H787 0.950 . S
C795 C793 1.327 . S
C796 C784 1.349 . S
C796 H790 0.950 . S
C796 C797 1.327 . S
C797 H791 0.950 . S
C797 C796 1.327 . S
C797 C801 1.429 . S
C798 C781 1.574 . S
C798 H792 0.949 . S
C798 C802 1.368 . S
C799 C780 1.429 . S
C799 C793 1.429 . S
C799 C800 1.523 . S
C800 C781 1.368 . S
C800 C794 1.368 . S
C800 C799 1.523 . S
C801 C785 1.429 . S
C801 C797 1.429 . S
C801 C802 1.523 . S
C802 C786 1.368 . S
C802 C798 1.368 . S
C802 C801 1.523 . S
H803 C778 0.950 . S
H804 C780 0.950 . S
H805 C781 0.949 . S
H806 C783 0.950 . S
H807 C785 0.950 . S
C808 C809 1.349 . S
C808 C810 1.327 . S
C808 H833 0.950 . S
C809 C808 1.349 . S
C809 C825 1.349 1_565 S
C810 C808 1.327 . S
C810 C829 1.429 . S
C810 H834 0.950 . S
C811 C828 1.574 . S
C811 C830 1.332 1_545 S
C811 H835 0.949 . S
H812 C816 0.949 . S
C813 C814 1.349 . S
C813 C815 1.327 . S
C813 H836 0.950 . S
C814 C813 1.349 . S
C814 C826 1.349 1_545 S
C815 C813 1.327 . S
C815 C831 1.429 . S
C815 H837 0.950 . S
C816 H812 0.949 . S
C816 C824 1.574 . S
C816 C832 1.332 1_565 S
H817 C825 0.950 . S
H818 C823 0.950 . S
H819 C824 0.949 . S
H820 C826 0.950 . S
H821 C827 0.950 . S
H822 C828 0.949 . S
C823 H818 0.950 . S
C823 C825 1.327 . S
C823 C829 1.429 1_545 S
C824 C816 1.574 . S
C824 H819 0.949 . S
C824 C830 1.404 . S
C825 C809 1.349 1_545 S
C825 H817 0.950 . S
C825 C823 1.327 . S
C826 C814 1.349 1_565 S
C826 H820 0.950 . S
C826 C827 1.327 . S
C827 H821 0.950 . S
C827 C826 1.327 . S
C827 C831 1.429 1_565 S
C828 C811 1.574 . S
C828 H822 0.949 . S
C828 C832 1.404 . S
C829 C810 1.429 . S
C829 C823 1.429 1_565 S
C829 C830 1.529 . S
C830 C811 1.332 1_565 S
C830 C824 1.404 . S
C830 C829 1.529 . S
C831 C815 1.429 . S
C831 C827 1.429 1_545 S
C831 C832 1.529 . S
C832 C816 1.332 1_545 S
C832 C828 1.404 . S
C832 C831 1.529 . S
H833 C808 0.950 . S
H834 C810 0.950 . S
H835 C811 0.949 . S
H836 C813 0.950 . S
H837 C815 0.950 . S
C838 C839 1.344 1_545 S
C838 C840 1.328 . S
C838 H863 0.954 . S
C839 C838 1.344 1_565 S
C839 C855 1.349 . S
C840 C838 1.328 . S
C840 C859 1.429 1_545 S
C840 H864 0.950 . S
C841 C858 1.574 1_655 S
C841 C860 1.387 . S
C841 H865 0.949 . S
H842 C846 0.949 . S
C843 C844 1.344 1_565 S
C843 C845 1.328 . S
C843 H866 0.953 . S
C844 C843 1.344 1_545 S
C844 C856 1.349 . S
C845 C843 1.328 . S
C845 C861 1.429 1_565 S
C845 H867 0.950 . S
C846 H842 0.949 . S
C846 C854 1.574 1_455 S
C846 C862 1.388 . S
H847 C855 0.950 . S
H848 C853 0.950 . S
H849 C854 0.949 . S
H850 C856 0.950 . S
H851 C857 0.950 . S
H852 C858 0.949 . S
C853 H848 0.950 . S
C853 C855 1.327 . S
C853 C859 1.429 . S
C854 C846 1.574 1_655 S
C854 H849 0.949 . S
C854 C860 1.349 1_545 S
C855 C839 1.349 . S
C855 H847 0.950 . S
C855 C853 1.327 . S
C856 C844 1.349 . S
C856 H850 0.950 . S
C856 C857 1.327 . S
C857 H851 0.950 . S
C857 C856 1.327 . S
C857 C861 1.429 . S
C858 C841 1.574 1_455 S
C858 H852 0.949 . S
C858 C862 1.349 1_565 S
C859 C840 1.429 1_565 S
C859 C853 1.429 . S
C859 C860 1.529 . S
C860 C841 1.387 . S
C860 C854 1.349 1_565 S
C860 C859 1.529 . S
C861 C845 1.429 1_545 S
C861 C857 1.429 . S
C861 C862 1.529 . S
C862 C846 1.388 . S
C862 C858 1.349 1_545 S
C862 C861 1.529 . S
H863 C838 0.954 . S
H864 C840 0.950 . S
H865 C841 0.949 . S
H866 C843 0.953 . S
H867 C845 0.950 . S
C868 C869 1.349 . S
C868 C870 1.327 . S
C868 H893 0.950 . S
C869 C868 1.349 . S
C869 C885 1.360 . S
C870 C868 1.327 . S
C870 C889 1.429 . S
C870 H894 0.950 . S
C871 C888 1.574 . S
C871 C890 1.354 1_545 S
C871 H895 0.949 . S
H872 C876 0.949 . S
C873 C874 1.349 . S
C873 C875 1.327 . S
C873 H896 0.950 . S
C874 C873 1.349 . S
C874 C886 1.360 . S
C875 C873 1.327 . S
C875 C891 1.429 . S
C875 H897 0.950 . S
C876 H872 0.949 . S
C876 C884 1.574 . S
C876 C892 1.354 1_565 S
H877 C885 0.939 1_545 S
H878 C883 0.955 . S
H879 C884 0.949 . S
H880 C886 0.939 1_565 S
H881 C887 0.955 . S
H882 C888 0.949 . S
C883 H878 0.955 . S
C883 C885 1.324 1_545 S
C883 C889 1.426 1_545 S
C884 C876 1.574 . S
C884 H879 0.949 . S
C884 C890 1.383 . S
C885 C869 1.360 . S
C885 H877 0.939 1_565 S
C885 C883 1.324 1_565 S
C886 C874 1.360 . S
C886 H880 0.939 1_545 S
C886 C887 1.324 1_545 S
C887 H881 0.955 . S
C887 C886 1.324 1_565 S
C887 C891 1.425 1_565 S
C888 C871 1.574 . S
C888 H882 0.949 . S
C888 C892 1.383 . S
C889 C870 1.429 . S
C889 C883 1.426 1_565 S
C889 C890 1.529 . S
C890 C871 1.354 1_565 S
C890 C884 1.383 . S
C890 C889 1.529 . S
C891 C875 1.429 . S
C891 C887 1.425 1_545 S
C891 C892 1.529 . S
C892 C876 1.354 1_545 S
C892 C888 1.383 . S
C892 C891 1.529 . S
H893 C868 0.950 . S
H894 C870 0.950 . S
H895 C871 0.949 . S
H896 C873 0.950 . S
H897 C875 0.950 . S
C898 C899 1.349 1_545 S
C898 C900 1.327 . S
C898 H923 0.950 . S
C899 C898 1.349 1_565 S
C899 C915 1.349 . S
C900 C898 1.327 . S
C900 C919 1.429 1_545 S
C900 H924 0.950 . S
C901 C918 1.574 1_455 S
C901 C920 1.415 . S
C901 H925 0.949 . S
H902 C906 0.949 . S
C903 C904 1.349 1_565 S
C903 C905 1.327 . S
C903 H926 0.950 . S
C904 C903 1.349 1_545 S
C904 C916 1.349 . S
C905 C903 1.327 . S
C905 C921 1.429 1_565 S
C905 H927 0.950 . S
C906 H902 0.949 . S
C906 C914 1.574 1_655 S
C906 C922 1.416 . S
H907 C915 0.950 . S
H908 C913 0.950 . S
H909 C914 0.949 . S
H910 C916 0.950 . S
H911 C917 0.950 . S
H912 C918 0.949 . S
C913 H908 0.950 . S
C913 C915 1.327 . S
C913 C919 1.429 . S
C914 C906 1.574 1_455 S
C914 H909 0.949 . S
C914 C920 1.320 1_545 S
C915 C899 1.349 . S
C915 H907 0.950 . S
C915 C913 1.327 . S
C916 C904 1.349 . S
C916 H910 0.950 . S
C916 C917 1.327 . S
C917 H911 0.950 . S
C917 C916 1.327 . S
C917 C921 1.429 . S
C918 C901 1.574 1_655 S
C918 H912 0.949 . S
C918 C922 1.319 1_565 S
C919 C900 1.429 1_565 S
C919 C913 1.429 . S
C919 C920 1.529 . S
C920 C901 1.415 . S
C920 C914 1.320 1_565 S
C920 C919 1.529 . S
C921 C905 1.429 1_545 S
C921 C917 1.429 . S
C921 C922 1.529 . S
C922 C906 1.416 . S
C922 C918 1.319 1_545 S
C922 C921 1.529 . S
H923 C898 0.950 . S
H924 C900 0.950 . S
H925 C901 0.949 . S
H926 C903 0.950 . S
H927 C905 0.950 . S
C928 C929 1.349 . S
C928 C930 1.327 . S
C928 H953 0.950 . S
C929 C928 1.349 . S
C929 C945 1.349 . S
C930 C928 1.327 . S
C930 C949 1.429 . S
C930 H954 0.950 . S
C931 C948 1.574 . S
C931 C950 1.368 . S
C931 H955 0.949 . S
H932 C936 0.949 . S
C933 C934 1.349 . S
C933 C935 1.327 . S
C933 H956 0.950 . S
C934 C933 1.349 . S
C934 C946 1.349 . S
C935 C933 1.327 . S
C935 C951 1.429 . S
C935 H957 0.950 . S
C936 H932 0.949 . S
C936 C944 1.574 . S
C936 C952 1.368 . S
H937 C945 0.950 . S
H938 C943 0.950 . S
H939 C944 0.949 . S
H940 C946 0.950 . S
H941 C947 0.950 . S
H942 C948 0.949 . S
C943 H938 0.950 . S
C943 C945 1.327 . S
C943 C949 1.429 . S
C944 C936 1.574 . S
C944 H939 0.949 . S
C944 C950 1.368 . S
C945 C929 1.349 . S
C945 H937 0.950 . S
C945 C943 1.327 . S
C946 C934 1.349 . S
C946 H940 0.950 . S
C946 C947 1.327 . S
C947 H941 0.950 . S
C947 C946 1.327 . S
C947 C951 1.429 . S
C948 C931 1.574 . S
C948 H942 0.949 . S
C948 C952 1.368 . S
C949 C930 1.429 . S
C949 C943 1.429 . S
C949 C950 1.523 . S
C950 C931 1.368 . S
C950 C944 1.368 . S
C950 C949 1.523 . S
C951 C935 1.429 . S
C951 C947 1.429 . S
C951 C952 1.523 . S
C952 C936 1.368 . S
C952 C948 1.368 . S
C952 C951 1.523 . S
H953 C928 0.950 . S
H954 C930 0.950 . S
H955 C931 0.949 . S
H956 C933 0.950 . S
H957 C935 0.950 . S
C958 C959 1.349 . S
C958 C960 1.327 . S
C958 H983 0.950 . S
C959 C958 1.349 . S
C959 C975 1.349 . S
C960 C958 1.327 . S
C960 C979 1.429 . S
C960 H984 0.950 . S
C961 C978 1.574 . S
C961 C980 1.368 . S
C961 H985 0.949 . S
H962 C966 0.949 . S
C963 C964 1.349 . S
C963 C965 1.327 . S
C963 H986 0.950 . S
C964 C963 1.349 . S
C964 C976 1.349 . S
C965 C963 1.327 . S
C965 C981 1.429 . S
C965 H987 0.950 . S
C966 H962 0.949 . S
C966 C974 1.574 . S
C966 C982 1.368 . S
H967 C975 0.950 . S
H968 C973 0.950 . S
H969 C974 0.949 . S
H970 C976 0.950 . S
H971 C977 0.950 . S
H972 C978 0.949 . S
C973 H968 0.950 . S
C973 C975 1.327 . S
C973 C979 1.429 . S
C974 C966 1.574 . S
C974 H969 0.949 . S
C974 C980 1.368 . S
C975 C959 1.349 . S
C975 H967 0.950 . S
C975 C973 1.327 . S
C976 C964 1.349 . S
C976 H970 0.950 . S
C976 C977 1.327 . S
C977 H971 0.950 . S
C977 C976 1.327 . S
C977 C981 1.429 . S
C978 C961 1.574 . S
C978 H972 0.949 . S
C978 C982 1.368 . S
C979 C960 1.429 . S
C979 C973 1.429 . S
C979 C980 1.523 1_556 S
C980 C961 1.368 . S
C980 C974 1.368 . S
C980 C979 1.523 1_554 S
C981 C965 1.429 . S
C981 C977 1.429 . S
C981 C982 1.523 . S
C982 C966 1.368 . S
C982 C978 1.368 . S
C982 C981 1.523 . S
H983 C958 0.950 . S
H984 C960 0.950 . S
H985 C961 0.949 . S
H986 C963 0.950 . S
H987 C965 0.950 . S
C988 C989 1.349 . S
C988 C990 1.327 . S
C988 H1013 0.950 . S
C989 C988 1.349 . S
C989 C1005 1.349 . S
C990 C988 1.327 . S
C990 C1009 1.429 . S
C990 H1014 0.950 . S
C991 C1008 1.574 . S
C991 C1010 1.368 . S
C991 H1015 0.949 . S
H992 C996 0.949 . S
C993 C994 1.349 . S
C993 C995 1.327 . S
C993 H1016 0.950 . S
C994 C993 1.349 . S
C994 C1006 1.349 . S
C995 C993 1.327 . S
C995 C1011 1.429 . S
C995 H1017 0.950 . S
C996 H992 0.949 . S
C996 C1004 1.574 . S
C996 C1012 1.368 . S
H997 C1005 0.950 . S
H998 C1003 0.950 . S
H999 C1004 0.949 . S
H1000 C1006 0.950 . S
H1001 C1007 0.950 . S
H1002 C1008 0.949 . S
C1003 H998 0.950 . S
C1003 C1005 1.327 . S
C1003 C1009 1.429 . S
C1004 C996 1.574 . S
C1004 H999 0.949 . S
C1004 C1010 1.368 . S
C1005 C989 1.349 . S
C1005 H997 0.950 . S
C1005 C1003 1.327 . S
C1006 C994 1.349 . S
C1006 H1000 0.950 . S
C1006 C1007 1.327 . S
C1007 H1001 0.950 . S
C1007 C1006 1.327 . S
C1007 C1011 1.429 . S
C1008 C991 1.574 . S
C1008 H1002 0.949 . S
C1008 C1012 1.368 . S
C1009 C990 1.429 . S
C1009 C1003 1.429 . S
C1009 C1010 1.523 . S
C1010 C991 1.368 . S
C1010 C1004 1.368 . S
C1010 C1009 1.523 . S
C1011 C995 1.429 . S
C1011 C1007 1.429 . S
C1011 C1012 1.523 . S
C1012 C996 1.368 . S
C1012 C1008 1.368 . S
C1012 C1011 1.523 . S
H1013 C988 0.950 . S
H1014 C990 0.950 . S
H1015 C991 0.949 . S
H1016 C993 0.950 . S
H1017 C995 0.950 . S
C1018 C1019 1.349 . S
C1018 C1020 1.327 . S
C1018 H1043 0.950 . S
C1019 C1018 1.349 . S
C1019 C1035 1.349 . S
C1020 C1018 1.327 . S
C1020 C1039 1.429 . S
C1020 H1044 0.950 . S
C1021 C1038 1.574 . S
C1021 C1040 1.368 . S
C1021 H1045 0.949 . S
H1022 C1026 0.949 . S
C1023 C1024 1.349 . S
C1023 C1025 1.327 . S
C1023 H1046 0.950 . S
C1024 C1023 1.349 . S
C1024 C1036 1.349 . S
C1025 C1023 1.327 . S
C1025 C1041 1.429 . S
C1025 H1047 0.950 . S
C1026 H1022 0.949 . S
C1026 C1034 1.574 . S
C1026 C1042 1.368 . S
H1027 C1035 0.950 . S
H1028 C1033 0.950 . S
H1029 C1034 0.949 . S
H1030 C1036 0.950 . S
H1031 C1037 0.950 . S
H1032 C1038 0.949 . S
C1033 H1028 0.950 . S
C1033 C1035 1.327 . S
C1033 C1039 1.429 . S
C1034 C1026 1.574 . S
C1034 H1029 0.949 . S
C1034 C1040 1.368 . S
C1035 C1019 1.349 . S
C1035 H1027 0.950 . S
C1035 C1033 1.327 . S
C1036 C1024 1.349 . S
C1036 H1030 0.950 . S
C1036 C1037 1.327 . S
C1037 H1031 0.950 . S
C1037 C1036 1.327 . S
C1037 C1041 1.429 . S
C1038 C1021 1.574 . S
C1038 H1032 0.949 . S
C1038 C1042 1.368 . S
C1039 C1020 1.429 . S
C1039 C1033 1.429 . S
C1039 C1040 1.523 . S
C1040 C1021 1.368 . S
C1040 C1034 1.368 . S
C1040 C1039 1.523 . S
C1041 C1025 1.429 . S
C1041 C1037 1.429 . S
C1041 C1042 1.523 . S
C1042 C1026 1.368 . S
C1042 C1038 1.368 . S
C1042 C1041 1.523 . S
H1043 C1018 0.950 . S
H1044 C1020 0.950 . S
H1045 C1021 0.949 . S
H1046 C1023 0.950 . S
H1047 C1025 0.950 . S
C1048 C1049 1.349 . S
C1048 C1050 1.327 . S
C1048 H1073 0.950 . S
C1049 C1048 1.349 . S
C1049 C1065 1.349 . S
C1050 C1048 1.327 . S
C1050 C1069 1.429 . S
C1050 H1074 0.950 . S
C1051 C1068 1.574 . S
C1051 C1070 1.368 . S
C1051 H1075 0.949 . S
H1052 C1056 0.949 . S
C1053 C1054 1.349 . S
C1053 C1055 1.327 . S
C1053 H1076 0.950 . S
C1054 C1053 1.349 . S
C1054 C1066 1.349 . S
C1055 C1053 1.327 . S
C1055 C1071 1.429 . S
C1055 H1077 0.950 . S
C1056 H1052 0.949 . S
C1056 C1064 1.574 . S
C1056 C1072 1.368 . S
H1057 C1065 0.950 . S
H1058 C1063 0.950 . S
H1059 C1064 0.949 . S
H1060 C1066 0.950 . S
H1061 C1067 0.950 . S
H1062 C1068 0.949 . S
C1063 H1058 0.950 . S
C1063 C1065 1.327 . S
C1063 C1069 1.429 . S
C1064 C1056 1.574 . S
C1064 H1059 0.949 . S
C1064 C1070 1.368 . S
C1065 C1049 1.349 . S
C1065 H1057 0.950 . S
C1065 C1063 1.327 . S
C1066 C1054 1.349 . S
C1066 H1060 0.950 . S
C1066 C1067 1.327 . S
C1067 H1061 0.950 . S
C1067 C1066 1.327 . S
C1067 C1071 1.429 . S
C1068 C1051 1.574 . S
C1068 H1062 0.949 . S
C1068 C1072 1.368 . S
C1069 C1050 1.429 . S
C1069 C1063 1.429 . S
C1069 C1070 1.523 . S
C1070 C1051 1.368 . S
C1070 C1064 1.368 . S
C1070 C1069 1.523 . S
C1071 C1055 1.429 . S
C1071 C1067 1.429 . S
C1071 C1072 1.523 . S
C1072 C1056 1.368 . S
C1072 C1068 1.368 . S
C1072 C1071 1.523 . S
H1073 C1048 0.950 . S
H1074 C1050 0.950 . S
H1075 C1051 0.949 . S
H1076 C1053 0.950 . S
H1077 C1055 0.950 . S
C1078 C1079 1.349 . S
C1078 C1080 1.327 . S
C1078 H1103 0.950 . S
C1079 C1078 1.349 . S
C1079 C1095 1.349 . S
C1080 C1078 1.327 . S
C1080 C1099 1.429 . S
C1080 H1104 0.950 . S
C1081 C1098 1.574 . S
C1081 C1100 1.368 . S
C1081 H1105 0.949 . S
H1082 C1086 0.949 . S
C1083 C1084 1.349 . S
C1083 C1085 1.327 . S
C1083 H1106 0.950 . S
C1084 C1083 1.349 . S
C1084 C1096 1.349 . S
C1085 C1083 1.327 . S
C1085 C1101 1.429 . S
C1085 H1107 0.950 . S
C1086 H1082 0.949 . S
C1086 C1094 1.574 . S
C1086 C1102 1.368 . S
H1087 C1095 0.950 . S
H1088 C1093 0.950 . S
H1089 C1094 0.949 . S
H1090 C1096 0.950 . S
H1091 C1097 0.950 . S
H1092 C1098 0.949 . S
C1093 H1088 0.950 . S
C1093 C1095 1.327 . S
C1093 C1099 1.429 . S
C1094 C1086 1.574 . S
C1094 H1089 0.949 . S
C1094 C1100 1.368 . S
C1095 C1079 1.349 . S
C1095 H1087 0.950 . S
C1095 C1093 1.327 . S
C1096 C1084 1.349 . S
C1096 H1090 0.950 . S
C1096 C1097 1.327 . S
C1097 H1091 0.950 . S
C1097 C1096 1.327 . S
C1097 C1101 1.429 . S
C1098 C1081 1.574 . S
C1098 H1092 0.949 . S
C1098 C1102 1.368 . S
C1099 C1080 1.429 . S
C1099 C1093 1.429 . S
C1099 C1100 1.523 1_556 S
C1100 C1081 1.368 . S
C1100 C1094 1.368 . S
C1100 C1099 1.523 1_554 S
C1101 C1085 1.429 . S
C1101 C1097 1.429 . S
C1101 C1102 1.523 . S
C1102 C1086 1.368 . S
C1102 C1098 1.368 . S
C1102 C1101 1.523 . S
H1103 C1078 0.950 . S
H1104 C1080 0.950 . S
H1105 C1081 0.949 . S
H1106 C1083 0.950 . S
H1107 C1085 0.950 . S
C1108 C1109 1.349 . S
C1108 C1110 1.327 . S
C1108 H1133 0.950 . S
C1109 C1108 1.349 . S
C1109 C1125 1.349 . S
C1110 C1108 1.327 . S
C1110 C1129 1.429 . S
C1110 H1134 0.950 . S
C1111 C1128 1.574 . S
C1111 C1130 1.368 . S
C1111 H1135 0.949 . S
H1112 C1116 0.949 . S
C1113 C1114 1.349 . S
C1113 C1115 1.327 . S
C1113 H1136 0.950 . S
C1114 C1113 1.349 . S
C1114 C1126 1.349 . S
C1115 C1113 1.327 . S
C1115 C1131 1.429 . S
C1115 H1137 0.950 . S
C1116 H1112 0.949 . S
C1116 C1124 1.574 . S
C1116 C1132 1.368 . S
H1117 C1125 0.950 . S
H1118 C1123 0.950 . S
H1119 C1124 0.949 . S
H1120 C1126 0.950 . S
H1121 C1127 0.950 . S
H1122 C1128 0.949 . S
C1123 H1118 0.950 . S
C1123 C1125 1.327 . S
C1123 C1129 1.429 . S
C1124 C1116 1.574 . S
C1124 H1119 0.949 . S
C1124 C1130 1.368 . S
C1125 C1109 1.349 . S
C1125 H1117 0.950 . S
C1125 C1123 1.327 . S
C1126 C1114 1.349 . S
C1126 H1120 0.950 . S
C1126 C1127 1.327 . S
C1127 H1121 0.950 . S
C1127 C1126 1.327 . S
C1127 C1131 1.429 . S
C1128 C1111 1.574 . S
C1128 H1122 0.949 . S
C1128 C1132 1.368 . S
C1129 C1110 1.429 . S
C1129 C1123 1.429 . S
C1129 C1130 1.523 . S
C1130 C1111 1.368 . S
C1130 C1124 1.368 . S
C1130 C1129 1.523 . S
C1131 C1115 1.429 . S
C1131 C1127 1.429 . S
C1131 C1132 1.523 . S
C1132 C1116 1.368 . S
C1132 C1128 1.368 . S
C1132 C1131 1.523 . S
H1133 C1108 0.950 . S
H1134 C1110 0.950 . S
H1135 C1111 0.949 . S
H1136 C1113 0.950 . S
H1137 C1115 0.950 . S
C1138 C1139 1.349 . S
C1138 C1140 1.327 . S
C1138 H1163 0.950 . S
C1139 C1138 1.349 . S
C1139 C1155 1.349 . S
C1140 C1138 1.327 . S
C1140 C1159 1.429 . S
C1140 H1164 0.950 . S
C1141 C1158 1.574 . S
C1141 C1160 1.368 . S
C1141 H1165 0.949 . S
H1142 C1146 0.949 . S
C1143 C1144 1.349 . S
C1143 C1145 1.327 . S
C1143 H1166 0.950 . S
C1144 C1143 1.349 . S
C1144 C1156 1.349 . S
C1145 C1143 1.327 . S
C1145 C1161 1.429 . S
C1145 H1167 0.950 . S
C1146 H1142 0.949 . S
C1146 C1154 1.574 . S
C1146 C1162 1.368 . S
H1147 C1155 0.950 . S
H1148 C1153 0.950 . S
H1149 C1154 0.949 . S
H1150 C1156 0.950 . S
H1151 C1157 0.950 . S
H1152 C1158 0.949 . S
C1153 H1148 0.950 . S
C1153 C1155 1.327 . S
C1153 C1159 1.429 . S
C1154 C1146 1.574 . S
C1154 H1149 0.949 . S
C1154 C1160 1.368 . S
C1155 C1139 1.349 . S
C1155 H1147 0.950 . S
C1155 C1153 1.327 . S
C1156 C1144 1.349 . S
C1156 H1150 0.950 . S
C1156 C1157 1.327 . S
C1157 H1151 0.950 . S
C1157 C1156 1.327 . S
C1157 C1161 1.429 . S
C1158 C1141 1.574 . S
C1158 H1152 0.949 . S
C1158 C1162 1.368 . S
C1159 C1140 1.429 . S
C1159 C1153 1.429 . S
C1159 C1160 1.523 . S
C1160 C1141 1.368 . S
C1160 C1154 1.368 . S
C1160 C1159 1.523 . S
C1161 C1145 1.429 . S
C1161 C1157 1.429 . S
C1161 C1162 1.523 . S
C1162 C1146 1.368 . S
C1162 C1158 1.368 . S
C1162 C1161 1.523 . S
H1163 C1138 0.950 . S
H1164 C1140 0.950 . S
H1165 C1141 0.949 . S
H1166 C1143 0.950 . S
H1167 C1145 0.950 . S
C1168 C1169 1.349 . S
C1168 C1170 1.327 . S
C1168 H1193 0.950 . S
C1169 C1168 1.349 . S
C1169 C1185 1.344 . S
C1170 C1168 1.327 . S
C1170 C1189 1.429 . S
C1170 H1194 0.950 . S
C1171 C1188 1.574 . S
C1171 C1190 1.368 1_565 S
C1171 H1195 0.949 . S
H1172 C1176 0.949 . S
C1173 C1174 1.349 . S
C1173 C1175 1.327 . S
C1173 H1196 0.950 . S
C1174 C1173 1.349 . S
C1174 C1186 1.345 . S
C1175 C1173 1.327 . S
C1175 C1191 1.429 . S
C1175 H1197 0.950 . S
C1176 H1172 0.949 . S
C1176 C1184 1.574 . S
C1176 C1192 1.368 1_545 S
H1177 C1185 0.953 1_565 S
H1178 C1183 0.950 . S
H1179 C1184 0.949 . S
H1180 C1186 0.952 1_545 S
H1181 C1187 0.950 . S
H1182 C1188 0.949 . S
C1183 H1178 0.950 . S
C1183 C1185 1.328 1_565 S
C1183 C1189 1.429 1_565 S
C1184 C1176 1.574 . S
C1184 H1179 0.949 . S
C1184 C1190 1.368 . S
C1185 C1169 1.344 . S
C1185 H1177 0.953 1_545 S
C1185 C1183 1.328 1_545 S
C1186 C1174 1.345 . S
C1186 H1180 0.952 1_565 S
C1186 C1187 1.328 1_565 S
C1187 H1181 0.950 . S
C1187 C1186 1.328 1_545 S
C1187 C1191 1.429 1_545 S
C1188 C1171 1.574 . S
C1188 H1182 0.949 . S
C1188 C1192 1.368 . S
C1189 C1170 1.429 . S
C1189 C1183 1.429 1_545 S
C1189 C1190 1.523 . S
C1190 C1171 1.368 1_545 S
C1190 C1184 1.368 . S
C1190 C1189 1.523 . S
C1191 C1175 1.429 . S
C1191 C1187 1.429 1_565 S
C1191 C1192 1.523 . S
C1192 C1176 1.368 1_565 S
C1192 C1188 1.368 . S
C1192 C1191 1.523 . S
H1193 C1168 0.950 . S
H1194 C1170 0.950 . S
H1195 C1171 0.949 . S
H1196 C1173 0.950 . S
H1197 C1175 0.950 . S
C1198 C1199 1.349 . S
C1198 C1200 1.327 . S
C1198 H1223 0.950 . S
C1199 C1198 1.349 . S
C1199 C1215 1.349 . S
C1200 C1198 1.327 . S
C1200 C1219 1.429 . S
C1200 H1224 0.950 . S
C1201 C1218 1.574 . S
C1201 C1220 1.368 . S
C1201 H1225 0.949 . S
H1202 C1206 0.949 . S
C1203 C1204 1.349 . S
C1203 C1205 1.327 . S
C1203 H1226 0.950 . S
C1204 C1203 1.349 . S
C1204 C1216 1.349 . S
C1205 C1203 1.327 . S
C1205 C1221 1.429 . S
C1205 H1227 0.950 . S
C1206 H1202 0.949 . S
C1206 C1214 1.574 . S
C1206 C1222 1.368 . S
H1207 C1215 0.950 . S
H1208 C1213 0.950 . S
H1209 C1214 0.949 . S
H1210 C1216 0.950 . S
H1211 C1217 0.950 . S
H1212 C1218 0.949 . S
C1213 H1208 0.950 . S
C1213 C1215 1.327 . S
C1213 C1219 1.429 . S
C1214 C1206 1.574 . S
C1214 H1209 0.949 . S
C1214 C1220 1.368 . S
C1215 C1199 1.349 . S
C1215 H1207 0.950 . S
C1215 C1213 1.327 . S
C1216 C1204 1.349 . S
C1216 H1210 0.950 . S
C1216 C1217 1.327 . S
C1217 H1211 0.950 . S
C1217 C1216 1.327 . S
C1217 C1221 1.429 . S
C1218 C1201 1.574 . S
C1218 H1212 0.949 . S
C1218 C1222 1.368 . S
C1219 C1200 1.429 . S
C1219 C1213 1.429 . S
C1219 C1220 1.523 . S
C1220 C1201 1.368 . S
C1220 C1214 1.368 . S
C1220 C1219 1.523 . S
C1221 C1205 1.429 . S
C1221 C1217 1.429 . S
C1221 C1222 1.523 . S
C1222 C1206 1.368 . S
C1222 C1218 1.368 . S
C1222 C1221 1.523 . S
H1223 C1198 0.950 . S
H1224 C1200 0.950 . S
H1225 C1201 0.949 . S
H1226 C1203 0.950 . S
H1227 C1205 0.950 . S
C1228 C1229 1.349 . S
C1228 C1230 1.327 . S
C1228 H1253 0.950 . S
C1229 C1228 1.349 . S
C1229 C1245 1.349 1_545 S
C1230 C1228 1.327 . S
C1230 C1249 1.429 . S
C1230 H1254 0.950 . S
C1231 C1248 1.574 . S
C1231 C1250 1.368 1_565 S
C1231 H1255 0.949 . S
H1232 C1236 0.949 . S
C1233 C1234 1.349 . S
C1233 C1235 1.327 . S
C1233 H1256 0.950 . S
C1234 C1233 1.349 . S
C1234 C1246 1.349 1_565 S
C1235 C1233 1.327 . S
C1235 C1251 1.429 . S
C1235 H1257 0.950 . S
C1236 H1232 0.949 . S
C1236 C1244 1.574 . S
C1236 C1252 1.368 1_545 S
H1237 C1245 0.950 . S
H1238 C1243 0.950 . S
H1239 C1244 0.949 . S
H1240 C1246 0.950 . S
H1241 C1247 0.950 . S
H1242 C1248 0.949 . S
C1243 H1238 0.950 . S
C1243 C1245 1.327 . S
C1243 C1249 1.429 1_565 S
C1244 C1236 1.574 . S
C1244 H1239 0.949 . S
C1244 C1250 1.368 . S
C1245 C1229 1.349 1_565 S
C1245 H1237 0.950 . S
C1245 C1243 1.327 . S
C1246 C1234 1.349 1_545 S
C1246 H1240 0.950 . S
C1246 C1247 1.327 . S
C1247 H1241 0.950 . S
C1247 C1246 1.327 . S
C1247 C1251 1.429 1_545 S
C1248 C1231 1.574 . S
C1248 H1242 0.949 . S
C1248 C1252 1.368 . S
C1249 C1230 1.429 . S
C1249 C1243 1.429 1_545 S
C1249 C1250 1.523 . S
C1250 C1231 1.368 1_545 S
C1250 C1244 1.368 . S
C1250 C1249 1.523 . S
C1251 C1235 1.429 . S
C1251 C1247 1.429 1_565 S
C1251 C1252 1.523 . S
C1252 C1236 1.368 1_565 S
C1252 C1248 1.368 . S
C1252 C1251 1.523 . S
H1253 C1228 0.950 . S
H1254 C1230 0.950 . S
H1255 C1231 0.949 . S
H1256 C1233 0.950 . S
H1257 C1235 0.950 . S
C1258 C1259 1.349 . S
C1258 C1260 1.327 . S
C1258 H1283 0.950 . S
C1259 C1258 1.349 . S
C1259 C1275 1.349 . S
C1260 C1258 1.327 . S
C1260 C1279 1.429 . S
C1260 H1284 0.950 . S
C1261 C1278 1.574 . S
C1261 C1280 1.368 . S
C1261 H1285 0.949 . S
H1262 C1266 0.949 . S
C1263 C1264 1.349 . S
C1263 C1265 1.327 . S
C1263 H1286 0.950 . S
C1264 C1263 1.349 . S
C1264 C1276 1.349 . S
C1265 C1263 1.327 . S
C1265 C1281 1.429 . S
C1265 H1287 0.950 . S
C1266 H1262 0.949 . S
C1266 C1274 1.574 . S
C1266 C1282 1.368 . S
H1267 C1275 0.950 . S
H1268 C1273 0.950 . S
H1269 C1274 0.949 . S
H1270 C1276 0.950 . S
H1271 C1277 0.950 . S
H1272 C1278 0.949 . S
C1273 H1268 0.950 . S
C1273 C1275 1.327 . S
C1273 C1279 1.429 . S
C1274 C1266 1.574 . S
C1274 H1269 0.949 . S
C1274 C1280 1.368 . S
C1275 C1259 1.349 . S
C1275 H1267 0.950 . S
C1275 C1273 1.327 . S
C1276 C1264 1.349 . S
C1276 H1270 0.950 . S
C1276 C1277 1.327 . S
C1277 H1271 0.950 . S
C1277 C1276 1.327 . S
C1277 C1281 1.429 . S
C1278 C1261 1.574 . S
C1278 H1272 0.949 . S
C1278 C1282 1.368 . S
C1279 C1260 1.429 . S
C1279 C1273 1.429 . S
C1279 C1280 1.523 1_556 S
C1280 C1261 1.368 . S
C1280 C1274 1.368 . S
C1280 C1279 1.523 1_554 S
C1281 C1265 1.429 . S
C1281 C1277 1.429 . S
C1281 C1282 1.523 . S
C1282 C1266 1.368 . S
C1282 C1278 1.368 . S
C1282 C1281 1.523 . S
H1283 C1258 0.950 . S
H1284 C1260 0.950 . S
H1285 C1261 0.949 . S
H1286 C1263 0.950 . S
H1287 C1265 0.950 . S
C1288 C1289 1.349 . S
C1288 C1290 1.327 . S
C1288 H1313 0.950 . S
C1289 C1288 1.349 . S
C1289 C1305 1.349 1_565 S
C1290 C1288 1.327 . S
C1290 C1309 1.429 . S
C1290 H1314 0.950 . S
C1291 C1308 1.574 . S
C1291 C1310 1.368 1_545 S
C1291 H1315 0.949 . S
H1292 C1296 0.949 . S
C1293 C1294 1.349 . S
C1293 C1295 1.327 . S
C1293 H1316 0.950 . S
C1294 C1293 1.349 . S
C1294 C1306 1.349 1_545 S
C1295 C1293 1.327 . S
C1295 C1311 1.429 . S
C1295 H1317 0.950 . S
C1296 H1292 0.949 . S
C1296 C1304 1.574 . S
C1296 C1312 1.368 1_565 S
H1297 C1305 0.950 . S
H1298 C1303 0.950 . S
H1299 C1304 0.949 . S
H1300 C1306 0.950 . S
H1301 C1307 0.950 . S
H1302 C1308 0.949 . S
C1303 H1298 0.950 . S
C1303 C1305 1.327 . S
C1303 C1309 1.429 1_545 S
C1304 C1296 1.574 . S
C1304 H1299 0.949 . S
C1304 C1310 1.368 . S
C1305 C1289 1.349 1_545 S
C1305 H1297 0.950 . S
C1305 C1303 1.327 . S
C1306 C1294 1.349 1_565 S
C1306 H1300 0.950 . S
C1306 C1307 1.327 . S
C1307 H1301 0.950 . S
C1307 C1306 1.327 . S
C1307 C1311 1.429 1_565 S
C1308 C1291 1.574 . S
C1308 H1302 0.949 . S
C1308 C1312 1.368 . S
C1309 C1290 1.429 . S
C1309 C1303 1.429 1_565 S
C1309 C1310 1.523 . S
C1310 C1291 1.368 1_565 S
C1310 C1304 1.368 . S
C1310 C1309 1.523 . S
C1311 C1295 1.429 . S
C1311 C1307 1.429 1_545 S
C1311 C1312 1.523 . S
C1312 C1296 1.368 1_545 S
C1312 C1308 1.368 . S
C1312 C1311 1.523 . S
H1313 C1288 0.950 . S
H1314 C1290 0.950 . S
H1315 C1291 0.949 . S
H1316 C1293 0.950 . S
H1317 C1295 0.950 . S
C1318 C1319 1.349 . S
C1318 C1320 1.327 . S
C1318 H1343 0.950 . S
C1319 C1318 1.349 . S
C1319 C1335 1.349 . S
C1320 C1318 1.327 . S
C1320 C1339 1.429 . S
C1320 H1344 0.950 . S
C1321 C1338 1.574 . S
C1321 C1340 1.368 . S
C1321 H1345 0.949 . S
H1322 C1326 0.949 . S
C1323 C1324 1.349 . S
C1323 C1325 1.327 . S
C1323 H1346 0.950 . S
C1324 C1323 1.349 . S
C1324 C1336 1.349 . S
C1325 C1323 1.327 . S
C1325 C1341 1.429 . S
C1325 H1347 0.950 . S
C1326 H1322 0.949 . S
C1326 C1334 1.574 . S
C1326 C1342 1.368 . S
H1327 C1335 0.950 . S
H1328 C1333 0.950 . S
H1329 C1334 0.949 . S
H1330 C1336 0.950 . S
H1331 C1337 0.950 . S
H1332 C1338 0.949 . S
C1333 H1328 0.950 . S
C1333 C1335 1.327 . S
C1333 C1339 1.429 . S
C1334 C1326 1.574 . S
C1334 H1329 0.949 . S
C1334 C1340 1.368 . S
C1335 C1319 1.349 . S
C1335 H1327 0.950 . S
C1335 C1333 1.327 . S
C1336 C1324 1.349 . S
C1336 H1330 0.950 . S
C1336 C1337 1.327 . S
C1337 H1331 0.950 . S
C1337 C1336 1.327 . S
C1337 C1341 1.429 . S
C1338 C1321 1.574 . S
C1338 H1332 0.949 . S
C1338 C1342 1.368 . S
C1339 C1320 1.429 . S
C1339 C1333 1.429 . S
C1339 C1340 1.523 . S
C1340 C1321 1.368 . S
C1340 C1334 1.368 . S
C1340 C1339 1.523 . S
C1341 C1325 1.429 . S
C1341 C1337 1.429 . S
C1341 C1342 1.523 . S
C1342 C1326 1.368 . S
C1342 C1338 1.368 . S
C1342 C1341 1.523 . S
H1343 C1318 0.950 . S
H1344 C1320 0.950 . S
H1345 C1321 0.949 . S
H1346 C1323 0.950 . S
H1347 C1325 0.950 . S
C1348 C1349 1.349 . S
C1348 C1350 1.327 . S
C1348 H1373 0.950 . S
C1349 C1348 1.349 . S
C1349 C1365 1.349 1_545 S
C1350 C1348 1.327 . S
C1350 C1369 1.429 . S
C1350 H1374 0.950 . S
C1351 C1368 1.574 . S
C1351 C1370 1.368 1_565 S
C1351 H1375 0.949 . S
H1352 C1356 0.949 . S
C1353 C1354 1.349 . S
C1353 C1355 1.327 . S
C1353 H1376 0.950 . S
C1354 C1353 1.349 . S
C1354 C1366 1.349 1_565 S
C1355 C1353 1.327 . S
C1355 C1371 1.429 . S
C1355 H1377 0.950 . S
C1356 H1352 0.949 . S
C1356 C1364 1.574 . S
C1356 C1372 1.368 1_545 S
H1357 C1365 0.950 . S
H1358 C1363 0.950 . S
H1359 C1364 0.949 . S
H1360 C1366 0.950 . S
H1361 C1367 0.950 . S
H1362 C1368 0.949 . S
C1363 H1358 0.950 . S
C1363 C1365 1.327 . S
C1363 C1369 1.429 1_565 S
C1364 C1356 1.574 . S
C1364 H1359 0.949 . S
C1364 C1370 1.368 . S
C1365 C1349 1.349 1_565 S
C1365 H1357 0.950 . S
C1365 C1363 1.327 . S
C1366 C1354 1.349 1_545 S
C1366 H1360 0.950 . S
C1366 C1367 1.327 . S
C1367 H1361 0.950 . S
C1367 C1366 1.327 . S
C1367 C1371 1.429 1_545 S
C1368 C1351 1.574 . S
C1368 H1362 0.949 . S
C1368 C1372 1.368 . S
C1369 C1350 1.429 . S
C1369 C1363 1.429 1_545 S
C1369 C1370 1.523 . S
C1370 C1351 1.368 1_545 S
C1370 C1364 1.368 . S
C1370 C1369 1.523 . S
C1371 C1355 1.429 . S
C1371 C1367 1.429 1_565 S
C1371 C1372 1.523 . S
C1372 C1356 1.368 1_565 S
C1372 C1368 1.368 . S
C1372 C1371 1.523 . S
H1373 C1348 0.950 . S
H1374 C1350 0.950 . S
H1375 C1351 0.949 . S
H1376 C1353 0.950 . S
H1377 C1355 0.950 . S
C1378 C1379 1.349 . S
C1378 C1380 1.327 . S
C1378 H1403 0.950 . S
C1379 C1378 1.349 . S
C1379 C1395 1.349 . S
C1380 C1378 1.327 . S
C1380 C1399 1.429 . S
C1380 H1404 0.950 . S
C1381 C1398 1.574 . S
C1381 C1400 1.368 . S
C1381 H1405 0.949 . S
H1382 C1386 0.949 . S
C1383 C1384 1.349 . S
C1383 C1385 1.327 . S
C1383 H1406 0.950 . S
C1384 C1383 1.349 . S
C1384 C1396 1.349 . S
C1385 C1383 1.327 . S
C1385 C1401 1.429 . S
C1385 H1407 0.950 . S
C1386 H1382 0.949 . S
C1386 C1394 1.574 . S
C1386 C1402 1.368 . S
H1387 C1395 0.950 . S
H1388 C1393 0.950 . S
H1389 C1394 0.949 . S
H1390 C1396 0.950 . S
H1391 C1397 0.950 . S
H1392 C1398 0.949 . S
C1393 H1388 0.950 . S
C1393 C1395 1.327 . S
C1393 C1399 1.429 . S
C1394 C1386 1.574 . S
C1394 H1389 0.949 . S
C1394 C1400 1.368 . S
C1395 C1379 1.349 . S
C1395 H1387 0.950 . S
C1395 C1393 1.327 . S
C1396 C1384 1.349 . S
C1396 H1390 0.950 . S
C1396 C1397 1.327 . S
C1397 H1391 0.950 . S
C1397 C1396 1.327 . S
C1397 C1401 1.429 . S
C1398 C1381 1.574 . S
C1398 H1392 0.949 . S
C1398 C1402 1.368 . S
C1399 C1380 1.429 . S
C1399 C1393 1.429 . S
C1399 C1400 1.523 . S
C1400 C1381 1.368 . S
C1400 C1394 1.368 . S
C1400 C1399 1.523 . S
C1401 C1385 1.429 . S
C1401 C1397 1.429 . S
C1401 C1402 1.523 1_556 S
C1402 C1386 1.368 . S
C1402 C1398 1.368 . S
C1402 C1401 1.523 1_554 S
H1403 C1378 0.950 . S
H1404 C1380 0.950 . S
H1405 C1381 0.949 . S
H1406 C1383 0.950 . S
H1407 C1385 0.950 . S
C1408 C1409 1.349 . S
C1408 C1410 1.327 . S
C1408 H1433 0.950 . S
C1409 C1408 1.349 . S
C1409 C1425 1.349 . S
C1410 C1408 1.327 . S
C1410 C1429 1.429 . S
C1410 H1434 0.950 . S
C1411 C1428 1.574 . S
C1411 C1430 1.368 . S
C1411 H1435 0.949 . S
H1412 C1416 0.949 . S
C1413 C1414 1.349 . S
C1413 C1415 1.327 . S
C1413 H1436 0.950 . S
C1414 C1413 1.349 . S
C1414 C1426 1.349 . S
C1415 C1413 1.327 . S
C1415 C1431 1.429 . S
C1415 H1437 0.950 . S
C1416 H1412 0.949 . S
C1416 C1424 1.574 . S
C1416 C1432 1.368 . S
H1417 C1425 0.950 . S
H1418 C1423 0.950 . S
H1419 C1424 0.949 . S
H1420 C1426 0.950 . S
H1421 C1427 0.950 . S
H1422 C1428 0.949 . S
C1423 H1418 0.950 . S
C1423 C1425 1.327 . S
C1423 C1429 1.429 . S
C1424 C1416 1.574 . S
C1424 H1419 0.949 . S
C1424 C1430 1.368 . S
C1425 C1409 1.349 . S
C1425 H1417 0.950 . S
C1425 C1423 1.327 . S
C1426 C1414 1.349 . S
C1426 H1420 0.950 . S
C1426 C1427 1.327 . S
C1427 H1421 0.950 . S
C1427 C1426 1.327 . S
C1427 C1431 1.429 . S
C1428 C1411 1.574 . S
C1428 H1422 0.949 . S
C1428 C1432 1.368 . S
C1429 C1410 1.429 . S
C1429 C1423 1.429 . S
C1429 C1430 1.523 . S
C1430 C1411 1.368 . S
C1430 C1424 1.368 . S
C1430 C1429 1.523 . S
C1431 C1415 1.429 . S
C1431 C1427 1.429 . S
C1431 C1432 1.523 . S
C1432 C1416 1.368 . S
C1432 C1428 1.368 . S
C1432 C1431 1.523 . S
H1433 C1408 0.950 . S
H1434 C1410 0.950 . S
H1435 C1411 0.949 . S
H1436 C1413 0.950 . S
H1437 C1415 0.950 . S
C1438 C1439 1.349 . S
C1438 C1440 1.327 . S
C1438 H1463 0.950 . S
C1439 C1438 1.349 . S
C1439 C1455 1.349 . S
C1440 C1438 1.327 . S
C1440 C1459 1.429 . S
C1440 H1464 0.950 . S
C1441 C1458 1.574 . S
C1441 C1460 1.368 . S
C1441 H1465 0.949 . S
H1442 C1446 0.949 . S
C1443 C1444 1.349 . S
C1443 C1445 1.327 . S
C1443 H1466 0.950 . S
C1444 C1443 1.349 . S
C1444 C1456 1.349 . S
C1445 C1443 1.327 . S
C1445 C1461 1.429 . S
C1445 H1467 0.950 . S
C1446 H1442 0.949 . S
C1446 C1454 1.574 . S
C1446 C1462 1.368 . S
H1447 C1455 0.950 . S
H1448 C1453 0.950 . S
H1449 C1454 0.949 . S
H1450 C1456 0.950 . S
H1451 C1457 0.950 . S
H1452 C1458 0.949 . S
C1453 H1448 0.950 . S
C1453 C1455 1.327 . S
C1453 C1459 1.429 . S
C1454 C1446 1.574 . S
C1454 H1449 0.949 . S
C1454 C1460 1.368 . S
C1455 C1439 1.349 . S
C1455 H1447 0.950 . S
C1455 C1453 1.327 . S
C1456 C1444 1.349 . S
C1456 H1450 0.950 . S
C1456 C1457 1.327 . S
C1457 H1451 0.950 . S
C1457 C1456 1.327 . S
C1457 C1461 1.429 . S
C1458 C1441 1.574 . S
C1458 H1452 0.949 . S
C1458 C1462 1.368 . S
C1459 C1440 1.429 . S
C1459 C1453 1.429 . S
C1459 C1460 1.523 . S
C1460 C1441 1.368 . S
C1460 C1454 1.368 . S
C1460 C1459 1.523 . S
C1461 C1445 1.429 . S
C1461 C1457 1.429 . S
C1461 C1462 1.523 . S
C1462 C1446 1.368 . S
C1462 C1458 1.368 . S
C1462 C1461 1.523 . S
H1463 C1438 0.950 . S
H1464 C1440 0.950 . S
H1465 C1441 0.949 . S
H1466 C1443 0.950 . S
H1467 C1445 0.950 . S
C1468 C1469 1.349 . S
C1468 C1470 1.327 . S
C1468 H1493 0.950 . S
C1469 C1468 1.349 . S
C1469 C1485 1.349 . S
C1470 C1468 1.327 . S
C1470 C1489 1.429 . S
C1470 H1494 0.950 . S
C1471 C1488 1.574 . S
C1471 C1490 1.368 . S
C1471 H1495 0.949 . S
H1472 C1476 0.949 . S
C1473 C1474 1.349 . S
C1473 C1475 1.327 . S
C1473 H1496 0.950 . S
C1474 C1473 1.349 . S
C1474 C1486 1.349 . S
C1475 C1473 1.327 . S
C1475 C1491 1.429 . S
C1475 H1497 0.950 . S
C1476 H1472 0.949 . S
C1476 C1484 1.574 . S
C1476 C1492 1.368 . S
H1477 C1485 0.950 . S
H1478 C1483 0.950 . S
H1479 C1484 0.949 . S
H1480 C1486 0.950 . S
H1481 C1487 0.950 . S
H1482 C1488 0.949 . S
C1483 H1478 0.950 . S
C1483 C1485 1.327 . S
C1483 C1489 1.429 . S
C1484 C1476 1.574 . S
C1484 H1479 0.949 . S
C1484 C1490 1.368 . S
C1485 C1469 1.349 . S
C1485 H1477 0.950 . S
C1485 C1483 1.327 . S
C1486 C1474 1.349 . S
C1486 H1480 0.950 . S
C1486 C1487 1.327 . S
C1487 H1481 0.950 . S
C1487 C1486 1.327 . S
C1487 C1491 1.429 . S
C1488 C1471 1.574 . S
C1488 H1482 0.949 . S
C1488 C1492 1.368 . S
C1489 C1470 1.429 . S
C1489 C1483 1.429 . S
C1489 C1490 1.523 . S
C1490 C1471 1.368 . S
C1490 C1484 1.368 . S
C1490 C1489 1.523 . S
C1491 C1475 1.429 . S
C1491 C1487 1.429 . S
C1491 C1492 1.523 . S
C1492 C1476 1.368 . S
C1492 C1488 1.368 . S
C1492 C1491 1.523 . S
H1493 C1468 0.950 . S
H1494 C1470 0.950 . S
H1495 C1471 0.949 . S
H1496 C1473 0.950 . S
H1497 C1475 0.950 . S
C1498 C1499 1.349 . S
C1498 C1500 1.327 . S
C1498 H1523 0.950 . S
C1499 C1498 1.349 . S
C1499 C1515 1.349 . S
C1500 C1498 1.327 . S
C1500 C1519 1.429 . S
C1500 H1524 0.950 . S
C1501 C1518 1.574 . S
C1501 C1520 1.368 . S
C1501 H1525 0.949 . S
H1502 C1506 0.949 . S
C1503 C1504 1.349 . S
C1503 C1505 1.327 . S
C1503 H1526 0.950 . S
C1504 C1503 1.349 . S
C1504 C1516 1.349 . S
C1505 C1503 1.327 . S
C1505 C1521 1.429 . S
C1505 H1527 0.950 . S
C1506 H1502 0.949 . S
C1506 C1514 1.574 . S
C1506 C1522 1.368 . S
H1507 C1515 0.950 . S
H1508 C1513 0.950 . S
H1509 C1514 0.949 . S
H1510 C1516 0.950 . S
H1511 C1517 0.950 . S
H1512 C1518 0.949 . S
C1513 H1508 0.950 . S
C1513 C1515 1.327 . S
C1513 C1519 1.429 . S
C1514 C1506 1.574 . S
C1514 H1509 0.949 . S
C1514 C1520 1.368 . S
C1515 C1499 1.349 . S
C1515 H1507 0.950 . S
C1515 C1513 1.327 . S
C1516 C1504 1.349 . S
C1516 H1510 0.950 . S
C1516 C1517 1.327 . S
C1517 H1511 0.950 . S
C1517 C1516 1.327 . S
C1517 C1521 1.429 . S
C1518 C1501 1.574 . S
C1518 H1512 0.949 . S
C1518 C1522 1.368 . S
C1519 C1500 1.429 . S
C1519 C1513 1.429 . S
C1519 C1520 1.523 . S
C1520 C1501 1.368 . S
C1520 C1514 1.368 . S
C1520 C1519 1.523 . S
C1521 C1505 1.429 . S
C1521 C1517 1.429 . S
C1521 C1522 1.523 1_556 S
C1522 C1506 1.368 . S
C1522 C1518 1.368 . S
C1522 C1521 1.523 1_554 S
H1523 C1498 0.950 . S
H1524 C1500 0.950 . S
H1525 C1501 0.949 . S
H1526 C1503 0.950 . S
H1527 C1505 0.950 . S
C1528 C1529 1.349 . S
C1528 C1530 1.327 . S
C1528 H1553 0.950 . S
C1529 C1528 1.349 . S
C1529 C1545 1.349 . S
C1530 C1528 1.327 . S
C1530 C1549 1.429 . S
C1530 H1554 0.950 . S
C1531 C1548 1.574 . S
C1531 C1550 1.368 . S
C1531 H1555 0.949 . S
H1532 C1536 0.949 . S
C1533 C1534 1.349 . S
C1533 C1535 1.327 . S
C1533 H1556 0.950 . S
C1534 C1533 1.349 . S
C1534 C1546 1.349 . S
C1535 C1533 1.327 . S
C1535 C1551 1.429 . S
C1535 H1557 0.950 . S
C1536 H1532 0.949 . S
C1536 C1544 1.574 . S
C1536 C1552 1.368 . S
H1537 C1545 0.950 . S
H1538 C1543 0.950 . S
H1539 C1544 0.949 . S
H1540 C1546 0.950 . S
H1541 C1547 0.950 . S
H1542 C1548 0.949 . S
C1543 H1538 0.950 . S
C1543 C1545 1.327 . S
C1543 C1549 1.429 . S
C1544 C1536 1.574 . S
C1544 H1539 0.949 . S
C1544 C1550 1.368 . S
C1545 C1529 1.349 . S
C1545 H1537 0.950 . S
C1545 C1543 1.327 . S
C1546 C1534 1.349 . S
C1546 H1540 0.950 . S
C1546 C1547 1.327 . S
C1547 H1541 0.950 . S
C1547 C1546 1.327 . S
C1547 C1551 1.429 . S
C1548 C1531 1.574 . S
C1548 H1542 0.949 . S
C1548 C1552 1.368 . S
C1549 C1530 1.429 . S
C1549 C1543 1.429 . S
C1549 C1550 1.523 . S
C1550 C1531 1.368 . S
C1550 C1544 1.368 . S
C1550 C1549 1.523 . S
C1551 C1535 1.429 . S
C1551 C1547 1.429 . S
C1551 C1552 1.523 . S
C1552 C1536 1.368 . S
C1552 C1548 1.368 . S
C1552 C1551 1.523 . S
H1553 C1528 0.950 . S
H1554 C1530 0.950 . S
H1555 C1531 0.949 . S
H1556 C1533 0.950 . S
H1557 C1535 0.950 . S
C1558 C1559 1.349 . S
C1558 C1560 1.327 . S
C1558 H1583 0.950 . S
C1559 C1558 1.349 . S
C1559 C1575 1.349 . S
C1560 C1558 1.327 . S
C1560 C1579 1.429 . S
C1560 H1584 0.950 . S
C1561 C1578 1.574 . S
C1561 C1580 1.368 . S
C1561 H1585 0.949 . S
H1562 C1566 0.949 . S
C1563 C1564 1.349 . S
C1563 C1565 1.327 . S
C1563 H1586 0.950 . S
C1564 C1563 1.349 . S
C1564 C1576 1.349 . S
C1565 C1563 1.327 . S
C1565 C1581 1.429 . S
C1565 H1587 0.950 . S
C1566 H1562 0.949 . S
C1566 C1574 1.574 . S
C1566 C1582 1.368 . S
H1567 C1575 0.950 . S
H1568 C1573 0.950 . S
H1569 C1574 0.949 . S
H1570 C1576 0.950 . S
H1571 C1577 0.950 . S
H1572 C1578 0.949 . S
C1573 H1568 0.950 . S
C1573 C1575 1.327 . S
C1573 C1579 1.429 . S
C1574 C1566 1.574 . S
C1574 H1569 0.949 . S
C1574 C1580 1.368 . S
C1575 C1559 1.349 . S
C1575 H1567 0.950 . S
C1575 C1573 1.327 . S
C1576 C1564 1.349 . S
C1576 H1570 0.950 . S
C1576 C1577 1.327 . S
C1577 H1571 0.950 . S
C1577 C1576 1.327 . S
C1577 C1581 1.429 . S
C1578 C1561 1.574 . S
C1578 H1572 0.949 . S
C1578 C1582 1.368 . S
C1579 C1560 1.429 . S
C1579 C1573 1.429 . S
C1579 C1580 1.523 . S
C1580 C1561 1.368 . S
C1580 C1574 1.368 . S
C1580 C1579 1.523 . S
C1581 C1565 1.429 . S
C1581 C1577 1.429 . S
C1581 C1582 1.523 . S
C1582 C1566 1.368 . S
C1582 C1578 1.368 . S
C1582 C1581 1.523 . S
H1583 C1558 0.950 . S
H1584 C1560 0.950 . S
H1585 C1561 0.949 . S
H1586 C1563 0.950 . S
H1587 C1565 0.950 . S
C1588 C1589 1.349 . S
C1588 C1590 1.327 . S
C1588 H1613 0.950 . S
C1589 C1588 1.349 . S
C1589 C1605 1.349 . S
C1590 C1588 1.327 . S
C1590 C1609 1.429 . S
C1590 H1614 0.950 . S
C1591 C1608 1.574 . S
C1591 C1610 1.368 . S
C1591 H1615 0.949 . S
H1592 C1596 0.949 . S
C1593 C1594 1.349 . S
C1593 C1595 1.327 . S
C1593 H1616 0.950 . S
C1594 C1593 1.349 . S
C1594 C1606 1.349 . S
C1595 C1593 1.327 . S
C1595 C1611 1.429 . S
C1595 H1617 0.950 . S
C1596 H1592 0.949 . S
C1596 C1604 1.574 . S
C1596 C1612 1.368 . S
H1597 C1605 0.950 . S
H1598 C1603 0.950 . S
H1599 C1604 0.949 . S
H1600 C1606 0.950 . S
H1601 C1607 0.950 . S
H1602 C1608 0.949 . S
C1603 H1598 0.950 . S
C1603 C1605 1.327 . S
C1603 C1609 1.429 . S
C1604 C1596 1.574 . S
C1604 H1599 0.949 . S
C1604 C1610 1.368 . S
C1605 C1589 1.349 . S
C1605 H1597 0.950 . S
C1605 C1603 1.327 . S
C1606 C1594 1.349 . S
C1606 H1600 0.950 . S
C1606 C1607 1.327 . S
C1607 H1601 0.950 . S
C1607 C1606 1.327 . S
C1607 C1611 1.429 . S
C1608 C1591 1.574 . S
C1608 H1602 0.949 . S
C1608 C1612 1.368 . S
C1609 C1590 1.429 . S
C1609 C1603 1.429 . S
C1609 C1610 1.523 . S
C1610 C1591 1.368 . S
C1610 C1604 1.368 . S
C1610 C1609 1.523 . S
C1611 C1595 1.429 . S
C1611 C1607 1.429 . S
C1611 C1612 1.523 . S
C1612 C1596 1.368 . S
C1612 C1608 1.368 . S
C1612 C1611 1.523 . S
H1613 C1588 0.950 . S
H1614 C1590 0.950 . S
H1615 C1591 0.949 . S
H1616 C1593 0.950 . S
H1617 C1595 0.950 . S
C1618 C1619 1.349 . S
C1618 C1620 1.327 . S
C1618 H1643 0.950 . S
C1619 C1618 1.349 . S
C1619 C1635 1.349 . S
C1620 C1618 1.327 . S
C1620 C1639 1.429 . S
C1620 H1644 0.950 . S
C1621 C1638 1.574 . S
C1621 C1640 1.368 . S
C1621 H1645 0.949 . S
H1622 C1626 0.949 . S
C1623 C1624 1.349 . S
C1623 C1625 1.327 . S
C1623 H1646 0.950 . S
C1624 C1623 1.349 . S
C1624 C1636 1.349 . S
C1625 C1623 1.327 . S
C1625 C1641 1.429 . S
C1625 H1647 0.950 . S
C1626 H1622 0.949 . S
C1626 C1634 1.574 . S
C1626 C1642 1.368 . S
H1627 C1635 0.950 . S
H1628 C1633 0.950 . S
H1629 C1634 0.949 . S
H1630 C1636 0.950 . S
H1631 C1637 0.950 . S
H1632 C1638 0.949 . S
C1633 H1628 0.950 . S
C1633 C1635 1.327 . S
C1633 C1639 1.429 . S
C1634 C1626 1.574 . S
C1634 H1629 0.949 . S
C1634 C1640 1.368 . S
C1635 C1619 1.349 . S
C1635 H1627 0.950 . S
C1635 C1633 1.327 . S
C1636 C1624 1.349 . S
C1636 H1630 0.950 . S
C1636 C1637 1.327 . S
C1637 H1631 0.950 . S
C1637 C1636 1.327 . S
C1637 C1641 1.429 . S
C1638 C1621 1.574 . S
C1638 H1632 0.949 . S
C1638 C1642 1.368 . S
C1639 C1620 1.429 . S
C1639 C1633 1.429 . S
C1639 C1640 1.523 1_556 S
C1640 C1621 1.368 . S
C1640 C1634 1.368 . S
C1640 C1639 1.523 1_554 S
C1641 C1625 1.429 . S
C1641 C1637 1.429 . S
C1641 C1642 1.523 . S
C1642 C1626 1.368 . S
C1642 C1638 1.368 . S
C1642 C1641 1.523 . S
H1643 C1618 0.950 . S
H1644 C1620 0.950 . S
H1645 C1621 0.949 . S
H1646 C1623 0.950 . S
H1647 C1625 0.950 . S
C1648 C1649 1.349 1_545 S
C1648 C1650 1.327 . S
C1648 H1673 0.950 . S
C1649 C1648 1.349 1_565 S
C1649 C1665 1.349 . S
C1650 C1648 1.327 . S
C1650 C1669 1.429 1_545 S
C1650 H1674 0.950 . S
C1651 C1668 1.574 . S
C1651 C1670 1.368 . S
C1651 H1675 0.949 . S
H1652 C1656 0.949 . S
C1653 C1654 1.349 1_565 S
C1653 C1655 1.327 . S
C1653 H1676 0.950 . S
C1654 C1653 1.349 1_545 S
C1654 C1666 1.349 . S
C1655 C1653 1.327 . S
C1655 C1671 1.429 1_565 S
C1655 H1677 0.950 . S
C1656 H1652 0.949 . S
C1656 C1664 1.574 . S
C1656 C1672 1.368 . S
H1657 C1665 0.950 . S
H1658 C1663 0.950 . S
H1659 C1664 0.949 . S
H1660 C1666 0.950 . S
H1661 C1667 0.950 . S
H1662 C1668 0.949 . S
C1663 H1658 0.950 . S
C1663 C1665 1.327 . S
C1663 C1669 1.429 . S
C1664 C1656 1.574 . S
C1664 H1659 0.949 . S
C1664 C1670 1.368 1_545 S
C1665 C1649 1.349 . S
C1665 H1657 0.950 . S
C1665 C1663 1.327 . S
C1666 C1654 1.349 . S
C1666 H1660 0.950 . S
C1666 C1667 1.327 . S
C1667 H1661 0.950 . S
C1667 C1666 1.327 . S
C1667 C1671 1.429 . S
C1668 C1651 1.574 . S
C1668 H1662 0.949 . S
C1668 C1672 1.368 1_565 S
C1669 C1650 1.429 1_565 S
C1669 C1663 1.429 . S
C1669 C1670 1.523 . S
C1670 C1651 1.368 . S
C1670 C1664 1.368 1_565 S
C1670 C1669 1.523 . S
C1671 C1655 1.429 1_545 S
C1671 C1667 1.429 . S
C1671 C1672 1.523 . S
C1672 C1656 1.368 . S
C1672 C1668 1.368 1_545 S
C1672 C1671 1.523 . S
H1673 C1648 0.950 . S
H1674 C1650 0.950 . S
H1675 C1651 0.949 . S
H1676 C1653 0.950 . S
H1677 C1655 0.950 . S
C1678 C1679 1.349 . S
C1678 C1680 1.327 . S
C1678 H1703 0.950 . S
C1679 C1678 1.349 . S
C1679 C1695 1.349 . S
C1680 C1678 1.327 . S
C1680 C1699 1.429 . S
C1680 H1704 0.950 . S
C1681 C1698 1.574 . S
C1681 C1700 1.368 . S
C1681 H1705 0.949 . S
H1682 C1686 0.949 . S
C1683 C1684 1.349 . S
C1683 C1685 1.327 . S
C1683 H1706 0.950 . S
C1684 C1683 1.349 . S
C1684 C1696 1.349 . S
C1685 C1683 1.327 . S
C1685 C1701 1.429 . S
C1685 H1707 0.950 . S
C1686 H1682 0.949 . S
C1686 C1694 1.574 . S
C1686 C1702 1.368 . S
H1687 C1695 0.950 . S
H1688 C1693 0.950 . S
H1689 C1694 0.949 . S
H1690 C1696 0.950 . S
H1691 C1697 0.950 . S
H1692 C1698 0.949 . S
C1693 H1688 0.950 . S
C1693 C1695 1.327 . S
C1693 C1699 1.429 . S
C1694 C1686 1.574 . S
C1694 H1689 0.949 . S
C1694 C1700 1.368 . S
C1695 C1679 1.349 . S
C1695 H1687 0.950 . S
C1695 C1693 1.327 . S
C1696 C1684 1.349 . S
C1696 H1690 0.950 . S
C1696 C1697 1.327 . S
C1697 H1691 0.950 . S
C1697 C1696 1.327 . S
C1697 C1701 1.429 . S
C1698 C1681 1.574 . S
C1698 H1692 0.949 . S
C1698 C1702 1.368 . S
C1699 C1680 1.429 . S
C1699 C1693 1.429 . S
C1699 C1700 1.523 . S
C1700 C1681 1.368 . S
C1700 C1694 1.368 . S
C1700 C1699 1.523 . S
C1701 C1685 1.429 . S
C1701 C1697 1.429 . S
C1701 C1702 1.523 1_556 S
C1702 C1686 1.368 . S
C1702 C1698 1.368 . S
C1702 C1701 1.523 1_554 S
H1703 C1678 0.950 . S
H1704 C1680 0.950 . S
H1705 C1681 0.949 . S
H1706 C1683 0.950 . S
H1707 C1685 0.950 . S
C1708 C1709 1.349 . S
C1708 C1710 1.327 . S
C1708 H1733 0.950 . S
C1709 C1708 1.349 . S
C1709 C1725 1.349 1_565 S
C1710 C1708 1.327 . S
C1710 C1729 1.429 . S
C1710 H1734 0.950 . S
C1711 C1728 1.574 . S
C1711 C1730 1.368 1_545 S
C1711 H1735 0.949 . S
H1712 C1716 0.949 . S
C1713 C1714 1.349 . S
C1713 C1715 1.327 . S
C1713 H1736 0.950 . S
C1714 C1713 1.349 . S
C1714 C1726 1.349 1_545 S
C1715 C1713 1.327 . S
C1715 C1731 1.429 . S
C1715 H1737 0.950 . S
C1716 H1712 0.949 . S
C1716 C1724 1.574 . S
C1716 C1732 1.368 1_565 S
H1717 C1725 0.950 . S
H1718 C1723 0.950 . S
H1719 C1724 0.949 . S
H1720 C1726 0.950 . S
H1721 C1727 0.950 . S
H1722 C1728 0.949 . S
C1723 H1718 0.950 . S
C1723 C1725 1.327 . S
C1723 C1729 1.429 1_545 S
C1724 C1716 1.574 . S
C1724 H1719 0.949 . S
C1724 C1730 1.368 . S
C1725 C1709 1.349 1_545 S
C1725 H1717 0.950 . S
C1725 C1723 1.327 . S
C1726 C1714 1.349 1_565 S
C1726 H1720 0.950 . S
C1726 C1727 1.327 . S
C1727 H1721 0.950 . S
C1727 C1726 1.327 . S
C1727 C1731 1.429 1_565 S
C1728 C1711 1.574 . S
C1728 H1722 0.949 . S
C1728 C1732 1.368 . S
C1729 C1710 1.429 . S
C1729 C1723 1.429 1_565 S
C1729 C1730 1.523 . S
C1730 C1711 1.368 1_565 S
C1730 C1724 1.368 . S
C1730 C1729 1.523 . S
C1731 C1715 1.429 . S
C1731 C1727 1.429 1_545 S
C1731 C1732 1.523 . S
C1732 C1716 1.368 1_545 S
C1732 C1728 1.368 . S
C1732 C1731 1.523 . S
H1733 C1708 0.950 . S
H1734 C1710 0.950 . S
H1735 C1711 0.949 . S
H1736 C1713 0.950 . S
H1737 C1715 0.950 . S
C1738 C1739 1.349 . S
C1738 C1740 1.327 . S
C1738 H1763 0.950 . S
C1739 C1738 1.349 . S
C1739 C1755 1.349 . S
C1740 C1738 1.327 . S
C1740 C1759 1.429 . S
C1740 H1764 0.950 . S
C1741 C1758 1.574 . S
C1741 C1760 1.368 . S
C1741 H1765 0.949 . S
H1742 C1746 0.949 . S
C1743 C1744 1.349 . S
C1743 C1745 1.327 . S
C1743 H1766 0.950 . S
C1744 C1743 1.349 . S
C1744 C1756 1.349 . S
C1745 C1743 1.327 . S
C1745 C1761 1.429 . S
C1745 H1767 0.950 . S
C1746 H1742 0.949 . S
C1746 C1754 1.574 . S
C1746 C1762 1.368 . S
H1747 C1755 0.950 . S
H1748 C1753 0.950 . S
H1749 C1754 0.949 . S
H1750 C1756 0.950 . S
H1751 C1757 0.950 . S
H1752 C1758 0.949 . S
C1753 H1748 0.950 . S
C1753 C1755 1.327 . S
C1753 C1759 1.429 . S
C1754 C1746 1.574 . S
C1754 H1749 0.949 . S
C1754 C1760 1.368 . S
C1755 C1739 1.349 . S
C1755 H1747 0.950 . S
C1755 C1753 1.327 . S
C1756 C1744 1.349 . S
C1756 H1750 0.950 . S
C1756 C1757 1.327 . S
C1757 H1751 0.950 . S
C1757 C1756 1.327 . S
C1757 C1761 1.429 . S
C1758 C1741 1.574 . S
C1758 H1752 0.949 . S
C1758 C1762 1.368 . S
C1759 C1740 1.429 . S
C1759 C1753 1.429 . S
C1759 C1760 1.523 . S
C1760 C1741 1.368 . S
C1760 C1754 1.368 . S
C1760 C1759 1.523 . S
C1761 C1745 1.429 . S
C1761 C1757 1.429 . S
C1761 C1762 1.523 . S
C1762 C1746 1.368 . S
C1762 C1758 1.368 . S
C1762 C1761 1.523 . S
H1763 C1738 0.950 . S
H1764 C1740 0.950 . S
H1765 C1741 0.949 . S
H1766 C1743 0.950 . S
H1767 C1745 0.950 . S
C1768 C1769 1.349 . S
C1768 C1770 1.327 . S
C1768 H1793 0.950 . S
C1769 C1768 1.349 . S
C1769 C1785 1.349 1_565 S
C1770 C1768 1.327 . S
C1770 C1789 1.429 . S
C1770 H1794 0.950 . S
C1771 C1788 1.574 . S
C1771 C1790 1.368 1_545 S
C1771 H1795 0.949 . S
H1772 C1776 0.949 . S
C1773 C1774 1.349 . S
C1773 C1775 1.327 . S
C1773 H1796 0.950 . S
C1774 C1773 1.349 . S
C1774 C1786 1.349 1_545 S
C1775 C1773 1.327 . S
C1775 C1791 1.429 . S
C1775 H1797 0.950 . S
C1776 H1772 0.949 . S
C1776 C1784 1.574 . S
C1776 C1792 1.368 1_565 S
H1777 C1785 0.950 . S
H1778 C1783 0.950 . S
H1779 C1784 0.949 . S
H1780 C1786 0.950 . S
H1781 C1787 0.950 . S
H1782 C1788 0.949 . S
C1783 H1778 0.950 . S
C1783 C1785 1.327 . S
C1783 C1789 1.429 1_545 S
C1784 C1776 1.574 . S
C1784 H1779 0.949 . S
C1784 C1790 1.368 . S
C1785 C1769 1.349 1_545 S
C1785 H1777 0.950 . S
C1785 C1783 1.327 . S
C1786 C1774 1.349 1_565 S
C1786 H1780 0.950 . S
C1786 C1787 1.327 . S
C1787 H1781 0.950 . S
C1787 C1786 1.327 . S
C1787 C1791 1.429 1_565 S
C1788 C1771 1.574 . S
C1788 H1782 0.949 . S
C1788 C1792 1.368 . S
C1789 C1770 1.429 . S
C1789 C1783 1.429 1_565 S
C1789 C1790 1.523 . S
C1790 C1771 1.368 1_565 S
C1790 C1784 1.368 . S
C1790 C1789 1.523 . S
C1791 C1775 1.429 . S
C1791 C1787 1.429 1_545 S
C1791 C1792 1.523 . S
C1792 C1776 1.368 1_545 S
C1792 C1788 1.368 . S
C1792 C1791 1.523 . S
H1793 C1768 0.950 . S
H1794 C1770 0.950 . S
H1795 C1771 0.949 . S
H1796 C1773 0.950 . S
H1797 C1775 0.950 . S
C1798 C1799 1.349 . S
C1798 C1800 1.327 . S
C1798 H1823 0.950 . S
C1799 C1798 1.349 . S
C1799 C1815 1.349 . S
C1800 C1798 1.327 . S
C1800 C1819 1.429 . S
C1800 H1824 0.950 . S
C1801 C1818 1.574 . S
C1801 C1820 1.368 . S
C1801 H1825 0.949 . S
H1802 C1806 0.949 . S
C1803 C1804 1.349 . S
C1803 C1805 1.327 . S
C1803 H1826 0.950 . S
C1804 C1803 1.349 . S
C1804 C1816 1.349 . S
C1805 C1803 1.327 . S
C1805 C1821 1.429 . S
C1805 H1827 0.950 . S
C1806 H1802 0.949 . S
C1806 C1814 1.574 . S
C1806 C1822 1.368 . S
H1807 C1815 0.950 . S
H1808 C1813 0.950 . S
H1809 C1814 0.949 . S
H1810 C1816 0.950 . S
H1811 C1817 0.950 . S
H1812 C1818 0.949 . S
C1813 H1808 0.950 . S
C1813 C1815 1.327 . S
C1813 C1819 1.429 . S
C1814 C1806 1.574 . S
C1814 H1809 0.949 . S
C1814 C1820 1.368 . S
C1815 C1799 1.349 . S
C1815 H1807 0.950 . S
C1815 C1813 1.327 . S
C1816 C1804 1.349 . S
C1816 H1810 0.950 . S
C1816 C1817 1.327 . S
C1817 H1811 0.950 . S
C1817 C1816 1.327 . S
C1817 C1821 1.429 . S
C1818 C1801 1.574 . S
C1818 H1812 0.949 . S
C1818 C1822 1.368 . S
C1819 C1800 1.429 . S
C1819 C1813 1.429 . S
C1819 C1820 1.523 . S
C1820 C1801 1.368 . S
C1820 C1814 1.368 . S
C1820 C1819 1.523 . S
C1821 C1805 1.429 . S
C1821 C1817 1.429 . S
C1821 C1822 1.523 1_556 S
C1822 C1806 1.368 . S
C1822 C1818 1.368 . S
C1822 C1821 1.523 1_554 S
H1823 C1798 0.950 . S
H1824 C1800 0.950 . S
H1825 C1801 0.949 . S
H1826 C1803 0.950 . S
H1827 C1805 0.950 . S
C1828 C1829 1.349 1_545 S
C1828 C1830 1.327 . S
C1828 H1853 0.950 . S
C1829 C1828 1.349 1_565 S
C1829 C1845 1.349 . S
C1830 C1828 1.327 . S
C1830 C1849 1.429 1_545 S
C1830 H1854 0.950 . S
C1831 C1848 1.574 . S
C1831 C1850 1.368 . S
C1831 H1855 0.949 . S
H1832 C1836 0.949 . S
C1833 C1834 1.349 1_565 S
C1833 C1835 1.327 . S
C1833 H1856 0.950 . S
C1834 C1833 1.349 1_545 S
C1834 C1846 1.349 . S
C1835 C1833 1.327 . S
C1835 C1851 1.429 1_565 S
C1835 H1857 0.950 . S
C1836 H1832 0.949 . S
C1836 C1844 1.574 . S
C1836 C1852 1.368 . S
H1837 C1845 0.950 . S
H1838 C1843 0.950 . S
H1839 C1844 0.949 . S
H1840 C1846 0.950 . S
H1841 C1847 0.950 . S
H1842 C1848 0.949 . S
C1843 H1838 0.950 . S
C1843 C1845 1.327 . S
C1843 C1849 1.429 . S
C1844 C1836 1.574 . S
C1844 H1839 0.949 . S
C1844 C1850 1.368 1_545 S
C1845 C1829 1.349 . S
C1845 H1837 0.950 . S
C1845 C1843 1.327 . S
C1846 C1834 1.349 . S
C1846 H1840 0.950 . S
C1846 C1847 1.327 . S
C1847 H1841 0.950 . S
C1847 C1846 1.327 . S
C1847 C1851 1.429 . S
C1848 C1831 1.574 . S
C1848 H1842 0.949 . S
C1848 C1852 1.368 1_565 S
C1849 C1830 1.429 1_565 S
C1849 C1843 1.429 . S
C1849 C1850 1.523 . S
C1850 C1831 1.368 . S
C1850 C1844 1.368 1_565 S
C1850 C1849 1.523 . S
C1851 C1835 1.429 1_545 S
C1851 C1847 1.429 . S
C1851 C1852 1.523 . S
C1852 C1836 1.368 . S
C1852 C1848 1.368 1_545 S
C1852 C1851 1.523 . S
H1853 C1828 0.950 . S
H1854 C1830 0.950 . S
H1855 C1831 0.949 . S
H1856 C1833 0.950 . S
H1857 C1835 0.950 . S
C1858 C1859 1.349 . S
C1858 C1860 1.327 . S
C1858 H1883 0.950 . S
C1859 C1858 1.349 . S
C1859 C1875 1.349 . S
C1860 C1858 1.327 . S
C1860 C1879 1.429 . S
C1860 H1884 0.950 . S
C1861 C1878 1.574 . S
C1861 C1880 1.368 . S
C1861 H1885 0.949 . S
H1862 C1866 0.949 . S
C1863 C1864 1.349 . S
C1863 C1865 1.327 . S
C1863 H1886 0.950 . S
C1864 C1863 1.349 . S
C1864 C1876 1.349 . S
C1865 C1863 1.327 . S
C1865 C1881 1.429 . S
C1865 H1887 0.950 . S
C1866 H1862 0.949 . S
C1866 C1874 1.574 . S
C1866 C1882 1.368 . S
H1867 C1875 0.950 . S
H1868 C1873 0.950 . S
H1869 C1874 0.949 . S
H1870 C1876 0.950 . S
H1871 C1877 0.950 . S
H1872 C1878 0.949 . S
C1873 H1868 0.950 . S
C1873 C1875 1.327 . S
C1873 C1879 1.429 . S
C1874 C1866 1.574 . S
C1874 H1869 0.949 . S
C1874 C1880 1.368 . S
C1875 C1859 1.349 . S
C1875 H1867 0.950 . S
C1875 C1873 1.327 . S
C1876 C1864 1.349 . S
C1876 H1870 0.950 . S
C1876 C1877 1.327 . S
C1877 H1871 0.950 . S
C1877 C1876 1.327 . S
C1877 C1881 1.429 . S
C1878 C1861 1.574 . S
C1878 H1872 0.949 . S
C1878 C1882 1.368 . S
C1879 C1860 1.429 . S
C1879 C1873 1.429 . S
C1879 C1880 1.523 . S
C1880 C1861 1.368 . S
C1880 C1874 1.368 . S
C1880 C1879 1.523 . S
C1881 C1865 1.429 . S
C1881 C1877 1.429 . S
C1881 C1882 1.523 . S
C1882 C1866 1.368 . S
C1882 C1878 1.368 . S
C1882 C1881 1.523 . S
H1883 C1858 0.950 . S
H1884 C1860 0.950 . S
H1885 C1861 0.949 . S
H1886 C1863 0.950 . S
H1887 C1865 0.950 . S
C1888 C1889 1.349 . S
C1888 C1890 1.327 . S
C1888 H1913 0.950 . S
C1889 C1888 1.349 . S
C1889 C1905 1.349 . S
C1890 C1888 1.327 . S
C1890 C1909 1.429 . S
C1890 H1914 0.950 . S
C1891 C1908 1.574 . S
C1891 C1910 1.368 . S
C1891 H1915 0.949 . S
H1892 C1896 0.949 . S
C1893 C1894 1.349 . S
C1893 C1895 1.327 . S
C1893 H1916 0.950 . S
C1894 C1893 1.349 . S
C1894 C1906 1.349 . S
C1895 C1893 1.327 . S
C1895 C1911 1.429 . S
C1895 H1917 0.950 . S
C1896 H1892 0.949 . S
C1896 C1904 1.574 . S
C1896 C1912 1.368 . S
H1897 C1905 0.950 . S
H1898 C1903 0.950 . S
H1899 C1904 0.949 . S
H1900 C1906 0.950 . S
H1901 C1907 0.950 . S
H1902 C1908 0.949 . S
C1903 H1898 0.950 . S
C1903 C1905 1.327 . S
C1903 C1909 1.429 . S
C1904 C1896 1.574 . S
C1904 H1899 0.949 . S
C1904 C1910 1.368 . S
C1905 C1889 1.349 . S
C1905 H1897 0.950 . S
C1905 C1903 1.327 . S
C1906 C1894 1.349 . S
C1906 H1900 0.950 . S
C1906 C1907 1.327 . S
C1907 H1901 0.950 . S
C1907 C1906 1.327 . S
C1907 C1911 1.429 . S
C1908 C1891 1.574 . S
C1908 H1902 0.949 . S
C1908 C1912 1.368 . S
C1909 C1890 1.429 . S
C1909 C1903 1.429 . S
C1909 C1910 1.523 . S
C1910 C1891 1.368 . S
C1910 C1904 1.368 . S
C1910 C1909 1.523 . S
C1911 C1895 1.429 . S
C1911 C1907 1.429 . S
C1911 C1912 1.523 . S
C1912 C1896 1.368 . S
C1912 C1908 1.368 . S
C1912 C1911 1.523 . S
H1913 C1888 0.950 . S
H1914 C1890 0.950 . S
H1915 C1891 0.949 . S
H1916 C1893 0.950 . S
H1917 C1895 0.950 . S
C1918 C1919 1.349 . S
C1918 C1920 1.327 . S
C1918 H1943 0.950 . S
C1919 C1918 1.349 . S
C1919 C1935 1.349 . S
C1920 C1918 1.327 . S
C1920 C1939 1.429 . S
C1920 H1944 0.950 . S
C1921 C1938 1.574 . S
C1921 C1940 1.368 . S
C1921 H1945 0.949 . S
H1922 C1926 0.949 . S
C1923 C1924 1.349 . S
C1923 C1925 1.327 . S
C1923 H1946 0.950 . S
C1924 C1923 1.349 . S
C1924 C1936 1.349 . S
C1925 C1923 1.327 . S
C1925 C1941 1.429 . S
C1925 H1947 0.950 . S
C1926 H1922 0.949 . S
C1926 C1934 1.574 . S
C1926 C1942 1.368 . S
H1927 C1935 0.950 . S
H1928 C1933 0.950 . S
H1929 C1934 0.949 . S
H1930 C1936 0.950 . S
H1931 C1937 0.950 . S
H1932 C1938 0.949 . S
C1933 H1928 0.950 . S
C1933 C1935 1.327 . S
C1933 C1939 1.429 . S
C1934 C1926 1.574 . S
C1934 H1929 0.949 . S
C1934 C1940 1.368 . S
C1935 C1919 1.349 . S
C1935 H1927 0.950 . S
C1935 C1933 1.327 . S
C1936 C1924 1.349 . S
C1936 H1930 0.950 . S
C1936 C1937 1.327 . S
C1937 H1931 0.950 . S
C1937 C1936 1.327 . S
C1937 C1941 1.429 . S
C1938 C1921 1.574 . S
C1938 H1932 0.949 . S
C1938 C1942 1.368 . S
C1939 C1920 1.429 . S
C1939 C1933 1.429 . S
C1939 C1940 1.523 . S
C1940 C1921 1.368 . S
C1940 C1934 1.368 . S
C1940 C1939 1.523 . S
C1941 C1925 1.429 . S
C1941 C1937 1.429 . S
C1941 C1942 1.523 . S
C1942 C1926 1.368 . S
C1942 C1938 1.368 . S
C1942 C1941 1.523 . S
H1943 C1918 0.950 . S
H1944 C1920 0.950 . S
H1945 C1921 0.949 . S
H1946 C1923 0.950 . S
H1947 C1925 0.950 . S
C1948 C1949 1.349 . S
C1948 C1950 1.327 . S
C1948 H1973 0.950 . S
C1949 C1948 1.349 . S
C1949 C1965 1.349 . S
C1950 C1948 1.327 . S
C1950 C1969 1.429 . S
C1950 H1974 0.950 . S
C1951 C1968 1.574 . S
C1951 C1970 1.368 . S
C1951 H1975 0.949 . S
H1952 C1956 0.949 . S
C1953 C1954 1.349 . S
C1953 C1955 1.327 . S
C1953 H1976 0.950 . S
C1954 C1953 1.349 . S
C1954 C1966 1.349 . S
C1955 C1953 1.327 . S
C1955 C1971 1.429 . S
C1955 H1977 0.950 . S
C1956 H1952 0.949 . S
C1956 C1964 1.574 . S
C1956 C1972 1.368 . S
H1957 C1965 0.950 . S
H1958 C1963 0.950 . S
H1959 C1964 0.949 . S
H1960 C1966 0.950 . S
H1961 C1967 0.950 . S
H1962 C1968 0.949 . S
C1963 H1958 0.950 . S
C1963 C1965 1.327 . S
C1963 C1969 1.429 . S
C1964 C1956 1.574 . S
C1964 H1959 0.949 . S
C1964 C1970 1.368 . S
C1965 C1949 1.349 . S
C1965 H1957 0.950 . S
C1965 C1963 1.327 . S
C1966 C1954 1.349 . S
C1966 H1960 0.950 . S
C1966 C1967 1.327 . S
C1967 H1961 0.950 . S
C1967 C1966 1.327 . S
C1967 C1971 1.429 . S
C1968 C1951 1.574 . S
C1968 H1962 0.949 . S
C1968 C1972 1.368 . S
C1969 C1950 1.429 . S
C1969 C1963 1.429 . S
C1969 C1970 1.523 . S
C1970 C1951 1.368 . S
C1970 C1964 1.368 . S
C1970 C1969 1.523 . S
C1971 C1955 1.429 . S
C1971 C1967 1.429 . S
C1971 C1972 1.523 . S
C1972 C1956 1.368 . S
C1972 C1968 1.368 . S
C1972 C1971 1.523 . S
H1973 C1948 0.950 . S
H1974 C1950 0.950 . S
H1975 C1951 0.949 . S
H1976 C1953 0.950 . S
H1977 C1955 0.950 . S
C1978 C1979 1.349 . S
C1978 C1980 1.327 . S
C1978 H2003 0.950 . S
C1979 C1978 1.349 . S
C1979 C1995 1.349 . S
C1980 C1978 1.327 . S
C1980 C1999 1.429 . S
C1980 H2004 0.950 . S
C1981 C1998 1.574 . S
C1981 C2000 1.368 . S
C1981 H2005 0.949 . S
H1982 C1986 0.949 . S
C1983 C1984 1.349 . S
C1983 C1985 1.327 1_554 S
C1983 H2006 0.950 . S
C1984 C1983 1.349 . S
C1984 C1996 1.349 1_554 S
C1985 C1983 1.327 1_556 S
C1985 C2001 1.429 . S
C1985 H2007 0.950 . S
C1986 H1982 0.949 . S
C1986 C1994 1.574 . S
C1986 C2002 1.368 . S
H1987 C1995 0.950 . S
H1988 C1993 0.950 . S
H1989 C1994 0.949 . S
H1990 C1996 0.950 . S
H1991 C1997 0.950 . S
H1992 C1998 0.949 . S
C1993 H1988 0.950 . S
C1993 C1995 1.327 . S
C1993 C1999 1.429 . S
C1994 C1986 1.574 . S
C1994 H1989 0.949 . S
C1994 C2000 1.368 . S
C1995 C1979 1.349 . S
C1995 H1987 0.950 . S
C1995 C1993 1.327 . S
C1996 C1984 1.349 1_556 S
C1996 H1990 0.950 . S
C1996 C1997 1.327 . S
C1997 H1991 0.950 . S
C1997 C1996 1.327 . S
C1997 C2001 1.429 . S
C1998 C1981 1.574 . S
C1998 H1992 0.949 . S
C1998 C2002 1.368 . S
C1999 C1980 1.429 . S
C1999 C1993 1.429 . S
C1999 C2000 1.523 . S
C2000 C1981 1.368 . S
C2000 C1994 1.368 . S
C2000 C1999 1.523 . S
C2001 C1985 1.429 . S
C2001 C1997 1.429 . S
C2001 C2002 1.523 . S
C2002 C1986 1.368 . S
C2002 C1998 1.368 . S
C2002 C2001 1.523 . S
H2003 C1978 0.950 . S
H2004 C1980 0.950 . S
H2005 C1981 0.949 . S
H2006 C1983 0.950 . S
H2007 C1985 0.950 . S
C2008 C2009 1.349 . S
C2008 C2010 1.327 . S
C2008 H2033 0.950 . S
C2009 C2008 1.349 . S
C2009 C2025 1.349 . S
C2010 C2008 1.327 . S
C2010 C2029 1.429 . S
C2010 H2034 0.950 . S
C2011 C2028 1.574 . S
C2011 C2030 1.368 . S
C2011 H2035 0.949 . S
H2012 C2016 0.949 . S
C2013 C2014 1.349 . S
C2013 C2015 1.327 . S
C2013 H2036 0.950 . S
C2014 C2013 1.349 . S
C2014 C2026 1.349 . S
C2015 C2013 1.327 . S
C2015 C2031 1.429 . S
C2015 H2037 0.950 . S
C2016 H2012 0.949 . S
C2016 C2024 1.574 . S
C2016 C2032 1.368 . S
H2017 C2025 0.950 . S
H2018 C2023 0.950 . S
H2019 C2024 0.949 . S
H2020 C2026 0.950 . S
H2021 C2027 0.950 . S
H2022 C2028 0.949 . S
C2023 H2018 0.950 . S
C2023 C2025 1.327 . S
C2023 C2029 1.429 . S
C2024 C2016 1.574 . S
C2024 H2019 0.949 . S
C2024 C2030 1.368 . S
C2025 C2009 1.349 . S
C2025 H2017 0.950 . S
C2025 C2023 1.327 . S
C2026 C2014 1.349 . S
C2026 H2020 0.950 . S
C2026 C2027 1.327 . S
C2027 H2021 0.950 . S
C2027 C2026 1.327 . S
C2027 C2031 1.429 . S
C2028 C2011 1.574 . S
C2028 H2022 0.949 . S
C2028 C2032 1.368 . S
C2029 C2010 1.429 . S
C2029 C2023 1.429 . S
C2029 C2030 1.523 . S
C2030 C2011 1.368 . S
C2030 C2024 1.368 . S
C2030 C2029 1.523 . S
C2031 C2015 1.429 . S
C2031 C2027 1.429 . S
C2031 C2032 1.523 . S
C2032 C2016 1.368 . S
C2032 C2028 1.368 . S
C2032 C2031 1.523 . S
H2033 C2008 0.950 . S
H2034 C2010 0.950 . S
H2035 C2011 0.949 . S
H2036 C2013 0.950 . S
H2037 C2015 0.950 . S
C2038 C2039 1.349 . S
C2038 C2040 1.327 . S
C2038 H2063 0.950 . S
C2039 C2038 1.349 . S
C2039 C2055 1.349 . S
C2040 C2038 1.327 . S
C2040 C2059 1.429 . S
C2040 H2064 0.950 . S
C2041 C2058 1.574 . S
C2041 C2060 1.368 . S
C2041 H2065 0.949 . S
H2042 C2046 0.949 . S
C2043 C2044 1.349 . S
C2043 C2045 1.327 . S
C2043 H2066 0.950 . S
C2044 C2043 1.349 . S
C2044 C2056 1.349 . S
C2045 C2043 1.327 . S
C2045 C2061 1.429 . S
C2045 H2067 0.950 . S
C2046 H2042 0.949 . S
C2046 C2054 1.574 . S
C2046 C2062 1.368 . S
H2047 C2055 0.950 . S
H2048 C2053 0.950 . S
H2049 C2054 0.949 . S
H2050 C2056 0.950 . S
H2051 C2057 0.950 . S
H2052 C2058 0.949 . S
C2053 H2048 0.950 . S
C2053 C2055 1.327 . S
C2053 C2059 1.429 . S
C2054 C2046 1.574 . S
C2054 H2049 0.949 . S
C2054 C2060 1.368 . S
C2055 C2039 1.349 . S
C2055 H2047 0.950 . S
C2055 C2053 1.327 . S
C2056 C2044 1.349 . S
C2056 H2050 0.950 . S
C2056 C2057 1.327 . S
C2057 H2051 0.950 . S
C2057 C2056 1.327 . S
C2057 C2061 1.429 . S
C2058 C2041 1.574 . S
C2058 H2052 0.949 . S
C2058 C2062 1.368 . S
C2059 C2040 1.429 . S
C2059 C2053 1.429 . S
C2059 C2060 1.523 . S
C2060 C2041 1.368 . S
C2060 C2054 1.368 . S
C2060 C2059 1.523 . S
C2061 C2045 1.429 . S
C2061 C2057 1.429 . S
C2061 C2062 1.523 . S
C2062 C2046 1.368 . S
C2062 C2058 1.368 . S
C2062 C2061 1.523 . S
H2063 C2038 0.950 . S
H2064 C2040 0.950 . S
H2065 C2041 0.949 . S
H2066 C2043 0.950 . S
H2067 C2045 0.950 . S
C2068 C2069 1.349 . S
C2068 C2070 1.327 . S
C2068 H2093 0.950 . S
C2069 C2068 1.349 . S
C2069 C2085 1.349 . S
C2070 C2068 1.327 . S
C2070 C2089 1.429 . S
C2070 H2094 0.950 . S
C2071 C2088 1.574 . S
C2071 C2090 1.368 . S
C2071 H2095 0.949 . S
H2072 C2076 0.949 . S
C2073 C2074 1.349 . S
C2073 C2075 1.327 1_554 S
C2073 H2096 0.950 . S
C2074 C2073 1.349 . S
C2074 C2086 1.349 1_554 S
C2075 C2073 1.327 1_556 S
C2075 C2091 1.429 . S
C2075 H2097 0.950 . S
C2076 H2072 0.949 . S
C2076 C2084 1.574 . S
C2076 C2092 1.368 . S
H2077 C2085 0.950 . S
H2078 C2083 0.950 . S
H2079 C2084 0.949 . S
H2080 C2086 0.950 . S
H2081 C2087 0.950 . S
H2082 C2088 0.949 . S
C2083 H2078 0.950 . S
C2083 C2085 1.327 . S
C2083 C2089 1.429 . S
C2084 C2076 1.574 . S
C2084 H2079 0.949 . S
C2084 C2090 1.368 . S
C2085 C2069 1.349 . S
C2085 H2077 0.950 . S
C2085 C2083 1.327 . S
C2086 C2074 1.349 1_556 S
C2086 H2080 0.950 . S
C2086 C2087 1.327 . S
C2087 H2081 0.950 . S
C2087 C2086 1.327 . S
C2087 C2091 1.429 . S
C2088 C2071 1.574 . S
C2088 H2082 0.949 . S
C2088 C2092 1.368 . S
C2089 C2070 1.429 . S
C2089 C2083 1.429 . S
C2089 C2090 1.523 . S
C2090 C2071 1.368 . S
C2090 C2084 1.368 . S
C2090 C2089 1.523 . S
C2091 C2075 1.429 . S
C2091 C2087 1.429 . S
C2091 C2092 1.523 . S
C2092 C2076 1.368 . S
C2092 C2088 1.368 . S
C2092 C2091 1.523 . S
H2093 C2068 0.950 . S
H2094 C2070 0.950 . S
H2095 C2071 0.949 . S
H2096 C2073 0.950 . S
H2097 C2075 0.950 . S
C2098 C2099 1.349 . S
C2098 C2100 1.327 . S
C2098 H2123 0.950 . S
C2099 C2098 1.349 . S
C2099 C2115 1.349 . S
C2100 C2098 1.327 . S
C2100 C2119 1.429 . S
C2100 H2124 0.950 . S
C2101 C2118 1.574 . S
C2101 C2120 1.368 . S
C2101 H2125 0.949 . S
H2102 C2106 0.949 . S
C2103 C2104 1.349 . S
C2103 C2105 1.327 . S
C2103 H2126 0.950 . S
C2104 C2103 1.349 . S
C2104 C2116 1.349 . S
C2105 C2103 1.327 . S
C2105 C2121 1.429 . S
C2105 H2127 0.950 . S
C2106 H2102 0.949 . S
C2106 C2114 1.574 . S
C2106 C2122 1.368 . S
H2107 C2115 0.950 . S
H2108 C2113 0.950 . S
H2109 C2114 0.949 . S
H2110 C2116 0.950 . S
H2111 C2117 0.950 . S
H2112 C2118 0.949 . S
C2113 H2108 0.950 . S
C2113 C2115 1.327 . S
C2113 C2119 1.429 . S
C2114 C2106 1.574 . S
C2114 H2109 0.949 . S
C2114 C2120 1.368 . S
C2115 C2099 1.349 . S
C2115 H2107 0.950 . S
C2115 C2113 1.327 . S
C2116 C2104 1.349 . S
C2116 H2110 0.950 . S
C2116 C2117 1.327 . S
C2117 H2111 0.950 . S
C2117 C2116 1.327 . S
C2117 C2121 1.429 . S
C2118 C2101 1.574 . S
C2118 H2112 0.949 . S
C2118 C2122 1.368 . S
C2119 C2100 1.429 . S
C2119 C2113 1.429 . S
C2119 C2120 1.523 . S
C2120 C2101 1.368 . S
C2120 C2114 1.368 . S
C2120 C2119 1.523 . S
C2121 C2105 1.429 . S
C2121 C2117 1.429 . S
C2121 C2122 1.523 . S
C2122 C2106 1.368 . S
C2122 C2118 1.368 . S
C2122 C2121 1.523 . S
H2123 C2098 0.950 . S
H2124 C2100 0.950 . S
H2125 C2101 0.949 . S
H2126 C2103 0.950 . S
H2127 C2105 0.950 . S
C2128 C2129 1.349 1_556 S
C2128 C2130 1.327 . S
C2128 H2153 0.950 . S
C2129 C2128 1.349 1_554 S
C2129 C2145 1.349 . S
C2130 C2128 1.327 . S
C2130 C2149 1.429 . S
C2130 H2154 0.950 . S
C2131 C2148 1.574 . S
C2131 C2150 1.368 . S
C2131 H2155 0.949 . S
H2132 C2136 0.949 . S
C2133 C2134 1.349 . S
C2133 C2135 1.327 . S
C2133 H2156 0.950 . S
C2134 C2133 1.349 . S
C2134 C2146 1.349 . S
C2135 C2133 1.327 . S
C2135 C2151 1.429 . S
C2135 H2157 0.950 . S
C2136 H2132 0.949 . S
C2136 C2144 1.574 . S
C2136 C2152 1.368 . S
H2137 C2145 0.950 . S
H2138 C2143 0.950 . S
H2139 C2144 0.949 . S
H2140 C2146 0.950 . S
H2141 C2147 0.950 . S
H2142 C2148 0.949 . S
C2143 H2138 0.950 . S
C2143 C2145 1.327 . S
C2143 C2149 1.429 1_554 S
C2144 C2136 1.574 . S
C2144 H2139 0.949 . S
C2144 C2150 1.368 . S
C2145 C2129 1.349 . S
C2145 H2137 0.950 . S
C2145 C2143 1.327 . S
C2146 C2134 1.349 . S
C2146 H2140 0.950 . S
C2146 C2147 1.327 . S
C2147 H2141 0.950 . S
C2147 C2146 1.327 . S
C2147 C2151 1.429 . S
C2148 C2131 1.574 . S
C2148 H2142 0.949 . S
C2148 C2152 1.368 . S
C2149 C2130 1.429 . S
C2149 C2143 1.429 1_556 S
C2149 C2150 1.523 . S
C2150 C2131 1.368 . S
C2150 C2144 1.368 . S
C2150 C2149 1.523 . S
C2151 C2135 1.429 . S
C2151 C2147 1.429 . S
C2151 C2152 1.523 . S
C2152 C2136 1.368 . S
C2152 C2148 1.368 . S
C2152 C2151 1.523 . S
H2153 C2128 0.950 . S
H2154 C2130 0.950 . S
H2155 C2131 0.949 . S
H2156 C2133 0.950 . S
H2157 C2135 0.950 . S
C2158 C2159 1.349 . S
C2158 C2160 1.327 . S
C2158 H2183 0.950 . S
C2159 C2158 1.349 . S
C2159 C2175 1.349 . S
C2160 C2158 1.327 . S
C2160 C2179 1.429 . S
C2160 H2184 0.950 . S
C2161 C2178 1.574 . S
C2161 C2180 1.368 . S
C2161 H2185 0.949 . S
H2162 C2166 0.949 . S
C2163 C2164 1.349 . S
C2163 C2165 1.327 . S
C2163 H2186 0.950 . S
C2164 C2163 1.349 . S
C2164 C2176 1.349 . S
C2165 C2163 1.327 . S
C2165 C2181 1.429 . S
C2165 H2187 0.950 . S
C2166 H2162 0.949 . S
C2166 C2174 1.574 . S
C2166 C2182 1.368 . S
H2167 C2175 0.950 . S
H2168 C2173 0.950 . S
H2169 C2174 0.949 . S
H2170 C2176 0.950 . S
H2171 C2177 0.950 . S
H2172 C2178 0.949 . S
C2173 H2168 0.950 . S
C2173 C2175 1.327 . S
C2173 C2179 1.429 . S
C2174 C2166 1.574 . S
C2174 H2169 0.949 . S
C2174 C2180 1.368 . S
C2175 C2159 1.349 . S
C2175 H2167 0.950 . S
C2175 C2173 1.327 . S
C2176 C2164 1.349 . S
C2176 H2170 0.950 . S
C2176 C2177 1.327 . S
C2177 H2171 0.950 . S
C2177 C2176 1.327 . S
C2177 C2181 1.429 . S
C2178 C2161 1.574 . S
C2178 H2172 0.949 . S
C2178 C2182 1.368 . S
C2179 C2160 1.429 . S
C2179 C2173 1.429 . S
C2179 C2180 1.523 . S
C2180 C2161 1.368 . S
C2180 C2174 1.368 . S
C2180 C2179 1.523 . S
C2181 C2165 1.429 . S
C2181 C2177 1.429 . S
C2181 C2182 1.523 . S
C2182 C2166 1.368 . S
C2182 C2178 1.368 . S
C2182 C2181 1.523 . S
H2183 C2158 0.950 . S
H2184 C2160 0.950 . S
H2185 C2161 0.949 . S
H2186 C2163 0.950 . S
H2187 C2165 0.950 . S
C2188 C2189 1.349 . S
C2188 C2190 1.327 . S
C2188 H2213 0.950 . S
C2189 C2188 1.349 . S
C2189 C2205 1.349 . S
C2190 C2188 1.327 . S
C2190 C2209 1.429 . S
C2190 H2214 0.950 . S
C2191 C2208 1.574 . S
C2191 C2210 1.368 . S
C2191 H2215 0.949 . S
H2192 C2196 0.949 . S
C2193 C2194 1.349 . S
C2193 C2195 1.327 . S
C2193 H2216 0.950 . S
C2194 C2193 1.349 . S
C2194 C2206 1.349 . S
C2195 C2193 1.327 . S
C2195 C2211 1.429 . S
C2195 H2217 0.950 . S
C2196 H2192 0.949 . S
C2196 C2204 1.574 . S
C2196 C2212 1.368 . S
H2197 C2205 0.950 . S
H2198 C2203 0.950 . S
H2199 C2204 0.949 . S
H2200 C2206 0.950 . S
H2201 C2207 0.950 . S
H2202 C2208 0.949 . S
C2203 H2198 0.950 . S
C2203 C2205 1.327 . S
C2203 C2209 1.429 . S
C2204 C2196 1.574 . S
C2204 H2199 0.949 . S
C2204 C2210 1.368 . S
C2205 C2189 1.349 . S
C2205 H2197 0.950 . S
C2205 C2203 1.327 . S
C2206 C2194 1.349 . S
C2206 H2200 0.950 . S
C2206 C2207 1.327 . S
C2207 H2201 0.950 . S
C2207 C2206 1.327 . S
C2207 C2211 1.429 . S
C2208 C2191 1.574 . S
C2208 H2202 0.949 . S
C2208 C2212 1.368 . S
C2209 C2190 1.429 . S
C2209 C2203 1.429 . S
C2209 C2210 1.523 . S
C2210 C2191 1.368 . S
C2210 C2204 1.368 . S
C2210 C2209 1.523 . S
C2211 C2195 1.429 . S
C2211 C2207 1.429 . S
C2211 C2212 1.523 . S
C2212 C2196 1.368 . S
C2212 C2208 1.368 . S
C2212 C2211 1.523 . S
H2213 C2188 0.950 . S
H2214 C2190 0.950 . S
H2215 C2191 0.949 . S
H2216 C2193 0.950 . S
H2217 C2195 0.950 . S
C2218 C2219 1.349 . S
C2218 C2220 1.327 . S
C2218 H2243 0.950 . S
C2219 C2218 1.349 . S
C2219 C2235 1.349 . S
C2220 C2218 1.327 . S
C2220 C2239 1.429 . S
C2220 H2244 0.950 . S
C2221 C2238 1.574 . S
C2221 C2240 1.368 . S
C2221 H2245 0.949 . S
H2222 C2226 0.949 . S
C2223 C2224 1.349 . S
C2223 C2225 1.327 . S
C2223 H2246 0.950 . S
C2224 C2223 1.349 . S
C2224 C2236 1.349 . S
C2225 C2223 1.327 . S
C2225 C2241 1.429 . S
C2225 H2247 0.950 . S
C2226 H2222 0.949 . S
C2226 C2234 1.574 . S
C2226 C2242 1.368 . S
H2227 C2235 0.950 . S
H2228 C2233 0.950 . S
H2229 C2234 0.949 . S
H2230 C2236 0.950 . S
H2231 C2237 0.950 . S
H2232 C2238 0.949 . S
C2233 H2228 0.950 . S
C2233 C2235 1.327 . S
C2233 C2239 1.429 . S
C2234 C2226 1.574 . S
C2234 H2229 0.949 . S
C2234 C2240 1.368 . S
C2235 C2219 1.349 . S
C2235 H2227 0.950 . S
C2235 C2233 1.327 . S
C2236 C2224 1.349 . S
C2236 H2230 0.950 . S
C2236 C2237 1.327 . S
C2237 H2231 0.950 . S
C2237 C2236 1.327 . S
C2237 C2241 1.429 . S
C2238 C2221 1.574 . S
C2238 H2232 0.949 . S
C2238 C2242 1.368 . S
C2239 C2220 1.429 . S
C2239 C2233 1.429 . S
C2239 C2240 1.523 . S
C2240 C2221 1.368 . S
C2240 C2234 1.368 . S
C2240 C2239 1.523 . S
C2241 C2225 1.429 . S
C2241 C2237 1.429 . S
C2241 C2242 1.523 . S
C2242 C2226 1.368 . S
C2242 C2238 1.368 . S
C2242 C2241 1.523 . S
H2243 C2218 0.950 . S
H2244 C2220 0.950 . S
H2245 C2221 0.949 . S
H2246 C2223 0.950 . S
H2247 C2225 0.950 . S
C2248 C2249 1.349 . S
C2248 C2250 1.327 . S
C2248 H2273 0.950 . S
C2249 C2248 1.349 . S
C2249 C2265 1.349 . S
C2250 C2248 1.327 . S
C2250 C2269 1.429 . S
C2250 H2274 0.950 . S
C2251 C2268 1.574 . S
C2251 C2270 1.368 . S
C2251 H2275 0.949 . S
H2252 C2256 0.949 . S
C2253 C2254 1.349 . S
C2253 C2255 1.327 . S
C2253 H2276 0.950 . S
C2254 C2253 1.349 . S
C2254 C2266 1.349 . S
C2255 C2253 1.327 . S
C2255 C2271 1.429 . S
C2255 H2277 0.950 . S
C2256 H2252 0.949 . S
C2256 C2264 1.574 . S
C2256 C2272 1.368 . S
H2257 C2265 0.950 . S
H2258 C2263 0.950 . S
H2259 C2264 0.949 . S
H2260 C2266 0.950 . S
H2261 C2267 0.950 . S
H2262 C2268 0.949 . S
C2263 H2258 0.950 . S
C2263 C2265 1.327 . S
C2263 C2269 1.429 . S
C2264 C2256 1.574 . S
C2264 H2259 0.949 . S
C2264 C2270 1.368 . S
C2265 C2249 1.349 . S
C2265 H2257 0.950 . S
C2265 C2263 1.327 . S
C2266 C2254 1.349 . S
C2266 H2260 0.950 . S
C2266 C2267 1.327 . S
C2267 H2261 0.950 . S
C2267 C2266 1.327 . S
C2267 C2271 1.429 . S
C2268 C2251 1.574 . S
C2268 H2262 0.949 . S
C2268 C2272 1.368 . S
C2269 C2250 1.429 . S
C2269 C2263 1.429 . S
C2269 C2270 1.523 . S
C2270 C2251 1.368 . S
C2270 C2264 1.368 . S
C2270 C2269 1.523 . S
C2271 C2255 1.429 . S
C2271 C2267 1.429 . S
C2271 C2272 1.523 . S
C2272 C2256 1.368 . S
C2272 C2268 1.368 . S
C2272 C2271 1.523 . S
H2273 C2248 0.950 . S
H2274 C2250 0.950 . S
H2275 C2251 0.949 . S
H2276 C2253 0.950 . S
H2277 C2255 0.950 . S
C2278 C2279 1.349 . S
C2278 C2280 1.327 . S
C2278 H2303 0.950 . S
C2279 C2278 1.349 . S
C2279 C2295 1.349 . S
C2280 C2278 1.327 . S
C2280 C2299 1.429 . S
C2280 H2304 0.950 . S
C2281 C2298 1.574 . S
C2281 C2300 1.368 . S
C2281 H2305 0.949 . S
H2282 C2286 0.949 . S
C2283 C2284 1.349 . S
C2283 C2285 1.327 . S
C2283 H2306 0.950 . S
C2284 C2283 1.349 . S
C2284 C2296 1.349 . S
C2285 C2283 1.327 . S
C2285 C2301 1.429 . S
C2285 H2307 0.950 . S
C2286 H2282 0.949 . S
C2286 C2294 1.574 . S
C2286 C2302 1.368 . S
H2287 C2295 0.950 . S
H2288 C2293 0.950 . S
H2289 C2294 0.949 . S
H2290 C2296 0.950 . S
H2291 C2297 0.950 . S
H2292 C2298 0.949 . S
C2293 H2288 0.950 . S
C2293 C2295 1.327 . S
C2293 C2299 1.429 . S
C2294 C2286 1.574 . S
C2294 H2289 0.949 . S
C2294 C2300 1.368 . S
C2295 C2279 1.349 . S
C2295 H2287 0.950 . S
C2295 C2293 1.327 . S
C2296 C2284 1.349 . S
C2296 H2290 0.950 . S
C2296 C2297 1.327 . S
C2297 H2291 0.950 . S
C2297 C2296 1.327 . S
C2297 C2301 1.429 . S
C2298 C2281 1.574 . S
C2298 H2292 0.949 . S
C2298 C2302 1.368 . S
C2299 C2280 1.429 . S
C2299 C2293 1.429 . S
C2299 C2300 1.523 . S
C2300 C2281 1.368 . S
C2300 C2294 1.368 . S
C2300 C2299 1.523 . S
C2301 C2285 1.429 . S
C2301 C2297 1.429 . S
C2301 C2302 1.523 . S
C2302 C2286 1.368 . S
C2302 C2298 1.368 . S
C2302 C2301 1.523 . S
H2303 C2278 0.950 . S
H2304 C2280 0.950 . S
H2305 C2281 0.949 . S
H2306 C2283 0.950 . S
H2307 C2285 0.950 . S
C2308 C2309 1.349 . S
C2308 C2310 1.327 . S
C2308 H2333 0.950 . S
C2309 C2308 1.349 . S
C2309 C2325 1.349 . S
C2310 C2308 1.327 . S
C2310 C2329 1.429 . S
C2310 H2334 0.950 . S
C2311 C2328 1.574 . S
C2311 C2330 1.368 . S
C2311 H2335 0.949 . S
H2312 C2316 0.949 . S
C2313 C2314 1.349 . S
C2313 C2315 1.327 . S
C2313 H2336 0.950 . S
C2314 C2313 1.349 . S
C2314 C2326 1.349 . S
C2315 C2313 1.327 . S
C2315 C2331 1.429 . S
C2315 H2337 0.950 . S
C2316 H2312 0.949 . S
C2316 C2324 1.574 . S
C2316 C2332 1.368 . S
H2317 C2325 0.950 . S
H2318 C2323 0.950 . S
H2319 C2324 0.949 . S
H2320 C2326 0.950 . S
H2321 C2327 0.950 . S
H2322 C2328 0.949 . S
C2323 H2318 0.950 . S
C2323 C2325 1.327 . S
C2323 C2329 1.429 . S
C2324 C2316 1.574 . S
C2324 H2319 0.949 . S
C2324 C2330 1.368 . S
C2325 C2309 1.349 . S
C2325 H2317 0.950 . S
C2325 C2323 1.327 . S
C2326 C2314 1.349 . S
C2326 H2320 0.950 . S
C2326 C2327 1.327 . S
C2327 H2321 0.950 . S
C2327 C2326 1.327 . S
C2327 C2331 1.429 . S
C2328 C2311 1.574 . S
C2328 H2322 0.949 . S
C2328 C2332 1.368 . S
C2329 C2310 1.429 . S
C2329 C2323 1.429 . S
C2329 C2330 1.523 . S
C2330 C2311 1.368 . S
C2330 C2324 1.368 . S
C2330 C2329 1.523 . S
C2331 C2315 1.429 . S
C2331 C2327 1.429 . S
C2331 C2332 1.523 . S
C2332 C2316 1.368 . S
C2332 C2328 1.368 . S
C2332 C2331 1.523 . S
H2333 C2308 0.950 . S
H2334 C2310 0.950 . S
H2335 C2311 0.949 . S
H2336 C2313 0.950 . S
H2337 C2315 0.950 . S
C2338 C2339 1.349 . S
C2338 C2340 1.327 . S
C2338 H2363 0.950 . S
C2339 C2338 1.349 . S
C2339 C2355 1.349 . S
C2340 C2338 1.327 . S
C2340 C2359 1.429 . S
C2340 H2364 0.950 . S
C2341 C2358 1.574 . S
C2341 C2360 1.368 . S
C2341 H2365 0.949 . S
H2342 C2346 0.949 . S
C2343 C2344 1.349 . S
C2343 C2345 1.327 1_554 S
C2343 H2366 0.950 . S
C2344 C2343 1.349 . S
C2344 C2356 1.349 1_554 S
C2345 C2343 1.327 1_556 S
C2345 C2361 1.429 . S
C2345 H2367 0.950 . S
C2346 H2342 0.949 . S
C2346 C2354 1.574 . S
C2346 C2362 1.368 . S
H2347 C2355 0.950 . S
H2348 C2353 0.950 . S
H2349 C2354 0.949 . S
H2350 C2356 0.952 . S
H2351 C2357 0.950 . S
H2352 C2358 0.949 . S
C2353 H2348 0.950 . S
C2353 C2355 1.327 . S
C2353 C2359 1.429 . S
C2354 C2346 1.574 . S
C2354 H2349 0.949 . S
C2354 C2360 1.368 . S
C2355 C2339 1.349 . S
C2355 H2347 0.950 . S
C2355 C2353 1.327 . S
C2356 C2344 1.349 1_556 S
C2356 H2350 0.952 . S
C2356 C2357 1.327 . S
C2357 H2351 0.950 . S
C2357 C2356 1.327 . S
C2357 C2361 1.429 . S
C2358 C2341 1.574 . S
C2358 H2352 0.949 . S
C2358 C2362 1.368 . S
C2359 C2340 1.429 . S
C2359 C2353 1.429 . S
C2359 C2360 1.523 . S
C2360 C2341 1.368 . S
C2360 C2354 1.368 . S
C2360 C2359 1.523 . S
C2361 C2345 1.429 . S
C2361 C2357 1.429 . S
C2361 C2362 1.523 . S
C2362 C2346 1.368 . S
C2362 C2358 1.368 . S
C2362 C2361 1.523 . S
H2363 C2338 0.950 . S
H2364 C2340 0.950 . S
H2365 C2341 0.949 . S
H2366 C2343 0.950 . S
H2367 C2345 0.950 . S
C449 C124 2.040 . S
C454 C1 2.040 . S
C479 C14 2.043 . S
C484 C363 2.043 . S
C509 C40 2.043 . S
C514 C153 2.043 . S
C539 C54 2.043 . S
C544 C391 2.043 . S
C569 C68 2.043 . S
C574 C180 2.039 . S
C599 C418 2.040 . S
C604 C83 2.040 . S
C629 C209 2.043 . S
C634 C85 2.040 . S
C659 C435 2.043 . S
C664 C98 2.043 . S
C689 C238 2.043 . S
C694 C139 2.043 . S
C719 C166 2.039 . S
C724 C279 2.039 . S
C749 C194 2.040 . S
C754 C306 2.043 . S
C779 C323 2.040 . S
C784 C210 2.040 . S
C809 C337 2.043 . S
C814 C224 2.043 . S
C839 C265 2.040 . S
C844 C365 2.043 . S
C869 C280 2.043 . S
C874 C404 2.040 . S
C899 C432 2.040 . S
C904 C321 2.040 . S
C929 C12 1.947 1_556 S
C934 C57 1.946 . S
C959 C70 1.947 . S
C964 C27 1.946 . S
C989 C96 1.947 . S
C994 C29 1.946 . S
C1019 C43 1.946 . S
C1024 C111 1.946 . S
C1049 C113 1.947 . S
C1054 C169 1.947 . S
C1079 C126 1.946 . S
C1084 C183 1.947 . S
C1109 C196 1.946 1_556 S
C1114 C140 1.946 . S
C1139 C223 1.947 . S
C1144 C155 1.947 . S
C1169 C293 1.946 . S
C1174 C237 1.946 . S
C1199 C295 1.946 . S
C1204 C251 1.946 . S
C1229 C252 1.947 1_556 S
C1234 C308 1.947 . S
C1259 C334 1.947 . S
C1264 C266 1.947 . S
C1289 C393 1.947 1_556 S
C1294 C348 1.946 . S
C1319 C350 1.946 . S
C1324 C407 1.947 . S
C1349 C421 1.947 . S
C1354 C376 1.946 . S
C1379 C446 1.946 . S
C1384 C378 1.946 . S
C1409 C56 0.298 . S
C1414 C13 0.299 . S
C1439 C71 0.299 . S
C1444 C26 0.298 . S
C1469 C28 0.298 . S
C1474 C97 0.299 . S
C1499 C110 0.298 . S
C1504 C42 0.298 . S
C1529 C168 0.299 . S
C1534 C112 0.299 . S
C1559 C127 0.298 . S
C1564 C182 0.299 . S
C1589 C197 0.298 . S
C1594 C141 0.298 . S
C1619 C222 0.299 . S
C1624 C154 0.299 . S
C1649 C236 0.298 . S
C1654 C292 0.298 . S
C1679 C294 0.298 . S
C1684 C250 0.298 . S
C1709 C309 0.299 . S
C1714 C253 0.299 . S
C1739 C335 0.299 . S
C1744 C267 0.299 . S
C1769 C392 0.299 . S
C1774 C349 0.298 . S
C1799 C351 0.298 . S
C1804 C406 0.299 . S
C1829 C377 0.298 . S
C1834 C420 0.299 . S
C1859 C379 0.298 . S
C1864 C447 0.298 . S
C1889 C0 2.122 . S
C1894 C307 2.120 . S
C1919 C320 2.122 . S
C1924 C15 2.120 . S
C1949 C41 2.120 . S
C1954 C322 2.122 . S
C1979 C55 2.120 . S
C1984 C281 2.120 . S
C2009 C278 2.122 . S
C2014 C69 2.120 . S
C2039 C225 2.120 . S
C2044 C82 2.122 . S
C2069 C239 2.120 . S
C2074 C84 2.122 . S
C2099 C99 2.120 . S
C2104 C264 2.122 . S
C2129 C125 2.122 . S
C2134 C419 2.122 . S
C2159 C433 2.122 . S
C2164 C138 2.120 . S
C2189 C434 2.120 . S
C2194 C152 2.120 . S
C2219 C405 2.122 . S
C2224 C167 2.122 . S
C2249 C390 2.120 . S
C2254 C181 2.122 . S
C2279 C336 2.120 . S
C2284 C195 2.122 . S
C2309 C208 2.120 . S
C2314 C362 2.120 . S
C2339 C211 2.122 . S
C2344 C364 2.120 . S
