# Generated by pormake.
# Topology snp, (6)-cn, num edge types: 1
# Building blocks:
#     Node 0, Type 0, BuildingBlock: BETFAJ_clean_sbu_0, # of connection points: 6
#     Node 1, Type 0, BuildingBlock: BETFAJ_clean_sbu_0, # of connection points: 6
#     Node 2, Type 0, BuildingBlock: BETFAJ_clean_sbu_0, # of connection points: 6
#     Node 3, Type 0, BuildingBlock: BETFAJ_clean_sbu_0, # of connection points: 6
#     Edge 4, Type (0, 0), BuildingBlock: XUDNAN_clean_linker_2, # of connection points: 2
#     Edge 5, Type (0, 0), BuildingBlock: XUDNAN_clean_linker_2, # of connection points: 2
#     Edge 6, Type (0, 0), BuildingBlock: XUDNAN_clean_linker_2, # of connection points: 2
#     Edge 7, Type (0, 0), BuildingBlock: XUDNAN_clean_linker_2, # of connection points: 2
#     Edge 8, Type (0, 0), BuildingBlock: XUDNAN_clean_linker_2, # of connection points: 2
#     Edge 9, Type (0, 0), BuildingBlock: XUDNAN_clean_linker_2, # of connection points: 2
#     Edge 10, Type (0, 0), BuildingBlock: XUDNAN_clean_linker_2, # of connection points: 2
#     Edge 11, Type (0, 0), BuildingBlock: XUDNAN_clean_linker_2, # of connection points: 2
#     Edge 12, Type (0, 0), BuildingBlock: XUDNAN_clean_linker_2, # of connection points: 2
#     Edge 13, Type (0, 0), BuildingBlock: XUDNAN_clean_linker_2, # of connection points: 2
#     Edge 14, Type (0, 0), BuildingBlock: XUDNAN_clean_linker_2, # of connection points: 2
#     Edge 15, Type (0, 0), BuildingBlock: XUDNAN_clean_linker_2, # of connection points: 2
# Relax obj value: 0.209
# Max RMSD: 0.219
# Mean RMSD: 0.213
data_MOF--net-snp--node1-BETFAJ_clean_sbu_0--edge1-XUDNAN_clean_linker_2
_symmetry_space_group_name_H-M    P1
_symmetry_Int_Tables_number       1
_symmetry_cell_setting            triclinic
loop_
_symmetry_equiv_pos_as_xyz
'x, y, z'
_cell_length_a     25.624946
_cell_length_b     25.042283
_cell_length_c     36.295038
_cell_angle_alpha  83.840862
_cell_angle_beta   103.31398
_cell_angle_gamma 97.567435
loop_
_atom_site_label
_atom_site_type_symbol
_atom_site_fract_x
_atom_site_fract_y
_atom_site_fract_z
_atom_type_partial_charge
Sm0 Sm 0.23657 0.08684 0.12835 0.0
Sm1 Sm 0.27187 0.00257 0.0832 0.0
C2 C 0.19601 0.13635 0.17503 0.0
C3 C 0.19217 0.13334 0.21565 0.0
C4 C 0.15371 0.09616 0.22962 0.0
C5 C 0.14725 0.0966 0.26688 0.0
C6 C 0.1802 0.13294 0.29181 0.0
C7 C 0.21901 0.16982 0.27795 0.0
C8 C 0.22459 0.17028 0.24032 0.0
C9 C 0.34532 0.08802 0.13353 0.0
C10 C 0.25346 0.96484 0.16802 0.0
C11 C 0.31649 0.95321 0.0394 0.0
C12 C 0.29774 0.94001 0.99937 0.0
C13 C 0.33462 0.93764 0.97647 0.0
C14 C 0.31635 0.92215 0.93916 0.0
C15 C 0.261 0.90826 0.9245 0.0
C16 C 0.2242 0.91255 0.94706 0.0
C17 C 0.24229 0.92868 0.98393 0.0
C18 C 0.16317 -0.0036 0.0769 0.0
C19 C 0.24084 0.12489 0.04171 0.0
O20 O 0.16906 0.0978 0.15441 0.0
O21 O 0.24297 0.15252 0.16681 0.0
O22 O 0.31217 0.04668 0.13413 0.0
O23 O 0.32241 0.13159 0.1322 0.0
O24 O 0.22496 0.0061 0.16302 0.0
O25 O 0.28479 0.95906 0.14446 0.0
O26 O 0.32947 0.0045 0.04521 0.0
O27 O 0.28831 0.92744 0.06303 0.0
O28 O 0.19535 0.03907 0.07826 0.0
O29 O 0.18771 0.95539 0.07406 0.0
O30 O 0.26684 0.08199 0.04245 0.0
O31 O 0.21911 0.13303 0.07006 0.0
H32 H 0.12783 0.06704 0.21164 0.0
H33 H 0.1159 0.06861 0.27604 0.0
H34 H 0.24545 0.1982 0.29624 0.0
H35 H 0.25426 0.19983 0.23048 0.0
H36 H 0.37752 0.94667 0.98769 0.0
H37 H 0.34548 0.91895 0.92233 0.0
H38 H 0.18131 0.90245 0.93632 0.0
H39 H 0.21287 0.93109 1.0007 0.0
Sm40 Sm 0.97769 0.27377 0.73047 0.0
Sm41 Sm 0.0735 0.25132 0.69649 0.0
C42 C 0.89327 0.27081 0.76154 0.0
C43 C 0.88359 0.25904 0.80028 0.0
C44 C 0.91172 0.22126 0.82613 0.0
C45 C 0.90316 0.21137 0.86307 0.0
C46 C 0.86671 0.23945 0.87505 0.0
C47 C 0.83892 0.27754 0.84913 0.0
C48 C 0.84721 0.28711 0.81206 0.0
C49 C 0.032 0.36311 0.70011 0.0
C50 C 0.09742 0.27312 0.7867 0.0
C51 C 0.15236 0.25026 0.66067 0.0
C52 C 0.15238 0.23249 0.62297 0.0
C53 C 0.19172 0.25556 0.60299 0.0
C54 C 0.19176 0.23851 0.56735 0.0
C55 C 0.15255 0.19778 0.55103 0.0
C56 C 0.11271 0.17539 0.57098 0.0
C57 C 0.1125 0.19267 0.60641 0.0
C58 C 0.01562 0.16291 0.7237 0.0
C59 C 0.95334 0.23837 0.6416 0.0
O60 O 0.90317 0.23016 0.74526 0.0
O61 O 0.92444 0.31524 0.75588 0.0
O62 O 0.01993 0.31807 0.68622 0.0
O63 O 0.01273 0.3631 0.73018 0.0
O64 O 0.04472 0.26585 0.78432 0.0
O65 O 0.11875 0.27554 0.75647 0.0
O66 O 0.12856 0.29358 0.6605 0.0
O67 O 0.14101 0.21206 0.68617 0.0
O68 O 0.02865 0.20629 0.73943 0.0
O69 O 0.03616 0.1635 0.69412 0.0
O70 O 0.00576 0.24319 0.64377 0.0
O71 O 0.93274 0.24636 0.67071 0.0
H72 H 0.94061 0.19964 0.81786 0.0
H73 H 0.9258 0.18237 0.88248 0.0
H74 H 0.81031 0.29951 0.85739 0.0
H75 H 0.82535 0.31664 0.79261 0.0
H76 H 0.22265 0.28656 0.61505 0.0
H77 H 0.22325 0.25639 0.55297 0.0
H78 H 0.08137 0.14464 0.5591 0.0
H79 H 0.0812 0.17468 0.62096 0.0
Sm80 Sm 0.80419 0.06667 0.21606 0.0
Sm81 Sm 0.81427 0.96738 0.16957 0.0
C82 C 0.77282 0.13126 0.25809 0.0
C83 C 0.78 0.13708 0.29905 0.0
C84 C 0.81076 0.10288 0.32634 0.0
C85 C 0.81969 0.11061 0.3651 0.0
C86 C 0.79795 0.15267 0.37736 0.0
C87 C 0.76653 0.1863 0.34977 0.0
C88 C 0.75773 0.17857 0.31106 0.0
C89 C 0.90573 0.04051 0.22337 0.0
C90 C 0.80284 0.93913 0.25676 0.0
C91 C 0.84519 0.9044 0.12546 0.0
C92 C 0.85758 0.90348 0.08708 0.0
C93 C 0.90782 0.92629 0.07989 0.0
C94 C 0.9216 0.92109 0.04527 0.0
C95 C 0.8862 0.89154 1.01678 0.0
C96 C 0.83542 0.86955 1.02373 0.0
C97 C 0.82139 0.87544 0.0583 0.0
C98 C 0.71334 -0.00135 0.16284 0.0
C99 C 0.82596 0.09337 0.13074 0.0
O100 O 0.74273 0.08798 0.24483 0.0
O101 O 0.81645 0.14284 0.24447 0.0
O102 O 0.86358 0.00816 0.22089 0.0
O103 O 0.89579 0.08965 0.22506 0.0
O104 O 0.78876 0.98868 0.25576 0.0
O105 O 0.82007 0.92249 0.22864 0.0
O106 O 0.8787 0.93435 0.15003 0.0
O107 O 0.79483 0.904 0.12782 0.0
O108 O 0.7566 0.02864 0.16431 0.0
O109 O 0.72084 0.94825 0.16251 0.0
O110 O 0.83987 0.04378 0.13374 0.0
O111 O 0.80395 0.11069 0.15642 0.0
H112 H 0.82833 0.07056 0.31763 0.0
H113 H 0.84352 0.08354 0.38548 0.0
H114 H 0.74979 0.21955 0.35798 0.0
H115 H 0.73416 0.20559 0.29043 0.0
H116 H 0.93727 0.94719 0.10146 0.0
H117 H 0.96063 0.93984 0.0412 0.0
H118 H 0.80706 0.84593 1.00307 0.0
H119 H 0.78267 0.85653 0.06294 0.0
Sm120 Sm 0.98859 0.79398 0.60267 0.0
Sm121 Sm 0.0823 0.83986 0.57076 0.0
C122 C 0.92655 0.75755 0.65154 0.0
C123 C 0.92784 0.77133 0.69105 0.0
C124 C 0.96318 0.74892 0.72288 0.0
C125 C 0.96559 0.76369 0.75959 0.0
C126 C 0.93269 0.80134 0.76585 0.0
C127 C 0.89693 0.82329 0.73401 0.0
C128 C 0.89455 0.80853 0.69726 0.0
C129 C 0.99561 0.90418 0.59119 0.0
C130 C 0.10484 0.82484 0.6605 0.0
C131 C 0.14926 0.89272 0.52949 0.0
C132 C 0.16374 0.88998 0.49254 0.0
C133 C 0.2147 0.91302 0.48735 0.0
C134 C 0.23004 0.90998 0.45304 0.0
C135 C 0.1947 0.88374 0.42296 0.0
C136 C 0.14328 0.86104 0.42818 0.0
C137 C 0.12808 0.86392 0.46267 0.0
C138 C 0.07654 0.73018 0.58533 0.0
C139 C 0.96265 0.8047 0.5135 0.0
O140 O 0.96514 0.73146 0.64654 0.0
O141 O 0.91402 0.79509 0.62419 0.0
O142 O 0.03513 0.87744 0.60481 0.0
O143 O 0.95418 0.87212 0.5764 0.0
O144 O 0.06225 0.78909 0.65251 0.0
O145 O 0.11824 0.85941 0.63319 0.0
O146 O 0.10158 0.90679 0.52871 0.0
O147 O 0.16267 0.85373 0.55554 0.0
O148 O 0.03664 0.75544 0.57031 0.0
O149 O 0.12125 0.76175 0.59205 0.0
O150 O 0.0096 0.83542 0.51866 0.0
O151 O 0.94657 0.77532 0.54214 0.0
H152 H 0.98936 0.72004 0.71949 0.0
H153 H 0.99311 0.74501 0.78317 0.0
H154 H 0.87144 0.85288 0.73728 0.0
H155 H 0.86688 0.82683 0.67356 0.0
H156 H 0.24285 0.93341 0.50995 0.0
H157 H 0.26948 0.92886 0.44997 0.0
H158 H 0.11506 0.84024 0.40584 0.0
H159 H 0.08866 0.84549 0.46611 0.0
H160 H 0.95192 0.10167 0.17121 0.0
H161 H 0.95529 0.94995 0.24128 0.0
H162 H 0.01598 0.9192 0.20586 0.0
H163 H 0.94796 0.04073 0.08424 0.0
H164 H 0.98919 0.09631 0.06577 0.0
H165 H 0.94638 0.10815 0.09636 0.0
H166 H 0.02421 0.1568 0.13708 0.0
H167 H 0.07441 0.14309 0.11301 0.0
H168 H 0.08017 0.12349 0.16304 0.0
H169 H 0.06707 0.90192 0.16007 0.0
H170 H 0.12857 0.90664 0.11671 0.0
H171 H 0.09524 0.07128 0.07741 0.0
C172 C 0.96685 0.06267 0.17969 0.0
C173 C 0.9504 0.02814 0.20904 0.0
C174 C 0.96878 0.97678 0.21902 0.0
C175 C 0.0023 0.95884 0.19879 0.0
C176 C 0.01569 -0.0073 0.16861 0.0
C177 C -0.00085 0.0437 0.15924 0.0
C178 C 0.01954 0.07196 0.12555 0.0
C179 C 0.97291 0.07957 0.09095 0.0
C180 C 0.05173 0.12689 0.13519 0.0
C181 C 0.05368 0.03017 0.11942 0.0
C182 C 0.04816 0.98377 0.14322 0.0
C183 C 0.07261 0.9381 0.14158 0.0
C184 C 0.10689 0.94101 0.1166 0.0
C185 C 0.11689 0.98968 0.09447 0.0
C186 C 0.08839 0.03401 0.0946 0.0
H187 H 0.05252 0.93085 0.66082 0.0
H188 H 0.91113 0.96506 0.57376 0.0
H189 H 0.88015 0.01427 0.61881 0.0
H190 H 0.98808 0.91833 0.74467 0.0
H191 H 0.04822 0.95149 0.77316 0.0
H192 H 0.05334 0.91035 0.73657 0.0
H193 H 0.10662 0.99085 0.7046 0.0
H194 H 0.10412 0.03084 0.74207 0.0
H195 H 0.07908 0.05464 0.69336 0.0
H196 H 0.87254 0.07 0.66769 0.0
H197 H 0.9061 0.14936 0.70333 0.0
H198 H 0.04488 0.07294 0.76448 0.0
C199 C 0.01498 0.9487 0.65113 0.0
C200 C 0.98416 0.94433 0.61388 0.0
C201 C 0.93547 0.96841 0.60226 0.0
C202 C 0.91685 -0.00507 0.62796 0.0
C203 C 0.94686 -0.00409 0.66527 0.0
C204 C 0.99547 0.9743 0.6765 0.0
C205 C 0.02543 0.98929 0.71542 0.0
C206 C 0.02894 0.93938 0.74414 0.0
C207 C 0.08208 0.01814 0.71377 0.0
C208 C 0.98837 0.02699 0.72325 0.0
C209 C 0.94164 0.02793 0.69475 0.0
C210 C 0.90811 0.06877 0.69049 0.0
C211 C 0.92702 0.11369 0.7115 0.0
C212 C 0.97947 0.1173 0.73467 0.0
C213 C 0.00494 0.07019 0.74611 0.0
H214 H 0.61095 0.94385 0.15394 0.0
H215 H 0.70002 0.10361 0.1637 0.0
H216 H 0.61559 0.14377 0.15621 0.0
H217 H 0.49671 0.98531 0.08283 0.0
H218 H 0.44751 0.93986 0.10235 0.0
H219 H 0.51523 0.92253 0.10865 0.0
H220 H 0.52449 0.91109 0.18166 0.0
H221 H 0.45671 0.92811 0.17554 0.0
H222 H 0.5119 0.96593 0.20565 0.0
H223 H 0.52268 0.16763 0.14722 0.0
H224 H 0.42486 0.17259 0.13924 0.0
H225 H 0.39537 -0.00166 0.1353 0.0
C226 C 0.61245 0.98717 0.15459 0.0
C227 C 0.66188 0.02058 0.1594 0.0
C228 C 0.66253 0.07718 0.16004 0.0
C229 C 0.6148 0.10053 0.15575 0.0
C230 C 0.56667 0.06677 0.15078 0.0
C231 C 0.56489 0.01135 0.15026 0.0
C232 C 0.50742 0.98464 0.14462 0.0
C233 C 0.49076 0.95643 0.10739 0.0
C234 C 0.49969 0.94511 0.17892 0.0
C235 C 0.47768 0.03371 0.14226 0.0
C236 C 0.51262 0.08068 0.14572 0.0
C237 C 0.49471 0.13118 0.14449 0.0
C238 C 0.4393 0.13367 0.13993 0.0
C239 C 0.40304 0.08592 0.13681 0.0
C240 C 0.42244 0.03547 0.13773 0.0
H241 H 0.04939 0.46538 0.72268 0.0
H242 H 0.0493 0.37289 0.62816 0.0
H243 H 0.06437 0.45772 0.58863 0.0
H244 H 0.9773 0.56742 0.67002 0.0
H245 H 0.01487 0.62169 0.69714 0.0
H246 H 0.00937 0.55397 0.71927 0.0
H247 H 0.11364 0.55779 0.73874 0.0
H248 H 0.11934 0.62589 0.71708 0.0
H249 H 0.15288 0.57509 0.70296 0.0
H250 H 0.06969 0.55223 0.55764 0.0
H251 H 0.0731 0.65087 0.53921 0.0
H252 H 0.07212 0.68064 0.65439 0.0
C253 C 0.05363 0.46304 0.6939 0.0
C254 C 0.04822 0.41289 0.67835 0.0
C255 C 0.05358 0.41113 0.64056 0.0
C256 C 0.06199 0.459 0.6179 0.0
C257 C 0.06546 0.50796 0.63373 0.0
C258 C 0.06225 0.51034 0.67103 0.0
C259 C 0.06526 0.56804 0.68076 0.0
C260 C 0.01362 0.57835 0.69248 0.0
C261 C 0.1158 0.58255 0.71171 0.0
C262 C 0.06953 0.59765 0.6429 0.0
C263 C 0.06952 0.56236 0.61608 0.0
C264 C 0.07049 0.58033 0.57849 0.0
C265 C 0.07212 0.63601 0.56822 0.0
C266 C 0.0729 0.67229 0.59556 0.0
C267 C 0.07173 0.65313 0.63322 0.0
H268 H 0.1726 0.25689 0.48583 0.0
H269 H 0.13568 0.09275 0.53208 0.0
H270 H 0.13853 0.05854 0.47134 0.0
H271 H 0.09324 0.23923 0.39087 0.0
H272 H 0.14066 0.28219 0.36803 0.0
H273 H 0.13561 0.2938 0.41515 0.0
H274 H 0.23793 0.28665 0.43954 0.0
H275 H 0.24329 0.27492 0.39251 0.0
H276 H 0.26551 0.22711 0.43202 0.0
H277 H 0.14747 0.04178 0.40567 0.0
H278 H 0.15904 0.04407 0.33991 0.0
H279 H 0.18809 0.21925 0.33541 0.0
C280 C 0.16541 0.21372 0.48328 0.0
C281 C 0.15387 0.17758 0.51392 0.0
C282 C 0.14397 0.12141 0.50903 0.0
C283 C 0.14579 0.10151 0.47464 0.0
C284 C 0.15733 0.1382 0.4451 0.0
C285 C 0.16671 0.19315 0.44898 0.0
C286 C 0.17761 0.22395 0.41265 0.0
C287 C 0.13419 0.26204 0.39568 0.0
C288 C 0.23447 0.25498 0.41961 0.0
C289 C 0.17342 0.17775 0.38785 0.0
C290 C 0.16171 0.12861 0.40713 0.0
C291 C 0.15622 0.08013 0.39024 0.0
C292 C 0.16257 0.08191 0.35267 0.0
C293 C 0.17417 0.13185 0.33204 0.0
C294 C 0.17977 0.1803 0.35024 0.0
H295 H 0.85399 0.14146 0.91544 0.0
H296 H 0.85994 0.31373 0.92382 0.0
H297 H 0.84822 0.29603 0.99003 0.0
H298 H 0.75317 0.09977 0.9724 0.0
H299 H 0.78431 0.03997 0.99344 0.0
H300 H 0.79013 0.06698 0.94635 0.0
H301 H 0.89308 0.07043 0.96771 0.0
H302 H 0.88948 0.0465 1.01569 0.0
H303 H 0.9286 0.10989 1.00623 0.0
H304 H 0.83714 0.25843 0.05657 0.0
H305 H 0.82878 0.20431 0.11685 0.0
H306 H 0.83253 0.05797 0.0638 0.0
C307 C 0.85291 0.17552 0.93119 0.0
C308 C 0.85799 0.229 0.91446 0.0
C309 C 0.85562 0.27237 0.93593 0.0
C310 C 0.84917 0.26272 0.97359 0.0
C311 C 0.84474 0.20945 0.98932 0.0
C312 C 0.84616 0.1666 0.9686 0.0
C313 C 0.84118 0.11316 0.99196 0.0
C314 C 0.78909 0.07792 0.97502 0.0
C315 C 0.89107 0.08322 0.99569 0.0
C316 C 0.83822 0.13267 0.02941 0.0
C317 C 0.83956 0.1882 1.02736 0.0
C318 C 0.83616 0.2149 0.05849 0.0
C319 C 0.83132 0.18394 0.09257 0.0
C320 C 0.83054 0.12707 0.09522 0.0
C321 C 0.83374 0.10148 0.06301 0.0
H322 H 0.99042 0.82228 0.44462 0.0
H323 H 0.8525 0.79952 0.49708 0.0
H324 H 0.79327 0.82387 0.43492 0.0
H325 H 0.9564 0.93499 0.38518 0.0
H326 H 0.97924 0.91658 0.34535 0.0
H327 H 0.00932 0.89152 0.39275 0.0
H328 H 0.98587 0.79328 0.37347 0.0
H329 H 0.956 0.81796 0.32579 0.0
H330 H 0.91714 0.76948 0.35212 0.0
H331 H 0.75293 0.86683 0.3695 0.0
H332 H 0.73273 0.91242 0.30436 0.0
H333 H 0.89492 0.89797 0.29345 0.0
C334 C 0.94753 0.82106 0.4428 0.0
C335 C 0.92593 0.80884 0.47557 0.0
C336 C 0.86969 0.80801 0.47219 0.0
C337 C 0.83584 0.8221 0.43704 0.0
C338 C 0.85872 0.83559 0.40542 0.0
C339 C 0.91313 0.8338 0.40784 0.0
C340 C 0.92826 0.85185 0.37011 0.0
C341 C 0.97079 0.90169 0.37358 0.0
C342 C 0.94796 0.80535 0.35445 0.0
C343 C 0.87425 0.86585 0.34635 0.0
C344 C 0.83462 0.85663 0.36722 0.0
C345 C 0.78311 0.87249 0.35251 0.0
C346 C 0.77193 0.89834 0.3156 0.0
C347 C 0.81168 0.90682 0.29365 0.0
C348 C 0.86316 0.88981 0.30915 0.0
H349 H 0.1794 0.90545 0.6969 0.0
H350 H 0.09395 0.74682 0.71664 0.0
H351 H 0.12934 0.74973 0.785 0.0
H352 H 0.30055 0.88243 0.77536 0.0
H353 H 0.30999 0.95121 0.78812 0.0
H354 H 0.28129 0.93629 0.73962 0.0
H355 H 0.19853 0.98438 0.74055 0.0
H356 H 0.22635 -0.00113 0.78908 0.0
H357 H 0.16013 0.96246 0.77654 0.0
H358 H 0.16419 0.77195 0.85088 0.0
H359 H 0.20342 0.811 0.91208 0.0
H360 H 0.27263 0.95299 0.85322 0.0
C361 C 0.16931 0.87089 0.71559 0.0
C362 C 0.13362 0.82599 0.70107 0.0
C363 C 0.1208 0.78193 0.7267 0.0
C364 C 0.14087 0.78298 0.76581 0.0
C365 C 0.17474 0.82796 0.7793 0.0
C366 C 0.18978 0.87087 0.75521 0.0
C367 C 0.22608 0.91455 0.7781 0.0
C368 C 0.28286 0.92152 0.7698 0.0
C369 C 0.20122 0.96827 0.77057 0.0
C370 C 0.22689 0.89022 0.81847 0.0
C371 C 0.19709 0.84007 0.81823 0.0
C372 C 0.18844 0.81078 0.85154 0.0
C373 C 0.21061 0.83335 0.88613 0.0
C374 C 0.24127 0.88467 0.88732 0.0
C375 C 0.2501 0.91323 0.85306 0.0
H376 H 0.8239 0.87983 0.94314 0.0
H377 H 0.98828 0.87789 1.00935 0.0
H378 H 0.01771 0.85948 0.95261 0.0
H379 H 0.82662 0.76943 0.88844 0.0
H380 H 0.7863 0.79794 0.84518 0.0
H381 H 0.77816 0.81451 0.89046 0.0
H382 H 0.79685 0.91634 0.87041 0.0
H383 H 0.80517 0.90005 0.82506 0.0
H384 H 0.85812 0.94097 0.85474 0.0
H385 H 0.03003 0.83899 0.88864 0.0
H386 H 0.02341 0.81585 0.82332 0.0
H387 H 0.85063 0.82548 0.7983 0.0
C388 C 0.86611 0.87546 0.94592 0.0
C389 C 0.9036 0.88123 0.98129 0.0
C390 C 0.95854 0.87533 0.98289 0.0
C391 C 0.97579 0.86433 0.95066 0.0
C392 C 0.9379 0.85887 0.91654 0.0
C393 C 0.88414 0.86411 0.91391 0.0
C394 C 0.85152 0.85477 0.87393 0.0
C395 C 0.80808 0.80627 0.87456 0.0
C396 C 0.82643 0.90609 0.85491 0.0
C397 C 0.89516 0.84263 0.85475 0.0
C398 C 0.94478 0.84571 0.87983 0.0
C399 C 0.99124 0.83612 0.86888 0.0
C400 C 0.98693 0.82248 0.8316 0.0
C401 C 0.9364 0.81789 0.80526 0.0
C402 C 0.89004 0.82879 0.81728 0.0
H403 H 0.16783 0.93666 0.20022 0.0
H404 H 0.33777 0.91918 0.21768 0.0
H405 H 0.33895 0.88489 0.28467 0.0
H406 H 0.17398 0.9895 0.28217 0.0
H407 H 0.11018 0.95724 0.29067 0.0
H408 H 0.12037 0.96844 0.24299 0.0
H409 H 0.09665 0.86586 0.23386 0.0
H410 H 0.08503 0.85518 0.28138 0.0
H411 H 0.13205 0.81768 0.26773 0.0
H412 H 0.32405 0.86871 0.35256 0.0
H413 H 0.29425 0.8661 0.41285 0.0
H414 H 0.13375 0.89604 0.34988 0.0
C415 C 0.20473 0.92316 0.21758 0.0
C416 C 0.25251 0.92968 0.20354 0.0
C417 C 0.30045 0.91325 0.22752 0.0
C418 C 0.30144 0.89415 0.26571 0.0
C419 C 0.25396 0.8909 0.27914 0.0
C420 C 0.20616 0.90386 0.25538 0.0
C421 C 0.16189 0.90241 0.27706 0.0
C422 C 0.1403 0.95768 0.27295 0.0
C423 C 0.1162 0.8576 0.26426 0.0
C424 C 0.19265 0.8892 0.31721 0.0
C425 C 0.2455 0.88196 0.31788 0.0
C426 C 0.28255 0.87347 0.35214 0.0
C427 C 0.26531 0.87265 0.38634 0.0
C428 C 0.21151 0.88082 0.38635 0.0
C429 C 0.17477 0.88847 0.35107 0.0
H430 H 0.16489 0.197 0.81798 0.0
H431 H 0.10241 0.33847 0.84251 0.0
H432 H 0.14479 0.32223 0.91062 0.0
H433 H 0.13393 0.11697 0.89458 0.0
H434 H 0.19182 0.07963 0.90479 0.0
H435 H 0.16733 0.10832 0.85734 0.0
H436 H 0.26156 0.16023 0.85703 0.0
H437 H 0.28655 0.13123 0.9045 0.0
H438 H 0.29318 0.20357 0.89439 0.0
H439 H 0.18204 0.28417 0.97608 0.0
H440 H 0.21019 0.22644 0.03487 0.0
H441 H 0.24626 0.10657 0.9691 0.0
C442 C 0.16254 0.22585 0.83759 0.0
C443 C 0.13225 0.27015 0.8251 0.0
C444 C 0.12691 0.30534 0.8516 0.0
C445 C 0.15073 0.29629 0.89027 0.0
C446 C 0.17912 0.25138 0.90202 0.0
C447 C 0.18525 0.21667 0.87649 0.0
C448 C 0.21127 0.1675 0.89711 0.0
C449 C 0.17384 0.11503 0.88791 0.0
C450 C 0.26643 0.16554 0.8877 0.0
C451 C 0.21747 0.17931 0.93814 0.0
C452 C 0.19936 0.22829 0.94024 0.0
C453 C 0.19717 0.2462 0.97483 0.0
C454 C 0.21309 0.21296 1.00811 0.0
C455 C 0.23084 0.1621 1.00673 0.0
C456 C 0.23396 0.14567 0.97123 0.0
H457 H 0.89328 0.14692 0.43081 0.0
H458 H 0.72802 0.18147 0.41722 0.0
H459 H 0.74788 0.20305 0.48423 0.0
H460 H 0.90845 0.08527 0.52902 0.0
H461 H 0.9778 0.11361 0.5426 0.0
H462 H 0.94979 0.09757 0.49429 0.0
H463 H 0.97784 0.19589 0.47031 0.0
H464 H 0.00586 0.21249 0.5184 0.0
H465 H 0.95538 0.2511 0.48841 0.0
H466 H 0.78741 0.22442 0.55302 0.0
H467 H 0.84395 0.24561 0.61614 0.0
H468 H 0.98234 0.19683 0.58361 0.0
C469 C 0.86089 0.15799 0.44203 0.0
C470 C 0.80901 0.16248 0.41852 0.0
C471 C 0.76825 0.17829 0.43439 0.0
C472 C 0.77903 0.19027 0.47256 0.0
C473 C 0.83076 0.18607 0.49476 0.0
C474 C 0.87095 0.17007 0.48006 0.0
C475 C 0.92374 0.1707 0.50937 0.0
C476 C 0.94093 0.11338 0.5194 0.0
C477 C 0.9683 0.20989 0.4958 0.0
C478 C 0.90737 0.19106 0.54242 0.0
C479 C 0.85345 0.19896 0.53381 0.0
C480 C 0.82968 0.2182 0.56007 0.0
C481 C 0.86204 0.23013 0.59586 0.0
C482 C 0.91768 0.22343 0.60484 0.0
C483 C 0.94008 0.20302 0.5777 0.0
loop_
_geom_bond_atom_site_label_1
_geom_bond_atom_site_label_2
_geom_bond_distance
_geom_bond_site_symmetry_2
_ccdc_geom_bond_type
Sm0 C2 2.846 . S
Sm0 O20 2.543 . S
Sm0 O21 2.450 . S
Sm0 O22 2.681 . S
Sm0 O23 2.464 . S
Sm0 O24 2.396 . S
Sm0 O28 2.386 . S
Sm0 O31 2.408 . S
Sm1 C11 2.828 1_544 S
Sm1 O22 2.386 . S
Sm1 O25 2.408 1_545 S
Sm1 O26 2.541 1_545 S
Sm1 O27 2.450 1_545 S
Sm1 O28 2.681 . S
Sm1 O29 2.464 . S
Sm1 O30 2.396 . S
C2 Sm0 2.846 . S
C2 C3 1.506 . S
C2 O20 1.261 . S
C2 O21 1.242 . S
C3 C2 1.506 . S
C3 C4 1.358 . S
C3 C8 1.382 . S
C4 C3 1.358 . S
C4 C5 1.385 . S
C4 H32 0.930 . S
C5 C4 1.385 . S
C5 C6 1.395 . S
C5 H33 0.929 . S
C6 C5 1.395 . S
C6 C7 1.335 . S
C7 C6 1.335 . S
C7 C8 1.398 . S
C7 H34 0.930 . S
C8 C3 1.382 . S
C8 C7 1.398 . S
C8 H35 0.929 . S
C9 O22 1.271 . S
C9 O23 1.251 . S
C10 O24 1.252 . S
C10 O25 1.272 1_545 S
C11 Sm1 2.828 1_566 S
C11 C12 1.523 . S
C11 O26 1.258 1_556 S
C11 O27 1.231 1_556 S
C12 C11 1.523 . S
C12 C13 1.358 . S
C12 C17 1.382 . S
C13 C12 1.358 . S
C13 C14 1.385 . S
C13 H36 0.930 . S
C14 C13 1.385 . S
C14 C15 1.395 . S
C14 H37 0.929 . S
C15 C14 1.395 . S
C15 C16 1.335 . S
C16 C15 1.335 . S
C16 C17 1.398 . S
C16 H38 0.930 . S
C17 C12 1.382 . S
C17 C16 1.398 . S
C17 H39 0.929 . S
C18 O28 1.271 . S
C18 O29 1.251 . S
C19 O30 1.252 . S
C19 O31 1.272 . S
O20 Sm0 2.543 . S
O20 C2 1.261 . S
O21 Sm0 2.450 . S
O21 C2 1.242 . S
O22 Sm0 2.681 . S
O22 Sm1 2.386 . S
O22 C9 1.271 . S
O23 Sm0 2.464 . S
O23 C9 1.251 . S
O24 Sm0 2.396 . S
O24 C10 1.252 . S
O25 Sm1 2.408 1_565 S
O25 C10 1.272 1_565 S
O26 Sm1 2.541 1_565 S
O26 C11 1.258 1_554 S
O27 Sm1 2.450 1_565 S
O27 C11 1.231 1_554 S
O28 Sm0 2.386 . S
O28 Sm1 2.681 . S
O28 C18 1.271 . S
O29 Sm1 2.464 . S
O29 C18 1.251 . S
O30 Sm1 2.396 . S
O30 C19 1.252 . S
O31 Sm0 2.408 . S
O31 C19 1.272 . S
H32 C4 0.930 . S
H33 C5 0.929 . S
H34 C7 0.930 . S
H35 C8 0.929 . S
H36 C13 0.930 . S
H37 C14 0.929 . S
H38 C16 0.930 . S
H39 C17 0.929 . S
Sm40 C42 2.846 . S
Sm40 O60 2.543 . S
Sm40 O61 2.450 . S
Sm40 O62 2.681 1_655 S
Sm40 O63 2.464 . S
Sm40 O64 2.396 1_655 S
Sm40 O68 2.386 1_655 S
Sm40 O71 2.408 . S
Sm41 C51 2.846 . S
Sm41 O62 2.386 . S
Sm41 O65 2.408 . S
Sm41 O66 2.543 . S
Sm41 O67 2.450 . S
Sm41 O68 2.681 . S
Sm41 O69 2.464 . S
Sm41 O70 2.396 . S
C42 Sm40 2.846 . S
C42 C43 1.506 . S
C42 O60 1.261 . S
C42 O61 1.242 . S
C43 C42 1.506 . S
C43 C44 1.358 . S
C43 C48 1.382 . S
C44 C43 1.358 . S
C44 C45 1.385 . S
C44 H72 0.930 . S
C45 C44 1.385 . S
C45 C46 1.395 . S
C45 H73 0.929 . S
C46 C45 1.395 . S
C46 C47 1.335 . S
C47 C46 1.335 . S
C47 C48 1.398 . S
C47 H74 0.930 . S
C48 C43 1.382 . S
C48 C47 1.398 . S
C48 H75 0.929 . S
C49 O62 1.271 . S
C49 O63 1.251 1_455 S
C50 O64 1.252 . S
C50 O65 1.272 . S
C51 Sm41 2.846 . S
C51 C52 1.506 . S
C51 O66 1.261 . S
C51 O67 1.242 . S
C52 C51 1.506 . S
C52 C53 1.358 . S
C52 C57 1.382 . S
C53 C52 1.358 . S
C53 C54 1.385 . S
C53 H76 0.930 . S
C54 C53 1.385 . S
C54 C55 1.395 . S
C54 H77 0.929 . S
C55 C54 1.395 . S
C55 C56 1.335 . S
C56 C55 1.335 . S
C56 C57 1.398 . S
C56 H78 0.930 . S
C57 C52 1.382 . S
C57 C56 1.398 . S
C57 H79 0.929 . S
C58 O68 1.271 . S
C58 O69 1.251 . S
C59 O70 1.252 1_655 S
C59 O71 1.272 . S
O60 Sm40 2.543 . S
O60 C42 1.261 . S
O61 Sm40 2.450 . S
O61 C42 1.242 . S
O62 Sm40 2.681 1_455 S
O62 Sm41 2.386 . S
O62 C49 1.271 . S
O63 Sm40 2.464 . S
O63 C49 1.251 1_655 S
O64 Sm40 2.396 1_455 S
O64 C50 1.252 . S
O65 Sm41 2.408 . S
O65 C50 1.272 . S
O66 Sm41 2.543 . S
O66 C51 1.261 . S
O67 Sm41 2.450 . S
O67 C51 1.242 . S
O68 Sm40 2.386 1_455 S
O68 Sm41 2.681 . S
O68 C58 1.271 . S
O69 Sm41 2.464 . S
O69 C58 1.251 . S
O70 Sm41 2.396 . S
O70 C59 1.252 1_455 S
O71 Sm40 2.408 . S
O71 C59 1.272 . S
H72 C44 0.930 . S
H73 C45 0.929 . S
H74 C47 0.930 . S
H75 C48 0.929 . S
H76 C53 0.930 . S
H77 C54 0.929 . S
H78 C56 0.930 . S
H79 C57 0.929 . S
Sm80 C82 2.846 . S
Sm80 O100 2.543 . S
Sm80 O101 2.450 . S
Sm80 O102 2.681 1_545 S
Sm80 O103 2.464 . S
Sm80 O104 2.396 1_545 S
Sm80 O108 2.386 . S
Sm80 O111 2.408 . S
Sm81 C91 2.846 . S
Sm81 O102 2.386 . S
Sm81 O105 2.408 . S
Sm81 O106 2.543 . S
Sm81 O107 2.450 . S
Sm81 O108 2.681 1_565 S
Sm81 O109 2.464 . S
Sm81 O110 2.396 1_565 S
C82 Sm80 2.846 . S
C82 C83 1.506 . S
C82 O100 1.261 . S
C82 O101 1.242 . S
C83 C82 1.506 . S
C83 C84 1.358 . S
C83 C88 1.382 . S
C84 C83 1.358 . S
C84 C85 1.385 . S
C84 H112 0.930 . S
C85 C84 1.385 . S
C85 C86 1.395 . S
C85 H113 0.929 . S
C86 C85 1.395 . S
C86 C87 1.335 . S
C87 C86 1.335 . S
C87 C88 1.398 . S
C87 H114 0.930 . S
C88 C83 1.382 . S
C88 C87 1.398 . S
C88 H115 0.929 . S
C89 O102 1.271 1_545 S
C89 O103 1.251 . S
C90 O104 1.252 . S
C90 O105 1.272 . S
C91 Sm81 2.846 . S
C91 C92 1.506 . S
C91 O106 1.261 . S
C91 O107 1.242 . S
C92 C91 1.506 . S
C92 C93 1.358 . S
C92 C97 1.382 . S
C93 C92 1.358 . S
C93 C94 1.385 1_554 S
C93 H116 0.930 . S
C94 C93 1.385 1_556 S
C94 C95 1.395 . S
C94 H117 0.929 . S
C95 C94 1.395 . S
C95 C96 1.335 . S
C96 C95 1.335 . S
C96 C97 1.398 1_556 S
C96 H118 0.930 . S
C97 C92 1.382 . S
C97 C96 1.398 1_554 S
C97 H119 0.929 . S
C98 O108 1.271 1_565 S
C98 O109 1.251 . S
C99 O110 1.252 . S
C99 O111 1.272 . S
O100 Sm80 2.543 . S
O100 C82 1.261 . S
O101 Sm80 2.450 . S
O101 C82 1.242 . S
O102 Sm80 2.681 1_565 S
O102 Sm81 2.386 . S
O102 C89 1.271 1_565 S
O103 Sm80 2.464 . S
O103 C89 1.251 . S
O104 Sm80 2.396 1_565 S
O104 C90 1.252 . S
O105 Sm81 2.408 . S
O105 C90 1.272 . S
O106 Sm81 2.543 . S
O106 C91 1.261 . S
O107 Sm81 2.450 . S
O107 C91 1.242 . S
O108 Sm80 2.386 . S
O108 Sm81 2.681 1_545 S
O108 C98 1.271 1_545 S
O109 Sm81 2.464 . S
O109 C98 1.251 . S
O110 Sm81 2.396 1_545 S
O110 C99 1.252 . S
O111 Sm80 2.408 . S
O111 C99 1.272 . S
H112 C84 0.930 . S
H113 C85 0.929 . S
H114 C87 0.930 . S
H115 C88 0.929 . S
H116 C93 0.930 . S
H117 C94 0.929 . S
H118 C96 0.930 . S
H119 C97 0.929 . S
Sm120 C122 2.846 . S
Sm120 O140 2.543 . S
Sm120 O141 2.450 . S
Sm120 O142 2.681 1_655 S
Sm120 O143 2.464 . S
Sm120 O144 2.396 1_655 S
Sm120 O148 2.386 1_655 S
Sm120 O151 2.408 . S
Sm121 C131 2.846 . S
Sm121 O142 2.386 . S
Sm121 O145 2.408 . S
Sm121 O146 2.543 . S
Sm121 O147 2.450 . S
Sm121 O148 2.681 . S
Sm121 O149 2.464 . S
Sm121 O150 2.396 . S
C122 Sm120 2.846 . S
C122 C123 1.506 . S
C122 O140 1.261 . S
C122 O141 1.242 . S
C123 C122 1.506 . S
C123 C124 1.358 . S
C123 C128 1.382 . S
C124 C123 1.358 . S
C124 C125 1.385 . S
C124 H152 0.930 . S
C125 C124 1.385 . S
C125 C126 1.395 . S
C125 H153 0.929 . S
C126 C125 1.395 . S
C126 C127 1.335 . S
C127 C126 1.335 . S
C127 C128 1.398 . S
C127 H154 0.930 . S
C128 C123 1.382 . S
C128 C127 1.398 . S
C128 H155 0.929 . S
C129 O142 1.271 . S
C129 O143 1.251 1_455 S
C130 O144 1.252 . S
C130 O145 1.272 . S
C131 Sm121 2.846 . S
C131 C132 1.506 . S
C131 O146 1.261 . S
C131 O147 1.242 . S
C132 C131 1.506 . S
C132 C133 1.358 . S
C132 C137 1.382 . S
C133 C132 1.358 . S
C133 C134 1.385 . S
C133 H156 0.930 . S
C134 C133 1.385 . S
C134 C135 1.395 . S
C134 H157 0.929 . S
C135 C134 1.395 . S
C135 C136 1.335 . S
C136 C135 1.335 . S
C136 C137 1.398 . S
C136 H158 0.930 . S
C137 C132 1.382 . S
C137 C136 1.398 . S
C137 H159 0.929 . S
C138 O148 1.271 . S
C138 O149 1.251 . S
C139 O150 1.252 1_655 S
C139 O151 1.272 . S
O140 Sm120 2.543 . S
O140 C122 1.261 . S
O141 Sm120 2.450 . S
O141 C122 1.242 . S
O142 Sm120 2.681 1_455 S
O142 Sm121 2.386 . S
O142 C129 1.271 . S
O143 Sm120 2.464 . S
O143 C129 1.251 1_655 S
O144 Sm120 2.396 1_455 S
O144 C130 1.252 . S
O145 Sm121 2.408 . S
O145 C130 1.272 . S
O146 Sm121 2.543 . S
O146 C131 1.261 . S
O147 Sm121 2.450 . S
O147 C131 1.242 . S
O148 Sm120 2.386 1_455 S
O148 Sm121 2.681 . S
O148 C138 1.271 . S
O149 Sm121 2.464 . S
O149 C138 1.251 . S
O150 Sm121 2.396 . S
O150 C139 1.252 1_455 S
O151 Sm120 2.408 . S
O151 C139 1.272 . S
H152 C124 0.930 . S
H153 C125 0.929 . S
H154 C127 0.930 . S
H155 C128 0.929 . S
H156 C133 0.930 . S
H157 C134 0.929 . S
H158 C136 0.930 . S
H159 C137 0.929 . S
H160 C172 0.930 . S
H161 C174 0.930 . S
H162 C175 0.930 . S
H163 C179 0.959 . S
H164 C179 0.959 . S
H165 C179 0.961 . S
H166 C180 0.960 1_655 S
H167 C180 0.961 . S
H168 C180 0.959 . S
H169 C183 0.929 1_565 S
H170 C184 0.931 . S
H171 C186 0.930 . S
C172 H160 0.930 . S
C172 C173 1.399 1_545 S
C172 C177 1.399 . S
C173 C172 1.399 1_565 S
C173 C174 1.376 . S
C174 H161 0.930 . S
C174 C173 1.376 . S
C174 C175 1.388 1_655 S
C175 H162 0.930 . S
C175 C174 1.388 1_455 S
C175 C176 1.390 1_565 S
C176 C175 1.390 1_545 S
C176 C177 1.394 1_455 S
C176 C182 1.465 . S
C177 C172 1.399 . S
C177 C176 1.394 1_655 S
C177 C178 1.516 1_655 S
C178 C177 1.516 1_455 S
C178 C179 1.502 1_455 S
C178 C180 1.561 . S
C178 C181 1.526 . S
C179 H163 0.959 . S
C179 H164 0.959 . S
C179 H165 0.961 . S
C179 C178 1.502 1_655 S
C180 H166 0.960 1_455 S
C180 H167 0.961 . S
C180 H168 0.959 . S
C180 C178 1.561 . S
C181 C178 1.526 . S
C181 C182 1.396 . S
C181 C186 1.390 . S
C182 C176 1.465 . S
C182 C181 1.396 . S
C182 C183 1.399 . S
C183 H169 0.929 1_545 S
C183 C182 1.399 . S
C183 C184 1.385 . S
C184 H170 0.931 . S
C184 C183 1.385 . S
C184 C185 1.389 . S
C185 C184 1.389 . S
C185 C186 1.387 . S
C186 H171 0.930 . S
C186 C181 1.390 . S
C186 C185 1.387 . S
H187 C199 0.930 . S
H188 C201 0.930 . S
H189 C202 0.930 . S
H190 C206 0.959 1_655 S
H191 C206 0.959 . S
H192 C206 0.961 . S
H193 C207 0.960 . S
H194 C207 0.961 . S
H195 C207 0.959 1_545 S
H196 C210 0.929 . S
H197 C211 0.931 . S
H198 C213 0.930 . S
C199 H187 0.930 . S
C199 C200 1.399 . S
C199 C204 1.399 . S
C200 C199 1.399 . S
C200 C201 1.376 . S
C201 H188 0.930 . S
C201 C200 1.376 . S
C201 C202 1.388 1_565 S
C202 H189 0.930 . S
C202 C201 1.388 1_545 S
C202 C203 1.390 . S
C203 C202 1.390 . S
C203 C204 1.394 1_545 S
C203 C209 1.465 . S
C204 C199 1.399 . S
C204 C203 1.394 1_565 S
C204 C205 1.516 . S
C205 C204 1.516 . S
C205 C206 1.502 . S
C205 C207 1.561 . S
C205 C208 1.526 1_565 S
C206 H190 0.959 1_455 S
C206 H191 0.959 . S
C206 H192 0.961 . S
C206 C205 1.502 . S
C207 H193 0.960 . S
C207 H194 0.961 . S
C207 H195 0.959 1_565 S
C207 C205 1.561 . S
C208 C205 1.526 1_545 S
C208 C209 1.396 . S
C208 C213 1.390 . S
C209 C203 1.465 . S
C209 C208 1.396 . S
C209 C210 1.399 . S
C210 H196 0.929 . S
C210 C209 1.399 . S
C210 C211 1.385 . S
C211 H197 0.931 . S
C211 C210 1.385 . S
C211 C212 1.389 . S
C212 C211 1.389 . S
C212 C213 1.387 . S
C213 H198 0.930 . S
C213 C208 1.390 . S
C213 C212 1.387 . S
H214 C226 0.930 . S
H215 C228 0.930 . S
H216 C229 0.930 . S
H217 C233 0.959 . S
H218 C233 0.959 . S
H219 C233 0.961 . S
H220 C234 0.960 . S
H221 C234 0.961 . S
H222 C234 0.959 . S
H223 C237 0.929 . S
H224 C238 0.931 . S
H225 C240 0.930 . S
C226 H214 0.930 . S
C226 C227 1.398 1_565 S
C226 C231 1.399 1_565 S
C227 C226 1.398 1_545 S
C227 C228 1.383 . S
C228 H215 0.930 . S
C228 C227 1.383 . S
C228 C229 1.388 . S
C229 H216 0.930 . S
C229 C228 1.388 . S
C229 C230 1.390 . S
C230 C229 1.390 . S
C230 C231 1.394 . S
C230 C236 1.465 . S
C231 C226 1.399 1_545 S
C231 C230 1.394 . S
C231 C232 1.516 . S
C232 C231 1.516 . S
C232 C233 1.502 . S
C232 C234 1.561 1_545 S
C232 C235 1.526 . S
C233 H217 0.959 . S
C233 H218 0.959 . S
C233 H219 0.961 . S
C233 C232 1.502 . S
C234 H220 0.960 . S
C234 H221 0.961 . S
C234 H222 0.959 . S
C234 C232 1.561 1_565 S
C235 C232 1.526 . S
C235 C236 1.396 . S
C235 C240 1.390 . S
C236 C230 1.465 . S
C236 C235 1.396 . S
C236 C237 1.399 . S
C237 H223 0.929 . S
C237 C236 1.399 . S
C237 C238 1.385 . S
C238 H224 0.931 . S
C238 C237 1.385 . S
C238 C239 1.389 . S
C239 C238 1.389 . S
C239 C240 1.387 . S
C240 H225 0.930 . S
C240 C235 1.390 . S
C240 C239 1.387 . S
H241 C253 0.930 . S
H242 C255 0.930 . S
H243 C256 0.930 . S
H244 C260 0.959 . S
H245 C260 0.959 . S
H246 C260 0.961 . S
H247 C261 0.960 . S
H248 C261 0.961 . S
H249 C261 0.959 . S
H250 C264 0.929 . S
H251 C265 0.931 . S
H252 C267 0.930 . S
C253 H241 0.930 . S
C253 C254 1.399 . S
C253 C258 1.399 . S
C254 C253 1.399 . S
C254 C255 1.376 . S
C255 H242 0.930 . S
C255 C254 1.376 . S
C255 C256 1.388 . S
C256 H243 0.930 . S
C256 C255 1.388 . S
C256 C257 1.390 . S
C257 C256 1.390 . S
C257 C258 1.394 . S
C257 C263 1.465 . S
C258 C253 1.399 . S
C258 C257 1.394 . S
C258 C259 1.516 . S
C259 C258 1.516 . S
C259 C260 1.502 1_455 S
C259 C261 1.561 . S
C259 C262 1.526 . S
C260 H244 0.959 . S
C260 H245 0.959 . S
C260 H246 0.961 . S
C260 C259 1.502 1_655 S
C261 H247 0.960 . S
C261 H248 0.961 . S
C261 H249 0.959 . S
C261 C259 1.561 . S
C262 C259 1.526 . S
C262 C263 1.396 . S
C262 C267 1.390 . S
C263 C257 1.465 . S
C263 C262 1.396 . S
C263 C264 1.399 . S
C264 H250 0.929 . S
C264 C263 1.399 . S
C264 C265 1.385 . S
C265 H251 0.931 . S
C265 C264 1.385 . S
C265 C266 1.389 . S
C266 C265 1.389 . S
C266 C267 1.387 . S
C267 H252 0.930 . S
C267 C262 1.390 . S
C267 C266 1.387 . S
H268 C280 0.930 . S
H269 C282 0.930 . S
H270 C283 0.930 . S
H271 C287 0.959 . S
H272 C287 0.959 . S
H273 C287 0.961 . S
H274 C288 0.960 . S
H275 C288 0.961 . S
H276 C288 0.959 . S
H277 C291 0.929 . S
H278 C292 0.931 . S
H279 C294 0.930 . S
C280 H268 0.930 . S
C280 C281 1.399 . S
C280 C285 1.399 . S
C281 C280 1.399 . S
C281 C282 1.376 . S
C282 H269 0.930 . S
C282 C281 1.376 . S
C282 C283 1.388 . S
C283 H270 0.930 . S
C283 C282 1.388 . S
C283 C284 1.390 . S
C284 C283 1.390 . S
C284 C285 1.394 . S
C284 C290 1.465 . S
C285 C280 1.399 . S
C285 C284 1.394 . S
C285 C286 1.516 . S
C286 C285 1.516 . S
C286 C287 1.502 . S
C286 C288 1.561 . S
C286 C289 1.526 . S
C287 H271 0.959 . S
C287 H272 0.959 . S
C287 H273 0.961 . S
C287 C286 1.502 . S
C288 H274 0.960 . S
C288 H275 0.961 . S
C288 H276 0.959 . S
C288 C286 1.561 . S
C289 C286 1.526 . S
C289 C290 1.396 . S
C289 C294 1.390 . S
C290 C284 1.465 . S
C290 C289 1.396 . S
C290 C291 1.399 . S
C291 H277 0.929 . S
C291 C290 1.399 . S
C291 C292 1.385 . S
C292 H278 0.931 . S
C292 C291 1.385 . S
C292 C293 1.389 . S
C293 C292 1.389 . S
C293 C294 1.387 . S
C294 H279 0.930 . S
C294 C289 1.390 . S
C294 C293 1.387 . S
H295 C307 0.930 . S
H296 C309 0.930 . S
H297 C310 0.930 . S
H298 C314 0.959 . S
H299 C314 0.959 . S
H300 C314 0.961 . S
H301 C315 0.960 . S
H302 C315 0.961 1_565 S
H303 C315 0.959 . S
H304 C318 0.929 . S
H305 C319 0.931 . S
H306 C321 0.930 . S
C307 H295 0.930 . S
C307 C308 1.399 . S
C307 C312 1.399 . S
C308 C307 1.399 . S
C308 C309 1.376 . S
C309 H296 0.930 . S
C309 C308 1.376 . S
C309 C310 1.388 . S
C310 H297 0.930 . S
C310 C309 1.388 . S
C310 C311 1.390 . S
C311 C310 1.390 . S
C311 C312 1.394 . S
C311 C317 1.465 . S
C312 C307 1.399 . S
C312 C311 1.394 . S
C312 C313 1.516 . S
C313 C312 1.516 . S
C313 C314 1.502 . S
C313 C315 1.561 . S
C313 C316 1.526 . S
C314 H298 0.959 . S
C314 H299 0.959 . S
C314 H300 0.961 . S
C314 C313 1.502 . S
C315 H301 0.960 . S
C315 H302 0.961 1_545 S
C315 H303 0.959 . S
C315 C313 1.561 . S
C316 C313 1.526 . S
C316 C317 1.396 . S
C316 C321 1.390 1_556 S
C317 C311 1.465 . S
C317 C316 1.396 . S
C317 C318 1.399 1_556 S
C318 H304 0.929 . S
C318 C317 1.399 1_554 S
C318 C319 1.385 . S
C319 H305 0.931 . S
C319 C318 1.385 . S
C319 C320 1.389 . S
C320 C319 1.389 . S
C320 C321 1.387 . S
C321 H306 0.930 . S
C321 C316 1.390 1_554 S
C321 C320 1.387 . S
H322 C334 0.930 . S
H323 C336 0.930 . S
H324 C337 0.930 . S
H325 C341 0.959 . S
H326 C341 0.959 . S
H327 C341 0.961 . S
H328 C342 0.960 . S
H329 C342 0.961 . S
H330 C342 0.959 . S
H331 C345 0.929 . S
H332 C346 0.931 . S
H333 C348 0.930 . S
C334 H322 0.930 . S
C334 C335 1.399 . S
C334 C339 1.399 . S
C335 C334 1.399 . S
C335 C336 1.376 . S
C336 H323 0.930 . S
C336 C335 1.376 . S
C336 C337 1.388 . S
C337 H324 0.930 . S
C337 C336 1.388 . S
C337 C338 1.390 . S
C338 C337 1.390 . S
C338 C339 1.394 . S
C338 C344 1.465 . S
C339 C334 1.399 . S
C339 C338 1.394 . S
C339 C340 1.516 . S
C340 C339 1.516 . S
C340 C341 1.502 . S
C340 C342 1.561 . S
C340 C343 1.526 . S
C341 H325 0.959 . S
C341 H326 0.959 . S
C341 H327 0.961 . S
C341 C340 1.502 . S
C342 H328 0.960 . S
C342 H329 0.961 . S
C342 H330 0.959 . S
C342 C340 1.561 . S
C343 C340 1.526 . S
C343 C344 1.396 . S
C343 C348 1.390 . S
C344 C338 1.465 . S
C344 C343 1.396 . S
C344 C345 1.399 . S
C345 H331 0.929 . S
C345 C344 1.399 . S
C345 C346 1.385 . S
C346 H332 0.931 . S
C346 C345 1.385 . S
C346 C347 1.389 . S
C347 C346 1.389 . S
C347 C348 1.387 . S
C348 H333 0.930 . S
C348 C343 1.390 . S
C348 C347 1.387 . S
H349 C361 0.930 . S
H350 C363 0.930 . S
H351 C364 0.930 . S
H352 C368 0.959 . S
H353 C368 0.959 . S
H354 C368 0.961 . S
H355 C369 0.960 . S
H356 C369 0.961 1_545 S
H357 C369 0.959 . S
H358 C372 0.929 . S
H359 C373 0.931 . S
H360 C375 0.930 . S
C361 H349 0.930 . S
C361 C362 1.399 . S
C361 C366 1.399 . S
C362 C361 1.399 . S
C362 C363 1.376 . S
C363 H350 0.930 . S
C363 C362 1.376 . S
C363 C364 1.388 . S
C364 H351 0.930 . S
C364 C363 1.388 . S
C364 C365 1.390 . S
C365 C364 1.390 . S
C365 C366 1.394 . S
C365 C371 1.465 . S
C366 C361 1.399 . S
C366 C365 1.394 . S
C366 C367 1.516 . S
C367 C366 1.516 . S
C367 C368 1.502 . S
C367 C369 1.561 . S
C367 C370 1.526 . S
C368 H352 0.959 . S
C368 H353 0.959 . S
C368 H354 0.961 . S
C368 C367 1.502 . S
C369 H355 0.960 . S
C369 H356 0.961 1_565 S
C369 H357 0.959 . S
C369 C367 1.561 . S
C370 C367 1.526 . S
C370 C371 1.396 . S
C370 C375 1.390 . S
C371 C365 1.465 . S
C371 C370 1.396 . S
C371 C372 1.399 . S
C372 H358 0.929 . S
C372 C371 1.399 . S
C372 C373 1.385 . S
C373 H359 0.931 . S
C373 C372 1.385 . S
C373 C374 1.389 . S
C374 C373 1.389 . S
C374 C375 1.387 . S
C375 H360 0.930 . S
C375 C370 1.390 . S
C375 C374 1.387 . S
H376 C388 0.930 . S
H377 C390 0.930 . S
H378 C391 0.930 . S
H379 C395 0.959 . S
H380 C395 0.959 . S
H381 C395 0.961 . S
H382 C396 0.960 . S
H383 C396 0.961 . S
H384 C396 0.959 . S
H385 C399 0.929 . S
H386 C400 0.931 . S
H387 C402 0.930 . S
C388 H376 0.930 . S
C388 C389 1.399 . S
C388 C393 1.399 . S
C389 C388 1.399 . S
C389 C390 1.376 . S
C390 H377 0.930 . S
C390 C389 1.376 . S
C390 C391 1.388 . S
C391 H378 0.930 . S
C391 C390 1.388 . S
C391 C392 1.390 . S
C392 C391 1.390 . S
C392 C393 1.394 . S
C392 C398 1.465 . S
C393 C388 1.399 . S
C393 C392 1.394 . S
C393 C394 1.516 . S
C394 C393 1.516 . S
C394 C395 1.502 . S
C394 C396 1.561 . S
C394 C397 1.526 . S
C395 H379 0.959 . S
C395 H380 0.959 . S
C395 H381 0.961 . S
C395 C394 1.502 . S
C396 H382 0.960 . S
C396 H383 0.961 . S
C396 H384 0.959 . S
C396 C394 1.561 . S
C397 C394 1.526 . S
C397 C398 1.396 . S
C397 C402 1.390 . S
C398 C392 1.465 . S
C398 C397 1.396 . S
C398 C399 1.399 . S
C399 H385 0.929 . S
C399 C398 1.399 . S
C399 C400 1.385 . S
C400 H386 0.931 . S
C400 C399 1.385 . S
C400 C401 1.389 . S
C401 C400 1.389 . S
C401 C402 1.387 . S
C402 H387 0.930 . S
C402 C397 1.390 . S
C402 C401 1.387 . S
H403 C415 0.930 . S
H404 C417 0.930 . S
H405 C418 0.930 . S
H406 C422 0.959 . S
H407 C422 0.959 . S
H408 C422 0.961 . S
H409 C423 0.960 . S
H410 C423 0.961 . S
H411 C423 0.959 . S
H412 C426 0.929 1_545 S
H413 C427 0.931 . S
H414 C429 0.930 . S
C415 H403 0.930 . S
C415 C416 1.381 1_565 S
C415 C420 1.399 . S
C416 C415 1.381 1_545 S
C416 C417 1.393 . S
C417 H404 0.930 . S
C417 C416 1.393 . S
C417 C418 1.388 . S
C418 H405 0.930 . S
C418 C417 1.388 . S
C418 C419 1.390 1_545 S
C419 C418 1.390 1_565 S
C419 C420 1.394 . S
C419 C425 1.465 . S
C420 C415 1.399 . S
C420 C419 1.394 . S
C420 C421 1.516 . S
C421 C420 1.516 . S
C421 C422 1.502 . S
C421 C423 1.561 . S
C421 C424 1.526 . S
C422 H406 0.959 . S
C422 H407 0.959 . S
C422 H408 0.961 . S
C422 C421 1.502 . S
C423 H409 0.960 . S
C423 H410 0.961 . S
C423 H411 0.959 . S
C423 C421 1.561 . S
C424 C421 1.526 . S
C424 C425 1.396 . S
C424 C429 1.390 . S
C425 C419 1.465 . S
C425 C424 1.396 . S
C425 C426 1.399 . S
C426 H412 0.929 1_565 S
C426 C425 1.399 . S
C426 C427 1.385 . S
C427 H413 0.931 . S
C427 C426 1.385 . S
C427 C428 1.389 . S
C428 C427 1.389 . S
C428 C429 1.387 . S
C429 H414 0.930 . S
C429 C424 1.390 . S
C429 C428 1.387 . S
H430 C442 0.930 . S
H431 C444 0.930 . S
H432 C445 0.930 . S
H433 C449 0.959 . S
H434 C449 0.959 . S
H435 C449 0.961 . S
H436 C450 0.960 . S
H437 C450 0.961 . S
H438 C450 0.959 . S
H439 C453 0.929 . S
H440 C454 0.931 . S
H441 C456 0.930 . S
C442 H430 0.930 . S
C442 C443 1.399 . S
C442 C447 1.399 . S
C443 C442 1.399 . S
C443 C444 1.376 . S
C444 H431 0.930 . S
C444 C443 1.376 . S
C444 C445 1.388 . S
C445 H432 0.930 . S
C445 C444 1.388 . S
C445 C446 1.390 . S
C446 C445 1.390 . S
C446 C447 1.394 . S
C446 C452 1.465 . S
C447 C442 1.399 . S
C447 C446 1.394 . S
C447 C448 1.516 . S
C448 C447 1.516 . S
C448 C449 1.502 . S
C448 C450 1.561 . S
C448 C451 1.526 . S
C449 H433 0.959 . S
C449 H434 0.959 . S
C449 H435 0.961 . S
C449 C448 1.502 . S
C450 H436 0.960 . S
C450 H437 0.961 . S
C450 H438 0.959 . S
C450 C448 1.561 . S
C451 C448 1.526 . S
C451 C452 1.396 . S
C451 C456 1.390 . S
C452 C446 1.465 . S
C452 C451 1.396 . S
C452 C453 1.399 . S
C453 H439 0.929 . S
C453 C452 1.399 . S
C453 C454 1.385 . S
C454 H440 0.931 . S
C454 C453 1.385 . S
C454 C455 1.389 . S
C455 C454 1.389 . S
C455 C456 1.387 . S
C456 H441 0.930 . S
C456 C451 1.390 . S
C456 C455 1.387 . S
H457 C469 0.930 . S
H458 C471 0.930 . S
H459 C472 0.930 . S
H460 C476 0.959 . S
H461 C476 0.959 . S
H462 C476 0.961 . S
H463 C477 0.960 . S
H464 C477 0.961 . S
H465 C477 0.959 . S
H466 C480 0.929 . S
H467 C481 0.931 . S
H468 C483 0.930 . S
C469 H457 0.930 . S
C469 C470 1.399 . S
C469 C474 1.399 . S
C470 C469 1.399 . S
C470 C471 1.376 . S
C471 H458 0.930 . S
C471 C470 1.376 . S
C471 C472 1.388 . S
C472 H459 0.930 . S
C472 C471 1.388 . S
C472 C473 1.390 . S
C473 C472 1.390 . S
C473 C474 1.394 . S
C473 C479 1.465 . S
C474 C469 1.399 . S
C474 C473 1.394 . S
C474 C475 1.516 . S
C475 C474 1.516 . S
C475 C476 1.502 . S
C475 C477 1.561 . S
C475 C478 1.526 . S
C476 H460 0.959 . S
C476 H461 0.959 . S
C476 H462 0.961 . S
C476 C475 1.502 . S
C477 H463 0.960 . S
C477 H464 0.961 . S
C477 H465 0.959 . S
C477 C475 1.561 . S
C478 C475 1.526 . S
C478 C479 1.396 . S
C478 C483 1.390 . S
C479 C473 1.465 . S
C479 C478 1.396 . S
C479 C480 1.399 . S
C480 H466 0.929 . S
C480 C479 1.399 . S
C480 C481 1.385 . S
C481 H467 0.931 . S
C481 C480 1.385 . S
C481 C482 1.389 . S
C482 C481 1.389 . S
C482 C483 1.387 . S
C483 H468 0.930 . S
C483 C478 1.390 . S
C483 C482 1.387 . S
C173 C89 0.654 1_565 S
C185 C18 0.419 . S
C200 C129 0.809 . S
C212 C58 0.532 . S
C227 C98 1.124 1_545 S
C239 C9 1.054 . S
C254 C49 1.069 . S
C266 C138 1.009 . S
C281 C55 1.014 . S
C293 C6 1.047 . S
C308 C46 1.661 . S
C320 C99 1.680 . S
C335 C139 2.134 . S
C347 C90 2.077 . S
C362 C130 1.385 . S
C374 C15 1.383 . S
C389 C95 1.019 . S
C401 C126 1.063 . S
C416 C10 1.685 . S
C428 C135 1.653 . S
C443 C50 2.138 . S
C455 C19 2.071 1_556 S
C470 C86 1.381 . S
C482 C59 1.398 . S
