# Generated by pormake.
# Topology rkf, (6)-cn, num edge types: 1
# Building blocks:
#     Node 0, Type 0, BuildingBlock: VOLQOD_clean_sbu_1, # of connection points: 6
#     Node 1, Type 0, BuildingBlock: VOLQOD_clean_sbu_1, # of connection points: 6
#     Node 2, Type 0, BuildingBlock: VOLQOD_clean_sbu_1, # of connection points: 6
#     Node 3, Type 0, BuildingBlock: VOLQOD_clean_sbu_1, # of connection points: 6
#     Node 4, Type 0, BuildingBlock: VOLQOD_clean_sbu_1, # of connection points: 6
#     Node 5, Type 0, BuildingBlock: VOLQOD_clean_sbu_1, # of connection points: 6
#     Edge 6, Type (0, 0), BuildingBlock: ZUJKAS_clean_linker_0, # of connection points: 2
#     Edge 7, Type (0, 0), BuildingBlock: ZUJKAS_clean_linker_0, # of connection points: 2
#     Edge 8, Type (0, 0), BuildingBlock: ZUJKAS_clean_linker_0, # of connection points: 2
#     Edge 9, Type (0, 0), BuildingBlock: ZUJKAS_clean_linker_0, # of connection points: 2
#     Edge 10, Type (0, 0), BuildingBlock: ZUJKAS_clean_linker_0, # of connection points: 2
#     Edge 11, Type (0, 0), BuildingBlock: ZUJKAS_clean_linker_0, # of connection points: 2
#     Edge 12, Type (0, 0), BuildingBlock: ZUJKAS_clean_linker_0, # of connection points: 2
#     Edge 13, Type (0, 0), BuildingBlock: ZUJKAS_clean_linker_0, # of connection points: 2
#     Edge 14, Type (0, 0), BuildingBlock: ZUJKAS_clean_linker_0, # of connection points: 2
#     Edge 15, Type (0, 0), BuildingBlock: ZUJKAS_clean_linker_0, # of connection points: 2
#     Edge 16, Type (0, 0), BuildingBlock: ZUJKAS_clean_linker_0, # of connection points: 2
#     Edge 17, Type (0, 0), BuildingBlock: ZUJKAS_clean_linker_0, # of connection points: 2
#     Edge 18, Type (0, 0), BuildingBlock: ZUJKAS_clean_linker_0, # of connection points: 2
#     Edge 19, Type (0, 0), BuildingBlock: ZUJKAS_clean_linker_0, # of connection points: 2
#     Edge 20, Type (0, 0), BuildingBlock: ZUJKAS_clean_linker_0, # of connection points: 2
#     Edge 21, Type (0, 0), BuildingBlock: ZUJKAS_clean_linker_0, # of connection points: 2
#     Edge 22, Type (0, 0), BuildingBlock: ZUJKAS_clean_linker_0, # of connection points: 2
#     Edge 23, Type (0, 0), BuildingBlock: ZUJKAS_clean_linker_0, # of connection points: 2
# Relax obj value: 0.814
# Max RMSD: 0.323
# Mean RMSD: 0.323
data_MOF--net-rkf--node1-VOLQOD_clean_sbu_1--edge1-ZUJKAS_clean_linker_0
_symmetry_space_group_name_H-M    P1
_symmetry_Int_Tables_number       1
_symmetry_cell_setting            triclinic
loop_
_symmetry_equiv_pos_as_xyz
'x, y, z'
_cell_length_a     35.775977
_cell_length_b     35.673
_cell_length_c     47.319473
_cell_angle_alpha  90.087365
_cell_angle_beta   89.927772
_cell_angle_gamma 120.03688
loop_
_atom_site_label
_atom_site_type_symbol
_atom_site_fract_x
_atom_site_fract_y
_atom_site_fract_z
_atom_type_partial_charge
O0 O 0.21522 0.0943 0.08222 0.0
Zn1 Zn 0.23758 0.05995 0.06264 0.0
O2 O 0.29767 0.10025 0.06095 0.0
Zn3 Zn 0.31689 0.08792 0.02648 0.0
Zn4 Zn 0.30675 0.15908 0.05938 0.0
Zn5 Zn 0.32397 0.08862 0.09221 0.0
O6 O 0.37032 0.0856 0.03254 0.0
O7 O 0.36214 0.06527 0.07765 0.0
O8 O 0.21953 0.04329 0.0216 0.0
O9 O 0.27205 0.02945 0.01392 0.0
O10 O 0.32157 0.12899 0.99525 0.0
O11 O 0.31884 0.18099 0.01923 0.0
O12 O 0.35641 0.19606 0.08507 0.0
O13 O 0.2234 0.01016 0.08848 0.0
O14 O 0.36628 0.14728 0.10869 0.0
O15 O 0.27621 0.04542 0.11964 0.0
C16 C 0.21568 0.12508 0.06871 0.0
C17 C 0.38106 0.07119 0.05376 0.0
C18 C 0.32132 0.16459 0.99586 0.0
C19 C 0.23757 0.02781 0.00582 0.0
C20 C 0.37676 0.18644 0.10315 0.0
C21 C 0.23882 0.01363 0.11325 0.0
O22 O 0.25149 0.16044 0.06755 0.0
O23 O 0.31811 0.18322 0.30219 0.0
Zn24 Zn 0.33284 0.23566 0.32635 0.0
O25 O 0.28597 0.24781 0.32615 0.0
Zn26 Zn 0.2951 0.29015 0.29789 0.0
Zn27 Zn 0.23321 0.19552 0.32071 0.0
Zn28 Zn 0.28276 0.26859 0.36281 0.0
O29 O 0.31136 0.34753 0.31685 0.0
O30 O 0.31514 0.33365 0.36227 0.0
O31 O 0.38492 0.28673 0.30954 0.0
O32 O 0.35104 0.30562 0.27793 0.0
O33 O 0.24256 0.26686 0.2706 0.0
O34 O 0.1981 0.20302 0.2903 0.0
O35 O 0.20243 0.17691 0.3583 0.0
O36 O 0.34168 0.21991 0.36604 0.0
O37 O 0.22097 0.24189 0.37515 0.0
O38 O 0.30752 0.24559 0.39164 0.0
C39 C 0.28057 0.15091 0.29823 0.0
C40 C 0.32287 0.36048 0.34223 0.0
C41 C 0.20618 0.23139 0.27123 0.0
C42 C 0.38552 0.30806 0.28774 0.0
C43 C 0.19867 0.20073 0.3769 0.0
C44 C 0.32858 0.22559 0.38988 0.0
O45 O 0.24656 0.151 0.30611 0.0
O46 O 0.0225 0.15599 0.7223 0.0
Zn47 Zn 0.07578 0.20789 0.70715 0.0
O48 O 0.06029 0.25183 0.69927 0.0
Zn49 Zn 0.08142 0.27648 0.66231 0.0
Zn50 Zn 0.99713 0.2275 0.69882 0.0
Zn51 Zn 0.08691 0.2959 0.72822 0.0
O52 O 0.10809 0.3423 0.66402 0.0
O53 O 0.12061 0.35446 0.71013 0.0
O54 O 0.10027 0.19623 0.6718 0.0
O55 O 0.12317 0.25812 0.64844 0.0
O56 O 0.03293 0.2493 0.63326 0.0
O57 O 0.97318 0.21697 0.65895 0.0
O58 O 0.98076 0.26402 0.72278 0.0
O59 O 0.1198 0.22542 0.73784 0.0
O60 O 0.04 0.29932 0.74915 0.0
O61 O 0.12432 0.28474 0.75619 0.0
C62 C 0.98615 0.1446 0.71106 0.0
C63 C 0.12343 0.36837 0.68497 0.0
C64 C 0.99193 0.22615 0.63496 0.0
C65 C 0.12168 0.22184 0.65166 0.0
C66 C 0.00103 0.28867 0.74359 0.0
C67 C 0.13477 0.25534 0.75631 0.0
O68 O 0.96948 0.16809 0.71606 0.0
O69 O 0.90824 0.00589 0.95322 0.0
Zn70 Zn 0.88356 0.03413 0.97737 0.0
O71 O 0.82616 0.98979 0.9842 0.0
Zn72 Zn 0.78974 0.99184 0.95609 0.0
Zn73 Zn 0.82025 0.93314 0.98171 0.0
Zn74 Zn 0.81015 0.00151 0.01936 0.0
O75 O 0.73326 0.9785 0.97452 0.0
O76 O 0.7646 0.01732 0.01331 0.0
O77 O 0.88327 0.08483 0.95797 0.0
O78 O 0.81473 0.05293 0.94431 0.0
O79 O 0.79039 0.95595 0.92241 0.0
O80 O 0.79054 0.90231 0.94583 0.0
O81 O 0.78831 0.89626 0.01583 0.0
O82 O 0.91628 0.05532 0.01463 0.0
O83 O 0.77918 0.94549 0.03912 0.0
O84 O 0.86231 0.04389 0.0433 0.0
C85 C 0.90515 0.96895 0.95665 0.0
C86 C 0.73214 0.99851 0.99674 0.0
C87 C 0.78964 0.91976 0.92259 0.0
C88 C 0.85178 0.08649 0.94665 0.0
C89 C 0.77229 0.90711 0.03621 0.0
C90 C 0.90267 0.05943 0.03876 0.0
O91 O 0.87898 0.94136 0.97445 0.0
O92 O 0.89841 0.93496 0.33823 0.0
Zn93 Zn 0.83877 0.89997 0.35421 0.0
O94 O 0.83427 0.84549 0.36326 0.0
Zn95 Zn 0.80916 0.80509 0.33299 0.0
Zn96 Zn 0.89132 0.85556 0.36963 0.0
Zn97 Zn 0.8001 0.82295 0.39623 0.0
O98 O 0.75967 0.74871 0.34811 0.0
O99 O 0.74048 0.77614 0.38409 0.0
O100 O 0.79369 0.89138 0.32488 0.0
O101 O 0.77817 0.82623 0.3095 0.0
O102 O 0.85564 0.80321 0.30765 0.0
O103 O 0.91257 0.83868 0.33556 0.0
O104 O 0.89168 0.81996 0.40243 0.0
O105 O 0.83322 0.92786 0.38984 0.0
O106 O 0.8242 0.79195 0.41802 0.0
O107 O 0.80387 0.87294 0.42025 0.0
C108 C 0.93323 0.94056 0.34948 0.0
C109 C 0.73161 0.74586 0.36617 0.0
C110 C 0.89606 0.81941 0.3124 0.0
C111 C 0.77278 0.85882 0.30862 0.0
C112 C 0.86083 0.79414 0.4185 0.0
C113 C 0.81899 0.91306 0.41449 0.0
O114 O 0.93171 0.91953 0.37167 0.0
O115 O 0.03807 0.86751 0.63209 0.0
Zn116 Zn 0.04775 0.82755 0.65688 0.0
O117 O 0.10822 0.85332 0.66435 0.0
Zn118 Zn 0.13351 0.83271 0.63678 0.0
Zn119 Zn 0.13426 0.91505 0.66247 0.0
Zn120 Zn 0.11365 0.83638 0.7018 0.0
O121 O 0.15889 0.80065 0.65678 0.0
O122 O 0.12716 0.78723 0.6991 0.0
O123 O 0.02672 0.77125 0.63673 0.0
O124 O 0.08632 0.78589 0.6131 0.0
O125 O 0.17661 0.88198 0.61124 0.0
O126 O 0.18129 0.93912 0.63345 0.0
O127 O 0.16027 0.94243 0.70015 0.0
O128 O 0.01439 0.81997 0.69282 0.0
O129 O 0.16196 0.88752 0.7212 0.0
O130 O 0.06036 0.82353 0.72558 0.0
C131 C 0.05698 0.90869 0.63282 0.0
C132 C 0.14854 0.78009 0.68021 0.0
C133 C 0.19299 0.92294 0.61371 0.0
C134 C 0.04607 0.76165 0.61793 0.0
C135 C 0.17297 0.92746 0.72012 0.0
C136 C 0.02403 0.8196 0.71868 0.0
O137 O 0.09133 0.93093 0.64727 0.0
H138 H 0.94542 0.92886 0.97845 0.0
H139 H 0.01462 0.9412 0.96368 0.0
H140 H 0.0038 0.99879 0.88579 0.0
H141 H 0.93532 0.99009 0.90265 0.0
H142 H 0.07404 0.94833 0.93607 0.0
H143 H 0.09891 0.10695 0.90289 0.0
H144 H 0.04332 0.07054 0.91091 0.0
H145 H 0.0693 0.0586 0.88214 0.0
C146 C 0.95741 0.94333 0.9579 0.0
C147 C 0.937 0.96126 0.94256 0.0
C148 C 0.99736 0.95035 0.94904 0.0
C149 C 0.01723 0.97523 0.92453 0.0
C150 C 0.99164 0.98369 0.90606 0.0
H151 H 0.23438 0.16395 0.01616 0.0
H152 H 0.19746 0.13006 0.97209 0.0
C153 C 0.9522 0.97817 0.9155 0.0
C154 C 0.06542 0.00145 0.92397 0.0
H155 H 0.12805 0.1051 0.94726 0.0
C156 C 0.08663 0.98293 0.93808 0.0
C157 C 0.08586 0.04739 0.92392 0.0
C158 C 0.07366 0.07217 0.90378 0.0
C159 C 0.11419 0.00496 0.96068 0.0
C160 C 0.12676 0.04908 0.96541 0.0
C161 C 0.11613 0.07067 0.94506 0.0
C162 C 0.14685 0.07214 0.99213 0.0
C163 C 0.12445 0.9784 0.98055 0.0
C164 C 0.12819 0.05317 0.01816 0.0
C165 C 0.14912 0.07248 0.04334 0.0
C166 C 0.18868 0.1116 0.04299 0.0
C167 C 0.20449 0.1333 0.01714 0.0
C168 C 0.18349 0.11379 0.99189 0.0
H169 H 0.09454 0.95516 0.99192 0.0
H170 H 0.13529 0.95891 0.96838 0.0
H171 H 0.14911 0.99802 0.99636 0.0
H172 H 0.09829 0.02244 0.01899 0.0
H173 H 0.13556 0.05561 0.06304 0.0
H174 H 0.01327 0.95518 0.36438 0.0
H175 H 0.07331 0.97142 0.33274 0.0
H176 H 0.00091 0.98008 0.26261 0.0
H177 H 0.94157 0.96502 0.29406 0.0
H178 H 0.07694 0.92587 0.28962 0.0
H179 H 0.10867 0.08419 0.24601 0.0
H180 H 0.07332 0.06045 0.27592 0.0
H181 H 0.05598 0.03871 0.2409 0.0
C182 C 0.01052 0.96144 0.34231 0.0
C183 C 0.97261 0.95889 0.33183 0.0
C184 C 0.04465 0.97014 0.32412 0.0
C185 C 0.04165 0.97637 0.29506 0.0
C186 C 0.00443 0.97545 0.28477 0.0
H187 H 0.28124 0.1374 0.24173 0.0
H188 H 0.22586 0.06924 0.22129 0.0
C189 C 0.97042 0.96711 0.30297 0.0
C190 C 0.07814 0.98421 0.27626 0.0
H191 H 0.16048 0.06554 0.23984 0.0
C192 C 0.09474 0.95592 0.27807 0.0
C193 C 0.10049 0.02223 0.25982 0.0
C194 C 0.08388 0.05326 0.25555 0.0
C195 C 0.13586 0.96775 0.2676 0.0
C196 C 0.16165 0.00969 0.25634 0.0
C197 C 0.14174 0.03405 0.24965 0.0
C198 C 0.20923 0.03453 0.26103 0.0
C199 C 0.1527 0.93685 0.271 0.0
C200 C 0.22377 0.03539 0.28881 0.0
C201 C 0.25636 0.074 0.3002 0.0
C202 C 0.27433 0.1118 0.28398 0.0
C203 C 0.26736 0.10851 0.2547 0.0
C204 C 0.23538 0.06942 0.24305 0.0
H205 H 0.1608 0.93576 0.29349 0.0
H206 H 0.12725 0.90354 0.26528 0.0
H207 H 0.18169 0.94631 0.25771 0.0
H208 H 0.20513 0.00937 0.30347 0.0
H209 H 0.26161 0.07587 0.32285 0.0
H210 H 0.0802 0.99366 0.63651 0.0
H211 H 0.0457 0.02967 0.61455 0.0
H212 H 0.95884 0.91229 0.56968 0.0
H213 H 0.99258 0.87517 0.59278 0.0
H214 H 0.02724 0.04766 0.56109 0.0
H215 H 0.87279 0.92964 0.61287 0.0
H216 H 0.91942 0.92503 0.62118 0.0
H217 H 0.89751 0.9135 0.58595 0.0
C218 C 0.05403 0.97543 0.62181 0.0
C219 C 0.03846 0.93127 0.61698 0.0
C220 C 0.03452 0.99624 0.60892 0.0
C221 C -0.00082 0.97362 0.59059 0.0
C222 C 0.98542 0.93023 0.58411 0.0
H223 H 0.91722 0.1212 0.67528 0.0
H224 H 0.90447 0.08408 0.62937 0.0
C225 C 0.0047 0.90907 0.59739 0.0
C226 C 0.97399 0.99477 0.58279 0.0
H227 H 0.89875 0.00377 0.62141 0.0
C228 C 0.99771 0.03759 0.5729 0.0
C229 C 0.93399 0.98137 0.59644 0.0
C230 C 0.9041 0.93482 0.60458 0.0
C231 C 0.98969 0.06935 0.58394 0.0
C232 C 0.95655 0.05705 0.60416 0.0
C233 C 0.92551 0.01318 0.60692 0.0
C234 C 0.96486 0.08409 0.62958 0.0
C235 C 0.02153 0.11634 0.57827 0.0
C236 C 0.00187 0.0942 0.64539 0.0
C237 C 0.00834 0.11341 0.67175 0.0
C238 C 0.97854 0.12423 0.68282 0.0
C239 C 0.94127 0.11411 0.66702 0.0
C240 C 0.93413 0.09345 0.64072 0.0
H241 H 0.02909 0.12149 0.55537 0.0
H242 H 0.00908 0.13771 0.58535 0.0
H243 H 0.05197 0.12575 0.5897 0.0
H244 H 0.02501 0.08527 0.63791 0.0
H245 H 0.03654 0.11905 0.68362 0.0
H246 H 0.32138 0.13764 0.94137 0.0
H247 H 0.29818 0.15917 0.89877 0.0
H248 H 0.28238 0.25272 0.94728 0.0
H249 H 0.3062 0.23214 0.98969 0.0
H250 H 0.21862 0.15043 0.89172 0.0
H251 H 0.34304 0.32287 0.87799 0.0
H252 H 0.35093 0.28683 0.90074 0.0
H253 H 0.32005 0.311 0.91279 0.0
C254 C 0.31418 0.16368 0.94285 0.0
C255 C 0.31585 0.18317 0.96907 0.0
C256 C 0.30068 0.17581 0.91846 0.0
C257 C 0.28886 0.20789 0.91969 0.0
C258 C 0.29219 0.22859 0.94557 0.0
H259 H 0.15629 0.29769 0.80768 0.0
H260 H 0.19455 0.28663 0.84698 0.0
C261 C 0.3058 0.21663 0.96991 0.0
C262 C 0.2694 0.21696 0.89466 0.0
H263 H 0.27756 0.29807 0.85199 0.0
C264 C 0.2318 0.18263 0.88283 0.0
C265 C 0.28629 0.25906 0.88323 0.0
C266 C 0.32753 0.29697 0.89416 0.0
C267 C 0.21022 0.18933 0.86031 0.0
C268 C 0.22697 0.23151 0.84896 0.0
C269 C 0.26461 0.26583 0.86074 0.0
C270 C 0.2061 0.24039 0.82464 0.0
C271 C 0.16898 0.1513 0.84942 0.0
C272 C 0.20121 0.21934 0.7987 0.0
C273 C 0.17933 0.22546 0.77635 0.0
C274 C 0.16223 0.25328 0.77919 0.0
C275 C 0.16901 0.27606 0.80474 0.0
C276 C 0.19076 0.26965 0.82725 0.0
H277 H 0.15512 0.124 0.86468 0.0
H278 H 0.14447 0.16089 0.84486 0.0
H279 H 0.17583 0.13934 0.82952 0.0
H280 H 0.2139 0.19767 0.79582 0.0
H281 H 0.17525 0.20775 0.7569 0.0
H282 H 0.20686 0.28171 0.22627 0.0
H283 H 0.15439 0.25966 0.18747 0.0
H284 H 0.08141 0.13236 0.22418 0.0
H285 H 0.13137 0.155 0.26358 0.0
H286 H 0.13303 0.20538 0.14749 0.0
H287 H 0.98382 0.14887 0.20897 0.0
H288 H 0.03623 0.17788 0.22532 0.0
H289 H 0.01 0.11995 0.22029 0.0
C290 C 0.17912 0.24931 0.22634 0.0
C291 C 0.17348 0.22026 0.24826 0.0
C292 C 0.14915 0.23657 0.20401 0.0
C293 C 0.113 0.19438 0.20291 0.0
C294 C 0.10776 0.16549 0.22473 0.0
H295 H 0.97973 0.06261 0.04769 0.0
H296 H 0.03027 0.0967 0.08676 0.0
C297 C 0.13696 0.17843 0.24723 0.0
C298 C 0.082 0.17953 0.17844 0.0
H299 H 0.97468 0.11951 0.16185 0.0
C300 C 0.09837 0.18717 0.1507 0.0
C301 C 0.03649 0.15646 0.18216 0.0
C302 C 0.01571 0.15082 0.21081 0.0
C303 C 0.07097 0.17134 0.12693 0.0
C304 C 0.02563 0.14512 0.13079 0.0
C305 C 0.00925 0.13876 0.15851 0.0
C306 C 0.99457 0.12396 0.10666 0.0
C307 C 0.09126 0.18399 0.09799 0.0
C308 C 0.95599 0.12548 0.10515 0.0
C309 C 0.92606 0.10434 0.08333 0.0
C310 C 0.93426 0.08183 0.06205 0.0
C311 C 0.97275 0.08031 0.06345 0.0
C312 C 0.00204 0.10033 0.08573 0.0
H313 H 0.12179 0.21565 0.09862 0.0
H314 H 0.09941 0.15945 0.09048 0.0
H315 H 0.06925 0.18632 0.08249 0.0
H316 H 0.94893 0.14313 0.1209 0.0
H317 H 0.89672 0.10613 0.0829 0.0
H318 H 0.02148 0.23156 0.58068 0.0
H319 H 0.98353 0.18305 0.5413 0.0
H320 H 0.8677 0.11854 0.59161 0.0
H321 H 0.905 0.16776 0.63081 0.0
H322 H 0.9551 0.09965 0.54332 0.0
H323 H 0.81624 0.12012 0.51647 0.0
H324 H 0.86069 0.15875 0.5379 0.0
H325 H 0.81817 0.10986 0.5534 0.0
C326 C 0.98753 0.20804 0.58315 0.0
C327 C 0.96654 0.20353 0.60916 0.0
C328 C 0.96582 0.1801 0.56054 0.0
C329 C 0.92258 0.14694 0.56329 0.0
C330 C 0.90072 0.1442 0.58858 0.0
H331 H 0.81526 0.901 0.47207 0.0
H332 H 0.83586 0.95636 0.50891 0.0
C333 C 0.92232 0.17239 0.61115 0.0
C334 C 0.90251 0.11222 0.5413 0.0
H335 H 0.81445 0.0564 0.4984 0.0
C336 C 0.9243 0.09012 0.53378 0.0
C337 C 0.86243 0.10009 0.52818 0.0
C338 C 0.8382 0.12372 0.53417 0.0
C339 C 0.90715 0.0559 0.51426 0.0
C340 C 0.86676 0.04316 0.50158 0.0
C341 C 0.84508 0.0657 0.5085 0.0
C342 C 0.84824 0.00817 0.47992 0.0
C343 C 0.9328 0.03404 0.50708 0.0
C344 C 0.84697 0.01854 0.4515 0.0
C345 C 0.83542 0.98706 0.4304 0.0
C346 C 0.82449 0.94433 0.43727 0.0
C347 C 0.82338 0.93346 0.46597 0.0
C348 C 0.83532 0.96513 0.48707 0.0
H349 H 0.96691 0.05337 0.51416 0.0
H350 H 0.91803 0.0021 0.51778 0.0
H351 H 0.93241 0.02848 0.48397 0.0
H352 H 0.8568 0.0515 0.44549 0.0
H353 H 0.83647 0.99664 0.40857 0.0
H354 H 0.83589 0.96642 0.87674 0.0
H355 H 0.86945 0.94372 0.8408 0.0
H356 H 0.80194 0.81356 0.87372 0.0
H357 H 0.76989 0.83674 0.91062 0.0
H358 H 0.8823 0.83697 0.86801 0.0
H359 H 0.83327 0.88025 0.76829 0.0
H360 H 0.8596 0.92618 0.7913 0.0
H361 H 0.80892 0.88006 0.80172 0.0
C362 C 0.82689 0.93258 0.87571 0.0
C363 C 0.79966 0.90328 0.8964 0.0
C364 C 0.84628 0.91957 0.85507 0.0
C365 C 0.83806 0.87666 0.85412 0.0
C366 C 0.80898 0.84684 0.87386 0.0
H367 H 0.93726 0.78958 0.71454 0.0
H368 H 0.89095 0.79923 0.74831 0.0
C369 C 0.79023 0.86001 0.89482 0.0
C370 C 0.86248 0.86379 0.83433 0.0
H371 H 0.89366 0.86866 0.76544 0.0
C372 C 0.88429 0.84349 0.84552 0.0
C373 C 0.86501 0.87168 0.80485 0.0
C374 C 0.84006 0.89031 0.7908 0.0
C375 C 0.90887 0.8316 0.82833 0.0
C376 C 0.91332 0.84164 0.7991 0.0
C377 C 0.89087 0.86123 0.78783 0.0
C378 C 0.94091 0.83226 0.77975 0.0
C379 C 0.92897 0.80755 0.84176 0.0
C380 C 0.98453 0.84683 0.78609 0.0
C381 C 0.01085 0.84031 0.76704 0.0
C382 C 0.99456 0.82008 0.7408 0.0
C383 C 0.95085 0.80507 0.7346 0.0
C384 C 0.92435 0.81085 0.75388 0.0
H385 H 0.91074 0.78954 0.86085 0.0
H386 H 0.93025 0.78422 0.82679 0.0
H387 H 0.96234 0.83115 0.84854 0.0
H388 H -0.00123 0.86465 0.80538 0.0
H389 H 0.04456 0.8531 0.77227 0.0
H390 H 0.9762 0.82952 0.31928 0.0
H391 H 0.03252 0.85059 0.28374 0.0
H392 H 0.94279 0.8385 0.21875 0.0
H393 H 0.88578 0.81698 0.25448 0.0
H394 H 0.05051 0.82295 0.23663 0.0
H395 H 0.03149 0.96412 0.21193 0.0
H396 H 0.99722 0.92342 0.23704 0.0
H397 H 0.98637 0.91421 0.19989 0.0
C398 C 0.96807 0.83052 0.29735 0.0
C399 C 0.92646 0.82203 0.28984 0.0
C400 C 0.00054 0.84288 0.27698 0.0
C401 C 0.99269 0.84809 0.24861 0.0
C402 C 0.95018 0.83606 0.24061 0.0
H403 H 0.16869 0.93319 0.10557 0.0
H404 H 0.1116 0.89037 0.13965 0.0
C405 C 0.91739 0.82325 0.26104 0.0
C406 C 0.02979 0.86912 0.22829 0.0
H407 H 0.08479 0.95773 0.1855 0.0
C408 C 0.05773 0.85223 0.22532 0.0
C409 C 0.03995 0.90785 0.21368 0.0
C410 C 0.0124 0.92872 0.21596 0.0
C411 C 0.09499 0.87275 0.20821 0.0
C412 C 0.10491 0.9113 0.19383 0.0
C413 C 0.07722 0.92824 0.19671 0.0
C414 C 0.14288 0.93381 0.1747 0.0
C415 C 0.1242 0.85378 0.20592 0.0
C416 C 0.18012 0.97195 0.18326 0.0
C417 C 0.21323 0.99648 0.16384 0.0
C418 C 0.20932 0.98358 0.13535 0.0
C419 C 0.17284 0.94417 0.1273 0.0
C420 C 0.14008 0.91957 0.14675 0.0
H421 H 0.11379 0.8253 0.21994 0.0
H422 H 0.1245 0.84371 0.18375 0.0
H423 H 0.15777 0.87874 0.21146 0.0
H424 H 0.18287 0.98353 0.20471 0.0
H425 H 0.24055 0.0268 0.17075 0.0
H426 H 0.25069 0.00917 0.61883 0.0
H427 H 0.28523 0.06151 0.58062 0.0
H428 H 0.23285 0.95777 0.51967 0.0
H429 H 0.19831 0.90484 0.55792 0.0
H430 H 0.34254 0.06438 0.52904 0.0
H431 H 0.18046 0.04402 0.50667 0.0
H432 H 0.19374 0.03032 0.54048 0.0
H433 H 0.18448 0.99589 0.51054 0.0
C434 C 0.24741 0.99729 0.59737 0.0
C435 C 0.22155 0.95281 0.5914 0.0
C436 C 0.26722 0.0273 0.57557 0.0
C437 C 0.26128 0.01351 0.54737 0.0
C438 C 0.23775 0.96898 0.54136 0.0
H439 H 0.35617 0.16636 0.39305 0.0
H440 H 0.34477 0.11706 0.4322 0.0
C441 C 0.21825 0.93878 0.56324 0.0
C442 C 0.27571 0.04604 0.52437 0.0
H443 H 0.23822 0.09357 0.47862 0.0
C444 C 0.31982 0.07065 0.5178 0.0
C445 C 0.24602 0.05465 0.51025 0.0
C446 C 0.19849 0.03014 0.51729 0.0
C447 C 0.33498 0.10352 0.4972 0.0
C448 C 0.30514 0.11171 0.4828 0.0
C449 C 0.26107 0.08719 0.48959 0.0
C450 C 0.31843 0.14555 0.46062 0.0
C451 C 0.38281 0.1299 0.49152 0.0
C452 C 0.30813 0.17847 0.46368 0.0
C453 C 0.31433 0.20656 0.44131 0.0
C454 C 0.33097 0.20231 0.41526 0.0
C455 C 0.34362 0.17086 0.41282 0.0
C456 C 0.33718 0.14261 0.43524 0.0
H457 H 0.402 0.12711 0.50898 0.0
H458 H 0.39038 0.11803 0.47186 0.0
H459 H 0.39305 0.1646 0.48852 0.0
H460 H 0.29379 0.18142 0.48312 0.0
H461 H 0.30412 0.23025 0.44404 0.0
H462 H 0.41001 0.03313 0.09175 0.0
H463 H 0.46818 0.0165 0.08451 0.0
H464 H 0.48844 0.0689 0.00024 0.0
H465 H 0.431 0.08569 0.00707 0.0
H466 H 0.47572 0.96406 0.03711 0.0
H467 H 0.60827 0.13551 0.04184 0.0
H468 H 0.55525 0.11769 0.05634 0.0
H469 H 0.56411 0.12522 0.0189 0.0
C470 C 0.42692 0.04117 0.07172 0.0
C471 C 0.41598 0.06091 0.05006 0.0
C472 C 0.45993 0.03151 0.06761 0.0
C473 C 0.48256 0.04184 0.04194 0.0
C474 C 0.47148 0.06111 0.02027 0.0
H475 H 0.65868 0.97137 0.96492 0.0
H476 H 0.59565 0.97826 0.977 0.0
C477 C 0.43857 0.0706 0.02427 0.0
C478 C 0.51827 0.03314 0.03754 0.0
H479 H 0.6266 0.08395 0.02534 0.0
C480 C 0.50881 0.99012 0.03476 0.0
C481 C 0.56122 0.06737 0.0346 0.0
C482 C 0.57307 0.11408 0.03829 0.0
C483 C 0.54142 0.98046 0.02846 0.0
C484 C 0.58417 0.01481 0.02466 0.0
C485 C 0.59363 0.05775 0.02804 0.0
C486 C 0.62016 0.00727 0.01796 0.0
C487 C 0.53008 0.93376 0.02614 0.0
C488 C 0.65465 0.02159 0.0369 0.0
C489 C 0.69059 0.01808 0.03003 0.0
C490 C 0.69288 0.00029 0.00396 0.0
C491 C 0.65786 0.98517 0.98515 0.0
C492 C 0.62177 0.98882 0.99208 0.0
H493 H 0.49802 0.91148 0.0356 0.0
H494 H 0.52907 0.92514 0.0035 0.0
H495 H 0.55485 0.92863 0.03671 0.0
H496 H 0.65397 0.03602 0.05693 0.0
H497 H 0.71679 0.02978 0.04515 0.0
H498 H 0.35943 0.42622 0.30332 0.0
H499 H 0.4247 0.49647 0.3099 0.0
H500 H 0.42351 0.47072 0.39893 0.0
H501 H 0.3584 0.40028 0.39267 0.0
H502 H 0.45243 0.57159 0.34714 0.0
H503 H 0.53618 0.47827 0.36692 0.0
H504 H 0.48273 0.45394 0.35187 0.0
H505 H 0.49033 0.46468 0.38914 0.0
C506 C 0.37218 0.4359 0.32448 0.0
C507 C 0.35394 0.40712 0.34738 0.0
C508 C 0.40964 0.47611 0.32817 0.0
C509 C 0.42944 0.48827 0.35477 0.0
C510 C 0.40909 0.46154 0.37813 0.0
H511 H 0.6625 0.72973 0.39965 0.0
H512 H 0.5889 0.66823 0.39712 0.0
C513 C 0.37167 0.42134 0.3745 0.0
C514 C 0.47347 0.52635 0.35746 0.0
H515 H 0.57817 0.55426 0.37048 0.0
C516 C 0.47994 0.56793 0.35237 0.0
C517 C 0.50938 0.5213 0.36373 0.0
C518 C 0.50462 0.47718 0.36801 0.0
C519 C 0.52144 0.60472 0.35373 0.0
C520 C 0.5572 0.5997 0.36062 0.0
C521 C 0.55068 0.55805 0.36544 0.0
C522 C 0.60188 0.63706 0.36229 0.0
C523 C 0.52685 0.64853 0.34715 0.0
C524 C 0.63397 0.63936 0.34408 0.0
C525 C 0.6762 0.67434 0.34556 0.0
C526 C 0.6873 0.70765 0.36545 0.0
C527 C 0.65516 0.70479 0.38401 0.0
C528 C 0.61292 0.66981 0.38246 0.0
H529 H 0.49836 0.64576 0.33585 0.0
H530 H 0.53074 0.66631 0.36719 0.0
H531 H 0.55609 0.668 0.33405 0.0
H532 H 0.6262 0.61425 0.32848 0.0
H533 H 0.70002 0.67538 0.33094 0.0
H534 H 0.16775 0.43359 0.72297 0.0
H535 H 0.18057 0.50744 0.72084 0.0
H536 H 0.12749 0.48393 0.63669 0.0
H537 H 0.11398 0.40948 0.6387 0.0
H538 H 0.22555 0.57875 0.68366 0.0
H539 H 0.04828 0.51437 0.68326 0.0
H540 H 0.0716 0.48099 0.69129 0.0
H541 H 0.06812 0.49486 0.65529 0.0
C542 C 0.15943 0.44422 0.70376 0.0
C543 C 0.13931 0.41532 0.68111 0.0
C544 C 0.16685 0.48655 0.7026 0.0
C545 C 0.15418 0.50089 0.67887 0.0
C546 C 0.13682 0.47321 0.65543 0.0
H547 H 0.19672 0.75869 0.64591 0.0
H548 H 0.20147 0.69287 0.64716 0.0
C549 C 0.12946 0.43077 0.65652 0.0
C550 C 0.15632 0.54356 0.67968 0.0
H551 H 0.093 0.59019 0.68042 0.0
C552 C 0.19663 0.58134 0.68285 0.0
C553 C 0.11845 0.54675 0.67924 0.0
C554 C 0.07408 0.50714 0.67733 0.0
C555 C 0.20009 0.6223 0.68518 0.0
C556 C 0.16227 0.62552 0.68408 0.0
C557 C 0.12198 0.58768 0.68121 0.0
C558 C 0.16351 0.66777 0.68526 0.0
C559 C 0.24409 0.66165 0.68932 0.0
C560 C 0.14074 0.6758 0.70638 0.0
C561 C 0.13782 0.71352 0.70572 0.0
C562 C 0.15725 0.74373 0.68372 0.0
C563 C 0.18137 0.73626 0.66321 0.0
C564 C 0.18435 0.69865 0.66394 0.0
H565 H 0.26783 0.65278 0.69731 0.0
H566 H 0.25606 0.67835 0.66875 0.0
H567 H 0.24259 0.68481 0.70435 0.0
H568 H 0.12428 0.65231 0.72299 0.0
H569 H 0.11884 0.71804 0.72178 0.0
H570 H 0.39072 0.26586 0.11853 0.0
H571 H 0.45241 0.32184 0.14399 0.0
H572 H 0.51433 0.2444 0.14073 0.0
H573 H 0.45077 0.18686 0.1169 0.0
H574 H 0.5162 0.26368 0.18963 0.0
H575 H 0.57044 0.41897 0.14082 0.0
H576 H 0.51313 0.39455 0.1384 0.0
H577 H 0.54013 0.36974 0.12052 0.0
C578 C 0.41777 0.26111 0.12296 0.0
C579 C 0.41561 0.22176 0.1165 0.0
C580 C 0.45371 0.29364 0.13694 0.0
C581 C 0.48894 0.28811 0.14392 0.0
C582 C 0.48787 0.24974 0.13559 0.0
H583 H 0.4683 0.3365 0.30613 0.0
H584 H 0.5326 0.36222 0.27639 0.0
C585 C 0.45131 0.21665 0.12233 0.0
C586 C 0.52038 0.31701 0.16551 0.0
H587 H 0.54355 0.41393 0.19348 0.0
C588 C 0.52417 0.29727 0.19012 0.0
C589 C 0.53487 0.36186 0.16628 0.0
C590 C 0.53989 0.38738 0.13983 0.0
C591 C 0.52986 0.31746 0.2164 0.0
C592 C 0.53001 0.35723 0.21758 0.0
C593 C 0.53994 0.38189 0.19267 0.0
C594 C 0.49976 0.36053 0.23759 0.0
C595 C 0.52738 0.29226 0.24258 0.0
C596 C 0.46123 0.35584 0.22632 0.0
C597 C 0.42494 0.34221 0.24328 0.0
C598 C 0.42623 0.33242 0.2718 0.0
C599 C 0.46609 0.34238 0.28391 0.0
C600 C 0.50289 0.35712 0.26694 0.0
H601 H 0.53392 0.26557 0.2378 0.0
H602 H 0.55136 0.3139 0.25842 0.0
H603 H 0.49458 0.27775 0.25194 0.0
H604 H 0.4576 0.35839 0.20379 0.0
H605 H 0.39499 0.33574 0.2334 0.0
H606 H 0.19144 0.12813 0.40112 0.0
H607 H 0.17746 0.10803 0.4511 0.0
H608 H 0.1496 0.21092 0.46535 0.0
H609 H 0.16468 0.23208 0.41559 0.0
H610 H 0.23133 0.18914 0.49501 0.0
H611 H 0.05374 0.08506 0.50791 0.0
H612 H 0.08174 0.08556 0.4759 0.0
H613 H 0.07211 0.12935 0.4833 0.0
C614 C 0.1808 0.14551 0.41465 0.0
C615 C 0.17898 0.18166 0.40445 0.0
C616 C 0.17311 0.13409 0.4432 0.0
C617 C 0.16241 0.15794 0.46169 0.0
C618 C 0.15751 0.19199 0.45119 0.0
H619 H 0.17684 0.27032 0.60965 0.0
H620 H 0.1941 0.24392 0.5671 0.0
C621 C 0.16601 0.20397 0.42282 0.0
C622 C 0.16199 0.15179 0.4925 0.0
H623 H 0.09435 0.1211 0.549 0.0
C624 C 0.20146 0.17331 0.50695 0.0
C625 C 0.12306 0.13053 0.50785 0.0
C626 C 0.08011 0.10595 0.49307 0.0
C627 C 0.2027 0.17779 0.53643 0.0
C628 C 0.16347 0.1608 0.55157 0.0
C629 C 0.12432 0.13498 0.53734 0.0
C630 C 0.16149 0.17673 0.58017 0.0
C631 C 0.2459 0.20265 0.55088 0.0
C632 C 0.13805 0.1479 0.60205 0.0
C633 C 0.12786 0.16302 0.62656 0.0
C634 C 0.14038 0.2071 0.62928 0.0
C635 C 0.16644 0.23616 0.60819 0.0
C636 C 0.17676 0.22112 0.5839 0.0
H637 H 0.27054 0.19776 0.53978 0.0
H638 H 0.25688 0.23776 0.55017 0.0
H639 H 0.24409 0.19275 0.57331 0.0
H640 H 0.12552 0.11345 0.59948 0.0
H641 H 0.10774 0.13975 0.64242 0.0
H642 H 0.92019 0.27932 0.73831 0.0
H643 H 0.8749 0.27861 0.77723 0.0
H644 H 0.98284 0.32042 0.83429 0.0
H645 H 0.0282 0.32419 0.79567 0.0
H646 H 0.85479 0.22002 0.81037 0.0
H647 H 0.91912 0.35756 0.88126 0.0
H648 H 0.93734 0.36457 0.845 0.0
H649 H 0.96573 0.3538 0.87264 0.0
C650 C 0.9346 0.29021 0.75898 0.0
C651 C 0.97729 0.3002 0.76417 0.0
C652 C 0.90875 0.29009 0.78123 0.0
C653 C 0.9249 0.29871 0.80903 0.0
C654 C 0.96916 0.31422 0.81327 0.0
H655 H 0.92644 0.15729 0.92859 0.0
H656 H 0.93199 0.21821 0.9014 0.0
C657 C 0.99519 0.3155 0.79101 0.0
C658 C 0.89522 0.27902 0.83348 0.0
H659 H 0.90303 0.28519 0.90535 0.0
C660 C 0.86384 0.23498 0.83106 0.0
C661 C 0.9055 0.29815 0.86068 0.0
C662 C 0.93347 0.34632 0.86481 0.0
C663 C 0.84907 0.20822 0.85484 0.0
C664 C 0.86574 0.22626 0.88169 0.0
C665 C 0.89147 0.27128 0.88458 0.0
C666 C 0.86412 0.19801 0.90493 0.0
C667 C 0.82004 0.16003 0.85061 0.0
C668 C 0.82458 0.16786 0.91694 0.0
C669 C 0.82122 0.13266 0.93191 0.0
C670 C 0.8575 0.12754 0.9354 0.0
C671 C 0.89796 0.16025 0.92595 0.0
C672 C 0.90118 0.19521 0.91065 0.0
H673 H 0.81202 0.15117 0.82801 0.0
H674 H 0.8358 0.1423 0.85899 0.0
H675 H 0.78939 0.14885 0.86234 0.0
H676 H 0.79577 0.16975 0.91291 0.0
H677 H 0.78974 0.10837 0.93959 0.0
H678 H 0.69719 0.89566 0.05647 0.0
H679 H 0.67078 0.87149 0.10421 0.0
H680 H 0.76109 0.82563 0.11359 0.0
H681 H 0.78851 0.85095 0.06571 0.0
H682 H 0.64464 0.80481 0.1454 0.0
H683 H 0.81234 0.94165 0.15803 0.0
H684 H 0.78591 0.92583 0.12419 0.0
H685 H 0.8089 0.89592 0.13972 0.0
C686 C 0.70996 0.87851 0.06825 0.0
C687 C 0.74556 0.87608 0.05798 0.0
C688 C 0.69469 0.86455 0.09547 0.0
C689 C 0.71499 0.84812 0.11257 0.0
C690 C 0.7456 0.83896 0.10065 0.0
H691 H 0.70984 0.78908 0.28131 0.0
H692 H 0.68167 0.7895 0.23506 0.0
C693 C 0.76112 0.85319 0.07332 0.0
C694 C 0.71254 0.85172 0.14345 0.0
H695 H 0.77454 0.90807 0.19959 0.0
C696 C 0.67291 0.82729 0.1574 0.0
C697 C 0.7489 0.88299 0.15865 0.0
C698 C 0.7913 0.91347 0.1444 0.0
C699 C 0.66946 0.83147 0.18668 0.0
C700 C 0.70683 0.86016 0.20222 0.0
C701 C 0.74573 0.88614 0.18783 0.0
C702 C 0.70917 0.85911 0.23341 0.0
C703 C 0.62593 0.80514 0.20055 0.0
C704 C 0.73227 0.89794 0.2488 0.0
C705 C 0.74994 0.89794 0.27515 0.0
C706 C 0.74421 0.85901 0.28632 0.0
C707 C 0.71575 0.81977 0.27281 0.0
C708 C 0.69878 0.81984 0.24644 0.0
H709 H 0.59981 0.80169 0.18621 0.0
H710 H 0.62013 0.77209 0.20491 0.0
H711 H 0.62375 0.81993 0.2207 0.0
H712 H 0.74041 0.92865 0.23918 0.0
H713 H 0.77125 0.92859 0.28532 0.0
H714 H 0.79772 0.72014 0.44302 0.0
H715 H 0.80692 0.67012 0.47357 0.0
H716 H 0.94521 0.74913 0.46542 0.0
H717 H 0.93637 0.7986 0.43421 0.0
H718 H 0.91303 0.65648 0.46586 0.0
H719 H 0.84753 0.71101 0.55413 0.0
H720 H 0.81454 0.68631 0.52352 0.0
H721 H 0.86172 0.73903 0.52076 0.0
C722 C 0.83012 0.72681 0.44769 0.0
C723 C 0.86644 0.76384 0.43673 0.0
C724 C 0.83522 0.69799 0.46493 0.0
C725 C 0.87668 0.70616 0.47186 0.0
C726 C 0.91289 0.74214 0.4601 0.0
H727 H 0.06354 0.75288 0.56328 0.0
H728 H 0.01061 0.70864 0.52823 0.0
C729 C 0.90784 0.77066 0.44257 0.0
C730 C 0.88346 0.68144 0.49422 0.0
H731 H 0.89141 0.68321 0.56567 0.0
C732 C 0.90727 0.661 0.48778 0.0
C733 C 0.87451 0.68588 0.52272 0.0
C734 C 0.84828 0.70677 0.53091 0.0
C735 C 0.92721 0.65018 0.50924 0.0
C736 C 0.92419 0.66144 0.53746 0.0
C737 C 0.89467 0.6753 0.54402 0.0
C738 C 0.95905 0.67212 0.55832 0.0
C739 C 0.95382 0.62979 0.50122 0.0
C740 C 0.94905 0.66489 0.58725 0.0
C741 C 0.97908 0.69182 0.60736 0.0
C742 C 0.01984 0.72527 0.59879 0.0
C743 C 0.03215 0.72763 0.57043 0.0
C744 C 0.00182 0.70159 0.55028 0.0
H745 H 0.93618 0.6037 0.48542 0.0
H746 H 0.98429 0.65444 0.49108 0.0
H747 H 0.96159 0.61597 0.51981 0.0
H748 H 0.91649 0.64207 0.59405 0.0
H749 H 0.9692 0.68875 0.62929 0.0
H750 H 0.18421 0.00725 0.73373 0.0
H751 H 0.20946 0.04481 0.77906 0.0
H752 H 0.2381 0.94687 0.80707 0.0
H753 H 0.21397 0.90989 0.762 0.0
H754 H 0.16687 0.00567 0.82632 0.0
H755 H 0.33752 0.05289 0.84115 0.0
H756 H 0.31233 0.04064 0.80672 0.0
H757 H 0.30755 0.99783 0.82937 0.0
C758 C 0.19727 0.99456 0.7492 0.0
C759 C 0.19653 0.95526 0.74445 0.0
C760 C 0.21168 0.01607 0.77508 0.0
C761 C 0.22599 0.99885 0.79636 0.0
C762 C 0.22817 0.96137 0.79079 0.0
H763 H 0.23034 0.96351 0.97131 0.0
H764 H 0.2278 0.96254 0.91939 0.0
C765 C 0.21381 0.93991 0.76506 0.0
C766 C 0.2311 0.0147 0.82578 0.0
H767 H 0.29371 0.03377 0.8843 0.0
C768 C 0.19514 0.0132 0.83887 0.0
C769 C 0.2679 0.02431 0.84212 0.0
C770 C 0.30863 0.02946 0.82897 0.0
C771 C 0.19366 0.01754 0.86821 0.0
C772 C 0.22906 0.0236 0.88475 0.0
C773 C 0.26623 0.02818 0.87152 0.0
C774 C 0.22726 0.02277 0.91592 0.0
C775 C 0.15293 0.01186 0.88157 0.0
C776 C 0.22753 0.05675 0.93093 0.0
C777 C 0.22907 0.05725 0.96037 0.0
C778 C 0.22938 0.02345 0.97526 0.0
C779 C 0.22886 0.98929 0.96024 0.0
C780 C 0.22765 0.98888 0.93072 0.0
H781 H 0.12739 0.00523 0.86576 0.0
H782 H 0.14044 0.98444 0.89665 0.0
H783 H 0.15997 0.04147 0.8935 0.0
H784 H 0.22824 0.08365 0.91986 0.0
H785 H 0.23274 0.08529 0.97146 0.0
loop_
_geom_bond_atom_site_label_1
_geom_bond_atom_site_label_2
_geom_bond_distance
_geom_bond_site_symmetry_2
_ccdc_geom_bond_type
O0 Zn1 1.954 . S
O0 C16 1.227 . S
Zn1 O0 1.954 . S
Zn1 O2 1.949 . S
Zn1 O8 1.919 1_544 S
Zn1 O13 1.924 1_545 S
O2 Zn1 1.949 . S
O2 Zn3 1.923 1_554 S
O2 Zn4 1.950 . S
O2 Zn5 1.945 . S
Zn3 O2 1.923 1_556 S
Zn3 O6 1.933 . S
Zn3 O9 1.941 . S
Zn3 O10 1.965 . S
Zn4 O2 1.950 . S
Zn4 O11 1.938 1_554 S
Zn4 O12 1.906 . S
Zn4 O22 1.953 . S
Zn5 O2 1.945 . S
Zn5 O7 1.932 . S
Zn5 O14 1.977 . S
Zn5 O15 1.910 . S
O6 Zn3 1.933 . S
O6 C17 1.226 1_556 S
O7 Zn5 1.932 . S
O7 C17 1.307 . S
O8 Zn1 1.919 1_566 S
O8 C19 1.253 . S
O9 Zn3 1.941 . S
O9 C19 1.283 1_545 S
O10 Zn3 1.965 . S
O10 C18 1.303 . S
O11 Zn4 1.938 1_556 S
O11 C18 1.247 . S
O12 Zn4 1.906 . S
O12 C20 1.304 . S
O13 Zn1 1.924 1_565 S
O13 C21 1.311 . S
O14 Zn5 1.977 . S
O14 C20 1.272 . S
O15 Zn5 1.910 . S
O15 C21 1.231 1_545 S
C16 O0 1.227 . S
C16 O22 1.298 . S
C17 O6 1.226 1_554 S
C17 O7 1.307 . S
C18 O10 1.303 . S
C18 O11 1.247 . S
C19 O8 1.253 . S
C19 O9 1.283 1_565 S
C20 O12 1.304 . S
C20 O14 1.272 . S
C21 O13 1.311 . S
C21 O15 1.231 1_565 S
O22 Zn4 1.953 . S
O22 C16 1.298 . S
O23 Zn24 1.953 . S
O23 C39 1.225 . S
Zn24 O23 1.953 . S
Zn24 O25 1.949 . S
Zn24 O31 1.919 . S
Zn24 O36 1.924 . S
O25 Zn24 1.949 . S
O25 Zn26 1.923 . S
O25 Zn27 1.950 . S
O25 Zn28 1.945 . S
Zn26 O25 1.923 . S
Zn26 O29 1.933 . S
Zn26 O32 1.941 . S
Zn26 O33 1.965 . S
Zn27 O25 1.950 . S
Zn27 O34 1.938 . S
Zn27 O35 1.906 . S
Zn27 O45 1.953 . S
Zn28 O25 1.945 . S
Zn28 O30 1.932 . S
Zn28 O37 1.977 . S
Zn28 O38 1.910 . S
O29 Zn26 1.933 . S
O29 C40 1.226 . S
O30 Zn28 1.932 . S
O30 C40 1.307 . S
O31 Zn24 1.919 . S
O31 C42 1.253 . S
O32 Zn26 1.941 . S
O32 C42 1.283 . S
O33 Zn26 1.965 . S
O33 C41 1.303 . S
O34 Zn27 1.938 . S
O34 C41 1.247 . S
O35 Zn27 1.906 . S
O35 C43 1.304 . S
O36 Zn24 1.924 . S
O36 C44 1.311 . S
O37 Zn28 1.977 . S
O37 C43 1.272 . S
O38 Zn28 1.910 . S
O38 C44 1.231 . S
C39 O23 1.225 . S
C39 O45 1.298 . S
C40 O29 1.226 . S
C40 O30 1.307 . S
C41 O33 1.303 . S
C41 O34 1.247 . S
C42 O31 1.253 . S
C42 O32 1.283 . S
C43 O35 1.304 . S
C43 O37 1.272 . S
C44 O36 1.311 . S
C44 O38 1.231 . S
O45 Zn27 1.953 . S
O45 C39 1.298 . S
O46 Zn47 1.953 . S
O46 C62 1.225 . S
Zn47 O46 1.953 . S
Zn47 O48 1.949 . S
Zn47 O54 1.919 . S
Zn47 O59 1.924 . S
O48 Zn47 1.949 . S
O48 Zn49 1.923 . S
O48 Zn50 1.941 1_455 S
O48 Zn51 1.945 . S
Zn49 O48 1.923 . S
Zn49 O52 1.933 . S
Zn49 O55 1.941 . S
Zn49 O56 1.965 1_455 S
Zn50 O48 1.941 1_655 S
Zn50 O57 1.950 . S
Zn50 O58 1.923 . S
Zn50 O68 1.935 1_655 S
Zn51 O48 1.945 . S
Zn51 O53 1.932 . S
Zn51 O60 1.977 . S
Zn51 O61 1.910 . S
O52 Zn49 1.933 . S
O52 C63 1.226 . S
O53 Zn51 1.932 . S
O53 C63 1.307 . S
O54 Zn47 1.919 . S
O54 C65 1.253 . S
O55 Zn49 1.941 . S
O55 C65 1.283 . S
O56 Zn49 1.965 1_655 S
O56 C64 1.303 . S
O57 Zn50 1.950 . S
O57 C64 1.247 . S
O58 Zn50 1.923 . S
O58 C66 1.304 . S
O59 Zn47 1.924 . S
O59 C67 1.311 . S
O60 Zn51 1.977 . S
O60 C66 1.272 1_455 S
O61 Zn51 1.910 . S
O61 C67 1.231 . S
C62 O46 1.225 . S
C62 O68 1.298 . S
C63 O52 1.226 . S
C63 O53 1.307 . S
C64 O56 1.303 . S
C64 O57 1.247 . S
C65 O54 1.253 . S
C65 O55 1.283 . S
C66 O58 1.304 . S
C66 O60 1.272 1_655 S
C67 O59 1.311 . S
C67 O61 1.231 . S
O68 Zn50 1.935 1_455 S
O68 C62 1.298 . S
O69 Zn70 1.954 . S
O69 C85 1.227 . S
Zn70 O69 1.954 . S
Zn70 O71 1.949 . S
Zn70 O77 1.919 1_554 S
Zn70 O82 1.924 . S
O71 Zn70 1.949 . S
O71 Zn72 1.923 1_554 S
O71 Zn73 1.950 1_545 S
O71 Zn74 1.945 . S
Zn72 O71 1.923 1_556 S
Zn72 O75 1.933 . S
Zn72 O78 1.941 . S
Zn72 O79 1.965 1_545 S
Zn73 O71 1.950 1_565 S
Zn73 O80 1.938 1_554 S
Zn73 O81 1.906 . S
Zn73 O91 1.953 . S
Zn74 O71 1.945 . S
Zn74 O76 1.932 . S
Zn74 O83 1.977 1_545 S
Zn74 O84 1.910 . S
O75 Zn72 1.933 . S
O75 C86 1.226 1_556 S
O76 Zn74 1.932 . S
O76 C86 1.307 . S
O77 Zn70 1.919 1_556 S
O77 C88 1.253 . S
O78 Zn72 1.941 . S
O78 C88 1.283 . S
O79 Zn72 1.965 1_565 S
O79 C87 1.303 . S
O80 Zn73 1.938 1_556 S
O80 C87 1.247 . S
O81 Zn73 1.906 . S
O81 C89 1.304 . S
O82 Zn70 1.924 . S
O82 C90 1.311 . S
O83 Zn74 1.977 1_565 S
O83 C89 1.272 . S
O84 Zn74 1.910 . S
O84 C90 1.231 . S
C85 O69 1.227 . S
C85 O91 1.298 1_545 S
C86 O75 1.226 1_554 S
C86 O76 1.307 . S
C87 O79 1.303 . S
C87 O80 1.247 . S
C88 O77 1.253 . S
C88 O78 1.283 . S
C89 O81 1.304 . S
C89 O83 1.272 . S
C90 O82 1.311 . S
C90 O84 1.231 . S
O91 Zn73 1.953 . S
O91 C85 1.298 1_565 S
O92 Zn93 1.953 . S
O92 C108 1.225 . S
Zn93 O92 1.953 . S
Zn93 O94 1.949 . S
Zn93 O100 1.919 . S
Zn93 O105 1.924 . S
O94 Zn93 1.949 . S
O94 Zn95 1.923 . S
O94 Zn96 1.950 . S
O94 Zn97 1.945 . S
Zn95 O94 1.923 . S
Zn95 O98 1.933 . S
Zn95 O101 1.941 . S
Zn95 O102 1.965 . S
Zn96 O94 1.950 . S
Zn96 O103 1.938 . S
Zn96 O104 1.906 . S
Zn96 O114 1.953 . S
Zn97 O94 1.945 . S
Zn97 O99 1.932 . S
Zn97 O106 1.977 . S
Zn97 O107 1.910 . S
O98 Zn95 1.933 . S
O98 C109 1.226 . S
O99 Zn97 1.932 . S
O99 C109 1.307 . S
O100 Zn93 1.919 . S
O100 C111 1.253 . S
O101 Zn95 1.941 . S
O101 C111 1.283 . S
O102 Zn95 1.965 . S
O102 C110 1.303 . S
O103 Zn96 1.938 . S
O103 C110 1.247 . S
O104 Zn96 1.906 . S
O104 C112 1.304 . S
O105 Zn93 1.924 . S
O105 C113 1.311 . S
O106 Zn97 1.977 . S
O106 C112 1.272 . S
O107 Zn97 1.910 . S
O107 C113 1.231 . S
C108 O92 1.225 . S
C108 O114 1.298 . S
C109 O98 1.226 . S
C109 O99 1.307 . S
C110 O102 1.303 . S
C110 O103 1.247 . S
C111 O100 1.253 . S
C111 O101 1.283 . S
C112 O104 1.304 . S
C112 O106 1.272 . S
C113 O105 1.311 . S
C113 O107 1.231 . S
O114 Zn96 1.953 . S
O114 C108 1.298 . S
O115 Zn116 1.953 . S
O115 C131 1.225 . S
Zn116 O115 1.953 . S
Zn116 O117 1.949 . S
Zn116 O123 1.919 . S
Zn116 O128 1.924 . S
O117 Zn116 1.949 . S
O117 Zn118 1.923 . S
O117 Zn119 1.950 . S
O117 Zn120 1.945 . S
Zn118 O117 1.923 . S
Zn118 O121 1.933 . S
Zn118 O124 1.941 . S
Zn118 O125 1.965 . S
Zn119 O117 1.950 . S
Zn119 O126 1.938 . S
Zn119 O127 1.906 . S
Zn119 O137 1.953 . S
Zn120 O117 1.945 . S
Zn120 O122 1.932 . S
Zn120 O129 1.977 . S
Zn120 O130 1.910 . S
O121 Zn118 1.933 . S
O121 C132 1.226 . S
O122 Zn120 1.932 . S
O122 C132 1.307 . S
O123 Zn116 1.919 . S
O123 C134 1.253 . S
O124 Zn118 1.941 . S
O124 C134 1.283 . S
O125 Zn118 1.965 . S
O125 C133 1.303 . S
O126 Zn119 1.938 . S
O126 C133 1.247 . S
O127 Zn119 1.906 . S
O127 C135 1.304 . S
O128 Zn116 1.924 . S
O128 C136 1.311 . S
O129 Zn120 1.977 . S
O129 C135 1.272 . S
O130 Zn120 1.910 . S
O130 C136 1.231 . S
C131 O115 1.225 . S
C131 O137 1.298 . S
C132 O121 1.226 . S
C132 O122 1.307 . S
C133 O125 1.303 . S
C133 O126 1.247 . S
C134 O123 1.253 . S
C134 O124 1.283 . S
C135 O127 1.304 . S
C135 O129 1.272 . S
C136 O128 1.311 . S
C136 O130 1.231 . S
O137 Zn119 1.953 . S
O137 C131 1.298 . S
H138 C146 0.929 1_565 S
H139 C148 0.930 1_565 S
H140 C150 0.930 . S
H141 C153 0.929 . S
H142 C156 0.932 . S
H143 C158 0.960 . S
H144 C158 0.960 . S
H145 C158 0.960 1_556 S
C146 H138 0.929 1_545 S
C146 C147 1.377 . S
C146 C148 1.384 . S
C147 C146 1.377 . S
C147 C153 1.390 1_554 S
C148 H139 0.930 1_545 S
C148 C146 1.384 . S
C148 C149 1.372 . S
C149 C148 1.372 . S
C149 C150 1.400 1_554 S
C149 C154 1.490 1_655 S
C150 H140 0.930 . S
C150 C149 1.400 1_556 S
C150 C153 1.386 . S
H151 C167 0.930 . S
H152 C168 0.931 . S
C153 H141 0.929 . S
C153 C147 1.390 1_556 S
C153 C150 1.386 . S
C154 C149 1.490 1_455 S
C154 C156 1.390 1_545 S
C154 C157 1.403 . S
H155 C161 0.930 . S
C156 H142 0.932 . S
C156 C154 1.390 1_565 S
C156 C159 1.405 1_565 S
C157 C154 1.403 . S
C157 C158 1.524 . S
C157 C161 1.400 . S
C158 H143 0.960 . S
C158 H144 0.960 . S
C158 H145 0.960 1_554 S
C158 C157 1.524 . S
C159 C156 1.405 1_545 S
C159 C160 1.392 . S
C159 C163 1.495 1_545 S
C160 C159 1.392 . S
C160 C161 1.385 . S
C160 C162 1.478 . S
C161 H155 0.930 . S
C161 C157 1.400 . S
C161 C160 1.385 . S
C162 C160 1.478 . S
C162 C164 1.381 . S
C162 C168 1.383 1_554 S
C163 C159 1.495 1_565 S
C163 H169 0.959 . S
C163 H170 0.961 1_554 S
C163 H171 0.960 . S
C164 C162 1.381 . S
C164 C165 1.394 . S
C164 H172 0.930 . S
C165 C164 1.394 . S
C165 C166 1.383 . S
C165 H173 0.929 . S
C166 C165 1.383 . S
C166 C167 1.377 1_554 S
C167 H151 0.930 . S
C167 C166 1.377 1_556 S
C167 C168 1.379 . S
C168 H152 0.931 . S
C168 C162 1.383 1_556 S
C168 C167 1.379 . S
H169 C163 0.959 . S
H170 C163 0.961 1_556 S
H171 C163 0.960 . S
H172 C164 0.930 . S
H173 C165 0.929 . S
H174 C182 0.929 . S
H175 C184 0.930 1_455 S
H176 C186 0.930 . S
H177 C189 0.929 . S
H178 C192 0.930 1_565 S
H179 C194 0.960 . S
H180 C194 0.960 . S
H181 C194 0.960 . S
C182 H174 0.929 . S
C182 C183 1.377 . S
C182 C184 1.384 . S
C183 C182 1.377 . S
C183 C189 1.390 . S
C184 H175 0.930 1_655 S
C184 C182 1.384 . S
C184 C185 1.372 . S
C185 C184 1.372 . S
C185 C186 1.400 . S
C185 C190 1.490 1_665 S
C186 H176 0.930 . S
C186 C185 1.400 . S
C186 C189 1.386 . S
H187 C203 0.930 . S
H188 C204 0.931 . S
C189 H177 0.929 . S
C189 C183 1.390 . S
C189 C186 1.386 . S
C190 C185 1.490 1_445 S
C190 C192 1.395 . S
C190 C193 1.403 . S
H191 C197 0.930 . S
C192 H178 0.930 1_545 S
C192 C190 1.395 . S
C192 C195 1.403 . S
C193 C190 1.403 . S
C193 C194 1.524 1_455 S
C193 C197 1.400 . S
C194 H179 0.960 . S
C194 H180 0.960 . S
C194 H181 0.960 . S
C194 C193 1.524 1_655 S
C195 C192 1.403 . S
C195 C196 1.392 . S
C195 C199 1.495 . S
C196 C195 1.392 . S
C196 C197 1.385 . S
C196 C198 1.478 . S
C197 H191 0.930 . S
C197 C193 1.400 . S
C197 C196 1.385 . S
C198 C196 1.478 . S
C198 C200 1.381 . S
C198 C204 1.383 . S
C199 C195 1.495 . S
C199 H205 0.959 . S
C199 H206 0.961 . S
C199 H207 0.960 . S
C200 C198 1.381 . S
C200 C201 1.394 . S
C200 H208 0.930 . S
C201 C200 1.394 . S
C201 C202 1.383 . S
C201 H209 0.929 . S
C202 C201 1.383 . S
C202 C203 1.377 . S
C203 H187 0.930 . S
C203 C202 1.377 . S
C203 C204 1.379 . S
C204 H188 0.931 . S
C204 C198 1.383 . S
C204 C203 1.379 . S
H205 C199 0.959 . S
H206 C199 0.961 . S
H207 C199 0.960 . S
H208 C200 0.930 . S
H209 C201 0.929 . S
H210 C218 0.929 . S
H211 C220 0.930 . S
H212 C222 0.930 . S
H213 C225 0.929 . S
H214 C228 0.930 . S
H215 C230 0.960 . S
H216 C230 0.960 . S
H217 C230 0.960 . S
C218 H210 0.929 . S
C218 C219 1.377 . S
C218 C220 1.384 . S
C219 C218 1.377 . S
C219 C225 1.390 . S
C220 H211 0.930 . S
C220 C218 1.384 . S
C220 C221 1.372 . S
C221 C220 1.372 . S
C221 C222 1.400 . S
C221 C226 1.490 1_565 S
C222 H212 0.930 . S
C222 C221 1.400 . S
C222 C225 1.386 . S
H223 C239 0.930 . S
H224 C240 0.931 . S
C225 H213 0.929 . S
C225 C219 1.390 . S
C225 C222 1.386 . S
C226 C221 1.490 1_545 S
C226 C228 1.395 . S
C226 C229 1.403 . S
H227 C233 0.930 . S
C228 H214 0.930 . S
C228 C226 1.395 . S
C228 C231 1.403 . S
C229 C226 1.403 . S
C229 C230 1.524 1_445 S
C229 C233 1.400 . S
C230 H215 0.960 . S
C230 H216 0.960 . S
C230 H217 0.960 . S
C230 C229 1.524 1_665 S
C231 C228 1.403 . S
C231 C232 1.392 . S
C231 C235 1.495 . S
C232 C231 1.392 . S
C232 C233 1.385 . S
C232 C234 1.478 . S
C233 H227 0.930 . S
C233 C229 1.400 . S
C233 C232 1.385 . S
C234 C232 1.478 . S
C234 C236 1.381 . S
C234 C240 1.383 . S
C235 C231 1.495 . S
C235 H241 0.959 . S
C235 H242 0.961 . S
C235 H243 0.960 . S
C236 C234 1.381 . S
C236 C237 1.394 . S
C236 H244 0.930 . S
C237 C236 1.394 . S
C237 C238 1.383 . S
C237 H245 0.929 . S
C238 C237 1.383 . S
C238 C239 1.377 . S
C239 H223 0.930 . S
C239 C238 1.377 . S
C239 C240 1.379 . S
C240 H224 0.931 . S
C240 C234 1.383 . S
C240 C239 1.379 . S
H241 C235 0.959 . S
H242 C235 0.961 . S
H243 C235 0.960 . S
H244 C236 0.930 . S
H245 C237 0.929 . S
H246 C254 0.929 . S
H247 C256 0.930 . S
H248 C258 0.930 . S
H249 C261 0.929 . S
H250 C264 0.930 . S
H251 C266 0.960 . S
H252 C266 0.960 . S
H253 C266 0.960 . S
C254 H246 0.929 . S
C254 C255 1.377 . S
C254 C256 1.384 . S
C255 C254 1.377 . S
C255 C261 1.390 . S
C256 H247 0.930 . S
C256 C254 1.384 . S
C256 C257 1.372 . S
C257 C256 1.372 . S
C257 C258 1.400 . S
C257 C262 1.490 . S
C258 H248 0.930 . S
C258 C257 1.400 . S
C258 C261 1.386 . S
H259 C275 0.930 . S
H260 C276 0.931 . S
C261 H249 0.929 . S
C261 C255 1.390 . S
C261 C258 1.386 . S
C262 C257 1.490 . S
C262 C264 1.395 . S
C262 C265 1.403 . S
H263 C269 0.930 . S
C264 H250 0.930 . S
C264 C262 1.395 . S
C264 C267 1.403 . S
C265 C262 1.403 . S
C265 C266 1.524 . S
C265 C269 1.400 . S
C266 H251 0.960 . S
C266 H252 0.960 . S
C266 H253 0.960 . S
C266 C265 1.524 . S
C267 C264 1.403 . S
C267 C268 1.392 . S
C267 C271 1.495 . S
C268 C267 1.392 . S
C268 C269 1.385 . S
C268 C270 1.478 . S
C269 H263 0.930 . S
C269 C265 1.400 . S
C269 C268 1.385 . S
C270 C268 1.478 . S
C270 C272 1.381 . S
C270 C276 1.383 . S
C271 C267 1.495 . S
C271 H277 0.959 . S
C271 H278 0.961 . S
C271 H279 0.960 . S
C272 C270 1.381 . S
C272 C273 1.394 . S
C272 H280 0.930 . S
C273 C272 1.394 . S
C273 C274 1.383 . S
C273 H281 0.929 . S
C274 C273 1.383 . S
C274 C275 1.377 . S
C275 H259 0.930 . S
C275 C274 1.377 . S
C275 C276 1.379 . S
C276 H260 0.931 . S
C276 C270 1.383 . S
C276 C275 1.379 . S
H277 C271 0.959 . S
H278 C271 0.961 . S
H279 C271 0.960 . S
H280 C272 0.930 . S
H281 C273 0.929 . S
H282 C290 0.929 . S
H283 C292 0.930 . S
H284 C294 0.930 . S
H285 C297 0.929 . S
H286 C300 0.930 . S
H287 C302 0.960 . S
H288 C302 0.960 . S
H289 C302 0.960 . S
C290 H282 0.929 . S
C290 C291 1.377 . S
C290 C292 1.384 . S
C291 C290 1.377 . S
C291 C297 1.390 . S
C292 H283 0.930 . S
C292 C290 1.384 . S
C292 C293 1.372 . S
C293 C292 1.372 . S
C293 C294 1.400 . S
C293 C298 1.490 . S
C294 H284 0.930 . S
C294 C293 1.400 . S
C294 C297 1.386 . S
H295 C311 0.930 . S
H296 C312 0.931 1_455 S
C297 H285 0.929 . S
C297 C291 1.390 . S
C297 C294 1.386 . S
C298 C293 1.490 . S
C298 C300 1.395 . S
C298 C301 1.403 . S
H299 C305 0.930 1_655 S
C300 H286 0.930 . S
C300 C298 1.395 . S
C300 C303 1.403 . S
C301 C298 1.403 . S
C301 C302 1.524 . S
C301 C305 1.400 . S
C302 H287 0.960 . S
C302 H288 0.960 . S
C302 H289 0.960 . S
C302 C301 1.524 . S
C303 C300 1.403 . S
C303 C304 1.392 . S
C303 C307 1.495 . S
C304 C303 1.392 . S
C304 C305 1.385 . S
C304 C306 1.478 1_455 S
C305 H299 0.930 1_455 S
C305 C301 1.400 . S
C305 C304 1.385 . S
C306 C304 1.478 1_655 S
C306 C308 1.381 . S
C306 C312 1.383 . S
C307 C303 1.495 . S
C307 H313 0.959 . S
C307 H314 0.961 . S
C307 H315 0.960 . S
C308 C306 1.381 . S
C308 C309 1.394 . S
C308 H316 0.930 . S
C309 C308 1.394 . S
C309 C310 1.383 . S
C309 H317 0.929 . S
C310 C309 1.383 . S
C310 C311 1.377 . S
C311 H295 0.930 . S
C311 C310 1.377 . S
C311 C312 1.379 . S
C312 H296 0.931 1_655 S
C312 C306 1.383 . S
C312 C311 1.379 . S
H313 C307 0.959 . S
H314 C307 0.961 . S
H315 C307 0.960 . S
H316 C308 0.930 . S
H317 C309 0.929 . S
H318 C326 0.929 . S
H319 C328 0.930 . S
H320 C330 0.930 . S
H321 C333 0.929 . S
H322 C336 0.930 . S
H323 C338 0.960 1_565 S
H324 C338 0.960 . S
H325 C338 0.960 . S
C326 H318 0.929 . S
C326 C327 1.377 . S
C326 C328 1.384 . S
C327 C326 1.377 . S
C327 C333 1.390 . S
C328 H319 0.930 . S
C328 C326 1.384 . S
C328 C329 1.372 . S
C329 C328 1.372 . S
C329 C330 1.400 . S
C329 C334 1.490 . S
C330 H320 0.930 . S
C330 C329 1.400 . S
C330 C333 1.386 . S
H331 C347 0.930 . S
H332 C348 0.931 . S
C333 H321 0.929 . S
C333 C327 1.390 . S
C333 C330 1.386 . S
C334 C329 1.490 . S
C334 C336 1.395 . S
C334 C337 1.403 . S
H335 C341 0.930 . S
C336 H322 0.930 . S
C336 C334 1.395 . S
C336 C339 1.403 . S
C337 C334 1.403 . S
C337 C338 1.524 . S
C337 C341 1.400 1_545 S
C338 H323 0.960 1_545 S
C338 H324 0.960 . S
C338 H325 0.960 . S
C338 C337 1.524 . S
C339 C336 1.403 . S
C339 C340 1.392 . S
C339 C343 1.495 . S
C340 C339 1.392 . S
C340 C341 1.385 1_545 S
C340 C342 1.478 1_545 S
C341 H335 0.930 . S
C341 C337 1.400 1_565 S
C341 C340 1.385 1_565 S
C342 C340 1.478 1_565 S
C342 C344 1.381 . S
C342 C348 1.383 . S
C343 C339 1.495 . S
C343 H349 0.959 . S
C343 H350 0.961 . S
C343 H351 0.960 . S
C344 C342 1.381 . S
C344 C345 1.394 . S
C344 H352 0.930 . S
C345 C344 1.394 . S
C345 C346 1.383 . S
C345 H353 0.929 . S
C346 C345 1.383 . S
C346 C347 1.377 . S
C347 H331 0.930 . S
C347 C346 1.377 . S
C347 C348 1.379 . S
C348 H332 0.931 . S
C348 C342 1.383 . S
C348 C347 1.379 . S
H349 C343 0.959 . S
H350 C343 0.961 . S
H351 C343 0.960 . S
H352 C344 0.930 . S
H353 C345 0.929 . S
H354 C362 0.929 . S
H355 C364 0.930 . S
H356 C366 0.930 . S
H357 C369 0.929 . S
H358 C372 0.930 . S
H359 C374 0.960 . S
H360 C374 0.960 . S
H361 C374 0.960 . S
C362 H354 0.929 . S
C362 C363 1.377 . S
C362 C364 1.384 . S
C363 C362 1.377 . S
C363 C369 1.390 . S
C364 H355 0.930 . S
C364 C362 1.384 . S
C364 C365 1.372 . S
C365 C364 1.372 . S
C365 C366 1.400 . S
C365 C370 1.490 . S
C366 H356 0.930 . S
C366 C365 1.400 . S
C366 C369 1.386 . S
H367 C383 0.930 . S
H368 C384 0.931 . S
C369 H357 0.929 . S
C369 C363 1.390 . S
C369 C366 1.386 . S
C370 C365 1.490 . S
C370 C372 1.395 . S
C370 C373 1.403 . S
H371 C377 0.930 . S
C372 H358 0.930 . S
C372 C370 1.395 . S
C372 C375 1.403 . S
C373 C370 1.403 . S
C373 C374 1.524 . S
C373 C377 1.400 . S
C374 H359 0.960 . S
C374 H360 0.960 . S
C374 H361 0.960 . S
C374 C373 1.524 . S
C375 C372 1.403 . S
C375 C376 1.392 . S
C375 C379 1.495 . S
C376 C375 1.392 . S
C376 C377 1.385 . S
C376 C378 1.478 . S
C377 H371 0.930 . S
C377 C373 1.400 . S
C377 C376 1.385 . S
C378 C376 1.478 . S
C378 C380 1.381 . S
C378 C384 1.383 . S
C379 C375 1.495 . S
C379 H385 0.959 1_655 S
C379 H386 0.961 . S
C379 H387 0.960 1_655 S
C380 C378 1.381 . S
C380 C381 1.394 1_655 S
C380 H388 0.930 1_655 S
C381 C380 1.394 1_455 S
C381 C382 1.383 1_455 S
C381 H389 0.929 . S
C382 C381 1.383 1_655 S
C382 C383 1.377 . S
C383 H367 0.930 . S
C383 C382 1.377 . S
C383 C384 1.379 . S
C384 H368 0.931 . S
C384 C378 1.383 . S
C384 C383 1.379 . S
H385 C379 0.959 1_455 S
H386 C379 0.961 . S
H387 C379 0.960 1_455 S
H388 C380 0.930 1_455 S
H389 C381 0.929 . S
H390 C398 0.929 . S
H391 C400 0.930 . S
H392 C402 0.930 . S
H393 C405 0.929 . S
H394 C408 0.930 . S
H395 C410 0.960 . S
H396 C410 0.960 1_655 S
H397 C410 0.960 1_655 S
C398 H390 0.929 . S
C398 C399 1.377 . S
C398 C400 1.384 1_655 S
C399 C398 1.377 . S
C399 C405 1.390 . S
C400 H391 0.930 . S
C400 C398 1.384 1_455 S
C400 C401 1.372 . S
C401 C400 1.372 . S
C401 C402 1.400 1_455 S
C401 C406 1.490 . S
C402 H392 0.930 . S
C402 C401 1.400 1_655 S
C402 C405 1.386 . S
H403 C419 0.930 . S
H404 C420 0.931 . S
C405 H393 0.929 . S
C405 C399 1.390 . S
C405 C402 1.386 . S
C406 C401 1.490 . S
C406 C408 1.395 . S
C406 C409 1.403 . S
H407 C413 0.930 . S
C408 H394 0.930 . S
C408 C406 1.395 . S
C408 C411 1.403 . S
C409 C406 1.403 . S
C409 C410 1.524 . S
C409 C413 1.400 . S
C410 H395 0.960 . S
C410 H396 0.960 1_455 S
C410 H397 0.960 1_455 S
C410 C409 1.524 . S
C411 C408 1.403 . S
C411 C412 1.392 . S
C411 C415 1.495 . S
C412 C411 1.392 . S
C412 C413 1.385 . S
C412 C414 1.478 . S
C413 H407 0.930 . S
C413 C409 1.400 . S
C413 C412 1.385 . S
C414 C412 1.478 . S
C414 C416 1.381 . S
C414 C420 1.383 . S
C415 C411 1.495 . S
C415 H421 0.959 . S
C415 H422 0.961 . S
C415 H423 0.960 . S
C416 C414 1.381 . S
C416 C417 1.394 . S
C416 H424 0.930 . S
C417 C416 1.394 . S
C417 C418 1.383 . S
C417 H425 0.929 1_565 S
C418 C417 1.383 . S
C418 C419 1.377 . S
C419 H403 0.930 . S
C419 C418 1.377 . S
C419 C420 1.379 . S
C420 H404 0.931 . S
C420 C414 1.383 . S
C420 C419 1.379 . S
H421 C415 0.959 . S
H422 C415 0.961 . S
H423 C415 0.960 . S
H424 C416 0.930 . S
H425 C417 0.929 1_545 S
H426 C434 0.929 . S
H427 C436 0.930 . S
H428 C438 0.930 . S
H429 C441 0.929 . S
H430 C444 0.930 . S
H431 C446 0.960 . S
H432 C446 0.960 . S
H433 C446 0.960 . S
C434 H426 0.929 . S
C434 C435 1.377 . S
C434 C436 1.384 1_565 S
C435 C434 1.377 . S
C435 C441 1.390 . S
C436 H427 0.930 . S
C436 C434 1.384 1_545 S
C436 C437 1.372 1_545 S
C437 C436 1.372 1_565 S
C437 C438 1.400 . S
C437 C442 1.490 1_565 S
C438 H428 0.930 . S
C438 C437 1.400 . S
C438 C441 1.386 . S
H439 C455 0.930 . S
H440 C456 0.931 . S
C441 H429 0.929 . S
C441 C435 1.390 . S
C441 C438 1.386 . S
C442 C437 1.490 1_545 S
C442 C444 1.395 . S
C442 C445 1.403 . S
H443 C449 0.930 . S
C444 H430 0.930 . S
C444 C442 1.395 . S
C444 C447 1.403 . S
C445 C442 1.403 . S
C445 C446 1.524 1_545 S
C445 C449 1.400 . S
C446 H431 0.960 . S
C446 H432 0.960 . S
C446 H433 0.960 . S
C446 C445 1.524 1_565 S
C447 C444 1.403 . S
C447 C448 1.392 . S
C447 C451 1.495 . S
C448 C447 1.392 . S
C448 C449 1.385 . S
C448 C450 1.478 . S
C449 H443 0.930 . S
C449 C445 1.400 . S
C449 C448 1.385 . S
C450 C448 1.478 . S
C450 C452 1.381 . S
C450 C456 1.383 . S
C451 C447 1.495 . S
C451 H457 0.959 . S
C451 H458 0.961 . S
C451 H459 0.960 . S
C452 C450 1.381 . S
C452 C453 1.394 . S
C452 H460 0.930 . S
C453 C452 1.394 . S
C453 C454 1.383 . S
C453 H461 0.929 . S
C454 C453 1.383 . S
C454 C455 1.377 . S
C455 H439 0.930 . S
C455 C454 1.377 . S
C455 C456 1.379 . S
C456 H440 0.931 . S
C456 C450 1.383 . S
C456 C455 1.379 . S
H457 C451 0.959 . S
H458 C451 0.961 . S
H459 C451 0.960 . S
H460 C452 0.930 . S
H461 C453 0.929 . S
H462 C470 0.929 . S
H463 C472 0.930 . S
H464 C474 0.930 . S
H465 C477 0.929 . S
H466 C480 0.930 1_565 S
H467 C482 0.960 . S
H468 C482 0.960 . S
H469 C482 0.960 1_556 S
C470 H462 0.929 . S
C470 C471 1.377 . S
C470 C472 1.384 . S
C471 C470 1.377 . S
C471 C477 1.390 1_554 S
C472 H463 0.930 . S
C472 C470 1.384 . S
C472 C473 1.372 . S
C473 C472 1.372 . S
C473 C474 1.400 1_554 S
C473 C478 1.490 . S
C474 H464 0.930 . S
C474 C473 1.400 1_556 S
C474 C477 1.386 . S
H475 C491 0.930 . S
H476 C492 0.931 . S
C477 H465 0.929 . S
C477 C471 1.390 1_556 S
C477 C474 1.386 . S
C478 C473 1.490 . S
C478 C480 1.395 . S
C478 C481 1.403 . S
H479 C485 0.930 . S
C480 H466 0.930 1_545 S
C480 C478 1.395 . S
C480 C483 1.403 1_545 S
C481 C478 1.403 . S
C481 C482 1.524 . S
C481 C485 1.400 . S
C482 H467 0.960 . S
C482 H468 0.960 . S
C482 H469 0.960 1_554 S
C482 C481 1.524 . S
C483 C480 1.403 1_565 S
C483 C484 1.392 1_565 S
C483 C487 1.495 . S
C484 C483 1.392 1_545 S
C484 C485 1.385 . S
C484 C486 1.478 . S
C485 H479 0.930 . S
C485 C481 1.400 . S
C485 C484 1.385 . S
C486 C484 1.478 . S
C486 C488 1.381 . S
C486 C492 1.383 1_554 S
C487 C483 1.495 . S
C487 H493 0.959 . S
C487 H494 0.961 . S
C487 H495 0.960 . S
C488 C486 1.381 . S
C488 C489 1.394 . S
C488 H496 0.930 . S
C489 C488 1.394 . S
C489 C490 1.383 . S
C489 H497 0.935 . S
C490 C489 1.383 . S
C490 C491 1.377 1_554 S
C491 H475 0.930 . S
C491 C490 1.377 1_556 S
C491 C492 1.379 . S
C492 H476 0.931 . S
C492 C486 1.383 1_556 S
C492 C491 1.379 . S
H493 C487 0.959 . S
H494 C487 0.961 . S
H495 C487 0.960 . S
H496 C488 0.930 . S
H497 C489 0.935 . S
H498 C506 0.929 . S
H499 C508 0.930 . S
H500 C510 0.930 . S
H501 C513 0.929 . S
H502 C516 0.930 . S
H503 C518 0.960 . S
H504 C518 0.960 . S
H505 C518 0.960 . S
C506 H498 0.929 . S
C506 C507 1.377 . S
C506 C508 1.384 . S
C507 C506 1.377 . S
C507 C513 1.390 . S
C508 H499 0.930 . S
C508 C506 1.384 . S
C508 C509 1.372 . S
C509 C508 1.372 . S
C509 C510 1.400 . S
C509 C514 1.490 . S
C510 H500 0.930 . S
C510 C509 1.400 . S
C510 C513 1.386 . S
H511 C527 0.930 . S
H512 C528 0.931 . S
C513 H501 0.929 . S
C513 C507 1.390 . S
C513 C510 1.386 . S
C514 C509 1.490 . S
C514 C516 1.395 . S
C514 C517 1.403 . S
H515 C521 0.930 . S
C516 H502 0.930 . S
C516 C514 1.395 . S
C516 C519 1.403 . S
C517 C514 1.403 . S
C517 C518 1.524 . S
C517 C521 1.400 . S
C518 H503 0.960 . S
C518 H504 0.960 . S
C518 H505 0.960 . S
C518 C517 1.524 . S
C519 C516 1.403 . S
C519 C520 1.392 . S
C519 C523 1.495 . S
C520 C519 1.392 . S
C520 C521 1.385 . S
C520 C522 1.478 . S
C521 H515 0.930 . S
C521 C517 1.400 . S
C521 C520 1.385 . S
C522 C520 1.478 . S
C522 C524 1.381 . S
C522 C528 1.383 . S
C523 C519 1.495 . S
C523 H529 0.959 . S
C523 H530 0.961 . S
C523 H531 0.960 . S
C524 C522 1.381 . S
C524 C525 1.394 . S
C524 H532 0.930 . S
C525 C524 1.394 . S
C525 C526 1.383 . S
C525 H533 0.929 . S
C526 C525 1.383 . S
C526 C527 1.377 . S
C527 H511 0.930 . S
C527 C526 1.377 . S
C527 C528 1.379 . S
C528 H512 0.931 . S
C528 C522 1.383 . S
C528 C527 1.379 . S
H529 C523 0.959 . S
H530 C523 0.961 . S
H531 C523 0.960 . S
H532 C524 0.930 . S
H533 C525 0.929 . S
H534 C542 0.929 . S
H535 C544 0.930 . S
H536 C546 0.930 . S
H537 C549 0.929 . S
H538 C552 0.930 . S
H539 C554 0.960 . S
H540 C554 0.960 . S
H541 C554 0.960 . S
C542 H534 0.929 . S
C542 C543 1.377 . S
C542 C544 1.384 . S
C543 C542 1.377 . S
C543 C549 1.390 . S
C544 H535 0.930 . S
C544 C542 1.384 . S
C544 C545 1.372 . S
C545 C544 1.372 . S
C545 C546 1.400 . S
C545 C550 1.490 . S
C546 H536 0.930 . S
C546 C545 1.400 . S
C546 C549 1.386 . S
H547 C563 0.930 . S
H548 C564 0.931 . S
C549 H537 0.929 . S
C549 C543 1.390 . S
C549 C546 1.386 . S
C550 C545 1.490 . S
C550 C552 1.395 . S
C550 C553 1.403 . S
H551 C557 0.930 . S
C552 H538 0.930 . S
C552 C550 1.395 . S
C552 C555 1.403 . S
C553 C550 1.403 . S
C553 C554 1.524 1_455 S
C553 C557 1.400 . S
C554 H539 0.960 . S
C554 H540 0.960 . S
C554 H541 0.960 . S
C554 C553 1.524 1_655 S
C555 C552 1.403 . S
C555 C556 1.392 . S
C555 C559 1.495 . S
C556 C555 1.392 . S
C556 C557 1.385 . S
C556 C558 1.478 . S
C557 H551 0.930 . S
C557 C553 1.400 . S
C557 C556 1.385 . S
C558 C556 1.478 . S
C558 C560 1.381 . S
C558 C564 1.383 . S
C559 C555 1.495 . S
C559 H565 0.959 . S
C559 H566 0.961 . S
C559 H567 0.960 . S
C560 C558 1.381 . S
C560 C561 1.394 . S
C560 H568 0.930 . S
C561 C560 1.394 . S
C561 C562 1.383 . S
C561 H569 0.929 . S
C562 C561 1.383 . S
C562 C563 1.377 . S
C563 H547 0.930 . S
C563 C562 1.377 . S
C563 C564 1.379 . S
C564 H548 0.931 . S
C564 C558 1.383 . S
C564 C563 1.379 . S
H565 C559 0.959 . S
H566 C559 0.961 . S
H567 C559 0.960 . S
H568 C560 0.930 . S
H569 C561 0.929 . S
H570 C578 0.929 . S
H571 C580 0.930 . S
H572 C582 0.930 . S
H573 C585 0.929 . S
H574 C588 0.930 . S
H575 C590 0.960 . S
H576 C590 0.960 . S
H577 C590 0.960 . S
C578 H570 0.929 . S
C578 C579 1.377 . S
C578 C580 1.384 . S
C579 C578 1.377 . S
C579 C585 1.390 . S
C580 H571 0.930 . S
C580 C578 1.384 . S
C580 C581 1.372 . S
C581 C580 1.372 . S
C581 C582 1.400 . S
C581 C586 1.490 . S
C582 H572 0.930 . S
C582 C581 1.400 . S
C582 C585 1.386 . S
H583 C599 0.930 . S
H584 C600 0.931 . S
C585 H573 0.929 . S
C585 C579 1.390 . S
C585 C582 1.386 . S
C586 C581 1.490 . S
C586 C588 1.395 . S
C586 C589 1.403 . S
H587 C593 0.930 . S
C588 H574 0.930 . S
C588 C586 1.395 . S
C588 C591 1.403 . S
C589 C586 1.403 . S
C589 C590 1.524 . S
C589 C593 1.400 . S
C590 H575 0.960 . S
C590 H576 0.960 . S
C590 H577 0.960 . S
C590 C589 1.524 . S
C591 C588 1.403 . S
C591 C592 1.392 . S
C591 C595 1.495 . S
C592 C591 1.392 . S
C592 C593 1.385 . S
C592 C594 1.478 . S
C593 H587 0.930 . S
C593 C589 1.400 . S
C593 C592 1.385 . S
C594 C592 1.478 . S
C594 C596 1.381 . S
C594 C600 1.383 . S
C595 C591 1.495 . S
C595 H601 0.959 . S
C595 H602 0.961 . S
C595 H603 0.960 . S
C596 C594 1.381 . S
C596 C597 1.394 . S
C596 H604 0.930 . S
C597 C596 1.394 . S
C597 C598 1.383 . S
C597 H605 0.929 . S
C598 C597 1.383 . S
C598 C599 1.377 . S
C599 H583 0.930 . S
C599 C598 1.377 . S
C599 C600 1.379 . S
C600 H584 0.931 . S
C600 C594 1.383 . S
C600 C599 1.379 . S
H601 C595 0.959 . S
H602 C595 0.961 . S
H603 C595 0.960 . S
H604 C596 0.930 . S
H605 C597 0.929 . S
H606 C614 0.929 . S
H607 C616 0.930 . S
H608 C618 0.930 . S
H609 C621 0.929 . S
H610 C624 0.930 . S
H611 C626 0.960 . S
H612 C626 0.960 . S
H613 C626 0.960 . S
C614 H606 0.929 . S
C614 C615 1.377 . S
C614 C616 1.384 . S
C615 C614 1.377 . S
C615 C621 1.390 . S
C616 H607 0.930 . S
C616 C614 1.384 . S
C616 C617 1.372 . S
C617 C616 1.372 . S
C617 C618 1.400 . S
C617 C622 1.490 . S
C618 H608 0.930 . S
C618 C617 1.400 . S
C618 C621 1.386 . S
H619 C635 0.930 . S
H620 C636 0.931 . S
C621 H609 0.929 . S
C621 C615 1.390 . S
C621 C618 1.386 . S
C622 C617 1.490 . S
C622 C624 1.395 . S
C622 C625 1.403 . S
H623 C629 0.930 . S
C624 H610 0.930 . S
C624 C622 1.395 . S
C624 C627 1.403 . S
C625 C622 1.403 . S
C625 C626 1.524 . S
C625 C629 1.400 . S
C626 H611 0.960 . S
C626 H612 0.960 . S
C626 H613 0.960 . S
C626 C625 1.524 . S
C627 C624 1.403 . S
C627 C628 1.392 . S
C627 C631 1.495 . S
C628 C627 1.392 . S
C628 C629 1.385 . S
C628 C630 1.478 . S
C629 H623 0.930 . S
C629 C625 1.400 . S
C629 C628 1.385 . S
C630 C628 1.478 . S
C630 C632 1.381 . S
C630 C636 1.383 . S
C631 C627 1.495 . S
C631 H637 0.959 . S
C631 H638 0.961 . S
C631 H639 0.960 . S
C632 C630 1.381 . S
C632 C633 1.394 . S
C632 H640 0.930 . S
C633 C632 1.394 . S
C633 C634 1.383 . S
C633 H641 0.929 . S
C634 C633 1.383 . S
C634 C635 1.377 . S
C635 H619 0.930 . S
C635 C634 1.377 . S
C635 C636 1.379 . S
C636 H620 0.931 . S
C636 C630 1.383 . S
C636 C635 1.379 . S
H637 C631 0.959 . S
H638 C631 0.961 . S
H639 C631 0.960 . S
H640 C632 0.930 . S
H641 C633 0.929 . S
H642 C650 0.929 . S
H643 C652 0.930 . S
H644 C654 0.930 . S
H645 C657 0.929 1_455 S
H646 C660 0.930 . S
H647 C662 0.960 . S
H648 C662 0.960 . S
H649 C662 0.960 . S
C650 H642 0.929 . S
C650 C651 1.377 . S
C650 C652 1.384 . S
C651 C650 1.377 . S
C651 C657 1.390 . S
C652 H643 0.930 . S
C652 C650 1.384 . S
C652 C653 1.372 . S
C653 C652 1.372 . S
C653 C654 1.400 . S
C653 C658 1.490 . S
C654 H644 0.930 . S
C654 C653 1.400 . S
C654 C657 1.386 . S
H655 C671 0.930 . S
H656 C672 0.931 . S
C657 H645 0.929 1_655 S
C657 C651 1.390 . S
C657 C654 1.386 . S
C658 C653 1.490 . S
C658 C660 1.395 . S
C658 C661 1.403 . S
H659 C665 0.930 . S
C660 H646 0.930 . S
C660 C658 1.395 . S
C660 C663 1.403 . S
C661 C658 1.403 . S
C661 C662 1.524 . S
C661 C665 1.400 . S
C662 H647 0.960 . S
C662 H648 0.960 . S
C662 H649 0.960 . S
C662 C661 1.524 . S
C663 C660 1.403 . S
C663 C664 1.392 . S
C663 C667 1.495 . S
C664 C663 1.392 . S
C664 C665 1.385 . S
C664 C666 1.478 . S
C665 H659 0.930 . S
C665 C661 1.400 . S
C665 C664 1.385 . S
C666 C664 1.478 . S
C666 C668 1.381 . S
C666 C672 1.383 . S
C667 C663 1.495 . S
C667 H673 0.959 . S
C667 H674 0.961 . S
C667 H675 0.960 . S
C668 C666 1.381 . S
C668 C669 1.394 . S
C668 H676 0.930 . S
C669 C668 1.394 . S
C669 C670 1.383 . S
C669 H677 0.929 . S
C670 C669 1.383 . S
C670 C671 1.377 . S
C671 H655 0.930 . S
C671 C670 1.377 . S
C671 C672 1.379 . S
C672 H656 0.931 . S
C672 C666 1.383 . S
C672 C671 1.379 . S
H673 C667 0.959 . S
H674 C667 0.961 . S
H675 C667 0.960 . S
H676 C668 0.930 . S
H677 C669 0.929 . S
H678 C686 0.929 . S
H679 C688 0.930 . S
H680 C690 0.930 . S
H681 C693 0.929 . S
H682 C696 0.930 . S
H683 C698 0.960 . S
H684 C698 0.960 . S
H685 C698 0.960 . S
C686 H678 0.929 . S
C686 C687 1.377 . S
C686 C688 1.384 . S
C687 C686 1.377 . S
C687 C693 1.390 . S
C688 H679 0.930 . S
C688 C686 1.384 . S
C688 C689 1.372 . S
C689 C688 1.372 . S
C689 C690 1.400 . S
C689 C694 1.490 . S
C690 H680 0.930 . S
C690 C689 1.400 . S
C690 C693 1.386 . S
H691 C707 0.930 . S
H692 C708 0.931 . S
C693 H681 0.929 . S
C693 C687 1.390 . S
C693 C690 1.386 . S
C694 C689 1.490 . S
C694 C696 1.395 . S
C694 C697 1.403 . S
H695 C701 0.930 . S
C696 H682 0.930 . S
C696 C694 1.395 . S
C696 C699 1.403 . S
C697 C694 1.403 . S
C697 C698 1.524 . S
C697 C701 1.400 . S
C698 H683 0.960 . S
C698 H684 0.960 . S
C698 H685 0.960 . S
C698 C697 1.524 . S
C699 C696 1.403 . S
C699 C700 1.392 . S
C699 C703 1.495 . S
C700 C699 1.392 . S
C700 C701 1.385 . S
C700 C702 1.478 . S
C701 H695 0.930 . S
C701 C697 1.400 . S
C701 C700 1.385 . S
C702 C700 1.478 . S
C702 C704 1.381 . S
C702 C708 1.383 . S
C703 C699 1.495 . S
C703 H709 0.959 . S
C703 H710 0.961 . S
C703 H711 0.960 . S
C704 C702 1.381 . S
C704 C705 1.394 . S
C704 H712 0.930 . S
C705 C704 1.394 . S
C705 C706 1.383 . S
C705 H713 0.929 . S
C706 C705 1.383 . S
C706 C707 1.377 . S
C707 H691 0.930 . S
C707 C706 1.377 . S
C707 C708 1.379 . S
C708 H692 0.931 . S
C708 C702 1.383 . S
C708 C707 1.379 . S
H709 C703 0.959 . S
H710 C703 0.961 . S
H711 C703 0.960 . S
H712 C704 0.930 . S
H713 C705 0.929 . S
H714 C722 0.929 . S
H715 C724 0.930 . S
H716 C726 0.930 . S
H717 C729 0.929 . S
H718 C732 0.930 . S
H719 C734 0.960 . S
H720 C734 0.960 . S
H721 C734 0.960 . S
C722 H714 0.929 . S
C722 C723 1.377 . S
C722 C724 1.384 . S
C723 C722 1.377 . S
C723 C729 1.390 . S
C724 H715 0.930 . S
C724 C722 1.384 . S
C724 C725 1.372 . S
C725 C724 1.372 . S
C725 C726 1.400 . S
C725 C730 1.490 . S
C726 H716 0.930 . S
C726 C725 1.400 . S
C726 C729 1.386 . S
H727 C743 0.930 . S
H728 C744 0.931 . S
C729 H717 0.929 . S
C729 C723 1.390 . S
C729 C726 1.386 . S
C730 C725 1.490 . S
C730 C732 1.395 . S
C730 C733 1.403 . S
H731 C737 0.930 . S
C732 H718 0.930 . S
C732 C730 1.395 . S
C732 C735 1.403 . S
C733 C730 1.403 . S
C733 C734 1.524 . S
C733 C737 1.400 . S
C734 H719 0.960 . S
C734 H720 0.960 . S
C734 H721 0.960 . S
C734 C733 1.524 . S
C735 C732 1.403 . S
C735 C736 1.392 . S
C735 C739 1.495 . S
C736 C735 1.392 . S
C736 C737 1.385 . S
C736 C738 1.478 . S
C737 H731 0.930 . S
C737 C733 1.400 . S
C737 C736 1.385 . S
C738 C736 1.478 . S
C738 C740 1.381 . S
C738 C744 1.383 1_655 S
C739 C735 1.495 . S
C739 H745 0.959 . S
C739 H746 0.961 . S
C739 H747 0.960 . S
C740 C738 1.381 . S
C740 C741 1.394 . S
C740 H748 0.930 . S
C741 C740 1.394 . S
C741 C742 1.383 1_655 S
C741 H749 0.929 . S
C742 C741 1.383 1_455 S
C742 C743 1.377 . S
C743 H727 0.930 . S
C743 C742 1.377 . S
C743 C744 1.379 . S
C744 H728 0.931 . S
C744 C738 1.383 1_455 S
C744 C743 1.379 . S
H745 C739 0.959 . S
H746 C739 0.961 . S
H747 C739 0.960 . S
H748 C740 0.930 . S
H749 C741 0.929 . S
H750 C758 0.929 . S
H751 C760 0.930 . S
H752 C762 0.930 . S
H753 C765 0.929 . S
H754 C768 0.930 . S
H755 C770 0.960 . S
H756 C770 0.960 . S
H757 C770 0.960 . S
C758 H750 0.929 . S
C758 C759 1.377 . S
C758 C760 1.384 . S
C759 C758 1.377 . S
C759 C765 1.390 . S
C760 H751 0.930 . S
C760 C758 1.384 . S
C760 C761 1.372 . S
C761 C760 1.372 . S
C761 C762 1.400 . S
C761 C766 1.490 . S
C762 H752 0.930 . S
C762 C761 1.400 . S
C762 C765 1.386 . S
H763 C779 0.930 . S
H764 C780 0.931 . S
C765 H753 0.929 . S
C765 C759 1.390 . S
C765 C762 1.386 . S
C766 C761 1.490 . S
C766 C768 1.395 . S
C766 C769 1.403 . S
H767 C773 0.930 . S
C768 H754 0.930 . S
C768 C766 1.395 . S
C768 C771 1.403 . S
C769 C766 1.403 . S
C769 C770 1.524 . S
C769 C773 1.400 . S
C770 H755 0.960 . S
C770 H756 0.960 . S
C770 H757 0.960 . S
C770 C769 1.524 . S
C771 C768 1.403 . S
C771 C772 1.392 . S
C771 C775 1.495 . S
C772 C771 1.392 . S
C772 C773 1.385 . S
C772 C774 1.478 . S
C773 H767 0.930 . S
C773 C769 1.400 . S
C773 C772 1.385 . S
C774 C772 1.478 . S
C774 C776 1.364 1_565 S
C774 C780 1.383 . S
C775 C771 1.495 . S
C775 H781 0.959 . S
C775 H782 0.961 . S
C775 H783 0.960 . S
C776 C774 1.364 1_545 S
C776 C777 1.398 . S
C776 H784 0.944 . S
C777 C776 1.398 . S
C777 C778 1.383 1_545 S
C777 H785 0.929 . S
C778 C777 1.383 1_565 S
C778 C779 1.377 . S
C779 H763 0.930 . S
C779 C778 1.377 . S
C779 C780 1.379 . S
C780 H764 0.931 . S
C780 C774 1.383 . S
C780 C779 1.379 . S
H781 C775 0.959 . S
H782 C775 0.961 . S
H783 C775 0.960 . S
H784 C776 0.944 . S
H785 C777 0.929 . S
C147 C85 1.362 . S
C166 C16 1.365 . S
C183 C108 1.362 . S
C202 C39 1.365 . S
C219 C131 1.362 . S
C238 C62 1.365 . S
C255 C18 1.872 . S
C274 C67 1.868 . S
C291 C41 1.870 . S
C310 C90 1.875 . S
C327 C64 1.871 . S
C346 C113 1.871 . S
C363 C87 1.870 . S
C382 C136 1.870 1_655 S
C399 C110 1.868 . S
C418 C21 1.880 . S
C435 C133 1.868 . S
C454 C44 1.882 . S
C471 C17 0.790 . S
C490 C86 0.799 . S
C507 C40 0.787 . S
C526 C109 0.781 . S
C543 C63 0.790 . S
C562 C132 0.798 . S
C579 C20 0.584 . S
C598 C42 0.494 . S
C615 C43 0.560 . S
C634 C65 0.647 . S
C651 C66 0.601 . S
C670 C88 0.459 . S
C687 C89 0.570 . S
C706 C111 0.633 . S
C723 C112 0.564 . S
C742 C134 0.645 . S
C759 C135 0.591 . S
C778 C19 0.467 . S
