# Generated by pormake.
# Topology wjg, (4)-cn, num edge types: 1
# Building blocks:
#     Node 0, Type 0, BuildingBlock: UXUYUI_clean_sbu_0, # of connection points: 4
#     Node 1, Type 0, BuildingBlock: UXUYUI_clean_sbu_0, # of connection points: 4
#     Node 2, Type 0, BuildingBlock: UXUYUI_clean_sbu_0, # of connection points: 4
#     Node 3, Type 0, BuildingBlock: UXUYUI_clean_sbu_0, # of connection points: 4
#     Node 4, Type 0, BuildingBlock: UXUYUI_clean_sbu_0, # of connection points: 4
#     Node 5, Type 0, BuildingBlock: UXUYUI_clean_sbu_0, # of connection points: 4
#     Node 6, Type 0, BuildingBlock: UXUYUI_clean_sbu_0, # of connection points: 4
#     Node 7, Type 0, BuildingBlock: UXUYUI_clean_sbu_0, # of connection points: 4
#     Node 8, Type 0, BuildingBlock: UXUYUI_clean_sbu_0, # of connection points: 4
#     Node 9, Type 0, BuildingBlock: UXUYUI_clean_sbu_0, # of connection points: 4
#     Node 10, Type 0, BuildingBlock: UXUYUI_clean_sbu_0, # of connection points: 4
#     Node 11, Type 0, BuildingBlock: UXUYUI_clean_sbu_0, # of connection points: 4
#     Edge 12, Type (0, 0), BuildingBlock: XUDNAN_clean_linker_2, # of connection points: 2
#     Edge 13, Type (0, 0), BuildingBlock: XUDNAN_clean_linker_2, # of connection points: 2
#     Edge 14, Type (0, 0), BuildingBlock: XUDNAN_clean_linker_2, # of connection points: 2
#     Edge 15, Type (0, 0), BuildingBlock: XUDNAN_clean_linker_2, # of connection points: 2
#     Edge 16, Type (0, 0), BuildingBlock: XUDNAN_clean_linker_2, # of connection points: 2
#     Edge 17, Type (0, 0), BuildingBlock: XUDNAN_clean_linker_2, # of connection points: 2
#     Edge 18, Type (0, 0), BuildingBlock: XUDNAN_clean_linker_2, # of connection points: 2
#     Edge 19, Type (0, 0), BuildingBlock: XUDNAN_clean_linker_2, # of connection points: 2
#     Edge 20, Type (0, 0), BuildingBlock: XUDNAN_clean_linker_2, # of connection points: 2
#     Edge 21, Type (0, 0), BuildingBlock: XUDNAN_clean_linker_2, # of connection points: 2
#     Edge 22, Type (0, 0), BuildingBlock: XUDNAN_clean_linker_2, # of connection points: 2
#     Edge 23, Type (0, 0), BuildingBlock: XUDNAN_clean_linker_2, # of connection points: 2
#     Edge 24, Type (0, 0), BuildingBlock: XUDNAN_clean_linker_2, # of connection points: 2
#     Edge 25, Type (0, 0), BuildingBlock: XUDNAN_clean_linker_2, # of connection points: 2
#     Edge 26, Type (0, 0), BuildingBlock: XUDNAN_clean_linker_2, # of connection points: 2
#     Edge 27, Type (0, 0), BuildingBlock: XUDNAN_clean_linker_2, # of connection points: 2
#     Edge 28, Type (0, 0), BuildingBlock: XUDNAN_clean_linker_2, # of connection points: 2
#     Edge 29, Type (0, 0), BuildingBlock: XUDNAN_clean_linker_2, # of connection points: 2
#     Edge 30, Type (0, 0), BuildingBlock: XUDNAN_clean_linker_2, # of connection points: 2
#     Edge 31, Type (0, 0), BuildingBlock: XUDNAN_clean_linker_2, # of connection points: 2
#     Edge 32, Type (0, 0), BuildingBlock: XUDNAN_clean_linker_2, # of connection points: 2
#     Edge 33, Type (0, 0), BuildingBlock: XUDNAN_clean_linker_2, # of connection points: 2
#     Edge 34, Type (0, 0), BuildingBlock: XUDNAN_clean_linker_2, # of connection points: 2
#     Edge 35, Type (0, 0), BuildingBlock: XUDNAN_clean_linker_2, # of connection points: 2
# Relax obj value: 0.406
# Max RMSD: 0.171
# Mean RMSD: 0.170
data_MOF--net-wjg--node1-UXUYUI_clean_sbu_0--edge1-XUDNAN_clean_linker_2
_symmetry_space_group_name_H-M    P1
_symmetry_Int_Tables_number       1
_symmetry_cell_setting            triclinic
loop_
_symmetry_equiv_pos_as_xyz
'x, y, z'
_cell_length_a     51.81317
_cell_length_b     51.767063
_cell_length_c     52.916828
_cell_angle_alpha  90.010187
_cell_angle_beta   89.979338
_cell_angle_gamma 120.04049
loop_
_atom_site_label
_atom_site_type_symbol
_atom_site_fract_x
_atom_site_fract_y
_atom_site_fract_z
_atom_type_partial_charge
Li0 Li 0.20559 0.44877 0.29697 0.0
Li1 Li 0.17228 0.40714 0.32424 0.0
Li2 Li 0.19798 0.39957 0.28883 0.0
Li3 Li 0.1577 0.41002 0.28181 0.0
C4 C 0.24174 0.44463 0.32968 0.0
N5 N 0.29445 0.48825 0.35093 0.0
C6 C 0.24292 0.45167 0.35532 0.0
C7 C 0.26751 0.45963 0.31493 0.0
C8 C 0.26975 0.47379 0.3657 0.0
C9 C 0.29389 0.48169 0.32598 0.0
C10 C 0.1474 0.4492 0.30481 0.0
C11 C 0.09973 0.44652 0.30842 0.0
N12 N 0.10931 0.47005 0.29232 0.0
C13 C 0.15687 0.47348 0.28844 0.0
C14 C 0.11869 0.4357 0.31502 0.0
C15 C 0.13725 0.48365 0.28231 0.0
C16 C 0.25177 0.50664 0.28026 0.0
N17 N 0.2325 0.49029 0.29895 0.0
C18 C 0.25314 0.53224 0.32667 0.0
C19 C 0.23233 0.50259 0.32156 0.0
C20 C 0.27407 0.54969 0.30812 0.0
C21 C 0.27283 0.53665 0.28444 0.0
H22 H 0.25122 0.49622 0.26241 0.0
H23 H 0.21666 0.4889 0.33602 0.0
C24 C 0.17081 0.37782 0.3684 0.0
N25 N 0.16409 0.39807 0.35875 0.0
C26 C 0.1773 0.37841 0.39399 0.0
C27 C 0.16836 0.41972 0.39936 0.0
C28 C 0.16137 0.41791 0.37371 0.0
C29 C 0.17787 0.40075 0.40934 0.0
H30 H 0.1745 0.36352 0.35587 0.0
H31 H 0.1572 0.43449 0.36526 0.0
C32 C 0.20622 0.41941 0.24339 0.0
N33 N 0.22483 0.39951 0.20267 0.0
C34 C 0.18527 0.39689 0.22778 0.0
C35 C 0.23662 0.43185 0.23829 0.0
C36 C 0.19514 0.38714 0.20727 0.0
C37 C 0.24558 0.42146 0.21762 0.0
C38 C 0.13585 0.35091 0.31263 0.0
C39 C 0.14042 0.3267 0.31607 0.0
C40 C 0.11169 0.35086 0.32445 0.0
C41 C 0.12074 0.30288 0.33131 0.0
C42 C 0.09253 0.32663 0.33956 0.0
N43 N 0.09741 0.30334 0.34265 0.0
C44 C 0.24081 0.38202 0.29208 0.0
C45 C 0.19876 0.3498 0.26728 0.0
C46 C 0.24996 0.36093 0.29287 0.0
N47 N 0.21509 0.37574 0.28019 0.0
C48 C 0.20703 0.3279 0.26768 0.0
C49 C 0.23228 0.33291 0.28154 0.0
H50 H 0.25298 0.40235 0.30274 0.0
H51 H 0.178 0.34508 0.25849 0.0
C52 C 0.13244 0.42362 0.24115 0.0
N53 N 0.12604 0.40362 0.26013 0.0
C54 C 0.11042 0.4198 0.22395 0.0
C55 C 0.07558 0.37497 0.24632 0.0
C56 C 0.09829 0.37966 0.26307 0.0
C57 C 0.08161 0.39505 0.22629 0.0
H58 H 0.15483 0.44234 0.23921 0.0
H59 H 0.09386 0.36399 0.27818 0.0
O60 O 0.21546 0.4235 0.31899 0.0
O61 O 0.16602 0.43849 0.31057 0.0
O62 O 0.19704 0.42878 0.26388 0.0
O63 O 0.15499 0.37457 0.29791 0.0
H64 H 0.22339 0.44035 0.36711 0.0
H65 H 0.267 0.45465 0.29502 0.0
H66 H 0.2709 0.47949 0.3855 0.0
H67 H 0.31388 0.49366 0.31471 0.0
H68 H 0.0774 0.43621 0.31609 0.0
H69 H 0.17898 0.48409 0.28028 0.0
H70 H 0.11111 0.41705 0.32789 0.0
H71 H 0.14419 0.50228 0.26952 0.0
H72 H 0.25348 0.54093 0.34535 0.0
H73 H 0.28819 0.54933 0.26943 0.0
H74 H 0.18513 0.36388 0.40098 0.0
H75 H 0.16889 0.43739 0.41073 0.0
H76 H 0.16167 0.3868 0.23162 0.0
H77 H 0.25311 0.44923 0.25024 0.0
H78 H 0.17918 0.36964 0.19508 0.0
H79 H 0.26904 0.43082 0.21348 0.0
H80 H 0.15909 0.32639 0.3073 0.0
H81 H 0.108 0.36951 0.32222 0.0
H82 H 0.12407 0.28406 0.33419 0.0
H83 H 0.07383 0.32639 0.34889 0.0
H84 H 0.2693 0.36567 0.30413 0.0
H85 H 0.19288 0.30667 0.25854 0.0
H86 H 0.11614 0.43557 0.20859 0.0
H87 H 0.05358 0.35575 0.24894 0.0
Li88 Li 0.753 0.19161 0.64555 0.0
Li89 Li 0.76354 0.15542 0.66599 0.0
Li90 Li 0.79426 0.18664 0.63114 0.0
Li91 Li 0.74322 0.14625 0.62393 0.0
C92 C 0.79362 0.22236 0.68004 0.0
N93 N 0.80053 0.26866 0.71073 0.0
C94 C 0.78628 0.21736 0.70569 0.0
C95 C 0.80471 0.25104 0.67007 0.0
C96 C 0.78994 0.24104 0.72089 0.0
C97 C 0.80791 0.2741 0.68586 0.0
C98 C 0.69503 0.13124 0.65252 0.0
C99 C 0.65191 0.08186 0.65377 0.0
N100 N 0.63491 0.09294 0.64453 0.0
C101 C 0.67711 0.14221 0.64325 0.0
C102 C 0.68233 0.10089 0.65805 0.0
C103 C 0.64677 0.12246 0.63926 0.0
C104 C 0.745 0.24101 0.63603 0.0
N105 N 0.73933 0.21862 0.65244 0.0
C106 C 0.72022 0.23858 0.68307 0.0
C107 C 0.72646 0.21653 0.6753 0.0
C108 C 0.72727 0.26288 0.66708 0.0
C109 C 0.73912 0.26354 0.64302 0.0
H110 H 0.75515 0.24198 0.61795 0.0
H111 H 0.72236 0.19845 0.68795 0.0
C112 C 0.79448 0.14724 0.70483 0.0
N113 N 0.76674 0.14114 0.6979 0.0
C114 C 0.80079 0.14512 0.73005 0.0
C115 C 0.74971 0.13014 0.74053 0.0
C116 C 0.74415 0.13178 0.71491 0.0
C117 C 0.77858 0.13777 0.74828 0.0
H118 H 0.81236 0.15621 0.69116 0.0
H119 H 0.72262 0.12814 0.70893 0.0
C120 C 0.7794 0.19988 0.589 0.0
N121 N 0.81514 0.22425 0.54695 0.0
C122 C 0.77735 0.18162 0.56875 0.0
C123 C 0.79956 0.23054 0.58786 0.0
C124 C 0.79561 0.19437 0.54765 0.0
C125 C 0.81747 0.24242 0.56644 0.0
C126 C 0.78415 0.12257 0.64501 0.0
C127 C 0.81379 0.1292 0.64653 0.0
C128 C 0.76135 0.09493 0.65352 0.0
C129 C 0.82012 0.10809 0.65672 0.0
C130 C 0.76859 0.07443 0.6636 0.0
N131 N 0.79758 0.08138 0.66499 0.0
C132 C 0.85445 0.23028 0.6332 0.0
C133 C 0.84341 0.19303 0.60228 0.0
C134 C 0.8849 0.24157 0.62999 0.0
N135 N 0.83446 0.20601 0.61992 0.0
C136 C 0.87379 0.20349 0.59857 0.0
C137 C 0.89491 0.2275 0.61315 0.0
H138 H 0.84684 0.23969 0.64754 0.0
H139 H 0.82697 0.17336 0.59234 0.0
C140 C 0.69604 0.12001 0.58877 0.0
N141 N 0.71762 0.11683 0.60053 0.0
C142 C 0.6779 0.09939 0.57054 0.0
C143 C 0.70514 0.07317 0.57643 0.0
C144 C 0.72249 0.09407 0.59471 0.0
C145 C 0.68262 0.0758 0.56402 0.0
H146 H 0.69334 0.13891 0.59316 0.0
H147 H 0.74028 0.0925 0.60384 0.0
O148 O 0.78959 0.1993 0.66468 0.0
O149 O 0.72482 0.15016 0.65633 0.0
O150 O 0.76219 0.18775 0.61006 0.0
O151 O 0.77749 0.14303 0.63525 0.0
H152 H 0.77769 0.19545 0.71384 0.0
H153 H 0.8102 0.25531 0.65022 0.0
H154 H 0.78427 0.23742 0.74075 0.0
H155 H 0.81613 0.29628 0.67831 0.0
H156 H 0.6418 0.05828 0.65784 0.0
H157 H 0.68658 0.16565 0.63888 0.0
H158 H 0.69581 0.09213 0.66556 0.0
H159 H 0.63266 0.13059 0.63192 0.0
H160 H 0.71135 0.23735 0.70185 0.0
H161 H 0.74442 0.28165 0.62997 0.0
H162 H 0.82346 0.15189 0.73551 0.0
H163 H 0.73225 0.12485 0.75427 0.0
H164 H 0.76201 0.15783 0.56936 0.0
H165 H 0.80167 0.24495 0.60348 0.0
H166 H 0.79433 0.1805 0.53186 0.0
H167 H 0.83329 0.26608 0.56535 0.0
H168 H 0.83176 0.15052 0.64021 0.0
H169 H 0.73832 0.08943 0.65243 0.0
H170 H 0.84296 0.11298 0.65812 0.0
H171 H 0.75117 0.05299 0.67033 0.0
H172 H 0.9003 0.25975 0.64198 0.0
H173 H 0.88061 0.19208 0.58534 0.0
H174 H 0.66106 0.1024 0.56107 0.0
H175 H 0.7094 0.05522 0.57192 0.0
Li176 Li 0.5903 0.75973 0.9889 0.0
Li177 Li 0.55483 0.76465 0.95971 0.0
Li178 Li 0.58973 0.74722 0.94547 0.0
Li179 Li 0.60893 0.79774 0.95655 0.0
C180 C 0.54187 0.70649 0.98789 0.0
N181 N 0.51393 0.66418 0.0253 0.0
C182 C 0.51396 0.70013 -0.00302 0.0
C183 C 0.55542 0.69111 -0.00236 0.0
C184 C 0.50023 0.67871 0.01594 0.0
C185 C 0.54099 0.66988 0.01661 0.0
C186 C 0.59153 0.82069 0.99351 0.0
C187 C 0.59247 0.86768 0.99097 0.0
N188 N 0.61354 0.87885 0.00944 0.0
C189 C 0.61305 0.83257 0.01259 0.0
C190 C 0.58105 0.83832 0.98266 0.0
C191 C 0.62395 0.86204 0.02033 0.0
C192 C 0.62478 0.76557 0.03136 0.0
N193 N 0.59642 0.75558 0.02336 0.0
C194 C 0.58037 0.75658 0.06536 0.0
C195 C 0.57417 0.75032 0.03977 0.0
C196 C 0.60996 0.76945 0.07393 0.0
C197 C 0.63211 0.7727 0.05678 0.0
H198 H 0.6422 0.77061 0.0177 0.0
H199 H 0.55211 0.74358 0.03275 0.0
C200 C 0.49618 0.74174 0.94085 0.0
N201 N 0.51608 0.75937 0.9587 0.0
C202 C 0.46648 0.73493 0.94231 0.0
C203 C 0.47875 0.76515 0.9801 0.0
C204 C 0.50803 0.77112 0.97803 0.0
C205 C 0.45747 0.7465 0.9623 0.0
H206 H 0.50319 0.7323 0.92595 0.0
H207 H 0.5241 0.78423 0.99241 0.0
C208 C 0.64474 0.76435 0.95826 0.0
N209 N 0.68428 0.74792 0.93967 0.0
C210 C 0.66517 0.78142 0.93946 0.0
C211 C 0.64466 0.73916 0.96783 0.0
C212 C 0.68494 0.7727 0.93027 0.0
C213 C 0.66474 0.73114 0.9581 0.0
C214 C 0.58601 0.79829 0.91164 0.0
C215 C 0.61179 0.81025 0.89683 0.0
C216 C 0.56613 0.80893 0.90885 0.0
C217 C 0.61734 0.83282 0.87951 0.0
C218 C 0.57247 0.83151 0.8913 0.0
N219 N 0.59773 0.84289 0.87712 0.0
C220 C 0.57803 0.6906 0.92824 0.0
C221 C 0.61156 0.73151 0.90294 0.0
C222 C 0.58182 0.67082 0.91286 0.0
N223 N 0.59315 0.72033 0.92321 0.0
C224 C 0.61636 0.71267 0.8873 0.0
C225 C 0.60154 0.68184 0.89223 0.0
H226 H 0.56322 0.68225 0.94431 0.0
H227 H 0.62319 0.7552 0.89931 0.0
C228 C 0.66441 0.8445 0.96793 0.0
N229 N 0.64009 0.83858 0.9539 0.0
C230 C 0.68635 0.87379 0.97291 0.0
C231 C 0.65868 0.89077 0.94797 0.0
C232 C 0.63703 0.861 0.94364 0.0
C233 C 0.68338 0.89747 0.96339 0.0
H234 H 0.66584 0.82647 0.9768 0.0
H235 H 0.61699 0.85601 0.93353 0.0
O236 O 0.55577 0.72752 0.96944 0.0
O237 O 0.58125 0.79218 0.98512 0.0
O238 O 0.62486 0.77223 0.96719 0.0
O239 O 0.57991 0.77586 0.92842 0.0
H240 H 0.50302 0.71164 0.98958 0.0
H241 H 0.57695 0.69567 0.99076 0.0
H242 H 0.47869 0.67366 0.02323 0.0
H243 H 0.55131 0.65794 0.02443 0.0
H244 H 0.58474 0.88165 0.9826 0.0
H245 H 0.62155 0.81932 0.02109 0.0
H246 H 0.56465 0.82959 0.96767 0.0
H247 H 0.64077 0.87159 0.03494 0.0
H248 H 0.56248 0.75316 0.07799 0.0
H249 H 0.65525 0.78287 0.06242 0.0
H250 H 0.45069 0.7205 0.92821 0.0
H251 H 0.47258 0.77401 -0.00394 0.0
H252 H 0.66548 0.80095 0.9318 0.0
H253 H 0.62918 0.72588 0.98253 0.0
H254 H 0.70072 0.78556 0.91559 0.0
H255 H 0.66479 0.71158 0.96521 0.0
H256 H 0.62755 0.80249 0.89889 0.0
H257 H 0.54607 0.79993 0.92013 0.0
H258 H 0.63729 0.8424 0.86801 0.0
H259 H 0.55733 0.84 0.88897 0.0
H260 H 0.5695 0.64721 0.91716 0.0
H261 H 0.6322 0.72238 0.87196 0.0
H262 H 0.70446 0.87766 0.98543 0.0
H263 H 0.65548 0.90828 0.94014 0.0
Li264 Li 0.82653 0.59447 0.32564 0.0
Li265 Li 0.79095 0.55269 0.30072 0.0
Li266 Li 0.83543 0.5925 0.28017 0.0
Li267 Li 0.79474 0.59997 0.29463 0.0
C268 C 0.86102 0.56875 0.31287 0.0
N269 N 0.91712 0.57687 0.32205 0.0
C270 C 0.86447 0.54435 0.31882 0.0
C271 C 0.88613 0.59726 0.3115 0.0
C272 C 0.89301 0.54892 0.32346 0.0
C273 C 0.9143 0.60091 0.3162 0.0
C274 C 0.761 0.55412 0.33989 0.0
C275 C 0.70927 0.51742 0.34682 0.0
N276 N 0.71701 0.50804 0.36801 0.0
C277 C 0.76842 0.544 0.36172 0.0
C278 C 0.73116 0.54065 0.33236 0.0
C279 C 0.74586 0.52075 0.37569 0.0
C280 C 0.8248 0.61674 0.3717 0.0
N281 N 0.84084 0.60658 0.35916 0.0
C282 C 0.86341 0.60407 0.39775 0.0
C283 C 0.86052 0.60093 0.37151 0.0
C284 C 0.8454 0.61242 0.41136 0.0
C285 C 0.82672 0.61985 0.39782 0.0
H286 H 0.80846 0.61991 0.36166 0.0
H287 H 0.87255 0.59215 0.36147 0.0
C288 C 0.73821 0.497 0.29148 0.0
N289 N 0.76485 0.51102 0.30366 0.0
C290 C 0.71628 0.46852 0.29911 0.0
C291 C 0.75062 0.46876 0.33021 0.0
C292 C 0.77182 0.49715 0.32197 0.0
C293 C 0.72204 0.45462 0.31943 0.0
H294 H 0.7332 0.50873 0.27717 0.0
H295 H 0.79307 0.50908 0.33153 0.0
C296 C 0.85313 0.65424 0.30954 0.0
N297 N 0.88308 0.71133 0.32935 0.0
C298 C 0.83783 0.66501 0.32385 0.0
C299 C 0.88367 0.67267 0.30515 0.0
C300 C 0.85335 0.69388 0.33374 0.0
C301 C 0.89841 0.70141 0.31538 0.0
C302 C 0.77912 0.57941 0.24987 0.0
C303 C 0.79498 0.59737 0.22936 0.0
C304 C 0.74877 0.56977 0.25246 0.0
C305 C 0.78024 0.60561 0.21184 0.0
C306 C 0.73485 0.57853 0.23456 0.0
N307 N 0.75074 0.59612 0.21479 0.0
C308 C 0.87307 0.58102 0.25004 0.0
C309 C 0.87921 0.62933 0.2449 0.0
C310 C 0.89694 0.58814 0.23384 0.0
N311 N 0.86517 0.60176 0.25558 0.0
C312 C 0.9029 0.63724 0.22825 0.0
C313 C 0.91229 0.61664 0.22296 0.0
H314 H 0.8613 0.5592 0.25872 0.0
H315 H 0.8723 0.64528 0.24967 0.0
C316 C 0.75375 0.61806 0.30679 0.0
N317 N 0.77569 0.62291 0.29016 0.0
C318 C 0.74443 0.6389 0.30944 0.0
C319 C 0.77947 0.66878 0.27688 0.0
C320 C 0.78808 0.64723 0.2748 0.0
C321 C 0.75808 0.6652 0.29504 0.0
H322 H 0.74516 0.5993 0.31949 0.0
H323 H 0.80611 0.65094 0.26227 0.0
O324 O 0.83325 0.56444 0.3077 0.0
O325 O 0.78287 0.57644 0.32558 0.0
O326 O 0.83831 0.62613 0.29937 0.0
O327 O 0.79327 0.57154 0.26746 0.0
H328 H 0.84531 0.52207 0.31974 0.0
H329 H 0.8839 0.61633 0.30691 0.0
H330 H 0.89599 0.53023 0.32811 0.0
H331 H 0.9339 0.62287 0.3152 0.0
H332 H 0.68614 0.50669 0.34109 0.0
H333 H 0.79136 0.55348 0.36759 0.0
H334 H 0.72497 0.5476 0.31523 0.0
H335 H 0.75134 0.51263 0.39252 0.0
H336 H 0.87835 0.59841 0.40738 0.0
H337 H 0.8118 0.62564 0.40733 0.0
H338 H 0.69444 0.45848 0.29044 0.0
H339 H 0.75603 0.45865 0.34571 0.0
H340 H 0.81423 0.65128 0.32738 0.0
H341 H 0.89591 0.66499 0.29385 0.0
H342 H 0.84174 0.70242 0.34487 0.0
H343 H 0.92204 0.71586 0.31215 0.0
H344 H 0.81844 0.60495 0.22703 0.0
H345 H 0.73623 0.5561 0.26834 0.0
H346 H 0.79226 0.61958 0.19591 0.0
H347 H 0.71143 0.57143 0.23643 0.0
H348 H 0.90345 0.57164 0.22997 0.0
H349 H 0.91437 0.65949 0.22025 0.0
H350 H 0.72835 0.63544 0.32403 0.0
H351 H 0.79043 0.68867 0.2653 0.0
Li352 Li 0.25445 0.84564 0.67104 0.0
Li353 Li 0.25073 0.80367 0.64538 0.0
Li354 Li 0.25678 0.84962 0.62577 0.0
Li355 Li 0.21089 0.81551 0.64458 0.0
C356 C 0.31112 0.87185 0.65 0.0
N357 N 0.36397 0.92566 0.65178 0.0
C358 C 0.33821 0.87283 0.64575 0.0
C359 C 0.31088 0.89822 0.65518 0.0
C360 C 0.3647 0.90027 0.64674 0.0
C361 C 0.33785 0.9252 0.65598 0.0
C362 C 0.21221 0.78073 0.69059 0.0
C363 C 0.18984 0.72896 0.70269 0.0
N364 N 0.18646 0.73627 0.72667 0.0
C365 C 0.20824 0.78764 0.71532 0.0
C366 C 0.20277 0.75109 0.68419 0.0
C367 C 0.19531 0.7649 0.73329 0.0
C368 C 0.25765 0.87522 0.71842 0.0
N369 N 0.26791 0.86052 0.70401 0.0
C370 C 0.28051 0.84235 0.74053 0.0
C371 C 0.28134 0.84637 0.71451 0.0
C372 C 0.26572 0.85312 0.75572 0.0
C373 C 0.25629 0.87173 0.74465 0.0
H374 H 0.24778 0.88704 0.70967 0.0
H375 H 0.28931 0.835 0.70249 0.0
C376 C 0.25404 0.75259 0.62915 0.0
N377 N 0.2613 0.77386 0.64713 0.0
C378 C 0.25939 0.72903 0.63344 0.0
C379 C 0.28033 0.75048 0.67419 0.0
C380 C 0.27467 0.77353 0.66908 0.0
C381 C 0.27223 0.72754 0.65644 0.0
H382 H 0.24335 0.75345 0.61188 0.0
H383 H 0.27978 0.79058 0.6831 0.0
C384 C 0.21703 0.86873 0.66384 0.0
N385 N 0.18437 0.88599 0.6936 0.0
C386 C 0.19784 0.84958 0.6825 0.0
C387 C 0.21955 0.89667 0.66038 0.0
C388 C 0.18151 0.85869 0.69731 0.0
C389 C 0.2029 0.905 0.67561 0.0
C390 C 0.20544 0.79286 0.60061 0.0
C391 C 0.19793 0.80874 0.58366 0.0
C392 C 0.18676 0.76207 0.60326 0.0
C393 C 0.17164 0.79347 0.56966 0.0
C394 C 0.16065 0.74764 0.58893 0.0
N395 N 0.15369 0.76351 0.57258 0.0
C396 C 0.29056 0.86877 0.58158 0.0
C397 C 0.27574 0.9021 0.59782 0.0
C398 C 0.30575 0.88825 0.56172 0.0
N399 N 0.276 0.87605 0.599 0.0
C400 C 0.29061 0.92223 0.57831 0.0
C401 C 0.30584 0.91536 0.55992 0.0
H402 H 0.29038 0.84786 0.58321 0.0
H403 H 0.26419 0.9073 0.61216 0.0
C404 C 0.15071 0.77108 0.65431 0.0
N405 N 0.16837 0.79803 0.64331 0.0
C406 C 0.12035 0.76048 0.65763 0.0
C407 C 0.12641 0.80464 0.63665 0.0
C408 C 0.15672 0.81438 0.63374 0.0
C409 C 0.10798 0.77775 0.64942 0.0
H410 H 0.1603 0.75824 0.66135 0.0
H411 H 0.17123 0.83566 0.62486 0.0
O412 O 0.285 0.8452 0.64875 0.0
O413 O 0.22585 0.80294 0.67295 0.0
O414 O 0.23294 0.86026 0.64865 0.0
O415 O 0.23062 0.80755 0.61498 0.0
H416 H 0.33872 0.8526 0.64167 0.0
H417 H 0.29013 0.89792 0.65845 0.0
H418 H 0.38585 0.90137 0.64347 0.0
H419 H 0.338 0.94578 0.65991 0.0
H420 H 0.18248 0.70596 0.69798 0.0
H421 H 0.21501 0.8103 0.72064 0.0
H422 H 0.20514 0.74517 0.66508 0.0
H423 H 0.19236 0.77005 0.75251 0.0
H424 H 0.2881 0.82787 0.7481 0.0
H425 H 0.24547 0.88112 0.75583 0.0
H426 H 0.25308 0.71193 0.61915 0.0
H427 H 0.28973 0.75 0.69234 0.0
H428 H 0.19551 0.82794 0.68562 0.0
H429 H 0.23421 0.91179 0.64603 0.0
H430 H 0.16661 0.84406 0.71178 0.0
H431 H 0.20468 0.92657 0.67311 0.0
H432 H 0.21214 0.83263 0.58153 0.0
H433 H 0.19216 0.74955 0.61651 0.0
H434 H 0.16545 0.80547 0.55654 0.0
H435 H 0.14586 0.72384 0.59089 0.0
H436 H 0.317 0.88202 0.54781 0.0
H437 H 0.29055 0.94311 0.57785 0.0
H438 H 0.1071 0.7397 0.66769 0.0
H439 H 0.1177 0.81839 0.62959 0.0
Li440 Li 0.44429 0.24837 0.97384 0.0
Li441 Li 0.40147 0.24015 -0.00155 0.0
Li442 Li 0.39777 0.20587 0.96468 0.0
Li443 Li 0.40488 0.25407 0.95446 0.0
C444 C 0.43925 0.20822 0.00879 0.0
N445 N 0.47984 0.19688 0.03307 0.0
C446 C 0.44131 0.20935 0.03515 0.0
C447 C 0.45729 0.20044 0.99488 0.0
C448 C 0.46206 0.20372 0.04706 0.0
C449 C 0.47787 0.1951 0.00744 0.0
C450 C 0.42636 0.30014 0.98943 0.0
C451 C 0.39215 0.31802 -0.00262 0.0
N452 N 0.41561 0.3456 0.00241 0.0
C453 C 0.45012 0.32863 0.99472 0.0
C454 C 0.39711 0.29472 0.99081 0.0
C455 C 0.44423 0.35133 0.00124 0.0
C456 C 0.50166 0.25935 0.95924 0.0
N457 N 0.48581 0.26423 0.97716 0.0
C458 C 0.52743 0.28509 0.00522 0.0
C459 C 0.49822 0.27757 -0.00048 0.0
C460 C 0.54376 0.2786 0.98774 0.0
C461 C 0.53087 0.26627 0.96424 0.0
H462 H 0.49114 0.24874 0.94163 0.0
H463 H 0.48485 0.28089 0.01343 0.0
C464 C 0.36195 0.23166 0.04018 0.0
N465 N 0.39055 0.24454 0.03177 0.0
C466 C 0.35602 0.22782 0.06604 0.0
C467 C 0.40909 0.2551 0.07392 0.0
C468 C 0.41394 0.25806 0.04793 0.0
C469 C 0.37986 0.23798 0.08315 0.0
H470 H 0.34361 0.2225 0.02704 0.0
H471 H 0.43646 0.26881 0.04063 0.0
C472 C 0.41935 0.21557 0.91999 0.0
N473 N 0.40289 0.17472 0.88103 0.0
C474 C 0.39793 0.21265 0.90241 0.0
C475 C 0.43258 0.19785 0.91762 0.0
C476 C 0.38987 0.19185 0.88288 0.0
C477 C 0.4239 0.17729 0.89784 0.0
C478 C 0.34382 0.19959 0.98189 0.0
C479 C 0.34368 0.17839 -0.00159 0.0
C480 C 0.31689 0.19795 0.97542 0.0
C481 C 0.31659 0.15592 0.0081 0.0
C482 C 0.29028 0.17518 0.98557 0.0
N483 N 0.29067 0.1548 0.00154 0.0
C484 C 0.38508 0.14581 0.96548 0.0
C485 C 0.35062 0.15412 0.9426 0.0
C486 C 0.36643 0.11501 0.9636 0.0
N487 N 0.37657 0.16461 0.95563 0.0
C488 C 0.33099 0.12346 0.94067 0.0
C489 C 0.3384 0.10343 0.95195 0.0
H490 H 0.40566 0.15459 0.97586 0.0
H491 H 0.34427 0.16959 0.93513 0.0
C492 C 0.41736 0.30479 0.92571 0.0
N493 N 0.39603 0.27655 0.93186 0.0
C494 C 0.41056 0.32188 0.90959 0.0
C495 C 0.36018 0.28021 0.90626 0.0
C496 C 0.36787 0.26409 0.92263 0.0
C497 C 0.38167 0.30949 0.89961 0.0
H498 H 0.43957 0.31404 0.93346 0.0
H499 H 0.35145 0.24158 0.92794 0.0
O500 O 0.4194 0.21426 -0.00324 0.0
O501 O 0.43193 0.27781 0.98289 0.0
O502 O 0.42692 0.23527 0.93964 0.0
O503 O 0.36993 0.22143 0.97152 0.0
H504 H 0.4268 0.21409 0.04639 0.0
H505 H 0.45576 0.199 0.97453 0.0
H506 H 0.46393 0.20468 0.06744 0.0
H507 H 0.4923 0.18957 -0.00318 0.0
H508 H 0.36964 0.31417 -0.00153 0.0
H509 H 0.47288 0.33314 0.99375 0.0
H510 H 0.3784 0.27284 0.98681 0.0
H511 H 0.46242 0.37351 0.00535 0.0
H512 H 0.53651 0.29429 0.02363 0.0
H513 H 0.54293 0.2612 0.95022 0.0
H514 H 0.3331 0.21486 0.07231 0.0
H515 H 0.42809 0.26415 0.08653 0.0
H516 H 0.38741 0.22607 0.90393 0.0
H517 H 0.44919 0.19974 0.93097 0.0
H518 H 0.3732 0.18926 0.86923 0.0
H519 H 0.43383 0.16333 0.89588 0.0
H520 H 0.36417 0.17919 0.00379 0.0
H521 H 0.31654 0.21412 0.96269 0.0
H522 H 0.31618 0.13939 0.02085 0.0
H523 H 0.26929 0.17368 0.98071 0.0
H524 H 0.3735 0.1005 0.97199 0.0
H525 H 0.30959 0.11572 0.93169 0.0
H526 H 0.42774 0.34433 0.90473 0.0
H527 H 0.33759 0.27004 0.89913 0.0
Li528 Li 0.59755 0.85959 0.36824 0.0
Li529 Li 0.61604 0.82651 0.35909 0.0
Li530 Li 0.60077 0.84535 0.32527 0.0
Li531 Li 0.56252 0.80664 0.35324 0.0
C532 C 0.65825 0.88785 0.3628 0.0
N533 N 0.70701 0.92619 0.39167 0.0
C534 C 0.66099 0.88032 0.3876 0.0
C535 C 0.68039 0.91485 0.35263 0.0
C536 C 0.68577 0.89999 0.40191 0.0
C537 C 0.70485 0.93395 0.36754 0.0
C538 C 0.58495 0.80404 0.40554 0.0
C539 C 0.56821 0.75619 0.42521 0.0
N540 N 0.58226 0.77021 0.44694 0.0
C541 C 0.59883 0.81797 0.4282 0.0
C542 C 0.56917 0.7729 0.40414 0.0
C543 C 0.59738 0.80048 0.44885 0.0
C544 C 0.58219 0.88011 0.4112 0.0
N545 N 0.59962 0.88931 0.39021 0.0
C546 C 0.62218 0.94014 0.4033 0.0
C547 C 0.61895 0.91867 0.3857 0.0
C548 C 0.60514 0.93123 0.42557 0.0
C549 C 0.58452 0.90085 0.42923 0.0
H550 H 0.56702 0.85656 0.41423 0.0
H551 H 0.63232 0.92539 0.36872 0.0
C552 C 0.66966 0.83044 0.34893 0.0
N553 N 0.64623 0.81618 0.36506 0.0
C554 C 0.68984 0.82041 0.34572 0.0
C555 C 0.66248 0.78206 0.37682 0.0
C556 C 0.64294 0.79311 0.37969 0.0
C557 C 0.68564 0.79518 0.35898 0.0
H558 H 0.67129 0.84808 0.33693 0.0
H559 H 0.62396 0.78172 0.39203 0.0
C560 C 0.55873 0.86041 0.32502 0.0
N561 N 0.54455 0.89084 0.28994 0.0
C562 C 0.53239 0.84534 0.31104 0.0
C563 C 0.57784 0.89094 0.32121 0.0
C564 C 0.52562 0.86113 0.29338 0.0
C565 C 0.57029 0.90593 0.30337 0.0
C566 C 0.60251 0.78684 0.32186 0.0
C567 C 0.62197 0.79621 0.30119 0.0
C568 C 0.59623 0.76062 0.33455 0.0
C569 C 0.6349 0.77936 0.29369 0.0
C570 C 0.60962 0.74439 0.32648 0.0
N571 N 0.62853 0.75402 0.3064 0.0
C572 C 0.63679 0.87399 0.28314 0.0
C573 C 0.58606 0.839 0.27447 0.0
C574 C 0.64434 0.87379 0.25784 0.0
N575 N 0.60825 0.85591 0.29096 0.0
C576 C 0.59251 0.83848 0.249 0.0
C577 C 0.62218 0.85495 0.2407 0.0
H578 H 0.65409 0.88634 0.29689 0.0
H579 H 0.56389 0.82386 0.28146 0.0
C580 C 0.50061 0.78144 0.35761 0.0
N581 N 0.52252 0.77475 0.35366 0.0
C582 C 0.4707 0.75941 0.35508 0.0
C583 C 0.48652 0.72374 0.34578 0.0
C584 C 0.51606 0.74659 0.34786 0.0
C585 C 0.46326 0.73006 0.34881 0.0
H586 H 0.50644 0.80417 0.36185 0.0
H587 H 0.5338 0.7419 0.34438 0.0
O588 O 0.63394 0.86918 0.34849 0.0
O589 O 0.58566 0.82078 0.38524 0.0
O590 O 0.566 0.8453 0.34213 0.0
O591 O 0.59007 0.80344 0.32981 0.0
H592 H 0.64427 0.85948 0.39565 0.0
H593 H 0.67856 0.9211 0.33348 0.0
H594 H 0.68813 0.89441 0.42115 0.0
H595 H 0.72209 0.95497 0.35994 0.0
H596 H 0.55629 0.73208 0.42429 0.0
H597 H 0.61043 0.84202 0.42991 0.0
H598 H 0.55799 0.76174 0.38693 0.0
H599 H 0.60815 0.81097 0.46645 0.0
H600 H 0.63812 0.96342 0.39973 0.0
H601 H 0.57121 0.89308 0.44628 0.0
H602 H 0.70706 0.83084 0.33148 0.0
H603 H 0.6586 0.76253 0.3874 0.0
H604 H 0.51747 0.82165 0.31362 0.0
H605 H 0.59845 0.90283 0.3317 0.0
H606 H 0.50536 0.84975 0.28236 0.0
H607 H 0.58493 0.92954 0.30014 0.0
H608 H 0.62732 0.81639 0.29112 0.0
H609 H 0.58193 0.7533 0.35095 0.0
H610 H 0.65009 0.7865 0.27781 0.0
H611 H 0.6052 0.72428 0.33635 0.0
H612 H 0.66747 0.88668 0.25207 0.0
H613 H 0.57491 0.82323 0.23647 0.0
H614 H 0.45376 0.76564 0.35721 0.0
H615 H 0.4821 0.70143 0.34155 0.0
Li616 Li 0.79691 0.60715 0.70239 0.0
Li617 Li 0.74712 0.59139 0.71375 0.0
Li618 Li 0.76342 0.55388 0.70204 0.0
Li619 Li 0.76088 0.58878 0.66986 0.0
C620 C 0.79468 0.59372 0.75071 0.0
N621 N 0.83605 0.62015 0.78892 0.0
C622 C 0.80167 0.62182 0.75982 0.0
C623 C 0.80843 0.57888 0.76116 0.0
C624 C 0.82274 0.63486 0.7791 0.0
C625 C 0.82936 0.59267 0.78045 0.0
C626 C 0.75821 0.63952 0.68322 0.0
C627 C 0.71622 0.63905 0.6631 0.0
N628 N 0.72808 0.66852 0.66855 0.0
C629 C 0.77008 0.66986 0.68848 0.0
C630 C 0.73115 0.62404 0.67031 0.0
C631 C 0.75448 0.68409 0.68097 0.0
C632 C 0.84637 0.66388 0.69665 0.0
N633 N 0.83789 0.63671 0.7069 0.0
C634 C 0.88874 0.65025 0.71356 0.0
C635 C 0.85831 0.62983 0.71589 0.0
C636 C 0.8981 0.67796 0.70194 0.0
C637 C 0.8765 0.68501 0.6941 0.0
H638 H 0.82978 0.66852 0.68905 0.0
H639 H 0.85111 0.60786 0.72339 0.0
C640 C 0.6976 0.57093 0.74562 0.0
N641 N 0.72104 0.59595 0.7358 0.0
C642 C 0.67881 0.57323 0.76327 0.0
C643 C 0.70868 0.62698 0.76022 0.0
C644 C 0.72699 0.62363 0.74281 0.0
C645 C 0.68435 0.60156 0.77079 0.0
H646 H 0.69379 0.54921 0.74 0.0
H647 H 0.74638 0.64312 0.73542 0.0
C648 C 0.82003 0.58582 0.66884 0.0
N649 N 0.87792 0.60259 0.65551 0.0
C650 C 0.83579 0.60948 0.65204 0.0
C651 C 0.83366 0.57056 0.67872 0.0
C652 C 0.86507 0.61768 0.64561 0.0
C653 C 0.86294 0.57938 0.67174 0.0
C654 C 0.7004 0.53808 0.68094 0.0
C655 C 0.69396 0.51094 0.66994 0.0
C656 C 0.67787 0.54537 0.683 0.0
C657 C 0.66531 0.49185 0.6607 0.0
C658 C 0.64949 0.52567 0.67355 0.0
N659 N 0.64385 0.49955 0.66266 0.0
C660 C 0.74587 0.49837 0.72682 0.0
C661 C 0.76186 0.50324 0.6842 0.0
C662 C 0.73972 0.46879 0.72744 0.0
N663 N 0.75666 0.51476 0.70536 0.0
C664 C 0.75611 0.47396 0.68397 0.0
C665 C 0.74484 0.45628 0.70575 0.0
H666 H 0.74175 0.50816 0.7433 0.0
H667 H 0.76992 0.5167 0.66729 0.0
C668 C 0.77456 0.61758 0.62306 0.0
N669 N 0.75698 0.59093 0.6346 0.0
C670 C 0.78185 0.61846 0.59756 0.0
C671 C 0.75035 0.5648 0.5959 0.0
C672 C 0.744 0.56492 0.62146 0.0
C673 C 0.77091 0.59162 0.58405 0.0
H674 H 0.78544 0.63778 0.63422 0.0
H675 H 0.73103 0.54403 0.63126 0.0
O676 O 0.77431 0.5807 0.73174 0.0
O677 O 0.77327 0.62534 0.6907 0.0
O678 O 0.79156 0.57785 0.6758 0.0
O679 O 0.72822 0.55679 0.69056 0.0
H680 H 0.79115 0.63353 0.75189 0.0
H681 H 0.80315 0.55707 0.75429 0.0
H682 H 0.82855 0.6567 0.78624 0.0
H683 H 0.84033 0.58155 0.78864 0.0
H684 H 0.69523 0.62729 0.6531 0.0
H685 H 0.791 0.68222 0.6985 0.0
H686 H 0.7219 0.6008 0.66564 0.0
H687 H 0.76334 0.70752 0.68505 0.0
H688 H 0.90474 0.64403 0.71995 0.0
H689 H 0.88277 0.70593 0.68471 0.0
H690 H 0.66028 0.55312 0.77103 0.0
H691 H 0.71409 0.64921 0.76598 0.0
H692 H 0.82576 0.62175 0.64443 0.0
H693 H 0.82194 0.55242 0.69196 0.0
H694 H 0.87762 0.63613 0.63283 0.0
H695 H 0.87382 0.56789 0.67937 0.0
H696 H 0.71096 0.50476 0.66836 0.0
H697 H 0.68215 0.56595 0.69191 0.0
H698 H 0.66012 0.47089 0.65199 0.0
H699 H 0.63191 0.5311 0.67495 0.0
H700 H 0.73116 0.45592 0.74463 0.0
H701 H 0.75978 0.46505 0.66669 0.0
H702 H 0.79798 0.6396 0.58927 0.0
H703 H 0.74101 0.54367 0.58605 0.0
Li704 Li 0.17617 0.78975 0.01071 0.0
Li705 Li 0.14107 0.74201 0.03155 0.0
Li706 Li 0.18768 0.74942 0.01307 0.0
Li707 Li 0.14659 0.74343 0.98572 0.0
C708 C 0.19503 0.79442 0.05889 0.0
N709 N 0.21891 0.8408 0.09332 0.0
C710 C 0.17688 0.7966 0.07733 0.0
C711 C 0.22536 0.81578 0.05805 0.0
C712 C 0.18936 0.82021 0.09456 0.0
C713 C 0.23699 0.83909 0.07558 0.0
C714 C 0.10744 0.76557 -0.00093 0.0
C715 C 0.05409 0.74113 0.99378 0.0
N716 N 0.05711 0.76619 0.98267 0.0
C717 C 0.10997 0.79122 0.9879 0.0
C718 C 0.07925 0.74042 0.00229 0.0
C719 C 0.08429 0.79103 0.97961 0.0
C720 C 0.19659 0.83858 0.98081 0.0
N721 N 0.19142 0.83137 0.0057 0.0
C722 C 0.20724 0.8821 0.01626 0.0
C723 C 0.19602 0.85229 0.02343 0.0
C724 C 0.2133 0.89015 0.99062 0.0
C725 C 0.20778 0.86784 0.97286 0.0
H726 H 0.19193 0.82146 0.96695 0.0
H727 H 0.19083 0.84596 0.04301 0.0
C728 C 0.11348 0.70068 0.07079 0.0
N729 N 0.11385 0.72386 0.05845 0.0
C730 C 0.09353 0.68653 0.09057 0.0
C731 C 0.07568 0.72133 0.08536 0.0
C732 C 0.09565 0.73448 0.06539 0.0
C733 C 0.07427 0.69685 0.09818 0.0
H734 H 0.12877 0.69324 0.06531 0.0
H735 H 0.09698 0.75346 0.05564 0.0
C736 C 0.21671 0.78257 0.9734 0.0
N737 N 0.27241 0.80006 0.95351 0.0
C738 C 0.21975 0.76687 0.95323 0.0
C739 C 0.242 0.80729 0.98336 0.0
C740 C 0.24809 0.77603 0.94345 0.0
C741 C 0.26996 0.81575 0.97308 0.0
C742 C 0.12461 0.68536 0.00992 0.0
C743 C 0.12909 0.66367 0.02151 0.0
C744 C 0.09706 0.67717 -0.00107 0.0
C745 C 0.10561 0.6342 0.02248 0.0
C746 C 0.07414 0.64747 0.00026 0.0
N747 N 0.07883 0.62678 0.01195 0.0
C748 C 0.24385 0.75529 0.02665 0.0
C749 C 0.21449 0.71808 -0.00341 0.0
C750 C 0.26756 0.75012 0.02278 0.0
N751 N 0.21826 0.73968 0.01322 0.0
C752 C 0.23759 0.71229 0.99203 0.0
C753 C 0.26481 0.7288 0.00485 0.0
H754 H 0.24622 0.77237 0.03971 0.0
H755 H 0.19397 0.70638 0.98593 0.0
C756 C 0.13187 0.75432 0.93877 0.0
N757 N 0.1331 0.73271 0.95234 0.0
C758 C 0.13944 0.75801 0.91327 0.0
C759 C 0.14608 0.71504 0.91563 0.0
C760 C 0.13813 0.71202 0.94113 0.0
C761 C 0.14896 0.73965 0.90201 0.0
H762 H 0.12943 0.77136 0.94835 0.0
H763 H 0.14031 0.69595 0.95264 0.0
O764 O 0.18328 0.77128 0.04203 0.0
O765 O 0.1324 0.76553 0.00747 0.0
O766 O 0.18921 0.77346 0.98368 0.0
O767 O 0.14742 0.71428 0.0088 0.0
H768 H 0.15342 0.78026 0.07836 0.0
H769 H 0.23977 0.81451 0.04395 0.0
H770 H 0.17556 0.82217 0.1089 0.0
H771 H 0.2604 0.85583 0.07508 0.0
H772 H 0.03214 0.7218 -0.00388 0.0
H773 H 0.13157 0.81102 0.98554 0.0
H774 H 0.07672 0.72069 0.01157 0.0
H775 H 0.08596 0.81065 0.97077 0.0
H776 H 0.21077 0.89854 0.03054 0.0
H777 H 0.21245 0.87293 0.95297 0.0
H778 H 0.09313 0.66759 0.09964 0.0
H779 H 0.06186 0.7306 0.09091 0.0
H780 H 0.20051 0.74755 0.94544 0.0
H781 H 0.24007 0.81974 -0.00107 0.0
H782 H 0.25077 0.76396 0.92793 0.0
H783 H 0.28973 0.83476 0.98068 0.0
H784 H 0.15045 0.66962 0.02983 0.0
H785 H 0.09353 0.69348 0.98917 0.0
H786 H 0.10868 0.61722 0.03158 0.0
H787 H 0.05266 0.64084 0.99189 0.0
H788 H 0.28799 0.76306 0.03335 0.0
H789 H 0.23458 0.69601 0.97776 0.0
H790 H 0.14175 0.77749 0.90358 0.0
H791 H 0.15325 0.70044 0.90754 0.0
Li792 Li 0.37918 0.18104 0.3655 0.0
Li793 Li 0.39671 0.14883 0.37648 0.0
Li794 Li 0.43324 0.20042 0.36258 0.0
Li795 Li 0.39704 0.16056 0.33345 0.0
C796 C 0.40196 0.20474 0.40972 0.0
N797 N 0.39043 0.23943 0.44237 0.0
C798 C 0.37523 0.19212 0.4233 0.0
C799 C 0.42289 0.23499 0.41284 0.0
C800 C 0.36979 0.21004 0.43966 0.0
C801 C 0.41663 0.25215 0.42943 0.0
C802 C 0.34274 0.11164 0.36432 0.0
C803 C 0.32325 0.05846 0.36467 0.0
N804 N 0.30585 0.05591 0.38485 0.0
C805 C 0.32448 0.10848 0.38491 0.0
C806 C 0.34198 0.08643 0.35397 0.0
C807 C 0.30604 0.08012 0.39506 0.0
C808 C 0.32312 0.17414 0.35739 0.0
N809 N 0.34995 0.19319 0.36801 0.0
C810 C 0.33836 0.23242 0.36811 0.0
C811 C 0.35748 0.22164 0.37412 0.0
C812 C 0.31144 0.21381 0.35548 0.0
C813 C 0.30337 0.18398 0.35104 0.0
H814 H 0.31804 0.152 0.35186 0.0
H815 H 0.37931 0.23676 0.38165 0.0
C816 C 0.4003 0.09837 0.39174 0.0
N817 N 0.39224 0.11852 0.39905 0.0
C818 C 0.39549 0.07499 0.40779 0.0
C819 C 0.37484 0.09405 0.43872 0.0
C820 C 0.38017 0.11708 0.42214 0.0
C821 C 0.38226 0.07247 0.43149 0.0
H822 H 0.40996 0.10015 0.37329 0.0
H823 H 0.37421 0.13353 0.4275 0.0
C824 C 0.39732 0.21969 0.32614 0.0
N825 N 0.37609 0.25409 0.3046 0.0
C826 C 0.37339 0.20691 0.30923 0.0
C827 C 0.41043 0.25 0.33211 0.0
C828 C 0.36298 0.22466 0.29855 0.0
C829 C 0.39938 0.26701 0.321 0.0
C830 C 0.44458 0.15503 0.33396 0.0
C831 C 0.47304 0.17641 0.32572 0.0
C832 C 0.43025 0.12679 0.32274 0.0
C833 C 0.48651 0.16929 0.30615 0.0
C834 C 0.44444 0.12054 0.3032 0.0
N835 N 0.47204 0.14175 0.29537 0.0
C836 C 0.49095 0.23597 0.38332 0.0
C837 C 0.48172 0.25272 0.34448 0.0
C838 C 0.52052 0.25928 0.38321 0.0
N839 N 0.47234 0.23326 0.36413 0.0
C840 C 0.51091 0.27645 0.34372 0.0
C841 C 0.53088 0.27986 0.36314 0.0
H842 H 0.48291 0.21974 0.39845 0.0
H843 H 0.46665 0.24948 0.32912 0.0
C844 C 0.36397 0.13144 0.29008 0.0
N845 N 0.39163 0.15108 0.29889 0.0
C846 C 0.35694 0.13255 0.26479 0.0
C847 C 0.40771 0.17224 0.25798 0.0
C848 C 0.41365 0.1706 0.28338 0.0
C849 C 0.37866 0.15406 0.24875 0.0
H850 H 0.34663 0.11703 0.30312 0.0
H851 H 0.43496 0.18684 0.29121 0.0
O852 O 0.40782 0.18755 0.39371 0.0
O853 O 0.36162 0.13933 0.35463 0.0
O854 O 0.40745 0.20251 0.33722 0.0
O855 O 0.43092 0.16166 0.35298 0.0
H856 H 0.35867 0.16885 0.42099 0.0
H857 H 0.44366 0.24519 0.4025 0.0
H858 H 0.34912 0.2006 0.45017 0.0
H859 H 0.43258 0.2756 0.43197 0.0
H860 H 0.32261 0.03878 0.35698 0.0
H861 H 0.32478 0.12776 0.39313 0.0
H862 H 0.3559 0.08846 0.338 0.0
H863 H 0.29197 0.07737 0.41112 0.0
H864 H 0.34533 0.25553 0.37203 0.0
H865 H 0.28307 0.169 0.34102 0.0
H866 H 0.40136 0.05868 0.4015 0.0
H867 H 0.36501 0.09312 0.45701 0.0
H868 H 0.36257 0.18342 0.30473 0.0
H869 H 0.42856 0.26017 0.34555 0.0
H870 H 0.34436 0.215 0.28556 0.0
H871 H 0.40919 0.29043 0.32557 0.0
H872 H 0.48466 0.19827 0.3343 0.0
H873 H 0.40821 0.11 0.32879 0.0
H874 H 0.50848 0.18566 0.29954 0.0
H875 H 0.43349 0.09885 0.29423 0.0
H876 H 0.53521 0.26075 0.39839 0.0
H877 H 0.51768 0.29195 0.32806 0.0
H878 H 0.3343 0.11821 0.2583 0.0
H879 H 0.42491 0.18951 0.24637 0.0
Li880 Li 0.24835 0.39738 0.70414 0.0
Li881 Li 0.20249 0.38222 0.68324 0.0
Li882 Li 0.24721 0.40467 0.65967 0.0
Li883 Li 0.2352 0.4356 0.68844 0.0
C884 C 0.2458 0.352 0.67361 0.0
N885 N 0.27887 0.32427 0.66514 0.0
C886 C 0.23212 0.32293 0.664 0.0
C887 C 0.27625 0.36676 0.67912 0.0
C888 C 0.24922 0.30935 0.65977 0.0
C889 C 0.2926 0.35244 0.67468 0.0
C890 C 0.19234 0.39256 0.73118 0.0
C891 C 0.15448 0.39512 0.75572 0.0
N892 N 0.1436 0.3663 0.76301 0.0
C893 C 0.18092 0.36303 0.73901 0.0
C894 C 0.17915 0.40882 0.73965 0.0
C895 C 0.15619 0.35012 0.75506 0.0
C896 C 0.294 0.41407 0.73936 0.0
N897 N 0.26772 0.39075 0.73138 0.0
C898 C 0.27022 0.35879 0.76249 0.0
C899 C 0.25565 0.36345 0.74237 0.0
C900 C 0.29758 0.38243 0.77112 0.0
C901 C 0.30946 0.41037 0.75926 0.0
H902 H 0.30304 0.43549 0.73008 0.0
H903 H 0.23479 0.3453 0.73544 0.0
C904 C 0.15487 0.32904 0.66527 0.0
N905 N 0.16118 0.35338 0.67944 0.0
C906 C 0.12581 0.30976 0.65713 0.0
C907 C 0.10995 0.34033 0.67917 0.0
C908 C 0.13939 0.35916 0.68669 0.0
C909 C 0.10296 0.31562 0.66365 0.0
H910 H 0.17274 0.32563 0.65896 0.0
H911 H 0.14503 0.37926 0.69706 0.0
C912 C 0.29876 0.45599 0.67205 0.0
N913 N 0.34865 0.49773 0.64586 0.0
C914 C 0.30668 0.4861 0.67205 0.0
C915 C 0.31681 0.44736 0.65908 0.0
C916 C 0.33181 0.50679 0.65863 0.0
C917 C 0.34174 0.46871 0.64584 0.0
C918 C 0.19073 0.40537 0.64303 0.0
C919 C 0.18489 0.38537 0.62317 0.0
C920 C 0.17103 0.41584 0.64785 0.0
C921 C 0.15928 0.376 0.60854 0.0
C922 C 0.14564 0.4059 0.6328 0.0
N923 N 0.14033 0.38635 0.61364 0.0
C924 C 0.25983 0.38487 0.6125 0.0
C925 C 0.2672 0.43384 0.61534 0.0
C926 C 0.26249 0.38726 0.58618 0.0
N927 N 0.26144 0.40778 0.62631 0.0
C928 C 0.27032 0.43731 0.58933 0.0
C929 C 0.26678 0.41343 0.57431 0.0
H930 H 0.25428 0.36403 0.62154 0.0
H931 H 0.26711 0.45118 0.62669 0.0
C932 C 0.24558 0.4885 0.71392 0.0
N933 N 0.2381 0.4731 0.6918 0.0
C934 C 0.25113 0.51785 0.71448 0.0
C935 C 0.24018 0.51422 0.66973 0.0
C936 C 0.23519 0.48522 0.66999 0.0
C937 C 0.24866 0.53105 0.69208 0.0
H938 H 0.24816 0.47833 0.73087 0.0
H939 H 0.23005 0.47269 0.65256 0.0
O940 O 0.22918 0.36546 0.6779 0.0
O941 O 0.21646 0.40561 0.71544 0.0
O942 O 0.27412 0.43553 0.68532 0.0
O943 O 0.21531 0.41424 0.65797 0.0
H944 H 0.20856 0.31092 0.65977 0.0
H945 H 0.28714 0.3889 0.68703 0.0
H946 H 0.23891 0.28693 0.65225 0.0
H947 H 0.31618 0.3637 0.67889 0.0
H948 H 0.14395 0.40738 0.76236 0.0
H949 H 0.19076 0.35011 0.73245 0.0
H950 H 0.18779 0.43172 0.73374 0.0
H951 H 0.14697 0.32723 0.76115 0.0
H952 H 0.26003 0.33699 0.77127 0.0
H953 H 0.33068 0.42906 0.765 0.0
H954 H 0.12165 0.29137 0.64481 0.0
H955 H 0.09303 0.34558 0.68487 0.0
H956 H 0.29391 0.49367 0.68259 0.0
H957 H 0.31145 0.4244 0.65856 0.0
H958 H 0.33801 0.53009 0.65847 0.0
H959 H 0.35556 0.46217 0.63548 0.0
H960 H 0.1997 0.37678 0.61932 0.0
H961 H 0.17504 0.43107 0.66332 0.0
H962 H 0.1544 0.36039 0.59321 0.0
H963 H 0.13007 0.41363 0.63644 0.0
H964 H 0.25952 0.36832 0.57518 0.0
H965 H 0.27286 0.45757 0.58099 0.0
H966 H 0.25761 0.5302 0.73206 0.0
H967 H 0.23861 0.5238 0.65199 0.0
Li968 Li 0.81437 0.20218 0.03525 0.0
Li969 Li 0.84616 0.25268 0.04462 0.0
Li970 Li 0.79439 0.23623 0.03054 0.0
Li971 Li 0.83394 0.23874 0.00186 0.0
C972 C 0.79018 0.20298 0.07892 0.0
N973 N 0.75507 0.15841 0.11281 0.0
C974 C 0.80275 0.19013 0.09421 0.0
C975 C 0.75972 0.19314 0.08091 0.0
C976 C 0.78463 0.16762 0.1112 0.0
C977 C 0.74236 0.17061 0.09816 0.0
C978 C 0.88321 0.23516 0.03467 0.0
C979 C 0.9365 0.26796 0.03593 0.0
N980 N 0.9379 0.25388 0.05714 0.0
C981 C 0.8852 0.22084 0.05635 0.0
C982 C 0.90907 0.25878 0.02425 0.0
C983 C 0.91305 0.23069 0.06748 0.0
C984 C 0.82275 0.15398 0.0286 0.0
N985 N 0.80336 0.16115 0.03942 0.0
C986 C 0.76696 0.10949 0.04399 0.0
C987 C 0.77603 0.13961 0.0475 0.0
C988 C 0.78598 0.10152 0.03158 0.0
C989 C 0.81452 0.12428 0.02449 0.0
H990 H 0.84387 0.17136 0.02142 0.0
H991 H 0.76044 0.14565 0.05508 0.0
C992 C 0.89837 0.30655 0.05908 0.0
N993 N 0.87617 0.27953 0.06709 0.0
C994 C 0.92131 0.32506 0.07556 0.0
C995 C 0.89746 0.28791 0.10831 0.0
C996 C 0.87505 0.27024 0.09126 0.0
C997 C 0.9212 0.31552 0.10042 0.0
H998 H 0.89864 0.31342 0.03977 0.0
H999 H 0.85698 0.24885 0.09719 0.0
C1000 C 0.77419 0.17887 -0.00229 0.0
N1001 N 0.73806 0.12103 0.98109 0.0
C1002 C 0.78547 0.16581 0.98122 0.0
C1003 C 0.7445 0.16261 0.00561 0.0
C1004 C 0.76686 0.1365 0.97309 0.0
C1005 C 0.72659 0.13338 -0.00301 0.0
C1006 C 0.83995 0.29128 -0.00039 0.0
C1007 C 0.81879 0.29755 0.98945 0.0
C1008 C 0.8684 0.30426 0.98889 0.0
C1009 C 0.82634 0.31642 0.96851 0.0
C1010 C 0.87508 0.32297 0.96794 0.0
N1011 N 0.85408 0.3286 0.95826 0.0
C1012 C 0.75788 0.25775 0.05028 0.0
C1013 C 0.74385 0.23397 0.01029 0.0
C1014 C 0.73529 0.26497 0.04902 0.0
N1015 N 0.76165 0.24259 0.03103 0.0
C1016 C 0.72119 0.24087 0.00815 0.0
C1017 C 0.71678 0.25678 0.02759 0.0
H1018 H 0.77273 0.26464 0.06637 0.0
H1019 H 0.74799 0.22268 0.99498 0.0
C1020 C 0.86506 0.23735 0.9581 0.0
N1021 N 0.84235 0.24072 0.96706 0.0
C1022 C 0.865 0.22929 0.9329 0.0
C1023 C 0.81888 0.22955 0.92668 0.0
C1024 C 0.82007 0.23799 0.95181 0.0
C1025 C 0.84095 0.22396 0.91712 0.0
H1026 H 0.88197 0.23874 0.97088 0.0
H1027 H 0.80182 0.23983 0.95977 0.0
O1028 O 0.8076 0.22531 0.06235 0.0
O1029 O 0.856 0.22644 0.02401 0.0
O1030 O 0.79231 0.2072 0.00653 0.0
O1031 O 0.83285 0.2725 0.01988 0.0
H1032 H 0.82616 0.19717 0.09281 0.0
H1033 H 0.74949 0.20259 0.06918 0.0
H1034 H 0.79406 0.15741 0.12305 0.0
H1035 H 0.71877 0.16276 0.09984 0.0
H1036 H 0.95666 0.28637 0.02819 0.0
H1037 H 0.86543 0.2025 0.06463 0.0
H1038 H 0.90795 0.27017 0.00752 0.0
H1039 H 0.91489 0.21997 0.08437 0.0
H1040 H 0.74482 0.09273 0.04997 0.0
H1041 H 0.82975 0.11944 0.01433 0.0
H1042 H 0.93933 0.34613 0.06872 0.0
H1043 H 0.8963 0.27997 0.12745 0.0
H1044 H 0.80848 0.17797 0.97513 0.0
H1045 H 0.73552 0.1723 0.01857 0.0
H1046 H 0.77535 0.12601 0.96052 0.0
H1047 H 0.70363 0.12045 0.00309 0.0
H1048 H 0.79678 0.28802 -0.00239 0.0
H1049 H 0.885 0.29953 -0.00362 0.0
H1050 H 0.81013 0.32137 0.96041 0.0
H1051 H 0.89693 0.33294 0.95933 0.0
H1052 H 0.73251 0.27699 0.06454 0.0
H1053 H 0.70795 0.23467 0.99105 0.0
H1054 H 0.88275 0.22573 0.92627 0.0
H1055 H 0.79958 0.22522 0.91558 0.0
H1056 H 0.33252 0.57793 0.29252 0.0
H1057 H 0.27032 0.59131 0.33796 0.0
H1058 H 0.31167 0.63966 0.35249 0.0
H1059 H 0.39192 0.60788 0.33427 0.0
H1060 H 0.42056 0.62613 0.31069 0.0
H1061 H 0.3859 0.5934 0.30251 0.0
H1062 H 0.37758 0.62234 0.26644 0.0
H1063 H 0.41251 0.65508 0.27423 0.0
H1064 H 0.37872 0.65698 0.27341 0.0
H1065 H 0.36067 0.68395 0.36548 0.0
H1066 H 0.41281 0.72303 0.37287 0.0
H1067 H 0.44171 0.68299 0.31534 0.0
C1068 C 0.3273 0.5913 0.30494 0.0
C1069 C 0.29809 0.58054 0.31422 0.0
C1070 C 0.29257 0.59868 0.33094 0.0
C1071 C 0.31588 0.62631 0.33918 0.0
C1072 C 0.34449 0.63579 0.33018 0.0
C1073 C 0.35017 0.6191 0.31304 0.0
C1074 C 0.38298 0.63404 0.30662 0.0
C1075 C 0.3961 0.61417 0.31397 0.0
C1076 C 0.38825 0.64263 0.27851 0.0
C1077 C 0.39497 0.66135 0.32333 0.0
C1078 C 0.37247 0.66195 0.33682 0.0
C1079 C 0.37843 0.68409 0.35461 0.0
C1080 C 0.40819 0.70631 0.35858 0.0
C1081 C 0.43165 0.70642 0.34464 0.0
C1082 C 0.42462 0.6836 0.32665 0.0
H1083 H 0.7669 0.3222 0.66064 0.0
H1084 H 0.68112 0.26113 0.69421 0.0
H1085 H 0.67727 0.30409 0.71002 0.0
H1086 H 0.79287 0.37751 0.70972 0.0
H1087 H 0.81103 0.40842 0.68809 0.0
H1088 H 0.80719 0.37284 0.68007 0.0
H1089 H 0.78047 0.37189 0.63836 0.0
H1090 H 0.78439 0.40753 0.64616 0.0
H1091 H 0.74802 0.37616 0.63952 0.0
H1092 H 0.68254 0.35422 0.72114 0.0
H1093 H 0.69572 0.40706 0.72535 0.0
H1094 H 0.77817 0.43437 0.68466 0.0
C1095 C 0.74713 0.3178 0.67108 0.0
C1096 C 0.72422 0.28834 0.67607 0.0
C1097 C 0.69902 0.28356 0.6903 0.0
C1098 C 0.69662 0.30779 0.69931 0.0
C1099 C 0.71968 0.33657 0.69403 0.0
C1100 C 0.74441 0.34161 0.6802 0.0
C1101 C 0.76592 0.37457 0.6767 0.0
C1102 C 0.79603 0.38387 0.68941 0.0
C1103 C 0.76992 0.38302 0.64851 0.0
C1104 C 0.74928 0.38737 0.69044 0.0
C1105 C 0.72275 0.36519 0.70047 0.0
C1106 C 0.70336 0.37178 0.71349 0.0
C1107 C 0.71111 0.40183 0.71594 0.0
C1108 C 0.73794 0.42481 0.70531 0.0
C1109 C 0.75737 0.41732 0.69278 0.0
H1110 H 0.43517 0.78301 0.97423 0.0
H1111 H 0.40846 0.69071 0.95842 0.0
H1112 H 0.35603 0.6759 0.96754 0.0
H1113 H 0.38643 0.76903 0.02595 0.0
H1114 H 0.37833 0.79808 0.01797 0.0
H1115 H 0.41349 0.80164 0.009 0.0
H1116 H 0.40365 0.8086 0.96214 0.0
H1117 H 0.36859 0.80539 0.97101 0.0
H1118 H 0.36963 0.781 0.94722 0.0
H1119 H 0.30703 0.67097 0.98079 0.0
H1120 H 0.26451 0.67665 0.9943 0.0
H1121 H 0.32348 0.77245 0.00036 0.0
C1122 C 0.41825 0.75971 0.97257 0.0
C1123 C 0.4258 0.73799 0.9656 0.0
C1124 C 0.40305 0.70774 0.96342 0.0
C1125 C 0.37328 0.69911 0.96874 0.0
C1126 C 0.36669 0.72103 0.97602 0.0
C1127 C 0.38848 0.75075 0.97766 0.0
C1128 C 0.37559 0.76992 0.986 0.0
C1129 C 0.38928 0.78558 0.01123 0.0
C1130 C 0.3796 0.79256 0.96536 0.0
C1131 C 0.34318 0.74629 0.98911 0.0
C1132 C 0.33848 0.71824 0.98332 0.0
C1133 C 0.31038 0.69287 0.98514 0.0
C1134 C 0.28636 0.69634 0.99276 0.0
C1135 C 0.29059 0.72499 -0.00162 0.0
C1136 C 0.3195 0.75018 -0.0034 0.0
H1137 H 0.56687 0.30277 0.32139 0.0
H1138 H 0.5659 0.31361 0.40272 0.0
H1139 H 0.61709 0.35657 0.40069 0.0
H1140 H 0.64585 0.32597 0.31494 0.0
H1141 H 0.64969 0.34554 0.28575 0.0
H1142 H 0.6144 0.31347 0.29397 0.0
H1143 H 0.58856 0.34505 0.28926 0.0
H1144 H 0.62369 0.37715 0.28102 0.0
H1145 H 0.60233 0.37913 0.30708 0.0
H1146 H 0.66655 0.40066 0.38943 0.0
H1147 H 0.71 0.44354 0.36973 0.0
H1148 H 0.678 0.40484 0.29557 0.0
C1149 C 0.57735 0.31408 0.33883 0.0
C1150 C 0.56228 0.3047 0.36224 0.0
C1151 C 0.57709 0.31999 0.38461 0.0
C1152 C 0.60615 0.34451 0.38364 0.0
C1153 C 0.62008 0.35342 0.36018 0.0
C1154 C 0.60617 0.33869 0.33818 0.0
C1155 C 0.62512 0.35396 0.31519 0.0
C1156 C 0.63431 0.33351 0.30167 0.0
C1157 C 0.60896 0.36445 0.29708 0.0
C1158 C 0.65159 0.38006 0.32764 0.0
C1159 C 0.64845 0.37909 0.35363 0.0
C1160 C 0.66946 0.40144 0.36914 0.0
C1161 C 0.69416 0.42562 0.35777 0.0
C1162 C 0.69752 0.42735 0.33113 0.0
C1163 C 0.67606 0.40405 0.31597 0.0
H1164 H 0.23254 0.66871 0.6466 0.0
H1165 H 0.31849 0.72698 0.6813 0.0
H1166 H 0.32094 0.68291 0.69575 0.0
H1167 H 0.2046 0.61266 0.69368 0.0
H1168 H 0.18627 0.58204 0.67179 0.0
H1169 H 0.19142 0.61813 0.66375 0.0
H1170 H 0.21893 0.61884 0.62259 0.0
H1171 H 0.21348 0.58256 0.63031 0.0
H1172 H 0.25051 0.6132 0.62435 0.0
H1173 H 0.31315 0.63235 0.70757 0.0
H1174 H 0.29769 0.579 0.71259 0.0
H1175 H 0.21752 0.55437 0.66934 0.0
C1176 C 0.25218 0.67229 0.65679 0.0
C1177 C 0.27529 0.70132 0.66287 0.0
C1178 C 0.30033 0.70493 0.6767 0.0
C1179 C 0.30196 0.68006 0.68494 0.0
C1180 C 0.27847 0.65177 0.67907 0.0
C1181 C 0.25424 0.64777 0.66505 0.0
C1182 C 0.23201 0.61504 0.66118 0.0
C1183 C 0.20179 0.60648 0.67333 0.0
C1184 C 0.22855 0.60694 0.63293 0.0
C1185 C 0.24753 0.60123 0.67522 0.0
C1186 C 0.27418 0.62275 0.68558 0.0
C1187 C 0.29235 0.61529 0.69951 0.0
C1188 C 0.28329 0.58499 0.70245 0.0
C1189 C 0.25644 0.56268 0.69136 0.0
C1190 C 0.23824 0.57101 0.67787 0.0
H1191 H 0.6608 0.22381 0.00732 0.0
H1192 H 0.72052 0.30971 0.04156 0.0
H1193 H 0.68274 0.32489 0.0353 0.0
H1194 H 0.63336 0.25179 0.95896 0.0
H1195 H 0.59601 0.22028 0.96001 0.0
H1196 H 0.62712 0.21564 0.96841 0.0
H1197 H 0.60287 0.19398 0.01191 0.0
H1198 H 0.57159 0.19838 0.00359 0.0
H1199 H 0.59229 0.21521 0.03208 0.0
H1200 H 0.63839 0.33082 0.02462 0.0
H1201 H 0.59085 0.32671 0.01055 0.0
H1202 H 0.56179 0.23779 0.98192 0.0
C1203 C 0.66607 0.24588 0.01343 0.0
C1204 C 0.69364 0.26553 0.02498 0.0
C1205 C 0.69937 0.29405 0.03303 0.0
C1206 C 0.67816 0.30298 0.02938 0.0
C1207 C 0.65139 0.28317 0.01758 0.0
C1208 C 0.64531 0.2552 0.00977 0.0
C1209 C 0.61512 0.23825 -0.0028 0.0
C1210 C 0.6181 0.23108 0.9695 0.0
C1211 C 0.59424 0.20978 0.01209 0.0
C1212 C 0.60519 0.26109 -0.00096 0.0
C1213 C 0.6263 0.28682 0.01096 0.0
C1214 C 0.62173 0.31082 0.01521 0.0
C1215 C 0.59474 0.3083 0.00719 0.0
C1216 C 0.57291 0.2821 0.99492 0.0
C1217 C 0.57837 0.25833 0.99077 0.0
H1218 H 0.28624 0.33496 0.28445 0.0
H1219 H 0.19108 0.27535 0.29381 0.0
H1220 H 0.20076 0.23704 0.31169 0.0
H1221 H 0.30599 0.27652 0.27035 0.0
H1222 H 0.34027 0.29589 0.28799 0.0
H1223 H 0.32555 0.31668 0.27235 0.0
H1224 H 0.32667 0.34206 0.31488 0.0
H1225 H 0.34085 0.32099 0.33074 0.0
H1226 H 0.30708 0.31923 0.34178 0.0
H1227 H 0.22101 0.20764 0.33336 0.0
H1228 H 0.25041 0.18803 0.35421 0.0
H1229 H 0.33215 0.26725 0.33122 0.0
C1230 C 0.2674 0.31361 0.28975 0.0
C1231 C 0.2379 0.30812 0.28755 0.0
C1232 C 0.21386 0.2799 0.29478 0.0
C1233 C 0.21914 0.25806 0.30518 0.0
C1234 C 0.24855 0.26471 0.3081 0.0
C1235 C 0.27228 0.29163 0.30024 0.0
C1236 C 0.30179 0.29402 0.30694 0.0
C1237 C 0.31944 0.29588 0.28298 0.0
C1238 C 0.32016 0.32065 0.32464 0.0
C1239 C 0.29095 0.26465 0.32048 0.0
C1240 C 0.26019 0.24793 0.32079 0.0
C1241 C 0.24512 0.22037 0.33294 0.0
C1242 C 0.26198 0.20944 0.34477 0.0
C1243 C 0.29355 0.22615 0.34446 0.0
C1244 C 0.30806 0.25413 0.33215 0.0
H1245 H 0.94426 0.28349 0.61513 0.0
H1246 H 0.9171 0.18944 0.61383 0.0
H1247 H 0.96879 0.20211 0.62306 0.0
H1248 H 0.02094 0.31195 0.58894 0.0
H1249 H 0.03639 0.34409 0.60941 0.0
H1250 H 0.99848 0.32789 0.59847 0.0
H1251 H 0.98046 0.32231 0.64489 0.0
H1252 H 0.01817 0.33796 0.656 0.0
H1253 H 0.98985 0.30173 0.66693 0.0
H1254 H 0.02135 0.22432 0.63878 0.0
H1255 H 0.07189 0.25483 0.65654 0.0
H1256 H 0.06491 0.33445 0.647 0.0
C1257 C 0.94936 0.26562 0.61615 0.0
C1258 C 0.92669 0.2355 0.6136 0.0
C1259 C 0.93419 0.21271 0.61521 0.0
C1260 C 0.96346 0.21968 0.62064 0.0
C1261 C 0.985 0.24952 0.62414 0.0
C1262 C 0.97842 0.27218 0.62155 0.0
C1263 C 0.00502 0.30221 0.6281 0.0
C1264 C 0.01585 0.32275 0.60484 0.0
C1265 C 0.99794 0.3169 0.6503 0.0
C1266 C 0.02722 0.29276 0.6357 0.0
C1267 C 0.01537 0.26234 0.6331 0.0
C1268 C 0.03111 0.24826 0.6404 0.0
C1269 C 0.05981 0.26579 0.65046 0.0
C1270 C 0.07246 0.29707 0.65317 0.0
C1271 C 0.05585 0.31058 0.64548 0.0
H1272 H 0.72992 0.05974 0.01528 0.0
H1273 H 0.81806 0.07232 0.02966 0.0
H1274 H 0.80205 0.02258 0.01175 0.0
H1275 H 0.68957 0.98085 0.03257 0.0
H1276 H 0.66132 0.97171 0.00886 0.0
H1277 H 0.67995 0.00835 0.02284 0.0
H1278 H 0.69512 0.03178 0.97817 0.0
H1279 H 0.677 0.99519 0.96408 0.0
H1280 H 0.7158 0.02089 0.95765 0.0
H1281 H 0.77732 0.97274 0.99011 0.0
H1282 H 0.7438 0.92351 0.97125 0.0
H1283 H 0.67068 0.94184 0.97466 0.0
C1284 C 0.74574 0.05189 0.01527 0.0
C1285 C 0.77538 0.07018 0.02378 0.0
C1286 C 0.79541 0.05904 0.02285 0.0
C1287 C 0.78652 0.03076 0.01278 0.0
C1288 C 0.7574 0.0137 0.00401 0.0
C1289 C 0.73714 0.02357 0.00562 0.0
C1290 C 0.70698 0.00058 0.99535 0.0
C1291 C 0.68304 0.98973 0.01615 0.0
C1292 C 0.69823 0.01286 0.97245 0.0
C1293 C 0.71352 0.97631 0.98756 0.0
C1294 C 0.7428 0.98445 0.99247 0.0
C1295 C 0.75422 0.96592 0.9865 0.0
C1296 C 0.73495 0.93795 0.97585 0.0
C1297 C 0.70446 0.92856 0.9716 0.0
C1298 C 0.69388 0.94833 0.97727 0.0
H1299 H 0.66369 0.73622 0.34865 0.0
H1300 H 0.7459 0.82147 0.35121 0.0
H1301 H 0.77323 0.79786 0.33332 0.0
H1302 H 0.6956 0.68995 0.3651 0.0
H1303 H 0.67139 0.66037 0.34394 0.0
H1304 H 0.65901 0.68402 0.35792 0.0
H1305 H 0.6483 0.69697 0.31324 0.0
H1306 H 0.66109 0.67373 0.29909 0.0
H1307 H 0.67776 0.71239 0.29007 0.0
H1308 H 0.79116 0.765 0.31438 0.0
H1309 H 0.79918 0.72477 0.29846 0.0
H1310 H 0.70466 0.66147 0.30698 0.0
C1311 C 0.68757 0.74977 0.34602 0.0
C1312 C 0.70281 0.78059 0.35155 0.0
C1313 C 0.7339 0.79778 0.34715 0.0
C1314 C 0.74954 0.7846 0.33695 0.0
C1315 C 0.73368 0.75427 0.33115 0.0
C1316 C 0.70344 0.73704 0.3357 0.0
C1317 C 0.69151 0.70509 0.32736 0.0
C1318 C 0.67863 0.68359 0.34993 0.0
C1319 C 0.66829 0.69656 0.30618 0.0
C1320 C 0.71984 0.70695 0.31759 0.0
C1321 C 0.74389 0.73552 0.31982 0.0
C1322 C 0.77248 0.74256 0.31244 0.0
C1323 C 0.77675 0.7196 0.30314 0.0
C1324 C 0.75252 0.68996 0.30131 0.0
C1325 C 0.72365 0.68384 0.30823 0.0
H1326 H 0.05887 0.7213 0.6491 0.0
H1327 H 0.08655 0.81381 0.66539 0.0
H1328 H 0.03567 0.79854 0.68001 0.0
H1329 H 0.98359 0.69885 0.62806 0.0
H1330 H 0.96771 0.66255 0.64257 0.0
H1331 H 0.00575 0.68112 0.63165 0.0
H1332 H 0.02324 0.67607 0.67633 0.0
H1333 H 0.98531 0.65777 0.68745 0.0
H1334 H 0.01344 0.69078 0.70324 0.0
H1335 H 0.9824 0.77291 0.69491 0.0
H1336 H 0.93006 0.73878 0.70747 0.0
H1337 H 0.9378 0.66316 0.68227 0.0
C1338 C 0.05424 0.73839 0.65562 0.0
C1339 C 0.07672 0.76879 0.65596 0.0
C1340 C 0.0696 0.79045 0.66448 0.0
C1341 C 0.04082 0.78198 0.67303 0.0
C1342 C 0.0194 0.75177 0.67294 0.0
C1343 C 0.0257 0.73033 0.6643 0.0
C1344 C -0.00108 0.69931 0.66679 0.0
C1345 C 0.98837 0.6846 0.64072 0.0
C1346 C 0.00564 0.67985 0.68451 0.0
C1347 C 0.97671 0.70662 0.6785 0.0
C1348 C 0.98889 0.737 0.68181 0.0
C1349 C 0.97258 0.74908 0.69232 0.0
C1350 C 0.94292 0.72957 0.69938 0.0
C1351 C 0.92998 0.69836 0.696 0.0
C1352 C 0.94724 0.68686 0.68552 0.0
H1353 H 0.32922 0.06477 0.99104 0.0
H1354 H 0.29719 0.06838 0.91597 0.0
H1355 H 0.25904 0.0151 0.91933 0.0
H1356 H 0.32229 0.9928 0.98332 0.0
H1357 H 0.31139 0.98192 0.01568 0.0
H1358 H 0.33489 0.02072 0.00781 0.0
H1359 H 0.29705 0.03275 0.02909 0.0
H1360 H 0.27323 0.99389 0.03673 0.0
H1361 H 0.25873 0.01346 0.01884 0.0
H1362 H 0.22459 0.96148 0.93081 0.0
H1363 H 0.19918 0.91027 0.94778 0.0
H1364 H 0.25635 0.94108 0.01397 0.0
C1365 C 0.31453 0.05441 0.97509 0.0
C1366 C 0.31629 0.07096 0.95322 0.0
C1367 C 0.29607 0.05642 0.93309 0.0
C1368 C 0.27436 0.02612 0.93478 0.0
C1369 C 0.27324 0.01062 0.95666 0.0
C1370 C 0.293 0.02418 0.97633 0.0
C1371 C 0.28798 0.00224 -0.0027 0.0
C1372 C 0.31579 0.99924 0.00124 0.0
C1373 C 0.27869 0.01112 0.02194 0.0
C1374 C 0.26244 0.97408 0.98624 0.0
C1375 C 0.25403 0.9795 0.96294 0.0
C1376 C 0.23111 0.95692 0.94895 0.0
C1377 C 0.21693 0.92788 0.95871 0.0
C1378 C 0.22598 0.92154 0.9821 0.0
C1379 C 0.24868 0.94517 -0.00381 0.0
H1380 H 0.94939 0.2957 0.13168 0.0
H1381 H 0.94936 0.37606 0.10843 0.0
H1382 H 0.99056 0.40564 0.13835 0.0
H1383 H 0.96303 0.31365 0.19742 0.0
H1384 H 0.98666 0.29756 0.20091 0.0
H1385 H 0.95758 0.28309 0.17746 0.0
H1386 H 0.99638 0.29216 0.14257 0.0
H1387 H 0.02557 0.30655 0.16592 0.0
H1388 H 0.02843 0.32888 0.13878 0.0
H1389 H 0.03138 0.42602 0.17151 0.0
H1390 H 0.06918 0.43572 0.20433 0.0
H1391 H 0.04185 0.34159 0.20499 0.0
C1392 C 0.95785 0.31949 0.13302 0.0
C1393 C 0.94611 0.33361 0.11791 0.0
C1394 C 0.95821 0.36487 0.11979 0.0
C1395 C 0.98146 0.38179 0.13678 0.0
C1396 C 0.99233 0.36705 0.15159 0.0
C1397 C 0.98097 0.33661 0.14976 0.0
C1398 C 0.99658 0.32605 0.16754 0.0
C1399 C 0.97465 0.30378 0.18698 0.0
C1400 C 0.0127 0.31263 0.15282 0.0
C1401 C 0.01845 0.35528 0.17983 0.0
C1402 C 0.01573 0.3787 0.17043 0.0
C1403 C 0.03375 0.40785 0.17895 0.0
C1404 C 0.05521 0.41315 0.1975 0.0
C1405 C 0.05838 0.3894 0.20727 0.0
C1406 C 0.03966 0.36015 0.19824 0.0
H1407 H 0.70373 0.05752 0.52486 0.0
H1408 H 0.62202 0.0466 0.55739 0.0
H1409 H 0.59283 0.00995 0.52396 0.0
H1410 H 0.68102 0.05155 0.45913 0.0
H1411 H 0.69974 0.03154 0.45005 0.0
H1412 H 0.71395 0.05773 0.47586 0.0
H1413 H 0.71115 0.01641 0.50537 0.0
H1414 H 0.69702 0.99015 0.47966 0.0
H1415 H 0.67628 0.98196 0.50877 0.0
H1416 H 0.5727 0.97196 0.4885 0.0
H1417 H 0.56339 0.93707 0.45305 0.0
H1418 H 0.6587 0.97418 0.44391 0.0
C1419 C 0.67969 0.04741 0.52494 0.0
C1420 C 0.66503 0.05466 0.54371 0.0
C1421 C 0.6336 0.04136 0.54304 0.0
C1422 C 0.6169 0.02053 0.5242 0.0
C1423 C 0.63208 0.01365 0.50608 0.0
C1424 C 0.66279 0.02688 0.50622 0.0
C1425 C 0.6738 0.01538 0.48498 0.0
C1426 C 0.69327 0.04055 0.4664 0.0
C1427 C 0.69053 6e-05 0.49532 0.0
C1428 C 0.64445 0.99312 0.47311 0.0
C1429 C 0.6206 0.99242 0.48547 0.0
C1430 C 0.59121 0.97254 0.47851 0.0
C1431 C 0.58614 0.95277 0.45848 0.0
C1432 C 0.61034 0.9532 0.44565 0.0
C1433 C 0.6398 0.97382 0.45302 0.0
H1434 H 0.61226 0.68527 0.84111 0.0
H1435 H 0.60556 0.63329 0.90777 0.0
H1436 H 0.61997 0.60269 0.88226 0.0
H1437 H 0.58828 0.625 0.79404 0.0
H1438 H 0.61514 0.64946 0.7711 0.0
H1439 H 0.59959 0.66408 0.7936 0.0
H1440 H 0.65284 0.70317 0.80828 0.0
H1441 H 0.66853 0.68868 0.78591 0.0
H1442 H 0.67787 0.69073 0.81894 0.0
H1443 H 0.64012 0.58116 0.85063 0.0
H1444 H 0.66617 0.57177 0.81579 0.0
H1445 H 0.66191 0.63942 0.77056 0.0
C1446 C 0.61356 0.66732 0.85039 0.0
C1447 C 0.60758 0.66167 0.87649 0.0
C1448 C 0.60937 0.63775 0.88773 0.0
C1449 C 0.61768 0.62028 0.87341 0.0
C1450 C 0.62412 0.627 0.84788 0.0
C1451 C 0.62215 0.64995 0.83648 0.0
C1452 C 0.63295 0.65449 0.80941 0.0
C1453 C 0.60747 0.64785 0.79095 0.0
C1454 C 0.65963 0.68613 0.80542 0.0
C1455 C 0.64223 0.63113 0.80761 0.0
C1456 C 0.63644 0.6151 0.82982 0.0
C1457 C 0.64439 0.59327 0.83303 0.0
C1458 C 0.65908 0.58803 0.81313 0.0
C1459 C 0.66595 0.60484 0.79052 0.0
C1460 C 0.65695 0.62628 0.78767 0.0
H1461 H 0.01756 0.68813 0.10321 0.0
H1462 H 0.08296 0.673 0.14164 0.0
H1463 H 0.04761 0.64865 0.17667 0.0
H1464 H 0.99211 0.70774 0.15899 0.0
H1465 H 0.9539 0.6903 0.14858 0.0
H1466 H 0.98364 0.7048 0.12571 0.0
H1467 H 0.95974 0.65302 0.10396 0.0
H1468 H 0.92997 0.63832 0.12682 0.0
H1469 H 0.95201 0.6206 0.12234 0.0
H1470 H 0.00533 0.6262 0.20767 0.0
H1471 H 0.96008 0.61 0.23366 0.0
H1472 H 0.92389 0.64282 0.1763 0.0
C1473 C 0.02467 0.67997 0.11904 0.0
C1474 C 0.05307 0.68234 0.11945 0.0
C1475 C 0.06113 0.67091 0.1405 0.0
C1476 C 0.04128 0.65719 0.16061 0.0
C1477 C 0.01355 0.6553 0.15953 0.0
C1478 C 0.00533 0.66659 0.1394 0.0
C1479 C 0.97468 0.66278 0.14333 0.0
C1480 C 0.97619 0.69322 0.14421 0.0
C1481 C 0.95281 0.64247 0.1229 0.0
C1482 C 0.96703 0.64776 0.16891 0.0
C1483 C 0.98959 0.64331 0.1778 0.0
C1484 C 0.98752 0.62958 0.20094 0.0
C1485 C 0.96176 0.62036 0.21548 0.0
C1486 C 0.93868 0.62526 0.20691 0.0
C1487 C 0.94137 0.63905 0.18331 0.0
H1488 H 0.33108 0.03858 0.45806 0.0
H1489 H 0.41834 0.04948 0.44321 0.0
H1490 H 0.40742 0.00837 0.47301 0.0
H1491 H 0.32981 0.02542 0.52357 0.0
H1492 H 0.2906 0.9982 0.5246 0.0
H1493 H 0.30466 0.02701 0.50091 0.0
H1494 H 0.28192 0.98689 0.46569 0.0
H1495 H 0.2677 0.95792 0.48929 0.0
H1496 H 0.29137 0.95781 0.46437 0.0
H1497 H 0.38778 0.96799 0.50636 0.0
H1498 H 0.36089 0.93134 0.54028 0.0
H1499 H 0.28655 0.94717 0.53248 0.0
C1500 C 0.34791 0.03233 0.46108 0.0
C1501 C 0.37559 0.04721 0.44847 0.0
C1502 C 0.39689 0.03814 0.45259 0.0
C1503 C 0.39092 0.01492 0.4695 0.0
C1504 C 0.36349 0.00096 0.48188 0.0
C1505 C 0.3423 0.00925 0.47776 0.0
C1506 C 0.3149 0.99135 0.49385 0.0
C1507 C 0.30971 0.01171 0.51179 0.0
C1508 C 0.28735 0.97236 0.47731 0.0
C1509 C 0.32421 0.97209 0.50813 0.0
C1510 C 0.3522 0.97776 0.50088 0.0
C1511 C 0.36573 0.96315 0.51202 0.0
C1512 C 0.35026 0.94232 0.53117 0.0
C1513 C 0.32165 0.93644 0.539 0.0
C1514 C 0.3085 0.9514 0.52709 0.0
H1515 H 0.35139 0.29072 0.8551 0.0
H1516 H 0.39408 0.36717 0.9052 0.0
H1517 H 0.37854 0.39513 0.87703 0.0
H1518 H 0.37027 0.33275 0.79641 0.0
H1519 H 0.33527 0.30712 0.78167 0.0
H1520 H 0.35094 0.29391 0.80528 0.0
H1521 H 0.30206 0.27258 0.83128 0.0
H1522 H 0.28631 0.28587 0.80784 0.0
H1523 H 0.28815 0.29695 0.84038 0.0
H1524 H 0.35558 0.41332 0.84464 0.0
H1525 H 0.32877 0.42124 0.80966 0.0
H1526 H 0.30288 0.33318 0.78032 0.0
C1527 C 0.35749 0.31337 0.86011 0.0
C1528 C 0.37381 0.32684 0.88229 0.0
C1529 C 0.38175 0.35661 0.88813 0.0
C1530 C 0.37294 0.37256 0.87233 0.0
C1531 C 0.35651 0.35845 0.85073 0.0
C1532 C 0.3491 0.32961 0.84451 0.0
C1533 C 0.33105 0.31937 0.82044 0.0
C1534 C 0.3479 0.31292 0.79973 0.0
C1535 C 0.30006 0.29208 0.82529 0.0
C1536 C 0.32897 0.34676 0.81429 0.0
C1537 C 0.34381 0.36908 0.83193 0.0
C1538 C 0.34419 0.39613 0.83054 0.0
C1539 C 0.32902 0.40046 0.81054 0.0
C1540 C 0.31376 0.37787 0.79218 0.0
C1541 C 0.31398 0.35078 0.79415 0.0
H1542 H 0.16824 0.36377 0.44976 0.0
H1543 H 0.22557 0.45379 0.42219 0.0
H1544 H 0.25807 0.46496 0.45951 0.0
H1545 H 0.17292 0.38444 0.51559 0.0
H1546 H 0.17217 0.35119 0.52678 0.0
H1547 H 0.15415 0.35041 0.4975 0.0
H1548 H 0.18545 0.33101 0.47466 0.0
H1549 H 0.2041 0.33248 0.50382 0.0
H1550 H 0.22557 0.35231 0.47643 0.0
H1551 H 0.2847 0.46613 0.49905 0.0
H1552 H 0.29936 0.46 0.54204 0.0
H1553 H 0.22362 0.36994 0.54484 0.0
C1554 C 0.18748 0.38588 0.45183 0.0
C1555 C 0.19437 0.40806 0.43339 0.0
C1556 C 0.21972 0.43673 0.43646 0.0
C1557 C 0.2385 0.44313 0.45736 0.0
C1558 C 0.23145 0.42064 0.47502 0.0
C1559 C 0.20625 0.39279 0.47279 0.0
C1560 C 0.20292 0.37323 0.49522 0.0
C1561 C 0.17382 0.36431 0.50963 0.0
C1562 C 0.20462 0.34562 0.48703 0.0
C1563 C 0.23007 0.39453 0.51046 0.0
C1564 C 0.2465 0.42155 0.49822 0.0
C1565 C 0.27202 0.44509 0.50888 0.0
C1566 C 0.2802 0.4414 0.53324 0.0
C1567 C 0.26266 0.41452 0.54674 0.0
C1568 C 0.23785 0.3905 0.53481 0.0
H1569 H 0.81615 0.23251 0.87415 0.0
H1570 H 0.85517 0.18131 0.90344 0.0
H1571 H 0.84312 0.15313 0.86356 0.0
H1572 H 0.75408 0.17094 0.84528 0.0
H1573 H 0.75304 0.19195 0.81853 0.0
H1574 H 0.76738 0.21031 0.84837 0.0
H1575 H 0.81711 0.24837 0.82694 0.0
H1576 H 0.80275 0.2304 0.79696 0.0
H1577 H 0.83744 0.23497 0.80871 0.0
H1578 H 0.82585 0.12973 0.82043 0.0
H1579 H 0.80523 0.11387 0.77723 0.0
H1580 H 0.77348 0.177 0.77854 0.0
C1581 C 0.82227 0.21545 0.87227 0.0
C1582 C 0.83684 0.2094 0.89203 0.0
C1583 C 0.84468 0.18701 0.88847 0.0
C1584 C 0.8376 0.17057 0.86596 0.0
C1585 C 0.82242 0.17653 0.84726 0.0
C1586 C 0.81491 0.19848 0.85017 0.0
C1587 C 0.79762 0.19979 0.82767 0.0
C1588 C 0.76617 0.19282 0.83544 0.0
C1589 C 0.81476 0.23018 0.81428 0.0
C1590 C 0.79649 0.17507 0.81167 0.0
C1591 C 0.81111 0.16204 0.82315 0.0
C1592 C 0.81408 0.13955 0.81137 0.0
C1593 C 0.80223 0.13057 0.787 0.0
C1594 C 0.78723 0.14374 0.77506 0.0
C1595 C 0.78407 0.16597 0.78769 0.0
H1596 H 0.59518 0.85149 0.19543 0.0
H1597 H 0.66581 0.84186 0.22992 0.0
H1598 H 0.67268 0.82132 0.18998 0.0
H1599 H 0.562 0.78496 0.1632 0.0
H1600 H 0.5527 0.79839 0.13519 0.0
H1601 H 0.5562 0.81647 0.16505 0.0
H1602 H 0.59585 0.86726 0.14618 0.0
H1603 H 0.59201 0.84946 0.11605 0.0
H1604 H 0.62819 0.87021 0.13064 0.0
H1605 H 0.6669 0.7954 0.14823 0.0
H1606 H 0.65222 0.77074 0.10647 0.0
H1607 H 0.58654 0.79906 0.09929 0.0
C1608 C 0.61263 0.84582 0.1943 0.0
C1609 C 0.63016 0.8485 0.21559 0.0
C1610 C 0.65257 0.84055 0.21361 0.0
C1611 C 0.65647 0.82864 0.19109 0.0
C1612 C 0.63801 0.8252 0.17071 0.0
C1613 C 0.61693 0.83411 0.17196 0.0
C1614 C 0.59883 0.82656 0.14792 0.0
C1615 C 0.56547 0.80533 0.15317 0.0
C1616 C 0.60405 0.85507 0.1344 0.0
C1617 C 0.61229 0.8111 0.13332 0.0
C1618 C 0.63492 0.81059 0.14667 0.0
C1619 C 0.64956 0.79613 0.13739 0.0
C1620 C 0.64106 0.78217 0.11369 0.0
C1621 C 0.61811 0.78276 0.09959 0.0
C1622 C 0.60377 0.7976 0.10967 0.0
H1623 H 0.83571 0.64703 0.4454 0.0
H1624 H 0.84642 0.56911 0.44036 0.0
H1625 H 0.83196 0.55773 0.48494 0.0
H1626 H 0.85853 0.66585 0.5126 0.0
H1627 H 0.83047 0.67601 0.51838 0.0
H1628 H 0.84691 0.68122 0.48743 0.0
H1629 H 0.7942 0.64957 0.46807 0.0
H1630 H 0.77762 0.64382 0.49893 0.0
H1631 H 0.77008 0.61219 0.47951 0.0
H1632 H 0.81055 0.55101 0.52798 0.0
H1633 H 0.78656 0.55119 0.56801 0.0
H1634 H 0.78608 0.63134 0.54445 0.0
C1635 C 0.83559 0.62789 0.45376 0.0
C1636 C 0.84244 0.60913 0.43927 0.0
C1637 C 0.84202 0.58432 0.45106 0.0
C1638 C 0.83353 0.57746 0.47639 0.0
C1639 C 0.82553 0.59559 0.48969 0.0
C1640 C 0.82678 0.62048 0.47892 0.0
C1641 C 0.8146 0.63477 0.4967 0.0
C1642 C 0.83909 0.66633 0.50423 0.0
C1643 C 0.78752 0.63509 0.4851 0.0
C1644 C 0.80554 0.61347 0.51885 0.0
C1645 C 0.81232 0.59123 0.51446 0.0
C1646 C 0.80527 0.5684 0.53172 0.0
C1647 C 0.79122 0.56848 0.55426 0.0
C1648 C 0.78405 0.59109 0.55928 0.0
C1649 C 0.79138 0.61386 0.54124 0.0
H1650 H 0.1398 0.76257 0.85824 0.0
H1651 H 0.20308 0.74388 0.89588 0.0
H1652 H 0.24072 0.77275 0.86345 0.0
H1653 H 0.16375 0.7589 0.79359 0.0
H1654 H 0.15845 0.78881 0.78236 0.0
H1655 H 0.13558 0.76503 0.80761 0.0
H1656 H 0.1512 0.81103 0.8361 0.0
H1657 H 0.17438 0.83531 0.81123 0.0
H1658 H 0.19021 0.83655 0.84184 0.0
H1659 H 0.27311 0.80796 0.8296 0.0
H1660 H 0.29541 0.84 0.79209 0.0
H1661 H 0.2105 0.83419 0.77581 0.0
C1662 C 0.16133 0.76395 0.85926 0.0
C1663 C 0.16842 0.75079 0.87945 0.0
C1664 C 0.19693 0.75328 0.88031 0.0
C1665 C 0.21862 0.76996 0.86216 0.0
C1666 C 0.21134 0.78375 0.84314 0.0
C1667 C 0.18319 0.78034 0.84118 0.0
C1668 C 0.1812 0.7976 0.81892 0.0
C1669 C 0.15841 0.77633 0.79945 0.0
C1670 C 0.17381 0.82154 0.82755 0.0
C1671 C 0.21276 0.8116 0.80896 0.0
C1672 C 0.22987 0.80357 0.82332 0.0
C1673 C 0.25985 0.81412 0.81799 0.0
C1674 C 0.27235 0.8324 0.79674 0.0
C1675 C 0.25479 0.83971 0.78101 0.0
C1676 C 0.22479 0.82963 0.78766 0.0
H1677 H 0.40922 0.1656 0.20417 0.0
H1678 H 0.33043 0.16014 0.23814 0.0
H1679 H 0.32136 0.18058 0.19914 0.0
H1680 H 0.43479 0.23434 0.17483 0.0
H1681 H 0.44824 0.22539 0.14664 0.0
H1682 H 0.44672 0.20708 0.17597 0.0
H1683 H 0.41392 0.15529 0.15518 0.0
H1684 H 0.41592 0.17344 0.1256 0.0
H1685 H 0.38015 0.14756 0.13904 0.0
H1686 H 0.32377 0.20614 0.15778 0.0
H1687 H 0.33499 0.23042 0.11575 0.0
H1688 H 0.41209 0.21871 0.10959 0.0
C1689 C 0.38972 0.16813 0.20317 0.0
C1690 C 0.37038 0.16105 0.22401 0.0
C1691 C 0.34518 0.16483 0.22215 0.0
C1692 C 0.34001 0.17671 0.20019 0.0
C1693 C 0.36017 0.18449 0.1803 0.0
C1694 C 0.38425 0.1799 0.18145 0.0
C1695 C 0.40322 0.19113 0.15793 0.0
C1696 C 0.43512 0.21596 0.16424 0.0
C1697 C 0.40329 0.16531 0.14359 0.0
C1698 C 0.38639 0.20326 0.14358 0.0
C1699 C 0.36161 0.19925 0.1567 0.0
C1700 C 0.34297 0.20916 0.14721 0.0
C1701 C 0.34953 0.22295 0.12339 0.0
C1702 C 0.37455 0.22673 0.10947 0.0
C1703 C 0.3932 0.21686 0.11993 0.0
loop_
_geom_bond_atom_site_label_1
_geom_bond_atom_site_label_2
_geom_bond_distance
_geom_bond_site_symmetry_2
_ccdc_geom_bond_type
Li0 N17 1.990 . S
Li0 O60 1.956 . S
Li0 O61 1.970 . S
Li0 O62 1.961 . S
Li1 N25 1.990 . S
Li1 O60 1.970 . S
Li1 O61 1.956 . S
Li1 O63 1.961 . S
Li2 N47 1.990 . S
Li2 O60 1.961 . S
Li2 O62 1.956 . S
Li2 O63 1.970 . S
Li3 N53 1.990 . S
Li3 O61 1.961 . S
Li3 O62 1.970 . S
Li3 O63 1.956 . S
C4 C6 1.348 . S
C4 C7 1.356 . S
C4 O60 1.325 . S
N5 C8 1.314 . S
N5 C9 1.279 . S
C6 C4 1.348 . S
C6 C8 1.353 . S
C6 H64 0.929 . S
C7 C4 1.356 . S
C7 C9 1.358 . S
C7 H65 0.930 . S
C8 N5 1.314 . S
C8 C6 1.353 . S
C8 H66 0.930 . S
C9 N5 1.279 . S
C9 C7 1.358 . S
C9 H67 0.930 . S
C10 C13 1.348 . S
C10 C14 1.356 . S
C10 O61 1.325 . S
C11 N12 1.279 . S
C11 C14 1.358 . S
C11 H68 0.930 . S
N12 C11 1.279 . S
N12 C15 1.314 . S
C13 C10 1.348 . S
C13 C15 1.353 . S
C13 H69 0.929 . S
C14 C10 1.356 . S
C14 C11 1.358 . S
C14 H70 0.930 . S
C15 N12 1.314 . S
C15 C13 1.353 . S
C15 H71 0.930 . S
C16 N17 1.314 . S
C16 C21 1.353 . S
C16 H22 0.930 . S
N17 Li0 1.990 . S
N17 C16 1.314 . S
N17 C19 1.279 . S
C18 C19 1.358 . S
C18 C20 1.356 . S
C18 H72 0.930 . S
C19 N17 1.279 . S
C19 C18 1.358 . S
C19 H23 0.930 . S
C20 C18 1.356 . S
C20 C21 1.348 . S
C21 C16 1.353 . S
C21 C20 1.348 . S
C21 H73 0.929 . S
H22 C16 0.930 . S
H23 C19 0.930 . S
C24 N25 1.314 . S
C24 C26 1.353 . S
C24 H30 0.930 . S
N25 Li1 1.990 . S
N25 C24 1.314 . S
N25 C28 1.279 . S
C26 C24 1.353 . S
C26 C29 1.348 . S
C26 H74 0.929 . S
C27 C28 1.358 . S
C27 C29 1.356 . S
C27 H75 0.930 . S
C28 N25 1.279 . S
C28 C27 1.358 . S
C28 H31 0.930 . S
C29 C26 1.348 . S
C29 C27 1.356 . S
H30 C24 0.930 . S
H31 C28 0.930 . S
C32 C34 1.348 . S
C32 C35 1.356 . S
C32 O62 1.325 . S
N33 C36 1.314 . S
N33 C37 1.279 . S
C34 C32 1.348 . S
C34 C36 1.353 . S
C34 H76 0.929 . S
C35 C32 1.356 . S
C35 C37 1.358 . S
C35 H77 0.930 . S
C36 N33 1.314 . S
C36 C34 1.353 . S
C36 H78 0.930 . S
C37 N33 1.279 . S
C37 C35 1.358 . S
C37 H79 0.930 . S
C38 C39 1.348 . S
C38 C40 1.356 . S
C38 O63 1.325 . S
C39 C38 1.348 . S
C39 C41 1.353 . S
C39 H80 0.929 . S
C40 C38 1.356 . S
C40 C42 1.358 . S
C40 H81 0.930 . S
C41 C39 1.353 . S
C41 N43 1.314 . S
C41 H82 0.930 . S
C42 C40 1.358 . S
C42 N43 1.279 . S
C42 H83 0.930 . S
N43 C41 1.314 . S
N43 C42 1.279 . S
C44 C46 1.353 . S
C44 N47 1.314 . S
C44 H50 0.930 . S
C45 N47 1.279 . S
C45 C48 1.358 . S
C45 H51 0.930 . S
C46 C44 1.353 . S
C46 C49 1.348 . S
C46 H84 0.929 . S
N47 Li2 1.990 . S
N47 C44 1.314 . S
N47 C45 1.279 . S
C48 C45 1.358 . S
C48 C49 1.356 . S
C48 H85 0.930 . S
C49 C46 1.348 . S
C49 C48 1.356 . S
H50 C44 0.930 . S
H51 C45 0.930 . S
C52 N53 1.314 . S
C52 C54 1.353 . S
C52 H58 0.930 . S
N53 Li3 1.990 . S
N53 C52 1.314 . S
N53 C56 1.279 . S
C54 C52 1.353 . S
C54 C57 1.348 . S
C54 H86 0.929 . S
C55 C56 1.358 . S
C55 C57 1.356 . S
C55 H87 0.930 . S
C56 N53 1.279 . S
C56 C55 1.358 . S
C56 H59 0.930 . S
C57 C54 1.348 . S
C57 C55 1.356 . S
H58 C52 0.930 . S
H59 C56 0.930 . S
O60 Li0 1.956 . S
O60 Li1 1.970 . S
O60 Li2 1.961 . S
O60 C4 1.325 . S
O61 Li0 1.970 . S
O61 Li1 1.956 . S
O61 Li3 1.961 . S
O61 C10 1.325 . S
O62 Li0 1.961 . S
O62 Li2 1.956 . S
O62 Li3 1.970 . S
O62 C32 1.325 . S
O63 Li1 1.961 . S
O63 Li2 1.970 . S
O63 Li3 1.956 . S
O63 C38 1.325 . S
H64 C6 0.929 . S
H65 C7 0.930 . S
H66 C8 0.930 . S
H67 C9 0.930 . S
H68 C11 0.930 . S
H69 C13 0.929 . S
H70 C14 0.930 . S
H71 C15 0.930 . S
H72 C18 0.930 . S
H73 C21 0.929 . S
H74 C26 0.929 . S
H75 C27 0.930 . S
H76 C34 0.929 . S
H77 C35 0.930 . S
H78 C36 0.930 . S
H79 C37 0.930 . S
H80 C39 0.929 . S
H81 C40 0.930 . S
H82 C41 0.930 . S
H83 C42 0.930 . S
H84 C46 0.929 . S
H85 C48 0.930 . S
H86 C54 0.929 . S
H87 C55 0.930 . S
Li88 N105 1.990 . S
Li88 O148 1.956 . S
Li88 O149 1.970 . S
Li88 O150 1.961 . S
Li89 N113 1.990 . S
Li89 O148 1.970 . S
Li89 O149 1.956 . S
Li89 O151 1.961 . S
Li90 N135 1.990 . S
Li90 O148 1.961 . S
Li90 O150 1.956 . S
Li90 O151 1.970 . S
Li91 N141 1.990 . S
Li91 O149 1.961 . S
Li91 O150 1.970 . S
Li91 O151 1.956 . S
C92 C94 1.348 . S
C92 C95 1.356 . S
C92 O148 1.325 . S
N93 C96 1.314 . S
N93 C97 1.279 . S
C94 C92 1.348 . S
C94 C96 1.353 . S
C94 H152 0.929 . S
C95 C92 1.356 . S
C95 C97 1.358 . S
C95 H153 0.930 . S
C96 N93 1.314 . S
C96 C94 1.353 . S
C96 H154 0.930 . S
C97 N93 1.279 . S
C97 C95 1.358 . S
C97 H155 0.930 . S
C98 C101 1.348 . S
C98 C102 1.356 . S
C98 O149 1.325 . S
C99 N100 1.279 . S
C99 C102 1.358 . S
C99 H156 0.930 . S
N100 C99 1.279 . S
N100 C103 1.314 . S
C101 C98 1.348 . S
C101 C103 1.353 . S
C101 H157 0.929 . S
C102 C98 1.356 . S
C102 C99 1.358 . S
C102 H158 0.930 . S
C103 N100 1.314 . S
C103 C101 1.353 . S
C103 H159 0.930 . S
C104 N105 1.314 . S
C104 C109 1.353 . S
C104 H110 0.930 . S
N105 Li88 1.990 . S
N105 C104 1.314 . S
N105 C107 1.279 . S
C106 C107 1.358 . S
C106 C108 1.356 . S
C106 H160 0.930 . S
C107 N105 1.279 . S
C107 C106 1.358 . S
C107 H111 0.930 . S
C108 C106 1.356 . S
C108 C109 1.348 . S
C109 C104 1.353 . S
C109 C108 1.348 . S
C109 H161 0.929 . S
H110 C104 0.930 . S
H111 C107 0.930 . S
C112 N113 1.314 . S
C112 C114 1.353 . S
C112 H118 0.930 . S
N113 Li89 1.990 . S
N113 C112 1.314 . S
N113 C116 1.279 . S
C114 C112 1.353 . S
C114 C117 1.348 . S
C114 H162 0.929 . S
C115 C116 1.358 . S
C115 C117 1.356 . S
C115 H163 0.930 . S
C116 N113 1.279 . S
C116 C115 1.358 . S
C116 H119 0.930 . S
C117 C114 1.348 . S
C117 C115 1.356 . S
H118 C112 0.930 . S
H119 C116 0.930 . S
C120 C122 1.348 . S
C120 C123 1.356 . S
C120 O150 1.325 . S
N121 C124 1.314 . S
N121 C125 1.279 . S
C122 C120 1.348 . S
C122 C124 1.353 . S
C122 H164 0.929 . S
C123 C120 1.356 . S
C123 C125 1.358 . S
C123 H165 0.930 . S
C124 N121 1.314 . S
C124 C122 1.353 . S
C124 H166 0.930 . S
C125 N121 1.279 . S
C125 C123 1.358 . S
C125 H167 0.930 . S
C126 C127 1.348 . S
C126 C128 1.356 . S
C126 O151 1.325 . S
C127 C126 1.348 . S
C127 C129 1.353 . S
C127 H168 0.929 . S
C128 C126 1.356 . S
C128 C130 1.358 . S
C128 H169 0.930 . S
C129 C127 1.353 . S
C129 N131 1.314 . S
C129 H170 0.930 . S
C130 C128 1.358 . S
C130 N131 1.279 . S
C130 H171 0.930 . S
N131 C129 1.314 . S
N131 C130 1.279 . S
C132 C134 1.353 . S
C132 N135 1.314 . S
C132 H138 0.930 . S
C133 N135 1.279 . S
C133 C136 1.358 . S
C133 H139 0.930 . S
C134 C132 1.353 . S
C134 C137 1.348 . S
C134 H172 0.929 . S
N135 Li90 1.990 . S
N135 C132 1.314 . S
N135 C133 1.279 . S
C136 C133 1.358 . S
C136 C137 1.356 . S
C136 H173 0.930 . S
C137 C134 1.348 . S
C137 C136 1.356 . S
H138 C132 0.930 . S
H139 C133 0.930 . S
C140 N141 1.314 . S
C140 C142 1.353 . S
C140 H146 0.930 . S
N141 Li91 1.990 . S
N141 C140 1.314 . S
N141 C144 1.279 . S
C142 C140 1.353 . S
C142 C145 1.348 . S
C142 H174 0.929 . S
C143 C144 1.358 . S
C143 C145 1.356 . S
C143 H175 0.930 . S
C144 N141 1.279 . S
C144 C143 1.358 . S
C144 H147 0.930 . S
C145 C142 1.348 . S
C145 C143 1.356 . S
H146 C140 0.930 . S
H147 C144 0.930 . S
O148 Li88 1.956 . S
O148 Li89 1.970 . S
O148 Li90 1.961 . S
O148 C92 1.325 . S
O149 Li88 1.970 . S
O149 Li89 1.956 . S
O149 Li91 1.961 . S
O149 C98 1.325 . S
O150 Li88 1.961 . S
O150 Li90 1.956 . S
O150 Li91 1.970 . S
O150 C120 1.325 . S
O151 Li89 1.961 . S
O151 Li90 1.970 . S
O151 Li91 1.956 . S
O151 C126 1.325 . S
H152 C94 0.929 . S
H153 C95 0.930 . S
H154 C96 0.930 . S
H155 C97 0.930 . S
H156 C99 0.930 . S
H157 C101 0.929 . S
H158 C102 0.930 . S
H159 C103 0.930 . S
H160 C106 0.930 . S
H161 C109 0.929 . S
H162 C114 0.929 . S
H163 C115 0.930 . S
H164 C122 0.929 . S
H165 C123 0.930 . S
H166 C124 0.930 . S
H167 C125 0.930 . S
H168 C127 0.929 . S
H169 C128 0.930 . S
H170 C129 0.930 . S
H171 C130 0.930 . S
H172 C134 0.929 . S
H173 C136 0.930 . S
H174 C142 0.929 . S
H175 C143 0.930 . S
Li176 N193 1.990 . S
Li176 O236 1.956 . S
Li176 O237 1.970 . S
Li176 O238 1.961 . S
Li177 N201 1.990 . S
Li177 O236 1.970 1_556 S
Li177 O237 1.956 1_556 S
Li177 O239 1.961 . S
Li178 N223 1.990 . S
Li178 O236 1.961 1_556 S
Li178 O238 1.956 1_556 S
Li178 O239 1.970 . S
Li179 N229 1.990 . S
Li179 O237 1.961 1_556 S
Li179 O238 1.970 1_556 S
Li179 O239 1.956 . S
C180 C182 1.348 . S
C180 C183 1.356 . S
C180 O236 1.325 . S
N181 C184 1.314 . S
N181 C185 1.279 . S
C182 C180 1.348 . S
C182 C184 1.353 . S
C182 H240 0.929 . S
C183 C180 1.356 . S
C183 C185 1.358 . S
C183 H241 0.930 . S
C184 N181 1.314 . S
C184 C182 1.353 . S
C184 H242 0.930 . S
C185 N181 1.279 . S
C185 C183 1.358 . S
C185 H243 0.930 . S
C186 C189 1.348 . S
C186 C190 1.356 . S
C186 O237 1.325 . S
C187 N188 1.279 . S
C187 C190 1.358 . S
C187 H244 0.930 . S
N188 C187 1.279 . S
N188 C191 1.314 . S
C189 C186 1.348 . S
C189 C191 1.353 . S
C189 H245 0.929 . S
C190 C186 1.356 . S
C190 C187 1.358 . S
C190 H246 0.930 . S
C191 N188 1.314 . S
C191 C189 1.353 . S
C191 H247 0.930 . S
C192 N193 1.314 . S
C192 C197 1.353 . S
C192 H198 0.930 . S
N193 Li176 1.990 . S
N193 C192 1.314 . S
N193 C195 1.279 . S
C194 C195 1.358 . S
C194 C196 1.356 . S
C194 H248 0.930 . S
C195 N193 1.279 . S
C195 C194 1.358 . S
C195 H199 0.930 . S
C196 C194 1.356 . S
C196 C197 1.348 . S
C197 C192 1.353 . S
C197 C196 1.348 . S
C197 H249 0.929 . S
H198 C192 0.930 . S
H199 C195 0.930 . S
C200 N201 1.314 . S
C200 C202 1.353 . S
C200 H206 0.930 . S
N201 Li177 1.990 . S
N201 C200 1.314 . S
N201 C204 1.279 1_556 S
C202 C200 1.353 . S
C202 C205 1.348 . S
C202 H250 0.929 . S
C203 C204 1.358 1_556 S
C203 C205 1.356 . S
C203 H251 0.930 1_556 S
C204 N201 1.279 1_554 S
C204 C203 1.358 1_554 S
C204 H207 0.930 . S
C205 C202 1.348 . S
C205 C203 1.356 . S
H206 C200 0.930 . S
H207 C204 0.930 . S
C208 C210 1.348 . S
C208 C211 1.356 . S
C208 O238 1.325 . S
N209 C212 1.314 . S
N209 C213 1.279 . S
C210 C208 1.348 . S
C210 C212 1.353 . S
C210 H252 0.929 1_554 S
C211 C208 1.356 . S
C211 C213 1.358 . S
C211 H253 0.930 . S
C212 N209 1.314 . S
C212 C210 1.353 . S
C212 H254 0.930 . S
C213 N209 1.279 . S
C213 C211 1.358 . S
C213 H255 0.930 . S
C214 C215 1.348 . S
C214 C216 1.356 . S
C214 O239 1.325 . S
C215 C214 1.348 . S
C215 C217 1.353 . S
C215 H256 0.929 . S
C216 C214 1.356 . S
C216 C218 1.358 . S
C216 H257 0.930 . S
C217 C215 1.353 . S
C217 N219 1.314 . S
C217 H258 0.930 . S
C218 C216 1.358 . S
C218 N219 1.279 . S
C218 H259 0.930 . S
N219 C217 1.314 . S
N219 C218 1.279 . S
C220 C222 1.353 . S
C220 N223 1.314 . S
C220 H226 0.930 . S
C221 N223 1.279 . S
C221 C224 1.358 . S
C221 H227 0.930 . S
C222 C220 1.353 . S
C222 C225 1.348 . S
C222 H260 0.929 . S
N223 Li178 1.990 . S
N223 C220 1.314 . S
N223 C221 1.279 . S
C224 C221 1.358 . S
C224 C225 1.356 . S
C224 H261 0.930 . S
C225 C222 1.348 . S
C225 C224 1.356 . S
H226 C220 0.930 . S
H227 C221 0.930 . S
C228 N229 1.314 1_554 S
C228 C230 1.353 . S
C228 H234 0.930 . S
N229 Li179 1.990 . S
N229 C228 1.314 1_556 S
N229 C232 1.279 . S
C230 C228 1.353 . S
C230 C233 1.348 1_554 S
C230 H262 0.929 . S
C231 C232 1.358 . S
C231 C233 1.356 . S
C231 H263 0.930 . S
C232 N229 1.279 . S
C232 C231 1.358 . S
C232 H235 0.930 . S
C233 C230 1.348 1_556 S
C233 C231 1.356 . S
H234 C228 0.930 . S
H235 C232 0.930 . S
O236 Li176 1.956 . S
O236 Li177 1.970 1_554 S
O236 Li178 1.961 1_554 S
O236 C180 1.325 . S
O237 Li176 1.970 . S
O237 Li177 1.956 1_554 S
O237 Li179 1.961 1_554 S
O237 C186 1.325 . S
O238 Li176 1.961 . S
O238 Li178 1.956 1_554 S
O238 Li179 1.970 1_554 S
O238 C208 1.325 . S
O239 Li177 1.961 . S
O239 Li178 1.970 . S
O239 Li179 1.956 . S
O239 C214 1.325 . S
H240 C182 0.929 . S
H241 C183 0.930 . S
H242 C184 0.930 . S
H243 C185 0.930 . S
H244 C187 0.930 . S
H245 C189 0.929 . S
H246 C190 0.930 . S
H247 C191 0.930 . S
H248 C194 0.930 . S
H249 C197 0.929 . S
H250 C202 0.929 . S
H251 C203 0.930 1_554 S
H252 C210 0.929 1_556 S
H253 C211 0.930 . S
H254 C212 0.930 . S
H255 C213 0.930 . S
H256 C215 0.929 . S
H257 C216 0.930 . S
H258 C217 0.930 . S
H259 C218 0.930 . S
H260 C222 0.929 . S
H261 C224 0.930 . S
H262 C230 0.929 . S
H263 C231 0.930 . S
Li264 N281 1.990 . S
Li264 O324 1.956 . S
Li264 O325 1.970 . S
Li264 O326 1.961 . S
Li265 N289 1.990 . S
Li265 O324 1.970 . S
Li265 O325 1.956 . S
Li265 O327 1.961 . S
Li266 N311 1.990 . S
Li266 O324 1.961 . S
Li266 O326 1.956 . S
Li266 O327 1.970 . S
Li267 N317 1.990 . S
Li267 O325 1.961 . S
Li267 O326 1.970 . S
Li267 O327 1.956 . S
C268 C270 1.348 . S
C268 C271 1.356 . S
C268 O324 1.325 . S
N269 C272 1.314 . S
N269 C273 1.279 . S
C270 C268 1.348 . S
C270 C272 1.353 . S
C270 H328 0.929 . S
C271 C268 1.356 . S
C271 C273 1.358 . S
C271 H329 0.930 . S
C272 N269 1.314 . S
C272 C270 1.353 . S
C272 H330 0.930 . S
C273 N269 1.279 . S
C273 C271 1.358 . S
C273 H331 0.930 . S
C274 C277 1.348 . S
C274 C278 1.356 . S
C274 O325 1.325 . S
C275 N276 1.279 . S
C275 C278 1.358 . S
C275 H332 0.930 . S
N276 C275 1.279 . S
N276 C279 1.314 . S
C277 C274 1.348 . S
C277 C279 1.353 . S
C277 H333 0.929 . S
C278 C274 1.356 . S
C278 C275 1.358 . S
C278 H334 0.930 . S
C279 N276 1.314 . S
C279 C277 1.353 . S
C279 H335 0.930 . S
C280 N281 1.314 . S
C280 C285 1.353 . S
C280 H286 0.930 . S
N281 Li264 1.990 . S
N281 C280 1.314 . S
N281 C283 1.279 . S
C282 C283 1.358 . S
C282 C284 1.356 . S
C282 H336 0.930 . S
C283 N281 1.279 . S
C283 C282 1.358 . S
C283 H287 0.930 . S
C284 C282 1.356 . S
C284 C285 1.348 . S
C285 C280 1.353 . S
C285 C284 1.348 . S
C285 H337 0.929 . S
H286 C280 0.930 . S
H287 C283 0.930 . S
C288 N289 1.314 . S
C288 C290 1.353 . S
C288 H294 0.930 . S
N289 Li265 1.990 . S
N289 C288 1.314 . S
N289 C292 1.279 . S
C290 C288 1.353 . S
C290 C293 1.348 . S
C290 H338 0.929 . S
C291 C292 1.358 . S
C291 C293 1.356 . S
C291 H339 0.930 . S
C292 N289 1.279 . S
C292 C291 1.358 . S
C292 H295 0.930 . S
C293 C290 1.348 . S
C293 C291 1.356 . S
H294 C288 0.930 . S
H295 C292 0.930 . S
C296 C298 1.348 . S
C296 C299 1.356 . S
C296 O326 1.325 . S
N297 C300 1.314 . S
N297 C301 1.279 . S
C298 C296 1.348 . S
C298 C300 1.353 . S
C298 H340 0.929 . S
C299 C296 1.356 . S
C299 C301 1.358 . S
C299 H341 0.930 . S
C300 N297 1.314 . S
C300 C298 1.353 . S
C300 H342 0.930 . S
C301 N297 1.279 . S
C301 C299 1.358 . S
C301 H343 0.930 . S
C302 C303 1.348 . S
C302 C304 1.356 . S
C302 O327 1.325 . S
C303 C302 1.348 . S
C303 C305 1.353 . S
C303 H344 0.929 . S
C304 C302 1.356 . S
C304 C306 1.358 . S
C304 H345 0.930 . S
C305 C303 1.353 . S
C305 N307 1.314 . S
C305 H346 0.930 . S
C306 C304 1.358 . S
C306 N307 1.279 . S
C306 H347 0.930 . S
N307 C305 1.314 . S
N307 C306 1.279 . S
C308 C310 1.353 . S
C308 N311 1.314 . S
C308 H314 0.930 . S
C309 N311 1.279 . S
C309 C312 1.358 . S
C309 H315 0.930 . S
C310 C308 1.353 . S
C310 C313 1.348 . S
C310 H348 0.929 . S
N311 Li266 1.990 . S
N311 C308 1.314 . S
N311 C309 1.279 . S
C312 C309 1.358 . S
C312 C313 1.356 . S
C312 H349 0.930 . S
C313 C310 1.348 . S
C313 C312 1.356 . S
H314 C308 0.930 . S
H315 C309 0.930 . S
C316 N317 1.314 . S
C316 C318 1.353 . S
C316 H322 0.930 . S
N317 Li267 1.990 . S
N317 C316 1.314 . S
N317 C320 1.279 . S
C318 C316 1.353 . S
C318 C321 1.348 . S
C318 H350 0.929 . S
C319 C320 1.358 . S
C319 C321 1.356 . S
C319 H351 0.930 . S
C320 N317 1.279 . S
C320 C319 1.358 . S
C320 H323 0.930 . S
C321 C318 1.348 . S
C321 C319 1.356 . S
H322 C316 0.930 . S
H323 C320 0.930 . S
O324 Li264 1.956 . S
O324 Li265 1.970 . S
O324 Li266 1.961 . S
O324 C268 1.325 . S
O325 Li264 1.970 . S
O325 Li265 1.956 . S
O325 Li267 1.961 . S
O325 C274 1.325 . S
O326 Li264 1.961 . S
O326 Li266 1.956 . S
O326 Li267 1.970 . S
O326 C296 1.325 . S
O327 Li265 1.961 . S
O327 Li266 1.970 . S
O327 Li267 1.956 . S
O327 C302 1.325 . S
H328 C270 0.929 . S
H329 C271 0.930 . S
H330 C272 0.930 . S
H331 C273 0.930 . S
H332 C275 0.930 . S
H333 C277 0.929 . S
H334 C278 0.930 . S
H335 C279 0.930 . S
H336 C282 0.930 . S
H337 C285 0.929 . S
H338 C290 0.929 . S
H339 C291 0.930 . S
H340 C298 0.929 . S
H341 C299 0.930 . S
H342 C300 0.930 . S
H343 C301 0.930 . S
H344 C303 0.929 . S
H345 C304 0.930 . S
H346 C305 0.930 . S
H347 C306 0.930 . S
H348 C310 0.929 . S
H349 C312 0.930 . S
H350 C318 0.929 . S
H351 C319 0.930 . S
Li352 N369 1.990 . S
Li352 O412 1.956 . S
Li352 O413 1.970 . S
Li352 O414 1.961 . S
Li353 N377 1.990 . S
Li353 O412 1.970 . S
Li353 O413 1.956 . S
Li353 O415 1.961 . S
Li354 N399 1.990 . S
Li354 O412 1.961 . S
Li354 O414 1.956 . S
Li354 O415 1.970 . S
Li355 N405 1.990 . S
Li355 O413 1.961 . S
Li355 O414 1.970 . S
Li355 O415 1.956 . S
C356 C358 1.348 . S
C356 C359 1.356 . S
C356 O412 1.325 . S
N357 C360 1.314 . S
N357 C361 1.279 . S
C358 C356 1.348 . S
C358 C360 1.353 . S
C358 H416 0.929 . S
C359 C356 1.356 . S
C359 C361 1.358 . S
C359 H417 0.930 . S
C360 N357 1.314 . S
C360 C358 1.353 . S
C360 H418 0.930 . S
C361 N357 1.279 . S
C361 C359 1.358 . S
C361 H419 0.930 . S
C362 C365 1.348 . S
C362 C366 1.356 . S
C362 O413 1.325 . S
C363 N364 1.279 . S
C363 C366 1.358 . S
C363 H420 0.930 . S
N364 C363 1.279 . S
N364 C367 1.314 . S
C365 C362 1.348 . S
C365 C367 1.353 . S
C365 H421 0.929 . S
C366 C362 1.356 . S
C366 C363 1.358 . S
C366 H422 0.930 . S
C367 N364 1.314 . S
C367 C365 1.353 . S
C367 H423 0.930 . S
C368 N369 1.314 . S
C368 C373 1.353 . S
C368 H374 0.930 . S
N369 Li352 1.990 . S
N369 C368 1.314 . S
N369 C371 1.279 . S
C370 C371 1.358 . S
C370 C372 1.356 . S
C370 H424 0.930 . S
C371 N369 1.279 . S
C371 C370 1.358 . S
C371 H375 0.930 . S
C372 C370 1.356 . S
C372 C373 1.348 . S
C373 C368 1.353 . S
C373 C372 1.348 . S
C373 H425 0.929 . S
H374 C368 0.930 . S
H375 C371 0.930 . S
C376 N377 1.314 . S
C376 C378 1.353 . S
C376 H382 0.930 . S
N377 Li353 1.990 . S
N377 C376 1.314 . S
N377 C380 1.279 . S
C378 C376 1.353 . S
C378 C381 1.348 . S
C378 H426 0.929 . S
C379 C380 1.358 . S
C379 C381 1.356 . S
C379 H427 0.930 . S
C380 N377 1.279 . S
C380 C379 1.358 . S
C380 H383 0.930 . S
C381 C378 1.348 . S
C381 C379 1.356 . S
H382 C376 0.930 . S
H383 C380 0.930 . S
C384 C386 1.348 . S
C384 C387 1.356 . S
C384 O414 1.325 . S
N385 C388 1.314 . S
N385 C389 1.279 . S
C386 C384 1.348 . S
C386 C388 1.353 . S
C386 H428 0.929 . S
C387 C384 1.356 . S
C387 C389 1.358 . S
C387 H429 0.930 . S
C388 N385 1.314 . S
C388 C386 1.353 . S
C388 H430 0.930 . S
C389 N385 1.279 . S
C389 C387 1.358 . S
C389 H431 0.930 . S
C390 C391 1.348 . S
C390 C392 1.356 . S
C390 O415 1.325 . S
C391 C390 1.348 . S
C391 C393 1.353 . S
C391 H432 0.929 . S
C392 C390 1.356 . S
C392 C394 1.358 . S
C392 H433 0.930 . S
C393 C391 1.353 . S
C393 N395 1.314 . S
C393 H434 0.930 . S
C394 C392 1.358 . S
C394 N395 1.279 . S
C394 H435 0.930 . S
N395 C393 1.314 . S
N395 C394 1.279 . S
C396 C398 1.353 . S
C396 N399 1.314 . S
C396 H402 0.930 . S
C397 N399 1.279 . S
C397 C400 1.358 . S
C397 H403 0.930 . S
C398 C396 1.353 . S
C398 C401 1.348 . S
C398 H436 0.929 . S
N399 Li354 1.990 . S
N399 C396 1.314 . S
N399 C397 1.279 . S
C400 C397 1.358 . S
C400 C401 1.356 . S
C400 H437 0.930 . S
C401 C398 1.348 . S
C401 C400 1.356 . S
H402 C396 0.930 . S
H403 C397 0.930 . S
C404 N405 1.314 . S
C404 C406 1.353 . S
C404 H410 0.930 . S
N405 Li355 1.990 . S
N405 C404 1.314 . S
N405 C408 1.279 . S
C406 C404 1.353 . S
C406 C409 1.348 . S
C406 H438 0.929 . S
C407 C408 1.358 . S
C407 C409 1.356 . S
C407 H439 0.930 . S
C408 N405 1.279 . S
C408 C407 1.358 . S
C408 H411 0.930 . S
C409 C406 1.348 . S
C409 C407 1.356 . S
H410 C404 0.930 . S
H411 C408 0.930 . S
O412 Li352 1.956 . S
O412 Li353 1.970 . S
O412 Li354 1.961 . S
O412 C356 1.325 . S
O413 Li352 1.970 . S
O413 Li353 1.956 . S
O413 Li355 1.961 . S
O413 C362 1.325 . S
O414 Li352 1.961 . S
O414 Li354 1.956 . S
O414 Li355 1.970 . S
O414 C384 1.325 . S
O415 Li353 1.961 . S
O415 Li354 1.970 . S
O415 Li355 1.956 . S
O415 C390 1.325 . S
H416 C358 0.929 . S
H417 C359 0.930 . S
H418 C360 0.930 . S
H419 C361 0.930 . S
H420 C363 0.930 . S
H421 C365 0.929 . S
H422 C366 0.930 . S
H423 C367 0.930 . S
H424 C370 0.930 . S
H425 C373 0.929 . S
H426 C378 0.929 . S
H427 C379 0.930 . S
H428 C386 0.929 . S
H429 C387 0.930 . S
H430 C388 0.930 . S
H431 C389 0.930 . S
H432 C391 0.929 . S
H433 C392 0.930 . S
H434 C393 0.930 . S
H435 C394 0.930 . S
H436 C398 0.929 . S
H437 C400 0.930 . S
H438 C406 0.929 . S
H439 C407 0.930 . S
Li440 N457 1.990 . S
Li440 O500 1.956 1_556 S
Li440 O501 1.970 1_556 S
Li440 O502 1.961 . S
Li441 N465 1.990 . S
Li441 O500 1.970 . S
Li441 O501 1.956 . S
Li441 O503 1.961 . S
Li442 N487 1.990 . S
Li442 O500 1.961 1_556 S
Li442 O502 1.956 . S
Li442 O503 1.970 1_556 S
Li443 N493 1.990 . S
Li443 O501 1.961 1_556 S
Li443 O502 1.970 . S
Li443 O503 1.956 1_556 S
C444 C446 1.348 . S
C444 C447 1.356 . S
C444 O500 1.325 . S
N445 C448 1.314 . S
N445 C449 1.279 . S
C446 C444 1.348 . S
C446 C448 1.353 . S
C446 H504 0.929 . S
C447 C444 1.356 . S
C447 C449 1.358 . S
C447 H505 0.930 . S
C448 N445 1.314 . S
C448 C446 1.353 . S
C448 H506 0.930 . S
C449 N445 1.279 . S
C449 C447 1.358 . S
C449 H507 0.930 . S
C450 C453 1.348 . S
C450 C454 1.356 . S
C450 O501 1.325 . S
C451 N452 1.279 . S
C451 C454 1.358 . S
C451 H508 0.930 . S
N452 C451 1.279 . S
N452 C455 1.314 . S
C453 C450 1.348 . S
C453 C455 1.353 . S
C453 H509 0.929 . S
C454 C450 1.356 . S
C454 C451 1.358 . S
C454 H510 0.930 . S
C455 N452 1.314 . S
C455 C453 1.353 . S
C455 H511 0.930 . S
C456 N457 1.314 . S
C456 C461 1.353 . S
C456 H462 0.930 . S
N457 Li440 1.990 . S
N457 C456 1.314 . S
N457 C459 1.279 1_556 S
C458 C459 1.358 1_556 S
C458 C460 1.356 . S
C458 H512 0.930 1_556 S
C459 N457 1.279 1_554 S
C459 C458 1.358 1_554 S
C459 H463 0.930 . S
C460 C458 1.356 . S
C460 C461 1.348 . S
C461 C456 1.353 . S
C461 C460 1.348 . S
C461 H513 0.929 . S
H462 C456 0.930 . S
H463 C459 0.930 . S
C464 N465 1.314 . S
C464 C466 1.353 . S
C464 H470 0.930 . S
N465 Li441 1.990 . S
N465 C464 1.314 . S
N465 C468 1.279 . S
C466 C464 1.353 . S
C466 C469 1.348 . S
C466 H514 0.929 . S
C467 C468 1.358 . S
C467 C469 1.356 . S
C467 H515 0.930 . S
C468 N465 1.279 . S
C468 C467 1.358 . S
C468 H471 0.930 . S
C469 C466 1.348 . S
C469 C467 1.356 . S
H470 C464 0.930 . S
H471 C468 0.930 . S
C472 C474 1.348 . S
C472 C475 1.356 . S
C472 O502 1.325 . S
N473 C476 1.314 . S
N473 C477 1.279 . S
C474 C472 1.348 . S
C474 C476 1.353 . S
C474 H516 0.929 . S
C475 C472 1.356 . S
C475 C477 1.358 . S
C475 H517 0.930 . S
C476 N473 1.314 . S
C476 C474 1.353 . S
C476 H518 0.930 . S
C477 N473 1.279 . S
C477 C475 1.358 . S
C477 H519 0.930 . S
C478 C479 1.348 . S
C478 C480 1.356 . S
C478 O503 1.325 . S
C479 C478 1.348 . S
C479 C481 1.353 . S
C479 H520 0.929 1_554 S
C480 C478 1.356 . S
C480 C482 1.358 . S
C480 H521 0.930 . S
C481 C479 1.353 . S
C481 N483 1.314 . S
C481 H522 0.930 . S
C482 C480 1.358 . S
C482 N483 1.279 . S
C482 H523 0.930 . S
N483 C481 1.314 . S
N483 C482 1.279 . S
C484 C486 1.353 . S
C484 N487 1.314 1_554 S
C484 H490 0.930 . S
C485 N487 1.279 . S
C485 C488 1.358 . S
C485 H491 0.930 . S
C486 C484 1.353 . S
C486 C489 1.348 1_554 S
C486 H524 0.929 . S
N487 Li442 1.990 . S
N487 C484 1.314 1_556 S
N487 C485 1.279 . S
C488 C485 1.358 . S
C488 C489 1.356 . S
C488 H525 0.930 . S
C489 C486 1.348 1_556 S
C489 C488 1.356 . S
H490 C484 0.930 . S
H491 C485 0.930 . S
C492 N493 1.314 . S
C492 C494 1.353 . S
C492 H498 0.930 . S
N493 Li443 1.990 . S
N493 C492 1.314 . S
N493 C496 1.279 . S
C494 C492 1.353 . S
C494 C497 1.348 . S
C494 H526 0.929 . S
C495 C496 1.358 . S
C495 C497 1.356 . S
C495 H527 0.930 . S
C496 N493 1.279 . S
C496 C495 1.358 . S
C496 H499 0.930 . S
C497 C494 1.348 . S
C497 C495 1.356 . S
H498 C492 0.930 . S
H499 C496 0.930 . S
O500 Li440 1.956 1_554 S
O500 Li441 1.970 . S
O500 Li442 1.961 1_554 S
O500 C444 1.325 . S
O501 Li440 1.970 1_554 S
O501 Li441 1.956 . S
O501 Li443 1.961 1_554 S
O501 C450 1.325 . S
O502 Li440 1.961 . S
O502 Li442 1.956 . S
O502 Li443 1.970 . S
O502 C472 1.325 . S
O503 Li441 1.961 . S
O503 Li442 1.970 1_554 S
O503 Li443 1.956 1_554 S
O503 C478 1.325 . S
H504 C446 0.929 . S
H505 C447 0.930 . S
H506 C448 0.930 . S
H507 C449 0.930 . S
H508 C451 0.930 . S
H509 C453 0.929 . S
H510 C454 0.930 . S
H511 C455 0.930 . S
H512 C458 0.930 1_554 S
H513 C461 0.929 . S
H514 C466 0.929 . S
H515 C467 0.930 . S
H516 C474 0.929 . S
H517 C475 0.930 . S
H518 C476 0.930 . S
H519 C477 0.930 . S
H520 C479 0.929 1_556 S
H521 C480 0.930 . S
H522 C481 0.930 . S
H523 C482 0.930 . S
H524 C486 0.929 . S
H525 C488 0.930 . S
H526 C494 0.929 . S
H527 C495 0.930 . S
Li528 N545 1.990 . S
Li528 O588 1.956 . S
Li528 O589 1.970 . S
Li528 O590 1.961 . S
Li529 N553 1.990 . S
Li529 O588 1.970 . S
Li529 O589 1.956 . S
Li529 O591 1.961 . S
Li530 N575 1.990 . S
Li530 O588 1.961 . S
Li530 O590 1.956 . S
Li530 O591 1.970 . S
Li531 N581 1.990 . S
Li531 O589 1.961 . S
Li531 O590 1.970 . S
Li531 O591 1.956 . S
C532 C534 1.348 . S
C532 C535 1.356 . S
C532 O588 1.325 . S
N533 C536 1.314 . S
N533 C537 1.279 . S
C534 C532 1.348 . S
C534 C536 1.353 . S
C534 H592 0.929 . S
C535 C532 1.356 . S
C535 C537 1.358 . S
C535 H593 0.930 . S
C536 N533 1.314 . S
C536 C534 1.353 . S
C536 H594 0.930 . S
C537 N533 1.279 . S
C537 C535 1.358 . S
C537 H595 0.930 . S
C538 C541 1.348 . S
C538 C542 1.356 . S
C538 O589 1.325 . S
C539 N540 1.279 . S
C539 C542 1.358 . S
C539 H596 0.930 . S
N540 C539 1.279 . S
N540 C543 1.314 . S
C541 C538 1.348 . S
C541 C543 1.353 . S
C541 H597 0.929 . S
C542 C538 1.356 . S
C542 C539 1.358 . S
C542 H598 0.930 . S
C543 N540 1.314 . S
C543 C541 1.353 . S
C543 H599 0.930 . S
C544 N545 1.314 . S
C544 C549 1.353 . S
C544 H550 0.930 . S
N545 Li528 1.990 . S
N545 C544 1.314 . S
N545 C547 1.279 . S
C546 C547 1.358 . S
C546 C548 1.356 . S
C546 H600 0.930 . S
C547 N545 1.279 . S
C547 C546 1.358 . S
C547 H551 0.930 . S
C548 C546 1.356 . S
C548 C549 1.348 . S
C549 C544 1.353 . S
C549 C548 1.348 . S
C549 H601 0.929 . S
H550 C544 0.930 . S
H551 C547 0.930 . S
C552 N553 1.314 . S
C552 C554 1.353 . S
C552 H558 0.930 . S
N553 Li529 1.990 . S
N553 C552 1.314 . S
N553 C556 1.279 . S
C554 C552 1.353 . S
C554 C557 1.348 . S
C554 H602 0.929 . S
C555 C556 1.358 . S
C555 C557 1.356 . S
C555 H603 0.930 . S
C556 N553 1.279 . S
C556 C555 1.358 . S
C556 H559 0.930 . S
C557 C554 1.348 . S
C557 C555 1.356 . S
H558 C552 0.930 . S
H559 C556 0.930 . S
C560 C562 1.348 . S
C560 C563 1.356 . S
C560 O590 1.325 . S
N561 C564 1.314 . S
N561 C565 1.279 . S
C562 C560 1.348 . S
C562 C564 1.353 . S
C562 H604 0.929 . S
C563 C560 1.356 . S
C563 C565 1.358 . S
C563 H605 0.930 . S
C564 N561 1.314 . S
C564 C562 1.353 . S
C564 H606 0.930 . S
C565 N561 1.279 . S
C565 C563 1.358 . S
C565 H607 0.930 . S
C566 C567 1.348 . S
C566 C568 1.356 . S
C566 O591 1.325 . S
C567 C566 1.348 . S
C567 C569 1.353 . S
C567 H608 0.929 . S
C568 C566 1.356 . S
C568 C570 1.358 . S
C568 H609 0.930 . S
C569 C567 1.353 . S
C569 N571 1.314 . S
C569 H610 0.930 . S
C570 C568 1.358 . S
C570 N571 1.279 . S
C570 H611 0.930 . S
N571 C569 1.314 . S
N571 C570 1.279 . S
C572 C574 1.353 . S
C572 N575 1.314 . S
C572 H578 0.930 . S
C573 N575 1.279 . S
C573 C576 1.358 . S
C573 H579 0.930 . S
C574 C572 1.353 . S
C574 C577 1.348 . S
C574 H612 0.929 . S
N575 Li530 1.990 . S
N575 C572 1.314 . S
N575 C573 1.279 . S
C576 C573 1.358 . S
C576 C577 1.356 . S
C576 H613 0.930 . S
C577 C574 1.348 . S
C577 C576 1.356 . S
H578 C572 0.930 . S
H579 C573 0.930 . S
C580 N581 1.314 . S
C580 C582 1.353 . S
C580 H586 0.930 . S
N581 Li531 1.990 . S
N581 C580 1.314 . S
N581 C584 1.279 . S
C582 C580 1.353 . S
C582 C585 1.348 . S
C582 H614 0.929 . S
C583 C584 1.358 . S
C583 C585 1.356 . S
C583 H615 0.930 . S
C584 N581 1.279 . S
C584 C583 1.358 . S
C584 H587 0.930 . S
C585 C582 1.348 . S
C585 C583 1.356 . S
H586 C580 0.930 . S
H587 C584 0.930 . S
O588 Li528 1.956 . S
O588 Li529 1.970 . S
O588 Li530 1.961 . S
O588 C532 1.325 . S
O589 Li528 1.970 . S
O589 Li529 1.956 . S
O589 Li531 1.961 . S
O589 C538 1.325 . S
O590 Li528 1.961 . S
O590 Li530 1.956 . S
O590 Li531 1.970 . S
O590 C560 1.325 . S
O591 Li529 1.961 . S
O591 Li530 1.970 . S
O591 Li531 1.956 . S
O591 C566 1.325 . S
H592 C534 0.929 . S
H593 C535 0.930 . S
H594 C536 0.930 . S
H595 C537 0.930 . S
H596 C539 0.930 . S
H597 C541 0.929 . S
H598 C542 0.930 . S
H599 C543 0.930 . S
H600 C546 0.930 . S
H601 C549 0.929 . S
H602 C554 0.929 . S
H603 C555 0.930 . S
H604 C562 0.929 . S
H605 C563 0.930 . S
H606 C564 0.930 . S
H607 C565 0.930 . S
H608 C567 0.929 . S
H609 C568 0.930 . S
H610 C569 0.930 . S
H611 C570 0.930 . S
H612 C574 0.929 . S
H613 C576 0.930 . S
H614 C582 0.929 . S
H615 C583 0.930 . S
Li616 N633 1.990 . S
Li616 O676 1.956 . S
Li616 O677 1.970 . S
Li616 O678 1.961 . S
Li617 N641 1.990 . S
Li617 O676 1.970 . S
Li617 O677 1.956 . S
Li617 O679 1.961 . S
Li618 N663 1.990 . S
Li618 O676 1.961 . S
Li618 O678 1.956 . S
Li618 O679 1.970 . S
Li619 N669 1.990 . S
Li619 O677 1.961 . S
Li619 O678 1.970 . S
Li619 O679 1.956 . S
C620 C622 1.348 . S
C620 C623 1.356 . S
C620 O676 1.325 . S
N621 C624 1.314 . S
N621 C625 1.279 . S
C622 C620 1.348 . S
C622 C624 1.353 . S
C622 H680 0.929 . S
C623 C620 1.356 . S
C623 C625 1.358 . S
C623 H681 0.930 . S
C624 N621 1.314 . S
C624 C622 1.353 . S
C624 H682 0.930 . S
C625 N621 1.279 . S
C625 C623 1.358 . S
C625 H683 0.930 . S
C626 C629 1.348 . S
C626 C630 1.356 . S
C626 O677 1.325 . S
C627 N628 1.279 . S
C627 C630 1.358 . S
C627 H684 0.930 . S
N628 C627 1.279 . S
N628 C631 1.314 . S
C629 C626 1.348 . S
C629 C631 1.353 . S
C629 H685 0.929 . S
C630 C626 1.356 . S
C630 C627 1.358 . S
C630 H686 0.930 . S
C631 N628 1.314 . S
C631 C629 1.353 . S
C631 H687 0.930 . S
C632 N633 1.314 . S
C632 C637 1.353 . S
C632 H638 0.930 . S
N633 Li616 1.990 . S
N633 C632 1.314 . S
N633 C635 1.279 . S
C634 C635 1.358 . S
C634 C636 1.356 . S
C634 H688 0.930 . S
C635 N633 1.279 . S
C635 C634 1.358 . S
C635 H639 0.930 . S
C636 C634 1.356 . S
C636 C637 1.348 . S
C637 C632 1.353 . S
C637 C636 1.348 . S
C637 H689 0.929 . S
H638 C632 0.930 . S
H639 C635 0.930 . S
C640 N641 1.314 . S
C640 C642 1.353 . S
C640 H646 0.930 . S
N641 Li617 1.990 . S
N641 C640 1.314 . S
N641 C644 1.279 . S
C642 C640 1.353 . S
C642 C645 1.348 . S
C642 H690 0.929 . S
C643 C644 1.358 . S
C643 C645 1.356 . S
C643 H691 0.930 . S
C644 N641 1.279 . S
C644 C643 1.358 . S
C644 H647 0.930 . S
C645 C642 1.348 . S
C645 C643 1.356 . S
H646 C640 0.930 . S
H647 C644 0.930 . S
C648 C650 1.348 . S
C648 C651 1.356 . S
C648 O678 1.325 . S
N649 C652 1.314 . S
N649 C653 1.279 . S
C650 C648 1.348 . S
C650 C652 1.353 . S
C650 H692 0.929 . S
C651 C648 1.356 . S
C651 C653 1.358 . S
C651 H693 0.930 . S
C652 N649 1.314 . S
C652 C650 1.353 . S
C652 H694 0.930 . S
C653 N649 1.279 . S
C653 C651 1.358 . S
C653 H695 0.930 . S
C654 C655 1.348 . S
C654 C656 1.356 . S
C654 O679 1.325 . S
C655 C654 1.348 . S
C655 C657 1.353 . S
C655 H696 0.929 . S
C656 C654 1.356 . S
C656 C658 1.358 . S
C656 H697 0.930 . S
C657 C655 1.353 . S
C657 N659 1.314 . S
C657 H698 0.930 . S
C658 C656 1.358 . S
C658 N659 1.279 . S
C658 H699 0.930 . S
N659 C657 1.314 . S
N659 C658 1.279 . S
C660 C662 1.353 . S
C660 N663 1.314 . S
C660 H666 0.930 . S
C661 N663 1.279 . S
C661 C664 1.358 . S
C661 H667 0.930 . S
C662 C660 1.353 . S
C662 C665 1.348 . S
C662 H700 0.929 . S
N663 Li618 1.990 . S
N663 C660 1.314 . S
N663 C661 1.279 . S
C664 C661 1.358 . S
C664 C665 1.356 . S
C664 H701 0.930 . S
C665 C662 1.348 . S
C665 C664 1.356 . S
H666 C660 0.930 . S
H667 C661 0.930 . S
C668 N669 1.314 . S
C668 C670 1.353 . S
C668 H674 0.930 . S
N669 Li619 1.990 . S
N669 C668 1.314 . S
N669 C672 1.279 . S
C670 C668 1.353 . S
C670 C673 1.348 . S
C670 H702 0.929 . S
C671 C672 1.358 . S
C671 C673 1.356 . S
C671 H703 0.930 . S
C672 N669 1.279 . S
C672 C671 1.358 . S
C672 H675 0.930 . S
C673 C670 1.348 . S
C673 C671 1.356 . S
H674 C668 0.930 . S
H675 C672 0.930 . S
O676 Li616 1.956 . S
O676 Li617 1.970 . S
O676 Li618 1.961 . S
O676 C620 1.325 . S
O677 Li616 1.970 . S
O677 Li617 1.956 . S
O677 Li619 1.961 . S
O677 C626 1.325 . S
O678 Li616 1.961 . S
O678 Li618 1.956 . S
O678 Li619 1.970 . S
O678 C648 1.325 . S
O679 Li617 1.961 . S
O679 Li618 1.970 . S
O679 Li619 1.956 . S
O679 C654 1.325 . S
H680 C622 0.929 . S
H681 C623 0.930 . S
H682 C624 0.930 . S
H683 C625 0.930 . S
H684 C627 0.930 . S
H685 C629 0.929 . S
H686 C630 0.930 . S
H687 C631 0.930 . S
H688 C634 0.930 . S
H689 C637 0.929 . S
H690 C642 0.929 . S
H691 C643 0.930 . S
H692 C650 0.929 . S
H693 C651 0.930 . S
H694 C652 0.930 . S
H695 C653 0.930 . S
H696 C655 0.929 . S
H697 C656 0.930 . S
H698 C657 0.930 . S
H699 C658 0.930 . S
H700 C662 0.929 . S
H701 C664 0.930 . S
H702 C670 0.929 . S
H703 C671 0.930 . S
Li704 N721 1.990 . S
Li704 O764 1.956 . S
Li704 O765 1.970 1_554 S
Li704 O766 1.961 1_554 S
Li705 N729 1.990 . S
Li705 O764 1.970 . S
Li705 O765 1.956 1_554 S
Li705 O767 1.961 1_554 S
Li706 N751 1.990 . S
Li706 O764 1.961 . S
Li706 O766 1.956 1_554 S
Li706 O767 1.970 1_554 S
Li707 N757 1.990 . S
Li707 O765 1.961 . S
Li707 O766 1.970 . S
Li707 O767 1.956 . S
C708 C710 1.348 . S
C708 C711 1.356 . S
C708 O764 1.325 . S
N709 C712 1.314 . S
N709 C713 1.279 . S
C710 C708 1.348 . S
C710 C712 1.353 . S
C710 H768 0.929 . S
C711 C708 1.356 . S
C711 C713 1.358 . S
C711 H769 0.930 . S
C712 N709 1.314 . S
C712 C710 1.353 . S
C712 H770 0.930 . S
C713 N709 1.279 . S
C713 C711 1.358 . S
C713 H771 0.930 . S
C714 C717 1.348 . S
C714 C718 1.356 . S
C714 O765 1.325 . S
C715 N716 1.279 . S
C715 C718 1.358 . S
C715 H772 0.930 . S
N716 C715 1.279 . S
N716 C719 1.314 . S
C717 C714 1.348 . S
C717 C719 1.353 . S
C717 H773 0.929 1_556 S
C718 C714 1.356 . S
C718 C715 1.358 . S
C718 H774 0.930 . S
C719 N716 1.314 . S
C719 C717 1.353 . S
C719 H775 0.930 . S
C720 N721 1.314 1_556 S
C720 C725 1.353 . S
C720 H726 0.930 . S
N721 Li704 1.990 . S
N721 C720 1.314 1_554 S
N721 C723 1.279 . S
C722 C723 1.358 . S
C722 C724 1.356 . S
C722 H776 0.930 . S
C723 N721 1.279 . S
C723 C722 1.358 . S
C723 H727 0.930 . S
C724 C722 1.356 . S
C724 C725 1.348 1_554 S
C725 C720 1.353 . S
C725 C724 1.348 1_556 S
C725 H777 0.929 . S
H726 C720 0.930 . S
H727 C723 0.930 . S
C728 N729 1.314 . S
C728 C730 1.353 . S
C728 H734 0.930 . S
N729 Li705 1.990 . S
N729 C728 1.314 . S
N729 C732 1.279 . S
C730 C728 1.353 . S
C730 C733 1.348 . S
C730 H778 0.929 . S
C731 C732 1.358 . S
C731 C733 1.356 . S
C731 H779 0.930 . S
C732 N729 1.279 . S
C732 C731 1.358 . S
C732 H735 0.930 . S
C733 C730 1.348 . S
C733 C731 1.356 . S
H734 C728 0.930 . S
H735 C732 0.930 . S
C736 C738 1.348 . S
C736 C739 1.356 . S
C736 O766 1.325 . S
N737 C740 1.314 . S
N737 C741 1.279 . S
C738 C736 1.348 . S
C738 C740 1.353 . S
C738 H780 0.929 . S
C739 C736 1.356 . S
C739 C741 1.358 . S
C739 H781 0.930 . S
C740 N737 1.314 . S
C740 C738 1.353 . S
C740 H782 0.930 . S
C741 N737 1.279 . S
C741 C739 1.358 . S
C741 H783 0.930 . S
C742 C743 1.348 . S
C742 C744 1.356 . S
C742 O767 1.325 . S
C743 C742 1.348 . S
C743 C745 1.353 . S
C743 H784 0.929 . S
C744 C742 1.356 . S
C744 C746 1.358 . S
C744 H785 0.930 . S
C745 C743 1.353 . S
C745 N747 1.314 . S
C745 H786 0.930 . S
C746 C744 1.358 . S
C746 N747 1.279 . S
C746 H787 0.930 . S
N747 C745 1.314 . S
N747 C746 1.279 . S
C748 C750 1.353 . S
C748 N751 1.314 . S
C748 H754 0.930 . S
C749 N751 1.279 1_556 S
C749 C752 1.358 1_556 S
C749 H755 0.930 . S
C750 C748 1.353 . S
C750 C753 1.348 . S
C750 H788 0.929 . S
N751 Li706 1.990 . S
N751 C748 1.314 . S
N751 C749 1.279 1_554 S
C752 C749 1.358 1_554 S
C752 C753 1.356 . S
C752 H789 0.930 1_554 S
C753 C750 1.348 . S
C753 C752 1.356 . S
H754 C748 0.930 . S
H755 C749 0.930 . S
C756 N757 1.314 . S
C756 C758 1.353 . S
C756 H762 0.930 . S
N757 Li707 1.990 . S
N757 C756 1.314 . S
N757 C760 1.279 . S
C758 C756 1.353 . S
C758 C761 1.348 . S
C758 H790 0.929 . S
C759 C760 1.358 . S
C759 C761 1.356 . S
C759 H791 0.930 . S
C760 N757 1.279 . S
C760 C759 1.358 . S
C760 H763 0.930 . S
C761 C758 1.348 . S
C761 C759 1.356 . S
H762 C756 0.930 . S
H763 C760 0.930 . S
O764 Li704 1.956 . S
O764 Li705 1.970 . S
O764 Li706 1.961 . S
O764 C708 1.325 . S
O765 Li704 1.970 1_556 S
O765 Li705 1.956 1_556 S
O765 Li707 1.961 . S
O765 C714 1.325 . S
O766 Li704 1.961 1_556 S
O766 Li706 1.956 1_556 S
O766 Li707 1.970 . S
O766 C736 1.325 . S
O767 Li705 1.961 1_556 S
O767 Li706 1.970 1_556 S
O767 Li707 1.956 . S
O767 C742 1.325 . S
H768 C710 0.929 . S
H769 C711 0.930 . S
H770 C712 0.930 . S
H771 C713 0.930 . S
H772 C715 0.930 . S
H773 C717 0.929 1_554 S
H774 C718 0.930 . S
H775 C719 0.930 . S
H776 C722 0.930 . S
H777 C725 0.929 . S
H778 C730 0.929 . S
H779 C731 0.930 . S
H780 C738 0.929 . S
H781 C739 0.930 . S
H782 C740 0.930 . S
H783 C741 0.930 . S
H784 C743 0.929 . S
H785 C744 0.930 . S
H786 C745 0.930 . S
H787 C746 0.930 . S
H788 C750 0.929 . S
H789 C752 0.930 1_556 S
H790 C758 0.929 . S
H791 C759 0.930 . S
Li792 N809 1.990 . S
Li792 O852 1.956 . S
Li792 O853 1.970 . S
Li792 O854 1.961 . S
Li793 N817 1.990 . S
Li793 O852 1.970 . S
Li793 O853 1.956 . S
Li793 O855 1.961 . S
Li794 N839 1.990 . S
Li794 O852 1.961 . S
Li794 O854 1.956 . S
Li794 O855 1.970 . S
Li795 N845 1.990 . S
Li795 O853 1.961 . S
Li795 O854 1.970 . S
Li795 O855 1.956 . S
C796 C798 1.348 . S
C796 C799 1.356 . S
C796 O852 1.325 . S
N797 C800 1.314 . S
N797 C801 1.279 . S
C798 C796 1.348 . S
C798 C800 1.353 . S
C798 H856 0.929 . S
C799 C796 1.356 . S
C799 C801 1.358 . S
C799 H857 0.930 . S
C800 N797 1.314 . S
C800 C798 1.353 . S
C800 H858 0.930 . S
C801 N797 1.279 . S
C801 C799 1.358 . S
C801 H859 0.930 . S
C802 C805 1.348 . S
C802 C806 1.356 . S
C802 O853 1.325 . S
C803 N804 1.279 . S
C803 C806 1.358 . S
C803 H860 0.930 . S
N804 C803 1.279 . S
N804 C807 1.314 . S
C805 C802 1.348 . S
C805 C807 1.353 . S
C805 H861 0.929 . S
C806 C802 1.356 . S
C806 C803 1.358 . S
C806 H862 0.930 . S
C807 N804 1.314 . S
C807 C805 1.353 . S
C807 H863 0.930 . S
C808 N809 1.314 . S
C808 C813 1.353 . S
C808 H814 0.930 . S
N809 Li792 1.990 . S
N809 C808 1.314 . S
N809 C811 1.279 . S
C810 C811 1.358 . S
C810 C812 1.356 . S
C810 H864 0.930 . S
C811 N809 1.279 . S
C811 C810 1.358 . S
C811 H815 0.930 . S
C812 C810 1.356 . S
C812 C813 1.348 . S
C813 C808 1.353 . S
C813 C812 1.348 . S
C813 H865 0.929 . S
H814 C808 0.930 . S
H815 C811 0.930 . S
C816 N817 1.314 . S
C816 C818 1.353 . S
C816 H822 0.930 . S
N817 Li793 1.990 . S
N817 C816 1.314 . S
N817 C820 1.279 . S
C818 C816 1.353 . S
C818 C821 1.348 . S
C818 H866 0.929 . S
C819 C820 1.358 . S
C819 C821 1.356 . S
C819 H867 0.930 . S
C820 N817 1.279 . S
C820 C819 1.358 . S
C820 H823 0.930 . S
C821 C818 1.348 . S
C821 C819 1.356 . S
H822 C816 0.930 . S
H823 C820 0.930 . S
C824 C826 1.348 . S
C824 C827 1.356 . S
C824 O854 1.325 . S
N825 C828 1.314 . S
N825 C829 1.279 . S
C826 C824 1.348 . S
C826 C828 1.353 . S
C826 H868 0.929 . S
C827 C824 1.356 . S
C827 C829 1.358 . S
C827 H869 0.930 . S
C828 N825 1.314 . S
C828 C826 1.353 . S
C828 H870 0.930 . S
C829 N825 1.279 . S
C829 C827 1.358 . S
C829 H871 0.930 . S
C830 C831 1.348 . S
C830 C832 1.356 . S
C830 O855 1.325 . S
C831 C830 1.348 . S
C831 C833 1.353 . S
C831 H872 0.929 . S
C832 C830 1.356 . S
C832 C834 1.358 . S
C832 H873 0.930 . S
C833 C831 1.353 . S
C833 N835 1.314 . S
C833 H874 0.930 . S
C834 C832 1.358 . S
C834 N835 1.279 . S
C834 H875 0.930 . S
N835 C833 1.314 . S
N835 C834 1.279 . S
C836 C838 1.353 . S
C836 N839 1.314 . S
C836 H842 0.930 . S
C837 N839 1.279 . S
C837 C840 1.358 . S
C837 H843 0.930 . S
C838 C836 1.353 . S
C838 C841 1.348 . S
C838 H876 0.929 . S
N839 Li794 1.990 . S
N839 C836 1.314 . S
N839 C837 1.279 . S
C840 C837 1.358 . S
C840 C841 1.356 . S
C840 H877 0.930 . S
C841 C838 1.348 . S
C841 C840 1.356 . S
H842 C836 0.930 . S
H843 C837 0.930 . S
C844 N845 1.314 . S
C844 C846 1.353 . S
C844 H850 0.930 . S
N845 Li795 1.990 . S
N845 C844 1.314 . S
N845 C848 1.279 . S
C846 C844 1.353 . S
C846 C849 1.348 . S
C846 H878 0.929 . S
C847 C848 1.358 . S
C847 C849 1.356 . S
C847 H879 0.930 . S
C848 N845 1.279 . S
C848 C847 1.358 . S
C848 H851 0.930 . S
C849 C846 1.348 . S
C849 C847 1.356 . S
H850 C844 0.930 . S
H851 C848 0.930 . S
O852 Li792 1.956 . S
O852 Li793 1.970 . S
O852 Li794 1.961 . S
O852 C796 1.325 . S
O853 Li792 1.970 . S
O853 Li793 1.956 . S
O853 Li795 1.961 . S
O853 C802 1.325 . S
O854 Li792 1.961 . S
O854 Li794 1.956 . S
O854 Li795 1.970 . S
O854 C824 1.325 . S
O855 Li793 1.961 . S
O855 Li794 1.970 . S
O855 Li795 1.956 . S
O855 C830 1.325 . S
H856 C798 0.929 . S
H857 C799 0.930 . S
H858 C800 0.930 . S
H859 C801 0.930 . S
H860 C803 0.930 . S
H861 C805 0.929 . S
H862 C806 0.930 . S
H863 C807 0.930 . S
H864 C810 0.930 . S
H865 C813 0.929 . S
H866 C818 0.929 . S
H867 C819 0.930 . S
H868 C826 0.929 . S
H869 C827 0.930 . S
H870 C828 0.930 . S
H871 C829 0.930 . S
H872 C831 0.929 . S
H873 C832 0.930 . S
H874 C833 0.930 . S
H875 C834 0.930 . S
H876 C838 0.929 . S
H877 C840 0.930 . S
H878 C846 0.929 . S
H879 C847 0.930 . S
Li880 N897 1.990 . S
Li880 O940 1.956 . S
Li880 O941 1.970 . S
Li880 O942 1.961 . S
Li881 N905 1.990 . S
Li881 O940 1.970 . S
Li881 O941 1.956 . S
Li881 O943 1.961 . S
Li882 N927 1.990 . S
Li882 O940 1.961 . S
Li882 O942 1.956 . S
Li882 O943 1.970 . S
Li883 N933 1.990 . S
Li883 O941 1.961 . S
Li883 O942 1.970 . S
Li883 O943 1.956 . S
C884 C886 1.348 . S
C884 C887 1.356 . S
C884 O940 1.325 . S
N885 C888 1.314 . S
N885 C889 1.279 . S
C886 C884 1.348 . S
C886 C888 1.353 . S
C886 H944 0.929 . S
C887 C884 1.356 . S
C887 C889 1.358 . S
C887 H945 0.930 . S
C888 N885 1.314 . S
C888 C886 1.353 . S
C888 H946 0.930 . S
C889 N885 1.279 . S
C889 C887 1.358 . S
C889 H947 0.930 . S
C890 C893 1.348 . S
C890 C894 1.356 . S
C890 O941 1.325 . S
C891 N892 1.279 . S
C891 C894 1.358 . S
C891 H948 0.930 . S
N892 C891 1.279 . S
N892 C895 1.314 . S
C893 C890 1.348 . S
C893 C895 1.353 . S
C893 H949 0.929 . S
C894 C890 1.356 . S
C894 C891 1.358 . S
C894 H950 0.930 . S
C895 N892 1.314 . S
C895 C893 1.353 . S
C895 H951 0.930 . S
C896 N897 1.314 . S
C896 C901 1.353 . S
C896 H902 0.930 . S
N897 Li880 1.990 . S
N897 C896 1.314 . S
N897 C899 1.279 . S
C898 C899 1.358 . S
C898 C900 1.356 . S
C898 H952 0.930 . S
C899 N897 1.279 . S
C899 C898 1.358 . S
C899 H903 0.930 . S
C900 C898 1.356 . S
C900 C901 1.348 . S
C901 C896 1.353 . S
C901 C900 1.348 . S
C901 H953 0.929 . S
H902 C896 0.930 . S
H903 C899 0.930 . S
C904 N905 1.314 . S
C904 C906 1.353 . S
C904 H910 0.930 . S
N905 Li881 1.990 . S
N905 C904 1.314 . S
N905 C908 1.279 . S
C906 C904 1.353 . S
C906 C909 1.348 . S
C906 H954 0.929 . S
C907 C908 1.358 . S
C907 C909 1.356 . S
C907 H955 0.930 . S
C908 N905 1.279 . S
C908 C907 1.358 . S
C908 H911 0.930 . S
C909 C906 1.348 . S
C909 C907 1.356 . S
H910 C904 0.930 . S
H911 C908 0.930 . S
C912 C914 1.348 . S
C912 C915 1.356 . S
C912 O942 1.325 . S
N913 C916 1.314 . S
N913 C917 1.279 . S
C914 C912 1.348 . S
C914 C916 1.353 . S
C914 H956 0.929 . S
C915 C912 1.356 . S
C915 C917 1.358 . S
C915 H957 0.930 . S
C916 N913 1.314 . S
C916 C914 1.353 . S
C916 H958 0.930 . S
C917 N913 1.279 . S
C917 C915 1.358 . S
C917 H959 0.930 . S
C918 C919 1.348 . S
C918 C920 1.356 . S
C918 O943 1.325 . S
C919 C918 1.348 . S
C919 C921 1.353 . S
C919 H960 0.929 . S
C920 C918 1.356 . S
C920 C922 1.358 . S
C920 H961 0.930 . S
C921 C919 1.353 . S
C921 N923 1.314 . S
C921 H962 0.930 . S
C922 C920 1.358 . S
C922 N923 1.279 . S
C922 H963 0.930 . S
N923 C921 1.314 . S
N923 C922 1.279 . S
C924 C926 1.353 . S
C924 N927 1.314 . S
C924 H930 0.930 . S
C925 N927 1.279 . S
C925 C928 1.358 . S
C925 H931 0.930 . S
C926 C924 1.353 . S
C926 C929 1.348 . S
C926 H964 0.929 . S
N927 Li882 1.990 . S
N927 C924 1.314 . S
N927 C925 1.279 . S
C928 C925 1.358 . S
C928 C929 1.356 . S
C928 H965 0.930 . S
C929 C926 1.348 . S
C929 C928 1.356 . S
H930 C924 0.930 . S
H931 C925 0.930 . S
C932 N933 1.314 . S
C932 C934 1.353 . S
C932 H938 0.930 . S
N933 Li883 1.990 . S
N933 C932 1.314 . S
N933 C936 1.279 . S
C934 C932 1.353 . S
C934 C937 1.348 . S
C934 H966 0.929 . S
C935 C936 1.358 . S
C935 C937 1.356 . S
C935 H967 0.930 . S
C936 N933 1.279 . S
C936 C935 1.358 . S
C936 H939 0.930 . S
C937 C934 1.348 . S
C937 C935 1.356 . S
H938 C932 0.930 . S
H939 C936 0.930 . S
O940 Li880 1.956 . S
O940 Li881 1.970 . S
O940 Li882 1.961 . S
O940 C884 1.325 . S
O941 Li880 1.970 . S
O941 Li881 1.956 . S
O941 Li883 1.961 . S
O941 C890 1.325 . S
O942 Li880 1.961 . S
O942 Li882 1.956 . S
O942 Li883 1.970 . S
O942 C912 1.325 . S
O943 Li881 1.961 . S
O943 Li882 1.970 . S
O943 Li883 1.956 . S
O943 C918 1.325 . S
H944 C886 0.929 . S
H945 C887 0.930 . S
H946 C888 0.930 . S
H947 C889 0.930 . S
H948 C891 0.930 . S
H949 C893 0.929 . S
H950 C894 0.930 . S
H951 C895 0.930 . S
H952 C898 0.930 . S
H953 C901 0.929 . S
H954 C906 0.929 . S
H955 C907 0.930 . S
H956 C914 0.929 . S
H957 C915 0.930 . S
H958 C916 0.930 . S
H959 C917 0.930 . S
H960 C919 0.929 . S
H961 C920 0.930 . S
H962 C921 0.930 . S
H963 C922 0.930 . S
H964 C926 0.929 . S
H965 C928 0.930 . S
H966 C934 0.929 . S
H967 C935 0.930 . S
Li968 N985 1.990 . S
Li968 O1028 1.956 . S
Li968 O1029 1.970 1_554 S
Li968 O1030 1.961 1_554 S
Li969 N993 1.990 . S
Li969 O1028 1.970 . S
Li969 O1029 1.956 1_554 S
Li969 O1031 1.961 1_554 S
Li970 N1015 1.990 . S
Li970 O1028 1.961 . S
Li970 O1030 1.956 1_554 S
Li970 O1031 1.970 1_554 S
Li971 N1021 1.990 . S
Li971 O1029 1.961 . S
Li971 O1030 1.970 . S
Li971 O1031 1.956 . S
C972 C974 1.348 . S
C972 C975 1.356 . S
C972 O1028 1.325 . S
N973 C976 1.314 . S
N973 C977 1.279 . S
C974 C972 1.348 . S
C974 C976 1.353 . S
C974 H1032 0.929 . S
C975 C972 1.356 . S
C975 C977 1.358 . S
C975 H1033 0.930 . S
C976 N973 1.314 . S
C976 C974 1.353 . S
C976 H1034 0.930 . S
C977 N973 1.279 . S
C977 C975 1.358 . S
C977 H1035 0.930 . S
C978 C981 1.348 . S
C978 C982 1.356 . S
C978 O1029 1.325 . S
C979 N980 1.279 . S
C979 C982 1.358 . S
C979 H1036 0.930 . S
N980 C979 1.279 . S
N980 C983 1.314 . S
C981 C978 1.348 . S
C981 C983 1.353 . S
C981 H1037 0.929 1_556 S
C982 C978 1.356 . S
C982 C979 1.358 . S
C982 H1038 0.930 . S
C983 N980 1.314 . S
C983 C981 1.353 . S
C983 H1039 0.930 . S
C984 N985 1.314 1_556 S
C984 C989 1.353 . S
C984 H990 0.930 . S
N985 Li968 1.990 . S
N985 C984 1.314 1_554 S
N985 C987 1.279 . S
C986 C987 1.358 . S
C986 C988 1.356 . S
C986 H1040 0.930 . S
C987 N985 1.279 . S
C987 C986 1.358 . S
C987 H991 0.930 . S
C988 C986 1.356 . S
C988 C989 1.348 1_554 S
C989 C984 1.353 . S
C989 C988 1.348 1_556 S
C989 H1041 0.929 . S
H990 C984 0.930 . S
H991 C987 0.930 . S
C992 N993 1.314 . S
C992 C994 1.353 . S
C992 H998 0.930 . S
N993 Li969 1.990 . S
N993 C992 1.314 . S
N993 C996 1.279 . S
C994 C992 1.353 . S
C994 C997 1.348 . S
C994 H1042 0.929 . S
C995 C996 1.358 . S
C995 C997 1.356 . S
C995 H1043 0.930 . S
C996 N993 1.279 . S
C996 C995 1.358 . S
C996 H999 0.930 . S
C997 C994 1.348 . S
C997 C995 1.356 . S
H998 C992 0.930 . S
H999 C996 0.930 . S
C1000 C1002 1.348 . S
C1000 C1003 1.356 . S
C1000 O1030 1.325 . S
N1001 C1004 1.314 . S
N1001 C1005 1.279 . S
C1002 C1000 1.348 . S
C1002 C1004 1.353 . S
C1002 H1044 0.929 . S
C1003 C1000 1.356 . S
C1003 C1005 1.358 . S
C1003 H1045 0.930 . S
C1004 N1001 1.314 . S
C1004 C1002 1.353 . S
C1004 H1046 0.930 . S
C1005 N1001 1.279 . S
C1005 C1003 1.358 . S
C1005 H1047 0.930 . S
C1006 C1007 1.348 . S
C1006 C1008 1.356 . S
C1006 O1031 1.325 . S
C1007 C1006 1.348 . S
C1007 C1009 1.353 . S
C1007 H1048 0.929 . S
C1008 C1006 1.356 . S
C1008 C1010 1.358 . S
C1008 H1049 0.930 . S
C1009 C1007 1.353 . S
C1009 N1011 1.314 . S
C1009 H1050 0.930 . S
C1010 C1008 1.358 . S
C1010 N1011 1.279 . S
C1010 H1051 0.930 . S
N1011 C1009 1.314 . S
N1011 C1010 1.279 . S
C1012 C1014 1.353 . S
C1012 N1015 1.314 . S
C1012 H1018 0.930 . S
C1013 N1015 1.279 1_556 S
C1013 C1016 1.358 1_556 S
C1013 H1019 0.930 . S
C1014 C1012 1.353 . S
C1014 C1017 1.348 . S
C1014 H1052 0.929 . S
N1015 Li970 1.990 . S
N1015 C1012 1.314 . S
N1015 C1013 1.279 1_554 S
C1016 C1013 1.358 1_554 S
C1016 C1017 1.356 . S
C1016 H1053 0.930 1_554 S
C1017 C1014 1.348 . S
C1017 C1016 1.356 . S
H1018 C1012 0.930 . S
H1019 C1013 0.930 . S
C1020 N1021 1.314 . S
C1020 C1022 1.353 . S
C1020 H1026 0.930 . S
N1021 Li971 1.990 . S
N1021 C1020 1.314 . S
N1021 C1024 1.279 . S
C1022 C1020 1.353 . S
C1022 C1025 1.348 . S
C1022 H1054 0.929 . S
C1023 C1024 1.358 . S
C1023 C1025 1.356 . S
C1023 H1055 0.930 . S
C1024 N1021 1.279 . S
C1024 C1023 1.358 . S
C1024 H1027 0.930 . S
C1025 C1022 1.348 . S
C1025 C1023 1.356 . S
H1026 C1020 0.930 . S
H1027 C1024 0.930 . S
O1028 Li968 1.956 . S
O1028 Li969 1.970 . S
O1028 Li970 1.961 . S
O1028 C972 1.325 . S
O1029 Li968 1.970 1_556 S
O1029 Li969 1.956 1_556 S
O1029 Li971 1.961 . S
O1029 C978 1.325 . S
O1030 Li968 1.961 1_556 S
O1030 Li970 1.956 1_556 S
O1030 Li971 1.970 . S
O1030 C1000 1.325 . S
O1031 Li969 1.961 1_556 S
O1031 Li970 1.970 1_556 S
O1031 Li971 1.956 . S
O1031 C1006 1.325 . S
H1032 C974 0.929 . S
H1033 C975 0.930 . S
H1034 C976 0.930 . S
H1035 C977 0.930 . S
H1036 C979 0.930 . S
H1037 C981 0.929 1_554 S
H1038 C982 0.930 . S
H1039 C983 0.930 . S
H1040 C986 0.930 . S
H1041 C989 0.929 . S
H1042 C994 0.929 . S
H1043 C995 0.930 . S
H1044 C1002 0.929 . S
H1045 C1003 0.930 . S
H1046 C1004 0.930 . S
H1047 C1005 0.930 . S
H1048 C1007 0.929 . S
H1049 C1008 0.930 . S
H1050 C1009 0.930 . S
H1051 C1010 0.930 . S
H1052 C1014 0.929 . S
H1053 C1016 0.930 1_556 S
H1054 C1022 0.929 . S
H1055 C1023 0.930 . S
H1056 C1068 0.930 . S
H1057 C1070 0.930 . S
H1058 C1071 0.930 . S
H1059 C1075 0.959 . S
H1060 C1075 0.959 . S
H1061 C1075 0.961 . S
H1062 C1076 0.960 . S
H1063 C1076 0.961 . S
H1064 C1076 0.959 . S
H1065 C1079 0.929 . S
H1066 C1080 0.931 . S
H1067 C1082 0.930 . S
C1068 H1056 0.930 . S
C1068 C1069 1.399 . S
C1068 C1073 1.399 . S
C1069 C1068 1.399 . S
C1069 C1070 1.376 . S
C1070 H1057 0.930 . S
C1070 C1069 1.376 . S
C1070 C1071 1.388 . S
C1071 H1058 0.930 . S
C1071 C1070 1.388 . S
C1071 C1072 1.390 . S
C1072 C1071 1.390 . S
C1072 C1073 1.394 . S
C1072 C1078 1.465 . S
C1073 C1068 1.399 . S
C1073 C1072 1.394 . S
C1073 C1074 1.516 . S
C1074 C1073 1.516 . S
C1074 C1075 1.502 . S
C1074 C1076 1.561 . S
C1074 C1077 1.526 . S
C1075 H1059 0.959 . S
C1075 H1060 0.959 . S
C1075 H1061 0.961 . S
C1075 C1074 1.502 . S
C1076 H1062 0.960 . S
C1076 H1063 0.961 . S
C1076 H1064 0.959 . S
C1076 C1074 1.561 . S
C1077 C1074 1.526 . S
C1077 C1078 1.396 . S
C1077 C1082 1.390 . S
C1078 C1072 1.465 . S
C1078 C1077 1.396 . S
C1078 C1079 1.399 . S
C1079 H1065 0.929 . S
C1079 C1078 1.399 . S
C1079 C1080 1.385 . S
C1080 H1066 0.931 . S
C1080 C1079 1.385 . S
C1080 C1081 1.389 . S
C1081 C1080 1.389 . S
C1081 C1082 1.387 . S
C1082 H1067 0.930 . S
C1082 C1077 1.390 . S
C1082 C1081 1.387 . S
H1083 C1095 0.930 . S
H1084 C1097 0.930 . S
H1085 C1098 0.930 . S
H1086 C1102 0.959 . S
H1087 C1102 0.959 . S
H1088 C1102 0.961 . S
H1089 C1103 0.960 . S
H1090 C1103 0.961 . S
H1091 C1103 0.959 . S
H1092 C1106 0.929 . S
H1093 C1107 0.931 . S
H1094 C1109 0.930 . S
C1095 H1083 0.930 . S
C1095 C1096 1.399 . S
C1095 C1100 1.399 . S
C1096 C1095 1.399 . S
C1096 C1097 1.376 . S
C1097 H1084 0.930 . S
C1097 C1096 1.376 . S
C1097 C1098 1.388 . S
C1098 H1085 0.930 . S
C1098 C1097 1.388 . S
C1098 C1099 1.390 . S
C1099 C1098 1.390 . S
C1099 C1100 1.394 . S
C1099 C1105 1.465 . S
C1100 C1095 1.399 . S
C1100 C1099 1.394 . S
C1100 C1101 1.516 . S
C1101 C1100 1.516 . S
C1101 C1102 1.502 . S
C1101 C1103 1.561 . S
C1101 C1104 1.526 . S
C1102 H1086 0.959 . S
C1102 H1087 0.959 . S
C1102 H1088 0.961 . S
C1102 C1101 1.502 . S
C1103 H1089 0.960 . S
C1103 H1090 0.961 . S
C1103 H1091 0.959 . S
C1103 C1101 1.561 . S
C1104 C1101 1.526 . S
C1104 C1105 1.396 . S
C1104 C1109 1.390 . S
C1105 C1099 1.465 . S
C1105 C1104 1.396 . S
C1105 C1106 1.399 . S
C1106 H1092 0.929 . S
C1106 C1105 1.399 . S
C1106 C1107 1.385 . S
C1107 H1093 0.931 . S
C1107 C1106 1.385 . S
C1107 C1108 1.389 . S
C1108 C1107 1.389 . S
C1108 C1109 1.387 . S
C1109 H1094 0.930 . S
C1109 C1104 1.390 . S
C1109 C1108 1.387 . S
H1110 C1122 0.930 . S
H1111 C1124 0.930 . S
H1112 C1125 0.930 . S
H1113 C1129 0.959 . S
H1114 C1129 0.959 . S
H1115 C1129 0.961 . S
H1116 C1130 0.960 . S
H1117 C1130 0.961 . S
H1118 C1130 0.959 . S
H1119 C1133 0.932 . S
H1120 C1134 0.931 . S
H1121 C1136 0.930 . S
C1122 H1110 0.930 . S
C1122 C1123 1.399 . S
C1122 C1127 1.399 . S
C1123 C1122 1.399 . S
C1123 C1124 1.376 . S
C1124 H1111 0.930 . S
C1124 C1123 1.376 . S
C1124 C1125 1.388 . S
C1125 H1112 0.930 . S
C1125 C1124 1.388 . S
C1125 C1126 1.390 . S
C1126 C1125 1.390 . S
C1126 C1127 1.394 . S
C1126 C1132 1.456 1_556 S
C1127 C1122 1.399 . S
C1127 C1126 1.394 . S
C1127 C1128 1.520 . S
C1128 C1127 1.520 . S
C1128 C1129 1.491 1_556 S
C1128 C1130 1.573 . S
C1128 C1131 1.523 1_556 S
C1129 H1113 0.959 . S
C1129 H1114 0.959 . S
C1129 H1115 0.961 . S
C1129 C1128 1.491 1_554 S
C1130 H1116 0.960 . S
C1130 H1117 0.961 . S
C1130 H1118 0.959 . S
C1130 C1128 1.573 . S
C1131 C1128 1.523 1_554 S
C1131 C1132 1.402 . S
C1131 C1136 1.390 . S
C1132 C1126 1.456 1_554 S
C1132 C1131 1.402 . S
C1132 C1133 1.403 . S
C1133 H1119 0.932 . S
C1133 C1132 1.403 . S
C1133 C1134 1.385 . S
C1134 H1120 0.931 . S
C1134 C1133 1.385 . S
C1134 C1135 1.389 . S
C1135 C1134 1.389 . S
C1135 C1136 1.387 . S
C1136 H1121 0.930 . S
C1136 C1131 1.390 . S
C1136 C1135 1.387 . S
H1137 C1149 0.930 . S
H1138 C1151 0.930 . S
H1139 C1152 0.930 . S
H1140 C1156 0.959 . S
H1141 C1156 0.959 . S
H1142 C1156 0.961 . S
H1143 C1157 0.960 . S
H1144 C1157 0.961 . S
H1145 C1157 0.959 . S
H1146 C1160 0.929 . S
H1147 C1161 0.931 . S
H1148 C1163 0.930 . S
C1149 H1137 0.930 . S
C1149 C1150 1.399 . S
C1149 C1154 1.399 . S
C1150 C1149 1.399 . S
C1150 C1151 1.376 . S
C1151 H1138 0.930 . S
C1151 C1150 1.376 . S
C1151 C1152 1.388 . S
C1152 H1139 0.930 . S
C1152 C1151 1.388 . S
C1152 C1153 1.390 . S
C1153 C1152 1.390 . S
C1153 C1154 1.394 . S
C1153 C1159 1.465 . S
C1154 C1149 1.399 . S
C1154 C1153 1.394 . S
C1154 C1155 1.516 . S
C1155 C1154 1.516 . S
C1155 C1156 1.502 . S
C1155 C1157 1.561 . S
C1155 C1158 1.526 . S
C1156 H1140 0.959 . S
C1156 H1141 0.959 . S
C1156 H1142 0.961 . S
C1156 C1155 1.502 . S
C1157 H1143 0.960 . S
C1157 H1144 0.961 . S
C1157 H1145 0.959 . S
C1157 C1155 1.561 . S
C1158 C1155 1.526 . S
C1158 C1159 1.396 . S
C1158 C1163 1.390 . S
C1159 C1153 1.465 . S
C1159 C1158 1.396 . S
C1159 C1160 1.399 . S
C1160 H1146 0.929 . S
C1160 C1159 1.399 . S
C1160 C1161 1.385 . S
C1161 H1147 0.931 . S
C1161 C1160 1.385 . S
C1161 C1162 1.389 . S
C1162 C1161 1.389 . S
C1162 C1163 1.387 . S
C1163 H1148 0.930 . S
C1163 C1158 1.390 . S
C1163 C1162 1.387 . S
H1164 C1176 0.930 . S
H1165 C1178 0.930 . S
H1166 C1179 0.930 . S
H1167 C1183 0.959 . S
H1168 C1183 0.959 . S
H1169 C1183 0.961 . S
H1170 C1184 0.960 . S
H1171 C1184 0.961 . S
H1172 C1184 0.959 . S
H1173 C1187 0.929 . S
H1174 C1188 0.931 . S
H1175 C1190 0.930 . S
C1176 H1164 0.930 . S
C1176 C1177 1.399 . S
C1176 C1181 1.399 . S
C1177 C1176 1.399 . S
C1177 C1178 1.376 . S
C1178 H1165 0.930 . S
C1178 C1177 1.376 . S
C1178 C1179 1.388 . S
C1179 H1166 0.930 . S
C1179 C1178 1.388 . S
C1179 C1180 1.390 . S
C1180 C1179 1.390 . S
C1180 C1181 1.394 . S
C1180 C1186 1.465 . S
C1181 C1176 1.399 . S
C1181 C1180 1.394 . S
C1181 C1182 1.516 . S
C1182 C1181 1.516 . S
C1182 C1183 1.502 . S
C1182 C1184 1.561 . S
C1182 C1185 1.526 . S
C1183 H1167 0.959 . S
C1183 H1168 0.959 . S
C1183 H1169 0.961 . S
C1183 C1182 1.502 . S
C1184 H1170 0.960 . S
C1184 H1171 0.961 . S
C1184 H1172 0.959 . S
C1184 C1182 1.561 . S
C1185 C1182 1.526 . S
C1185 C1186 1.396 . S
C1185 C1190 1.390 . S
C1186 C1180 1.465 . S
C1186 C1185 1.396 . S
C1186 C1187 1.399 . S
C1187 H1173 0.929 . S
C1187 C1186 1.399 . S
C1187 C1188 1.385 . S
C1188 H1174 0.931 . S
C1188 C1187 1.385 . S
C1188 C1189 1.389 . S
C1189 C1188 1.389 . S
C1189 C1190 1.387 . S
C1190 H1175 0.930 . S
C1190 C1185 1.390 . S
C1190 C1189 1.387 . S
H1191 C1203 0.930 . S
H1192 C1205 0.930 . S
H1193 C1206 0.930 . S
H1194 C1210 0.959 . S
H1195 C1210 0.959 . S
H1196 C1210 0.961 . S
H1197 C1211 0.960 . S
H1198 C1211 0.961 . S
H1199 C1211 0.959 . S
H1200 C1214 0.929 . S
H1201 C1215 0.931 . S
H1202 C1217 0.930 . S
C1203 H1191 0.930 . S
C1203 C1204 1.399 . S
C1203 C1208 1.399 . S
C1204 C1203 1.399 . S
C1204 C1205 1.376 . S
C1205 H1192 0.930 . S
C1205 C1204 1.376 . S
C1205 C1206 1.388 . S
C1206 H1193 0.930 . S
C1206 C1205 1.388 . S
C1206 C1207 1.390 . S
C1207 C1206 1.390 . S
C1207 C1208 1.394 . S
C1207 C1213 1.465 . S
C1208 C1203 1.399 . S
C1208 C1207 1.394 . S
C1208 C1209 1.516 1_554 S
C1209 C1208 1.516 1_556 S
C1209 C1210 1.502 . S
C1209 C1211 1.561 1_556 S
C1209 C1212 1.526 . S
C1210 H1194 0.959 . S
C1210 H1195 0.959 . S
C1210 H1196 0.961 . S
C1210 C1209 1.502 . S
C1211 H1197 0.960 . S
C1211 H1198 0.961 . S
C1211 H1199 0.959 . S
C1211 C1209 1.561 1_554 S
C1212 C1209 1.526 . S
C1212 C1213 1.396 1_556 S
C1212 C1217 1.390 . S
C1213 C1207 1.465 . S
C1213 C1212 1.396 1_554 S
C1213 C1214 1.399 . S
C1214 H1200 0.929 . S
C1214 C1213 1.399 . S
C1214 C1215 1.385 1_554 S
C1215 H1201 0.931 . S
C1215 C1214 1.385 1_556 S
C1215 C1216 1.389 . S
C1216 C1215 1.389 . S
C1216 C1217 1.387 . S
C1217 H1202 0.930 . S
C1217 C1212 1.390 . S
C1217 C1216 1.387 . S
H1218 C1230 0.930 . S
H1219 C1232 0.930 . S
H1220 C1233 0.930 . S
H1221 C1237 0.959 . S
H1222 C1237 0.959 . S
H1223 C1237 0.961 . S
H1224 C1238 0.960 . S
H1225 C1238 0.961 . S
H1226 C1238 0.959 . S
H1227 C1241 0.929 . S
H1228 C1242 0.931 . S
H1229 C1244 0.930 . S
C1230 H1218 0.930 . S
C1230 C1231 1.399 . S
C1230 C1235 1.399 . S
C1231 C1230 1.399 . S
C1231 C1232 1.376 . S
C1232 H1219 0.930 . S
C1232 C1231 1.376 . S
C1232 C1233 1.388 . S
C1233 H1220 0.930 . S
C1233 C1232 1.388 . S
C1233 C1234 1.390 . S
C1234 C1233 1.390 . S
C1234 C1235 1.394 . S
C1234 C1240 1.465 . S
C1235 C1230 1.399 . S
C1235 C1234 1.394 . S
C1235 C1236 1.516 . S
C1236 C1235 1.516 . S
C1236 C1237 1.502 . S
C1236 C1238 1.561 . S
C1236 C1239 1.526 . S
C1237 H1221 0.959 . S
C1237 H1222 0.959 . S
C1237 H1223 0.961 . S
C1237 C1236 1.502 . S
C1238 H1224 0.960 . S
C1238 H1225 0.961 . S
C1238 H1226 0.959 . S
C1238 C1236 1.561 . S
C1239 C1236 1.526 . S
C1239 C1240 1.396 . S
C1239 C1244 1.390 . S
C1240 C1234 1.465 . S
C1240 C1239 1.396 . S
C1240 C1241 1.399 . S
C1241 H1227 0.929 . S
C1241 C1240 1.399 . S
C1241 C1242 1.385 . S
C1242 H1228 0.931 . S
C1242 C1241 1.385 . S
C1242 C1243 1.389 . S
C1243 C1242 1.389 . S
C1243 C1244 1.387 . S
C1244 H1229 0.930 . S
C1244 C1239 1.390 . S
C1244 C1243 1.387 . S
H1245 C1257 0.930 . S
H1246 C1259 0.930 . S
H1247 C1260 0.930 . S
H1248 C1264 0.959 . S
H1249 C1264 0.959 . S
H1250 C1264 0.961 . S
H1251 C1265 0.960 . S
H1252 C1265 0.961 . S
H1253 C1265 0.959 . S
H1254 C1268 0.929 . S
H1255 C1269 0.931 . S
H1256 C1271 0.930 . S
C1257 H1245 0.930 . S
C1257 C1258 1.399 . S
C1257 C1262 1.399 . S
C1258 C1257 1.399 . S
C1258 C1259 1.376 . S
C1259 H1246 0.930 . S
C1259 C1258 1.376 . S
C1259 C1260 1.388 . S
C1260 H1247 0.930 . S
C1260 C1259 1.388 . S
C1260 C1261 1.390 . S
C1261 C1260 1.390 . S
C1261 C1262 1.394 . S
C1261 C1267 1.465 1_655 S
C1262 C1257 1.399 . S
C1262 C1261 1.394 . S
C1262 C1263 1.516 . S
C1263 C1262 1.516 . S
C1263 C1264 1.502 . S
C1263 C1265 1.561 . S
C1263 C1266 1.526 1_655 S
C1264 H1248 0.959 . S
C1264 H1249 0.959 . S
C1264 H1250 0.961 . S
C1264 C1263 1.502 . S
C1265 H1251 0.960 . S
C1265 H1252 0.961 . S
C1265 H1253 0.959 . S
C1265 C1263 1.561 . S
C1266 C1263 1.526 1_455 S
C1266 C1267 1.396 . S
C1266 C1271 1.390 . S
C1267 C1261 1.465 1_455 S
C1267 C1266 1.396 . S
C1267 C1268 1.399 . S
C1268 H1254 0.929 . S
C1268 C1267 1.399 . S
C1268 C1269 1.385 . S
C1269 H1255 0.931 . S
C1269 C1268 1.385 . S
C1269 C1270 1.389 . S
C1270 C1269 1.389 . S
C1270 C1271 1.387 . S
C1271 H1256 0.930 . S
C1271 C1266 1.390 . S
C1271 C1270 1.387 . S
H1272 C1284 0.919 1_556 S
H1273 C1286 0.930 . S
H1274 C1287 0.930 . S
H1275 C1291 0.959 . S
H1276 C1291 0.959 1_565 S
H1277 C1291 0.961 . S
H1278 C1292 0.960 . S
H1279 C1292 0.961 . S
H1280 C1292 0.959 . S
H1281 C1295 0.929 . S
H1282 C1296 0.931 . S
H1283 C1298 0.930 . S
C1284 H1272 0.919 1_554 S
C1284 C1285 1.413 . S
C1284 C1289 1.396 1_554 S
C1285 C1284 1.413 . S
C1285 C1286 1.376 . S
C1286 H1273 0.930 . S
C1286 C1285 1.376 . S
C1286 C1287 1.388 . S
C1287 H1274 0.930 . S
C1287 C1286 1.388 . S
C1287 C1288 1.390 . S
C1288 C1287 1.390 . S
C1288 C1289 1.394 1_554 S
C1288 C1294 1.465 1_545 S
C1289 C1284 1.396 1_556 S
C1289 C1288 1.394 1_556 S
C1289 C1290 1.516 . S
C1290 C1289 1.516 . S
C1290 C1291 1.502 . S
C1290 C1292 1.561 . S
C1290 C1293 1.526 1_545 S
C1291 H1275 0.959 . S
C1291 H1276 0.959 1_545 S
C1291 H1277 0.961 . S
C1291 C1290 1.502 . S
C1292 H1278 0.960 . S
C1292 H1279 0.961 . S
C1292 H1280 0.959 . S
C1292 C1290 1.561 . S
C1293 C1290 1.526 1_565 S
C1293 C1294 1.396 1_556 S
C1293 C1298 1.390 . S
C1294 C1288 1.465 1_565 S
C1294 C1293 1.396 1_554 S
C1294 C1295 1.399 . S
C1295 H1281 0.929 . S
C1295 C1294 1.399 . S
C1295 C1296 1.385 . S
C1296 H1282 0.931 . S
C1296 C1295 1.385 . S
C1296 C1297 1.389 1_554 S
C1297 C1296 1.389 1_556 S
C1297 C1298 1.387 . S
C1298 H1283 0.930 . S
C1298 C1293 1.390 . S
C1298 C1297 1.387 . S
H1299 C1311 0.930 . S
H1300 C1313 0.930 . S
H1301 C1314 0.930 . S
H1302 C1318 0.959 . S
H1303 C1318 0.959 . S
H1304 C1318 0.961 . S
H1305 C1319 0.960 . S
H1306 C1319 0.961 . S
H1307 C1319 0.959 . S
H1308 C1322 0.929 . S
H1309 C1323 0.931 . S
H1310 C1325 0.930 . S
C1311 H1299 0.930 . S
C1311 C1312 1.399 . S
C1311 C1316 1.399 . S
C1312 C1311 1.399 . S
C1312 C1313 1.376 . S
C1313 H1300 0.930 . S
C1313 C1312 1.376 . S
C1313 C1314 1.388 . S
C1314 H1301 0.930 . S
C1314 C1313 1.388 . S
C1314 C1315 1.390 . S
C1315 C1314 1.390 . S
C1315 C1316 1.394 . S
C1315 C1321 1.465 . S
C1316 C1311 1.399 . S
C1316 C1315 1.394 . S
C1316 C1317 1.516 . S
C1317 C1316 1.516 . S
C1317 C1318 1.502 . S
C1317 C1319 1.561 . S
C1317 C1320 1.526 . S
C1318 H1302 0.959 . S
C1318 H1303 0.959 . S
C1318 H1304 0.961 . S
C1318 C1317 1.502 . S
C1319 H1305 0.960 . S
C1319 H1306 0.961 . S
C1319 H1307 0.959 . S
C1319 C1317 1.561 . S
C1320 C1317 1.526 . S
C1320 C1321 1.396 . S
C1320 C1325 1.390 . S
C1321 C1315 1.465 . S
C1321 C1320 1.396 . S
C1321 C1322 1.399 . S
C1322 H1308 0.929 . S
C1322 C1321 1.399 . S
C1322 C1323 1.385 . S
C1323 H1309 0.931 . S
C1323 C1322 1.385 . S
C1323 C1324 1.389 . S
C1324 C1323 1.389 . S
C1324 C1325 1.387 . S
C1325 H1310 0.930 . S
C1325 C1320 1.390 . S
C1325 C1324 1.387 . S
H1326 C1338 0.930 . S
H1327 C1340 0.930 . S
H1328 C1341 0.930 . S
H1329 C1345 0.959 . S
H1330 C1345 0.959 1_655 S
H1331 C1345 0.961 . S
H1332 C1346 0.960 . S
H1333 C1346 0.961 . S
H1334 C1346 0.959 . S
H1335 C1349 0.929 . S
H1336 C1350 0.931 . S
H1337 C1352 0.930 . S
C1338 H1326 0.930 . S
C1338 C1339 1.399 . S
C1338 C1343 1.399 . S
C1339 C1338 1.399 . S
C1339 C1340 1.376 . S
C1340 H1327 0.930 . S
C1340 C1339 1.376 . S
C1340 C1341 1.388 . S
C1341 H1328 0.930 . S
C1341 C1340 1.388 . S
C1341 C1342 1.390 . S
C1342 C1341 1.390 . S
C1342 C1343 1.394 . S
C1342 C1348 1.465 1_455 S
C1343 C1338 1.399 . S
C1343 C1342 1.394 . S
C1343 C1344 1.516 . S
C1344 C1343 1.516 . S
C1344 C1345 1.502 . S
C1344 C1346 1.561 . S
C1344 C1347 1.526 1_455 S
C1345 H1329 0.959 . S
C1345 H1330 0.959 1_455 S
C1345 H1331 0.961 . S
C1345 C1344 1.502 . S
C1346 H1332 0.960 . S
C1346 H1333 0.961 . S
C1346 H1334 0.959 . S
C1346 C1344 1.561 . S
C1347 C1344 1.526 1_655 S
C1347 C1348 1.396 . S
C1347 C1352 1.390 . S
C1348 C1342 1.465 1_655 S
C1348 C1347 1.396 . S
C1348 C1349 1.399 . S
C1349 H1335 0.929 . S
C1349 C1348 1.399 . S
C1349 C1350 1.385 . S
C1350 H1336 0.931 . S
C1350 C1349 1.385 . S
C1350 C1351 1.389 . S
C1351 C1350 1.389 . S
C1351 C1352 1.387 . S
C1352 H1337 0.930 . S
C1352 C1347 1.390 . S
C1352 C1351 1.387 . S
H1353 C1365 0.930 . S
H1354 C1367 0.930 . S
H1355 C1368 0.930 . S
H1356 C1372 0.959 . S
H1357 C1372 0.959 . S
H1358 C1372 0.961 . S
H1359 C1373 0.960 . S
H1360 C1373 0.961 . S
H1361 C1373 0.959 . S
H1362 C1376 0.929 . S
H1363 C1377 0.931 . S
H1364 C1379 0.930 . S
C1365 H1353 0.930 . S
C1365 C1366 1.399 1_554 S
C1365 C1370 1.399 . S
C1366 C1365 1.399 1_556 S
C1366 C1367 1.376 . S
C1367 H1354 0.930 . S
C1367 C1366 1.376 . S
C1367 C1368 1.388 . S
C1368 H1355 0.930 . S
C1368 C1367 1.388 . S
C1368 C1369 1.390 . S
C1369 C1368 1.390 . S
C1369 C1370 1.394 1_556 S
C1369 C1375 1.465 1_545 S
C1370 C1365 1.399 . S
C1370 C1369 1.394 1_554 S
C1370 C1371 1.516 . S
C1371 C1370 1.516 . S
C1371 C1372 1.502 . S
C1371 C1373 1.561 . S
C1371 C1374 1.526 1_545 S
C1372 H1356 0.959 . S
C1372 H1357 0.959 . S
C1372 H1358 0.961 . S
C1372 C1371 1.502 . S
C1373 H1359 0.960 . S
C1373 H1360 0.961 . S
C1373 H1361 0.959 . S
C1373 C1371 1.561 . S
C1374 C1371 1.526 1_565 S
C1374 C1375 1.396 1_554 S
C1374 C1379 1.390 . S
C1375 C1369 1.465 1_565 S
C1375 C1374 1.396 1_556 S
C1375 C1376 1.399 . S
C1376 H1362 0.929 . S
C1376 C1375 1.399 . S
C1376 C1377 1.385 . S
C1377 H1363 0.931 . S
C1377 C1376 1.385 . S
C1377 C1378 1.389 1_556 S
C1378 C1377 1.389 1_554 S
C1378 C1379 1.387 . S
C1379 H1364 0.930 . S
C1379 C1374 1.390 . S
C1379 C1378 1.387 . S
H1380 C1392 0.930 1_455 S
H1381 C1394 0.930 . S
H1382 C1395 0.930 . S
H1383 C1399 0.959 . S
H1384 C1399 0.959 . S
H1385 C1399 0.961 . S
H1386 C1400 0.960 . S
H1387 C1400 0.961 . S
H1388 C1400 0.959 . S
H1389 C1403 0.929 . S
H1390 C1404 0.931 1_655 S
H1391 C1406 0.930 . S
C1392 H1380 0.930 1_655 S
C1392 C1393 1.399 . S
C1392 C1397 1.410 . S
C1393 C1392 1.399 . S
C1393 C1394 1.376 . S
C1394 H1381 0.930 . S
C1394 C1393 1.376 . S
C1394 C1395 1.388 . S
C1395 H1382 0.930 . S
C1395 C1394 1.388 . S
C1395 C1396 1.390 . S
C1396 C1395 1.390 . S
C1396 C1397 1.426 . S
C1396 C1402 1.465 . S
C1397 C1392 1.410 . S
C1397 C1396 1.426 . S
C1397 C1398 1.476 1_655 S
C1398 C1397 1.476 1_455 S
C1398 C1399 1.502 . S
C1398 C1400 1.561 . S
C1398 C1401 1.526 . S
C1399 H1383 0.959 . S
C1399 H1384 0.959 . S
C1399 H1385 0.961 . S
C1399 C1398 1.502 . S
C1400 H1386 0.960 . S
C1400 H1387 0.961 . S
C1400 H1388 0.959 . S
C1400 C1398 1.561 . S
C1401 C1398 1.526 . S
C1401 C1402 1.396 1_455 S
C1401 C1406 1.390 . S
C1402 C1396 1.465 . S
C1402 C1401 1.396 1_655 S
C1402 C1403 1.399 . S
C1403 H1389 0.929 . S
C1403 C1402 1.399 . S
C1403 C1404 1.385 1_655 S
C1404 H1390 0.931 1_455 S
C1404 C1403 1.385 1_455 S
C1404 C1405 1.389 . S
C1405 C1404 1.389 . S
C1405 C1406 1.387 . S
C1406 H1391 0.930 . S
C1406 C1401 1.390 . S
C1406 C1405 1.387 . S
H1407 C1419 0.930 . S
H1408 C1421 0.930 . S
H1409 C1422 0.930 1_565 S
H1410 C1426 0.959 . S
H1411 C1426 0.959 . S
H1412 C1426 0.961 . S
H1413 C1427 0.960 . S
H1414 C1427 0.961 . S
H1415 C1427 0.959 . S
H1416 C1430 0.929 . S
H1417 C1431 0.931 . S
H1418 C1433 0.930 . S
C1419 H1407 0.930 . S
C1419 C1420 1.399 . S
C1419 C1424 1.399 . S
C1420 C1419 1.399 . S
C1420 C1421 1.376 . S
C1421 H1408 0.930 . S
C1421 C1420 1.376 . S
C1421 C1422 1.388 . S
C1422 H1409 0.930 1_545 S
C1422 C1421 1.388 . S
C1422 C1423 1.411 . S
C1423 C1422 1.411 . S
C1423 C1424 1.391 . S
C1423 C1429 1.447 1_545 S
C1424 C1419 1.399 . S
C1424 C1423 1.391 . S
C1424 C1425 1.516 . S
C1425 C1424 1.516 . S
C1425 C1426 1.502 . S
C1425 C1427 1.561 1_545 S
C1425 C1428 1.526 1_545 S
C1426 H1410 0.959 . S
C1426 H1411 0.959 . S
C1426 H1412 0.961 . S
C1426 C1425 1.502 . S
C1427 H1413 0.960 . S
C1427 H1414 0.961 . S
C1427 H1415 0.959 . S
C1427 C1425 1.561 1_565 S
C1428 C1425 1.526 1_565 S
C1428 C1429 1.396 . S
C1428 C1433 1.390 . S
C1429 C1423 1.447 1_565 S
C1429 C1428 1.396 . S
C1429 C1430 1.399 . S
C1430 H1416 0.929 . S
C1430 C1429 1.399 . S
C1430 C1431 1.385 . S
C1431 H1417 0.931 . S
C1431 C1430 1.385 . S
C1431 C1432 1.389 . S
C1432 C1431 1.389 . S
C1432 C1433 1.387 . S
C1433 H1418 0.930 . S
C1433 C1428 1.390 . S
C1433 C1432 1.387 . S
H1434 C1446 0.930 . S
H1435 C1448 0.930 . S
H1436 C1449 0.930 . S
H1437 C1453 0.959 . S
H1438 C1453 0.959 . S
H1439 C1453 0.961 . S
H1440 C1454 0.960 . S
H1441 C1454 0.961 . S
H1442 C1454 0.959 . S
H1443 C1457 0.929 . S
H1444 C1458 0.931 . S
H1445 C1460 0.930 . S
C1446 H1434 0.930 . S
C1446 C1447 1.399 . S
C1446 C1451 1.399 . S
C1447 C1446 1.399 . S
C1447 C1448 1.376 . S
C1448 H1435 0.930 . S
C1448 C1447 1.376 . S
C1448 C1449 1.388 . S
C1449 H1436 0.930 . S
C1449 C1448 1.388 . S
C1449 C1450 1.390 . S
C1450 C1449 1.390 . S
C1450 C1451 1.394 . S
C1450 C1456 1.465 . S
C1451 C1446 1.399 . S
C1451 C1450 1.394 . S
C1451 C1452 1.516 . S
C1452 C1451 1.516 . S
C1452 C1453 1.502 . S
C1452 C1454 1.561 . S
C1452 C1455 1.526 . S
C1453 H1437 0.959 . S
C1453 H1438 0.959 . S
C1453 H1439 0.961 . S
C1453 C1452 1.502 . S
C1454 H1440 0.960 . S
C1454 H1441 0.961 . S
C1454 H1442 0.959 . S
C1454 C1452 1.561 . S
C1455 C1452 1.526 . S
C1455 C1456 1.396 . S
C1455 C1460 1.390 . S
C1456 C1450 1.465 . S
C1456 C1455 1.396 . S
C1456 C1457 1.399 . S
C1457 H1443 0.929 . S
C1457 C1456 1.399 . S
C1457 C1458 1.385 . S
C1458 H1444 0.931 . S
C1458 C1457 1.385 . S
C1458 C1459 1.389 . S
C1459 C1458 1.389 . S
C1459 C1460 1.387 . S
C1460 H1445 0.930 . S
C1460 C1455 1.390 . S
C1460 C1459 1.387 . S
H1461 C1473 0.930 . S
H1462 C1475 0.930 . S
H1463 C1476 0.930 . S
H1464 C1480 0.959 1_455 S
H1465 C1480 0.959 . S
H1466 C1480 0.961 . S
H1467 C1481 0.960 . S
H1468 C1481 0.961 . S
H1469 C1481 0.959 . S
H1470 C1484 0.929 1_455 S
H1471 C1485 0.931 . S
H1472 C1487 0.930 . S
C1473 H1461 0.930 . S
C1473 C1474 1.399 . S
C1473 C1478 1.399 . S
C1474 C1473 1.399 . S
C1474 C1475 1.376 . S
C1475 H1462 0.930 . S
C1475 C1474 1.376 . S
C1475 C1476 1.388 . S
C1476 H1463 0.930 . S
C1476 C1475 1.388 . S
C1476 C1477 1.390 . S
C1477 C1476 1.390 . S
C1477 C1478 1.394 . S
C1477 C1483 1.465 1_455 S
C1478 C1473 1.399 . S
C1478 C1477 1.394 . S
C1478 C1479 1.516 1_455 S
C1479 C1478 1.516 1_655 S
C1479 C1480 1.502 . S
C1479 C1481 1.561 . S
C1479 C1482 1.526 . S
C1480 H1464 0.959 1_655 S
C1480 H1465 0.959 . S
C1480 H1466 0.961 . S
C1480 C1479 1.502 . S
C1481 H1467 0.960 . S
C1481 H1468 0.961 . S
C1481 H1469 0.959 . S
C1481 C1479 1.561 . S
C1482 C1479 1.526 . S
C1482 C1483 1.396 . S
C1482 C1487 1.390 . S
C1483 C1477 1.465 1_655 S
C1483 C1482 1.396 . S
C1483 C1484 1.399 . S
C1484 H1470 0.929 1_655 S
C1484 C1483 1.399 . S
C1484 C1485 1.385 . S
C1485 H1471 0.931 . S
C1485 C1484 1.385 . S
C1485 C1486 1.389 . S
C1486 C1485 1.389 . S
C1486 C1487 1.387 . S
C1487 H1472 0.930 . S
C1487 C1482 1.390 . S
C1487 C1486 1.387 . S
H1488 C1500 0.930 1_565 S
H1489 C1502 0.930 . S
H1490 C1503 0.930 . S
H1491 C1507 0.959 . S
H1492 C1507 0.959 . S
H1493 C1507 0.961 . S
H1494 C1508 0.960 . S
H1495 C1508 0.961 . S
H1496 C1508 0.959 . S
H1497 C1511 0.929 . S
H1498 C1512 0.931 . S
H1499 C1514 0.930 . S
C1500 H1488 0.930 1_545 S
C1500 C1501 1.399 . S
C1500 C1505 1.404 . S
C1501 C1500 1.399 . S
C1501 C1502 1.376 . S
C1502 H1489 0.930 . S
C1502 C1501 1.376 . S
C1502 C1503 1.388 . S
C1503 H1490 0.930 . S
C1503 C1502 1.388 . S
C1503 C1504 1.390 . S
C1504 C1503 1.390 . S
C1504 C1505 1.398 . S
C1504 C1510 1.465 . S
C1505 C1500 1.404 . S
C1505 C1504 1.398 . S
C1505 C1506 1.507 1_545 S
C1506 C1505 1.507 1_565 S
C1506 C1507 1.502 . S
C1506 C1508 1.561 . S
C1506 C1509 1.526 . S
C1507 H1491 0.959 . S
C1507 H1492 0.959 . S
C1507 H1493 0.961 . S
C1507 C1506 1.502 . S
C1508 H1494 0.960 . S
C1508 H1495 0.961 . S
C1508 H1496 0.959 . S
C1508 C1506 1.561 . S
C1509 C1506 1.526 . S
C1509 C1510 1.396 1_565 S
C1509 C1514 1.390 . S
C1510 C1504 1.465 . S
C1510 C1509 1.396 1_545 S
C1510 C1511 1.399 . S
C1511 H1497 0.929 . S
C1511 C1510 1.399 . S
C1511 C1512 1.385 1_545 S
C1512 H1498 0.931 . S
C1512 C1511 1.385 1_565 S
C1512 C1513 1.389 . S
C1513 C1512 1.389 . S
C1513 C1514 1.387 . S
C1514 H1499 0.930 . S
C1514 C1509 1.390 . S
C1514 C1513 1.387 . S
H1515 C1527 0.930 . S
H1516 C1529 0.930 . S
H1517 C1530 0.930 . S
H1518 C1534 0.959 . S
H1519 C1534 0.959 . S
H1520 C1534 0.961 . S
H1521 C1535 0.960 . S
H1522 C1535 0.961 . S
H1523 C1535 0.959 . S
H1524 C1538 0.929 . S
H1525 C1539 0.931 . S
H1526 C1541 0.930 . S
C1527 H1515 0.930 . S
C1527 C1528 1.399 . S
C1527 C1532 1.399 . S
C1528 C1527 1.399 . S
C1528 C1529 1.376 . S
C1529 H1516 0.930 . S
C1529 C1528 1.376 . S
C1529 C1530 1.388 . S
C1530 H1517 0.930 . S
C1530 C1529 1.388 . S
C1530 C1531 1.390 . S
C1531 C1530 1.390 . S
C1531 C1532 1.394 . S
C1531 C1537 1.465 . S
C1532 C1527 1.399 . S
C1532 C1531 1.394 . S
C1532 C1533 1.516 . S
C1533 C1532 1.516 . S
C1533 C1534 1.502 . S
C1533 C1535 1.561 . S
C1533 C1536 1.526 . S
C1534 H1518 0.959 . S
C1534 H1519 0.959 . S
C1534 H1520 0.961 . S
C1534 C1533 1.502 . S
C1535 H1521 0.960 . S
C1535 H1522 0.961 . S
C1535 H1523 0.959 . S
C1535 C1533 1.561 . S
C1536 C1533 1.526 . S
C1536 C1537 1.396 . S
C1536 C1541 1.390 . S
C1537 C1531 1.465 . S
C1537 C1536 1.396 . S
C1537 C1538 1.399 . S
C1538 H1524 0.929 . S
C1538 C1537 1.399 . S
C1538 C1539 1.385 . S
C1539 H1525 0.931 . S
C1539 C1538 1.385 . S
C1539 C1540 1.389 . S
C1540 C1539 1.389 . S
C1540 C1541 1.387 . S
C1541 H1526 0.930 . S
C1541 C1536 1.390 . S
C1541 C1540 1.387 . S
H1542 C1554 0.930 . S
H1543 C1556 0.930 . S
H1544 C1557 0.930 . S
H1545 C1561 0.959 . S
H1546 C1561 0.959 . S
H1547 C1561 0.961 . S
H1548 C1562 0.960 . S
H1549 C1562 0.961 . S
H1550 C1562 0.959 . S
H1551 C1565 0.929 . S
H1552 C1566 0.931 . S
H1553 C1568 0.930 . S
C1554 H1542 0.930 . S
C1554 C1555 1.399 . S
C1554 C1559 1.399 . S
C1555 C1554 1.399 . S
C1555 C1556 1.376 . S
C1556 H1543 0.930 . S
C1556 C1555 1.376 . S
C1556 C1557 1.388 . S
C1557 H1544 0.930 . S
C1557 C1556 1.388 . S
C1557 C1558 1.390 . S
C1558 C1557 1.390 . S
C1558 C1559 1.394 . S
C1558 C1564 1.465 . S
C1559 C1554 1.399 . S
C1559 C1558 1.394 . S
C1559 C1560 1.516 . S
C1560 C1559 1.516 . S
C1560 C1561 1.502 . S
C1560 C1562 1.561 . S
C1560 C1563 1.526 . S
C1561 H1545 0.959 . S
C1561 H1546 0.959 . S
C1561 H1547 0.961 . S
C1561 C1560 1.502 . S
C1562 H1548 0.960 . S
C1562 H1549 0.961 . S
C1562 H1550 0.959 . S
C1562 C1560 1.561 . S
C1563 C1560 1.526 . S
C1563 C1564 1.396 . S
C1563 C1568 1.390 . S
C1564 C1558 1.465 . S
C1564 C1563 1.396 . S
C1564 C1565 1.399 . S
C1565 H1551 0.929 . S
C1565 C1564 1.399 . S
C1565 C1566 1.385 . S
C1566 H1552 0.931 . S
C1566 C1565 1.385 . S
C1566 C1567 1.389 . S
C1567 C1566 1.389 . S
C1567 C1568 1.387 . S
C1568 H1553 0.930 . S
C1568 C1563 1.390 . S
C1568 C1567 1.387 . S
H1569 C1581 0.930 . S
H1570 C1583 0.930 . S
H1571 C1584 0.930 . S
H1572 C1588 0.959 . S
H1573 C1588 0.959 . S
H1574 C1588 0.961 . S
H1575 C1589 0.960 . S
H1576 C1589 0.961 . S
H1577 C1589 0.959 . S
H1578 C1592 0.929 . S
H1579 C1593 0.931 . S
H1580 C1595 0.930 . S
C1581 H1569 0.930 . S
C1581 C1582 1.399 . S
C1581 C1586 1.399 . S
C1582 C1581 1.399 . S
C1582 C1583 1.376 . S
C1583 H1570 0.930 . S
C1583 C1582 1.376 . S
C1583 C1584 1.388 . S
C1584 H1571 0.930 . S
C1584 C1583 1.388 . S
C1584 C1585 1.390 . S
C1585 C1584 1.390 . S
C1585 C1586 1.394 . S
C1585 C1591 1.465 . S
C1586 C1581 1.399 . S
C1586 C1585 1.394 . S
C1586 C1587 1.516 . S
C1587 C1586 1.516 . S
C1587 C1588 1.502 . S
C1587 C1589 1.561 . S
C1587 C1590 1.526 . S
C1588 H1572 0.959 . S
C1588 H1573 0.959 . S
C1588 H1574 0.961 . S
C1588 C1587 1.502 . S
C1589 H1575 0.960 . S
C1589 H1576 0.961 . S
C1589 H1577 0.959 . S
C1589 C1587 1.561 . S
C1590 C1587 1.526 . S
C1590 C1591 1.396 . S
C1590 C1595 1.390 . S
C1591 C1585 1.465 . S
C1591 C1590 1.396 . S
C1591 C1592 1.399 . S
C1592 H1578 0.929 . S
C1592 C1591 1.399 . S
C1592 C1593 1.385 . S
C1593 H1579 0.931 . S
C1593 C1592 1.385 . S
C1593 C1594 1.389 . S
C1594 C1593 1.389 . S
C1594 C1595 1.387 . S
C1595 H1580 0.930 . S
C1595 C1590 1.390 . S
C1595 C1594 1.387 . S
H1596 C1608 0.930 . S
H1597 C1610 0.930 . S
H1598 C1611 0.930 . S
H1599 C1615 0.959 . S
H1600 C1615 0.959 . S
H1601 C1615 0.961 . S
H1602 C1616 0.960 . S
H1603 C1616 0.961 . S
H1604 C1616 0.959 . S
H1605 C1619 0.929 . S
H1606 C1620 0.931 . S
H1607 C1622 0.930 . S
C1608 H1596 0.930 . S
C1608 C1609 1.399 . S
C1608 C1613 1.399 . S
C1609 C1608 1.399 . S
C1609 C1610 1.376 . S
C1610 H1597 0.930 . S
C1610 C1609 1.376 . S
C1610 C1611 1.388 . S
C1611 H1598 0.930 . S
C1611 C1610 1.388 . S
C1611 C1612 1.390 . S
C1612 C1611 1.390 . S
C1612 C1613 1.394 . S
C1612 C1618 1.465 . S
C1613 C1608 1.399 . S
C1613 C1612 1.394 . S
C1613 C1614 1.516 . S
C1614 C1613 1.516 . S
C1614 C1615 1.502 . S
C1614 C1616 1.561 . S
C1614 C1617 1.526 . S
C1615 H1599 0.959 . S
C1615 H1600 0.959 . S
C1615 H1601 0.961 . S
C1615 C1614 1.502 . S
C1616 H1602 0.960 . S
C1616 H1603 0.961 . S
C1616 H1604 0.959 . S
C1616 C1614 1.561 . S
C1617 C1614 1.526 . S
C1617 C1618 1.396 . S
C1617 C1622 1.390 . S
C1618 C1612 1.465 . S
C1618 C1617 1.396 . S
C1618 C1619 1.399 . S
C1619 H1605 0.929 . S
C1619 C1618 1.399 . S
C1619 C1620 1.385 . S
C1620 H1606 0.931 . S
C1620 C1619 1.385 . S
C1620 C1621 1.389 . S
C1621 C1620 1.389 . S
C1621 C1622 1.387 . S
C1622 H1607 0.930 . S
C1622 C1617 1.390 . S
C1622 C1621 1.387 . S
H1623 C1635 0.930 . S
H1624 C1637 0.930 . S
H1625 C1638 0.930 . S
H1626 C1642 0.959 . S
H1627 C1642 0.959 . S
H1628 C1642 0.961 . S
H1629 C1643 0.960 . S
H1630 C1643 0.961 . S
H1631 C1643 0.959 . S
H1632 C1646 0.929 . S
H1633 C1647 0.931 . S
H1634 C1649 0.930 . S
C1635 H1623 0.930 . S
C1635 C1636 1.399 . S
C1635 C1640 1.399 . S
C1636 C1635 1.399 . S
C1636 C1637 1.376 . S
C1637 H1624 0.930 . S
C1637 C1636 1.376 . S
C1637 C1638 1.388 . S
C1638 H1625 0.930 . S
C1638 C1637 1.388 . S
C1638 C1639 1.390 . S
C1639 C1638 1.390 . S
C1639 C1640 1.394 . S
C1639 C1645 1.465 . S
C1640 C1635 1.399 . S
C1640 C1639 1.394 . S
C1640 C1641 1.516 . S
C1641 C1640 1.516 . S
C1641 C1642 1.502 . S
C1641 C1643 1.561 . S
C1641 C1644 1.526 . S
C1642 H1626 0.959 . S
C1642 H1627 0.959 . S
C1642 H1628 0.961 . S
C1642 C1641 1.502 . S
C1643 H1629 0.960 . S
C1643 H1630 0.961 . S
C1643 H1631 0.959 . S
C1643 C1641 1.561 . S
C1644 C1641 1.526 . S
C1644 C1645 1.396 . S
C1644 C1649 1.390 . S
C1645 C1639 1.465 . S
C1645 C1644 1.396 . S
C1645 C1646 1.399 . S
C1646 H1632 0.929 . S
C1646 C1645 1.399 . S
C1646 C1647 1.385 . S
C1647 H1633 0.931 . S
C1647 C1646 1.385 . S
C1647 C1648 1.389 . S
C1648 C1647 1.389 . S
C1648 C1649 1.387 . S
C1649 H1634 0.930 . S
C1649 C1644 1.390 . S
C1649 C1648 1.387 . S
H1650 C1662 0.930 . S
H1651 C1664 0.930 . S
H1652 C1665 0.930 . S
H1653 C1669 0.959 . S
H1654 C1669 0.959 . S
H1655 C1669 0.961 . S
H1656 C1670 0.960 . S
H1657 C1670 0.961 . S
H1658 C1670 0.959 . S
H1659 C1673 0.929 . S
H1660 C1674 0.931 . S
H1661 C1676 0.930 . S
C1662 H1650 0.930 . S
C1662 C1663 1.399 . S
C1662 C1667 1.399 . S
C1663 C1662 1.399 . S
C1663 C1664 1.376 . S
C1664 H1651 0.930 . S
C1664 C1663 1.376 . S
C1664 C1665 1.388 . S
C1665 H1652 0.930 . S
C1665 C1664 1.388 . S
C1665 C1666 1.390 . S
C1666 C1665 1.390 . S
C1666 C1667 1.394 . S
C1666 C1672 1.465 . S
C1667 C1662 1.399 . S
C1667 C1666 1.394 . S
C1667 C1668 1.516 . S
C1668 C1667 1.516 . S
C1668 C1669 1.502 . S
C1668 C1670 1.561 . S
C1668 C1671 1.526 . S
C1669 H1653 0.959 . S
C1669 H1654 0.959 . S
C1669 H1655 0.961 . S
C1669 C1668 1.502 . S
C1670 H1656 0.960 . S
C1670 H1657 0.961 . S
C1670 H1658 0.959 . S
C1670 C1668 1.561 . S
C1671 C1668 1.526 . S
C1671 C1672 1.396 . S
C1671 C1676 1.390 . S
C1672 C1666 1.465 . S
C1672 C1671 1.396 . S
C1672 C1673 1.399 . S
C1673 H1659 0.929 . S
C1673 C1672 1.399 . S
C1673 C1674 1.385 . S
C1674 H1660 0.931 . S
C1674 C1673 1.385 . S
C1674 C1675 1.389 . S
C1675 C1674 1.389 . S
C1675 C1676 1.387 . S
C1676 H1661 0.930 . S
C1676 C1671 1.390 . S
C1676 C1675 1.387 . S
H1677 C1689 0.930 . S
H1678 C1691 0.930 . S
H1679 C1692 0.930 . S
H1680 C1696 0.959 . S
H1681 C1696 0.959 . S
H1682 C1696 0.961 . S
H1683 C1697 0.960 . S
H1684 C1697 0.961 . S
H1685 C1697 0.959 . S
H1686 C1700 0.929 . S
H1687 C1701 0.931 . S
H1688 C1703 0.930 . S
C1689 H1677 0.930 . S
C1689 C1690 1.399 . S
C1689 C1694 1.399 . S
C1690 C1689 1.399 . S
C1690 C1691 1.376 . S
C1691 H1678 0.930 . S
C1691 C1690 1.376 . S
C1691 C1692 1.388 . S
C1692 H1679 0.930 . S
C1692 C1691 1.388 . S
C1692 C1693 1.390 . S
C1693 C1692 1.390 . S
C1693 C1694 1.394 . S
C1693 C1699 1.465 . S
C1694 C1689 1.399 . S
C1694 C1693 1.394 . S
C1694 C1695 1.516 . S
C1695 C1694 1.516 . S
C1695 C1696 1.502 . S
C1695 C1697 1.561 . S
C1695 C1698 1.526 . S
C1696 H1680 0.959 . S
C1696 H1681 0.959 . S
C1696 H1682 0.961 . S
C1696 C1695 1.502 . S
C1697 H1683 0.960 . S
C1697 H1684 0.961 . S
C1697 H1685 0.959 . S
C1697 C1695 1.561 . S
C1698 C1695 1.526 . S
C1698 C1699 1.396 . S
C1698 C1703 1.390 . S
C1699 C1693 1.465 . S
C1699 C1698 1.396 . S
C1699 C1700 1.399 . S
C1700 H1686 0.929 . S
C1700 C1699 1.399 . S
C1700 C1701 1.385 . S
C1701 H1687 0.931 . S
C1701 C1700 1.385 . S
C1701 C1702 1.389 . S
C1702 C1701 1.389 . S
C1702 C1703 1.387 . S
C1703 H1688 0.930 . S
C1703 C1698 1.390 . S
C1703 C1702 1.387 . S
C1069 C20 1.418 . S
C1081 C585 1.470 . S
C1096 C108 1.427 . S
C1108 C665 1.470 . S
C1123 C205 1.467 . S
C1135 C753 1.444 . S
C1150 C841 1.432 . S
C1162 C293 1.391 . S
C1177 C381 1.430 . S
C1189 C937 1.469 . S
C1204 C1017 1.470 . S
C1216 C460 1.433 . S
C1231 C49 0.609 . S
C1243 C812 0.477 . S
C1258 C137 0.611 . S
C1270 C909 0.467 . S
C1285 C988 0.610 . S
C1297 C233 0.511 . S
C1312 C557 0.445 . S
C1324 C321 0.607 . S
C1339 C409 0.597 . S
C1351 C636 0.504 . S
C1366 C489 0.627 . S
C1378 C724 0.466 . S
C1393 C997 2.201 . S
C1405 C57 2.220 . S
C1420 C145 2.263 . S
C1432 C548 2.246 . S
C1447 C225 2.225 . S
C1459 C645 2.197 . S
C1474 C733 2.214 . S
C1486 C313 2.216 . S
C1501 C821 2.241 . S
C1513 C401 2.264 . S
C1528 C497 2.225 . S
C1540 C900 2.197 . S
C1555 C29 0.919 . S
C1567 C929 1.121 . S
C1582 C1025 0.963 . S
C1594 C117 1.142 . S
C1609 C577 0.954 . S
C1621 C196 1.144 . S
C1636 C284 0.950 . S
C1648 C673 1.052 . S
C1663 C761 0.940 . S
C1675 C372 1.117 . S
C1690 C849 0.975 . S
C1702 C469 1.137 . S
