# Generated by pormake.
# Topology crs, (6)-cn, num edge types: 1
# Building blocks:
#     Node 0, Type 0, BuildingBlock: CUKXOW_clean_sbu_0, # of connection points: 6
#     Node 1, Type 0, BuildingBlock: CUKXOW_clean_sbu_0, # of connection points: 6
#     Node 2, Type 0, BuildingBlock: CUKXOW_clean_sbu_0, # of connection points: 6
#     Node 3, Type 0, BuildingBlock: CUKXOW_clean_sbu_0, # of connection points: 6
#     Node 4, Type 0, BuildingBlock: CUKXOW_clean_sbu_0, # of connection points: 6
#     Node 5, Type 0, BuildingBlock: CUKXOW_clean_sbu_0, # of connection points: 6
#     Node 6, Type 0, BuildingBlock: CUKXOW_clean_sbu_0, # of connection points: 6
#     Node 7, Type 0, BuildingBlock: CUKXOW_clean_sbu_0, # of connection points: 6
#     Node 8, Type 0, BuildingBlock: CUKXOW_clean_sbu_0, # of connection points: 6
#     Node 9, Type 0, BuildingBlock: CUKXOW_clean_sbu_0, # of connection points: 6
#     Node 10, Type 0, BuildingBlock: CUKXOW_clean_sbu_0, # of connection points: 6
#     Node 11, Type 0, BuildingBlock: CUKXOW_clean_sbu_0, # of connection points: 6
#     Node 12, Type 0, BuildingBlock: CUKXOW_clean_sbu_0, # of connection points: 6
#     Node 13, Type 0, BuildingBlock: CUKXOW_clean_sbu_0, # of connection points: 6
#     Node 14, Type 0, BuildingBlock: CUKXOW_clean_sbu_0, # of connection points: 6
#     Node 15, Type 0, BuildingBlock: CUKXOW_clean_sbu_0, # of connection points: 6
#     Edge 16, Type (0, 0), BuildingBlock: AJUNOK_clean_linker_0, # of connection points: 2
#     Edge 17, Type (0, 0), BuildingBlock: AJUNOK_clean_linker_0, # of connection points: 2
#     Edge 18, Type (0, 0), BuildingBlock: AJUNOK_clean_linker_0, # of connection points: 2
#     Edge 19, Type (0, 0), BuildingBlock: AJUNOK_clean_linker_0, # of connection points: 2
#     Edge 20, Type (0, 0), BuildingBlock: AJUNOK_clean_linker_0, # of connection points: 2
#     Edge 21, Type (0, 0), BuildingBlock: AJUNOK_clean_linker_0, # of connection points: 2
#     Edge 22, Type (0, 0), BuildingBlock: AJUNOK_clean_linker_0, # of connection points: 2
#     Edge 23, Type (0, 0), BuildingBlock: AJUNOK_clean_linker_0, # of connection points: 2
#     Edge 24, Type (0, 0), BuildingBlock: AJUNOK_clean_linker_0, # of connection points: 2
#     Edge 25, Type (0, 0), BuildingBlock: AJUNOK_clean_linker_0, # of connection points: 2
#     Edge 26, Type (0, 0), BuildingBlock: AJUNOK_clean_linker_0, # of connection points: 2
#     Edge 27, Type (0, 0), BuildingBlock: AJUNOK_clean_linker_0, # of connection points: 2
#     Edge 28, Type (0, 0), BuildingBlock: AJUNOK_clean_linker_0, # of connection points: 2
#     Edge 29, Type (0, 0), BuildingBlock: AJUNOK_clean_linker_0, # of connection points: 2
#     Edge 30, Type (0, 0), BuildingBlock: AJUNOK_clean_linker_0, # of connection points: 2
#     Edge 31, Type (0, 0), BuildingBlock: AJUNOK_clean_linker_0, # of connection points: 2
#     Edge 32, Type (0, 0), BuildingBlock: AJUNOK_clean_linker_0, # of connection points: 2
#     Edge 33, Type (0, 0), BuildingBlock: AJUNOK_clean_linker_0, # of connection points: 2
#     Edge 34, Type (0, 0), BuildingBlock: AJUNOK_clean_linker_0, # of connection points: 2
#     Edge 35, Type (0, 0), BuildingBlock: AJUNOK_clean_linker_0, # of connection points: 2
#     Edge 36, Type (0, 0), BuildingBlock: AJUNOK_clean_linker_0, # of connection points: 2
#     Edge 37, Type (0, 0), BuildingBlock: AJUNOK_clean_linker_0, # of connection points: 2
#     Edge 38, Type (0, 0), BuildingBlock: AJUNOK_clean_linker_0, # of connection points: 2
#     Edge 39, Type (0, 0), BuildingBlock: AJUNOK_clean_linker_0, # of connection points: 2
#     Edge 40, Type (0, 0), BuildingBlock: AJUNOK_clean_linker_0, # of connection points: 2
#     Edge 41, Type (0, 0), BuildingBlock: AJUNOK_clean_linker_0, # of connection points: 2
#     Edge 42, Type (0, 0), BuildingBlock: AJUNOK_clean_linker_0, # of connection points: 2
#     Edge 43, Type (0, 0), BuildingBlock: AJUNOK_clean_linker_0, # of connection points: 2
#     Edge 44, Type (0, 0), BuildingBlock: AJUNOK_clean_linker_0, # of connection points: 2
#     Edge 45, Type (0, 0), BuildingBlock: AJUNOK_clean_linker_0, # of connection points: 2
#     Edge 46, Type (0, 0), BuildingBlock: AJUNOK_clean_linker_0, # of connection points: 2
#     Edge 47, Type (0, 0), BuildingBlock: AJUNOK_clean_linker_0, # of connection points: 2
#     Edge 48, Type (0, 0), BuildingBlock: AJUNOK_clean_linker_0, # of connection points: 2
#     Edge 49, Type (0, 0), BuildingBlock: AJUNOK_clean_linker_0, # of connection points: 2
#     Edge 50, Type (0, 0), BuildingBlock: AJUNOK_clean_linker_0, # of connection points: 2
#     Edge 51, Type (0, 0), BuildingBlock: AJUNOK_clean_linker_0, # of connection points: 2
#     Edge 52, Type (0, 0), BuildingBlock: AJUNOK_clean_linker_0, # of connection points: 2
#     Edge 53, Type (0, 0), BuildingBlock: AJUNOK_clean_linker_0, # of connection points: 2
#     Edge 54, Type (0, 0), BuildingBlock: AJUNOK_clean_linker_0, # of connection points: 2
#     Edge 55, Type (0, 0), BuildingBlock: AJUNOK_clean_linker_0, # of connection points: 2
#     Edge 56, Type (0, 0), BuildingBlock: AJUNOK_clean_linker_0, # of connection points: 2
#     Edge 57, Type (0, 0), BuildingBlock: AJUNOK_clean_linker_0, # of connection points: 2
#     Edge 58, Type (0, 0), BuildingBlock: AJUNOK_clean_linker_0, # of connection points: 2
#     Edge 59, Type (0, 0), BuildingBlock: AJUNOK_clean_linker_0, # of connection points: 2
#     Edge 60, Type (0, 0), BuildingBlock: AJUNOK_clean_linker_0, # of connection points: 2
#     Edge 61, Type (0, 0), BuildingBlock: AJUNOK_clean_linker_0, # of connection points: 2
#     Edge 62, Type (0, 0), BuildingBlock: AJUNOK_clean_linker_0, # of connection points: 2
#     Edge 63, Type (0, 0), BuildingBlock: AJUNOK_clean_linker_0, # of connection points: 2
# Relax obj value: 0.166
# Max RMSD: 0.231
# Mean RMSD: 0.192
data_MOF--net-crs--node1-CUKXOW_clean_sbu_0--edge1-AJUNOK_clean_linker_0
_symmetry_space_group_name_H-M    P1
_symmetry_Int_Tables_number       1
_symmetry_cell_setting            triclinic
loop_
_symmetry_equiv_pos_as_xyz
'x, y, z'
_cell_length_a     27.463602
_cell_length_b     33.012602
_cell_length_c     36.903871
_cell_angle_alpha  98.716512
_cell_angle_beta   97.001198
_cell_angle_gamma 95.286681
loop_
_atom_site_label
_atom_site_type_symbol
_atom_site_fract_x
_atom_site_fract_y
_atom_site_fract_z
_atom_type_partial_charge
Tb0 Tb 0.0356 0.98522 0.98107 0.0
C1 C 0.06745 1.00715 0.06691 0.0
Tb2 Tb 0.98587 0.05314 0.02681 0.0
O3 O 0.07385 0.03043 0.95418 0.0
O4 O 0.05557 0.04819 0.00699 0.0
O5 O 0.06541 0.97887 0.03692 0.0
C6 C 0.96144 0.12056 0.06543 0.0
O7 O 0.04432 0.04087 0.06768 0.0
C8 C 0.93499 0.97928 0.02093 0.0
C9 C 0.95469 0.03155 0.94099 0.0
O10 O 0.95884 0.08442 0.07503 0.0
O11 O 0.97918 0.11943 0.03432 0.0
O12 O 0.92163 0.01318 0.03726 0.0
O13 O 0.97362 0.9897 0.00807 0.0
O14 O 0.95647 0.05952 0.97105 0.0
O15 O 0.97717 0.99761 0.94033 0.0
C16 C 0.05754 0.91451 0.94554 0.0
O17 O 0.08978 0.9453 0.96157 0.0
O18 O 0.01366 0.92379 0.95007 0.0
C19 C 0.07286 0.06149 0.98017 0.0
Tb20 Tb 0.97132 0.25821 0.26534 0.0
C21 C 0.07105 0.22221 0.25389 0.0
Tb22 Tb 0.04213 0.30311 0.22426 0.0
O23 O 0.92222 0.23381 0.2143 0.0
O24 O 0.99736 0.24612 0.21352 0.0
O25 O 0.0346 0.22413 0.27423 0.0
C26 C 0.09061 0.32979 0.17212 0.0
O27 O 0.07607 0.24636 0.22852 0.0
C28 C 0.05534 0.32583 0.29643 0.0
C29 C 0.9393 0.33628 0.2354 0.0
O30 O 0.10885 0.32982 0.20619 0.0
O31 O 0.04438 0.31534 0.16787 0.0
O32 O 0.09018 0.32984 0.27603 0.0
O33 O 0.01539 0.31519 0.27545 0.0
O34 O 0.97644 0.33591 0.21528 0.0
O35 O 0.93687 0.31391 0.26215 0.0
C36 C 0.92296 0.22766 0.31482 0.0
O37 O 0.90512 0.22808 0.28079 0.0
O38 O 0.96858 0.24406 0.32097 0.0
C39 C 0.95644 0.23654 0.19328 0.0
Tb40 Tb 0.73667 0.29303 0.47442 0.0
C41 C 0.71704 0.28802 0.55435 0.0
Tb42 Tb 0.80104 0.24194 0.51843 0.0
O43 O 0.66973 0.25325 0.47641 0.0
O44 O 0.73804 0.2293 0.47718 0.0
O45 O 0.71207 0.31065 0.52761 0.0
C46 C 0.83233 0.18958 0.56216 0.0
O47 O 0.74676 0.25865 0.55443 0.0
C48 C 0.84216 0.31572 0.51379 0.0
C49 C 0.81495 0.23987 0.43713 0.0
O50 O 0.80129 0.17968 0.53194 0.0
O51 O 0.84631 0.22886 0.56726 0.0
O52 O 0.86672 0.28419 0.51623 0.0
O53 O 0.79767 0.30549 0.51684 0.0
O54 O 0.82236 0.22014 0.46552 0.0
O55 O 0.78786 0.27117 0.43679 0.0
C56 C 0.7081 0.34912 0.43332 0.0
O57 O 0.6933 0.3099 0.42599 0.0
O58 O 0.73846 0.35658 0.46393 0.0
C59 C 0.69305 0.22139 0.48078 0.0
Tb60 Tb 0.81236 0.05992 0.73789 0.0
C61 C 0.84309 0.97628 0.75785 0.0
Tb62 Tb 0.75967 0.02172 0.79546 0.0
O63 O 0.88136 0.0719 0.77517 0.0
O64 O 0.81395 0.07139 0.79599 0.0
O65 O 0.84262 1.00065 0.73218 0.0
C66 C 0.73391 0.98361 0.85014 0.0
O67 O 0.8186 0.98279 0.7867 0.0
C68 C 0.71482 1.00484 0.72783 0.0
C69 C 0.72367 0.1019 0.77308 0.0
O70 O 0.71615 0.97343 0.81552 0.0
O71 O 0.76616 0.01595 0.85428 0.0
O72 O 0.69196 1.00798 0.75671 0.0
O73 O 0.76059 1.00858 0.73767 0.0
O74 O 0.72664 0.07922 0.79993 0.0
O75 O 0.75056 0.0968 0.74537 0.0
C76 C 0.83524 0.09405 0.68017 0.0
O77 O 0.85204 0.10816 0.71457 0.0
O78 O 0.80567 0.06067 0.67835 0.0
C79 C 0.86005 0.07296 0.80478 0.0
Tb80 Tb 0.48736 0.76767 0.28807 0.0
C81 C 0.58783 0.73423 0.2808 0.0
Tb82 Tb 0.54887 0.8057 0.23912 0.0
O83 O 0.48006 0.70768 0.25315 0.0
O84 O 0.4862 0.76091 0.22948 0.0
O85 O 0.55262 0.73794 0.30219 0.0
C86 C 0.59577 0.81241 0.18096 0.0
O87 O 0.59159 0.75634 0.25389 0.0
C88 C 0.55069 0.85235 0.3041 0.0
C89 C 0.44817 0.83833 0.24698 0.0
O90 O 0.61232 0.83023 0.21465 0.0
O91 O 0.55314 0.79211 0.18037 0.0
O92 O 0.55655 0.86646 0.27366 0.0
O93 O 0.54936 0.81331 0.29794 0.0
O94 O 0.48208 0.83333 0.22462 0.0
O95 O 0.44787 0.81961 0.27629 0.0
C96 C 0.42591 0.74899 0.33473 0.0
O97 O 0.41427 0.74694 0.29944 0.0
O98 O 0.47252 0.76191 0.34412 0.0
C99 C 0.48477 0.722 0.22287 0.0
Tb100 Tb 0.21805 0.80405 0.47913 0.0
C101 C 0.20269 0.80686 0.56091 0.0
Tb102 Tb 0.27767 0.75 0.52427 0.0
O103 O 0.14864 0.76662 0.48047 0.0
O104 O 0.21532 0.74051 0.48276 0.0
O105 O 0.19707 0.82642 0.53224 0.0
C106 C 0.30559 0.69487 0.56645 0.0
O107 O 0.22829 0.77475 0.56201 0.0
C108 C 0.32496 0.81934 0.51512 0.0
C109 C 0.29375 0.74766 0.44258 0.0
O110 O 0.32141 0.7339 0.57271 0.0
O111 O 0.27429 0.68697 0.53633 0.0
O112 O 0.34639 0.78651 0.51926 0.0
O113 O 0.28044 0.81326 0.51995 0.0
O114 O 0.29895 0.72768 0.4711 0.0
O115 O 0.26728 0.77926 0.44131 0.0
C116 C 0.19829 0.86417 0.44107 0.0
O117 O 0.17667 0.82659 0.43315 0.0
O118 O 0.23039 0.86763 0.47041 0.0
C119 C 0.16996 0.73387 0.48546 0.0
Tb120 Tb 0.29085 0.54186 0.72454 0.0
C121 C 0.30748 0.44994 0.73006 0.0
Tb122 Tb 0.22137 0.49303 0.76893 0.0
O123 O 0.35278 0.56159 0.7709 0.0
O124 O 0.28898 0.52896 0.77777 0.0
O125 O 0.31903 0.48236 0.71394 0.0
C126 C 0.18795 0.45228 0.81903 0.0
O127 O 0.27317 0.44891 0.75275 0.0
C128 C 0.18039 0.50442 0.70374 0.0
C129 C 0.20941 0.58525 0.76602 0.0
O130 O 0.18107 0.43916 0.78355 0.0
O131 O 0.21354 0.48834 0.8261 0.0
O132 O 0.15593 0.49854 0.73088 0.0
O133 O 0.22513 0.49907 0.71265 0.0
O134 O 0.20423 0.55543 0.78609 0.0
O135 O 0.23561 0.58293 0.73799 0.0
C136 C 0.31881 0.5828 0.67206 0.0
O137 O 0.32712 0.59602 0.7074 0.0
O138 O 0.29579 0.54571 0.66625 0.0
C139 C 0.33016 0.54495 0.79496 0.0
Tb140 Tb 0.02828 0.49419 0.4787 0.0
C141 C 0.0652 0.5196 0.5633 0.0
Tb142 Tb 0.97684 0.55807 0.51937 0.0
O143 O 0.09424 0.53744 0.48202 0.0
O144 O 0.0248 0.5584 0.47886 0.0
O145 O 0.06345 0.48986 0.53436 0.0
C146 C 0.96363 0.62739 0.56292 0.0
O147 O 0.03687 0.55001 0.56204 0.0
C148 C 0.93398 0.48269 0.515 0.0
C149 C 0.93982 0.53273 0.43476 0.0
O150 O 0.92958 0.59709 0.54956 0.0
O151 O 0.00458 0.61865 0.55129 0.0
O152 O 0.91089 0.51533 0.51774 0.0
O153 O 0.97986 0.49371 0.51913 0.0
O154 O 0.94122 0.56214 0.46389 0.0
O155 O 0.96857 0.50245 0.43552 0.0
C156 C 0.04795 0.42681 0.4356 0.0
O157 O 0.07903 0.45915 0.44872 0.0
O158 O 0.00602 0.43238 0.44717 0.0
C159 C 0.07057 0.56971 0.48365 0.0
Tb160 Tb 0.22004 0.29471 0.97082 0.0
C161 C 0.20581 0.29595 0.05245 0.0
Tb162 Tb 0.28419 0.24399 0.01402 0.0
O163 O 0.15381 0.25488 0.97627 0.0
O164 O 0.22148 0.23131 0.97323 0.0
O165 O 0.19965 0.31655 0.02446 0.0
C166 C 0.30792 0.18403 0.05136 0.0
O167 O 0.234 0.26535 0.05262 0.0
C168 C 0.32802 0.31644 0.00799 0.0
C169 C 0.29952 0.24417 0.93278 0.0
O170 O 0.32787 0.22214 0.05937 0.0
O171 O 0.27537 0.17993 0.02221 0.0
O172 O 0.35136 0.28435 0.01159 0.0
O173 O 0.28324 0.30773 0.01168 0.0
O174 O 0.30552 0.22354 0.9607 0.0
O175 O 0.27195 0.27519 0.9327 0.0
C176 C 0.18603 0.34706 0.92835 0.0
O177 O 0.17459 0.30742 0.92184 0.0
O178 O 0.21627 0.35706 0.95887 0.0
C179 C 0.17744 0.22285 0.97848 0.0
Tb180 Tb 0.27256 0.03927 0.21391 0.0
C181 C 0.30682 0.95816 0.23541 0.0
Tb182 Tb 0.22147 1.00248 0.27259 0.0
O183 O 0.3403 0.05458 0.25323 0.0
O184 O 0.27132 0.05445 0.27146 0.0
O185 O 0.30437 0.98134 0.20899 0.0
C186 C 0.20191 0.9711 0.33227 0.0
O187 O 0.28071 0.96352 0.26351 0.0
C188 C 0.17406 0.98514 0.20586 0.0
C189 C 0.18793 0.08404 0.2505 0.0
O190 O 0.23869 0.99822 0.33114 0.0
O191 O 0.17601 0.96182 0.29977 0.0
O192 O 0.15256 0.9876 0.23543 0.0
O193 O 0.22026 0.98845 0.21473 0.0
O194 O 0.19112 0.0613 0.27732 0.0
O195 O 0.21243 0.07747 0.22159 0.0
C196 C 0.29805 0.07412 0.15736 0.0
O197 O 0.26259 0.04455 0.15499 0.0
O198 O 0.3188 0.08368 0.19137 0.0
C199 C 0.31695 0.05903 0.28182 0.0
Tb200 Tb 0.46524 0.23783 0.75843 0.0
C201 C 0.57096 0.21228 0.75454 0.0
Tb202 Tb 0.52479 0.27866 0.71072 0.0
O203 O 0.46131 0.17736 0.72452 0.0
O204 O 0.46599 0.22997 0.69966 0.0
O205 O 0.53436 0.21387 0.77482 0.0
C206 C 0.57751 0.29697 0.65855 0.0
O207 O 0.57209 0.23248 0.72617 0.0
C208 C 0.52401 0.32393 0.77579 0.0
C209 C 0.42399 0.31006 0.71957 0.0
O210 O 0.58937 0.31014 0.69364 0.0
O211 O 0.53672 0.27249 0.65298 0.0
O212 O 0.5283 0.33865 0.74554 0.0
O213 O 0.52512 0.28527 0.76937 0.0
O214 O 0.45726 0.30553 0.69663 0.0
O215 O 0.42351 0.28927 0.74759 0.0
C216 C 0.41074 0.22155 0.81038 0.0
O217 O 0.3939 0.22092 0.7759 0.0
O218 O 0.45817 0.23092 0.81543 0.0
C219 C 0.46754 0.19121 0.69418 0.0
Tb220 Tb 0.97811 0.75001 0.77485 0.0
C221 C 0.07883 0.71316 0.7647 0.0
Tb222 Tb 0.05285 0.79485 0.73675 0.0
O223 O 0.93024 0.72837 0.72229 0.0
O224 O 0.00569 0.73915 0.72356 0.0
O225 O 0.04047 0.71373 0.78355 0.0
C226 C 0.09889 0.82418 0.6855 0.0
O227 O 0.08494 0.73761 0.73978 0.0
C228 C 0.06667 0.81282 0.80904 0.0
C229 C 0.95574 0.83517 0.75099 0.0
O230 O 0.11906 0.8223 0.71877 0.0
O231 O 0.05267 0.80976 0.68127 0.0
O232 O 0.10176 0.81707 0.78886 0.0
O233 O 0.02628 0.80497 0.78803 0.0
O234 O 0.99245 0.83336 0.73075 0.0
O235 O 0.94931 0.80939 0.77477 0.0
C236 C 0.92172 0.72195 0.82151 0.0
O237 O 0.90695 0.72616 0.78779 0.0
O238 O 0.96916 0.73203 0.82863 0.0
C239 C 0.96556 0.73121 0.70227 0.0
Tb240 Tb 0.7794 0.5456 0.22614 0.0
C241 C 0.80024 0.45701 0.23324 0.0
Tb242 Tb 0.7181 0.50177 0.27335 0.0
O243 O 0.84735 0.54378 0.26308 0.0
O244 O 0.78024 0.54714 0.28412 0.0
O245 O 0.80395 0.48578 0.21216 0.0
C246 C 0.69347 0.46059 0.32682 0.0
O247 O 0.77282 0.45945 0.26055 0.0
C248 C 0.6737 0.50268 0.20593 0.0
C249 C 0.69989 0.59243 0.26769 0.0
O250 O 0.68054 0.44825 0.29154 0.0
O251 O 0.71883 0.49654 0.3317 0.0
O252 O 0.65076 0.50227 0.23476 0.0
O253 O 0.71867 0.49905 0.21537 0.0
O254 O 0.69435 0.56245 0.28755 0.0
O255 O 0.72747 0.59008 0.2404 0.0
C256 C 0.80924 0.58233 0.17225 0.0
O257 O 0.82336 0.59493 0.20733 0.0
O258 O 0.77803 0.54952 0.16775 0.0
C259 C 0.82537 0.54264 0.2922 0.0
Tb260 Tb 0.73257 0.79913 0.98142 0.0
C261 C 0.711 0.79131 0.06032 0.0
Tb262 Tb 0.79067 0.74198 0.02241 0.0
O263 O 0.66219 0.76166 0.97972 0.0
O264 O 0.72818 0.73435 0.98087 0.0
O265 O 0.7101 0.81635 0.03546 0.0
C266 C 0.82021 0.6862 0.06258 0.0
O267 O 0.73495 0.7581 0.05787 0.0
C268 C 0.83751 0.81451 0.02086 0.0
C269 C 0.80646 0.74302 0.94127 0.0
O270 O 0.83012 0.72581 0.07224 0.0
O271 O 0.794 0.67816 0.03017 0.0
O272 O 0.85949 0.78142 0.02149 0.0
O273 O 0.79275 0.8061 0.0239 0.0
O274 O 0.81218 0.7221 0.96902 0.0
O275 O 0.78046 0.77511 0.94166 0.0
C276 C 0.71818 0.86443 0.94826 0.0
O277 O 0.69251 0.82839 0.93895 0.0
O278 O 0.75103 0.86342 0.97624 0.0
C279 C 0.6824 0.72791 0.98294 0.0
Tb280 Tb 0.54682 1.00002 0.52556 0.0
C281 C 0.53147 0.96466 0.44031 0.0
Tb282 Tb 0.47968 0.04128 0.47465 0.0
O283 O 0.49687 0.94641 0.53084 0.0
O284 O 0.47256 0.99009 0.5012 0.0
O285 O 0.56227 0.96846 0.47187 0.0
C286 C 0.41008 0.069 0.43099 0.0
O287 O 0.49361 0.98691 0.43687 0.0
C288 C 0.57535 0.06768 0.48143 0.0
C289 C 0.49258 0.07641 0.56029 0.0
O290 O 0.40562 0.03453 0.44378 0.0
O291 O 0.45353 0.08801 0.44384 0.0
O292 O 0.5447 0.06193 0.45103 0.0
O293 O 0.55101 0.05781 0.50631 0.0
O294 O 0.46542 0.07582 0.52771 0.0
O295 O 0.52832 0.0522 0.56392 0.0
C296 C 0.60727 0.98399 0.58153 0.0
O297 O 0.55983 0.98224 0.57887 0.0
O298 O 0.62206 0.9942 0.55142 0.0
C299 C 0.45881 0.95711 0.51208 0.0
Tb300 Tb 0.52667 0.49241 0.97502 0.0
C301 C 0.56798 0.5106 0.05907 0.0
Tb302 Tb 0.47895 0.55515 0.02309 0.0
O303 O 0.59594 0.5332 0.98339 0.0
O304 O 0.52896 0.55808 0.98363 0.0
O305 O 0.56478 0.48248 0.02855 0.0
C306 C 0.4648 0.61335 0.07952 0.0
O307 O 0.54322 0.54334 0.0598 0.0
C308 C 0.42979 0.48072 0.00848 0.0
C309 C 0.4358 0.53583 0.94034 0.0
O310 O 0.45035 0.57427 0.07504 0.0
O311 O 0.48543 0.62037 0.05084 0.0
O312 O 0.40953 0.51479 0.01384 0.0
O313 O 0.47628 0.48942 0.01415 0.0
O314 O 0.44252 0.56564 0.9697 0.0
O315 O 0.45917 0.50229 0.93996 0.0
C316 C 0.53785 0.43451 0.91743 0.0
O317 O 0.54565 0.4741 0.91952 0.0
O318 O 0.52616 0.42695 0.94911 0.0
C319 C 0.57537 0.56713 0.98888 0.0
C320 C 0.99333 0.18784 0.1033 0.0
C321 C 0.95356 0.15738 0.0901 0.0
C322 C 0.99252 0.21571 0.13573 0.0
C323 C 0.95158 0.21429 0.15518 0.0
H324 H 0.02692 0.18767 0.09063 0.0
H325 H 0.02544 0.23646 0.14695 0.0
S326 S 0.835 0.1443 0.12731 0.0
N327 N 0.87039 0.1298 0.0957 0.0
N328 N 0.86757 0.18359 0.15572 0.0
C329 C 0.90958 0.18664 0.13981 0.0
C330 C 0.91098 0.15767 0.1074 0.0
C331 C 0.88975 0.22242 0.40975 0.0
C332 C 0.83955 0.22821 0.40489 0.0
C333 C 0.9163 0.2193 0.37964 0.0
C334 C 0.89295 0.221 0.34395 0.0
H335 H 0.90931 0.22313 0.43722 0.0
H336 H 0.95573 0.21768 0.38462 0.0
S337 S 0.76021 0.22957 0.31655 0.0
N338 N 0.76623 0.2313 0.36184 0.0
N339 N 0.81568 0.22416 0.30484 0.0
C340 C 0.84179 0.2232 0.3384 0.0
C341 C 0.81513 0.22725 0.36911 0.0
C342 C 0.81473 0.10033 0.61388 0.0
C343 C 0.84198 0.11578 0.6488 0.0
C344 C 0.81429 0.12344 0.58503 0.0
C345 C 0.84109 0.16274 0.5902 0.0
H346 H 0.79177 0.07102 0.60924 0.0
H347 H 0.79088 0.11127 0.55914 0.0
S348 S 0.92329 0.21468 0.67496 0.0
N349 N 0.90018 0.17088 0.68589 0.0
N350 N 0.89937 0.21437 0.63163 0.0
C351 C 0.87102 0.17734 0.6242 0.0
C352 C 0.87145 0.15381 0.65357 0.0
C353 C 0.88907 0.06362 0.90588 0.0
C354 C 0.92919 0.03998 0.90591 0.0
C355 C 0.86638 0.07398 0.87291 0.0
C356 C 0.88394 0.06187 0.83921 0.0
H357 H 0.87505 0.07409 0.93147 0.0
H358 H 0.83543 0.09205 0.87385 0.0
S359 S 0.98761 0.9993 0.82439 0.0
N360 N 0.98483 1.00411 0.86922 0.0
N361 N 0.94328 0.02459 0.80763 0.0
C362 C 0.92398 0.03823 0.83888 0.0
C363 C 0.94628 0.02692 0.87217 0.0
C364 C 0.07929 0.01475 0.13518 0.0
C365 C 0.09612 1.00101 0.10152 0.0
C366 C 0.10479 1.00898 0.16871 0.0
C367 C 0.14851 0.98997 0.16981 0.0
H368 H 0.04571 0.02957 0.13564 0.0
H369 H 0.09037 0.02001 0.194 0.0
S370 S 0.20912 0.94979 0.08961 0.0
N371 N 0.1596 0.96816 0.07119 0.0
N372 N 0.20815 0.95782 0.1348 0.0
C373 C 0.16625 0.97651 0.13651 0.0
C374 C 0.1398 0.98184 0.10215 0.0
C375 C 0.01299 0.3683 0.38636 0.0
C376 C 0.05447 0.39471 0.40486 0.0
C377 C 0.01463 0.34421 0.3521 0.0
C378 C 0.05793 0.34537 0.33533 0.0
H379 H 0.97805 0.36811 0.39722 0.0
H380 H 0.98087 0.32631 0.33782 0.0
S381 S 0.17893 0.40407 0.37559 0.0
N382 N 0.14173 0.41693 0.40634 0.0
N383 N 0.14501 0.37092 0.3419 0.0
C384 C 0.10087 0.36885 0.35503 0.0
C385 C 0.09911 0.39372 0.3899 0.0
C386 C 0.66073 0.32742 0.59092 0.0
C387 C 0.68383 0.29142 0.58281 0.0
C388 C 0.62625 0.32961 0.61601 0.0
C389 C 0.61337 0.29551 0.63272 0.0
H390 H 0.66921 0.35392 0.57778 0.0
H391 H 0.60908 0.35769 0.62191 0.0
S392 S 0.6622 0.19431 0.62124 0.0
N393 N 0.69125 0.22107 0.59444 0.0
N394 N 0.62544 0.2254 0.64047 0.0
C395 C 0.63602 0.25961 0.62516 0.0
C396 C 0.67169 0.25751 0.60046 0.0
C397 C 0.69033 0.92224 0.86872 0.0
C398 C 0.72491 0.95764 0.8783 0.0
C399 C 0.68635 0.89319 0.8925 0.0
C400 C 0.71693 0.89853 0.92663 0.0
H401 H 0.66748 0.91602 0.84197 0.0
H402 H 0.66071 0.86554 0.88334 0.0
S403 S 0.81025 0.988 0.96602 0.0
N404 N 0.78763 0.99802 0.92523 0.0
N405 N 0.78035 0.94351 0.97007 0.0
C406 C 0.74974 0.93496 0.93741 0.0
C407 C 0.75369 0.96456 0.91319 0.0
C408 C 0.16055 0.34412 0.09187 0.0
C409 C 0.17763 0.3052 0.08367 0.0
C410 C 0.13236 0.3526 0.12088 0.0
C411 C 0.12059 0.32233 0.14221 0.0
H412 H 0.16908 0.36813 0.07587 0.0
H413 H 0.1197 0.38274 0.12657 0.0
S414 S 0.15286 0.21506 0.13059 0.0
N415 N 0.17806 0.23569 0.09834 0.0
N416 N 0.12606 0.25209 0.15292 0.0
C417 C 0.13696 0.28344 0.13418 0.0
C418 C 0.16532 0.27473 0.10485 0.0
C419 C 0.67012 0.39284 0.34616 0.0
C420 C 0.69013 0.43444 0.35581 0.0
C421 C 0.67395 0.36573 0.37199 0.0
C422 C 0.69812 0.37927 0.40826 0.0
H423 H 0.6532 0.3807 0.31807 0.0
H424 H 0.65971 0.3336 0.363 0.0
S425 S 0.75287 0.48603 0.44827 0.0
N426 N 0.73171 0.48852 0.40492 0.0
N427 N 0.73919 0.4376 0.4532 0.0
C428 C 0.71609 0.42121 0.41872 0.0
C429 C 0.71199 0.44881 0.39254 0.0
C430 C 0.61287 0.99181 0.64889 0.0
C431 C 0.63706 0.98516 0.61742 0.0
C432 C 0.63876 0.9978 0.68427 0.0
C433 C 0.68973 0.99604 0.68971 0.0
H434 H 0.57351 0.99375 0.64641 0.0
H435 H 0.6185 1.00444 0.70751 0.0
S436 S 0.76884 0.9706 0.61662 0.0
N437 N 0.71388 0.97282 0.59357 0.0
N438 N 0.7626 0.98024 0.661 0.0
C439 C 0.71415 0.98619 0.65863 0.0
C440 C 0.68776 0.98166 0.62218 0.0
C441 C 0.02536 0.85296 0.89947 0.0
C442 C 0.06622 0.88049 0.91738 0.0
C443 C 0.02718 0.82872 0.86541 0.0
C444 C 0.07014 0.8307 0.84837 0.0
H445 H 0.99038 0.8525 0.91029 0.0
H446 H 0.99353 0.81061 0.85122 0.0
S447 S 0.19039 0.89119 0.88792 0.0
N448 N 0.15313 0.9038 0.91871 0.0
N449 N 0.15696 0.85717 0.85464 0.0
C450 C 0.11301 0.85449 0.86798 0.0
C451 C 0.11099 0.87964 0.90267 0.0
C452 C 0.09054 0.13799 0.00327 0.0
C453 C 0.10244 0.10209 0.98207 0.0
C454 C 0.11511 0.17702 0.00214 0.0
C455 C 0.15402 0.18133 0.98102 0.0
H456 H 0.06139 0.13616 0.02017 0.0
H457 H 0.10366 0.20403 0.018 0.0
S458 S 0.20452 0.09664 0.9246 0.0
N459 N 0.15857 0.07332 0.94142 0.0
N460 N 0.20621 0.14622 0.94095 0.0
C461 C 0.16844 0.14553 0.96154 0.0
C462 C 0.14236 0.10603 0.96167 0.0
C463 C 0.68575 0.66415 0.25817 0.0
C464 C 0.6739 0.62987 0.27526 0.0
C465 C 0.65956 0.69865 0.26199 0.0
C466 C 0.62015 0.70058 0.28305 0.0
H467 H 0.71497 0.66419 0.24092 0.0
H468 H 0.6695 0.72348 0.24724 0.0
S469 S 0.5759 0.62014 0.3355 0.0
N470 N 0.62149 0.60098 0.3158 0.0
N471 N 0.57212 0.66575 0.32289 0.0
C472 C 0.60917 0.66731 0.30168 0.0
C473 C 0.63599 0.63202 0.29778 0.0
C474 C 0.38922 0.85384 0.48482 0.0
C475 C 0.34983 0.85722 0.50564 0.0
C476 C 0.42048 0.88872 0.48162 0.0
C477 C 0.41389 0.92816 0.49953 0.0
H478 H 0.39783 0.82375 0.4728 0.0
H479 H 0.45308 0.88423 0.46827 0.0
S480 S 0.31248 0.9542 0.55326 0.0
N481 N 0.3022 0.9036 0.54065 0.0
N482 N 0.36218 0.9692 0.53545 0.0
C483 C 0.37198 0.93246 0.51744 0.0
C484 C 0.33963 0.89688 0.52038 0.0
C485 C 0.10205 0.6467 0.78363 0.0
C486 C 0.11475 0.68286 0.76938 0.0
C487 C 0.13422 0.61603 0.78466 0.0
C488 C 0.18008 0.62054 0.77146 0.0
H489 H 0.06628 0.64124 0.79263 0.0
H490 H 0.12192 0.58776 0.79404 0.0
S491 S 0.23413 0.71228 0.7371 0.0
N492 N 0.17902 0.72344 0.746 0.0
N493 N 0.23889 0.66594 0.74781 0.0
C494 C 0.1944 0.65765 0.75937 0.0
C495 C 0.16188 0.68876 0.75834 0.0
C496 C 0.91391 0.36575 0.50766 0.0
C497 C 0.86496 0.35855 0.51487 0.0
C498 C 0.93645 0.40599 0.50859 0.0
C499 C 0.91051 0.44047 0.51582 0.0
H500 H 0.93505 0.3401 0.50126 0.0
H501 H 0.9744 0.41 0.5035 0.0
S502 S 0.78416 0.43877 0.5422 0.0
N503 N 0.79361 0.38975 0.53431 0.0
N504 N 0.83463 0.46489 0.53384 0.0
C505 C 0.86199 0.43373 0.52411 0.0
C506 C 0.83952 0.3929 0.5241 0.0
C507 C 0.33894 0.89834 0.26052 0.0
C508 C 0.34081 0.9257 0.23484 0.0
C509 C 0.373 0.8697 0.26339 0.0
C510 C 0.41064 0.86704 0.24075 0.0
H511 H 0.31138 0.89932 0.27919 0.0
H512 H 0.37003 0.84994 0.28411 0.0
S513 S 0.43037 0.92999 0.16737 0.0
N514 N 0.38226 0.9471 0.18502 0.0
N515 N 0.44647 0.8931 0.19043 0.0
C516 C 0.41211 0.89322 0.21401 0.0
C517 C 0.37719 0.92255 0.21104 0.0
C518 C 0.32696 0.38066 0.74411 0.0
C519 C 0.3351 0.41308 0.72394 0.0
C520 C 0.35429 0.34678 0.74115 0.0
C521 C 0.39111 0.34347 0.71778 0.0
H522 H 0.29994 0.38168 0.76322 0.0
H523 H 0.34714 0.32345 0.75813 0.0
S524 S 0.42555 0.41861 0.65718 0.0
N525 N 0.38156 0.43859 0.6783 0.0
N526 N 0.43294 0.375 0.6728 0.0
C527 C 0.39865 0.3749 0.69643 0.0
C528 C 0.37079 0.40963 0.69953 0.0
C529 C 0.20254 0.8204 0.62854 0.0
C530 C 0.17796 0.81991 0.59283 0.0
C531 C 0.17735 0.82583 0.65923 0.0
C532 C 0.12659 0.82984 0.65487 0.0
H533 H 0.24099 0.81493 0.6326 0.0
H534 H 0.197 0.82389 0.68611 0.0
S535 S 0.04679 0.83431 0.56735 0.0
N536 N 0.10161 0.82749 0.5549 0.0
N537 N 0.05357 0.8366 0.61274 0.0
C538 C 0.10234 0.832 0.61958 0.0
C539 C 0.12828 0.82725 0.58839 0.0
C540 C 0.16091 0.91367 0.35791 0.0
C541 C 0.19593 0.94863 0.36319 0.0
C542 C 0.16009 0.88746 0.38433 0.0
C543 C 0.19401 0.8956 0.41694 0.0
H544 H 0.13551 0.90535 0.33241 0.0
H545 H 0.1341 0.85977 0.37843 0.0
S546 S 0.28927 0.98586 0.44579 0.0
N547 N 0.26254 0.99197 0.40473 0.0
N548 N 0.26062 0.94303 0.45469 0.0
C549 C 0.22703 0.93195 0.42368 0.0
C550 C 0.22809 0.95844 0.39666 0.0
C551 C 0.00488 0.70892 0.64652 0.0
C552 C 0.96173 0.71154 0.66327 0.0
C553 C 0.00421 0.68398 0.61225 0.0
C554 C 0.96048 0.66055 0.59375 0.0
H555 H 0.03997 0.72445 0.6608 0.0
H556 H 0.03888 0.68113 0.60137 0.0
S557 S 0.83608 0.66216 0.62282 0.0
N558 N 0.87284 0.69313 0.6565 0.0
N559 N 0.87186 0.64556 0.59217 0.0
C560 C 0.91635 0.66552 0.60866 0.0
C561 C 0.91693 0.69124 0.64348 0.0
C562 C 0.37469 0.73549 0.42283 0.0
C563 C 0.32434 0.739 0.41323 0.0
C564 C 0.40746 0.73742 0.3968 0.0
C565 C 0.39049 0.74199 0.36036 0.0
H566 H 0.38942 0.73413 0.45118 0.0
H567 H 0.44645 0.73668 0.40555 0.0
S568 S 0.26099 0.74797 0.3208 0.0
N569 N 0.25834 0.74432 0.36466 0.0
N570 N 0.31959 0.74659 0.3152 0.0
C571 C 0.33967 0.74271 0.34987 0.0
C572 C 0.30659 0.74157 0.37652 0.0
C573 C 0.27655 0.08979 0.0939 0.0
C574 C 0.3075 0.09817 0.12797 0.0
C575 C 0.27924 0.11659 0.06805 0.0
C576 C 0.3128 0.15268 0.07556 0.0
H577 H 0.24848 0.06347 0.08786 0.0
H578 H 0.25304 0.11004 0.04288 0.0
S579 S 0.40649 0.1854 0.15854 0.0
N580 N 0.37639 0.14255 0.16619 0.0
N581 N 0.38101 0.19311 0.11762 0.0
C582 C 0.34619 0.15989 0.10839 0.0
C583 C 0.34363 0.13253 0.13464 0.0
C584 C 0.88011 0.71963 0.91484 0.0
C585 C 0.83229 0.73159 0.9093 0.0
C586 C 0.90819 0.71413 0.88561 0.0
C587 C 0.88881 0.71947 0.84986 0.0
H588 H 0.89696 0.71672 0.9423 0.0
H589 H 0.94592 0.70727 0.89134 0.0
S590 S 0.76309 0.74589 0.82036 0.0
N591 N 0.76527 0.74546 0.8652 0.0
N592 N 0.81732 0.73393 0.8099 0.0
C593 C 0.83978 0.7287 0.84353 0.0
C594 C 0.81168 0.73517 0.87342 0.0
C595 C 0.29814 0.59655 0.60766 0.0
C596 C 0.32357 0.60938 0.64361 0.0
C597 C 0.29432 0.62405 0.58223 0.0
C598 C 0.31605 0.66519 0.59182 0.0
H599 H 0.27895 0.56571 0.59968 0.0
H600 H 0.27262 0.61337 0.55536 0.0
S601 S 0.39109 0.71269 0.68117 0.0
N602 N 0.37408 0.66493 0.68656 0.0
N603 N 0.36722 0.71645 0.63869 0.0
C604 C 0.344 0.67768 0.62691 0.0
C605 C 0.34768 0.64977 0.65285 0.0
C606 C 0.39035 0.06057 0.32808 0.0
C607 C 0.34042 0.06634 0.32047 0.0
C608 C 0.41295 0.06363 0.36446 0.0
C609 C 0.38625 0.07228 0.39427 0.0
H610 H 0.41175 0.05234 0.30582 0.0
H611 H 0.45111 0.05748 0.36927 0.0
S612 S 0.25676 0.09544 0.38951 0.0
N613 N 0.26651 0.08606 0.34586 0.0
N614 N 0.30901 0.08967 0.4146 0.0
C615 C 0.33703 0.07976 0.38736 0.0
C616 C 0.31409 0.07746 0.35023 0.0
C617 C 0.90717 0.86194 0.00707 0.0
C618 C 0.86232 0.85648 0.02145 0.0
C619 C 0.93075 0.90163 0.00695 0.0
C620 C 0.91019 0.93725 0.02093 0.0
H621 H 0.92412 0.83534 0.99567 0.0
H622 H 0.96561 0.90428 -0.00345 0.0
S623 S 0.79638 0.93941 0.06604 0.0
N624 N 0.80061 0.88991 0.05317 0.0
N625 N 0.84428 0.96411 0.05263 0.0
C626 C 0.86621 0.93201 0.03661 0.0
C627 C 0.84233 0.89176 0.03682 0.0
C628 C 0.68293 0.14374 0.47067 0.0
C629 C 0.66843 0.18149 0.48653 0.0
C630 C 0.65421 0.10612 0.47093 0.0
C631 C 0.61139 0.10509 0.48837 0.0
H632 H 0.71479 0.14347 0.45602 0.0
H633 H 0.66443 0.0779 0.45621 0.0
S634 S 0.5605 0.19519 0.53682 0.0
N635 N 0.60982 0.21524 0.52153 0.0
N636 N 0.55786 0.14486 0.52383 0.0
C637 C 0.59858 0.14244 0.50638 0.0
C638 C 0.62665 0.18058 0.50503 0.0
C639 C 0.87622 0.42893 0.21395 0.0
C640 C 0.83181 0.4233 0.22899 0.0
C641 C 0.91032 0.39987 0.21469 0.0
C642 C 0.90103 0.36431 0.2305 0.0
H643 H 0.88584 0.45684 0.20306 0.0
H644 H 0.94494 0.40619 0.20424 0.0
S645 S 0.78651 0.33206 0.26803 0.0
N646 N 0.77792 0.37739 0.25623 0.0
N647 N 0.84144 0.32261 0.25737 0.0
C648 C 0.85528 0.35712 0.24344 0.0
C649 C 0.82081 0.38668 0.24277 0.0
C650 C 0.1455 0.61853 0.48398 0.0
C651 C 0.09415 0.61203 0.48394 0.0
C652 C 0.16947 0.6579 0.4841 0.0
C653 C 0.1434 0.69265 0.48541 0.0
H654 H 0.16749 0.59288 0.48341 0.0
H655 H 0.20864 0.66091 0.48257 0.0
S656 S 0.00796 0.69225 0.48403 0.0
N657 N 0.01739 0.64341 0.48273 0.0
N658 N 0.06295 0.71791 0.48571 0.0
C659 C 0.09195 0.68667 0.48527 0.0
C660 C 0.06723 0.64627 0.48395 0.0
C661 C 0.68655 0.15849 0.7451 0.0
C662 C 0.68668 0.13224 0.77185 0.0
C663 C 0.64978 0.18471 0.74049 0.0
C664 C 0.61117 0.18604 0.76236 0.0
H665 H 0.71467 0.15844 0.72692 0.0
H666 H 0.65142 0.20359 0.71899 0.0
S667 S 0.59498 0.12469 0.83744 0.0
N668 N 0.64531 0.11017 0.82144 0.0
N669 N 0.57624 0.15949 0.81278 0.0
C670 C 0.61138 0.16076 0.78992 0.0
C671 C 0.64905 0.13395 0.79467 0.0
C672 C 0.84574 0.64505 0.15162 0.0
C673 C 0.82051 0.60512 0.14258 0.0
C674 C 0.84879 0.67036 0.12467 0.0
C675 C 0.8268 0.65638 0.08795 0.0
H676 H 0.86082 0.65769 0.18002 0.0
H677 H 0.866 0.7018 0.13315 0.0
S678 S 0.7633 0.55199 0.04921 0.0
N679 N 0.77836 0.55097 0.09373 0.0
N680 N 0.7842 0.59858 0.04297 0.0
C681 C 0.8051 0.61536 0.07797 0.0
C682 C 0.80187 0.58966 0.10541 0.0
C683 C 0.92262 0.51736 0.36537 0.0
C684 C 0.90838 0.53489 0.39917 0.0
C685 C 0.89511 0.51981 0.33124 0.0
C686 C 0.85143 0.53904 0.32924 0.0
H687 H 0.95604 0.50232 0.36515 0.0
H688 H 0.90828 0.50644 0.30608 0.0
S689 S 0.79626 0.58819 0.40931 0.0
N690 N 0.84661 0.57143 0.42831 0.0
N691 N 0.79435 0.57504 0.36409 0.0
C692 C 0.83583 0.55574 0.3627 0.0
C693 C 0.86446 0.554 0.39762 0.0
C694 C 0.16514 0.48998 0.63379 0.0
C695 C 0.15641 0.51232 0.66754 0.0
C696 C 0.13584 0.49258 0.60012 0.0
C697 C 0.09741 0.51824 0.5989 0.0
H698 H 0.19322 0.46899 0.6336 0.0
H699 H 0.14306 0.47399 0.57496 0.0
S700 S 0.06361 0.58625 0.67991 0.0
N701 N 0.10887 0.5625 0.69758 0.0
N702 N 0.05524 0.56869 0.63503 0.0
C703 C 0.09024 0.54218 0.63254 0.0
C704 C 0.11932 0.53886 0.66662 0.0
C705 C 0.65796 0.84037 0.14416 0.0
C706 C 0.62416 0.80798 0.14966 0.0
C707 C 0.6852 0.83551 0.11423 0.0
C708 C 0.68038 0.7977 0.09004 0.0
H709 H 0.66302 0.86956 0.16284 0.0
H710 H 0.71103 0.86093 0.11056 0.0
S711 S 0.59771 0.7034 0.09312 0.0
N712 N 0.58724 0.73713 0.12836 0.0
N713 N 0.63985 0.72765 0.07336 0.0
C714 C 0.647 0.76519 0.09547 0.0
C715 C 0.61846 0.77042 0.12505 0.0
C716 C 0.60391 0.52048 0.16339 0.0
C717 C 0.64885 0.50343 0.16764 0.0
C718 C 0.57865 0.52194 0.12826 0.0
C719 C 0.59639 0.50582 0.09532 0.0
H720 H 0.58819 0.53335 0.18755 0.0
H721 H 0.54439 0.53575 0.12696 0.0
S722 S 0.71151 0.45578 0.09086 0.0
N723 N 0.70981 0.46892 0.13571 0.0
N724 N 0.66167 0.47109 0.06952 0.0
C725 C 0.6409 0.48783 0.09901 0.0
C726 C 0.6673 0.48693 0.13511 0.0
C727 C 0.42688 0.40321 0.00096 0.0
C728 C 0.40286 0.43899 0.0072 0.0
C729 C 0.40221 0.36378 0.00081 0.0
C730 C 0.35269 0.35853 0.0074 0.0
H731 H 0.46512 0.40565 0.99632 0.0
H732 H 0.42227 0.3372 0.9957 0.0
S733 S 0.27398 0.44242 0.02773 0.0
N734 N 0.32663 0.46642 0.02079 0.0
N735 N 0.2816 0.39297 0.02246 0.0
C736 C 0.32852 0.39409 0.01423 0.0
C737 C 0.35324 0.4341 0.01364 0.0
C738 C 0.13026 0.17802 0.22657 0.0
C739 C 0.10246 0.18829 0.25546 0.0
C740 C 0.15748 0.14432 0.22536 0.0
C741 C 0.15844 0.11946 0.25318 0.0
H742 H 0.13032 0.19558 0.20413 0.0
H743 H 0.1777 0.13778 0.20211 0.0
S744 S 0.09407 0.13453 0.33629 0.0
N745 N 0.07889 0.1719 0.31354 0.0
N746 N 0.1304 0.10839 0.31142 0.0
C747 C 0.1316 0.1298 0.28278 0.0
C748 C 0.10357 0.16423 0.2839 0.0
C749 C 0.19568 0.41674 0.91133 0.0
C750 C 0.17603 0.37513 0.90175 0.0
C751 C 0.19623 0.44243 0.88458 0.0
C752 C 0.17734 0.42726 0.84739 0.0
H753 H 0.21321 0.42902 0.93925 0.0
H754 H 0.21418 0.47368 0.89277 0.0
S755 S 0.11526 0.32229 0.80926 0.0
N756 N 0.13208 0.3211 0.85357 0.0
N757 N 0.13338 0.36954 0.80305 0.0
C758 C 0.15414 0.38664 0.83799 0.0
C759 C 0.1534 0.36048 0.86531 0.0
C760 C 0.30598 0.2393 0.86564 0.0
C761 C 0.32621 0.23351 0.90109 0.0
C762 C 0.33249 0.23265 0.83562 0.0
C763 C 0.38044 0.22092 0.8404 0.0
H764 H 0.26977 0.24971 0.86117 0.0
H765 H 0.3163 0.23873 0.80899 0.0
S766 S 0.44906 0.1998 0.9271 0.0
N767 N 0.39597 0.21325 0.93885 0.0
N768 N 0.44624 0.20179 0.88246 0.0
C769 C 0.40046 0.21373 0.87534 0.0
C770 C 0.37317 0.21975 0.90575 0.0
C771 C 0.40643 0.57597 0.89057 0.0
C772 C 0.40293 0.53945 0.90589 0.0
C773 C 0.38195 0.57755 0.85496 0.0
C774 C 0.35173 0.54316 0.83375 0.0
H775 H 0.43024 0.60287 0.90537 0.0
H776 H 0.38725 0.60586 0.84372 0.0
S777 S 0.32863 0.44068 0.86183 0.0
N778 N 0.36606 0.46823 0.89722 0.0
N779 N 0.31903 0.47181 0.83125 0.0
C780 C 0.34641 0.507 0.84936 0.0
C781 C 0.37228 0.50502 0.88514 0.0
C782 C 0.67881 0.65167 0.98537 0.0
C783 C 0.65456 0.68738 0.98505 0.0
C784 C 0.65311 0.61333 0.9875 0.0
C785 C 0.60177 0.60878 0.98866 0.0
H786 H 0.71784 0.65312 0.9834 0.0
H787 H 0.67366 0.58686 0.98763 0.0
S788 S 0.52036 0.69242 0.98748 0.0
N789 N 0.57587 0.71555 0.9861 0.0
N790 N 0.52756 0.64349 0.9885 0.0
C791 C 0.57698 0.64416 0.98799 0.0
C792 C 0.60328 0.68334 0.98645 0.0
C793 C 0.9378 0.90337 0.73307 0.0
C794 C 0.92476 0.86967 0.75065 0.0
C795 C 0.91068 0.93752 0.7347 0.0
C796 C 0.8698 0.93926 0.75416 0.0
H797 H 0.96981 0.90389 0.71859 0.0
H798 H 0.92264 0.96315 0.72152 0.0
S799 S 0.81697 0.85722 0.80155 0.0
N800 N 0.86556 0.83903 0.78563 0.0
N801 N 0.81514 0.9029 0.78885 0.0
C802 C 0.85537 0.90516 0.77075 0.0
C803 C 0.88268 0.87046 0.76895 0.0
C804 C 0.46019 0.17191 0.62368 0.0
C805 C 0.47573 0.16394 0.65954 0.0
C806 C 0.46463 0.14339 0.59161 0.0
C807 C 0.48565 0.10617 0.59412 0.0
H808 H 0.44349 0.19982 0.62038 0.0
H809 H 0.452 0.15078 0.56468 0.0
S810 S 0.53473 0.07234 0.68188 0.0
N811 N 0.51459 0.11692 0.6954 0.0
N812 N 0.52328 0.06423 0.63627 0.0
C813 C 0.5022 0.09866 0.63001 0.0
C814 C 0.49719 0.12724 0.6623 0.0
C815 C 0.53754 0.33659 0.84621 0.0
C816 C 0.52404 0.35035 0.81239 0.0
C817 C 0.54129 0.36344 0.88049 0.0
C818 C 0.53209 0.40494 0.88194 0.0
H819 H 0.54636 0.30527 0.84617 0.0
H820 H 0.55262 0.35198 0.90583 0.0
S821 S 0.48703 0.45377 0.80176 0.0
N822 N 0.4955 0.40669 0.7832 0.0
N823 N 0.50306 0.45667 0.84673 0.0
C824 C 0.51628 0.41821 0.84838 0.0
C825 C 0.51212 0.39105 0.81387 0.0
C826 C 0.53466 0.91992 0.33907 0.0
C827 C 0.54648 0.87938 0.33988 0.0
C828 C 0.53035 0.94695 0.37161 0.0
C829 C 0.53887 0.93524 0.40678 0.0
H830 H 0.52797 0.93088 0.31288 0.0
H831 H 0.52051 0.97755 0.36915 0.0
S832 S 0.56969 0.83226 0.4246 0.0
N833 N 0.56539 0.8285 0.37911 0.0
N834 N 0.5587 0.87968 0.44034 0.0
C835 C 0.55097 0.89485 0.40818 0.0
C836 C 0.55431 0.86687 0.37478 0.0
C837 C 0.4696 0.68466 0.11781 0.0
C838 C 0.46893 0.64161 0.11556 0.0
C839 C 0.47437 0.71091 0.15243 0.0
C840 C 0.48029 0.69511 0.18595 0.0
H841 H 0.46575 0.69804 0.09271 0.0
H842 H 0.47303 0.74362 0.15285 0.0
S843 S 0.48503 0.58486 0.19498 0.0
N844 N 0.4759 0.58475 0.14996 0.0
N845 N 0.48757 0.6336 0.21423 0.0
C846 C 0.48084 0.6522 0.18381 0.0
C847 C 0.47456 0.62562 0.14886 0.0
loop_
_geom_bond_atom_site_label_1
_geom_bond_atom_site_label_2
_geom_bond_distance
_geom_bond_site_symmetry_2
_ccdc_geom_bond_type
Tb0 O3 2.453 1_565 S
Tb0 O4 2.596 1_566 S
Tb0 O5 2.374 1_556 S
Tb0 O13 2.343 1_455 S
Tb0 O15 2.353 1_465 S
Tb0 O17 2.427 . S
Tb0 O18 2.513 . S
C1 O5 1.251 . S
C1 O7 1.263 1_565 S
Tb2 O4 2.343 1_655 S
Tb2 O7 2.353 1_655 S
Tb2 O10 2.427 . S
Tb2 O11 2.513 . S
Tb2 O12 2.453 1_545 S
Tb2 O13 2.596 1_544 S
Tb2 O14 2.374 1_554 S
O3 Tb0 2.453 1_545 S
O3 C19 1.245 1_556 S
O4 Tb0 2.596 1_544 S
O4 Tb2 2.343 1_455 S
O4 C19 1.259 . S
O5 Tb0 2.374 1_554 S
O5 C1 1.251 . S
C6 O10 1.275 . S
C6 O11 1.246 . S
O7 C1 1.263 1_545 S
O7 Tb2 2.353 1_455 S
C8 O12 1.245 . S
C8 O13 1.259 1_554 S
C9 O14 1.250 . S
C9 O15 1.263 . S
O10 Tb2 2.427 . S
O10 C6 1.275 . S
O11 Tb2 2.513 . S
O11 C6 1.246 . S
O12 Tb2 2.453 1_565 S
O12 C8 1.245 . S
O13 Tb0 2.343 1_655 S
O13 Tb2 2.596 1_566 S
O13 C8 1.259 1_556 S
O14 Tb2 2.374 1_556 S
O14 C9 1.250 . S
O15 Tb0 2.353 1_645 S
O15 C9 1.263 . S
C16 O17 1.275 . S
C16 O18 1.246 . S
O17 Tb0 2.427 . S
O17 C16 1.275 . S
O18 Tb0 2.513 . S
O18 C16 1.246 . S
C19 O3 1.245 1_554 S
C19 O4 1.259 . S
Tb20 O23 2.453 . S
Tb20 O24 2.596 1_655 S
Tb20 O25 2.374 1_655 S
Tb20 O33 2.343 1_655 S
Tb20 O35 2.353 . S
Tb20 O37 2.427 . S
Tb20 O38 2.513 . S
C21 O25 1.251 . S
C21 O27 1.263 . S
Tb22 O24 2.343 . S
Tb22 O27 2.353 . S
Tb22 O30 2.427 . S
Tb22 O31 2.513 . S
Tb22 O32 2.453 . S
Tb22 O33 2.596 . S
Tb22 O34 2.374 1_455 S
O23 Tb20 2.453 . S
O23 C39 1.245 . S
O24 Tb20 2.596 1_455 S
O24 Tb22 2.343 . S
O24 C39 1.259 1_455 S
O25 Tb20 2.374 1_455 S
O25 C21 1.251 . S
C26 O30 1.275 . S
C26 O31 1.246 . S
O27 C21 1.263 . S
O27 Tb22 2.353 . S
C28 O32 1.245 . S
C28 O33 1.259 . S
C29 O34 1.250 . S
C29 O35 1.263 . S
O30 Tb22 2.427 . S
O30 C26 1.275 . S
O31 Tb22 2.513 . S
O31 C26 1.246 . S
O32 Tb22 2.453 . S
O32 C28 1.245 . S
O33 Tb20 2.343 1_455 S
O33 Tb22 2.596 . S
O33 C28 1.259 . S
O34 Tb22 2.374 1_655 S
O34 C29 1.250 . S
O35 Tb20 2.353 . S
O35 C29 1.263 . S
C36 O37 1.275 . S
C36 O38 1.246 . S
O37 Tb20 2.427 . S
O37 C36 1.275 . S
O38 Tb20 2.513 . S
O38 C36 1.246 . S
C39 O23 1.245 . S
C39 O24 1.259 1_655 S
Tb40 O43 2.453 . S
Tb40 O44 2.596 . S
Tb40 O45 2.374 . S
Tb40 O53 2.343 . S
Tb40 O55 2.353 . S
Tb40 O57 2.427 . S
Tb40 O58 2.513 . S
C41 O45 1.251 . S
C41 O47 1.263 . S
Tb42 O44 2.343 . S
Tb42 O47 2.353 . S
Tb42 O50 2.427 . S
Tb42 O51 2.513 . S
Tb42 O52 2.453 . S
Tb42 O53 2.596 . S
Tb42 O54 2.374 . S
O43 Tb40 2.453 . S
O43 C59 1.245 . S
O44 Tb40 2.596 . S
O44 Tb42 2.343 . S
O44 C59 1.259 . S
O45 Tb40 2.374 . S
O45 C41 1.251 . S
C46 O50 1.275 . S
C46 O51 1.246 . S
O47 C41 1.263 . S
O47 Tb42 2.353 . S
C48 O52 1.245 . S
C48 O53 1.259 . S
C49 O54 1.250 . S
C49 O55 1.263 . S
O50 Tb42 2.427 . S
O50 C46 1.275 . S
O51 Tb42 2.513 . S
O51 C46 1.246 . S
O52 Tb42 2.453 . S
O52 C48 1.245 . S
O53 Tb40 2.343 . S
O53 Tb42 2.596 . S
O53 C48 1.259 . S
O54 Tb42 2.374 . S
O54 C49 1.250 . S
O55 Tb40 2.353 . S
O55 C49 1.263 . S
C56 O57 1.275 . S
C56 O58 1.246 . S
O57 Tb40 2.427 . S
O57 C56 1.275 . S
O58 Tb40 2.513 . S
O58 C56 1.246 . S
C59 O43 1.245 . S
C59 O44 1.259 . S
Tb60 O63 2.453 . S
Tb60 O64 2.596 . S
Tb60 O65 2.374 . S
Tb60 O73 2.343 . S
Tb60 O75 2.353 . S
Tb60 O77 2.427 . S
Tb60 O78 2.513 . S
C61 O65 1.251 1_565 S
C61 O67 1.263 . S
Tb62 O64 2.343 1_565 S
Tb62 O67 2.353 . S
Tb62 O70 2.427 . S
Tb62 O71 2.513 . S
Tb62 O72 2.453 . S
Tb62 O73 2.596 1_565 S
Tb62 O74 2.374 1_565 S
O63 Tb60 2.453 . S
O63 C79 1.245 . S
O64 Tb60 2.596 . S
O64 Tb62 2.343 1_545 S
O64 C79 1.259 . S
O65 Tb60 2.374 . S
O65 C61 1.251 1_545 S
C66 O70 1.275 . S
C66 O71 1.246 . S
O67 C61 1.263 . S
O67 Tb62 2.353 . S
C68 O72 1.245 1_545 S
C68 O73 1.259 . S
C69 O74 1.250 . S
C69 O75 1.263 . S
O70 Tb62 2.427 . S
O70 C66 1.275 . S
O71 Tb62 2.513 . S
O71 C66 1.246 . S
O72 Tb62 2.453 . S
O72 C68 1.245 1_565 S
O73 Tb60 2.343 . S
O73 Tb62 2.596 1_545 S
O73 C68 1.259 . S
O74 Tb62 2.374 1_545 S
O74 C69 1.250 . S
O75 Tb60 2.353 . S
O75 C69 1.263 . S
C76 O77 1.275 . S
C76 O78 1.246 . S
O77 Tb60 2.427 . S
O77 C76 1.275 . S
O78 Tb60 2.513 . S
O78 C76 1.246 . S
C79 O63 1.245 . S
C79 O64 1.259 . S
Tb80 O83 2.453 . S
Tb80 O84 2.596 . S
Tb80 O85 2.374 . S
Tb80 O93 2.343 . S
Tb80 O95 2.353 . S
Tb80 O97 2.427 . S
Tb80 O98 2.513 . S
C81 O85 1.251 . S
C81 O87 1.263 . S
Tb82 O84 2.343 . S
Tb82 O87 2.353 . S
Tb82 O90 2.427 . S
Tb82 O91 2.513 . S
Tb82 O92 2.453 . S
Tb82 O93 2.596 . S
Tb82 O94 2.374 . S
O83 Tb80 2.453 . S
O83 C99 1.245 . S
O84 Tb80 2.596 . S
O84 Tb82 2.343 . S
O84 C99 1.259 . S
O85 Tb80 2.374 . S
O85 C81 1.251 . S
C86 O90 1.275 . S
C86 O91 1.246 . S
O87 C81 1.263 . S
O87 Tb82 2.353 . S
C88 O92 1.245 . S
C88 O93 1.259 . S
C89 O94 1.250 . S
C89 O95 1.263 . S
O90 Tb82 2.427 . S
O90 C86 1.275 . S
O91 Tb82 2.513 . S
O91 C86 1.246 . S
O92 Tb82 2.453 . S
O92 C88 1.245 . S
O93 Tb80 2.343 . S
O93 Tb82 2.596 . S
O93 C88 1.259 . S
O94 Tb82 2.374 . S
O94 C89 1.250 . S
O95 Tb80 2.353 . S
O95 C89 1.263 . S
C96 O97 1.275 . S
C96 O98 1.246 . S
O97 Tb80 2.427 . S
O97 C96 1.275 . S
O98 Tb80 2.513 . S
O98 C96 1.246 . S
C99 O83 1.245 . S
C99 O84 1.259 . S
Tb100 O103 2.453 . S
Tb100 O104 2.596 . S
Tb100 O105 2.374 . S
Tb100 O113 2.343 . S
Tb100 O115 2.353 . S
Tb100 O117 2.427 . S
Tb100 O118 2.513 . S
C101 O105 1.251 . S
C101 O107 1.263 . S
Tb102 O104 2.343 . S
Tb102 O107 2.353 . S
Tb102 O110 2.427 . S
Tb102 O111 2.513 . S
Tb102 O112 2.453 . S
Tb102 O113 2.596 . S
Tb102 O114 2.374 . S
O103 Tb100 2.453 . S
O103 C119 1.245 . S
O104 Tb100 2.596 . S
O104 Tb102 2.343 . S
O104 C119 1.259 . S
O105 Tb100 2.374 . S
O105 C101 1.251 . S
C106 O110 1.275 . S
C106 O111 1.246 . S
O107 C101 1.263 . S
O107 Tb102 2.353 . S
C108 O112 1.245 . S
C108 O113 1.259 . S
C109 O114 1.250 . S
C109 O115 1.263 . S
O110 Tb102 2.427 . S
O110 C106 1.275 . S
O111 Tb102 2.513 . S
O111 C106 1.246 . S
O112 Tb102 2.453 . S
O112 C108 1.245 . S
O113 Tb100 2.343 . S
O113 Tb102 2.596 . S
O113 C108 1.259 . S
O114 Tb102 2.374 . S
O114 C109 1.250 . S
O115 Tb100 2.353 . S
O115 C109 1.263 . S
C116 O117 1.275 . S
C116 O118 1.246 . S
O117 Tb100 2.427 . S
O117 C116 1.275 . S
O118 Tb100 2.513 . S
O118 C116 1.246 . S
C119 O103 1.245 . S
C119 O104 1.259 . S
Tb120 O123 2.453 . S
Tb120 O124 2.596 . S
Tb120 O125 2.374 . S
Tb120 O133 2.343 . S
Tb120 O135 2.353 . S
Tb120 O137 2.427 . S
Tb120 O138 2.513 . S
C121 O125 1.251 . S
C121 O127 1.263 . S
Tb122 O124 2.343 . S
Tb122 O127 2.353 . S
Tb122 O130 2.427 . S
Tb122 O131 2.513 . S
Tb122 O132 2.453 . S
Tb122 O133 2.596 . S
Tb122 O134 2.374 . S
O123 Tb120 2.453 . S
O123 C139 1.245 . S
O124 Tb120 2.596 . S
O124 Tb122 2.343 . S
O124 C139 1.259 . S
O125 Tb120 2.374 . S
O125 C121 1.251 . S
C126 O130 1.275 . S
C126 O131 1.246 . S
O127 C121 1.263 . S
O127 Tb122 2.353 . S
C128 O132 1.245 . S
C128 O133 1.259 . S
C129 O134 1.250 . S
C129 O135 1.263 . S
O130 Tb122 2.427 . S
O130 C126 1.275 . S
O131 Tb122 2.513 . S
O131 C126 1.246 . S
O132 Tb122 2.453 . S
O132 C128 1.245 . S
O133 Tb120 2.343 . S
O133 Tb122 2.596 . S
O133 C128 1.259 . S
O134 Tb122 2.374 . S
O134 C129 1.250 . S
O135 Tb120 2.353 . S
O135 C129 1.263 . S
C136 O137 1.275 . S
C136 O138 1.246 . S
O137 Tb120 2.427 . S
O137 C136 1.275 . S
O138 Tb120 2.513 . S
O138 C136 1.246 . S
C139 O123 1.245 . S
C139 O124 1.259 . S
Tb140 O143 2.453 . S
Tb140 O144 2.596 . S
Tb140 O145 2.374 . S
Tb140 O153 2.343 1_455 S
Tb140 O155 2.353 1_455 S
Tb140 O157 2.427 . S
Tb140 O158 2.513 . S
C141 O145 1.251 . S
C141 O147 1.263 . S
Tb142 O144 2.343 1_655 S
Tb142 O147 2.353 1_655 S
Tb142 O150 2.427 . S
Tb142 O151 2.513 . S
Tb142 O152 2.453 . S
Tb142 O153 2.596 . S
Tb142 O154 2.374 . S
O143 Tb140 2.453 . S
O143 C159 1.245 . S
O144 Tb140 2.596 . S
O144 Tb142 2.343 1_455 S
O144 C159 1.259 . S
O145 Tb140 2.374 . S
O145 C141 1.251 . S
C146 O150 1.275 . S
C146 O151 1.246 . S
O147 C141 1.263 . S
O147 Tb142 2.353 1_455 S
C148 O152 1.245 . S
C148 O153 1.259 . S
C149 O154 1.250 . S
C149 O155 1.263 . S
O150 Tb142 2.427 . S
O150 C146 1.275 . S
O151 Tb142 2.513 . S
O151 C146 1.246 . S
O152 Tb142 2.453 . S
O152 C148 1.245 . S
O153 Tb140 2.343 1_655 S
O153 Tb142 2.596 . S
O153 C148 1.259 . S
O154 Tb142 2.374 . S
O154 C149 1.250 . S
O155 Tb140 2.353 1_655 S
O155 C149 1.263 . S
C156 O157 1.275 . S
C156 O158 1.246 . S
O157 Tb140 2.427 . S
O157 C156 1.275 . S
O158 Tb140 2.513 . S
O158 C156 1.246 . S
C159 O143 1.245 . S
C159 O144 1.259 . S
Tb160 O163 2.453 . S
Tb160 O164 2.596 1_556 S
Tb160 O165 2.374 1_556 S
Tb160 O173 2.343 . S
Tb160 O175 2.353 . S
Tb160 O177 2.427 . S
Tb160 O178 2.513 . S
C161 O165 1.251 . S
C161 O167 1.263 . S
Tb162 O164 2.343 . S
Tb162 O167 2.353 . S
Tb162 O170 2.427 . S
Tb162 O171 2.513 . S
Tb162 O172 2.453 . S
Tb162 O173 2.596 1_554 S
Tb162 O174 2.374 1_554 S
O163 Tb160 2.453 . S
O163 C179 1.245 . S
O164 Tb160 2.596 1_554 S
O164 Tb162 2.343 . S
O164 C179 1.259 1_554 S
O165 Tb160 2.374 1_554 S
O165 C161 1.251 . S
C166 O170 1.275 . S
C166 O171 1.246 . S
O167 C161 1.263 . S
O167 Tb162 2.353 . S
C168 O172 1.245 . S
C168 O173 1.259 1_554 S
C169 O174 1.250 . S
C169 O175 1.263 . S
O170 Tb162 2.427 . S
O170 C166 1.275 . S
O171 Tb162 2.513 . S
O171 C166 1.246 . S
O172 Tb162 2.453 . S
O172 C168 1.245 . S
O173 Tb160 2.343 . S
O173 Tb162 2.596 1_556 S
O173 C168 1.259 1_556 S
O174 Tb162 2.374 1_556 S
O174 C169 1.250 . S
O175 Tb160 2.353 . S
O175 C169 1.263 . S
C176 O177 1.275 . S
C176 O178 1.246 . S
O177 Tb160 2.427 . S
O177 C176 1.275 . S
O178 Tb160 2.513 . S
O178 C176 1.246 . S
C179 O163 1.245 . S
C179 O164 1.259 1_556 S
Tb180 O183 2.453 . S
Tb180 O184 2.596 . S
Tb180 O185 2.374 1_545 S
Tb180 O193 2.343 . S
Tb180 O195 2.353 . S
Tb180 O197 2.427 . S
Tb180 O198 2.513 . S
C181 O185 1.251 . S
C181 O187 1.263 . S
Tb182 O184 2.343 1_565 S
Tb182 O187 2.353 . S
Tb182 O190 2.427 . S
Tb182 O191 2.513 . S
Tb182 O192 2.453 . S
Tb182 O193 2.596 1_565 S
Tb182 O194 2.374 1_565 S
O183 Tb180 2.453 . S
O183 C199 1.245 . S
O184 Tb180 2.596 . S
O184 Tb182 2.343 1_545 S
O184 C199 1.259 . S
O185 Tb180 2.374 1_565 S
O185 C181 1.251 . S
C186 O190 1.275 . S
C186 O191 1.246 . S
O187 C181 1.263 . S
O187 Tb182 2.353 . S
C188 O192 1.245 . S
C188 O193 1.259 1_565 S
C189 O194 1.250 . S
C189 O195 1.263 . S
O190 Tb182 2.427 . S
O190 C186 1.275 . S
O191 Tb182 2.513 . S
O191 C186 1.246 . S
O192 Tb182 2.453 . S
O192 C188 1.245 . S
O193 Tb180 2.343 . S
O193 Tb182 2.596 1_545 S
O193 C188 1.259 1_545 S
O194 Tb182 2.374 1_545 S
O194 C189 1.250 . S
O195 Tb180 2.353 . S
O195 C189 1.263 . S
C196 O197 1.275 . S
C196 O198 1.246 . S
O197 Tb180 2.427 . S
O197 C196 1.275 . S
O198 Tb180 2.513 . S
O198 C196 1.246 . S
C199 O183 1.245 . S
C199 O184 1.259 . S
Tb200 O203 2.453 . S
Tb200 O204 2.596 . S
Tb200 O205 2.374 . S
Tb200 O213 2.343 . S
Tb200 O215 2.353 . S
Tb200 O217 2.427 . S
Tb200 O218 2.513 . S
C201 O205 1.251 . S
C201 O207 1.263 . S
Tb202 O204 2.343 . S
Tb202 O207 2.353 . S
Tb202 O210 2.427 . S
Tb202 O211 2.513 . S
Tb202 O212 2.453 . S
Tb202 O213 2.596 . S
Tb202 O214 2.374 . S
O203 Tb200 2.453 . S
O203 C219 1.245 . S
O204 Tb200 2.596 . S
O204 Tb202 2.343 . S
O204 C219 1.259 . S
O205 Tb200 2.374 . S
O205 C201 1.251 . S
C206 O210 1.275 . S
C206 O211 1.246 . S
O207 C201 1.263 . S
O207 Tb202 2.353 . S
C208 O212 1.245 . S
C208 O213 1.259 . S
C209 O214 1.250 . S
C209 O215 1.263 . S
O210 Tb202 2.427 . S
O210 C206 1.275 . S
O211 Tb202 2.513 . S
O211 C206 1.246 . S
O212 Tb202 2.453 . S
O212 C208 1.245 . S
O213 Tb200 2.343 . S
O213 Tb202 2.596 . S
O213 C208 1.259 . S
O214 Tb202 2.374 . S
O214 C209 1.250 . S
O215 Tb200 2.353 . S
O215 C209 1.263 . S
C216 O217 1.275 . S
C216 O218 1.246 . S
O217 Tb200 2.427 . S
O217 C216 1.275 . S
O218 Tb200 2.513 . S
O218 C216 1.246 . S
C219 O203 1.245 . S
C219 O204 1.259 . S
Tb220 O223 2.453 . S
Tb220 O224 2.596 1_655 S
Tb220 O225 2.374 1_655 S
Tb220 O233 2.343 1_655 S
Tb220 O235 2.353 . S
Tb220 O237 2.427 . S
Tb220 O238 2.513 . S
C221 O225 1.251 . S
C221 O227 1.263 . S
Tb222 O224 2.343 . S
Tb222 O227 2.353 . S
Tb222 O230 2.427 . S
Tb222 O231 2.513 . S
Tb222 O232 2.453 . S
Tb222 O233 2.596 . S
Tb222 O234 2.374 1_455 S
O223 Tb220 2.453 . S
O223 C239 1.245 . S
O224 Tb220 2.596 1_455 S
O224 Tb222 2.343 . S
O224 C239 1.259 1_455 S
O225 Tb220 2.374 1_455 S
O225 C221 1.251 . S
C226 O230 1.275 . S
C226 O231 1.246 . S
O227 C221 1.263 . S
O227 Tb222 2.353 . S
C228 O232 1.245 . S
C228 O233 1.259 . S
C229 O234 1.250 . S
C229 O235 1.263 . S
O230 Tb222 2.427 . S
O230 C226 1.275 . S
O231 Tb222 2.513 . S
O231 C226 1.246 . S
O232 Tb222 2.453 . S
O232 C228 1.245 . S
O233 Tb220 2.343 1_455 S
O233 Tb222 2.596 . S
O233 C228 1.259 . S
O234 Tb222 2.374 1_655 S
O234 C229 1.250 . S
O235 Tb220 2.353 . S
O235 C229 1.263 . S
C236 O237 1.275 . S
C236 O238 1.246 . S
O237 Tb220 2.427 . S
O237 C236 1.275 . S
O238 Tb220 2.513 . S
O238 C236 1.246 . S
C239 O223 1.245 . S
C239 O224 1.259 1_655 S
Tb240 O243 2.453 . S
Tb240 O244 2.596 . S
Tb240 O245 2.374 . S
Tb240 O253 2.343 . S
Tb240 O255 2.353 . S
Tb240 O257 2.427 . S
Tb240 O258 2.513 . S
C241 O245 1.251 . S
C241 O247 1.263 . S
Tb242 O244 2.343 . S
Tb242 O247 2.353 . S
Tb242 O250 2.427 . S
Tb242 O251 2.513 . S
Tb242 O252 2.453 . S
Tb242 O253 2.596 . S
Tb242 O254 2.374 . S
O243 Tb240 2.453 . S
O243 C259 1.245 . S
O244 Tb240 2.596 . S
O244 Tb242 2.343 . S
O244 C259 1.259 . S
O245 Tb240 2.374 . S
O245 C241 1.251 . S
C246 O250 1.275 . S
C246 O251 1.246 . S
O247 C241 1.263 . S
O247 Tb242 2.353 . S
C248 O252 1.245 . S
C248 O253 1.259 . S
C249 O254 1.250 . S
C249 O255 1.263 . S
O250 Tb242 2.427 . S
O250 C246 1.275 . S
O251 Tb242 2.513 . S
O251 C246 1.246 . S
O252 Tb242 2.453 . S
O252 C248 1.245 . S
O253 Tb240 2.343 . S
O253 Tb242 2.596 . S
O253 C248 1.259 . S
O254 Tb242 2.374 . S
O254 C249 1.250 . S
O255 Tb240 2.353 . S
O255 C249 1.263 . S
C256 O257 1.275 . S
C256 O258 1.246 . S
O257 Tb240 2.427 . S
O257 C256 1.275 . S
O258 Tb240 2.513 . S
O258 C256 1.246 . S
C259 O243 1.245 . S
C259 O244 1.259 . S
Tb260 O263 2.453 . S
Tb260 O264 2.596 1_556 S
Tb260 O265 2.374 1_556 S
Tb260 O273 2.343 1_556 S
Tb260 O275 2.353 . S
Tb260 O277 2.427 . S
Tb260 O278 2.513 . S
C261 O265 1.251 . S
C261 O267 1.263 . S
Tb262 O264 2.343 . S
Tb262 O267 2.353 . S
Tb262 O270 2.427 . S
Tb262 O271 2.513 . S
Tb262 O272 2.453 . S
Tb262 O273 2.596 . S
Tb262 O274 2.374 1_554 S
O263 Tb260 2.453 . S
O263 C279 1.245 . S
O264 Tb260 2.596 1_554 S
O264 Tb262 2.343 . S
O264 C279 1.259 1_554 S
O265 Tb260 2.374 1_554 S
O265 C261 1.251 . S
C266 O270 1.275 . S
C266 O271 1.246 . S
O267 C261 1.263 . S
O267 Tb262 2.353 . S
C268 O272 1.245 . S
C268 O273 1.259 . S
C269 O274 1.250 . S
C269 O275 1.263 . S
O270 Tb262 2.427 . S
O270 C266 1.275 . S
O271 Tb262 2.513 . S
O271 C266 1.246 . S
O272 Tb262 2.453 . S
O272 C268 1.245 . S
O273 Tb260 2.343 1_554 S
O273 Tb262 2.596 . S
O273 C268 1.259 . S
O274 Tb262 2.374 1_556 S
O274 C269 1.250 . S
O275 Tb260 2.353 . S
O275 C269 1.263 . S
C276 O277 1.275 . S
C276 O278 1.246 . S
O277 Tb260 2.427 . S
O277 C276 1.275 . S
O278 Tb260 2.513 . S
O278 C276 1.246 . S
C279 O263 1.245 . S
C279 O264 1.259 1_556 S
Tb280 O283 2.453 . S
Tb280 O284 2.596 . S
Tb280 O285 2.374 . S
Tb280 O293 2.343 1_565 S
Tb280 O295 2.353 1_565 S
Tb280 O297 2.427 1_565 S
Tb280 O298 2.513 . S
C281 O285 1.251 . S
C281 O287 1.263 . S
Tb282 O284 2.343 1_545 S
Tb282 O287 2.353 1_545 S
Tb282 O290 2.427 . S
Tb282 O291 2.513 . S
Tb282 O292 2.453 . S
Tb282 O293 2.596 . S
Tb282 O294 2.374 . S
O283 Tb280 2.453 . S
O283 C299 1.245 . S
O284 Tb280 2.596 . S
O284 Tb282 2.343 1_565 S
O284 C299 1.259 . S
O285 Tb280 2.374 . S
O285 C281 1.251 . S
C286 O290 1.275 . S
C286 O291 1.246 . S
O287 C281 1.263 . S
O287 Tb282 2.353 1_565 S
C288 O292 1.245 . S
C288 O293 1.259 . S
C289 O294 1.250 . S
C289 O295 1.263 . S
O290 Tb282 2.427 . S
O290 C286 1.275 . S
O291 Tb282 2.513 . S
O291 C286 1.246 . S
O292 Tb282 2.453 . S
O292 C288 1.245 . S
O293 Tb280 2.343 1_545 S
O293 Tb282 2.596 . S
O293 C288 1.259 . S
O294 Tb282 2.374 . S
O294 C289 1.250 . S
O295 Tb280 2.353 1_545 S
O295 C289 1.263 . S
C296 O297 1.275 . S
C296 O298 1.246 1_545 S
O297 Tb280 2.427 1_545 S
O297 C296 1.275 . S
O298 Tb280 2.513 . S
O298 C296 1.246 1_565 S
C299 O283 1.245 . S
C299 O284 1.259 . S
Tb300 O303 2.453 . S
Tb300 O304 2.596 1_556 S
Tb300 O305 2.374 1_556 S
Tb300 O313 2.343 . S
Tb300 O315 2.353 . S
Tb300 O317 2.427 . S
Tb300 O318 2.513 . S
C301 O305 1.251 . S
C301 O307 1.263 . S
Tb302 O304 2.343 . S
Tb302 O307 2.353 . S
Tb302 O310 2.427 . S
Tb302 O311 2.513 . S
Tb302 O312 2.453 . S
Tb302 O313 2.596 1_554 S
Tb302 O314 2.374 1_554 S
O303 Tb300 2.453 . S
O303 C319 1.245 1_556 S
O304 Tb300 2.596 1_554 S
O304 Tb302 2.343 . S
O304 C319 1.259 . S
O305 Tb300 2.374 1_554 S
O305 C301 1.251 . S
C306 O310 1.275 . S
C306 O311 1.246 . S
O307 C301 1.263 . S
O307 Tb302 2.353 . S
C308 O312 1.245 . S
C308 O313 1.259 1_554 S
C309 O314 1.250 . S
C309 O315 1.263 . S
O310 Tb302 2.427 . S
O310 C306 1.275 . S
O311 Tb302 2.513 . S
O311 C306 1.246 . S
O312 Tb302 2.453 . S
O312 C308 1.245 . S
O313 Tb300 2.343 . S
O313 Tb302 2.596 1_556 S
O313 C308 1.259 1_556 S
O314 Tb302 2.374 1_556 S
O314 C309 1.250 . S
O315 Tb300 2.353 . S
O315 C309 1.263 . S
C316 O317 1.275 . S
C316 O318 1.246 . S
O317 Tb300 2.427 . S
O317 C316 1.275 . S
O318 Tb300 2.513 . S
O318 C316 1.246 . S
C319 O303 1.245 1_554 S
C319 O304 1.259 . S
C320 C321 1.369 . S
C320 C322 1.419 1_655 S
C320 H324 0.930 1_655 S
C321 C320 1.369 . S
C321 C330 1.429 . S
C322 C320 1.419 1_455 S
C322 C323 1.363 1_455 S
C322 H325 0.929 . S
C323 C322 1.363 1_655 S
C323 C329 1.428 . S
H324 C320 0.930 1_455 S
H325 C322 0.929 . S
S326 N327 1.613 . S
S326 N328 1.610 . S
N327 S326 1.613 . S
N327 C330 1.350 . S
N328 S326 1.610 . S
N328 C329 1.351 . S
C329 C323 1.428 . S
C329 N328 1.351 . S
C329 C330 1.434 . S
C330 C321 1.429 . S
C330 N327 1.350 . S
C330 C329 1.434 . S
C331 C332 1.369 . S
C331 C333 1.419 . S
C331 H335 0.930 . S
C332 C331 1.369 . S
C332 C341 1.429 . S
C333 C331 1.419 . S
C333 C334 1.363 . S
C333 H336 0.929 . S
C334 C333 1.363 . S
C334 C340 1.428 . S
H335 C331 0.930 . S
H336 C333 0.929 . S
S337 N338 1.613 . S
S337 N339 1.610 . S
N338 S337 1.613 . S
N338 C341 1.350 . S
N339 S337 1.610 . S
N339 C340 1.351 . S
C340 C334 1.428 . S
C340 N339 1.351 . S
C340 C341 1.434 . S
C341 C332 1.429 . S
C341 N338 1.350 . S
C341 C340 1.434 . S
C342 C343 1.369 . S
C342 C344 1.419 . S
C342 H346 0.930 . S
C343 C342 1.369 . S
C343 C352 1.429 . S
C344 C342 1.419 . S
C344 C345 1.363 . S
C344 H347 0.929 . S
C345 C344 1.363 . S
C345 C351 1.428 . S
H346 C342 0.930 . S
H347 C344 0.929 . S
S348 N349 1.613 . S
S348 N350 1.610 . S
N349 S348 1.613 . S
N349 C352 1.350 . S
N350 S348 1.610 . S
N350 C351 1.351 . S
C351 C345 1.428 . S
C351 N350 1.351 . S
C351 C352 1.434 . S
C352 C343 1.429 . S
C352 N349 1.350 . S
C352 C351 1.434 . S
C353 C354 1.369 . S
C353 C355 1.419 . S
C353 H357 0.930 . S
C354 C353 1.369 . S
C354 C363 1.429 . S
C355 C353 1.419 . S
C355 C356 1.363 . S
C355 H358 0.929 . S
C356 C355 1.363 . S
C356 C362 1.428 . S
H357 C353 0.930 . S
H358 C355 0.929 . S
S359 N360 1.613 . S
S359 N361 1.610 . S
N360 S359 1.613 . S
N360 C363 1.350 1_565 S
N361 S359 1.610 . S
N361 C362 1.351 1_565 S
C362 C356 1.428 . S
C362 N361 1.351 1_545 S
C362 C363 1.434 . S
C363 C354 1.429 . S
C363 N360 1.350 1_545 S
C363 C362 1.434 . S
C364 C365 1.369 1_545 S
C364 C366 1.419 . S
C364 H368 0.930 . S
C365 C364 1.369 1_565 S
C365 C374 1.429 . S
C366 C364 1.419 . S
C366 C367 1.364 1_545 S
C366 H369 0.929 . S
C367 C366 1.364 1_565 S
C367 C373 1.428 . S
H368 C364 0.930 . S
H369 C366 0.929 . S
S370 N371 1.613 . S
S370 N372 1.610 . S
N371 S370 1.613 . S
N371 C374 1.350 . S
N372 S370 1.610 . S
N372 C373 1.351 . S
C373 C367 1.428 . S
C373 N372 1.351 . S
C373 C374 1.434 . S
C374 C365 1.429 . S
C374 N371 1.350 . S
C374 C373 1.434 . S
C375 C376 1.368 1_655 S
C375 C377 1.418 . S
C375 H379 0.931 . S
C376 C375 1.368 1_455 S
C376 C385 1.429 . S
C377 C375 1.418 . S
C377 C378 1.363 1_655 S
C377 H380 0.929 . S
C378 C377 1.363 1_455 S
C378 C384 1.428 . S
H379 C375 0.931 . S
H380 C377 0.929 . S
S381 N382 1.613 . S
S381 N383 1.610 . S
N382 S381 1.613 . S
N382 C385 1.350 . S
N383 S381 1.610 . S
N383 C384 1.351 . S
C384 C378 1.428 . S
C384 N383 1.351 . S
C384 C385 1.434 . S
C385 C376 1.429 . S
C385 N382 1.350 . S
C385 C384 1.434 . S
C386 C387 1.369 . S
C386 C388 1.419 . S
C386 H390 0.930 . S
C387 C386 1.369 . S
C387 C396 1.429 . S
C388 C386 1.419 . S
C388 C389 1.363 . S
C388 H391 0.929 . S
C389 C388 1.363 . S
C389 C395 1.428 . S
H390 C386 0.930 . S
H391 C388 0.929 . S
S392 N393 1.613 . S
S392 N394 1.610 . S
N393 S392 1.613 . S
N393 C396 1.350 . S
N394 S392 1.610 . S
N394 C395 1.351 . S
C395 C389 1.428 . S
C395 N394 1.351 . S
C395 C396 1.434 . S
C396 C387 1.429 . S
C396 N393 1.350 . S
C396 C395 1.434 . S
C397 C398 1.369 . S
C397 C399 1.419 . S
C397 H401 0.930 . S
C398 C397 1.369 . S
C398 C407 1.429 . S
C399 C397 1.419 . S
C399 C400 1.363 . S
C399 H402 0.929 . S
C400 C399 1.363 . S
C400 C406 1.428 . S
H401 C397 0.930 . S
H402 C399 0.929 . S
S403 N404 1.613 . S
S403 N405 1.610 . S
N404 S403 1.613 . S
N404 C407 1.350 . S
N405 S403 1.610 . S
N405 C406 1.351 . S
C406 C400 1.428 . S
C406 N405 1.351 . S
C406 C407 1.434 . S
C407 C398 1.429 . S
C407 N404 1.350 . S
C407 C406 1.434 . S
C408 C409 1.369 . S
C408 C410 1.419 . S
C408 H412 0.930 . S
C409 C408 1.369 . S
C409 C418 1.429 . S
C410 C408 1.419 . S
C410 C411 1.363 . S
C410 H413 0.929 . S
C411 C410 1.363 . S
C411 C417 1.428 . S
H412 C408 0.930 . S
H413 C410 0.929 . S
S414 N415 1.613 . S
S414 N416 1.610 . S
N415 S414 1.613 . S
N415 C418 1.350 . S
N416 S414 1.610 . S
N416 C417 1.351 . S
C417 C411 1.428 . S
C417 N416 1.351 . S
C417 C418 1.434 . S
C418 C409 1.429 . S
C418 N415 1.350 . S
C418 C417 1.434 . S
C419 C420 1.369 . S
C419 C421 1.419 . S
C419 H423 0.930 . S
C420 C419 1.369 . S
C420 C429 1.429 . S
C421 C419 1.419 . S
C421 C422 1.363 . S
C421 H424 0.929 . S
C422 C421 1.363 . S
C422 C428 1.428 . S
H423 C419 0.930 . S
H424 C421 0.929 . S
S425 N426 1.613 . S
S425 N427 1.610 . S
N426 S425 1.613 . S
N426 C429 1.350 . S
N427 S425 1.610 . S
N427 C428 1.351 . S
C428 C422 1.428 . S
C428 N427 1.351 . S
C428 C429 1.434 . S
C429 C420 1.429 . S
C429 N426 1.350 . S
C429 C428 1.434 . S
C430 C431 1.369 . S
C430 C432 1.419 . S
C430 H434 0.930 . S
C431 C430 1.369 . S
C431 C440 1.430 1_545 S
C432 C430 1.419 . S
C432 C433 1.363 . S
C432 H435 0.929 . S
C433 C432 1.363 . S
C433 C439 1.428 . S
H434 C430 0.930 . S
H435 C432 0.929 . S
S436 N437 1.613 . S
S436 N438 1.610 . S
N437 S436 1.613 . S
N437 C440 1.349 . S
N438 S436 1.610 . S
N438 C439 1.351 1_565 S
C439 C433 1.428 . S
C439 N438 1.351 1_545 S
C439 C440 1.434 1_545 S
C440 C431 1.430 1_565 S
C440 N437 1.349 . S
C440 C439 1.434 1_565 S
C441 C442 1.369 1_655 S
C441 C443 1.419 . S
C441 H445 0.930 . S
C442 C441 1.369 1_455 S
C442 C451 1.429 . S
C443 C441 1.419 . S
C443 C444 1.363 1_655 S
C443 H446 0.929 . S
C444 C443 1.363 1_455 S
C444 C450 1.428 . S
H445 C441 0.930 . S
H446 C443 0.929 . S
S447 N448 1.613 . S
S447 N449 1.610 . S
N448 S447 1.613 . S
N448 C451 1.350 . S
N449 S447 1.610 . S
N449 C450 1.351 . S
C450 C444 1.428 . S
C450 N449 1.351 . S
C450 C451 1.434 . S
C451 C442 1.429 . S
C451 N448 1.350 . S
C451 C450 1.434 . S
C452 C453 1.369 . S
C452 C454 1.419 . S
C452 H456 0.930 . S
C453 C452 1.369 . S
C453 C462 1.429 . S
C454 C452 1.419 . S
C454 C455 1.363 . S
C454 H457 0.929 . S
C455 C454 1.363 . S
C455 C461 1.428 . S
H456 C452 0.930 . S
H457 C454 0.929 . S
S458 N459 1.613 . S
S458 N460 1.610 . S
N459 S458 1.613 . S
N459 C462 1.350 . S
N460 S458 1.610 . S
N460 C461 1.351 . S
C461 C455 1.428 . S
C461 N460 1.351 . S
C461 C462 1.434 . S
C462 C453 1.429 . S
C462 N459 1.350 . S
C462 C461 1.434 . S
C463 C464 1.369 . S
C463 C465 1.419 . S
C463 H467 0.930 . S
C464 C463 1.369 . S
C464 C473 1.429 . S
C465 C463 1.419 . S
C465 C466 1.363 . S
C465 H468 0.929 . S
C466 C465 1.363 . S
C466 C472 1.428 . S
H467 C463 0.930 . S
H468 C465 0.929 . S
S469 N470 1.613 . S
S469 N471 1.610 . S
N470 S469 1.613 . S
N470 C473 1.350 . S
N471 S469 1.610 . S
N471 C472 1.351 . S
C472 C466 1.428 . S
C472 N471 1.351 . S
C472 C473 1.434 . S
C473 C464 1.429 . S
C473 N470 1.350 . S
C473 C472 1.434 . S
C474 C475 1.369 . S
C474 C476 1.419 . S
C474 H478 0.930 . S
C475 C474 1.369 . S
C475 C484 1.429 . S
C476 C474 1.419 . S
C476 C477 1.363 . S
C476 H479 0.929 . S
C477 C476 1.363 . S
C477 C483 1.428 . S
H478 C474 0.930 . S
H479 C476 0.929 . S
S480 N481 1.613 . S
S480 N482 1.610 . S
N481 S480 1.613 . S
N481 C484 1.350 . S
N482 S480 1.610 . S
N482 C483 1.351 . S
C483 C477 1.428 . S
C483 N482 1.351 . S
C483 C484 1.434 . S
C484 C475 1.429 . S
C484 N481 1.350 . S
C484 C483 1.434 . S
C485 C486 1.369 . S
C485 C487 1.419 . S
C485 H489 0.930 . S
C486 C485 1.369 . S
C486 C495 1.429 . S
C487 C485 1.419 . S
C487 C488 1.363 . S
C487 H490 0.929 . S
C488 C487 1.363 . S
C488 C494 1.428 . S
H489 C485 0.930 . S
H490 C487 0.929 . S
S491 N492 1.613 . S
S491 N493 1.610 . S
N492 S491 1.613 . S
N492 C495 1.350 . S
N493 S491 1.610 . S
N493 C494 1.351 . S
C494 C488 1.428 . S
C494 N493 1.351 . S
C494 C495 1.434 . S
C495 C486 1.429 . S
C495 N492 1.350 . S
C495 C494 1.434 . S
C496 C497 1.369 . S
C496 C498 1.419 . S
C496 H500 0.930 . S
C497 C496 1.369 . S
C497 C506 1.429 . S
C498 C496 1.419 . S
C498 C499 1.363 . S
C498 H501 0.929 . S
C499 C498 1.363 . S
C499 C505 1.428 . S
H500 C496 0.930 . S
H501 C498 0.929 . S
S502 N503 1.613 . S
S502 N504 1.610 . S
N503 S502 1.613 . S
N503 C506 1.350 . S
N504 S502 1.610 . S
N504 C505 1.351 . S
C505 C499 1.428 . S
C505 N504 1.351 . S
C505 C506 1.434 . S
C506 C497 1.429 . S
C506 N503 1.350 . S
C506 C505 1.434 . S
C507 C508 1.369 . S
C507 C509 1.419 . S
C507 H511 0.930 . S
C508 C507 1.369 . S
C508 C517 1.429 . S
C509 C507 1.419 . S
C509 C510 1.363 . S
C509 H512 0.929 . S
C510 C509 1.363 . S
C510 C516 1.428 . S
H511 C507 0.930 . S
H512 C509 0.929 . S
S513 N514 1.613 . S
S513 N515 1.610 . S
N514 S513 1.613 . S
N514 C517 1.350 . S
N515 S513 1.610 . S
N515 C516 1.351 . S
C516 C510 1.428 . S
C516 N515 1.351 . S
C516 C517 1.434 . S
C517 C508 1.429 . S
C517 N514 1.350 . S
C517 C516 1.434 . S
C518 C519 1.369 . S
C518 C520 1.419 . S
C518 H522 0.930 . S
C519 C518 1.369 . S
C519 C528 1.429 . S
C520 C518 1.419 . S
C520 C521 1.363 . S
C520 H523 0.929 . S
C521 C520 1.363 . S
C521 C527 1.428 . S
H522 C518 0.930 . S
H523 C520 0.929 . S
S524 N525 1.613 . S
S524 N526 1.610 . S
N525 S524 1.613 . S
N525 C528 1.350 . S
N526 S524 1.610 . S
N526 C527 1.351 . S
C527 C521 1.428 . S
C527 N526 1.351 . S
C527 C528 1.434 . S
C528 C519 1.429 . S
C528 N525 1.350 . S
C528 C527 1.434 . S
C529 C530 1.369 . S
C529 C531 1.419 . S
C529 H533 0.930 . S
C530 C529 1.369 . S
C530 C539 1.429 . S
C531 C529 1.419 . S
C531 C532 1.363 . S
C531 H534 0.929 . S
C532 C531 1.363 . S
C532 C538 1.428 . S
H533 C529 0.930 . S
H534 C531 0.929 . S
S535 N536 1.613 . S
S535 N537 1.610 . S
N536 S535 1.613 . S
N536 C539 1.350 . S
N537 S535 1.610 . S
N537 C538 1.351 . S
C538 C532 1.428 . S
C538 N537 1.351 . S
C538 C539 1.434 . S
C539 C530 1.429 . S
C539 N536 1.350 . S
C539 C538 1.434 . S
C540 C541 1.369 . S
C540 C542 1.419 . S
C540 H544 0.930 . S
C541 C540 1.369 . S
C541 C550 1.429 . S
C542 C540 1.419 . S
C542 C543 1.363 . S
C542 H545 0.929 . S
C543 C542 1.363 . S
C543 C549 1.428 . S
H544 C540 0.930 . S
H545 C542 0.929 . S
S546 N547 1.613 . S
S546 N548 1.610 . S
N547 S546 1.613 . S
N547 C550 1.350 . S
N548 S546 1.610 . S
N548 C549 1.351 . S
C549 C543 1.428 . S
C549 N548 1.351 . S
C549 C550 1.434 . S
C550 C541 1.429 . S
C550 N547 1.350 . S
C550 C549 1.434 . S
C551 C552 1.369 1_455 S
C551 C553 1.419 . S
C551 H555 0.930 . S
C552 C551 1.369 1_655 S
C552 C561 1.429 . S
C553 C551 1.419 . S
C553 C554 1.363 1_455 S
C553 H556 0.929 . S
C554 C553 1.363 1_655 S
C554 C560 1.428 . S
H555 C551 0.930 . S
H556 C553 0.929 . S
S557 N558 1.613 . S
S557 N559 1.610 . S
N558 S557 1.613 . S
N558 C561 1.350 . S
N559 S557 1.610 . S
N559 C560 1.351 . S
C560 C554 1.428 . S
C560 N559 1.351 . S
C560 C561 1.434 . S
C561 C552 1.429 . S
C561 N558 1.350 . S
C561 C560 1.434 . S
C562 C563 1.369 . S
C562 C564 1.419 . S
C562 H566 0.930 . S
C563 C562 1.369 . S
C563 C572 1.429 . S
C564 C562 1.419 . S
C564 C565 1.363 . S
C564 H567 0.929 . S
C565 C564 1.363 . S
C565 C571 1.428 . S
H566 C562 0.930 . S
H567 C564 0.929 . S
S568 N569 1.613 . S
S568 N570 1.610 . S
N569 S568 1.613 . S
N569 C572 1.350 . S
N570 S568 1.610 . S
N570 C571 1.351 . S
C571 C565 1.428 . S
C571 N570 1.351 . S
C571 C572 1.434 . S
C572 C563 1.429 . S
C572 N569 1.350 . S
C572 C571 1.434 . S
C573 C574 1.369 . S
C573 C575 1.419 . S
C573 H577 0.930 . S
C574 C573 1.369 . S
C574 C583 1.429 . S
C575 C573 1.419 . S
C575 C576 1.363 . S
C575 H578 0.929 . S
C576 C575 1.363 . S
C576 C582 1.428 . S
H577 C573 0.930 . S
H578 C575 0.929 . S
S579 N580 1.613 . S
S579 N581 1.610 . S
N580 S579 1.613 . S
N580 C583 1.350 . S
N581 S579 1.610 . S
N581 C582 1.351 . S
C582 C576 1.428 . S
C582 N581 1.351 . S
C582 C583 1.434 . S
C583 C574 1.429 . S
C583 N580 1.350 . S
C583 C582 1.434 . S
C584 C585 1.369 . S
C584 C586 1.419 . S
C584 H588 0.930 . S
C585 C584 1.369 . S
C585 C594 1.429 . S
C586 C584 1.419 . S
C586 C587 1.363 . S
C586 H589 0.929 . S
C587 C586 1.363 . S
C587 C593 1.428 . S
H588 C584 0.930 . S
H589 C586 0.929 . S
S590 N591 1.613 . S
S590 N592 1.610 . S
N591 S590 1.613 . S
N591 C594 1.350 . S
N592 S590 1.610 . S
N592 C593 1.351 . S
C593 C587 1.428 . S
C593 N592 1.351 . S
C593 C594 1.434 . S
C594 C585 1.429 . S
C594 N591 1.350 . S
C594 C593 1.434 . S
C595 C596 1.369 . S
C595 C597 1.419 . S
C595 H599 0.930 . S
C596 C595 1.369 . S
C596 C605 1.429 . S
C597 C595 1.419 . S
C597 C598 1.363 . S
C597 H600 0.929 . S
C598 C597 1.363 . S
C598 C604 1.428 . S
H599 C595 0.930 . S
H600 C597 0.929 . S
S601 N602 1.613 . S
S601 N603 1.610 . S
N602 S601 1.613 . S
N602 C605 1.350 . S
N603 S601 1.610 . S
N603 C604 1.351 . S
C604 C598 1.428 . S
C604 N603 1.351 . S
C604 C605 1.434 . S
C605 C596 1.429 . S
C605 N602 1.350 . S
C605 C604 1.434 . S
C606 C607 1.369 . S
C606 C608 1.419 . S
C606 H610 0.930 . S
C607 C606 1.369 . S
C607 C616 1.429 1_545 S
C608 C606 1.419 . S
C608 C609 1.363 . S
C608 H611 0.929 . S
C609 C608 1.363 . S
C609 C615 1.435 . S
H610 C606 0.930 . S
H611 C608 0.929 . S
S612 N613 1.613 . S
S612 N614 1.610 . S
N613 S612 1.613 . S
N613 C616 1.350 . S
N614 S612 1.610 . S
N614 C615 1.345 1_565 S
C615 C609 1.435 . S
C615 N614 1.345 1_545 S
C615 C616 1.435 1_545 S
C616 C607 1.429 1_565 S
C616 N613 1.350 . S
C616 C615 1.435 1_565 S
C617 C618 1.369 1_556 S
C617 C619 1.419 . S
C617 H621 0.930 . S
C618 C617 1.369 1_554 S
C618 C627 1.429 . S
C619 C617 1.419 . S
C619 C620 1.363 . S
C619 H622 0.929 . S
C620 C619 1.363 . S
C620 C626 1.428 1_556 S
H621 C617 0.930 . S
H622 C619 0.929 . S
S623 N624 1.613 . S
S623 N625 1.610 . S
N624 S623 1.613 . S
N624 C627 1.350 . S
N625 S623 1.610 . S
N625 C626 1.351 . S
C626 C620 1.428 1_554 S
C626 N625 1.351 . S
C626 C627 1.434 . S
C627 C618 1.429 . S
C627 N624 1.350 . S
C627 C626 1.434 . S
C628 C629 1.369 . S
C628 C630 1.419 . S
C628 H632 0.930 . S
C629 C628 1.369 . S
C629 C638 1.429 . S
C630 C628 1.419 . S
C630 C631 1.363 . S
C630 H633 0.929 . S
C631 C630 1.363 . S
C631 C637 1.428 . S
H632 C628 0.930 . S
H633 C630 0.929 . S
S634 N635 1.613 . S
S634 N636 1.610 . S
N635 S634 1.613 . S
N635 C638 1.350 . S
N636 S634 1.610 . S
N636 C637 1.351 . S
C637 C631 1.428 . S
C637 N636 1.351 . S
C637 C638 1.434 . S
C638 C629 1.429 . S
C638 N635 1.350 . S
C638 C637 1.434 . S
C639 C640 1.369 . S
C639 C641 1.419 . S
C639 H643 0.930 . S
C640 C639 1.369 . S
C640 C649 1.429 . S
C641 C639 1.419 . S
C641 C642 1.363 . S
C641 H644 0.929 . S
C642 C641 1.363 . S
C642 C648 1.428 . S
H643 C639 0.930 . S
H644 C641 0.929 . S
S645 N646 1.613 . S
S645 N647 1.610 . S
N646 S645 1.613 . S
N646 C649 1.350 . S
N647 S645 1.610 . S
N647 C648 1.351 . S
C648 C642 1.428 . S
C648 N647 1.351 . S
C648 C649 1.434 . S
C649 C640 1.429 . S
C649 N646 1.350 . S
C649 C648 1.434 . S
C650 C651 1.369 . S
C650 C652 1.419 . S
C650 H654 0.930 . S
C651 C650 1.369 . S
C651 C660 1.429 . S
C652 C650 1.419 . S
C652 C653 1.363 . S
C652 H655 0.929 . S
C653 C652 1.363 . S
C653 C659 1.428 . S
H654 C650 0.930 . S
H655 C652 0.929 . S
S656 N657 1.613 . S
S656 N658 1.610 . S
N657 S656 1.613 . S
N657 C660 1.350 . S
N658 S656 1.610 . S
N658 C659 1.351 . S
C659 C653 1.428 . S
C659 N658 1.351 . S
C659 C660 1.434 . S
C660 C651 1.429 . S
C660 N657 1.350 . S
C660 C659 1.434 . S
C661 C662 1.369 . S
C661 C663 1.419 . S
C661 H665 0.930 . S
C662 C661 1.369 . S
C662 C671 1.429 . S
C663 C661 1.419 . S
C663 C664 1.363 . S
C663 H666 0.929 . S
C664 C663 1.363 . S
C664 C670 1.428 . S
H665 C661 0.930 . S
H666 C663 0.929 . S
S667 N668 1.613 . S
S667 N669 1.610 . S
N668 S667 1.613 . S
N668 C671 1.350 . S
N669 S667 1.610 . S
N669 C670 1.351 . S
C670 C664 1.428 . S
C670 N669 1.351 . S
C670 C671 1.434 . S
C671 C662 1.429 . S
C671 N668 1.350 . S
C671 C670 1.434 . S
C672 C673 1.369 . S
C672 C674 1.419 . S
C672 H676 0.930 . S
C673 C672 1.369 . S
C673 C682 1.429 . S
C674 C672 1.419 . S
C674 C675 1.363 . S
C674 H677 0.929 . S
C675 C674 1.363 . S
C675 C681 1.428 . S
H676 C672 0.930 . S
H677 C674 0.929 . S
S678 N679 1.613 . S
S678 N680 1.610 . S
N679 S678 1.613 . S
N679 C682 1.350 . S
N680 S678 1.610 . S
N680 C681 1.351 . S
C681 C675 1.428 . S
C681 N680 1.351 . S
C681 C682 1.434 . S
C682 C673 1.429 . S
C682 N679 1.350 . S
C682 C681 1.434 . S
C683 C684 1.369 . S
C683 C685 1.419 . S
C683 H687 0.930 . S
C684 C683 1.369 . S
C684 C693 1.429 . S
C685 C683 1.419 . S
C685 C686 1.363 . S
C685 H688 0.929 . S
C686 C685 1.363 . S
C686 C692 1.428 . S
H687 C683 0.930 . S
H688 C685 0.929 . S
S689 N690 1.613 . S
S689 N691 1.610 . S
N690 S689 1.613 . S
N690 C693 1.350 . S
N691 S689 1.610 . S
N691 C692 1.351 . S
C692 C686 1.428 . S
C692 N691 1.351 . S
C692 C693 1.434 . S
C693 C684 1.429 . S
C693 N690 1.350 . S
C693 C692 1.434 . S
C694 C695 1.369 . S
C694 C696 1.419 . S
C694 H698 0.930 . S
C695 C694 1.369 . S
C695 C704 1.429 . S
C696 C694 1.419 . S
C696 C697 1.363 . S
C696 H699 0.929 . S
C697 C696 1.363 . S
C697 C703 1.428 . S
H698 C694 0.930 . S
H699 C696 0.929 . S
S700 N701 1.613 . S
S700 N702 1.610 . S
N701 S700 1.613 . S
N701 C704 1.350 . S
N702 S700 1.610 . S
N702 C703 1.351 . S
C703 C697 1.428 . S
C703 N702 1.351 . S
C703 C704 1.434 . S
C704 C695 1.429 . S
C704 N701 1.350 . S
C704 C703 1.434 . S
C705 C706 1.369 . S
C705 C707 1.419 . S
C705 H709 0.930 . S
C706 C705 1.369 . S
C706 C715 1.429 . S
C707 C705 1.419 . S
C707 C708 1.363 . S
C707 H710 0.929 . S
C708 C707 1.363 . S
C708 C714 1.428 . S
H709 C705 0.930 . S
H710 C707 0.929 . S
S711 N712 1.613 . S
S711 N713 1.610 . S
N712 S711 1.613 . S
N712 C715 1.350 . S
N713 S711 1.610 . S
N713 C714 1.351 . S
C714 C708 1.428 . S
C714 N713 1.351 . S
C714 C715 1.434 . S
C715 C706 1.429 . S
C715 N712 1.350 . S
C715 C714 1.434 . S
C716 C717 1.369 . S
C716 C718 1.419 . S
C716 H720 0.930 . S
C717 C716 1.369 . S
C717 C726 1.429 . S
C718 C716 1.419 . S
C718 C719 1.363 . S
C718 H721 0.929 . S
C719 C718 1.363 . S
C719 C725 1.428 . S
H720 C716 0.930 . S
H721 C718 0.929 . S
S722 N723 1.613 . S
S722 N724 1.610 . S
N723 S722 1.613 . S
N723 C726 1.350 . S
N724 S722 1.610 . S
N724 C725 1.351 . S
C725 C719 1.428 . S
C725 N724 1.351 . S
C725 C726 1.434 . S
C726 C717 1.429 . S
C726 N723 1.350 . S
C726 C725 1.434 . S
C727 C728 1.369 1_554 S
C727 C729 1.419 . S
C727 H731 0.930 . S
C728 C727 1.369 1_556 S
C728 C737 1.429 . S
C729 C727 1.419 . S
C729 C730 1.363 . S
C729 H732 0.929 . S
C730 C729 1.363 . S
C730 C736 1.428 1_554 S
H731 C727 0.930 . S
H732 C729 0.929 . S
S733 N734 1.613 . S
S733 N735 1.610 . S
N734 S733 1.613 . S
N734 C737 1.350 . S
N735 S733 1.610 . S
N735 C736 1.351 . S
C736 C730 1.428 1_556 S
C736 N735 1.351 . S
C736 C737 1.434 . S
C737 C728 1.429 . S
C737 N734 1.350 . S
C737 C736 1.434 . S
C738 C739 1.369 . S
C738 C740 1.419 . S
C738 H742 0.930 . S
C739 C738 1.369 . S
C739 C748 1.429 . S
C740 C738 1.419 . S
C740 C741 1.363 . S
C740 H743 0.929 . S
C741 C740 1.363 . S
C741 C747 1.428 . S
H742 C738 0.930 . S
H743 C740 0.929 . S
S744 N745 1.613 . S
S744 N746 1.610 . S
N745 S744 1.613 . S
N745 C748 1.350 . S
N746 S744 1.610 . S
N746 C747 1.351 . S
C747 C741 1.428 . S
C747 N746 1.351 . S
C747 C748 1.434 . S
C748 C739 1.429 . S
C748 N745 1.350 . S
C748 C747 1.434 . S
C749 C750 1.369 . S
C749 C751 1.419 . S
C749 H753 0.930 . S
C750 C749 1.369 . S
C750 C759 1.429 . S
C751 C749 1.419 . S
C751 C752 1.363 . S
C751 H754 0.929 . S
C752 C751 1.363 . S
C752 C758 1.428 . S
H753 C749 0.930 . S
H754 C751 0.929 . S
S755 N756 1.613 . S
S755 N757 1.610 . S
N756 S755 1.613 . S
N756 C759 1.350 . S
N757 S755 1.610 . S
N757 C758 1.351 . S
C758 C752 1.428 . S
C758 N757 1.351 . S
C758 C759 1.434 . S
C759 C750 1.429 . S
C759 N756 1.350 . S
C759 C758 1.434 . S
C760 C761 1.369 . S
C760 C762 1.419 . S
C760 H764 0.930 . S
C761 C760 1.369 . S
C761 C770 1.429 . S
C762 C760 1.419 . S
C762 C763 1.363 . S
C762 H765 0.929 . S
C763 C762 1.363 . S
C763 C769 1.428 . S
H764 C760 0.930 . S
H765 C762 0.929 . S
S766 N767 1.613 . S
S766 N768 1.610 . S
N767 S766 1.613 . S
N767 C770 1.350 . S
N768 S766 1.610 . S
N768 C769 1.351 . S
C769 C763 1.428 . S
C769 N768 1.351 . S
C769 C770 1.434 . S
C770 C761 1.429 . S
C770 N767 1.350 . S
C770 C769 1.434 . S
C771 C772 1.369 . S
C771 C773 1.419 . S
C771 H775 0.930 . S
C772 C771 1.369 . S
C772 C781 1.429 . S
C773 C771 1.419 . S
C773 C774 1.363 . S
C773 H776 0.929 . S
C774 C773 1.363 . S
C774 C780 1.428 . S
H775 C771 0.930 . S
H776 C773 0.929 . S
S777 N778 1.613 . S
S777 N779 1.610 . S
N778 S777 1.613 . S
N778 C781 1.350 . S
N779 S777 1.610 . S
N779 C780 1.351 . S
C780 C774 1.428 . S
C780 N779 1.351 . S
C780 C781 1.434 . S
C781 C772 1.429 . S
C781 N778 1.350 . S
C781 C780 1.434 . S
C782 C783 1.369 . S
C782 C784 1.419 . S
C782 H786 0.930 . S
C783 C782 1.369 . S
C783 C792 1.429 1_554 S
C784 C782 1.419 . S
C784 C785 1.363 . S
C784 H787 0.929 . S
C785 C784 1.363 . S
C785 C791 1.428 1_554 S
H786 C782 0.930 . S
H787 C784 0.929 . S
S788 N789 1.613 . S
S788 N790 1.610 . S
N789 S788 1.613 . S
N789 C792 1.350 . S
N790 S788 1.610 . S
N790 C791 1.351 . S
C791 C785 1.428 1_556 S
C791 N790 1.351 . S
C791 C792 1.434 . S
C792 C783 1.429 1_556 S
C792 N789 1.350 . S
C792 C791 1.434 . S
C793 C794 1.369 . S
C793 C795 1.419 . S
C793 H797 0.930 . S
C794 C793 1.369 . S
C794 C803 1.429 . S
C795 C793 1.419 . S
C795 C796 1.363 . S
C795 H798 0.929 . S
C796 C795 1.363 . S
C796 C802 1.428 . S
H797 C793 0.930 . S
H798 C795 0.929 . S
S799 N800 1.613 . S
S799 N801 1.610 . S
N800 S799 1.613 . S
N800 C803 1.350 . S
N801 S799 1.610 . S
N801 C802 1.351 . S
C802 C796 1.428 . S
C802 N801 1.351 . S
C802 C803 1.434 . S
C803 C794 1.429 . S
C803 N800 1.350 . S
C803 C802 1.434 . S
C804 C805 1.369 . S
C804 C806 1.419 . S
C804 H808 0.930 . S
C805 C804 1.369 . S
C805 C814 1.429 . S
C806 C804 1.419 . S
C806 C807 1.363 . S
C806 H809 0.929 . S
C807 C806 1.363 . S
C807 C813 1.428 . S
H808 C804 0.930 . S
H809 C806 0.929 . S
S810 N811 1.613 . S
S810 N812 1.610 . S
N811 S810 1.613 . S
N811 C814 1.350 . S
N812 S810 1.610 . S
N812 C813 1.351 . S
C813 C807 1.428 . S
C813 N812 1.351 . S
C813 C814 1.434 . S
C814 C805 1.429 . S
C814 N811 1.350 . S
C814 C813 1.434 . S
C815 C816 1.369 . S
C815 C817 1.419 . S
C815 H819 0.930 . S
C816 C815 1.369 . S
C816 C825 1.429 . S
C817 C815 1.419 . S
C817 C818 1.363 . S
C817 H820 0.929 . S
C818 C817 1.363 . S
C818 C824 1.428 . S
H819 C815 0.930 . S
H820 C817 0.929 . S
S821 N822 1.613 . S
S821 N823 1.610 . S
N822 S821 1.613 . S
N822 C825 1.350 . S
N823 S821 1.610 . S
N823 C824 1.351 . S
C824 C818 1.428 . S
C824 N823 1.351 . S
C824 C825 1.434 . S
C825 C816 1.429 . S
C825 N822 1.350 . S
C825 C824 1.434 . S
C826 C827 1.369 . S
C826 C828 1.419 . S
C826 H830 0.930 . S
C827 C826 1.369 . S
C827 C836 1.429 . S
C828 C826 1.419 . S
C828 C829 1.363 . S
C828 H831 0.929 . S
C829 C828 1.363 . S
C829 C835 1.428 . S
H830 C826 0.930 . S
H831 C828 0.929 . S
S832 N833 1.613 . S
S832 N834 1.610 . S
N833 S832 1.613 . S
N833 C836 1.350 . S
N834 S832 1.610 . S
N834 C835 1.351 . S
C835 C829 1.428 . S
C835 N834 1.351 . S
C835 C836 1.434 . S
C836 C827 1.429 . S
C836 N833 1.350 . S
C836 C835 1.434 . S
C837 C838 1.369 . S
C837 C839 1.419 . S
C837 H841 0.930 . S
C838 C837 1.369 . S
C838 C847 1.429 . S
C839 C837 1.419 . S
C839 C840 1.363 . S
C839 H842 0.929 . S
C840 C839 1.363 . S
C840 C846 1.428 . S
H841 C837 0.930 . S
H842 C839 0.929 . S
S843 N844 1.613 . S
S843 N845 1.610 . S
N844 S843 1.613 . S
N844 C847 1.350 . S
N845 S843 1.610 . S
N845 C846 1.351 . S
C846 C840 1.428 . S
C846 N845 1.351 . S
C846 C847 1.434 . S
C847 C838 1.429 . S
C847 N844 1.350 . S
C847 C846 1.434 . S
C321 C6 1.188 . S
C323 C39 1.203 . S
C332 C49 1.099 . S
C334 C36 1.087 . S
C343 C76 1.016 . S
C345 C46 0.975 . S
C354 C9 1.169 . S
C356 C79 1.157 . S
C365 C1 1.175 . S
C367 C188 1.152 . S
C376 C156 1.178 . S
C378 C28 1.200 . S
C387 C41 1.229 . S
C389 C206 1.191 . S
C398 C66 1.051 . S
C400 C276 1.061 . S
C409 C161 1.091 . S
C411 C26 1.084 . S
C420 C246 1.070 . S
C422 C56 1.064 . S
C431 C296 1.162 . S
C433 C68 1.186 . S
C442 C16 1.190 . S
C444 C228 1.202 . S
C453 C19 1.337 . S
C455 C179 1.404 1_554 S
C464 C249 1.567 . S
C466 C81 1.588 . S
C475 C108 1.439 . S
C477 C299 1.380 . S
C486 C221 1.466 . S
C488 C129 1.462 . S
C497 C48 1.414 . S
C499 C148 1.359 . S
C508 C181 1.527 . S
C510 C89 1.508 . S
C519 C121 1.568 . S
C521 C209 1.588 . S
C530 C101 1.103 . S
C532 C226 1.088 . S
C541 C186 1.017 . S
C543 C116 0.977 . S
C552 C239 1.197 . S
C554 C146 1.183 . S
C563 C109 1.229 . S
C565 C96 1.184 . S
C574 C196 1.042 . S
C576 C166 1.054 . S
C585 C269 1.089 . S
C587 C236 1.079 . S
C596 C136 1.064 . S
C598 C106 1.059 . S
C607 C199 1.189 . S
C609 C286 1.164 . S
C618 C268 1.401 . S
C620 C8 1.332 1_556 S
C629 C59 1.441 . S
C631 C288 1.384 . S
C640 C241 1.462 . S
C642 C29 1.465 . S
C651 C159 1.351 . S
C653 C119 1.408 . S
C662 C69 1.525 . S
C664 C201 1.511 . S
C673 C256 1.042 . S
C675 C266 1.034 . S
C684 C149 1.515 . S
C686 C259 1.458 . S
C695 C128 1.460 . S
C697 C141 1.514 . S
C706 C86 1.102 . S
C708 C261 1.098 . S
C717 C248 1.457 . S
C719 C301 1.504 . S
C728 C308 1.388 1_556 S
C730 C168 1.434 . S
C739 C21 1.454 . S
C741 C189 1.422 . S
C750 C176 1.029 . S
C752 C126 1.042 . S
C761 C169 1.101 . S
C763 C216 1.099 . S
C772 C309 1.503 . S
C774 C139 1.458 . S
C783 C279 1.428 1_554 S
C785 C319 1.387 . S
C794 C229 1.455 . S
C796 C61 1.421 . S
C805 C219 1.553 . S
C807 C289 1.603 . S
C816 C208 1.474 . S
C818 C316 1.480 . S
C827 C88 1.555 . S
C829 C281 1.606 . S
C838 C306 1.481 . S
C840 C99 1.477 . S
