# Generated by pormake.
# Topology uod, (4)-cn, num edge types: 1
# Building blocks:
#     Node 0, Type 0, BuildingBlock: TATPOV_clean_sbu_0, # of connection points: 4
#     Node 1, Type 0, BuildingBlock: TATPOV_clean_sbu_0, # of connection points: 4
#     Node 2, Type 0, BuildingBlock: TATPOV_clean_sbu_0, # of connection points: 4
#     Node 3, Type 0, BuildingBlock: TATPOV_clean_sbu_0, # of connection points: 4
#     Node 4, Type 0, BuildingBlock: TATPOV_clean_sbu_0, # of connection points: 4
#     Node 5, Type 0, BuildingBlock: TATPOV_clean_sbu_0, # of connection points: 4
#     Node 6, Type 0, BuildingBlock: TATPOV_clean_sbu_0, # of connection points: 4
#     Node 7, Type 0, BuildingBlock: TATPOV_clean_sbu_0, # of connection points: 4
#     Node 8, Type 0, BuildingBlock: TATPOV_clean_sbu_0, # of connection points: 4
#     Node 9, Type 0, BuildingBlock: TATPOV_clean_sbu_0, # of connection points: 4
#     Node 10, Type 0, BuildingBlock: TATPOV_clean_sbu_0, # of connection points: 4
#     Node 11, Type 0, BuildingBlock: TATPOV_clean_sbu_0, # of connection points: 4
#     Node 12, Type 0, BuildingBlock: TATPOV_clean_sbu_0, # of connection points: 4
#     Node 13, Type 0, BuildingBlock: TATPOV_clean_sbu_0, # of connection points: 4
#     Node 14, Type 0, BuildingBlock: TATPOV_clean_sbu_0, # of connection points: 4
#     Node 15, Type 0, BuildingBlock: TATPOV_clean_sbu_0, # of connection points: 4
#     Node 16, Type 0, BuildingBlock: TATPOV_clean_sbu_0, # of connection points: 4
#     Node 17, Type 0, BuildingBlock: TATPOV_clean_sbu_0, # of connection points: 4
#     Node 18, Type 0, BuildingBlock: TATPOV_clean_sbu_0, # of connection points: 4
#     Node 19, Type 0, BuildingBlock: TATPOV_clean_sbu_0, # of connection points: 4
#     Node 20, Type 0, BuildingBlock: TATPOV_clean_sbu_0, # of connection points: 4
#     Node 21, Type 0, BuildingBlock: TATPOV_clean_sbu_0, # of connection points: 4
#     Node 22, Type 0, BuildingBlock: TATPOV_clean_sbu_0, # of connection points: 4
#     Node 23, Type 0, BuildingBlock: TATPOV_clean_sbu_0, # of connection points: 4
#     Node 24, Type 0, BuildingBlock: TATPOV_clean_sbu_0, # of connection points: 4
#     Node 25, Type 0, BuildingBlock: TATPOV_clean_sbu_0, # of connection points: 4
#     Node 26, Type 0, BuildingBlock: TATPOV_clean_sbu_0, # of connection points: 4
#     Node 27, Type 0, BuildingBlock: TATPOV_clean_sbu_0, # of connection points: 4
#     Node 28, Type 0, BuildingBlock: TATPOV_clean_sbu_0, # of connection points: 4
#     Node 29, Type 0, BuildingBlock: TATPOV_clean_sbu_0, # of connection points: 4
#     Node 30, Type 0, BuildingBlock: TATPOV_clean_sbu_0, # of connection points: 4
#     Node 31, Type 0, BuildingBlock: TATPOV_clean_sbu_0, # of connection points: 4
#     Edge 32, Type (0, 0), None
#     Edge 33, Type (0, 0), None
#     Edge 34, Type (0, 0), None
#     Edge 35, Type (0, 0), None
#     Edge 36, Type (0, 0), None
#     Edge 37, Type (0, 0), None
#     Edge 38, Type (0, 0), None
#     Edge 39, Type (0, 0), None
#     Edge 40, Type (0, 0), None
#     Edge 41, Type (0, 0), None
#     Edge 42, Type (0, 0), None
#     Edge 43, Type (0, 0), None
#     Edge 44, Type (0, 0), None
#     Edge 45, Type (0, 0), None
#     Edge 46, Type (0, 0), None
#     Edge 47, Type (0, 0), None
#     Edge 48, Type (0, 0), None
#     Edge 49, Type (0, 0), None
#     Edge 50, Type (0, 0), None
#     Edge 51, Type (0, 0), None
#     Edge 52, Type (0, 0), None
#     Edge 53, Type (0, 0), None
#     Edge 54, Type (0, 0), None
#     Edge 55, Type (0, 0), None
#     Edge 56, Type (0, 0), None
#     Edge 57, Type (0, 0), None
#     Edge 58, Type (0, 0), None
#     Edge 59, Type (0, 0), None
#     Edge 60, Type (0, 0), None
#     Edge 61, Type (0, 0), None
#     Edge 62, Type (0, 0), None
#     Edge 63, Type (0, 0), None
#     Edge 64, Type (0, 0), None
#     Edge 65, Type (0, 0), None
#     Edge 66, Type (0, 0), None
#     Edge 67, Type (0, 0), None
#     Edge 68, Type (0, 0), None
#     Edge 69, Type (0, 0), None
#     Edge 70, Type (0, 0), None
#     Edge 71, Type (0, 0), None
#     Edge 72, Type (0, 0), None
#     Edge 73, Type (0, 0), None
#     Edge 74, Type (0, 0), None
#     Edge 75, Type (0, 0), None
#     Edge 76, Type (0, 0), None
#     Edge 77, Type (0, 0), None
#     Edge 78, Type (0, 0), None
#     Edge 79, Type (0, 0), None
#     Edge 80, Type (0, 0), None
#     Edge 81, Type (0, 0), None
#     Edge 82, Type (0, 0), None
#     Edge 83, Type (0, 0), None
#     Edge 84, Type (0, 0), None
#     Edge 85, Type (0, 0), None
#     Edge 86, Type (0, 0), None
#     Edge 87, Type (0, 0), None
#     Edge 88, Type (0, 0), None
#     Edge 89, Type (0, 0), None
#     Edge 90, Type (0, 0), None
#     Edge 91, Type (0, 0), None
#     Edge 92, Type (0, 0), None
#     Edge 93, Type (0, 0), None
#     Edge 94, Type (0, 0), None
#     Edge 95, Type (0, 0), None
# Relax obj value: 0.230
# Max RMSD: 0.174
# Mean RMSD: 0.174
data_MOF--net-uod--node1-TATPOV_clean_sbu_0--edge1-none
_symmetry_space_group_name_H-M    P1
_symmetry_Int_Tables_number       1
_symmetry_cell_setting            triclinic
loop_
_symmetry_equiv_pos_as_xyz
'x, y, z'
_cell_length_a     25.266472
_cell_length_b     11.668983
_cell_length_c     39.236594
_cell_angle_alpha  89.999871
_cell_angle_beta   90.002246
_cell_angle_gamma 89.237402
loop_
_atom_site_label
_atom_site_type_symbol
_atom_site_fract_x
_atom_site_fract_y
_atom_site_fract_z
_atom_type_partial_charge
Zn0 Zn 0.98128 0.36129 0.12992 0.0
Zn1 Zn 0.98711 0.37278 0.05557 0.0
O2 O 0.9839 0.20019 0.06327 0.0
O3 O 0.96838 0.19278 0.11887 0.0
O4 O 0.98297 0.40014 0.00494 0.0
O5 O 0.9232 0.48589 0.13077 0.0
O6 O 0.92402 0.45097 0.07708 0.0
C7 C 0.97477 0.14309 0.09031 0.0
C8 C 0.08308 0.43402 0.09892 0.0
O9 O 0.05928 0.42647 0.07048 0.0
O10 O 0.05946 0.41112 0.12667 0.0
C11 C 0.00826 0.48134 -0.00888 0.0
O12 O 0.03682 0.54976 0.01003 0.0
C13 C 0.9244 0.52495 0.10074 0.0
Zn14 Zn 0.28268 0.86851 0.12991 0.0
Zn15 Zn 0.27684 0.85701 0.05556 0.0
O16 O 0.28005 0.02961 0.06326 0.0
O17 O 0.29559 0.03701 0.11886 0.0
O18 O 0.28097 0.82965 0.00493 0.0
O19 O 0.34077 0.7439 0.13076 0.0
O20 O 0.33993 0.77883 0.07707 0.0
C21 C 0.28919 0.08671 0.0903 0.0
C22 C 0.18088 0.79577 0.09892 0.0
O23 O 0.20467 0.80333 0.07047 0.0
O24 O 0.20451 0.81868 0.12666 0.0
C25 C 0.25569 0.74846 -0.00889 0.0
O26 O 0.22713 0.68004 0.01002 0.0
C27 C 0.33956 0.70485 0.10073 0.0
Zn28 Zn 0.01925 0.79884 0.06435 0.0
Zn29 Zn 0.01801 0.81494 0.1349 0.0
O30 O 0.99097 0.9697 0.11896 0.0
O31 O 0.99116 0.96486 0.06276 0.0
O32 O 0.01116 0.825 0.1859 0.0
O33 O 0.96995 0.66127 0.06695 0.0
O34 O 0.9727 0.6792 0.12281 0.0
C35 C 0.98297 0.01851 0.09042 0.0
C36 C 0.12315 0.78274 0.09864 0.0
O37 O 0.09712 0.79633 0.12613 0.0
O38 O 0.09944 0.77757 0.07015 0.0
C39 C 0.01042 0.73521 0.20418 0.0
O40 O 0.01569 0.63404 0.18982 0.0
C41 C 0.95662 0.6274 0.09635 0.0
Zn42 Zn 0.2447 0.43096 0.06434 0.0
Zn43 Zn 0.24596 0.41486 0.13489 0.0
O44 O 0.273 0.26009 0.11896 0.0
O45 O 0.27279 0.26494 0.06275 0.0
O46 O 0.25282 0.40479 0.18589 0.0
O47 O 0.294 0.56853 0.06694 0.0
O48 O 0.29127 0.55059 0.12281 0.0
C49 C 0.28099 0.21129 0.09041 0.0
C50 C 0.14081 0.44706 0.09864 0.0
O51 O 0.16685 0.43347 0.12613 0.0
O52 O 0.16451 0.45223 0.07015 0.0
C53 C 0.25354 0.49458 0.20417 0.0
O54 O 0.24825 0.59574 0.18981 0.0
C55 C 0.30734 0.6024 0.09634 0.0
Zn56 Zn 0.03267 0.61849 0.8154 0.0
Zn57 Zn 0.02684 0.60699 0.88975 0.0
O58 O 0.03006 0.77959 0.88205 0.0
O59 O 0.04558 0.78699 0.82644 0.0
O60 O 0.03098 0.57964 0.94037 0.0
O61 O 0.09076 0.49389 0.81455 0.0
O62 O 0.08993 0.52881 0.86824 0.0
C63 C 0.03919 0.83669 0.85501 0.0
C64 C 0.93088 0.54575 0.84639 0.0
O65 O 0.95467 0.55331 0.87484 0.0
O66 O 0.9545 0.56866 0.81865 0.0
C67 C 1.0057 0.49844 0.95419 0.0
O68 O 0.97714 0.43002 0.93529 0.0
C69 C 0.08956 0.45483 0.84458 0.0
Zn70 Zn 0.73127 0.11127 0.81541 0.0
Zn71 Zn 0.73712 0.12277 0.88976 0.0
O72 O 0.7339 0.95017 0.88206 0.0
O73 O 0.71837 0.94277 0.82645 0.0
O74 O 0.73298 0.15012 0.94038 0.0
O75 O 0.67318 0.23588 0.81456 0.0
O76 O 0.67402 0.20094 0.86825 0.0
C77 C 0.72476 0.89307 0.85502 0.0
C78 C 0.83307 0.18401 0.8464 0.0
O79 O 0.80928 0.17645 0.87484 0.0
O80 O 0.80944 0.1611 0.81865 0.0
C81 C 0.75827 0.23132 0.9542 0.0
O82 O 0.78683 0.29973 0.9353 0.0
C83 C 0.67439 0.27493 0.84459 0.0
Zn84 Zn 0.9947 0.18093 0.88097 0.0
Zn85 Zn 0.99594 0.16484 0.81041 0.0
O86 O 0.02299 0.01008 0.82635 0.0
O87 O 0.0228 0.01492 0.88256 0.0
O88 O 1.00279 0.15478 0.75941 0.0
O89 O 0.04401 0.31851 0.87837 0.0
O90 O 0.04126 0.30058 0.8225 0.0
C91 C 0.03098 0.96127 0.8549 0.0
C92 C 0.8908 0.19704 0.84668 0.0
O93 O 0.91683 0.18345 0.81919 0.0
O94 O 0.91451 0.20221 0.87517 0.0
C95 C 1.00353 0.24457 0.74114 0.0
O96 O 0.99826 0.34573 0.75549 0.0
C97 C 0.05733 0.35238 0.84897 0.0
Zn98 Zn 0.76926 0.54882 0.88097 0.0
Zn99 Zn 0.768 0.56492 0.81042 0.0
O100 O 0.74096 0.71968 0.82636 0.0
O101 O 0.74116 0.71484 0.88256 0.0
O102 O 0.76114 0.57499 0.75942 0.0
O103 O 0.71995 0.41124 0.87838 0.0
O104 O 0.72269 0.42918 0.82251 0.0
C105 C 0.73297 0.76849 0.85491 0.0
C106 C 0.87314 0.53272 0.84668 0.0
O107 O 0.84711 0.54631 0.81919 0.0
O108 O 0.84944 0.52755 0.87517 0.0
C109 C 0.76042 0.4852 0.74114 0.0
O110 O 0.76571 0.38404 0.7555 0.0
C111 C 0.70662 0.37738 0.84898 0.0
Zn112 Zn 0.98128 0.86129 0.62992 0.0
Zn113 Zn 0.98711 0.87278 0.55557 0.0
O114 O 0.9839 0.70019 0.56327 0.0
O115 O 0.96838 0.69278 0.61887 0.0
O116 O 0.98297 0.90014 0.50494 0.0
O117 O 0.92319 0.98589 0.63077 0.0
O118 O 0.92402 0.95097 0.57708 0.0
C119 C 0.97477 0.64309 0.59031 0.0
C120 C 0.08308 0.93402 0.59892 0.0
O121 O 0.05928 0.92647 0.57048 0.0
O122 O 0.05946 0.91112 0.62667 0.0
C123 C 0.00826 0.98134 0.49112 0.0
O124 O 0.03682 0.04976 0.51003 0.0
C125 C 0.9244 0.02495 0.60074 0.0
Zn126 Zn 0.28268 0.36851 0.62991 0.0
Zn127 Zn 0.27684 0.35701 0.55556 0.0
O128 O 0.28005 0.52961 0.56326 0.0
O129 O 0.29559 0.53701 0.61887 0.0
O130 O 0.28097 0.32965 0.50493 0.0
O131 O 0.34077 0.2439 0.63076 0.0
O132 O 0.33993 0.27883 0.57707 0.0
C133 C 0.28919 0.58671 0.5903 0.0
C134 C 0.18088 0.29577 0.59892 0.0
O135 O 0.20467 0.30333 0.57047 0.0
O136 O 0.20451 0.31868 0.62666 0.0
C137 C 0.25569 0.24846 0.49111 0.0
O138 O 0.22712 0.18004 0.51002 0.0
C139 C 0.33956 0.20485 0.60073 0.0
Zn140 Zn 0.01925 0.29884 0.56435 0.0
Zn141 Zn 0.01801 0.31494 0.6349 0.0
O142 O 0.99097 0.4697 0.61896 0.0
O143 O 0.99116 0.46486 0.56276 0.0
O144 O 0.01116 0.325 0.6859 0.0
O145 O 0.96995 0.16127 0.56695 0.0
O146 O 0.9727 0.1792 0.62281 0.0
C147 C 0.98297 0.51851 0.59042 0.0
C148 C 0.12315 0.28274 0.59864 0.0
O149 O 0.09712 0.29633 0.62613 0.0
O150 O 0.09944 0.27757 0.57015 0.0
C151 C 0.01042 0.23521 0.70418 0.0
O152 O 0.01569 0.13404 0.68982 0.0
C153 C 0.95662 0.1274 0.59635 0.0
Zn154 Zn 0.2447 0.93096 0.56434 0.0
Zn155 Zn 0.24596 0.91486 0.6349 0.0
O156 O 0.273 0.76009 0.61896 0.0
O157 O 0.27279 0.76494 0.56275 0.0
O158 O 0.25282 0.90479 0.68589 0.0
O159 O 0.294 0.06853 0.56694 0.0
O160 O 0.29127 0.05059 0.62281 0.0
C161 C 0.28099 0.71129 0.59041 0.0
C162 C 0.14081 0.94706 0.59864 0.0
O163 O 0.16685 0.93347 0.62613 0.0
O164 O 0.16451 0.95223 0.57015 0.0
C165 C 0.25354 -0.00542 0.70417 0.0
O166 O 0.24825 0.09574 0.68981 0.0
C167 C 0.30734 0.1024 0.59634 0.0
Zn168 Zn 0.03267 0.11849 0.3154 0.0
Zn169 Zn 0.02684 0.10699 0.38975 0.0
O170 O 0.03006 0.27959 0.38205 0.0
O171 O 0.04558 0.28699 0.32644 0.0
O172 O 0.03098 0.07964 0.44037 0.0
O173 O 0.09076 -0.00611 0.31455 0.0
O174 O 0.08993 0.02881 0.36824 0.0
C175 C 0.03919 0.33669 0.35501 0.0
C176 C 0.93088 0.04575 0.34639 0.0
O177 O 0.95467 0.05331 0.37484 0.0
O178 O 0.9545 0.06866 0.31865 0.0
C179 C 1.0057 -0.00156 0.45419 0.0
O180 O 0.97714 0.93002 0.43529 0.0
C181 C 0.08956 0.95483 0.34458 0.0
Zn182 Zn 0.73127 0.61127 0.31541 0.0
Zn183 Zn 0.73712 0.62277 0.38976 0.0
O184 O 0.7339 0.45017 0.38206 0.0
O185 O 0.71837 0.44277 0.32645 0.0
O186 O 0.73298 0.65012 0.44038 0.0
O187 O 0.67318 0.73588 0.31456 0.0
O188 O 0.67402 0.70094 0.36825 0.0
C189 C 0.72476 0.39307 0.35502 0.0
C190 C 0.83307 0.68401 0.3464 0.0
O191 O 0.80928 0.67645 0.37484 0.0
O192 O 0.80944 0.6611 0.31865 0.0
C193 C 0.75827 0.73132 0.4542 0.0
O194 O 0.78683 0.79973 0.4353 0.0
C195 C 0.67439 0.77493 0.34459 0.0
Zn196 Zn 0.9947 0.68093 0.38097 0.0
Zn197 Zn 0.99594 0.66484 0.31041 0.0
O198 O 0.02299 0.51008 0.32635 0.0
O199 O 0.0228 0.51492 0.38256 0.0
O200 O 1.00279 0.65478 0.25941 0.0
O201 O 0.04401 0.81851 0.37837 0.0
O202 O 0.04126 0.80058 0.3225 0.0
C203 C 0.03098 0.46127 0.3549 0.0
C204 C 0.89081 0.69704 0.34668 0.0
O205 O 0.91683 0.68345 0.31919 0.0
O206 O 0.91452 0.70221 0.37517 0.0
C207 C 1.00353 0.74457 0.24114 0.0
O208 O 0.99827 0.84573 0.25549 0.0
C209 C 0.05733 0.85237 0.34897 0.0
Zn210 Zn 0.76926 0.04882 0.38097 0.0
Zn211 Zn 0.768 0.06492 0.31042 0.0
O212 O 0.74096 0.21968 0.32636 0.0
O213 O 0.74116 0.21484 0.38256 0.0
O214 O 0.76114 0.07499 0.25942 0.0
O215 O 0.71995 0.91124 0.37838 0.0
O216 O 0.72269 0.92918 0.32251 0.0
C217 C 0.73297 0.26849 0.35491 0.0
C218 C 0.87315 0.03272 0.34668 0.0
O219 O 0.84711 0.04631 0.31919 0.0
O220 O 0.84944 0.02755 0.37517 0.0
C221 C 0.76042 0.9852 0.24114 0.0
O222 O 0.76571 0.88404 0.2555 0.0
C223 C 0.70662 0.87738 0.34898 0.0
Zn224 Zn 0.48128 0.36126 0.62992 0.0
Zn225 Zn 0.48712 0.37276 0.55557 0.0
O226 O 0.48391 0.20016 0.56326 0.0
O227 O 0.46837 0.19276 0.61887 0.0
O228 O 0.48298 0.40013 0.50494 0.0
O229 O 0.42319 0.48587 0.63077 0.0
O230 O 0.42403 0.45093 0.57708 0.0
C231 C 0.47477 0.14306 0.5903 0.0
C232 C 0.58308 0.43399 0.59893 0.0
O233 O 0.55929 0.42644 0.57048 0.0
O234 O 0.55945 0.41109 0.62667 0.0
C235 C 0.50826 0.48133 0.49112 0.0
O236 O 0.53682 0.54974 0.51003 0.0
C237 C 0.4244 0.52492 0.60074 0.0
Zn238 Zn 0.78268 0.86848 0.62993 0.0
Zn239 Zn 0.77685 0.85698 0.55558 0.0
O240 O 0.78006 0.02958 0.56328 0.0
O241 O 0.79559 0.03698 0.61888 0.0
O242 O 0.78099 0.82962 0.50495 0.0
O243 O 0.84077 0.74387 0.63078 0.0
O244 O 0.83994 0.7788 0.57709 0.0
C245 C 0.7892 0.08668 0.59032 0.0
C246 C 0.68088 0.79574 0.59893 0.0
O247 O 0.70468 0.8033 0.57048 0.0
O248 O 0.70451 0.81865 0.62668 0.0
C249 C 0.75571 0.74842 0.49113 0.0
O250 O 0.72715 0.68001 0.51003 0.0
C251 C 0.83957 0.70482 0.60075 0.0
Zn252 Zn 0.51926 0.79881 0.56435 0.0
Zn253 Zn 0.51801 0.81492 0.6349 0.0
O254 O 0.49097 0.96968 0.61896 0.0
O255 O 0.49117 0.96483 0.56276 0.0
O256 O 0.51116 0.82499 0.6859 0.0
O257 O 0.46996 0.66123 0.56695 0.0
O258 O 0.4727 0.67918 0.62281 0.0
C259 C 0.48298 0.01848 0.59041 0.0
C260 C 0.62315 0.78271 0.59864 0.0
O261 O 0.59712 0.7963 0.62613 0.0
O262 O 0.59945 0.77754 0.57015 0.0
C263 C 0.51042 0.73521 0.70418 0.0
O264 O 0.5157 0.63404 0.68982 0.0
C265 C 0.45663 0.62737 0.59635 0.0
Zn266 Zn 0.74471 0.43092 0.56436 0.0
Zn267 Zn 0.74595 0.41482 0.63491 0.0
O268 O 0.773 0.26006 0.61897 0.0
O269 O 0.7728 0.2649 0.56277 0.0
O270 O 0.7528 0.40476 0.68591 0.0
O271 O 0.79401 0.5685 0.56696 0.0
O272 O 0.79127 0.55056 0.62282 0.0
C273 C 0.78099 0.21126 0.59042 0.0
C274 C 0.64081 0.44702 0.59864 0.0
O275 O 0.66684 0.43344 0.62614 0.0
O276 O 0.66452 0.4522 0.57015 0.0
C277 C 0.75352 0.49455 0.70419 0.0
O278 O 0.74823 0.59571 0.68983 0.0
C279 C 0.80734 0.60236 0.59636 0.0
Zn280 Zn 0.53267 0.61852 0.3154 0.0
Zn281 Zn 0.52684 0.60702 0.38975 0.0
O282 O 0.53005 0.77962 0.38205 0.0
O283 O 0.54558 0.78702 0.32645 0.0
O284 O 0.53098 0.57965 0.44038 0.0
O285 O 0.59076 0.49391 0.31455 0.0
O286 O 0.58993 0.52885 0.36824 0.0
C287 C 0.53919 0.83672 0.35502 0.0
C288 C 0.43087 0.54578 0.34639 0.0
O289 O 0.45467 0.55334 0.37484 0.0
O290 O 0.4545 0.56869 0.31865 0.0
C291 C 0.50569 0.49845 0.45419 0.0
O292 O 0.47713 0.43003 0.43529 0.0
C293 C 0.58955 0.45486 0.34458 0.0
Zn294 Zn 0.23127 0.1113 0.31539 0.0
Zn295 Zn 0.2371 0.1228 0.38974 0.0
O296 O 0.23389 0.9502 0.38204 0.0
O297 O 0.21837 0.9428 0.32643 0.0
O298 O 0.23296 0.15016 0.44036 0.0
O299 O 0.17318 0.23591 0.31453 0.0
O300 O 0.17402 0.20098 0.36822 0.0
C301 C 0.22476 0.8931 0.355 0.0
C302 C 0.33307 0.18403 0.34639 0.0
O303 O 0.30927 0.17648 0.37483 0.0
O304 O 0.30944 0.16113 0.31864 0.0
C305 C 0.25825 0.23136 0.45418 0.0
O306 O 0.28681 0.29977 0.43528 0.0
C307 C 0.17439 0.27496 0.34456 0.0
Zn308 Zn 0.49469 0.18096 0.38097 0.0
Zn309 Zn 0.49594 0.16486 0.31042 0.0
O310 O 0.52299 0.0101 0.32636 0.0
O311 O 0.52279 0.01494 0.38256 0.0
O312 O 0.5028 0.15479 0.25942 0.0
O313 O 0.544 0.31854 0.37837 0.0
O314 O 0.54126 0.3006 0.3225 0.0
C315 C 0.53098 0.96129 0.35491 0.0
C316 C 0.3908 0.19706 0.34667 0.0
O317 O 0.41683 0.18348 0.31918 0.0
O318 O 0.41451 0.20224 0.37516 0.0
C319 C 0.50353 0.24457 0.24114 0.0
O320 O 0.49825 0.34574 0.25549 0.0
C321 C 0.55733 0.3524 0.34897 0.0
Zn322 Zn 0.26925 0.54886 0.38096 0.0
Zn323 Zn 0.268 0.56496 0.31041 0.0
O324 O 0.24096 0.71972 0.32634 0.0
O325 O 0.24115 0.71487 0.38255 0.0
O326 O 0.26115 0.57502 0.25941 0.0
O327 O 0.21994 0.41128 0.37836 0.0
O328 O 0.22269 0.42922 0.32249 0.0
C329 C 0.23296 0.76852 0.35489 0.0
C330 C 0.37314 0.53275 0.34667 0.0
O331 O 0.34711 0.54634 0.31918 0.0
O332 O 0.34943 0.52758 0.37516 0.0
C333 C 0.26043 0.48523 0.24113 0.0
O334 O 0.26572 0.38407 0.25549 0.0
C335 C 0.20661 0.37741 0.34896 0.0
Zn336 Zn 0.48128 0.86126 0.12992 0.0
Zn337 Zn 0.48712 0.87276 0.05557 0.0
O338 O 0.48391 0.70016 0.06326 0.0
O339 O 0.46837 0.69276 0.11887 0.0
O340 O 0.48298 0.90013 0.00494 0.0
O341 O 0.42319 0.98587 0.13077 0.0
O342 O 0.42403 0.95093 0.07708 0.0
C343 C 0.47477 0.64306 0.0903 0.0
C344 C 0.58308 0.93399 0.09893 0.0
O345 O 0.55929 0.92644 0.07048 0.0
O346 O 0.55945 0.91109 0.12667 0.0
C347 C 0.50826 0.98133 -0.00888 0.0
O348 O 0.53682 0.04974 0.01003 0.0
C349 C 0.4244 0.02492 0.10074 0.0
Zn350 Zn 0.78268 0.36848 0.12993 0.0
Zn351 Zn 0.77685 0.35698 0.05558 0.0
O352 O 0.78006 0.52958 0.06328 0.0
O353 O 0.79559 0.53698 0.11888 0.0
O354 O 0.78099 0.32962 0.00495 0.0
O355 O 0.84077 0.24387 0.13078 0.0
O356 O 0.83994 0.2788 0.07709 0.0
C357 C 0.7892 0.58668 0.09031 0.0
C358 C 0.68088 0.29575 0.09893 0.0
O359 O 0.70468 0.3033 0.07048 0.0
O360 O 0.70451 0.31865 0.12668 0.0
C361 C 0.75571 0.24842 -0.00887 0.0
O362 O 0.72715 0.18001 0.01003 0.0
C363 C 0.83957 0.20482 0.10075 0.0
Zn364 Zn 0.51926 0.29882 0.06435 0.0
Zn365 Zn 0.51801 0.31492 0.1349 0.0
O366 O 0.49097 0.46968 0.11896 0.0
O367 O 0.49117 0.46484 0.06276 0.0
O368 O 0.51116 0.32499 0.1859 0.0
O369 O 0.46996 0.16124 0.06695 0.0
O370 O 0.4727 0.17918 0.12281 0.0
C371 C 0.48298 0.51848 0.09041 0.0
C372 C 0.62315 0.28271 0.09864 0.0
O373 O 0.59712 0.2963 0.12614 0.0
O374 O 0.59945 0.27754 0.07015 0.0
C375 C 0.51042 0.23521 0.20418 0.0
O376 O 0.5157 0.13404 0.18982 0.0
C377 C 0.45663 0.12738 0.09635 0.0
Zn378 Zn 0.74471 0.93092 0.06436 0.0
Zn379 Zn 0.74595 0.91482 0.13491 0.0
O380 O 0.773 0.76006 0.11897 0.0
O381 O 0.7728 0.7649 0.06277 0.0
O382 O 0.7528 0.90476 0.18591 0.0
O383 O 0.79401 0.0685 0.06696 0.0
O384 O 0.79127 0.05056 0.12282 0.0
C385 C 0.78099 0.71126 0.09042 0.0
C386 C 0.64081 0.94703 0.09864 0.0
O387 O 0.66684 0.93344 0.12614 0.0
O388 O 0.66452 0.9522 0.07015 0.0
C389 C 0.75352 -0.00545 0.20419 0.0
O390 O 0.74823 0.09571 0.18983 0.0
C391 C 0.80734 0.10236 0.09636 0.0
Zn392 Zn 0.53267 0.11852 0.8154 0.0
Zn393 Zn 0.52684 0.10702 0.88975 0.0
O394 O 0.53005 0.27961 0.88205 0.0
O395 O 0.54558 0.28702 0.82645 0.0
O396 O 0.53098 0.07965 0.94038 0.0
O397 O 0.59076 -0.00609 0.81455 0.0
O398 O 0.58993 0.02884 0.86824 0.0
C399 C 0.53919 0.33671 0.85502 0.0
C400 C 0.43087 0.04578 0.84639 0.0
O401 O 0.45467 0.05334 0.87484 0.0
O402 O 0.4545 0.06869 0.81865 0.0
C403 C 0.50569 -0.00155 0.95419 0.0
O404 O 0.47713 0.93003 0.93529 0.0
C405 C 0.58955 0.95486 0.84458 0.0
Zn406 Zn 0.23127 0.6113 0.81539 0.0
Zn407 Zn 0.2371 0.6228 0.88974 0.0
O408 O 0.23389 0.4502 0.88204 0.0
O409 O 0.21837 0.4428 0.82643 0.0
O410 O 0.23296 0.65016 0.94036 0.0
O411 O 0.17318 0.73591 0.81453 0.0
O412 O 0.17402 0.70097 0.86822 0.0
C413 C 0.22476 0.3931 0.855 0.0
C414 C 0.33307 0.68403 0.84639 0.0
O415 O 0.30927 0.67648 0.87483 0.0
O416 O 0.30944 0.66113 0.81864 0.0
C417 C 0.25825 0.73136 0.95418 0.0
O418 O 0.28681 0.79977 0.93528 0.0
C419 C 0.17439 0.77496 0.84456 0.0
Zn420 Zn 0.49469 0.68096 0.88097 0.0
Zn421 Zn 0.49594 0.66486 0.81042 0.0
O422 O 0.52299 0.5101 0.82636 0.0
O423 O 0.52279 0.51494 0.88256 0.0
O424 O 0.5028 0.65479 0.75942 0.0
O425 O 0.544 0.81854 0.87837 0.0
O426 O 0.54126 0.8006 0.8225 0.0
C427 C 0.53098 0.46129 0.85491 0.0
C428 C 0.3908 0.69706 0.84667 0.0
O429 O 0.41683 0.68347 0.81918 0.0
O430 O 0.41451 0.70223 0.87516 0.0
C431 C 0.50353 0.74457 0.74114 0.0
O432 O 0.49825 0.84574 0.75549 0.0
C433 C 0.55733 0.8524 0.84897 0.0
Zn434 Zn 0.26925 0.04885 0.88096 0.0
Zn435 Zn 0.268 0.06495 0.81041 0.0
O436 O 0.24096 0.21972 0.82634 0.0
O437 O 0.24115 0.21487 0.88255 0.0
O438 O 0.26115 0.07502 0.75941 0.0
O439 O 0.21994 0.91128 0.87836 0.0
O440 O 0.22269 0.92922 0.82249 0.0
C441 C 0.23296 0.26852 0.85489 0.0
C442 C 0.37314 0.03275 0.84667 0.0
O443 O 0.34711 0.04634 0.81918 0.0
O444 O 0.34943 0.02758 0.87516 0.0
C445 C 0.26043 0.98523 0.74113 0.0
O446 O 0.26572 0.88407 0.75549 0.0
C447 C 0.20661 0.87741 0.84896 0.0
loop_
_geom_bond_atom_site_label_1
_geom_bond_atom_site_label_2
_geom_bond_distance
_geom_bond_site_symmetry_2
_ccdc_geom_bond_type
Zn0 O3 2.031 . S
Zn0 O5 2.049 1_455 S
Zn0 O10 2.067 . S
Zn1 O2 1.962 . S
Zn1 O4 1.986 . S
Zn1 O6 1.996 . S
Zn1 O9 1.943 1_655 S
O2 Zn1 1.962 . S
O2 C7 1.254 . S
O3 Zn0 2.031 . S
O3 C7 1.269 1_455 S
O4 Zn1 1.986 . S
O4 C11 1.262 . S
O5 Zn0 2.049 1_655 S
O5 C13 1.260 . S
O6 Zn1 1.996 . S
O6 C13 1.257 . S
C7 O2 1.254 . S
C7 O3 1.269 1_655 S
C8 O9 1.249 . S
C8 O10 1.270 . S
O9 Zn1 1.943 1_455 S
O9 C8 1.249 . S
O10 Zn0 2.067 . S
O10 C8 1.270 . S
C11 O4 1.262 . S
C11 O12 1.232 1_655 S
O12 C11 1.232 1_455 S
C13 O5 1.260 . S
C13 O6 1.257 . S
Zn14 O17 2.031 1_565 S
Zn14 O19 2.049 . S
Zn14 O24 2.067 . S
Zn15 O16 1.962 . S
Zn15 O18 1.986 . S
Zn15 O20 1.996 . S
Zn15 O23 1.943 . S
O16 Zn15 1.962 . S
O16 C21 1.254 1_565 S
O17 Zn14 2.031 1_545 S
O17 C21 1.269 . S
O18 Zn15 1.986 . S
O18 C25 1.262 . S
O19 Zn14 2.049 . S
O19 C27 1.260 . S
O20 Zn15 1.996 . S
O20 C27 1.257 . S
C21 O16 1.254 1_545 S
C21 O17 1.269 . S
C22 O23 1.249 . S
C22 O24 1.270 . S
O23 Zn15 1.943 . S
O23 C22 1.249 . S
O24 Zn14 2.067 . S
O24 C22 1.270 . S
C25 O18 1.262 . S
C25 O26 1.232 . S
O26 C25 1.232 . S
C27 O19 1.260 . S
C27 O20 1.257 . S
Zn28 O31 2.031 1_565 S
Zn28 O33 2.049 1_455 S
Zn28 O38 2.067 . S
Zn29 O30 1.962 . S
Zn29 O32 1.986 . S
Zn29 O34 1.996 . S
Zn29 O37 1.943 1_655 S
O30 Zn29 1.962 . S
O30 C35 1.254 1_565 S
O31 Zn28 2.031 1_545 S
O31 C35 1.269 1_455 S
O32 Zn29 1.986 . S
O32 C39 1.262 . S
O33 Zn28 2.049 1_655 S
O33 C41 1.260 . S
O34 Zn29 1.996 . S
O34 C41 1.257 . S
C35 O30 1.254 1_545 S
C35 O31 1.269 1_655 S
C36 O37 1.249 . S
C36 O38 1.270 . S
O37 Zn29 1.943 1_455 S
O37 C36 1.249 . S
O38 Zn28 2.067 . S
O38 C36 1.270 . S
C39 O32 1.262 . S
C39 O40 1.232 1_655 S
O40 C39 1.232 1_455 S
C41 O33 1.260 . S
C41 O34 1.257 . S
Zn42 O45 2.031 . S
Zn42 O47 2.049 . S
Zn42 O52 2.067 . S
Zn43 O44 1.962 . S
Zn43 O46 1.986 . S
Zn43 O48 1.996 . S
Zn43 O51 1.943 . S
O44 Zn43 1.962 . S
O44 C49 1.254 . S
O45 Zn42 2.031 . S
O45 C49 1.269 . S
O46 Zn43 1.986 . S
O46 C53 1.262 . S
O47 Zn42 2.049 . S
O47 C55 1.260 . S
O48 Zn43 1.996 . S
O48 C55 1.257 . S
C49 O44 1.254 . S
C49 O45 1.269 . S
C50 O51 1.249 . S
C50 O52 1.270 . S
O51 Zn43 1.943 . S
O51 C50 1.249 . S
O52 Zn42 2.067 . S
O52 C50 1.270 . S
C53 O46 1.262 . S
C53 O54 1.232 . S
O54 C53 1.232 . S
C55 O47 1.260 . S
C55 O48 1.257 . S
Zn56 O59 2.031 . S
Zn56 O61 2.049 1_655 S
Zn56 O66 2.067 . S
Zn57 O58 1.962 . S
Zn57 O60 1.986 . S
Zn57 O62 1.996 . S
Zn57 O65 1.943 1_455 S
O58 Zn57 1.962 . S
O58 C63 1.254 . S
O59 Zn56 2.031 . S
O59 C63 1.269 1_655 S
O60 Zn57 1.986 . S
O60 C67 1.262 . S
O61 Zn56 2.049 1_455 S
O61 C69 1.260 . S
O62 Zn57 1.996 . S
O62 C69 1.257 . S
C63 O58 1.254 . S
C63 O59 1.269 1_455 S
C64 O65 1.249 . S
C64 O66 1.270 . S
O65 Zn57 1.943 1_655 S
O65 C64 1.249 . S
O66 Zn56 2.067 . S
O66 C64 1.270 . S
C67 O60 1.262 . S
C67 O68 1.232 1_455 S
O68 C67 1.232 1_655 S
C69 O61 1.260 . S
C69 O62 1.257 . S
Zn70 O73 2.031 1_545 S
Zn70 O75 2.049 . S
Zn70 O80 2.067 . S
Zn71 O72 1.962 . S
Zn71 O74 1.986 . S
Zn71 O76 1.996 . S
Zn71 O79 1.943 . S
O72 Zn71 1.962 . S
O72 C77 1.254 1_545 S
O73 Zn70 2.031 1_565 S
O73 C77 1.269 . S
O74 Zn71 1.986 . S
O74 C81 1.262 . S
O75 Zn70 2.049 . S
O75 C83 1.260 . S
O76 Zn71 1.996 . S
O76 C83 1.257 . S
C77 O72 1.254 1_565 S
C77 O73 1.269 . S
C78 O79 1.249 . S
C78 O80 1.270 . S
O79 Zn71 1.943 . S
O79 C78 1.249 . S
O80 Zn70 2.067 . S
O80 C78 1.270 . S
C81 O74 1.262 . S
C81 O82 1.232 . S
O82 C81 1.232 . S
C83 O75 1.260 . S
C83 O76 1.257 . S
Zn84 O87 2.031 1_545 S
Zn84 O89 2.049 1_655 S
Zn84 O94 2.067 . S
Zn85 O86 1.962 . S
Zn85 O88 1.986 . S
Zn85 O90 1.996 . S
Zn85 O93 1.943 1_455 S
O86 Zn85 1.962 . S
O86 C91 1.254 1_545 S
O87 Zn84 2.031 1_565 S
O87 C91 1.269 1_655 S
O88 Zn85 1.986 . S
O88 C95 1.262 . S
O89 Zn84 2.049 1_455 S
O89 C97 1.260 . S
O90 Zn85 1.996 . S
O90 C97 1.257 . S
C91 O86 1.254 1_565 S
C91 O87 1.269 1_455 S
C92 O93 1.249 . S
C92 O94 1.270 . S
O93 Zn85 1.943 1_655 S
O93 C92 1.249 . S
O94 Zn84 2.067 . S
O94 C92 1.270 . S
C95 O88 1.262 . S
C95 O96 1.232 1_455 S
O96 C95 1.232 1_655 S
C97 O89 1.260 . S
C97 O90 1.257 . S
Zn98 O101 2.031 . S
Zn98 O103 2.049 . S
Zn98 O108 2.067 . S
Zn99 O100 1.962 . S
Zn99 O102 1.986 . S
Zn99 O104 1.996 . S
Zn99 O107 1.943 . S
O100 Zn99 1.962 . S
O100 C105 1.254 . S
O101 Zn98 2.031 . S
O101 C105 1.269 . S
O102 Zn99 1.986 . S
O102 C109 1.262 . S
O103 Zn98 2.049 . S
O103 C111 1.260 . S
O104 Zn99 1.996 . S
O104 C111 1.257 . S
C105 O100 1.254 . S
C105 O101 1.269 . S
C106 O107 1.249 . S
C106 O108 1.270 . S
O107 Zn99 1.943 . S
O107 C106 1.249 . S
O108 Zn98 2.067 . S
O108 C106 1.270 . S
C109 O102 1.262 . S
C109 O110 1.232 . S
O110 C109 1.232 . S
C111 O103 1.260 . S
C111 O104 1.257 . S
Zn112 O115 2.031 . S
Zn112 O117 2.049 1_465 S
Zn112 O122 2.067 . S
Zn113 O114 1.962 . S
Zn113 O116 1.986 . S
Zn113 O118 1.996 . S
Zn113 O121 1.943 1_655 S
O114 Zn113 1.962 . S
O114 C119 1.254 . S
O115 Zn112 2.031 . S
O115 C119 1.269 1_455 S
O116 Zn113 1.986 . S
O116 C123 1.262 . S
O117 Zn112 2.049 1_645 S
O117 C125 1.260 . S
O118 Zn113 1.996 . S
O118 C125 1.257 1_565 S
C119 O114 1.254 . S
C119 O115 1.269 1_655 S
C120 O121 1.249 . S
C120 O122 1.270 . S
O121 Zn113 1.943 1_455 S
O121 C120 1.249 . S
O122 Zn112 2.067 . S
O122 C120 1.270 . S
C123 O116 1.262 . S
C123 O124 1.232 1_655 S
O124 C123 1.232 1_455 S
C125 O117 1.260 . S
C125 O118 1.257 1_545 S
Zn126 O129 2.031 . S
Zn126 O131 2.049 . S
Zn126 O136 2.067 . S
Zn127 O128 1.962 . S
Zn127 O130 1.986 . S
Zn127 O132 1.996 . S
Zn127 O135 1.943 . S
O128 Zn127 1.962 . S
O128 C133 1.254 . S
O129 Zn126 2.031 . S
O129 C133 1.269 . S
O130 Zn127 1.986 . S
O130 C137 1.262 . S
O131 Zn126 2.049 . S
O131 C139 1.260 . S
O132 Zn127 1.996 . S
O132 C139 1.257 . S
C133 O128 1.254 . S
C133 O129 1.269 . S
C134 O135 1.249 . S
C134 O136 1.270 . S
O135 Zn127 1.943 . S
O135 C134 1.249 . S
O136 Zn126 2.067 . S
O136 C134 1.270 . S
C137 O130 1.262 . S
C137 O138 1.232 . S
O138 C137 1.232 . S
C139 O131 1.260 . S
C139 O132 1.257 . S
Zn140 O143 2.031 . S
Zn140 O145 2.049 1_455 S
Zn140 O150 2.067 . S
Zn141 O142 1.962 . S
Zn141 O144 1.986 . S
Zn141 O146 1.996 . S
Zn141 O149 1.943 1_655 S
O142 Zn141 1.962 . S
O142 C147 1.254 . S
O143 Zn140 2.031 . S
O143 C147 1.269 1_455 S
O144 Zn141 1.986 . S
O144 C151 1.262 . S
O145 Zn140 2.049 1_655 S
O145 C153 1.260 . S
O146 Zn141 1.996 . S
O146 C153 1.257 . S
C147 O142 1.254 . S
C147 O143 1.269 1_655 S
C148 O149 1.249 . S
C148 O150 1.270 . S
O149 Zn141 1.943 1_455 S
O149 C148 1.249 . S
O150 Zn140 2.067 . S
O150 C148 1.270 . S
C151 O144 1.262 . S
C151 O152 1.232 1_655 S
O152 C151 1.232 1_455 S
C153 O145 1.260 . S
C153 O146 1.257 . S
Zn154 O157 2.031 . S
Zn154 O159 2.049 1_565 S
Zn154 O164 2.067 . S
Zn155 O156 1.962 . S
Zn155 O158 1.986 . S
Zn155 O160 1.996 . S
Zn155 O163 1.943 . S
O156 Zn155 1.962 . S
O156 C161 1.254 . S
O157 Zn154 2.031 . S
O157 C161 1.269 . S
O158 Zn155 1.986 . S
O158 C165 1.262 . S
O159 Zn154 2.049 1_545 S
O159 C167 1.260 . S
O160 Zn155 1.996 . S
O160 C167 1.257 1_565 S
C161 O156 1.254 . S
C161 O157 1.269 . S
C162 O163 1.249 . S
C162 O164 1.270 . S
O163 Zn155 1.943 . S
O163 C162 1.249 . S
O164 Zn154 2.067 . S
O164 C162 1.270 . S
C165 O158 1.262 . S
C165 O166 1.232 . S
O166 C165 1.232 . S
C167 O159 1.260 . S
C167 O160 1.257 1_545 S
Zn168 O171 2.031 . S
Zn168 O173 2.049 1_645 S
Zn168 O178 2.067 . S
Zn169 O170 1.962 . S
Zn169 O172 1.986 . S
Zn169 O174 1.996 . S
Zn169 O177 1.943 1_455 S
O170 Zn169 1.962 . S
O170 C175 1.254 . S
O171 Zn168 2.031 . S
O171 C175 1.269 1_655 S
O172 Zn169 1.986 . S
O172 C179 1.262 . S
O173 Zn168 2.049 1_465 S
O173 C181 1.260 . S
O174 Zn169 1.996 . S
O174 C181 1.257 1_545 S
C175 O170 1.254 . S
C175 O171 1.269 1_455 S
C176 O177 1.249 . S
C176 O178 1.270 . S
O177 Zn169 1.943 1_655 S
O177 C176 1.249 . S
O178 Zn168 2.067 . S
O178 C176 1.270 . S
C179 O172 1.262 . S
C179 O180 1.232 1_455 S
O180 C179 1.232 1_655 S
C181 O173 1.260 . S
C181 O174 1.257 1_565 S
Zn182 O185 2.031 . S
Zn182 O187 2.049 . S
Zn182 O192 2.067 . S
Zn183 O184 1.962 . S
Zn183 O186 1.986 . S
Zn183 O188 1.996 . S
Zn183 O191 1.943 . S
O184 Zn183 1.962 . S
O184 C189 1.254 . S
O185 Zn182 2.031 . S
O185 C189 1.269 . S
O186 Zn183 1.986 . S
O186 C193 1.262 . S
O187 Zn182 2.049 . S
O187 C195 1.260 . S
O188 Zn183 1.996 . S
O188 C195 1.257 . S
C189 O184 1.254 . S
C189 O185 1.269 . S
C190 O191 1.249 . S
C190 O192 1.270 . S
O191 Zn183 1.943 . S
O191 C190 1.249 . S
O192 Zn182 2.067 . S
O192 C190 1.270 . S
C193 O186 1.262 . S
C193 O194 1.232 . S
O194 C193 1.232 . S
C195 O187 1.260 . S
C195 O188 1.257 . S
Zn196 O199 2.031 . S
Zn196 O201 2.049 1_655 S
Zn196 O206 2.067 . S
Zn197 O198 1.962 . S
Zn197 O200 1.986 . S
Zn197 O202 1.996 . S
Zn197 O205 1.943 1_455 S
O198 Zn197 1.962 . S
O198 C203 1.254 . S
O199 Zn196 2.031 . S
O199 C203 1.269 1_655 S
O200 Zn197 1.986 . S
O200 C207 1.262 . S
O201 Zn196 2.049 1_455 S
O201 C209 1.260 . S
O202 Zn197 1.996 . S
O202 C209 1.257 . S
C203 O198 1.254 . S
C203 O199 1.269 1_455 S
C204 O205 1.249 . S
C204 O206 1.270 . S
O205 Zn197 1.943 1_655 S
O205 C204 1.249 . S
O206 Zn196 2.067 . S
O206 C204 1.270 . S
C207 O200 1.262 . S
C207 O208 1.232 1_455 S
O208 C207 1.232 1_655 S
C209 O201 1.260 . S
C209 O202 1.257 . S
Zn210 O213 2.031 . S
Zn210 O215 2.049 1_545 S
Zn210 O220 2.067 . S
Zn211 O212 1.962 . S
Zn211 O214 1.986 . S
Zn211 O216 1.996 . S
Zn211 O219 1.943 . S
O212 Zn211 1.962 . S
O212 C217 1.254 . S
O213 Zn210 2.031 . S
O213 C217 1.269 . S
O214 Zn211 1.986 . S
O214 C221 1.262 . S
O215 Zn210 2.049 1_565 S
O215 C223 1.260 . S
O216 Zn211 1.996 . S
O216 C223 1.257 1_545 S
C217 O212 1.254 . S
C217 O213 1.269 . S
C218 O219 1.249 . S
C218 O220 1.270 . S
O219 Zn211 1.943 . S
O219 C218 1.249 . S
O220 Zn210 2.067 . S
O220 C218 1.270 . S
C221 O214 1.262 . S
C221 O222 1.232 . S
O222 C221 1.232 . S
C223 O215 1.260 . S
C223 O216 1.257 1_565 S
Zn224 O227 2.031 . S
Zn224 O229 2.049 . S
Zn224 O234 2.067 . S
Zn225 O226 1.962 . S
Zn225 O228 1.986 . S
Zn225 O230 1.996 . S
Zn225 O233 1.943 . S
O226 Zn225 1.962 . S
O226 C231 1.254 . S
O227 Zn224 2.031 . S
O227 C231 1.269 . S
O228 Zn225 1.986 . S
O228 C235 1.262 . S
O229 Zn224 2.049 . S
O229 C237 1.260 . S
O230 Zn225 1.996 . S
O230 C237 1.257 . S
C231 O226 1.254 . S
C231 O227 1.269 . S
C232 O233 1.249 . S
C232 O234 1.270 . S
O233 Zn225 1.943 . S
O233 C232 1.249 . S
O234 Zn224 2.067 . S
O234 C232 1.270 . S
C235 O228 1.262 . S
C235 O236 1.232 . S
O236 C235 1.232 . S
C237 O229 1.260 . S
C237 O230 1.257 . S
Zn238 O241 2.031 1_565 S
Zn238 O243 2.049 . S
Zn238 O248 2.067 . S
Zn239 O240 1.962 . S
Zn239 O242 1.986 . S
Zn239 O244 1.996 . S
Zn239 O247 1.943 . S
O240 Zn239 1.962 . S
O240 C245 1.254 1_565 S
O241 Zn238 2.031 1_545 S
O241 C245 1.269 . S
O242 Zn239 1.986 . S
O242 C249 1.262 . S
O243 Zn238 2.049 . S
O243 C251 1.260 . S
O244 Zn239 1.996 . S
O244 C251 1.257 . S
C245 O240 1.254 1_545 S
C245 O241 1.269 . S
C246 O247 1.249 . S
C246 O248 1.270 . S
O247 Zn239 1.943 . S
O247 C246 1.249 . S
O248 Zn238 2.067 . S
O248 C246 1.270 . S
C249 O242 1.262 . S
C249 O250 1.232 . S
O250 C249 1.232 . S
C251 O243 1.260 . S
C251 O244 1.257 . S
Zn252 O255 2.031 1_565 S
Zn252 O257 2.049 . S
Zn252 O262 2.067 . S
Zn253 O254 1.962 . S
Zn253 O256 1.986 . S
Zn253 O258 1.996 . S
Zn253 O261 1.943 . S
O254 Zn253 1.962 . S
O254 C259 1.254 1_565 S
O255 Zn252 2.031 1_545 S
O255 C259 1.269 . S
O256 Zn253 1.986 . S
O256 C263 1.262 . S
O257 Zn252 2.049 . S
O257 C265 1.260 . S
O258 Zn253 1.996 . S
O258 C265 1.257 . S
C259 O254 1.254 1_545 S
C259 O255 1.269 . S
C260 O261 1.249 . S
C260 O262 1.270 . S
O261 Zn253 1.943 . S
O261 C260 1.249 . S
O262 Zn252 2.067 . S
O262 C260 1.270 . S
C263 O256 1.262 . S
C263 O264 1.232 . S
O264 C263 1.232 . S
C265 O257 1.260 . S
C265 O258 1.257 . S
Zn266 O269 2.031 . S
Zn266 O271 2.049 . S
Zn266 O276 2.067 . S
Zn267 O268 1.962 . S
Zn267 O270 1.986 . S
Zn267 O272 1.996 . S
Zn267 O275 1.943 . S
O268 Zn267 1.962 . S
O268 C273 1.254 . S
O269 Zn266 2.031 . S
O269 C273 1.269 . S
O270 Zn267 1.986 . S
O270 C277 1.262 . S
O271 Zn266 2.049 . S
O271 C279 1.260 . S
O272 Zn267 1.996 . S
O272 C279 1.257 . S
C273 O268 1.254 . S
C273 O269 1.269 . S
C274 O275 1.249 . S
C274 O276 1.270 . S
O275 Zn267 1.943 . S
O275 C274 1.249 . S
O276 Zn266 2.067 . S
O276 C274 1.270 . S
C277 O270 1.262 . S
C277 O278 1.232 . S
O278 C277 1.232 . S
C279 O271 1.260 . S
C279 O272 1.257 . S
Zn280 O283 2.031 . S
Zn280 O285 2.049 . S
Zn280 O290 2.067 . S
Zn281 O282 1.962 . S
Zn281 O284 1.986 . S
Zn281 O286 1.996 . S
Zn281 O289 1.943 . S
O282 Zn281 1.962 . S
O282 C287 1.254 . S
O283 Zn280 2.031 . S
O283 C287 1.269 . S
O284 Zn281 1.986 . S
O284 C291 1.262 . S
O285 Zn280 2.049 . S
O285 C293 1.260 . S
O286 Zn281 1.996 . S
O286 C293 1.257 . S
C287 O282 1.254 . S
C287 O283 1.269 . S
C288 O289 1.249 . S
C288 O290 1.270 . S
O289 Zn281 1.943 . S
O289 C288 1.249 . S
O290 Zn280 2.067 . S
O290 C288 1.270 . S
C291 O284 1.262 . S
C291 O292 1.232 . S
O292 C291 1.232 . S
C293 O285 1.260 . S
C293 O286 1.257 . S
Zn294 O297 2.031 1_545 S
Zn294 O299 2.049 . S
Zn294 O304 2.067 . S
Zn295 O296 1.962 . S
Zn295 O298 1.986 . S
Zn295 O300 1.996 . S
Zn295 O303 1.943 . S
O296 Zn295 1.962 . S
O296 C301 1.254 1_545 S
O297 Zn294 2.031 1_565 S
O297 C301 1.269 . S
O298 Zn295 1.986 . S
O298 C305 1.262 . S
O299 Zn294 2.049 . S
O299 C307 1.260 . S
O300 Zn295 1.996 . S
O300 C307 1.257 . S
C301 O296 1.254 1_565 S
C301 O297 1.269 . S
C302 O303 1.249 . S
C302 O304 1.270 . S
O303 Zn295 1.943 . S
O303 C302 1.249 . S
O304 Zn294 2.067 . S
O304 C302 1.270 . S
C305 O298 1.262 . S
C305 O306 1.232 . S
O306 C305 1.232 . S
C307 O299 1.260 . S
C307 O300 1.257 . S
Zn308 O311 2.031 1_545 S
Zn308 O313 2.049 . S
Zn308 O318 2.067 . S
Zn309 O310 1.962 . S
Zn309 O312 1.986 . S
Zn309 O314 1.996 . S
Zn309 O317 1.943 . S
O310 Zn309 1.962 . S
O310 C315 1.254 1_545 S
O311 Zn308 2.031 1_565 S
O311 C315 1.269 . S
O312 Zn309 1.986 . S
O312 C319 1.262 . S
O313 Zn308 2.049 . S
O313 C321 1.260 . S
O314 Zn309 1.996 . S
O314 C321 1.257 . S
C315 O310 1.254 1_565 S
C315 O311 1.269 . S
C316 O317 1.249 . S
C316 O318 1.270 . S
O317 Zn309 1.943 . S
O317 C316 1.249 . S
O318 Zn308 2.067 . S
O318 C316 1.270 . S
C319 O312 1.262 . S
C319 O320 1.232 . S
O320 C319 1.232 . S
C321 O313 1.260 . S
C321 O314 1.257 . S
Zn322 O325 2.031 . S
Zn322 O327 2.049 . S
Zn322 O332 2.067 . S
Zn323 O324 1.962 . S
Zn323 O326 1.986 . S
Zn323 O328 1.996 . S
Zn323 O331 1.943 . S
O324 Zn323 1.962 . S
O324 C329 1.254 . S
O325 Zn322 2.031 . S
O325 C329 1.269 . S
O326 Zn323 1.986 . S
O326 C333 1.262 . S
O327 Zn322 2.049 . S
O327 C335 1.260 . S
O328 Zn323 1.996 . S
O328 C335 1.257 . S
C329 O324 1.254 . S
C329 O325 1.269 . S
C330 O331 1.249 . S
C330 O332 1.270 . S
O331 Zn323 1.943 . S
O331 C330 1.249 . S
O332 Zn322 2.067 . S
O332 C330 1.270 . S
C333 O326 1.262 . S
C333 O334 1.232 . S
O334 C333 1.232 . S
C335 O327 1.260 . S
C335 O328 1.257 . S
Zn336 O339 2.031 . S
Zn336 O341 2.049 1_565 S
Zn336 O346 2.067 . S
Zn337 O338 1.962 . S
Zn337 O340 1.986 . S
Zn337 O342 1.996 . S
Zn337 O345 1.943 . S
O338 Zn337 1.962 . S
O338 C343 1.254 . S
O339 Zn336 2.031 . S
O339 C343 1.269 . S
O340 Zn337 1.986 . S
O340 C347 1.262 . S
O341 Zn336 2.049 1_545 S
O341 C349 1.260 . S
O342 Zn337 1.996 . S
O342 C349 1.257 1_565 S
C343 O338 1.254 . S
C343 O339 1.269 . S
C344 O345 1.249 . S
C344 O346 1.270 . S
O345 Zn337 1.943 . S
O345 C344 1.249 . S
O346 Zn336 2.067 . S
O346 C344 1.270 . S
C347 O340 1.262 . S
C347 O348 1.232 . S
O348 C347 1.232 . S
C349 O341 1.260 . S
C349 O342 1.257 1_545 S
Zn350 O353 2.031 . S
Zn350 O355 2.049 . S
Zn350 O360 2.067 . S
Zn351 O352 1.962 . S
Zn351 O354 1.986 . S
Zn351 O356 1.996 . S
Zn351 O359 1.943 . S
O352 Zn351 1.962 . S
O352 C357 1.254 . S
O353 Zn350 2.031 . S
O353 C357 1.269 . S
O354 Zn351 1.986 . S
O354 C361 1.262 . S
O355 Zn350 2.049 . S
O355 C363 1.260 . S
O356 Zn351 1.996 . S
O356 C363 1.257 . S
C357 O352 1.254 . S
C357 O353 1.269 . S
C358 O359 1.249 . S
C358 O360 1.270 . S
O359 Zn351 1.943 . S
O359 C358 1.249 . S
O360 Zn350 2.067 . S
O360 C358 1.270 . S
C361 O354 1.262 . S
C361 O362 1.232 . S
O362 C361 1.232 . S
C363 O355 1.260 . S
C363 O356 1.257 . S
Zn364 O367 2.031 . S
Zn364 O369 2.049 . S
Zn364 O374 2.067 . S
Zn365 O366 1.962 . S
Zn365 O368 1.986 . S
Zn365 O370 1.996 . S
Zn365 O373 1.943 . S
O366 Zn365 1.962 . S
O366 C371 1.254 . S
O367 Zn364 2.031 . S
O367 C371 1.269 . S
O368 Zn365 1.986 . S
O368 C375 1.262 . S
O369 Zn364 2.049 . S
O369 C377 1.260 . S
O370 Zn365 1.996 . S
O370 C377 1.257 . S
C371 O366 1.254 . S
C371 O367 1.269 . S
C372 O373 1.249 . S
C372 O374 1.270 . S
O373 Zn365 1.943 . S
O373 C372 1.249 . S
O374 Zn364 2.067 . S
O374 C372 1.270 . S
C375 O368 1.262 . S
C375 O376 1.232 . S
O376 C375 1.232 . S
C377 O369 1.260 . S
C377 O370 1.257 . S
Zn378 O381 2.031 . S
Zn378 O383 2.049 1_565 S
Zn378 O388 2.067 . S
Zn379 O380 1.962 . S
Zn379 O382 1.986 . S
Zn379 O384 1.996 . S
Zn379 O387 1.943 . S
O380 Zn379 1.962 . S
O380 C385 1.254 . S
O381 Zn378 2.031 . S
O381 C385 1.269 . S
O382 Zn379 1.986 . S
O382 C389 1.262 . S
O383 Zn378 2.049 1_545 S
O383 C391 1.260 . S
O384 Zn379 1.996 . S
O384 C391 1.257 1_565 S
C385 O380 1.254 . S
C385 O381 1.269 . S
C386 O387 1.249 . S
C386 O388 1.270 . S
O387 Zn379 1.943 . S
O387 C386 1.249 . S
O388 Zn378 2.067 . S
O388 C386 1.270 . S
C389 O382 1.262 . S
C389 O390 1.232 . S
O390 C389 1.232 . S
C391 O383 1.260 . S
C391 O384 1.257 1_545 S
Zn392 O395 2.031 . S
Zn392 O397 2.049 1_545 S
Zn392 O402 2.067 . S
Zn393 O394 1.962 . S
Zn393 O396 1.986 . S
Zn393 O398 1.996 . S
Zn393 O401 1.943 . S
O394 Zn393 1.962 . S
O394 C399 1.254 . S
O395 Zn392 2.031 . S
O395 C399 1.269 . S
O396 Zn393 1.986 . S
O396 C403 1.262 . S
O397 Zn392 2.049 1_565 S
O397 C405 1.260 . S
O398 Zn393 1.996 . S
O398 C405 1.257 1_545 S
C399 O394 1.254 . S
C399 O395 1.269 . S
C400 O401 1.249 . S
C400 O402 1.270 . S
O401 Zn393 1.943 . S
O401 C400 1.249 . S
O402 Zn392 2.067 . S
O402 C400 1.270 . S
C403 O396 1.262 . S
C403 O404 1.232 . S
O404 C403 1.232 . S
C405 O397 1.260 . S
C405 O398 1.257 1_565 S
Zn406 O409 2.031 . S
Zn406 O411 2.049 . S
Zn406 O416 2.067 . S
Zn407 O408 1.962 . S
Zn407 O410 1.986 . S
Zn407 O412 1.996 . S
Zn407 O415 1.943 . S
O408 Zn407 1.962 . S
O408 C413 1.254 . S
O409 Zn406 2.031 . S
O409 C413 1.269 . S
O410 Zn407 1.986 . S
O410 C417 1.262 . S
O411 Zn406 2.049 . S
O411 C419 1.260 . S
O412 Zn407 1.996 . S
O412 C419 1.257 . S
C413 O408 1.254 . S
C413 O409 1.269 . S
C414 O415 1.249 . S
C414 O416 1.270 . S
O415 Zn407 1.943 . S
O415 C414 1.249 . S
O416 Zn406 2.067 . S
O416 C414 1.270 . S
C417 O410 1.262 . S
C417 O418 1.232 . S
O418 C417 1.232 . S
C419 O411 1.260 . S
C419 O412 1.257 . S
Zn420 O423 2.031 . S
Zn420 O425 2.049 . S
Zn420 O430 2.067 . S
Zn421 O422 1.962 . S
Zn421 O424 1.986 . S
Zn421 O426 1.996 . S
Zn421 O429 1.943 . S
O422 Zn421 1.962 . S
O422 C427 1.254 . S
O423 Zn420 2.031 . S
O423 C427 1.269 . S
O424 Zn421 1.986 . S
O424 C431 1.262 . S
O425 Zn420 2.049 . S
O425 C433 1.260 . S
O426 Zn421 1.996 . S
O426 C433 1.257 . S
C427 O422 1.254 . S
C427 O423 1.269 . S
C428 O429 1.249 . S
C428 O430 1.270 . S
O429 Zn421 1.943 . S
O429 C428 1.249 . S
O430 Zn420 2.067 . S
O430 C428 1.270 . S
C431 O424 1.262 . S
C431 O432 1.232 . S
O432 C431 1.232 . S
C433 O425 1.260 . S
C433 O426 1.257 . S
Zn434 O437 2.031 . S
Zn434 O439 2.049 1_545 S
Zn434 O444 2.067 . S
Zn435 O436 1.962 . S
Zn435 O438 1.986 . S
Zn435 O440 1.996 . S
Zn435 O443 1.943 . S
O436 Zn435 1.962 . S
O436 C441 1.254 . S
O437 Zn434 2.031 . S
O437 C441 1.269 . S
O438 Zn435 1.986 . S
O438 C445 1.262 . S
O439 Zn434 2.049 1_565 S
O439 C447 1.260 . S
O440 Zn435 1.996 . S
O440 C447 1.257 1_545 S
C441 O436 1.254 . S
C441 O437 1.269 . S
C442 O443 1.249 . S
C442 O444 1.270 . S
O443 Zn435 1.943 . S
O443 C442 1.249 . S
O444 Zn434 2.067 . S
O444 C442 1.270 . S
C445 O438 1.262 . S
C445 O446 1.232 . S
O446 C445 1.232 . S
C447 O439 1.260 . S
C447 O440 1.257 1_565 S
C41 C13 1.852 . S
C27 C55 1.852 . S
C97 C69 1.852 . S
C111 C83 1.852 . S
C125 C153 1.852 . S
C167 C139 1.852 . S
C181 C209 1.852 . S
C195 C223 1.852 . S
C265 C237 1.852 . S
C251 C279 1.852 . S
C293 C321 1.852 . S
C335 C307 1.852 . S
C377 C349 1.852 . S
C391 C363 1.852 . S
C433 C405 1.852 . S
C419 C447 1.852 . S
C67 C11 2.136 1_456 S
C417 C25 2.136 1_556 S
C39 C207 2.136 1_655 S
C53 C333 2.136 . S
C81 C361 2.136 1_556 S
C95 C151 2.136 1_455 S
C277 C109 2.136 . S
C179 C123 2.136 1_445 S
C305 C137 2.136 . S
C165 C445 2.136 1_565 S
C193 C249 2.136 . S
C389 C221 2.136 1_565 S
C291 C235 2.136 . S
C263 C431 2.136 . S
C319 C375 2.136 . S
C403 C347 2.136 1_546 S
C50 C8 1.321 . S
C36 C22 1.321 . S
C106 C64 1.321 . S
C92 C78 1.321 . S
C162 C120 1.321 . S
C148 C134 1.321 . S
C218 C176 1.321 . S
C204 C190 1.321 . S
C232 C274 1.321 . S
C260 C246 1.321 . S
C288 C330 1.321 . S
C316 C302 1.321 . S
C386 C344 1.321 . S
C358 C372 1.321 . S
C400 C442 1.321 . S
C428 C414 1.321 . S
C35 C7 1.603 . S
C21 C49 1.603 . S
C63 C91 1.603 . S
C77 C105 1.603 . S
C119 C147 1.603 . S
C133 C161 1.603 . S
C203 C175 1.603 . S
C217 C189 1.603 . S
C259 C231 1.603 . S
C273 C245 1.603 . S
C287 C315 1.603 . S
C329 C301 1.603 . S
C371 C343 1.603 . S
C357 C385 1.603 . S
C399 C427 1.603 . S
C441 C413 1.603 . S
