# Generated by pormake.
# Topology ske, (6)-cn, num edge types: 1
# Building blocks:
#     Node 0, Type 0, BuildingBlock: HISSIN_clean_sbu_0, # of connection points: 6
#     Node 1, Type 0, BuildingBlock: HISSIN_clean_sbu_0, # of connection points: 6
#     Node 2, Type 0, BuildingBlock: HISSIN_clean_sbu_0, # of connection points: 6
#     Node 3, Type 0, BuildingBlock: HISSIN_clean_sbu_0, # of connection points: 6
#     Node 4, Type 0, BuildingBlock: HISSIN_clean_sbu_0, # of connection points: 6
#     Node 5, Type 0, BuildingBlock: HISSIN_clean_sbu_0, # of connection points: 6
#     Node 6, Type 0, BuildingBlock: HISSIN_clean_sbu_0, # of connection points: 6
#     Node 7, Type 0, BuildingBlock: HISSIN_clean_sbu_0, # of connection points: 6
#     Edge 8, Type (0, 0), BuildingBlock: CIFDUS_clean_linker_0, # of connection points: 2
#     Edge 9, Type (0, 0), BuildingBlock: CIFDUS_clean_linker_0, # of connection points: 2
#     Edge 10, Type (0, 0), BuildingBlock: CIFDUS_clean_linker_0, # of connection points: 2
#     Edge 11, Type (0, 0), BuildingBlock: CIFDUS_clean_linker_0, # of connection points: 2
#     Edge 12, Type (0, 0), BuildingBlock: CIFDUS_clean_linker_0, # of connection points: 2
#     Edge 13, Type (0, 0), BuildingBlock: CIFDUS_clean_linker_0, # of connection points: 2
#     Edge 14, Type (0, 0), BuildingBlock: CIFDUS_clean_linker_0, # of connection points: 2
#     Edge 15, Type (0, 0), BuildingBlock: CIFDUS_clean_linker_0, # of connection points: 2
#     Edge 16, Type (0, 0), BuildingBlock: CIFDUS_clean_linker_0, # of connection points: 2
#     Edge 17, Type (0, 0), BuildingBlock: CIFDUS_clean_linker_0, # of connection points: 2
#     Edge 18, Type (0, 0), BuildingBlock: CIFDUS_clean_linker_0, # of connection points: 2
#     Edge 19, Type (0, 0), BuildingBlock: CIFDUS_clean_linker_0, # of connection points: 2
#     Edge 20, Type (0, 0), BuildingBlock: CIFDUS_clean_linker_0, # of connection points: 2
#     Edge 21, Type (0, 0), BuildingBlock: CIFDUS_clean_linker_0, # of connection points: 2
#     Edge 22, Type (0, 0), BuildingBlock: CIFDUS_clean_linker_0, # of connection points: 2
#     Edge 23, Type (0, 0), BuildingBlock: CIFDUS_clean_linker_0, # of connection points: 2
#     Edge 24, Type (0, 0), BuildingBlock: CIFDUS_clean_linker_0, # of connection points: 2
#     Edge 25, Type (0, 0), BuildingBlock: CIFDUS_clean_linker_0, # of connection points: 2
#     Edge 26, Type (0, 0), BuildingBlock: CIFDUS_clean_linker_0, # of connection points: 2
#     Edge 27, Type (0, 0), BuildingBlock: CIFDUS_clean_linker_0, # of connection points: 2
#     Edge 28, Type (0, 0), BuildingBlock: CIFDUS_clean_linker_0, # of connection points: 2
#     Edge 29, Type (0, 0), BuildingBlock: CIFDUS_clean_linker_0, # of connection points: 2
#     Edge 30, Type (0, 0), BuildingBlock: CIFDUS_clean_linker_0, # of connection points: 2
#     Edge 31, Type (0, 0), BuildingBlock: CIFDUS_clean_linker_0, # of connection points: 2
# Relax obj value: 0.191
# Max RMSD: 0.203
# Mean RMSD: 0.196
data_MOF--net-ske--node1-HISSIN_clean_sbu_0--edge1-CIFDUS_clean_linker_0
_symmetry_space_group_name_H-M    P1
_symmetry_Int_Tables_number       1
_symmetry_cell_setting            triclinic
loop_
_symmetry_equiv_pos_as_xyz
'x, y, z'
_cell_length_a     96.90283
_cell_length_b     26.659674
_cell_length_c     13.524464
_cell_angle_alpha  90.11443
_cell_angle_beta   89.957629
_cell_angle_gamma 97.648903
loop_
_atom_site_label
_atom_site_type_symbol
_atom_site_fract_x
_atom_site_fract_y
_atom_site_fract_z
_atom_type_partial_charge
Eu0 Eu 0.1219 0.22429 0.4948 0.0
Eu1 Eu 0.1566 0.23529 0.50862 0.0
C2 C 0.14083 0.33197 0.51653 0.0
C3 C 0.08062 0.21776 0.46034 0.0
C4 C 0.07807 0.25707 0.39695 0.0
C5 C 0.05568 0.19267 0.47678 0.0
C6 C 0.06433 0.26421 0.37388 0.0
C7 C 0.06934 0.18534 0.49874 0.0
C8 C 0.05291 0.23249 0.41475 0.0
C9 C 0.09466 0.2116 0.49575 0.0
O10 O 0.14951 0.21708 0.66536 0.0
O11 O 0.12693 0.23529 0.65579 0.0
C12 C 0.13772 0.22517 0.70704 0.0
O13 O 0.1284 0.14869 0.53557 0.0
O14 O 0.17753 0.27711 0.49062 0.0
O15 O 0.17482 0.19716 0.5288 0.0
O16 O 0.14803 0.1606 0.44325 0.0
C17 C 0.13836 0.13014 0.48785 0.0
O18 O 0.12908 0.21978 0.33644 0.0
O19 O 0.15194 0.25608 0.35214 0.0
O20 O 0.15042 0.3091 0.55916 0.0
O21 O 0.10198 0.18111 0.44961 0.0
O22 O 0.10228 0.25027 0.53613 0.0
O23 O 0.13035 0.30642 0.46816 0.0
C24 C 0.19629 0.2453 0.57383 0.0
C25 C 0.19683 0.22231 0.66686 0.0
C26 C 0.22119 0.27252 0.5825 0.0
C27 C 0.20955 0.22348 0.71629 0.0
C28 C 0.20849 0.27126 0.53316 0.0
C29 C 0.22193 0.2476 0.67349 0.0
C30 C 0.18364 0.23775 0.51246 0.0
C31 C 0.14108 0.23921 0.29757 0.0
H32 H 0.08666 0.28267 0.36688 0.0
H33 H 0.0473 0.16808 0.51178 0.0
H34 H 0.06267 0.29489 0.32485 0.0
H35 H 0.07109 0.15512 0.5488 0.0
H36 H 0.18754 0.2019 0.69969 0.0
H37 H 0.23048 0.29224 0.54844 0.0
H38 H 0.20977 0.20368 0.786 0.0
H39 H 0.20829 0.28912 0.46135 0.0
Eu40 Eu 0.90123 0.25028 0.47976 0.0
Eu41 Eu 0.86658 0.24211 0.49285 0.0
C42 C 0.88162 0.14337 0.50025 0.0
C43 C 0.94255 0.25533 0.44636 0.0
C44 C 0.9453 0.21386 0.3891 0.0
C45 C 0.96744 0.28216 0.46157 0.0
C46 C 0.95911 0.20648 0.36867 0.0
C47 C 0.95371 0.28974 0.4808 0.0
C48 C 0.9704 0.24008 0.40626 0.0
C49 C 0.92845 0.26159 0.48069 0.0
O50 O 0.87368 0.25843 0.65041 0.0
O51 O 0.89615 0.23909 0.6404 0.0
C52 C 0.88541 0.24955 0.69185 0.0
O53 O 0.89507 0.32622 0.52323 0.0
O54 O 0.84541 0.20346 0.47106 0.0
O55 O 0.84882 0.28264 0.51532 0.0
O56 O 0.8758 0.31603 0.42775 0.0
C57 C 0.8854 0.34579 0.47465 0.0
O58 O 0.89415 0.25512 0.32126 0.0
O59 O 0.87115 0.22043 0.33672 0.0
O60 O 0.87197 0.16685 0.54089 0.0
O61 O 0.92129 0.2929 0.43577 0.0
O62 O 0.92069 0.22292 0.51969 0.0
O63 O 0.89243 0.16825 0.4542 0.0
C64 C 0.82645 0.23702 0.55122 0.0
C65 C 0.82248 0.27735 0.60687 0.0
C66 C 0.80319 0.19136 0.57343 0.0
C67 C 0.80892 0.27518 0.64336 0.0
C68 C 0.81675 0.1936 0.53662 0.0
C69 C 0.79901 0.2327 0.62486 0.0
C70 C 0.83967 0.24346 0.49509 0.0
C71 C 0.88209 0.23643 0.28227 0.0
H72 H 0.93682 0.18671 0.36214 0.0
H73 H 0.97571 0.30837 0.49387 0.0
H74 H 0.96091 0.17405 0.32457 0.0
H75 H 0.9518 0.32166 0.5262 0.0
H76 H 0.82962 0.31172 0.61831 0.0
H77 H 0.79588 0.15774 0.55925 0.0
H78 H 0.80604 0.30796 0.68165 0.0
H79 H 0.81944 0.16216 0.49306 0.0
Eu80 Eu 0.15475 0.74065 0.52827 0.0
Eu81 Eu 0.11992 0.72092 0.50694 0.0
C82 C 0.13797 0.6296 0.49131 0.0
C83 C 0.19538 0.75235 0.49778 0.0
C84 C 0.19707 0.70872 0.44323 0.0
C85 C 0.21978 0.78425 0.46892 0.0
C86 C 0.21008 0.70287 0.40209 0.0
C87 C 0.20683 0.78997 0.50996 0.0
C88 C 0.22164 0.74056 0.41462 0.0
C89 C 0.18198 0.75986 0.54413 0.0
O90 O 0.12449 0.7064 0.66783 0.0
O91 O 0.14658 0.75014 0.68249 0.0
C92 C 0.13499 0.72753 0.72211 0.0
O93 O 0.14677 0.81565 0.50356 0.0
O94 O 0.1001 0.67252 0.52903 0.0
O95 O 0.10064 0.74397 0.45104 0.0
O96 O 0.12488 0.79888 0.56933 0.0
C97 C 0.13553 0.83101 0.54114 0.0
O98 O 0.15078 0.72286 0.36717 0.0
O99 O 0.12859 0.74429 0.35558 0.0
O100 O 0.12782 0.65086 0.45261 0.0
O101 O 0.17435 0.78901 0.49799 0.0
O102 O 0.17451 0.72096 0.58457 0.0
O103 O 0.14822 0.65611 0.53983 0.0
C104 C 0.07924 0.71049 0.52604 0.0
C105 C 0.07776 0.74513 0.60232 0.0
C106 C 0.0541 0.69064 0.51625 0.0
C107 C 0.06444 0.75274 0.63489 0.0
C108 C 0.06736 0.68299 0.48429 0.0
C109 C 0.05241 0.7259 0.59144 0.0
C110 C 0.09289 0.70372 0.48427 0.0
C111 C 0.14024 0.73421 0.31433 0.0
H112 H 0.18838 0.67915 0.43282 0.0
H113 H 0.22831 0.81449 0.47875 0.0
H114 H 0.21111 0.66849 0.3616 0.0
H115 H 0.20574 0.82403 0.55152 0.0
H116 H 0.08686 0.76671 0.63546 0.0
H117 H 0.04518 0.67004 0.47936 0.0
H118 H 0.06355 0.77983 0.69354 0.0
H119 H 0.06831 0.65632 0.42489 0.0
Eu120 Eu 0.86791 0.73437 0.52357 0.0
Eu121 Eu 0.90285 0.75314 0.54084 0.0
C122 C 0.88536 0.84575 0.50375 0.0
C123 C 0.82728 0.72355 0.47189 0.0
C124 C 0.82504 0.77126 0.43637 0.0
C125 C 0.80303 0.69179 0.43726 0.0
C126 C 0.81182 0.77916 0.40183 0.0
C127 C 0.8162 0.68396 0.47121 0.0
C128 C 0.80058 0.73955 0.40251 0.0
C129 C 0.84066 0.71392 0.51548 0.0
O130 O 0.89518 0.76567 0.6959 0.0
O131 O 0.87292 0.72298 0.68397 0.0
C132 C 0.88344 0.74491 0.73669 0.0
O133 O 0.87624 0.65933 0.50686 0.0
O134 O 0.9224 0.79878 0.58576 0.0
O135 O 0.92273 0.73083 0.49665 0.0
O136 O 0.89654 0.67433 0.59524 0.0
C137 C 0.88659 0.64299 0.55475 0.0
O138 O 0.87532 0.75511 0.36922 0.0
O139 O 0.89707 0.73041 0.38335 0.0
O140 O 0.89645 0.8248 0.48153 0.0
O141 O 0.84907 0.6911 0.46139 0.0
O142 O 0.84728 0.74817 0.57348 0.0
O143 O 0.87389 0.81914 0.53703 0.0
C144 C 0.9437 0.76208 0.5804 0.0
C145 C 0.94575 0.71887 0.6346 0.0
C146 C 0.9687 0.7874 0.57619 0.0
C147 C 0.95929 0.70966 0.65826 0.0
C148 C 0.95523 0.79673 0.55364 0.0
C149 C 0.97098 0.7432 0.62701 0.0
C150 C 0.93005 0.76942 0.5395 0.0
C151 C 0.88681 0.74313 0.32913 0.0
H152 H 0.83345 0.80242 0.43627 0.0
H153 H 0.79467 0.66057 0.44092 0.0
H154 H 0.81042 0.8163 0.37456 0.0
H155 H 0.81766 0.64694 0.49911 0.0
H156 H 0.93695 0.69155 0.6557 0.0
H157 H 0.97733 0.81372 0.54893 0.0
H158 H 0.96058 0.67564 0.69883 0.0
H159 H 0.95385 0.83002 0.5108 0.0
Eu160 Eu 0.61993 0.734 0.12221 0.0
Eu161 Eu 0.65483 0.74519 0.0971 0.0
C162 C 0.63802 0.83985 0.10258 0.0
C163 C 0.5791 0.72534 0.10162 0.0
C164 C 0.57641 0.74304 1.00671 0.0
C165 C 0.55421 0.70478 0.12908 0.0
C166 C 0.56267 0.74272 0.97426 0.0
C167 C 0.56792 0.70504 0.16125 0.0
C168 C 0.55138 0.72486 0.03622 0.0
C169 C 0.59312 0.73396 0.14588 0.0
O170 O 0.65086 0.75238 0.26051 0.0
O171 O 0.62778 0.71832 0.27379 0.0
C172 C 0.63992 0.73458 0.31356 0.0
O173 O 0.62442 0.65706 0.0753 0.0
O174 O 0.6749 0.79224 0.11999 0.0
O175 O 0.67419 0.71884 0.04942 0.0
O176 O 0.6475 0.66159 0.12174 0.0
C177 C 0.63553 0.63546 0.09506 0.0
O178 O 0.62359 0.74366 0.95799 0.0
O179 O 0.6468 0.73259 0.94203 0.0
O180 O 0.64738 0.81905 0.05244 0.0
O181 O 0.59945 0.69501 0.16669 0.0
O182 O 0.60162 0.7727 0.11433 0.0
O183 O 0.62965 0.81229 0.16292 0.0
C184 C 0.69537 0.75175 0.13207 0.0
C185 C 0.69768 0.70525 0.17329 0.0
C186 C 0.71946 0.78549 0.16872 0.0
C187 C 0.71084 0.69879 0.21068 0.0
C188 C 0.70633 0.79188 0.13145 0.0
C189 C 0.72198 0.73864 0.20756 0.0
C190 C 0.6821 0.75877 0.08272 0.0
C191 C 0.63456 0.73746 0.90382 0.0
H192 H 0.58489 0.75891 0.95923 0.0
H193 H 0.54585 0.69137 0.17948 0.0
H194 H 0.56088 0.75775 0.90175 0.0
H195 H 0.56976 0.69167 0.23508 0.0
H196 H 0.68941 0.67364 0.17506 0.0
H197 H 0.72776 0.81686 0.16374 0.0
H198 H 0.71231 0.6624 0.24138 0.0
H199 H 0.70484 0.82801 0.09948 0.0
Eu200 Eu 0.40233 0.75612 0.09282 0.0
Eu201 Eu 0.36753 0.73133 0.10865 0.0
C202 C 0.38742 0.64361 0.06773 0.0
C203 C 0.44283 0.765 0.05481 0.0
C204 C 0.44454 0.71616 1.02234 0.0
C205 C 0.46781 0.78973 0.04245 0.0
C206 C 0.45789 0.70391 1.00224 0.0
C207 C 0.4545 0.80192 0.06205 0.0
C208 C 0.46974 0.74021 1.01484 0.0
C209 C 0.4295 0.77674 0.09502 0.0
O210 O 0.37488 0.75469 0.26224 0.0
O211 O 0.39656 0.73017 0.24823 0.0
C212 C 0.38634 0.74295 0.3027 0.0
O213 O 0.39468 0.82696 0.14685 0.0
O214 O 0.34925 0.68606 0.17343 0.0
O215 O 0.34653 0.74191 0.0614 0.0
O216 O 0.37255 0.81566 0.08316 0.0
C217 C 0.38351 0.84521 0.1166 0.0
O218 O 0.39457 0.7653 0.93656 0.0
O219 O 0.37246 0.72108 0.9478 0.0
O220 O 0.37651 0.65698 0.11425 0.0
O221 O 0.42157 0.80111 0.03986 0.0
O222 O 0.4224 0.74203 0.14923 0.0
O223 O 0.39755 0.67707 0.03582 0.0
C224 C 0.32719 0.7162 0.16768 0.0
C225 C 0.32573 0.76079 0.21972 0.0
C226 C 0.30278 0.68579 0.19896 0.0
C227 C 0.31281 0.76783 0.26102 0.0
C228 C 0.31564 0.67884 0.15805 0.0
C229 C 0.30113 0.73045 0.25068 0.0
C230 C 0.3404 0.70731 0.1206 0.0
C231 C 0.38294 0.74358 0.89548 0.0
H232 H 0.43565 0.68703 1.01641 0.0
H233 H 0.47663 0.81855 0.05446 0.0
H234 H 0.45896 0.66563 0.97963 0.0
H235 H 0.4534 0.83968 0.08797 0.0
H236 H 0.33453 0.79016 0.22786 0.0
H237 H 0.29415 0.65578 0.19096 0.0
H238 H 0.31192 0.80285 0.29971 0.0
H239 H 0.31656 0.64408 0.11836 0.0
Eu240 Eu 0.65656 0.24577 0.9879 0.0
Eu241 Eu 0.62168 0.22947 1.00496 0.0
C242 C 0.63935 0.13628 1.00702 0.0
C243 C 0.69662 0.26039 0.92096 0.0
C244 C 0.70036 0.22032 0.86343 0.0
C245 C 0.71977 0.30613 0.89533 0.0
C246 C 0.71381 0.22252 0.82487 0.0
C247 C 0.70634 0.30382 0.93429 0.0
C248 C 0.72381 0.2648 0.84301 0.0
C249 C 0.68375 0.25391 0.98095 0.0
O250 O 0.62897 0.22488 0.1626 0.0
O251 O 0.65204 0.25953 0.14783 0.0
C252 C 0.64109 0.24281 0.20157 0.0
O253 O 0.64952 0.32116 0.95642 0.0
O254 O 0.60194 0.18583 0.05223 0.0
O255 O 0.60188 0.25252 0.95984 0.0
O256 O 0.62904 0.31144 0.04418 0.0
C257 C 0.63965 0.34048 1.00425 0.0
O258 O 0.64941 0.22746 0.832 0.0
O259 O 0.62671 0.24368 0.84459 0.0
O260 O 0.62834 0.15303 0.96927 0.0
O261 O 0.67699 0.29251 0.99526 0.0
O262 O 0.67551 0.21131 0.97309 0.0
O263 O 0.64968 0.16737 0.04318 0.0
C264 C 0.58048 0.22235 0.04334 0.0
C265 C 0.57574 0.26997 0.04345 0.0
C266 C 0.55706 0.18342 0.08553 0.0
C267 C 0.56171 0.27412 0.06325 0.0
C268 C 0.57104 0.17936 0.06616 0.0
C269 C 0.55212 0.23072 0.08272 0.0
C270 C 0.59441 0.21515 1.00512 0.0
C271 C 0.63749 0.23474 0.79186 0.0
H272 H 0.69317 0.18605 0.8524 0.0
H273 H 0.72713 0.33968 0.90901 0.0
H274 H 0.71658 0.18982 0.78564 0.0
H275 H 0.70377 0.33507 0.97898 0.0
H276 H 0.58274 0.30383 1.02525 0.0
H277 H 0.55001 0.14901 0.09847 0.0
H278 H 0.55836 0.31125 0.06179 0.0
H279 H 0.57434 0.14209 0.06467 0.0
Eu280 Eu 0.36457 0.23535 1.02041 0.0
Eu281 Eu 0.39924 0.24773 0.03855 0.0
C282 C 0.38268 0.34199 0.04968 0.0
C283 C 0.32505 0.22345 0.94835 0.0
C284 C 0.32463 0.24664 0.85539 0.0
C285 C 0.30021 0.19549 0.93707 0.0
C286 C 0.31199 0.24528 0.80479 0.0
C287 C 0.31282 0.19692 0.98754 0.0
C288 C 0.29958 0.2208 0.84641 0.0
C289 C 0.33752 0.23164 1.01151 0.0
O290 O 0.39176 0.25402 0.19542 0.0
O291 O 0.36886 0.21792 0.17963 0.0
C292 C 0.37973 0.235 0.23418 0.0
O293 O 0.37094 0.1605 0.9777 0.0
O294 O 0.41944 0.29049 0.07948 0.0
O295 O 0.41844 0.21491 1.01284 0.0
O296 O 0.39037 0.1671 0.07509 0.0
C297 C 0.38027 0.13941 1.02714 0.0
O298 O 0.3721 0.25406 0.86524 0.0
O299 O 0.39473 0.23654 0.87658 0.0
O300 O 0.39314 0.32498 1.00452 0.0
O301 O 0.34368 0.19267 0.0352 0.0
O302 O 0.34626 0.27248 0.996 0.0
O303 O 0.37256 0.31041 0.08694 0.0
C304 C 0.44161 0.25729 0.05401 0.0
C305 C 0.44796 0.21291 0.05119 0.0
C306 C 0.4646 0.30691 0.05999 0.0
C307 C 0.46248 0.21546 0.05319 0.0
C308 C 0.45006 0.30431 0.0593 0.0
C309 C 0.47098 0.2625 0.05679 0.0
C310 C 0.42626 0.25441 0.04846 0.0
C311 C 0.38396 0.24618 0.82446 0.0
H312 H 0.33394 0.26747 0.82367 0.0
H313 H 0.29089 0.17548 0.97016 0.0
H314 H 0.31185 0.26532 0.7353 0.0
H315 H 0.31291 0.17888 0.05923 0.0
H316 H 0.44171 0.17613 0.04707 0.0
H317 H 0.47087 0.34368 0.06344 0.0
H318 H 0.46707 0.18061 0.04967 0.0
H319 H 0.44544 0.33912 0.06126 0.0
H320 H 0.24604 0.23059 0.58412 0.0
H321 H 0.22856 0.25754 0.86995 0.0
H322 H 0.25094 0.25065 0.94828 0.0
H323 H 0.2755 0.23812 0.93531 0.0
H324 H 0.29303 0.21137 0.64961 0.0
H325 H 0.27064 0.21834 0.57109 0.0
C326 C 0.24716 0.23561 0.66343 0.0
C327 C 0.23563 0.24476 0.72101 0.0
C328 C 0.26006 0.23179 0.70789 0.0
C329 C 0.23722 0.25006 0.82396 0.0
C330 C 0.25003 0.24633 0.86875 0.0
C331 C 0.27439 0.23317 0.85597 0.0
C332 C 0.28592 0.22393 0.7985 0.0
C333 C 0.2615 0.2371 0.81146 0.0
C334 C 0.28436 0.21881 0.6955 0.0
C335 C 0.27155 0.2226 0.65062 0.0
H336 H 0.73393 0.2279 0.67285 0.0
H337 H 0.74704 0.29899 0.95049 0.0
H338 H 0.77131 0.29471 0.90846 0.0
H339 H 0.78884 0.26917 0.79484 0.0
H340 H 0.7758 0.19803 0.51719 0.0
H341 H 0.7515 0.20218 0.55919 0.0
C342 C 0.74209 0.24224 0.72441 0.0
C343 C 0.73862 0.26405 0.8144 0.0
C344 C 0.75605 0.23896 0.70055 0.0
C345 C 0.74937 0.28295 0.87977 0.0
C346 C 0.76327 0.28005 0.85631 0.0
C347 C 0.7807 0.25481 0.74323 0.0
C348 C 0.78419 0.23314 0.6532 0.0
C349 C 0.76673 0.25801 0.76708 0.0
C350 C 0.77344 0.21409 0.58785 0.0
C351 C 0.75953 0.2169 0.61132 0.0
H352 H 0.27531 0.7045 0.16935 0.0
H353 H 0.29572 0.77183 0.43027 0.0
H354 H 0.27312 0.78088 0.50339 0.0
H355 H 0.24751 0.76775 0.49534 0.0
H356 H 0.22715 0.70069 0.2339 0.0
H357 H 0.24974 0.69203 0.16072 0.0
C358 C 0.27484 0.72082 0.24258 0.0
C359 C 0.28729 0.73737 0.29404 0.0
C360 C 0.26178 0.7255 0.28473 0.0
C361 C 0.28639 0.7593 0.38816 0.0
C362 C 0.27344 0.76415 0.43046 0.0
C363 C 0.24798 0.75166 0.42193 0.0
C364 C 0.23553 0.73483 0.3706 0.0
C365 C 0.26106 0.74725 0.37958 0.0
C366 C 0.23646 0.71328 0.27612 0.0
C367 C 0.24941 0.70867 0.23373 0.0
H368 H 0.74124 0.80457 0.30827 0.0
H369 H 0.7352 0.65514 0.17865 0.0
H370 H 0.75878 0.64266 0.22596 0.0
H371 H 0.78134 0.67451 0.30059 0.0
H372 H 0.78741 0.82351 0.43211 0.0
H373 H 0.76385 0.83629 0.38422 0.0
C374 C 0.74508 0.76935 0.28975 0.0
C375 C 0.73632 0.73083 0.24006 0.0
C376 C 0.75878 0.7625 0.31639 0.0
C377 C 0.74152 0.68521 0.21821 0.0
C378 C 0.75509 0.67816 0.24449 0.0
C379 C 0.77751 0.70968 0.31977 0.0
C380 C 0.78628 0.74795 0.37007 0.0
C381 C 0.76383 0.71655 0.2934 0.0
C382 C 0.78109 0.79358 0.39218 0.0
C383 C 0.76752 0.80079 0.36557 0.0
H384 H 0.15217 0.90678 0.4501 0.0
H385 H 0.11617 0.87793 0.63986 0.0
H386 H 0.11368 0.96793 0.63956 0.0
H387 H 0.12163 0.05493 0.58361 0.0
H388 H 0.15746 0.08216 0.39126 0.0
H389 H 0.16 -0.00726 0.39407 0.0
C390 C 0.14383 0.92014 0.49196 0.0
C391 C 0.1344 0.8857 0.54495 0.0
C392 C 0.14234 0.9717 0.49046 0.0
C393 C 0.12357 0.90367 0.59816 0.0
C394 C 0.12212 0.95513 0.59798 0.0
C395 C 0.12995 0.04123 0.54203 0.0
C396 C 0.13931 0.07528 0.48736 0.0
C397 C 0.1314 -0.01052 0.54385 0.0
C398 C 0.15007 0.0569 0.43406 0.0
C399 C 0.15158 0.00569 0.43567 0.0
H400 H 0.90031 0.41838 0.58902 0.0
H401 H 0.86821 0.39638 0.36573 0.0
H402 H 0.86539 0.48554 0.37402 0.0
H403 H 0.87188 0.56969 0.44401 0.0
H404 H 0.90412 0.5934 0.66574 0.0
H405 H 0.90692 0.5037 0.65923 0.0
C406 C 0.89277 0.43322 0.54177 0.0
C407 C 0.8845 0.40069 0.47689 0.0
C408 C 0.89113 0.48478 0.54709 0.0
C409 C 0.87472 0.42047 0.41654 0.0
C410 C 0.87306 0.47151 0.42125 0.0
C411 C 0.87946 0.55528 0.4915 0.0
C412 C 0.88775 0.58823 0.55531 0.0
C413 C 0.88115 0.50393 0.48652 0.0
C414 C 0.8976 0.56887 0.61574 0.0
C415 C 0.89924 0.51758 0.61196 0.0
H416 H 0.86634 0.90741 0.56018 0.0
H417 H 0.90641 0.90916 0.41891 0.0
H418 H 0.9087 0.0007 0.40455 0.0
H419 H 0.89973 0.08081 0.43506 0.0
H420 H 0.85981 0.07994 0.57758 0.0
H421 H 0.85714 0.98793 0.5881 0.0
C422 C 0.87553 0.92777 0.52571 0.0
C423 C 0.88617 0.90124 0.49102 0.0
C424 C 0.87688 0.9808 0.51811 0.0
C425 C 0.89803 0.9284 0.44674 0.0
C426 C 0.89939 0.98092 0.4384 0.0
C427 C 0.89043 0.06056 0.46829 0.0
C428 C 0.88004 0.08742 0.5057 0.0
C429 C 0.88894 0.00757 0.47446 0.0
C430 C 0.86804 0.06039 0.54849 0.0
C431 C 0.86647 0.00765 0.55449 0.0
H432 H 0.15471 0.56812 0.57939 0.0
H433 H 0.11961 0.56597 0.3819 0.0
H434 H 0.11735 0.47417 0.37283 0.0
H435 H 0.12494 0.3941 0.42306 0.0
H436 H 0.16 0.39563 0.62048 0.0
H437 H 0.16259 0.48774 0.62731 0.0
C438 C 0.14663 0.54761 0.53385 0.0
C439 C 0.13735 0.57405 0.48175 0.0
C440 C 0.14529 0.49453 0.52923 0.0
C441 C 0.1269 0.54674 0.42324 0.0
C442 C 0.12557 0.4941 0.41795 0.0
C443 C 0.13313 0.41451 0.46776 0.0
C444 C 0.1422 0.38786 0.52132 0.0
C445 C 0.13462 0.46756 0.47124 0.0
C446 C 0.15282 0.41507 0.57845 0.0
C447 C 0.15435 0.46785 0.58243 0.0
H448 H 0.65589 0.57776 0.04827 0.0
H449 H 0.61224 0.56764 0.12042 0.0
H450 H 0.60961 0.47584 0.10022 0.0
H451 H 0.61959 0.39807 0.05965 0.0
H452 H 0.66296 0.40874 0.97828 0.0
H453 H 0.66575 0.50009 1.00376 0.0
C454 C 0.64584 0.55536 0.06027 0.0
C455 C 0.63431 0.57954 0.08631 0.0
C456 C 0.6443 0.50251 0.04611 0.0
C457 C 0.62129 0.55003 0.10012 0.0
C458 C 0.61977 0.49746 0.0886 0.0
C459 C 0.62965 0.42037 0.04747 0.0
C460 C 0.64103 0.39635 1.01707 0.0
C461 C 0.63117 0.47324 0.06105 0.0
C462 C 0.65397 0.42606 1.00108 0.0
C463 C 0.65561 0.47843 1.01605 0.0
H464 H 0.36628 0.90085 1.01745 0.0
H465 H 0.40169 0.91477 0.21407 0.0
H466 H 0.40382 0.00659 0.20318 0.0
H467 H 0.39617 0.08297 0.13455 0.0
H468 H 0.36095 0.07006 0.93641 0.0
H469 H 0.35829 0.97802 0.95098 0.0
C470 C 0.37436 0.924 0.05877 0.0
C471 C 0.3838 0.90086 0.11637 0.0
C472 C 0.37567 0.97703 0.05125 0.0
C473 C 0.39429 0.93147 0.16881 0.0
C474 C 0.39555 0.98408 0.16256 0.0
C475 C 0.38792 0.06012 0.09433 0.0
C476 C 0.37883 0.08352 0.03422 0.0
C477 C 0.38641 0.00724 0.10315 0.0
C478 C 0.36815 0.05315 0.98306 0.0
C479 C 0.36659 0.00044 0.99149 0.0
H480 H 0.40064 0.42176 0.97693 0.0
H481 H 0.36306 0.38574 0.14923 0.0
H482 H 0.36117 0.47499 0.16847 0.0
H483 H 0.36996 0.56338 0.1374 0.0
H484 H 0.40753 0.60135 0.96642 0.0
H485 H 0.40955 0.51161 0.94573 0.0
C486 C 0.39207 0.4335 1.01882 0.0
C487 C 0.38204 0.39688 0.06143 0.0
C488 C 0.39098 0.48537 1.02986 0.0
C489 C 0.37097 0.41286 0.11536 0.0
C490 C 0.36984 0.46405 0.12655 0.0
C491 C 0.37859 0.55218 0.09541 0.0
C492 C 0.38855 0.58918 0.05371 0.0
C493 C 0.37975 0.50061 0.0841 0.0
C494 C 0.39969 0.57374 0.99965 0.0
C495 C 0.40087 0.52235 0.98772 0.0
H496 H 0.6198 0.05864 0.06407 0.0
H497 H 0.66192 0.09224 0.95752 0.0
H498 H 0.6652 0.00323 0.97323 0.0
H499 H 0.65644 0.91612 1.02448 0.0
H500 H 0.61494 0.88405 0.14443 0.0
H501 H 0.61112 0.97152 0.1172 0.0
C502 C 0.6296 0.04614 0.04319 0.0
C503 C 0.64056 0.08164 1.00893 0.0
C504 C 0.6316 -0.00485 0.05608 0.0
C505 C 0.65333 0.06538 0.9839 0.0
C506 C 0.65523 0.01455 0.99311 0.0
C507 C 0.64657 0.92831 0.04449 0.0
C508 C 0.63604 0.89353 0.08673 0.0
C509 C 0.64451 0.97914 1.03044 0.0
C510 C 0.62331 0.91005 0.11264 0.0
C511 C 0.62106 0.96012 0.09667 0.0
H512 H 0.1208 0.22011 0.15782 0.0
H513 H 0.16524 0.259 0.19168 0.0
H514 H 0.16826 0.25588 1.01289 0.0
H515 H 0.1583 0.24209 0.84573 0.0
H516 H 0.11378 0.20615 0.81289 0.0
H517 H 0.11085 0.20776 0.99174 0.0
C518 C 0.13115 0.22803 0.12623 0.0
C519 C 0.14274 0.23979 0.18848 0.0
C520 C 0.13284 0.22641 1.02312 0.0
C521 C 0.15608 0.25011 0.14582 0.0
C522 C 0.15785 0.24812 0.04337 0.0
C523 C 0.14799 0.23423 0.8779 0.0
C524 C 0.1363 0.22387 0.81602 0.0
C525 C 0.14631 0.23615 0.98119 0.0
C526 C 0.12297 0.2144 0.85877 0.0
C527 C 0.12126 0.21532 0.96115 0.0
H528 H 0.9024 0.25375 0.1423 0.0
H529 H 0.85787 0.21831 0.17678 0.0
H530 H 0.85484 0.22135 0.9981 0.0
H531 H 0.86482 0.23413 0.83085 0.0
H532 H 0.90941 0.26671 0.79734 0.0
H533 H 0.91236 0.26505 0.97606 0.0
C534 C 0.89203 0.24656 0.11085 0.0
C535 C 0.88042 0.2358 0.17324 0.0
C536 C 0.89034 0.24812 1.00778 0.0
C537 C 0.86705 0.22642 0.1308 0.0
C538 C 0.86528 0.22836 1.02841 0.0
C539 C 0.87516 0.24123 0.86284 0.0
C540 C 0.88685 0.25066 0.8008 0.0
C541 C 0.87684 0.23934 0.96608 0.0
C542 C 0.90021 0.25917 0.84333 0.0
C543 C 0.90193 0.25824 0.94566 0.0
H544 H 0.11932 0.7225 0.17761 0.0
H545 H 0.16408 0.74744 0.20466 0.0
H546 H 0.1664 0.74832 1.02479 0.0
H547 H 0.15577 0.74161 0.85932 0.0
H548 H 0.11106 0.71223 0.83179 0.0
H549 H 0.1087 0.71331 1.01171 0.0
C550 C 0.12958 0.72837 0.14412 0.0
C551 C 0.14151 0.73518 0.20478 0.0
C552 C 0.13086 0.72783 0.0403 0.0
C553 C 0.15472 0.74202 0.15997 0.0
C554 C 0.15607 0.74259 0.05697 0.0
C555 C 0.1455 0.7355 0.89258 0.0
C556 C 0.13362 0.727 0.83174 0.0
C557 C 0.14422 0.73545 0.99633 0.0
C558 C 0.1204 0.71865 0.87651 0.0
C559 C 0.11903 0.71943 0.97956 0.0
H560 H 0.90395 0.75132 0.87667 0.0
H561 H 0.85936 0.7388 0.84236 0.0
H562 H 0.85642 0.73824 1.02162 0.0
H563 H 0.86645 0.74051 0.18896 0.0
H564 H 0.91095 0.74838 0.2235 0.0
H565 H 0.91395 0.7514 0.04432 0.0
C566 C 0.8936 0.74872 0.90849 0.0
C567 C 0.88191 0.74531 0.84598 0.0
C568 C 0.89194 0.74738 1.01204 0.0
C569 C 0.86855 0.7413 0.88857 0.0
C570 C 0.86685 0.74105 0.99124 0.0
C571 C 0.8768 0.74299 0.1573 0.0
C572 C 0.88844 0.74431 0.21988 0.0
C573 C 0.87846 0.74392 0.05381 0.0
C574 C 0.90178 0.74706 0.17732 0.0
C575 C 0.90352 0.74894 0.07466 0.0
H576 H 0.61901 0.72672 0.44962 0.0
H577 H 0.66379 0.74264 0.42306 0.0
H578 H 0.66602 0.74442 0.60284 0.0
H579 H 0.65534 0.74239 0.76722 0.0
H580 H 0.61059 0.7291 0.79435 0.0
H581 H 0.60831 0.72554 0.61457 0.0
C582 C 0.62926 0.73027 0.48308 0.0
C583 C 0.64121 0.73435 0.42275 0.0
C584 C 0.63049 0.73197 0.58661 0.0
C585 C 0.65442 0.73953 0.46755 0.0
C586 C 0.65571 0.74052 0.57043 0.0
C587 C 0.64506 0.73859 0.73407 0.0
C588 C 0.63315 0.73591 0.79458 0.0
C589 C 0.64383 0.73695 0.63064 0.0
C590 C 0.61995 0.73139 0.74985 0.0
C591 C 0.61863 0.72923 0.64693 0.0
H592 H 0.40347 0.75111 0.75528 0.0
H593 H 0.35886 0.73673 0.78993 0.0
H594 H 0.35592 0.73656 0.61073 0.0
H595 H 0.36596 0.7396 0.44318 0.0
H596 H 0.41049 0.74913 0.40818 0.0
H597 H 0.41348 0.75198 0.58739 0.0
C598 C 0.39312 0.74817 0.72354 0.0
C599 C 0.38142 0.74409 0.78617 0.0
C600 C 0.39146 0.74704 0.61995 0.0
C601 C 0.36806 0.73969 0.74365 0.0
C602 C 0.36636 0.73969 0.64099 0.0
C603 C 0.37632 0.74242 0.47476 0.0
C604 C 0.38797 0.74424 0.41202 0.0
C605 C 0.37797 0.74318 0.57829 0.0
C606 C 0.40131 0.74742 0.45448 0.0
C607 C 0.40305 0.7492 0.55716 0.0
H608 H 0.62062 0.22888 0.34093 0.0
H609 H 0.66529 0.25727 0.3072 0.0
H610 H 0.66818 0.25576 0.48608 0.0
H611 H 0.65807 0.24655 0.65287 0.0
H612 H 0.61337 0.22093 0.68626 0.0
H613 H 0.61051 0.22099 0.50728 0.0
C614 C 0.63099 0.23474 0.37262 0.0
C615 C 0.64269 0.24317 0.31048 0.0
C616 C 0.63261 0.2342 0.47579 0.0
C617 C 0.65606 0.25097 0.35308 0.0
C618 C 0.65775 0.24994 0.45554 0.0
C619 C 0.64771 0.24072 0.62093 0.0
C620 C 0.63598 0.23367 0.68296 0.0
C621 C 0.6461 0.24153 0.51768 0.0
C622 C 0.62261 0.22667 0.64033 0.0
C623 C 0.62094 0.22664 0.53787 0.0
H624 H 0.40025 0.25102 0.3724 0.0
H625 H 0.35562 0.21823 0.34137 0.0
H626 H 0.35291 0.22061 0.52065 0.0
H627 H 0.36322 0.23205 0.68693 0.0
H628 H 0.40791 0.26182 0.71708 0.0
H629 H 0.41054 0.26088 0.53782 0.0
C630 C 0.38992 0.24436 0.40471 0.0
C631 C 0.37817 0.23452 0.34324 0.0
C632 C 0.38843 0.24545 0.50797 0.0
C633 C 0.36487 0.22567 0.38672 0.0
C634 C 0.3633 0.22721 0.48938 0.0
C635 C 0.37352 0.23865 0.65419 0.0
C636 C 0.38533 0.24716 0.7154 0.0
C637 C 0.375 0.23719 0.55079 0.0
C638 C 0.39863 0.25502 0.67179 0.0
C639 C 0.40016 0.25452 0.56918 0.0
H640 H 0.02945 0.16297 0.39715 0.0
H641 H 0.04302 0.32403 0.39603 0.0
H642 H 0.01892 0.34011 0.38319 0.0
H643 H 0.99391 0.30899 0.38319 0.0
H644 H 0.98036 0.14824 0.40284 0.0
H645 H 1.00447 0.13187 0.39689 0.0
C646 C 0.0272 0.2017 0.39479 0.0
C647 C 0.0382 0.24212 0.39813 0.0
C648 C 0.01324 0.21086 0.39076 0.0
C649 C 0.03492 0.29194 0.39223 0.0
C650 C 0.02108 0.30127 0.38587 0.0
C651 C 0.99617 0.2703 0.38685 0.0
C652 C 0.98516 0.23004 0.39387 0.0
C653 C 1.01014 0.26107 0.38684 0.0
C654 C 0.98846 0.18016 0.39588 0.0
C655 C 1.00231 0.17069 0.39352 0.0
H656 H 0.99496 0.8078 0.66267 0.0
H657 H 0.9798 0.64969 0.61593 0.0
H658 H 1.0036 0.62993 0.6133 0.0
H659 H 0.02872 0.6582 0.60783 0.0
H660 H 0.04387 0.81733 0.6368 0.0
H661 H 0.02015 0.83572 0.66305 0.0
C662 C 0.99681 0.76897 0.65167 0.0
C663 C 0.98546 0.73049 0.63871 0.0
C664 C 1.01059 0.75797 0.64643 0.0
C665 C 0.9882 0.68022 0.62736 0.0
C666 C 1.00186 0.66885 0.62471 0.0
C667 C 0.02687 0.69698 0.61969 0.0
C668 C 0.03814 0.73629 0.61925 0.0
C669 C 0.01313 0.70757 0.63155 0.0
C670 C 0.03549 0.78612 0.63753 0.0
C671 C 0.02188 0.79678 0.65169 0.0
H672 H 0.52763 0.65925 0.0691 0.0
H673 H 0.54225 0.80538 0.94317 0.0
H674 H 0.5183 0.82058 0.9156 0.0
H675 H 0.49322 0.79573 0.94001 0.0
H676 H 0.47868 0.65242 0.07777 0.0
H677 H 0.50249 0.63277 0.08669 0.0
C678 C 0.5256 0.69441 0.03542 0.0
C679 C 0.5368 0.73113 1.00877 0.0
C680 C 0.51176 0.70356 1.02198 0.0
C681 C 0.53391 0.77605 0.96342 0.0
C682 C 0.52018 0.78505 0.94841 0.0
C683 C 0.49523 0.76014 0.9719 0.0
C684 C 0.48409 0.72583 1.00857 0.0
C685 C 0.50903 0.74956 0.97938 0.0
C686 C 0.48695 0.67941 0.04772 0.0
C687 C 0.50062 0.66828 0.05382 0.0
H688 H 0.48716 0.20693 0.16498 0.0
H689 H 0.48949 0.32392 0.9436 0.0
H690 H 0.51477 0.32597 0.93459 0.0
H691 H 0.5361 0.29175 0.98421 0.0
H692 H 0.53378 0.17661 0.20996 0.0
H693 H 0.50866 0.17617 0.22138 0.0
C694 C 0.49321 0.23283 0.11472 0.0
C695 C 0.48643 0.26508 0.05481 0.0
C696 C 0.50776 0.23395 0.11019 0.0
C697 C 0.49445 0.29896 0.99107 0.0
C698 C 0.50891 0.29998 0.98555 0.0
C699 C 0.53017 0.26718 0.03727 0.0
C700 C 0.53693 0.23397 0.09552 0.0
C701 C 0.51568 0.26741 0.04433 0.0
C702 C 0.52892 0.20192 0.16271 0.0
C703 C 0.51452 0.20179 0.16975 0.0
loop_
_geom_bond_atom_site_label_1
_geom_bond_atom_site_label_2
_geom_bond_distance
_geom_bond_site_symmetry_2
_ccdc_geom_bond_type
Eu0 C9 2.828 . S
Eu0 O11 2.392 . S
Eu0 O13 2.418 . S
Eu0 O18 2.373 . S
Eu0 O21 2.488 . S
Eu0 O22 2.471 . S
Eu0 O23 2.349 . S
Eu1 O10 2.373 . S
Eu1 O14 2.488 . S
Eu1 O15 2.471 . S
Eu1 O16 2.349 . S
Eu1 O19 2.392 . S
Eu1 O20 2.418 . S
Eu1 C30 2.828 . S
C2 O20 1.244 . S
C2 O23 1.265 . S
C3 C4 1.379 . S
C3 C7 1.373 . S
C3 C9 1.505 . S
C4 C3 1.379 . S
C4 C6 1.369 . S
C4 H32 0.930 . S
C5 C7 1.383 . S
C5 C8 1.382 . S
C5 H33 0.930 . S
C6 C4 1.369 . S
C6 C8 1.392 . S
C6 H34 0.930 . S
C7 C3 1.373 . S
C7 C5 1.383 . S
C7 H35 0.931 . S
C8 C5 1.382 . S
C8 C6 1.392 . S
C9 Eu0 2.828 . S
C9 C3 1.505 . S
C9 O21 1.249 . S
C9 O22 1.244 . S
O10 Eu1 2.373 . S
O10 C12 1.258 . S
O11 Eu0 2.392 . S
O11 C12 1.242 . S
C12 O10 1.258 . S
C12 O11 1.242 . S
O13 Eu0 2.418 . S
O13 C17 1.244 . S
O14 Eu1 2.488 . S
O14 C30 1.249 . S
O15 Eu1 2.471 . S
O15 C30 1.244 . S
O16 Eu1 2.349 . S
O16 C17 1.265 . S
C17 O13 1.244 . S
C17 O16 1.265 . S
O18 Eu0 2.373 . S
O18 C31 1.258 . S
O19 Eu1 2.392 . S
O19 C31 1.242 . S
O20 Eu1 2.418 . S
O20 C2 1.244 . S
O21 Eu0 2.488 . S
O21 C9 1.249 . S
O22 Eu0 2.471 . S
O22 C9 1.244 . S
O23 Eu0 2.349 . S
O23 C2 1.265 . S
C24 C25 1.379 . S
C24 C28 1.373 . S
C24 C30 1.505 . S
C25 C24 1.379 . S
C25 C27 1.369 . S
C25 H36 0.930 . S
C26 C28 1.383 . S
C26 C29 1.382 . S
C26 H37 0.930 . S
C27 C25 1.369 . S
C27 C29 1.392 . S
C27 H38 0.930 . S
C28 C24 1.373 . S
C28 C26 1.383 . S
C28 H39 0.931 . S
C29 C26 1.382 . S
C29 C27 1.392 . S
C30 Eu1 2.828 . S
C30 O14 1.249 . S
C30 O15 1.244 . S
C30 C24 1.505 . S
C31 O18 1.258 . S
C31 O19 1.242 . S
H32 C4 0.930 . S
H33 C5 0.930 . S
H34 C6 0.930 . S
H35 C7 0.931 . S
H36 C25 0.930 . S
H37 C26 0.930 . S
H38 C27 0.930 . S
H39 C28 0.931 . S
Eu40 C49 2.828 . S
Eu40 O51 2.392 . S
Eu40 O53 2.418 . S
Eu40 O58 2.373 . S
Eu40 O61 2.488 . S
Eu40 O62 2.471 . S
Eu40 O63 2.349 . S
Eu41 O50 2.373 . S
Eu41 O54 2.488 . S
Eu41 O55 2.471 . S
Eu41 O56 2.349 . S
Eu41 O59 2.392 . S
Eu41 O60 2.418 . S
Eu41 C70 2.828 . S
C42 O60 1.244 . S
C42 O63 1.265 . S
C43 C44 1.379 . S
C43 C47 1.373 . S
C43 C49 1.505 . S
C44 C43 1.379 . S
C44 C46 1.369 . S
C44 H72 0.930 . S
C45 C47 1.383 . S
C45 C48 1.382 . S
C45 H73 0.930 . S
C46 C44 1.369 . S
C46 C48 1.392 . S
C46 H74 0.930 . S
C47 C43 1.373 . S
C47 C45 1.383 . S
C47 H75 0.931 . S
C48 C45 1.382 . S
C48 C46 1.392 . S
C49 Eu40 2.828 . S
C49 C43 1.505 . S
C49 O61 1.249 . S
C49 O62 1.244 . S
O50 Eu41 2.373 . S
O50 C52 1.258 . S
O51 Eu40 2.392 . S
O51 C52 1.242 . S
C52 O50 1.258 . S
C52 O51 1.242 . S
O53 Eu40 2.418 . S
O53 C57 1.244 . S
O54 Eu41 2.488 . S
O54 C70 1.249 . S
O55 Eu41 2.471 . S
O55 C70 1.244 . S
O56 Eu41 2.349 . S
O56 C57 1.265 . S
C57 O53 1.244 . S
C57 O56 1.265 . S
O58 Eu40 2.373 . S
O58 C71 1.258 . S
O59 Eu41 2.392 . S
O59 C71 1.242 . S
O60 Eu41 2.418 . S
O60 C42 1.244 . S
O61 Eu40 2.488 . S
O61 C49 1.249 . S
O62 Eu40 2.471 . S
O62 C49 1.244 . S
O63 Eu40 2.349 . S
O63 C42 1.265 . S
C64 C65 1.379 . S
C64 C68 1.373 . S
C64 C70 1.505 . S
C65 C64 1.379 . S
C65 C67 1.369 . S
C65 H76 0.930 . S
C66 C68 1.383 . S
C66 C69 1.382 . S
C66 H77 0.930 . S
C67 C65 1.369 . S
C67 C69 1.392 . S
C67 H78 0.930 . S
C68 C64 1.373 . S
C68 C66 1.383 . S
C68 H79 0.931 . S
C69 C66 1.382 . S
C69 C67 1.392 . S
C70 Eu41 2.828 . S
C70 O54 1.249 . S
C70 O55 1.244 . S
C70 C64 1.505 . S
C71 O58 1.258 . S
C71 O59 1.242 . S
H72 C44 0.930 . S
H73 C45 0.930 . S
H74 C46 0.930 . S
H75 C47 0.931 . S
H76 C65 0.930 . S
H77 C66 0.930 . S
H78 C67 0.930 . S
H79 C68 0.931 . S
Eu80 C89 2.828 . S
Eu80 O91 2.392 . S
Eu80 O93 2.418 . S
Eu80 O98 2.373 . S
Eu80 O101 2.488 . S
Eu80 O102 2.471 . S
Eu80 O103 2.349 . S
Eu81 O90 2.373 . S
Eu81 O94 2.488 . S
Eu81 O95 2.471 . S
Eu81 O96 2.349 . S
Eu81 O99 2.392 . S
Eu81 O100 2.418 . S
Eu81 C110 2.828 . S
C82 O100 1.244 . S
C82 O103 1.265 . S
C83 C84 1.379 . S
C83 C87 1.373 . S
C83 C89 1.505 . S
C84 C83 1.379 . S
C84 C86 1.369 . S
C84 H112 0.930 . S
C85 C87 1.383 . S
C85 C88 1.382 . S
C85 H113 0.930 . S
C86 C84 1.369 . S
C86 C88 1.392 . S
C86 H114 0.930 . S
C87 C83 1.373 . S
C87 C85 1.383 . S
C87 H115 0.931 . S
C88 C85 1.382 . S
C88 C86 1.392 . S
C89 Eu80 2.828 . S
C89 C83 1.505 . S
C89 O101 1.249 . S
C89 O102 1.244 . S
O90 Eu81 2.373 . S
O90 C92 1.258 . S
O91 Eu80 2.392 . S
O91 C92 1.242 . S
C92 O90 1.258 . S
C92 O91 1.242 . S
O93 Eu80 2.418 . S
O93 C97 1.244 . S
O94 Eu81 2.488 . S
O94 C110 1.249 . S
O95 Eu81 2.471 . S
O95 C110 1.244 . S
O96 Eu81 2.349 . S
O96 C97 1.265 . S
C97 O93 1.244 . S
C97 O96 1.265 . S
O98 Eu80 2.373 . S
O98 C111 1.258 . S
O99 Eu81 2.392 . S
O99 C111 1.242 . S
O100 Eu81 2.418 . S
O100 C82 1.244 . S
O101 Eu80 2.488 . S
O101 C89 1.249 . S
O102 Eu80 2.471 . S
O102 C89 1.244 . S
O103 Eu80 2.349 . S
O103 C82 1.265 . S
C104 C105 1.379 . S
C104 C108 1.373 . S
C104 C110 1.505 . S
C105 C104 1.379 . S
C105 C107 1.369 . S
C105 H116 0.930 . S
C106 C108 1.383 . S
C106 C109 1.382 . S
C106 H117 0.930 . S
C107 C105 1.369 . S
C107 C109 1.392 . S
C107 H118 0.930 . S
C108 C104 1.373 . S
C108 C106 1.383 . S
C108 H119 0.931 . S
C109 C106 1.382 . S
C109 C107 1.392 . S
C110 Eu81 2.828 . S
C110 O94 1.249 . S
C110 O95 1.244 . S
C110 C104 1.505 . S
C111 O98 1.258 . S
C111 O99 1.242 . S
H112 C84 0.930 . S
H113 C85 0.930 . S
H114 C86 0.930 . S
H115 C87 0.931 . S
H116 C105 0.930 . S
H117 C106 0.930 . S
H118 C107 0.930 . S
H119 C108 0.931 . S
Eu120 C129 2.828 . S
Eu120 O131 2.392 . S
Eu120 O133 2.418 . S
Eu120 O138 2.373 . S
Eu120 O141 2.488 . S
Eu120 O142 2.471 . S
Eu120 O143 2.349 . S
Eu121 O130 2.373 . S
Eu121 O134 2.488 . S
Eu121 O135 2.471 . S
Eu121 O136 2.349 . S
Eu121 O139 2.392 . S
Eu121 O140 2.418 . S
Eu121 C150 2.828 . S
C122 O140 1.244 . S
C122 O143 1.265 . S
C123 C124 1.379 . S
C123 C127 1.373 . S
C123 C129 1.505 . S
C124 C123 1.379 . S
C124 C126 1.369 . S
C124 H152 0.930 . S
C125 C127 1.383 . S
C125 C128 1.382 . S
C125 H153 0.930 . S
C126 C124 1.369 . S
C126 C128 1.392 . S
C126 H154 0.930 . S
C127 C123 1.373 . S
C127 C125 1.383 . S
C127 H155 0.931 . S
C128 C125 1.382 . S
C128 C126 1.392 . S
C129 Eu120 2.828 . S
C129 C123 1.505 . S
C129 O141 1.249 . S
C129 O142 1.244 . S
O130 Eu121 2.373 . S
O130 C132 1.258 . S
O131 Eu120 2.392 . S
O131 C132 1.242 . S
C132 O130 1.258 . S
C132 O131 1.242 . S
O133 Eu120 2.418 . S
O133 C137 1.244 . S
O134 Eu121 2.488 . S
O134 C150 1.249 . S
O135 Eu121 2.471 . S
O135 C150 1.244 . S
O136 Eu121 2.349 . S
O136 C137 1.265 . S
C137 O133 1.244 . S
C137 O136 1.265 . S
O138 Eu120 2.373 . S
O138 C151 1.258 . S
O139 Eu121 2.392 . S
O139 C151 1.242 . S
O140 Eu121 2.418 . S
O140 C122 1.244 . S
O141 Eu120 2.488 . S
O141 C129 1.249 . S
O142 Eu120 2.471 . S
O142 C129 1.244 . S
O143 Eu120 2.349 . S
O143 C122 1.265 . S
C144 C145 1.379 . S
C144 C148 1.373 . S
C144 C150 1.505 . S
C145 C144 1.379 . S
C145 C147 1.369 . S
C145 H156 0.930 . S
C146 C148 1.383 . S
C146 C149 1.382 . S
C146 H157 0.930 . S
C147 C145 1.369 . S
C147 C149 1.392 . S
C147 H158 0.930 . S
C148 C144 1.373 . S
C148 C146 1.383 . S
C148 H159 0.931 . S
C149 C146 1.382 . S
C149 C147 1.392 . S
C150 Eu121 2.828 . S
C150 O134 1.249 . S
C150 O135 1.244 . S
C150 C144 1.505 . S
C151 O138 1.258 . S
C151 O139 1.242 . S
H152 C124 0.930 . S
H153 C125 0.930 . S
H154 C126 0.930 . S
H155 C127 0.931 . S
H156 C145 0.930 . S
H157 C146 0.930 . S
H158 C147 0.930 . S
H159 C148 0.931 . S
Eu160 C169 2.828 1_554 S
Eu160 O171 2.392 . S
Eu160 O173 2.418 . S
Eu160 O178 2.373 1_554 S
Eu160 O181 2.488 1_554 S
Eu160 O182 2.471 1_554 S
Eu160 O183 2.349 . S
Eu161 O170 2.373 1_556 S
Eu161 O174 2.488 1_556 S
Eu161 O175 2.471 1_556 S
Eu161 O176 2.349 . S
Eu161 O179 2.392 . S
Eu161 O180 2.418 . S
Eu161 C190 2.828 1_556 S
C162 O180 1.244 1_554 S
C162 O183 1.265 . S
C163 C164 1.379 . S
C163 C167 1.373 . S
C163 C169 1.505 . S
C164 C163 1.379 . S
C164 C166 1.369 . S
C164 H192 0.930 . S
C165 C167 1.383 . S
C165 C168 1.382 . S
C165 H193 0.930 . S
C166 C164 1.369 . S
C166 C168 1.392 . S
C166 H194 0.930 . S
C167 C163 1.373 . S
C167 C165 1.383 . S
C167 H195 0.931 . S
C168 C165 1.382 . S
C168 C166 1.392 . S
C169 Eu160 2.828 1_556 S
C169 C163 1.505 . S
C169 O181 1.249 . S
C169 O182 1.244 . S
O170 Eu161 2.373 1_554 S
O170 C172 1.258 . S
O171 Eu160 2.392 . S
O171 C172 1.242 . S
C172 O170 1.258 . S
C172 O171 1.242 . S
O173 Eu160 2.418 . S
O173 C177 1.244 1_554 S
O174 Eu161 2.488 1_554 S
O174 C190 1.249 . S
O175 Eu161 2.471 1_554 S
O175 C190 1.244 . S
O176 Eu161 2.349 . S
O176 C177 1.265 . S
C177 O173 1.244 1_556 S
C177 O176 1.265 . S
O178 Eu160 2.373 1_556 S
O178 C191 1.258 . S
O179 Eu161 2.392 . S
O179 C191 1.242 . S
O180 Eu161 2.418 . S
O180 C162 1.244 1_556 S
O181 Eu160 2.488 1_556 S
O181 C169 1.249 . S
O182 Eu160 2.471 1_556 S
O182 C169 1.244 . S
O183 Eu160 2.349 . S
O183 C162 1.265 . S
C184 C185 1.379 . S
C184 C188 1.373 . S
C184 C190 1.505 . S
C185 C184 1.379 . S
C185 C187 1.369 . S
C185 H196 0.930 . S
C186 C188 1.383 . S
C186 C189 1.382 . S
C186 H197 0.930 . S
C187 C185 1.369 . S
C187 C189 1.392 . S
C187 H198 0.930 . S
C188 C184 1.373 . S
C188 C186 1.383 . S
C188 H199 0.931 . S
C189 C186 1.382 . S
C189 C187 1.392 . S
C190 Eu161 2.828 1_554 S
C190 O174 1.249 . S
C190 O175 1.244 . S
C190 C184 1.505 . S
C191 O178 1.258 . S
C191 O179 1.242 . S
H192 C164 0.930 . S
H193 C165 0.930 . S
H194 C166 0.930 . S
H195 C167 0.931 . S
H196 C185 0.930 . S
H197 C186 0.930 . S
H198 C187 0.930 . S
H199 C188 0.931 . S
Eu200 C209 2.828 1_554 S
Eu200 O211 2.392 . S
Eu200 O213 2.418 . S
Eu200 O218 2.373 1_554 S
Eu200 O221 2.488 1_554 S
Eu200 O222 2.471 1_554 S
Eu200 O223 2.349 . S
Eu201 O210 2.373 1_556 S
Eu201 O214 2.488 1_556 S
Eu201 O215 2.471 1_556 S
Eu201 O216 2.349 . S
Eu201 O219 2.392 . S
Eu201 O220 2.418 . S
Eu201 C230 2.828 1_556 S
C202 O220 1.244 1_554 S
C202 O223 1.265 . S
C203 C204 1.379 . S
C203 C207 1.373 . S
C203 C209 1.505 . S
C204 C203 1.379 . S
C204 C206 1.369 . S
C204 H232 0.930 . S
C205 C207 1.383 . S
C205 C208 1.382 . S
C205 H233 0.930 . S
C206 C204 1.369 . S
C206 C208 1.392 . S
C206 H234 0.930 . S
C207 C203 1.373 . S
C207 C205 1.383 . S
C207 H235 0.931 . S
C208 C205 1.382 . S
C208 C206 1.392 . S
C209 Eu200 2.828 1_556 S
C209 C203 1.505 . S
C209 O221 1.249 . S
C209 O222 1.244 . S
O210 Eu201 2.373 1_554 S
O210 C212 1.258 . S
O211 Eu200 2.392 . S
O211 C212 1.242 . S
C212 O210 1.258 . S
C212 O211 1.242 . S
O213 Eu200 2.418 . S
O213 C217 1.244 1_554 S
O214 Eu201 2.488 1_554 S
O214 C230 1.249 . S
O215 Eu201 2.471 1_554 S
O215 C230 1.244 . S
O216 Eu201 2.349 . S
O216 C217 1.265 . S
C217 O213 1.244 1_556 S
C217 O216 1.265 . S
O218 Eu200 2.373 1_556 S
O218 C231 1.258 . S
O219 Eu201 2.392 . S
O219 C231 1.242 . S
O220 Eu201 2.418 . S
O220 C202 1.244 1_556 S
O221 Eu200 2.488 1_556 S
O221 C209 1.249 . S
O222 Eu200 2.471 1_556 S
O222 C209 1.244 . S
O223 Eu200 2.349 . S
O223 C202 1.265 . S
C224 C225 1.379 . S
C224 C228 1.373 . S
C224 C230 1.505 . S
C225 C224 1.379 . S
C225 C227 1.369 . S
C225 H236 0.930 . S
C226 C228 1.383 . S
C226 C229 1.382 . S
C226 H237 0.930 . S
C227 C225 1.369 . S
C227 C229 1.392 . S
C227 H238 0.930 . S
C228 C224 1.373 . S
C228 C226 1.383 . S
C228 H239 0.931 . S
C229 C226 1.382 . S
C229 C227 1.392 . S
C230 Eu201 2.828 1_554 S
C230 O214 1.249 . S
C230 O215 1.244 . S
C230 C224 1.505 . S
C231 O218 1.258 . S
C231 O219 1.242 . S
H232 C204 0.930 . S
H233 C205 0.930 . S
H234 C206 0.930 . S
H235 C207 0.931 . S
H236 C225 0.930 . S
H237 C226 0.930 . S
H238 C227 0.930 . S
H239 C228 0.931 . S
Eu240 C249 2.828 1_554 S
Eu240 O251 2.392 . S
Eu240 O253 2.418 . S
Eu240 O258 2.373 1_554 S
Eu240 O261 2.488 1_554 S
Eu240 O262 2.471 1_554 S
Eu240 O263 2.349 . S
Eu241 O250 2.373 1_556 S
Eu241 O254 2.488 1_556 S
Eu241 O255 2.471 1_556 S
Eu241 O256 2.349 . S
Eu241 O259 2.392 . S
Eu241 O260 2.418 . S
Eu241 C270 2.828 1_556 S
C242 O260 1.244 1_554 S
C242 O263 1.265 . S
C243 C244 1.379 . S
C243 C247 1.373 . S
C243 C249 1.505 . S
C244 C243 1.379 . S
C244 C246 1.369 . S
C244 H272 0.930 . S
C245 C247 1.383 . S
C245 C248 1.382 . S
C245 H273 0.930 . S
C246 C244 1.369 . S
C246 C248 1.392 . S
C246 H274 0.930 . S
C247 C243 1.373 . S
C247 C245 1.383 . S
C247 H275 0.931 . S
C248 C245 1.382 . S
C248 C246 1.392 . S
C249 Eu240 2.828 1_556 S
C249 C243 1.505 . S
C249 O261 1.249 . S
C249 O262 1.244 . S
O250 Eu241 2.373 1_554 S
O250 C252 1.258 . S
O251 Eu240 2.392 . S
O251 C252 1.242 . S
C252 O250 1.258 . S
C252 O251 1.242 . S
O253 Eu240 2.418 . S
O253 C257 1.244 1_554 S
O254 Eu241 2.488 1_554 S
O254 C270 1.249 . S
O255 Eu241 2.471 1_554 S
O255 C270 1.244 . S
O256 Eu241 2.349 . S
O256 C257 1.265 . S
C257 O253 1.244 1_556 S
C257 O256 1.265 . S
O258 Eu240 2.373 1_556 S
O258 C271 1.258 . S
O259 Eu241 2.392 . S
O259 C271 1.242 . S
O260 Eu241 2.418 . S
O260 C242 1.244 1_556 S
O261 Eu240 2.488 1_556 S
O261 C249 1.249 . S
O262 Eu240 2.471 1_556 S
O262 C249 1.244 . S
O263 Eu240 2.349 . S
O263 C242 1.265 . S
C264 C265 1.379 . S
C264 C268 1.373 . S
C264 C270 1.505 . S
C265 C264 1.379 . S
C265 C267 1.369 . S
C265 H276 0.930 . S
C266 C268 1.383 . S
C266 C269 1.382 . S
C266 H277 0.930 . S
C267 C265 1.369 . S
C267 C269 1.392 . S
C267 H278 0.930 . S
C268 C264 1.373 . S
C268 C266 1.383 . S
C268 H279 0.931 . S
C269 C266 1.382 . S
C269 C267 1.392 . S
C270 Eu241 2.828 1_554 S
C270 O254 1.249 . S
C270 O255 1.244 . S
C270 C264 1.505 . S
C271 O258 1.258 . S
C271 O259 1.242 . S
H272 C244 0.930 . S
H273 C245 0.930 . S
H274 C246 0.930 . S
H275 C247 0.931 . S
H276 C265 0.930 . S
H277 C266 0.930 . S
H278 C267 0.930 . S
H279 C268 0.931 . S
Eu280 C289 2.828 1_554 S
Eu280 O291 2.392 . S
Eu280 O293 2.418 . S
Eu280 O298 2.373 1_554 S
Eu280 O301 2.488 1_554 S
Eu280 O302 2.471 1_554 S
Eu280 O303 2.349 . S
Eu281 O290 2.373 1_556 S
Eu281 O294 2.488 1_556 S
Eu281 O295 2.471 1_556 S
Eu281 O296 2.349 . S
Eu281 O299 2.392 . S
Eu281 O300 2.418 . S
Eu281 C310 2.828 1_556 S
C282 O300 1.244 1_554 S
C282 O303 1.265 . S
C283 C284 1.379 . S
C283 C287 1.373 . S
C283 C289 1.505 . S
C284 C283 1.379 . S
C284 C286 1.369 . S
C284 H312 0.930 . S
C285 C287 1.383 . S
C285 C288 1.382 . S
C285 H313 0.930 . S
C286 C284 1.369 . S
C286 C288 1.392 . S
C286 H314 0.930 . S
C287 C283 1.373 . S
C287 C285 1.383 . S
C287 H315 0.931 . S
C288 C285 1.382 . S
C288 C286 1.392 . S
C289 Eu280 2.828 1_556 S
C289 C283 1.505 . S
C289 O301 1.249 . S
C289 O302 1.244 . S
O290 Eu281 2.373 1_554 S
O290 C292 1.258 . S
O291 Eu280 2.392 . S
O291 C292 1.242 . S
C292 O290 1.258 . S
C292 O291 1.242 . S
O293 Eu280 2.418 . S
O293 C297 1.244 1_554 S
O294 Eu281 2.488 1_554 S
O294 C310 1.249 . S
O295 Eu281 2.471 1_554 S
O295 C310 1.244 . S
O296 Eu281 2.349 . S
O296 C297 1.265 . S
C297 O293 1.244 1_556 S
C297 O296 1.265 . S
O298 Eu280 2.373 1_556 S
O298 C311 1.258 . S
O299 Eu281 2.392 . S
O299 C311 1.242 . S
O300 Eu281 2.418 . S
O300 C282 1.244 1_556 S
O301 Eu280 2.488 1_556 S
O301 C289 1.249 . S
O302 Eu280 2.471 1_556 S
O302 C289 1.244 . S
O303 Eu280 2.349 . S
O303 C282 1.265 . S
C304 C305 1.379 . S
C304 C308 1.373 . S
C304 C310 1.505 . S
C305 C304 1.379 . S
C305 C307 1.369 . S
C305 H316 0.930 . S
C306 C308 1.383 . S
C306 C309 1.382 . S
C306 H317 0.930 . S
C307 C305 1.369 . S
C307 C309 1.392 . S
C307 H318 0.930 . S
C308 C304 1.373 . S
C308 C306 1.383 . S
C308 H319 0.931 . S
C309 C306 1.382 . S
C309 C307 1.392 . S
C310 Eu281 2.828 1_554 S
C310 O294 1.249 . S
C310 O295 1.244 . S
C310 C304 1.505 . S
C311 O298 1.258 . S
C311 O299 1.242 . S
H312 C284 0.930 . S
H313 C285 0.930 . S
H314 C286 0.930 . S
H315 C287 0.931 . S
H316 C305 0.930 . S
H317 C306 0.930 . S
H318 C307 0.930 . S
H319 C308 0.931 . S
H320 C326 0.930 . S
H321 C329 0.930 . S
H322 C330 0.930 . S
H323 C331 0.930 . S
H324 C334 0.930 . S
H325 C335 0.930 . S
C326 H320 0.930 . S
C326 C327 1.355 . S
C326 C328 1.415 . S
C327 C326 1.355 . S
C327 C329 1.419 . S
C328 C326 1.415 . S
C328 C333 1.425 . S
C328 C335 1.409 . S
C329 H321 0.930 . S
C329 C327 1.419 . S
C329 C330 1.362 . S
C330 H322 0.930 . S
C330 C329 1.362 . S
C330 C333 1.409 . S
C331 H323 0.930 . S
C331 C332 1.355 . S
C331 C333 1.415 . S
C332 C331 1.355 . S
C332 C334 1.419 . S
C333 C328 1.425 . S
C333 C330 1.409 . S
C333 C331 1.415 . S
C334 H324 0.930 . S
C334 C332 1.419 . S
C334 C335 1.362 . S
C335 H325 0.930 . S
C335 C328 1.409 . S
C335 C334 1.362 . S
H336 C342 0.930 . S
H337 C345 0.930 . S
H338 C346 0.930 . S
H339 C347 0.930 . S
H340 C350 0.930 . S
H341 C351 0.930 . S
C342 H336 0.930 . S
C342 C343 1.355 . S
C342 C344 1.415 . S
C343 C342 1.355 . S
C343 C345 1.419 . S
C344 C342 1.415 . S
C344 C349 1.425 . S
C344 C351 1.409 . S
C345 H337 0.930 . S
C345 C343 1.419 . S
C345 C346 1.362 . S
C346 H338 0.930 . S
C346 C345 1.362 . S
C346 C349 1.409 . S
C347 H339 0.930 . S
C347 C348 1.355 . S
C347 C349 1.415 . S
C348 C347 1.355 . S
C348 C350 1.419 . S
C349 C344 1.425 . S
C349 C346 1.409 . S
C349 C347 1.415 . S
C350 H340 0.930 . S
C350 C348 1.419 . S
C350 C351 1.362 . S
C351 H341 0.930 . S
C351 C344 1.409 . S
C351 C350 1.362 . S
H352 C358 0.930 . S
H353 C361 0.930 . S
H354 C362 0.930 . S
H355 C363 0.930 . S
H356 C366 0.930 . S
H357 C367 0.930 . S
C358 H352 0.930 . S
C358 C359 1.355 . S
C358 C360 1.415 . S
C359 C358 1.355 . S
C359 C361 1.419 . S
C360 C358 1.415 . S
C360 C365 1.425 . S
C360 C367 1.409 . S
C361 H353 0.930 . S
C361 C359 1.419 . S
C361 C362 1.362 . S
C362 H354 0.930 . S
C362 C361 1.362 . S
C362 C365 1.409 . S
C363 H355 0.930 . S
C363 C364 1.355 . S
C363 C365 1.415 . S
C364 C363 1.355 . S
C364 C366 1.419 . S
C365 C360 1.425 . S
C365 C362 1.409 . S
C365 C363 1.415 . S
C366 H356 0.930 . S
C366 C364 1.419 . S
C366 C367 1.362 . S
C367 H357 0.930 . S
C367 C360 1.409 . S
C367 C366 1.362 . S
H368 C374 0.930 . S
H369 C377 0.930 . S
H370 C378 0.930 . S
H371 C379 0.930 . S
H372 C382 0.930 . S
H373 C383 0.930 . S
C374 H368 0.930 . S
C374 C375 1.355 . S
C374 C376 1.415 . S
C375 C374 1.355 . S
C375 C377 1.419 . S
C376 C374 1.415 . S
C376 C381 1.425 . S
C376 C383 1.409 . S
C377 H369 0.930 . S
C377 C375 1.419 . S
C377 C378 1.362 . S
C378 H370 0.930 . S
C378 C377 1.362 . S
C378 C381 1.409 . S
C379 H371 0.930 . S
C379 C380 1.355 . S
C379 C381 1.415 . S
C380 C379 1.355 . S
C380 C382 1.419 . S
C381 C376 1.425 . S
C381 C378 1.409 . S
C381 C379 1.415 . S
C382 H372 0.930 . S
C382 C380 1.419 . S
C382 C383 1.362 . S
C383 H373 0.930 . S
C383 C376 1.409 . S
C383 C382 1.362 . S
H384 C390 0.930 . S
H385 C393 0.930 . S
H386 C394 0.930 . S
H387 C395 0.930 . S
H388 C398 0.930 . S
H389 C399 0.930 . S
C390 H384 0.930 . S
C390 C391 1.355 . S
C390 C392 1.406 1_565 S
C391 C390 1.355 . S
C391 C393 1.419 . S
C392 C390 1.406 1_545 S
C392 C397 1.427 . S
C392 C399 1.417 . S
C393 H385 0.930 . S
C393 C391 1.419 . S
C393 C394 1.362 . S
C394 H386 0.930 . S
C394 C393 1.362 . S
C394 C397 1.409 1_565 S
C395 H387 0.930 . S
C395 C396 1.355 . S
C395 C397 1.415 . S
C396 C395 1.355 . S
C396 C398 1.419 . S
C397 C392 1.427 . S
C397 C394 1.409 1_545 S
C397 C395 1.415 . S
C398 H388 0.930 . S
C398 C396 1.419 . S
C398 C399 1.362 . S
C399 H389 0.930 . S
C399 C392 1.417 . S
C399 C398 1.362 . S
H400 C406 0.930 . S
H401 C409 0.930 . S
H402 C410 0.930 . S
H403 C411 0.930 . S
H404 C414 0.930 . S
H405 C415 0.930 . S
C406 H400 0.930 . S
C406 C407 1.355 . S
C406 C408 1.415 . S
C407 C406 1.355 . S
C407 C409 1.419 . S
C408 C406 1.415 . S
C408 C413 1.425 . S
C408 C415 1.409 . S
C409 H401 0.930 . S
C409 C407 1.419 . S
C409 C410 1.362 . S
C410 H402 0.930 . S
C410 C409 1.362 . S
C410 C413 1.409 . S
C411 H403 0.930 . S
C411 C412 1.355 . S
C411 C413 1.415 . S
C412 C411 1.355 . S
C412 C414 1.419 . S
C413 C408 1.425 . S
C413 C410 1.409 . S
C413 C411 1.415 . S
C414 H404 0.930 . S
C414 C412 1.419 . S
C414 C415 1.362 . S
C415 H405 0.930 . S
C415 C408 1.409 . S
C415 C414 1.362 . S
H416 C422 0.930 . S
H417 C425 0.930 . S
H418 C426 0.930 1_545 S
H419 C427 0.930 . S
H420 C430 0.930 . S
H421 C431 0.930 1_565 S
C422 H416 0.930 . S
C422 C423 1.355 . S
C422 C424 1.415 . S
C423 C422 1.355 . S
C423 C425 1.419 . S
C424 C422 1.415 . S
C424 C429 1.425 1_565 S
C424 C431 1.409 1_565 S
C425 H417 0.930 . S
C425 C423 1.419 . S
C425 C426 1.362 . S
C426 H418 0.930 1_565 S
C426 C425 1.362 . S
C426 C429 1.409 1_565 S
C427 H419 0.930 . S
C427 C428 1.355 . S
C427 C429 1.415 . S
C428 C427 1.355 . S
C428 C430 1.419 . S
C429 C424 1.425 1_545 S
C429 C426 1.409 1_545 S
C429 C427 1.415 . S
C430 H420 0.930 . S
C430 C428 1.419 . S
C430 C431 1.362 . S
C431 H421 0.930 1_545 S
C431 C424 1.409 1_545 S
C431 C430 1.362 . S
H432 C438 0.930 . S
H433 C441 0.930 . S
H434 C442 0.930 . S
H435 C443 0.930 . S
H436 C446 0.930 . S
H437 C447 0.930 . S
C438 H432 0.930 . S
C438 C439 1.355 . S
C438 C440 1.415 . S
C439 C438 1.355 . S
C439 C441 1.419 . S
C440 C438 1.415 . S
C440 C445 1.425 . S
C440 C447 1.409 . S
C441 H433 0.930 . S
C441 C439 1.419 . S
C441 C442 1.362 . S
C442 H434 0.930 . S
C442 C441 1.362 . S
C442 C445 1.409 . S
C443 H435 0.930 . S
C443 C444 1.355 . S
C443 C445 1.415 . S
C444 C443 1.355 . S
C444 C446 1.419 . S
C445 C440 1.425 . S
C445 C442 1.409 . S
C445 C443 1.415 . S
C446 H436 0.930 . S
C446 C444 1.419 . S
C446 C447 1.362 . S
C447 H437 0.930 . S
C447 C440 1.409 . S
C447 C446 1.362 . S
H448 C454 0.930 . S
H449 C457 0.930 . S
H450 C458 0.930 . S
H451 C459 0.930 . S
H452 C462 0.930 . S
H453 C463 0.930 . S
C454 H448 0.930 . S
C454 C455 1.355 . S
C454 C456 1.415 . S
C455 C454 1.355 . S
C455 C457 1.419 1_556 S
C456 C454 1.415 . S
C456 C461 1.425 1_556 S
C456 C463 1.409 . S
C457 H449 0.930 . S
C457 C455 1.419 1_554 S
C457 C458 1.362 . S
C458 H450 0.930 . S
C458 C457 1.362 . S
C458 C461 1.409 . S
C459 H451 0.930 . S
C459 C460 1.355 1_554 S
C459 C461 1.415 . S
C460 C459 1.355 1_556 S
C460 C462 1.419 . S
C461 C456 1.425 1_554 S
C461 C458 1.409 . S
C461 C459 1.415 . S
C462 H452 0.930 . S
C462 C460 1.419 . S
C462 C463 1.362 . S
C463 H453 0.930 . S
C463 C456 1.409 . S
C463 C462 1.362 . S
H464 C470 0.930 . S
H465 C473 0.930 . S
H466 C474 0.930 . S
H467 C475 0.930 . S
H468 C478 0.930 . S
H469 C479 0.930 . S
C470 H464 0.930 . S
C470 C471 1.355 1_554 S
C470 C472 1.415 . S
C471 C470 1.355 1_556 S
C471 C473 1.419 . S
C472 C470 1.415 . S
C472 C477 1.425 1_564 S
C472 C479 1.409 1_565 S
C473 H465 0.930 . S
C473 C471 1.419 . S
C473 C474 1.362 . S
C474 H466 0.930 . S
C474 C473 1.362 . S
C474 C477 1.409 1_565 S
C475 H467 0.930 . S
C475 C476 1.355 1_556 S
C475 C477 1.415 . S
C476 C475 1.355 1_554 S
C476 C478 1.419 . S
C477 C472 1.425 1_546 S
C477 C474 1.409 1_545 S
C477 C475 1.415 . S
C478 H468 0.930 . S
C478 C476 1.419 . S
C478 C479 1.362 . S
C479 H469 0.930 . S
C479 C472 1.409 1_545 S
C479 C478 1.362 . S
H480 C486 0.930 . S
H481 C489 0.930 1_556 S
H482 C490 0.930 1_556 S
H483 C491 0.930 . S
H484 C494 0.930 . S
H485 C495 0.930 . S
C486 H480 0.930 . S
C486 C487 1.355 . S
C486 C488 1.415 . S
C487 C486 1.355 . S
C487 C489 1.419 . S
C488 C486 1.415 . S
C488 C493 1.425 . S
C488 C495 1.409 . S
C489 H481 0.930 1_554 S
C489 C487 1.419 . S
C489 C490 1.362 . S
C490 H482 0.930 1_554 S
C490 C489 1.362 . S
C490 C493 1.409 . S
C491 H483 0.930 . S
C491 C492 1.355 1_556 S
C491 C493 1.415 1_556 S
C492 C491 1.355 1_554 S
C492 C494 1.419 . S
C493 C488 1.425 . S
C493 C490 1.409 . S
C493 C491 1.415 1_554 S
C494 H484 0.930 . S
C494 C492 1.419 . S
C494 C495 1.362 . S
C495 H485 0.930 . S
C495 C488 1.409 . S
C495 C494 1.362 . S
H496 C502 0.930 . S
H497 C505 0.930 . S
H498 C506 0.930 . S
H499 C507 0.930 . S
H500 C510 0.930 . S
H501 C511 0.930 . S
C502 H496 0.930 . S
C502 C503 1.355 . S
C502 C504 1.415 . S
C503 C502 1.355 . S
C503 C505 1.419 1_554 S
C504 C502 1.415 . S
C504 C509 1.425 1_544 S
C504 C511 1.409 1_545 S
C505 H497 0.930 . S
C505 C503 1.419 1_556 S
C505 C506 1.362 . S
C506 H498 0.930 . S
C506 C505 1.362 . S
C506 C509 1.409 1_545 S
C507 H499 0.930 . S
C507 C508 1.355 1_556 S
C507 C509 1.415 . S
C508 C507 1.355 1_554 S
C508 C510 1.419 . S
C509 C504 1.425 1_566 S
C509 C506 1.409 1_565 S
C509 C507 1.415 . S
C510 H500 0.930 . S
C510 C508 1.419 . S
C510 C511 1.362 . S
C511 H501 0.930 . S
C511 C504 1.409 1_565 S
C511 C510 1.362 . S
H512 C518 0.930 . S
H513 C521 0.930 . S
H514 C522 0.930 1_556 S
H515 C523 0.930 . S
H516 C526 0.930 . S
H517 C527 0.930 . S
C518 H512 0.930 . S
C518 C519 1.355 . S
C518 C520 1.415 1_554 S
C519 C518 1.355 . S
C519 C521 1.419 . S
C520 C518 1.415 1_556 S
C520 C525 1.425 . S
C520 C527 1.409 . S
C521 H513 0.930 . S
C521 C519 1.419 . S
C521 C522 1.362 . S
C522 H514 0.930 1_554 S
C522 C521 1.362 . S
C522 C525 1.409 1_554 S
C523 H515 0.930 . S
C523 C524 1.355 . S
C523 C525 1.415 . S
C524 C523 1.355 . S
C524 C526 1.419 . S
C525 C520 1.425 . S
C525 C522 1.409 1_556 S
C525 C523 1.415 . S
C526 H516 0.930 . S
C526 C524 1.419 . S
C526 C527 1.362 . S
C527 H517 0.930 . S
C527 C520 1.409 . S
C527 C526 1.362 . S
H528 C534 0.930 . S
H529 C537 0.930 . S
H530 C538 0.930 . S
H531 C539 0.930 . S
H532 C542 0.930 . S
H533 C543 0.930 . S
C534 H528 0.930 . S
C534 C535 1.355 . S
C534 C536 1.415 1_554 S
C535 C534 1.355 . S
C535 C537 1.419 . S
C536 C534 1.415 1_556 S
C536 C541 1.425 . S
C536 C543 1.409 . S
C537 H529 0.930 . S
C537 C535 1.419 . S
C537 C538 1.362 1_554 S
C538 H530 0.930 . S
C538 C537 1.362 1_556 S
C538 C541 1.409 . S
C539 H531 0.930 . S
C539 C540 1.355 . S
C539 C541 1.415 . S
C540 C539 1.355 . S
C540 C542 1.419 . S
C541 C536 1.425 . S
C541 C538 1.409 . S
C541 C539 1.415 . S
C542 H532 0.930 . S
C542 C540 1.419 . S
C542 C543 1.362 . S
C543 H533 0.930 . S
C543 C536 1.409 . S
C543 C542 1.362 . S
H544 C550 0.930 . S
H545 C553 0.930 . S
H546 C554 0.930 . S
H547 C555 0.930 . S
H548 C558 0.930 . S
H549 C559 0.930 . S
C550 H544 0.930 . S
C550 C551 1.355 . S
C550 C552 1.415 . S
C551 C550 1.355 . S
C551 C553 1.419 . S
C552 C550 1.415 . S
C552 C557 1.425 . S
C552 C559 1.409 . S
C553 H545 0.930 . S
C553 C551 1.419 . S
C553 C554 1.362 . S
C554 H546 0.930 . S
C554 C553 1.362 . S
C554 C557 1.409 . S
C555 H547 0.930 . S
C555 C556 1.355 . S
C555 C557 1.415 1_556 S
C556 C555 1.355 . S
C556 C558 1.419 . S
C557 C552 1.425 . S
C557 C554 1.409 . S
C557 C555 1.415 1_554 S
C558 H548 0.930 . S
C558 C556 1.419 . S
C558 C559 1.362 1_556 S
C559 H549 0.930 . S
C559 C552 1.409 . S
C559 C558 1.362 1_554 S
H560 C566 0.930 . S
H561 C569 0.930 . S
H562 C570 0.930 . S
H563 C571 0.930 . S
H564 C574 0.930 . S
H565 C575 0.930 . S
C566 H560 0.930 . S
C566 C567 1.355 . S
C566 C568 1.415 1_556 S
C567 C566 1.355 . S
C567 C569 1.419 . S
C568 C566 1.415 1_554 S
C568 C573 1.425 . S
C568 C575 1.409 . S
C569 H561 0.930 . S
C569 C567 1.419 . S
C569 C570 1.362 1_556 S
C570 H562 0.930 . S
C570 C569 1.362 1_554 S
C570 C573 1.409 . S
C571 H563 0.930 . S
C571 C572 1.355 . S
C571 C573 1.415 . S
C572 C571 1.355 . S
C572 C574 1.419 . S
C573 C568 1.425 . S
C573 C570 1.409 . S
C573 C571 1.415 . S
C574 H564 0.930 . S
C574 C572 1.419 . S
C574 C575 1.362 . S
C575 H565 0.930 . S
C575 C568 1.409 . S
C575 C574 1.362 . S
H576 C582 0.930 . S
H577 C585 0.930 . S
H578 C586 0.930 . S
H579 C587 0.930 . S
H580 C590 0.930 . S
H581 C591 0.930 . S
C582 H576 0.930 . S
C582 C583 1.355 . S
C582 C584 1.415 . S
C583 C582 1.355 . S
C583 C585 1.419 . S
C584 C582 1.415 . S
C584 C589 1.425 . S
C584 C591 1.409 . S
C585 H577 0.930 . S
C585 C583 1.419 . S
C585 C586 1.362 . S
C586 H578 0.930 . S
C586 C585 1.362 . S
C586 C589 1.409 . S
C587 H579 0.930 . S
C587 C588 1.355 . S
C587 C589 1.415 . S
C588 C587 1.355 . S
C588 C590 1.419 . S
C589 C584 1.425 . S
C589 C586 1.409 . S
C589 C587 1.415 . S
C590 H580 0.930 . S
C590 C588 1.419 . S
C590 C591 1.362 . S
C591 H581 0.930 . S
C591 C584 1.409 . S
C591 C590 1.362 . S
H592 C598 0.930 . S
H593 C601 0.930 . S
H594 C602 0.930 . S
H595 C603 0.930 . S
H596 C606 0.930 . S
H597 C607 0.930 . S
C598 H592 0.930 . S
C598 C599 1.355 . S
C598 C600 1.415 . S
C599 C598 1.355 . S
C599 C601 1.419 . S
C600 C598 1.415 . S
C600 C605 1.425 . S
C600 C607 1.409 . S
C601 H593 0.930 . S
C601 C599 1.419 . S
C601 C602 1.362 . S
C602 H594 0.930 . S
C602 C601 1.362 . S
C602 C605 1.409 . S
C603 H595 0.930 . S
C603 C604 1.355 . S
C603 C605 1.415 . S
C604 C603 1.355 . S
C604 C606 1.419 . S
C605 C600 1.425 . S
C605 C602 1.409 . S
C605 C603 1.415 . S
C606 H596 0.930 . S
C606 C604 1.419 . S
C606 C607 1.362 . S
C607 H597 0.930 . S
C607 C600 1.409 . S
C607 C606 1.362 . S
H608 C614 0.930 . S
H609 C617 0.930 . S
H610 C618 0.930 . S
H611 C619 0.930 . S
H612 C622 0.930 . S
H613 C623 0.930 . S
C614 H608 0.930 . S
C614 C615 1.355 . S
C614 C616 1.415 . S
C615 C614 1.355 . S
C615 C617 1.419 . S
C616 C614 1.415 . S
C616 C621 1.425 . S
C616 C623 1.409 . S
C617 H609 0.930 . S
C617 C615 1.419 . S
C617 C618 1.362 . S
C618 H610 0.930 . S
C618 C617 1.362 . S
C618 C621 1.409 . S
C619 H611 0.930 . S
C619 C620 1.355 . S
C619 C621 1.415 . S
C620 C619 1.355 . S
C620 C622 1.419 . S
C621 C616 1.425 . S
C621 C618 1.409 . S
C621 C619 1.415 . S
C622 H612 0.930 . S
C622 C620 1.419 . S
C622 C623 1.362 . S
C623 H613 0.930 . S
C623 C616 1.409 . S
C623 C622 1.362 . S
H624 C630 0.930 . S
H625 C633 0.930 . S
H626 C634 0.930 . S
H627 C635 0.930 . S
H628 C638 0.930 . S
H629 C639 0.930 . S
C630 H624 0.930 . S
C630 C631 1.355 . S
C630 C632 1.415 . S
C631 C630 1.355 . S
C631 C633 1.419 . S
C632 C630 1.415 . S
C632 C637 1.425 . S
C632 C639 1.409 . S
C633 H625 0.930 . S
C633 C631 1.419 . S
C633 C634 1.362 . S
C634 H626 0.930 . S
C634 C633 1.362 . S
C634 C637 1.409 . S
C635 H627 0.930 . S
C635 C636 1.355 . S
C635 C637 1.415 . S
C636 C635 1.355 . S
C636 C638 1.419 . S
C637 C632 1.425 . S
C637 C634 1.409 . S
C637 C635 1.415 . S
C638 H628 0.930 . S
C638 C636 1.419 . S
C638 C639 1.362 . S
C639 H629 0.930 . S
C639 C632 1.409 . S
C639 C638 1.362 . S
H640 C646 0.930 . S
H641 C649 0.930 . S
H642 C650 0.930 . S
H643 C651 0.930 . S
H644 C654 0.930 . S
H645 C655 0.930 . S
C646 H640 0.930 . S
C646 C647 1.355 . S
C646 C648 1.415 . S
C647 C646 1.355 . S
C647 C649 1.419 . S
C648 C646 1.415 . S
C648 C653 1.425 1_455 S
C648 C655 1.409 1_455 S
C649 H641 0.930 . S
C649 C647 1.419 . S
C649 C650 1.362 . S
C650 H642 0.930 . S
C650 C649 1.362 . S
C650 C653 1.409 1_455 S
C651 H643 0.930 . S
C651 C652 1.355 . S
C651 C653 1.415 . S
C652 C651 1.355 . S
C652 C654 1.419 . S
C653 C648 1.425 1_655 S
C653 C650 1.409 1_655 S
C653 C651 1.415 . S
C654 H644 0.930 . S
C654 C652 1.419 . S
C654 C655 1.362 . S
C655 H645 0.930 . S
C655 C648 1.409 1_655 S
C655 C654 1.362 . S
H656 C662 0.930 . S
H657 C665 0.930 . S
H658 C666 0.930 . S
H659 C667 0.930 . S
H660 C670 0.930 . S
H661 C671 0.930 . S
C662 H656 0.930 . S
C662 C663 1.355 . S
C662 C664 1.415 . S
C663 C662 1.355 . S
C663 C665 1.419 . S
C664 C662 1.415 . S
C664 C669 1.425 1_655 S
C664 C671 1.409 1_655 S
C665 H657 0.930 . S
C665 C663 1.419 . S
C665 C666 1.362 . S
C666 H658 0.930 . S
C666 C665 1.362 . S
C666 C669 1.409 1_655 S
C667 H659 0.930 . S
C667 C668 1.355 . S
C667 C669 1.415 . S
C668 C667 1.355 . S
C668 C670 1.419 . S
C669 C664 1.425 1_455 S
C669 C666 1.409 1_455 S
C669 C667 1.415 . S
C670 H660 0.930 . S
C670 C668 1.419 . S
C670 C671 1.362 . S
C671 H661 0.930 . S
C671 C664 1.409 1_455 S
C671 C670 1.362 . S
H672 C678 0.930 . S
H673 C681 0.930 . S
H674 C682 0.930 . S
H675 C683 0.930 . S
H676 C686 0.930 . S
H677 C687 0.930 . S
C678 H672 0.930 . S
C678 C679 1.355 . S
C678 C680 1.415 . S
C679 C678 1.355 . S
C679 C681 1.419 . S
C680 C678 1.415 . S
C680 C685 1.425 . S
C680 C687 1.409 . S
C681 H673 0.930 . S
C681 C679 1.419 . S
C681 C682 1.362 . S
C682 H674 0.930 . S
C682 C681 1.362 . S
C682 C685 1.409 . S
C683 H675 0.930 . S
C683 C684 1.355 . S
C683 C685 1.415 . S
C684 C683 1.355 . S
C684 C686 1.419 . S
C685 C680 1.425 . S
C685 C682 1.409 . S
C685 C683 1.415 . S
C686 H676 0.930 . S
C686 C684 1.419 . S
C686 C687 1.362 . S
C687 H677 0.930 . S
C687 C680 1.409 . S
C687 C686 1.362 . S
H688 C694 0.930 . S
H689 C697 0.930 . S
H690 C698 0.930 . S
H691 C699 0.930 . S
H692 C702 0.930 . S
H693 C703 0.930 . S
C694 H688 0.930 . S
C694 C695 1.355 . S
C694 C696 1.415 . S
C695 C694 1.355 . S
C695 C697 1.419 . S
C696 C694 1.415 . S
C696 C701 1.425 . S
C696 C703 1.409 . S
C697 H689 0.930 . S
C697 C695 1.419 . S
C697 C698 1.362 . S
C698 H690 0.930 . S
C698 C697 1.362 . S
C698 C701 1.409 . S
C699 H691 0.930 . S
C699 C700 1.355 . S
C699 C701 1.415 . S
C700 C699 1.355 . S
C700 C702 1.419 . S
C701 C696 1.425 . S
C701 C698 1.409 . S
C701 C699 1.415 . S
C702 H692 0.930 . S
C702 C700 1.419 . S
C702 C703 1.362 . S
C703 H693 0.930 . S
C703 C696 1.409 . S
C703 C702 1.362 . S
C327 C29 1.666 . S
C332 C288 1.666 . S
C343 C248 1.619 . S
C348 C69 1.619 . S
C359 C229 1.665 . S
C364 C88 1.665 . S
C375 C189 1.629 . S
C380 C128 1.629 . S
C391 C97 1.608 . S
C396 C17 1.583 . S
C407 C57 1.578 . S
C412 C137 1.604 . S
C423 C122 1.540 . S
C428 C42 1.560 . S
C439 C82 1.542 . S
C444 C2 1.573 . S
C455 C177 1.414 . S
C460 C257 1.417 . S
C471 C217 1.430 . S
C476 C297 1.421 1_554 S
C487 C282 1.475 . S
C492 C202 1.472 . S
C503 C242 1.474 . S
C508 C162 1.474 . S
C519 C31 2.028 . S
C524 C12 2.028 . S
C535 C71 2.035 . S
C540 C52 2.035 . S
C551 C111 2.071 . S
C556 C92 2.071 . S
C567 C132 2.036 . S
C572 C151 2.036 . S
C583 C172 2.070 . S
C588 C191 2.070 . S
C599 C231 2.030 . S
C604 C212 2.030 . S
C615 C252 2.046 . S
C620 C271 2.046 . S
C631 C292 2.055 . S
C636 C311 2.055 . S
C647 C8 2.234 . S
C652 C48 2.207 . S
C663 C149 2.215 . S
C668 C109 2.226 . S
C679 C168 2.235 . S
C684 C208 2.208 . S
C695 C309 2.194 . S
C700 C269 2.236 . S
