# Generated by pormake.
# Topology cha, (4)-cn, num edge types: 1
# Building blocks:
#     Node 0, Type 0, BuildingBlock: KUFVIS_clean_sbu_0, # of connection points: 4
#     Node 1, Type 0, BuildingBlock: KUFVIS_clean_sbu_0, # of connection points: 4
#     Node 2, Type 0, BuildingBlock: KUFVIS_clean_sbu_0, # of connection points: 4
#     Node 3, Type 0, BuildingBlock: KUFVIS_clean_sbu_0, # of connection points: 4
#     Node 4, Type 0, BuildingBlock: KUFVIS_clean_sbu_0, # of connection points: 4
#     Node 5, Type 0, BuildingBlock: KUFVIS_clean_sbu_0, # of connection points: 4
#     Node 6, Type 0, BuildingBlock: KUFVIS_clean_sbu_0, # of connection points: 4
#     Node 7, Type 0, BuildingBlock: KUFVIS_clean_sbu_0, # of connection points: 4
#     Node 8, Type 0, BuildingBlock: KUFVIS_clean_sbu_0, # of connection points: 4
#     Node 9, Type 0, BuildingBlock: KUFVIS_clean_sbu_0, # of connection points: 4
#     Node 10, Type 0, BuildingBlock: KUFVIS_clean_sbu_0, # of connection points: 4
#     Node 11, Type 0, BuildingBlock: KUFVIS_clean_sbu_0, # of connection points: 4
#     Node 12, Type 0, BuildingBlock: KUFVIS_clean_sbu_0, # of connection points: 4
#     Node 13, Type 0, BuildingBlock: KUFVIS_clean_sbu_0, # of connection points: 4
#     Node 14, Type 0, BuildingBlock: KUFVIS_clean_sbu_0, # of connection points: 4
#     Node 15, Type 0, BuildingBlock: KUFVIS_clean_sbu_0, # of connection points: 4
#     Node 16, Type 0, BuildingBlock: KUFVIS_clean_sbu_0, # of connection points: 4
#     Node 17, Type 0, BuildingBlock: KUFVIS_clean_sbu_0, # of connection points: 4
#     Node 18, Type 0, BuildingBlock: KUFVIS_clean_sbu_0, # of connection points: 4
#     Node 19, Type 0, BuildingBlock: KUFVIS_clean_sbu_0, # of connection points: 4
#     Node 20, Type 0, BuildingBlock: KUFVIS_clean_sbu_0, # of connection points: 4
#     Node 21, Type 0, BuildingBlock: KUFVIS_clean_sbu_0, # of connection points: 4
#     Node 22, Type 0, BuildingBlock: KUFVIS_clean_sbu_0, # of connection points: 4
#     Node 23, Type 0, BuildingBlock: KUFVIS_clean_sbu_0, # of connection points: 4
#     Node 24, Type 0, BuildingBlock: KUFVIS_clean_sbu_0, # of connection points: 4
#     Node 25, Type 0, BuildingBlock: KUFVIS_clean_sbu_0, # of connection points: 4
#     Node 26, Type 0, BuildingBlock: KUFVIS_clean_sbu_0, # of connection points: 4
#     Node 27, Type 0, BuildingBlock: KUFVIS_clean_sbu_0, # of connection points: 4
#     Node 28, Type 0, BuildingBlock: KUFVIS_clean_sbu_0, # of connection points: 4
#     Node 29, Type 0, BuildingBlock: KUFVIS_clean_sbu_0, # of connection points: 4
#     Node 30, Type 0, BuildingBlock: KUFVIS_clean_sbu_0, # of connection points: 4
#     Node 31, Type 0, BuildingBlock: KUFVIS_clean_sbu_0, # of connection points: 4
#     Node 32, Type 0, BuildingBlock: KUFVIS_clean_sbu_0, # of connection points: 4
#     Node 33, Type 0, BuildingBlock: KUFVIS_clean_sbu_0, # of connection points: 4
#     Node 34, Type 0, BuildingBlock: KUFVIS_clean_sbu_0, # of connection points: 4
#     Node 35, Type 0, BuildingBlock: KUFVIS_clean_sbu_0, # of connection points: 4
#     Edge 36, Type (0, 0), BuildingBlock: ZUJKAS_clean_linker_0, # of connection points: 2
#     Edge 37, Type (0, 0), BuildingBlock: ZUJKAS_clean_linker_0, # of connection points: 2
#     Edge 38, Type (0, 0), BuildingBlock: ZUJKAS_clean_linker_0, # of connection points: 2
#     Edge 39, Type (0, 0), BuildingBlock: ZUJKAS_clean_linker_0, # of connection points: 2
#     Edge 40, Type (0, 0), BuildingBlock: ZUJKAS_clean_linker_0, # of connection points: 2
#     Edge 41, Type (0, 0), BuildingBlock: ZUJKAS_clean_linker_0, # of connection points: 2
#     Edge 42, Type (0, 0), BuildingBlock: ZUJKAS_clean_linker_0, # of connection points: 2
#     Edge 43, Type (0, 0), BuildingBlock: ZUJKAS_clean_linker_0, # of connection points: 2
#     Edge 44, Type (0, 0), BuildingBlock: ZUJKAS_clean_linker_0, # of connection points: 2
#     Edge 45, Type (0, 0), BuildingBlock: ZUJKAS_clean_linker_0, # of connection points: 2
#     Edge 46, Type (0, 0), BuildingBlock: ZUJKAS_clean_linker_0, # of connection points: 2
#     Edge 47, Type (0, 0), BuildingBlock: ZUJKAS_clean_linker_0, # of connection points: 2
#     Edge 48, Type (0, 0), BuildingBlock: ZUJKAS_clean_linker_0, # of connection points: 2
#     Edge 49, Type (0, 0), BuildingBlock: ZUJKAS_clean_linker_0, # of connection points: 2
#     Edge 50, Type (0, 0), BuildingBlock: ZUJKAS_clean_linker_0, # of connection points: 2
#     Edge 51, Type (0, 0), BuildingBlock: ZUJKAS_clean_linker_0, # of connection points: 2
#     Edge 52, Type (0, 0), BuildingBlock: ZUJKAS_clean_linker_0, # of connection points: 2
#     Edge 53, Type (0, 0), BuildingBlock: ZUJKAS_clean_linker_0, # of connection points: 2
#     Edge 54, Type (0, 0), BuildingBlock: ZUJKAS_clean_linker_0, # of connection points: 2
#     Edge 55, Type (0, 0), BuildingBlock: ZUJKAS_clean_linker_0, # of connection points: 2
#     Edge 56, Type (0, 0), BuildingBlock: ZUJKAS_clean_linker_0, # of connection points: 2
#     Edge 57, Type (0, 0), BuildingBlock: ZUJKAS_clean_linker_0, # of connection points: 2
#     Edge 58, Type (0, 0), BuildingBlock: ZUJKAS_clean_linker_0, # of connection points: 2
#     Edge 59, Type (0, 0), BuildingBlock: ZUJKAS_clean_linker_0, # of connection points: 2
#     Edge 60, Type (0, 0), BuildingBlock: ZUJKAS_clean_linker_0, # of connection points: 2
#     Edge 61, Type (0, 0), BuildingBlock: ZUJKAS_clean_linker_0, # of connection points: 2
#     Edge 62, Type (0, 0), BuildingBlock: ZUJKAS_clean_linker_0, # of connection points: 2
#     Edge 63, Type (0, 0), BuildingBlock: ZUJKAS_clean_linker_0, # of connection points: 2
#     Edge 64, Type (0, 0), BuildingBlock: ZUJKAS_clean_linker_0, # of connection points: 2
#     Edge 65, Type (0, 0), BuildingBlock: ZUJKAS_clean_linker_0, # of connection points: 2
#     Edge 66, Type (0, 0), BuildingBlock: ZUJKAS_clean_linker_0, # of connection points: 2
#     Edge 67, Type (0, 0), BuildingBlock: ZUJKAS_clean_linker_0, # of connection points: 2
#     Edge 68, Type (0, 0), BuildingBlock: ZUJKAS_clean_linker_0, # of connection points: 2
#     Edge 69, Type (0, 0), BuildingBlock: ZUJKAS_clean_linker_0, # of connection points: 2
#     Edge 70, Type (0, 0), BuildingBlock: ZUJKAS_clean_linker_0, # of connection points: 2
#     Edge 71, Type (0, 0), BuildingBlock: ZUJKAS_clean_linker_0, # of connection points: 2
#     Edge 72, Type (0, 0), BuildingBlock: ZUJKAS_clean_linker_0, # of connection points: 2
#     Edge 73, Type (0, 0), BuildingBlock: ZUJKAS_clean_linker_0, # of connection points: 2
#     Edge 74, Type (0, 0), BuildingBlock: ZUJKAS_clean_linker_0, # of connection points: 2
#     Edge 75, Type (0, 0), BuildingBlock: ZUJKAS_clean_linker_0, # of connection points: 2
#     Edge 76, Type (0, 0), BuildingBlock: ZUJKAS_clean_linker_0, # of connection points: 2
#     Edge 77, Type (0, 0), BuildingBlock: ZUJKAS_clean_linker_0, # of connection points: 2
#     Edge 78, Type (0, 0), BuildingBlock: ZUJKAS_clean_linker_0, # of connection points: 2
#     Edge 79, Type (0, 0), BuildingBlock: ZUJKAS_clean_linker_0, # of connection points: 2
#     Edge 80, Type (0, 0), BuildingBlock: ZUJKAS_clean_linker_0, # of connection points: 2
#     Edge 81, Type (0, 0), BuildingBlock: ZUJKAS_clean_linker_0, # of connection points: 2
#     Edge 82, Type (0, 0), BuildingBlock: ZUJKAS_clean_linker_0, # of connection points: 2
#     Edge 83, Type (0, 0), BuildingBlock: ZUJKAS_clean_linker_0, # of connection points: 2
#     Edge 84, Type (0, 0), BuildingBlock: ZUJKAS_clean_linker_0, # of connection points: 2
#     Edge 85, Type (0, 0), BuildingBlock: ZUJKAS_clean_linker_0, # of connection points: 2
#     Edge 86, Type (0, 0), BuildingBlock: ZUJKAS_clean_linker_0, # of connection points: 2
#     Edge 87, Type (0, 0), BuildingBlock: ZUJKAS_clean_linker_0, # of connection points: 2
#     Edge 88, Type (0, 0), BuildingBlock: ZUJKAS_clean_linker_0, # of connection points: 2
#     Edge 89, Type (0, 0), BuildingBlock: ZUJKAS_clean_linker_0, # of connection points: 2
#     Edge 90, Type (0, 0), BuildingBlock: ZUJKAS_clean_linker_0, # of connection points: 2
#     Edge 91, Type (0, 0), BuildingBlock: ZUJKAS_clean_linker_0, # of connection points: 2
#     Edge 92, Type (0, 0), BuildingBlock: ZUJKAS_clean_linker_0, # of connection points: 2
#     Edge 93, Type (0, 0), BuildingBlock: ZUJKAS_clean_linker_0, # of connection points: 2
#     Edge 94, Type (0, 0), BuildingBlock: ZUJKAS_clean_linker_0, # of connection points: 2
#     Edge 95, Type (0, 0), BuildingBlock: ZUJKAS_clean_linker_0, # of connection points: 2
#     Edge 96, Type (0, 0), BuildingBlock: ZUJKAS_clean_linker_0, # of connection points: 2
#     Edge 97, Type (0, 0), BuildingBlock: ZUJKAS_clean_linker_0, # of connection points: 2
#     Edge 98, Type (0, 0), BuildingBlock: ZUJKAS_clean_linker_0, # of connection points: 2
#     Edge 99, Type (0, 0), BuildingBlock: ZUJKAS_clean_linker_0, # of connection points: 2
#     Edge 100, Type (0, 0), BuildingBlock: ZUJKAS_clean_linker_0, # of connection points: 2
#     Edge 101, Type (0, 0), BuildingBlock: ZUJKAS_clean_linker_0, # of connection points: 2
#     Edge 102, Type (0, 0), BuildingBlock: ZUJKAS_clean_linker_0, # of connection points: 2
#     Edge 103, Type (0, 0), BuildingBlock: ZUJKAS_clean_linker_0, # of connection points: 2
#     Edge 104, Type (0, 0), BuildingBlock: ZUJKAS_clean_linker_0, # of connection points: 2
#     Edge 105, Type (0, 0), BuildingBlock: ZUJKAS_clean_linker_0, # of connection points: 2
#     Edge 106, Type (0, 0), BuildingBlock: ZUJKAS_clean_linker_0, # of connection points: 2
#     Edge 107, Type (0, 0), BuildingBlock: ZUJKAS_clean_linker_0, # of connection points: 2
# Relax obj value: 0.088
# Max RMSD: 0.120
# Mean RMSD: 0.120
data_MOF--net-cha--node1-KUFVIS_clean_sbu_0--edge1-ZUJKAS_clean_linker_0
_symmetry_space_group_name_H-M    P1
_symmetry_Int_Tables_number       1
_symmetry_cell_setting            triclinic
loop_
_symmetry_equiv_pos_as_xyz
'x, y, z'
_cell_length_a     71.859161
_cell_length_b     71.860547
_cell_length_c     109.49873
_cell_angle_alpha  90.008436
_cell_angle_beta   90.000405
_cell_angle_gamma 119.99028
loop_
_atom_site_label
_atom_site_type_symbol
_atom_site_fract_x
_atom_site_fract_y
_atom_site_fract_z
_atom_type_partial_charge
Mn0 Mn 0.02316 0.2935 0.09122 0.0
Mn1 Mn 0.02209 0.25288 0.07537 0.0
C2 C 0.99033 0.26372 0.08632 0.0
C3 C 0.02606 0.30941 0.11027 0.0
C4 C 0.03204 0.29558 0.06402 0.0
O5 O 0.05404 0.29937 0.09223 0.0
O6 O 0.04963 0.2684 0.08443 0.0
C7 C 0.02103 0.22524 0.09572 0.0
N8 N 0.01223 0.22784 0.0853 0.0
C9 C 0.9841 0.19081 0.08556 0.0
C10 C 0.99292 0.18769 0.09626 0.0
C11 C 0.01141 0.205 0.10138 0.0
C12 C 0.99433 0.21135 0.08036 0.0
H13 H 0.03524 0.23852 0.09966 0.0
C14 C 0.06095 0.28649 0.08982 0.0
O15 O 0.03092 0.32066 0.10027 0.0
O16 O 0.01987 0.28919 0.10915 0.0
N17 N 0.99627 0.23639 0.06619 0.0
C18 C 0.98933 0.24231 0.05612 0.0
C19 C 0.97119 0.22683 0.04979 0.0
C20 C 0.96044 0.20543 0.05383 0.0
C21 C 0.96763 0.19978 0.06435 0.0
C22 C 0.98602 0.21583 0.07016 0.0
H23 H 0.99772 0.25863 0.05282 0.0
O24 O 0.99145 0.28165 0.08949 0.0
O25 O 0.00838 0.26366 0.08648 0.0
O26 O 0.02776 0.30347 0.07334 0.0
O27 O 0.03188 0.2777 0.06422 0.0
C28 C 0.95728 0.17887 0.06928 0.0
C29 C 0.96542 0.17443 0.07994 0.0
H30 H 0.98555 0.17211 0.10067 0.0
H31 H 0.01826 0.20274 0.10967 0.0
H32 H 0.96564 0.23132 0.04173 0.0
H33 H 0.94665 0.19349 0.04879 0.0
H34 H 0.94294 0.16614 0.06503 0.0
H35 H 0.95715 0.15836 0.08375 0.0
Mn36 Mn 0.76389 0.75687 0.09326 0.0
Mn37 Mn 0.80743 0.79405 0.07799 0.0
C38 C 0.7922 0.75094 0.08945 0.0
C39 C 0.74631 0.74442 0.11195 0.0
C40 C 0.76472 0.7637 0.06577 0.0
O41 O 0.76079 0.78359 0.09391 0.0
O42 O 0.79254 0.80799 0.08576 0.0
C43 C 0.83388 0.82037 0.09875 0.0
N44 N 0.83156 0.80826 0.08869 0.0
C45 C 0.8676 0.81454 0.09072 0.0
C46 C 0.87043 0.82718 0.10107 0.0
C47 C 0.85347 0.83005 0.10513 0.0
C48 C 0.84772 0.8053 0.08475 0.0
H49 H 0.82088 0.82261 0.10188 0.0
C50 C 0.77467 0.80286 0.09102 0.0
O51 O 0.73564 0.73918 0.10174 0.0
O52 O 0.76688 0.7572 0.11124 0.0
N53 N 0.82346 0.78279 0.07009 0.0
C54 C 0.81775 0.76926 0.06032 0.0
C55 C 0.83281 0.76448 0.05523 0.0
C56 C 0.8536 0.77376 0.06016 0.0
C57 C 0.8591 0.78759 0.07022 0.0
C58 C 0.84349 0.79194 0.07483 0.0
H59 H 0.80187 0.76223 0.05641 0.0
O60 O 0.77333 0.73498 0.09209 0.0
O61 O 0.79393 0.76981 0.0893 0.0
O62 O 0.75506 0.75238 0.07515 0.0
O63 O 0.78369 0.77998 0.06614 0.0
C64 C 0.87938 0.79707 0.07593 0.0
C65 C 0.8836 0.81046 0.08621 0.0
H66 H 0.88549 0.83462 0.10603 0.0
H67 H 0.8555 0.8397 0.11314 0.0
H68 H 0.82843 0.75375 0.04748 0.0
H69 H 0.8652 0.77014 0.05614 0.0
H70 H 0.89175 0.79394 0.0726 0.0
H71 H 0.89913 0.81739 0.09063 0.0
Mn72 Mn 0.29928 0.03386 0.09025 0.0
Mn73 Mn 0.25839 0.03235 0.07443 0.0
C74 C 0.29992 0.06562 0.08528 0.0
C75 C 0.3136 0.03238 0.10914 0.0
C76 C 0.29271 0.02489 0.06296 0.0
O77 O 0.27545 0.00246 0.09171 0.0
O78 O 0.24817 0.00476 0.08314 0.0
C79 C 0.23001 0.0299 0.09471 0.0
N80 N 0.24149 0.0399 0.0845 0.0
C81 C 0.22697 0.06364 0.08401 0.0
C82 C 0.2149 0.05356 0.09449 0.0
C83 C 0.21661 0.03677 0.09994 0.0
C84 C 0.24053 0.05653 0.07944 0.0
H85 H 0.23097 0.01671 0.09877 0.0
C86 C 0.25563 0.99443 0.08894 0.0
O87 O 0.31994 0.02764 0.09909 0.0
O88 O 0.29888 0.03769 0.10817 0.0
N89 N 0.26595 0.05819 0.06565 0.0
C90 C 0.27937 0.0668 0.0559 0.0
C91 C 0.28041 0.08445 0.04976 0.0
C92 C 0.26718 0.09263 0.05348 0.0
C93 C 0.25326 0.08328 0.06342 0.0
C94 C 0.25343 0.06618 0.06943 0.0
H95 H 0.28914 0.06021 0.0528 0.0
O96 O 0.31752 0.0658 0.08818 0.0
O97 O 0.28256 0.047 0.08563 0.0
O98 O 0.30464 0.0291 0.07238 0.0
O99 O 0.27485 0.02472 0.06307 0.0
C100 C 0.23899 0.09004 0.0675 0.0
C101 C 0.22591 0.08028 0.07783 0.0
H102 H 0.20427 0.05857 0.09843 0.0
H103 H 0.20737 0.02892 0.10804 0.0
H104 H 0.29112 0.0915 0.04206 0.0
H105 H 0.26776 0.10602 0.04859 0.0
H106 H 0.23827 0.10304 0.06294 0.0
H107 H 0.21534 0.08593 0.08104 0.0
Mn108 Mn 0.2916 0.02237 0.91247 0.0
Mn109 Mn 0.25 0.01446 0.93043 0.0
C110 C 0.26313 0.98789 0.91527 0.0
C111 C 0.30761 0.02951 0.89316 0.0
C112 C 0.29351 0.02427 0.94028 0.0
O113 O 0.29526 0.05231 0.9139 0.0
O114 O 0.26523 0.04458 0.92438 0.0
C115 C 0.222 0.01945 0.91249 0.0
N116 N 0.22484 0.00752 0.92116 0.0
C117 C 0.18772 0.97977 0.91991 0.0
C118 C 0.18436 0.99181 0.91101 0.0
C119 C 0.20159 0.01171 0.90727 0.0
C120 C 0.20834 0.98843 0.92491 0.0
H121 H 0.23521 0.03476 0.90961 0.0
C122 C 0.28241 0.05773 0.91865 0.0
O123 O 0.31902 0.03354 0.90304 0.0
O124 O 0.28721 0.02218 0.89456 0.0
N125 N 0.23384 0.98593 0.9368 0.0
C126 C 0.24042 0.97529 0.94436 0.0
C127 C 0.22549 0.95448 0.94833 0.0
C128 C 0.20396 0.94491 0.94455 0.0
C129 C 0.19756 0.95621 0.93679 0.0
C130 C 0.21314 0.97694 0.93317 0.0
H131 H 0.25696 0.98257 0.94727 0.0
O132 O 0.28178 0.9911 0.91182 0.0
O133 O 0.26165 0.00505 0.91703 0.0
O134 O 0.30227 0.02418 0.93015 0.0
O135 O 0.27453 0.02131 0.94113 0.0
C136 C 0.17653 0.94744 0.93215 0.0
C137 C 0.17161 0.95923 0.92374 0.0
H138 H 0.1687 0.9858 0.90686 0.0
H139 H 0.19914 0.02104 0.90035 0.0
H140 H 0.23057 0.94581 0.95427 0.0
H141 H 0.19254 0.92877 0.94753 0.0
H142 H 0.16415 0.93144 0.93478 0.0
H143 H 0.1555 0.95212 0.92004 0.0
Mn144 Mn 0.0287 0.29833 0.91229 0.0
Mn145 Mn 0.0315 0.25948 0.92811 0.0
C146 C 0.06187 0.30173 0.91631 0.0
C147 C 0.02484 0.3111 0.89336 0.0
C148 C 0.02381 0.29322 0.94004 0.0
O149 O 0.9979 0.27339 0.91174 0.0
O150 O 0.00217 0.24807 0.92131 0.0
C151 C 0.02627 0.23081 0.90738 0.0
N152 N 0.03774 0.24256 0.91721 0.0
C153 C 0.06395 0.2314 0.91453 0.0
C154 C 0.05236 0.21907 0.90442 0.0
C155 C 0.03348 0.21884 0.90081 0.0
C156 C 0.056 0.24304 0.9207 0.0
H157 H 0.01174 0.23059 0.9046 0.0
C158 C 0.99062 0.25429 0.91568 0.0
O159 O 0.02017 0.31742 0.90345 0.0
O160 O 0.03119 0.29719 0.89433 0.0
N161 N 0.05882 0.26786 0.9353 0.0
C162 C 0.06853 0.28123 0.94495 0.0
C163 C 0.08751 0.28314 0.94979 0.0
C164 C 0.09619 0.27118 0.94471 0.0
C165 C 0.08608 0.25775 0.93468 0.0
C166 C 0.06702 0.25622 0.93039 0.0
H167 H 0.06173 0.29018 0.94901 0.0
O168 O 0.0603 0.31839 0.91342 0.0
O169 O 0.04397 0.28341 0.91649 0.0
O170 O 0.02512 0.30389 0.93041 0.0
O171 O 0.0255 0.27633 0.94002 0.0
C172 C 0.0942 0.24588 0.92876 0.0
C173 C 0.08321 0.23282 0.91864 0.0
H174 H 0.05788 0.20982 0.89932 0.0
H175 H 0.0245 0.20943 0.89298 0.0
H176 H 0.09532 0.29365 0.95748 0.0
H177 H 0.1107 0.27251 0.94854 0.0
H178 H 0.10899 0.24686 0.93183 0.0
H179 H 0.08975 0.22398 0.91406 0.0
Mn180 Mn 0.7627 0.76196 0.91401 0.0
Mn181 Mn 0.80357 0.80085 0.93015 0.0
C182 C 0.76337 0.79396 0.91805 0.0
C183 C 0.74925 0.74593 0.89504 0.0
C184 C 0.76689 0.76084 0.9417 0.0
O185 O 0.78532 0.7527 0.91365 0.0
O186 O 0.81252 0.78122 0.92301 0.0
C187 C 0.834 0.82347 0.90996 0.0
N188 N 0.8223 0.82385 0.91965 0.0
C189 C 0.83861 0.86228 0.91847 0.0
C190 C 0.85086 0.86235 0.90848 0.0
C191 C 0.8484 0.84283 0.90415 0.0
C192 C 0.82409 0.84244 0.92367 0.0
H193 H 0.83244 0.80853 0.90678 0.0
C194 C 0.80472 0.76324 0.91739 0.0
O195 O 0.74158 0.73528 0.90513 0.0
O196 O 0.76473 0.76563 0.89602 0.0
N197 N 0.7974 0.82122 0.93762 0.0
C198 C 0.784 0.8183 0.94714 0.0
C199 C 0.78403 0.83618 0.95234 0.0
C200 C 0.7983 0.8569 0.94796 0.0
C201 C 0.81224 0.85953 0.93832 0.0
C202 C 0.81104 0.84108 0.93326 0.0
H203 H 0.77341 0.80246 0.95076 0.0
O204 O 0.74558 0.77694 0.91496 0.0
O205 O 0.78032 0.79191 0.91833 0.0
O206 O 0.75577 0.75271 0.93203 0.0
O207 O 0.78505 0.7782 0.94176 0.0
C208 C 0.82751 0.87975 0.93363 0.0
C209 C 0.84045 0.88112 0.92359 0.0
H210 H 0.86224 0.87728 0.9041 0.0
H211 H 0.85781 0.84274 0.89645 0.0
H212 H 0.77331 0.83402 0.95984 0.0
H213 H 0.7985 0.87069 0.95211 0.0
H214 H 0.82904 0.89434 0.93748 0.0
H215 H 0.85174 0.89674 0.91987 0.0
Mn216 Mn 0.03306 0.75556 0.90905 0.0
Mn217 Mn 0.03707 0.80139 0.91967 0.0
C218 C 0.06675 0.78526 0.91179 0.0
C219 C 0.02762 0.73436 0.89182 0.0
C220 C 0.02705 0.76288 0.93572 0.0
O221 O 0.00253 0.75036 0.90785 0.0
O222 O 0.00856 0.78357 0.9119 0.0
C223 C 0.03725 0.82054 0.89571 0.0
N224 N 0.04684 0.82186 0.90666 0.0
C225 C 0.07708 0.85627 0.90143 0.0
C226 C 0.06747 0.85534 0.89013 0.0
C227 C 0.04749 0.83737 0.88725 0.0
C228 C 0.0662 0.83892 0.90944 0.0
H229 H 0.02196 0.80668 0.89343 0.0
C230 C 0.99629 0.7641 0.90853 0.0
O231 O 0.02344 0.7259 0.90269 0.0
O232 O 0.03477 0.7548 0.89109 0.0
N233 N 0.06371 0.82069 0.92748 0.0
C234 C 0.07 0.81979 0.93911 0.0
C235 C 0.08913 0.83703 0.94369 0.0
C236 C 0.10141 0.85518 0.93637 0.0
C237 C 0.09426 0.85606 0.92458 0.0
C238 C 0.0749 0.83852 0.92058 0.0
H239 H 0.06048 0.80605 0.94487 0.0
O240 O 0.06465 0.76642 0.91031 0.0
O241 O 0.04919 0.78617 0.91103 0.0
O242 O 0.02988 0.75164 0.92764 0.0
O243 O 0.02783 0.7808 0.93351 0.0
C244 C 0.1055 0.87371 0.91668 0.0
C245 C 0.09701 0.87373 0.90507 0.0
H246 H 0.07528 0.86832 0.8836 0.0
H247 H 0.04001 0.83649 0.87853 0.0
H248 H 0.0944 0.83633 0.95286 0.0
H249 H 0.11624 0.86837 0.93989 0.0
H250 H 0.12068 0.88736 0.91945 0.0
H251 H 0.10583 0.88735 0.89905 0.0
Mn252 Mn 0.29015 0.29819 0.91096 0.0
Mn253 Mn 0.24551 0.2626 0.92621 0.0
C254 C 0.26137 0.30402 0.91257 0.0
C255 C 0.30919 0.30873 0.89259 0.0
C256 C 0.28629 0.29603 0.93887 0.0
O257 O 0.29404 0.2721 0.91236 0.0
O258 O 0.26292 0.24919 0.92163 0.0
C259 C 0.22363 0.23222 0.90587 0.0
N260 N 0.22341 0.24528 0.91481 0.0
C261 C 0.18687 0.23533 0.91014 0.0
C262 C 0.18665 0.22166 0.90092 0.0
C263 C 0.20513 0.22017 0.89875 0.0
C264 C 0.20578 0.24697 0.91691 0.0
H265 H 0.2378 0.23101 0.90419 0.0
C266 C 0.2809 0.25368 0.91676 0.0
O267 O 0.31898 0.31555 0.903 0.0
O268 O 0.28869 0.29552 0.89294 0.0
N269 N 0.22678 0.27289 0.93129 0.0
C270 C 0.22998 0.28759 0.94011 0.0
C271 C 0.21307 0.29111 0.94335 0.0
C272 C 0.19301 0.27935 0.93759 0.0
C273 C 0.1901 0.26435 0.92853 0.0
C274 C 0.20746 0.26136 0.92577 0.0
H275 H 0.24532 0.2966 0.94461 0.0
O276 O 0.28039 0.31973 0.91001 0.0
O277 O 0.25958 0.28519 0.91388 0.0
O278 O 0.29738 0.30493 0.92927 0.0
O279 O 0.26712 0.28007 0.93856 0.0
C280 C 0.17075 0.25248 0.922 0.0
C281 C 0.16918 0.23806 0.91277 0.0
H282 H 0.17242 0.21235 0.89541 0.0
H283 H 0.20511 0.20972 0.89162 0.0
H284 H 0.21548 0.30281 0.95031 0.0
H285 H 0.17998 0.28203 0.94015 0.0
H286 H 0.1571 0.25455 0.92388 0.0
H287 H 0.15433 0.22925 0.90769 0.0
Mn288 Mn 0.7562 0.02175 0.9129 0.0
Mn289 Mn 0.79751 0.0211 0.92695 0.0
C290 C 0.75512 0.98936 0.91612 0.0
C291 C 0.74144 0.0252 0.89463 0.0
C292 C 0.76421 0.02803 0.94023 0.0
O293 O 0.78025 0.05314 0.91229 0.0
O294 O 0.80785 0.04951 0.91916 0.0
C295 C 0.82398 0.02432 0.90548 0.0
N296 N 0.81314 0.01372 0.91573 0.0
C297 C 0.8243 0.98746 0.91339 0.0
C298 C 0.83572 0.99816 0.90285 0.0
C299 C 0.83544 0.0166 0.89884 0.0
C300 C 0.81297 0.99576 0.91955 0.0
H301 H 0.82388 0.03854 0.90241 0.0
C302 C 0.80023 0.06062 0.91443 0.0
O303 O 0.73532 0.02889 0.90508 0.0
O304 O 0.75628 0.01999 0.89485 0.0
N305 N 0.78974 0.99438 0.93478 0.0
C306 C 0.7771 0.98538 0.9448 0.0
C307 C 0.77505 0.9664 0.94973 0.0
C308 C 0.78629 0.9571 0.94447 0.0
C309 C 0.79943 0.96681 0.93427 0.0
C310 C 0.80068 0.98558 0.92968 0.0
H311 H 0.76864 0.99259 0.94899 0.0
O312 O 0.73758 0.98969 0.91386 0.0
O313 O 0.77265 0.00787 0.91615 0.0
O314 O 0.75165 0.02454 0.93119 0.0
O315 O 0.7821 0.02831 0.93934 0.0
C316 C 0.81132 0.95861 0.92849 0.0
C317 C 0.82363 0.96883 0.918 0.0
H318 H 0.84467 0.99231 0.89774 0.0
H319 H 0.84414 0.02489 0.89068 0.0
H320 H 0.76492 0.95903 0.95762 0.0
H321 H 0.78471 0.94248 0.94831 0.0
H322 H 0.81081 0.94421 0.93191 0.0
H323 H 0.83236 0.96211 0.9135 0.0
Mn324 Mn 0.76215 0.0326 0.09317 0.0
Mn325 Mn 0.80637 0.03974 0.07835 0.0
C326 C 0.79014 0.06707 0.08953 0.0
C327 C 0.744 0.02685 0.11172 0.0
C328 C 0.76379 0.02661 0.06576 0.0
O329 O 0.7596 0.00302 0.09383 0.0
O330 O 0.79191 0.01101 0.08624 0.0
C331 C 0.83282 0.04083 0.09936 0.0
N332 N 0.83038 0.05028 0.08919 0.0
C333 C 0.86612 0.08055 0.09125 0.0
C334 C 0.86906 0.07108 0.10173 0.0
C335 C 0.85231 0.05117 0.10582 0.0
C336 C 0.84634 0.06949 0.08521 0.0
H337 H 0.81997 0.02552 0.10252 0.0
C338 C 0.7739 0.99802 0.09128 0.0
O339 O 0.73361 0.02141 0.10142 0.0
O340 O 0.76464 0.0351 0.11118 0.0
N341 N 0.82203 0.06699 0.07036 0.0
C342 C 0.81618 0.07448 0.0605 0.0
C343 C 0.83099 0.09437 0.05537 0.0
C344 C 0.8517 0.10628 0.06037 0.0
C345 C 0.85734 0.0983 0.07053 0.0
C346 C 0.84197 0.07827 0.07518 0.0
H347 H 0.80036 0.06531 0.05654 0.0
O348 O 0.77109 0.06381 0.09204 0.0
O349 O 0.79223 0.05014 0.08944 0.0
O350 O 0.75386 0.02835 0.07498 0.0
O351 O 0.78278 0.02939 0.06633 0.0
C352 C 0.87753 0.10952 0.07631 0.0
C353 C 0.88188 0.10069 0.0867 0.0
H354 H 0.88405 0.07903 0.10675 0.0
H355 H 0.85443 0.04381 0.11392 0.0
H356 H 0.8265 0.10046 0.04755 0.0
H357 H 0.86311 0.12155 0.05633 0.0
H358 H 0.88971 0.12508 0.07296 0.0
H359 H 0.89734 0.10962 0.09118 0.0
Mn360 Mn 0.02643 0.75945 0.09133 0.0
Mn361 Mn 0.0256 0.80028 0.07684 0.0
C362 C 0.99365 0.7567 0.0868 0.0
C363 C 0.02967 0.74522 0.10984 0.0
C364 C 0.03559 0.76851 0.06435 0.0
O365 O 0.0573 0.78434 0.09264 0.0
O366 O 0.05297 0.81158 0.08599 0.0
C367 C 0.02406 0.82508 0.09802 0.0
N368 N 0.01547 0.81454 0.08734 0.0
C369 C 0.98727 0.82331 0.08816 0.0
C370 C 0.99586 0.83435 0.09915 0.0
C371 C 0.01429 0.83517 0.10411 0.0
C372 C 0.99765 0.8135 0.08253 0.0
H373 H 0.03825 0.82575 0.10184 0.0
C374 C 0.06427 0.80432 0.09087 0.0
O375 O 0.03458 0.73967 0.09956 0.0
O376 O 0.02312 0.75904 0.1093 0.0
N377 N -4e-05 0.79169 0.06761 0.0
C378 C 0.99331 0.77979 0.05717 0.0
C379 C 0.97532 0.77769 0.05091 0.0
C380 C 0.96443 0.7879 0.05541 0.0
C381 C 0.9713 0.79973 0.06629 0.0
C382 C 0.98958 0.8016 0.07201 0.0
H383 H 0.00183 0.77223 0.05351 0.0
O384 O 0.99476 0.73969 0.08948 0.0
O385 O 0.01168 0.77482 0.08728 0.0
O386 O 0.03087 0.7554 0.07323 0.0
O387 O 0.03575 0.78634 0.06513 0.0
C388 C 0.96079 0.80979 0.07167 0.0
C389 C 0.96867 0.82144 0.08265 0.0
H390 H 0.98837 0.84215 0.10388 0.0
H391 H 0.02096 0.84359 0.11261 0.0
H392 H 0.97002 0.76842 0.04256 0.0
H393 H 0.95075 0.7865 0.05044 0.0
H394 H 0.94651 0.80849 0.06751 0.0
H395 H 0.96029 0.82886 0.08679 0.0
Mn396 Mn 0.30075 0.29756 0.09024 0.0
Mn397 Mn 0.26209 0.25506 0.07495 0.0
C398 C 0.30412 0.26754 0.0869 0.0
C399 C 0.31347 0.31536 0.10887 0.0
C400 C 0.29506 0.2964 0.06257 0.0
O401 O 0.27545 0.30301 0.09047 0.0
O402 O 0.25 0.27236 0.08176 0.0
C403 C 0.23385 0.23118 0.09572 0.0
N404 N 0.24598 0.2319 0.08599 0.0
C405 C 0.2359 0.1948 0.08868 0.0
C406 C 0.22323 0.19362 0.09872 0.0
C407 C 0.22231 0.21193 0.1023 0.0
C408 C 0.24728 0.2145 0.0826 0.0
H409 H 0.23297 0.24518 0.09842 0.0
C410 C 0.25616 0.29048 0.08698 0.0
O411 O 0.31968 0.32568 0.09857 0.0
O412 O 0.29977 0.29498 0.10828 0.0
N413 N 0.27142 0.23679 0.06783 0.0
C414 C 0.28477 0.24076 0.05812 0.0
C415 C 0.28781 0.22421 0.05355 0.0
C416 C 0.27678 0.20367 0.05884 0.0
C417 C 0.26283 0.19988 0.06867 0.0
C418 C 0.26062 0.21704 0.07292 0.0
H419 H 0.29304 0.25643 0.0539 0.0
O420 O 0.32089 0.28585 0.08955 0.0
O421 O 0.28597 0.26734 0.08651 0.0
O422 O 0.30617 0.30593 0.07204 0.0
O423 O 0.27813 0.27789 0.06287 0.0
C424 C 0.25096 0.17972 0.07438 0.0
C425 C 0.23765 0.17722 0.08446 0.0
H426 H 0.21417 0.17876 0.10376 0.0
H427 H 0.2126 0.21116 0.11005 0.0
H428 H 0.29853 0.22725 0.04592 0.0
H429 H 0.27912 0.19093 0.05527 0.0
H430 H 0.2522 0.16609 0.07122 0.0
H431 H 0.2289 0.16172 0.08891 0.0
Mn432 Mn 0.69083 0.62662 0.42597 0.0
Mn433 Mn 0.68219 0.58344 0.40926 0.0
C434 C 0.65644 0.59784 0.42384 0.0
C435 C 0.69882 0.64462 0.44466 0.0
C436 C 0.68797 0.62443 0.39797 0.0
O437 O 0.72082 0.63083 0.42457 0.0
O438 O 0.71337 0.60213 0.41296 0.0
C439 C 0.69446 0.56265 0.42852 0.0
N440 N 0.67987 0.56166 0.42023 0.0
C441 C 0.65513 0.52477 0.42537 0.0
C442 C 0.66996 0.52536 0.4339 0.0
C443 C 0.68968 0.5444 0.43551 0.0
C444 C 0.66077 0.54347 0.41868 0.0
H445 H 0.70964 0.57724 0.42981 0.0
C446 C 0.72656 0.61916 0.41878 0.0
O447 O 0.70198 0.65493 0.43441 0.0
O448 O 0.69161 0.62414 0.44396 0.0
N449 N 0.65302 0.56338 0.40495 0.0
C450 C 0.64022 0.56557 0.39659 0.0
C451 C 0.61985 0.548 0.39395 0.0
C452 C 0.61296 0.52823 0.3998 0.0
C453 C 0.6265 0.52624 0.40826 0.0
C454 C 0.64669 0.54428 0.41045 0.0
H455 H 0.64549 0.58061 0.392 0.0
O456 O 0.65956 0.61665 0.4268 0.0
O457 O 0.67355 0.59618 0.42238 0.0
O458 O 0.6918 0.63515 0.40788 0.0
O459 O 0.68374 0.60493 0.39745 0.0
C460 C 0.62061 0.50714 0.41474 0.0
C461 C 0.63488 0.50644 0.42333 0.0
H462 H 0.66633 0.51132 0.43931 0.0
H463 H 0.70118 0.54501 0.44211 0.0
H464 H 0.6095 0.54968 0.38741 0.0
H465 H 0.59723 0.51471 0.39777 0.0
H466 H 0.60504 0.49298 0.41329 0.0
H467 H 0.63008 0.49174 0.42835 0.0
Mn468 Mn 0.42689 0.09368 0.42344 0.0
Mn469 Mn 0.46762 0.13292 0.40753 0.0
C470 C 0.45662 0.09044 0.41875 0.0
C471 C 0.41083 0.08119 0.44249 0.0
C472 C 0.42503 0.09998 0.39619 0.0
O473 O 0.421 0.11869 0.42412 0.0
O474 O 0.45209 0.14513 0.4164 0.0
C475 C 0.49515 0.15974 0.42784 0.0
N476 N 0.4926 0.1482 0.41749 0.0
C477 C 0.52962 0.15706 0.41789 0.0
C478 C 0.53269 0.16914 0.42853 0.0
C479 C 0.51535 0.17041 0.43355 0.0
C480 C 0.5091 0.14668 0.41266 0.0
H481 H 0.48185 0.16075 0.43171 0.0
C482 C 0.4339 0.13843 0.42165 0.0
O483 O 0.39965 0.07453 0.43249 0.0
O484 O 0.43107 0.09513 0.44138 0.0
N485 N 0.48412 0.12343 0.39851 0.0
C486 C 0.47827 0.11051 0.38847 0.0
C487 C 0.49379 0.10781 0.3822 0.0
C488 C 0.51517 0.11851 0.38628 0.0
C489 C 0.52075 0.13141 0.39677 0.0
C490 C 0.50467 0.13378 0.40251 0.0
H491 H 0.46197 0.10256 0.38513 0.0
O492 O 0.43869 0.07374 0.42202 0.0
O493 O 0.45675 0.10859 0.41875 0.0
O494 O 0.41709 0.08792 0.40555 0.0
O495 O 0.44285 0.11775 0.39637 0.0
C496 C 0.54165 0.14204 0.40173 0.0
C497 C 0.54603 0.15471 0.41235 0.0
H498 H 0.54825 0.17741 0.43295 0.0
H499 H 0.51758 0.17963 0.44178 0.0
H500 H 0.48934 0.09772 0.37416 0.0
H501 H 0.52714 0.11665 0.38128 0.0
H502 H 0.55441 0.14041 0.39753 0.0
H503 H 0.56208 0.16257 0.41617 0.0
Mn504 Mn 0.95808 0.35894 0.42522 0.0
Mn505 Mn 0.9194 0.36254 0.40968 0.0
C506 C 0.9621 0.39238 0.42125 0.0
C507 C 0.97092 0.35456 0.44398 0.0
C508 C 0.95273 0.3546 0.39743 0.0
O509 O 0.93289 0.32827 0.42577 0.0
O510 O 0.9079 0.33307 0.41624 0.0
C511 C 0.89122 0.35707 0.43071 0.0
N512 N 0.90276 0.36867 0.42086 0.0
C513 C 0.89175 0.3949 0.42398 0.0
C514 C 0.87963 0.38318 0.43412 0.0
C515 C 0.87944 0.36422 0.43752 0.0
C516 C 0.90324 0.38703 0.41759 0.0
H517 H 0.89103 0.34249 0.43333 0.0
C518 C 0.91385 0.32127 0.42181 0.0
O519 O 0.97715 0.35014 0.43378 0.0
O520 O 0.95715 0.36112 0.44322 0.0
N521 N 0.92767 0.38998 0.40268 0.0
C522 C 0.94062 0.39967 0.39288 0.0
C523 C 0.94233 0.41865 0.38818 0.0
C524 C 0.93058 0.42733 0.39355 0.0
C525 C 0.91752 0.41719 0.40369 0.0
C526 C 0.91617 0.39813 0.40783 0.0
H527 H 0.94939 0.39286 0.38859 0.0
O528 O 0.97854 0.39042 0.42412 0.0
O529 O 0.94354 0.37471 0.42118 0.0
O530 O 0.96327 0.35538 0.40703 0.0
O531 O 0.93609 0.35671 0.39756 0.0
C532 C 0.90581 0.42525 0.40985 0.0
C533 C 0.89305 0.41419 0.42005 0.0
H534 H 0.87051 0.38863 0.43939 0.0
H535 H 0.8702 0.35513 0.44536 0.0
H536 H 0.95254 0.42648 0.38038 0.0
H537 H 0.93178 0.44186 0.38984 0.0
H538 H 0.90667 0.44004 0.40689 0.0
H539 H 0.88432 0.42066 0.4248 0.0
Mn540 Mn 0.9576 0.35657 0.2456 0.0
Mn541 Mn 0.91575 0.35396 0.26113 0.0
C542 C 0.92778 0.32345 0.24968 0.0
C543 C 0.97467 0.36022 0.22685 0.0
C544 C 0.95689 0.36149 0.27335 0.0
O545 O 0.96356 0.38743 0.24485 0.0
O546 O 0.93398 0.38323 0.25439 0.0
C547 C 0.89305 0.35946 0.24011 0.0
N548 N 0.89294 0.34795 0.25001 0.0
C549 C 0.85553 0.32209 0.24711 0.0
C550 C 0.85519 0.33372 0.23691 0.0
C551 C 0.87406 0.35244 0.23337 0.0
C552 C 0.87495 0.32982 0.25342 0.0
H553 H 0.90752 0.37387 0.23738 0.0
C554 C 0.95173 0.39473 0.24876 0.0
O555 O 0.98533 0.36474 0.23705 0.0
O556 O 0.95442 0.35407 0.2276 0.0
N557 N 0.8964 0.32674 0.26829 0.0
C558 C 0.89962 0.31706 0.27812 0.0
C559 C 0.88226 0.29831 0.28295 0.0
C560 C 0.86177 0.28983 0.27769 0.0
C561 C 0.8589 0.29992 0.2675 0.0
C562 C 0.87671 0.31876 0.26322 0.0
H563 H 0.91526 0.32373 0.28232 0.0
O564 O 0.94603 0.325 0.24688 0.0
O565 O 0.9273 0.34133 0.24967 0.0
O566 O 0.96645 0.36031 0.26377 0.0
O567 O 0.93828 0.35971 0.27322 0.0
C568 C 0.83908 0.29203 0.26143 0.0
C569 C 0.83743 0.30302 0.25118 0.0
H570 H 0.84057 0.32837 0.23169 0.0
H571 H 0.87395 0.36146 0.22548 0.0
H572 H 0.88461 0.29051 0.29077 0.0
H573 H 0.84836 0.2755 0.28151 0.0
H574 H 0.82505 0.2774 0.26449 0.0
H575 H 0.82217 0.29666 0.24649 0.0
Mn576 Mn 0.69943 0.62944 0.24619 0.0
Mn577 Mn 0.70255 0.59028 0.2613 0.0
C578 C 0.73286 0.6339 0.25099 0.0
C579 C 0.69611 0.64322 0.22752 0.0
C580 C 0.69086 0.62119 0.27338 0.0
O581 O 0.66916 0.60352 0.24471 0.0
O582 O 0.67481 0.57772 0.25243 0.0
C583 C 0.70443 0.5652 0.24036 0.0
N584 N 0.71308 0.57625 0.25089 0.0
C585 C 0.74203 0.56856 0.25008 0.0
C586 C 0.73339 0.55701 0.23924 0.0
C587 C 0.71456 0.5554 0.23434 0.0
C588 C 0.73129 0.57808 0.25562 0.0
H589 H 0.68993 0.5639 0.2366 0.0
C590 C 0.66297 0.58386 0.24706 0.0
O591 O 0.69035 0.64826 0.23768 0.0
O592 O 0.70336 0.62998 0.22825 0.0
N593 N 0.7286 0.60003 0.27031 0.0
C594 C 0.73519 0.61229 0.28062 0.0
C595 C 0.75347 0.61509 0.28684 0.0
C596 C 0.76473 0.60518 0.28244 0.0
C597 C 0.75795 0.59302 0.27167 0.0
C598 C 0.73936 0.59045 0.266 0.0
H599 H 0.72637 0.61961 0.2842 0.0
O600 O 0.73084 0.65036 0.24825 0.0
O601 O 0.71536 0.61533 0.25053 0.0
O602 O 0.69413 0.63337 0.26418 0.0
O603 O 0.69217 0.60411 0.2729 0.0
C604 C 0.76884 0.58328 0.26637 0.0
C605 C 0.76098 0.5712 0.25552 0.0
H606 H 0.74115 0.54942 0.23457 0.0
H607 H 0.70784 0.54658 0.22596 0.0
H608 H 0.75872 0.62463 0.2951 0.0
H609 H 0.77864 0.60711 0.28739 0.0
H610 H 0.78337 0.58514 0.2705 0.0
H611 H 0.76964 0.56402 0.25145 0.0
Mn612 Mn 0.42436 0.09778 0.2451 0.0
Mn613 Mn 0.46336 0.13905 0.26088 0.0
C614 C 0.42031 0.12691 0.25009 0.0
C615 C 0.41132 0.08168 0.2261 0.0
C616 C 0.43153 0.09609 0.2723 0.0
O617 O 0.44996 0.09287 0.24392 0.0
O618 O 0.47596 0.12401 0.25187 0.0
C619 C 0.48939 0.16682 0.24043 0.0
N620 N 0.47798 0.16405 0.25086 0.0
C621 C 0.48597 0.20081 0.25048 0.0
C622 C 0.49791 0.2041 0.23976 0.0
C623 C 0.49956 0.18701 0.23469 0.0
C624 C 0.47612 0.18032 0.25575 0.0
H625 H 0.49068 0.15371 0.23652 0.0
C626 C 0.46962 0.10605 0.24642 0.0
O627 O 0.40557 0.07039 0.23609 0.0
O628 O 0.42482 0.10204 0.2272 0.0
N629 N 0.4535 0.15515 0.27001 0.0
C630 C 0.44073 0.14907 0.28012 0.0
C631 C 0.43769 0.16434 0.28642 0.0
C632 C 0.44787 0.18569 0.28231 0.0
C633 C 0.4606 0.19149 0.27175 0.0
C634 C 0.46336 0.17566 0.26598 0.0
H635 H 0.43316 0.13279 0.28347 0.0
O636 O 0.40377 0.10871 0.247 0.0
O637 O 0.43872 0.1276 0.24983 0.0
O638 O 0.41951 0.08782 0.26297 0.0
O639 O 0.44888 0.1143 0.2721 0.0
C640 C 0.47068 0.21234 0.26674 0.0
C641 C 0.48322 0.21696 0.25606 0.0
H642 H 0.50577 0.21964 0.23531 0.0
H643 H 0.50867 0.1894 0.22639 0.0
H644 H 0.42771 0.15972 0.29451 0.0
H645 H 0.44572 0.19747 0.28732 0.0
H646 H 0.46872 0.22489 0.27096 0.0
H647 H 0.49065 0.23297 0.2522 0.0
Mn648 Mn 0.69803 0.09306 0.24547 0.0
Mn649 Mn 0.70445 0.13712 0.26028 0.0
C650 C 0.73216 0.12194 0.24846 0.0
C651 C 0.69221 0.07452 0.22705 0.0
C652 C 0.69453 0.09572 0.27318 0.0
O653 O 0.66795 0.0892 0.24522 0.0
O654 O 0.67464 0.12037 0.2539 0.0
C655 C 0.70035 0.16056 0.23919 0.0
N656 N 0.71181 0.15994 0.24892 0.0
C657 C 0.73999 0.19627 0.24527 0.0
C658 C 0.72843 0.19735 0.23524 0.0
C659 C 0.70855 0.1794 0.23217 0.0
C660 C 0.73099 0.17708 0.25193 0.0
H661 H 0.68508 0.14678 0.2368 0.0
C662 C 0.66201 0.10235 0.24876 0.0
O663 O 0.68757 0.06443 0.23744 0.0
O664 O 0.69961 0.09505 0.22743 0.0
N665 N 0.73252 0.155 0.26696 0.0
C666 C 0.74218 0.1509 0.27647 0.0
C667 C 0.76238 0.16708 0.28056 0.0
C668 C 0.77235 0.18734 0.27491 0.0
C669 C 0.76209 0.1912 0.26516 0.0
C670 C 0.74187 0.17453 0.26156 0.0
H671 H 0.73451 0.13541 0.2809 0.0
O672 O 0.72943 0.10305 0.24612 0.0
O673 O 0.71485 0.12343 0.24882 0.0
O674 O 0.69492 0.08532 0.26379 0.0
O675 O 0.69738 0.11474 0.2727 0.0
C676 C 0.77128 0.21082 0.25875 0.0
C677 C 0.76027 0.21332 0.24878 0.0
H678 H 0.73473 0.21182 0.22978 0.0
H679 H 0.69958 0.18008 0.22441 0.0
H680 H 0.77023 0.16396 0.28807 0.0
H681 H 0.78791 0.19978 0.2781 0.0
H682 H 0.78695 0.22396 0.26128 0.0
H683 H 0.76764 0.22836 0.2438 0.0
Mn684 Mn 0.96289 0.63499 0.24377 0.0
Mn685 Mn 0.91871 0.59703 0.25817 0.0
C686 C 0.93446 0.64078 0.24729 0.0
C687 C 0.98115 0.64769 0.22528 0.0
C688 C 0.96084 0.62688 0.27111 0.0
O689 O 0.96617 0.60843 0.24311 0.0
O690 O 0.93381 0.58336 0.25027 0.0
C691 C 0.89297 0.57185 0.23692 0.0
N692 N 0.89497 0.58344 0.24717 0.0
C693 C 0.85905 0.5774 0.24489 0.0
C694 C 0.85656 0.56528 0.23435 0.0
C695 C 0.87362 0.56255 0.23033 0.0
C696 C 0.87869 0.58625 0.25108 0.0
H697 H 0.90606 0.56973 0.23381 0.0
C698 C 0.95212 0.58896 0.24544 0.0
O699 O 0.99146 0.65287 0.23562 0.0
O700 O 0.96056 0.63498 0.22577 0.0
N701 N 0.90247 0.60798 0.26616 0.0
C702 C 0.9079 0.62111 0.27609 0.0
C703 C 0.89276 0.62581 0.28114 0.0
C704 C 0.87215 0.61686 0.27598 0.0
C705 C 0.86693 0.60342 0.26575 0.0
C706 C 0.88262 0.59914 0.26119 0.0
H707 H 0.92364 0.62791 0.28017 0.0
O708 O 0.9534 0.65681 0.24488 0.0
O709 O 0.9327 0.62188 0.2473 0.0
O710 O 0.97082 0.63892 0.26201 0.0
O711 O 0.94205 0.6104 0.27034 0.0
C712 C 0.84687 0.59431 0.25981 0.0
C713 C 0.84296 0.58138 0.24936 0.0
H714 H 0.84169 0.55815 0.22921 0.0
H715 H 0.87185 0.5533 0.22217 0.0
H716 H 0.89692 0.63625 0.28901 0.0
H717 H 0.86049 0.62045 0.27994 0.0
H718 H 0.83446 0.59742 0.2631 0.0
H719 H 0.8276 0.57474 0.24476 0.0
Mn720 Mn 0.42058 0.35643 0.24338 0.0
Mn721 Mn 0.45795 0.34919 0.25777 0.0
C722 C 0.41427 0.32195 0.24667 0.0
C723 C 0.40826 0.36253 0.22488 0.0
C724 C 0.42822 0.36151 0.27082 0.0
O725 O 0.44744 0.38612 0.24289 0.0
O726 O 0.47196 0.37813 0.25012 0.0
C727 C 0.48319 0.34889 0.23648 0.0
N728 N 0.47148 0.33912 0.24667 0.0
C729 C 0.47732 0.30915 0.24417 0.0
C730 C 0.48956 0.31894 0.23369 0.0
C731 C 0.49244 0.33886 0.22981 0.0
C732 C 0.46849 0.3199 0.25044 0.0
H733 H 0.48544 0.36419 0.23348 0.0
C734 C 0.46679 0.39116 0.2453 0.0
O735 O 0.40306 0.36759 0.23524 0.0
O736 O 0.42077 0.35443 0.22536 0.0
N737 N 0.44668 0.32177 0.26553 0.0
C738 C 0.43354 0.31398 0.27545 0.0
C739 C 0.42881 0.29407 0.28041 0.0
C740 C 0.43774 0.28246 0.27518 0.0
C741 C 0.45117 0.29075 0.26495 0.0
C742 C 0.4555 0.31079 0.26049 0.0
H743 H 0.4268 0.32292 0.2796 0.0
O744 O 0.39844 0.32518 0.24427 0.0
O745 O 0.43327 0.33891 0.24681 0.0
O746 O 0.41651 0.3601 0.26167 0.0
O747 O 0.44455 0.35896 0.27002 0.0
C748 C 0.46025 0.27984 0.25894 0.0
C749 C 0.47324 0.28899 0.24852 0.0
H750 H 0.49667 0.31125 0.2285 0.0
H751 H 0.50178 0.34647 0.2217 0.0
H752 H 0.41839 0.28774 0.28829 0.0
H753 H 0.43417 0.26719 0.27909 0.0
H754 H 0.4571 0.26426 0.26215 0.0
H755 H 0.47986 0.2803 0.24387 0.0
Mn756 Mn 0.42563 0.368 0.42444 0.0
Mn757 Mn 0.46627 0.37022 0.40778 0.0
C758 C 0.45607 0.40076 0.42066 0.0
C759 C 0.40904 0.36427 0.44339 0.0
C760 C 0.42643 0.36683 0.39636 0.0
O761 O 0.41867 0.33692 0.42471 0.0
O762 O 0.44544 0.34017 0.41267 0.0
C763 C 0.4852 0.35754 0.42791 0.0
N764 N 0.48743 0.37162 0.41893 0.0
C765 C 0.52509 0.39399 0.42333 0.0
C766 C 0.52323 0.37965 0.43258 0.0
C767 C 0.50317 0.36139 0.4349 0.0
C768 C 0.50659 0.38935 0.41671 0.0
H769 H 0.46984 0.34347 0.42975 0.0
C770 C 0.42852 0.32892 0.41907 0.0
O771 O 0.39822 0.3602 0.43327 0.0
O772 O 0.42917 0.36998 0.44244 0.0
N773 N 0.48819 0.39791 0.40233 0.0
C774 C 0.48728 0.41022 0.39316 0.0
C775 C 0.50606 0.42893 0.38957 0.0
C776 C 0.52565 0.43469 0.39536 0.0
C777 C 0.52626 0.42171 0.40472 0.0
C778 C 0.50707 0.40308 0.40777 0.0
H779 H 0.47238 0.4057 0.38856 0.0
O780 O 0.43808 0.3997 0.42358 0.0
O781 O 0.45595 0.38258 0.42023 0.0
O782 O 0.41632 0.36497 0.40632 0.0
O783 O 0.44538 0.36947 0.39584 0.0
C784 C 0.54514 0.42657 0.41115 0.0
C785 C 0.54453 0.41278 0.4205 0.0
H786 H 0.53705 0.38256 0.43798 0.0
H787 H 0.50158 0.35029 0.44205 0.0
H788 H 0.50547 0.43885 0.38231 0.0
H789 H 0.54013 0.44912 0.39257 0.0
H790 H 0.56019 0.44095 0.40903 0.0
H791 H 0.5591 0.41678 0.42546 0.0
Mn792 Mn 0.68275 0.08284 0.42565 0.0
Mn793 Mn 0.67868 0.12174 0.41084 0.0
C794 C 0.64915 0.07855 0.42187 0.0
C795 C 0.68723 0.06964 0.44425 0.0
C796 C 0.68971 0.09061 0.39833 0.0
O797 O 0.71312 0.1087 0.42641 0.0
O798 O 0.70713 0.13452 0.41901 0.0
C799 C 0.67863 0.1477 0.43182 0.0
N800 N 0.66902 0.13614 0.42156 0.0
C801 C 0.63998 0.14358 0.42337 0.0
C802 C 0.64964 0.15567 0.43392 0.0
C803 C 0.66901 0.15768 0.43817 0.0
C804 C 0.65033 0.13401 0.41742 0.0
H805 H 0.69351 0.14926 0.43512 0.0
C806 C 0.71925 0.12833 0.42402 0.0
O807 O 0.6922 0.06411 0.43399 0.0
O808 O 0.68016 0.08302 0.44365 0.0
N809 N 0.65181 0.11157 0.40261 0.0
C810 C 0.64396 0.09834 0.39272 0.0
C811 C 0.62447 0.09429 0.38746 0.0
C812 C 0.61332 0.10398 0.39236 0.0
C813 C 0.62167 0.1175 0.40255 0.0
C814 C 0.64127 0.1211 0.40733 0.0
H815 H 0.65253 0.09098 0.38884 0.0
O816 O 0.65116 0.06201 0.42441 0.0
O817 O 0.66679 0.09702 0.42184 0.0
O818 O 0.68681 0.07845 0.4075 0.0
O819 O 0.68823 0.1076 0.39892 0.0
C820 C 0.6112 0.12734 0.40823 0.0
C821 C 0.62031 0.1403 0.41866 0.0
H822 H 0.64224 0.16333 0.43887 0.0
H823 H 0.6765 0.1669 0.44634 0.0
H824 H 0.61809 0.08379 0.37962 0.0
H825 H 0.59835 0.10089 0.38823 0.0
H826 H 0.59598 0.1248 0.40476 0.0
H827 H 0.61193 0.1475 0.42307 0.0
Mn828 Mn 0.9659 0.62396 0.42432 0.0
Mn829 Mn 0.92879 0.57957 0.40962 0.0
C830 C 0.97173 0.59537 0.42151 0.0
C831 C 0.97801 0.64258 0.44277 0.0
C832 C 0.9595 0.62149 0.39677 0.0
O833 O 0.93931 0.62729 0.42421 0.0
O834 O 0.91479 0.59499 0.41666 0.0
C835 C 0.90203 0.55438 0.43057 0.0
N836 N 0.91427 0.55606 0.42068 0.0
C837 C 0.90763 0.52004 0.42354 0.0
C838 C 0.89484 0.51786 0.43372 0.0
C839 C 0.89209 0.53513 0.43727 0.0
C840 C 0.91709 0.53958 0.41722 0.0
H841 H 0.8999 0.56763 0.43332 0.0
C842 C 0.92004 0.6133 0.42139 0.0
O843 O 0.98354 0.65266 0.43237 0.0
O844 O 0.96511 0.62202 0.44237 0.0
N845 N 0.94008 0.563 0.4024 0.0
C846 C 0.95396 0.56818 0.39285 0.0
C847 C 0.95886 0.55283 0.38834 0.0
C848 C 0.94932 0.53229 0.39363 0.0
C849 C 0.93508 0.52733 0.40345 0.0
C850 C 0.93067 0.54322 0.40748 0.0
H851 H 0.96122 0.58388 0.38868 0.0
O852 O 0.98768 0.61435 0.42394 0.0
O853 O 0.95288 0.59367 0.421 0.0
O854 O 0.9708 0.63165 0.40606 0.0
O855 O 0.94311 0.60261 0.39738 0.0
C856 C 0.92536 0.50736 0.40951 0.0
C857 C 0.91169 0.50374 0.41957 0.0
H858 H 0.88721 0.50308 0.43894 0.0
H859 H 0.88233 0.53361 0.44515 0.0
H860 H 0.9699 0.5568 0.38078 0.0
H861 H 0.95309 0.52049 0.39009 0.0
H862 H 0.92856 0.4948 0.40663 0.0
H863 H 0.90459 0.48845 0.42428 0.0
Mn864 Mn 0.35061 0.9603 0.75773 0.0
Mn865 Mn 0.35088 0.91953 0.74274 0.0
C866 C 0.31823 0.93007 0.75258 0.0
C867 C 0.35226 0.97691 0.77638 0.0
C868 C 0.36129 0.9619 0.73079 0.0
O869 O 0.38145 0.96634 0.75972 0.0
O870 O 0.37781 0.93545 0.75228 0.0
C871 C 0.349 0.89239 0.76359 0.0
N872 N 0.34072 0.89469 0.75288 0.0
C873 C 0.31305 0.85747 0.75299 0.0
C874 C 0.32134 0.85466 0.76399 0.0
C875 C 0.33934 0.87222 0.76933 0.0
C876 C 0.32331 0.87795 0.74771 0.0
H877 H 0.36283 0.90587 0.76771 0.0
C878 C 0.38862 0.95354 0.75774 0.0
O879 O 0.35787 0.98777 0.76624 0.0
O880 O 0.34599 0.95661 0.77565 0.0
N881 N 0.32563 0.90266 0.73319 0.0
C882 C 0.31908 0.90831 0.72286 0.0
C883 C 0.30144 0.89257 0.7163 0.0
C884 C 0.29079 0.8712 0.72039 0.0
C885 C 0.29753 0.86584 0.73118 0.0
C886 C 0.31544 0.88214 0.73722 0.0
H887 H 0.32742 0.92462 0.71953 0.0
O888 O 0.31893 0.94802 0.75521 0.0
O889 O 0.3364 0.93035 0.75327 0.0
O890 O 0.35644 0.96991 0.73981 0.0
O891 O 0.36111 0.94405 0.73134 0.0
C892 C 0.28719 0.84498 0.73619 0.0
C893 C 0.29485 0.84083 0.74713 0.0
H894 H 0.31393 0.83914 0.76846 0.0
H895 H 0.34576 0.87021 0.77785 0.0
H896 H 0.29621 0.89685 0.70803 0.0
H897 H 0.27735 0.85907 0.71521 0.0
H898 H 0.2732 0.83206 0.73177 0.0
H899 H 0.28658 0.82481 0.75099 0.0
Mn900 Mn 0.09397 0.41806 0.75727 0.0
Mn901 Mn 0.13588 0.45728 0.74183 0.0
C902 C 0.1255 0.41702 0.75518 0.0
C903 C 0.07551 0.40483 0.7757 0.0
C904 C 0.09794 0.42038 0.72922 0.0
O905 O 0.08606 0.44155 0.75663 0.0
O906 O 0.11411 0.46575 0.7456 0.0
C907 C 0.15214 0.48905 0.76197 0.0
N908 N 0.15561 0.47741 0.75338 0.0
C909 C 0.1933 0.49514 0.75814 0.0
C910 C 0.19017 0.5074 0.76701 0.0
C911 C 0.16947 0.50422 0.76899 0.0
C912 C 0.17536 0.48001 0.75157 0.0
H913 H 0.13631 0.48684 0.76343 0.0
C914 C 0.09635 0.45958 0.7512 0.0
O915 O 0.06582 0.39779 0.76527 0.0
O916 O 0.09551 0.41972 0.77533 0.0
N917 N 0.15873 0.45217 0.73749 0.0
C918 C 0.15887 0.43844 0.72896 0.0
C919 C 0.17831 0.43934 0.726 0.0
C920 C 0.19747 0.45464 0.73164 0.0
C921 C 0.19696 0.46868 0.74036 0.0
C922 C 0.17708 0.46687 0.74303 0.0
H923 H 0.14423 0.42679 0.72454 0.0
O924 O 0.10752 0.39966 0.75753 0.0
O925 O 0.12466 0.43464 0.75426 0.0
O926 O 0.08683 0.41165 0.73886 0.0
O927 O 0.11663 0.43709 0.72941 0.0
C928 C 0.21538 0.48438 0.74652 0.0
C929 C 0.21352 0.4974 0.75552 0.0
H930 H 0.20354 0.51926 0.77236 0.0
H931 H 0.16691 0.51359 0.77583 0.0
H932 H 0.17856 0.42837 0.71931 0.0
H933 H 0.21246 0.45537 0.72927 0.0
H934 H 0.23105 0.48643 0.74452 0.0
H935 H 0.22774 0.50914 0.76034 0.0
Mn936 Mn 0.63616 0.70105 0.75926 0.0
Mn937 Mn 0.59598 0.70222 0.744 0.0
C938 C 0.63758 0.73353 0.75602 0.0
C939 C 0.64948 0.69699 0.77793 0.0
C940 C 0.63054 0.69625 0.73162 0.0
O941 O 0.6122 0.66973 0.75934 0.0
O942 O 0.58539 0.67307 0.75092 0.0
C943 C 0.56729 0.69657 0.76478 0.0
N944 N 0.57893 0.70816 0.75496 0.0
C945 C 0.56764 0.73425 0.75788 0.0
C946 C 0.55543 0.72252 0.76799 0.0
C947 C 0.55531 0.70363 0.77147 0.0
C948 C 0.57925 0.72641 0.75156 0.0
H949 H 0.56719 0.68206 0.76748 0.0
C950 C 0.59268 0.66192 0.75598 0.0
O951 O 0.65639 0.69362 0.76766 0.0
O952 O 0.63471 0.70226 0.77729 0.0
N953 N 0.60387 0.72943 0.73679 0.0
C954 C 0.61726 0.73937 0.72717 0.0
C955 C 0.61941 0.75861 0.72262 0.0
C956 C 0.60767 0.76734 0.72792 0.0
C957 C 0.59398 0.75683 0.7378 0.0
C958 C 0.59231 0.73757 0.74186 0.0
H959 H 0.62619 0.73265 0.72298 0.0
O960 O 0.65489 0.73301 0.75869 0.0
O961 O 0.61993 0.71506 0.75555 0.0
O962 O 0.64208 0.69875 0.74105 0.0
O963 O 0.6129 0.69652 0.73197 0.0
C964 C 0.58214 0.76482 0.74388 0.0
C965 C 0.56904 0.75358 0.75394 0.0
H966 H 0.54621 0.72794 0.77319 0.0
H967 H 0.54599 0.69455 0.7793 0.0
H968 H 0.63003 0.76666 0.715 0.0
H969 H 0.60929 0.78212 0.72434 0.0
H970 H 0.58322 0.77976 0.74099 0.0
H971 H 0.56025 0.76005 0.75864 0.0
Mn972 Mn 0.63031 0.68858 0.57906 0.0
Mn973 Mn 0.58652 0.68315 0.59354 0.0
C974 C 0.60115 0.65459 0.5822 0.0
C975 C 0.64877 0.69438 0.56065 0.0
C976 C 0.62832 0.69398 0.60646 0.0
O977 O 0.63448 0.71881 0.57877 0.0
O978 O 0.60222 0.71203 0.58584 0.0
C979 C 0.56117 0.68386 0.57242 0.0
N980 N 0.56284 0.67382 0.58255 0.0
C981 C 0.52659 0.64463 0.58014 0.0
C982 C 0.52443 0.65472 0.56971 0.0
C983 C 0.54183 0.67439 0.56581 0.0
C984 C 0.54625 0.65485 0.58635 0.0
H985 H 0.57452 0.69896 0.5694 0.0
C986 C 0.62067 0.72457 0.58111 0.0
O987 O 0.65885 0.69863 0.57105 0.0
O988 O 0.62827 0.68713 0.56102 0.0
N989 N 0.56972 0.65584 0.60132 0.0
C990 C 0.57484 0.64761 0.61113 0.0
C991 C 0.55933 0.6278 0.61604 0.0
C992 C 0.5387 0.61673 0.61087 0.0
C993 C 0.53381 0.62548 0.60076 0.0
C994 C 0.54985 0.64539 0.59634 0.0
H995 H 0.5906 0.65612 0.61522 0.0
O996 O 0.6199 0.65702 0.57976 0.0
O997 O 0.60001 0.67207 0.58246 0.0
O998 O 0.63806 0.69176 0.5973 0.0
O999 O 0.60976 0.69227 0.60572 0.0
C1000 C 0.51373 0.61511 0.59481 0.0
C1001 C 0.51015 0.62464 0.58448 0.0
H1002 H 0.50957 0.64744 0.56456 0.0
H1003 H 0.54032 0.68222 0.55774 0.0
H1004 H 0.56324 0.62112 0.62382 0.0
H1005 H 0.52677 0.6015 0.61472 0.0
H1006 H 0.50105 0.59965 0.59799 0.0
H1007 H 0.49478 0.61636 0.57986 0.0
Mn1008 Mn 0.36762 0.97034 0.57839 0.0
Mn1009 Mn 0.3712 0.93149 0.59366 0.0
C1010 C 0.40093 0.97358 0.5815 0.0
C1011 C 0.36244 0.98288 0.55974 0.0
C1012 C 0.36323 0.96479 0.60602 0.0
O1013 O 0.33681 0.94533 0.57846 0.0
O1014 O 0.34187 0.91946 0.58669 0.0
C1015 C 0.36704 0.90313 0.57299 0.0
N1016 N 0.3783 0.9152 0.58278 0.0
C1017 C 0.40567 0.9056 0.58001 0.0
C1018 C 0.39431 0.89297 0.56993 0.0
C1019 C 0.37495 0.89178 0.56639 0.0
C1020 C 0.39698 0.91651 0.58624 0.0
H1021 H 0.35216 0.9022 0.57024 0.0
C1022 C 0.32995 0.92589 0.58168 0.0
O1023 O 0.35877 0.98952 0.57002 0.0
O1024 O 0.36865 0.96881 0.56036 0.0
N1025 N 0.39874 0.94082 0.60088 0.0
C1026 C 0.40833 0.95467 0.61036 0.0
C1027 C 0.42807 0.95804 0.61487 0.0
C1028 C 0.43766 0.94702 0.60966 0.0
C1029 C 0.42749 0.93283 0.59993 0.0
C1030 C 0.40773 0.92996 0.59589 0.0
H1031 H 0.40097 0.96308 0.61445 0.0
O1032 O 0.39937 0.99032 0.57881 0.0
O1033 O 0.38297 0.9554 0.58205 0.0
O1034 O 0.36524 0.97617 0.5966 0.0
O1035 O 0.36433 0.94759 0.60567 0.0
C1036 C 0.43634 0.92167 0.59395 0.0
C1037 C 0.42547 0.90811 0.58397 0.0
H1038 H 0.40039 0.88425 0.56479 0.0
H1039 H 0.36614 0.88214 0.55859 0.0
H1040 H 0.43585 0.96907 0.62237 0.0
H1041 H 0.45286 0.94964 0.61319 0.0
H1042 H 0.45166 0.92366 0.59683 0.0
H1043 H 0.43259 0.89988 0.57933 0.0
Mn1044 Mn 0.08822 0.42839 0.57769 0.0
Mn1045 Mn 0.12708 0.47205 0.59207 0.0
C1046 C 0.08488 0.45867 0.5802 0.0
C1047 C 0.075 0.40954 0.55939 0.0
C1048 C 0.09417 0.43165 0.60537 0.0
O1049 O 0.11352 0.42289 0.57775 0.0
O1050 O 0.13901 0.45437 0.58563 0.0
C1051 C 0.15484 0.49447 0.57084 0.0
N1052 N 0.14299 0.49445 0.58056 0.0
C1053 C 0.1533 0.53143 0.5771 0.0
C1054 C 0.16571 0.5319 0.56709 0.0
C1055 C 0.16636 0.51329 0.56391 0.0
C1056 C 0.1419 0.51212 0.58355 0.0
H1057 H 0.15551 0.48025 0.56843 0.0
C1058 C 0.13296 0.436 0.58076 0.0
O1059 O 0.06886 0.39983 0.56987 0.0
O1060 O 0.08901 0.42985 0.55961 0.0
N1061 N 0.11794 0.49084 0.59868 0.0
C1062 C 0.10474 0.48756 0.60837 0.0
C1063 C 0.10194 0.50448 0.61255 0.0
C1064 C 0.11305 0.52469 0.60689 0.0
C1065 C 0.12681 0.52778 0.59707 0.0
C1066 C 0.12878 0.51027 0.59321 0.0
H1067 H 0.09635 0.47215 0.61285 0.0
O1068 O 0.06809 0.44017 0.57794 0.0
O1069 O 0.10303 0.45891 0.5807 0.0
O1070 O 0.08315 0.42126 0.59604 0.0
O1071 O 0.11113 0.45011 0.60465 0.0
C1072 C 0.13872 0.54757 0.59099 0.0
C1073 C 0.15182 0.54936 0.58094 0.0
H1074 H 0.17475 0.54643 0.56178 0.0
H1075 H 0.17585 0.5135 0.55618 0.0
H1076 H 0.09134 0.50198 0.62017 0.0
H1077 H 0.11091 0.53772 0.61017 0.0
H1078 H 0.13768 0.56145 0.59384 0.0
H1079 H 0.16059 0.56457 0.5762 0.0
Mn1080 Mn 0.36523 0.43072 0.5794 0.0
Mn1081 Mn 0.36719 0.47224 0.59477 0.0
C1082 C 0.39834 0.46012 0.58431 0.0
C1083 C 0.36235 0.41424 0.56052 0.0
C1084 C 0.35643 0.4297 0.60662 0.0
O1085 O 0.33464 0.42556 0.57804 0.0
O1086 O 0.3395 0.45665 0.58588 0.0
C1087 C 0.36841 0.49918 0.574 0.0
N1088 N 0.37722 0.49689 0.5845 0.0
C1089 C 0.40556 0.53381 0.58384 0.0
C1090 C 0.39675 0.53661 0.57304 0.0
C1091 C 0.37814 0.5192 0.56808 0.0
C1092 C 0.39522 0.51347 0.58928 0.0
H1093 H 0.35408 0.48583 0.57019 0.0
C1094 C 0.32796 0.43861 0.5805 0.0
O1095 O 0.35684 0.40316 0.57059 0.0
O1096 O 0.36912 0.43461 0.56147 0.0
N1097 N 0.39313 0.48888 0.60382 0.0
C1098 C 0.39994 0.48329 0.61407 0.0
C1099 C 0.41806 0.49896 0.62034 0.0
C1100 C 0.42891 0.5202 0.61605 0.0
C1101 C 0.42189 0.52549 0.60533 0.0
C1102 C 0.40349 0.50929 0.59961 0.0
H1103 H 0.39144 0.46709 0.61757 0.0
O1104 O 0.39678 0.44189 0.58141 0.0
O1105 O 0.38055 0.46068 0.58392 0.0
O1106 O 0.36008 0.42114 0.59738 0.0
O1107 O 0.35729 0.44789 0.60623 0.0
C1108 C 0.43237 0.5462 0.60014 0.0
C1109 C 0.42431 0.55031 0.58934 0.0
H1110 H 0.4042 0.55202 0.56844 0.0
H1111 H 0.3713 0.52122 0.55972 0.0
H1112 H 0.42349 0.49473 0.62855 0.0
H1113 H 0.44267 0.53231 0.62103 0.0
H1114 H 0.44676 0.55903 0.60431 0.0
H1115 H 0.43266 0.56623 0.58534 0.0
Mn1116 Mn 0.6253 0.96164 0.58012 0.0
Mn1117 Mn 0.58533 0.92345 0.59717 0.0
C1118 C 0.59558 0.96484 0.58483 0.0
C1119 C 0.64099 0.97362 0.56094 0.0
C1120 C 0.62784 0.95772 0.60768 0.0
O1121 O 0.63133 0.93674 0.57966 0.0
O1122 O 0.602 0.91142 0.58946 0.0
C1123 C 0.55898 0.89413 0.57731 0.0
N1124 N 0.56076 0.9064 0.5872 0.0
C1125 C 0.52328 0.89574 0.58619 0.0
C1126 C 0.521 0.8829 0.57602 0.0
C1127 C 0.53895 0.88216 0.57154 0.0
C1128 C 0.54366 0.90741 0.59151 0.0
H1129 H 0.57274 0.8935 0.57388 0.0
C1130 C 0.61952 0.91759 0.58357 0.0
O1131 O 0.65233 0.98039 0.57088 0.0
O1132 O 0.62073 0.95973 0.56218 0.0
N1133 N 0.56774 0.93261 0.60528 0.0
C1134 C 0.57282 0.94624 0.61495 0.0
C1135 C 0.55658 0.9484 0.62074 0.0
C1136 C 0.53531 0.93646 0.61657 0.0
C1137 C 0.53053 0.92288 0.60644 0.0
C1138 C 0.5473 0.92105 0.6012 0.0
H1139 H 0.58906 0.95512 0.61836 0.0
O1140 O 0.6134 0.98147 0.58135 0.0
O1141 O 0.59554 0.94672 0.58515 0.0
O1142 O 0.63582 0.9684 0.59789 0.0
O1143 O 0.60969 0.94043 0.60825 0.0
C1144 C 0.50978 0.91101 0.60138 0.0
C1145 C 0.5062 0.89759 0.59119 0.0
H1146 H 0.50558 0.87363 0.57155 0.0
H1147 H 0.53733 0.87234 0.56367 0.0
H1148 H 0.5604 0.95904 0.6285 0.0
H1149 H 0.52276 0.93789 0.6212 0.0
H1150 H 0.49652 0.91224 0.60518 0.0
H1151 H 0.49024 0.88874 0.58729 0.0
Mn1152 Mn 0.0937 0.69412 0.57632 0.0
Mn1153 Mn 0.13414 0.69422 0.59188 0.0
C1154 C 0.09257 0.6619 0.5805 0.0
C1155 C 0.07989 0.69713 0.55758 0.0
C1156 C 0.09997 0.70146 0.60365 0.0
O1157 O 0.11777 0.72557 0.57567 0.0
O1158 O 0.1449 0.72226 0.58362 0.0
C1159 C 0.16256 0.69706 0.57154 0.0
N1160 N 0.15079 0.68667 0.5816 0.0
C1161 C 0.16441 0.66217 0.58151 0.0
C1162 C 0.17675 0.67263 0.57117 0.0
C1163 C 0.17565 0.69001 0.56609 0.0
C1164 C 0.15119 0.66951 0.58632 0.0
H1165 H 0.16208 0.7107 0.56778 0.0
C1166 C 0.13759 0.73317 0.57833 0.0
O1167 O 0.07342 0.70123 0.56779 0.0
O1168 O 0.09455 0.69169 0.5583 0.0
N1169 N 0.126 0.66788 0.60026 0.0
C1170 C 0.11254 0.65912 0.60999 0.0
C1171 C 0.11098 0.64097 0.61579 0.0
C1172 C 0.12372 0.63241 0.61177 0.0
C1173 C 0.13772 0.64194 0.60188 0.0
C1174 C 0.13811 0.65959 0.59622 0.0
H1175 H 0.10312 0.66595 0.61332 0.0
O1176 O 0.07517 0.6621 0.57758 0.0
O1177 O 0.11007 0.68043 0.58053 0.0
O1178 O 0.08789 0.69739 0.59432 0.0
O1179 O 0.11793 0.70186 0.60345 0.0
C1180 C 0.15157 0.63484 0.59753 0.0
C1181 C 0.16488 0.64493 0.58733 0.0
H1182 H 0.18714 0.66746 0.56707 0.0
H1183 H 0.18511 0.69816 0.55811 0.0
H1184 H 0.10022 0.63379 0.62346 0.0
H1185 H 0.12272 0.61861 0.61639 0.0
H1186 H 0.15184 0.62139 0.60181 0.0
H1187 H 0.17517 0.63907 0.58393 0.0
Mn1188 Mn 0.09352 0.6934 0.7579 0.0
Mn1189 Mn 0.13717 0.70012 0.74273 0.0
C1190 C 0.12247 0.72767 0.75555 0.0
C1191 C 0.07517 0.68508 0.77646 0.0
C1192 C 0.09531 0.69046 0.7304 0.0
O1193 O 0.08925 0.66322 0.75667 0.0
O1194 O 0.12177 0.67067 0.74976 0.0
C1195 C 0.16297 0.69825 0.76325 0.0
N1196 N 0.16103 0.70892 0.7535 0.0
C1197 C 0.19713 0.73826 0.75618 0.0
C1198 C 0.19956 0.72754 0.76622 0.0
C1199 C 0.18239 0.70748 0.76978 0.0
C1200 C 0.17741 0.72826 0.75002 0.0
H1201 H 0.14979 0.68284 0.76601 0.0
C1202 C 0.10307 0.65764 0.75403 0.0
O1203 O 0.06502 0.68225 0.76618 0.0
O1204 O 0.0957 0.69256 0.77588 0.0
N1205 N 0.15365 0.72795 0.73548 0.0
C1206 C 0.14832 0.73666 0.72598 0.0
C1207 C 0.16362 0.75686 0.72141 0.0
C1208 C 0.18426 0.76782 0.72657 0.0
C1209 C 0.18939 0.75855 0.73632 0.0
C1210 C 0.17356 0.73827 0.74041 0.0
H1211 H 0.13256 0.72825 0.72189 0.0
O1212 O 0.10378 0.72487 0.75855 0.0
O1213 O 0.12375 0.71033 0.75446 0.0
O1214 O 0.08584 0.69253 0.73974 0.0
O1215 O 0.11362 0.69156 0.73081 0.0
C1216 C 0.2095 0.76874 0.74223 0.0
C1217 C 0.21334 0.75864 0.75218 0.0
H1218 H 0.21448 0.73463 0.7713 0.0
H1219 H 0.18412 0.69915 0.77755 0.0
H1220 H 0.15953 0.76393 0.71389 0.0
H1221 H 0.19604 0.78336 0.72298 0.0
H1222 H 0.22202 0.78449 0.73931 0.0
H1223 H 0.22875 0.76677 0.75677 0.0
Mn1224 Mn 0.36226 0.42881 0.75913 0.0
Mn1225 Mn 0.36469 0.47141 0.74475 0.0
C1226 C 0.33074 0.4291 0.75485 0.0
C1227 C 0.3638 0.41317 0.77753 0.0
C1228 C 0.36964 0.43666 0.73176 0.0
O1229 O 0.39401 0.45167 0.76045 0.0
O1230 O 0.39248 0.47991 0.7528 0.0
C1231 C 0.36922 0.49822 0.76632 0.0
N1232 N 0.35885 0.48838 0.75581 0.0
C1233 C 0.33678 0.50476 0.75685 0.0
C1234 C 0.34733 0.51523 0.76764 0.0
C1235 C 0.36348 0.51177 0.77246 0.0
C1236 C 0.34286 0.49106 0.7513 0.0
H1237 H 0.38181 0.49578 0.76995 0.0
C1238 C 0.40255 0.47165 0.75804 0.0
O1239 O 0.36778 0.40699 0.76717 0.0
O1240 O 0.35925 0.42847 0.77713 0.0
N1241 N 0.339 0.46605 0.73655 0.0
C1242 C 0.32958 0.45374 0.72649 0.0
C1243 C 0.31274 0.45486 0.7207 0.0
C1244 C 0.30616 0.46902 0.72512 0.0
C1245 C 0.31615 0.48157 0.73548 0.0
C1246 C 0.33252 0.47943 0.74101 0.0
H1247 H 0.33502 0.44333 0.72283 0.0
O1248 O 0.33035 0.41127 0.75733 0.0
O1249 O 0.3495 0.4464 0.7554 0.0
O1250 O 0.36597 0.4243 0.74093 0.0
O1251 O 0.37049 0.45482 0.73249 0.0
C1252 C 0.31057 0.49617 0.74052 0.0
C1253 C 0.32059 0.50746 0.75132 0.0
H1254 H 0.34313 0.52591 0.77231 0.0
H1255 H 0.37164 0.51972 0.78081 0.0
H1256 H 0.30509 0.44512 0.71272 0.0
H1257 H 0.29336 0.47006 0.72052 0.0
H1258 H 0.29826 0.49852 0.7363 0.0
H1259 H 0.31575 0.51821 0.75528 0.0
Mn1260 Mn 0.62267 0.95653 0.76028 0.0
Mn1261 Mn 0.5826 0.91696 0.74419 0.0
C1262 C 0.62471 0.92625 0.75524 0.0
C1263 C 0.63574 0.97221 0.77934 0.0
C1264 C 0.61629 0.95945 0.73319 0.0
O1265 O 0.59826 0.96334 0.76124 0.0
O1266 O 0.57114 0.93268 0.75352 0.0
C1267 C 0.55544 0.88891 0.76424 0.0
N1268 N 0.56689 0.89164 0.75383 0.0
C1269 C 0.55711 0.85436 0.75359 0.0
C1270 C 0.54512 0.8511 0.76429 0.0
C1271 C 0.54436 0.86848 0.76965 0.0
C1272 C 0.5679 0.87509 0.74865 0.0
H1273 H 0.5548 0.90223 0.76836 0.0
C1274 C 0.57837 0.95082 0.75892 0.0
O1275 O 0.64249 0.98344 0.76935 0.0
O1276 O 0.62134 0.9521 0.77821 0.0
N1277 N 0.59146 0.90037 0.73473 0.0
C1278 C 0.60435 0.90638 0.72467 0.0
C1279 C 0.60664 0.89087 0.71811 0.0
C1280 C 0.59558 0.86934 0.72191 0.0
C1281 C 0.58267 0.86357 0.7324 0.0
C1282 C 0.58073 0.87967 0.73846 0.0
H1283 H 0.61259 0.9228 0.72154 0.0
O1284 O 0.64179 0.94381 0.75858 0.0
O1285 O 0.60692 0.92681 0.75537 0.0
O1286 O 0.62863 0.96665 0.74248 0.0
O1287 O 0.59811 0.94209 0.73332 0.0
C1288 C 0.57161 0.84248 0.73707 0.0
C1289 C 0.55898 0.83791 0.74771 0.0
H1290 H 0.53655 0.83537 0.76849 0.0
H1291 H 0.53521 0.86611 0.77793 0.0
H1292 H 0.61671 0.89546 0.71006 0.0
H1293 H 0.59716 0.85739 0.71671 0.0
H1294 H 0.57288 0.82969 0.73262 0.0
H1295 H 0.55079 0.8217 0.75131 0.0
H1296 H 0.07716 0.25981 0.09311 0.0
H1297 H 0.11446 0.26958 0.09644 0.0
H1298 H 0.133 0.33665 0.09703 0.0
H1299 H 0.09536 0.32696 0.09373 0.0
H1300 H 0.15634 0.32533 0.08024 0.0
H1301 H 0.15468 0.29327 0.12639 0.0
H1302 H 0.13303 0.27441 0.11692 0.0
H1303 H 0.13442 0.29929 0.12111 0.0
C1304 C 0.08907 0.27665 0.09412 0.0
C1305 C 0.08329 0.29262 0.0931 0.0
C1306 C 0.11038 0.28219 0.09613 0.0
C1307 C 0.12644 0.30381 0.09715 0.0
C1308 C 0.12077 0.31985 0.0964 0.0
H1309 H 0.25683 0.32 0.10331 0.0
H1310 H 0.22826 0.32881 0.10682 0.0
C1311 C 0.09929 0.31429 0.09453 0.0
C1312 C 0.14922 0.30928 0.09765 0.0
H1313 H 0.18251 0.29596 0.11274 0.0
C1314 C 0.16233 0.31947 0.0875 0.0
C1315 C 0.1571 0.30182 0.10719 0.0
C1316 C 0.14414 0.29177 0.11858 0.0
C1317 C 0.18233 0.32068 0.08615 0.0
C1318 C 0.18928 0.31141 0.09515 0.0
C1319 C 0.17705 0.30292 0.1058 0.0
C1320 C 0.20725 0.30741 0.0928 0.0
C1321 C 0.19538 0.33084 0.0748 0.0
C1322 C 0.20474 0.29239 0.08386 0.0
C1323 C 0.22075 0.28717 0.08194 0.0
C1324 C 0.23975 0.29694 0.0889 0.0
C1325 C 0.24243 0.31228 0.09776 0.0
C1326 C 0.22616 0.31731 0.09979 0.0
H1327 H 0.19115 0.34231 0.0706 0.0
H1328 H 0.21285 0.33942 0.07687 0.0
H1329 H 0.19207 0.31809 0.06801 0.0
H1330 H 0.19013 0.28436 0.07849 0.0
H1331 H 0.21817 0.27536 0.075 0.0
H1332 H 0.73551 0.96219 0.09742 0.0
H1333 H 0.72903 0.92572 0.10121 0.0
H1334 H 0.79624 0.94792 0.09533 0.0
H1335 H 0.8029 0.9841 0.0916 0.0
H1336 H 0.73784 0.90045 0.08452 0.0
H1337 H 0.78308 0.91434 0.1276 0.0
H1338 H 0.77424 0.93239 0.12214 0.0
H1339 H 0.79838 0.93404 0.11618 0.0
C1340 C 0.74893 0.95933 0.09707 0.0
C1341 C 0.76972 0.9761 0.09418 0.0
C1342 C 0.74519 0.9385 0.09923 0.0
C1343 C 0.76222 0.93423 0.09874 0.0
C1344 C 0.78295 0.95096 0.09599 0.0
H1345 H 0.8027 0.84597 0.08983 0.0
H1346 H 0.79545 0.87515 0.09338 0.0
C1347 C 0.78668 0.97164 0.09376 0.0
C1348 C 0.75853 0.91215 0.10025 0.0
H1349 H 0.77836 0.88425 0.11535 0.0
C1350 C 0.74619 0.89662 0.09145 0.0
C1351 C 0.76936 0.90721 0.10934 0.0
C1352 C 0.78183 0.92282 0.11943 0.0
C1353 C 0.74588 0.87692 0.09091 0.0
C1354 C 0.75804 0.87269 0.09946 0.0
C1355 C 0.76914 0.88761 0.10876 0.0
C1356 C 0.76193 0.85445 0.0979 0.0
C1357 C 0.73383 0.86144 0.08069 0.0
C1358 C 0.74549 0.83306 0.09941 0.0
C1359 C 0.74958 0.81616 0.09738 0.0
C1360 C 0.77017 0.82045 0.09376 0.0
C1361 C 0.78661 0.84198 0.0925 0.0
C1362 C 0.78254 0.85874 0.09458 0.0
H1363 H 0.7269 0.86809 0.0741 0.0
H1364 H 0.74468 0.85725 0.07567 0.0
H1365 H 0.72054 0.84637 0.08457 0.0
H1366 H 0.72952 0.82946 0.10209 0.0
H1367 H 0.73657 0.79979 0.09847 0.0
H1368 H 0.08195 0.84768 0.0929 0.0
H1369 H 0.11923 0.8743 0.09699 0.0
H1370 H 0.13497 0.82405 0.10091 0.0
H1371 H 0.09737 0.79696 0.09672 0.0
H1372 H 0.14647 0.87846 0.11783 0.0
H1373 H 0.17573 0.86467 0.07339 0.0
H1374 H 0.14759 0.85537 0.07591 0.0
H1375 H 0.16008 0.8422 0.08334 0.0
C1376 C 0.09323 0.84215 0.09467 0.0
C1377 C 0.08667 0.82015 0.09435 0.0
C1378 C 0.11455 0.85743 0.09707 0.0
C1379 C 0.12986 0.85115 0.09915 0.0
C1380 C 0.12339 0.8292 0.09922 0.0
H1381 H 0.26299 0.96127 0.09474 0.0
H1382 H 0.23579 0.92395 0.0998 0.0
C1383 C 0.1019 0.81378 0.09687 0.0
C1384 C 0.15263 0.86805 0.10062 0.0
H1385 H 0.19846 0.89653 0.08389 0.0
C1386 C 0.1581 0.8821 0.11059 0.0
C1387 C 0.16782 0.87266 0.09121 0.0
C1388 C 0.16266 0.85805 0.08031 0.0
C1389 C 0.17768 0.90152 0.1109 0.0
C1390 C 0.19196 0.9071 0.10091 0.0
C1391 C 0.18742 0.89216 0.09151 0.0
C1392 C 0.20896 0.92964 0.09885 0.0
C1393 C 0.18236 0.91658 0.12152 0.0
C1394 C 0.2028 0.94497 0.09655 0.0
C1395 C 0.21807 0.96596 0.09352 0.0
C1396 C 0.23996 0.97221 0.09275 0.0
C1397 C 0.24626 0.95694 0.0953 0.0
C1398 C 0.23079 0.93568 0.09819 0.0
H1399 H 0.17394 0.90766 0.12991 0.0
H1400 H 0.19988 0.9261 0.12338 0.0
H1401 H 0.17655 0.9279 0.11932 0.0
H1402 H 0.186 0.94054 0.09679 0.0
H1403 H 0.2126 0.97726 0.09167 0.0
H1404 H 0.26029 0.0757 0.92867 0.0
H1405 H 0.26797 0.11262 0.92698 0.0
H1406 H 0.32332 0.12838 0.90465 0.0
H1407 H 0.31575 0.09115 0.90622 0.0
H1408 H 0.30789 0.15115 0.93396 0.0
H1409 H 0.28678 0.14895 0.88476 0.0
H1410 H 0.27756 0.12467 0.89358 0.0
H1411 H 0.30518 0.13994 0.88904 0.0
C1412 C 0.27412 0.0869 0.92336 0.0
C1413 C 0.28738 0.08035 0.91756 0.0
C1414 C 0.27849 0.10805 0.92244 0.0
C1415 C 0.29612 0.12316 0.91564 0.0
C1416 C 0.30951 0.11686 0.90984 0.0
H1417 H 0.31411 0.25322 0.90441 0.0
H1418 H 0.32237 0.22392 0.90375 0.0
C1419 C 0.30518 0.09561 0.91079 0.0
C1420 C 0.30017 0.14544 0.91483 0.0
H1421 H 0.29326 0.17943 0.89604 0.0
C1422 C 0.3051 0.15753 0.92562 0.0
C1423 C 0.29666 0.15375 0.90391 0.0
C1424 C 0.29116 0.14123 0.89213 0.0
C1425 C 0.30552 0.17724 0.92592 0.0
C1426 C 0.30055 0.18484 0.91521 0.0
C1427 C 0.29701 0.17347 0.90423 0.0
C1428 C 0.2962 0.20291 0.91565 0.0
C1429 C 0.31054 0.18941 0.93782 0.0
C1430 C 0.27861 0.2006 0.9224 0.0
C1431 C 0.27378 0.21711 0.92275 0.0
C1432 C 0.28645 0.23638 0.91633 0.0
C1433 C 0.3041 0.23866 0.90951 0.0
C1434 C 0.30883 0.22195 0.90911 0.0
H1435 H 0.32013 0.18515 0.94397 0.0
H1436 H 0.3195 0.20704 0.93623 0.0
H1437 H 0.29528 0.18523 0.94254 0.0
H1438 H 0.26844 0.18586 0.92734 0.0
H1439 H 0.26006 0.2147 0.92809 0.0
H1440 H 0.96191 0.25567 0.89953 0.0
H1441 H 0.92406 0.22803 0.89646 0.0
H1442 H 0.92972 0.18938 0.92471 0.0
H1443 H 0.96718 0.2165 0.92779 0.0
H1444 H 0.90912 0.18275 0.8904 0.0
H1445 H 0.87436 0.19177 0.93357 0.0
H1446 H 0.89923 0.21299 0.92727 0.0
H1447 H 0.89897 0.19148 0.93581 0.0
C1448 C 0.955 0.24135 0.90515 0.0
C1449 C 0.96759 0.23828 0.91389 0.0
C1450 C 0.93341 0.22563 0.90338 0.0
C1451 C 0.92406 0.20687 0.9105 0.0
C1452 C 0.93654 0.20393 0.91928 0.0
H1453 H 0.84305 0.07807 0.9104 0.0
H1454 H 0.86955 0.11557 0.90689 0.0
C1455 C 0.95804 0.2194 0.92095 0.0
C1456 C 0.90175 0.18938 0.90839 0.0
H1457 H 0.85579 0.15662 0.92409 0.0
C1458 C 0.89717 0.17734 0.8976 0.0
C1459 C 0.88609 0.18252 0.91771 0.0
C1460 C 0.88979 0.19549 0.9292 0.0
C1461 C 0.87812 0.15752 0.89641 0.0
C1462 C 0.86349 0.14959 0.90629 0.0
C1463 C 0.86712 0.16263 0.91656 0.0
C1464 C 0.84659 0.1267 0.90705 0.0
C1465 C 0.87434 0.14466 0.88487 0.0
C1466 C 0.8248 0.12048 0.90839 0.0
C1467 C 0.80943 0.09884 0.91038 0.0
C1468 C 0.81577 0.08326 0.91133 0.0
C1469 C 0.83758 0.08963 0.90979 0.0
C1470 C 0.85278 0.11107 0.90765 0.0
H1471 H 0.88264 0.15529 0.87696 0.0
H1472 H 0.88091 0.13369 0.88605 0.0
H1473 H 0.85693 0.13481 0.8828 0.0
H1474 H 0.81978 0.13239 0.9081 0.0
H1475 H 0.79277 0.09443 0.91158 0.0
H1476 H 0.84292 0.7755 0.92852 0.0
H1477 H 0.86907 0.7646 0.9237 0.0
H1478 H 0.82676 0.72114 0.89616 0.0
H1479 H 0.80017 0.73216 0.9009 0.0
H1480 H 0.86493 0.72237 0.92352 0.0
H1481 H 0.88438 0.7628 0.87806 0.0
H1482 H 0.87009 0.7688 0.88953 0.0
H1483 H 0.85685 0.74355 0.88165 0.0
C1484 C 0.83899 0.76353 0.92147 0.0
C1485 C 0.8195 0.75486 0.91501 0.0
C1486 C 0.85396 0.75723 0.91877 0.0
C1487 C 0.84991 0.7422 0.90953 0.0
C1488 C 0.83022 0.73291 0.90327 0.0
H1489 H 0.96232 0.72307 0.90515 0.0
H1490 H 0.92425 0.71225 0.9029 0.0
C1491 C 0.81504 0.73915 0.90603 0.0
C1492 C 0.86719 0.7376 0.90625 0.0
H1493 H 0.90883 0.75362 0.88623 0.0
C1494 C 0.87424 0.72858 0.91521 0.0
C1495 C 0.87927 0.74584 0.89542 0.0
C1496 C 0.87244 0.75588 0.88558 0.0
C1497 C 0.89397 0.72913 0.91407 0.0
C1498 C 0.90679 0.73875 0.90361 0.0
C1499 C 0.89891 0.74622 0.89421 0.0
C1500 C 0.92972 0.74471 0.90331 0.0
C1501 C 0.90178 0.72112 0.92452 0.0
C1502 C 0.94542 0.76652 0.90381 0.0
C1503 C 0.96706 0.77275 0.90506 0.0
C1504 C 0.97354 0.75728 0.90581 0.0
C1505 C 0.95788 0.7354 0.90468 0.0
C1506 C 0.93611 0.72917 0.90344 0.0
H1507 H 0.89089 0.71634 0.93255 0.0
H1508 H 0.90281 0.70693 0.92149 0.0
H1509 H 0.91808 0.73372 0.92742 0.0
H1510 H 0.94083 0.77878 0.90371 0.0
H1511 H 0.97864 0.78974 0.90576 0.0
H1512 H 0.75801 0.64695 0.4345 0.0
H1513 H 0.79477 0.65339 0.43636 0.0
H1514 H 0.78339 0.61025 0.4063 0.0
H1515 H 0.74676 0.60365 0.40435 0.0
H1516 H 0.80491 0.61991 0.44089 0.0
H1517 H 0.84203 0.66433 0.39812 0.0
H1518 H 0.81805 0.66253 0.40462 0.0
H1519 H 0.81637 0.64055 0.39589 0.0
C1520 C 0.76343 0.63909 0.42815 0.0
C1521 C 0.7494 0.62476 0.41927 0.0
C1522 C 0.78442 0.64277 0.42926 0.0
C1523 C 0.79184 0.63249 0.42138 0.0
C1524 C 0.77808 0.61862 0.41233 0.0
H1525 H 0.87701 0.58505 0.4227 0.0
H1526 H 0.84797 0.59314 0.42442 0.0
C1527 C 0.75709 0.61477 0.41129 0.0
C1528 C 0.8133 0.63471 0.42312 0.0
H1529 H 0.85963 0.64737 0.40793 0.0
C1530 C 0.81707 0.6263 0.4338 0.0
C1531 C 0.8292 0.64325 0.41391 0.0
C1532 C 0.82635 0.65338 0.40253 0.0
C1533 C 0.83578 0.62494 0.43515 0.0
C1534 C 0.85098 0.63209 0.42556 0.0
C1535 C 0.84786 0.64177 0.41523 0.0
C1536 C 0.86894 0.62757 0.42549 0.0
C1537 C 0.83887 0.61526 0.44665 0.0
C1538 C 0.89039 0.6443 0.42548 0.0
C1539 C 0.90715 0.63973 0.42456 0.0
C1540 C 0.90264 0.61836 0.42338 0.0
C1541 C 0.88109 0.60169 0.42354 0.0
C1542 C 0.86444 0.60626 0.4246 0.0
H1543 H 0.82916 0.61604 0.45432 0.0
H1544 H 0.83365 0.59811 0.44497 0.0
H1545 H 0.85604 0.62358 0.4494 0.0
H1546 H 0.89414 0.66086 0.42607 0.0
H1547 H 0.92357 0.65293 0.4244 0.0
H1548 H 0.43829 0.30436 0.40443 0.0
H1549 H 0.4293 0.26725 0.40758 0.0
H1550 H 0.39311 0.26355 0.4398 0.0
H1551 H 0.4021 0.30099 0.43673 0.0
H1552 H 0.42418 0.25079 0.44335 0.0
H1553 H 0.37321 0.20966 0.40331 0.0
H1554 H 0.3972 0.23396 0.39914 0.0
H1555 H 0.3776 0.23529 0.40878 0.0
C1556 C 0.42815 0.29563 0.41211 0.0
C1557 C 0.42095 0.30568 0.42035 0.0
C1558 C 0.42287 0.27432 0.41383 0.0
C1559 C 0.41029 0.26255 0.42382 0.0
C1560 C 0.40266 0.27232 0.43196 0.0
H1561 H 0.39343 0.13213 0.42599 0.0
H1562 H 0.38344 0.15991 0.42902 0.0
C1563 C 0.40778 0.29367 0.43017 0.0
C1564 C 0.40715 0.24088 0.42625 0.0
H1565 H 0.39269 0.19333 0.412 0.0
C1566 C 0.4168 0.23799 0.43666 0.0
C1567 C 0.39725 0.22407 0.41762 0.0
C1568 C 0.38552 0.22579 0.40664 0.0
C1569 C 0.41843 0.21945 0.43813 0.0
C1570 C 0.41038 0.20358 0.42889 0.0
C1571 C 0.39908 0.20562 0.41902 0.0
C1572 C 0.41612 0.18645 0.42839 0.0
C1573 C 0.42957 0.21742 0.44929 0.0
C1574 C 0.43775 0.19222 0.42704 0.0
C1575 C 0.44346 0.17653 0.42521 0.0
C1576 C 0.42765 0.15466 0.42469 0.0
C1577 C 0.40599 0.14882 0.4264 0.0
C1578 C 0.40025 0.16464 0.42812 0.0
H1579 H 0.42839 0.22667 0.45709 0.0
H1580 H 0.42266 0.20036 0.45207 0.0
H1581 H 0.44686 0.22401 0.44722 0.0
H1582 H 0.45022 0.20897 0.42698 0.0
H1583 H 0.4603 0.18161 0.42397 0.0
H1584 H 0.91381 0.29266 0.43857 0.0
H1585 H 0.8853 0.25519 0.44183 0.0
H1586 H 0.84876 0.26096 0.41235 0.0
H1587 H 0.87674 0.29808 0.40909 0.0
H1588 H 0.8395 0.24198 0.44678 0.0
H1589 H 0.85034 0.20426 0.4053 0.0
H1590 H 0.8716 0.22904 0.41167 0.0
H1591 H 0.85106 0.22922 0.40237 0.0
C1592 C 0.89979 0.28583 0.43272 0.0
C1593 C 0.89752 0.29836 0.4236 0.0
C1594 C 0.88355 0.26448 0.4346 0.0
C1595 C 0.86511 0.2553 0.42722 0.0
C1596 C 0.86302 0.26767 0.41802 0.0
H1597 H 0.73487 0.17135 0.42644 0.0
H1598 H 0.77197 0.19944 0.42967 0.0
C1599 C 0.879 0.28896 0.41624 0.0
C1600 C 0.84711 0.2333 0.42944 0.0
H1601 H 0.81508 0.1863 0.41442 0.0
C1602 C 0.83441 0.22954 0.43988 0.0
C1603 C 0.84065 0.21705 0.42048 0.0
C1604 C 0.85423 0.21996 0.40937 0.0
C1605 C 0.81448 0.21061 0.44109 0.0
C1606 C 0.80712 0.19523 0.43159 0.0
C1607 C 0.82067 0.19819 0.42166 0.0
C1608 C 0.78449 0.17767 0.43091 0.0
C1609 C 0.80103 0.20765 0.45228 0.0
C1610 C 0.77921 0.15605 0.43046 0.0
C1611 C 0.75786 0.13982 0.42863 0.0
C1612 C 0.74158 0.14505 0.42697 0.0
C1613 C 0.74699 0.16673 0.42762 0.0
C1614 C 0.76818 0.18283 0.42958 0.0
H1615 H 0.81118 0.21689 0.46016 0.0
H1616 H 0.78977 0.21362 0.45031 0.0
H1617 H 0.79143 0.19042 0.45485 0.0
H1618 H 0.79163 0.1518 0.43134 0.0
H1619 H 0.75424 0.12329 0.42813 0.0
H1620 H 0.97962 0.42264 0.23149 0.0
H1621 H 0.98866 0.46008 0.22796 0.0
H1622 H 0.94823 0.45573 0.25819 0.0
H1623 H 0.93904 0.41866 0.26171 0.0
H1624 H 0.95582 0.47326 0.22354 0.0
H1625 H 0.00704 0.51255 0.26394 0.0
H1626 H 0.00305 0.48749 0.25774 0.0
H1627 H 0.98297 0.48775 0.26742 0.0
C1628 C 0.97288 0.42979 0.23745 0.0
C1629 C 0.95856 0.41767 0.24685 0.0
C1630 C 0.97803 0.45111 0.23541 0.0
C1631 C 0.96929 0.46068 0.24291 0.0
C1632 C 0.95537 0.44873 0.25241 0.0
H1633 H 0.92402 0.5459 0.24373 0.0
H1634 H 0.93227 0.51722 0.24067 0.0
C1635 C 0.95002 0.42747 0.25435 0.0
C1636 C 0.97323 0.48261 0.24053 0.0
H1637 H 0.98927 0.53024 0.25508 0.0
C1638 C 0.96364 0.48597 0.23025 0.0
C1639 C 0.98359 0.4992 0.24924 0.0
C1640 C 0.99494 0.4967 0.26016 0.0
C1641 C 0.96262 0.50489 0.22898 0.0
C1642 C 0.97129 0.52066 0.23827 0.0
C1643 C 0.98246 0.51805 0.24802 0.0
C1644 C 0.96656 0.53847 0.23889 0.0
C1645 C 0.95151 0.50747 0.21797 0.0
C1646 C 0.98316 0.55998 0.23901 0.0
C1647 C 0.97849 0.57654 0.24076 0.0
C1648 C 0.95717 0.57177 0.24265 0.0
C1649 C 0.94062 0.55018 0.24235 0.0
C1650 C 0.94528 0.53374 0.24049 0.0
H1651 H 0.95188 0.49787 0.21012 0.0
H1652 H 0.93442 0.50167 0.22026 0.0
H1653 H 0.95904 0.52458 0.21518 0.0
H1654 H 0.99972 0.56392 0.23793 0.0
H1655 H 0.99163 0.59298 0.24099 0.0
H1656 H 0.6288 0.58874 0.23999 0.0
H1657 H 0.59185 0.56006 0.23572 0.0
H1658 H 0.61049 0.51245 0.24219 0.0
H1659 H 0.64713 0.54064 0.24635 0.0
H1660 H 0.58409 0.50533 0.22075 0.0
H1661 H 0.55055 0.52031 0.26316 0.0
H1662 H 0.56583 0.54242 0.25293 0.0
H1663 H 0.57904 0.53083 0.26125 0.0
C1664 C 0.62504 0.57216 0.2404 0.0
C1665 C 0.64091 0.56701 0.24364 0.0
C1666 C 0.60393 0.55582 0.23801 0.0
C1667 C 0.59845 0.53416 0.23877 0.0
C1668 C 0.61439 0.52907 0.24159 0.0
H1669 H 0.50968 0.40512 0.24431 0.0
H1670 H 0.53902 0.44137 0.2405 0.0
C1671 C 0.63534 0.54526 0.24402 0.0
C1672 C 0.57608 0.51642 0.23711 0.0
H1673 H 0.52858 0.48846 0.25246 0.0
C1674 C 0.57176 0.50186 0.22752 0.0
C1675 C 0.56 0.51202 0.24593 0.0
C1676 C 0.56394 0.52709 0.25646 0.0
C1677 C 0.55225 0.48238 0.22693 0.0
C1678 C 0.53686 0.47722 0.23627 0.0
C1679 C 0.54048 0.49246 0.24534 0.0
C1680 C 0.51854 0.4551 0.23777 0.0
C1681 C 0.54863 0.4671 0.21656 0.0
C1682 C 0.49723 0.45082 0.23768 0.0
C1683 C 0.48025 0.42995 0.23987 0.0
C1684 C 0.4844 0.41315 0.24241 0.0
C1685 C 0.50583 0.41761 0.24243 0.0
C1686 C 0.52266 0.43833 0.24015 0.0
H1687 H 0.55808 0.47582 0.20836 0.0
H1688 H 0.55395 0.45568 0.21942 0.0
H1689 H 0.53136 0.45773 0.21405 0.0
H1690 H 0.49376 0.46363 0.23599 0.0
H1691 H 0.46395 0.42709 0.23983 0.0
H1692 H 0.51237 0.13344 0.2431 0.0
H1693 H 0.54049 0.1244 0.23997 0.0
H1694 H 0.49303 0.05698 0.23968 0.0
H1695 H 0.4645 0.06592 0.24275 0.0
H1696 H 0.52825 0.07 0.25676 0.0
H1697 H 0.55716 0.10013 0.21006 0.0
H1698 H 0.55372 0.11883 0.21932 0.0
H1699 H 0.5307 0.09343 0.21538 0.0
C1700 C 0.5078 0.11667 0.24219 0.0
C1701 C 0.48619 0.10038 0.24322 0.0
C1702 C 0.52391 0.11155 0.24031 0.0
C1703 C 0.51881 0.09005 0.23945 0.0
C1704 C 0.49723 0.07368 0.2402 0.0
H1705 H 0.6319 0.07224 0.2332 0.0
H1706 H 0.59472 0.06425 0.23007 0.0
C1707 C 0.48098 0.07882 0.24193 0.0
C1708 C 0.53643 0.08503 0.23905 0.0
H1709 H 0.58256 0.09785 0.22358 0.0
C1710 C 0.53984 0.07555 0.24937 0.0
C1711 C 0.55144 0.09214 0.22936 0.0
C1712 C 0.548 0.10152 0.21784 0.0
C1713 C 0.55877 0.07459 0.25067 0.0
C1714 C 0.5746 0.08336 0.24143 0.0
C1715 C 0.57042 0.09127 0.23069 0.0
C1716 C 0.59656 0.08717 0.2435 0.0
C1717 C 0.56222 0.06516 0.26216 0.0
C1718 C 0.60982 0.1028 0.25199 0.0
C1719 C 0.63097 0.10756 0.25369 0.0
C1720 C 0.63933 0.0967 0.24698 0.0
C1721 C 0.62592 0.08082 0.23855 0.0
C1722 C 0.60472 0.07625 0.23674 0.0
H1723 H 0.54677 0.05424 0.2668 0.0
H1724 H 0.57071 0.05616 0.26014 0.0
H1725 H 0.57232 0.07837 0.26858 0.0
H1726 H 0.60386 0.11158 0.25718 0.0
H1727 H 0.64077 0.11981 0.2603 0.0
H1728 H 0.40426 0.92665 0.76189 0.0
H1729 H 0.44084 0.936 0.76693 0.0
H1730 H 0.45974 0.00316 0.76778 0.0
H1731 H 0.4227 0.99387 0.76271 0.0
H1732 H 0.48571 0.99247 0.75269 0.0
H1733 H 0.47575 0.95744 0.79874 0.0
H1734 H 0.45541 0.93915 0.78842 0.0
H1735 H 0.45672 0.96416 0.79224 0.0
C1736 C 0.41606 0.94343 0.76328 0.0
C1737 C 0.41056 0.95953 0.76185 0.0
C1738 C 0.43696 0.94872 0.76628 0.0
C1739 C 0.45292 0.97023 0.76792 0.0
C1740 C 0.44755 0.98643 0.76669 0.0
H1741 H 0.58568 0.99108 0.76531 0.0
H1742 H 0.55851 0.00145 0.76968 0.0
C1743 C 0.42642 0.9811 0.76381 0.0
C1744 C 0.47541 0.97533 0.76972 0.0
H1745 H 0.50442 0.95847 0.78631 0.0
C1746 C 0.49019 0.98574 0.76025 0.0
C1747 C 0.4812 0.96663 0.77962 0.0
C1748 C 0.46649 0.95642 0.7904 0.0
C1749 C 0.5097 0.98568 0.75979 0.0
C1750 C 0.5145 0.97511 0.76911 0.0
C1751 C 0.50062 0.96647 0.77914 0.0
C1752 C 0.53144 0.96934 0.76747 0.0
C1753 C 0.52416 0.99521 0.74884 0.0
C1754 C 0.52518 0.94785 0.76505 0.0
C1755 C 0.5405 0.94192 0.76253 0.0
C1756 C 0.56252 0.95734 0.76244 0.0
C1757 C 0.56886 0.97882 0.76529 0.0
C1758 C 0.55339 0.9848 0.76774 0.0
H1759 H 0.51756 0.00193 0.74208 0.0
H1760 H 0.54015 0.00826 0.75185 0.0
H1761 H 0.52654 0.98277 0.74426 0.0
H1762 H 0.50831 0.93569 0.76481 0.0
H1763 H 0.53499 0.9252 0.76051 0.0
H1764 H 0.10648 0.49325 0.73603 0.0
H1765 H 0.0985 0.52215 0.7388 0.0
H1766 H 0.06087 0.49056 0.77077 0.0
H1767 H 0.06892 0.46133 0.7681 0.0
H1768 H 0.05866 0.52292 0.74112 0.0
H1769 H 0.1103 0.5504 0.78274 0.0
H1770 H 0.11113 0.53166 0.7721 0.0
H1771 H 0.08864 0.52299 0.7822 0.0
C1772 C 0.09626 0.49223 0.74358 0.0
C1773 C 0.08854 0.4751 0.75193 0.0
C1774 C 0.09164 0.50874 0.74511 0.0
C1775 C 0.07932 0.5086 0.75506 0.0
C1776 C 0.07058 0.49101 0.76309 0.0
H1777 H 0.06352 0.62306 0.75968 0.0
H1778 H 0.05407 0.58533 0.76157 0.0
C1779 C 0.0751 0.4743 0.76152 0.0
C1780 C 0.07744 0.52789 0.75736 0.0
H1781 H 0.09944 0.57359 0.7746 0.0
C1782 C 0.06711 0.53382 0.7486 0.0
C1783 C 0.08869 0.54209 0.76707 0.0
C1784 C 0.10045 0.53666 0.77657 0.0
C1785 C 0.06865 0.55408 0.74895 0.0
C1786 C 0.08074 0.56865 0.75834 0.0
C1787 C 0.09012 0.56229 0.76745 0.0
C1788 C 0.08622 0.59143 0.75794 0.0
C1789 C 0.05855 0.56032 0.73885 0.0
C1790 C 0.10749 0.60732 0.75553 0.0
C1791 C 0.11295 0.6288 0.75443 0.0
C1792 C 0.09725 0.63489 0.75579 0.0
C1793 C 0.076 0.61895 0.75854 0.0
C1794 C 0.07054 0.59737 0.75958 0.0
H1795 H 0.05176 0.54802 0.7315 0.0
H1796 H 0.0454 0.5624 0.74266 0.0
H1797 H 0.0706 0.57589 0.73476 0.0
H1798 H 0.11983 0.60303 0.75425 0.0
H1799 H 0.1295 0.64059 0.75241 0.0
H1800 H 0.43576 0.46311 0.76034 0.0
H1801 H 0.47398 0.48952 0.76379 0.0
H1802 H 0.4582 0.53989 0.76674 0.0
H1803 H 0.42056 0.51404 0.76319 0.0
H1804 H 0.4977 0.52625 0.74798 0.0
H1805 H 0.49941 0.55154 0.7958 0.0
H1806 H 0.47861 0.52596 0.78997 0.0
H1807 H 0.47713 0.54996 0.7875 0.0
C1808 C 0.44047 0.47976 0.76196 0.0
C1809 C 0.42518 0.48652 0.76144 0.0
C1810 C 0.46225 0.49479 0.76392 0.0
C1811 C 0.46883 0.51658 0.76571 0.0
C1812 C 0.45343 0.5231 0.76564 0.0
H1813 H 0.55409 0.63751 0.7448 0.0
H1814 H 0.52832 0.59965 0.748 0.0
C1815 C 0.4319 0.50829 0.76349 0.0
C1816 C 0.49181 0.53331 0.76622 0.0
H1817 H 0.52548 0.57885 0.78202 0.0
C1818 C 0.50412 0.53739 0.75558 0.0
C1819 C 0.50028 0.54771 0.77617 0.0
C1820 C 0.48823 0.54346 0.78806 0.0
C1821 C 0.52367 0.55665 0.75417 0.0
C1822 C 0.53091 0.57214 0.76361 0.0
C1823 C 0.51976 0.56705 0.77473 0.0
C1824 C 0.54762 0.59472 0.76136 0.0
C1825 C 0.53576 0.56089 0.74229 0.0
C1826 C 0.56695 0.60461 0.76796 0.0
C1827 C 0.58189 0.62642 0.76612 0.0
C1828 C 0.57747 0.6387 0.75783 0.0
C1829 C 0.55803 0.62861 0.75128 0.0
C1830 C 0.54333 0.60689 0.75302 0.0
H1831 H 0.53218 0.54565 0.73772 0.0
H1832 H 0.53077 0.56978 0.73606 0.0
H1833 H 0.55337 0.57079 0.74378 0.0
H1834 H 0.5704 0.59549 0.77455 0.0
H1835 H 0.59668 0.63373 0.77134 0.0
H1836 H 0.59292 0.73987 0.57911 0.0
H1837 H 0.60147 0.77679 0.57573 0.0
H1838 H 0.66886 0.79703 0.57342 0.0
H1839 H 0.66044 0.75982 0.5768 0.0
H1840 H 0.65825 0.82081 0.5902 0.0
H1841 H 0.62171 0.81502 0.54488 0.0
H1842 H 0.60403 0.79388 0.55501 0.0
H1843 H 0.62879 0.79556 0.55024 0.0
C1844 C 0.60958 0.75207 0.57778 0.0
C1845 C 0.62601 0.74687 0.57828 0.0
C1846 C 0.61441 0.77316 0.57572 0.0
C1847 C 0.63575 0.78957 0.57414 0.0
C1848 C 0.65225 0.78451 0.57449 0.0
H1849 H 0.64781 0.91806 0.56639 0.0
H1850 H 0.65732 0.88999 0.56284 0.0
C1851 C 0.64741 0.76327 0.57643 0.0
C1852 C 0.64058 0.81211 0.57328 0.0
H1853 H 0.62492 0.84353 0.55814 0.0
C1854 C 0.6515 0.82604 0.58301 0.0
C1855 C 0.63199 0.81901 0.56383 0.0
C1856 C 0.62116 0.80515 0.55283 0.0
C1857 C 0.65237 0.84592 0.58409 0.0
C1858 C 0.64199 0.85187 0.57525 0.0
C1859 C 0.63274 0.83883 0.56496 0.0
C1860 C 0.63754 0.86956 0.57753 0.0
C1861 C 0.66336 0.8599 0.59503 0.0
C1862 C 0.62318 0.86718 0.58686 0.0
C1863 C 0.61755 0.88288 0.5888 0.0
C1864 C 0.62625 0.90144 0.58148 0.0
C1865 C 0.64092 0.90399 0.57221 0.0
C1866 C 0.64635 0.88801 0.57016 0.0
H1867 H 0.67551 0.85636 0.59897 0.0
H1868 H 0.67133 0.87719 0.59256 0.0
H1869 H 0.65119 0.85677 0.60218 0.0
H1870 H 0.61598 0.8529 0.59253 0.0
H1871 H 0.60631 0.88041 0.59607 0.0
H1872 H 0.18057 0.75049 0.5753 0.0
H1873 H 0.20751 0.78808 0.57259 0.0
H1874 H 0.15792 0.80517 0.57198 0.0
H1875 H 0.13045 0.76709 0.5747 0.0
H1876 H 0.21169 0.81976 0.55377 0.0
H1877 H 0.19968 0.83892 0.60151 0.0
H1878 H 0.19029 0.81158 0.59678 0.0
H1879 H 0.17688 0.8254 0.59145 0.0
C1880 C 0.17525 0.76213 0.57448 0.0
C1881 C 0.15335 0.75581 0.57535 0.0
C1882 C 0.19071 0.78362 0.57286 0.0
C1883 C 0.18471 0.79937 0.57216 0.0
C1884 C 0.16283 0.79319 0.57255 0.0
H1885 H 0.29968 0.93012 0.56838 0.0
H1886 H 0.26196 0.90257 0.5649 0.0
C1887 C 0.14719 0.77148 0.57407 0.0
C1888 C 0.20188 0.82219 0.57199 0.0
H1889 H 0.23153 0.86353 0.59161 0.0
C1890 C 0.21572 0.82972 0.56188 0.0
C1891 C 0.20711 0.83497 0.58264 0.0
C1892 C 0.19283 0.82744 0.59377 0.0
C1893 C 0.23541 0.84907 0.56245 0.0
C1894 C 0.24132 0.86103 0.57341 0.0
C1895 C 0.22682 0.85429 0.58321 0.0
C1896 C 0.26371 0.87821 0.57561 0.0
C1897 C 0.25058 0.85577 0.55172 0.0
C1898 C 0.27698 0.87357 0.58281 0.0
C1899 C 0.2984 0.88907 0.58475 0.0
C1900 C 0.30703 0.90969 0.5796 0.0
C1901 C 0.29356 0.91442 0.57249 0.0
C1902 C 0.27205 0.89874 0.57047 0.0
H1903 H 0.24355 0.84468 0.54384 0.0
H1904 H 0.25481 0.8722 0.54877 0.0
H1905 H 0.2657 0.85627 0.55449 0.0
H1906 H 0.27079 0.85777 0.58682 0.0
H1907 H 0.30817 0.88482 0.59032 0.0
H1908 H 0.31115 0.46516 0.57968 0.0
H1909 H 0.27404 0.45565 0.57605 0.0
H1910 H 0.25667 0.38954 0.57034 0.0
H1911 H 0.29412 0.39891 0.57406 0.0
H1912 H 0.24672 0.43478 0.55503 0.0
H1913 H 0.21621 0.38835 0.59836 0.0
H1914 H 0.24448 0.40684 0.59601 0.0
H1915 H 0.23152 0.38169 0.58803 0.0
C1916 C 0.29955 0.44857 0.57761 0.0
C1917 C 0.30562 0.43275 0.57728 0.0
C1918 C 0.27832 0.44319 0.57549 0.0
C1919 C 0.2626 0.42188 0.57305 0.0
C1920 C 0.26857 0.40606 0.57234 0.0
H1921 H 0.1282 0.39642 0.57493 0.0
H1922 H 0.15702 0.3881 0.57102 0.0
C1923 C 0.28997 0.41146 0.57441 0.0
C1924 C 0.23998 0.41667 0.57171 0.0
H1925 H 0.19353 0.39784 0.58808 0.0
C1926 C 0.23487 0.42621 0.56208 0.0
C1927 C 0.22451 0.40539 0.5809 0.0
C1928 C 0.22931 0.39499 0.59147 0.0
C1929 C 0.21527 0.42604 0.56184 0.0
C1930 C 0.20058 0.41634 0.57156 0.0
C1931 C 0.20489 0.40527 0.58066 0.0
C1932 C 0.1828 0.42081 0.57351 0.0
C1933 C 0.21091 0.43727 0.55154 0.0
C1934 C 0.18783 0.44181 0.57636 0.0
C1935 C 0.17161 0.44656 0.5787 0.0
C1936 C 0.14986 0.43038 0.57823 0.0
C1937 C 0.14477 0.40925 0.57533 0.0
C1938 C 0.16117 0.40446 0.5731 0.0
H1939 H 0.22012 0.43808 0.54321 0.0
H1940 H 0.19353 0.42899 0.54927 0.0
H1941 H 0.21594 0.45396 0.55436 0.0
H1942 H 0.20444 0.45459 0.5769 0.0
H1943 H 0.17622 0.46303 0.58085 0.0
H1944 H 0.02844 0.3479 0.11559 0.0
H1945 H 0.02452 0.36054 0.13572 0.0
H1946 H 0.02079 0.30442 0.15244 0.0
H1947 H 0.0241 0.29149 0.13242 0.0
H1948 H 0.98798 0.30943 0.15913 0.0
H1949 H 0.06369 0.38693 0.16496 0.0
H1950 H 0.04981 0.38522 0.151 0.0
H1951 H 0.06047 0.36758 0.15342 0.0
C1952 C 0.02716 0.33847 0.12359 0.0
C1953 C 0.02645 0.31865 0.12242 0.0
C1954 C 0.02505 0.34578 0.13511 0.0
C1955 C 0.02255 0.33354 0.14563 0.0
C1956 C 0.02271 0.31416 0.14447 0.0
H1957 H 0.01344 0.36266 0.22228 0.0
H1958 H 0.02659 0.35787 0.20246 0.0
C1959 C 0.02459 0.30678 0.13301 0.0
C1960 C 0.01759 0.3396 0.15768 0.0
H1961 H 0.0355 0.37945 0.17916 0.0
C1962 C 0.99847 0.32471 0.16352 0.0
C1963 C 0.03134 0.35945 0.16348 0.0
C1964 C 0.05258 0.37565 0.15797 0.0
C1965 C 0.99257 0.32916 0.17487 0.0
C1966 C 0.00588 0.34931 0.18046 0.0
C1967 C 0.02522 0.36411 0.17478 0.0
C1968 C 0.99962 0.3551 0.19216 0.0
C1969 C 0.97221 0.31209 0.18085 0.0
C1970 C 0.98056 0.35593 0.19285 0.0
C1971 C 0.97298 0.35848 0.2041 0.0
C1972 C 0.98444 0.36052 0.2149 0.0
C1973 C 0.00425 0.36107 0.21412 0.0
C1974 C 0.01177 0.35835 0.20282 0.0
H1975 H 0.96707 0.29587 0.17709 0.0
H1976 H 0.97432 0.31171 0.19088 0.0
H1977 H 0.9591 0.31568 0.17917 0.0
H1978 H 0.97116 0.35388 0.18471 0.0
H1979 H 0.9578 0.35825 0.20436 0.0
H1980 H 0.76634 0.74921 0.1337 0.0
H1981 H 0.75051 0.73198 0.15305 0.0
H1982 H 0.6873 0.70231 0.13692 0.0
H1983 H 0.70326 0.71905 0.11722 0.0
H1984 H 0.72259 0.73367 0.16833 0.0
H1985 H 0.68824 0.65059 0.15016 0.0
H1986 H 0.7064 0.67389 0.14138 0.0
H1987 H 0.67871 0.66674 0.14301 0.0
C1988 C 0.74904 0.73911 0.13423 0.0
C1989 C 0.73607 0.73533 0.12388 0.0
C1990 C 0.73999 0.72929 0.14534 0.0
C1991 C 0.71774 0.71554 0.14643 0.0
C1992 C 0.70456 0.71243 0.13624 0.0
H1993 H 0.67748 0.66761 0.22205 0.0
H1994 H 0.67825 0.68436 0.20237 0.0
C1995 C 0.71368 0.72211 0.12501 0.0
C1996 C 0.7089 0.70409 0.15817 0.0
H1997 H 0.68489 0.65422 0.17118 0.0
C1998 C 0.7141 0.71628 0.16896 0.0
C1999 C 0.69791 0.68139 0.15898 0.0
C2000 C 0.6926 0.66733 0.1478 0.0
C2001 C 0.70972 0.70651 0.18052 0.0
C2002 C 0.69919 0.68383 0.18133 0.0
C2003 C 0.69292 0.6716 0.17054 0.0
C2004 C 0.69695 0.67257 0.19311 0.0
C2005 C 0.71768 0.72067 0.19171 0.0
C2006 C 0.70642 0.65967 0.19433 0.0
C2007 C 0.70565 0.64981 0.20543 0.0
C2008 C 0.69552 0.65273 0.21564 0.0
C2009 C 0.68558 0.66523 0.21438 0.0
C2010 C 0.68612 0.67492 0.20316 0.0
H2011 H 0.72946 0.73761 0.18936 0.0
H2012 H 0.70388 0.72047 0.19637 0.0
H2013 H 0.72538 0.71474 0.19823 0.0
H2014 H 0.71487 0.65759 0.18673 0.0
H2015 H 0.71346 0.64029 0.20608 0.0
H2016 H 0.34112 0.01755 0.1149 0.0
H2017 H 0.35711 0.01875 0.1349 0.0
H2018 H 0.32409 0.04953 0.1503 0.0
H2019 H 0.30761 0.04772 0.13059 0.0
H2020 H 0.38374 0.05184 0.1482 0.0
H2021 H 0.3105 0.00466 0.17557 0.0
H2022 H 0.30991 0.0051 0.1591 0.0
H2023 H 0.30914 0.02594 0.16788 0.0
C2024 C 0.33709 0.02432 0.1226 0.0
C2025 C 0.32299 0.03241 0.12118 0.0
C2026 C 0.34622 0.02499 0.13403 0.0
C2027 C 0.34144 0.03378 0.14421 0.0
C2028 C 0.32748 0.04199 0.14273 0.0
H2029 H 0.41696 0.10306 0.20473 0.0
H2030 H 0.40088 0.08839 0.18497 0.0
C2031 C 0.31821 0.04112 0.13139 0.0
C2032 C 0.35209 0.0359 0.15619 0.0
H2033 H 0.34223 0.03014 0.18687 0.0
C2034 C 0.37463 0.04673 0.15664 0.0
C2035 C 0.34031 0.02876 0.16723 0.0
C2036 C 0.31613 0.01525 0.1674 0.0
C2037 C 0.38567 0.05188 0.16783 0.0
C2038 C 0.37387 0.04668 0.17888 0.0
C2039 C 0.35134 0.03454 0.17842 0.0
C2040 C 0.38443 0.05519 0.19088 0.0
C2041 C 0.40989 0.06308 0.16764 0.0
C2042 C 0.38005 0.04152 0.20098 0.0
C2043 C 0.38898 0.04997 0.21245 0.0
C2044 C 0.40243 0.07224 0.21399 0.0
C2045 C 0.40686 0.08581 0.20385 0.0
C2046 C 0.39781 0.0774 0.19247 0.0
H2047 H 0.41573 0.05851 0.1594 0.0
H2048 H 0.41648 0.08071 0.16729 0.0
H2049 H 0.41631 0.0592 0.17588 0.0
H2050 H 0.36959 0.02433 0.20001 0.0
H2051 H 0.38522 0.03912 0.2201 0.0
H2052 H 0.34989 0.04523 0.88681 0.0
H2053 H 0.36401 0.04436 0.86654 0.0
H2054 H 0.29992 0.01545 0.85165 0.0
H2055 H 0.28596 0.01699 0.87161 0.0
H2056 H 0.35609 0.01074 0.85362 0.0
H2057 H 0.33146 0.05845 0.8257 0.0
H2058 H 0.33071 0.05865 0.84218 0.0
H2059 H 0.30857 0.03794 0.83362 0.0
C2060 C 0.33892 0.03914 0.87914 0.0
C2061 C 0.31682 0.03126 0.88082 0.0
C2062 C 0.34699 0.03861 0.86756 0.0
C2063 C 0.33311 0.03019 0.85747 0.0
C2064 C 0.31111 0.02267 0.85915 0.0
H2065 H 0.33552 0.95647 0.7979 0.0
H2066 H 0.33437 0.97222 0.81738 0.0
C2067 C 0.3031 0.02339 0.87064 0.0
C2068 C 0.34101 0.02719 0.84547 0.0
H2069 H 0.33591 0.03142 0.81473 0.0
C2070 C 0.35204 0.01565 0.84513 0.0
C2071 C 0.33626 0.03398 0.83434 0.0
C2072 C 0.32632 0.04816 0.834 0.0
C2073 C 0.35712 0.00951 0.834 0.0
C2074 C 0.35037 0.01441 0.82291 0.0
C2075 C 0.34069 0.02722 0.82322 0.0
C2076 C 0.3518 0.00514 0.81102 0.0
C2077 C 0.36947 0.99763 0.83431 0.0
C2078 C 0.36129 0.0183 0.80076 0.0
C2079 C 0.36161 0.00924 0.78947 0.0
C2080 C 0.35245 0.98686 0.78826 0.0
C2081 C 0.34295 0.97378 0.79854 0.0
C2082 C 0.34245 0.9828 0.80974 0.0
H2083 H 0.38007 0.00222 0.84247 0.0
H2084 H 0.358 0.98011 0.8349 0.0
H2085 H 0.37949 0.00083 0.826 0.0
H2086 H 0.36842 0.03557 0.80147 0.0
H2087 H 0.36899 0.01973 0.7817 0.0
H2088 H 0.09488 0.4114 0.79778 0.0
H2089 H 0.07879 0.39507 0.81724 0.0
H2090 H 0.01617 0.36206 0.80036 0.0
H2091 H 0.0325 0.37778 0.78053 0.0
H2092 H 0.05044 0.39689 0.83156 0.0
H2093 H 0.01756 0.31252 0.81597 0.0
H2094 H 0.03538 0.33514 0.80663 0.0
H2095 H 0.0075 0.32748 0.80799 0.0
C2096 C 0.07766 0.40069 0.79816 0.0
C2097 C 0.06499 0.39574 0.78757 0.0
C2098 C 0.06845 0.3914 0.80934 0.0
C2099 C 0.04628 0.37705 0.8103 0.0
C2100 C 0.03338 0.37264 0.79982 0.0
H2101 H 0.00652 0.33553 0.88705 0.0
H2102 H 0.00699 0.35072 0.86686 0.0
C2103 C 0.0427 0.38174 0.78851 0.0
C2104 C 0.03729 0.36651 0.82227 0.0
H2105 H 0.01349 0.31784 0.83667 0.0
C2106 C 0.04215 0.37958 0.83268 0.0
C2107 C 0.0265 0.34391 0.82373 0.0
C2108 C 0.02155 0.3289 0.81302 0.0
C2109 C 0.03776 0.37084 0.84452 0.0
C2110 C 0.02744 0.34826 0.84599 0.0
C2111 C 0.02138 0.33513 0.83554 0.0
C2112 C 0.02538 0.33804 0.85813 0.0
C2113 C 0.04553 0.38597 0.85529 0.0
C2114 C 0.03475 0.32515 0.85985 0.0
C2115 C 0.03407 0.31613 0.87123 0.0
C2116 C 0.02419 0.31993 0.88124 0.0
C2117 C 0.01442 0.3325 0.87952 0.0
C2118 C 0.01481 0.34129 0.86801 0.0
H2119 H 0.05724 0.40272 0.85254 0.0
H2120 H 0.03164 0.38607 0.85964 0.0
H2121 H 0.05327 0.38075 0.86221 0.0
H2122 H 0.04303 0.32239 0.85242 0.0
H2123 H 0.04178 0.30656 0.87222 0.0
H2124 H 0.63394 0.69795 0.8004 0.0
H2125 H 0.65129 0.70189 0.82013 0.0
H2126 H 0.70348 0.69911 0.80249 0.0
H2127 H 0.68601 0.6949 0.78257 0.0
H2128 H 0.6889 0.67606 0.8261 0.0
H2129 H 0.70611 0.76046 0.82773 0.0
H2130 H 0.67839 0.74088 0.82511 0.0
H2131 H 0.69824 0.74477 0.81386 0.0
C2132 C 0.64897 0.69789 0.80069 0.0
C2133 C 0.65875 0.69639 0.7899 0.0
C2134 C 0.65886 0.70015 0.81199 0.0
C2135 C 0.67881 0.70115 0.81274 0.0
C2136 C 0.68809 0.69845 0.80208 0.0
H2137 H 0.76638 0.76277 0.87287 0.0
H2138 H 0.75038 0.74995 0.85279 0.0
C2139 C 0.67812 0.69607 0.79072 0.0
C2140 C 0.69057 0.70671 0.82451 0.0
H2141 H 0.71295 0.74671 0.84575 0.0
C2142 C 0.69429 0.69152 0.8304 0.0
C2143 C 0.69779 0.727 0.82999 0.0
C2144 C 0.69514 0.74432 0.82382 0.0
C2145 C 0.70467 0.69598 0.84182 0.0
C2146 C 0.71122 0.71603 0.84749 0.0
C2147 C 0.70782 0.7313 0.84144 0.0
C2148 C 0.72191 0.72191 0.85962 0.0
C2149 C 0.70877 0.67934 0.84763 0.0
C2150 C 0.7114 0.71022 0.87016 0.0
C2151 C 0.72063 0.71749 0.88172 0.0
C2152 C 0.74036 0.7367 0.8829 0.0
C2153 C 0.7511 0.74797 0.87229 0.0
C2154 C 0.74199 0.74065 0.86079 0.0
H2155 H 0.70806 0.66755 0.84081 0.0
H2156 H 0.72471 0.687 0.85219 0.0
H2157 H 0.69628 0.67042 0.85464 0.0
H2158 H 0.6957 0.69596 0.86952 0.0
H2159 H 0.71193 0.70852 0.88973 0.0
H2160 H 0.02514 0.695 0.88968 0.0
H2161 H 0.02761 0.67811 0.87062 0.0
H2162 H 0.0279 0.72914 0.84979 0.0
H2163 H 0.0256 0.74605 0.86859 0.0
H2164 H 0.00115 0.66922 0.84465 0.0
H2165 H 0.08863 0.72886 0.84604 0.0
H2166 H 0.07213 0.72029 0.85961 0.0
H2167 H 0.07064 0.73885 0.84925 0.0
C2168 C 0.02523 0.70229 0.88101 0.0
C2169 C 0.02547 0.72197 0.88061 0.0
C2170 C 0.0266 0.69264 0.87016 0.0
C2171 C 0.02801 0.70249 0.85886 0.0
C2172 C 0.02682 0.72134 0.85844 0.0
H2173 H 0.03782 0.68468 0.78215 0.0
H2174 H 0.02413 0.68451 0.80268 0.0
C2175 C 0.02562 0.73102 0.86921 0.0
C2176 C 0.03349 0.695 0.84758 0.0
H2177 H 0.0749 0.70981 0.82762 0.0
C2178 C 0.01731 0.6778 0.84096 0.0
C2179 C 0.05459 0.7062 0.84288 0.0
C2180 C 0.07261 0.72451 0.84981 0.0
C2181 C 0.02166 0.67195 0.82949 0.0
C2182 C 0.04259 0.6839 0.82451 0.0
C2183 C 0.05884 0.70062 0.8314 0.0
C2184 C 0.04824 0.68013 0.81205 0.0
C2185 C 0.00383 0.65309 0.82283 0.0
C2186 C 0.06623 0.67761 0.81044 0.0
C2187 C 0.07431 0.67821 0.79877 0.0
C2188 C 0.06444 0.68112 0.78845 0.0
C2189 C 0.04564 0.68228 0.78995 0.0
C2190 C 0.03772 0.68203 0.80169 0.0
H2191 H 0.99137 0.64174 0.82927 0.0
H2192 H 0.99597 0.65901 0.81643 0.0
H2193 H 0.01009 0.64426 0.81749 0.0
H2194 H 0.07462 0.67613 0.81827 0.0
H2195 H 0.08874 0.6771 0.79788 0.0
H2196 H 0.36674 0.37691 0.78139 0.0
H2197 H 0.3618 0.35789 0.80084 0.0
H2198 H 0.35496 0.40694 0.81954 0.0
H2199 H 0.35965 0.42584 0.80027 0.0
H2200 H 0.38342 0.37172 0.82504 0.0
H2201 H 0.2975 0.34962 0.82535 0.0
H2202 H 0.31397 0.35916 0.81181 0.0
H2203 H 0.31604 0.37781 0.8234 0.0
C2204 C 0.36445 0.38376 0.78968 0.0
C2205 C 0.36332 0.40273 0.78927 0.0
C2206 C 0.36168 0.37291 0.80077 0.0
C2207 C 0.35774 0.3809 0.81158 0.0
C2208 C 0.35771 0.40038 0.81127 0.0
H2209 H 0.34741 0.34555 0.88799 0.0
H2210 H 0.36135 0.36176 0.86793 0.0
C2211 C 0.3604 0.41115 0.80024 0.0
C2212 C 0.35204 0.36826 0.82304 0.0
H2213 H 0.31108 0.34283 0.84346 0.0
C2214 C 0.36758 0.36523 0.82906 0.0
C2215 C 0.33128 0.35961 0.82816 0.0
C2216 C 0.31364 0.3615 0.82181 0.0
C2217 C 0.36301 0.35422 0.84028 0.0
C2218 C 0.34247 0.3463 0.84561 0.0
C2219 C 0.32686 0.34896 0.83941 0.0
C2220 C 0.33649 0.33522 0.85763 0.0
C2221 C 0.3801 0.35101 0.84625 0.0
C2222 C 0.31806 0.31485 0.85854 0.0
C2223 C 0.30994 0.30576 0.86995 0.0
C2224 C 0.32012 0.3168 0.88072 0.0
C2225 C 0.33932 0.33661 0.87984 0.0
C2226 C 0.34735 0.34584 0.86837 0.0
H2227 H 0.39239 0.35249 0.83956 0.0
H2228 H 0.38835 0.36349 0.85337 0.0
H2229 H 0.37298 0.33501 0.85071 0.0
H2230 H 0.30942 0.30634 0.8504 0.0
H2231 H 0.29518 0.29041 0.87033 0.0
H2232 H 0.70396 0.02594 0.89103 0.0
H2233 H 0.68484 0.02069 0.87158 0.0
H2234 H 0.73675 0.01959 0.85249 0.0
H2235 H 0.75571 0.02451 0.87176 0.0
H2236 H 0.6964 0.04296 0.84795 0.0
H2237 H 0.68316 0.96002 0.84584 0.0
H2238 H 0.69172 0.97598 0.8596 0.0
H2239 H 0.71079 0.98044 0.84772 0.0
C2240 C 0.71142 0.02492 0.88265 0.0
C2241 C 0.73119 0.02533 0.88293 0.0
C2242 C 0.7005 0.02194 0.87157 0.0
C2243 C 0.70924 0.01937 0.86065 0.0
C2244 C 0.72958 0.02116 0.86085 0.0
H2245 H 0.67159 0.01084 0.78462 0.0
H2246 H 0.68813 0.0237 0.80472 0.0
C2247 C 0.74039 0.024 0.87187 0.0
C2248 C 0.69659 0.01316 0.84919 0.0
H2249 H 0.67456 0.97295 0.82806 0.0
C2250 C 0.69147 0.02762 0.84361 0.0
C2251 C 0.68993 0.993 0.84366 0.0
C2252 C 0.69398 0.97635 0.84955 0.0
C2253 C 0.68031 0.02262 0.83243 0.0
C2254 C 0.67444 0.00279 0.82666 0.0
C2255 C 0.67917 0.98821 0.83243 0.0
C2256 C 0.66333 0.99655 0.81466 0.0
C2257 C 0.67472 0.03847 0.82698 0.0
C2258 C 0.64397 0.97702 0.81353 0.0
C2259 C 0.63471 0.96951 0.80208 0.0
C2260 C 0.64459 0.98141 0.79148 0.0
C2261 C 0.66356 0.00137 0.79263 0.0
C2262 C 0.67294 0.00881 0.80412 0.0
H2263 H 0.67475 0.04966 0.83399 0.0
H2264 H 0.68685 0.04819 0.81995 0.0
H2265 H 0.65869 0.0301 0.82253 0.0
H2266 H 0.63628 0.96726 0.82152 0.0
H2267 H 0.62003 0.95412 0.80151 0.0
H2268 H 0.70068 0.00618 0.11688 0.0
H2269 H 0.68382 0.00525 0.13657 0.0
H2270 H 0.74655 0.04333 0.15276 0.0
H2271 H 0.76331 0.04355 0.13344 0.0
H2272 H 0.72061 0.01261 0.16798 0.0
H2273 H 0.67879 0.05444 0.15002 0.0
H2274 H 0.67154 0.02918 0.14294 0.0
H2275 H 0.6983 0.05158 0.14112 0.0
C2276 C 0.71081 0.0142 0.12468 0.0
C2277 C 0.73332 0.02504 0.12358 0.0
C2278 C 0.70117 0.01378 0.13591 0.0
C2279 C 0.7139 0.02456 0.14612 0.0
C2280 C 0.73634 0.03488 0.14505 0.0
H2281 H 0.70583 0.09354 0.20492 0.0
H2282 H 0.70666 0.07705 0.18572 0.0
C2283 C 0.74593 0.03505 0.13395 0.0
C2284 C 0.70438 0.02602 0.1579 0.0
H2285 H 0.67678 0.04809 0.17106 0.0
C2286 C 0.71077 0.02011 0.16866 0.0
C2287 C 0.69155 0.03583 0.15878 0.0
C2288 C 0.68474 0.0433 0.14763 0.0
C2289 C 0.70596 0.02501 0.18025 0.0
C2290 C 0.69374 0.03546 0.18112 0.0
C2291 C 0.68612 0.04006 0.17037 0.0
C2292 C 0.69139 0.04461 0.19283 0.0
C2293 C 0.71532 0.02028 0.19138 0.0
C2294 C 0.68214 0.03186 0.20327 0.0
C2295 C 0.68193 0.04138 0.21442 0.0
C2296 C 0.69065 0.06375 0.21524 0.0
C2297 C 0.69901 0.07627 0.20465 0.0
C2298 C 0.69944 0.06683 0.19361 0.0
H2299 H 0.72784 0.01616 0.18893 0.0
H2300 H 0.72256 0.03429 0.19766 0.0
H2301 H 0.70236 0.00642 0.19636 0.0
H2302 H 0.67536 0.01461 0.20284 0.0
H2303 H 0.67523 0.0313 0.22241 0.0
H2304 H 0.01467 0.74986 0.13173 0.0
H2305 H 0.01493 0.73372 0.15119 0.0
H2306 H 0.04791 0.70387 0.13457 0.0
H2307 H 0.04704 0.71953 0.11478 0.0
H2308 H 0.01626 0.67592 0.14815 0.0
H2309 H 0.06108 0.74908 0.1758 0.0
H2310 H 0.03906 0.74961 0.16851 0.0
H2311 H 0.06013 0.74999 0.15935 0.0
C2312 C 0.0222 0.74005 0.1322 0.0
C2313 C 0.03091 0.73603 0.12171 0.0
C2314 C 0.02254 0.73099 0.1434 0.0
C2315 C 0.03197 0.71804 0.14447 0.0
C2316 C 0.04077 0.71402 0.13401 0.0
H2317 H 0.0243 0.67393 0.22054 0.0
H2318 H 0.04093 0.68965 0.20076 0.0
C2319 C 0.04024 0.72294 0.12271 0.0
C2320 C 0.03087 0.70741 0.15632 0.0
H2321 H 0.03577 0.71681 0.18703 0.0
C2322 C 0.02098 0.68492 0.15663 0.0
C2323 C 0.03758 0.71906 0.16742 0.0
C2324 C 0.05028 0.74328 0.16773 0.0
C2325 C 0.01599 0.67373 0.16776 0.0
C2326 C 0.02037 0.6853 0.17886 0.0
C2327 C 0.03194 0.70785 0.17855 0.0
C2328 C 0.01099 0.67444 0.19068 0.0
C2329 C 0.00561 0.64958 0.16746 0.0
C2330 C 0.9887 0.66081 0.19162 0.0
C2331 C 0.97927 0.65176 0.2028 0.0
C2332 C 0.99185 0.65641 0.21341 0.0
C2333 C 0.01421 0.67 0.21252 0.0
C2334 C 0.02371 0.67898 0.20123 0.0
H2335 H 0.0112 0.64428 0.15941 0.0
H2336 H 0.00915 0.64326 0.17586 0.0
H2337 H 0.98795 0.64239 0.16661 0.0
H2338 H 0.97841 0.65763 0.18374 0.0
H2339 H 0.96198 0.64153 0.20315 0.0
H2340 H 0.30722 0.29586 0.13093 0.0
H2341 H 0.32281 0.31217 0.15048 0.0
H2342 H 0.35451 0.3749 0.13372 0.0
H2343 H 0.33942 0.35841 0.11383 0.0
H2344 H 0.38156 0.37066 0.14764 0.0
H2345 H 0.30815 0.34378 0.17479 0.0
H2346 H 0.30715 0.32088 0.16767 0.0
H2347 H 0.30745 0.34174 0.15835 0.0
C2348 C 0.31729 0.31317 0.13138 0.0
C2349 C 0.32203 0.32585 0.12082 0.0
C2350 C 0.32604 0.32252 0.14264 0.0
C2351 C 0.3394 0.34486 0.1437 0.0
C2352 C 0.34405 0.35765 0.13317 0.0
H2353 H 0.38254 0.38007 0.22008 0.0
H2354 H 0.36723 0.38147 0.20024 0.0
C2355 C 0.33544 0.34823 0.12182 0.0
C2356 C 0.34988 0.35427 0.15561 0.0
H2357 H 0.33994 0.34975 0.18628 0.0
C2358 C 0.3724 0.3665 0.15607 0.0
C2359 C 0.33807 0.34951 0.16665 0.0
C2360 C 0.31386 0.33848 0.16681 0.0
C2361 C 0.3834 0.37243 0.16726 0.0
C2362 C 0.3716 0.36533 0.1783 0.0
C2363 C 0.34907 0.35479 0.17785 0.0
C2364 C 0.38217 0.36644 0.19018 0.0
C2365 C 0.40759 0.38583 0.1671 0.0
C2366 C 0.39549 0.35743 0.19116 0.0
C2367 C 0.40432 0.35678 0.20237 0.0
C2368 C 0.39974 0.36477 0.21299 0.0
C2369 C 0.38642 0.37386 0.21206 0.0
C2370 C 0.37768 0.37466 0.20074 0.0
H2371 H 0.4132 0.39683 0.15911 0.0
H2372 H 0.41391 0.39555 0.17555 0.0
H2373 H 0.41449 0.3751 0.16625 0.0
H2374 H 0.39862 0.35027 0.18329 0.0
H2375 H 0.41433 0.34946 0.20275 0.0
H2376 H 0.68753 0.69663 0.55645 0.0
H2377 H 0.70187 0.69385 0.53661 0.0
H2378 H 0.64853 0.69369 0.51844 0.0
H2379 H 0.63394 0.69592 0.53813 0.0
H2380 H 0.6523 0.65937 0.51243 0.0
H2381 H 0.73142 0.73383 0.50767 0.0
H2382 H 0.72788 0.71957 0.52174 0.0
H2383 H 0.71142 0.73132 0.51858 0.0
C2384 C 0.67916 0.69649 0.5482 0.0
C2385 C 0.65953 0.6963 0.54883 0.0
C2386 C 0.68742 0.69501 0.53686 0.0
C2387 C 0.67632 0.69368 0.52602 0.0
C2388 C 0.65735 0.69469 0.52667 0.0
H2389 H 0.70292 0.68395 0.44955 0.0
H2390 H 0.70023 0.69762 0.46964 0.0
C2391 C 0.64902 0.69593 0.53794 0.0
C2392 C 0.68277 0.68857 0.51417 0.0
H2393 H 0.72323 0.70605 0.49312 0.0
C2394 C 0.6678 0.66965 0.50821 0.0
C2395 C 0.70294 0.70203 0.50863 0.0
C2396 C 0.71931 0.72293 0.51441 0.0
C2397 C 0.67239 0.66376 0.49691 0.0
C2398 C 0.69275 0.67688 0.4915 0.0
C2399 C 0.70773 0.69594 0.49736 0.0
C2400 C 0.69835 0.67083 0.4797 0.0
C2401 C 0.65524 0.64365 0.49075 0.0
C2402 C 0.69907 0.65174 0.4788 0.0
C2403 C 0.70041 0.64384 0.46739 0.0
C2404 C 0.70128 0.65501 0.45667 0.0
C2405 C 0.70222 0.67498 0.45765 0.0
C2406 C 0.70071 0.68281 0.46911 0.0
H2407 H 0.63904 0.63835 0.49459 0.0
H2408 H 0.65481 0.64619 0.48077 0.0
H2409 H 0.65884 0.63047 0.49212 0.0
H2410 H 0.69758 0.64242 0.48689 0.0
H2411 H 0.6999 0.62853 0.46694 0.0
H2412 H 0.37231 0.04524 0.44797 0.0
H2413 H 0.3596 0.0293 0.46823 0.0
H2414 H 0.41556 0.08228 0.48469 0.0
H2415 H 0.42855 0.09792 0.46456 0.0
H2416 H 0.4107 0.04445 0.49157 0.0
H2417 H 0.33324 0.04287 0.49732 0.0
H2418 H 0.33502 0.03053 0.48344 0.0
H2419 H 0.3526 0.05886 0.48575 0.0
C2420 C 0.38168 0.05365 0.45594 0.0
C2421 C 0.4015 0.07275 0.45467 0.0
C2422 C 0.37433 0.0446 0.46752 0.0
C2423 C 0.38653 0.05468 0.47801 0.0
C2424 C 0.40586 0.07421 0.47675 0.0
H2425 H 0.36029 0.01935 0.5551 0.0
H2426 H 0.3641 0.03654 0.53512 0.0
C2427 C 0.41328 0.08312 0.46522 0.0
C2428 C 0.38057 0.04396 0.49013 0.0
H2429 H 0.34099 0.02275 0.51179 0.0
C2430 C 0.39549 0.03983 0.496 0.0
C2431 C 0.36079 0.03807 0.49597 0.0
C2432 C 0.34455 0.04298 0.49037 0.0
C2433 C 0.39116 0.02979 0.50744 0.0
C2434 C 0.37111 0.0232 0.51309 0.0
C2435 C 0.35626 0.02762 0.50737 0.0
C2436 C 0.36551 0.01151 0.52488 0.0
C2437 C 0.40822 0.0265 0.51344 0.0
C2438 C 0.36422 0.99143 0.52566 0.0
C2439 C 0.36223 0.98173 0.53698 0.0
C2440 C 0.36124 0.9918 0.54778 0.0
C2441 C 0.36106 0.01124 0.54694 0.0
C2442 C 0.36322 0.02105 0.53555 0.0
H2443 H 0.42438 0.0372 0.50949 0.0
H2444 H 0.40891 0.0295 0.52342 0.0
H2445 H 0.40432 0.00963 0.51203 0.0
H2446 H 0.3656 0.98364 0.51751 0.0
H2447 H 0.36215 0.96662 0.5373 0.0
H2448 H 0.00746 0.35266 0.44881 0.0
H2449 H 0.02441 0.35642 0.46882 0.0
H2450 H 0.97127 0.35787 0.4862 0.0
H2451 H 0.95463 0.35466 0.46633 0.0
H2452 H 0.00909 0.39188 0.49238 0.0
H2453 H 0.01346 0.31747 0.49819 0.0
H2454 H 0.02466 0.33131 0.48408 0.0
H2455 H 0.99639 0.31987 0.48694 0.0
C2456 C 0.99922 0.35333 0.45694 0.0
C2457 C 0.9798 0.35353 0.456 0.0
C2458 C 0.00885 0.35536 0.46838 0.0
C2459 C 0.99904 0.35728 0.47904 0.0
C2460 C 0.97915 0.35641 0.47811 0.0
H2461 H 0.03864 0.37041 0.55558 0.0
H2462 H 0.02046 0.35586 0.53596 0.0
C2463 C 0.96966 0.3546 0.46673 0.0
C2464 C 0.01041 0.36266 0.49098 0.0
H2465 H 0.03366 0.34594 0.51233 0.0
C2466 C 0.01433 0.38173 0.49675 0.0
C2467 C 0.01713 0.34937 0.49674 0.0
C2468 C 0.01254 0.32825 0.49124 0.0
C2469 C 0.02496 0.38803 0.50801 0.0
C2470 C 0.03235 0.37516 0.51358 0.0
C2471 C 0.02815 0.35587 0.50796 0.0
C2472 C 0.04469 0.38193 0.52516 0.0
C2473 C 0.02807 0.40839 0.5139 0.0
C2474 C 0.06465 0.40092 0.52549 0.0
C2475 C 0.07493 0.40929 0.53662 0.0
C2476 C 0.06554 0.39872 0.54764 0.0
C2477 C 0.04623 0.37893 0.54724 0.0
C2478 C 0.03585 0.37059 0.53605 0.0
H2479 H 0.01694 0.41342 0.51007 0.0
H2480 H 0.02552 0.40632 0.52392 0.0
H2481 H 0.04476 0.42155 0.51225 0.0
H2482 H 0.07189 0.40974 0.51716 0.0
H2483 H 0.08991 0.42445 0.53659 0.0
H2484 H 0.37852 0.43526 0.5391 0.0
H2485 H 0.37951 0.42018 0.51939 0.0
H2486 H 0.34578 0.35632 0.53465 0.0
H2487 H 0.34538 0.37151 0.55469 0.0
H2488 H 0.37824 0.361 0.52129 0.0
H2489 H 0.3343 0.39098 0.49404 0.0
H2490 H 0.35619 0.41294 0.5018 0.0
H2491 H 0.33469 0.39184 0.51051 0.0
C2492 C 0.37109 0.41797 0.53828 0.0
C2493 C 0.36177 0.40457 0.54847 0.0
C2494 C 0.37149 0.40934 0.52693 0.0
C2495 C 0.36222 0.38705 0.5254 0.0
C2496 C 0.35284 0.37356 0.53556 0.0
H2497 H 0.36666 0.34974 0.4491 0.0
H2498 H 0.35185 0.35059 0.46919 0.0
C2499 C 0.35261 0.38224 0.54701 0.0
C2500 C 0.36382 0.37826 0.51338 0.0
H2501 H 0.35896 0.38349 0.48272 0.0
C2502 C 0.37363 0.36558 0.51287 0.0
C2503 C 0.35732 0.38365 0.50235 0.0
C2504 C 0.34481 0.39538 0.50222 0.0
C2505 C 0.37847 0.35948 0.50165 0.0
C2506 C 0.37402 0.36684 0.49063 0.0
C2507 C 0.36281 0.37818 0.49114 0.0
C2508 C 0.38242 0.36458 0.47861 0.0
C2509 C 0.38853 0.34541 0.50178 0.0
C2510 C 0.40449 0.37225 0.47717 0.0
C2511 C 0.41288 0.37156 0.4658 0.0
C2512 C 0.39949 0.36358 0.45549 0.0
C2513 C 0.37737 0.35591 0.45688 0.0
C2514 C 0.36891 0.3564 0.46835 0.0
H2515 H 0.38321 0.33469 0.50989 0.0
H2516 H 0.38444 0.33535 0.49343 0.0
H2517 H 0.40626 0.35569 0.50234 0.0
H2518 H 0.41541 0.37934 0.4848 0.0
H2519 H 0.43003 0.37783 0.46505 0.0
H2520 H 0.61947 0.96741 0.53953 0.0
H2521 H 0.63418 0.98283 0.51963 0.0
H2522 H 0.69831 0.01371 0.53459 0.0
H2523 H 0.68349 0.99887 0.55478 0.0
H2524 H 0.69338 0.04108 0.52146 0.0
H2525 H 0.66318 0.96746 0.49395 0.0
H2526 H 0.6412 0.96723 0.50179 0.0
H2527 H 0.66237 0.9668 0.51042 0.0
C2528 C 0.63674 0.97726 0.53858 0.0
C2529 C 0.65033 0.98188 0.54873 0.0
C2530 C 0.64517 0.98592 0.52714 0.0
C2531 C 0.66742 0.99903 0.52549 0.0
C2532 C 0.68109 0.00348 0.53559 0.0
H2533 H 0.70298 0.0425 0.44921 0.0
H2534 H 0.70301 0.02644 0.46903 0.0
C2535 C 0.67262 0.995 0.54712 0.0
C2536 C 0.67601 0.00947 0.51346 0.0
H2537 H 0.67019 0.9997 0.48278 0.0
C2538 C 0.68866 0.03196 0.51302 0.0
C2539 C 0.67044 0.99768 0.5024 0.0
C2540 C 0.65877 0.97344 0.50218 0.0
C2541 C 0.69449 0.043 0.50184 0.0
C2542 C 0.68689 0.0313 0.49081 0.0
C2543 C 0.67566 0.00875 0.49122 0.0
C2544 C 0.68855 0.04209 0.47894 0.0
C2545 C 0.70847 0.06714 0.50202 0.0
C2546 C 0.68031 0.05607 0.47789 0.0
C2547 C 0.68045 0.06534 0.46668 0.0
C2548 C 0.68849 0.06057 0.45616 0.0
C2549 C 0.69676 0.04655 0.45717 0.0
C2550 C 0.69677 0.03737 0.46847 0.0
H2551 H 0.7194 0.07251 0.51004 0.0
H2552 H 0.71829 0.07323 0.49359 0.0
H2553 H 0.69813 0.0745 0.50279 0.0
H2554 H 0.67321 0.05943 0.4857 0.0
H2555 H 0.67375 0.07589 0.46623 0.0
H2556 H 0.97229 0.62377 0.465 0.0
H2557 H 0.98911 0.64051 0.48424 0.0
H2558 H 0.02062 0.70273 0.46688 0.0
H2559 H 0.00426 0.6858 0.44728 0.0
H2560 H 0.04823 0.69813 0.48023 0.0
H2561 H 0.97673 0.67346 0.50882 0.0
H2562 H 0.9749 0.65015 0.50173 0.0
H2563 H 0.97501 0.67092 0.4924 0.0
C2564 C 0.98254 0.64107 0.46525 0.0
C2565 C 0.98688 0.65346 0.45459 0.0
C2566 C 0.99202 0.65067 0.47634 0.0
C2567 C 0.00575 0.67298 0.47714 0.0
C2568 C 0.0099 0.68551 0.46654 0.0
H2569 H 0.05297 0.7129 0.55232 0.0
H2570 H 0.03649 0.71209 0.53254 0.0
C2571 C 0.00054 0.67583 0.45535 0.0
C2572 C 0.01707 0.6826 0.48883 0.0
H2573 H 0.00904 0.67959 0.51966 0.0
C2574 C 0.03962 0.69447 0.48883 0.0
C2575 C 0.00597 0.67843 0.50008 0.0
C2576 C 0.98181 0.66776 0.50073 0.0
C2577 C 0.05133 0.70079 0.4998 0.0
C2578 C 0.0402 0.69444 0.51108 0.0
C2579 C 0.01766 0.68407 0.51105 0.0
C2580 C 0.05146 0.69669 0.52287 0.0
C2581 C 0.07551 0.71397 0.49913 0.0
C2582 C 0.06525 0.68822 0.52408 0.0
C2583 C 0.07484 0.68892 0.53528 0.0
C2584 C 0.0705 0.69767 0.54564 0.0
C2585 C 0.05665 0.7061 0.54449 0.0
C2586 C 0.04724 0.70564 0.53319 0.0
H2587 H 0.08072 0.72434 0.49087 0.0
H2588 H 0.08241 0.72432 0.50732 0.0
H2589 H 0.0822 0.70304 0.49844 0.0
H2590 H 0.06819 0.68052 0.51641 0.0
H2591 H 0.08522 0.68205 0.53587 0.0
H2592 H 0.05198 0.29069 0.04419 0.0
H2593 H 0.05202 0.30257 0.0234 0.0
H2594 H 0.01952 0.33607 0.03542 0.0
H2595 H 0.01921 0.32394 0.05643 0.0
H2596 H 0.99875 0.30869 0.01656 0.0
H2597 H 0.08435 0.35814 0.00457 0.0
H2598 H 0.0794 0.33344 0.01144 0.0
H2599 H 0.07526 0.3523 0.02022 0.0
C2600 C 0.04527 0.301 0.04251 0.0
C2601 C 0.03554 0.3063 0.05198 0.0
C2602 C 0.04547 0.30796 0.03059 0.0
C2603 C 0.03605 0.32049 0.02784 0.0
C2604 C 0.02709 0.3266 0.03736 0.0
H2605 H 0.03885 0.33482 0.9477 0.0
H2606 H 0.03994 0.34688 0.96888 0.0
C2607 C 0.027 0.31973 0.04936 0.0
C2608 C 0.03322 0.32449 0.01485 0.0
H2609 H 0.06014 0.33802 0.98769 0.0
C2610 C 0.01223 0.3157 0.01028 0.0
C2611 C 0.05074 0.33399 0.00662 0.0
C2612 C 0.0737 0.34521 0.01101 0.0
C2613 C 0.00824 0.31421 0.99766 0.0
C2614 C 0.02565 0.32142 0.98942 0.0
C2615 C 0.04673 0.33219 0.99399 0.0
C2616 C 0.02234 0.31476 0.97639 0.0
C2617 C 0.98531 0.30398 0.99328 0.0
C2618 C 0.01193 0.29279 0.97359 0.0
C2619 C 0.01141 0.28594 0.96163 0.0
C2620 C 0.02131 0.30089 0.95214 0.0
C2621 C 0.03089 0.32294 0.95481 0.0
C2622 C 0.0316 0.32983 0.96689 0.0
H2623 H 0.97523 0.30683 0.99986 0.0
H2624 H 0.98427 0.31025 0.98419 0.0
H2625 H 0.97854 0.28635 0.99254 0.0
H2626 H 0.00511 0.28085 0.98076 0.0
H2627 H 0.00392 0.26885 0.95987 0.0
H2628 H 0.72467 0.73524 0.94879 0.0
H2629 H 0.7115 0.72409 0.96979 0.0
H2630 H 0.77688 0.75321 0.98264 0.0
H2631 H 0.78999 0.76403 0.96193 0.0
H2632 H 0.74878 0.71361 0.99401 0.0
H2633 H 0.71711 0.77038 0.99437 0.0
H2634 H 0.70739 0.74968 0.9829 0.0
H2635 H 0.73479 0.77111 0.98245 0.0
C2636 C 0.73616 0.7388 0.95608 0.0
C2637 C 0.75837 0.75073 0.95373 0.0
C2638 C 0.72863 0.73257 0.96807 0.0
C2639 C 0.74323 0.7381 0.9778 0.0
C2640 C 0.76531 0.74879 0.97529 0.0
H2641 H 0.77515 0.78849 0.04539 0.0
H2642 H 0.76267 0.77715 0.02463 0.0
C2643 C 0.77279 0.75507 0.96343 0.0
C2644 C 0.73629 0.73481 0.99076 0.0
H2645 H 0.72205 0.75828 0.01322 0.0
C2646 C 0.7423 0.72282 0.99823 0.0
C2647 C 0.72791 0.74695 0.99621 0.0
C2648 C 0.72146 0.76037 0.98864 0.0
C2649 C 0.74192 0.72409 0.01103 0.0
C2650 C 0.73504 0.73749 0.01647 0.0
C2651 C 0.72726 0.74799 0.009 0.0
C2652 C 0.73991 0.74423 0.02944 0.0
C2653 C 0.7507 0.71264 0.01858 0.0
C2654 C 0.73078 0.72962 0.03915 0.0
C2655 C 0.73797 0.73609 0.05116 0.0
C2656 C 0.75445 0.75725 0.05358 0.0
C2657 C 0.76262 0.77202 0.04387 0.0
C2658 C 0.75541 0.76559 0.03197 0.0
H2659 H 0.75736 0.7046 0.01285 0.0
H2660 H 0.76355 0.72416 0.02477 0.0
H2661 H 0.73767 0.70025 0.02432 0.0
H2662 H 0.71858 0.71311 0.0374 0.0
H2663 H 0.73133 0.72434 0.05843 0.0
H2664 H 0.29269 0.04691 0.95966 0.0
H2665 H 0.3057 0.04734 0.9802 0.0
H2666 H 0.33303 0.00897 0.96814 0.0
H2667 H 0.31982 0.0085 0.94728 0.0
H2668 H 0.30595 0.99141 0.98785 0.0
H2669 H 0.36286 0.07645 0.99777 0.0
H2670 H 0.33909 0.07396 0.9909 0.0
H2671 H 0.35574 0.0664 0.98234 0.0
C2672 C 0.30196 0.03902 0.96129 0.0
C2673 C 0.30525 0.02767 0.95189 0.0
C2674 C 0.30958 0.03944 0.97303 0.0
C2675 C 0.32065 0.02847 0.97571 0.0
C2676 C 0.32476 0.01777 0.96624 0.0
H2677 H 0.33392 0.03677 0.05574 0.0
H2678 H 0.34594 0.03495 0.03497 0.0
C2679 C 0.3173 0.01758 0.95434 0.0
C2680 C 0.3249 0.02596 0.9887 0.0
H2681 H 0.34079 0.05493 0.01514 0.0
C2682 C 0.31419 0.00527 0.9938 0.0
C2683 C 0.336 0.04392 0.99651 0.0
C2684 C 0.34927 0.0664 0.99155 0.0
C2685 C 0.31226 0.00228 0.00651 0.0
C2686 C 0.32094 0.02045 0.01428 0.0
C2687 C 0.33374 0.04096 0.00921 0.0
C2688 C 0.31397 0.0189 0.0272 0.0
C2689 C 0.29994 0.97971 0.01147 0.0
C2690 C 0.29206 0.01039 0.02973 0.0
C2691 C 0.28521 0.01149 0.04148 0.0
C2692 C 0.30011 0.02123 0.05102 0.0
C2693 C 0.32203 0.02903 0.04861 0.0
C2694 C 0.32892 0.02805 0.03676 0.0
H2695 H 0.30181 0.96832 0.00544 0.0
H2696 H 0.30532 0.97868 0.02082 0.0
H2697 H 0.28258 0.97454 0.01179 0.0
H2698 H 0.28025 0.00375 0.02248 0.0
H2699 H 0.26821 0.00529 0.04299 0.0
H2700 H 0.0494 0.74749 0.94804 0.0
H2701 H 0.05004 0.7429 0.97014 0.0
H2702 H 0.99922 0.75788 0.97444 0.0
H2703 H 0.99966 0.76389 0.95244 0.0
H2704 H 0.02901 0.781 0.98892 0.0
H2705 H 0.01571 0.69888 0.99474 0.0
H2706 H 0.03815 0.71443 0.9849 0.0
H2707 H 0.01161 0.70837 0.9803 0.0
C2708 C 0.03802 0.74925 0.95371 0.0
C2709 C 0.02444 0.75598 0.94858 0.0
C2710 C 0.03829 0.7465 0.96635 0.0
C2711 C 0.02449 0.74975 0.97404 0.0
C2712 C 0.01007 0.7553 0.96876 0.0
H2713 H 0.00927 0.73092 0.05276 0.0
H2714 H 0.00761 0.72483 0.03065 0.0
C2715 C 0.01024 0.75865 0.95619 0.0
C2716 C 0.02676 0.75 0.98758 0.0
H2717 H 0.03076 0.72254 0.01201 0.0
C2718 C 0.02914 0.76804 0.99393 0.0
C2719 C 0.02679 0.7331 0.99423 0.0
C2720 C 0.02269 0.71252 0.98819 0.0
C2721 C 0.03164 0.76977 0.00664 0.0
C2722 C 0.03299 0.7535 0.01321 0.0
C2723 C 0.03026 0.73525 0.00694 0.0
C2724 C 0.03638 0.75502 0.02665 0.0
C2725 C 0.03219 0.78879 0.01288 0.0
C2726 C 0.05379 0.77336 0.03182 0.0
C2727 C 0.05448 0.77704 0.04438 0.0
C2728 C 0.03825 0.76203 0.05202 0.0
C2729 C 0.02211 0.7426 0.04705 0.0
C2730 C 0.0211 0.73918 0.03441 0.0
H2731 H 0.02447 0.79587 0.00721 0.0
H2732 H 0.0239 0.78421 0.02186 0.0
H2733 H 0.04914 0.80146 0.01438 0.0
H2734 H 0.06615 0.78548 0.02606 0.0
H2735 H 0.06708 0.79213 0.04804 0.0
H2736 H 0.26977 0.2897 0.04283 0.0
H2737 H 0.2808 0.30233 0.02204 0.0
H2738 H 0.34695 0.33841 0.03358 0.0
H2739 H 0.33593 0.32569 0.05469 0.0
H2740 H 0.30647 0.3467 0.01233 0.0
H2741 H 0.34351 0.29514 0.00602 0.0
H2742 H 0.32462 0.28986 0.01822 0.0
H2743 H 0.35094 0.31308 0.01891 0.0
C2744 C 0.28668 0.3005 0.04103 0.0
C2745 C 0.302 0.30656 0.0504 0.0
C2746 C 0.29294 0.30777 0.02913 0.0
C2747 C 0.31468 0.32115 0.02626 0.0
C2748 C 0.33008 0.32798 0.03562 0.0
H2749 H 0.32855 0.32425 0.9454 0.0
H2750 H 0.34244 0.33709 0.96615 0.0
C2751 C 0.32376 0.32081 0.04766 0.0
C2752 C 0.32061 0.32646 0.01324 0.0
H2753 H 0.33342 0.30645 0.98836 0.0
C2754 C 0.31312 0.33858 0.0071 0.0
C2755 C 0.32933 0.31588 0.00643 0.0
C2756 C 0.33759 0.3027 0.01265 0.0
C2757 C 0.31228 0.33873 0.9943 0.0
C2758 C 0.31887 0.32629 0.98753 0.0
C2759 C 0.32841 0.31599 0.9936 0.0
C2760 C 0.3113 0.31971 0.97484 0.0
C2761 C 0.3027 0.35075 0.98812 0.0
C2762 C 0.28937 0.30557 0.97296 0.0
C2763 C 0.28151 0.29806 0.96131 0.0
C2764 C 0.29536 0.3046 0.95114 0.0
C2765 C 0.31744 0.31897 0.95301 0.0
C2766 C 0.3254 0.32631 0.96483 0.0
H2767 H 0.30433 0.36421 0.99389 0.0
H2768 H 0.31048 0.35721 0.97915 0.0
H2769 H 0.28532 0.33959 0.98652 0.0
H2770 H 0.27829 0.30006 0.98059 0.0
H2771 H 0.26444 0.28704 0.96032 0.0
H2772 H 0.72331 0.01336 0.94898 0.0
H2773 H 0.71279 0.01325 0.97036 0.0
H2774 H 0.77956 0.0476 0.98084 0.0
H2775 H 0.79012 0.04781 0.95971 0.0
H2776 H 0.72312 0.99374 0.98939 0.0
H2777 H 0.75487 0.07966 0.99956 0.0
H2778 H 0.75011 0.06927 0.98414 0.0
H2779 H 0.77452 0.07532 0.99199 0.0
C2780 C 0.73572 0.02135 0.95581 0.0
C2781 C 0.75755 0.03057 0.95265 0.0
C2782 C 0.72969 0.0212 0.96802 0.0
C2783 C 0.7454 0.03067 0.97717 0.0
C2784 C 0.76716 0.0406 0.97392 0.0
H2785 H 0.77143 0.00761 0.0465 0.0
H2786 H 0.76019 0.00626 0.02539 0.0
C2787 C 0.77317 0.04055 0.96182 0.0
C2788 C 0.73951 0.02831 0.9903 0.0
H2789 H 0.75242 0.05716 0.01679 0.0
C2790 C 0.72899 0.00759 0.99536 0.0
C2791 C 0.74684 0.04632 0.9981 0.0
C2792 C 0.75701 0.06889 0.99315 0.0
C2793 C 0.72738 0.00451 0.00807 0.0
C2794 C 0.73673 0.02262 0.01588 0.0
C2795 C 0.74546 0.04326 0.01081 0.0
C2796 C 0.7406 0.02074 0.02902 0.0
C2797 C 0.71654 0.98192 0.01303 0.0
C2798 C 0.73327 0.02926 0.03815 0.0
C2799 C 0.73965 0.02998 0.05034 0.0
C2800 C 0.75383 0.0226 0.05349 0.0
C2801 C 0.7605 0.01343 0.04437 0.0
C2802 C 0.75395 0.0125 0.03229 0.0
H2803 H 0.70411 0.97048 0.00661 0.0
H2804 H 0.7287 0.97684 0.01421 0.0
H2805 H 0.70893 0.98087 0.02202 0.0
H2806 H 0.72314 0.03592 0.03579 0.0
H2807 H 0.73443 0.03734 0.05714 0.0
H2808 H 0.70136 0.66172 0.28116 0.0
H2809 H 0.70253 0.67331 0.30242 0.0
H2810 H 0.67506 0.6077 0.31448 0.0
H2811 H 0.67376 0.59598 0.29346 0.0
H2812 H 0.6664 0.65438 0.32336 0.0
H2813 H 0.73908 0.647 0.32986 0.0
H2814 H 0.7307 0.65129 0.31507 0.0
H2815 H 0.71733 0.62503 0.32186 0.0
C2816 C 0.69504 0.64971 0.28831 0.0
C2817 C 0.68765 0.62795 0.28562 0.0
C2818 C 0.69581 0.65638 0.30043 0.0
C2819 C 0.68913 0.64136 0.30996 0.0
C2820 C 0.68044 0.61953 0.30722 0.0
H2821 H 0.65549 0.61132 0.38169 0.0
H2822 H 0.65798 0.62278 0.36057 0.0
C2823 C 0.67972 0.61288 0.29519 0.0
C2824 C 0.69274 0.64815 0.3229 0.0
H2825 H 0.72021 0.64661 0.34788 0.0
C2826 C 0.67847 0.65322 0.32873 0.0
C2827 C 0.70876 0.64704 0.3298 0.0
C2828 C 0.725 0.64248 0.32384 0.0
C2829 C 0.67877 0.65551 0.3415 0.0
C2830 C 0.69345 0.65226 0.34853 0.0
C2831 C 0.70887 0.64902 0.34254 0.0
C2832 C 0.691 0.6486 0.36194 0.0
C2833 C 0.66288 0.66067 0.34734 0.0
C2834 C 0.70867 0.65934 0.36986 0.0
C2835 C 0.70727 0.65254 0.38201 0.0
C2836 C 0.68831 0.63475 0.38628 0.0
C2837 C 0.67036 0.62488 0.37857 0.0
C2838 C 0.67168 0.63169 0.36652 0.0
H2839 H 0.65933 0.67083 0.34121 0.0
H2840 H 0.64756 0.64551 0.34897 0.0
H2841 H 0.6689 0.6691 0.3562 0.0
H2842 H 0.72381 0.67228 0.36649 0.0
H2843 H 0.72138 0.66027 0.38779 0.0
H2844 H 0.42876 0.12456 0.37648 0.0
H2845 H 0.4181 0.1126 0.35556 0.0
H2846 H 0.38772 0.04654 0.36732 0.0
H2847 H 0.39861 0.0585 0.38845 0.0
H2848 H 0.41682 0.05546 0.34896 0.0
H2849 H 0.36313 0.08621 0.33585 0.0
H2850 H 0.38679 0.10694 0.34314 0.0
H2851 H 0.36859 0.08322 0.35162 0.0
C2852 C 0.41933 0.10747 0.3747 0.0
C2853 C 0.41458 0.09248 0.38413 0.0
C2854 C 0.41308 0.10064 0.36272 0.0
C2855 C 0.40186 0.07866 0.35986 0.0
C2856 C 0.39618 0.06358 0.36933 0.0
H2857 H 0.39047 0.06746 0.27985 0.0
H2858 H 0.37858 0.05585 0.30091 0.0
C2859 C 0.40232 0.07043 0.38141 0.0
C2860 C 0.39892 0.072 0.34684 0.0
H2861 H 0.38508 0.08407 0.3194 0.0
C2862 C 0.40932 0.06116 0.34251 0.0
C2863 C 0.38882 0.07902 0.33841 0.0
C2864 C 0.376 0.08928 0.34253 0.0
C2865 C 0.41168 0.05906 0.32994 0.0
C2866 C 0.40373 0.06832 0.32152 0.0
C2867 C 0.39149 0.07724 0.32584 0.0
C2868 C 0.41065 0.07193 0.30854 0.0
C2869 C 0.42352 0.04777 0.32582 0.0
C2870 C 0.4326 0.08451 0.30582 0.0
C2871 C 0.43939 0.09118 0.29388 0.0
C2872 C 0.42439 0.08549 0.28436 0.0
C2873 C 0.40244 0.07195 0.28696 0.0
C2874 C 0.39562 0.06538 0.29899 0.0
H2875 H 0.42129 0.03508 0.33243 0.0
H2876 H 0.41802 0.04037 0.31667 0.0
H2877 H 0.44097 0.05957 0.32534 0.0
H2878 H 0.44448 0.0902 0.31305 0.0
H2879 H 0.45641 0.1016 0.29221 0.0
H2880 H 0.99366 0.36488 0.39037 0.0
H2881 H 0.00617 0.3654 0.36937 0.0
H2882 H 0.94136 0.33975 0.35616 0.0
H2883 H 0.92884 0.33899 0.37686 0.0
H2884 H 0.96458 0.32167 0.34487 0.0
H2885 H 0.00937 0.41129 0.34495 0.0
H2886 H 0.01541 0.39731 0.35653 0.0
H2887 H 0.98988 0.39614 0.35662 0.0
C2888 C 0.98207 0.35896 0.383 0.0
C2889 C 0.9603 0.35212 0.38526 0.0
C2890 C 0.98925 0.3594 0.37101 0.0
C2891 C 0.97472 0.35285 0.36119 0.0
C2892 C 0.95287 0.34489 0.36358 0.0
H2893 H 0.94948 0.3782 0.29374 0.0
H2894 H 0.96098 0.37729 0.3145 0.0
C2895 C 0.94574 0.34458 0.37544 0.0
C2896 C 0.98185 0.35569 0.34827 0.0
H2897 H 0.00191 0.39407 0.326 0.0
C2898 C 0.97335 0.33747 0.34073 0.0
C2899 C 0.99323 0.37636 0.34293 0.0
C2900 C 0.00249 0.39648 0.3506 0.0
C2901 C 0.97431 0.33936 0.32794 0.0
C2902 C 0.98426 0.36005 0.32259 0.0
C2903 C 0.99437 0.37824 0.33014 0.0
C2904 C 0.98032 0.36308 0.30963 0.0
C2905 C 0.96299 0.31926 0.32027 0.0
C2906 C 0.98794 0.35599 0.29989 0.0
C2907 C 0.98135 0.35651 0.28788 0.0
C2908 C 0.96696 0.36399 0.28551 0.0
C2909 C 0.96039 0.37212 0.29525 0.0
C2910 C 0.96703 0.37172 0.30714 0.0
H2911 H 0.95453 0.30449 0.32592 0.0
H2912 H 0.95109 0.3201 0.31416 0.0
H2913 H 0.97488 0.31791 0.31444 0.0
H2914 H 0.99839 0.34946 0.30161 0.0
H2915 H 0.98667 0.35013 0.28056 0.0
H2916 H 0.67637 0.05014 0.38935 0.0
H2917 H 0.67818 0.04049 0.368 0.0
H2918 H 0.71319 0.10768 0.35843 0.0
H2919 H 0.7114 0.11734 0.37954 0.0
H2920 H 0.65991 0.05183 0.34871 0.0
H2921 H 0.74633 0.08362 0.34011 0.0
H2922 H 0.73499 0.07805 0.35531 0.0
H2923 H 0.74165 0.10293 0.34783 0.0
C2924 C 0.68495 0.06281 0.38274 0.0
C2925 C 0.69372 0.0845 0.38611 0.0
C2926 C 0.68591 0.05729 0.37055 0.0
C2927 C 0.69607 0.07337 0.36165 0.0
C2928 C 0.70566 0.095 0.36516 0.0
H2929 H 0.67744 0.10432 0.29297 0.0
H2930 H 0.67596 0.09228 0.31389 0.0
C2931 C 0.70448 0.1005 0.37724 0.0
C2932 C 0.69451 0.06804 0.34846 0.0
H2933 H 0.72492 0.08237 0.32252 0.0
C2934 C 0.6741 0.05792 0.34299 0.0
C2935 C 0.71297 0.07571 0.34099 0.0
C2936 C 0.73521 0.08548 0.34638 0.0
C2937 C 0.67181 0.05714 0.33024 0.0
C2938 C 0.69037 0.06687 0.3228 0.0
C2939 C 0.71068 0.07511 0.32823 0.0
C2940 C 0.68924 0.07182 0.30976 0.0
C2941 C 0.64954 0.04692 0.32484 0.0
C2942 C 0.69727 0.06434 0.30042 0.0
C2943 C 0.69804 0.07117 0.28832 0.0
C2944 C 0.69126 0.08595 0.28548 0.0
C2945 C 0.68283 0.09297 0.29484 0.0
C2946 C 0.68182 0.08597 0.30681 0.0
H2947 H 0.63755 0.03431 0.33099 0.0
H2948 H 0.64487 0.05938 0.32364 0.0
H2949 H 0.64891 0.03966 0.31579 0.0
H2950 H 0.7033 0.05359 0.30254 0.0
H2951 H 0.70479 0.06565 0.28132 0.0
H2952 H 0.93393 0.61177 0.37679 0.0
H2953 H 0.94467 0.62339 0.35582 0.0
H2954 H 0.01013 0.66439 0.3675 0.0
H2955 H 0.99945 0.65266 0.38874 0.0
H2956 H 0.96665 0.66567 0.34464 0.0
H2957 H 0.01206 0.62156 0.34214 0.0
H2958 H 0.99295 0.6165 0.35419 0.0
H2959 H 0.01838 0.64095 0.35415 0.0
C2960 C 0.9506 0.62345 0.37497 0.0
C2961 C 0.96588 0.63114 0.38443 0.0
C2962 C 0.95669 0.63015 0.36297 0.0
C2963 C 0.97821 0.64457 0.36009 0.0
C2964 C 0.99345 0.65309 0.36954 0.0
H2965 H 0.99064 0.66672 0.27996 0.0
H2966 H 0.00142 0.67623 0.30142 0.0
C2967 C 0.98731 0.64649 0.38166 0.0
C2968 C 0.98435 0.64909 0.34704 0.0
H2969 H 0.0041 0.63251 0.32368 0.0
C2970 C 0.9754 0.65902 0.34004 0.0
C2971 C 0.99564 0.64023 0.34111 0.0
C2972 C 0.0053 0.62911 0.34821 0.0
C2973 C 0.97613 0.65901 0.32722 0.0
C2974 C 0.98624 0.64894 0.32127 0.0
C2975 C 0.9965 0.64034 0.32829 0.0
C2976 C 0.98276 0.6436 0.30808 0.0
C2977 C 0.96458 0.6682 0.32012 0.0
C2978 C 0.96943 0.6221 0.30469 0.0
C2979 C 0.96328 0.61667 0.29255 0.0
C2980 C 0.97045 0.63263 0.28348 0.0
C2981 C 0.9849 0.65407 0.28674 0.0
C2982 C 0.99095 0.65954 0.29899 0.0
H2983 H 0.9559 0.67375 0.32617 0.0
H2984 H 0.97637 0.68208 0.31462 0.0
H2985 H 0.95284 0.65597 0.31372 0.0
H2986 H 0.96295 0.60954 0.31155 0.0
H2987 H 0.95229 0.59998 0.29034 0.0
H2988 H 0.44013 0.39913 0.38 0.0
H2989 H 0.42928 0.39644 0.3587 0.0
H2990 H 0.37934 0.33081 0.36462 0.0
H2991 H 0.39071 0.33344 0.38607 0.0
H2992 H 0.40519 0.3339 0.34629 0.0
H2993 H 0.38182 0.39525 0.33876 0.0
H2994 H 0.40707 0.40685 0.34658 0.0
H2995 H 0.38327 0.38589 0.35385 0.0
C2996 C 0.42654 0.3843 0.37682 0.0
C2997 C 0.4163 0.36646 0.3846 0.0
C2998 C 0.42013 0.38284 0.36467 0.0
C2999 C 0.40328 0.36351 0.36004 0.0
C3000 C 0.39223 0.34596 0.36801 0.0
H3001 H 0.38856 0.35325 0.27918 0.0
H3002 H 0.37792 0.35246 0.30065 0.0
C3003 C 0.39864 0.34747 0.38025 0.0
C3004 C 0.39986 0.36088 0.3466 0.0
H3005 H 0.39749 0.38704 0.32107 0.0
C3006 C 0.40287 0.34515 0.3408 0.0
C3007 C 0.39667 0.3754 0.33936 0.0
C3008 C 0.39179 0.39163 0.34499 0.0
C3009 C 0.40454 0.34469 0.32806 0.0
C3010 C 0.40341 0.36049 0.32092 0.0
C3011 C 0.39866 0.37513 0.32659 0.0
C3012 C 0.40974 0.36342 0.30788 0.0
C3013 C 0.4086 0.32794 0.32234 0.0
C3014 C 0.43124 0.37062 0.30488 0.0
C3015 C 0.43733 0.37113 0.29276 0.0
C3016 C 0.42206 0.3645 0.2833 0.0
C3017 C 0.40071 0.35852 0.28624 0.0
C3018 C 0.39459 0.35798 0.29848 0.0
H3019 H 0.40348 0.31386 0.32844 0.0
H3020 H 0.40002 0.32233 0.31348 0.0
H3021 H 0.42607 0.33508 0.32057 0.0
H3022 H 0.44322 0.37517 0.31201 0.0
H3023 H 0.45395 0.37605 0.29084 0.0
H3024 H 0.38187 0.95624 0.71151 0.0
H3025 H 0.38392 0.96867 0.69064 0.0
H3026 H 0.35227 0.00365 0.7014 0.0
H3027 H 0.34996 0.99103 0.72249 0.0
H3028 H 0.33254 0.97669 0.68202 0.0
H3029 H 0.41938 0.02495 0.67266 0.0
H3030 H 0.41303 0.99983 0.67956 0.0
H3031 H 0.40872 0.01888 0.68801 0.0
C3032 C 0.37573 0.96695 0.70954 0.0
C3033 C 0.36569 0.97258 0.71869 0.0
C3034 C 0.3771 0.97422 0.69759 0.0
C3035 C 0.36853 0.98736 0.69446 0.0
C3036 C 0.35919 0.99371 0.70364 0.0
H3037 H 0.37832 0.006 0.61444 0.0
H3038 H 0.37807 0.01686 0.63576 0.0
C3039 C 0.35795 0.98653 0.71568 0.0
C3040 C 0.36708 0.99193 0.68137 0.0
H3041 H 0.39658 0.00625 0.65509 0.0
C3042 C 0.3466 0.98373 0.67616 0.0
C3043 C 0.38538 0.00146 0.67371 0.0
C3044 C 0.40787 0.01199 0.67881 0.0
C3045 C 0.34385 0.98292 0.66344 0.0
C3046 C 0.36201 0.99023 0.65575 0.0
C3047 C 0.38261 0.00036 0.66097 0.0
C3048 C 0.35983 0.98434 0.64262 0.0
C3049 C 0.32142 0.97327 0.65833 0.0
C3050 C 0.34956 0.96253 0.63943 0.0
C3051 C 0.34983 0.95636 0.6274 0.0
C3052 C 0.36036 0.97184 0.61823 0.0
C3053 C 0.36989 0.99373 0.62129 0.0
C3054 C 0.36983 -6e-05 0.63345 0.0
H3055 H 0.31077 0.97578 0.66465 0.0
H3056 H 0.3214 0.98028 0.6493 0.0
H3057 H 0.31457 0.95569 0.65721 0.0
H3058 H 0.34216 0.9502 0.64636 0.0
H3059 H 0.34233 0.93937 0.62534 0.0
H3060 H 0.05556 0.39664 0.72185 0.0
H3061 H 0.04241 0.38571 0.70079 0.0
H3062 H 0.10771 0.4127 0.68819 0.0
H3063 H 0.12079 0.42385 0.70878 0.0
H3064 H 0.05456 0.41607 0.68115 0.0
H3065 H 0.07656 0.35456 0.67031 0.0
H3066 H 0.07291 0.36087 0.68581 0.0
H3067 H 0.09804 0.37711 0.67802 0.0
C3068 C 0.06702 0.3998 0.7146 0.0
C3069 C 0.08923 0.41112 0.71702 0.0
C3070 C 0.0595 0.39355 0.70259 0.0
C3071 C 0.07408 0.39804 0.69296 0.0
C3072 C 0.09612 0.40859 0.69549 0.0
H3073 H 0.10989 0.45216 0.62705 0.0
H3074 H 0.0979 0.43872 0.64754 0.0
C3075 C 0.1036 0.41511 0.70733 0.0
C3076 C 0.06717 0.39452 0.67999 0.0
H3077 H 0.07835 0.37756 0.65328 0.0
C3078 C 0.05898 0.407 0.67507 0.0
C3079 C 0.07272 0.38253 0.67203 0.0
C3080 C 0.08034 0.36783 0.67684 0.0
C3081 C 0.05852 0.4097 0.66239 0.0
C3082 C 0.06654 0.39976 0.6545 0.0
C3083 C 0.07243 0.38538 0.65935 0.0
C3084 C 0.0728 0.40733 0.64177 0.0
C3085 C 0.05093 0.42442 0.65756 0.0
C3086 C 0.06292 0.39392 0.63166 0.0
C3087 C 0.06972 0.40164 0.61975 0.0
C3088 C 0.08677 0.42274 0.61783 0.0
C3089 C 0.09673 0.43584 0.62808 0.0
C3090 C 0.0898 0.42825 0.63985 0.0
H3091 H 0.03948 0.42542 0.66398 0.0
H3092 H 0.06495 0.44082 0.65647 0.0
H3093 H 0.04307 0.41889 0.64852 0.0
H3094 H 0.04991 0.37762 0.63299 0.0
H3095 H 0.06173 0.3911 0.61209 0.0
H3096 H 0.67192 0.71071 0.72353 0.0
H3097 H 0.68325 0.71088 0.70227 0.0
H3098 H 0.61687 0.67681 0.69099 0.0
H3099 H 0.60555 0.67641 0.71195 0.0
H3100 H 0.64307 0.6624 0.67949 0.0
H3101 H 0.67776 0.75121 0.67705 0.0
H3102 H 0.6873 0.74039 0.68872 0.0
H3103 H 0.6603 0.73556 0.68939 0.0
C3104 C 0.6598 0.70288 0.71653 0.0
C3105 C 0.63786 0.69376 0.71939 0.0
C3106 C 0.66628 0.70312 0.7044 0.0
C3107 C 0.65089 0.69409 0.69504 0.0
C3108 C 0.62903 0.6839 0.69805 0.0
H3109 H 0.6177 0.70896 0.62653 0.0
H3110 H 0.62982 0.7106 0.64743 0.0
C3111 C 0.62258 0.68378 0.71005 0.0
C3112 C 0.6569 0.69648 0.68193 0.0
H3113 H 0.67123 0.73261 0.65859 0.0
C3114 C 0.64985 0.6778 0.6749 0.0
C3115 C 0.66562 0.71662 0.676 0.0
C3116 C 0.67314 0.73716 0.6831 0.0
C3117 C 0.64972 0.67851 0.66208 0.0
C3118 C 0.65708 0.69849 0.65616 0.0
C3119 C 0.66569 0.71735 0.66317 0.0
C3120 C 0.65214 0.69964 0.64311 0.0
C3121 C 0.64004 0.65772 0.65499 0.0
C3122 C 0.66109 0.69345 0.63364 0.0
C3123 C 0.65413 0.69247 0.62155 0.0
C3124 C 0.63805 0.69758 0.61881 0.0
C3125 C 0.62994 0.7047 0.62829 0.0
C3126 C 0.63693 0.70576 0.64027 0.0
H3127 H 0.6332 0.64343 0.66107 0.0
H3128 H 0.62712 0.65643 0.64887 0.0
H3129 H 0.65259 0.65747 0.64921 0.0
H3130 H 0.67303 0.68888 0.63562 0.0
H3131 H 0.66072 0.68694 0.61446 0.0
H3132 H 0.38594 0.4612 0.71137 0.0
H3133 H 0.38328 0.4491 0.69039 0.0
H3134 H 0.35439 0.38343 0.70267 0.0
H3135 H 0.35665 0.39546 0.72391 0.0
H3136 H 0.39826 0.42534 0.67782 0.0
H3137 H 0.30879 0.38292 0.67968 0.0
H3138 H 0.32524 0.4013 0.6915 0.0
H3139 H 0.32244 0.37509 0.6905 0.0
C3140 C 0.37924 0.44417 0.70969 0.0
C3141 C 0.37127 0.42928 0.71934 0.0
C3142 C 0.37781 0.43729 0.69765 0.0
C3143 C 0.36833 0.41534 0.69493 0.0
C3144 C 0.36145 0.40043 0.70456 0.0
H3145 H 0.36809 0.40055 0.61452 0.0
H3146 H 0.36907 0.39012 0.63579 0.0
C3147 C 0.36293 0.40735 0.71669 0.0
C3148 C 0.36448 0.40857 0.68192 0.0
H3149 H 0.3247 0.38811 0.66043 0.0
C3150 C 0.38219 0.41671 0.674 0.0
C3151 C 0.34347 0.39741 0.677 0.0
C3152 C 0.32382 0.38873 0.68504 0.0
C3153 C 0.3795 0.41537 0.66126 0.0
C3154 C 0.35848 0.40524 0.65632 0.0
C3155 C 0.34077 0.39575 0.66425 0.0
C3156 C 0.35466 0.40786 0.64326 0.0
C3157 C 0.39917 0.42634 0.65322 0.0
C3158 C 0.34517 0.42025 0.64036 0.0
C3159 C 0.34445 0.42606 0.62831 0.0
C3160 C 0.35317 0.41958 0.61883 0.0
C3161 C 0.36124 0.40581 0.62161 0.0
C3162 C 0.362 0.4 0.63376 0.0
H3163 H 0.41414 0.43585 0.65858 0.0
H3164 H 0.40078 0.41406 0.64792 0.0
H3165 H 0.39761 0.43723 0.64663 0.0
H3166 H 0.33933 0.42643 0.64752 0.0
H3167 H 0.33793 0.4365 0.62649 0.0
H3168 H 0.59252 0.96188 0.71466 0.0
H3169 H 0.60321 0.96962 0.69326 0.0
H3170 H 0.66795 0.98638 0.70282 0.0
H3171 H 0.65743 0.9791 0.7244 0.0
H3172 H 0.66394 0.01117 0.68232 0.0
H3173 H 0.61368 0.92274 0.6776 0.0
H3174 H 0.59964 0.93501 0.68429 0.0
H3175 H 0.62196 0.93588 0.69225 0.0
C3176 C 0.6092 0.96789 0.71227 0.0
C3177 C 0.6241 0.96971 0.72116 0.0
C3178 C 0.61527 0.97225 0.70004 0.0
C3179 C 0.63624 0.97812 0.69646 0.0
C3180 C 0.65167 0.98181 0.70543 0.0
H3181 H 0.64524 0.94046 0.62258 0.0
H3182 H 0.65406 0.94893 0.64421 0.0
C3183 C 0.64565 0.97772 0.71774 0.0
C3184 C 0.64095 0.97736 0.68336 0.0
H3185 H 0.62459 0.94287 0.65921 0.0
C3186 C 0.65556 0.99625 0.67724 0.0
C3187 C 0.63045 0.95775 0.67685 0.0
C3188 C 0.61572 0.93664 0.68309 0.0
C3189 C 0.65915 0.99617 0.66459 0.0
C3190 C 0.64746 0.97678 0.65793 0.0
C3191 C 0.63356 0.9578 0.66423 0.0
C3192 C 0.64803 0.97562 0.64437 0.0
C3193 C 0.67543 0.01683 0.65856 0.0
C3194 C 0.64277 0.98844 0.63707 0.0
C3195 C 0.6384 0.98397 0.62462 0.0
C3196 C 0.63877 0.96637 0.61937 0.0
C3197 C 0.64521 0.95432 0.62644 0.0
C3198 C 0.65009 0.9591 0.6388 0.0
H3199 H 0.6882 0.0274 0.6651 0.0
H3200 H 0.68307 0.01378 0.65058 0.0
H3201 H 0.66731 0.02564 0.65539 0.0
H3202 H 0.64042 0.00084 0.64114 0.0
H3203 H 0.63289 0.99308 0.61937 0.0
H3204 H 0.09249 0.6633 0.71249 0.0
H3205 H 0.08604 0.6659 0.69081 0.0
H3206 H 0.07259 0.71682 0.69868 0.0
H3207 H 0.07836 0.71373 0.72057 0.0
H3208 H 0.04782 0.68925 0.67858 0.0
H3209 H 0.13514 0.71941 0.67431 0.0
H3210 H 0.1209 0.69329 0.6812 0.0
H3211 H 0.12213 0.71601 0.68889 0.0
C3212 C 0.08745 0.67455 0.70964 0.0
C3213 C 0.08599 0.68838 0.71814 0.0
C3214 C 0.08388 0.6761 0.69726 0.0
C3215 C 0.07935 0.6919 0.69312 0.0
C3216 C 0.07615 0.70457 0.7017 0.0
H3217 H 0.12057 0.73511 0.61908 0.0
H3218 H 0.11269 0.73597 0.64074 0.0
C3219 C 0.07936 0.70275 0.71418 0.0
C3220 C 0.08075 0.69678 0.67988 0.0
H3221 H 0.11526 0.7107 0.65583 0.0
C3222 C 0.06258 0.69416 0.67358 0.0
C3223 C 0.1002 0.70375 0.67344 0.0
C3224 C 0.12076 0.70852 0.67982 0.0
C3225 C 0.06314 0.69744 0.66086 0.0
C3226 C 0.08224 0.70302 0.6543 0.0
C3227 C 0.10055 0.70636 0.66076 0.0
C3228 C 0.08379 0.7047 0.64073 0.0
C3229 C 0.04334 0.69506 0.65465 0.0
C3230 C 0.06966 0.68733 0.63332 0.0
C3231 C 0.07383 0.68719 0.62083 0.0
C3232 C 0.09247 0.70415 0.61566 0.0
C3233 C 0.10599 0.72196 0.62289 0.0
C3234 C 0.10153 0.72237 0.63526 0.0
H3235 H 0.03353 0.69863 0.66105 0.0
H3236 H 0.04753 0.70585 0.64661 0.0
H3237 H 0.03324 0.67821 0.65153 0.0
H3238 H 0.05623 0.67322 0.63731 0.0
H3239 H 0.06347 0.67307 0.61546 0.0
H3240 H 0.82543 0.08224 0.10376 0.0
H3241 H 0.85708 0.11815 0.10349 0.0
H3242 H 0.82692 0.13781 0.07625 0.0
H3243 H 0.79558 0.10133 0.07613 0.0
H3244 H 0.86549 0.14958 0.06954 0.0
H3245 H 0.87058 0.17408 0.11759 0.0
H3246 H 0.87002 0.14892 0.11678 0.0
H3247 H 0.84719 0.15077 0.11155 0.0
C3248 C 0.82569 0.09427 0.09768 0.0
C3249 C 0.80862 0.08899 0.08962 0.0
C3250 C 0.84356 0.11492 0.09772 0.0
C3251 C 0.84433 0.13088 0.08998 0.0
C3252 C 0.82672 0.1258 0.08231 0.0
H3253 H 0.95598 0.25764 0.07284 0.0
H3254 H 0.91952 0.22638 0.07329 0.0
C3255 C 0.80888 0.10503 0.08221 0.0
C3256 C 0.86434 0.15208 0.08907 0.0
H3257 H 0.90372 0.19236 0.10606 0.0
C3258 C 0.87374 0.159 0.07752 0.0
C3259 C 0.87498 0.16468 0.09945 0.0
C3260 C 0.865 0.15932 0.112 0.0
C3261 C 0.89408 0.17727 0.07613 0.0
C3262 C 0.90525 0.18928 0.08657 0.0
C3263 C 0.89539 0.18295 0.09807 0.0
C3264 C 0.92738 0.20807 0.08587 0.0
C3265 C 0.90373 0.18286 0.06353 0.0
C3266 C 0.94383 0.20846 0.093 0.0
C3267 C 0.96448 0.22639 0.09288 0.0
C3268 C 0.96922 0.24406 0.0854 0.0
C3269 C 0.9528 0.24385 0.07836 0.0
C3270 C 0.93203 0.22599 0.07859 0.0
H3271 H 0.89617 0.16885 0.05724 0.0
H3272 H 0.90134 0.19577 0.05965 0.0
H3273 H 0.92113 0.18872 0.06395 0.0
H3274 H 0.94062 0.19495 0.09879 0.0
H3275 H 0.97665 0.22664 0.09882 0.0
H3276 H 0.95979 0.72922 0.07278 0.0
H3277 H 0.92325 0.72378 0.07316 0.0
H3278 H 0.94335 0.77469 0.09971 0.0
H3279 H 0.9794 0.77907 0.09987 0.0
H3280 H 0.90655 0.74084 0.1063 0.0
H3281 H 0.90012 0.75813 0.05763 0.0
H3282 H 0.90427 0.73566 0.05966 0.0
H3283 H 0.92472 0.76206 0.06426 0.0
C3284 C 0.95637 0.73941 0.07854 0.0
C3285 C 0.97252 0.7552 0.0859 0.0
C3286 C 0.93556 0.73639 0.07871 0.0
C3287 C 0.93061 0.74917 0.08625 0.0
C3288 C 0.94678 0.76478 0.09372 0.0
H3289 H 0.82755 0.77185 0.10355 0.0
H3290 H 0.85958 0.7682 0.10336 0.0
C3291 C 0.96746 0.76755 0.09366 0.0
C3292 C 0.90843 0.74576 0.08682 0.0
H3293 H 0.86876 0.74558 0.06962 0.0
C3294 C 0.89834 0.742 0.09828 0.0
C3295 C 0.8974 0.7467 0.07634 0.0
C3296 C 0.90722 0.75101 0.06378 0.0
C3297 C 0.87786 0.73971 0.09956 0.0
C3298 C 0.86732 0.74167 0.08914 0.0
C3299 C 0.87695 0.74442 0.07764 0.0
C3300 C 0.84715 0.74256 0.08996 0.0
C3301 C 0.86767 0.73493 0.11206 0.0
C3302 C 0.82959 0.7297 0.08232 0.0
C3303 C 0.81151 0.73223 0.08221 0.0
C3304 C 0.81096 0.74794 0.08954 0.0
C3305 C 0.82802 0.76011 0.09754 0.0
C3306 C 0.84611 0.7577 0.09762 0.0
H3307 H 0.87339 0.72595 0.11772 0.0
H3308 H 0.87233 0.75028 0.11682 0.0
H3309 H 0.84987 0.72541 0.11151 0.0
H3310 H 0.83002 0.71794 0.07632 0.0
H3311 H 0.79824 0.72236 0.07617 0.0
H3312 H 0.27895 0.07709 0.10124 0.0
H3313 H 0.28182 0.11226 0.10341 0.0
H3314 H 0.32228 0.13466 0.0714 0.0
H3315 H 0.32113 0.09997 0.07006 0.0
H3316 H 0.3377 0.16469 0.08726 0.0
H3317 H 0.25046 0.13484 0.08616 0.0
H3318 H 0.2574 0.1259 0.09981 0.0
H3319 H 0.26111 0.117 0.08514 0.0
C3320 C 0.28823 0.08951 0.0946 0.0
C3321 C 0.2994 0.08581 0.0853 0.0
C3322 C 0.28981 0.1096 0.0958 0.0
C3323 C 0.30174 0.1261 0.08736 0.0
C3324 C 0.31284 0.12225 0.078 0.0
H3325 H 0.32768 0.25595 0.07258 0.0
H3326 H 0.32859 0.22234 0.07356 0.0
C3327 C 0.31202 0.10241 0.07713 0.0
C3328 C 0.30312 0.14748 0.08843 0.0
H3329 H 0.27286 0.17151 0.09179 0.0
C3330 C 0.32345 0.16618 0.08803 0.0
C3331 C 0.28469 0.14966 0.08985 0.0
C3332 C 0.26218 0.13075 0.09018 0.0
C3333 C 0.3258 0.1868 0.08883 0.0
C3334 C 0.30724 0.18886 0.08975 0.0
C3335 C 0.28709 0.17017 0.09067 0.0
C3336 C 0.3079 0.20996 0.08946 0.0
C3337 C 0.34821 0.20599 0.08915 0.0
C3338 C 0.2953 0.21401 0.09769 0.0
C3339 C 0.29387 0.23262 0.09667 0.0
C3340 C 0.30529 0.24774 0.08754 0.0
C3341 C 0.3186 0.24431 0.07962 0.0
C3342 C 0.31941 0.22528 0.08034 0.0
H3343 H 0.35977 0.20172 0.09319 0.0
H3344 H 0.3536 0.21156 0.07967 0.0
H3345 H 0.3489 0.21944 0.0945 0.0
H3346 H 0.28626 0.20261 0.10484 0.0
H3347 H 0.28386 0.23524 0.10304 0.0
H3348 H 0.261 0.94969 0.92001 0.0
H3349 H 0.23062 0.91375 0.91661 0.0
H3350 H 0.19201 0.94187 0.90597 0.0
H3351 H 0.22395 0.97706 0.90621 0.0
H3352 H 0.19893 0.88986 0.92499 0.0
H3353 H 0.16736 0.90042 0.88183 0.0
H3354 H 0.19266 0.92133 0.88749 0.0
H3355 H 0.16768 0.92034 0.89165 0.0
C3356 C 0.24599 0.94798 0.91674 0.0
C3357 C 0.24428 0.96618 0.91419 0.0
C3358 C 0.22843 0.92736 0.9149 0.0
C3359 C 0.20845 0.92447 0.91094 0.0
C3360 C 0.20703 0.94295 0.90848 0.0
H3361 H 0.09501 0.80258 0.93055 0.0
H3362 H 0.12949 0.83573 0.93023 0.0
C3363 C 0.22509 0.96338 0.9093 0.0
C3364 C 0.1891 0.90241 0.90989 0.0
H3365 H 0.14064 0.87443 0.89573 0.0
C3366 C 0.18666 0.88637 0.9182 0.0
C3367 C 0.17285 0.89689 0.90094 0.0
C3368 C 0.17552 0.91064 0.88991 0.0
C3369 C 0.16878 0.86552 0.91785 0.0
C3370 C 0.15111 0.86118 0.91018 0.0
C3371 C 0.15363 0.87721 0.90185 0.0
C3372 C 0.12994 0.84055 0.91058 0.0
C3373 C 0.16998 0.84846 0.92529 0.0
C3374 C 0.11744 0.83235 0.89989 0.0
C3375 C 0.09661 0.81479 0.90043 0.0
C3376 C 0.08821 0.80429 0.91153 0.0
C3377 C 0.10103 0.81106 0.92199 0.0
C3378 C 0.12122 0.82965 0.92167 0.0
H3379 H 0.18678 0.85164 0.92572 0.0
H3380 H 0.16499 0.84891 0.93483 0.0
H3381 H 0.15985 0.83216 0.9214 0.0
H3382 H 0.12357 0.83958 0.89106 0.0
H3383 H 0.08716 0.8092 0.89214 0.0
H3384 H 0.22486 0.28117 0.89945 0.0
H3385 H 0.19328 0.28561 0.89924 0.0
H3386 H 0.22616 0.341 0.92278 0.0
H3387 H 0.25724 0.33558 0.92356 0.0
H3388 H 0.18904 0.3171 0.93134 0.0
H3389 H 0.17773 0.32398 0.88222 0.0
H3390 H 0.17806 0.29959 0.88494 0.0
H3391 H 0.2017 0.32513 0.88814 0.0
C3392 C 0.22515 0.29414 0.90465 0.0
C3393 C 0.24288 0.30742 0.91198 0.0
C3394 C 0.20734 0.29703 0.9043 0.0
C3395 C 0.20734 0.31381 0.91089 0.0
C3396 C 0.2257 0.32788 0.91766 0.0
H3397 H 0.09753 0.33229 0.92787 0.0
H3398 H 0.13405 0.33787 0.92659 0.0
C3399 C 0.2434 0.32479 0.91812 0.0
C3400 C 0.18749 0.31533 0.9117 0.0
H3401 H 0.14616 0.31233 0.89482 0.0
C3402 C 0.17971 0.3161 0.92333 0.0
C3403 C 0.17556 0.31474 0.90128 0.0
C3404 C 0.18387 0.31607 0.88846 0.0
C3405 C 0.15969 0.31472 0.92491 0.0
C3406 C 0.14713 0.31281 0.91451 0.0
C3407 C 0.15546 0.31321 0.90283 0.0
C3408 C 0.12511 0.30975 0.9154 0.0
C3409 C 0.15225 0.31477 0.93778 0.0
C3410 C 0.10806 0.2927 0.90911 0.0
C3411 C 0.08741 0.28995 0.90955 0.0
C3412 C 0.08323 0.30366 0.91665 0.0
C3413 C 0.10028 0.32101 0.92272 0.0
C3414 C 0.12108 0.32412 0.92204 0.0
H3415 H 0.15909 0.30794 0.94431 0.0
H3416 H 0.15788 0.33161 0.94058 0.0
H3417 H 0.13458 0.3056 0.93856 0.0
H3418 H 0.11074 0.28157 0.90377 0.0
H3419 H 0.07476 0.27726 0.9042 0.0
H3420 H 0.78608 0.82705 0.90266 0.0
H3421 H 0.78344 0.85949 0.90033 0.0
H3422 H 0.74072 0.84054 0.93138 0.0
H3423 H 0.74165 0.80696 0.9328 0.0
H3424 H 0.72598 0.85472 0.91527 0.0
H3425 H 0.81288 0.91361 0.9174 0.0
H3426 H 0.80666 0.89741 0.90391 0.0
H3427 H 0.80272 0.88524 0.91874 0.0
C3428 C 0.7764 0.83007 0.90907 0.0
C3429 C 0.76448 0.81493 0.9181 0.0
C3430 C 0.77496 0.84866 0.90779 0.0
C3431 C 0.76235 0.85295 0.91589 0.0
C3432 C 0.75065 0.83778 0.92504 0.0
H3433 H 0.73353 0.95442 0.93081 0.0
H3434 H 0.73402 0.92058 0.92974 0.0
C3435 C 0.75134 0.81873 0.92595 0.0
C3436 C 0.76061 0.87271 0.91461 0.0
H3437 H 0.78999 0.92713 0.91159 0.0
C3438 C 0.74005 0.87061 0.9147 0.0
C3439 C 0.77882 0.89353 0.91341 0.0
C3440 C 0.80152 0.89762 0.91345 0.0
C3441 C 0.73727 0.8886 0.91392 0.0
C3442 C 0.75559 0.9094 0.91326 0.0
C3443 C 0.77597 0.91137 0.91254 0.0
C3444 C 0.75433 0.92947 0.91366 0.0
C3445 C 0.71471 0.88496 0.91343 0.0
C3446 C 0.76628 0.94618 0.90535 0.0
C3447 C 0.76678 0.96578 0.90634 0.0
C3448 C 0.7552 0.969 0.91558 0.0
C3449 C 0.74272 0.95223 0.92368 0.0
C3450 C 0.74272 0.9328 0.92292 0.0
H3451 H 0.70344 0.86909 0.90933 0.0
H3452 H 0.70907 0.885 0.92286 0.0
H3453 H 0.71388 0.89763 0.90805 0.0
H3454 H 0.77543 0.94415 0.89813 0.0
H3455 H 0.77614 0.97843 0.89983 0.0
H3456 H 0.4619 0.43716 0.40967 0.0
H3457 H 0.49377 0.47311 0.41073 0.0
H3458 H 0.52611 0.44772 0.43248 0.0
H3459 H 0.49365 0.4123 0.43221 0.0
H3460 H 0.53252 0.48359 0.44177 0.0
H3461 H 0.54782 0.49635 0.39209 0.0
H3462 H 0.52384 0.49658 0.39636 0.0
H3463 H 0.52511 0.47241 0.39795 0.0
C3464 C 0.47596 0.43933 0.41456 0.0
C3465 C 0.47583 0.42186 0.42036 0.0
C3466 C 0.49418 0.45981 0.4151 0.0
C3467 C 0.51267 0.46307 0.42135 0.0
C3468 C 0.51223 0.44562 0.42743 0.0
H3469 H 0.64299 0.5605 0.4361 0.0
H3470 H 0.60685 0.52906 0.43628 0.0
C3471 C 0.49385 0.4253 0.42711 0.0
C3472 C 0.5322 0.4847 0.4221 0.0
H3473 H 0.57026 0.52588 0.40501 0.0
C3474 C 0.54082 0.49277 0.43371 0.0
C3475 C 0.54275 0.49712 0.41162 0.0
C3476 C 0.53446 0.49006 0.39882 0.0
C3477 C 0.55989 0.51249 0.43513 0.0
C3478 C 0.57104 0.52424 0.42463 0.0
C3479 C 0.56195 0.51669 0.41306 0.0
C3480 C 0.59261 0.54382 0.42529 0.0
C3481 C 0.5676 0.5206 0.4479 0.0
C3482 C 0.59684 0.56248 0.41888 0.0
C3483 C 0.61766 0.58014 0.41846 0.0
C3484 C 0.63459 0.57926 0.42427 0.0
C3485 C 0.63024 0.56112 0.43118 0.0
C3486 C 0.6095 0.54337 0.43151 0.0
H3487 H 0.55391 0.51459 0.45439 0.0
H3488 H 0.57827 0.51454 0.45105 0.0
H3489 H 0.57662 0.53842 0.44827 0.0
H3490 H 0.5841 0.56327 0.41406 0.0
H3491 H 0.62065 0.59427 0.41334 0.0
H3492 H 0.63573 0.10021 0.4361 0.0
H3493 H 0.60074 0.09813 0.4358 0.0
H3494 H 0.57879 0.04844 0.40833 0.0
H3495 H 0.61435 0.05135 0.40828 0.0
H3496 H 0.56934 0.07727 0.40179 0.0
H3497 H 0.54387 0.05735 0.44973 0.0
H3498 H 0.56971 0.08116 0.449 0.0
H3499 H 0.56646 0.05597 0.44361 0.0
C3500 C 0.6234 0.08895 0.42997 0.0
C3501 C 0.62779 0.07653 0.42187 0.0
C3502 C 0.60327 0.08742 0.42998 0.0
C3503 C 0.58694 0.07289 0.42217 0.0
C3504 C 0.59111 0.05976 0.41445 0.0
H3505 H 0.46217 0.062 0.40516 0.0
H3506 H 0.49307 0.05623 0.40552 0.0
C3507 C 0.61136 0.06142 0.41438 0.0
C3508 C 0.56635 0.07295 0.42128 0.0
H3509 H 0.52668 0.07332 0.43826 0.0
C3510 C 0.55993 0.07622 0.40976 0.0
C3511 C 0.55382 0.07126 0.43165 0.0
C3512 C 0.55872 0.066 0.44416 0.0
C3513 C 0.54217 0.07914 0.40839 0.0
C3514 C 0.53018 0.07841 0.41881 0.0
C3515 C 0.53607 0.07427 0.43029 0.0
C3516 C 0.51173 0.08229 0.4181 0.0
C3517 C 0.5371 0.08401 0.39586 0.0
C3518 C 0.5117 0.09852 0.42524 0.0
C3519 C 0.49397 0.10158 0.42515 0.0
C3520 C 0.47616 0.0888 0.41773 0.0
C3521 C 0.47606 0.07247 0.41066 0.0
C3522 C 0.49372 0.06925 0.41082 0.0
H3523 H 0.55104 0.08981 0.38956 0.0
H3524 H 0.52356 0.06922 0.39189 0.0
H3525 H 0.53231 0.09636 0.39646 0.0
H3526 H 0.52529 0.10864 0.43102 0.0
H3527 H 0.49396 0.11362 0.4311 0.0
H3528 H 0.93922 0.40754 0.43307 0.0
H3529 H 0.94507 0.44415 0.43259 0.0
H3530 H 0.9997 0.46346 0.40887 0.0
H3531 H 0.99271 0.42638 0.40863 0.0
H3532 H 0.9782 0.47985 0.44048 0.0
H3533 H 0.96915 0.48822 0.39098 0.0
H3534 H 0.96788 0.46443 0.39713 0.0
H3535 H 0.99341 0.48777 0.39413 0.0
C3536 C 0.95189 0.41945 0.42736 0.0
C3537 C 0.96476 0.414 0.42034 0.0
C3538 C 0.9555 0.44044 0.42726 0.0
C3539 C 0.97254 0.45654 0.42045 0.0
C3540 C 0.98602 0.45124 0.41385 0.0
H3541 H 0.00118 0.58926 0.40926 0.0
H3542 H 0.00569 0.55759 0.41016 0.0
C3543 C 0.98208 0.43011 0.41375 0.0
C3544 C 0.97661 0.47896 0.42082 0.0
H3545 H 0.98049 0.5198 0.40311 0.0
C3546 C 0.97859 0.48853 0.43229 0.0
C3547 C 0.97798 0.49073 0.41014 0.0
C3548 C 0.97683 0.48214 0.39743 0.0
C3549 C 0.98114 0.50913 0.43342 0.0
C3550 C 0.98095 0.52023 0.42278 0.0
C3551 C 0.98013 0.51115 0.4113 0.0
C3552 C 0.98008 0.54045 0.42328 0.0
C3553 C 0.98436 0.51882 0.44601 0.0
C3554 C 0.96447 0.54158 0.43046 0.0
C3555 C 0.96214 0.55971 0.43004 0.0
C3556 C 0.97475 0.57664 0.42206 0.0
C3557 C 0.99093 0.57605 0.41523 0.0
C3558 C 0.99349 0.558 0.41576 0.0
H3559 H 0.99281 0.513 0.45205 0.0
H3560 H 0.99378 0.53664 0.44574 0.0
H3561 H 0.96846 0.51374 0.45019 0.0
H3562 H 0.95351 0.52815 0.43608 0.0
H3563 H 0.95009 0.56026 0.43572 0.0
H3564 H 0.7457 0.15742 0.2345 0.0
H3565 H 0.78129 0.18951 0.2343 0.0
H3566 H 0.80379 0.15946 0.25996 0.0
H3567 H 0.76758 0.12787 0.26073 0.0
H3568 H 0.81653 0.19719 0.26721 0.0
H3569 H 0.83565 0.20439 0.21822 0.0
H3570 H 0.81073 0.20396 0.22024 0.0
H3571 H 0.81286 0.18081 0.22449 0.0
C3572 C 0.75826 0.15786 0.24018 0.0
C3573 C 0.75385 0.14077 0.24805 0.0
C3574 C 0.77874 0.17597 0.23984 0.0
C3575 C 0.79543 0.1769 0.24699 0.0
C3576 C 0.7912 0.15921 0.2544 0.0
H3577 H 0.9233 0.28881 0.26213 0.0
H3578 H 0.89253 0.25211 0.26168 0.0
C3579 C 0.77058 0.14121 0.25485 0.0
C3580 C 0.81662 0.19701 0.24754 0.0
H3581 H 0.85487 0.23714 0.22998 0.0
C3582 C 0.82495 0.20585 0.25906 0.0
C3583 C 0.82806 0.2081 0.23694 0.0
C3584 C 0.82144 0.19864 0.22431 0.0
C3585 C 0.84352 0.22602 0.26029 0.0
C3586 C 0.85417 0.23778 0.24965 0.0
C3587 C 0.84642 0.22846 0.23814 0.0
C3588 C 0.87295 0.25995 0.25012 0.0
C3589 C 0.85105 0.23437 0.27302 0.0
C3590 C 0.87261 0.27642 0.24337 0.0
C3591 C 0.89037 0.29718 0.24337 0.0
C3592 C 0.90849 0.30204 0.25045 0.0
C3593 C 0.90911 0.28555 0.25697 0.0
C3594 C 0.89153 0.26464 0.25676 0.0
H3595 H 0.8373 0.22847 0.27947 0.0
H3596 H 0.86173 0.22838 0.27628 0.0
H3597 H 0.86011 0.25207 0.27338 0.0
H3598 H 0.85864 0.27319 0.23801 0.0
H3599 H 0.89006 0.30938 0.23771 0.0
H3600 H 0.89915 0.62053 0.23307 0.0
H3601 H 0.86736 0.62458 0.23342 0.0
H3602 H 0.89732 0.67419 0.2608 0.0
H3603 H 0.92873 0.66919 0.26087 0.0
H3604 H 0.85892 0.64764 0.26746 0.0
H3605 H 0.85374 0.66688 0.21941 0.0
H3606 H 0.85426 0.64226 0.22018 0.0
H3607 H 0.87713 0.66691 0.22543 0.0
C3608 C 0.89878 0.63216 0.23921 0.0
C3609 C 0.91581 0.64393 0.2473 0.0
C3610 C 0.88085 0.63485 0.23922 0.0
C3611 C 0.88 0.64994 0.247 0.0
C3612 C 0.89757 0.66245 0.25471 0.0
H3613 H 0.76693 0.66287 0.26444 0.0
H3614 H 0.80387 0.66931 0.26384 0.0
C3615 C 0.91545 0.65958 0.25478 0.0
C3616 C 0.85999 0.65111 0.24791 0.0
H3617 H 0.82054 0.65182 0.23091 0.0
C3618 C 0.85063 0.64872 0.25947 0.0
C3619 C 0.84934 0.65304 0.23753 0.0
C3620 C 0.85931 0.65767 0.22498 0.0
C3621 C 0.83031 0.6467 0.26087 0.0
C3622 C 0.81905 0.64734 0.25042 0.0
C3623 C 0.82891 0.65084 0.23891 0.0
C3624 C 0.79676 0.64356 0.25106 0.0
C3625 C 0.8209 0.64305 0.27352 0.0
C3626 C 0.7806 0.62742 0.24383 0.0
C3627 C 0.75972 0.62405 0.24402 0.0
C3628 C 0.75442 0.63635 0.25168 0.0
C3629 C 0.77056 0.65273 0.25877 0.0
C3630 C 0.79159 0.65634 0.25846 0.0
H3631 H 0.82802 0.63602 0.27971 0.0
H3632 H 0.82419 0.65865 0.27743 0.0
H3633 H 0.80335 0.63221 0.27324 0.0
H3634 H 0.78419 0.61749 0.23795 0.0
H3635 H 0.74776 0.61205 0.23802 0.0
H3636 H 0.43433 0.30679 0.23237 0.0
H3637 H 0.43005 0.27087 0.23261 0.0
H3638 H 0.38027 0.25121 0.25988 0.0
H3639 H 0.38549 0.28771 0.26005 0.0
H3640 H 0.40677 0.23939 0.26662 0.0
H3641 H 0.38794 0.21494 0.21855 0.0
H3642 H 0.41252 0.2401 0.21934 0.0
H3643 H 0.38782 0.23828 0.22452 0.0
C3644 C 0.42258 0.29477 0.23845 0.0
C3645 C 0.41084 0.30004 0.24655 0.0
C3646 C 0.41977 0.2741 0.23839 0.0
C3647 C 0.40459 0.25814 0.24613 0.0
C3648 C 0.39208 0.26322 0.25382 0.0
H3649 H 0.39138 0.13214 0.26347 0.0
H3650 H 0.38525 0.16282 0.26291 0.0
C3651 C 0.39506 0.28401 0.25395 0.0
C3652 C 0.40345 0.23697 0.24707 0.0
H3653 H 0.40315 0.19695 0.23012 0.0
C3654 C 0.40583 0.23006 0.25864 0.0
C3655 C 0.40169 0.22443 0.2367 0.0
C3656 C 0.3971 0.22973 0.22412 0.0
C3657 C 0.40809 0.21191 0.26007 0.0
C3658 C 0.40755 0.20002 0.24963 0.0
C3659 C 0.40403 0.20629 0.23811 0.0
C3660 C 0.41133 0.18152 0.25034 0.0
C3661 C 0.41202 0.20633 0.2727 0.0
C3662 C 0.42762 0.18154 0.24324 0.0
C3663 C 0.43084 0.16392 0.24342 0.0
C3664 C 0.41822 0.1462 0.25092 0.0
C3665 C 0.40175 0.14599 0.25792 0.0
C3666 C 0.39832 0.16352 0.25763 0.0
H3667 H 0.41838 0.22034 0.27898 0.0
H3668 H 0.39667 0.19342 0.27653 0.0
H3669 H 0.42356 0.20046 0.27236 0.0
H3670 H 0.43773 0.19512 0.23745 0.0
H3671 H 0.44294 0.16397 0.2375 0.0
H3672 H 0.30593 0.89404 0.76581 0.0
H3673 H 0.27101 0.86103 0.76576 0.0
H3674 H 0.2474 0.8894 0.7397 0.0
H3675 H 0.28301 0.92195 0.73915 0.0
H3676 H 0.23339 0.85437 0.7726 0.0
H3677 H 0.22802 0.8333 0.72355 0.0
H3678 H 0.25154 0.85564 0.73007 0.0
H3679 H 0.22883 0.85839 0.72604 0.0
C3680 C 0.29348 0.89287 0.75975 0.0
C3681 C 0.29738 0.90999 0.75201 0.0
C3682 C 0.27342 0.87417 0.75987 0.0
C3683 C 0.2566 0.87245 0.75252 0.0
C3684 C 0.26026 0.88998 0.74514 0.0
H3685 H 0.1273 0.76196 0.74262 0.0
H3686 H 0.15827 0.79859 0.74278 0.0
C3687 C 0.28053 0.9086 0.74487 0.0
C3688 C 0.23518 0.85252 0.75302 0.0
H3689 H 0.19728 0.81178 0.73563 0.0
C3690 C 0.22555 0.84501 0.7645 0.0
C3691 C 0.2246 0.84047 0.74246 0.0
C3692 C 0.23384 0.84725 0.72983 0.0
C3693 C 0.20599 0.82567 0.76573 0.0
C3694 C 0.19597 0.81321 0.75521 0.0
C3695 C 0.20512 0.82112 0.74371 0.0
C3696 C 0.17653 0.79155 0.75587 0.0
C3697 C 0.19616 0.81904 0.77827 0.0
C3698 C 0.17642 0.77542 0.76319 0.0
C3699 C 0.15872 0.75462 0.76312 0.0
C3700 C 0.1412 0.74943 0.75543 0.0
C3701 C 0.14095 0.76559 0.74838 0.0
C3702 C 0.15858 0.78645 0.74851 0.0
H3703 H 0.2012 0.83324 0.78428 0.0
H3704 H 0.17834 0.80989 0.77784 0.0
H3705 H 0.20178 0.80874 0.78258 0.0
H3706 H 0.19021 0.77874 0.76873 0.0
H3707 H 0.15885 0.7425 0.76894 0.0
H3708 H 0.29579 0.40253 0.74133 0.0
H3709 H 0.26013 0.39935 0.74195 0.0
H3710 H 0.28367 0.45119 0.76807 0.0
H3711 H 0.31924 0.45443 0.76735 0.0
H3712 H 0.23269 0.3899 0.76173 0.0
H3713 H 0.25515 0.47018 0.74302 0.0
H3714 H 0.27121 0.45762 0.741 0.0
H3715 H 0.27211 0.47072 0.75523 0.0
C3716 C 0.29337 0.41351 0.74698 0.0
C3717 C 0.31036 0.42924 0.75395 0.0
C3718 C 0.27301 0.41159 0.74741 0.0
C3719 C 0.26927 0.4252 0.75493 0.0
C3720 C 0.28628 0.44087 0.76195 0.0
H3721 H 0.16056 0.44332 0.76865 0.0
H3722 H 0.19444 0.44301 0.77002 0.0
C3723 C 0.30664 0.44284 0.76148 0.0
C3724 C 0.24751 0.42277 0.75564 0.0
H3725 H 0.22092 0.45037 0.75171 0.0
C3726 C 0.23002 0.40306 0.75943 0.0
C3727 C 0.24398 0.43989 0.75268 0.0
C3728 C 0.26155 0.4608 0.74766 0.0
C3729 C 0.20922 0.40024 0.76047 0.0
C3730 C 0.20589 0.41755 0.75755 0.0
C3731 C 0.22342 0.43715 0.7539 0.0
C3732 C 0.18446 0.41591 0.75782 0.0
C3733 C 0.1912 0.37901 0.76497 0.0
C3734 C 0.16754 0.40077 0.75054 0.0
C3735 C 0.14821 0.40097 0.74977 0.0
C3736 C 0.1458 0.41676 0.75594 0.0
C3737 C 0.1624 0.43146 0.7635 0.0
C3738 C 0.18161 0.43111 0.76438 0.0
H3739 H 0.19739 0.37011 0.77033 0.0
H3740 H 0.17976 0.38126 0.77073 0.0
H3741 H 0.18229 0.36893 0.75701 0.0
H3742 H 0.1695 0.38923 0.74515 0.0
H3743 H 0.13541 0.38928 0.74404 0.0
H3744 H 0.66383 0.76936 0.74298 0.0
H3745 H 0.66463 0.80393 0.74332 0.0
H3746 H 0.61328 0.77842 0.76984 0.0
H3747 H 0.61322 0.74432 0.76985 0.0
H3748 H 0.63449 0.81206 0.73665 0.0
H3749 H 0.65263 0.83495 0.78515 0.0
H3750 H 0.65521 0.81337 0.77851 0.0
H3751 H 0.62941 0.80879 0.78363 0.0
C3752 C 0.65286 0.77132 0.74891 0.0
C3753 C 0.63793 0.75413 0.75606 0.0
C3754 C 0.65333 0.791 0.74914 0.0
C3755 C 0.63917 0.7939 0.7567 0.0
C3756 C 0.62471 0.77682 0.76414 0.0
H3757 H 0.60059 0.88881 0.76733 0.0
H3758 H 0.60409 0.85661 0.76677 0.0
C3759 C 0.62435 0.75721 0.76395 0.0
C3760 C 0.63841 0.81415 0.75617 0.0
H3761 H 0.63802 0.85321 0.77375 0.0
C3762 C 0.63534 0.82108 0.74476 0.0
C3763 C 0.63984 0.82616 0.76674 0.0
C3764 C 0.64469 0.82055 0.77917 0.0
C3765 C 0.63265 0.83903 0.74366 0.0
C3766 C 0.63343 0.8507 0.75425 0.0
C3767 C 0.6371 0.84411 0.76564 0.0
C3768 C 0.63036 0.86967 0.7538 0.0
C3769 C 0.62817 0.84475 0.7312 0.0
C3770 C 0.64385 0.88772 0.74666 0.0
C3771 C 0.64147 0.9059 0.74676 0.0
C3772 C 0.62555 0.9063 0.75398 0.0
C3773 C 0.61233 0.88846 0.76127 0.0
C3774 C 0.61454 0.87021 0.76108 0.0
H3775 H 0.62181 0.83088 0.72482 0.0
H3776 H 0.6164 0.8503 0.73187 0.0
H3777 H 0.64328 0.85791 0.72728 0.0
H3778 H 0.6566 0.888 0.74126 0.0
H3779 H 0.65228 0.91978 0.74136 0.0
H3780 H 0.59426 0.6197 0.59542 0.0
H3781 H 0.56218 0.58375 0.59506 0.0
H3782 H 0.5336 0.60545 0.56797 0.0
H3783 H 0.56602 0.64084 0.56792 0.0
H3784 H 0.52382 0.5728 0.60166 0.0
H3785 H 0.51885 0.54953 0.55335 0.0
H3786 H 0.54245 0.57234 0.55962 0.0
H3787 H 0.52001 0.57495 0.55446 0.0
C3788 C 0.58113 0.61658 0.58933 0.0
C3789 C 0.58208 0.63305 0.58203 0.0
C3790 C 0.56287 0.59611 0.5891 0.0
C3791 C 0.54549 0.59174 0.58139 0.0
C3792 C 0.54692 0.60813 0.57377 0.0
H3793 H 0.41281 0.49715 0.57164 0.0
H3794 H 0.44903 0.52853 0.57181 0.0
C3795 C 0.56523 0.62849 0.57393 0.0
C3796 C 0.52515 0.5708 0.5821 0.0
H3797 H 0.4857 0.53125 0.56478 0.0
C3798 C 0.51558 0.56366 0.5936 0.0
C3799 C 0.51452 0.55855 0.57162 0.0
C3800 C 0.52465 0.56414 0.5591 0.0
C3801 C 0.49516 0.54545 0.59485 0.0
C3802 C 0.48401 0.53378 0.58431 0.0
C3803 C 0.494 0.54039 0.57285 0.0
C3804 C 0.46178 0.51509 0.58484 0.0
C3805 C 0.48553 0.53951 0.60744 0.0
C3806 C 0.45678 0.49706 0.59212 0.0
C3807 C 0.43588 0.47941 0.59229 0.0
C3808 C 0.41968 0.4795 0.58518 0.0
C3809 C 0.4248 0.4972 0.57766 0.0
C3810 C 0.44557 0.51495 0.57761 0.0
H3811 H 0.4926 0.55355 0.61371 0.0
H3812 H 0.468 0.53287 0.60708 0.0
H3813 H 0.48872 0.52711 0.61132 0.0
H3814 H 0.46911 0.49646 0.5975 0.0
H3815 H 0.43242 0.46558 0.59786 0.0
H3816 H 0.43652 0.00184 0.59406 0.0
H3817 H 0.47197 0.0046 0.59377 0.0
H3818 H 0.44805 0.95171 0.56828 0.0
H3819 H 0.41319 0.94997 0.56804 0.0
H3820 H 0.48265 0.97782 0.60134 0.0
H3821 H 0.50341 0.98995 0.55246 0.0
H3822 H 0.48109 0.9918 0.55857 0.0
H3823 H 0.47795 0.96606 0.55448 0.0
C3824 C 0.43904 0.99099 0.58834 0.0
C3825 C 0.42209 0.97514 0.58144 0.0
C3826 C 0.45923 0.99256 0.58815 0.0
C3827 C 0.46283 0.97849 0.58092 0.0
C3828 C 0.44596 0.96312 0.5737 0.0
H3829 H 0.55778 0.93985 0.57325 0.0
H3830 H 0.52592 0.94392 0.57319 0.0
C3831 C 0.42589 0.96177 0.57379 0.0
C3832 C 0.48359 0.97869 0.58168 0.0
H3833 H 0.5222 0.97655 0.56457 0.0
C3834 C 0.49133 0.97767 0.59329 0.0
C3835 C 0.49526 0.97894 0.57121 0.0
C3836 C 0.4891 0.982 0.5585 0.0
C3837 C 0.5097 0.97578 0.59471 0.0
C3838 C 0.5208 0.97495 0.58423 0.0
C3839 C 0.51348 0.97672 0.57262 0.0
C3840 C 0.53975 0.97187 0.58498 0.0
C3841 C 0.51657 0.97416 0.60748 0.0
C3842 C 0.55814 0.98615 0.59165 0.0
C3843 C 0.57608 0.98338 0.59198 0.0
C3844 C 0.57593 0.96634 0.58563 0.0
C3845 C 0.55782 0.95245 0.57871 0.0
C3846 C 0.53979 0.955 0.57851 0.0
H3847 H 0.50275 0.96728 0.61391 0.0
H3848 H 0.52419 0.96413 0.6077 0.0
H3849 H 0.52841 0.99048 0.61076 0.0
H3850 H 0.55879 0.99966 0.59642 0.0
H3851 H 0.59019 0.9947 0.59705 0.0
H3852 H 0.07158 0.6277 0.59579 0.0
H3853 H 0.06973 0.59274 0.59422 0.0
H3854 H 0.10863 0.61439 0.56157 0.0
H3855 H 0.11236 0.6499 0.56403 0.0
H3856 H 0.05308 0.56271 0.57855 0.0
H3857 H 0.14007 0.59101 0.57776 0.0
H3858 H 0.13008 0.60936 0.57899 0.0
H3859 H 0.13236 0.5996 0.56428 0.0
C3860 C 0.08024 0.62505 0.58854 0.0
C3861 C 0.09272 0.64154 0.58028 0.0
C3862 C 0.079 0.60504 0.58753 0.0
C3863 C 0.08945 0.60089 0.57792 0.0
C3864 C 0.10117 0.61728 0.56937 0.0
H3865 H 0.10459 0.48967 0.56328 0.0
H3866 H 0.10243 0.52231 0.56075 0.0
C3867 C 0.10324 0.63756 0.57073 0.0
C3868 C 0.08757 0.57931 0.57673 0.0
H3869 H 0.11673 0.55422 0.57288 0.0
C3870 C 0.06708 0.56087 0.57752 0.0
C3871 C 0.10564 0.57665 0.57492 0.0
C3872 C 0.12828 0.59524 0.57402 0.0
C3873 C 0.06426 0.54005 0.57685 0.0
C3874 C 0.08251 0.53752 0.57567 0.0
C3875 C 0.10276 0.55593 0.57425 0.0
C3876 C 0.08146 0.51626 0.57632 0.0
C3877 C 0.04166 0.52116 0.57697 0.0
C3878 C 0.07016 0.5016 0.58576 0.0
C3879 C 0.07076 0.4825 0.58688 0.0
C3880 C 0.0837 0.4784 0.57904 0.0
C3881 C 0.09487 0.49283 0.56958 0.0
C3882 C 0.09359 0.51145 0.56814 0.0
H3883 H 0.03019 0.52554 0.57291 0.0
H3884 H 0.04043 0.50725 0.57185 0.0
H3885 H 0.0366 0.51624 0.58656 0.0
H3886 H 0.06137 0.50513 0.59251 0.0
H3887 H 0.06188 0.47139 0.59417 0.0
loop_
_geom_bond_atom_site_label_1
_geom_bond_atom_site_label_2
_geom_bond_distance
_geom_bond_site_symmetry_2
_ccdc_geom_bond_type
Mn0 O5 2.095 . S
Mn0 O15 2.162 . S
Mn0 O16 2.297 . S
Mn0 O24 2.385 1_455 S
Mn0 O25 2.209 . S
Mn0 O26 2.094 . S
Mn1 O6 2.121 . S
Mn1 N8 2.257 . S
Mn1 N17 2.282 1_455 S
Mn1 O25 2.215 . S
Mn1 O27 2.117 . S
C2 O24 1.234 . S
C2 O25 1.283 1_655 S
C3 O15 1.281 . S
C3 O16 1.236 . S
C4 O26 1.240 . S
C4 O27 1.264 . S
O5 Mn0 2.095 . S
O5 C14 1.250 . S
O6 Mn1 2.121 . S
O6 C14 1.258 . S
C7 N8 1.326 . S
C7 C11 1.460 . S
C7 H13 0.929 . S
N8 Mn1 2.257 . S
N8 C7 1.326 . S
N8 C12 1.362 . S
C9 C10 1.258 1_655 S
C9 C12 1.431 1_655 S
C9 C29 1.449 . S
C10 C9 1.258 1_455 S
C10 C11 1.477 . S
C10 H30 0.931 . S
C11 C7 1.460 . S
C11 C10 1.477 . S
C11 H31 0.930 . S
C12 N8 1.362 . S
C12 C9 1.431 1_455 S
C12 C22 1.476 1_455 S
H13 C7 0.929 . S
C14 O5 1.250 . S
C14 O6 1.258 . S
O15 Mn0 2.162 . S
O15 C3 1.281 . S
O16 Mn0 2.297 . S
O16 C3 1.236 . S
N17 Mn1 2.282 1_655 S
N17 C18 1.328 . S
N17 C22 1.318 . S
C18 N17 1.328 . S
C18 C19 1.457 . S
C18 H23 0.929 . S
C19 C18 1.457 . S
C19 C20 1.291 . S
C19 H32 0.931 . S
C20 C19 1.291 . S
C20 C21 1.373 . S
C20 H33 0.929 . S
C21 C20 1.373 . S
C21 C22 1.396 . S
C21 C28 1.403 . S
C22 C12 1.476 1_655 S
C22 N17 1.318 . S
C22 C21 1.396 . S
H23 C18 0.929 . S
O24 Mn0 2.385 1_655 S
O24 C2 1.234 . S
O25 Mn0 2.209 . S
O25 Mn1 2.215 . S
O25 C2 1.283 1_455 S
O26 Mn0 2.094 . S
O26 C4 1.240 . S
O27 Mn1 2.117 . S
O27 C4 1.264 . S
C28 C21 1.403 . S
C28 C29 1.399 . S
C28 H34 0.929 . S
C29 C9 1.449 . S
C29 C28 1.399 . S
C29 H35 0.930 . S
H30 C10 0.931 . S
H31 C11 0.930 . S
H32 C19 0.931 . S
H33 C20 0.929 . S
H34 C28 0.929 . S
H35 C29 0.930 . S
Mn36 O41 2.095 . S
Mn36 O51 2.162 . S
Mn36 O52 2.297 . S
Mn36 O60 2.385 . S
Mn36 O61 2.209 . S
Mn36 O62 2.094 . S
Mn37 O42 2.121 . S
Mn37 N44 2.257 . S
Mn37 N53 2.282 . S
Mn37 O61 2.215 . S
Mn37 O63 2.117 . S
C38 O60 1.234 . S
C38 O61 1.283 . S
C39 O51 1.281 . S
C39 O52 1.236 . S
C40 O62 1.240 . S
C40 O63 1.264 . S
O41 Mn36 2.095 . S
O41 C50 1.250 . S
O42 Mn37 2.121 . S
O42 C50 1.258 . S
C43 N44 1.326 . S
C43 C47 1.460 . S
C43 H49 0.929 . S
N44 Mn37 2.257 . S
N44 C43 1.326 . S
N44 C48 1.362 . S
C45 C46 1.258 . S
C45 C48 1.431 . S
C45 C65 1.449 . S
C46 C45 1.258 . S
C46 C47 1.477 . S
C46 H66 0.931 . S
C47 C43 1.460 . S
C47 C46 1.477 . S
C47 H67 0.930 . S
C48 N44 1.362 . S
C48 C45 1.431 . S
C48 C58 1.476 . S
H49 C43 0.929 . S
C50 O41 1.250 . S
C50 O42 1.258 . S
O51 Mn36 2.162 . S
O51 C39 1.281 . S
O52 Mn36 2.297 . S
O52 C39 1.236 . S
N53 Mn37 2.282 . S
N53 C54 1.328 . S
N53 C58 1.318 . S
C54 N53 1.328 . S
C54 C55 1.457 . S
C54 H59 0.929 . S
C55 C54 1.457 . S
C55 C56 1.291 . S
C55 H68 0.931 . S
C56 C55 1.291 . S
C56 C57 1.373 . S
C56 H69 0.929 . S
C57 C56 1.373 . S
C57 C58 1.396 . S
C57 C64 1.403 . S
C58 C48 1.476 . S
C58 N53 1.318 . S
C58 C57 1.396 . S
H59 C54 0.929 . S
O60 Mn36 2.385 . S
O60 C38 1.234 . S
O61 Mn36 2.209 . S
O61 Mn37 2.215 . S
O61 C38 1.283 . S
O62 Mn36 2.094 . S
O62 C40 1.240 . S
O63 Mn37 2.117 . S
O63 C40 1.264 . S
C64 C57 1.403 . S
C64 C65 1.399 . S
C64 H70 0.929 . S
C65 C45 1.449 . S
C65 C64 1.399 . S
C65 H71 0.930 . S
H66 C46 0.931 . S
H67 C47 0.930 . S
H68 C55 0.931 . S
H69 C56 0.929 . S
H70 C64 0.929 . S
H71 C65 0.930 . S
Mn72 O77 2.095 1_545 S
Mn72 O87 2.162 . S
Mn72 O88 2.297 . S
Mn72 O96 2.385 . S
Mn72 O97 2.209 . S
Mn72 O98 2.094 . S
Mn73 O78 2.121 1_545 S
Mn73 N80 2.257 . S
Mn73 N89 2.282 . S
Mn73 O97 2.215 . S
Mn73 O99 2.117 . S
C74 O96 1.234 . S
C74 O97 1.283 . S
C75 O87 1.281 . S
C75 O88 1.236 . S
C76 O98 1.240 . S
C76 O99 1.264 . S
O77 Mn72 2.095 1_565 S
O77 C86 1.250 . S
O78 Mn73 2.121 1_565 S
O78 C86 1.258 . S
C79 N80 1.326 . S
C79 C83 1.460 . S
C79 H85 0.929 . S
N80 Mn73 2.257 . S
N80 C79 1.326 . S
N80 C84 1.362 . S
C81 C82 1.258 . S
C81 C84 1.431 . S
C81 C101 1.449 . S
C82 C81 1.258 . S
C82 C83 1.477 . S
C82 H102 0.931 . S
C83 C79 1.460 . S
C83 C82 1.477 . S
C83 H103 0.930 . S
C84 N80 1.362 . S
C84 C81 1.431 . S
C84 C94 1.476 . S
H85 C79 0.929 . S
C86 O77 1.250 . S
C86 O78 1.258 . S
O87 Mn72 2.162 . S
O87 C75 1.281 . S
O88 Mn72 2.297 . S
O88 C75 1.236 . S
N89 Mn73 2.282 . S
N89 C90 1.328 . S
N89 C94 1.318 . S
C90 N89 1.328 . S
C90 C91 1.457 . S
C90 H95 0.929 . S
C91 C90 1.457 . S
C91 C92 1.291 . S
C91 H104 0.931 . S
C92 C91 1.291 . S
C92 C93 1.373 . S
C92 H105 0.929 . S
C93 C92 1.373 . S
C93 C94 1.396 . S
C93 C100 1.403 . S
C94 C84 1.476 . S
C94 N89 1.318 . S
C94 C93 1.396 . S
H95 C90 0.929 . S
O96 Mn72 2.385 . S
O96 C74 1.234 . S
O97 Mn72 2.209 . S
O97 Mn73 2.215 . S
O97 C74 1.283 . S
O98 Mn72 2.094 . S
O98 C76 1.240 . S
O99 Mn73 2.117 . S
O99 C76 1.264 . S
C100 C93 1.403 . S
C100 C101 1.399 . S
C100 H106 0.929 . S
C101 C81 1.449 . S
C101 C100 1.399 . S
C101 H107 0.930 . S
H102 C82 0.931 . S
H103 C83 0.930 . S
H104 C91 0.931 . S
H105 C92 0.929 . S
H106 C100 0.929 . S
H107 C101 0.930 . S
Mn108 O113 2.095 . S
Mn108 O123 2.162 . S
Mn108 O124 2.297 . S
Mn108 O132 2.385 1_545 S
Mn108 O133 2.209 . S
Mn108 O134 2.094 . S
Mn109 O114 2.121 . S
Mn109 N116 2.257 . S
Mn109 N125 2.282 1_545 S
Mn109 O133 2.215 . S
Mn109 O135 2.117 . S
C110 O132 1.234 . S
C110 O133 1.283 1_565 S
C111 O123 1.281 . S
C111 O124 1.236 . S
C112 O134 1.240 . S
C112 O135 1.264 . S
O113 Mn108 2.095 . S
O113 C122 1.250 . S
O114 Mn109 2.121 . S
O114 C122 1.258 . S
C115 N116 1.326 . S
C115 C119 1.460 . S
C115 H121 0.929 . S
N116 Mn109 2.257 . S
N116 C115 1.326 . S
N116 C120 1.362 . S
C117 C118 1.258 1_565 S
C117 C120 1.431 1_565 S
C117 C137 1.449 . S
C118 C117 1.258 1_545 S
C118 C119 1.477 . S
C118 H138 0.931 . S
C119 C115 1.460 . S
C119 C118 1.477 . S
C119 H139 0.930 . S
C120 N116 1.362 . S
C120 C117 1.431 1_545 S
C120 C130 1.476 1_545 S
H121 C115 0.929 . S
C122 O113 1.250 . S
C122 O114 1.258 . S
O123 Mn108 2.162 . S
O123 C111 1.281 . S
O124 Mn108 2.297 . S
O124 C111 1.236 . S
N125 Mn109 2.282 1_565 S
N125 C126 1.328 . S
N125 C130 1.318 . S
C126 N125 1.328 . S
C126 C127 1.457 . S
C126 H131 0.929 . S
C127 C126 1.457 . S
C127 C128 1.291 . S
C127 H140 0.931 . S
C128 C127 1.291 . S
C128 C129 1.373 . S
C128 H141 0.929 . S
C129 C128 1.373 . S
C129 C130 1.396 . S
C129 C136 1.403 . S
C130 C120 1.476 1_565 S
C130 N125 1.318 . S
C130 C129 1.396 . S
H131 C126 0.929 . S
O132 Mn108 2.385 1_565 S
O132 C110 1.234 . S
O133 Mn108 2.209 . S
O133 Mn109 2.215 . S
O133 C110 1.283 1_545 S
O134 Mn108 2.094 . S
O134 C112 1.240 . S
O135 Mn109 2.117 . S
O135 C112 1.264 . S
C136 C129 1.403 . S
C136 C137 1.399 . S
C136 H142 0.929 . S
C137 C117 1.449 . S
C137 C136 1.399 . S
C137 H143 0.930 . S
H138 C118 0.931 . S
H139 C119 0.930 . S
H140 C127 0.931 . S
H141 C128 0.929 . S
H142 C136 0.929 . S
H143 C137 0.930 . S
Mn144 O149 2.095 1_455 S
Mn144 O159 2.162 . S
Mn144 O160 2.297 . S
Mn144 O168 2.385 . S
Mn144 O169 2.209 . S
Mn144 O170 2.094 . S
Mn145 O150 2.121 1_455 S
Mn145 N152 2.257 . S
Mn145 N161 2.282 . S
Mn145 O169 2.215 . S
Mn145 O171 2.117 . S
C146 O168 1.234 . S
C146 O169 1.283 . S
C147 O159 1.281 . S
C147 O160 1.236 . S
C148 O170 1.240 . S
C148 O171 1.264 . S
O149 Mn144 2.095 1_655 S
O149 C158 1.250 . S
O150 Mn145 2.121 1_655 S
O150 C158 1.258 . S
C151 N152 1.326 . S
C151 C155 1.460 . S
C151 H157 0.929 . S
N152 Mn145 2.257 . S
N152 C151 1.326 . S
N152 C156 1.362 . S
C153 C154 1.258 . S
C153 C156 1.431 . S
C153 C173 1.449 . S
C154 C153 1.258 . S
C154 C155 1.477 . S
C154 H174 0.931 . S
C155 C151 1.460 . S
C155 C154 1.477 . S
C155 H175 0.930 . S
C156 N152 1.362 . S
C156 C153 1.431 . S
C156 C166 1.476 . S
H157 C151 0.929 . S
C158 O149 1.250 . S
C158 O150 1.258 . S
O159 Mn144 2.162 . S
O159 C147 1.281 . S
O160 Mn144 2.297 . S
O160 C147 1.236 . S
N161 Mn145 2.282 . S
N161 C162 1.328 . S
N161 C166 1.318 . S
C162 N161 1.328 . S
C162 C163 1.457 . S
C162 H167 0.929 . S
C163 C162 1.457 . S
C163 C164 1.291 . S
C163 H176 0.931 . S
C164 C163 1.291 . S
C164 C165 1.373 . S
C164 H177 0.929 . S
C165 C164 1.373 . S
C165 C166 1.396 . S
C165 C172 1.403 . S
C166 C156 1.476 . S
C166 N161 1.318 . S
C166 C165 1.396 . S
H167 C162 0.929 . S
O168 Mn144 2.385 . S
O168 C146 1.234 . S
O169 Mn144 2.209 . S
O169 Mn145 2.215 . S
O169 C146 1.283 . S
O170 Mn144 2.094 . S
O170 C148 1.240 . S
O171 Mn145 2.117 . S
O171 C148 1.264 . S
C172 C165 1.403 . S
C172 C173 1.399 . S
C172 H178 0.929 . S
C173 C153 1.449 . S
C173 C172 1.399 . S
C173 H179 0.930 . S
H174 C154 0.931 . S
H175 C155 0.930 . S
H176 C163 0.931 . S
H177 C164 0.929 . S
H178 C172 0.929 . S
H179 C173 0.930 . S
Mn180 O185 2.095 . S
Mn180 O195 2.162 . S
Mn180 O196 2.297 . S
Mn180 O204 2.385 . S
Mn180 O205 2.209 . S
Mn180 O206 2.094 . S
Mn181 O186 2.121 . S
Mn181 N188 2.257 . S
Mn181 N197 2.282 . S
Mn181 O205 2.215 . S
Mn181 O207 2.117 . S
C182 O204 1.234 . S
C182 O205 1.283 . S
C183 O195 1.281 . S
C183 O196 1.236 . S
C184 O206 1.240 . S
C184 O207 1.264 . S
O185 Mn180 2.095 . S
O185 C194 1.250 . S
O186 Mn181 2.121 . S
O186 C194 1.258 . S
C187 N188 1.326 . S
C187 C191 1.460 . S
C187 H193 0.929 . S
N188 Mn181 2.257 . S
N188 C187 1.326 . S
N188 C192 1.362 . S
C189 C190 1.258 . S
C189 C192 1.431 . S
C189 C209 1.449 . S
C190 C189 1.258 . S
C190 C191 1.477 . S
C190 H210 0.931 . S
C191 C187 1.460 . S
C191 C190 1.477 . S
C191 H211 0.930 . S
C192 N188 1.362 . S
C192 C189 1.431 . S
C192 C202 1.476 . S
H193 C187 0.929 . S
C194 O185 1.250 . S
C194 O186 1.258 . S
O195 Mn180 2.162 . S
O195 C183 1.281 . S
O196 Mn180 2.297 . S
O196 C183 1.236 . S
N197 Mn181 2.282 . S
N197 C198 1.328 . S
N197 C202 1.318 . S
C198 N197 1.328 . S
C198 C199 1.457 . S
C198 H203 0.929 . S
C199 C198 1.457 . S
C199 C200 1.291 . S
C199 H212 0.931 . S
C200 C199 1.291 . S
C200 C201 1.373 . S
C200 H213 0.929 . S
C201 C200 1.373 . S
C201 C202 1.396 . S
C201 C208 1.403 . S
C202 C192 1.476 . S
C202 N197 1.318 . S
C202 C201 1.396 . S
H203 C198 0.929 . S
O204 Mn180 2.385 . S
O204 C182 1.234 . S
O205 Mn180 2.209 . S
O205 Mn181 2.215 . S
O205 C182 1.283 . S
O206 Mn180 2.094 . S
O206 C184 1.240 . S
O207 Mn181 2.117 . S
O207 C184 1.264 . S
C208 C201 1.403 . S
C208 C209 1.399 . S
C208 H214 0.929 . S
C209 C189 1.449 . S
C209 C208 1.399 . S
C209 H215 0.930 . S
H210 C190 0.931 . S
H211 C191 0.930 . S
H212 C199 0.931 . S
H213 C200 0.929 . S
H214 C208 0.929 . S
H215 C209 0.930 . S
Mn216 O221 2.095 1_455 S
Mn216 O231 2.162 . S
Mn216 O232 2.297 . S
Mn216 O240 2.385 . S
Mn216 O241 2.209 . S
Mn216 O242 2.094 . S
Mn217 O222 2.121 1_455 S
Mn217 N224 2.257 . S
Mn217 N233 2.282 . S
Mn217 O241 2.215 . S
Mn217 O243 2.117 . S
C218 O240 1.234 . S
C218 O241 1.283 . S
C219 O231 1.281 . S
C219 O232 1.236 . S
C220 O242 1.240 . S
C220 O243 1.264 . S
O221 Mn216 2.095 1_655 S
O221 C230 1.250 . S
O222 Mn217 2.121 1_655 S
O222 C230 1.258 . S
C223 N224 1.326 . S
C223 C227 1.460 . S
C223 H229 0.929 . S
N224 Mn217 2.257 . S
N224 C223 1.326 . S
N224 C228 1.362 . S
C225 C226 1.258 . S
C225 C228 1.431 . S
C225 C245 1.449 . S
C226 C225 1.258 . S
C226 C227 1.477 . S
C226 H246 0.931 . S
C227 C223 1.460 . S
C227 C226 1.477 . S
C227 H247 0.930 . S
C228 N224 1.362 . S
C228 C225 1.431 . S
C228 C238 1.476 . S
H229 C223 0.929 . S
C230 O221 1.250 . S
C230 O222 1.258 . S
O231 Mn216 2.162 . S
O231 C219 1.281 . S
O232 Mn216 2.297 . S
O232 C219 1.236 . S
N233 Mn217 2.282 . S
N233 C234 1.328 . S
N233 C238 1.318 . S
C234 N233 1.328 . S
C234 C235 1.457 . S
C234 H239 0.929 . S
C235 C234 1.457 . S
C235 C236 1.291 . S
C235 H248 0.931 . S
C236 C235 1.291 . S
C236 C237 1.373 . S
C236 H249 0.929 . S
C237 C236 1.373 . S
C237 C238 1.396 . S
C237 C244 1.403 . S
C238 C228 1.476 . S
C238 N233 1.318 . S
C238 C237 1.396 . S
H239 C234 0.929 . S
O240 Mn216 2.385 . S
O240 C218 1.234 . S
O241 Mn216 2.209 . S
O241 Mn217 2.215 . S
O241 C218 1.283 . S
O242 Mn216 2.094 . S
O242 C220 1.240 . S
O243 Mn217 2.117 . S
O243 C220 1.264 . S
C244 C237 1.403 . S
C244 C245 1.399 . S
C244 H250 0.929 . S
C245 C225 1.449 . S
C245 C244 1.399 . S
C245 H251 0.930 . S
H246 C226 0.931 . S
H247 C227 0.930 . S
H248 C235 0.931 . S
H249 C236 0.929 . S
H250 C244 0.929 . S
H251 C245 0.930 . S
Mn252 O257 2.095 . S
Mn252 O267 2.162 . S
Mn252 O268 2.297 . S
Mn252 O276 2.385 . S
Mn252 O277 2.209 . S
Mn252 O278 2.094 . S
Mn253 O258 2.121 . S
Mn253 N260 2.257 . S
Mn253 N269 2.282 . S
Mn253 O277 2.215 . S
Mn253 O279 2.117 . S
C254 O276 1.234 . S
C254 O277 1.283 . S
C255 O267 1.281 . S
C255 O268 1.236 . S
C256 O278 1.240 . S
C256 O279 1.264 . S
O257 Mn252 2.095 . S
O257 C266 1.250 . S
O258 Mn253 2.121 . S
O258 C266 1.258 . S
C259 N260 1.326 . S
C259 C263 1.460 . S
C259 H265 0.929 . S
N260 Mn253 2.257 . S
N260 C259 1.326 . S
N260 C264 1.362 . S
C261 C262 1.258 . S
C261 C264 1.431 . S
C261 C281 1.449 . S
C262 C261 1.258 . S
C262 C263 1.477 . S
C262 H282 0.931 . S
C263 C259 1.460 . S
C263 C262 1.477 . S
C263 H283 0.930 . S
C264 N260 1.362 . S
C264 C261 1.431 . S
C264 C274 1.476 . S
H265 C259 0.929 . S
C266 O257 1.250 . S
C266 O258 1.258 . S
O267 Mn252 2.162 . S
O267 C255 1.281 . S
O268 Mn252 2.297 . S
O268 C255 1.236 . S
N269 Mn253 2.282 . S
N269 C270 1.328 . S
N269 C274 1.318 . S
C270 N269 1.328 . S
C270 C271 1.457 . S
C270 H275 0.929 . S
C271 C270 1.457 . S
C271 C272 1.291 . S
C271 H284 0.931 . S
C272 C271 1.291 . S
C272 C273 1.373 . S
C272 H285 0.929 . S
C273 C272 1.373 . S
C273 C274 1.396 . S
C273 C280 1.403 . S
C274 C264 1.476 . S
C274 N269 1.318 . S
C274 C273 1.396 . S
H275 C270 0.929 . S
O276 Mn252 2.385 . S
O276 C254 1.234 . S
O277 Mn252 2.209 . S
O277 Mn253 2.215 . S
O277 C254 1.283 . S
O278 Mn252 2.094 . S
O278 C256 1.240 . S
O279 Mn253 2.117 . S
O279 C256 1.264 . S
C280 C273 1.403 . S
C280 C281 1.399 . S
C280 H286 0.929 . S
C281 C261 1.449 . S
C281 C280 1.399 . S
C281 H287 0.930 . S
H282 C262 0.931 . S
H283 C263 0.930 . S
H284 C271 0.931 . S
H285 C272 0.929 . S
H286 C280 0.929 . S
H287 C281 0.930 . S
Mn288 O293 2.095 . S
Mn288 O303 2.162 . S
Mn288 O304 2.297 . S
Mn288 O312 2.385 1_545 S
Mn288 O313 2.209 . S
Mn288 O314 2.094 . S
Mn289 O294 2.121 . S
Mn289 N296 2.257 . S
Mn289 N305 2.282 1_545 S
Mn289 O313 2.215 . S
Mn289 O315 2.117 . S
C290 O312 1.234 . S
C290 O313 1.283 1_565 S
C291 O303 1.281 . S
C291 O304 1.236 . S
C292 O314 1.240 . S
C292 O315 1.264 . S
O293 Mn288 2.095 . S
O293 C302 1.250 . S
O294 Mn289 2.121 . S
O294 C302 1.258 . S
C295 N296 1.326 . S
C295 C299 1.460 . S
C295 H301 0.929 . S
N296 Mn289 2.257 . S
N296 C295 1.326 . S
N296 C300 1.362 . S
C297 C298 1.258 1_565 S
C297 C300 1.431 1_565 S
C297 C317 1.449 . S
C298 C297 1.258 1_545 S
C298 C299 1.477 . S
C298 H318 0.931 . S
C299 C295 1.460 . S
C299 C298 1.477 . S
C299 H319 0.930 . S
C300 N296 1.362 . S
C300 C297 1.431 1_545 S
C300 C310 1.476 1_545 S
H301 C295 0.929 . S
C302 O293 1.250 . S
C302 O294 1.258 . S
O303 Mn288 2.162 . S
O303 C291 1.281 . S
O304 Mn288 2.297 . S
O304 C291 1.236 . S
N305 Mn289 2.282 1_565 S
N305 C306 1.328 . S
N305 C310 1.318 . S
C306 N305 1.328 . S
C306 C307 1.457 . S
C306 H311 0.929 . S
C307 C306 1.457 . S
C307 C308 1.291 . S
C307 H320 0.931 . S
C308 C307 1.291 . S
C308 C309 1.373 . S
C308 H321 0.929 . S
C309 C308 1.373 . S
C309 C310 1.396 . S
C309 C316 1.403 . S
C310 C300 1.476 1_565 S
C310 N305 1.318 . S
C310 C309 1.396 . S
H311 C306 0.929 . S
O312 Mn288 2.385 1_565 S
O312 C290 1.234 . S
O313 Mn288 2.209 . S
O313 Mn289 2.215 . S
O313 C290 1.283 1_545 S
O314 Mn288 2.094 . S
O314 C292 1.240 . S
O315 Mn289 2.117 . S
O315 C292 1.264 . S
C316 C309 1.403 . S
C316 C317 1.399 . S
C316 H322 0.929 . S
C317 C297 1.449 . S
C317 C316 1.399 . S
C317 H323 0.930 . S
H318 C298 0.931 . S
H319 C299 0.930 . S
H320 C307 0.931 . S
H321 C308 0.929 . S
H322 C316 0.929 . S
H323 C317 0.930 . S
Mn324 O329 2.095 1_545 S
Mn324 O339 2.162 . S
Mn324 O340 2.297 . S
Mn324 O348 2.385 . S
Mn324 O349 2.209 . S
Mn324 O350 2.094 . S
Mn325 O330 2.121 1_545 S
Mn325 N332 2.257 . S
Mn325 N341 2.282 . S
Mn325 O349 2.215 . S
Mn325 O351 2.117 . S
C326 O348 1.234 . S
C326 O349 1.283 . S
C327 O339 1.281 . S
C327 O340 1.236 . S
C328 O350 1.240 . S
C328 O351 1.264 . S
O329 Mn324 2.095 1_565 S
O329 C338 1.250 . S
O330 Mn325 2.121 1_565 S
O330 C338 1.258 . S
C331 N332 1.326 . S
C331 C335 1.460 . S
C331 H337 0.929 . S
N332 Mn325 2.257 . S
N332 C331 1.326 . S
N332 C336 1.362 . S
C333 C334 1.258 . S
C333 C336 1.431 . S
C333 C353 1.449 . S
C334 C333 1.258 . S
C334 C335 1.477 . S
C334 H354 0.931 . S
C335 C331 1.460 . S
C335 C334 1.477 . S
C335 H355 0.930 . S
C336 N332 1.362 . S
C336 C333 1.431 . S
C336 C346 1.476 . S
H337 C331 0.929 . S
C338 O329 1.250 . S
C338 O330 1.258 . S
O339 Mn324 2.162 . S
O339 C327 1.281 . S
O340 Mn324 2.297 . S
O340 C327 1.236 . S
N341 Mn325 2.282 . S
N341 C342 1.328 . S
N341 C346 1.318 . S
C342 N341 1.328 . S
C342 C343 1.457 . S
C342 H347 0.929 . S
C343 C342 1.457 . S
C343 C344 1.291 . S
C343 H356 0.931 . S
C344 C343 1.291 . S
C344 C345 1.373 . S
C344 H357 0.929 . S
C345 C344 1.373 . S
C345 C346 1.396 . S
C345 C352 1.403 . S
C346 C336 1.476 . S
C346 N341 1.318 . S
C346 C345 1.396 . S
H347 C342 0.929 . S
O348 Mn324 2.385 . S
O348 C326 1.234 . S
O349 Mn324 2.209 . S
O349 Mn325 2.215 . S
O349 C326 1.283 . S
O350 Mn324 2.094 . S
O350 C328 1.240 . S
O351 Mn325 2.117 . S
O351 C328 1.264 . S
C352 C345 1.403 . S
C352 C353 1.399 . S
C352 H358 0.929 . S
C353 C333 1.449 . S
C353 C352 1.399 . S
C353 H359 0.930 . S
H354 C334 0.931 . S
H355 C335 0.930 . S
H356 C343 0.931 . S
H357 C344 0.929 . S
H358 C352 0.929 . S
H359 C353 0.930 . S
Mn360 O365 2.095 . S
Mn360 O375 2.162 . S
Mn360 O376 2.297 . S
Mn360 O384 2.385 1_455 S
Mn360 O385 2.209 . S
Mn360 O386 2.094 . S
Mn361 O366 2.121 . S
Mn361 N368 2.257 . S
Mn361 N377 2.282 1_455 S
Mn361 O385 2.215 . S
Mn361 O387 2.117 . S
C362 O384 1.234 . S
C362 O385 1.283 1_655 S
C363 O375 1.281 . S
C363 O376 1.236 . S
C364 O386 1.240 . S
C364 O387 1.264 . S
O365 Mn360 2.095 . S
O365 C374 1.250 . S
O366 Mn361 2.121 . S
O366 C374 1.258 . S
C367 N368 1.326 . S
C367 C371 1.460 . S
C367 H373 0.929 . S
N368 Mn361 2.257 . S
N368 C367 1.326 . S
N368 C372 1.362 . S
C369 C370 1.258 1_655 S
C369 C372 1.431 1_655 S
C369 C389 1.449 . S
C370 C369 1.258 1_455 S
C370 C371 1.477 . S
C370 H390 0.931 . S
C371 C367 1.460 . S
C371 C370 1.477 . S
C371 H391 0.930 . S
C372 N368 1.362 . S
C372 C369 1.431 1_455 S
C372 C382 1.476 1_455 S
H373 C367 0.929 . S
C374 O365 1.250 . S
C374 O366 1.258 . S
O375 Mn360 2.162 . S
O375 C363 1.281 . S
O376 Mn360 2.297 . S
O376 C363 1.236 . S
N377 Mn361 2.282 1_655 S
N377 C378 1.328 . S
N377 C382 1.318 . S
C378 N377 1.328 . S
C378 C379 1.457 . S
C378 H383 0.929 . S
C379 C378 1.457 . S
C379 C380 1.291 . S
C379 H392 0.931 . S
C380 C379 1.291 . S
C380 C381 1.373 . S
C380 H393 0.929 . S
C381 C380 1.373 . S
C381 C382 1.396 . S
C381 C388 1.403 . S
C382 C372 1.476 1_655 S
C382 N377 1.318 . S
C382 C381 1.396 . S
H383 C378 0.929 . S
O384 Mn360 2.385 1_655 S
O384 C362 1.234 . S
O385 Mn360 2.209 . S
O385 Mn361 2.215 . S
O385 C362 1.283 1_455 S
O386 Mn360 2.094 . S
O386 C364 1.240 . S
O387 Mn361 2.117 . S
O387 C364 1.264 . S
C388 C381 1.403 . S
C388 C389 1.399 . S
C388 H394 0.929 . S
C389 C369 1.449 . S
C389 C388 1.399 . S
C389 H395 0.930 . S
H390 C370 0.931 . S
H391 C371 0.930 . S
H392 C379 0.931 . S
H393 C380 0.929 . S
H394 C388 0.929 . S
H395 C389 0.930 . S
Mn396 O401 2.095 . S
Mn396 O411 2.162 . S
Mn396 O412 2.297 . S
Mn396 O420 2.385 . S
Mn396 O421 2.209 . S
Mn396 O422 2.094 . S
Mn397 O402 2.121 . S
Mn397 N404 2.257 . S
Mn397 N413 2.282 . S
Mn397 O421 2.215 . S
Mn397 O423 2.117 . S
C398 O420 1.234 . S
C398 O421 1.283 . S
C399 O411 1.281 . S
C399 O412 1.236 . S
C400 O422 1.240 . S
C400 O423 1.264 . S
O401 Mn396 2.095 . S
O401 C410 1.250 . S
O402 Mn397 2.121 . S
O402 C410 1.258 . S
C403 N404 1.326 . S
C403 C407 1.460 . S
C403 H409 0.929 . S
N404 Mn397 2.257 . S
N404 C403 1.326 . S
N404 C408 1.362 . S
C405 C406 1.258 . S
C405 C408 1.431 . S
C405 C425 1.449 . S
C406 C405 1.258 . S
C406 C407 1.477 . S
C406 H426 0.931 . S
C407 C403 1.460 . S
C407 C406 1.477 . S
C407 H427 0.930 . S
C408 N404 1.362 . S
C408 C405 1.431 . S
C408 C418 1.476 . S
H409 C403 0.929 . S
C410 O401 1.250 . S
C410 O402 1.258 . S
O411 Mn396 2.162 . S
O411 C399 1.281 . S
O412 Mn396 2.297 . S
O412 C399 1.236 . S
N413 Mn397 2.282 . S
N413 C414 1.328 . S
N413 C418 1.318 . S
C414 N413 1.328 . S
C414 C415 1.457 . S
C414 H419 0.929 . S
C415 C414 1.457 . S
C415 C416 1.291 . S
C415 H428 0.931 . S
C416 C415 1.291 . S
C416 C417 1.373 . S
C416 H429 0.929 . S
C417 C416 1.373 . S
C417 C418 1.396 . S
C417 C424 1.403 . S
C418 C408 1.476 . S
C418 N413 1.318 . S
C418 C417 1.396 . S
H419 C414 0.929 . S
O420 Mn396 2.385 . S
O420 C398 1.234 . S
O421 Mn396 2.209 . S
O421 Mn397 2.215 . S
O421 C398 1.283 . S
O422 Mn396 2.094 . S
O422 C400 1.240 . S
O423 Mn397 2.117 . S
O423 C400 1.264 . S
C424 C417 1.403 . S
C424 C425 1.399 . S
C424 H430 0.929 . S
C425 C405 1.449 . S
C425 C424 1.399 . S
C425 H431 0.930 . S
H426 C406 0.931 . S
H427 C407 0.930 . S
H428 C415 0.931 . S
H429 C416 0.929 . S
H430 C424 0.929 . S
H431 C425 0.930 . S
Mn432 O437 2.095 . S
Mn432 O447 2.162 . S
Mn432 O448 2.297 . S
Mn432 O456 2.385 . S
Mn432 O457 2.209 . S
Mn432 O458 2.094 . S
Mn433 O438 2.121 . S
Mn433 N440 2.257 . S
Mn433 N449 2.282 . S
Mn433 O457 2.215 . S
Mn433 O459 2.117 . S
C434 O456 1.234 . S
C434 O457 1.283 . S
C435 O447 1.281 . S
C435 O448 1.236 . S
C436 O458 1.240 . S
C436 O459 1.264 . S
O437 Mn432 2.095 . S
O437 C446 1.250 . S
O438 Mn433 2.121 . S
O438 C446 1.258 . S
C439 N440 1.326 . S
C439 C443 1.460 . S
C439 H445 0.929 . S
N440 Mn433 2.257 . S
N440 C439 1.326 . S
N440 C444 1.362 . S
C441 C442 1.258 . S
C441 C444 1.431 . S
C441 C461 1.449 . S
C442 C441 1.258 . S
C442 C443 1.477 . S
C442 H462 0.931 . S
C443 C439 1.460 . S
C443 C442 1.477 . S
C443 H463 0.930 . S
C444 N440 1.362 . S
C444 C441 1.431 . S
C444 C454 1.476 . S
H445 C439 0.929 . S
C446 O437 1.250 . S
C446 O438 1.258 . S
O447 Mn432 2.162 . S
O447 C435 1.281 . S
O448 Mn432 2.297 . S
O448 C435 1.236 . S
N449 Mn433 2.282 . S
N449 C450 1.328 . S
N449 C454 1.318 . S
C450 N449 1.328 . S
C450 C451 1.457 . S
C450 H455 0.929 . S
C451 C450 1.457 . S
C451 C452 1.291 . S
C451 H464 0.931 . S
C452 C451 1.291 . S
C452 C453 1.373 . S
C452 H465 0.929 . S
C453 C452 1.373 . S
C453 C454 1.396 . S
C453 C460 1.403 . S
C454 C444 1.476 . S
C454 N449 1.318 . S
C454 C453 1.396 . S
H455 C450 0.929 . S
O456 Mn432 2.385 . S
O456 C434 1.234 . S
O457 Mn432 2.209 . S
O457 Mn433 2.215 . S
O457 C434 1.283 . S
O458 Mn432 2.094 . S
O458 C436 1.240 . S
O459 Mn433 2.117 . S
O459 C436 1.264 . S
C460 C453 1.403 . S
C460 C461 1.399 . S
C460 H466 0.929 . S
C461 C441 1.449 . S
C461 C460 1.399 . S
C461 H467 0.930 . S
H462 C442 0.931 . S
H463 C443 0.930 . S
H464 C451 0.931 . S
H465 C452 0.929 . S
H466 C460 0.929 . S
H467 C461 0.930 . S
Mn468 O473 2.095 . S
Mn468 O483 2.162 . S
Mn468 O484 2.297 . S
Mn468 O492 2.385 . S
Mn468 O493 2.209 . S
Mn468 O494 2.094 . S
Mn469 O474 2.121 . S
Mn469 N476 2.257 . S
Mn469 N485 2.282 . S
Mn469 O493 2.215 . S
Mn469 O495 2.117 . S
C470 O492 1.234 . S
C470 O493 1.283 . S
C471 O483 1.281 . S
C471 O484 1.236 . S
C472 O494 1.240 . S
C472 O495 1.264 . S
O473 Mn468 2.095 . S
O473 C482 1.250 . S
O474 Mn469 2.121 . S
O474 C482 1.258 . S
C475 N476 1.326 . S
C475 C479 1.460 . S
C475 H481 0.929 . S
N476 Mn469 2.257 . S
N476 C475 1.326 . S
N476 C480 1.362 . S
C477 C478 1.258 . S
C477 C480 1.431 . S
C477 C497 1.449 . S
C478 C477 1.258 . S
C478 C479 1.477 . S
C478 H498 0.931 . S
C479 C475 1.460 . S
C479 C478 1.477 . S
C479 H499 0.930 . S
C480 N476 1.362 . S
C480 C477 1.431 . S
C480 C490 1.476 . S
H481 C475 0.929 . S
C482 O473 1.250 . S
C482 O474 1.258 . S
O483 Mn468 2.162 . S
O483 C471 1.281 . S
O484 Mn468 2.297 . S
O484 C471 1.236 . S
N485 Mn469 2.282 . S
N485 C486 1.328 . S
N485 C490 1.318 . S
C486 N485 1.328 . S
C486 C487 1.457 . S
C486 H491 0.929 . S
C487 C486 1.457 . S
C487 C488 1.291 . S
C487 H500 0.931 . S
C488 C487 1.291 . S
C488 C489 1.373 . S
C488 H501 0.929 . S
C489 C488 1.373 . S
C489 C490 1.396 . S
C489 C496 1.403 . S
C490 C480 1.476 . S
C490 N485 1.318 . S
C490 C489 1.396 . S
H491 C486 0.929 . S
O492 Mn468 2.385 . S
O492 C470 1.234 . S
O493 Mn468 2.209 . S
O493 Mn469 2.215 . S
O493 C470 1.283 . S
O494 Mn468 2.094 . S
O494 C472 1.240 . S
O495 Mn469 2.117 . S
O495 C472 1.264 . S
C496 C489 1.403 . S
C496 C497 1.399 . S
C496 H502 0.929 . S
C497 C477 1.449 . S
C497 C496 1.399 . S
C497 H503 0.930 . S
H498 C478 0.931 . S
H499 C479 0.930 . S
H500 C487 0.931 . S
H501 C488 0.929 . S
H502 C496 0.929 . S
H503 C497 0.930 . S
Mn504 O509 2.095 . S
Mn504 O519 2.162 . S
Mn504 O520 2.297 . S
Mn504 O528 2.385 . S
Mn504 O529 2.209 . S
Mn504 O530 2.094 . S
Mn505 O510 2.121 . S
Mn505 N512 2.257 . S
Mn505 N521 2.282 . S
Mn505 O529 2.215 . S
Mn505 O531 2.117 . S
C506 O528 1.234 . S
C506 O529 1.283 . S
C507 O519 1.281 . S
C507 O520 1.236 . S
C508 O530 1.240 . S
C508 O531 1.264 . S
O509 Mn504 2.095 . S
O509 C518 1.250 . S
O510 Mn505 2.121 . S
O510 C518 1.258 . S
C511 N512 1.326 . S
C511 C515 1.460 . S
C511 H517 0.929 . S
N512 Mn505 2.257 . S
N512 C511 1.326 . S
N512 C516 1.362 . S
C513 C514 1.258 . S
C513 C516 1.431 . S
C513 C533 1.449 . S
C514 C513 1.258 . S
C514 C515 1.477 . S
C514 H534 0.931 . S
C515 C511 1.460 . S
C515 C514 1.477 . S
C515 H535 0.930 . S
C516 N512 1.362 . S
C516 C513 1.431 . S
C516 C526 1.476 . S
H517 C511 0.929 . S
C518 O509 1.250 . S
C518 O510 1.258 . S
O519 Mn504 2.162 . S
O519 C507 1.281 . S
O520 Mn504 2.297 . S
O520 C507 1.236 . S
N521 Mn505 2.282 . S
N521 C522 1.328 . S
N521 C526 1.318 . S
C522 N521 1.328 . S
C522 C523 1.457 . S
C522 H527 0.929 . S
C523 C522 1.457 . S
C523 C524 1.291 . S
C523 H536 0.931 . S
C524 C523 1.291 . S
C524 C525 1.373 . S
C524 H537 0.929 . S
C525 C524 1.373 . S
C525 C526 1.396 . S
C525 C532 1.403 . S
C526 C516 1.476 . S
C526 N521 1.318 . S
C526 C525 1.396 . S
H527 C522 0.929 . S
O528 Mn504 2.385 . S
O528 C506 1.234 . S
O529 Mn504 2.209 . S
O529 Mn505 2.215 . S
O529 C506 1.283 . S
O530 Mn504 2.094 . S
O530 C508 1.240 . S
O531 Mn505 2.117 . S
O531 C508 1.264 . S
C532 C525 1.403 . S
C532 C533 1.399 . S
C532 H538 0.929 . S
C533 C513 1.449 . S
C533 C532 1.399 . S
C533 H539 0.930 . S
H534 C514 0.931 . S
H535 C515 0.930 . S
H536 C523 0.931 . S
H537 C524 0.929 . S
H538 C532 0.929 . S
H539 C533 0.930 . S
Mn540 O545 2.095 . S
Mn540 O555 2.162 . S
Mn540 O556 2.297 . S
Mn540 O564 2.385 . S
Mn540 O565 2.209 . S
Mn540 O566 2.094 . S
Mn541 O546 2.121 . S
Mn541 N548 2.257 . S
Mn541 N557 2.282 . S
Mn541 O565 2.215 . S
Mn541 O567 2.117 . S
C542 O564 1.234 . S
C542 O565 1.283 . S
C543 O555 1.281 . S
C543 O556 1.236 . S
C544 O566 1.240 . S
C544 O567 1.264 . S
O545 Mn540 2.095 . S
O545 C554 1.250 . S
O546 Mn541 2.121 . S
O546 C554 1.258 . S
C547 N548 1.326 . S
C547 C551 1.460 . S
C547 H553 0.929 . S
N548 Mn541 2.257 . S
N548 C547 1.326 . S
N548 C552 1.362 . S
C549 C550 1.258 . S
C549 C552 1.431 . S
C549 C569 1.449 . S
C550 C549 1.258 . S
C550 C551 1.477 . S
C550 H570 0.931 . S
C551 C547 1.460 . S
C551 C550 1.477 . S
C551 H571 0.930 . S
C552 N548 1.362 . S
C552 C549 1.431 . S
C552 C562 1.476 . S
H553 C547 0.929 . S
C554 O545 1.250 . S
C554 O546 1.258 . S
O555 Mn540 2.162 . S
O555 C543 1.281 . S
O556 Mn540 2.297 . S
O556 C543 1.236 . S
N557 Mn541 2.282 . S
N557 C558 1.328 . S
N557 C562 1.318 . S
C558 N557 1.328 . S
C558 C559 1.457 . S
C558 H563 0.929 . S
C559 C558 1.457 . S
C559 C560 1.291 . S
C559 H572 0.931 . S
C560 C559 1.291 . S
C560 C561 1.373 . S
C560 H573 0.929 . S
C561 C560 1.373 . S
C561 C562 1.396 . S
C561 C568 1.403 . S
C562 C552 1.476 . S
C562 N557 1.318 . S
C562 C561 1.396 . S
H563 C558 0.929 . S
O564 Mn540 2.385 . S
O564 C542 1.234 . S
O565 Mn540 2.209 . S
O565 Mn541 2.215 . S
O565 C542 1.283 . S
O566 Mn540 2.094 . S
O566 C544 1.240 . S
O567 Mn541 2.117 . S
O567 C544 1.264 . S
C568 C561 1.403 . S
C568 C569 1.399 . S
C568 H574 0.929 . S
C569 C549 1.449 . S
C569 C568 1.399 . S
C569 H575 0.930 . S
H570 C550 0.931 . S
H571 C551 0.930 . S
H572 C559 0.931 . S
H573 C560 0.929 . S
H574 C568 0.929 . S
H575 C569 0.930 . S
Mn576 O581 2.095 . S
Mn576 O591 2.162 . S
Mn576 O592 2.297 . S
Mn576 O600 2.385 . S
Mn576 O601 2.209 . S
Mn576 O602 2.094 . S
Mn577 O582 2.121 . S
Mn577 N584 2.257 . S
Mn577 N593 2.282 . S
Mn577 O601 2.215 . S
Mn577 O603 2.117 . S
C578 O600 1.234 . S
C578 O601 1.283 . S
C579 O591 1.281 . S
C579 O592 1.236 . S
C580 O602 1.240 . S
C580 O603 1.264 . S
O581 Mn576 2.095 . S
O581 C590 1.250 . S
O582 Mn577 2.121 . S
O582 C590 1.258 . S
C583 N584 1.326 . S
C583 C587 1.460 . S
C583 H589 0.929 . S
N584 Mn577 2.257 . S
N584 C583 1.326 . S
N584 C588 1.362 . S
C585 C586 1.258 . S
C585 C588 1.431 . S
C585 C605 1.449 . S
C586 C585 1.258 . S
C586 C587 1.477 . S
C586 H606 0.931 . S
C587 C583 1.460 . S
C587 C586 1.477 . S
C587 H607 0.930 . S
C588 N584 1.362 . S
C588 C585 1.431 . S
C588 C598 1.476 . S
H589 C583 0.929 . S
C590 O581 1.250 . S
C590 O582 1.258 . S
O591 Mn576 2.162 . S
O591 C579 1.281 . S
O592 Mn576 2.297 . S
O592 C579 1.236 . S
N593 Mn577 2.282 . S
N593 C594 1.328 . S
N593 C598 1.318 . S
C594 N593 1.328 . S
C594 C595 1.457 . S
C594 H599 0.929 . S
C595 C594 1.457 . S
C595 C596 1.291 . S
C595 H608 0.931 . S
C596 C595 1.291 . S
C596 C597 1.373 . S
C596 H609 0.929 . S
C597 C596 1.373 . S
C597 C598 1.396 . S
C597 C604 1.403 . S
C598 C588 1.476 . S
C598 N593 1.318 . S
C598 C597 1.396 . S
H599 C594 0.929 . S
O600 Mn576 2.385 . S
O600 C578 1.234 . S
O601 Mn576 2.209 . S
O601 Mn577 2.215 . S
O601 C578 1.283 . S
O602 Mn576 2.094 . S
O602 C580 1.240 . S
O603 Mn577 2.117 . S
O603 C580 1.264 . S
C604 C597 1.403 . S
C604 C605 1.399 . S
C604 H610 0.929 . S
C605 C585 1.449 . S
C605 C604 1.399 . S
C605 H611 0.930 . S
H606 C586 0.931 . S
H607 C587 0.930 . S
H608 C595 0.931 . S
H609 C596 0.929 . S
H610 C604 0.929 . S
H611 C605 0.930 . S
Mn612 O617 2.095 . S
Mn612 O627 2.162 . S
Mn612 O628 2.297 . S
Mn612 O636 2.385 . S
Mn612 O637 2.209 . S
Mn612 O638 2.094 . S
Mn613 O618 2.121 . S
Mn613 N620 2.257 . S
Mn613 N629 2.282 . S
Mn613 O637 2.215 . S
Mn613 O639 2.117 . S
C614 O636 1.234 . S
C614 O637 1.283 . S
C615 O627 1.281 . S
C615 O628 1.236 . S
C616 O638 1.240 . S
C616 O639 1.264 . S
O617 Mn612 2.095 . S
O617 C626 1.250 . S
O618 Mn613 2.121 . S
O618 C626 1.258 . S
C619 N620 1.326 . S
C619 C623 1.460 . S
C619 H625 0.929 . S
N620 Mn613 2.257 . S
N620 C619 1.326 . S
N620 C624 1.362 . S
C621 C622 1.258 . S
C621 C624 1.431 . S
C621 C641 1.449 . S
C622 C621 1.258 . S
C622 C623 1.477 . S
C622 H642 0.931 . S
C623 C619 1.460 . S
C623 C622 1.477 . S
C623 H643 0.930 . S
C624 N620 1.362 . S
C624 C621 1.431 . S
C624 C634 1.476 . S
H625 C619 0.929 . S
C626 O617 1.250 . S
C626 O618 1.258 . S
O627 Mn612 2.162 . S
O627 C615 1.281 . S
O628 Mn612 2.297 . S
O628 C615 1.236 . S
N629 Mn613 2.282 . S
N629 C630 1.328 . S
N629 C634 1.318 . S
C630 N629 1.328 . S
C630 C631 1.457 . S
C630 H635 0.929 . S
C631 C630 1.457 . S
C631 C632 1.291 . S
C631 H644 0.931 . S
C632 C631 1.291 . S
C632 C633 1.373 . S
C632 H645 0.929 . S
C633 C632 1.373 . S
C633 C634 1.396 . S
C633 C640 1.403 . S
C634 C624 1.476 . S
C634 N629 1.318 . S
C634 C633 1.396 . S
H635 C630 0.929 . S
O636 Mn612 2.385 . S
O636 C614 1.234 . S
O637 Mn612 2.209 . S
O637 Mn613 2.215 . S
O637 C614 1.283 . S
O638 Mn612 2.094 . S
O638 C616 1.240 . S
O639 Mn613 2.117 . S
O639 C616 1.264 . S
C640 C633 1.403 . S
C640 C641 1.399 . S
C640 H646 0.929 . S
C641 C621 1.449 . S
C641 C640 1.399 . S
C641 H647 0.930 . S
H642 C622 0.931 . S
H643 C623 0.930 . S
H644 C631 0.931 . S
H645 C632 0.929 . S
H646 C640 0.929 . S
H647 C641 0.930 . S
Mn648 O653 2.095 . S
Mn648 O663 2.162 . S
Mn648 O664 2.297 . S
Mn648 O672 2.385 . S
Mn648 O673 2.209 . S
Mn648 O674 2.094 . S
Mn649 O654 2.121 . S
Mn649 N656 2.257 . S
Mn649 N665 2.282 . S
Mn649 O673 2.215 . S
Mn649 O675 2.117 . S
C650 O672 1.234 . S
C650 O673 1.283 . S
C651 O663 1.281 . S
C651 O664 1.236 . S
C652 O674 1.240 . S
C652 O675 1.264 . S
O653 Mn648 2.095 . S
O653 C662 1.250 . S
O654 Mn649 2.121 . S
O654 C662 1.258 . S
C655 N656 1.326 . S
C655 C659 1.460 . S
C655 H661 0.929 . S
N656 Mn649 2.257 . S
N656 C655 1.326 . S
N656 C660 1.362 . S
C657 C658 1.258 . S
C657 C660 1.431 . S
C657 C677 1.449 . S
C658 C657 1.258 . S
C658 C659 1.477 . S
C658 H678 0.931 . S
C659 C655 1.460 . S
C659 C658 1.477 . S
C659 H679 0.930 . S
C660 N656 1.362 . S
C660 C657 1.431 . S
C660 C670 1.476 . S
H661 C655 0.929 . S
C662 O653 1.250 . S
C662 O654 1.258 . S
O663 Mn648 2.162 . S
O663 C651 1.281 . S
O664 Mn648 2.297 . S
O664 C651 1.236 . S
N665 Mn649 2.282 . S
N665 C666 1.328 . S
N665 C670 1.318 . S
C666 N665 1.328 . S
C666 C667 1.457 . S
C666 H671 0.929 . S
C667 C666 1.457 . S
C667 C668 1.291 . S
C667 H680 0.931 . S
C668 C667 1.291 . S
C668 C669 1.373 . S
C668 H681 0.929 . S
C669 C668 1.373 . S
C669 C670 1.396 . S
C669 C676 1.403 . S
C670 C660 1.476 . S
C670 N665 1.318 . S
C670 C669 1.396 . S
H671 C666 0.929 . S
O672 Mn648 2.385 . S
O672 C650 1.234 . S
O673 Mn648 2.209 . S
O673 Mn649 2.215 . S
O673 C650 1.283 . S
O674 Mn648 2.094 . S
O674 C652 1.240 . S
O675 Mn649 2.117 . S
O675 C652 1.264 . S
C676 C669 1.403 . S
C676 C677 1.399 . S
C676 H682 0.929 . S
C677 C657 1.449 . S
C677 C676 1.399 . S
C677 H683 0.930 . S
H678 C658 0.931 . S
H679 C659 0.930 . S
H680 C667 0.931 . S
H681 C668 0.929 . S
H682 C676 0.929 . S
H683 C677 0.930 . S
Mn684 O689 2.095 . S
Mn684 O699 2.162 . S
Mn684 O700 2.297 . S
Mn684 O708 2.385 . S
Mn684 O709 2.209 . S
Mn684 O710 2.094 . S
Mn685 O690 2.121 . S
Mn685 N692 2.257 . S
Mn685 N701 2.282 . S
Mn685 O709 2.215 . S
Mn685 O711 2.117 . S
C686 O708 1.234 . S
C686 O709 1.283 . S
C687 O699 1.281 . S
C687 O700 1.236 . S
C688 O710 1.240 . S
C688 O711 1.264 . S
O689 Mn684 2.095 . S
O689 C698 1.250 . S
O690 Mn685 2.121 . S
O690 C698 1.258 . S
C691 N692 1.326 . S
C691 C695 1.460 . S
C691 H697 0.929 . S
N692 Mn685 2.257 . S
N692 C691 1.326 . S
N692 C696 1.362 . S
C693 C694 1.258 . S
C693 C696 1.431 . S
C693 C713 1.449 . S
C694 C693 1.258 . S
C694 C695 1.477 . S
C694 H714 0.931 . S
C695 C691 1.460 . S
C695 C694 1.477 . S
C695 H715 0.930 . S
C696 N692 1.362 . S
C696 C693 1.431 . S
C696 C706 1.476 . S
H697 C691 0.929 . S
C698 O689 1.250 . S
C698 O690 1.258 . S
O699 Mn684 2.162 . S
O699 C687 1.281 . S
O700 Mn684 2.297 . S
O700 C687 1.236 . S
N701 Mn685 2.282 . S
N701 C702 1.328 . S
N701 C706 1.318 . S
C702 N701 1.328 . S
C702 C703 1.457 . S
C702 H707 0.929 . S
C703 C702 1.457 . S
C703 C704 1.291 . S
C703 H716 0.931 . S
C704 C703 1.291 . S
C704 C705 1.373 . S
C704 H717 0.929 . S
C705 C704 1.373 . S
C705 C706 1.396 . S
C705 C712 1.403 . S
C706 C696 1.476 . S
C706 N701 1.318 . S
C706 C705 1.396 . S
H707 C702 0.929 . S
O708 Mn684 2.385 . S
O708 C686 1.234 . S
O709 Mn684 2.209 . S
O709 Mn685 2.215 . S
O709 C686 1.283 . S
O710 Mn684 2.094 . S
O710 C688 1.240 . S
O711 Mn685 2.117 . S
O711 C688 1.264 . S
C712 C705 1.403 . S
C712 C713 1.399 . S
C712 H718 0.929 . S
C713 C693 1.449 . S
C713 C712 1.399 . S
C713 H719 0.930 . S
H714 C694 0.931 . S
H715 C695 0.930 . S
H716 C703 0.931 . S
H717 C704 0.929 . S
H718 C712 0.929 . S
H719 C713 0.930 . S
Mn720 O725 2.095 . S
Mn720 O735 2.162 . S
Mn720 O736 2.297 . S
Mn720 O744 2.385 . S
Mn720 O745 2.209 . S
Mn720 O746 2.094 . S
Mn721 O726 2.121 . S
Mn721 N728 2.257 . S
Mn721 N737 2.282 . S
Mn721 O745 2.215 . S
Mn721 O747 2.117 . S
C722 O744 1.234 . S
C722 O745 1.283 . S
C723 O735 1.281 . S
C723 O736 1.236 . S
C724 O746 1.240 . S
C724 O747 1.264 . S
O725 Mn720 2.095 . S
O725 C734 1.250 . S
O726 Mn721 2.121 . S
O726 C734 1.258 . S
C727 N728 1.326 . S
C727 C731 1.460 . S
C727 H733 0.929 . S
N728 Mn721 2.257 . S
N728 C727 1.326 . S
N728 C732 1.362 . S
C729 C730 1.258 . S
C729 C732 1.431 . S
C729 C749 1.449 . S
C730 C729 1.258 . S
C730 C731 1.477 . S
C730 H750 0.931 . S
C731 C727 1.460 . S
C731 C730 1.477 . S
C731 H751 0.930 . S
C732 N728 1.362 . S
C732 C729 1.431 . S
C732 C742 1.476 . S
H733 C727 0.929 . S
C734 O725 1.250 . S
C734 O726 1.258 . S
O735 Mn720 2.162 . S
O735 C723 1.281 . S
O736 Mn720 2.297 . S
O736 C723 1.236 . S
N737 Mn721 2.282 . S
N737 C738 1.328 . S
N737 C742 1.318 . S
C738 N737 1.328 . S
C738 C739 1.457 . S
C738 H743 0.929 . S
C739 C738 1.457 . S
C739 C740 1.291 . S
C739 H752 0.931 . S
C740 C739 1.291 . S
C740 C741 1.373 . S
C740 H753 0.929 . S
C741 C740 1.373 . S
C741 C742 1.396 . S
C741 C748 1.403 . S
C742 C732 1.476 . S
C742 N737 1.318 . S
C742 C741 1.396 . S
H743 C738 0.929 . S
O744 Mn720 2.385 . S
O744 C722 1.234 . S
O745 Mn720 2.209 . S
O745 Mn721 2.215 . S
O745 C722 1.283 . S
O746 Mn720 2.094 . S
O746 C724 1.240 . S
O747 Mn721 2.117 . S
O747 C724 1.264 . S
C748 C741 1.403 . S
C748 C749 1.399 . S
C748 H754 0.929 . S
C749 C729 1.449 . S
C749 C748 1.399 . S
C749 H755 0.930 . S
H750 C730 0.931 . S
H751 C731 0.930 . S
H752 C739 0.931 . S
H753 C740 0.929 . S
H754 C748 0.929 . S
H755 C749 0.930 . S
Mn756 O761 2.095 . S
Mn756 O771 2.162 . S
Mn756 O772 2.297 . S
Mn756 O780 2.385 . S
Mn756 O781 2.209 . S
Mn756 O782 2.094 . S
Mn757 O762 2.121 . S
Mn757 N764 2.257 . S
Mn757 N773 2.282 . S
Mn757 O781 2.215 . S
Mn757 O783 2.117 . S
C758 O780 1.234 . S
C758 O781 1.283 . S
C759 O771 1.281 . S
C759 O772 1.236 . S
C760 O782 1.240 . S
C760 O783 1.264 . S
O761 Mn756 2.095 . S
O761 C770 1.250 . S
O762 Mn757 2.121 . S
O762 C770 1.258 . S
C763 N764 1.326 . S
C763 C767 1.460 . S
C763 H769 0.929 . S
N764 Mn757 2.257 . S
N764 C763 1.326 . S
N764 C768 1.362 . S
C765 C766 1.258 . S
C765 C768 1.431 . S
C765 C785 1.449 . S
C766 C765 1.258 . S
C766 C767 1.477 . S
C766 H786 0.931 . S
C767 C763 1.460 . S
C767 C766 1.477 . S
C767 H787 0.930 . S
C768 N764 1.362 . S
C768 C765 1.431 . S
C768 C778 1.476 . S
H769 C763 0.929 . S
C770 O761 1.250 . S
C770 O762 1.258 . S
O771 Mn756 2.162 . S
O771 C759 1.281 . S
O772 Mn756 2.297 . S
O772 C759 1.236 . S
N773 Mn757 2.282 . S
N773 C774 1.328 . S
N773 C778 1.318 . S
C774 N773 1.328 . S
C774 C775 1.457 . S
C774 H779 0.929 . S
C775 C774 1.457 . S
C775 C776 1.291 . S
C775 H788 0.931 . S
C776 C775 1.291 . S
C776 C777 1.373 . S
C776 H789 0.929 . S
C777 C776 1.373 . S
C777 C778 1.396 . S
C777 C784 1.403 . S
C778 C768 1.476 . S
C778 N773 1.318 . S
C778 C777 1.396 . S
H779 C774 0.929 . S
O780 Mn756 2.385 . S
O780 C758 1.234 . S
O781 Mn756 2.209 . S
O781 Mn757 2.215 . S
O781 C758 1.283 . S
O782 Mn756 2.094 . S
O782 C760 1.240 . S
O783 Mn757 2.117 . S
O783 C760 1.264 . S
C784 C777 1.403 . S
C784 C785 1.399 . S
C784 H790 0.929 . S
C785 C765 1.449 . S
C785 C784 1.399 . S
C785 H791 0.930 . S
H786 C766 0.931 . S
H787 C767 0.930 . S
H788 C775 0.931 . S
H789 C776 0.929 . S
H790 C784 0.929 . S
H791 C785 0.930 . S
Mn792 O797 2.095 . S
Mn792 O807 2.162 . S
Mn792 O808 2.297 . S
Mn792 O816 2.385 . S
Mn792 O817 2.209 . S
Mn792 O818 2.094 . S
Mn793 O798 2.121 . S
Mn793 N800 2.257 . S
Mn793 N809 2.282 . S
Mn793 O817 2.215 . S
Mn793 O819 2.117 . S
C794 O816 1.234 . S
C794 O817 1.283 . S
C795 O807 1.281 . S
C795 O808 1.236 . S
C796 O818 1.240 . S
C796 O819 1.264 . S
O797 Mn792 2.095 . S
O797 C806 1.250 . S
O798 Mn793 2.121 . S
O798 C806 1.258 . S
C799 N800 1.326 . S
C799 C803 1.460 . S
C799 H805 0.929 . S
N800 Mn793 2.257 . S
N800 C799 1.326 . S
N800 C804 1.362 . S
C801 C802 1.258 . S
C801 C804 1.431 . S
C801 C821 1.449 . S
C802 C801 1.258 . S
C802 C803 1.477 . S
C802 H822 0.931 . S
C803 C799 1.460 . S
C803 C802 1.477 . S
C803 H823 0.930 . S
C804 N800 1.362 . S
C804 C801 1.431 . S
C804 C814 1.476 . S
H805 C799 0.929 . S
C806 O797 1.250 . S
C806 O798 1.258 . S
O807 Mn792 2.162 . S
O807 C795 1.281 . S
O808 Mn792 2.297 . S
O808 C795 1.236 . S
N809 Mn793 2.282 . S
N809 C810 1.328 . S
N809 C814 1.318 . S
C810 N809 1.328 . S
C810 C811 1.457 . S
C810 H815 0.929 . S
C811 C810 1.457 . S
C811 C812 1.291 . S
C811 H824 0.931 . S
C812 C811 1.291 . S
C812 C813 1.373 . S
C812 H825 0.929 . S
C813 C812 1.373 . S
C813 C814 1.396 . S
C813 C820 1.403 . S
C814 C804 1.476 . S
C814 N809 1.318 . S
C814 C813 1.396 . S
H815 C810 0.929 . S
O816 Mn792 2.385 . S
O816 C794 1.234 . S
O817 Mn792 2.209 . S
O817 Mn793 2.215 . S
O817 C794 1.283 . S
O818 Mn792 2.094 . S
O818 C796 1.240 . S
O819 Mn793 2.117 . S
O819 C796 1.264 . S
C820 C813 1.403 . S
C820 C821 1.399 . S
C820 H826 0.929 . S
C821 C801 1.449 . S
C821 C820 1.399 . S
C821 H827 0.930 . S
H822 C802 0.931 . S
H823 C803 0.930 . S
H824 C811 0.931 . S
H825 C812 0.929 . S
H826 C820 0.929 . S
H827 C821 0.930 . S
Mn828 O833 2.095 . S
Mn828 O843 2.162 . S
Mn828 O844 2.297 . S
Mn828 O852 2.385 . S
Mn828 O853 2.209 . S
Mn828 O854 2.094 . S
Mn829 O834 2.121 . S
Mn829 N836 2.257 . S
Mn829 N845 2.282 . S
Mn829 O853 2.215 . S
Mn829 O855 2.117 . S
C830 O852 1.234 . S
C830 O853 1.283 . S
C831 O843 1.281 . S
C831 O844 1.236 . S
C832 O854 1.240 . S
C832 O855 1.264 . S
O833 Mn828 2.095 . S
O833 C842 1.250 . S
O834 Mn829 2.121 . S
O834 C842 1.258 . S
C835 N836 1.326 . S
C835 C839 1.460 . S
C835 H841 0.929 . S
N836 Mn829 2.257 . S
N836 C835 1.326 . S
N836 C840 1.362 . S
C837 C838 1.258 . S
C837 C840 1.431 . S
C837 C857 1.449 . S
C838 C837 1.258 . S
C838 C839 1.477 . S
C838 H858 0.931 . S
C839 C835 1.460 . S
C839 C838 1.477 . S
C839 H859 0.930 . S
C840 N836 1.362 . S
C840 C837 1.431 . S
C840 C850 1.476 . S
H841 C835 0.929 . S
C842 O833 1.250 . S
C842 O834 1.258 . S
O843 Mn828 2.162 . S
O843 C831 1.281 . S
O844 Mn828 2.297 . S
O844 C831 1.236 . S
N845 Mn829 2.282 . S
N845 C846 1.328 . S
N845 C850 1.318 . S
C846 N845 1.328 . S
C846 C847 1.457 . S
C846 H851 0.929 . S
C847 C846 1.457 . S
C847 C848 1.291 . S
C847 H860 0.931 . S
C848 C847 1.291 . S
C848 C849 1.373 . S
C848 H861 0.929 . S
C849 C848 1.373 . S
C849 C850 1.396 . S
C849 C856 1.403 . S
C850 C840 1.476 . S
C850 N845 1.318 . S
C850 C849 1.396 . S
H851 C846 0.929 . S
O852 Mn828 2.385 . S
O852 C830 1.234 . S
O853 Mn828 2.209 . S
O853 Mn829 2.215 . S
O853 C830 1.283 . S
O854 Mn828 2.094 . S
O854 C832 1.240 . S
O855 Mn829 2.117 . S
O855 C832 1.264 . S
C856 C849 1.403 . S
C856 C857 1.399 . S
C856 H862 0.929 . S
C857 C837 1.449 . S
C857 C856 1.399 . S
C857 H863 0.930 . S
H858 C838 0.931 . S
H859 C839 0.930 . S
H860 C847 0.931 . S
H861 C848 0.929 . S
H862 C856 0.929 . S
H863 C857 0.930 . S
Mn864 O869 2.095 . S
Mn864 O879 2.162 . S
Mn864 O880 2.297 . S
Mn864 O888 2.385 . S
Mn864 O889 2.209 . S
Mn864 O890 2.094 . S
Mn865 O870 2.121 . S
Mn865 N872 2.257 . S
Mn865 N881 2.282 . S
Mn865 O889 2.215 . S
Mn865 O891 2.117 . S
C866 O888 1.234 . S
C866 O889 1.283 . S
C867 O879 1.281 . S
C867 O880 1.236 . S
C868 O890 1.240 . S
C868 O891 1.264 . S
O869 Mn864 2.095 . S
O869 C878 1.250 . S
O870 Mn865 2.121 . S
O870 C878 1.258 . S
C871 N872 1.326 . S
C871 C875 1.460 . S
C871 H877 0.929 . S
N872 Mn865 2.257 . S
N872 C871 1.326 . S
N872 C876 1.362 . S
C873 C874 1.258 . S
C873 C876 1.431 . S
C873 C893 1.449 . S
C874 C873 1.258 . S
C874 C875 1.477 . S
C874 H894 0.931 . S
C875 C871 1.460 . S
C875 C874 1.477 . S
C875 H895 0.930 . S
C876 N872 1.362 . S
C876 C873 1.431 . S
C876 C886 1.476 . S
H877 C871 0.929 . S
C878 O869 1.250 . S
C878 O870 1.258 . S
O879 Mn864 2.162 . S
O879 C867 1.281 . S
O880 Mn864 2.297 . S
O880 C867 1.236 . S
N881 Mn865 2.282 . S
N881 C882 1.328 . S
N881 C886 1.318 . S
C882 N881 1.328 . S
C882 C883 1.457 . S
C882 H887 0.929 . S
C883 C882 1.457 . S
C883 C884 1.291 . S
C883 H896 0.931 . S
C884 C883 1.291 . S
C884 C885 1.373 . S
C884 H897 0.929 . S
C885 C884 1.373 . S
C885 C886 1.396 . S
C885 C892 1.403 . S
C886 C876 1.476 . S
C886 N881 1.318 . S
C886 C885 1.396 . S
H887 C882 0.929 . S
O888 Mn864 2.385 . S
O888 C866 1.234 . S
O889 Mn864 2.209 . S
O889 Mn865 2.215 . S
O889 C866 1.283 . S
O890 Mn864 2.094 . S
O890 C868 1.240 . S
O891 Mn865 2.117 . S
O891 C868 1.264 . S
C892 C885 1.403 . S
C892 C893 1.399 . S
C892 H898 0.929 . S
C893 C873 1.449 . S
C893 C892 1.399 . S
C893 H899 0.930 . S
H894 C874 0.931 . S
H895 C875 0.930 . S
H896 C883 0.931 . S
H897 C884 0.929 . S
H898 C892 0.929 . S
H899 C893 0.930 . S
Mn900 O905 2.095 . S
Mn900 O915 2.162 . S
Mn900 O916 2.297 . S
Mn900 O924 2.385 . S
Mn900 O925 2.209 . S
Mn900 O926 2.094 . S
Mn901 O906 2.121 . S
Mn901 N908 2.257 . S
Mn901 N917 2.282 . S
Mn901 O925 2.215 . S
Mn901 O927 2.117 . S
C902 O924 1.234 . S
C902 O925 1.283 . S
C903 O915 1.281 . S
C903 O916 1.236 . S
C904 O926 1.240 . S
C904 O927 1.264 . S
O905 Mn900 2.095 . S
O905 C914 1.250 . S
O906 Mn901 2.121 . S
O906 C914 1.258 . S
C907 N908 1.326 . S
C907 C911 1.460 . S
C907 H913 0.929 . S
N908 Mn901 2.257 . S
N908 C907 1.326 . S
N908 C912 1.362 . S
C909 C910 1.258 . S
C909 C912 1.431 . S
C909 C929 1.449 . S
C910 C909 1.258 . S
C910 C911 1.477 . S
C910 H930 0.931 . S
C911 C907 1.460 . S
C911 C910 1.477 . S
C911 H931 0.930 . S
C912 N908 1.362 . S
C912 C909 1.431 . S
C912 C922 1.476 . S
H913 C907 0.929 . S
C914 O905 1.250 . S
C914 O906 1.258 . S
O915 Mn900 2.162 . S
O915 C903 1.281 . S
O916 Mn900 2.297 . S
O916 C903 1.236 . S
N917 Mn901 2.282 . S
N917 C918 1.328 . S
N917 C922 1.318 . S
C918 N917 1.328 . S
C918 C919 1.457 . S
C918 H923 0.929 . S
C919 C918 1.457 . S
C919 C920 1.291 . S
C919 H932 0.931 . S
C920 C919 1.291 . S
C920 C921 1.373 . S
C920 H933 0.929 . S
C921 C920 1.373 . S
C921 C922 1.396 . S
C921 C928 1.403 . S
C922 C912 1.476 . S
C922 N917 1.318 . S
C922 C921 1.396 . S
H923 C918 0.929 . S
O924 Mn900 2.385 . S
O924 C902 1.234 . S
O925 Mn900 2.209 . S
O925 Mn901 2.215 . S
O925 C902 1.283 . S
O926 Mn900 2.094 . S
O926 C904 1.240 . S
O927 Mn901 2.117 . S
O927 C904 1.264 . S
C928 C921 1.403 . S
C928 C929 1.399 . S
C928 H934 0.929 . S
C929 C909 1.449 . S
C929 C928 1.399 . S
C929 H935 0.930 . S
H930 C910 0.931 . S
H931 C911 0.930 . S
H932 C919 0.931 . S
H933 C920 0.929 . S
H934 C928 0.929 . S
H935 C929 0.930 . S
Mn936 O941 2.095 . S
Mn936 O951 2.162 . S
Mn936 O952 2.297 . S
Mn936 O960 2.385 . S
Mn936 O961 2.209 . S
Mn936 O962 2.094 . S
Mn937 O942 2.121 . S
Mn937 N944 2.257 . S
Mn937 N953 2.282 . S
Mn937 O961 2.215 . S
Mn937 O963 2.117 . S
C938 O960 1.234 . S
C938 O961 1.283 . S
C939 O951 1.281 . S
C939 O952 1.236 . S
C940 O962 1.240 . S
C940 O963 1.264 . S
O941 Mn936 2.095 . S
O941 C950 1.250 . S
O942 Mn937 2.121 . S
O942 C950 1.258 . S
C943 N944 1.326 . S
C943 C947 1.460 . S
C943 H949 0.929 . S
N944 Mn937 2.257 . S
N944 C943 1.326 . S
N944 C948 1.362 . S
C945 C946 1.258 . S
C945 C948 1.431 . S
C945 C965 1.449 . S
C946 C945 1.258 . S
C946 C947 1.477 . S
C946 H966 0.931 . S
C947 C943 1.460 . S
C947 C946 1.477 . S
C947 H967 0.930 . S
C948 N944 1.362 . S
C948 C945 1.431 . S
C948 C958 1.476 . S
H949 C943 0.929 . S
C950 O941 1.250 . S
C950 O942 1.258 . S
O951 Mn936 2.162 . S
O951 C939 1.281 . S
O952 Mn936 2.297 . S
O952 C939 1.236 . S
N953 Mn937 2.282 . S
N953 C954 1.328 . S
N953 C958 1.318 . S
C954 N953 1.328 . S
C954 C955 1.457 . S
C954 H959 0.929 . S
C955 C954 1.457 . S
C955 C956 1.291 . S
C955 H968 0.931 . S
C956 C955 1.291 . S
C956 C957 1.373 . S
C956 H969 0.929 . S
C957 C956 1.373 . S
C957 C958 1.396 . S
C957 C964 1.403 . S
C958 C948 1.476 . S
C958 N953 1.318 . S
C958 C957 1.396 . S
H959 C954 0.929 . S
O960 Mn936 2.385 . S
O960 C938 1.234 . S
O961 Mn936 2.209 . S
O961 Mn937 2.215 . S
O961 C938 1.283 . S
O962 Mn936 2.094 . S
O962 C940 1.240 . S
O963 Mn937 2.117 . S
O963 C940 1.264 . S
C964 C957 1.403 . S
C964 C965 1.399 . S
C964 H970 0.929 . S
C965 C945 1.449 . S
C965 C964 1.399 . S
C965 H971 0.930 . S
H966 C946 0.931 . S
H967 C947 0.930 . S
H968 C955 0.931 . S
H969 C956 0.929 . S
H970 C964 0.929 . S
H971 C965 0.930 . S
Mn972 O977 2.095 . S
Mn972 O987 2.162 . S
Mn972 O988 2.297 . S
Mn972 O996 2.385 . S
Mn972 O997 2.209 . S
Mn972 O998 2.094 . S
Mn973 O978 2.121 . S
Mn973 N980 2.257 . S
Mn973 N989 2.282 . S
Mn973 O997 2.215 . S
Mn973 O999 2.117 . S
C974 O996 1.234 . S
C974 O997 1.283 . S
C975 O987 1.281 . S
C975 O988 1.236 . S
C976 O998 1.240 . S
C976 O999 1.264 . S
O977 Mn972 2.095 . S
O977 C986 1.250 . S
O978 Mn973 2.121 . S
O978 C986 1.258 . S
C979 N980 1.326 . S
C979 C983 1.460 . S
C979 H985 0.929 . S
N980 Mn973 2.257 . S
N980 C979 1.326 . S
N980 C984 1.362 . S
C981 C982 1.258 . S
C981 C984 1.431 . S
C981 C1001 1.449 . S
C982 C981 1.258 . S
C982 C983 1.477 . S
C982 H1002 0.931 . S
C983 C979 1.460 . S
C983 C982 1.477 . S
C983 H1003 0.930 . S
C984 N980 1.362 . S
C984 C981 1.431 . S
C984 C994 1.476 . S
H985 C979 0.929 . S
C986 O977 1.250 . S
C986 O978 1.258 . S
O987 Mn972 2.162 . S
O987 C975 1.281 . S
O988 Mn972 2.297 . S
O988 C975 1.236 . S
N989 Mn973 2.282 . S
N989 C990 1.328 . S
N989 C994 1.318 . S
C990 N989 1.328 . S
C990 C991 1.457 . S
C990 H995 0.929 . S
C991 C990 1.457 . S
C991 C992 1.291 . S
C991 H1004 0.931 . S
C992 C991 1.291 . S
C992 C993 1.373 . S
C992 H1005 0.929 . S
C993 C992 1.373 . S
C993 C994 1.396 . S
C993 C1000 1.403 . S
C994 C984 1.476 . S
C994 N989 1.318 . S
C994 C993 1.396 . S
H995 C990 0.929 . S
O996 Mn972 2.385 . S
O996 C974 1.234 . S
O997 Mn972 2.209 . S
O997 Mn973 2.215 . S
O997 C974 1.283 . S
O998 Mn972 2.094 . S
O998 C976 1.240 . S
O999 Mn973 2.117 . S
O999 C976 1.264 . S
C1000 C993 1.403 . S
C1000 C1001 1.399 . S
C1000 H1006 0.929 . S
C1001 C981 1.449 . S
C1001 C1000 1.399 . S
C1001 H1007 0.930 . S
H1002 C982 0.931 . S
H1003 C983 0.930 . S
H1004 C991 0.931 . S
H1005 C992 0.929 . S
H1006 C1000 0.929 . S
H1007 C1001 0.930 . S
Mn1008 O1013 2.095 . S
Mn1008 O1023 2.162 . S
Mn1008 O1024 2.297 . S
Mn1008 O1032 2.385 . S
Mn1008 O1033 2.209 . S
Mn1008 O1034 2.094 . S
Mn1009 O1014 2.121 . S
Mn1009 N1016 2.257 . S
Mn1009 N1025 2.282 . S
Mn1009 O1033 2.215 . S
Mn1009 O1035 2.117 . S
C1010 O1032 1.234 . S
C1010 O1033 1.283 . S
C1011 O1023 1.281 . S
C1011 O1024 1.236 . S
C1012 O1034 1.240 . S
C1012 O1035 1.264 . S
O1013 Mn1008 2.095 . S
O1013 C1022 1.250 . S
O1014 Mn1009 2.121 . S
O1014 C1022 1.258 . S
C1015 N1016 1.326 . S
C1015 C1019 1.460 . S
C1015 H1021 0.929 . S
N1016 Mn1009 2.257 . S
N1016 C1015 1.326 . S
N1016 C1020 1.362 . S
C1017 C1018 1.258 . S
C1017 C1020 1.431 . S
C1017 C1037 1.449 . S
C1018 C1017 1.258 . S
C1018 C1019 1.477 . S
C1018 H1038 0.931 . S
C1019 C1015 1.460 . S
C1019 C1018 1.477 . S
C1019 H1039 0.930 . S
C1020 N1016 1.362 . S
C1020 C1017 1.431 . S
C1020 C1030 1.476 . S
H1021 C1015 0.929 . S
C1022 O1013 1.250 . S
C1022 O1014 1.258 . S
O1023 Mn1008 2.162 . S
O1023 C1011 1.281 . S
O1024 Mn1008 2.297 . S
O1024 C1011 1.236 . S
N1025 Mn1009 2.282 . S
N1025 C1026 1.328 . S
N1025 C1030 1.318 . S
C1026 N1025 1.328 . S
C1026 C1027 1.457 . S
C1026 H1031 0.929 . S
C1027 C1026 1.457 . S
C1027 C1028 1.291 . S
C1027 H1040 0.931 . S
C1028 C1027 1.291 . S
C1028 C1029 1.373 . S
C1028 H1041 0.929 . S
C1029 C1028 1.373 . S
C1029 C1030 1.396 . S
C1029 C1036 1.403 . S
C1030 C1020 1.476 . S
C1030 N1025 1.318 . S
C1030 C1029 1.396 . S
H1031 C1026 0.929 . S
O1032 Mn1008 2.385 . S
O1032 C1010 1.234 . S
O1033 Mn1008 2.209 . S
O1033 Mn1009 2.215 . S
O1033 C1010 1.283 . S
O1034 Mn1008 2.094 . S
O1034 C1012 1.240 . S
O1035 Mn1009 2.117 . S
O1035 C1012 1.264 . S
C1036 C1029 1.403 . S
C1036 C1037 1.399 . S
C1036 H1042 0.929 . S
C1037 C1017 1.449 . S
C1037 C1036 1.399 . S
C1037 H1043 0.930 . S
H1038 C1018 0.931 . S
H1039 C1019 0.930 . S
H1040 C1027 0.931 . S
H1041 C1028 0.929 . S
H1042 C1036 0.929 . S
H1043 C1037 0.930 . S
Mn1044 O1049 2.095 . S
Mn1044 O1059 2.162 . S
Mn1044 O1060 2.297 . S
Mn1044 O1068 2.385 . S
Mn1044 O1069 2.209 . S
Mn1044 O1070 2.094 . S
Mn1045 O1050 2.121 . S
Mn1045 N1052 2.257 . S
Mn1045 N1061 2.282 . S
Mn1045 O1069 2.215 . S
Mn1045 O1071 2.117 . S
C1046 O1068 1.234 . S
C1046 O1069 1.283 . S
C1047 O1059 1.281 . S
C1047 O1060 1.236 . S
C1048 O1070 1.240 . S
C1048 O1071 1.264 . S
O1049 Mn1044 2.095 . S
O1049 C1058 1.250 . S
O1050 Mn1045 2.121 . S
O1050 C1058 1.258 . S
C1051 N1052 1.326 . S
C1051 C1055 1.460 . S
C1051 H1057 0.929 . S
N1052 Mn1045 2.257 . S
N1052 C1051 1.326 . S
N1052 C1056 1.362 . S
C1053 C1054 1.258 . S
C1053 C1056 1.431 . S
C1053 C1073 1.449 . S
C1054 C1053 1.258 . S
C1054 C1055 1.477 . S
C1054 H1074 0.931 . S
C1055 C1051 1.460 . S
C1055 C1054 1.477 . S
C1055 H1075 0.930 . S
C1056 N1052 1.362 . S
C1056 C1053 1.431 . S
C1056 C1066 1.476 . S
H1057 C1051 0.929 . S
C1058 O1049 1.250 . S
C1058 O1050 1.258 . S
O1059 Mn1044 2.162 . S
O1059 C1047 1.281 . S
O1060 Mn1044 2.297 . S
O1060 C1047 1.236 . S
N1061 Mn1045 2.282 . S
N1061 C1062 1.328 . S
N1061 C1066 1.318 . S
C1062 N1061 1.328 . S
C1062 C1063 1.457 . S
C1062 H1067 0.929 . S
C1063 C1062 1.457 . S
C1063 C1064 1.291 . S
C1063 H1076 0.931 . S
C1064 C1063 1.291 . S
C1064 C1065 1.373 . S
C1064 H1077 0.929 . S
C1065 C1064 1.373 . S
C1065 C1066 1.396 . S
C1065 C1072 1.403 . S
C1066 C1056 1.476 . S
C1066 N1061 1.318 . S
C1066 C1065 1.396 . S
H1067 C1062 0.929 . S
O1068 Mn1044 2.385 . S
O1068 C1046 1.234 . S
O1069 Mn1044 2.209 . S
O1069 Mn1045 2.215 . S
O1069 C1046 1.283 . S
O1070 Mn1044 2.094 . S
O1070 C1048 1.240 . S
O1071 Mn1045 2.117 . S
O1071 C1048 1.264 . S
C1072 C1065 1.403 . S
C1072 C1073 1.399 . S
C1072 H1078 0.929 . S
C1073 C1053 1.449 . S
C1073 C1072 1.399 . S
C1073 H1079 0.930 . S
H1074 C1054 0.931 . S
H1075 C1055 0.930 . S
H1076 C1063 0.931 . S
H1077 C1064 0.929 . S
H1078 C1072 0.929 . S
H1079 C1073 0.930 . S
Mn1080 O1085 2.095 . S
Mn1080 O1095 2.162 . S
Mn1080 O1096 2.297 . S
Mn1080 O1104 2.385 . S
Mn1080 O1105 2.209 . S
Mn1080 O1106 2.094 . S
Mn1081 O1086 2.121 . S
Mn1081 N1088 2.257 . S
Mn1081 N1097 2.282 . S
Mn1081 O1105 2.215 . S
Mn1081 O1107 2.117 . S
C1082 O1104 1.234 . S
C1082 O1105 1.283 . S
C1083 O1095 1.281 . S
C1083 O1096 1.236 . S
C1084 O1106 1.240 . S
C1084 O1107 1.264 . S
O1085 Mn1080 2.095 . S
O1085 C1094 1.250 . S
O1086 Mn1081 2.121 . S
O1086 C1094 1.258 . S
C1087 N1088 1.326 . S
C1087 C1091 1.460 . S
C1087 H1093 0.929 . S
N1088 Mn1081 2.257 . S
N1088 C1087 1.326 . S
N1088 C1092 1.362 . S
C1089 C1090 1.258 . S
C1089 C1092 1.431 . S
C1089 C1109 1.449 . S
C1090 C1089 1.258 . S
C1090 C1091 1.477 . S
C1090 H1110 0.931 . S
C1091 C1087 1.460 . S
C1091 C1090 1.477 . S
C1091 H1111 0.930 . S
C1092 N1088 1.362 . S
C1092 C1089 1.431 . S
C1092 C1102 1.476 . S
H1093 C1087 0.929 . S
C1094 O1085 1.250 . S
C1094 O1086 1.258 . S
O1095 Mn1080 2.162 . S
O1095 C1083 1.281 . S
O1096 Mn1080 2.297 . S
O1096 C1083 1.236 . S
N1097 Mn1081 2.282 . S
N1097 C1098 1.328 . S
N1097 C1102 1.318 . S
C1098 N1097 1.328 . S
C1098 C1099 1.457 . S
C1098 H1103 0.929 . S
C1099 C1098 1.457 . S
C1099 C1100 1.291 . S
C1099 H1112 0.931 . S
C1100 C1099 1.291 . S
C1100 C1101 1.373 . S
C1100 H1113 0.929 . S
C1101 C1100 1.373 . S
C1101 C1102 1.396 . S
C1101 C1108 1.403 . S
C1102 C1092 1.476 . S
C1102 N1097 1.318 . S
C1102 C1101 1.396 . S
H1103 C1098 0.929 . S
O1104 Mn1080 2.385 . S
O1104 C1082 1.234 . S
O1105 Mn1080 2.209 . S
O1105 Mn1081 2.215 . S
O1105 C1082 1.283 . S
O1106 Mn1080 2.094 . S
O1106 C1084 1.240 . S
O1107 Mn1081 2.117 . S
O1107 C1084 1.264 . S
C1108 C1101 1.403 . S
C1108 C1109 1.399 . S
C1108 H1114 0.929 . S
C1109 C1089 1.449 . S
C1109 C1108 1.399 . S
C1109 H1115 0.930 . S
H1110 C1090 0.931 . S
H1111 C1091 0.930 . S
H1112 C1099 0.931 . S
H1113 C1100 0.929 . S
H1114 C1108 0.929 . S
H1115 C1109 0.930 . S
Mn1116 O1121 2.095 . S
Mn1116 O1131 2.162 . S
Mn1116 O1132 2.297 . S
Mn1116 O1140 2.385 . S
Mn1116 O1141 2.209 . S
Mn1116 O1142 2.094 . S
Mn1117 O1122 2.121 . S
Mn1117 N1124 2.257 . S
Mn1117 N1133 2.282 . S
Mn1117 O1141 2.215 . S
Mn1117 O1143 2.117 . S
C1118 O1140 1.234 . S
C1118 O1141 1.283 . S
C1119 O1131 1.281 . S
C1119 O1132 1.236 . S
C1120 O1142 1.240 . S
C1120 O1143 1.264 . S
O1121 Mn1116 2.095 . S
O1121 C1130 1.250 . S
O1122 Mn1117 2.121 . S
O1122 C1130 1.258 . S
C1123 N1124 1.326 . S
C1123 C1127 1.460 . S
C1123 H1129 0.929 . S
N1124 Mn1117 2.257 . S
N1124 C1123 1.326 . S
N1124 C1128 1.362 . S
C1125 C1126 1.258 . S
C1125 C1128 1.431 . S
C1125 C1145 1.449 . S
C1126 C1125 1.258 . S
C1126 C1127 1.477 . S
C1126 H1146 0.931 . S
C1127 C1123 1.460 . S
C1127 C1126 1.477 . S
C1127 H1147 0.930 . S
C1128 N1124 1.362 . S
C1128 C1125 1.431 . S
C1128 C1138 1.476 . S
H1129 C1123 0.929 . S
C1130 O1121 1.250 . S
C1130 O1122 1.258 . S
O1131 Mn1116 2.162 . S
O1131 C1119 1.281 . S
O1132 Mn1116 2.297 . S
O1132 C1119 1.236 . S
N1133 Mn1117 2.282 . S
N1133 C1134 1.328 . S
N1133 C1138 1.318 . S
C1134 N1133 1.328 . S
C1134 C1135 1.457 . S
C1134 H1139 0.929 . S
C1135 C1134 1.457 . S
C1135 C1136 1.291 . S
C1135 H1148 0.931 . S
C1136 C1135 1.291 . S
C1136 C1137 1.373 . S
C1136 H1149 0.929 . S
C1137 C1136 1.373 . S
C1137 C1138 1.396 . S
C1137 C1144 1.403 . S
C1138 C1128 1.476 . S
C1138 N1133 1.318 . S
C1138 C1137 1.396 . S
H1139 C1134 0.929 . S
O1140 Mn1116 2.385 . S
O1140 C1118 1.234 . S
O1141 Mn1116 2.209 . S
O1141 Mn1117 2.215 . S
O1141 C1118 1.283 . S
O1142 Mn1116 2.094 . S
O1142 C1120 1.240 . S
O1143 Mn1117 2.117 . S
O1143 C1120 1.264 . S
C1144 C1137 1.403 . S
C1144 C1145 1.399 . S
C1144 H1150 0.929 . S
C1145 C1125 1.449 . S
C1145 C1144 1.399 . S
C1145 H1151 0.930 . S
H1146 C1126 0.931 . S
H1147 C1127 0.930 . S
H1148 C1135 0.931 . S
H1149 C1136 0.929 . S
H1150 C1144 0.929 . S
H1151 C1145 0.930 . S
Mn1152 O1157 2.095 . S
Mn1152 O1167 2.162 . S
Mn1152 O1168 2.297 . S
Mn1152 O1176 2.385 . S
Mn1152 O1177 2.209 . S
Mn1152 O1178 2.094 . S
Mn1153 O1158 2.121 . S
Mn1153 N1160 2.257 . S
Mn1153 N1169 2.282 . S
Mn1153 O1177 2.215 . S
Mn1153 O1179 2.117 . S
C1154 O1176 1.234 . S
C1154 O1177 1.283 . S
C1155 O1167 1.281 . S
C1155 O1168 1.236 . S
C1156 O1178 1.240 . S
C1156 O1179 1.264 . S
O1157 Mn1152 2.095 . S
O1157 C1166 1.250 . S
O1158 Mn1153 2.121 . S
O1158 C1166 1.258 . S
C1159 N1160 1.326 . S
C1159 C1163 1.460 . S
C1159 H1165 0.929 . S
N1160 Mn1153 2.257 . S
N1160 C1159 1.326 . S
N1160 C1164 1.362 . S
C1161 C1162 1.258 . S
C1161 C1164 1.431 . S
C1161 C1181 1.449 . S
C1162 C1161 1.258 . S
C1162 C1163 1.477 . S
C1162 H1182 0.931 . S
C1163 C1159 1.460 . S
C1163 C1162 1.477 . S
C1163 H1183 0.930 . S
C1164 N1160 1.362 . S
C1164 C1161 1.431 . S
C1164 C1174 1.476 . S
H1165 C1159 0.929 . S
C1166 O1157 1.250 . S
C1166 O1158 1.258 . S
O1167 Mn1152 2.162 . S
O1167 C1155 1.281 . S
O1168 Mn1152 2.297 . S
O1168 C1155 1.236 . S
N1169 Mn1153 2.282 . S
N1169 C1170 1.328 . S
N1169 C1174 1.318 . S
C1170 N1169 1.328 . S
C1170 C1171 1.457 . S
C1170 H1175 0.929 . S
C1171 C1170 1.457 . S
C1171 C1172 1.291 . S
C1171 H1184 0.931 . S
C1172 C1171 1.291 . S
C1172 C1173 1.373 . S
C1172 H1185 0.929 . S
C1173 C1172 1.373 . S
C1173 C1174 1.396 . S
C1173 C1180 1.403 . S
C1174 C1164 1.476 . S
C1174 N1169 1.318 . S
C1174 C1173 1.396 . S
H1175 C1170 0.929 . S
O1176 Mn1152 2.385 . S
O1176 C1154 1.234 . S
O1177 Mn1152 2.209 . S
O1177 Mn1153 2.215 . S
O1177 C1154 1.283 . S
O1178 Mn1152 2.094 . S
O1178 C1156 1.240 . S
O1179 Mn1153 2.117 . S
O1179 C1156 1.264 . S
C1180 C1173 1.403 . S
C1180 C1181 1.399 . S
C1180 H1186 0.929 . S
C1181 C1161 1.449 . S
C1181 C1180 1.399 . S
C1181 H1187 0.930 . S
H1182 C1162 0.931 . S
H1183 C1163 0.930 . S
H1184 C1171 0.931 . S
H1185 C1172 0.929 . S
H1186 C1180 0.929 . S
H1187 C1181 0.930 . S
Mn1188 O1193 2.095 . S
Mn1188 O1203 2.162 . S
Mn1188 O1204 2.297 . S
Mn1188 O1212 2.385 . S
Mn1188 O1213 2.209 . S
Mn1188 O1214 2.094 . S
Mn1189 O1194 2.121 . S
Mn1189 N1196 2.257 . S
Mn1189 N1205 2.282 . S
Mn1189 O1213 2.215 . S
Mn1189 O1215 2.117 . S
C1190 O1212 1.234 . S
C1190 O1213 1.283 . S
C1191 O1203 1.281 . S
C1191 O1204 1.236 . S
C1192 O1214 1.240 . S
C1192 O1215 1.264 . S
O1193 Mn1188 2.095 . S
O1193 C1202 1.250 . S
O1194 Mn1189 2.121 . S
O1194 C1202 1.258 . S
C1195 N1196 1.326 . S
C1195 C1199 1.460 . S
C1195 H1201 0.929 . S
N1196 Mn1189 2.257 . S
N1196 C1195 1.326 . S
N1196 C1200 1.362 . S
C1197 C1198 1.258 . S
C1197 C1200 1.431 . S
C1197 C1217 1.449 . S
C1198 C1197 1.258 . S
C1198 C1199 1.477 . S
C1198 H1218 0.931 . S
C1199 C1195 1.460 . S
C1199 C1198 1.477 . S
C1199 H1219 0.930 . S
C1200 N1196 1.362 . S
C1200 C1197 1.431 . S
C1200 C1210 1.476 . S
H1201 C1195 0.929 . S
C1202 O1193 1.250 . S
C1202 O1194 1.258 . S
O1203 Mn1188 2.162 . S
O1203 C1191 1.281 . S
O1204 Mn1188 2.297 . S
O1204 C1191 1.236 . S
N1205 Mn1189 2.282 . S
N1205 C1206 1.328 . S
N1205 C1210 1.318 . S
C1206 N1205 1.328 . S
C1206 C1207 1.457 . S
C1206 H1211 0.929 . S
C1207 C1206 1.457 . S
C1207 C1208 1.291 . S
C1207 H1220 0.931 . S
C1208 C1207 1.291 . S
C1208 C1209 1.373 . S
C1208 H1221 0.929 . S
C1209 C1208 1.373 . S
C1209 C1210 1.396 . S
C1209 C1216 1.403 . S
C1210 C1200 1.476 . S
C1210 N1205 1.318 . S
C1210 C1209 1.396 . S
H1211 C1206 0.929 . S
O1212 Mn1188 2.385 . S
O1212 C1190 1.234 . S
O1213 Mn1188 2.209 . S
O1213 Mn1189 2.215 . S
O1213 C1190 1.283 . S
O1214 Mn1188 2.094 . S
O1214 C1192 1.240 . S
O1215 Mn1189 2.117 . S
O1215 C1192 1.264 . S
C1216 C1209 1.403 . S
C1216 C1217 1.399 . S
C1216 H1222 0.929 . S
C1217 C1197 1.449 . S
C1217 C1216 1.399 . S
C1217 H1223 0.930 . S
H1218 C1198 0.931 . S
H1219 C1199 0.930 . S
H1220 C1207 0.931 . S
H1221 C1208 0.929 . S
H1222 C1216 0.929 . S
H1223 C1217 0.930 . S
Mn1224 O1229 2.095 . S
Mn1224 O1239 2.162 . S
Mn1224 O1240 2.297 . S
Mn1224 O1248 2.385 . S
Mn1224 O1249 2.209 . S
Mn1224 O1250 2.094 . S
Mn1225 O1230 2.121 . S
Mn1225 N1232 2.257 . S
Mn1225 N1241 2.282 . S
Mn1225 O1249 2.215 . S
Mn1225 O1251 2.117 . S
C1226 O1248 1.234 . S
C1226 O1249 1.283 . S
C1227 O1239 1.281 . S
C1227 O1240 1.236 . S
C1228 O1250 1.240 . S
C1228 O1251 1.264 . S
O1229 Mn1224 2.095 . S
O1229 C1238 1.250 . S
O1230 Mn1225 2.121 . S
O1230 C1238 1.258 . S
C1231 N1232 1.326 . S
C1231 C1235 1.460 . S
C1231 H1237 0.929 . S
N1232 Mn1225 2.257 . S
N1232 C1231 1.326 . S
N1232 C1236 1.362 . S
C1233 C1234 1.258 . S
C1233 C1236 1.431 . S
C1233 C1253 1.449 . S
C1234 C1233 1.258 . S
C1234 C1235 1.477 . S
C1234 H1254 0.931 . S
C1235 C1231 1.460 . S
C1235 C1234 1.477 . S
C1235 H1255 0.930 . S
C1236 N1232 1.362 . S
C1236 C1233 1.431 . S
C1236 C1246 1.476 . S
H1237 C1231 0.929 . S
C1238 O1229 1.250 . S
C1238 O1230 1.258 . S
O1239 Mn1224 2.162 . S
O1239 C1227 1.281 . S
O1240 Mn1224 2.297 . S
O1240 C1227 1.236 . S
N1241 Mn1225 2.282 . S
N1241 C1242 1.328 . S
N1241 C1246 1.318 . S
C1242 N1241 1.328 . S
C1242 C1243 1.457 . S
C1242 H1247 0.929 . S
C1243 C1242 1.457 . S
C1243 C1244 1.291 . S
C1243 H1256 0.931 . S
C1244 C1243 1.291 . S
C1244 C1245 1.373 . S
C1244 H1257 0.929 . S
C1245 C1244 1.373 . S
C1245 C1246 1.396 . S
C1245 C1252 1.403 . S
C1246 C1236 1.476 . S
C1246 N1241 1.318 . S
C1246 C1245 1.396 . S
H1247 C1242 0.929 . S
O1248 Mn1224 2.385 . S
O1248 C1226 1.234 . S
O1249 Mn1224 2.209 . S
O1249 Mn1225 2.215 . S
O1249 C1226 1.283 . S
O1250 Mn1224 2.094 . S
O1250 C1228 1.240 . S
O1251 Mn1225 2.117 . S
O1251 C1228 1.264 . S
C1252 C1245 1.403 . S
C1252 C1253 1.399 . S
C1252 H1258 0.929 . S
C1253 C1233 1.449 . S
C1253 C1252 1.399 . S
C1253 H1259 0.930 . S
H1254 C1234 0.931 . S
H1255 C1235 0.930 . S
H1256 C1243 0.931 . S
H1257 C1244 0.929 . S
H1258 C1252 0.929 . S
H1259 C1253 0.930 . S
Mn1260 O1265 2.095 . S
Mn1260 O1275 2.162 . S
Mn1260 O1276 2.297 . S
Mn1260 O1284 2.385 . S
Mn1260 O1285 2.209 . S
Mn1260 O1286 2.094 . S
Mn1261 O1266 2.121 . S
Mn1261 N1268 2.257 . S
Mn1261 N1277 2.282 . S
Mn1261 O1285 2.215 . S
Mn1261 O1287 2.117 . S
C1262 O1284 1.234 . S
C1262 O1285 1.283 . S
C1263 O1275 1.281 . S
C1263 O1276 1.236 . S
C1264 O1286 1.240 . S
C1264 O1287 1.264 . S
O1265 Mn1260 2.095 . S
O1265 C1274 1.250 . S
O1266 Mn1261 2.121 . S
O1266 C1274 1.258 . S
C1267 N1268 1.326 . S
C1267 C1271 1.460 . S
C1267 H1273 0.929 . S
N1268 Mn1261 2.257 . S
N1268 C1267 1.326 . S
N1268 C1272 1.362 . S
C1269 C1270 1.258 . S
C1269 C1272 1.431 . S
C1269 C1289 1.449 . S
C1270 C1269 1.258 . S
C1270 C1271 1.477 . S
C1270 H1290 0.931 . S
C1271 C1267 1.460 . S
C1271 C1270 1.477 . S
C1271 H1291 0.930 . S
C1272 N1268 1.362 . S
C1272 C1269 1.431 . S
C1272 C1282 1.476 . S
H1273 C1267 0.929 . S
C1274 O1265 1.250 . S
C1274 O1266 1.258 . S
O1275 Mn1260 2.162 . S
O1275 C1263 1.281 . S
O1276 Mn1260 2.297 . S
O1276 C1263 1.236 . S
N1277 Mn1261 2.282 . S
N1277 C1278 1.328 . S
N1277 C1282 1.318 . S
C1278 N1277 1.328 . S
C1278 C1279 1.457 . S
C1278 H1283 0.929 . S
C1279 C1278 1.457 . S
C1279 C1280 1.291 . S
C1279 H1292 0.931 . S
C1280 C1279 1.291 . S
C1280 C1281 1.373 . S
C1280 H1293 0.929 . S
C1281 C1280 1.373 . S
C1281 C1282 1.396 . S
C1281 C1288 1.403 . S
C1282 C1272 1.476 . S
C1282 N1277 1.318 . S
C1282 C1281 1.396 . S
H1283 C1278 0.929 . S
O1284 Mn1260 2.385 . S
O1284 C1262 1.234 . S
O1285 Mn1260 2.209 . S
O1285 Mn1261 2.215 . S
O1285 C1262 1.283 . S
O1286 Mn1260 2.094 . S
O1286 C1264 1.240 . S
O1287 Mn1261 2.117 . S
O1287 C1264 1.264 . S
C1288 C1281 1.403 . S
C1288 C1289 1.399 . S
C1288 H1294 0.929 . S
C1289 C1269 1.449 . S
C1289 C1288 1.399 . S
C1289 H1295 0.930 . S
H1290 C1270 0.931 . S
H1291 C1271 0.930 . S
H1292 C1279 0.931 . S
H1293 C1280 0.929 . S
H1294 C1288 0.929 . S
H1295 C1289 0.930 . S
H1296 C1304 0.929 . S
H1297 C1306 0.930 . S
H1298 C1308 0.930 . S
H1299 C1311 0.929 . S
H1300 C1314 0.930 . S
H1301 C1316 0.960 . S
H1302 C1316 0.960 . S
H1303 C1316 0.960 . S
C1304 H1296 0.929 . S
C1304 C1305 1.377 . S
C1304 C1306 1.384 . S
C1305 C1304 1.377 . S
C1305 C1311 1.390 . S
C1306 H1297 0.930 . S
C1306 C1304 1.384 . S
C1306 C1307 1.372 . S
C1307 C1306 1.372 . S
C1307 C1308 1.400 . S
C1307 C1312 1.490 . S
C1308 H1298 0.930 . S
C1308 C1307 1.400 . S
C1308 C1311 1.386 . S
H1309 C1325 0.930 . S
H1310 C1326 0.931 . S
C1311 H1299 0.929 . S
C1311 C1305 1.390 . S
C1311 C1308 1.386 . S
C1312 C1307 1.490 . S
C1312 C1314 1.395 . S
C1312 C1315 1.403 . S
H1313 C1319 0.930 . S
C1314 H1300 0.930 . S
C1314 C1312 1.395 . S
C1314 C1317 1.403 . S
C1315 C1312 1.403 . S
C1315 C1316 1.524 . S
C1315 C1319 1.400 . S
C1316 H1301 0.960 . S
C1316 H1302 0.960 . S
C1316 H1303 0.960 . S
C1316 C1315 1.524 . S
C1317 C1314 1.403 . S
C1317 C1318 1.392 . S
C1317 C1321 1.495 . S
C1318 C1317 1.392 . S
C1318 C1319 1.385 . S
C1318 C1320 1.478 . S
C1319 H1313 0.930 . S
C1319 C1315 1.400 . S
C1319 C1318 1.385 . S
C1320 C1318 1.478 . S
C1320 C1322 1.381 . S
C1320 C1326 1.383 . S
C1321 C1317 1.495 . S
C1321 H1327 0.959 . S
C1321 H1328 0.961 . S
C1321 H1329 0.960 . S
C1322 C1320 1.381 . S
C1322 C1323 1.394 . S
C1322 H1330 0.930 . S
C1323 C1322 1.394 . S
C1323 C1324 1.383 . S
C1323 H1331 0.929 . S
C1324 C1323 1.383 . S
C1324 C1325 1.377 . S
C1325 H1309 0.930 . S
C1325 C1324 1.377 . S
C1325 C1326 1.379 . S
C1326 H1310 0.931 . S
C1326 C1320 1.383 . S
C1326 C1325 1.379 . S
H1327 C1321 0.959 . S
H1328 C1321 0.961 . S
H1329 C1321 0.960 . S
H1330 C1322 0.930 . S
H1331 C1323 0.929 . S
H1332 C1340 0.929 . S
H1333 C1342 0.930 . S
H1334 C1344 0.930 . S
H1335 C1347 0.929 . S
H1336 C1350 0.930 . S
H1337 C1352 0.960 . S
H1338 C1352 0.960 . S
H1339 C1352 0.960 . S
C1340 H1332 0.929 . S
C1340 C1341 1.377 . S
C1340 C1342 1.384 . S
C1341 C1340 1.377 . S
C1341 C1347 1.390 . S
C1342 H1333 0.930 . S
C1342 C1340 1.384 . S
C1342 C1343 1.372 . S
C1343 C1342 1.372 . S
C1343 C1344 1.400 . S
C1343 C1348 1.490 . S
C1344 H1334 0.930 . S
C1344 C1343 1.400 . S
C1344 C1347 1.386 . S
H1345 C1361 0.930 . S
H1346 C1362 0.931 . S
C1347 H1335 0.929 . S
C1347 C1341 1.390 . S
C1347 C1344 1.386 . S
C1348 C1343 1.490 . S
C1348 C1350 1.395 . S
C1348 C1351 1.403 . S
H1349 C1355 0.930 . S
C1350 H1336 0.930 . S
C1350 C1348 1.395 . S
C1350 C1353 1.403 . S
C1351 C1348 1.403 . S
C1351 C1352 1.524 . S
C1351 C1355 1.400 . S
C1352 H1337 0.960 . S
C1352 H1338 0.960 . S
C1352 H1339 0.960 . S
C1352 C1351 1.524 . S
C1353 C1350 1.403 . S
C1353 C1354 1.392 . S
C1353 C1357 1.495 . S
C1354 C1353 1.392 . S
C1354 C1355 1.385 . S
C1354 C1356 1.478 . S
C1355 H1349 0.930 . S
C1355 C1351 1.400 . S
C1355 C1354 1.385 . S
C1356 C1354 1.478 . S
C1356 C1358 1.381 . S
C1356 C1362 1.383 . S
C1357 C1353 1.495 . S
C1357 H1363 0.959 . S
C1357 H1364 0.961 . S
C1357 H1365 0.960 . S
C1358 C1356 1.381 . S
C1358 C1359 1.394 . S
C1358 H1366 0.930 . S
C1359 C1358 1.394 . S
C1359 C1360 1.383 . S
C1359 H1367 0.929 . S
C1360 C1359 1.383 . S
C1360 C1361 1.377 . S
C1361 H1345 0.930 . S
C1361 C1360 1.377 . S
C1361 C1362 1.379 . S
C1362 H1346 0.931 . S
C1362 C1356 1.383 . S
C1362 C1361 1.379 . S
H1363 C1357 0.959 . S
H1364 C1357 0.961 . S
H1365 C1357 0.960 . S
H1366 C1358 0.930 . S
H1367 C1359 0.929 . S
H1368 C1376 0.929 . S
H1369 C1378 0.930 . S
H1370 C1380 0.930 . S
H1371 C1383 0.929 . S
H1372 C1386 0.930 . S
H1373 C1388 0.960 . S
H1374 C1388 0.960 . S
H1375 C1388 0.960 . S
C1376 H1368 0.929 . S
C1376 C1377 1.377 . S
C1376 C1378 1.384 . S
C1377 C1376 1.377 . S
C1377 C1383 1.390 . S
C1378 H1369 0.930 . S
C1378 C1376 1.384 . S
C1378 C1379 1.372 . S
C1379 C1378 1.372 . S
C1379 C1380 1.400 . S
C1379 C1384 1.490 . S
C1380 H1370 0.930 . S
C1380 C1379 1.400 . S
C1380 C1383 1.386 . S
H1381 C1397 0.930 . S
H1382 C1398 0.931 . S
C1383 H1371 0.929 . S
C1383 C1377 1.390 . S
C1383 C1380 1.386 . S
C1384 C1379 1.490 . S
C1384 C1386 1.395 . S
C1384 C1387 1.403 . S
H1385 C1391 0.930 . S
C1386 H1372 0.930 . S
C1386 C1384 1.395 . S
C1386 C1389 1.403 . S
C1387 C1384 1.403 . S
C1387 C1388 1.524 . S
C1387 C1391 1.400 . S
C1388 H1373 0.960 . S
C1388 H1374 0.960 . S
C1388 H1375 0.960 . S
C1388 C1387 1.524 . S
C1389 C1386 1.403 . S
C1389 C1390 1.392 . S
C1389 C1393 1.495 . S
C1390 C1389 1.392 . S
C1390 C1391 1.385 . S
C1390 C1392 1.478 . S
C1391 H1385 0.930 . S
C1391 C1387 1.400 . S
C1391 C1390 1.385 . S
C1392 C1390 1.478 . S
C1392 C1394 1.381 . S
C1392 C1398 1.383 . S
C1393 C1389 1.495 . S
C1393 H1399 0.959 . S
C1393 H1400 0.961 . S
C1393 H1401 0.960 . S
C1394 C1392 1.381 . S
C1394 C1395 1.394 . S
C1394 H1402 0.930 . S
C1395 C1394 1.394 . S
C1395 C1396 1.383 . S
C1395 H1403 0.929 . S
C1396 C1395 1.383 . S
C1396 C1397 1.377 . S
C1397 H1381 0.930 . S
C1397 C1396 1.377 . S
C1397 C1398 1.379 . S
C1398 H1382 0.931 . S
C1398 C1392 1.383 . S
C1398 C1397 1.379 . S
H1399 C1393 0.959 . S
H1400 C1393 0.961 . S
H1401 C1393 0.960 . S
H1402 C1394 0.930 . S
H1403 C1395 0.929 . S
H1404 C1412 0.929 . S
H1405 C1414 0.930 . S
H1406 C1416 0.930 . S
H1407 C1419 0.929 . S
H1408 C1422 0.930 . S
H1409 C1424 0.960 . S
H1410 C1424 0.960 . S
H1411 C1424 0.960 . S
C1412 H1404 0.929 . S
C1412 C1413 1.377 . S
C1412 C1414 1.384 . S
C1413 C1412 1.377 . S
C1413 C1419 1.390 . S
C1414 H1405 0.930 . S
C1414 C1412 1.384 . S
C1414 C1415 1.372 . S
C1415 C1414 1.372 . S
C1415 C1416 1.400 . S
C1415 C1420 1.490 . S
C1416 H1406 0.930 . S
C1416 C1415 1.400 . S
C1416 C1419 1.386 . S
H1417 C1433 0.930 . S
H1418 C1434 0.931 . S
C1419 H1407 0.929 . S
C1419 C1413 1.390 . S
C1419 C1416 1.386 . S
C1420 C1415 1.490 . S
C1420 C1422 1.395 . S
C1420 C1423 1.403 . S
H1421 C1427 0.930 . S
C1422 H1408 0.930 . S
C1422 C1420 1.395 . S
C1422 C1425 1.403 . S
C1423 C1420 1.403 . S
C1423 C1424 1.524 . S
C1423 C1427 1.400 . S
C1424 H1409 0.960 . S
C1424 H1410 0.960 . S
C1424 H1411 0.960 . S
C1424 C1423 1.524 . S
C1425 C1422 1.403 . S
C1425 C1426 1.392 . S
C1425 C1429 1.495 . S
C1426 C1425 1.392 . S
C1426 C1427 1.385 . S
C1426 C1428 1.478 . S
C1427 H1421 0.930 . S
C1427 C1423 1.400 . S
C1427 C1426 1.385 . S
C1428 C1426 1.478 . S
C1428 C1430 1.381 . S
C1428 C1434 1.383 . S
C1429 C1425 1.495 . S
C1429 H1435 0.959 . S
C1429 H1436 0.961 . S
C1429 H1437 0.960 . S
C1430 C1428 1.381 . S
C1430 C1431 1.394 . S
C1430 H1438 0.930 . S
C1431 C1430 1.394 . S
C1431 C1432 1.383 . S
C1431 H1439 0.929 . S
C1432 C1431 1.383 . S
C1432 C1433 1.377 . S
C1433 H1417 0.930 . S
C1433 C1432 1.377 . S
C1433 C1434 1.379 . S
C1434 H1418 0.931 . S
C1434 C1428 1.383 . S
C1434 C1433 1.379 . S
H1435 C1429 0.959 . S
H1436 C1429 0.961 . S
H1437 C1429 0.960 . S
H1438 C1430 0.930 . S
H1439 C1431 0.929 . S
H1440 C1448 0.929 . S
H1441 C1450 0.930 . S
H1442 C1452 0.930 . S
H1443 C1455 0.929 . S
H1444 C1458 0.930 . S
H1445 C1460 0.960 . S
H1446 C1460 0.960 . S
H1447 C1460 0.960 . S
C1448 H1440 0.929 . S
C1448 C1449 1.377 . S
C1448 C1450 1.384 . S
C1449 C1448 1.377 . S
C1449 C1455 1.390 . S
C1450 H1441 0.930 . S
C1450 C1448 1.384 . S
C1450 C1451 1.372 . S
C1451 C1450 1.372 . S
C1451 C1452 1.400 . S
C1451 C1456 1.490 . S
C1452 H1442 0.930 . S
C1452 C1451 1.400 . S
C1452 C1455 1.386 . S
H1453 C1469 0.930 . S
H1454 C1470 0.931 . S
C1455 H1443 0.929 . S
C1455 C1449 1.390 . S
C1455 C1452 1.386 . S
C1456 C1451 1.490 . S
C1456 C1458 1.395 . S
C1456 C1459 1.403 . S
H1457 C1463 0.930 . S
C1458 H1444 0.930 . S
C1458 C1456 1.395 . S
C1458 C1461 1.403 . S
C1459 C1456 1.403 . S
C1459 C1460 1.524 . S
C1459 C1463 1.400 . S
C1460 H1445 0.960 . S
C1460 H1446 0.960 . S
C1460 H1447 0.960 . S
C1460 C1459 1.524 . S
C1461 C1458 1.403 . S
C1461 C1462 1.392 . S
C1461 C1465 1.495 . S
C1462 C1461 1.392 . S
C1462 C1463 1.385 . S
C1462 C1464 1.478 . S
C1463 H1457 0.930 . S
C1463 C1459 1.400 . S
C1463 C1462 1.385 . S
C1464 C1462 1.478 . S
C1464 C1466 1.381 . S
C1464 C1470 1.383 . S
C1465 C1461 1.495 . S
C1465 H1471 0.959 . S
C1465 H1472 0.961 . S
C1465 H1473 0.960 . S
C1466 C1464 1.381 . S
C1466 C1467 1.394 . S
C1466 H1474 0.930 . S
C1467 C1466 1.394 . S
C1467 C1468 1.383 . S
C1467 H1475 0.929 . S
C1468 C1467 1.383 . S
C1468 C1469 1.377 . S
C1469 H1453 0.930 . S
C1469 C1468 1.377 . S
C1469 C1470 1.379 . S
C1470 H1454 0.931 . S
C1470 C1464 1.383 . S
C1470 C1469 1.379 . S
H1471 C1465 0.959 . S
H1472 C1465 0.961 . S
H1473 C1465 0.960 . S
H1474 C1466 0.930 . S
H1475 C1467 0.929 . S
H1476 C1484 0.929 . S
H1477 C1486 0.930 . S
H1478 C1488 0.930 . S
H1479 C1491 0.929 . S
H1480 C1494 0.930 . S
H1481 C1496 0.960 . S
H1482 C1496 0.960 . S
H1483 C1496 0.960 . S
C1484 H1476 0.929 . S
C1484 C1485 1.377 . S
C1484 C1486 1.384 . S
C1485 C1484 1.377 . S
C1485 C1491 1.390 . S
C1486 H1477 0.930 . S
C1486 C1484 1.384 . S
C1486 C1487 1.372 . S
C1487 C1486 1.372 . S
C1487 C1488 1.400 . S
C1487 C1492 1.490 . S
C1488 H1478 0.930 . S
C1488 C1487 1.400 . S
C1488 C1491 1.386 . S
H1489 C1505 0.930 . S
H1490 C1506 0.931 . S
C1491 H1479 0.929 . S
C1491 C1485 1.390 . S
C1491 C1488 1.386 . S
C1492 C1487 1.490 . S
C1492 C1494 1.395 . S
C1492 C1495 1.403 . S
H1493 C1499 0.930 . S
C1494 H1480 0.930 . S
C1494 C1492 1.395 . S
C1494 C1497 1.403 . S
C1495 C1492 1.403 . S
C1495 C1496 1.524 . S
C1495 C1499 1.400 . S
C1496 H1481 0.960 . S
C1496 H1482 0.960 . S
C1496 H1483 0.960 . S
C1496 C1495 1.524 . S
C1497 C1494 1.403 . S
C1497 C1498 1.392 . S
C1497 C1501 1.495 . S
C1498 C1497 1.392 . S
C1498 C1499 1.385 . S
C1498 C1500 1.478 . S
C1499 H1493 0.930 . S
C1499 C1495 1.400 . S
C1499 C1498 1.385 . S
C1500 C1498 1.478 . S
C1500 C1502 1.381 . S
C1500 C1506 1.383 . S
C1501 C1497 1.495 . S
C1501 H1507 0.959 . S
C1501 H1508 0.961 . S
C1501 H1509 0.960 . S
C1502 C1500 1.381 . S
C1502 C1503 1.394 . S
C1502 H1510 0.930 . S
C1503 C1502 1.394 . S
C1503 C1504 1.383 . S
C1503 H1511 0.929 . S
C1504 C1503 1.383 . S
C1504 C1505 1.377 . S
C1505 H1489 0.930 . S
C1505 C1504 1.377 . S
C1505 C1506 1.379 . S
C1506 H1490 0.931 . S
C1506 C1500 1.383 . S
C1506 C1505 1.379 . S
H1507 C1501 0.959 . S
H1508 C1501 0.961 . S
H1509 C1501 0.960 . S
H1510 C1502 0.930 . S
H1511 C1503 0.929 . S
H1512 C1520 0.929 . S
H1513 C1522 0.930 . S
H1514 C1524 0.930 . S
H1515 C1527 0.929 . S
H1516 C1530 0.930 . S
H1517 C1532 0.960 . S
H1518 C1532 0.960 . S
H1519 C1532 0.960 . S
C1520 H1512 0.929 . S
C1520 C1521 1.377 . S
C1520 C1522 1.384 . S
C1521 C1520 1.377 . S
C1521 C1527 1.390 . S
C1522 H1513 0.930 . S
C1522 C1520 1.384 . S
C1522 C1523 1.372 . S
C1523 C1522 1.372 . S
C1523 C1524 1.400 . S
C1523 C1528 1.490 . S
C1524 H1514 0.930 . S
C1524 C1523 1.400 . S
C1524 C1527 1.386 . S
H1525 C1541 0.930 . S
H1526 C1542 0.931 . S
C1527 H1515 0.929 . S
C1527 C1521 1.390 . S
C1527 C1524 1.386 . S
C1528 C1523 1.490 . S
C1528 C1530 1.395 . S
C1528 C1531 1.403 . S
H1529 C1535 0.930 . S
C1530 H1516 0.930 . S
C1530 C1528 1.395 . S
C1530 C1533 1.403 . S
C1531 C1528 1.403 . S
C1531 C1532 1.524 . S
C1531 C1535 1.400 . S
C1532 H1517 0.960 . S
C1532 H1518 0.960 . S
C1532 H1519 0.960 . S
C1532 C1531 1.524 . S
C1533 C1530 1.403 . S
C1533 C1534 1.392 . S
C1533 C1537 1.495 . S
C1534 C1533 1.392 . S
C1534 C1535 1.385 . S
C1534 C1536 1.478 . S
C1535 H1529 0.930 . S
C1535 C1531 1.400 . S
C1535 C1534 1.385 . S
C1536 C1534 1.478 . S
C1536 C1538 1.381 . S
C1536 C1542 1.383 . S
C1537 C1533 1.495 . S
C1537 H1543 0.959 . S
C1537 H1544 0.961 . S
C1537 H1545 0.960 . S
C1538 C1536 1.381 . S
C1538 C1539 1.394 . S
C1538 H1546 0.930 . S
C1539 C1538 1.394 . S
C1539 C1540 1.383 . S
C1539 H1547 0.929 . S
C1540 C1539 1.383 . S
C1540 C1541 1.377 . S
C1541 H1525 0.930 . S
C1541 C1540 1.377 . S
C1541 C1542 1.379 . S
C1542 H1526 0.931 . S
C1542 C1536 1.383 . S
C1542 C1541 1.379 . S
H1543 C1537 0.959 . S
H1544 C1537 0.961 . S
H1545 C1537 0.960 . S
H1546 C1538 0.930 . S
H1547 C1539 0.929 . S
H1548 C1556 0.929 . S
H1549 C1558 0.930 . S
H1550 C1560 0.930 . S
H1551 C1563 0.929 . S
H1552 C1566 0.930 . S
H1553 C1568 0.960 . S
H1554 C1568 0.960 . S
H1555 C1568 0.960 . S
C1556 H1548 0.929 . S
C1556 C1557 1.377 . S
C1556 C1558 1.384 . S
C1557 C1556 1.377 . S
C1557 C1563 1.390 . S
C1558 H1549 0.930 . S
C1558 C1556 1.384 . S
C1558 C1559 1.372 . S
C1559 C1558 1.372 . S
C1559 C1560 1.400 . S
C1559 C1564 1.490 . S
C1560 H1550 0.930 . S
C1560 C1559 1.400 . S
C1560 C1563 1.386 . S
H1561 C1577 0.930 . S
H1562 C1578 0.931 . S
C1563 H1551 0.929 . S
C1563 C1557 1.390 . S
C1563 C1560 1.386 . S
C1564 C1559 1.490 . S
C1564 C1566 1.395 . S
C1564 C1567 1.403 . S
H1565 C1571 0.930 . S
C1566 H1552 0.930 . S
C1566 C1564 1.395 . S
C1566 C1569 1.403 . S
C1567 C1564 1.403 . S
C1567 C1568 1.524 . S
C1567 C1571 1.400 . S
C1568 H1553 0.960 . S
C1568 H1554 0.960 . S
C1568 H1555 0.960 . S
C1568 C1567 1.524 . S
C1569 C1566 1.403 . S
C1569 C1570 1.392 . S
C1569 C1573 1.495 . S
C1570 C1569 1.392 . S
C1570 C1571 1.385 . S
C1570 C1572 1.478 . S
C1571 H1565 0.930 . S
C1571 C1567 1.400 . S
C1571 C1570 1.385 . S
C1572 C1570 1.478 . S
C1572 C1574 1.381 . S
C1572 C1578 1.383 . S
C1573 C1569 1.495 . S
C1573 H1579 0.959 . S
C1573 H1580 0.961 . S
C1573 H1581 0.960 . S
C1574 C1572 1.381 . S
C1574 C1575 1.394 . S
C1574 H1582 0.930 . S
C1575 C1574 1.394 . S
C1575 C1576 1.383 . S
C1575 H1583 0.929 . S
C1576 C1575 1.383 . S
C1576 C1577 1.377 . S
C1577 H1561 0.930 . S
C1577 C1576 1.377 . S
C1577 C1578 1.379 . S
C1578 H1562 0.931 . S
C1578 C1572 1.383 . S
C1578 C1577 1.379 . S
H1579 C1573 0.959 . S
H1580 C1573 0.961 . S
H1581 C1573 0.960 . S
H1582 C1574 0.930 . S
H1583 C1575 0.929 . S
H1584 C1592 0.929 . S
H1585 C1594 0.930 . S
H1586 C1596 0.930 . S
H1587 C1599 0.929 . S
H1588 C1602 0.930 . S
H1589 C1604 0.960 . S
H1590 C1604 0.960 . S
H1591 C1604 0.960 . S
C1592 H1584 0.929 . S
C1592 C1593 1.377 . S
C1592 C1594 1.384 . S
C1593 C1592 1.377 . S
C1593 C1599 1.390 . S
C1594 H1585 0.930 . S
C1594 C1592 1.384 . S
C1594 C1595 1.372 . S
C1595 C1594 1.372 . S
C1595 C1596 1.400 . S
C1595 C1600 1.490 . S
C1596 H1586 0.930 . S
C1596 C1595 1.400 . S
C1596 C1599 1.386 . S
H1597 C1613 0.930 . S
H1598 C1614 0.931 . S
C1599 H1587 0.929 . S
C1599 C1593 1.390 . S
C1599 C1596 1.386 . S
C1600 C1595 1.490 . S
C1600 C1602 1.395 . S
C1600 C1603 1.403 . S
H1601 C1607 0.930 . S
C1602 H1588 0.930 . S
C1602 C1600 1.395 . S
C1602 C1605 1.403 . S
C1603 C1600 1.403 . S
C1603 C1604 1.524 . S
C1603 C1607 1.400 . S
C1604 H1589 0.960 . S
C1604 H1590 0.960 . S
C1604 H1591 0.960 . S
C1604 C1603 1.524 . S
C1605 C1602 1.403 . S
C1605 C1606 1.392 . S
C1605 C1609 1.495 . S
C1606 C1605 1.392 . S
C1606 C1607 1.385 . S
C1606 C1608 1.478 . S
C1607 H1601 0.930 . S
C1607 C1603 1.400 . S
C1607 C1606 1.385 . S
C1608 C1606 1.478 . S
C1608 C1610 1.381 . S
C1608 C1614 1.383 . S
C1609 C1605 1.495 . S
C1609 H1615 0.959 . S
C1609 H1616 0.961 . S
C1609 H1617 0.960 . S
C1610 C1608 1.381 . S
C1610 C1611 1.394 . S
C1610 H1618 0.930 . S
C1611 C1610 1.394 . S
C1611 C1612 1.383 . S
C1611 H1619 0.929 . S
C1612 C1611 1.383 . S
C1612 C1613 1.377 . S
C1613 H1597 0.930 . S
C1613 C1612 1.377 . S
C1613 C1614 1.379 . S
C1614 H1598 0.931 . S
C1614 C1608 1.383 . S
C1614 C1613 1.379 . S
H1615 C1609 0.959 . S
H1616 C1609 0.961 . S
H1617 C1609 0.960 . S
H1618 C1610 0.930 . S
H1619 C1611 0.929 . S
H1620 C1628 0.929 . S
H1621 C1630 0.930 . S
H1622 C1632 0.930 . S
H1623 C1635 0.929 . S
H1624 C1638 0.930 . S
H1625 C1640 0.960 . S
H1626 C1640 0.960 . S
H1627 C1640 0.960 . S
C1628 H1620 0.929 . S
C1628 C1629 1.377 . S
C1628 C1630 1.384 . S
C1629 C1628 1.377 . S
C1629 C1635 1.390 . S
C1630 H1621 0.930 . S
C1630 C1628 1.384 . S
C1630 C1631 1.372 . S
C1631 C1630 1.372 . S
C1631 C1632 1.400 . S
C1631 C1636 1.490 . S
C1632 H1622 0.930 . S
C1632 C1631 1.400 . S
C1632 C1635 1.386 . S
H1633 C1649 0.930 . S
H1634 C1650 0.931 . S
C1635 H1623 0.929 . S
C1635 C1629 1.390 . S
C1635 C1632 1.386 . S
C1636 C1631 1.490 . S
C1636 C1638 1.395 . S
C1636 C1639 1.403 . S
H1637 C1643 0.930 . S
C1638 H1624 0.930 . S
C1638 C1636 1.395 . S
C1638 C1641 1.403 . S
C1639 C1636 1.403 . S
C1639 C1640 1.524 1_655 S
C1639 C1643 1.400 . S
C1640 H1625 0.960 . S
C1640 H1626 0.960 . S
C1640 H1627 0.960 . S
C1640 C1639 1.524 1_455 S
C1641 C1638 1.403 . S
C1641 C1642 1.392 . S
C1641 C1645 1.495 . S
C1642 C1641 1.392 . S
C1642 C1643 1.385 . S
C1642 C1644 1.478 . S
C1643 H1637 0.930 . S
C1643 C1639 1.400 . S
C1643 C1642 1.385 . S
C1644 C1642 1.478 . S
C1644 C1646 1.381 . S
C1644 C1650 1.383 . S
C1645 C1641 1.495 . S
C1645 H1651 0.959 . S
C1645 H1652 0.961 . S
C1645 H1653 0.960 . S
C1646 C1644 1.381 . S
C1646 C1647 1.394 . S
C1646 H1654 0.930 . S
C1647 C1646 1.394 . S
C1647 C1648 1.383 . S
C1647 H1655 0.929 . S
C1648 C1647 1.383 . S
C1648 C1649 1.377 . S
C1649 H1633 0.930 . S
C1649 C1648 1.377 . S
C1649 C1650 1.379 . S
C1650 H1634 0.931 . S
C1650 C1644 1.383 . S
C1650 C1649 1.379 . S
H1651 C1645 0.959 . S
H1652 C1645 0.961 . S
H1653 C1645 0.960 . S
H1654 C1646 0.930 . S
H1655 C1647 0.929 . S
H1656 C1664 0.929 . S
H1657 C1666 0.930 . S
H1658 C1668 0.930 . S
H1659 C1671 0.929 . S
H1660 C1674 0.930 . S
H1661 C1676 0.960 . S
H1662 C1676 0.960 . S
H1663 C1676 0.960 . S
C1664 H1656 0.929 . S
C1664 C1665 1.377 . S
C1664 C1666 1.384 . S
C1665 C1664 1.377 . S
C1665 C1671 1.390 . S
C1666 H1657 0.930 . S
C1666 C1664 1.384 . S
C1666 C1667 1.372 . S
C1667 C1666 1.372 . S
C1667 C1668 1.400 . S
C1667 C1672 1.490 . S
C1668 H1658 0.930 . S
C1668 C1667 1.400 . S
C1668 C1671 1.386 . S
H1669 C1685 0.930 . S
H1670 C1686 0.931 . S
C1671 H1659 0.929 . S
C1671 C1665 1.390 . S
C1671 C1668 1.386 . S
C1672 C1667 1.490 . S
C1672 C1674 1.395 . S
C1672 C1675 1.403 . S
H1673 C1679 0.930 . S
C1674 H1660 0.930 . S
C1674 C1672 1.395 . S
C1674 C1677 1.403 . S
C1675 C1672 1.403 . S
C1675 C1676 1.524 . S
C1675 C1679 1.400 . S
C1676 H1661 0.960 . S
C1676 H1662 0.960 . S
C1676 H1663 0.960 . S
C1676 C1675 1.524 . S
C1677 C1674 1.403 . S
C1677 C1678 1.392 . S
C1677 C1681 1.495 . S
C1678 C1677 1.392 . S
C1678 C1679 1.385 . S
C1678 C1680 1.478 . S
C1679 H1673 0.930 . S
C1679 C1675 1.400 . S
C1679 C1678 1.385 . S
C1680 C1678 1.478 . S
C1680 C1682 1.381 . S
C1680 C1686 1.383 . S
C1681 C1677 1.495 . S
C1681 H1687 0.959 . S
C1681 H1688 0.961 . S
C1681 H1689 0.960 . S
C1682 C1680 1.381 . S
C1682 C1683 1.394 . S
C1682 H1690 0.930 . S
C1683 C1682 1.394 . S
C1683 C1684 1.383 . S
C1683 H1691 0.929 . S
C1684 C1683 1.383 . S
C1684 C1685 1.377 . S
C1685 H1669 0.930 . S
C1685 C1684 1.377 . S
C1685 C1686 1.379 . S
C1686 H1670 0.931 . S
C1686 C1680 1.383 . S
C1686 C1685 1.379 . S
H1687 C1681 0.959 . S
H1688 C1681 0.961 . S
H1689 C1681 0.960 . S
H1690 C1682 0.930 . S
H1691 C1683 0.929 . S
H1692 C1700 0.929 . S
H1693 C1702 0.930 . S
H1694 C1704 0.930 . S
H1695 C1707 0.929 . S
H1696 C1710 0.930 . S
H1697 C1712 0.960 . S
H1698 C1712 0.960 . S
H1699 C1712 0.960 . S
C1700 H1692 0.929 . S
C1700 C1701 1.377 . S
C1700 C1702 1.384 . S
C1701 C1700 1.377 . S
C1701 C1707 1.390 . S
C1702 H1693 0.930 . S
C1702 C1700 1.384 . S
C1702 C1703 1.372 . S
C1703 C1702 1.372 . S
C1703 C1704 1.400 . S
C1703 C1708 1.490 . S
C1704 H1694 0.930 . S
C1704 C1703 1.400 . S
C1704 C1707 1.386 . S
H1705 C1721 0.930 . S
H1706 C1722 0.931 . S
C1707 H1695 0.929 . S
C1707 C1701 1.390 . S
C1707 C1704 1.386 . S
C1708 C1703 1.490 . S
C1708 C1710 1.395 . S
C1708 C1711 1.403 . S
H1709 C1715 0.930 . S
C1710 H1696 0.930 . S
C1710 C1708 1.395 . S
C1710 C1713 1.403 . S
C1711 C1708 1.403 . S
C1711 C1712 1.524 . S
C1711 C1715 1.400 . S
C1712 H1697 0.960 . S
C1712 H1698 0.960 . S
C1712 H1699 0.960 . S
C1712 C1711 1.524 . S
C1713 C1710 1.403 . S
C1713 C1714 1.392 . S
C1713 C1717 1.495 . S
C1714 C1713 1.392 . S
C1714 C1715 1.385 . S
C1714 C1716 1.478 . S
C1715 H1709 0.930 . S
C1715 C1711 1.400 . S
C1715 C1714 1.385 . S
C1716 C1714 1.478 . S
C1716 C1718 1.381 . S
C1716 C1722 1.383 . S
C1717 C1713 1.495 . S
C1717 H1723 0.959 . S
C1717 H1724 0.961 . S
C1717 H1725 0.960 . S
C1718 C1716 1.381 . S
C1718 C1719 1.394 . S
C1718 H1726 0.930 . S
C1719 C1718 1.394 . S
C1719 C1720 1.383 . S
C1719 H1727 0.929 . S
C1720 C1719 1.383 . S
C1720 C1721 1.377 . S
C1721 H1705 0.930 . S
C1721 C1720 1.377 . S
C1721 C1722 1.379 . S
C1722 H1706 0.931 . S
C1722 C1716 1.383 . S
C1722 C1721 1.379 . S
H1723 C1717 0.959 . S
H1724 C1717 0.961 . S
H1725 C1717 0.960 . S
H1726 C1718 0.930 . S
H1727 C1719 0.929 . S
H1728 C1736 0.929 . S
H1729 C1738 0.930 . S
H1730 C1740 0.930 . S
H1731 C1743 0.929 . S
H1732 C1746 0.930 . S
H1733 C1748 0.960 . S
H1734 C1748 0.960 . S
H1735 C1748 0.960 . S
C1736 H1728 0.929 . S
C1736 C1737 1.377 . S
C1736 C1738 1.384 . S
C1737 C1736 1.377 . S
C1737 C1743 1.390 . S
C1738 H1729 0.930 . S
C1738 C1736 1.384 . S
C1738 C1739 1.372 . S
C1739 C1738 1.372 . S
C1739 C1740 1.400 . S
C1739 C1744 1.490 . S
C1740 H1730 0.930 . S
C1740 C1739 1.400 . S
C1740 C1743 1.386 . S
H1741 C1757 0.930 . S
H1742 C1758 0.931 . S
C1743 H1731 0.929 . S
C1743 C1737 1.390 . S
C1743 C1740 1.386 . S
C1744 C1739 1.490 . S
C1744 C1746 1.395 . S
C1744 C1747 1.403 . S
H1745 C1751 0.930 . S
C1746 H1732 0.930 . S
C1746 C1744 1.395 . S
C1746 C1749 1.403 . S
C1747 C1744 1.403 . S
C1747 C1748 1.524 . S
C1747 C1751 1.400 . S
C1748 H1733 0.960 . S
C1748 H1734 0.960 . S
C1748 H1735 0.960 . S
C1748 C1747 1.524 . S
C1749 C1746 1.403 . S
C1749 C1750 1.392 . S
C1749 C1753 1.495 . S
C1750 C1749 1.392 . S
C1750 C1751 1.385 . S
C1750 C1752 1.478 . S
C1751 H1745 0.930 . S
C1751 C1747 1.400 . S
C1751 C1750 1.385 . S
C1752 C1750 1.478 . S
C1752 C1754 1.381 . S
C1752 C1758 1.383 . S
C1753 C1749 1.495 . S
C1753 H1759 0.959 . S
C1753 H1760 0.961 . S
C1753 H1761 0.960 . S
C1754 C1752 1.381 . S
C1754 C1755 1.394 . S
C1754 H1762 0.930 . S
C1755 C1754 1.394 . S
C1755 C1756 1.383 . S
C1755 H1763 0.929 . S
C1756 C1755 1.383 . S
C1756 C1757 1.377 . S
C1757 H1741 0.930 . S
C1757 C1756 1.377 . S
C1757 C1758 1.379 . S
C1758 H1742 0.931 . S
C1758 C1752 1.383 . S
C1758 C1757 1.379 . S
H1759 C1753 0.959 . S
H1760 C1753 0.961 . S
H1761 C1753 0.960 . S
H1762 C1754 0.930 . S
H1763 C1755 0.929 . S
H1764 C1772 0.929 . S
H1765 C1774 0.930 . S
H1766 C1776 0.930 . S
H1767 C1779 0.929 . S
H1768 C1782 0.930 . S
H1769 C1784 0.960 . S
H1770 C1784 0.960 . S
H1771 C1784 0.960 . S
C1772 H1764 0.929 . S
C1772 C1773 1.377 . S
C1772 C1774 1.384 . S
C1773 C1772 1.377 . S
C1773 C1779 1.390 . S
C1774 H1765 0.930 . S
C1774 C1772 1.384 . S
C1774 C1775 1.372 . S
C1775 C1774 1.372 . S
C1775 C1776 1.400 . S
C1775 C1780 1.490 . S
C1776 H1766 0.930 . S
C1776 C1775 1.400 . S
C1776 C1779 1.386 . S
H1777 C1793 0.930 . S
H1778 C1794 0.931 . S
C1779 H1767 0.929 . S
C1779 C1773 1.390 . S
C1779 C1776 1.386 . S
C1780 C1775 1.490 . S
C1780 C1782 1.395 . S
C1780 C1783 1.403 . S
H1781 C1787 0.930 . S
C1782 H1768 0.930 . S
C1782 C1780 1.395 . S
C1782 C1785 1.403 . S
C1783 C1780 1.403 . S
C1783 C1784 1.524 . S
C1783 C1787 1.400 . S
C1784 H1769 0.960 . S
C1784 H1770 0.960 . S
C1784 H1771 0.960 . S
C1784 C1783 1.524 . S
C1785 C1782 1.403 . S
C1785 C1786 1.392 . S
C1785 C1789 1.495 . S
C1786 C1785 1.392 . S
C1786 C1787 1.385 . S
C1786 C1788 1.478 . S
C1787 H1781 0.930 . S
C1787 C1783 1.400 . S
C1787 C1786 1.385 . S
C1788 C1786 1.478 . S
C1788 C1790 1.381 . S
C1788 C1794 1.383 . S
C1789 C1785 1.495 . S
C1789 H1795 0.959 . S
C1789 H1796 0.961 . S
C1789 H1797 0.960 . S
C1790 C1788 1.381 . S
C1790 C1791 1.394 . S
C1790 H1798 0.930 . S
C1791 C1790 1.394 . S
C1791 C1792 1.383 . S
C1791 H1799 0.929 . S
C1792 C1791 1.383 . S
C1792 C1793 1.377 . S
C1793 H1777 0.930 . S
C1793 C1792 1.377 . S
C1793 C1794 1.379 . S
C1794 H1778 0.931 . S
C1794 C1788 1.383 . S
C1794 C1793 1.379 . S
H1795 C1789 0.959 . S
H1796 C1789 0.961 . S
H1797 C1789 0.960 . S
H1798 C1790 0.930 . S
H1799 C1791 0.929 . S
H1800 C1808 0.929 . S
H1801 C1810 0.930 . S
H1802 C1812 0.930 . S
H1803 C1815 0.929 . S
H1804 C1818 0.930 . S
H1805 C1820 0.960 . S
H1806 C1820 0.960 . S
H1807 C1820 0.960 . S
C1808 H1800 0.929 . S
C1808 C1809 1.377 . S
C1808 C1810 1.384 . S
C1809 C1808 1.377 . S
C1809 C1815 1.390 . S
C1810 H1801 0.930 . S
C1810 C1808 1.384 . S
C1810 C1811 1.372 . S
C1811 C1810 1.372 . S
C1811 C1812 1.400 . S
C1811 C1816 1.490 . S
C1812 H1802 0.930 . S
C1812 C1811 1.400 . S
C1812 C1815 1.386 . S
H1813 C1829 0.930 . S
H1814 C1830 0.931 . S
C1815 H1803 0.929 . S
C1815 C1809 1.390 . S
C1815 C1812 1.386 . S
C1816 C1811 1.490 . S
C1816 C1818 1.395 . S
C1816 C1819 1.403 . S
H1817 C1823 0.930 . S
C1818 H1804 0.930 . S
C1818 C1816 1.395 . S
C1818 C1821 1.403 . S
C1819 C1816 1.403 . S
C1819 C1820 1.524 . S
C1819 C1823 1.400 . S
C1820 H1805 0.960 . S
C1820 H1806 0.960 . S
C1820 H1807 0.960 . S
C1820 C1819 1.524 . S
C1821 C1818 1.403 . S
C1821 C1822 1.392 . S
C1821 C1825 1.495 . S
C1822 C1821 1.392 . S
C1822 C1823 1.385 . S
C1822 C1824 1.478 . S
C1823 H1817 0.930 . S
C1823 C1819 1.400 . S
C1823 C1822 1.385 . S
C1824 C1822 1.478 . S
C1824 C1826 1.381 . S
C1824 C1830 1.383 . S
C1825 C1821 1.495 . S
C1825 H1831 0.959 . S
C1825 H1832 0.961 . S
C1825 H1833 0.960 . S
C1826 C1824 1.381 . S
C1826 C1827 1.394 . S
C1826 H1834 0.930 . S
C1827 C1826 1.394 . S
C1827 C1828 1.383 . S
C1827 H1835 0.929 . S
C1828 C1827 1.383 . S
C1828 C1829 1.377 . S
C1829 H1813 0.930 . S
C1829 C1828 1.377 . S
C1829 C1830 1.379 . S
C1830 H1814 0.931 . S
C1830 C1824 1.383 . S
C1830 C1829 1.379 . S
H1831 C1825 0.959 . S
H1832 C1825 0.961 . S
H1833 C1825 0.960 . S
H1834 C1826 0.930 . S
H1835 C1827 0.929 . S
H1836 C1844 0.929 . S
H1837 C1846 0.930 . S
H1838 C1848 0.930 . S
H1839 C1851 0.929 . S
H1840 C1854 0.930 . S
H1841 C1856 0.960 . S
H1842 C1856 0.960 . S
H1843 C1856 0.960 . S
C1844 H1836 0.929 . S
C1844 C1845 1.377 . S
C1844 C1846 1.384 . S
C1845 C1844 1.377 . S
C1845 C1851 1.390 . S
C1846 H1837 0.930 . S
C1846 C1844 1.384 . S
C1846 C1847 1.372 . S
C1847 C1846 1.372 . S
C1847 C1848 1.400 . S
C1847 C1852 1.490 . S
C1848 H1838 0.930 . S
C1848 C1847 1.400 . S
C1848 C1851 1.386 . S
H1849 C1865 0.930 . S
H1850 C1866 0.931 . S
C1851 H1839 0.929 . S
C1851 C1845 1.390 . S
C1851 C1848 1.386 . S
C1852 C1847 1.490 . S
C1852 C1854 1.395 . S
C1852 C1855 1.403 . S
H1853 C1859 0.930 . S
C1854 H1840 0.930 . S
C1854 C1852 1.395 . S
C1854 C1857 1.403 . S
C1855 C1852 1.403 . S
C1855 C1856 1.524 . S
C1855 C1859 1.400 . S
C1856 H1841 0.960 . S
C1856 H1842 0.960 . S
C1856 H1843 0.960 . S
C1856 C1855 1.524 . S
C1857 C1854 1.403 . S
C1857 C1858 1.392 . S
C1857 C1861 1.495 . S
C1858 C1857 1.392 . S
C1858 C1859 1.385 . S
C1858 C1860 1.478 . S
C1859 H1853 0.930 . S
C1859 C1855 1.400 . S
C1859 C1858 1.385 . S
C1860 C1858 1.478 . S
C1860 C1862 1.381 . S
C1860 C1866 1.383 . S
C1861 C1857 1.495 . S
C1861 H1867 0.959 . S
C1861 H1868 0.961 . S
C1861 H1869 0.960 . S
C1862 C1860 1.381 . S
C1862 C1863 1.394 . S
C1862 H1870 0.930 . S
C1863 C1862 1.394 . S
C1863 C1864 1.383 . S
C1863 H1871 0.929 . S
C1864 C1863 1.383 . S
C1864 C1865 1.377 . S
C1865 H1849 0.930 . S
C1865 C1864 1.377 . S
C1865 C1866 1.379 . S
C1866 H1850 0.931 . S
C1866 C1860 1.383 . S
C1866 C1865 1.379 . S
H1867 C1861 0.959 . S
H1868 C1861 0.961 . S
H1869 C1861 0.960 . S
H1870 C1862 0.930 . S
H1871 C1863 0.929 . S
H1872 C1880 0.929 . S
H1873 C1882 0.930 . S
H1874 C1884 0.930 . S
H1875 C1887 0.929 . S
H1876 C1890 0.930 . S
H1877 C1892 0.960 . S
H1878 C1892 0.960 . S
H1879 C1892 0.960 . S
C1880 H1872 0.929 . S
C1880 C1881 1.377 . S
C1880 C1882 1.384 . S
C1881 C1880 1.377 . S
C1881 C1887 1.390 . S
C1882 H1873 0.930 . S
C1882 C1880 1.384 . S
C1882 C1883 1.372 . S
C1883 C1882 1.372 . S
C1883 C1884 1.400 . S
C1883 C1888 1.490 . S
C1884 H1874 0.930 . S
C1884 C1883 1.400 . S
C1884 C1887 1.386 . S
H1885 C1901 0.930 . S
H1886 C1902 0.931 . S
C1887 H1875 0.929 . S
C1887 C1881 1.390 . S
C1887 C1884 1.386 . S
C1888 C1883 1.490 . S
C1888 C1890 1.395 . S
C1888 C1891 1.403 . S
H1889 C1895 0.930 . S
C1890 H1876 0.930 . S
C1890 C1888 1.395 . S
C1890 C1893 1.403 . S
C1891 C1888 1.403 . S
C1891 C1892 1.524 . S
C1891 C1895 1.400 . S
C1892 H1877 0.960 . S
C1892 H1878 0.960 . S
C1892 H1879 0.960 . S
C1892 C1891 1.524 . S
C1893 C1890 1.403 . S
C1893 C1894 1.392 . S
C1893 C1897 1.495 . S
C1894 C1893 1.392 . S
C1894 C1895 1.385 . S
C1894 C1896 1.478 . S
C1895 H1889 0.930 . S
C1895 C1891 1.400 . S
C1895 C1894 1.385 . S
C1896 C1894 1.478 . S
C1896 C1898 1.381 . S
C1896 C1902 1.383 . S
C1897 C1893 1.495 . S
C1897 H1903 0.959 . S
C1897 H1904 0.961 . S
C1897 H1905 0.960 . S
C1898 C1896 1.381 . S
C1898 C1899 1.394 . S
C1898 H1906 0.930 . S
C1899 C1898 1.394 . S
C1899 C1900 1.383 . S
C1899 H1907 0.929 . S
C1900 C1899 1.383 . S
C1900 C1901 1.377 . S
C1901 H1885 0.930 . S
C1901 C1900 1.377 . S
C1901 C1902 1.379 . S
C1902 H1886 0.931 . S
C1902 C1896 1.383 . S
C1902 C1901 1.379 . S
H1903 C1897 0.959 . S
H1904 C1897 0.961 . S
H1905 C1897 0.960 . S
H1906 C1898 0.930 . S
H1907 C1899 0.929 . S
H1908 C1916 0.929 . S
H1909 C1918 0.930 . S
H1910 C1920 0.930 . S
H1911 C1923 0.929 . S
H1912 C1926 0.930 . S
H1913 C1928 0.960 . S
H1914 C1928 0.960 . S
H1915 C1928 0.960 . S
C1916 H1908 0.929 . S
C1916 C1917 1.377 . S
C1916 C1918 1.384 . S
C1917 C1916 1.377 . S
C1917 C1923 1.390 . S
C1918 H1909 0.930 . S
C1918 C1916 1.384 . S
C1918 C1919 1.372 . S
C1919 C1918 1.372 . S
C1919 C1920 1.400 . S
C1919 C1924 1.490 . S
C1920 H1910 0.930 . S
C1920 C1919 1.400 . S
C1920 C1923 1.386 . S
H1921 C1937 0.930 . S
H1922 C1938 0.931 . S
C1923 H1911 0.929 . S
C1923 C1917 1.390 . S
C1923 C1920 1.386 . S
C1924 C1919 1.490 . S
C1924 C1926 1.395 . S
C1924 C1927 1.403 . S
H1925 C1931 0.930 . S
C1926 H1912 0.930 . S
C1926 C1924 1.395 . S
C1926 C1929 1.403 . S
C1927 C1924 1.403 . S
C1927 C1928 1.524 . S
C1927 C1931 1.400 . S
C1928 H1913 0.960 . S
C1928 H1914 0.960 . S
C1928 H1915 0.960 . S
C1928 C1927 1.524 . S
C1929 C1926 1.403 . S
C1929 C1930 1.392 . S
C1929 C1933 1.495 . S
C1930 C1929 1.392 . S
C1930 C1931 1.385 . S
C1930 C1932 1.478 . S
C1931 H1925 0.930 . S
C1931 C1927 1.400 . S
C1931 C1930 1.385 . S
C1932 C1930 1.478 . S
C1932 C1934 1.381 . S
C1932 C1938 1.383 . S
C1933 C1929 1.495 . S
C1933 H1939 0.959 . S
C1933 H1940 0.961 . S
C1933 H1941 0.960 . S
C1934 C1932 1.381 . S
C1934 C1935 1.394 . S
C1934 H1942 0.930 . S
C1935 C1934 1.394 . S
C1935 C1936 1.383 . S
C1935 H1943 0.929 . S
C1936 C1935 1.383 . S
C1936 C1937 1.377 . S
C1937 H1921 0.930 . S
C1937 C1936 1.377 . S
C1937 C1938 1.379 . S
C1938 H1922 0.931 . S
C1938 C1932 1.383 . S
C1938 C1937 1.379 . S
H1939 C1933 0.959 . S
H1940 C1933 0.961 . S
H1941 C1933 0.960 . S
H1942 C1934 0.930 . S
H1943 C1935 0.929 . S
H1944 C1952 0.929 . S
H1945 C1954 0.930 . S
H1946 C1956 0.930 . S
H1947 C1959 0.929 . S
H1948 C1962 0.930 . S
H1949 C1964 0.960 . S
H1950 C1964 0.960 . S
H1951 C1964 0.960 . S
C1952 H1944 0.929 . S
C1952 C1953 1.377 . S
C1952 C1954 1.384 . S
C1953 C1952 1.377 . S
C1953 C1959 1.390 . S
C1954 H1945 0.930 . S
C1954 C1952 1.384 . S
C1954 C1955 1.372 . S
C1955 C1954 1.372 . S
C1955 C1956 1.400 . S
C1955 C1960 1.490 . S
C1956 H1946 0.930 . S
C1956 C1955 1.400 . S
C1956 C1959 1.386 . S
H1957 C1973 0.930 . S
H1958 C1974 0.933 1_455 S
C1959 H1947 0.929 . S
C1959 C1953 1.390 . S
C1959 C1956 1.386 . S
C1960 C1955 1.490 . S
C1960 C1962 1.395 1_455 S
C1960 C1963 1.403 . S
H1961 C1967 0.930 . S
C1962 H1948 0.930 . S
C1962 C1960 1.395 1_655 S
C1962 C1965 1.403 . S
C1963 C1960 1.403 . S
C1963 C1964 1.524 . S
C1963 C1967 1.400 . S
C1964 H1949 0.960 . S
C1964 H1950 0.960 . S
C1964 H1951 0.960 . S
C1964 C1963 1.524 . S
C1965 C1962 1.403 . S
C1965 C1966 1.392 . S
C1965 C1969 1.495 . S
C1966 C1965 1.392 . S
C1966 C1967 1.385 1_655 S
C1966 C1968 1.478 . S
C1967 H1961 0.930 . S
C1967 C1963 1.400 . S
C1967 C1966 1.385 1_455 S
C1968 C1966 1.478 . S
C1968 C1970 1.381 . S
C1968 C1974 1.383 . S
C1969 C1965 1.495 . S
C1969 H1975 0.959 . S
C1969 H1976 0.961 . S
C1969 H1977 0.960 . S
C1970 C1968 1.381 . S
C1970 C1971 1.394 . S
C1970 H1978 0.930 . S
C1971 C1970 1.394 . S
C1971 C1972 1.383 . S
C1971 H1979 0.929 . S
C1972 C1971 1.383 . S
C1972 C1973 1.377 . S
C1973 H1957 0.930 . S
C1973 C1972 1.377 . S
C1973 C1974 1.379 . S
C1974 H1958 0.933 1_655 S
C1974 C1968 1.383 . S
C1974 C1973 1.379 . S
H1975 C1969 0.959 . S
H1976 C1969 0.961 . S
H1977 C1969 0.960 . S
H1978 C1970 0.930 . S
H1979 C1971 0.929 . S
H1980 C1988 0.929 . S
H1981 C1990 0.930 . S
H1982 C1992 0.930 . S
H1983 C1995 0.929 . S
H1984 C1998 0.930 . S
H1985 C2000 0.960 . S
H1986 C2000 0.960 . S
H1987 C2000 0.960 . S
C1988 H1980 0.929 . S
C1988 C1989 1.377 . S
C1988 C1990 1.384 . S
C1989 C1988 1.377 . S
C1989 C1995 1.390 . S
C1990 H1981 0.930 . S
C1990 C1988 1.384 . S
C1990 C1991 1.372 . S
C1991 C1990 1.372 . S
C1991 C1992 1.400 . S
C1991 C1996 1.490 . S
C1992 H1982 0.930 . S
C1992 C1991 1.400 . S
C1992 C1995 1.386 . S
H1993 C2009 0.930 . S
H1994 C2010 0.931 . S
C1995 H1983 0.929 . S
C1995 C1989 1.390 . S
C1995 C1992 1.386 . S
C1996 C1991 1.490 . S
C1996 C1998 1.395 . S
C1996 C1999 1.403 . S
H1997 C2003 0.930 . S
C1998 H1984 0.930 . S
C1998 C1996 1.395 . S
C1998 C2001 1.403 . S
C1999 C1996 1.403 . S
C1999 C2000 1.524 . S
C1999 C2003 1.400 . S
C2000 H1985 0.960 . S
C2000 H1986 0.960 . S
C2000 H1987 0.960 . S
C2000 C1999 1.524 . S
C2001 C1998 1.403 . S
C2001 C2002 1.392 . S
C2001 C2005 1.495 . S
C2002 C2001 1.392 . S
C2002 C2003 1.385 . S
C2002 C2004 1.478 . S
C2003 H1997 0.930 . S
C2003 C1999 1.400 . S
C2003 C2002 1.385 . S
C2004 C2002 1.478 . S
C2004 C2006 1.381 . S
C2004 C2010 1.383 . S
C2005 C2001 1.495 . S
C2005 H2011 0.959 . S
C2005 H2012 0.961 . S
C2005 H2013 0.960 . S
C2006 C2004 1.381 . S
C2006 C2007 1.394 . S
C2006 H2014 0.930 . S
C2007 C2006 1.394 . S
C2007 C2008 1.383 . S
C2007 H2015 0.929 . S
C2008 C2007 1.383 . S
C2008 C2009 1.377 . S
C2009 H1993 0.930 . S
C2009 C2008 1.377 . S
C2009 C2010 1.379 . S
C2010 H1994 0.931 . S
C2010 C2004 1.383 . S
C2010 C2009 1.379 . S
H2011 C2005 0.959 . S
H2012 C2005 0.961 . S
H2013 C2005 0.960 . S
H2014 C2006 0.930 . S
H2015 C2007 0.929 . S
H2016 C2024 0.929 . S
H2017 C2026 0.930 . S
H2018 C2028 0.930 . S
H2019 C2031 0.929 . S
H2020 C2034 0.930 . S
H2021 C2036 0.960 . S
H2022 C2036 0.960 . S
H2023 C2036 0.960 . S
C2024 H2016 0.929 . S
C2024 C2025 1.377 . S
C2024 C2026 1.384 . S
C2025 C2024 1.377 . S
C2025 C2031 1.390 . S
C2026 H2017 0.930 . S
C2026 C2024 1.384 . S
C2026 C2027 1.372 . S
C2027 C2026 1.372 . S
C2027 C2028 1.400 . S
C2027 C2032 1.490 . S
C2028 H2018 0.930 . S
C2028 C2027 1.400 . S
C2028 C2031 1.386 . S
H2029 C2045 0.930 . S
H2030 C2046 0.931 . S
C2031 H2019 0.929 . S
C2031 C2025 1.390 . S
C2031 C2028 1.386 . S
C2032 C2027 1.490 . S
C2032 C2034 1.395 . S
C2032 C2035 1.403 . S
H2033 C2039 0.930 . S
C2034 H2020 0.930 . S
C2034 C2032 1.395 . S
C2034 C2037 1.403 . S
C2035 C2032 1.403 . S
C2035 C2036 1.524 . S
C2035 C2039 1.400 . S
C2036 H2021 0.960 . S
C2036 H2022 0.960 . S
C2036 H2023 0.960 . S
C2036 C2035 1.524 . S
C2037 C2034 1.403 . S
C2037 C2038 1.392 . S
C2037 C2041 1.495 . S
C2038 C2037 1.392 . S
C2038 C2039 1.385 . S
C2038 C2040 1.478 . S
C2039 H2033 0.930 . S
C2039 C2035 1.400 . S
C2039 C2038 1.385 . S
C2040 C2038 1.478 . S
C2040 C2042 1.381 . S
C2040 C2046 1.383 . S
C2041 C2037 1.495 . S
C2041 H2047 0.959 . S
C2041 H2048 0.961 . S
C2041 H2049 0.960 . S
C2042 C2040 1.381 . S
C2042 C2043 1.394 . S
C2042 H2050 0.930 . S
C2043 C2042 1.394 . S
C2043 C2044 1.383 . S
C2043 H2051 0.929 . S
C2044 C2043 1.383 . S
C2044 C2045 1.377 . S
C2045 H2029 0.930 . S
C2045 C2044 1.377 . S
C2045 C2046 1.379 . S
C2046 H2030 0.931 . S
C2046 C2040 1.383 . S
C2046 C2045 1.379 . S
H2047 C2041 0.959 . S
H2048 C2041 0.961 . S
H2049 C2041 0.960 . S
H2050 C2042 0.930 . S
H2051 C2043 0.929 . S
H2052 C2060 0.929 . S
H2053 C2062 0.930 . S
H2054 C2064 0.930 . S
H2055 C2067 0.929 . S
H2056 C2070 0.930 . S
H2057 C2072 0.960 . S
H2058 C2072 0.960 . S
H2059 C2072 0.960 . S
C2060 H2052 0.929 . S
C2060 C2061 1.377 . S
C2060 C2062 1.384 . S
C2061 C2060 1.377 . S
C2061 C2067 1.390 . S
C2062 H2053 0.930 . S
C2062 C2060 1.384 . S
C2062 C2063 1.372 . S
C2063 C2062 1.372 . S
C2063 C2064 1.400 . S
C2063 C2068 1.490 . S
C2064 H2054 0.930 . S
C2064 C2063 1.400 . S
C2064 C2067 1.386 . S
H2065 C2081 0.930 . S
H2066 C2082 0.931 . S
C2067 H2055 0.929 . S
C2067 C2061 1.390 . S
C2067 C2064 1.386 . S
C2068 C2063 1.490 . S
C2068 C2070 1.395 1_545 S
C2068 C2071 1.403 . S
H2069 C2075 0.930 . S
C2070 H2056 0.930 . S
C2070 C2068 1.395 1_565 S
C2070 C2073 1.403 . S
C2071 C2068 1.403 . S
C2071 C2072 1.524 . S
C2071 C2075 1.400 . S
C2072 H2057 0.960 . S
C2072 H2058 0.960 . S
C2072 H2059 0.960 . S
C2072 C2071 1.524 . S
C2073 C2070 1.403 . S
C2073 C2074 1.393 . S
C2073 C2077 1.495 . S
C2074 C2073 1.393 . S
C2074 C2075 1.383 1_565 S
C2074 C2076 1.478 . S
C2075 H2069 0.930 . S
C2075 C2071 1.400 . S
C2075 C2074 1.383 1_545 S
C2076 C2074 1.478 . S
C2076 C2078 1.381 1_565 S
C2076 C2082 1.383 . S
C2077 C2073 1.495 . S
C2077 H2083 0.959 . S
C2077 H2084 0.961 . S
C2077 H2085 0.960 . S
C2078 C2076 1.381 1_545 S
C2078 C2079 1.394 1_545 S
C2078 H2086 0.930 . S
C2079 C2078 1.394 1_565 S
C2079 C2080 1.383 . S
C2079 H2087 0.929 1_565 S
C2080 C2079 1.383 . S
C2080 C2081 1.377 . S
C2081 H2065 0.930 . S
C2081 C2080 1.377 . S
C2081 C2082 1.379 . S
C2082 H2066 0.931 . S
C2082 C2076 1.383 . S
C2082 C2081 1.379 . S
H2083 C2077 0.959 . S
H2084 C2077 0.961 . S
H2085 C2077 0.960 . S
H2086 C2078 0.930 . S
H2087 C2079 0.929 1_545 S
H2088 C2096 0.929 . S
H2089 C2098 0.930 . S
H2090 C2100 0.930 . S
H2091 C2103 0.929 . S
H2092 C2106 0.930 . S
H2093 C2108 0.960 . S
H2094 C2108 0.960 . S
H2095 C2108 0.960 . S
C2096 H2088 0.929 . S
C2096 C2097 1.377 . S
C2096 C2098 1.384 . S
C2097 C2096 1.377 . S
C2097 C2103 1.390 . S
C2098 H2089 0.930 . S
C2098 C2096 1.384 . S
C2098 C2099 1.372 . S
C2099 C2098 1.372 . S
C2099 C2100 1.400 . S
C2099 C2104 1.490 . S
C2100 H2090 0.930 . S
C2100 C2099 1.400 . S
C2100 C2103 1.386 . S
H2101 C2117 0.930 . S
H2102 C2118 0.931 . S
C2103 H2091 0.929 . S
C2103 C2097 1.390 . S
C2103 C2100 1.386 . S
C2104 C2099 1.490 . S
C2104 C2106 1.395 . S
C2104 C2107 1.403 . S
H2105 C2111 0.930 . S
C2106 H2092 0.930 . S
C2106 C2104 1.395 . S
C2106 C2109 1.403 . S
C2107 C2104 1.403 . S
C2107 C2108 1.524 . S
C2107 C2111 1.400 . S
C2108 H2093 0.960 . S
C2108 H2094 0.960 . S
C2108 H2095 0.960 . S
C2108 C2107 1.524 . S
C2109 C2106 1.403 . S
C2109 C2110 1.392 . S
C2109 C2113 1.495 . S
C2110 C2109 1.392 . S
C2110 C2111 1.385 . S
C2110 C2112 1.478 . S
C2111 H2105 0.930 . S
C2111 C2107 1.400 . S
C2111 C2110 1.385 . S
C2112 C2110 1.478 . S
C2112 C2114 1.381 . S
C2112 C2118 1.383 . S
C2113 C2109 1.495 . S
C2113 H2119 0.959 . S
C2113 H2120 0.961 . S
C2113 H2121 0.960 . S
C2114 C2112 1.381 . S
C2114 C2115 1.394 . S
C2114 H2122 0.930 . S
C2115 C2114 1.394 . S
C2115 C2116 1.383 . S
C2115 H2123 0.929 . S
C2116 C2115 1.383 . S
C2116 C2117 1.377 . S
C2117 H2101 0.930 . S
C2117 C2116 1.377 . S
C2117 C2118 1.379 . S
C2118 H2102 0.931 . S
C2118 C2112 1.383 . S
C2118 C2117 1.379 . S
H2119 C2113 0.959 . S
H2120 C2113 0.961 . S
H2121 C2113 0.960 . S
H2122 C2114 0.930 . S
H2123 C2115 0.929 . S
H2124 C2132 0.929 . S
H2125 C2134 0.930 . S
H2126 C2136 0.930 . S
H2127 C2139 0.929 . S
H2128 C2142 0.930 . S
H2129 C2144 0.960 . S
H2130 C2144 0.960 . S
H2131 C2144 0.960 . S
C2132 H2124 0.929 . S
C2132 C2133 1.377 . S
C2132 C2134 1.384 . S
C2133 C2132 1.377 . S
C2133 C2139 1.390 . S
C2134 H2125 0.930 . S
C2134 C2132 1.384 . S
C2134 C2135 1.372 . S
C2135 C2134 1.372 . S
C2135 C2136 1.400 . S
C2135 C2140 1.490 . S
C2136 H2126 0.930 . S
C2136 C2135 1.400 . S
C2136 C2139 1.386 . S
H2137 C2153 0.930 . S
H2138 C2154 0.931 . S
C2139 H2127 0.929 . S
C2139 C2133 1.390 . S
C2139 C2136 1.386 . S
C2140 C2135 1.490 . S
C2140 C2142 1.395 . S
C2140 C2143 1.403 . S
H2141 C2147 0.930 . S
C2142 H2128 0.930 . S
C2142 C2140 1.395 . S
C2142 C2145 1.403 . S
C2143 C2140 1.403 . S
C2143 C2144 1.524 . S
C2143 C2147 1.400 . S
C2144 H2129 0.960 . S
C2144 H2130 0.960 . S
C2144 H2131 0.960 . S
C2144 C2143 1.524 . S
C2145 C2142 1.403 . S
C2145 C2146 1.392 . S
C2145 C2149 1.495 . S
C2146 C2145 1.392 . S
C2146 C2147 1.385 . S
C2146 C2148 1.478 . S
C2147 H2141 0.930 . S
C2147 C2143 1.400 . S
C2147 C2146 1.385 . S
C2148 C2146 1.478 . S
C2148 C2150 1.381 . S
C2148 C2154 1.383 . S
C2149 C2145 1.495 . S
C2149 H2155 0.959 . S
C2149 H2156 0.961 . S
C2149 H2157 0.960 . S
C2150 C2148 1.381 . S
C2150 C2151 1.394 . S
C2150 H2158 0.930 . S
C2151 C2150 1.394 . S
C2151 C2152 1.383 . S
C2151 H2159 0.929 . S
C2152 C2151 1.383 . S
C2152 C2153 1.377 . S
C2153 H2137 0.930 . S
C2153 C2152 1.377 . S
C2153 C2154 1.379 . S
C2154 H2138 0.931 . S
C2154 C2148 1.383 . S
C2154 C2153 1.379 . S
H2155 C2149 0.959 . S
H2156 C2149 0.961 . S
H2157 C2149 0.960 . S
H2158 C2150 0.930 . S
H2159 C2151 0.929 . S
H2160 C2168 0.929 . S
H2161 C2170 0.930 . S
H2162 C2172 0.930 . S
H2163 C2175 0.929 . S
H2164 C2178 0.930 . S
H2165 C2180 0.960 . S
H2166 C2180 0.960 . S
H2167 C2180 0.960 . S
C2168 H2160 0.929 . S
C2168 C2169 1.377 . S
C2168 C2170 1.384 . S
C2169 C2168 1.377 . S
C2169 C2175 1.390 . S
C2170 H2161 0.930 . S
C2170 C2168 1.384 . S
C2170 C2171 1.372 . S
C2171 C2170 1.372 . S
C2171 C2172 1.400 . S
C2171 C2176 1.490 . S
C2172 H2162 0.930 . S
C2172 C2171 1.400 . S
C2172 C2175 1.386 . S
H2173 C2189 0.930 . S
H2174 C2190 0.931 . S
C2175 H2163 0.929 . S
C2175 C2169 1.390 . S
C2175 C2172 1.386 . S
C2176 C2171 1.490 . S
C2176 C2178 1.395 . S
C2176 C2179 1.403 . S
H2177 C2183 0.930 . S
C2178 H2164 0.930 . S
C2178 C2176 1.395 . S
C2178 C2181 1.403 . S
C2179 C2176 1.403 . S
C2179 C2180 1.524 . S
C2179 C2183 1.400 . S
C2180 H2165 0.960 . S
C2180 H2166 0.960 . S
C2180 H2167 0.960 . S
C2180 C2179 1.524 . S
C2181 C2178 1.403 . S
C2181 C2182 1.392 . S
C2181 C2185 1.495 . S
C2182 C2181 1.392 . S
C2182 C2183 1.385 . S
C2182 C2184 1.478 . S
C2183 H2177 0.930 . S
C2183 C2179 1.400 . S
C2183 C2182 1.385 . S
C2184 C2182 1.478 . S
C2184 C2186 1.381 . S
C2184 C2190 1.383 . S
C2185 C2181 1.495 . S
C2185 H2191 0.959 1_455 S
C2185 H2192 0.961 . S
C2185 H2193 0.960 . S
C2186 C2184 1.381 . S
C2186 C2187 1.394 . S
C2186 H2194 0.930 . S
C2187 C2186 1.394 . S
C2187 C2188 1.383 . S
C2187 H2195 0.929 . S
C2188 C2187 1.383 . S
C2188 C2189 1.377 . S
C2189 H2173 0.930 . S
C2189 C2188 1.377 . S
C2189 C2190 1.379 . S
C2190 H2174 0.931 . S
C2190 C2184 1.383 . S
C2190 C2189 1.379 . S
H2191 C2185 0.959 1_655 S
H2192 C2185 0.961 . S
H2193 C2185 0.960 . S
H2194 C2186 0.930 . S
H2195 C2187 0.929 . S
H2196 C2204 0.929 . S
H2197 C2206 0.930 . S
H2198 C2208 0.930 . S
H2199 C2211 0.929 . S
H2200 C2214 0.930 . S
H2201 C2216 0.960 . S
H2202 C2216 0.960 . S
H2203 C2216 0.960 . S
C2204 H2196 0.929 . S
C2204 C2205 1.377 . S
C2204 C2206 1.384 . S
C2205 C2204 1.377 . S
C2205 C2211 1.390 . S
C2206 H2197 0.930 . S
C2206 C2204 1.384 . S
C2206 C2207 1.372 . S
C2207 C2206 1.372 . S
C2207 C2208 1.400 . S
C2207 C2212 1.490 . S
C2208 H2198 0.930 . S
C2208 C2207 1.400 . S
C2208 C2211 1.386 . S
H2209 C2225 0.930 . S
H2210 C2226 0.931 . S
C2211 H2199 0.929 . S
C2211 C2205 1.390 . S
C2211 C2208 1.386 . S
C2212 C2207 1.490 . S
C2212 C2214 1.395 . S
C2212 C2215 1.403 . S
H2213 C2219 0.930 . S
C2214 H2200 0.930 . S
C2214 C2212 1.395 . S
C2214 C2217 1.403 . S
C2215 C2212 1.403 . S
C2215 C2216 1.524 . S
C2215 C2219 1.400 . S
C2216 H2201 0.960 . S
C2216 H2202 0.960 . S
C2216 H2203 0.960 . S
C2216 C2215 1.524 . S
C2217 C2214 1.403 . S
C2217 C2218 1.392 . S
C2217 C2221 1.495 . S
C2218 C2217 1.392 . S
C2218 C2219 1.385 . S
C2218 C2220 1.478 . S
C2219 H2213 0.930 . S
C2219 C2215 1.400 . S
C2219 C2218 1.385 . S
C2220 C2218 1.478 . S
C2220 C2222 1.381 . S
C2220 C2226 1.383 . S
C2221 C2217 1.495 . S
C2221 H2227 0.959 . S
C2221 H2228 0.961 . S
C2221 H2229 0.960 . S
C2222 C2220 1.381 . S
C2222 C2223 1.394 . S
C2222 H2230 0.930 . S
C2223 C2222 1.394 . S
C2223 C2224 1.383 . S
C2223 H2231 0.929 . S
C2224 C2223 1.383 . S
C2224 C2225 1.377 . S
C2225 H2209 0.930 . S
C2225 C2224 1.377 . S
C2225 C2226 1.379 . S
C2226 H2210 0.931 . S
C2226 C2220 1.383 . S
C2226 C2225 1.379 . S
H2227 C2221 0.959 . S
H2228 C2221 0.961 . S
H2229 C2221 0.960 . S
H2230 C2222 0.930 . S
H2231 C2223 0.929 . S
H2232 C2240 0.929 . S
H2233 C2242 0.932 1_565 S
H2234 C2244 0.930 . S
H2235 C2247 0.929 . S
H2236 C2250 0.930 . S
H2237 C2252 0.960 . S
H2238 C2252 0.960 . S
H2239 C2252 0.960 . S
C2240 H2232 0.929 . S
C2240 C2241 1.377 . S
C2240 C2242 1.384 . S
C2241 C2240 1.377 . S
C2241 C2247 1.390 . S
C2242 H2233 0.932 1_545 S
C2242 C2240 1.384 . S
C2242 C2243 1.372 . S
C2243 C2242 1.372 . S
C2243 C2244 1.400 . S
C2243 C2248 1.490 . S
C2244 H2234 0.930 . S
C2244 C2243 1.400 . S
C2244 C2247 1.386 . S
H2245 C2261 0.930 . S
H2246 C2262 0.931 . S
C2247 H2235 0.929 . S
C2247 C2241 1.390 . S
C2247 C2244 1.386 . S
C2248 C2243 1.490 . S
C2248 C2250 1.395 . S
C2248 C2251 1.403 1_545 S
H2249 C2255 0.930 . S
C2250 H2236 0.930 . S
C2250 C2248 1.395 . S
C2250 C2253 1.403 . S
C2251 C2248 1.403 1_565 S
C2251 C2252 1.524 . S
C2251 C2255 1.400 . S
C2252 H2237 0.960 . S
C2252 H2238 0.960 . S
C2252 H2239 0.960 . S
C2252 C2251 1.524 . S
C2253 C2250 1.403 . S
C2253 C2254 1.392 . S
C2253 C2257 1.495 . S
C2254 C2253 1.392 . S
C2254 C2255 1.385 1_545 S
C2254 C2256 1.477 . S
C2255 H2249 0.930 . S
C2255 C2251 1.400 . S
C2255 C2254 1.385 1_565 S
C2256 C2254 1.477 . S
C2256 C2258 1.377 1_545 S
C2256 C2262 1.385 . S
C2257 C2253 1.495 . S
C2257 H2263 0.959 . S
C2257 H2264 0.961 . S
C2257 H2265 0.960 . S
C2258 C2256 1.377 1_565 S
C2258 C2259 1.394 . S
C2258 H2266 0.930 . S
C2259 C2258 1.394 . S
C2259 C2260 1.383 . S
C2259 H2267 0.929 . S
C2260 C2259 1.383 . S
C2260 C2261 1.377 1_565 S
C2261 H2245 0.930 . S
C2261 C2260 1.377 1_545 S
C2261 C2262 1.379 . S
C2262 H2246 0.931 . S
C2262 C2256 1.385 . S
C2262 C2261 1.379 . S
H2263 C2257 0.959 . S
H2264 C2257 0.961 . S
H2265 C2257 0.960 . S
H2266 C2258 0.930 . S
H2267 C2259 0.929 . S
H2268 C2276 0.929 . S
H2269 C2278 0.930 . S
H2270 C2280 0.930 . S
H2271 C2283 0.929 . S
H2272 C2286 0.930 . S
H2273 C2288 0.960 . S
H2274 C2288 0.960 . S
H2275 C2288 0.960 . S
C2276 H2268 0.929 . S
C2276 C2277 1.377 . S
C2276 C2278 1.384 . S
C2277 C2276 1.377 . S
C2277 C2283 1.390 . S
C2278 H2269 0.930 . S
C2278 C2276 1.384 . S
C2278 C2279 1.372 . S
C2279 C2278 1.372 . S
C2279 C2280 1.400 . S
C2279 C2284 1.490 . S
C2280 H2270 0.930 . S
C2280 C2279 1.400 . S
C2280 C2283 1.386 . S
H2281 C2297 0.930 . S
H2282 C2298 0.931 . S
C2283 H2271 0.929 . S
C2283 C2277 1.390 . S
C2283 C2280 1.386 . S
C2284 C2279 1.490 . S
C2284 C2286 1.395 . S
C2284 C2287 1.403 . S
H2285 C2291 0.930 . S
C2286 H2272 0.930 . S
C2286 C2284 1.395 . S
C2286 C2289 1.403 . S
C2287 C2284 1.403 . S
C2287 C2288 1.524 . S
C2287 C2291 1.400 . S
C2288 H2273 0.960 . S
C2288 H2274 0.960 . S
C2288 H2275 0.960 . S
C2288 C2287 1.524 . S
C2289 C2286 1.403 . S
C2289 C2290 1.392 . S
C2289 C2293 1.495 . S
C2290 C2289 1.392 . S
C2290 C2291 1.385 . S
C2290 C2292 1.478 . S
C2291 H2285 0.930 . S
C2291 C2287 1.400 . S
C2291 C2290 1.385 . S
C2292 C2290 1.478 . S
C2292 C2294 1.381 . S
C2292 C2298 1.383 . S
C2293 C2289 1.495 . S
C2293 H2299 0.959 . S
C2293 H2300 0.961 . S
C2293 H2301 0.960 . S
C2294 C2292 1.381 . S
C2294 C2295 1.394 . S
C2294 H2302 0.930 . S
C2295 C2294 1.394 . S
C2295 C2296 1.383 . S
C2295 H2303 0.929 . S
C2296 C2295 1.383 . S
C2296 C2297 1.377 . S
C2297 H2281 0.930 . S
C2297 C2296 1.377 . S
C2297 C2298 1.379 . S
C2298 H2282 0.931 . S
C2298 C2292 1.383 . S
C2298 C2297 1.379 . S
H2299 C2293 0.959 . S
H2300 C2293 0.961 . S
H2301 C2293 0.960 . S
H2302 C2294 0.930 . S
H2303 C2295 0.929 . S
H2304 C2312 0.929 1_655 S
H2305 C2314 0.930 . S
H2306 C2316 0.930 . S
H2307 C2319 0.929 . S
H2308 C2322 0.930 . S
H2309 C2324 0.960 . S
H2310 C2324 0.960 . S
H2311 C2324 0.960 . S
C2312 H2304 0.929 1_455 S
C2312 C2313 1.377 . S
C2312 C2314 1.384 1_455 S
C2313 C2312 1.377 . S
C2313 C2319 1.390 . S
C2314 H2305 0.930 . S
C2314 C2312 1.384 1_655 S
C2314 C2315 1.372 1_655 S
C2315 C2314 1.372 1_455 S
C2315 C2316 1.400 . S
C2315 C2320 1.490 . S
C2316 H2306 0.930 . S
C2316 C2315 1.400 . S
C2316 C2319 1.386 . S
H2317 C2333 0.930 . S
H2318 C2334 0.931 . S
C2319 H2307 0.929 . S
C2319 C2313 1.390 . S
C2319 C2316 1.386 . S
C2320 C2315 1.490 . S
C2320 C2322 1.395 1_455 S
C2320 C2323 1.403 . S
H2321 C2327 0.930 . S
C2322 H2308 0.930 . S
C2322 C2320 1.395 1_655 S
C2322 C2325 1.403 . S
C2323 C2320 1.403 . S
C2323 C2324 1.524 . S
C2323 C2327 1.400 . S
C2324 H2309 0.960 . S
C2324 H2310 0.960 . S
C2324 H2311 0.960 . S
C2324 C2323 1.524 . S
C2325 C2322 1.403 . S
C2325 C2326 1.402 . S
C2325 C2329 1.495 . S
C2326 C2325 1.402 . S
C2326 C2327 1.377 1_655 S
C2326 C2328 1.477 . S
C2327 H2321 0.930 . S
C2327 C2323 1.400 . S
C2327 C2326 1.377 1_455 S
C2328 C2326 1.477 . S
C2328 C2330 1.381 . S
C2328 C2334 1.383 1_655 S
C2329 C2325 1.495 . S
C2329 H2335 0.959 . S
C2329 H2336 0.961 . S
C2329 H2337 0.960 . S
C2330 C2328 1.381 . S
C2330 C2331 1.394 . S
C2330 H2338 0.930 . S
C2331 C2330 1.394 . S
C2331 C2332 1.383 . S
C2331 H2339 0.929 . S
C2332 C2331 1.383 . S
C2332 C2333 1.377 1_655 S
C2333 H2317 0.930 . S
C2333 C2332 1.377 1_455 S
C2333 C2334 1.379 . S
C2334 H2318 0.931 . S
C2334 C2328 1.383 1_455 S
C2334 C2333 1.379 . S
H2335 C2329 0.959 . S
H2336 C2329 0.961 . S
H2337 C2329 0.960 . S
H2338 C2330 0.930 . S
H2339 C2331 0.929 . S
H2340 C2348 0.929 . S
H2341 C2350 0.930 . S
H2342 C2352 0.930 . S
H2343 C2355 0.929 . S
H2344 C2358 0.930 . S
H2345 C2360 0.960 . S
H2346 C2360 0.960 . S
H2347 C2360 0.960 . S
C2348 H2340 0.929 . S
C2348 C2349 1.377 . S
C2348 C2350 1.384 . S
C2349 C2348 1.377 . S
C2349 C2355 1.390 . S
C2350 H2341 0.930 . S
C2350 C2348 1.384 . S
C2350 C2351 1.372 . S
C2351 C2350 1.372 . S
C2351 C2352 1.400 . S
C2351 C2356 1.490 . S
C2352 H2342 0.930 . S
C2352 C2351 1.400 . S
C2352 C2355 1.386 . S
H2353 C2369 0.930 . S
H2354 C2370 0.931 . S
C2355 H2343 0.929 . S
C2355 C2349 1.390 . S
C2355 C2352 1.386 . S
C2356 C2351 1.490 . S
C2356 C2358 1.395 . S
C2356 C2359 1.403 . S
H2357 C2363 0.930 . S
C2358 H2344 0.930 . S
C2358 C2356 1.395 . S
C2358 C2361 1.403 . S
C2359 C2356 1.403 . S
C2359 C2360 1.524 . S
C2359 C2363 1.400 . S
C2360 H2345 0.960 . S
C2360 H2346 0.960 . S
C2360 H2347 0.960 . S
C2360 C2359 1.524 . S
C2361 C2358 1.403 . S
C2361 C2362 1.392 . S
C2361 C2365 1.495 . S
C2362 C2361 1.392 . S
C2362 C2363 1.385 . S
C2362 C2364 1.478 . S
C2363 H2357 0.930 . S
C2363 C2359 1.400 . S
C2363 C2362 1.385 . S
C2364 C2362 1.478 . S
C2364 C2366 1.381 . S
C2364 C2370 1.383 . S
C2365 C2361 1.495 . S
C2365 H2371 0.959 . S
C2365 H2372 0.961 . S
C2365 H2373 0.960 . S
C2366 C2364 1.381 . S
C2366 C2367 1.394 . S
C2366 H2374 0.930 . S
C2367 C2366 1.394 . S
C2367 C2368 1.383 . S
C2367 H2375 0.929 . S
C2368 C2367 1.383 . S
C2368 C2369 1.377 . S
C2369 H2353 0.930 . S
C2369 C2368 1.377 . S
C2369 C2370 1.379 . S
C2370 H2354 0.931 . S
C2370 C2364 1.383 . S
C2370 C2369 1.379 . S
H2371 C2365 0.959 . S
H2372 C2365 0.961 . S
H2373 C2365 0.960 . S
H2374 C2366 0.930 . S
H2375 C2367 0.929 . S
H2376 C2384 0.929 . S
H2377 C2386 0.930 . S
H2378 C2388 0.930 . S
H2379 C2391 0.929 . S
H2380 C2394 0.930 . S
H2381 C2396 0.960 . S
H2382 C2396 0.960 . S
H2383 C2396 0.960 . S
C2384 H2376 0.929 . S
C2384 C2385 1.377 . S
C2384 C2386 1.384 . S
C2385 C2384 1.377 . S
C2385 C2391 1.390 . S
C2386 H2377 0.930 . S
C2386 C2384 1.384 . S
C2386 C2387 1.372 . S
C2387 C2386 1.372 . S
C2387 C2388 1.400 . S
C2387 C2392 1.490 . S
C2388 H2378 0.930 . S
C2388 C2387 1.400 . S
C2388 C2391 1.386 . S
H2389 C2405 0.930 . S
H2390 C2406 0.931 . S
C2391 H2379 0.929 . S
C2391 C2385 1.390 . S
C2391 C2388 1.386 . S
C2392 C2387 1.490 . S
C2392 C2394 1.395 . S
C2392 C2395 1.403 . S
H2393 C2399 0.930 . S
C2394 H2380 0.930 . S
C2394 C2392 1.395 . S
C2394 C2397 1.403 . S
C2395 C2392 1.403 . S
C2395 C2396 1.524 . S
C2395 C2399 1.400 . S
C2396 H2381 0.960 . S
C2396 H2382 0.960 . S
C2396 H2383 0.960 . S
C2396 C2395 1.524 . S
C2397 C2394 1.403 . S
C2397 C2398 1.392 . S
C2397 C2401 1.495 . S
C2398 C2397 1.392 . S
C2398 C2399 1.385 . S
C2398 C2400 1.478 . S
C2399 H2393 0.930 . S
C2399 C2395 1.400 . S
C2399 C2398 1.385 . S
C2400 C2398 1.478 . S
C2400 C2402 1.381 . S
C2400 C2406 1.383 . S
C2401 C2397 1.495 . S
C2401 H2407 0.959 . S
C2401 H2408 0.961 . S
C2401 H2409 0.960 . S
C2402 C2400 1.381 . S
C2402 C2403 1.394 . S
C2402 H2410 0.930 . S
C2403 C2402 1.394 . S
C2403 C2404 1.383 . S
C2403 H2411 0.929 . S
C2404 C2403 1.383 . S
C2404 C2405 1.377 . S
C2405 H2389 0.930 . S
C2405 C2404 1.377 . S
C2405 C2406 1.379 . S
C2406 H2390 0.931 . S
C2406 C2400 1.383 . S
C2406 C2405 1.379 . S
H2407 C2401 0.959 . S
H2408 C2401 0.961 . S
H2409 C2401 0.960 . S
H2410 C2402 0.930 . S
H2411 C2403 0.929 . S
H2412 C2420 0.929 . S
H2413 C2422 0.930 . S
H2414 C2424 0.930 . S
H2415 C2427 0.929 . S
H2416 C2430 0.930 . S
H2417 C2432 0.960 . S
H2418 C2432 0.960 . S
H2419 C2432 0.960 . S
C2420 H2412 0.929 . S
C2420 C2421 1.377 . S
C2420 C2422 1.384 . S
C2421 C2420 1.377 . S
C2421 C2427 1.390 . S
C2422 H2413 0.930 . S
C2422 C2420 1.384 . S
C2422 C2423 1.372 . S
C2423 C2422 1.372 . S
C2423 C2424 1.400 . S
C2423 C2428 1.490 . S
C2424 H2414 0.930 . S
C2424 C2423 1.400 . S
C2424 C2427 1.386 . S
H2425 C2441 0.930 . S
H2426 C2442 0.931 . S
C2427 H2415 0.929 . S
C2427 C2421 1.390 . S
C2427 C2424 1.386 . S
C2428 C2423 1.490 . S
C2428 C2430 1.395 . S
C2428 C2431 1.403 . S
H2429 C2435 0.930 . S
C2430 H2416 0.930 . S
C2430 C2428 1.395 . S
C2430 C2433 1.403 . S
C2431 C2428 1.403 . S
C2431 C2432 1.524 . S
C2431 C2435 1.400 . S
C2432 H2417 0.960 . S
C2432 H2418 0.960 . S
C2432 H2419 0.960 . S
C2432 C2431 1.524 . S
C2433 C2430 1.403 . S
C2433 C2434 1.392 . S
C2433 C2437 1.495 1_545 S
C2434 C2433 1.392 . S
C2434 C2435 1.385 . S
C2434 C2436 1.478 . S
C2435 H2429 0.930 . S
C2435 C2431 1.400 . S
C2435 C2434 1.385 . S
C2436 C2434 1.478 . S
C2436 C2438 1.381 1_545 S
C2436 C2442 1.383 . S
C2437 C2433 1.495 1_565 S
C2437 H2443 0.959 . S
C2437 H2444 0.961 . S
C2437 H2445 0.960 . S
C2438 C2436 1.381 1_565 S
C2438 C2439 1.394 . S
C2438 H2446 0.930 . S
C2439 C2438 1.394 . S
C2439 C2440 1.383 . S
C2439 H2447 0.929 . S
C2440 C2439 1.383 . S
C2440 C2441 1.377 1_565 S
C2441 H2425 0.930 . S
C2441 C2440 1.377 1_545 S
C2441 C2442 1.379 . S
C2442 H2426 0.931 . S
C2442 C2436 1.383 . S
C2442 C2441 1.379 . S
H2443 C2437 0.959 . S
H2444 C2437 0.961 . S
H2445 C2437 0.960 . S
H2446 C2438 0.930 . S
H2447 C2439 0.929 . S
H2448 C2456 0.929 . S
H2449 C2458 0.930 . S
H2450 C2460 0.930 . S
H2451 C2463 0.929 . S
H2452 C2466 0.930 . S
H2453 C2468 0.960 . S
H2454 C2468 0.960 . S
H2455 C2468 0.960 1_655 S
C2456 H2448 0.929 . S
C2456 C2457 1.377 1_455 S
C2456 C2458 1.384 . S
C2457 C2456 1.377 1_655 S
C2457 C2463 1.390 . S
C2458 H2449 0.930 . S
C2458 C2456 1.384 . S
C2458 C2459 1.372 . S
C2459 C2458 1.372 . S
C2459 C2460 1.400 1_455 S
C2459 C2464 1.490 . S
C2460 H2450 0.930 . S
C2460 C2459 1.400 1_655 S
C2460 C2463 1.386 . S
H2461 C2477 0.930 . S
H2462 C2478 0.931 . S
C2463 H2451 0.929 . S
C2463 C2457 1.390 . S
C2463 C2460 1.386 . S
C2464 C2459 1.490 . S
C2464 C2466 1.395 . S
C2464 C2467 1.403 . S
H2465 C2471 0.930 . S
C2466 H2452 0.930 . S
C2466 C2464 1.395 . S
C2466 C2469 1.403 . S
C2467 C2464 1.403 . S
C2467 C2468 1.524 . S
C2467 C2471 1.400 . S
C2468 H2453 0.960 . S
C2468 H2454 0.960 . S
C2468 H2455 0.960 1_455 S
C2468 C2467 1.524 . S
C2469 C2466 1.403 . S
C2469 C2470 1.392 . S
C2469 C2473 1.495 . S
C2470 C2469 1.392 . S
C2470 C2471 1.385 . S
C2470 C2472 1.478 . S
C2471 H2465 0.930 . S
C2471 C2467 1.400 . S
C2471 C2470 1.385 . S
C2472 C2470 1.478 . S
C2472 C2474 1.381 . S
C2472 C2478 1.383 . S
C2473 C2469 1.495 . S
C2473 H2479 0.959 . S
C2473 H2480 0.961 . S
C2473 H2481 0.960 . S
C2474 C2472 1.381 . S
C2474 C2475 1.394 . S
C2474 H2482 0.930 . S
C2475 C2474 1.394 . S
C2475 C2476 1.383 . S
C2475 H2483 0.929 . S
C2476 C2475 1.383 . S
C2476 C2477 1.377 . S
C2477 H2461 0.930 . S
C2477 C2476 1.377 . S
C2477 C2478 1.379 . S
C2478 H2462 0.931 . S
C2478 C2472 1.383 . S
C2478 C2477 1.379 . S
H2479 C2473 0.959 . S
H2480 C2473 0.961 . S
H2481 C2473 0.960 . S
H2482 C2474 0.930 . S
H2483 C2475 0.929 . S
H2484 C2492 0.929 . S
H2485 C2494 0.930 . S
H2486 C2496 0.930 . S
H2487 C2499 0.929 . S
H2488 C2502 0.930 . S
H2489 C2504 0.960 . S
H2490 C2504 0.960 . S
H2491 C2504 0.960 . S
C2492 H2484 0.929 . S
C2492 C2493 1.377 . S
C2492 C2494 1.384 . S
C2493 C2492 1.377 . S
C2493 C2499 1.390 . S
C2494 H2485 0.930 . S
C2494 C2492 1.384 . S
C2494 C2495 1.372 . S
C2495 C2494 1.372 . S
C2495 C2496 1.400 . S
C2495 C2500 1.490 . S
C2496 H2486 0.930 . S
C2496 C2495 1.400 . S
C2496 C2499 1.386 . S
H2497 C2513 0.930 . S
H2498 C2514 0.931 . S
C2499 H2487 0.929 . S
C2499 C2493 1.390 . S
C2499 C2496 1.386 . S
C2500 C2495 1.490 . S
C2500 C2502 1.395 . S
C2500 C2503 1.403 . S
H2501 C2507 0.930 . S
C2502 H2488 0.930 . S
C2502 C2500 1.395 . S
C2502 C2505 1.403 . S
C2503 C2500 1.403 . S
C2503 C2504 1.524 . S
C2503 C2507 1.400 . S
C2504 H2489 0.960 . S
C2504 H2490 0.960 . S
C2504 H2491 0.960 . S
C2504 C2503 1.524 . S
C2505 C2502 1.403 . S
C2505 C2506 1.392 . S
C2505 C2509 1.495 . S
C2506 C2505 1.392 . S
C2506 C2507 1.385 . S
C2506 C2508 1.478 . S
C2507 H2501 0.930 . S
C2507 C2503 1.400 . S
C2507 C2506 1.385 . S
C2508 C2506 1.478 . S
C2508 C2510 1.381 . S
C2508 C2514 1.383 . S
C2509 C2505 1.495 . S
C2509 H2515 0.959 . S
C2509 H2516 0.961 . S
C2509 H2517 0.960 . S
C2510 C2508 1.381 . S
C2510 C2511 1.394 . S
C2510 H2518 0.930 . S
C2511 C2510 1.394 . S
C2511 C2512 1.383 . S
C2511 H2519 0.929 . S
C2512 C2511 1.383 . S
C2512 C2513 1.377 . S
C2513 H2497 0.930 . S
C2513 C2512 1.377 . S
C2513 C2514 1.379 . S
C2514 H2498 0.931 . S
C2514 C2508 1.383 . S
C2514 C2513 1.379 . S
H2515 C2509 0.959 . S
H2516 C2509 0.961 . S
H2517 C2509 0.960 . S
H2518 C2510 0.930 . S
H2519 C2511 0.929 . S
H2520 C2528 0.929 . S
H2521 C2530 0.930 . S
H2522 C2532 0.925 1_565 S
H2523 C2535 0.929 . S
H2524 C2538 0.930 . S
H2525 C2540 0.960 . S
H2526 C2540 0.960 . S
H2527 C2540 0.960 . S
C2528 H2520 0.929 . S
C2528 C2529 1.377 1_545 S
C2528 C2530 1.384 . S
C2529 C2528 1.377 1_565 S
C2529 C2535 1.390 . S
C2530 H2521 0.930 . S
C2530 C2528 1.384 . S
C2530 C2531 1.372 . S
C2531 C2530 1.372 . S
C2531 C2532 1.407 . S
C2531 C2536 1.490 . S
C2532 H2522 0.925 1_545 S
C2532 C2531 1.407 . S
C2532 C2535 1.383 1_545 S
H2533 C2549 0.930 . S
H2534 C2550 0.931 . S
C2535 H2523 0.929 . S
C2535 C2529 1.390 . S
C2535 C2532 1.383 1_565 S
C2536 C2531 1.490 . S
C2536 C2538 1.395 . S
C2536 C2539 1.403 . S
H2537 C2543 0.930 . S
C2538 H2524 0.930 . S
C2538 C2536 1.395 . S
C2538 C2541 1.403 . S
C2539 C2536 1.403 . S
C2539 C2540 1.524 1_545 S
C2539 C2543 1.400 . S
C2540 H2525 0.960 . S
C2540 H2526 0.960 . S
C2540 H2527 0.960 . S
C2540 C2539 1.524 1_565 S
C2541 C2538 1.403 . S
C2541 C2542 1.392 . S
C2541 C2545 1.495 . S
C2542 C2541 1.392 . S
C2542 C2543 1.385 . S
C2542 C2544 1.478 . S
C2543 H2537 0.930 . S
C2543 C2539 1.400 . S
C2543 C2542 1.385 . S
C2544 C2542 1.478 . S
C2544 C2546 1.381 . S
C2544 C2550 1.383 . S
C2545 C2541 1.495 . S
C2545 H2551 0.959 . S
C2545 H2552 0.961 . S
C2545 H2553 0.960 . S
C2546 C2544 1.381 . S
C2546 C2547 1.394 . S
C2546 H2554 0.930 . S
C2547 C2546 1.394 . S
C2547 C2548 1.383 . S
C2547 H2555 0.929 . S
C2548 C2547 1.383 . S
C2548 C2549 1.377 . S
C2549 H2533 0.930 . S
C2549 C2548 1.377 . S
C2549 C2550 1.379 . S
C2550 H2534 0.931 . S
C2550 C2544 1.383 . S
C2550 C2549 1.379 . S
H2551 C2545 0.959 . S
H2552 C2545 0.961 . S
H2553 C2545 0.960 . S
H2554 C2546 0.930 . S
H2555 C2547 0.929 . S
H2556 C2564 0.929 . S
H2557 C2566 0.930 . S
H2558 C2568 0.930 . S
H2559 C2571 0.929 . S
H2560 C2574 0.930 . S
H2561 C2576 0.960 . S
H2562 C2576 0.960 . S
H2563 C2576 0.960 . S
C2564 H2556 0.929 . S
C2564 C2565 1.377 1_455 S
C2564 C2566 1.384 . S
C2565 C2564 1.377 1_655 S
C2565 C2571 1.390 . S
C2566 H2557 0.930 . S
C2566 C2564 1.384 . S
C2566 C2567 1.372 . S
C2567 C2566 1.372 . S
C2567 C2568 1.400 . S
C2567 C2572 1.490 . S
C2568 H2558 0.930 . S
C2568 C2567 1.400 . S
C2568 C2571 1.386 1_455 S
H2569 C2585 0.930 . S
H2570 C2586 0.931 . S
C2571 H2559 0.929 . S
C2571 C2565 1.390 . S
C2571 C2568 1.386 1_655 S
C2572 C2567 1.490 . S
C2572 C2574 1.395 . S
C2572 C2575 1.403 . S
H2573 C2579 0.930 . S
C2574 H2560 0.930 . S
C2574 C2572 1.395 . S
C2574 C2577 1.403 . S
C2575 C2572 1.403 . S
C2575 C2576 1.524 1_455 S
C2575 C2579 1.400 . S
C2576 H2561 0.960 . S
C2576 H2562 0.960 . S
C2576 H2563 0.960 . S
C2576 C2575 1.524 1_655 S
C2577 C2574 1.403 . S
C2577 C2578 1.392 . S
C2577 C2581 1.495 . S
C2578 C2577 1.392 . S
C2578 C2579 1.385 . S
C2578 C2580 1.478 . S
C2579 H2573 0.930 . S
C2579 C2575 1.400 . S
C2579 C2578 1.385 . S
C2580 C2578 1.478 . S
C2580 C2582 1.381 . S
C2580 C2586 1.383 . S
C2581 C2577 1.495 . S
C2581 H2587 0.959 . S
C2581 H2588 0.961 . S
C2581 H2589 0.960 . S
C2582 C2580 1.381 . S
C2582 C2583 1.394 . S
C2582 H2590 0.930 . S
C2583 C2582 1.394 . S
C2583 C2584 1.383 . S
C2583 H2591 0.929 . S
C2584 C2583 1.383 . S
C2584 C2585 1.377 . S
C2585 H2569 0.930 . S
C2585 C2584 1.377 . S
C2585 C2586 1.379 . S
C2586 H2570 0.931 . S
C2586 C2580 1.383 . S
C2586 C2585 1.379 . S
H2587 C2581 0.959 . S
H2588 C2581 0.961 . S
H2589 C2581 0.960 . S
H2590 C2582 0.930 . S
H2591 C2583 0.929 . S
H2592 C2600 0.929 . S
H2593 C2602 0.930 . S
H2594 C2604 0.930 . S
H2595 C2607 0.929 . S
H2596 C2610 0.930 1_655 S
H2597 C2612 0.960 . S
H2598 C2612 0.960 . S
H2599 C2612 0.960 . S
C2600 H2592 0.929 . S
C2600 C2601 1.377 . S
C2600 C2602 1.384 . S
C2601 C2600 1.377 . S
C2601 C2607 1.390 . S
C2602 H2593 0.930 . S
C2602 C2600 1.384 . S
C2602 C2603 1.372 . S
C2603 C2602 1.372 . S
C2603 C2604 1.400 . S
C2603 C2608 1.490 . S
C2604 H2594 0.930 . S
C2604 C2603 1.400 . S
C2604 C2607 1.386 . S
H2605 C2621 0.930 . S
H2606 C2622 0.931 . S
C2607 H2595 0.929 . S
C2607 C2601 1.390 . S
C2607 C2604 1.386 . S
C2608 C2603 1.490 . S
C2608 C2610 1.395 . S
C2608 C2611 1.403 . S
H2609 C2615 0.930 . S
C2610 H2596 0.930 1_455 S
C2610 C2608 1.395 . S
C2610 C2613 1.403 1_554 S
C2611 C2608 1.403 . S
C2611 C2612 1.524 . S
C2611 C2615 1.400 1_554 S
C2612 H2597 0.960 . S
C2612 H2598 0.960 . S
C2612 H2599 0.960 . S
C2612 C2611 1.524 . S
C2613 C2610 1.403 1_556 S
C2613 C2614 1.392 . S
C2613 C2617 1.495 1_455 S
C2614 C2613 1.392 . S
C2614 C2615 1.385 . S
C2614 C2616 1.478 . S
C2615 H2609 0.930 . S
C2615 C2611 1.400 1_556 S
C2615 C2614 1.385 . S
C2616 C2614 1.478 . S
C2616 C2618 1.381 . S
C2616 C2622 1.383 . S
C2617 C2613 1.495 1_655 S
C2617 H2623 0.959 . S
C2617 H2624 0.961 . S
C2617 H2625 0.960 . S
C2618 C2616 1.381 . S
C2618 C2619 1.394 . S
C2618 H2626 0.930 . S
C2619 C2618 1.394 . S
C2619 C2620 1.383 . S
C2619 H2627 0.929 . S
C2620 C2619 1.383 . S
C2620 C2621 1.377 . S
C2621 H2605 0.930 . S
C2621 C2620 1.377 . S
C2621 C2622 1.379 . S
C2622 H2606 0.931 . S
C2622 C2616 1.383 . S
C2622 C2621 1.379 . S
H2623 C2617 0.959 . S
H2624 C2617 0.961 . S
H2625 C2617 0.960 . S
H2626 C2618 0.930 . S
H2627 C2619 0.929 . S
H2628 C2636 0.929 . S
H2629 C2638 0.930 . S
H2630 C2640 0.930 . S
H2631 C2643 0.929 . S
H2632 C2646 0.930 . S
H2633 C2648 0.960 . S
H2634 C2648 0.960 . S
H2635 C2648 0.960 . S
C2636 H2628 0.929 . S
C2636 C2637 1.377 . S
C2636 C2638 1.384 . S
C2637 C2636 1.377 . S
C2637 C2643 1.390 . S
C2638 H2629 0.930 . S
C2638 C2636 1.384 . S
C2638 C2639 1.372 . S
C2639 C2638 1.372 . S
C2639 C2640 1.400 . S
C2639 C2644 1.490 . S
C2640 H2630 0.930 . S
C2640 C2639 1.400 . S
C2640 C2643 1.386 . S
H2641 C2657 0.930 . S
H2642 C2658 0.931 . S
C2643 H2631 0.929 . S
C2643 C2637 1.390 . S
C2643 C2640 1.386 . S
C2644 C2639 1.490 . S
C2644 C2646 1.395 . S
C2644 C2647 1.403 . S
H2645 C2651 0.930 . S
C2646 H2632 0.930 . S
C2646 C2644 1.395 . S
C2646 C2649 1.403 1_556 S
C2647 C2644 1.403 . S
C2647 C2648 1.524 . S
C2647 C2651 1.400 1_556 S
C2648 H2633 0.960 . S
C2648 H2634 0.960 . S
C2648 H2635 0.960 . S
C2648 C2647 1.524 . S
C2649 C2646 1.403 1_554 S
C2649 C2650 1.392 . S
C2649 C2653 1.495 . S
C2650 C2649 1.392 . S
C2650 C2651 1.385 . S
C2650 C2652 1.478 . S
C2651 H2645 0.930 . S
C2651 C2647 1.400 1_554 S
C2651 C2650 1.385 . S
C2652 C2650 1.478 . S
C2652 C2654 1.381 . S
C2652 C2658 1.383 . S
C2653 C2649 1.495 . S
C2653 H2659 0.959 . S
C2653 H2660 0.961 . S
C2653 H2661 0.960 . S
C2654 C2652 1.381 . S
C2654 C2655 1.394 . S
C2654 H2662 0.930 . S
C2655 C2654 1.394 . S
C2655 C2656 1.383 . S
C2655 H2663 0.929 . S
C2656 C2655 1.383 . S
C2656 C2657 1.377 . S
C2657 H2641 0.930 . S
C2657 C2656 1.377 . S
C2657 C2658 1.379 . S
C2658 H2642 0.931 . S
C2658 C2652 1.383 . S
C2658 C2657 1.379 . S
H2659 C2653 0.959 . S
H2660 C2653 0.961 . S
H2661 C2653 0.960 . S
H2662 C2654 0.930 . S
H2663 C2655 0.929 . S
H2664 C2672 0.929 . S
H2665 C2674 0.930 . S
H2666 C2676 0.930 . S
H2667 C2679 0.929 . S
H2668 C2682 0.930 . S
H2669 C2684 0.960 . S
H2670 C2684 0.960 . S
H2671 C2684 0.960 . S
C2672 H2664 0.929 . S
C2672 C2673 1.377 . S
C2672 C2674 1.384 . S
C2673 C2672 1.377 . S
C2673 C2679 1.390 . S
C2674 H2665 0.930 . S
C2674 C2672 1.384 . S
C2674 C2675 1.372 . S
C2675 C2674 1.372 . S
C2675 C2676 1.400 . S
C2675 C2680 1.490 . S
C2676 H2666 0.930 . S
C2676 C2675 1.400 . S
C2676 C2679 1.386 . S
H2677 C2693 0.930 . S
H2678 C2694 0.931 . S
C2679 H2667 0.929 . S
C2679 C2673 1.390 . S
C2679 C2676 1.386 . S
C2680 C2675 1.490 . S
C2680 C2682 1.395 . S
C2680 C2683 1.403 . S
H2681 C2687 0.930 . S
C2682 H2668 0.930 . S
C2682 C2680 1.395 . S
C2682 C2685 1.403 1_556 S
C2683 C2680 1.403 . S
C2683 C2684 1.524 . S
C2683 C2687 1.400 1_556 S
C2684 H2669 0.960 . S
C2684 H2670 0.960 . S
C2684 H2671 0.960 . S
C2684 C2683 1.524 . S
C2685 C2682 1.403 1_554 S
C2685 C2686 1.392 . S
C2685 C2689 1.495 1_545 S
C2686 C2685 1.392 . S
C2686 C2687 1.385 . S
C2686 C2688 1.478 . S
C2687 H2681 0.930 . S
C2687 C2683 1.400 1_554 S
C2687 C2686 1.385 . S
C2688 C2686 1.478 . S
C2688 C2690 1.381 . S
C2688 C2694 1.383 . S
C2689 C2685 1.495 1_565 S
C2689 H2695 0.959 . S
C2689 H2696 0.961 . S
C2689 H2697 0.960 1_565 S
C2690 C2688 1.381 . S
C2690 C2691 1.394 . S
C2690 H2698 0.930 . S
C2691 C2690 1.394 . S
C2691 C2692 1.383 . S
C2691 H2699 0.929 . S
C2692 C2691 1.383 . S
C2692 C2693 1.377 . S
C2693 H2677 0.930 . S
C2693 C2692 1.377 . S
C2693 C2694 1.379 . S
C2694 H2678 0.931 . S
C2694 C2688 1.383 . S
C2694 C2693 1.379 . S
H2695 C2689 0.959 . S
H2696 C2689 0.961 . S
H2697 C2689 0.960 1_545 S
H2698 C2690 0.930 . S
H2699 C2691 0.929 . S
H2700 C2708 0.929 . S
H2701 C2710 0.930 . S
H2702 C2712 0.930 1_655 S
H2703 C2715 0.929 1_655 S
H2704 C2718 0.930 . S
H2705 C2720 0.960 1_655 S
H2706 C2720 0.960 . S
H2707 C2720 0.960 1_655 S
C2708 H2700 0.929 . S
C2708 C2709 1.377 . S
C2708 C2710 1.384 . S
C2709 C2708 1.377 . S
C2709 C2715 1.390 . S
C2710 H2701 0.930 . S
C2710 C2708 1.384 . S
C2710 C2711 1.372 . S
C2711 C2710 1.372 . S
C2711 C2712 1.400 . S
C2711 C2716 1.490 . S
C2712 H2702 0.930 1_455 S
C2712 C2711 1.400 . S
C2712 C2715 1.386 . S
H2713 C2729 0.913 1_655 S
H2714 C2730 0.951 . S
C2715 H2703 0.929 1_455 S
C2715 C2709 1.390 . S
C2715 C2712 1.386 . S
C2716 C2711 1.490 . S
C2716 C2718 1.395 . S
C2716 C2719 1.403 . S
H2717 C2723 0.930 . S
C2718 H2704 0.930 . S
C2718 C2716 1.395 . S
C2718 C2721 1.403 1_556 S
C2719 C2716 1.403 . S
C2719 C2720 1.524 . S
C2719 C2723 1.400 1_556 S
C2720 H2705 0.960 1_455 S
C2720 H2706 0.960 . S
C2720 H2707 0.960 1_455 S
C2720 C2719 1.524 . S
C2721 C2718 1.403 1_554 S
C2721 C2722 1.392 . S
C2721 C2725 1.495 . S
C2722 C2721 1.392 . S
C2722 C2723 1.385 . S
C2722 C2724 1.478 . S
C2723 H2717 0.930 . S
C2723 C2719 1.400 1_554 S
C2723 C2722 1.385 . S
C2724 C2722 1.478 . S
C2724 C2726 1.381 . S
C2724 C2730 1.383 . S
C2725 C2721 1.495 . S
C2725 H2731 0.959 . S
C2725 H2732 0.961 . S
C2725 H2733 0.960 . S
C2726 C2724 1.381 . S
C2726 C2727 1.394 . S
C2726 H2734 0.930 . S
C2727 C2726 1.394 . S
C2727 C2728 1.383 . S
C2727 H2735 0.929 . S
C2728 C2727 1.383 . S
C2728 C2729 1.377 . S
C2729 H2713 0.913 1_455 S
C2729 C2728 1.377 . S
C2729 C2730 1.379 . S
C2730 H2714 0.951 . S
C2730 C2724 1.383 . S
C2730 C2729 1.379 . S
H2731 C2725 0.959 . S
H2732 C2725 0.961 . S
H2733 C2725 0.960 . S
H2734 C2726 0.930 . S
H2735 C2727 0.929 . S
H2736 C2744 0.929 . S
H2737 C2746 0.930 . S
H2738 C2748 0.930 . S
H2739 C2751 0.929 . S
H2740 C2754 0.930 . S
H2741 C2756 0.960 . S
H2742 C2756 0.960 . S
H2743 C2756 0.960 . S
C2744 H2736 0.929 . S
C2744 C2745 1.377 . S
C2744 C2746 1.384 . S
C2745 C2744 1.377 . S
C2745 C2751 1.390 . S
C2746 H2737 0.930 . S
C2746 C2744 1.384 . S
C2746 C2747 1.372 . S
C2747 C2746 1.372 . S
C2747 C2748 1.400 . S
C2747 C2752 1.490 . S
C2748 H2738 0.930 . S
C2748 C2747 1.400 . S
C2748 C2751 1.386 . S
H2749 C2765 0.930 . S
H2750 C2766 0.931 . S
C2751 H2739 0.929 . S
C2751 C2745 1.390 . S
C2751 C2748 1.386 . S
C2752 C2747 1.490 . S
C2752 C2754 1.395 . S
C2752 C2755 1.403 . S
H2753 C2759 0.930 . S
C2754 H2740 0.930 . S
C2754 C2752 1.395 . S
C2754 C2757 1.403 1_554 S
C2755 C2752 1.403 . S
C2755 C2756 1.524 . S
C2755 C2759 1.400 1_554 S
C2756 H2741 0.960 . S
C2756 H2742 0.960 . S
C2756 H2743 0.960 . S
C2756 C2755 1.524 . S
C2757 C2754 1.403 1_556 S
C2757 C2758 1.392 . S
C2757 C2761 1.495 . S
C2758 C2757 1.392 . S
C2758 C2759 1.385 . S
C2758 C2760 1.478 . S
C2759 H2753 0.930 . S
C2759 C2755 1.400 1_556 S
C2759 C2758 1.385 . S
C2760 C2758 1.478 . S
C2760 C2762 1.381 . S
C2760 C2766 1.383 . S
C2761 C2757 1.495 . S
C2761 H2767 0.959 . S
C2761 H2768 0.961 . S
C2761 H2769 0.960 . S
C2762 C2760 1.381 . S
C2762 C2763 1.394 . S
C2762 H2770 0.930 . S
C2763 C2762 1.394 . S
C2763 C2764 1.383 . S
C2763 H2771 0.929 . S
C2764 C2763 1.383 . S
C2764 C2765 1.377 . S
C2765 H2749 0.930 . S
C2765 C2764 1.377 . S
C2765 C2766 1.379 . S
C2766 H2750 0.931 . S
C2766 C2760 1.383 . S
C2766 C2765 1.379 . S
H2767 C2761 0.959 . S
H2768 C2761 0.961 . S
H2769 C2761 0.960 . S
H2770 C2762 0.930 . S
H2771 C2763 0.929 . S
H2772 C2780 0.929 . S
H2773 C2782 0.930 . S
H2774 C2784 0.930 . S
H2775 C2787 0.929 . S
H2776 C2790 0.930 . S
H2777 C2792 0.960 . S
H2778 C2792 0.960 . S
H2779 C2792 0.960 . S
C2780 H2772 0.929 . S
C2780 C2781 1.377 . S
C2780 C2782 1.384 . S
C2781 C2780 1.377 . S
C2781 C2787 1.390 . S
C2782 H2773 0.930 . S
C2782 C2780 1.384 . S
C2782 C2783 1.372 . S
C2783 C2782 1.372 . S
C2783 C2784 1.400 . S
C2783 C2788 1.490 . S
C2784 H2774 0.930 . S
C2784 C2783 1.400 . S
C2784 C2787 1.386 . S
H2785 C2801 0.930 . S
H2786 C2802 0.931 . S
C2787 H2775 0.929 . S
C2787 C2781 1.390 . S
C2787 C2784 1.386 . S
C2788 C2783 1.490 . S
C2788 C2790 1.395 . S
C2788 C2791 1.403 . S
H2789 C2795 0.930 . S
C2790 H2776 0.930 . S
C2790 C2788 1.395 . S
C2790 C2793 1.403 1_556 S
C2791 C2788 1.403 . S
C2791 C2792 1.524 . S
C2791 C2795 1.400 1_556 S
C2792 H2777 0.960 . S
C2792 H2778 0.960 . S
C2792 H2779 0.960 . S
C2792 C2791 1.524 . S
C2793 C2790 1.403 1_554 S
C2793 C2794 1.392 . S
C2793 C2797 1.495 . S
C2794 C2793 1.392 . S
C2794 C2795 1.385 . S
C2794 C2796 1.478 . S
C2795 H2789 0.930 . S
C2795 C2791 1.400 1_554 S
C2795 C2794 1.385 . S
C2796 C2794 1.478 . S
C2796 C2798 1.381 . S
C2796 C2802 1.383 . S
C2797 C2793 1.495 . S
C2797 H2803 0.959 . S
C2797 H2804 0.961 1_545 S
C2797 H2805 0.960 . S
C2798 C2796 1.381 . S
C2798 C2799 1.394 . S
C2798 H2806 0.930 . S
C2799 C2798 1.394 . S
C2799 C2800 1.383 . S
C2799 H2807 0.929 . S
C2800 C2799 1.383 . S
C2800 C2801 1.377 . S
C2801 H2785 0.930 . S
C2801 C2800 1.377 . S
C2801 C2802 1.379 . S
C2802 H2786 0.931 . S
C2802 C2796 1.383 . S
C2802 C2801 1.379 . S
H2803 C2797 0.959 . S
H2804 C2797 0.961 1_565 S
H2805 C2797 0.960 . S
H2806 C2798 0.930 . S
H2807 C2799 0.929 . S
H2808 C2816 0.929 . S
H2809 C2818 0.930 . S
H2810 C2820 0.930 . S
H2811 C2823 0.929 . S
H2812 C2826 0.930 . S
H2813 C2828 0.960 . S
H2814 C2828 0.960 . S
H2815 C2828 0.960 . S
C2816 H2808 0.929 . S
C2816 C2817 1.377 . S
C2816 C2818 1.384 . S
C2817 C2816 1.377 . S
C2817 C2823 1.390 . S
C2818 H2809 0.930 . S
C2818 C2816 1.384 . S
C2818 C2819 1.372 . S
C2819 C2818 1.372 . S
C2819 C2820 1.400 . S
C2819 C2824 1.490 . S
C2820 H2810 0.930 . S
C2820 C2819 1.400 . S
C2820 C2823 1.386 . S
H2821 C2837 0.930 . S
H2822 C2838 0.931 . S
C2823 H2811 0.929 . S
C2823 C2817 1.390 . S
C2823 C2820 1.386 . S
C2824 C2819 1.490 . S
C2824 C2826 1.395 . S
C2824 C2827 1.403 . S
H2825 C2831 0.930 . S
C2826 H2812 0.930 . S
C2826 C2824 1.395 . S
C2826 C2829 1.403 . S
C2827 C2824 1.403 . S
C2827 C2828 1.524 . S
C2827 C2831 1.400 . S
C2828 H2813 0.960 . S
C2828 H2814 0.960 . S
C2828 H2815 0.960 . S
C2828 C2827 1.524 . S
C2829 C2826 1.403 . S
C2829 C2830 1.392 . S
C2829 C2833 1.495 . S
C2830 C2829 1.392 . S
C2830 C2831 1.385 . S
C2830 C2832 1.478 . S
C2831 H2825 0.930 . S
C2831 C2827 1.400 . S
C2831 C2830 1.385 . S
C2832 C2830 1.478 . S
C2832 C2834 1.381 . S
C2832 C2838 1.383 . S
C2833 C2829 1.495 . S
C2833 H2839 0.959 . S
C2833 H2840 0.961 . S
C2833 H2841 0.960 . S
C2834 C2832 1.381 . S
C2834 C2835 1.394 . S
C2834 H2842 0.930 . S
C2835 C2834 1.394 . S
C2835 C2836 1.383 . S
C2835 H2843 0.929 . S
C2836 C2835 1.383 . S
C2836 C2837 1.377 . S
C2837 H2821 0.930 . S
C2837 C2836 1.377 . S
C2837 C2838 1.379 . S
C2838 H2822 0.931 . S
C2838 C2832 1.383 . S
C2838 C2837 1.379 . S
H2839 C2833 0.959 . S
H2840 C2833 0.961 . S
H2841 C2833 0.960 . S
H2842 C2834 0.930 . S
H2843 C2835 0.929 . S
H2844 C2852 0.929 . S
H2845 C2854 0.930 . S
H2846 C2856 0.930 . S
H2847 C2859 0.929 . S
H2848 C2862 0.930 . S
H2849 C2864 0.960 . S
H2850 C2864 0.960 . S
H2851 C2864 0.960 . S
C2852 H2844 0.929 . S
C2852 C2853 1.377 . S
C2852 C2854 1.384 . S
C2853 C2852 1.377 . S
C2853 C2859 1.390 . S
C2854 H2845 0.930 . S
C2854 C2852 1.384 . S
C2854 C2855 1.372 . S
C2855 C2854 1.372 . S
C2855 C2856 1.400 . S
C2855 C2860 1.490 . S
C2856 H2846 0.930 . S
C2856 C2855 1.400 . S
C2856 C2859 1.386 . S
H2857 C2873 0.930 . S
H2858 C2874 0.931 . S
C2859 H2847 0.929 . S
C2859 C2853 1.390 . S
C2859 C2856 1.386 . S
C2860 C2855 1.490 . S
C2860 C2862 1.395 . S
C2860 C2863 1.403 . S
H2861 C2867 0.930 . S
C2862 H2848 0.930 . S
C2862 C2860 1.395 . S
C2862 C2865 1.403 . S
C2863 C2860 1.403 . S
C2863 C2864 1.524 . S
C2863 C2867 1.400 . S
C2864 H2849 0.960 . S
C2864 H2850 0.960 . S
C2864 H2851 0.960 . S
C2864 C2863 1.524 . S
C2865 C2862 1.403 . S
C2865 C2866 1.392 . S
C2865 C2869 1.495 . S
C2866 C2865 1.392 . S
C2866 C2867 1.385 . S
C2866 C2868 1.478 . S
C2867 H2861 0.930 . S
C2867 C2863 1.400 . S
C2867 C2866 1.385 . S
C2868 C2866 1.478 . S
C2868 C2870 1.381 . S
C2868 C2874 1.383 . S
C2869 C2865 1.495 . S
C2869 H2875 0.959 . S
C2869 H2876 0.961 . S
C2869 H2877 0.960 . S
C2870 C2868 1.381 . S
C2870 C2871 1.394 . S
C2870 H2878 0.930 . S
C2871 C2870 1.394 . S
C2871 C2872 1.383 . S
C2871 H2879 0.929 . S
C2872 C2871 1.383 . S
C2872 C2873 1.377 . S
C2873 H2857 0.930 . S
C2873 C2872 1.377 . S
C2873 C2874 1.379 . S
C2874 H2858 0.931 . S
C2874 C2868 1.383 . S
C2874 C2873 1.379 . S
H2875 C2869 0.959 . S
H2876 C2869 0.961 . S
H2877 C2869 0.960 . S
H2878 C2870 0.930 . S
H2879 C2871 0.929 . S
H2880 C2888 0.929 . S
H2881 C2890 0.930 . S
H2882 C2892 0.930 . S
H2883 C2895 0.929 . S
H2884 C2898 0.930 . S
H2885 C2900 0.960 . S
H2886 C2900 0.960 . S
H2887 C2900 0.960 . S
C2888 H2880 0.929 . S
C2888 C2889 1.377 . S
C2888 C2890 1.384 . S
C2889 C2888 1.377 . S
C2889 C2895 1.390 . S
C2890 H2881 0.930 . S
C2890 C2888 1.384 . S
C2890 C2891 1.372 . S
C2891 C2890 1.372 . S
C2891 C2892 1.400 . S
C2891 C2896 1.490 . S
C2892 H2882 0.930 . S
C2892 C2891 1.400 . S
C2892 C2895 1.386 . S
H2893 C2909 0.930 . S
H2894 C2910 0.931 . S
C2895 H2883 0.929 . S
C2895 C2889 1.390 . S
C2895 C2892 1.386 . S
C2896 C2891 1.490 . S
C2896 C2898 1.395 . S
C2896 C2899 1.403 . S
H2897 C2903 0.930 . S
C2898 H2884 0.930 . S
C2898 C2896 1.395 . S
C2898 C2901 1.403 . S
C2899 C2896 1.403 . S
C2899 C2900 1.524 1_655 S
C2899 C2903 1.400 . S
C2900 H2885 0.960 . S
C2900 H2886 0.960 . S
C2900 H2887 0.960 . S
C2900 C2899 1.524 1_455 S
C2901 C2898 1.403 . S
C2901 C2902 1.392 . S
C2901 C2905 1.495 . S
C2902 C2901 1.392 . S
C2902 C2903 1.385 . S
C2902 C2904 1.478 . S
C2903 H2897 0.930 . S
C2903 C2899 1.400 . S
C2903 C2902 1.385 . S
C2904 C2902 1.478 . S
C2904 C2906 1.381 . S
C2904 C2910 1.383 . S
C2905 C2901 1.495 . S
C2905 H2911 0.959 . S
C2905 H2912 0.961 . S
C2905 H2913 0.960 . S
C2906 C2904 1.381 . S
C2906 C2907 1.394 . S
C2906 H2914 0.930 . S
C2907 C2906 1.394 . S
C2907 C2908 1.383 . S
C2907 H2915 0.929 . S
C2908 C2907 1.383 . S
C2908 C2909 1.377 . S
C2909 H2893 0.930 . S
C2909 C2908 1.377 . S
C2909 C2910 1.379 . S
C2910 H2894 0.931 . S
C2910 C2904 1.383 . S
C2910 C2909 1.379 . S
H2911 C2905 0.959 . S
H2912 C2905 0.961 . S
H2913 C2905 0.960 . S
H2914 C2906 0.930 . S
H2915 C2907 0.929 . S
H2916 C2924 0.929 . S
H2917 C2926 0.930 . S
H2918 C2928 0.930 . S
H2919 C2931 0.929 . S
H2920 C2934 0.930 . S
H2921 C2936 0.960 . S
H2922 C2936 0.960 . S
H2923 C2936 0.960 . S
C2924 H2916 0.929 . S
C2924 C2925 1.377 . S
C2924 C2926 1.384 . S
C2925 C2924 1.377 . S
C2925 C2931 1.390 . S
C2926 H2917 0.930 . S
C2926 C2924 1.384 . S
C2926 C2927 1.372 . S
C2927 C2926 1.372 . S
C2927 C2928 1.400 . S
C2927 C2932 1.490 . S
C2928 H2918 0.930 . S
C2928 C2927 1.400 . S
C2928 C2931 1.386 . S
H2929 C2945 0.930 . S
H2930 C2946 0.931 . S
C2931 H2919 0.929 . S
C2931 C2925 1.390 . S
C2931 C2928 1.386 . S
C2932 C2927 1.490 . S
C2932 C2934 1.395 . S
C2932 C2935 1.403 . S
H2933 C2939 0.930 . S
C2934 H2920 0.930 . S
C2934 C2932 1.395 . S
C2934 C2937 1.403 . S
C2935 C2932 1.403 . S
C2935 C2936 1.524 . S
C2935 C2939 1.400 . S
C2936 H2921 0.960 . S
C2936 H2922 0.960 . S
C2936 H2923 0.960 . S
C2936 C2935 1.524 . S
C2937 C2934 1.403 . S
C2937 C2938 1.392 . S
C2937 C2941 1.495 . S
C2938 C2937 1.392 . S
C2938 C2939 1.385 . S
C2938 C2940 1.478 . S
C2939 H2933 0.930 . S
C2939 C2935 1.400 . S
C2939 C2938 1.385 . S
C2940 C2938 1.478 . S
C2940 C2942 1.381 . S
C2940 C2946 1.383 . S
C2941 C2937 1.495 . S
C2941 H2947 0.959 . S
C2941 H2948 0.961 . S
C2941 H2949 0.960 . S
C2942 C2940 1.381 . S
C2942 C2943 1.394 . S
C2942 H2950 0.930 . S
C2943 C2942 1.394 . S
C2943 C2944 1.383 . S
C2943 H2951 0.929 . S
C2944 C2943 1.383 . S
C2944 C2945 1.377 . S
C2945 H2929 0.930 . S
C2945 C2944 1.377 . S
C2945 C2946 1.379 . S
C2946 H2930 0.931 . S
C2946 C2940 1.383 . S
C2946 C2945 1.379 . S
H2947 C2941 0.959 . S
H2948 C2941 0.961 . S
H2949 C2941 0.960 . S
H2950 C2942 0.930 . S
H2951 C2943 0.929 . S
H2952 C2960 0.929 . S
H2953 C2962 0.930 . S
H2954 C2964 0.930 . S
H2955 C2967 0.929 . S
H2956 C2970 0.930 . S
H2957 C2972 0.960 . S
H2958 C2972 0.960 . S
H2959 C2972 0.960 . S
C2960 H2952 0.929 . S
C2960 C2961 1.377 . S
C2960 C2962 1.384 . S
C2961 C2960 1.377 . S
C2961 C2967 1.390 . S
C2962 H2953 0.930 . S
C2962 C2960 1.384 . S
C2962 C2963 1.372 . S
C2963 C2962 1.372 . S
C2963 C2964 1.400 . S
C2963 C2968 1.490 . S
C2964 H2954 0.930 . S
C2964 C2963 1.400 . S
C2964 C2967 1.386 . S
H2965 C2981 0.930 . S
H2966 C2982 0.931 . S
C2967 H2955 0.929 . S
C2967 C2961 1.390 . S
C2967 C2964 1.386 . S
C2968 C2963 1.490 . S
C2968 C2970 1.395 . S
C2968 C2971 1.403 . S
H2969 C2975 0.930 1_455 S
C2970 H2956 0.930 . S
C2970 C2968 1.395 . S
C2970 C2973 1.403 . S
C2971 C2968 1.403 . S
C2971 C2972 1.524 1_655 S
C2971 C2975 1.400 . S
C2972 H2957 0.960 . S
C2972 H2958 0.960 . S
C2972 H2959 0.960 . S
C2972 C2971 1.524 1_455 S
C2973 C2970 1.403 . S
C2973 C2974 1.392 . S
C2973 C2977 1.495 . S
C2974 C2973 1.392 . S
C2974 C2975 1.385 . S
C2974 C2976 1.478 . S
C2975 H2969 0.930 1_655 S
C2975 C2971 1.400 . S
C2975 C2974 1.385 . S
C2976 C2974 1.478 . S
C2976 C2978 1.381 . S
C2976 C2982 1.383 . S
C2977 C2973 1.495 . S
C2977 H2983 0.959 . S
C2977 H2984 0.961 . S
C2977 H2985 0.960 . S
C2978 C2976 1.381 . S
C2978 C2979 1.394 . S
C2978 H2986 0.930 . S
C2979 C2978 1.394 . S
C2979 C2980 1.383 . S
C2979 H2987 0.929 . S
C2980 C2979 1.383 . S
C2980 C2981 1.377 . S
C2981 H2965 0.930 . S
C2981 C2980 1.377 . S
C2981 C2982 1.379 . S
C2982 H2966 0.931 . S
C2982 C2976 1.383 . S
C2982 C2981 1.379 . S
H2983 C2977 0.959 . S
H2984 C2977 0.961 . S
H2985 C2977 0.960 . S
H2986 C2978 0.930 . S
H2987 C2979 0.929 . S
H2988 C2996 0.929 . S
H2989 C2998 0.930 . S
H2990 C3000 0.930 . S
H2991 C3003 0.929 . S
H2992 C3006 0.930 . S
H2993 C3008 0.960 . S
H2994 C3008 0.960 . S
H2995 C3008 0.960 . S
C2996 H2988 0.929 . S
C2996 C2997 1.377 . S
C2996 C2998 1.384 . S
C2997 C2996 1.377 . S
C2997 C3003 1.390 . S
C2998 H2989 0.930 . S
C2998 C2996 1.384 . S
C2998 C2999 1.372 . S
C2999 C2998 1.372 . S
C2999 C3000 1.400 . S
C2999 C3004 1.490 . S
C3000 H2990 0.930 . S
C3000 C2999 1.400 . S
C3000 C3003 1.386 . S
H3001 C3017 0.930 . S
H3002 C3018 0.931 . S
C3003 H2991 0.929 . S
C3003 C2997 1.390 . S
C3003 C3000 1.386 . S
C3004 C2999 1.490 . S
C3004 C3006 1.395 . S
C3004 C3007 1.403 . S
H3005 C3011 0.930 . S
C3006 H2992 0.930 . S
C3006 C3004 1.395 . S
C3006 C3009 1.403 . S
C3007 C3004 1.403 . S
C3007 C3008 1.524 . S
C3007 C3011 1.400 . S
C3008 H2993 0.960 . S
C3008 H2994 0.960 . S
C3008 H2995 0.960 . S
C3008 C3007 1.524 . S
C3009 C3006 1.403 . S
C3009 C3010 1.392 . S
C3009 C3013 1.495 . S
C3010 C3009 1.392 . S
C3010 C3011 1.385 . S
C3010 C3012 1.478 . S
C3011 H3005 0.930 . S
C3011 C3007 1.400 . S
C3011 C3010 1.385 . S
C3012 C3010 1.478 . S
C3012 C3014 1.381 . S
C3012 C3018 1.383 . S
C3013 C3009 1.495 . S
C3013 H3019 0.959 . S
C3013 H3020 0.961 . S
C3013 H3021 0.960 . S
C3014 C3012 1.381 . S
C3014 C3015 1.394 . S
C3014 H3022 0.930 . S
C3015 C3014 1.394 . S
C3015 C3016 1.383 . S
C3015 H3023 0.929 . S
C3016 C3015 1.383 . S
C3016 C3017 1.377 . S
C3017 H3001 0.930 . S
C3017 C3016 1.377 . S
C3017 C3018 1.379 . S
C3018 H3002 0.931 . S
C3018 C3012 1.383 . S
C3018 C3017 1.379 . S
H3019 C3013 0.959 . S
H3020 C3013 0.961 . S
H3021 C3013 0.960 . S
H3022 C3014 0.930 . S
H3023 C3015 0.929 . S
H3024 C3032 0.929 . S
H3025 C3034 0.930 . S
H3026 C3036 0.928 . S
H3027 C3039 0.909 1_545 S
H3028 C3042 0.930 . S
H3029 C3044 0.960 . S
H3030 C3044 0.960 . S
H3031 C3044 0.960 . S
C3032 H3024 0.929 . S
C3032 C3033 1.377 . S
C3032 C3034 1.384 . S
C3033 C3032 1.377 . S
C3033 C3039 1.390 . S
C3034 H3025 0.930 . S
C3034 C3032 1.384 . S
C3034 C3035 1.372 . S
C3035 C3034 1.372 . S
C3035 C3036 1.400 . S
C3035 C3040 1.490 . S
C3036 H3026 0.928 . S
C3036 C3035 1.400 . S
C3036 C3039 1.386 . S
H3037 C3053 0.930 . S
H3038 C3054 0.931 . S
C3039 H3027 0.909 1_565 S
C3039 C3033 1.390 . S
C3039 C3036 1.386 . S
C3040 C3035 1.490 . S
C3040 C3042 1.395 . S
C3040 C3043 1.403 . S
H3041 C3047 0.930 1_545 S
C3042 H3028 0.930 . S
C3042 C3040 1.395 . S
C3042 C3045 1.403 . S
C3043 C3040 1.403 . S
C3043 C3044 1.524 1_565 S
C3043 C3047 1.400 . S
C3044 H3029 0.960 . S
C3044 H3030 0.960 . S
C3044 H3031 0.960 . S
C3044 C3043 1.524 1_545 S
C3045 C3042 1.403 . S
C3045 C3046 1.392 . S
C3045 C3049 1.495 . S
C3046 C3045 1.392 . S
C3046 C3047 1.385 . S
C3046 C3048 1.478 . S
C3047 H3041 0.930 1_565 S
C3047 C3043 1.400 . S
C3047 C3046 1.385 . S
C3048 C3046 1.478 . S
C3048 C3050 1.381 . S
C3048 C3054 1.383 . S
C3049 C3045 1.495 . S
C3049 H3055 0.959 . S
C3049 H3056 0.961 . S
C3049 H3057 0.960 . S
C3050 C3048 1.381 . S
C3050 C3051 1.394 . S
C3050 H3058 0.930 . S
C3051 C3050 1.394 . S
C3051 C3052 1.383 . S
C3051 H3059 0.929 . S
C3052 C3051 1.383 . S
C3052 C3053 1.377 . S
C3053 H3037 0.930 . S
C3053 C3052 1.377 . S
C3053 C3054 1.379 . S
C3054 H3038 0.931 . S
C3054 C3048 1.383 . S
C3054 C3053 1.379 . S
H3055 C3049 0.959 . S
H3056 C3049 0.961 . S
H3057 C3049 0.960 . S
H3058 C3050 0.930 . S
H3059 C3051 0.929 . S
H3060 C3068 0.929 . S
H3061 C3070 0.930 . S
H3062 C3072 0.930 . S
H3063 C3075 0.929 . S
H3064 C3078 0.930 . S
H3065 C3080 0.960 . S
H3066 C3080 0.960 . S
H3067 C3080 0.960 . S
C3068 H3060 0.929 . S
C3068 C3069 1.377 . S
C3068 C3070 1.384 . S
C3069 C3068 1.377 . S
C3069 C3075 1.390 . S
C3070 H3061 0.930 . S
C3070 C3068 1.384 . S
C3070 C3071 1.372 . S
C3071 C3070 1.372 . S
C3071 C3072 1.400 . S
C3071 C3076 1.490 . S
C3072 H3062 0.930 . S
C3072 C3071 1.400 . S
C3072 C3075 1.386 . S
H3073 C3089 0.930 . S
H3074 C3090 0.931 . S
C3075 H3063 0.929 . S
C3075 C3069 1.390 . S
C3075 C3072 1.386 . S
C3076 C3071 1.490 . S
C3076 C3078 1.395 . S
C3076 C3079 1.403 . S
H3077 C3083 0.930 . S
C3078 H3064 0.930 . S
C3078 C3076 1.395 . S
C3078 C3081 1.403 . S
C3079 C3076 1.403 . S
C3079 C3080 1.524 . S
C3079 C3083 1.400 . S
C3080 H3065 0.960 . S
C3080 H3066 0.960 . S
C3080 H3067 0.960 . S
C3080 C3079 1.524 . S
C3081 C3078 1.403 . S
C3081 C3082 1.392 . S
C3081 C3085 1.495 . S
C3082 C3081 1.392 . S
C3082 C3083 1.385 . S
C3082 C3084 1.478 . S
C3083 H3077 0.930 . S
C3083 C3079 1.400 . S
C3083 C3082 1.385 . S
C3084 C3082 1.478 . S
C3084 C3086 1.381 . S
C3084 C3090 1.383 . S
C3085 C3081 1.495 . S
C3085 H3091 0.959 . S
C3085 H3092 0.961 . S
C3085 H3093 0.960 . S
C3086 C3084 1.381 . S
C3086 C3087 1.394 . S
C3086 H3094 0.930 . S
C3087 C3086 1.394 . S
C3087 C3088 1.383 . S
C3087 H3095 0.929 . S
C3088 C3087 1.383 . S
C3088 C3089 1.377 . S
C3089 H3073 0.930 . S
C3089 C3088 1.377 . S
C3089 C3090 1.379 . S
C3090 H3074 0.931 . S
C3090 C3084 1.383 . S
C3090 C3089 1.379 . S
H3091 C3085 0.959 . S
H3092 C3085 0.961 . S
H3093 C3085 0.960 . S
H3094 C3086 0.930 . S
H3095 C3087 0.929 . S
H3096 C3104 0.929 . S
H3097 C3106 0.930 . S
H3098 C3108 0.930 . S
H3099 C3111 0.929 . S
H3100 C3114 0.930 . S
H3101 C3116 0.960 . S
H3102 C3116 0.960 . S
H3103 C3116 0.960 . S
C3104 H3096 0.929 . S
C3104 C3105 1.377 . S
C3104 C3106 1.384 . S
C3105 C3104 1.377 . S
C3105 C3111 1.390 . S
C3106 H3097 0.930 . S
C3106 C3104 1.384 . S
C3106 C3107 1.372 . S
C3107 C3106 1.372 . S
C3107 C3108 1.400 . S
C3107 C3112 1.490 . S
C3108 H3098 0.930 . S
C3108 C3107 1.400 . S
C3108 C3111 1.386 . S
H3109 C3125 0.930 . S
H3110 C3126 0.931 . S
C3111 H3099 0.929 . S
C3111 C3105 1.390 . S
C3111 C3108 1.386 . S
C3112 C3107 1.490 . S
C3112 C3114 1.395 . S
C3112 C3115 1.403 . S
H3113 C3119 0.930 . S
C3114 H3100 0.930 . S
C3114 C3112 1.395 . S
C3114 C3117 1.403 . S
C3115 C3112 1.403 . S
C3115 C3116 1.524 . S
C3115 C3119 1.400 . S
C3116 H3101 0.960 . S
C3116 H3102 0.960 . S
C3116 H3103 0.960 . S
C3116 C3115 1.524 . S
C3117 C3114 1.403 . S
C3117 C3118 1.392 . S
C3117 C3121 1.495 . S
C3118 C3117 1.392 . S
C3118 C3119 1.385 . S
C3118 C3120 1.478 . S
C3119 H3113 0.930 . S
C3119 C3115 1.400 . S
C3119 C3118 1.385 . S
C3120 C3118 1.478 . S
C3120 C3122 1.381 . S
C3120 C3126 1.383 . S
C3121 C3117 1.495 . S
C3121 H3127 0.959 . S
C3121 H3128 0.961 . S
C3121 H3129 0.960 . S
C3122 C3120 1.381 . S
C3122 C3123 1.394 . S
C3122 H3130 0.930 . S
C3123 C3122 1.394 . S
C3123 C3124 1.383 . S
C3123 H3131 0.929 . S
C3124 C3123 1.383 . S
C3124 C3125 1.377 . S
C3125 H3109 0.930 . S
C3125 C3124 1.377 . S
C3125 C3126 1.379 . S
C3126 H3110 0.931 . S
C3126 C3120 1.383 . S
C3126 C3125 1.379 . S
H3127 C3121 0.959 . S
H3128 C3121 0.961 . S
H3129 C3121 0.960 . S
H3130 C3122 0.930 . S
H3131 C3123 0.929 . S
H3132 C3140 0.929 . S
H3133 C3142 0.930 . S
H3134 C3144 0.930 . S
H3135 C3147 0.929 . S
H3136 C3150 0.930 . S
H3137 C3152 0.960 . S
H3138 C3152 0.960 . S
H3139 C3152 0.960 . S
C3140 H3132 0.929 . S
C3140 C3141 1.377 . S
C3140 C3142 1.384 . S
C3141 C3140 1.377 . S
C3141 C3147 1.390 . S
C3142 H3133 0.930 . S
C3142 C3140 1.384 . S
C3142 C3143 1.372 . S
C3143 C3142 1.372 . S
C3143 C3144 1.400 . S
C3143 C3148 1.490 . S
C3144 H3134 0.930 . S
C3144 C3143 1.400 . S
C3144 C3147 1.386 . S
H3145 C3161 0.930 . S
H3146 C3162 0.931 . S
C3147 H3135 0.929 . S
C3147 C3141 1.390 . S
C3147 C3144 1.386 . S
C3148 C3143 1.490 . S
C3148 C3150 1.395 . S
C3148 C3151 1.403 . S
H3149 C3155 0.930 . S
C3150 H3136 0.930 . S
C3150 C3148 1.395 . S
C3150 C3153 1.403 . S
C3151 C3148 1.403 . S
C3151 C3152 1.524 . S
C3151 C3155 1.400 . S
C3152 H3137 0.960 . S
C3152 H3138 0.960 . S
C3152 H3139 0.960 . S
C3152 C3151 1.524 . S
C3153 C3150 1.403 . S
C3153 C3154 1.392 . S
C3153 C3157 1.495 . S
C3154 C3153 1.392 . S
C3154 C3155 1.385 . S
C3154 C3156 1.478 . S
C3155 H3149 0.930 . S
C3155 C3151 1.400 . S
C3155 C3154 1.385 . S
C3156 C3154 1.478 . S
C3156 C3158 1.381 . S
C3156 C3162 1.383 . S
C3157 C3153 1.495 . S
C3157 H3163 0.959 . S
C3157 H3164 0.961 . S
C3157 H3165 0.960 . S
C3158 C3156 1.381 . S
C3158 C3159 1.394 . S
C3158 H3166 0.930 . S
C3159 C3158 1.394 . S
C3159 C3160 1.383 . S
C3159 H3167 0.929 . S
C3160 C3159 1.383 . S
C3160 C3161 1.377 . S
C3161 H3145 0.930 . S
C3161 C3160 1.377 . S
C3161 C3162 1.379 . S
C3162 H3146 0.931 . S
C3162 C3156 1.383 . S
C3162 C3161 1.379 . S
H3163 C3157 0.959 . S
H3164 C3157 0.961 . S
H3165 C3157 0.960 . S
H3166 C3158 0.930 . S
H3167 C3159 0.929 . S
H3168 C3176 0.979 . S
H3169 C3178 0.949 . S
H3170 C3180 0.930 . S
H3171 C3183 0.929 . S
H3172 C3186 0.930 1_545 S
H3173 C3188 0.960 . S
H3174 C3188 0.960 . S
H3175 C3188 0.960 . S
C3176 H3168 0.979 . S
C3176 C3177 1.377 . S
C3176 C3178 1.384 . S
C3177 C3176 1.377 . S
C3177 C3183 1.390 . S
C3178 H3169 0.949 . S
C3178 C3176 1.384 . S
C3178 C3179 1.372 . S
C3179 C3178 1.372 . S
C3179 C3180 1.400 . S
C3179 C3184 1.490 . S
C3180 H3170 0.930 . S
C3180 C3179 1.400 . S
C3180 C3183 1.386 . S
H3181 C3197 0.930 . S
H3182 C3198 0.931 . S
C3183 H3171 0.929 . S
C3183 C3177 1.390 . S
C3183 C3180 1.386 . S
C3184 C3179 1.490 . S
C3184 C3186 1.395 . S
C3184 C3187 1.403 . S
H3185 C3191 0.930 . S
C3186 H3172 0.930 1_565 S
C3186 C3184 1.395 . S
C3186 C3189 1.403 1_565 S
C3187 C3184 1.403 . S
C3187 C3188 1.524 . S
C3187 C3191 1.400 . S
C3188 H3173 0.960 . S
C3188 H3174 0.960 . S
C3188 H3175 0.960 . S
C3188 C3187 1.524 . S
C3189 C3186 1.403 1_545 S
C3189 C3190 1.372 1_545 S
C3189 C3193 1.517 . S
C3190 C3189 1.372 1_565 S
C3190 C3191 1.385 . S
C3190 C3192 1.478 . S
C3191 H3185 0.930 . S
C3191 C3187 1.400 . S
C3191 C3190 1.385 . S
C3192 C3190 1.478 . S
C3192 C3194 1.381 . S
C3192 C3198 1.383 . S
C3193 C3189 1.517 . S
C3193 H3199 0.959 . S
C3193 H3200 0.961 . S
C3193 H3201 0.960 . S
C3194 C3192 1.381 . S
C3194 C3195 1.394 . S
C3194 H3202 0.953 . S
C3195 C3194 1.394 . S
C3195 C3196 1.383 . S
C3195 H3203 0.929 . S
C3196 C3195 1.383 . S
C3196 C3197 1.377 . S
C3197 H3181 0.930 . S
C3197 C3196 1.377 . S
C3197 C3198 1.379 . S
C3198 H3182 0.931 . S
C3198 C3192 1.383 . S
C3198 C3197 1.379 . S
H3199 C3193 0.959 . S
H3200 C3193 0.961 . S
H3201 C3193 0.960 . S
H3202 C3194 0.953 . S
H3203 C3195 0.929 . S
H3204 C3212 0.929 . S
H3205 C3214 0.930 . S
H3206 C3216 0.930 . S
H3207 C3219 0.929 . S
H3208 C3222 0.930 . S
H3209 C3224 0.960 . S
H3210 C3224 0.960 . S
H3211 C3224 0.960 . S
C3212 H3204 0.929 . S
C3212 C3213 1.377 . S
C3212 C3214 1.384 . S
C3213 C3212 1.377 . S
C3213 C3219 1.390 . S
C3214 H3205 0.930 . S
C3214 C3212 1.384 . S
C3214 C3215 1.372 . S
C3215 C3214 1.372 . S
C3215 C3216 1.400 . S
C3215 C3220 1.490 . S
C3216 H3206 0.930 . S
C3216 C3215 1.400 . S
C3216 C3219 1.386 . S
H3217 C3233 0.930 . S
H3218 C3234 0.931 . S
C3219 H3207 0.929 . S
C3219 C3213 1.390 . S
C3219 C3216 1.386 . S
C3220 C3215 1.490 . S
C3220 C3222 1.395 . S
C3220 C3223 1.403 . S
H3221 C3227 0.930 . S
C3222 H3208 0.930 . S
C3222 C3220 1.395 . S
C3222 C3225 1.403 . S
C3223 C3220 1.403 . S
C3223 C3224 1.524 . S
C3223 C3227 1.400 . S
C3224 H3209 0.960 . S
C3224 H3210 0.960 . S
C3224 H3211 0.960 . S
C3224 C3223 1.524 . S
C3225 C3222 1.403 . S
C3225 C3226 1.392 . S
C3225 C3229 1.495 . S
C3226 C3225 1.392 . S
C3226 C3227 1.385 . S
C3226 C3228 1.478 . S
C3227 H3221 0.930 . S
C3227 C3223 1.400 . S
C3227 C3226 1.385 . S
C3228 C3226 1.478 . S
C3228 C3230 1.381 . S
C3228 C3234 1.383 . S
C3229 C3225 1.495 . S
C3229 H3235 0.959 . S
C3229 H3236 0.961 . S
C3229 H3237 0.960 . S
C3230 C3228 1.381 . S
C3230 C3231 1.394 . S
C3230 H3238 0.930 . S
C3231 C3230 1.394 . S
C3231 C3232 1.383 . S
C3231 H3239 0.929 . S
C3232 C3231 1.383 . S
C3232 C3233 1.377 . S
C3233 H3217 0.930 . S
C3233 C3232 1.377 . S
C3233 C3234 1.379 . S
C3234 H3218 0.931 . S
C3234 C3228 1.383 . S
C3234 C3233 1.379 . S
H3235 C3229 0.959 . S
H3236 C3229 0.961 . S
H3237 C3229 0.960 . S
H3238 C3230 0.930 . S
H3239 C3231 0.929 . S
H3240 C3248 0.929 . S
H3241 C3250 0.930 . S
H3242 C3252 0.930 . S
H3243 C3255 0.929 . S
H3244 C3258 0.930 . S
H3245 C3260 0.960 . S
H3246 C3260 0.960 . S
H3247 C3260 0.960 . S
C3248 H3240 0.929 . S
C3248 C3249 1.377 . S
C3248 C3250 1.384 . S
C3249 C3248 1.377 . S
C3249 C3255 1.390 . S
C3250 H3241 0.930 . S
C3250 C3248 1.384 . S
C3250 C3251 1.372 . S
C3251 C3250 1.372 . S
C3251 C3252 1.400 . S
C3251 C3256 1.490 . S
C3252 H3242 0.930 . S
C3252 C3251 1.400 . S
C3252 C3255 1.386 . S
H3253 C3269 0.930 . S
H3254 C3270 0.931 . S
C3255 H3243 0.929 . S
C3255 C3249 1.390 . S
C3255 C3252 1.386 . S
C3256 C3251 1.490 . S
C3256 C3258 1.395 . S
C3256 C3259 1.403 . S
H3257 C3263 0.930 . S
C3258 H3244 0.930 . S
C3258 C3256 1.395 . S
C3258 C3261 1.403 . S
C3259 C3256 1.403 . S
C3259 C3260 1.524 . S
C3259 C3263 1.400 . S
C3260 H3245 0.960 . S
C3260 H3246 0.960 . S
C3260 H3247 0.960 . S
C3260 C3259 1.524 . S
C3261 C3258 1.403 . S
C3261 C3262 1.392 . S
C3261 C3265 1.495 . S
C3262 C3261 1.392 . S
C3262 C3263 1.385 . S
C3262 C3264 1.478 . S
C3263 H3257 0.930 . S
C3263 C3259 1.400 . S
C3263 C3262 1.385 . S
C3264 C3262 1.478 . S
C3264 C3266 1.381 . S
C3264 C3270 1.383 . S
C3265 C3261 1.495 . S
C3265 H3271 0.959 . S
C3265 H3272 0.961 . S
C3265 H3273 0.960 . S
C3266 C3264 1.381 . S
C3266 C3267 1.394 . S
C3266 H3274 0.930 . S
C3267 C3266 1.394 . S
C3267 C3268 1.383 . S
C3267 H3275 0.929 . S
C3268 C3267 1.383 . S
C3268 C3269 1.377 . S
C3269 H3253 0.930 . S
C3269 C3268 1.377 . S
C3269 C3270 1.379 . S
C3270 H3254 0.931 . S
C3270 C3264 1.383 . S
C3270 C3269 1.379 . S
H3271 C3265 0.959 . S
H3272 C3265 0.961 . S
H3273 C3265 0.960 . S
H3274 C3266 0.930 . S
H3275 C3267 0.929 . S
H3276 C3284 0.929 . S
H3277 C3286 0.930 . S
H3278 C3288 0.930 . S
H3279 C3291 0.929 . S
H3280 C3294 0.930 . S
H3281 C3296 0.960 . S
H3282 C3296 0.960 . S
H3283 C3296 0.960 . S
C3284 H3276 0.929 . S
C3284 C3285 1.377 . S
C3284 C3286 1.384 . S
C3285 C3284 1.377 . S
C3285 C3291 1.390 . S
C3286 H3277 0.930 . S
C3286 C3284 1.384 . S
C3286 C3287 1.372 . S
C3287 C3286 1.372 . S
C3287 C3288 1.400 . S
C3287 C3292 1.490 . S
C3288 H3278 0.930 . S
C3288 C3287 1.400 . S
C3288 C3291 1.386 . S
H3289 C3305 0.930 . S
H3290 C3306 0.931 . S
C3291 H3279 0.929 . S
C3291 C3285 1.390 . S
C3291 C3288 1.386 . S
C3292 C3287 1.490 . S
C3292 C3294 1.395 . S
C3292 C3295 1.403 . S
H3293 C3299 0.930 . S
C3294 H3280 0.930 . S
C3294 C3292 1.395 . S
C3294 C3297 1.403 . S
C3295 C3292 1.403 . S
C3295 C3296 1.524 . S
C3295 C3299 1.400 . S
C3296 H3281 0.960 . S
C3296 H3282 0.960 . S
C3296 H3283 0.960 . S
C3296 C3295 1.524 . S
C3297 C3294 1.403 . S
C3297 C3298 1.392 . S
C3297 C3301 1.495 . S
C3298 C3297 1.392 . S
C3298 C3299 1.385 . S
C3298 C3300 1.478 . S
C3299 H3293 0.930 . S
C3299 C3295 1.400 . S
C3299 C3298 1.385 . S
C3300 C3298 1.478 . S
C3300 C3302 1.381 . S
C3300 C3306 1.383 . S
C3301 C3297 1.495 . S
C3301 H3307 0.959 . S
C3301 H3308 0.961 . S
C3301 H3309 0.960 . S
C3302 C3300 1.381 . S
C3302 C3303 1.394 . S
C3302 H3310 0.930 . S
C3303 C3302 1.394 . S
C3303 C3304 1.383 . S
C3303 H3311 0.929 . S
C3304 C3303 1.383 . S
C3304 C3305 1.377 . S
C3305 H3289 0.930 . S
C3305 C3304 1.377 . S
C3305 C3306 1.379 . S
C3306 H3290 0.931 . S
C3306 C3300 1.383 . S
C3306 C3305 1.379 . S
H3307 C3301 0.959 . S
H3308 C3301 0.961 . S
H3309 C3301 0.960 . S
H3310 C3302 0.930 . S
H3311 C3303 0.929 . S
H3312 C3320 0.929 . S
H3313 C3322 0.930 . S
H3314 C3324 0.930 . S
H3315 C3327 0.929 . S
H3316 C3330 0.930 . S
H3317 C3332 0.960 . S
H3318 C3332 0.960 . S
H3319 C3332 0.960 . S
C3320 H3312 0.929 . S
C3320 C3321 1.377 . S
C3320 C3322 1.384 . S
C3321 C3320 1.377 . S
C3321 C3327 1.390 . S
C3322 H3313 0.930 . S
C3322 C3320 1.384 . S
C3322 C3323 1.372 . S
C3323 C3322 1.372 . S
C3323 C3324 1.400 . S
C3323 C3328 1.490 . S
C3324 H3314 0.930 . S
C3324 C3323 1.400 . S
C3324 C3327 1.386 . S
H3325 C3341 0.930 . S
H3326 C3342 0.931 . S
C3327 H3315 0.929 . S
C3327 C3321 1.390 . S
C3327 C3324 1.386 . S
C3328 C3323 1.490 . S
C3328 C3330 1.395 . S
C3328 C3331 1.403 . S
H3329 C3335 0.930 . S
C3330 H3316 0.930 . S
C3330 C3328 1.395 . S
C3330 C3333 1.403 . S
C3331 C3328 1.403 . S
C3331 C3332 1.524 . S
C3331 C3335 1.400 . S
C3332 H3317 0.960 . S
C3332 H3318 0.960 . S
C3332 H3319 0.960 . S
C3332 C3331 1.524 . S
C3333 C3330 1.403 . S
C3333 C3334 1.392 . S
C3333 C3337 1.495 . S
C3334 C3333 1.392 . S
C3334 C3335 1.385 . S
C3334 C3336 1.478 . S
C3335 H3329 0.930 . S
C3335 C3331 1.400 . S
C3335 C3334 1.385 . S
C3336 C3334 1.478 . S
C3336 C3338 1.381 . S
C3336 C3342 1.383 . S
C3337 C3333 1.495 . S
C3337 H3343 0.959 . S
C3337 H3344 0.961 . S
C3337 H3345 0.960 . S
C3338 C3336 1.381 . S
C3338 C3339 1.394 . S
C3338 H3346 0.930 . S
C3339 C3338 1.394 . S
C3339 C3340 1.383 . S
C3339 H3347 0.929 . S
C3340 C3339 1.383 . S
C3340 C3341 1.377 . S
C3341 H3325 0.930 . S
C3341 C3340 1.377 . S
C3341 C3342 1.379 . S
C3342 H3326 0.931 . S
C3342 C3336 1.383 . S
C3342 C3341 1.379 . S
H3343 C3337 0.959 . S
H3344 C3337 0.961 . S
H3345 C3337 0.960 . S
H3346 C3338 0.930 . S
H3347 C3339 0.929 . S
H3348 C3356 0.929 . S
H3349 C3358 0.930 . S
H3350 C3360 0.930 . S
H3351 C3363 0.929 . S
H3352 C3366 0.930 . S
H3353 C3368 0.960 . S
H3354 C3368 0.960 . S
H3355 C3368 0.960 . S
C3356 H3348 0.929 . S
C3356 C3357 1.377 . S
C3356 C3358 1.384 . S
C3357 C3356 1.377 . S
C3357 C3363 1.390 . S
C3358 H3349 0.930 . S
C3358 C3356 1.384 . S
C3358 C3359 1.372 . S
C3359 C3358 1.372 . S
C3359 C3360 1.400 . S
C3359 C3364 1.490 . S
C3360 H3350 0.930 . S
C3360 C3359 1.400 . S
C3360 C3363 1.386 . S
H3361 C3377 0.930 . S
H3362 C3378 0.931 . S
C3363 H3351 0.929 . S
C3363 C3357 1.390 . S
C3363 C3360 1.386 . S
C3364 C3359 1.490 . S
C3364 C3366 1.395 . S
C3364 C3367 1.403 . S
H3365 C3371 0.930 . S
C3366 H3352 0.930 . S
C3366 C3364 1.395 . S
C3366 C3369 1.403 . S
C3367 C3364 1.403 . S
C3367 C3368 1.524 . S
C3367 C3371 1.400 . S
C3368 H3353 0.960 . S
C3368 H3354 0.960 . S
C3368 H3355 0.960 . S
C3368 C3367 1.524 . S
C3369 C3366 1.403 . S
C3369 C3370 1.392 . S
C3369 C3373 1.495 . S
C3370 C3369 1.392 . S
C3370 C3371 1.385 . S
C3370 C3372 1.478 . S
C3371 H3365 0.930 . S
C3371 C3367 1.400 . S
C3371 C3370 1.385 . S
C3372 C3370 1.478 . S
C3372 C3374 1.381 . S
C3372 C3378 1.383 . S
C3373 C3369 1.495 . S
C3373 H3379 0.959 . S
C3373 H3380 0.961 . S
C3373 H3381 0.960 . S
C3374 C3372 1.381 . S
C3374 C3375 1.394 . S
C3374 H3382 0.930 . S
C3375 C3374 1.394 . S
C3375 C3376 1.383 . S
C3375 H3383 0.929 . S
C3376 C3375 1.383 . S
C3376 C3377 1.377 . S
C3377 H3361 0.930 . S
C3377 C3376 1.377 . S
C3377 C3378 1.379 . S
C3378 H3362 0.931 . S
C3378 C3372 1.383 . S
C3378 C3377 1.379 . S
H3379 C3373 0.959 . S
H3380 C3373 0.961 . S
H3381 C3373 0.960 . S
H3382 C3374 0.930 . S
H3383 C3375 0.929 . S
H3384 C3392 0.929 . S
H3385 C3394 0.930 . S
H3386 C3396 0.930 . S
H3387 C3399 0.929 . S
H3388 C3402 0.930 . S
H3389 C3404 0.960 . S
H3390 C3404 0.960 . S
H3391 C3404 0.960 . S
C3392 H3384 0.929 . S
C3392 C3393 1.377 . S
C3392 C3394 1.384 . S
C3393 C3392 1.377 . S
C3393 C3399 1.390 . S
C3394 H3385 0.930 . S
C3394 C3392 1.384 . S
C3394 C3395 1.372 . S
C3395 C3394 1.372 . S
C3395 C3396 1.400 . S
C3395 C3400 1.490 . S
C3396 H3386 0.930 . S
C3396 C3395 1.400 . S
C3396 C3399 1.386 . S
H3397 C3413 0.930 . S
H3398 C3414 0.931 . S
C3399 H3387 0.929 . S
C3399 C3393 1.390 . S
C3399 C3396 1.386 . S
C3400 C3395 1.490 . S
C3400 C3402 1.395 . S
C3400 C3403 1.403 . S
H3401 C3407 0.930 . S
C3402 H3388 0.930 . S
C3402 C3400 1.395 . S
C3402 C3405 1.403 . S
C3403 C3400 1.403 . S
C3403 C3404 1.524 . S
C3403 C3407 1.400 . S
C3404 H3389 0.960 . S
C3404 H3390 0.960 . S
C3404 H3391 0.960 . S
C3404 C3403 1.524 . S
C3405 C3402 1.403 . S
C3405 C3406 1.392 . S
C3405 C3409 1.495 . S
C3406 C3405 1.392 . S
C3406 C3407 1.385 . S
C3406 C3408 1.478 . S
C3407 H3401 0.930 . S
C3407 C3403 1.400 . S
C3407 C3406 1.385 . S
C3408 C3406 1.478 . S
C3408 C3410 1.381 . S
C3408 C3414 1.383 . S
C3409 C3405 1.495 . S
C3409 H3415 0.959 . S
C3409 H3416 0.961 . S
C3409 H3417 0.960 . S
C3410 C3408 1.381 . S
C3410 C3411 1.394 . S
C3410 H3418 0.930 . S
C3411 C3410 1.394 . S
C3411 C3412 1.383 . S
C3411 H3419 0.929 . S
C3412 C3411 1.383 . S
C3412 C3413 1.377 . S
C3413 H3397 0.930 . S
C3413 C3412 1.377 . S
C3413 C3414 1.379 . S
C3414 H3398 0.931 . S
C3414 C3408 1.383 . S
C3414 C3413 1.379 . S
H3415 C3409 0.959 . S
H3416 C3409 0.961 . S
H3417 C3409 0.960 . S
H3418 C3410 0.930 . S
H3419 C3411 0.929 . S
H3420 C3428 0.929 . S
H3421 C3430 0.930 . S
H3422 C3432 0.930 . S
H3423 C3435 0.929 . S
H3424 C3438 0.930 . S
H3425 C3440 0.960 . S
H3426 C3440 0.960 . S
H3427 C3440 0.960 . S
C3428 H3420 0.929 . S
C3428 C3429 1.377 . S
C3428 C3430 1.384 . S
C3429 C3428 1.377 . S
C3429 C3435 1.390 . S
C3430 H3421 0.930 . S
C3430 C3428 1.384 . S
C3430 C3431 1.372 . S
C3431 C3430 1.372 . S
C3431 C3432 1.400 . S
C3431 C3436 1.490 . S
C3432 H3422 0.930 . S
C3432 C3431 1.400 . S
C3432 C3435 1.386 . S
H3433 C3449 0.930 . S
H3434 C3450 0.931 . S
C3435 H3423 0.929 . S
C3435 C3429 1.390 . S
C3435 C3432 1.386 . S
C3436 C3431 1.490 . S
C3436 C3438 1.395 . S
C3436 C3439 1.403 . S
H3437 C3443 0.930 . S
C3438 H3424 0.930 . S
C3438 C3436 1.395 . S
C3438 C3441 1.403 . S
C3439 C3436 1.403 . S
C3439 C3440 1.524 . S
C3439 C3443 1.400 . S
C3440 H3425 0.960 . S
C3440 H3426 0.960 . S
C3440 H3427 0.960 . S
C3440 C3439 1.524 . S
C3441 C3438 1.403 . S
C3441 C3442 1.392 . S
C3441 C3445 1.495 . S
C3442 C3441 1.392 . S
C3442 C3443 1.385 . S
C3442 C3444 1.478 . S
C3443 H3437 0.930 . S
C3443 C3439 1.400 . S
C3443 C3442 1.385 . S
C3444 C3442 1.478 . S
C3444 C3446 1.381 . S
C3444 C3450 1.383 . S
C3445 C3441 1.495 . S
C3445 H3451 0.959 . S
C3445 H3452 0.961 . S
C3445 H3453 0.960 . S
C3446 C3444 1.381 . S
C3446 C3447 1.394 . S
C3446 H3454 0.930 . S
C3447 C3446 1.394 . S
C3447 C3448 1.383 . S
C3447 H3455 0.929 . S
C3448 C3447 1.383 . S
C3448 C3449 1.377 . S
C3449 H3433 0.930 . S
C3449 C3448 1.377 . S
C3449 C3450 1.379 . S
C3450 H3434 0.931 . S
C3450 C3444 1.383 . S
C3450 C3449 1.379 . S
H3451 C3445 0.959 . S
H3452 C3445 0.961 . S
H3453 C3445 0.960 . S
H3454 C3446 0.930 . S
H3455 C3447 0.929 . S
H3456 C3464 0.929 . S
H3457 C3466 0.930 . S
H3458 C3468 0.930 . S
H3459 C3471 0.929 . S
H3460 C3474 0.930 . S
H3461 C3476 0.960 . S
H3462 C3476 0.960 . S
H3463 C3476 0.960 . S
C3464 H3456 0.929 . S
C3464 C3465 1.377 . S
C3464 C3466 1.384 . S
C3465 C3464 1.377 . S
C3465 C3471 1.390 . S
C3466 H3457 0.930 . S
C3466 C3464 1.384 . S
C3466 C3467 1.372 . S
C3467 C3466 1.372 . S
C3467 C3468 1.400 . S
C3467 C3472 1.490 . S
C3468 H3458 0.930 . S
C3468 C3467 1.400 . S
C3468 C3471 1.386 . S
H3469 C3485 0.930 . S
H3470 C3486 0.931 . S
C3471 H3459 0.929 . S
C3471 C3465 1.390 . S
C3471 C3468 1.386 . S
C3472 C3467 1.490 . S
C3472 C3474 1.395 . S
C3472 C3475 1.403 . S
H3473 C3479 0.930 . S
C3474 H3460 0.930 . S
C3474 C3472 1.395 . S
C3474 C3477 1.403 . S
C3475 C3472 1.403 . S
C3475 C3476 1.524 . S
C3475 C3479 1.400 . S
C3476 H3461 0.960 . S
C3476 H3462 0.960 . S
C3476 H3463 0.960 . S
C3476 C3475 1.524 . S
C3477 C3474 1.403 . S
C3477 C3478 1.392 . S
C3477 C3481 1.495 . S
C3478 C3477 1.392 . S
C3478 C3479 1.385 . S
C3478 C3480 1.478 . S
C3479 H3473 0.930 . S
C3479 C3475 1.400 . S
C3479 C3478 1.385 . S
C3480 C3478 1.478 . S
C3480 C3482 1.381 . S
C3480 C3486 1.383 . S
C3481 C3477 1.495 . S
C3481 H3487 0.959 . S
C3481 H3488 0.961 . S
C3481 H3489 0.960 . S
C3482 C3480 1.381 . S
C3482 C3483 1.394 . S
C3482 H3490 0.930 . S
C3483 C3482 1.394 . S
C3483 C3484 1.383 . S
C3483 H3491 0.929 . S
C3484 C3483 1.383 . S
C3484 C3485 1.377 . S
C3485 H3469 0.930 . S
C3485 C3484 1.377 . S
C3485 C3486 1.379 . S
C3486 H3470 0.931 . S
C3486 C3480 1.383 . S
C3486 C3485 1.379 . S
H3487 C3481 0.959 . S
H3488 C3481 0.961 . S
H3489 C3481 0.960 . S
H3490 C3482 0.930 . S
H3491 C3483 0.929 . S
H3492 C3500 0.929 . S
H3493 C3502 0.930 . S
H3494 C3504 0.930 . S
H3495 C3507 0.929 . S
H3496 C3510 0.930 . S
H3497 C3512 0.960 . S
H3498 C3512 0.960 . S
H3499 C3512 0.960 . S
C3500 H3492 0.929 . S
C3500 C3501 1.377 . S
C3500 C3502 1.384 . S
C3501 C3500 1.377 . S
C3501 C3507 1.390 . S
C3502 H3493 0.930 . S
C3502 C3500 1.384 . S
C3502 C3503 1.372 . S
C3503 C3502 1.372 . S
C3503 C3504 1.400 . S
C3503 C3508 1.490 . S
C3504 H3494 0.930 . S
C3504 C3503 1.400 . S
C3504 C3507 1.386 . S
H3505 C3521 0.930 . S
H3506 C3522 0.931 . S
C3507 H3495 0.929 . S
C3507 C3501 1.390 . S
C3507 C3504 1.386 . S
C3508 C3503 1.490 . S
C3508 C3510 1.395 . S
C3508 C3511 1.403 . S
H3509 C3515 0.930 . S
C3510 H3496 0.930 . S
C3510 C3508 1.395 . S
C3510 C3513 1.403 . S
C3511 C3508 1.403 . S
C3511 C3512 1.524 . S
C3511 C3515 1.400 . S
C3512 H3497 0.960 . S
C3512 H3498 0.960 . S
C3512 H3499 0.960 . S
C3512 C3511 1.524 . S
C3513 C3510 1.403 . S
C3513 C3514 1.392 . S
C3513 C3517 1.495 . S
C3514 C3513 1.392 . S
C3514 C3515 1.385 . S
C3514 C3516 1.478 . S
C3515 H3509 0.930 . S
C3515 C3511 1.400 . S
C3515 C3514 1.385 . S
C3516 C3514 1.478 . S
C3516 C3518 1.381 . S
C3516 C3522 1.383 . S
C3517 C3513 1.495 . S
C3517 H3523 0.959 . S
C3517 H3524 0.961 . S
C3517 H3525 0.960 . S
C3518 C3516 1.381 . S
C3518 C3519 1.394 . S
C3518 H3526 0.930 . S
C3519 C3518 1.394 . S
C3519 C3520 1.383 . S
C3519 H3527 0.929 . S
C3520 C3519 1.383 . S
C3520 C3521 1.377 . S
C3521 H3505 0.930 . S
C3521 C3520 1.377 . S
C3521 C3522 1.379 . S
C3522 H3506 0.931 . S
C3522 C3516 1.383 . S
C3522 C3521 1.379 . S
H3523 C3517 0.959 . S
H3524 C3517 0.961 . S
H3525 C3517 0.960 . S
H3526 C3518 0.930 . S
H3527 C3519 0.929 . S
H3528 C3536 0.929 . S
H3529 C3538 0.930 . S
H3530 C3540 0.930 . S
H3531 C3543 0.929 . S
H3532 C3546 0.930 . S
H3533 C3548 0.960 . S
H3534 C3548 0.960 . S
H3535 C3548 0.945 1_455 S
C3536 H3528 0.929 . S
C3536 C3537 1.377 . S
C3536 C3538 1.384 . S
C3537 C3536 1.377 . S
C3537 C3543 1.390 . S
C3538 H3529 0.930 . S
C3538 C3536 1.384 . S
C3538 C3539 1.372 . S
C3539 C3538 1.372 . S
C3539 C3540 1.400 . S
C3539 C3544 1.490 . S
C3540 H3530 0.930 . S
C3540 C3539 1.400 . S
C3540 C3543 1.386 . S
H3541 C3557 0.930 . S
H3542 C3558 0.931 . S
C3543 H3531 0.929 . S
C3543 C3537 1.390 . S
C3543 C3540 1.386 . S
C3544 C3539 1.490 . S
C3544 C3546 1.395 . S
C3544 C3547 1.403 . S
H3545 C3551 0.930 . S
C3546 H3532 0.930 . S
C3546 C3544 1.395 . S
C3546 C3549 1.403 . S
C3547 C3544 1.403 . S
C3547 C3548 1.524 . S
C3547 C3551 1.400 . S
C3548 H3533 0.960 . S
C3548 H3534 0.960 . S
C3548 H3535 0.945 1_655 S
C3548 C3547 1.524 . S
C3549 C3546 1.403 . S
C3549 C3550 1.392 . S
C3549 C3553 1.495 . S
C3550 C3549 1.392 . S
C3550 C3551 1.385 . S
C3550 C3552 1.478 . S
C3551 H3545 0.930 . S
C3551 C3547 1.400 . S
C3551 C3550 1.385 . S
C3552 C3550 1.478 . S
C3552 C3554 1.381 . S
C3552 C3558 1.383 . S
C3553 C3549 1.495 . S
C3553 H3559 0.959 . S
C3553 H3560 0.961 . S
C3553 H3561 0.960 . S
C3554 C3552 1.381 . S
C3554 C3555 1.394 . S
C3554 H3562 0.930 . S
C3555 C3554 1.394 . S
C3555 C3556 1.383 . S
C3555 H3563 0.929 . S
C3556 C3555 1.383 . S
C3556 C3557 1.377 . S
C3557 H3541 0.930 . S
C3557 C3556 1.377 . S
C3557 C3558 1.379 . S
C3558 H3542 0.931 . S
C3558 C3552 1.383 . S
C3558 C3557 1.379 . S
H3559 C3553 0.959 . S
H3560 C3553 0.961 . S
H3561 C3553 0.960 . S
H3562 C3554 0.930 . S
H3563 C3555 0.929 . S
H3564 C3572 0.929 . S
H3565 C3574 0.930 . S
H3566 C3576 0.930 . S
H3567 C3579 0.929 . S
H3568 C3582 0.930 . S
H3569 C3584 0.960 . S
H3570 C3584 0.960 . S
H3571 C3584 0.960 . S
C3572 H3564 0.929 . S
C3572 C3573 1.377 . S
C3572 C3574 1.384 . S
C3573 C3572 1.377 . S
C3573 C3579 1.390 . S
C3574 H3565 0.930 . S
C3574 C3572 1.384 . S
C3574 C3575 1.372 . S
C3575 C3574 1.372 . S
C3575 C3576 1.400 . S
C3575 C3580 1.490 . S
C3576 H3566 0.930 . S
C3576 C3575 1.400 . S
C3576 C3579 1.386 . S
H3577 C3593 0.930 . S
H3578 C3594 0.931 . S
C3579 H3567 0.929 . S
C3579 C3573 1.390 . S
C3579 C3576 1.386 . S
C3580 C3575 1.490 . S
C3580 C3582 1.395 . S
C3580 C3583 1.403 . S
H3581 C3587 0.930 . S
C3582 H3568 0.930 . S
C3582 C3580 1.395 . S
C3582 C3585 1.403 . S
C3583 C3580 1.403 . S
C3583 C3584 1.524 . S
C3583 C3587 1.400 . S
C3584 H3569 0.960 . S
C3584 H3570 0.960 . S
C3584 H3571 0.960 . S
C3584 C3583 1.524 . S
C3585 C3582 1.403 . S
C3585 C3586 1.392 . S
C3585 C3589 1.495 . S
C3586 C3585 1.392 . S
C3586 C3587 1.385 . S
C3586 C3588 1.478 . S
C3587 H3581 0.930 . S
C3587 C3583 1.400 . S
C3587 C3586 1.385 . S
C3588 C3586 1.478 . S
C3588 C3590 1.381 . S
C3588 C3594 1.383 . S
C3589 C3585 1.495 . S
C3589 H3595 0.959 . S
C3589 H3596 0.961 . S
C3589 H3597 0.960 . S
C3590 C3588 1.381 . S
C3590 C3591 1.394 . S
C3590 H3598 0.930 . S
C3591 C3590 1.394 . S
C3591 C3592 1.383 . S
C3591 H3599 0.929 . S
C3592 C3591 1.383 . S
C3592 C3593 1.377 . S
C3593 H3577 0.930 . S
C3593 C3592 1.377 . S
C3593 C3594 1.379 . S
C3594 H3578 0.931 . S
C3594 C3588 1.383 . S
C3594 C3593 1.379 . S
H3595 C3589 0.959 . S
H3596 C3589 0.961 . S
H3597 C3589 0.960 . S
H3598 C3590 0.930 . S
H3599 C3591 0.929 . S
H3600 C3608 0.929 . S
H3601 C3610 0.930 . S
H3602 C3612 0.930 . S
H3603 C3615 0.929 . S
H3604 C3618 0.930 . S
H3605 C3620 0.960 . S
H3606 C3620 0.960 . S
H3607 C3620 0.960 . S
C3608 H3600 0.929 . S
C3608 C3609 1.377 . S
C3608 C3610 1.384 . S
C3609 C3608 1.377 . S
C3609 C3615 1.390 . S
C3610 H3601 0.930 . S
C3610 C3608 1.384 . S
C3610 C3611 1.372 . S
C3611 C3610 1.372 . S
C3611 C3612 1.400 . S
C3611 C3616 1.490 . S
C3612 H3602 0.930 . S
C3612 C3611 1.400 . S
C3612 C3615 1.386 . S
H3613 C3629 0.930 . S
H3614 C3630 0.931 . S
C3615 H3603 0.929 . S
C3615 C3609 1.390 . S
C3615 C3612 1.386 . S
C3616 C3611 1.490 . S
C3616 C3618 1.395 . S
C3616 C3619 1.403 . S
H3617 C3623 0.930 . S
C3618 H3604 0.930 . S
C3618 C3616 1.395 . S
C3618 C3621 1.403 . S
C3619 C3616 1.403 . S
C3619 C3620 1.524 . S
C3619 C3623 1.400 . S
C3620 H3605 0.960 . S
C3620 H3606 0.960 . S
C3620 H3607 0.960 . S
C3620 C3619 1.524 . S
C3621 C3618 1.403 . S
C3621 C3622 1.392 . S
C3621 C3625 1.495 . S
C3622 C3621 1.392 . S
C3622 C3623 1.385 . S
C3622 C3624 1.478 . S
C3623 H3617 0.930 . S
C3623 C3619 1.400 . S
C3623 C3622 1.385 . S
C3624 C3622 1.478 . S
C3624 C3626 1.381 . S
C3624 C3630 1.383 . S
C3625 C3621 1.495 . S
C3625 H3631 0.959 . S
C3625 H3632 0.961 . S
C3625 H3633 0.960 . S
C3626 C3624 1.381 . S
C3626 C3627 1.394 . S
C3626 H3634 0.930 . S
C3627 C3626 1.394 . S
C3627 C3628 1.383 . S
C3627 H3635 0.929 . S
C3628 C3627 1.383 . S
C3628 C3629 1.377 . S
C3629 H3613 0.930 . S
C3629 C3628 1.377 . S
C3629 C3630 1.379 . S
C3630 H3614 0.931 . S
C3630 C3624 1.383 . S
C3630 C3629 1.379 . S
H3631 C3625 0.959 . S
H3632 C3625 0.961 . S
H3633 C3625 0.960 . S
H3634 C3626 0.930 . S
H3635 C3627 0.929 . S
H3636 C3644 0.929 . S
H3637 C3646 0.930 . S
H3638 C3648 0.930 . S
H3639 C3651 0.929 . S
H3640 C3654 0.930 . S
H3641 C3656 0.960 . S
H3642 C3656 0.960 . S
H3643 C3656 0.960 . S
C3644 H3636 0.929 . S
C3644 C3645 1.377 . S
C3644 C3646 1.384 . S
C3645 C3644 1.377 . S
C3645 C3651 1.390 . S
C3646 H3637 0.930 . S
C3646 C3644 1.384 . S
C3646 C3647 1.372 . S
C3647 C3646 1.372 . S
C3647 C3648 1.400 . S
C3647 C3652 1.490 . S
C3648 H3638 0.930 . S
C3648 C3647 1.400 . S
C3648 C3651 1.386 . S
H3649 C3665 0.930 . S
H3650 C3666 0.931 . S
C3651 H3639 0.929 . S
C3651 C3645 1.390 . S
C3651 C3648 1.386 . S
C3652 C3647 1.490 . S
C3652 C3654 1.395 . S
C3652 C3655 1.403 . S
H3653 C3659 0.930 . S
C3654 H3640 0.930 . S
C3654 C3652 1.395 . S
C3654 C3657 1.403 . S
C3655 C3652 1.403 . S
C3655 C3656 1.524 . S
C3655 C3659 1.400 . S
C3656 H3641 0.960 . S
C3656 H3642 0.960 . S
C3656 H3643 0.960 . S
C3656 C3655 1.524 . S
C3657 C3654 1.403 . S
C3657 C3658 1.392 . S
C3657 C3661 1.495 . S
C3658 C3657 1.392 . S
C3658 C3659 1.385 . S
C3658 C3660 1.478 . S
C3659 H3653 0.930 . S
C3659 C3655 1.400 . S
C3659 C3658 1.385 . S
C3660 C3658 1.478 . S
C3660 C3662 1.381 . S
C3660 C3666 1.383 . S
C3661 C3657 1.495 . S
C3661 H3667 0.959 . S
C3661 H3668 0.961 . S
C3661 H3669 0.960 . S
C3662 C3660 1.381 . S
C3662 C3663 1.394 . S
C3662 H3670 0.930 . S
C3663 C3662 1.394 . S
C3663 C3664 1.383 . S
C3663 H3671 0.929 . S
C3664 C3663 1.383 . S
C3664 C3665 1.377 . S
C3665 H3649 0.930 . S
C3665 C3664 1.377 . S
C3665 C3666 1.379 . S
C3666 H3650 0.931 . S
C3666 C3660 1.383 . S
C3666 C3665 1.379 . S
H3667 C3661 0.959 . S
H3668 C3661 0.961 . S
H3669 C3661 0.960 . S
H3670 C3662 0.930 . S
H3671 C3663 0.929 . S
H3672 C3680 0.929 . S
H3673 C3682 0.930 . S
H3674 C3684 0.930 . S
H3675 C3687 0.929 . S
H3676 C3690 0.930 . S
H3677 C3692 0.960 . S
H3678 C3692 0.960 . S
H3679 C3692 0.960 . S
C3680 H3672 0.929 . S
C3680 C3681 1.377 . S
C3680 C3682 1.384 . S
C3681 C3680 1.377 . S
C3681 C3687 1.390 . S
C3682 H3673 0.930 . S
C3682 C3680 1.384 . S
C3682 C3683 1.372 . S
C3683 C3682 1.372 . S
C3683 C3684 1.400 . S
C3683 C3688 1.490 . S
C3684 H3674 0.930 . S
C3684 C3683 1.400 . S
C3684 C3687 1.386 . S
H3685 C3701 0.930 . S
H3686 C3702 0.931 . S
C3687 H3675 0.929 . S
C3687 C3681 1.390 . S
C3687 C3684 1.386 . S
C3688 C3683 1.490 . S
C3688 C3690 1.395 . S
C3688 C3691 1.403 . S
H3689 C3695 0.930 . S
C3690 H3676 0.930 . S
C3690 C3688 1.395 . S
C3690 C3693 1.403 . S
C3691 C3688 1.403 . S
C3691 C3692 1.524 . S
C3691 C3695 1.400 . S
C3692 H3677 0.960 . S
C3692 H3678 0.960 . S
C3692 H3679 0.960 . S
C3692 C3691 1.524 . S
C3693 C3690 1.403 . S
C3693 C3694 1.392 . S
C3693 C3697 1.495 . S
C3694 C3693 1.392 . S
C3694 C3695 1.385 . S
C3694 C3696 1.478 . S
C3695 H3689 0.930 . S
C3695 C3691 1.400 . S
C3695 C3694 1.385 . S
C3696 C3694 1.478 . S
C3696 C3698 1.381 . S
C3696 C3702 1.383 . S
C3697 C3693 1.495 . S
C3697 H3703 0.959 . S
C3697 H3704 0.961 . S
C3697 H3705 0.960 . S
C3698 C3696 1.381 . S
C3698 C3699 1.394 . S
C3698 H3706 0.930 . S
C3699 C3698 1.394 . S
C3699 C3700 1.383 . S
C3699 H3707 0.929 . S
C3700 C3699 1.383 . S
C3700 C3701 1.377 . S
C3701 H3685 0.930 . S
C3701 C3700 1.377 . S
C3701 C3702 1.379 . S
C3702 H3686 0.931 . S
C3702 C3696 1.383 . S
C3702 C3701 1.379 . S
H3703 C3697 0.959 . S
H3704 C3697 0.961 . S
H3705 C3697 0.960 . S
H3706 C3698 0.930 . S
H3707 C3699 0.929 . S
H3708 C3716 0.929 . S
H3709 C3718 0.930 . S
H3710 C3720 0.930 . S
H3711 C3723 0.929 . S
H3712 C3726 0.930 . S
H3713 C3728 0.960 . S
H3714 C3728 0.960 . S
H3715 C3728 0.960 . S
C3716 H3708 0.929 . S
C3716 C3717 1.377 . S
C3716 C3718 1.384 . S
C3717 C3716 1.377 . S
C3717 C3723 1.390 . S
C3718 H3709 0.930 . S
C3718 C3716 1.384 . S
C3718 C3719 1.372 . S
C3719 C3718 1.372 . S
C3719 C3720 1.400 . S
C3719 C3724 1.490 . S
C3720 H3710 0.930 . S
C3720 C3719 1.400 . S
C3720 C3723 1.386 . S
H3721 C3737 0.930 . S
H3722 C3738 0.931 . S
C3723 H3711 0.929 . S
C3723 C3717 1.390 . S
C3723 C3720 1.386 . S
C3724 C3719 1.490 . S
C3724 C3726 1.395 . S
C3724 C3727 1.403 . S
H3725 C3731 0.930 . S
C3726 H3712 0.930 . S
C3726 C3724 1.395 . S
C3726 C3729 1.403 . S
C3727 C3724 1.403 . S
C3727 C3728 1.524 . S
C3727 C3731 1.400 . S
C3728 H3713 0.960 . S
C3728 H3714 0.960 . S
C3728 H3715 0.960 . S
C3728 C3727 1.524 . S
C3729 C3726 1.403 . S
C3729 C3730 1.392 . S
C3729 C3733 1.495 . S
C3730 C3729 1.392 . S
C3730 C3731 1.385 . S
C3730 C3732 1.478 . S
C3731 H3725 0.930 . S
C3731 C3727 1.400 . S
C3731 C3730 1.385 . S
C3732 C3730 1.478 . S
C3732 C3734 1.381 . S
C3732 C3738 1.383 . S
C3733 C3729 1.495 . S
C3733 H3739 0.959 . S
C3733 H3740 0.961 . S
C3733 H3741 0.960 . S
C3734 C3732 1.381 . S
C3734 C3735 1.394 . S
C3734 H3742 0.930 . S
C3735 C3734 1.394 . S
C3735 C3736 1.383 . S
C3735 H3743 0.929 . S
C3736 C3735 1.383 . S
C3736 C3737 1.377 . S
C3737 H3721 0.930 . S
C3737 C3736 1.377 . S
C3737 C3738 1.379 . S
C3738 H3722 0.931 . S
C3738 C3732 1.383 . S
C3738 C3737 1.379 . S
H3739 C3733 0.959 . S
H3740 C3733 0.961 . S
H3741 C3733 0.960 . S
H3742 C3734 0.930 . S
H3743 C3735 0.929 . S
H3744 C3752 0.929 . S
H3745 C3754 0.930 . S
H3746 C3756 0.930 . S
H3747 C3759 0.929 . S
H3748 C3762 0.930 . S
H3749 C3764 0.960 . S
H3750 C3764 0.960 . S
H3751 C3764 0.960 . S
C3752 H3744 0.929 . S
C3752 C3753 1.377 . S
C3752 C3754 1.384 . S
C3753 C3752 1.377 . S
C3753 C3759 1.390 . S
C3754 H3745 0.930 . S
C3754 C3752 1.384 . S
C3754 C3755 1.372 . S
C3755 C3754 1.372 . S
C3755 C3756 1.400 . S
C3755 C3760 1.490 . S
C3756 H3746 0.930 . S
C3756 C3755 1.400 . S
C3756 C3759 1.386 . S
H3757 C3773 0.930 . S
H3758 C3774 0.931 . S
C3759 H3747 0.929 . S
C3759 C3753 1.390 . S
C3759 C3756 1.386 . S
C3760 C3755 1.490 . S
C3760 C3762 1.395 . S
C3760 C3763 1.403 . S
H3761 C3767 0.930 . S
C3762 H3748 0.930 . S
C3762 C3760 1.395 . S
C3762 C3765 1.403 . S
C3763 C3760 1.403 . S
C3763 C3764 1.524 . S
C3763 C3767 1.400 . S
C3764 H3749 0.960 . S
C3764 H3750 0.960 . S
C3764 H3751 0.960 . S
C3764 C3763 1.524 . S
C3765 C3762 1.403 . S
C3765 C3766 1.392 . S
C3765 C3769 1.495 . S
C3766 C3765 1.392 . S
C3766 C3767 1.385 . S
C3766 C3768 1.478 . S
C3767 H3761 0.930 . S
C3767 C3763 1.400 . S
C3767 C3766 1.385 . S
C3768 C3766 1.478 . S
C3768 C3770 1.381 . S
C3768 C3774 1.383 . S
C3769 C3765 1.495 . S
C3769 H3775 0.959 . S
C3769 H3776 0.961 . S
C3769 H3777 0.960 . S
C3770 C3768 1.381 . S
C3770 C3771 1.394 . S
C3770 H3778 0.930 . S
C3771 C3770 1.394 . S
C3771 C3772 1.383 . S
C3771 H3779 0.929 . S
C3772 C3771 1.383 . S
C3772 C3773 1.377 . S
C3773 H3757 0.930 . S
C3773 C3772 1.377 . S
C3773 C3774 1.379 . S
C3774 H3758 0.931 . S
C3774 C3768 1.383 . S
C3774 C3773 1.379 . S
H3775 C3769 0.959 . S
H3776 C3769 0.961 . S
H3777 C3769 0.960 . S
H3778 C3770 0.930 . S
H3779 C3771 0.929 . S
H3780 C3788 0.929 . S
H3781 C3790 0.930 . S
H3782 C3792 0.930 . S
H3783 C3795 0.929 . S
H3784 C3798 0.930 . S
H3785 C3800 0.960 . S
H3786 C3800 0.960 . S
H3787 C3800 0.960 . S
C3788 H3780 0.929 . S
C3788 C3789 1.377 . S
C3788 C3790 1.384 . S
C3789 C3788 1.377 . S
C3789 C3795 1.390 . S
C3790 H3781 0.930 . S
C3790 C3788 1.384 . S
C3790 C3791 1.372 . S
C3791 C3790 1.372 . S
C3791 C3792 1.400 . S
C3791 C3796 1.490 . S
C3792 H3782 0.930 . S
C3792 C3791 1.400 . S
C3792 C3795 1.386 . S
H3793 C3809 0.930 . S
H3794 C3810 0.931 . S
C3795 H3783 0.929 . S
C3795 C3789 1.390 . S
C3795 C3792 1.386 . S
C3796 C3791 1.490 . S
C3796 C3798 1.395 . S
C3796 C3799 1.403 . S
H3797 C3803 0.930 . S
C3798 H3784 0.930 . S
C3798 C3796 1.395 . S
C3798 C3801 1.403 . S
C3799 C3796 1.403 . S
C3799 C3800 1.524 . S
C3799 C3803 1.400 . S
C3800 H3785 0.960 . S
C3800 H3786 0.960 . S
C3800 H3787 0.960 . S
C3800 C3799 1.524 . S
C3801 C3798 1.403 . S
C3801 C3802 1.392 . S
C3801 C3805 1.495 . S
C3802 C3801 1.392 . S
C3802 C3803 1.385 . S
C3802 C3804 1.478 . S
C3803 H3797 0.930 . S
C3803 C3799 1.400 . S
C3803 C3802 1.385 . S
C3804 C3802 1.478 . S
C3804 C3806 1.381 . S
C3804 C3810 1.383 . S
C3805 C3801 1.495 . S
C3805 H3811 0.959 . S
C3805 H3812 0.961 . S
C3805 H3813 0.960 . S
C3806 C3804 1.381 . S
C3806 C3807 1.394 . S
C3806 H3814 0.930 . S
C3807 C3806 1.394 . S
C3807 C3808 1.383 . S
C3807 H3815 0.929 . S
C3808 C3807 1.383 . S
C3808 C3809 1.377 . S
C3809 H3793 0.930 . S
C3809 C3808 1.377 . S
C3809 C3810 1.379 . S
C3810 H3794 0.931 . S
C3810 C3804 1.383 . S
C3810 C3809 1.379 . S
H3811 C3805 0.959 . S
H3812 C3805 0.961 . S
H3813 C3805 0.960 . S
H3814 C3806 0.930 . S
H3815 C3807 0.929 . S
H3816 C3824 0.929 . S
H3817 C3826 0.930 . S
H3818 C3828 0.930 . S
H3819 C3831 0.929 . S
H3820 C3834 0.930 . S
H3821 C3836 0.960 . S
H3822 C3836 0.960 . S
H3823 C3836 0.960 . S
C3824 H3816 0.929 . S
C3824 C3825 1.377 . S
C3824 C3826 1.384 . S
C3825 C3824 1.377 . S
C3825 C3831 1.390 . S
C3826 H3817 0.930 . S
C3826 C3824 1.384 . S
C3826 C3827 1.372 . S
C3827 C3826 1.372 . S
C3827 C3828 1.400 . S
C3827 C3832 1.490 . S
C3828 H3818 0.930 . S
C3828 C3827 1.400 . S
C3828 C3831 1.386 . S
H3829 C3845 0.930 . S
H3830 C3846 0.931 . S
C3831 H3819 0.929 . S
C3831 C3825 1.390 . S
C3831 C3828 1.386 . S
C3832 C3827 1.490 . S
C3832 C3834 1.395 . S
C3832 C3835 1.403 . S
H3833 C3839 0.930 . S
C3834 H3820 0.930 . S
C3834 C3832 1.395 . S
C3834 C3837 1.403 . S
C3835 C3832 1.403 . S
C3835 C3836 1.524 . S
C3835 C3839 1.400 . S
C3836 H3821 0.960 . S
C3836 H3822 0.960 . S
C3836 H3823 0.960 . S
C3836 C3835 1.524 . S
C3837 C3834 1.403 . S
C3837 C3838 1.392 . S
C3837 C3841 1.495 . S
C3838 C3837 1.392 . S
C3838 C3839 1.385 . S
C3838 C3840 1.478 . S
C3839 H3833 0.930 . S
C3839 C3835 1.400 . S
C3839 C3838 1.385 . S
C3840 C3838 1.478 . S
C3840 C3842 1.381 . S
C3840 C3846 1.383 . S
C3841 C3837 1.495 . S
C3841 H3847 0.959 . S
C3841 H3848 0.961 . S
C3841 H3849 0.960 . S
C3842 C3840 1.381 . S
C3842 C3843 1.394 . S
C3842 H3850 0.930 . S
C3843 C3842 1.394 . S
C3843 C3844 1.383 . S
C3843 H3851 0.929 . S
C3844 C3843 1.383 . S
C3844 C3845 1.377 . S
C3845 H3829 0.930 . S
C3845 C3844 1.377 . S
C3845 C3846 1.379 . S
C3846 H3830 0.931 . S
C3846 C3840 1.383 . S
C3846 C3845 1.379 . S
H3847 C3841 0.959 . S
H3848 C3841 0.961 . S
H3849 C3841 0.960 . S
H3850 C3842 0.930 . S
H3851 C3843 0.929 . S
H3852 C3860 0.929 . S
H3853 C3862 0.930 . S
H3854 C3864 0.930 . S
H3855 C3867 0.929 . S
H3856 C3870 0.930 . S
H3857 C3872 0.960 . S
H3858 C3872 0.960 . S
H3859 C3872 0.960 . S
C3860 H3852 0.929 . S
C3860 C3861 1.377 . S
C3860 C3862 1.384 . S
C3861 C3860 1.377 . S
C3861 C3867 1.390 . S
C3862 H3853 0.930 . S
C3862 C3860 1.384 . S
C3862 C3863 1.372 . S
C3863 C3862 1.372 . S
C3863 C3864 1.400 . S
C3863 C3868 1.490 . S
C3864 H3854 0.930 . S
C3864 C3863 1.400 . S
C3864 C3867 1.386 . S
H3865 C3881 0.930 . S
H3866 C3882 0.931 . S
C3867 H3855 0.929 . S
C3867 C3861 1.390 . S
C3867 C3864 1.386 . S
C3868 C3863 1.490 . S
C3868 C3870 1.395 . S
C3868 C3871 1.403 . S
H3869 C3875 0.930 . S
C3870 H3856 0.930 . S
C3870 C3868 1.395 . S
C3870 C3873 1.403 . S
C3871 C3868 1.403 . S
C3871 C3872 1.524 . S
C3871 C3875 1.400 . S
C3872 H3857 0.960 . S
C3872 H3858 0.960 . S
C3872 H3859 0.960 . S
C3872 C3871 1.524 . S
C3873 C3870 1.403 . S
C3873 C3874 1.392 . S
C3873 C3877 1.495 . S
C3874 C3873 1.392 . S
C3874 C3875 1.385 . S
C3874 C3876 1.478 . S
C3875 H3869 0.930 . S
C3875 C3871 1.400 . S
C3875 C3874 1.385 . S
C3876 C3874 1.478 . S
C3876 C3878 1.381 . S
C3876 C3882 1.383 . S
C3877 C3873 1.495 . S
C3877 H3883 0.959 . S
C3877 H3884 0.961 . S
C3877 H3885 0.960 . S
C3878 C3876 1.381 . S
C3878 C3879 1.394 . S
C3878 H3886 0.930 . S
C3879 C3878 1.394 . S
C3879 C3880 1.383 . S
C3879 H3887 0.929 . S
C3880 C3879 1.383 . S
C3880 C3881 1.377 . S
C3881 H3865 0.930 . S
C3881 C3880 1.377 . S
C3881 C3882 1.379 . S
C3882 H3866 0.931 . S
C3882 C3876 1.383 . S
C3882 C3881 1.379 . S
H3883 C3877 0.959 . S
H3884 C3877 0.961 . S
H3885 C3877 0.960 . S
H3886 C3878 0.930 . S
H3887 C3879 0.929 . S
C1305 C14 1.378 . S
C1324 C410 1.347 . S
C1341 C338 1.384 . S
C1360 C50 1.370 . S
C1377 C374 1.376 . S
C1396 C86 1.408 . S
C1413 C122 1.379 . S
C1432 C266 1.344 . S
C1449 C158 1.377 . S
C1468 C302 1.407 . S
C1485 C194 1.372 . S
C1504 C230 1.378 . S
C1521 C446 1.379 . S
C1540 C842 1.402 . S
C1557 C770 1.374 . S
C1576 C482 1.359 . S
C1593 C518 1.385 . S
C1612 C806 1.358 . S
C1629 C554 1.385 . S
C1648 C698 1.354 . S
C1665 C590 1.372 . S
C1684 C734 1.401 . S
C1701 C626 1.374 . S
C1720 C662 1.361 . S
C1737 C878 1.377 . S
C1756 C1274 1.350 . S
C1773 C914 1.378 . S
C1792 C1202 1.345 . S
C1809 C1238 1.384 . S
C1828 C950 1.345 . S
C1845 C986 1.374 . S
C1864 C1130 1.361 . S
C1881 C1166 1.375 . S
C1900 C1022 1.408 . S
C1917 C1094 1.374 . S
C1936 C1058 1.361 . S
C1953 C3 1.098 . S
C1972 C543 1.077 . S
C1989 C39 1.095 . S
C2008 C579 1.107 . S
C2025 C75 1.094 . S
C2044 C615 1.083 . S
C2061 C111 1.096 . S
C2080 C867 1.076 . S
C2097 C903 1.096 . S
C2116 C147 1.105 . S
C2133 C939 1.092 . S
C2152 C183 1.095 . S
C2169 C219 1.098 . S
C2188 C1191 1.107 . S
C2205 C1227 1.097 . S
C2224 C255 1.102 . S
C2241 C291 1.095 . S
C2260 C1263 1.096 . S
C2277 C327 1.098 . S
C2296 C651 1.109 . S
C2313 C363 1.092 . S
C2332 C687 1.078 . S
C2349 C399 1.092 . S
C2368 C723 1.077 . S
C2385 C975 1.097 . S
C2404 C435 1.076 . S
C2421 C471 1.097 . S
C2440 C1011 1.076 . S
C2457 C507 1.098 . S
C2476 C1047 1.079 . S
C2493 C1083 1.092 . S
C2512 C759 1.079 . S
C2529 C1119 1.092 . S
C2548 C795 1.079 . S
C2565 C831 1.092 . S
C2584 C1155 1.077 . S
C2601 C4 1.179 . S
C2620 C148 1.195 . S
C2637 C184 1.187 . S
C2656 C40 1.186 . S
C2673 C112 1.184 . S
C2692 C76 1.167 . S
C2709 C220 1.189 . S
C2728 C364 1.161 . S
C2745 C400 1.178 . S
C2764 C256 1.191 . S
C2781 C292 1.186 . S
C2800 C328 1.210 . S
C2817 C580 1.181 . S
C2836 C436 1.210 . S
C2853 C472 1.182 . S
C2872 C616 1.173 . S
C2889 C508 1.190 . S
C2908 C544 1.166 . S
C2925 C796 1.188 . S
C2944 C652 1.157 . S
C2961 C832 1.183 . S
C2980 C688 1.154 . S
C2997 C760 1.187 . S
C3016 C724 1.154 . S
C3033 C868 1.184 . S
C3052 C1012 1.168 . S
C3069 C904 1.190 . S
C3088 C1048 1.158 . S
C3105 C940 1.186 . S
C3124 C976 1.195 . S
C3141 C1228 1.184 . S
C3160 C1084 1.153 . S
C3177 C1264 1.181 . S
C3196 C1120 1.208 . S
C3213 C1192 1.180 . S
C3232 C1156 1.204 . S
C3249 C326 1.591 . S
C3268 C2 1.579 . S
C3285 C362 1.587 . S
C3304 C38 1.584 . S
C3321 C74 1.591 . S
C3340 C398 1.574 . S
C3357 C110 1.590 . S
C3376 C218 1.574 . S
C3393 C254 1.591 . S
C3412 C146 1.577 . S
C3429 C182 1.591 . S
C3448 C290 1.575 . S
C3465 C758 1.587 . S
C3484 C434 1.584 . S
C3501 C794 1.591 . S
C3520 C470 1.584 . S
C3537 C506 1.589 . S
C3556 C830 1.596 . S
C3573 C650 1.591 . S
C3592 C542 1.587 . S
C3609 C686 1.591 . S
C3628 C578 1.576 . S
C3645 C722 1.591 . S
C3664 C614 1.588 . S
C3681 C866 1.590 . S
C3700 C1190 1.591 . S
C3717 C1226 1.588 . S
C3736 C902 1.576 . S
C3753 C938 1.587 . S
C3772 C1262 1.586 . S
C3789 C974 1.590 . S
C3808 C1082 1.574 . S
C3825 C1010 1.587 . S
C3844 C1118 1.584 . S
C3861 C1154 1.590 . S
C3880 C1046 1.574 . S
