# Generated by pormake.
# Topology yfy, (5)-cn, num edge types: 1
# Building blocks:
#     Node 0, Type 0, BuildingBlock: BEQFEK_clean_sbu_0, # of connection points: 5
#     Node 1, Type 0, BuildingBlock: BEQFEK_clean_sbu_0, # of connection points: 5
#     Node 2, Type 0, BuildingBlock: BEQFEK_clean_sbu_0, # of connection points: 5
#     Node 3, Type 0, BuildingBlock: BEQFEK_clean_sbu_0, # of connection points: 5
#     Node 4, Type 0, BuildingBlock: BEQFEK_clean_sbu_0, # of connection points: 5
#     Node 5, Type 0, BuildingBlock: BEQFEK_clean_sbu_0, # of connection points: 5
#     Node 6, Type 0, BuildingBlock: BEQFEK_clean_sbu_0, # of connection points: 5
#     Node 7, Type 0, BuildingBlock: BEQFEK_clean_sbu_0, # of connection points: 5
#     Node 8, Type 0, BuildingBlock: BEQFEK_clean_sbu_0, # of connection points: 5
#     Node 9, Type 0, BuildingBlock: BEQFEK_clean_sbu_0, # of connection points: 5
#     Node 10, Type 0, BuildingBlock: BEQFEK_clean_sbu_0, # of connection points: 5
#     Node 11, Type 0, BuildingBlock: BEQFEK_clean_sbu_0, # of connection points: 5
#     Node 12, Type 0, BuildingBlock: BEQFEK_clean_sbu_0, # of connection points: 5
#     Node 13, Type 0, BuildingBlock: BEQFEK_clean_sbu_0, # of connection points: 5
#     Node 14, Type 0, BuildingBlock: BEQFEK_clean_sbu_0, # of connection points: 5
#     Node 15, Type 0, BuildingBlock: BEQFEK_clean_sbu_0, # of connection points: 5
#     Edge 16, Type (0, 0), None
#     Edge 17, Type (0, 0), None
#     Edge 18, Type (0, 0), None
#     Edge 19, Type (0, 0), None
#     Edge 20, Type (0, 0), None
#     Edge 21, Type (0, 0), None
#     Edge 22, Type (0, 0), None
#     Edge 23, Type (0, 0), None
#     Edge 24, Type (0, 0), None
#     Edge 25, Type (0, 0), None
#     Edge 26, Type (0, 0), None
#     Edge 27, Type (0, 0), None
#     Edge 28, Type (0, 0), None
#     Edge 29, Type (0, 0), None
#     Edge 30, Type (0, 0), None
#     Edge 31, Type (0, 0), None
#     Edge 32, Type (0, 0), None
#     Edge 33, Type (0, 0), None
#     Edge 34, Type (0, 0), None
#     Edge 35, Type (0, 0), None
#     Edge 36, Type (0, 0), None
#     Edge 37, Type (0, 0), None
#     Edge 38, Type (0, 0), None
#     Edge 39, Type (0, 0), None
#     Edge 40, Type (0, 0), None
#     Edge 41, Type (0, 0), None
#     Edge 42, Type (0, 0), None
#     Edge 43, Type (0, 0), None
#     Edge 44, Type (0, 0), None
#     Edge 45, Type (0, 0), None
#     Edge 46, Type (0, 0), None
#     Edge 47, Type (0, 0), None
#     Edge 48, Type (0, 0), None
#     Edge 49, Type (0, 0), None
#     Edge 50, Type (0, 0), None
#     Edge 51, Type (0, 0), None
#     Edge 52, Type (0, 0), None
#     Edge 53, Type (0, 0), None
#     Edge 54, Type (0, 0), None
#     Edge 55, Type (0, 0), None
# Relax obj value: 0.099
# Max RMSD: 0.067
# Mean RMSD: 0.067
data_MOF--net-yfy--node1-BEQFEK_clean_sbu_0--edge1-none
_symmetry_space_group_name_H-M    P1
_symmetry_Int_Tables_number       1
_symmetry_cell_setting            triclinic
loop_
_symmetry_equiv_pos_as_xyz
'x, y, z'
_cell_length_a     24.785064
_cell_length_b     24.784866
_cell_length_c     20.590049
_cell_angle_alpha  90.000938
_cell_angle_beta   89.999834
_cell_angle_gamma 89.999788
loop_
_atom_site_label
_atom_site_type_symbol
_atom_site_fract_x
_atom_site_fract_y
_atom_site_fract_z
_atom_type_partial_charge
Co0 Co 0.2201 0.31859 0.37427 0.0
Co1 Co 0.14838 0.41696 0.35585 0.0
C2 C 0.10804 0.31023 0.3205 0.0
O3 O 0.15507 0.29045 0.32751 0.0
O4 O 0.09881 0.35997 0.32919 0.0
C5 C 0.27334 0.22516 0.319 0.0
O6 O 0.23542 0.22767 0.27466 0.0
C7 C 0.08509 0.49745 0.29449 0.0
C8 C 0.11721 0.57239 0.33906 0.0
C9 C 0.08361 0.55262 0.2912 0.0
N10 N 0.11953 0.48437 0.34155 0.0
N11 N 0.13813 0.52892 0.36896 0.0
C12 C 0.0586 0.45775 0.24983 0.0
H13 H 0.08867 0.4278 0.23276 0.0
H14 H 0.03994 0.47788 0.20726 0.0
H15 H 0.02688 0.43566 0.27702 0.0
C16 C 0.30305 0.39942 0.31556 0.0
N17 N 0.25319 0.38215 0.3347 0.0
N18 N 0.21768 0.41763 0.31552 0.0
C19 C 0.24228 0.4556 0.27902 0.0
C20 C 0.2981 0.44784 0.27997 0.0
C21 C 0.35423 0.37125 0.33331 0.0
H22 H 0.34804 0.34565 0.37691 0.0
H23 H 0.36671 0.34483 0.29249 0.0
H24 H 0.3868 0.401 0.34249 0.0
O25 O 0.18577 0.32973 0.4649 0.0
O26 O 0.14653 0.40937 0.4503 0.0
H27 H 0.19651 0.52742 0.26045 0.0
H28 H 0.23847 0.50673 0.19371 0.0
C29 C 0.21226 0.49227 0.23379 0.0
H30 H 0.17736 0.47049 0.21266 0.0
H31 H 0.16723 0.52959 0.40558 0.0
O32 O 0.27339 0.25828 0.36668 0.0
C33 C 0.15535 0.36817 0.48522 0.0
Co34 Co 0.96862 0.22011 0.37428 0.0
Co35 Co 0.87025 0.14839 0.35585 0.0
C36 C 0.97697 0.10805 0.32051 0.0
O37 O 0.99676 0.15508 0.32752 0.0
O38 O 0.92724 0.09881 0.32919 0.0
C39 C 0.06204 0.27335 0.31902 0.0
O40 O 0.05957 0.23541 0.2747 0.0
C41 C 0.78975 0.0851 0.29448 0.0
C42 C 0.71482 0.11723 0.33905 0.0
C43 C 0.73459 0.08363 0.29119 0.0
N44 N 0.80284 0.11954 0.34155 0.0
N45 N 0.75829 0.13815 0.36895 0.0
C46 C 0.82946 0.05861 0.24983 0.0
H47 H 0.85941 0.08867 0.23276 0.0
H48 H 0.80932 0.03994 0.20726 0.0
H49 H 0.85154 0.02688 0.27702 0.0
C50 C 0.88779 0.30305 0.31556 0.0
N51 N 0.90506 0.2532 0.33471 0.0
N52 N 0.86958 0.21768 0.31552 0.0
C53 C 0.83161 0.24229 0.27902 0.0
C54 C 0.83938 0.29811 0.27997 0.0
C55 C 0.91596 0.35424 0.33333 0.0
H56 H 0.94155 0.34805 0.37693 0.0
H57 H 0.94238 0.36672 0.29251 0.0
H58 H 0.8862 0.38681 0.3425 0.0
O59 O 0.95747 0.18577 0.46491 0.0
O60 O 0.87783 0.14654 0.4503 0.0
H61 H 0.7598 0.19651 0.26043 0.0
H62 H 0.78049 0.23848 0.19369 0.0
C63 C 0.79495 0.21226 0.23378 0.0
H64 H 0.81673 0.17737 0.21264 0.0
H65 H 0.75762 0.16725 0.40557 0.0
O66 O 0.02892 0.27339 0.36669 0.0
C67 C 0.91903 0.15536 0.48523 0.0
Co68 Co 0.0671 0.96862 0.37428 0.0
Co69 Co 0.13882 0.87025 0.35584 0.0
C70 C 0.17916 0.97698 0.3205 0.0
O71 O 0.13213 0.99676 0.32752 0.0
O72 O 0.1884 0.92724 0.32918 0.0
C73 C 1.01386 0.06205 0.31903 0.0
O74 O 0.05179 0.05957 0.2747 0.0
C75 C 0.2021 0.78975 0.29448 0.0
C76 C 0.16998 0.71482 0.33905 0.0
C77 C 0.20358 0.73459 0.29119 0.0
N78 N 0.16767 0.80284 0.34154 0.0
N79 N 0.14906 0.75829 0.36895 0.0
C80 C 0.2286 0.82946 0.24982 0.0
H81 H 0.19854 0.85941 0.23276 0.0
H82 H 0.24726 0.80932 0.20725 0.0
H83 H 0.26032 0.85154 0.27701 0.0
C84 C 0.98416 0.88779 0.31557 0.0
N85 N 0.03401 0.90506 0.33471 0.0
N86 N 0.06952 0.86958 0.31551 0.0
C87 C 0.04492 0.83161 0.27901 0.0
C88 C 0.9891 0.83937 0.27998 0.0
C89 C 0.93297 0.91596 0.33333 0.0
H90 H 0.93916 0.94155 0.37694 0.0
H91 H 0.92049 0.94238 0.29252 0.0
H92 H 0.9004 0.8862 0.34251 0.0
O93 O 0.10144 0.95748 0.46491 0.0
O94 O 0.14067 0.87783 0.45029 0.0
H95 H 0.09069 0.7598 0.26043 0.0
H96 H 0.04873 0.78049 0.19369 0.0
C97 C 0.07494 0.79495 0.23378 0.0
H98 H 0.10983 0.81673 0.21264 0.0
H99 H 0.11996 0.75763 0.40557 0.0
O100 O 1.01381 0.02892 0.3667 0.0
C101 C 0.13186 0.91903 0.48522 0.0
Co102 Co 0.31859 0.0671 0.37428 0.0
Co103 Co 0.41694 0.13885 0.35581 0.0
C104 C 0.31023 0.17916 0.32044 0.0
O105 O 0.29044 0.13215 0.32755 0.0
O106 O 0.35996 0.18841 0.3291 0.0
C107 C 0.22516 1.01386 0.31903 0.0
O108 O 0.22762 0.05181 0.27472 0.0
C109 C 0.49746 0.20213 0.29447 0.0
C110 C 0.57238 0.17 0.33906 0.0
C111 C 0.55262 0.2036 0.2912 0.0
N112 N 0.48436 0.16769 0.34153 0.0
N113 N 0.5289 0.14909 0.36895 0.0
C114 C 0.45776 0.22863 0.2498 0.0
H115 H 0.42782 0.19856 0.23271 0.0
H116 H 0.4779 0.2473 0.20725 0.0
H117 H 0.43566 0.26034 0.277 0.0
C118 C 0.39942 0.98417 0.31556 0.0
N119 N 0.38215 0.03402 0.3347 0.0
N120 N 0.41763 0.06954 0.31551 0.0
C121 C 0.45559 0.04494 0.27901 0.0
C122 C 0.44783 0.98911 0.27997 0.0
C123 C 0.37125 0.93298 0.33333 0.0
H124 H 0.34566 0.93917 0.37694 0.0
H125 H 0.34483 0.9205 0.29252 0.0
H126 H 0.40101 0.90041 0.3425 0.0
O127 O 0.32973 0.10142 0.46492 0.0
O128 O 0.40933 0.14074 0.45027 0.0
H129 H 0.52741 0.09071 0.26043 0.0
H130 H 0.50672 0.04874 0.19369 0.0
C131 C 0.49226 0.07496 0.23378 0.0
H132 H 0.47048 0.10985 0.21264 0.0
H133 H 0.52956 0.11998 0.40557 0.0
O134 O 0.25829 1.01381 0.36669 0.0
C135 C 0.36815 0.13187 0.48522 0.0
Co136 Co 0.22008 0.96863 0.66245 0.0
Co137 Co 0.14835 0.87027 0.68093 0.0
C138 C 0.10802 0.97699 0.71626 0.0
O139 O 0.15504 0.99678 0.70919 0.0
O140 O 0.09878 0.92726 0.70762 0.0
C141 C 0.27333 0.06202 0.71774 0.0
O142 O 0.23544 0.05948 0.76212 0.0
C143 C 0.08508 0.78976 0.74231 0.0
C144 C 0.11722 0.71483 0.69774 0.0
C145 C 0.08362 0.7346 0.7456 0.0
N146 N 0.11952 0.80286 0.69524 0.0
N147 N 0.13813 0.75831 0.66784 0.0
C148 C 0.05858 0.82946 0.78696 0.0
H149 H 0.08863 0.85942 0.80403 0.0
H150 H 0.03991 0.80933 0.82952 0.0
H151 H 0.02686 0.85155 0.75975 0.0
C152 C 0.30302 0.88781 0.72116 0.0
N153 N 0.25317 0.90508 0.70203 0.0
N154 N 0.21766 0.8696 0.72124 0.0
C155 C 0.24226 0.83165 0.75775 0.0
C156 C 0.29809 0.8394 0.75677 0.0
C157 C 0.35421 0.91597 0.70338 0.0
H158 H 0.34801 0.94156 0.65977 0.0
H159 H 0.3667 0.94239 0.74418 0.0
H160 H 0.38678 0.88621 0.6942 0.0
O161 O 0.18574 0.95748 0.57182 0.0
O162 O 0.14647 0.87786 0.58648 0.0
H163 H 0.19649 0.75984 0.77637 0.0
H164 H 0.23846 0.78055 0.84309 0.0
C165 C 0.21224 0.795 0.80301 0.0
H166 H 0.17736 0.81679 0.82414 0.0
H167 H 0.16723 0.75764 0.63122 0.0
O168 O 0.27335 0.02894 0.67003 0.0
C169 C 0.15531 0.91904 0.55153 0.0
Co170 Co 0.31857 0.22008 0.66244 0.0
Co171 Co 0.41693 0.14833 0.68096 0.0
C172 C 0.31021 0.10802 0.71631 0.0
O173 O 0.29042 0.15503 0.70915 0.0
O174 O 0.35995 0.09877 0.70769 0.0
C175 C 0.22518 0.27333 0.71775 0.0
O176 O 0.22771 0.23543 0.76211 0.0
C177 C 0.49745 0.08507 0.74231 0.0
C178 C 0.57237 0.11721 0.69773 0.0
C179 C 0.55261 0.08361 0.74559 0.0
N180 N 0.48434 0.1195 0.69525 0.0
N181 N 0.52889 0.13812 0.66784 0.0
C182 C 0.45776 0.05856 0.78697 0.0
H183 H 0.42781 0.08862 0.80407 0.0
H184 H 0.4779 0.03988 0.82952 0.0
H185 H 0.43566 0.02685 0.75977 0.0
C186 C 0.3994 0.30302 0.72117 0.0
N187 N 0.38213 0.25316 0.70203 0.0
N188 N 0.4176 0.21765 0.72124 0.0
C189 C 0.45556 0.24225 0.75775 0.0
C190 C 0.4478 0.29808 0.75677 0.0
C191 C 0.37124 0.3542 0.70338 0.0
H192 H 0.34565 0.34801 0.65977 0.0
H193 H 0.34481 0.3667 0.74418 0.0
H194 H 0.401 0.38677 0.6942 0.0
O195 O 0.32973 0.18577 0.5718 0.0
O196 O 0.40931 0.14642 0.5865 0.0
H197 H 0.52737 0.19648 0.77637 0.0
H198 H 0.50666 0.23846 0.84309 0.0
C199 C 0.49221 0.21224 0.80301 0.0
H200 H 0.47042 0.17735 0.82414 0.0
H201 H 0.52954 0.16722 0.63122 0.0
O202 O 0.25827 0.27336 0.67004 0.0
C203 C 0.36815 0.1553 0.55153 0.0
Co204 Co 0.06713 0.31858 0.66244 0.0
Co205 Co 0.13888 0.41693 0.68097 0.0
C206 C 0.17918 0.31022 0.71632 0.0
O207 O 0.13217 0.29042 0.70915 0.0
O208 O 0.18843 0.35996 0.70771 0.0
C209 C 1.01387 0.22519 0.71774 0.0
O210 O 0.05177 0.22772 0.7621 0.0
C211 C 0.20214 0.49745 0.74232 0.0
C212 C 0.16999 0.57237 0.69773 0.0
C213 C 0.2036 0.55262 0.7456 0.0
N214 N 0.16771 0.48435 0.69526 0.0
N215 N 0.14909 0.52889 0.66784 0.0
C216 C 0.22865 0.45777 0.78698 0.0
H217 H 0.19859 0.42782 0.80408 0.0
H218 H 0.24732 0.47791 0.82953 0.0
H219 H 0.26036 0.43567 0.75978 0.0
C220 C 0.98419 0.39941 0.72116 0.0
N221 N 0.03404 0.38213 0.70203 0.0
N222 N 0.06956 0.41761 0.72125 0.0
C223 C 0.04495 0.45557 0.75775 0.0
C224 C 0.98913 0.44782 0.75677 0.0
C225 C 0.93301 0.37125 0.70337 0.0
H226 H 0.9392 0.34567 0.65976 0.0
H227 H 0.92051 0.34482 0.74417 0.0
H228 H 0.90044 0.40102 0.69419 0.0
O229 O 0.10144 0.32974 0.5718 0.0
O230 O 0.14079 0.40931 0.58651 0.0
H231 H 0.09073 0.52738 0.77638 0.0
H232 H 0.04875 0.50667 0.84309 0.0
C233 C 0.07497 0.49222 0.80301 0.0
H234 H 0.10985 0.47043 0.82414 0.0
H235 H 0.11998 0.52954 0.63122 0.0
O236 O 1.01384 0.25827 0.67003 0.0
C237 C 0.13191 0.36815 0.55154 0.0
Co238 Co 0.96862 0.06713 0.66244 0.0
Co239 Co 0.87027 0.13888 0.68096 0.0
C240 C 0.97699 0.17919 0.71631 0.0
O241 O 0.99678 0.13218 0.70916 0.0
O242 O 0.92725 0.18844 0.70769 0.0
C243 C 0.06202 1.01388 0.71772 0.0
O244 O 0.05952 0.0518 0.76206 0.0
C245 C 0.78975 0.20214 0.74232 0.0
C246 C 0.71483 0.16999 0.69774 0.0
C247 C 0.73459 0.2036 0.7456 0.0
N248 N 0.80286 0.16771 0.69525 0.0
N249 N 0.75831 0.14908 0.66784 0.0
C250 C 0.82944 0.22865 0.78698 0.0
H251 H 0.85939 0.19859 0.80407 0.0
H252 H 0.8093 0.24733 0.82953 0.0
H253 H 0.85153 0.26036 0.75978 0.0
C254 C 0.8878 0.98419 0.72116 0.0
N255 N 0.90507 0.03405 0.70202 0.0
N256 N 0.8696 0.06956 0.72125 0.0
C257 C 0.83164 0.04496 0.75775 0.0
C258 C 0.8394 0.98913 0.75677 0.0
C259 C 0.91596 0.93301 0.70336 0.0
H260 H 0.94154 0.93921 0.65975 0.0
H261 H 0.94239 0.92051 0.74416 0.0
H262 H 0.88619 0.90044 0.69418 0.0
O263 O 0.95746 0.10145 0.5718 0.0
O264 O 0.87788 0.14079 0.58651 0.0
H265 H 0.75984 0.09073 0.77639 0.0
H266 H 0.78055 0.04875 0.8431 0.0
C267 C 0.795 0.07497 0.80302 0.0
H268 H 0.81679 0.10986 0.82415 0.0
H269 H 0.75766 0.11998 0.63122 0.0
O270 O 0.02892 1.01385 0.67002 0.0
C271 C 0.91905 0.13192 0.55154 0.0
Co272 Co 0.72011 0.81857 0.87426 0.0
Co273 Co 0.6484 0.91696 0.85586 0.0
C274 C 0.60806 0.81023 0.82049 0.0
O275 O 0.65509 0.79045 0.82748 0.0
O276 O 0.59883 0.85997 0.8292 0.0
C277 C 0.77335 0.72515 0.81898 0.0
O278 O 0.73543 0.72766 0.77464 0.0
C279 C 0.58513 0.99744 0.79445 0.0
C280 C 0.61718 0.07239 0.83909 0.0
C281 C 0.58363 0.05261 0.79118 0.0
N282 N 0.61954 0.98436 0.84156 0.0
N283 N 0.63809 0.02892 0.869 0.0
C284 C 0.55869 0.95773 0.74976 0.0
H285 H 0.58877 0.92778 0.73274 0.0
H286 H 0.54007 0.97787 0.70716 0.0
H287 H 0.52693 0.93565 0.77691 0.0
C288 C 0.80307 0.89943 0.81564 0.0
N289 N 0.75321 0.88214 0.83472 0.0
N290 N 0.7177 0.91765 0.81555 0.0
C291 C 0.74233 0.95565 0.77913 0.0
C292 C 0.79815 0.94791 0.78017 0.0
C293 C 0.85425 0.87124 0.83339 0.0
H294 H 0.84805 0.84564 0.87698 0.0
H295 H 0.86672 0.84482 0.79257 0.0
H296 H 0.88683 0.90098 0.84258 0.0
O297 O 0.68576 0.82971 0.96489 0.0
O298 O 0.64655 0.90937 0.95031 0.0
H299 H 0.69659 0.02749 0.76058 0.0
H300 H 0.73856 1.00681 0.69384 0.0
C301 C 0.71233 0.99234 0.73391 0.0
H302 H 0.67744 0.97059 0.71274 0.0
H303 H 0.66716 0.02959 0.90566 0.0
O304 O 0.77339 0.75826 0.86667 0.0
C305 C 0.65535 0.86816 0.98522 0.0
Co306 Co 0.46863 0.72011 0.87426 0.0
Co307 Co 0.37025 0.6484 0.85586 0.0
C308 C 0.47697 0.60806 0.8205 0.0
O309 O 0.49676 0.65509 0.82748 0.0
O310 O 0.42724 0.59883 0.8292 0.0
C311 C 0.56206 0.77335 0.81901 0.0
O312 O 0.55958 0.73542 0.77468 0.0
C313 C 0.28976 0.58514 0.79445 0.0
C314 C 0.21482 0.61719 0.83909 0.0
C315 C 0.2346 0.58364 0.79118 0.0
N316 N 0.30284 0.61954 0.84155 0.0
N317 N 0.25829 0.63811 0.86899 0.0
C318 C 0.32947 0.55869 0.74976 0.0
H319 H 0.35942 0.58877 0.73274 0.0
H320 H 0.30934 0.54007 0.70717 0.0
H321 H 0.35155 0.52694 0.77691 0.0
C322 C 0.38778 0.80308 0.81564 0.0
N323 N 0.40507 0.75321 0.83473 0.0
N324 N 0.36956 0.71771 0.81555 0.0
C325 C 0.33156 0.74233 0.77913 0.0
C326 C 0.33931 0.79816 0.78017 0.0
C327 C 0.41597 0.85425 0.8334 0.0
H328 H 0.44157 0.84805 0.877 0.0
H329 H 0.44239 0.86673 0.79259 0.0
H330 H 0.38623 0.88684 0.84259 0.0
O331 O 0.45749 0.68576 0.9649 0.0
O332 O 0.37783 0.64656 0.95031 0.0
H333 H 0.25973 0.69659 0.76056 0.0
H334 H 0.28041 0.73857 0.69383 0.0
C335 C 0.29487 0.71234 0.7339 0.0
H336 H 0.31663 0.67745 0.71273 0.0
H337 H 0.25762 0.66718 0.90565 0.0
O338 O 0.52893 0.7734 0.86668 0.0
C339 C 0.41904 0.65536 0.98522 0.0
Co340 Co 0.5671 0.46863 0.87427 0.0
Co341 Co 0.63881 0.37025 0.85586 0.0
C342 C 0.67915 0.47697 0.82049 0.0
O343 O 0.63212 0.49676 0.82748 0.0
O344 O 0.68838 0.42724 0.8292 0.0
C345 C 0.51385 0.56206 0.81902 0.0
O346 O 0.55178 0.55958 0.77468 0.0
C347 C 0.70207 0.28976 0.79445 0.0
C348 C 0.67002 0.21482 0.83909 0.0
C349 C 0.70357 0.2346 0.79118 0.0
N350 N 0.66766 0.30284 0.84155 0.0
N351 N 0.6491 0.25829 0.86899 0.0
C352 C 0.72851 0.32947 0.74976 0.0
H353 H 0.69844 0.35942 0.73274 0.0
H354 H 0.74713 0.30933 0.70716 0.0
H355 H 0.76027 0.35155 0.77691 0.0
C356 C 0.48413 0.38778 0.81565 0.0
N357 N 0.53399 0.40506 0.83473 0.0
N358 N 0.5695 0.36956 0.81555 0.0
C359 C 0.54488 0.33156 0.77913 0.0
C360 C 0.48905 0.3393 0.78017 0.0
C361 C 0.43296 0.41596 0.83341 0.0
H362 H 0.43916 0.44156 0.87701 0.0
H363 H 0.42048 0.44238 0.79259 0.0
H364 H 0.40037 0.38622 0.8426 0.0
O365 O 0.60146 0.45749 0.9649 0.0
O366 O 0.64065 0.37783 0.95031 0.0
H367 H 0.59062 0.25972 0.76056 0.0
H368 H 0.54864 0.2804 0.69383 0.0
C369 C 0.57487 0.29487 0.7339 0.0
H370 H 0.60976 0.31663 0.71273 0.0
H371 H 0.62003 0.25762 0.90565 0.0
O372 O 0.51381 0.52893 0.86669 0.0
C373 C 0.63186 0.41904 0.98522 0.0
Co374 Co 0.81858 0.5671 0.87427 0.0
Co375 Co 0.91695 0.63883 0.85583 0.0
C376 C 0.81023 0.67915 0.82044 0.0
O377 O 0.79044 0.63213 0.82751 0.0
O378 O 0.85997 0.68839 0.82912 0.0
C379 C 0.72515 0.51386 0.81901 0.0
O380 O 0.72761 0.5518 0.7747 0.0
C381 C 0.99745 0.70209 0.79444 0.0
C382 C 0.07238 0.67004 0.8391 0.0
C383 C 0.05261 0.70359 0.79118 0.0
N384 N 0.98436 0.66769 0.84154 0.0
N385 N 0.02891 0.64912 0.86899 0.0
C386 C 0.95775 0.72854 0.74974 0.0
H387 H 0.92781 0.69846 0.7327 0.0
H388 H 0.97789 0.74717 0.70716 0.0
H389 H 0.93565 0.76029 0.77689 0.0
C390 C 0.89943 0.48414 0.81564 0.0
N391 N 0.88214 0.53401 0.83473 0.0
N392 N 0.91764 0.56951 0.81555 0.0
C393 C 0.95565 0.54489 0.77913 0.0
C394 C 0.94791 0.48906 0.78017 0.0
C395 C 0.87125 0.43297 0.8334 0.0
H396 H 0.84565 0.43917 0.877 0.0
H397 H 0.84482 0.42049 0.79259 0.0
H398 H 0.90099 0.40038 0.84259 0.0
O399 O 0.82972 0.60143 0.96491 0.0
O400 O 0.90934 0.64072 0.95028 0.0
H401 H 0.02749 0.59063 0.76057 0.0
H402 H 1.00681 0.54865 0.69384 0.0
C403 C 0.99234 0.57488 0.7339 0.0
H404 H 0.97058 0.60977 0.71273 0.0
H405 H 0.02957 0.62005 0.90565 0.0
O406 O 0.75828 0.51381 0.86668 0.0
C407 C 0.86815 0.63187 0.98522 0.0
Co408 Co 0.72008 0.46864 0.16246 0.0
Co409 Co 0.64837 0.37027 0.18092 0.0
C410 C 0.60803 0.47699 0.21627 0.0
O411 O 0.65506 0.49678 0.20923 0.0
O412 O 0.5988 0.42726 0.2076 0.0
C413 C 0.77334 0.56203 0.21776 0.0
O414 O 0.73545 0.55949 0.26214 0.0
C415 C 0.58512 0.28977 0.24233 0.0
C416 C 0.61719 0.21484 0.19771 0.0
C417 C 0.58363 0.23461 0.24561 0.0
N418 N 0.61952 0.30286 0.19523 0.0
N419 N 0.6381 0.25831 0.1678 0.0
C420 C 0.55866 0.32948 0.28702 0.0
H421 H 0.58874 0.35943 0.30405 0.0
H422 H 0.54004 0.30934 0.32961 0.0
H423 H 0.52691 0.35156 0.25987 0.0
C424 C 0.80305 0.3878 0.22108 0.0
N425 N 0.75318 0.40508 0.20201 0.0
N426 N 0.71768 0.36959 0.22121 0.0
C427 C 0.74231 0.3316 0.25764 0.0
C428 C 0.79813 0.33933 0.25658 0.0
C429 C 0.85422 0.41598 0.20331 0.0
H430 H 0.84801 0.44157 0.1597 0.0
H431 H 0.86671 0.4424 0.24411 0.0
H432 H 0.8868 0.38623 0.19411 0.0
O433 O 0.68573 0.4575 0.07183 0.0
O434 O 0.64649 0.37785 0.08647 0.0
H435 H 0.69657 0.25977 0.27624 0.0
H436 H 0.73855 0.28047 0.34295 0.0
C437 C 0.71232 0.29492 0.30289 0.0
H438 H 0.67743 0.31669 0.32405 0.0
H439 H 0.66717 0.25764 0.13114 0.0
O440 O 0.77335 0.52895 0.17004 0.0
C441 C 0.65531 0.41905 0.05153 0.0
Co442 Co 0.81856 0.72008 0.16245 0.0
Co443 Co 0.91693 0.64835 0.18094 0.0
C444 C 0.81022 0.60804 0.21632 0.0
O445 O 0.79042 0.65505 0.20919 0.0
O446 O 0.85995 0.59879 0.20768 0.0
C447 C 0.72517 0.77334 0.21776 0.0
O448 O 0.72771 0.73544 0.26212 0.0
C449 C 0.99744 0.58511 0.24234 0.0
C450 C 0.07236 0.61718 0.1977 0.0
C451 C 0.0526 0.58362 0.24561 0.0
N452 N 0.98434 0.61951 0.19524 0.0
N453 N 0.02889 0.63808 0.1678 0.0
C454 C 0.95774 0.55865 0.28704 0.0
H455 H 0.9278 0.58872 0.30409 0.0
H456 H 0.97788 0.54001 0.32962 0.0
H457 H 0.93565 0.5269 0.25989 0.0
C458 C 0.89941 0.80305 0.22108 0.0
N459 N 0.88212 0.75318 0.20201 0.0
N460 N 0.91761 0.71767 0.22121 0.0
C461 C 0.95561 0.7423 0.25764 0.0
C462 C 0.94787 0.79813 0.25658 0.0
C463 C 0.87123 0.85422 0.2033 0.0
H464 H 0.84564 0.84801 0.1597 0.0
H465 H 0.8448 0.8667 0.24411 0.0
H466 H 0.90098 0.8868 0.19411 0.0
O467 O 0.82971 0.68576 0.07181 0.0
O468 O 0.90931 0.64644 0.08649 0.0
H469 H 0.02744 0.69656 0.27624 0.0
H470 H 1.00675 0.73855 0.34295 0.0
C471 C 0.99229 0.71231 0.30289 0.0
H472 H 0.97052 0.67743 0.32405 0.0
H473 H 0.02955 0.66715 0.13114 0.0
O474 O 0.75826 0.77337 0.17005 0.0
C475 C 0.86814 0.6553 0.05153 0.0
Co476 Co 0.56712 0.81857 0.16245 0.0
Co477 Co 0.63886 0.91694 0.18095 0.0
C478 C 0.67917 0.81022 0.21632 0.0
O479 O 0.63216 0.79043 0.20919 0.0
O480 O 0.68842 0.85996 0.20768 0.0
C481 C 0.51386 0.72518 0.21775 0.0
O482 O 0.55176 0.72772 0.26212 0.0
C483 C 0.7021 0.99745 0.24234 0.0
C484 C 0.67003 0.07237 0.1977 0.0
C485 C 0.70358 0.05261 0.24561 0.0
N486 N 0.6677 0.98435 0.19525 0.0
N487 N 0.64912 0.0289 0.1678 0.0
C488 C 0.72856 0.95775 0.28704 0.0
H489 H 0.69848 0.92781 0.30409 0.0
H490 H 0.74719 0.9779 0.32962 0.0
H491 H 0.7603 0.93566 0.25989 0.0
C492 C 0.48416 0.89942 0.22108 0.0
N493 N 0.53403 0.88213 0.202 0.0
N494 N 0.56953 0.91762 0.22121 0.0
C495 C 0.54491 0.95562 0.25763 0.0
C496 C 0.48908 0.94789 0.25657 0.0
C497 C 0.43299 0.87124 0.2033 0.0
H498 H 0.4392 0.84565 0.15969 0.0
H499 H 0.4205 0.84482 0.2441 0.0
H500 H 0.40041 0.90099 0.19411 0.0
O501 O 0.60146 0.82972 0.07181 0.0
O502 O 0.64077 0.90932 0.0865 0.0
H503 H 0.59065 0.02745 0.27624 0.0
H504 H 0.54866 1.00676 0.34295 0.0
C505 C 0.57489 0.9923 0.30289 0.0
H506 H 0.60978 0.97054 0.32405 0.0
H507 H 0.62005 0.02955 0.13114 0.0
O508 O 0.51384 0.75826 0.17004 0.0
C509 C 0.63191 0.86814 0.05154 0.0
Co510 Co 0.46863 0.56713 0.16245 0.0
Co511 Co 0.37027 0.63886 0.18095 0.0
C512 C 0.47698 0.67918 0.21632 0.0
O513 O 0.49678 0.63216 0.20919 0.0
O514 O 0.42725 0.68842 0.20768 0.0
C515 C 0.56203 0.51387 0.21773 0.0
O516 O 0.55953 0.55179 0.26208 0.0
C517 C 0.28976 0.7021 0.24234 0.0
C518 C 0.21483 0.67002 0.1977 0.0
C519 C 0.23459 0.70358 0.24561 0.0
N520 N 0.30286 0.6677 0.19524 0.0
N521 N 0.25831 0.64912 0.1678 0.0
C522 C 0.32945 0.72857 0.28704 0.0
H523 H 0.3594 0.69849 0.30409 0.0
H524 H 0.30931 0.7472 0.32962 0.0
H525 H 0.35154 0.76031 0.25989 0.0
C526 C 0.38779 0.48417 0.22108 0.0
N527 N 0.40507 0.53403 0.202 0.0
N528 N 0.36958 0.56954 0.22121 0.0
C529 C 0.33159 0.54491 0.25764 0.0
C530 C 0.33932 0.48909 0.25657 0.0
C531 C 0.41596 0.43299 0.20329 0.0
H532 H 0.44155 0.4392 0.15968 0.0
H533 H 0.44239 0.4205 0.24409 0.0
H534 H 0.38621 0.40042 0.1941 0.0
O535 O 0.45748 0.60146 0.07181 0.0
O536 O 0.37788 0.64077 0.08649 0.0
H537 H 0.25976 0.59065 0.27625 0.0
H538 H 0.28046 0.54866 0.34296 0.0
C539 C 0.29492 0.5749 0.3029 0.0
H540 H 0.31668 0.60978 0.32406 0.0
H541 H 0.25765 0.62005 0.13114 0.0
O542 O 0.52893 0.51384 0.17003 0.0
C543 C 0.41906 0.63192 0.05153 0.0
loop_
_geom_bond_atom_site_label_1
_geom_bond_atom_site_label_2
_geom_bond_distance
_geom_bond_site_symmetry_2
_ccdc_geom_bond_type
Co0 O3 1.970 . S
Co0 N17 1.989 . S
Co0 O25 1.967 . S
Co0 O32 1.920 . S
Co1 O4 1.966 . S
Co1 N10 2.022 . S
Co1 N18 1.993 . S
Co1 O26 1.941 . S
C2 O3 1.258 . S
C2 O4 1.263 . S
O3 Co0 1.970 . S
O3 C2 1.258 . S
O4 Co1 1.966 . S
O4 C2 1.263 . S
C5 O6 1.235 . S
C5 O32 1.289 . S
O6 C5 1.235 . S
C7 C9 1.400 . S
C7 N10 1.351 . S
C7 C12 1.501 . S
C8 C9 1.387 . S
C8 N11 1.341 . S
C9 C7 1.400 . S
C9 C8 1.387 . S
N10 Co1 2.022 . S
N10 C7 1.351 . S
N10 N11 1.365 . S
N11 C8 1.341 . S
N11 N10 1.365 . S
N11 H31 0.862 . S
C12 C7 1.501 . S
C12 H13 0.961 . S
C12 H14 0.961 . S
C12 H15 0.960 1_455 S
H13 C12 0.961 . S
H14 C12 0.961 . S
H15 C12 0.960 1_655 S
C16 N17 1.342 . S
C16 C20 1.401 . S
C16 C21 1.499 . S
N17 Co0 1.989 . S
N17 C16 1.342 . S
N17 N18 1.388 . S
N18 Co1 1.993 . S
N18 N17 1.388 . S
N18 C19 1.346 . S
C19 N18 1.346 . S
C19 C20 1.396 . S
C19 C29 1.510 . S
C20 C16 1.401 . S
C20 C19 1.396 . S
C21 C16 1.499 . S
C21 H22 0.959 . S
C21 H23 0.960 . S
C21 H24 0.961 . S
H22 C21 0.959 . S
H23 C21 0.960 . S
H24 C21 0.961 . S
O25 Co0 1.967 . S
O25 C33 1.258 . S
O26 Co1 1.941 . S
O26 C33 1.266 . S
H27 C29 0.959 . S
H28 C29 0.961 . S
C29 C19 1.510 . S
C29 H27 0.959 . S
C29 H28 0.961 . S
C29 H30 0.960 . S
H30 C29 0.960 . S
H31 N11 0.862 . S
O32 Co0 1.920 . S
O32 C5 1.289 . S
C33 O25 1.258 . S
C33 O26 1.266 . S
Co34 O37 1.970 . S
Co34 N51 1.989 . S
Co34 O59 1.967 . S
Co34 O66 1.919 1_655 S
Co35 O38 1.966 . S
Co35 N44 2.022 . S
Co35 N52 1.993 . S
Co35 O60 1.941 . S
C36 O37 1.258 . S
C36 O38 1.263 . S
O37 Co34 1.970 . S
O37 C36 1.258 . S
O38 Co35 1.966 . S
O38 C36 1.263 . S
C39 O40 1.235 . S
C39 O66 1.289 . S
O40 C39 1.235 . S
C41 C43 1.400 . S
C41 N44 1.351 . S
C41 C46 1.501 . S
C42 C43 1.387 . S
C42 N45 1.341 . S
C43 C41 1.400 . S
C43 C42 1.387 . S
N44 Co35 2.022 . S
N44 C41 1.351 . S
N44 N45 1.365 . S
N45 C42 1.341 . S
N45 N44 1.365 . S
N45 H65 0.862 . S
C46 C41 1.501 . S
C46 H47 0.961 . S
C46 H48 0.961 . S
C46 H49 0.960 1_545 S
H47 C46 0.961 . S
H48 C46 0.961 . S
H49 C46 0.960 1_565 S
C50 N51 1.342 . S
C50 C54 1.401 . S
C50 C55 1.499 . S
N51 Co34 1.989 . S
N51 C50 1.342 . S
N51 N52 1.388 . S
N52 Co35 1.993 . S
N52 N51 1.388 . S
N52 C53 1.346 . S
C53 N52 1.346 . S
C53 C54 1.396 . S
C53 C63 1.510 . S
C54 C50 1.401 . S
C54 C53 1.396 . S
C55 C50 1.499 . S
C55 H56 0.959 . S
C55 H57 0.960 . S
C55 H58 0.961 . S
H56 C55 0.959 . S
H57 C55 0.960 . S
H58 C55 0.961 . S
O59 Co34 1.967 . S
O59 C67 1.258 . S
O60 Co35 1.941 . S
O60 C67 1.266 . S
H61 C63 0.959 . S
H62 C63 0.961 . S
C63 C53 1.510 . S
C63 H61 0.959 . S
C63 H62 0.961 . S
C63 H64 0.960 . S
H64 C63 0.960 . S
H65 N45 0.862 . S
O66 Co34 1.919 1_455 S
O66 C39 1.289 . S
C67 O59 1.258 . S
C67 O60 1.266 . S
Co68 O71 1.970 . S
Co68 N85 1.989 . S
Co68 O93 1.967 . S
Co68 O100 1.919 1_465 S
Co69 O72 1.966 . S
Co69 N78 2.022 . S
Co69 N86 1.993 . S
Co69 O94 1.941 . S
C70 O71 1.258 . S
C70 O72 1.263 . S
O71 Co68 1.970 . S
O71 C70 1.258 . S
O72 Co69 1.966 . S
O72 C70 1.263 . S
C73 O74 1.235 . S
C73 O100 1.290 . S
O74 C73 1.235 . S
C75 C77 1.400 . S
C75 N78 1.351 . S
C75 C80 1.501 . S
C76 C77 1.387 . S
C76 N79 1.341 . S
C77 C75 1.400 . S
C77 C76 1.387 . S
N78 Co69 2.022 . S
N78 C75 1.351 . S
N78 N79 1.365 . S
N79 C76 1.341 . S
N79 N78 1.365 . S
N79 H99 0.862 . S
C80 C75 1.501 . S
C80 H81 0.961 . S
C80 H82 0.961 . S
C80 H83 0.960 . S
H81 C80 0.961 . S
H82 C80 0.961 . S
H83 C80 0.960 . S
C84 N85 1.342 1_655 S
C84 C88 1.401 . S
C84 C89 1.499 . S
N85 Co68 1.989 . S
N85 C84 1.342 1_455 S
N85 N86 1.388 . S
N86 Co69 1.993 . S
N86 N85 1.388 . S
N86 C87 1.346 . S
C87 N86 1.346 . S
C87 C88 1.396 1_455 S
C87 C97 1.510 . S
C88 C84 1.401 . S
C88 C87 1.396 1_655 S
C89 C84 1.499 . S
C89 H90 0.959 . S
C89 H91 0.960 . S
C89 H92 0.961 . S
H90 C89 0.959 . S
H91 C89 0.960 . S
H92 C89 0.961 . S
O93 Co68 1.967 . S
O93 C101 1.258 . S
O94 Co69 1.941 . S
O94 C101 1.266 . S
H95 C97 0.959 . S
H96 C97 0.961 . S
C97 C87 1.510 . S
C97 H95 0.959 . S
C97 H96 0.961 . S
C97 H98 0.960 . S
H98 C97 0.960 . S
H99 N79 0.862 . S
O100 Co68 1.919 1_645 S
O100 C73 1.290 . S
C101 O93 1.258 . S
C101 O94 1.266 . S
Co102 O105 1.970 . S
Co102 N119 1.989 . S
Co102 O127 1.967 . S
Co102 O134 1.920 1_545 S
Co103 O106 1.966 . S
Co103 N112 2.022 . S
Co103 N120 1.993 . S
Co103 O128 1.941 . S
C104 O105 1.258 . S
C104 O106 1.263 . S
O105 Co102 1.970 . S
O105 C104 1.258 . S
O106 Co103 1.966 . S
O106 C104 1.263 . S
C107 O108 1.235 . S
C107 O134 1.289 . S
O108 C107 1.235 . S
C109 C111 1.400 . S
C109 N112 1.351 . S
C109 C114 1.501 . S
C110 C111 1.387 . S
C110 N113 1.341 . S
C111 C109 1.400 . S
C111 C110 1.387 . S
N112 Co103 2.022 . S
N112 C109 1.351 . S
N112 N113 1.365 . S
N113 C110 1.341 . S
N113 N112 1.365 . S
N113 H133 0.862 . S
C114 C109 1.501 . S
C114 H115 0.961 . S
C114 H116 0.961 . S
C114 H117 0.960 . S
H115 C114 0.961 . S
H116 C114 0.961 . S
H117 C114 0.960 . S
C118 N119 1.342 1_565 S
C118 C122 1.401 . S
C118 C123 1.499 . S
N119 Co102 1.989 . S
N119 C118 1.342 1_545 S
N119 N120 1.388 . S
N120 Co103 1.993 . S
N120 N119 1.388 . S
N120 C121 1.346 . S
C121 N120 1.346 . S
C121 C122 1.396 1_545 S
C121 C131 1.510 . S
C122 C118 1.401 . S
C122 C121 1.396 1_565 S
C123 C118 1.499 . S
C123 H124 0.959 . S
C123 H125 0.960 . S
C123 H126 0.961 . S
H124 C123 0.959 . S
H125 C123 0.960 . S
H126 C123 0.961 . S
O127 Co102 1.967 . S
O127 C135 1.258 . S
O128 Co103 1.941 . S
O128 C135 1.266 . S
H129 C131 0.959 . S
H130 C131 0.961 . S
C131 C121 1.510 . S
C131 H129 0.959 . S
C131 H130 0.961 . S
C131 H132 0.960 . S
H132 C131 0.960 . S
H133 N113 0.862 . S
O134 Co102 1.920 1_565 S
O134 C107 1.289 . S
C135 O127 1.258 . S
C135 O128 1.266 . S
Co136 O139 1.970 . S
Co136 N153 1.989 . S
Co136 O161 1.967 . S
Co136 O168 1.919 1_565 S
Co137 O140 1.966 . S
Co137 N146 2.022 . S
Co137 N154 1.993 . S
Co137 O162 1.941 . S
C138 O139 1.258 . S
C138 O140 1.263 . S
O139 Co136 1.970 . S
O139 C138 1.258 . S
O140 Co137 1.966 . S
O140 C138 1.263 . S
C141 O142 1.235 . S
C141 O168 1.290 . S
O142 C141 1.235 . S
C143 C145 1.400 . S
C143 N146 1.351 . S
C143 C148 1.501 . S
C144 C145 1.387 . S
C144 N147 1.341 . S
C145 C143 1.400 . S
C145 C144 1.387 . S
N146 Co137 2.022 . S
N146 C143 1.351 . S
N146 N147 1.365 . S
N147 C144 1.341 . S
N147 N146 1.365 . S
N147 H167 0.862 . S
C148 C143 1.501 . S
C148 H149 0.961 . S
C148 H150 0.961 . S
C148 H151 0.960 1_455 S
H149 C148 0.961 . S
H150 C148 0.961 . S
H151 C148 0.960 1_655 S
C152 N153 1.342 . S
C152 C156 1.401 . S
C152 C157 1.499 . S
N153 Co136 1.989 . S
N153 C152 1.342 . S
N153 N154 1.388 . S
N154 Co137 1.993 . S
N154 N153 1.388 . S
N154 C155 1.346 . S
C155 N154 1.346 . S
C155 C156 1.396 . S
C155 C165 1.510 . S
C156 C152 1.401 . S
C156 C155 1.396 . S
C157 C152 1.499 . S
C157 H158 0.959 . S
C157 H159 0.960 . S
C157 H160 0.961 . S
H158 C157 0.959 . S
H159 C157 0.960 . S
H160 C157 0.961 . S
O161 Co136 1.967 . S
O161 C169 1.258 . S
O162 Co137 1.941 . S
O162 C169 1.266 . S
H163 C165 0.959 . S
H164 C165 0.961 . S
C165 C155 1.510 . S
C165 H163 0.959 . S
C165 H164 0.961 . S
C165 H166 0.960 . S
H166 C165 0.960 . S
H167 N147 0.862 . S
O168 Co136 1.919 1_545 S
O168 C141 1.290 . S
C169 O161 1.258 . S
C169 O162 1.266 . S
Co170 O173 1.970 . S
Co170 N187 1.989 . S
Co170 O195 1.967 . S
Co170 O202 1.920 . S
Co171 O174 1.966 . S
Co171 N180 2.022 . S
Co171 N188 1.993 . S
Co171 O196 1.941 . S
C172 O173 1.258 . S
C172 O174 1.263 . S
O173 Co170 1.970 . S
O173 C172 1.258 . S
O174 Co171 1.966 . S
O174 C172 1.263 . S
C175 O176 1.235 . S
C175 O202 1.289 . S
O176 C175 1.235 . S
C177 C179 1.400 . S
C177 N180 1.351 . S
C177 C182 1.501 . S
C178 C179 1.387 . S
C178 N181 1.341 . S
C179 C177 1.400 . S
C179 C178 1.387 . S
N180 Co171 2.022 . S
N180 C177 1.351 . S
N180 N181 1.365 . S
N181 C178 1.341 . S
N181 N180 1.365 . S
N181 H201 0.862 . S
C182 C177 1.501 . S
C182 H183 0.961 . S
C182 H184 0.961 . S
C182 H185 0.960 1_545 S
H183 C182 0.961 . S
H184 C182 0.961 . S
H185 C182 0.960 1_565 S
C186 N187 1.342 . S
C186 C190 1.401 . S
C186 C191 1.499 . S
N187 Co170 1.989 . S
N187 C186 1.342 . S
N187 N188 1.388 . S
N188 Co171 1.993 . S
N188 N187 1.388 . S
N188 C189 1.346 . S
C189 N188 1.346 . S
C189 C190 1.396 . S
C189 C199 1.510 . S
C190 C186 1.401 . S
C190 C189 1.396 . S
C191 C186 1.499 . S
C191 H192 0.959 . S
C191 H193 0.960 . S
C191 H194 0.961 . S
H192 C191 0.959 . S
H193 C191 0.960 . S
H194 C191 0.961 . S
O195 Co170 1.967 . S
O195 C203 1.258 . S
O196 Co171 1.941 . S
O196 C203 1.266 . S
H197 C199 0.959 . S
H198 C199 0.961 . S
C199 C189 1.510 . S
C199 H197 0.959 . S
C199 H198 0.961 . S
C199 H200 0.960 . S
H200 C199 0.960 . S
H201 N181 0.862 . S
O202 Co170 1.920 . S
O202 C175 1.289 . S
C203 O195 1.258 . S
C203 O196 1.266 . S
Co204 O207 1.970 . S
Co204 N221 1.989 . S
Co204 O229 1.967 . S
Co204 O236 1.920 1_455 S
Co205 O208 1.966 . S
Co205 N214 2.022 . S
Co205 N222 1.993 . S
Co205 O230 1.941 . S
C206 O207 1.258 . S
C206 O208 1.263 . S
O207 Co204 1.970 . S
O207 C206 1.258 . S
O208 Co205 1.966 . S
O208 C206 1.263 . S
C209 O210 1.235 . S
C209 O236 1.289 . S
O210 C209 1.235 . S
C211 C213 1.400 . S
C211 N214 1.351 . S
C211 C216 1.501 . S
C212 C213 1.387 . S
C212 N215 1.341 . S
C213 C211 1.400 . S
C213 C212 1.387 . S
N214 Co205 2.022 . S
N214 C211 1.351 . S
N214 N215 1.365 . S
N215 C212 1.341 . S
N215 N214 1.365 . S
N215 H235 0.862 . S
C216 C211 1.501 . S
C216 H217 0.961 . S
C216 H218 0.961 . S
C216 H219 0.960 . S
H217 C216 0.961 . S
H218 C216 0.961 . S
H219 C216 0.960 . S
C220 N221 1.342 1_655 S
C220 C224 1.401 . S
C220 C225 1.499 . S
N221 Co204 1.989 . S
N221 C220 1.342 1_455 S
N221 N222 1.388 . S
N222 Co205 1.993 . S
N222 N221 1.388 . S
N222 C223 1.346 . S
C223 N222 1.346 . S
C223 C224 1.396 1_455 S
C223 C233 1.510 . S
C224 C220 1.401 . S
C224 C223 1.396 1_655 S
C225 C220 1.499 . S
C225 H226 0.959 . S
C225 H227 0.960 . S
C225 H228 0.961 . S
H226 C225 0.959 . S
H227 C225 0.960 . S
H228 C225 0.961 . S
O229 Co204 1.967 . S
O229 C237 1.258 . S
O230 Co205 1.941 . S
O230 C237 1.266 . S
H231 C233 0.959 . S
H232 C233 0.961 . S
C233 C223 1.510 . S
C233 H231 0.959 . S
C233 H232 0.961 . S
C233 H234 0.960 . S
H234 C233 0.960 . S
H235 N215 0.862 . S
O236 Co204 1.920 1_655 S
O236 C209 1.289 . S
C237 O229 1.258 . S
C237 O230 1.266 . S
Co238 O241 1.970 . S
Co238 N255 1.989 . S
Co238 O263 1.967 . S
Co238 O270 1.919 1_645 S
Co239 O242 1.966 . S
Co239 N248 2.022 . S
Co239 N256 1.993 . S
Co239 O264 1.941 . S
C240 O241 1.258 . S
C240 O242 1.263 . S
O241 Co238 1.970 . S
O241 C240 1.258 . S
O242 Co239 1.966 . S
O242 C240 1.263 . S
C243 O244 1.235 . S
C243 O270 1.290 . S
O244 C243 1.235 . S
C245 C247 1.400 . S
C245 N248 1.351 . S
C245 C250 1.501 . S
C246 C247 1.387 . S
C246 N249 1.341 . S
C247 C245 1.400 . S
C247 C246 1.387 . S
N248 Co239 2.022 . S
N248 C245 1.351 . S
N248 N249 1.365 . S
N249 C246 1.341 . S
N249 N248 1.365 . S
N249 H269 0.862 . S
C250 C245 1.501 . S
C250 H251 0.961 . S
C250 H252 0.961 . S
C250 H253 0.960 . S
H251 C250 0.961 . S
H252 C250 0.961 . S
H253 C250 0.960 . S
C254 N255 1.342 1_565 S
C254 C258 1.401 . S
C254 C259 1.499 . S
N255 Co238 1.989 . S
N255 C254 1.342 1_545 S
N255 N256 1.388 . S
N256 Co239 1.993 . S
N256 N255 1.388 . S
N256 C257 1.346 . S
C257 N256 1.346 . S
C257 C258 1.396 1_545 S
C257 C267 1.510 . S
C258 C254 1.401 . S
C258 C257 1.396 1_565 S
C259 C254 1.499 . S
C259 H260 0.959 . S
C259 H261 0.960 . S
C259 H262 0.961 . S
H260 C259 0.959 . S
H261 C259 0.960 . S
H262 C259 0.961 . S
O263 Co238 1.967 . S
O263 C271 1.258 . S
O264 Co239 1.941 . S
O264 C271 1.266 . S
H265 C267 0.959 . S
H266 C267 0.961 . S
C267 C257 1.510 . S
C267 H265 0.959 . S
C267 H266 0.961 . S
C267 H268 0.960 . S
H268 C267 0.960 . S
H269 N249 0.862 . S
O270 Co238 1.919 1_465 S
O270 C243 1.290 . S
C271 O263 1.258 . S
C271 O264 1.266 . S
Co272 O275 1.970 . S
Co272 N289 1.989 . S
Co272 O297 1.967 . S
Co272 O304 1.920 . S
Co273 O276 1.966 . S
Co273 N282 2.022 . S
Co273 N290 1.993 . S
Co273 O298 1.941 . S
C274 O275 1.258 . S
C274 O276 1.263 . S
O275 Co272 1.970 . S
O275 C274 1.258 . S
O276 Co273 1.966 . S
O276 C274 1.263 . S
C277 O278 1.235 . S
C277 O304 1.289 . S
O278 C277 1.235 . S
C279 C281 1.400 1_565 S
C279 N282 1.351 . S
C279 C284 1.501 . S
C280 C281 1.387 . S
C280 N283 1.341 . S
C281 C279 1.400 1_545 S
C281 C280 1.387 . S
N282 Co273 2.022 . S
N282 C279 1.351 . S
N282 N283 1.365 1_565 S
N283 C280 1.341 . S
N283 N282 1.365 1_545 S
N283 H303 0.862 . S
C284 C279 1.501 . S
C284 H285 0.961 . S
C284 H286 0.961 . S
C284 H287 0.960 . S
H285 C284 0.961 . S
H286 C284 0.961 . S
H287 C284 0.960 . S
C288 N289 1.342 . S
C288 C292 1.401 . S
C288 C293 1.499 . S
N289 Co272 1.989 . S
N289 C288 1.342 . S
N289 N290 1.388 . S
N290 Co273 1.993 . S
N290 N289 1.388 . S
N290 C291 1.346 . S
C291 N290 1.346 . S
C291 C292 1.396 . S
C291 C301 1.510 . S
C292 C288 1.401 . S
C292 C291 1.396 . S
C293 C288 1.499 . S
C293 H294 0.959 . S
C293 H295 0.960 . S
C293 H296 0.961 . S
H294 C293 0.959 . S
H295 C293 0.960 . S
H296 C293 0.961 . S
O297 Co272 1.967 . S
O297 C305 1.258 . S
O298 Co273 1.941 . S
O298 C305 1.266 . S
H299 C301 0.959 1_545 S
H300 C301 0.961 . S
C301 C291 1.510 . S
C301 H299 0.959 1_565 S
C301 H300 0.961 . S
C301 H302 0.960 . S
H302 C301 0.960 . S
H303 N283 0.862 . S
O304 Co272 1.920 . S
O304 C277 1.289 . S
C305 O297 1.258 . S
C305 O298 1.266 . S
Co306 O309 1.970 . S
Co306 N323 1.989 . S
Co306 O331 1.967 . S
Co306 O338 1.920 . S
Co307 O310 1.966 . S
Co307 N316 2.022 . S
Co307 N324 1.993 . S
Co307 O332 1.941 . S
C308 O309 1.258 . S
C308 O310 1.263 . S
O309 Co306 1.970 . S
O309 C308 1.258 . S
O310 Co307 1.966 . S
O310 C308 1.263 . S
C311 O312 1.235 . S
C311 O338 1.289 . S
O312 C311 1.235 . S
C313 C315 1.400 . S
C313 N316 1.351 . S
C313 C318 1.501 . S
C314 C315 1.387 . S
C314 N317 1.341 . S
C315 C313 1.400 . S
C315 C314 1.387 . S
N316 Co307 2.022 . S
N316 C313 1.351 . S
N316 N317 1.365 . S
N317 C314 1.341 . S
N317 N316 1.365 . S
N317 H337 0.862 . S
C318 C313 1.501 . S
C318 H319 0.961 . S
C318 H320 0.961 . S
C318 H321 0.960 . S
H319 C318 0.961 . S
H320 C318 0.961 . S
H321 C318 0.960 . S
C322 N323 1.342 . S
C322 C326 1.401 . S
C322 C327 1.499 . S
N323 Co306 1.989 . S
N323 C322 1.342 . S
N323 N324 1.388 . S
N324 Co307 1.993 . S
N324 N323 1.388 . S
N324 C325 1.346 . S
C325 N324 1.346 . S
C325 C326 1.396 . S
C325 C335 1.510 . S
C326 C322 1.401 . S
C326 C325 1.396 . S
C327 C322 1.499 . S
C327 H328 0.959 . S
C327 H329 0.960 . S
C327 H330 0.961 . S
H328 C327 0.959 . S
H329 C327 0.960 . S
H330 C327 0.961 . S
O331 Co306 1.967 . S
O331 C339 1.258 . S
O332 Co307 1.941 . S
O332 C339 1.266 . S
H333 C335 0.959 . S
H334 C335 0.961 . S
C335 C325 1.510 . S
C335 H333 0.959 . S
C335 H334 0.961 . S
C335 H336 0.960 . S
H336 C335 0.960 . S
H337 N317 0.862 . S
O338 Co306 1.920 . S
O338 C311 1.289 . S
C339 O331 1.258 . S
C339 O332 1.266 . S
Co340 O343 1.970 . S
Co340 N357 1.989 . S
Co340 O365 1.967 . S
Co340 O372 1.920 . S
Co341 O344 1.966 . S
Co341 N350 2.022 . S
Co341 N358 1.993 . S
Co341 O366 1.941 . S
C342 O343 1.258 . S
C342 O344 1.263 . S
O343 Co340 1.970 . S
O343 C342 1.258 . S
O344 Co341 1.966 . S
O344 C342 1.263 . S
C345 O346 1.235 . S
C345 O372 1.289 . S
O346 C345 1.235 . S
C347 C349 1.400 . S
C347 N350 1.351 . S
C347 C352 1.501 . S
C348 C349 1.387 . S
C348 N351 1.341 . S
C349 C347 1.400 . S
C349 C348 1.387 . S
N350 Co341 2.022 . S
N350 C347 1.351 . S
N350 N351 1.365 . S
N351 C348 1.341 . S
N351 N350 1.365 . S
N351 H371 0.862 . S
C352 C347 1.501 . S
C352 H353 0.961 . S
C352 H354 0.961 . S
C352 H355 0.960 . S
H353 C352 0.961 . S
H354 C352 0.961 . S
H355 C352 0.960 . S
C356 N357 1.342 . S
C356 C360 1.401 . S
C356 C361 1.499 . S
N357 Co340 1.989 . S
N357 C356 1.342 . S
N357 N358 1.388 . S
N358 Co341 1.993 . S
N358 N357 1.388 . S
N358 C359 1.346 . S
C359 N358 1.346 . S
C359 C360 1.396 . S
C359 C369 1.510 . S
C360 C356 1.401 . S
C360 C359 1.396 . S
C361 C356 1.499 . S
C361 H362 0.959 . S
C361 H363 0.960 . S
C361 H364 0.961 . S
H362 C361 0.959 . S
H363 C361 0.960 . S
H364 C361 0.961 . S
O365 Co340 1.967 . S
O365 C373 1.258 . S
O366 Co341 1.941 . S
O366 C373 1.266 . S
H367 C369 0.959 . S
H368 C369 0.961 . S
C369 C359 1.510 . S
C369 H367 0.959 . S
C369 H368 0.961 . S
C369 H370 0.960 . S
H370 C369 0.960 . S
H371 N351 0.862 . S
O372 Co340 1.920 . S
O372 C345 1.289 . S
C373 O365 1.258 . S
C373 O366 1.266 . S
Co374 O377 1.970 . S
Co374 N391 1.989 . S
Co374 O399 1.967 . S
Co374 O406 1.920 . S
Co375 O378 1.966 . S
Co375 N384 2.022 . S
Co375 N392 1.993 . S
Co375 O400 1.941 . S
C376 O377 1.258 . S
C376 O378 1.263 . S
O377 Co374 1.970 . S
O377 C376 1.258 . S
O378 Co375 1.966 . S
O378 C376 1.263 . S
C379 O380 1.235 . S
C379 O406 1.289 . S
O380 C379 1.235 . S
C381 C383 1.400 1_655 S
C381 N384 1.351 . S
C381 C386 1.501 . S
C382 C383 1.387 . S
C382 N385 1.341 . S
C383 C381 1.400 1_455 S
C383 C382 1.387 . S
N384 Co375 2.022 . S
N384 C381 1.351 . S
N384 N385 1.365 1_655 S
N385 C382 1.341 . S
N385 N384 1.365 1_455 S
N385 H405 0.862 . S
C386 C381 1.501 . S
C386 H387 0.961 . S
C386 H388 0.961 . S
C386 H389 0.960 . S
H387 C386 0.961 . S
H388 C386 0.961 . S
H389 C386 0.960 . S
C390 N391 1.342 . S
C390 C394 1.401 . S
C390 C395 1.499 . S
N391 Co374 1.989 . S
N391 C390 1.342 . S
N391 N392 1.388 . S
N392 Co375 1.993 . S
N392 N391 1.388 . S
N392 C393 1.346 . S
C393 N392 1.346 . S
C393 C394 1.396 . S
C393 C403 1.510 . S
C394 C390 1.401 . S
C394 C393 1.396 . S
C395 C390 1.499 . S
C395 H396 0.959 . S
C395 H397 0.960 . S
C395 H398 0.961 . S
H396 C395 0.959 . S
H397 C395 0.960 . S
H398 C395 0.961 . S
O399 Co374 1.967 . S
O399 C407 1.258 . S
O400 Co375 1.941 . S
O400 C407 1.266 . S
H401 C403 0.959 1_455 S
H402 C403 0.961 . S
C403 C393 1.510 . S
C403 H401 0.959 1_655 S
C403 H402 0.961 . S
C403 H404 0.960 . S
H404 C403 0.960 . S
H405 N385 0.862 . S
O406 Co374 1.920 . S
O406 C379 1.289 . S
C407 O399 1.258 . S
C407 O400 1.266 . S
Co408 O411 1.970 . S
Co408 N425 1.989 . S
Co408 O433 1.967 . S
Co408 O440 1.920 . S
Co409 O412 1.966 . S
Co409 N418 2.022 . S
Co409 N426 1.993 . S
Co409 O434 1.941 . S
C410 O411 1.258 . S
C410 O412 1.263 . S
O411 Co408 1.970 . S
O411 C410 1.258 . S
O412 Co409 1.966 . S
O412 C410 1.263 . S
C413 O414 1.235 . S
C413 O440 1.289 . S
O414 C413 1.235 . S
C415 C417 1.400 . S
C415 N418 1.351 . S
C415 C420 1.501 . S
C416 C417 1.387 . S
C416 N419 1.341 . S
C417 C415 1.400 . S
C417 C416 1.387 . S
N418 Co409 2.022 . S
N418 C415 1.351 . S
N418 N419 1.365 . S
N419 C416 1.341 . S
N419 N418 1.365 . S
N419 H439 0.862 . S
C420 C415 1.501 . S
C420 H421 0.961 . S
C420 H422 0.961 . S
C420 H423 0.960 . S
H421 C420 0.961 . S
H422 C420 0.961 . S
H423 C420 0.960 . S
C424 N425 1.342 . S
C424 C428 1.401 . S
C424 C429 1.499 . S
N425 Co408 1.989 . S
N425 C424 1.342 . S
N425 N426 1.388 . S
N426 Co409 1.993 . S
N426 N425 1.388 . S
N426 C427 1.346 . S
C427 N426 1.346 . S
C427 C428 1.396 . S
C427 C437 1.510 . S
C428 C424 1.401 . S
C428 C427 1.396 . S
C429 C424 1.499 . S
C429 H430 0.959 . S
C429 H431 0.960 . S
C429 H432 0.961 . S
H430 C429 0.959 . S
H431 C429 0.960 . S
H432 C429 0.961 . S
O433 Co408 1.967 . S
O433 C441 1.258 . S
O434 Co409 1.941 . S
O434 C441 1.266 . S
H435 C437 0.959 . S
H436 C437 0.961 . S
C437 C427 1.510 . S
C437 H435 0.959 . S
C437 H436 0.961 . S
C437 H438 0.960 . S
H438 C437 0.960 . S
H439 N419 0.862 . S
O440 Co408 1.920 . S
O440 C413 1.289 . S
C441 O433 1.258 . S
C441 O434 1.266 . S
Co442 O445 1.970 . S
Co442 N459 1.989 . S
Co442 O467 1.967 . S
Co442 O474 1.920 . S
Co443 O446 1.966 . S
Co443 N452 2.022 . S
Co443 N460 1.993 . S
Co443 O468 1.941 . S
C444 O445 1.258 . S
C444 O446 1.263 . S
O445 Co442 1.970 . S
O445 C444 1.258 . S
O446 Co443 1.966 . S
O446 C444 1.263 . S
C447 O448 1.235 . S
C447 O474 1.289 . S
O448 C447 1.235 . S
C449 C451 1.400 1_655 S
C449 N452 1.351 . S
C449 C454 1.501 . S
C450 C451 1.387 . S
C450 N453 1.341 . S
C451 C449 1.400 1_455 S
C451 C450 1.387 . S
N452 Co443 2.022 . S
N452 C449 1.351 . S
N452 N453 1.365 1_655 S
N453 C450 1.341 . S
N453 N452 1.365 1_455 S
N453 H473 0.862 . S
C454 C449 1.501 . S
C454 H455 0.961 . S
C454 H456 0.961 . S
C454 H457 0.960 . S
H455 C454 0.961 . S
H456 C454 0.961 . S
H457 C454 0.960 . S
C458 N459 1.342 . S
C458 C462 1.401 . S
C458 C463 1.499 . S
N459 Co442 1.989 . S
N459 C458 1.342 . S
N459 N460 1.388 . S
N460 Co443 1.993 . S
N460 N459 1.388 . S
N460 C461 1.346 . S
C461 N460 1.346 . S
C461 C462 1.396 . S
C461 C471 1.510 . S
C462 C458 1.401 . S
C462 C461 1.396 . S
C463 C458 1.499 . S
C463 H464 0.959 . S
C463 H465 0.960 . S
C463 H466 0.961 . S
H464 C463 0.959 . S
H465 C463 0.960 . S
H466 C463 0.961 . S
O467 Co442 1.967 . S
O467 C475 1.258 . S
O468 Co443 1.941 . S
O468 C475 1.266 . S
H469 C471 0.959 1_455 S
H470 C471 0.961 . S
C471 C461 1.510 . S
C471 H469 0.959 1_655 S
C471 H470 0.961 . S
C471 H472 0.960 . S
H472 C471 0.960 . S
H473 N453 0.862 . S
O474 Co442 1.920 . S
O474 C447 1.289 . S
C475 O467 1.258 . S
C475 O468 1.266 . S
Co476 O479 1.970 . S
Co476 N493 1.989 . S
Co476 O501 1.967 . S
Co476 O508 1.920 . S
Co477 O480 1.966 . S
Co477 N486 2.022 . S
Co477 N494 1.993 . S
Co477 O502 1.941 . S
C478 O479 1.258 . S
C478 O480 1.263 . S
O479 Co476 1.970 . S
O479 C478 1.258 . S
O480 Co477 1.966 . S
O480 C478 1.263 . S
C481 O482 1.235 . S
C481 O508 1.289 . S
O482 C481 1.235 . S
C483 C485 1.400 1_565 S
C483 N486 1.351 . S
C483 C488 1.501 . S
C484 C485 1.387 . S
C484 N487 1.341 . S
C485 C483 1.400 1_545 S
C485 C484 1.387 . S
N486 Co477 2.022 . S
N486 C483 1.351 . S
N486 N487 1.365 1_565 S
N487 C484 1.341 . S
N487 N486 1.365 1_545 S
N487 H507 0.862 . S
C488 C483 1.501 . S
C488 H489 0.961 . S
C488 H490 0.961 . S
C488 H491 0.960 . S
H489 C488 0.961 . S
H490 C488 0.961 . S
H491 C488 0.960 . S
C492 N493 1.342 . S
C492 C496 1.401 . S
C492 C497 1.499 . S
N493 Co476 1.989 . S
N493 C492 1.342 . S
N493 N494 1.388 . S
N494 Co477 1.993 . S
N494 N493 1.388 . S
N494 C495 1.346 . S
C495 N494 1.346 . S
C495 C496 1.396 . S
C495 C505 1.510 . S
C496 C492 1.401 . S
C496 C495 1.396 . S
C497 C492 1.499 . S
C497 H498 0.959 . S
C497 H499 0.960 . S
C497 H500 0.961 . S
H498 C497 0.959 . S
H499 C497 0.960 . S
H500 C497 0.961 . S
O501 Co476 1.967 . S
O501 C509 1.258 . S
O502 Co477 1.941 . S
O502 C509 1.266 . S
H503 C505 0.959 1_545 S
H504 C505 0.961 . S
C505 C495 1.510 . S
C505 H503 0.959 1_565 S
C505 H504 0.961 . S
C505 H506 0.960 . S
H506 C505 0.960 . S
H507 N487 0.862 . S
O508 Co476 1.920 . S
O508 C481 1.289 . S
C509 O501 1.258 . S
C509 O502 1.266 . S
Co510 O513 1.970 . S
Co510 N527 1.989 . S
Co510 O535 1.967 . S
Co510 O542 1.920 . S
Co511 O514 1.966 . S
Co511 N520 2.022 . S
Co511 N528 1.993 . S
Co511 O536 1.941 . S
C512 O513 1.258 . S
C512 O514 1.263 . S
O513 Co510 1.970 . S
O513 C512 1.258 . S
O514 Co511 1.966 . S
O514 C512 1.263 . S
C515 O516 1.235 . S
C515 O542 1.289 . S
O516 C515 1.235 . S
C517 C519 1.400 . S
C517 N520 1.351 . S
C517 C522 1.501 . S
C518 C519 1.387 . S
C518 N521 1.341 . S
C519 C517 1.400 . S
C519 C518 1.387 . S
N520 Co511 2.022 . S
N520 C517 1.351 . S
N520 N521 1.365 . S
N521 C518 1.341 . S
N521 N520 1.365 . S
N521 H541 0.862 . S
C522 C517 1.501 . S
C522 H523 0.961 . S
C522 H524 0.961 . S
C522 H525 0.960 . S
H523 C522 0.961 . S
H524 C522 0.961 . S
H525 C522 0.960 . S
C526 N527 1.342 . S
C526 C530 1.401 . S
C526 C531 1.499 . S
N527 Co510 1.989 . S
N527 C526 1.342 . S
N527 N528 1.388 . S
N528 Co511 1.993 . S
N528 N527 1.388 . S
N528 C529 1.346 . S
C529 N528 1.346 . S
C529 C530 1.396 . S
C529 C539 1.510 . S
C530 C526 1.401 . S
C530 C529 1.396 . S
C531 C526 1.499 . S
C531 H532 0.959 . S
C531 H533 0.960 . S
C531 H534 0.961 . S
H532 C531 0.959 . S
H533 C531 0.960 . S
H534 C531 0.961 . S
O535 Co510 1.967 . S
O535 C543 1.258 . S
O536 Co511 1.941 . S
O536 C543 1.266 . S
H537 C539 0.959 . S
H538 C539 0.961 . S
C539 C529 1.510 . S
C539 H537 0.959 . S
C539 H538 0.961 . S
C539 H540 0.960 . S
H540 C539 0.960 . S
H541 N521 0.862 . S
O542 Co510 1.920 . S
O542 C515 1.289 . S
C543 O535 1.258 . S
C543 O536 1.266 . S
C33 C237 1.879 . S
C271 C67 1.879 . S
C169 C101 1.879 . S
C203 C135 1.879 . S
C305 C509 1.879 1_556 S
C339 C543 1.879 1_556 S
C373 C441 1.879 1_556 S
C475 C407 1.879 1_554 S
C5 C104 1.605 . S
C39 C2 1.605 . S
C36 C73 1.605 . S
C107 C70 1.605 . S
C172 C141 1.605 . S
C206 C175 1.605 . S
C240 C209 1.605 . S
C138 C243 1.605 . S
C277 C376 1.605 . S
C274 C311 1.605 . S
C345 C308 1.605 . S
C379 C342 1.605 . S
C413 C444 1.605 . S
C447 C478 1.605 . S
C481 C512 1.605 . S
C410 C515 1.605 . S
C530 C20 2.374 . S
C54 C428 2.373 . S
C462 C88 2.374 . S
C122 C496 2.373 . S
C326 C156 2.374 . S
C190 C360 2.374 . S
C224 C394 2.373 . S
C292 C258 2.374 . S
C145 C383 1.086 . S
C179 C281 1.086 . S
C213 C315 1.086 . S
C349 C247 1.086 . S
C9 C451 1.086 . S
C485 C43 1.086 . S
C77 C519 1.086 . S
C111 C417 1.086 . S
