# Generated by pormake.
# Topology umf, (4)-cn, num edge types: 1
# Building blocks:
#     Node 0, Type 0, BuildingBlock: CEKHIL_clean_sbu_0, # of connection points: 4
#     Node 1, Type 0, BuildingBlock: CEKHIL_clean_sbu_0, # of connection points: 4
#     Node 2, Type 0, BuildingBlock: CEKHIL_clean_sbu_0, # of connection points: 4
#     Node 3, Type 0, BuildingBlock: CEKHIL_clean_sbu_0, # of connection points: 4
#     Node 4, Type 0, BuildingBlock: CEKHIL_clean_sbu_0, # of connection points: 4
#     Node 5, Type 0, BuildingBlock: CEKHIL_clean_sbu_0, # of connection points: 4
#     Node 6, Type 0, BuildingBlock: CEKHIL_clean_sbu_0, # of connection points: 4
#     Node 7, Type 0, BuildingBlock: CEKHIL_clean_sbu_0, # of connection points: 4
#     Edge 8, Type (0, 0), BuildingBlock: CIFDUS_clean_linker_0, # of connection points: 2
#     Edge 9, Type (0, 0), BuildingBlock: CIFDUS_clean_linker_0, # of connection points: 2
#     Edge 10, Type (0, 0), BuildingBlock: CIFDUS_clean_linker_0, # of connection points: 2
#     Edge 11, Type (0, 0), BuildingBlock: CIFDUS_clean_linker_0, # of connection points: 2
#     Edge 12, Type (0, 0), BuildingBlock: CIFDUS_clean_linker_0, # of connection points: 2
#     Edge 13, Type (0, 0), BuildingBlock: CIFDUS_clean_linker_0, # of connection points: 2
#     Edge 14, Type (0, 0), BuildingBlock: CIFDUS_clean_linker_0, # of connection points: 2
#     Edge 15, Type (0, 0), BuildingBlock: CIFDUS_clean_linker_0, # of connection points: 2
#     Edge 16, Type (0, 0), BuildingBlock: CIFDUS_clean_linker_0, # of connection points: 2
#     Edge 17, Type (0, 0), BuildingBlock: CIFDUS_clean_linker_0, # of connection points: 2
#     Edge 18, Type (0, 0), BuildingBlock: CIFDUS_clean_linker_0, # of connection points: 2
#     Edge 19, Type (0, 0), BuildingBlock: CIFDUS_clean_linker_0, # of connection points: 2
#     Edge 20, Type (0, 0), BuildingBlock: CIFDUS_clean_linker_0, # of connection points: 2
#     Edge 21, Type (0, 0), BuildingBlock: CIFDUS_clean_linker_0, # of connection points: 2
#     Edge 22, Type (0, 0), BuildingBlock: CIFDUS_clean_linker_0, # of connection points: 2
#     Edge 23, Type (0, 0), BuildingBlock: CIFDUS_clean_linker_0, # of connection points: 2
# Relax obj value: 0.165
# Max RMSD: 0.289
# Mean RMSD: 0.282
data_MOF--net-umf--node1-CEKHIL_clean_sbu_0--edge1-CIFDUS_clean_linker_0
_symmetry_space_group_name_H-M    P1
_symmetry_Int_Tables_number       1
_symmetry_cell_setting            triclinic
loop_
_symmetry_equiv_pos_as_xyz
'x, y, z'
_cell_length_a     24.552754
_cell_length_b     23.339239
_cell_length_c     45.838628
_cell_angle_alpha  90.028225
_cell_angle_beta   90.067942
_cell_angle_gamma 90.012352
loop_
_atom_site_label
_atom_site_type_symbol
_atom_site_fract_x
_atom_site_fract_y
_atom_site_fract_z
_atom_type_partial_charge
Co0 Co 0.07173 0.24432 0.15544 0.0
O1 O 0.09226 0.26255 0.19445 0.0
O2 O 0.1398 0.20544 0.16579 0.0
C3 C 0.05233 0.33407 0.14249 0.0
O4 O 0.0577 0.21996 0.11275 0.0
Co5 Co 0.94933 0.2627 0.14451 0.0
O6 O 0.97129 0.24823 0.1037 0.0
C7 C 0.9828 0.15921 0.17459 0.0
C8 C 0.13362 0.2292 0.19143 0.0
C9 C 0.01654 0.22713 0.09529 0.0
O10 O 0.03166 0.17565 0.16994 0.0
O11 O 0.94152 0.18986 0.16777 0.0
O12 O 0.10202 0.31536 0.14142 0.0
O13 O 0.01742 0.30025 0.15493 0.0
Co14 Co 0.75257 0.07972 0.64043 0.0
O15 O 0.67637 0.08553 0.63576 0.0
O16 O 0.72001 0.00302 0.63935 0.0
C17 C 0.75838 0.14478 0.67659 0.0
O18 O 0.83426 0.06456 0.64555 0.0
Co19 Co 0.80832 0.18942 0.61934 0.0
O20 O 0.87246 0.151 0.6365 0.0
C21 C 0.77752 0.10518 0.57561 0.0
C22 C 0.67402 0.03045 0.63595 0.0
C23 C 0.87591 0.09847 0.64391 0.0
O24 O 0.76178 0.07452 0.59708 0.0
O25 O 0.79446 0.15665 0.57895 0.0
O26 O 0.74596 0.09194 0.68176 0.0
O27 O 0.75952 0.15875 0.64907 0.0
Co28 Co 0.91788 0.73911 0.14927 0.0
O29 O 0.89518 0.72086 0.18783 0.0
O30 O 0.84849 0.77652 0.15793 0.0
C31 C 0.94007 0.64967 0.13701 0.0
O32 O 0.93351 0.76317 0.10688 0.0
Co33 Co 0.04094 0.72406 0.14037 0.0
O34 O 0.02096 0.73737 0.09914 0.0
C35 C 0.00369 0.82572 0.17066 0.0
C36 C 0.85341 0.75326 0.18376 0.0
C37 C 0.97546 0.75677 0.09003 0.0
O38 O 0.95551 0.80886 0.16449 0.0
O39 O 0.04588 0.79577 0.16475 0.0
O40 O 0.89014 0.6673 0.13483 0.0
O41 O 0.97349 0.68446 0.15001 0.0
Co42 Co 0.2753 0.92904 0.64864 0.0
O43 O 0.34872 0.90752 0.64052 0.0
O44 O 0.31776 -0.00328 0.63968 0.0
C45 C 0.26637 0.87847 0.68992 0.0
O46 O 0.20024 0.9638 0.65723 0.0
Co47 Co 0.18934 0.83599 0.6432 0.0
O48 O 0.14887 0.88786 0.66945 0.0
C49 C 0.22051 0.898 0.59041 0.0
C50 C 0.35865 0.96142 0.63691 0.0
C51 C 0.15663 0.94169 0.66833 0.0
O52 O 0.25589 0.92378 0.60613 0.0
O53 O 0.18893 0.8592 0.60053 0.0
O54 O 0.29012 0.92787 0.6896 0.0
O55 O 0.25587 0.85627 0.66435 0.0
Co56 Co 0.08007 0.72316 0.86204 0.0
O57 O 0.10825 0.69663 0.82566 0.0
O58 O 0.15312 0.75322 0.85614 0.0
C59 C 0.04605 0.64014 0.87648 0.0
O60 O 0.0601 0.75522 0.90247 0.0
Co61 Co 0.95451 0.72323 0.86612 0.0
O62 O 0.97026 0.73769 0.90789 0.0
C63 C 0.007 0.81236 0.83225 0.0
C64 C 0.15113 0.7269 0.83098 0.0
C65 C 0.01614 0.75377 0.9181 0.0
O66 O 0.05205 0.79322 0.84225 0.0
O67 O 0.96128 0.78816 0.83744 0.0
O68 O 0.09746 0.65108 0.88035 0.0
O69 O 0.01917 0.67625 0.86058 0.0
Co70 Co 0.25215 0.08032 0.38503 0.0
O71 O 0.32313 0.10495 0.39609 0.0
O72 O 0.30035 0.01459 0.38782 0.0
C73 C 0.24005 0.14403 0.34885 0.0
O74 O 0.17987 0.04392 0.37215 0.0
Co75 Co 0.16238 0.16581 0.39958 0.0
O76 O 0.12221 0.11886 0.37091 0.0
C77 C 0.19911 0.08964 0.44612 0.0
C78 C 0.33799 0.05204 0.39433 0.0
C79 C 0.13359 0.06682 0.36518 0.0
O80 O 0.23195 0.06875 0.42722 0.0
O81 O 0.16808 0.13222 0.44025 0.0
O82 O 0.2676 0.09754 0.34498 0.0
O83 O 0.22778 0.15542 0.37597 0.0
Co84 Co 0.9219 0.23782 0.86457 0.0
O85 O 0.89938 0.26291 0.82686 0.0
O86 O 0.84618 0.21576 0.85732 0.0
C87 C 0.96229 0.31884 0.87756 0.0
O88 O 0.93663 0.20898 0.90639 0.0
Co89 Co 0.04637 0.22561 0.87055 0.0
O90 O 0.02744 0.2192 0.91242 0.0
C91 C 0.98748 0.13919 0.83792 0.0
C92 C 0.85295 0.23893 0.83159 0.0
C93 C 0.98006 0.20903 0.92259 0.0
O94 O 0.94415 0.16302 0.84739 0.0
O95 O 0.0349 0.15989 0.84269 0.0
O96 O 0.91 0.31286 0.88055 0.0
O97 O 0.9869 0.27876 0.8631 0.0
Co98 Co 0.72779 0.9085 0.37438 0.0
O99 O 0.65668 0.88334 0.3843 0.0
O100 O 0.67897 0.97413 0.37692 0.0
C101 C 0.74127 0.8446 0.33848 0.0
O102 O 0.80083 0.94474 0.36293 0.0
Co103 Co 0.81627 0.82117 0.3901 0.0
O104 O 0.85847 0.86958 0.36292 0.0
C105 C 0.77775 0.89792 0.43599 0.0
C106 C 0.64147 0.9361 0.38274 0.0
C107 C 0.84773 0.92186 0.35729 0.0
O108 O 0.74641 0.9199 0.41668 0.0
O109 O 0.80777 0.85425 0.43074 0.0
O110 O 0.71421 0.89127 0.33405 0.0
O111 O 0.75234 0.83364 0.36574 0.0
H112 H 0.95347 0.38215 0.13319 0.0
H113 H 0.12531 0.42036 0.13679 0.0
H114 H 0.10628 0.52242 0.13278 0.0
H115 H 0.04022 0.60131 0.13368 0.0
H116 H 0.86856 0.56294 0.12805 0.0
H117 H 0.88813 0.46078 0.12697 0.0
C118 C 0.9866 0.41292 0.13273 0.0
C119 C 0.04039 0.39417 0.13585 0.0
C120 C 0.9755 0.47154 0.13021 0.0
C121 C 0.08332 0.43401 0.13467 0.0
C122 C 0.07258 0.4924 0.13246 0.0
C123 C 0.00731 0.57049 0.13182 0.0
C124 C 0.95322 0.58933 0.13155 0.0
C125 C 0.01875 0.51173 0.13107 0.0
C126 C 0.91072 0.54931 0.12857 0.0
C127 C 0.92174 0.49083 0.12806 0.0
H128 H 0.45076 0.89889 0.6433 0.0
H129 H 0.39251 0.06684 0.61889 0.0
H130 H 0.48638 0.0998 0.61319 0.0
H131 H 0.58305 0.08295 0.61843 0.0
H132 H 0.64342 0.91812 0.64642 0.0
H133 H 0.54962 0.8809 0.64677 0.0
C134 C 0.4586 0.9426 0.63646 0.0
C135 C 0.41485 0.98068 0.63162 0.0
C136 C 0.51258 0.96147 0.6339 0.0
C137 C 0.42551 0.03706 0.6229 0.0
C138 C 0.47906 0.05578 0.61962 0.0
C139 C 0.57607 0.03866 0.62456 0.0
C140 C 0.62003 0.0034 0.63281 0.0
C141 C 0.52264 0.01864 0.62559 0.0
C142 C 0.6102 0.94601 0.64008 0.0
C143 C 0.55666 0.92501 0.64044 0.0
H144 H 0.91152 0.41669 0.89126 0.0
H145 H 0.0712 0.34259 0.87998 0.0
H146 H 0.11244 0.43786 0.88419 0.0
H147 H 0.10107 0.542 0.88351 0.0
H148 H 0.94001 0.61546 0.88762 0.0
H149 H 0.9007 0.51996 0.89415 0.0
C150 C 0.95546 0.42118 0.89021 0.0
C151 C 0.98847 0.37323 0.8849 0.0
C152 C 0.97822 0.47581 0.8911 0.0
C153 C 0.0452 0.37936 0.88371 0.0
C154 C 0.06861 0.43363 0.88605 0.0
C155 C 0.05747 0.53705 0.88643 0.0
C156 C 0.02311 0.58497 0.88489 0.0
C157 C 0.03526 0.4822 0.88859 0.0
C158 C 0.96681 0.57862 0.88848 0.0
C159 C 0.9445 0.52427 0.89217 0.0
H160 H 0.38578 0.9476 0.38815 0.0
H161 H 0.42111 0.12547 0.40576 0.0
H162 H 0.51836 0.10618 0.4038 0.0
H163 H 0.59414 0.03955 0.39447 0.0
H164 H 0.55808 0.86136 0.37811 0.0
H165 H 0.46116 0.8801 0.38213 0.0
C166 C 0.41479 0.98189 0.39191 0.0
C167 C 0.39623 0.03772 0.39684 0.0
C168 C 0.47085 0.9707 0.39069 0.0
C169 C 0.43431 0.08189 0.40177 0.0
C170 C 0.49006 0.07108 0.40056 0.0
C171 C 0.56495 0.00503 0.39183 0.0
C172 C 0.58321 0.94946 0.38585 0.0
C173 C 0.50888 0.01583 0.3945 0.0
C174 C 0.54507 0.90475 0.38277 0.0
C175 C 0.4895 0.91528 0.38504 0.0
H176 H 0.06414 0.19544 0.9609 0.0
H177 H 0.88854 0.20591 0.95729 0.0
H178 H 0.88513 0.20687 0.01065 0.0
H179 H 0.93206 0.21357 0.05766 0.0
H180 H 0.10774 0.20747 0.06146 0.0
H181 H 0.1109 0.19535 1.00832 0.0
C182 C 0.02487 0.19744 0.97164 0.0
C183 C 0.97651 0.20122 0.95485 0.0
C184 C 0.02333 0.19912 1.0023 0.0
C185 C 0.92629 0.20303 0.96944 0.0
C186 C 0.9244 0.20388 0.99999 0.0
C187 C 0.97129 0.20933 0.04703 0.0
C188 C 0.01982 0.2123 0.06368 0.0
C189 C 0.97271 0.20339 0.01655 0.0
C190 C 0.06989 0.20554 0.04935 0.0
C191 C 0.07163 0.19889 0.01893 0.0
H192 H 0.79494 0.99275 0.56509 0.0
H193 H 0.76325 0.15258 0.52101 0.0
H194 H 0.75973 0.10177 0.47408 0.0
H195 H 0.76352 0.01153 0.446 0.0
H196 H 0.801 0.85292 0.48999 0.0
H197 H 0.80434 0.90381 0.53679 0.0
C198 C 0.78722 0.01663 0.54522 0.0
C199 C 0.77868 0.07647 0.54661 0.0
C200 C 0.78615 0.98726 0.51843 0.0
C201 C 0.76988 0.10672 0.52058 0.0
C202 C 0.76768 0.07756 0.4938 0.0
C203 C 0.77225 0.98796 0.46585 0.0
C204 C 0.78123 0.92815 0.46454 0.0
C205 C 0.7753 0.01778 0.49252 0.0
C206 C 0.79371 0.89868 0.49037 0.0
C207 C 0.79556 0.92783 0.51711 0.0
H208 H 0.05999 0.7741 0.05306 0.0
H209 H 0.8843 0.76692 0.05524 0.0
H210 H 0.88187 0.77179 1.00182 0.0
H211 H 0.92999 0.76738 0.95491 0.0
H212 H 0.10593 0.77011 0.95307 0.0
H213 H 0.10776 0.77813 1.00627 0.0
C214 C 0.02094 0.77406 0.04196 0.0
C215 C 0.97227 0.76923 0.05824 0.0
C216 C 0.02001 0.77564 0.01136 0.0
C217 C 0.92227 0.77044 0.04337 0.0
C218 C 0.92096 0.77285 0.01281 0.0
C219 C 0.96892 0.77026 0.96601 0.0
C220 C 0.01792 0.76731 0.94985 0.0
C221 C 0.96964 0.77378 0.99662 0.0
C222 C 0.06769 0.77202 0.96479 0.0
C223 C 0.06871 0.77635 0.99525 0.0
H224 H 0.24638 0.98837 0.46188 0.0
H225 H 0.14279 0.12256 0.49543 0.0
H226 H 0.1362 0.07185 0.54208 0.0
H227 H 0.16313 0.99105 0.57414 0.0
H228 H 0.26644 0.85763 0.54036 0.0
H229 H 0.26939 0.90595 0.49282 0.0
C230 C 0.22237 0.0069 0.47933 0.0
C231 C 0.1956 0.05994 0.47502 0.0
C232 C 0.21824 0.97713 0.50598 0.0
C233 C 0.16424 0.08234 0.49802 0.0
C234 C 0.16029 0.05316 0.52471 0.0
C235 C 0.18508 0.97195 0.55605 0.0
C236 C 0.21341 0.92009 0.56039 0.0
C237 C 0.18727 0.00064 0.52898 0.0
C238 C 0.24313 0.89655 0.53721 0.0
C239 C 0.24528 0.9246 0.51019 0.0
H240 H 0.11837 0.26923 0.24621 0.0
H241 H 0.22226 0.15757 0.19572 0.0
H242 H 0.26833 0.12726 0.24062 0.0
H243 H 0.27306 0.12632 0.29375 0.0
H244 H 0.16438 0.23158 0.34482 0.0
H245 H 0.12621 0.27166 0.29961 0.0
C246 C 0.15153 0.23867 0.24485 0.0
C247 C 0.16679 0.21541 0.21753 0.0
C248 C 0.17652 0.22037 0.27075 0.0
C249 C 0.2098 0.17604 0.21634 0.0
C250 C 0.23591 0.15865 0.24202 0.0
C251 C 0.24125 0.15844 0.29519 0.0
C252 C 0.22116 0.17567 0.32272 0.0
C253 C 0.21867 0.17959 0.26929 0.0
C254 C 0.18049 0.21769 0.324 0.0
C255 C 0.15857 0.24023 0.29815 0.0
H256 H 0.86095 0.28729 0.77809 0.0
H257 H 0.76248 0.16998 0.82828 0.0
H258 H 0.71717 0.13827 0.78348 0.0
H259 H 0.71727 0.13233 0.73024 0.0
H260 H 0.82199 0.2422 0.67954 0.0
H261 H 0.85294 0.28939 0.7246 0.0
C262 C 0.82875 0.25558 0.77939 0.0
C263 C 0.81558 0.23036 0.80654 0.0
C264 C 0.80471 0.23592 0.75344 0.0
C265 C 0.77341 0.18994 0.80778 0.0
C266 C 0.7479 0.17151 0.78211 0.0
C267 C 0.74622 0.16737 0.72894 0.0
C268 C 0.76804 0.18337 0.70166 0.0
C269 C 0.76503 0.19239 0.75483 0.0
C270 C 0.80468 0.22929 0.70025 0.0
C271 C 0.82263 0.25575 0.72603 0.0
H272 H 0.71014 0.8604 0.28293 0.0
H273 H 0.81594 0.7562 0.33632 0.0
H274 H 0.8552 0.71361 0.29204 0.0
H275 H 0.8652 0.71395 0.23883 0.0
H276 H 0.76451 0.82474 0.18595 0.0
H277 H 0.71662 0.85693 0.22989 0.0
C278 C 0.74153 0.82797 0.28505 0.0
C279 C 0.7606 0.81177 0.31293 0.0
C280 C 0.76471 0.80534 0.25969 0.0
C281 C 0.80069 0.7693 0.31517 0.0
C282 C 0.82321 0.74531 0.28987 0.0
C283 C 0.83229 0.74467 0.23673 0.0
C284 C 0.81854 0.76726 0.20907 0.0
C285 C 0.8064 0.76417 0.26208 0.0
C286 C 0.77581 0.80679 0.20689 0.0
C287 C 0.74869 0.8253 0.23201 0.0
H288 H 0.24057 0.76677 0.70472 0.0
H289 H 0.25446 0.93813 0.73957 0.0
H290 H 0.23026 0.90433 0.78769 0.0
H291 H 0.19905 0.82815 0.81976 0.0
H292 H 0.17937 0.65726 0.78593 0.0
H293 H 0.21382 0.68796 0.73835 0.0
C294 C 0.23825 0.79642 0.72289 0.0
C295 C 0.24934 0.85477 0.71842 0.0
C296 C 0.22433 0.77664 0.75104 0.0
C297 C 0.24645 0.89279 0.74228 0.0
C298 C 0.23276 0.87361 0.76999 0.0
C299 C 0.20423 0.79725 0.80228 0.0
C300 C 0.18742 0.74057 0.80639 0.0
C301 C 0.2214 0.81578 0.77467 0.0
C302 C 0.1928 0.70118 0.78329 0.0
C303 C 0.21171 0.71888 0.75596 0.0
H304 H 0.06263 0.08358 0.1885 0.0
H305 H 0.88757 0.09854 0.1819 0.0
H306 H 0.87911 -0.00552 0.18602 0.0
H307 H 0.92195 0.90038 0.18264 0.0
H308 H 0.09746 0.88582 0.18295 0.0
H309 H 0.10508 0.9892 0.19055 0.0
C310 C 0.02237 0.06444 0.18839 0.0
C311 C 0.97576 0.09896 0.18416 0.0
C312 C 0.01803 0.00465 0.18925 0.0
C313 C 0.92411 0.07315 0.18475 0.0
C314 C 0.91931 0.01359 0.18693 0.0
C315 C 0.96206 0.91942 0.18476 0.0
C316 C 0.00921 0.88533 0.18151 0.0
C317 C 0.96613 0.97898 0.18775 0.0
C318 C 0.06057 0.91094 0.18497 0.0
C319 C 0.06491 0.97011 0.18919 0.0
H320 H 0.12452 0.03559 0.63878 0.0
H321 H 0.07862 0.92394 0.70943 0.0
H322 H 0.986 0.9625 0.70866 0.0
H323 H 0.91503 0.02037 0.6837 0.0
H324 H 0.96283 0.12967 0.61226 0.0
H325 H 0.05685 0.09905 0.61717 0.0
C326 C 0.09477 0.02123 0.65468 0.0
C327 C 0.10823 0.97719 0.67409 0.0
C328 C 0.04118 0.04184 0.65332 0.0
C329 C 0.06901 0.95809 0.69426 0.0
C330 C 0.01588 0.97954 0.69359 0.0
C331 C 0.94616 0.03717 0.66928 0.0
C332 C 0.93193 0.07674 0.64754 0.0
C333 C 0.00085 0.0198 0.67239 0.0
C334 C 0.97276 0.09905 0.62921 0.0
C335 C 0.02668 0.08179 0.63202 0.0
H336 H 0.06692 0.06641 0.81833 0.0
H337 H 0.89234 0.08285 0.82684 0.0
H338 H 0.88124 0.98082 0.81896 0.0
H339 H 0.92255 0.88542 0.82157 0.0
H340 H 0.09673 0.86854 0.81204 0.0
H341 H 0.10593 0.9718 0.80736 0.0
C342 C 0.02638 0.04796 0.8177 0.0
C343 C 0.98099 0.08181 0.82462 0.0
C344 C 0.01999 0.98882 0.81329 0.0
C345 C 0.92848 0.0575 0.82269 0.0
C346 C 0.92186 -0.00104 0.81814 0.0
C347 C 0.96227 0.90409 0.81746 0.0
C348 C 0.00901 0.86968 0.81861 0.0
C349 C 0.96757 0.96377 0.81529 0.0
C350 C 0.0601 0.8944 0.81238 0.0
C351 C 0.06557 0.95358 0.80979 0.0
H352 H 0.95047 0.88522 0.34591 0.0
H353 H 0.8518 0.03854 0.3483 0.0
H354 H 0.93423 0.09706 0.34476 0.0
H355 H 0.03286 0.10407 0.34984 0.0
H356 H 0.13092 0.95055 0.35473 0.0
H357 H 0.04952 0.89237 0.34612 0.0
C358 C 0.94653 0.93148 0.34527 0.0
C359 C 0.89477 0.95748 0.3481 0.0
C360 C 0.99403 0.96464 0.34491 0.0
C361 C 0.89091 0.01738 0.34651 0.0
C362 C 0.93811 0.0508 0.34468 0.0
C363 C 0.03694 0.05786 0.3487 0.0
C364 C 0.08803 0.03163 0.35368 0.0
C365 C 0.98978 0.02481 0.3453 0.0
C366 C 0.09223 0.97184 0.35137 0.0
C367 C 0.04561 0.93862 0.34659 0.0
loop_
_geom_bond_atom_site_label_1
_geom_bond_atom_site_label_2
_geom_bond_distance
_geom_bond_site_symmetry_2
_ccdc_geom_bond_type
Co0 O1 2.216 . S
Co0 O2 2.091 . S
Co0 O4 2.004 . S
Co0 O10 2.021 . S
Co0 O12 2.137 . S
Co0 O13 2.244 . S
O1 Co0 2.216 . S
O1 C8 1.247 . S
O2 Co0 2.091 . S
O2 C8 1.261 . S
C3 O12 1.247 . S
C3 O13 1.272 . S
O4 Co0 2.004 . S
O4 C9 1.259 . S
Co5 O6 2.061 1_655 S
Co5 O11 2.052 . S
Co5 O13 2.135 1_655 S
O6 Co5 2.061 1_455 S
O6 C9 1.235 . S
C7 O10 1.238 . S
C7 O11 1.241 1_455 S
C8 O1 1.247 . S
C8 O2 1.261 . S
C9 O4 1.259 . S
C9 O6 1.235 . S
O10 Co0 2.021 . S
O10 C7 1.238 . S
O11 Co5 2.052 . S
O11 C7 1.241 1_655 S
O12 Co0 2.137 . S
O12 C3 1.247 . S
O13 Co0 2.244 . S
O13 C3 1.272 . S
O13 Co5 2.135 1_455 S
Co14 O15 2.216 . S
Co14 O16 2.091 . S
Co14 O18 2.004 . S
Co14 O24 2.021 . S
Co14 O26 2.137 . S
Co14 O27 2.244 . S
O15 Co14 2.216 . S
O15 C22 1.247 . S
O16 Co14 2.091 . S
O16 C22 1.261 . S
C17 O26 1.247 . S
C17 O27 1.272 . S
O18 Co14 2.004 . S
O18 C23 1.259 . S
Co19 O20 2.061 . S
Co19 O25 2.052 . S
Co19 O27 2.135 . S
O20 Co19 2.061 . S
O20 C23 1.235 . S
C21 O24 1.238 . S
C21 O25 1.241 . S
C22 O15 1.247 . S
C22 O16 1.261 . S
C23 O18 1.259 . S
C23 O20 1.235 . S
O24 Co14 2.021 . S
O24 C21 1.238 . S
O25 Co19 2.052 . S
O25 C21 1.241 . S
O26 Co14 2.137 . S
O26 C17 1.247 . S
O27 Co14 2.244 . S
O27 C17 1.272 . S
O27 Co19 2.135 . S
Co28 O29 2.216 . S
Co28 O30 2.091 . S
Co28 O32 2.004 . S
Co28 O38 2.021 . S
Co28 O40 2.137 . S
Co28 O41 2.244 . S
O29 Co28 2.216 . S
O29 C36 1.247 . S
O30 Co28 2.091 . S
O30 C36 1.261 . S
C31 O40 1.247 . S
C31 O41 1.272 . S
O32 Co28 2.004 . S
O32 C37 1.259 . S
Co33 O34 2.061 1_455 S
Co33 O39 2.052 . S
Co33 O41 2.135 1_455 S
O34 Co33 2.061 1_655 S
O34 C37 1.235 . S
C35 O38 1.238 . S
C35 O39 1.241 1_655 S
C36 O29 1.247 . S
C36 O30 1.261 . S
C37 O32 1.259 . S
C37 O34 1.235 . S
O38 Co28 2.021 . S
O38 C35 1.238 . S
O39 Co33 2.052 . S
O39 C35 1.241 1_455 S
O40 Co28 2.137 . S
O40 C31 1.247 . S
O41 Co28 2.244 . S
O41 C31 1.272 . S
O41 Co33 2.135 1_655 S
Co42 O43 2.216 . S
Co42 O44 2.091 . S
Co42 O46 2.004 . S
Co42 O52 2.021 . S
Co42 O54 2.137 . S
Co42 O55 2.244 . S
O43 Co42 2.216 . S
O43 C50 1.247 . S
O44 Co42 2.091 . S
O44 C50 1.261 . S
C45 O54 1.247 . S
C45 O55 1.272 . S
O46 Co42 2.004 . S
O46 C51 1.259 . S
Co47 O48 2.061 . S
Co47 O53 2.052 . S
Co47 O55 2.135 . S
O48 Co47 2.061 . S
O48 C51 1.235 . S
C49 O52 1.238 . S
C49 O53 1.241 . S
C50 O43 1.247 . S
C50 O44 1.261 . S
C51 O46 1.259 . S
C51 O48 1.235 . S
O52 Co42 2.021 . S
O52 C49 1.238 . S
O53 Co47 2.052 . S
O53 C49 1.241 . S
O54 Co42 2.137 . S
O54 C45 1.247 . S
O55 Co42 2.244 . S
O55 C45 1.272 . S
O55 Co47 2.135 . S
Co56 O57 2.216 . S
Co56 O58 2.091 . S
Co56 O60 2.004 . S
Co56 O66 2.021 . S
Co56 O68 2.137 . S
Co56 O69 2.244 . S
O57 Co56 2.216 . S
O57 C64 1.247 . S
O58 Co56 2.091 . S
O58 C64 1.261 . S
C59 O68 1.247 . S
C59 O69 1.272 . S
O60 Co56 2.004 . S
O60 C65 1.259 . S
Co61 O62 2.061 1_655 S
Co61 O67 2.052 . S
Co61 O69 2.135 1_655 S
O62 Co61 2.061 1_455 S
O62 C65 1.235 . S
C63 O66 1.238 . S
C63 O67 1.241 1_455 S
C64 O57 1.247 . S
C64 O58 1.261 . S
C65 O60 1.259 . S
C65 O62 1.235 . S
O66 Co56 2.021 . S
O66 C63 1.238 . S
O67 Co61 2.052 . S
O67 C63 1.241 1_655 S
O68 Co56 2.137 . S
O68 C59 1.247 . S
O69 Co56 2.244 . S
O69 C59 1.272 . S
O69 Co61 2.135 1_455 S
Co70 O71 2.216 . S
Co70 O72 2.091 . S
Co70 O74 2.004 . S
Co70 O80 2.021 . S
Co70 O82 2.137 . S
Co70 O83 2.244 . S
O71 Co70 2.216 . S
O71 C78 1.247 . S
O72 Co70 2.091 . S
O72 C78 1.261 . S
C73 O82 1.247 . S
C73 O83 1.272 . S
O74 Co70 2.004 . S
O74 C79 1.259 . S
Co75 O76 2.061 . S
Co75 O81 2.052 . S
Co75 O83 2.135 . S
O76 Co75 2.061 . S
O76 C79 1.235 . S
C77 O80 1.238 . S
C77 O81 1.241 . S
C78 O71 1.247 . S
C78 O72 1.261 . S
C79 O74 1.259 . S
C79 O76 1.235 . S
O80 Co70 2.021 . S
O80 C77 1.238 . S
O81 Co75 2.052 . S
O81 C77 1.241 . S
O82 Co70 2.137 . S
O82 C73 1.247 . S
O83 Co70 2.244 . S
O83 C73 1.272 . S
O83 Co75 2.135 . S
Co84 O85 2.216 . S
Co84 O86 2.091 . S
Co84 O88 2.004 . S
Co84 O94 2.021 . S
Co84 O96 2.137 . S
Co84 O97 2.244 . S
O85 Co84 2.216 . S
O85 C92 1.247 . S
O86 Co84 2.091 . S
O86 C92 1.261 . S
C87 O96 1.247 . S
C87 O97 1.272 . S
O88 Co84 2.004 . S
O88 C93 1.259 . S
Co89 O90 2.061 1_455 S
Co89 O95 2.052 . S
Co89 O97 2.135 1_455 S
O90 Co89 2.061 1_655 S
O90 C93 1.235 . S
C91 O94 1.238 . S
C91 O95 1.241 1_655 S
C92 O85 1.247 . S
C92 O86 1.261 . S
C93 O88 1.259 . S
C93 O90 1.235 . S
O94 Co84 2.021 . S
O94 C91 1.238 . S
O95 Co89 2.052 . S
O95 C91 1.241 1_455 S
O96 Co84 2.137 . S
O96 C87 1.247 . S
O97 Co84 2.244 . S
O97 C87 1.272 . S
O97 Co89 2.135 1_655 S
Co98 O99 2.216 . S
Co98 O100 2.091 . S
Co98 O102 2.004 . S
Co98 O108 2.021 . S
Co98 O110 2.137 . S
Co98 O111 2.244 . S
O99 Co98 2.216 . S
O99 C106 1.247 . S
O100 Co98 2.091 . S
O100 C106 1.261 . S
C101 O110 1.247 . S
C101 O111 1.272 . S
O102 Co98 2.004 . S
O102 C107 1.259 . S
Co103 O104 2.061 . S
Co103 O109 2.052 . S
Co103 O111 2.135 . S
O104 Co103 2.061 . S
O104 C107 1.235 . S
C105 O108 1.238 . S
C105 O109 1.241 . S
C106 O99 1.247 . S
C106 O100 1.261 . S
C107 O102 1.259 . S
C107 O104 1.235 . S
O108 Co98 2.021 . S
O108 C105 1.238 . S
O109 Co103 2.052 . S
O109 C105 1.241 . S
O110 Co98 2.137 . S
O110 C101 1.247 . S
O111 Co98 2.244 . S
O111 C101 1.272 . S
O111 Co103 2.135 . S
H112 C118 0.930 . S
H113 C121 0.930 . S
H114 C122 0.930 . S
H115 C123 0.930 . S
H116 C126 0.930 . S
H117 C127 0.930 . S
C118 H112 0.930 . S
C118 C119 1.355 1_655 S
C118 C120 1.415 . S
C119 C118 1.355 1_455 S
C119 C121 1.419 . S
C120 C118 1.415 . S
C120 C125 1.425 1_655 S
C120 C127 1.409 . S
C121 H113 0.930 . S
C121 C119 1.419 . S
C121 C122 1.362 . S
C122 H114 0.930 . S
C122 C121 1.362 . S
C122 C125 1.409 . S
C123 H115 0.930 . S
C123 C124 1.355 1_455 S
C123 C125 1.415 . S
C124 C123 1.355 1_655 S
C124 C126 1.419 . S
C125 C120 1.425 1_455 S
C125 C122 1.409 . S
C125 C123 1.415 . S
C126 H116 0.930 . S
C126 C124 1.419 . S
C126 C127 1.362 . S
C127 H117 0.930 . S
C127 C120 1.409 . S
C127 C126 1.362 . S
H128 C134 0.930 . S
H129 C137 0.930 . S
H130 C138 0.930 . S
H131 C139 0.930 . S
H132 C142 0.930 . S
H133 C143 0.930 . S
C134 H128 0.930 . S
C134 C135 1.355 1_545 S
C134 C136 1.415 . S
C135 C134 1.355 1_565 S
C135 C137 1.419 . S
C136 C134 1.415 . S
C136 C141 1.425 1_545 S
C136 C143 1.409 . S
C137 H129 0.930 . S
C137 C135 1.419 . S
C137 C138 1.362 . S
C138 H130 0.930 . S
C138 C137 1.362 . S
C138 C141 1.409 . S
C139 H131 0.930 . S
C139 C140 1.355 1_565 S
C139 C141 1.415 . S
C140 C139 1.355 1_545 S
C140 C142 1.419 . S
C141 C136 1.425 1_565 S
C141 C138 1.409 . S
C141 C139 1.415 . S
C142 H132 0.930 . S
C142 C140 1.419 . S
C142 C143 1.362 . S
C143 H133 0.930 . S
C143 C136 1.409 . S
C143 C142 1.362 . S
H144 C150 0.930 . S
H145 C153 0.930 . S
H146 C154 0.930 . S
H147 C155 0.930 . S
H148 C158 0.930 . S
H149 C159 0.930 . S
C150 H144 0.930 . S
C150 C151 1.355 . S
C150 C152 1.415 . S
C151 C150 1.355 . S
C151 C153 1.419 1_655 S
C152 C150 1.415 . S
C152 C157 1.425 1_655 S
C152 C159 1.409 . S
C153 H145 0.930 . S
C153 C151 1.419 1_455 S
C153 C154 1.362 . S
C154 H146 0.930 . S
C154 C153 1.362 . S
C154 C157 1.409 . S
C155 H147 0.930 . S
C155 C156 1.355 . S
C155 C157 1.415 . S
C156 C155 1.355 . S
C156 C158 1.419 1_455 S
C157 C152 1.425 1_455 S
C157 C154 1.409 . S
C157 C155 1.415 . S
C158 H148 0.930 . S
C158 C156 1.419 1_655 S
C158 C159 1.362 . S
C159 H149 0.930 . S
C159 C152 1.409 . S
C159 C158 1.362 . S
H160 C166 0.930 . S
H161 C169 0.930 . S
H162 C170 0.930 . S
H163 C171 0.930 . S
H164 C174 0.930 . S
H165 C175 0.930 . S
C166 H160 0.930 . S
C166 C167 1.355 1_565 S
C166 C168 1.415 . S
C167 C166 1.355 1_545 S
C167 C169 1.419 . S
C168 C166 1.415 . S
C168 C173 1.425 1_565 S
C168 C175 1.409 . S
C169 H161 0.930 . S
C169 C167 1.419 . S
C169 C170 1.362 . S
C170 H162 0.930 . S
C170 C169 1.362 . S
C170 C173 1.409 . S
C171 H163 0.930 . S
C171 C172 1.355 1_545 S
C171 C173 1.415 . S
C172 C171 1.355 1_565 S
C172 C174 1.419 . S
C173 C168 1.425 1_545 S
C173 C170 1.409 . S
C173 C171 1.415 . S
C174 H164 0.930 . S
C174 C172 1.419 . S
C174 C175 1.362 . S
C175 H165 0.930 . S
C175 C168 1.409 . S
C175 C174 1.362 . S
H176 C182 0.930 . S
H177 C185 0.930 . S
H178 C186 0.930 . S
H179 C187 0.930 . S
H180 C190 0.930 . S
H181 C191 0.930 . S
C182 H176 0.930 . S
C182 C183 1.355 . S
C182 C184 1.415 1_655 S
C183 C182 1.355 . S
C183 C185 1.419 . S
C184 C182 1.415 1_455 S
C184 C189 1.425 1_456 S
C184 C191 1.409 . S
C185 H177 0.930 . S
C185 C183 1.419 . S
C185 C186 1.362 1_556 S
C186 H178 0.930 . S
C186 C185 1.362 1_554 S
C186 C189 1.409 . S
C187 H179 0.930 . S
C187 C188 1.355 . S
C187 C189 1.415 1_455 S
C188 C187 1.355 . S
C188 C190 1.419 . S
C189 C184 1.425 1_654 S
C189 C186 1.409 . S
C189 C187 1.415 1_655 S
C190 H180 0.930 . S
C190 C188 1.419 . S
C190 C191 1.362 1_554 S
C191 H181 0.930 . S
C191 C184 1.409 . S
C191 C190 1.362 1_556 S
H192 C198 0.930 . S
H193 C201 0.930 . S
H194 C202 0.930 . S
H195 C203 0.930 . S
H196 C206 0.930 . S
H197 C207 0.930 . S
C198 H192 0.930 . S
C198 C199 1.355 . S
C198 C200 1.415 . S
C199 C198 1.355 . S
C199 C201 1.419 . S
C200 C198 1.415 . S
C200 C205 1.425 1_545 S
C200 C207 1.409 . S
C201 H193 0.930 . S
C201 C199 1.419 . S
C201 C202 1.362 1_545 S
C202 H194 0.930 . S
C202 C201 1.362 1_565 S
C202 C205 1.409 . S
C203 H195 0.930 . S
C203 C204 1.355 . S
C203 C205 1.415 . S
C204 C203 1.355 . S
C204 C206 1.419 . S
C205 C200 1.425 1_565 S
C205 C202 1.409 . S
C205 C203 1.415 . S
C206 H196 0.930 . S
C206 C204 1.419 . S
C206 C207 1.362 1_565 S
C207 H197 0.930 . S
C207 C200 1.409 . S
C207 C206 1.362 1_545 S
H208 C214 0.930 . S
H209 C217 0.930 . S
H210 C218 0.930 . S
H211 C219 0.930 . S
H212 C222 0.930 . S
H213 C223 0.930 . S
C214 H208 0.930 . S
C214 C215 1.355 . S
C214 C216 1.415 1_655 S
C215 C214 1.355 . S
C215 C217 1.419 . S
C216 C214 1.415 1_455 S
C216 C221 1.425 1_454 S
C216 C223 1.409 . S
C217 H209 0.930 . S
C217 C215 1.419 . S
C217 C218 1.362 1_554 S
C218 H210 0.930 . S
C218 C217 1.362 1_556 S
C218 C221 1.409 . S
C219 H211 0.930 . S
C219 C220 1.355 . S
C219 C221 1.415 1_455 S
C220 C219 1.355 . S
C220 C222 1.419 . S
C221 C216 1.425 1_656 S
C221 C218 1.409 . S
C221 C219 1.415 1_655 S
C222 H212 0.930 . S
C222 C220 1.419 . S
C222 C223 1.362 1_556 S
C223 H213 0.930 . S
C223 C216 1.409 . S
C223 C222 1.362 1_554 S
H224 C230 0.930 . S
H225 C233 0.930 . S
H226 C234 0.930 . S
H227 C235 0.930 . S
H228 C238 0.930 . S
H229 C239 0.930 . S
C230 H224 0.930 . S
C230 C231 1.355 . S
C230 C232 1.415 . S
C231 C230 1.355 . S
C231 C233 1.419 . S
C232 C230 1.415 . S
C232 C237 1.425 1_545 S
C232 C239 1.409 . S
C233 H225 0.930 . S
C233 C231 1.419 . S
C233 C234 1.362 1_545 S
C234 H226 0.930 . S
C234 C233 1.362 1_565 S
C234 C237 1.409 . S
C235 H227 0.930 . S
C235 C236 1.355 . S
C235 C237 1.415 . S
C236 C235 1.355 . S
C236 C238 1.419 . S
C237 C232 1.425 1_565 S
C237 C234 1.409 . S
C237 C235 1.415 . S
C238 H228 0.930 . S
C238 C236 1.419 . S
C238 C239 1.362 1_565 S
C239 H229 0.930 . S
C239 C232 1.409 . S
C239 C238 1.362 1_545 S
H240 C246 0.930 . S
H241 C249 0.930 . S
H242 C250 0.930 . S
H243 C251 0.930 . S
H244 C254 0.930 . S
H245 C255 0.930 . S
C246 H240 0.930 . S
C246 C247 1.355 . S
C246 C248 1.415 . S
C247 C246 1.355 . S
C247 C249 1.419 . S
C248 C246 1.415 . S
C248 C253 1.425 . S
C248 C255 1.409 . S
C249 H241 0.930 . S
C249 C247 1.419 . S
C249 C250 1.362 . S
C250 H242 0.930 . S
C250 C249 1.362 . S
C250 C253 1.409 . S
C251 H243 0.930 . S
C251 C252 1.355 . S
C251 C253 1.415 . S
C252 C251 1.355 . S
C252 C254 1.419 . S
C253 C248 1.425 . S
C253 C250 1.409 . S
C253 C251 1.415 . S
C254 H244 0.930 . S
C254 C252 1.419 . S
C254 C255 1.362 . S
C255 H245 0.930 . S
C255 C248 1.409 . S
C255 C254 1.362 . S
H256 C262 0.930 . S
H257 C265 0.930 . S
H258 C266 0.930 . S
H259 C267 0.930 . S
H260 C270 0.930 . S
H261 C271 0.930 . S
C262 H256 0.930 . S
C262 C263 1.355 . S
C262 C264 1.415 . S
C263 C262 1.355 . S
C263 C265 1.419 . S
C264 C262 1.415 . S
C264 C269 1.425 . S
C264 C271 1.409 . S
C265 H257 0.930 . S
C265 C263 1.419 . S
C265 C266 1.362 . S
C266 H258 0.930 . S
C266 C265 1.362 . S
C266 C269 1.409 . S
C267 H259 0.930 . S
C267 C268 1.355 . S
C267 C269 1.415 . S
C268 C267 1.355 . S
C268 C270 1.419 . S
C269 C264 1.425 . S
C269 C266 1.409 . S
C269 C267 1.415 . S
C270 H260 0.930 . S
C270 C268 1.419 . S
C270 C271 1.362 . S
C271 H261 0.930 . S
C271 C264 1.409 . S
C271 C270 1.362 . S
H272 C278 0.930 . S
H273 C281 0.930 . S
H274 C282 0.930 . S
H275 C283 0.930 . S
H276 C286 0.930 . S
H277 C287 0.930 . S
C278 H272 0.930 . S
C278 C279 1.355 . S
C278 C280 1.415 . S
C279 C278 1.355 . S
C279 C281 1.419 . S
C280 C278 1.415 . S
C280 C285 1.425 . S
C280 C287 1.409 . S
C281 H273 0.930 . S
C281 C279 1.419 . S
C281 C282 1.362 . S
C282 H274 0.930 . S
C282 C281 1.362 . S
C282 C285 1.409 . S
C283 H275 0.930 . S
C283 C284 1.355 . S
C283 C285 1.415 . S
C284 C283 1.355 . S
C284 C286 1.419 . S
C285 C280 1.425 . S
C285 C282 1.409 . S
C285 C283 1.415 . S
C286 H276 0.930 . S
C286 C284 1.419 . S
C286 C287 1.362 . S
C287 H277 0.930 . S
C287 C280 1.409 . S
C287 C286 1.362 . S
H288 C294 0.930 . S
H289 C297 0.930 . S
H290 C298 0.930 . S
H291 C299 0.930 . S
H292 C302 0.930 . S
H293 C303 0.930 . S
C294 H288 0.930 . S
C294 C295 1.355 . S
C294 C296 1.415 . S
C295 C294 1.355 . S
C295 C297 1.419 . S
C296 C294 1.415 . S
C296 C301 1.425 . S
C296 C303 1.409 . S
C297 H289 0.930 . S
C297 C295 1.419 . S
C297 C298 1.362 . S
C298 H290 0.930 . S
C298 C297 1.362 . S
C298 C301 1.409 . S
C299 H291 0.930 . S
C299 C300 1.355 . S
C299 C301 1.415 . S
C300 C299 1.355 . S
C300 C302 1.419 . S
C301 C296 1.425 . S
C301 C298 1.409 . S
C301 C299 1.415 . S
C302 H292 0.930 . S
C302 C300 1.419 . S
C302 C303 1.362 . S
C303 H293 0.930 . S
C303 C296 1.409 . S
C303 C302 1.362 . S
H304 C310 0.930 . S
H305 C313 0.930 . S
H306 C314 0.930 . S
H307 C315 0.930 . S
H308 C318 0.930 . S
H309 C319 0.930 . S
C310 H304 0.930 . S
C310 C311 1.355 . S
C310 C312 1.415 . S
C311 C310 1.355 . S
C311 C313 1.419 1_455 S
C312 C310 1.415 . S
C312 C317 1.425 1_445 S
C312 C319 1.409 1_545 S
C313 H305 0.930 . S
C313 C311 1.419 1_655 S
C313 C314 1.362 . S
C314 H306 0.930 . S
C314 C313 1.362 . S
C314 C317 1.409 1_545 S
C315 H307 0.930 . S
C315 C316 1.355 . S
C315 C317 1.415 . S
C316 C315 1.355 . S
C316 C318 1.419 1_655 S
C317 C312 1.425 1_665 S
C317 C314 1.409 1_565 S
C317 C315 1.415 . S
C318 H308 0.930 . S
C318 C316 1.419 1_455 S
C318 C319 1.362 . S
C319 H309 0.930 . S
C319 C312 1.409 1_565 S
C319 C318 1.362 . S
H320 C326 0.930 . S
H321 C329 0.930 . S
H322 C330 0.930 1_655 S
H323 C331 0.930 . S
H324 C334 0.930 . S
H325 C335 0.930 1_455 S
C326 H320 0.930 . S
C326 C327 1.355 1_545 S
C326 C328 1.415 . S
C327 C326 1.355 1_565 S
C327 C329 1.419 . S
C328 C326 1.415 . S
C328 C333 1.425 1_445 S
C328 C335 1.409 1_455 S
C329 H321 0.930 . S
C329 C327 1.419 . S
C329 C330 1.362 . S
C330 H322 0.930 1_455 S
C330 C329 1.362 . S
C330 C333 1.409 1_455 S
C331 H323 0.930 . S
C331 C332 1.355 1_565 S
C331 C333 1.415 . S
C332 C331 1.355 1_545 S
C332 C334 1.419 . S
C333 C328 1.425 1_665 S
C333 C330 1.409 1_655 S
C333 C331 1.415 . S
C334 H324 0.930 . S
C334 C332 1.419 . S
C334 C335 1.362 . S
C335 H325 0.930 1_655 S
C335 C328 1.409 1_655 S
C335 C334 1.362 . S
H336 C342 0.930 . S
H337 C345 0.930 . S
H338 C346 0.930 1_565 S
H339 C347 0.930 . S
H340 C350 0.930 . S
H341 C351 0.930 1_545 S
C342 H336 0.930 . S
C342 C343 1.355 1_455 S
C342 C344 1.415 . S
C343 C342 1.355 1_655 S
C343 C345 1.419 . S
C344 C342 1.415 . S
C344 C349 1.425 1_445 S
C344 C351 1.409 1_545 S
C345 H337 0.930 . S
C345 C343 1.419 . S
C345 C346 1.362 . S
C346 H338 0.930 1_545 S
C346 C345 1.362 . S
C346 C349 1.409 1_545 S
C347 H339 0.930 . S
C347 C348 1.355 1_655 S
C347 C349 1.415 . S
C348 C347 1.355 1_455 S
C348 C350 1.419 . S
C349 C344 1.425 1_665 S
C349 C346 1.409 1_565 S
C349 C347 1.415 . S
C350 H340 0.930 . S
C350 C348 1.419 . S
C350 C351 1.362 . S
C351 H341 0.930 1_565 S
C351 C344 1.409 1_565 S
C351 C350 1.362 . S
H352 C358 0.930 . S
H353 C361 0.930 . S
H354 C362 0.934 . S
H355 C363 0.930 . S
H356 C366 0.930 . S
H357 C367 0.934 . S
C358 H352 0.930 . S
C358 C359 1.355 1_545 S
C358 C360 1.415 . S
C359 C358 1.355 1_565 S
C359 C361 1.419 . S
C360 C358 1.415 . S
C360 C365 1.425 1_645 S
C360 C367 1.409 1_655 S
C361 H353 0.930 . S
C361 C359 1.419 . S
C361 C362 1.362 . S
C362 H354 0.934 . S
C362 C361 1.362 . S
C362 C365 1.409 1_655 S
C363 H355 0.930 . S
C363 C364 1.355 1_565 S
C363 C365 1.415 . S
C364 C363 1.355 1_545 S
C364 C366 1.419 . S
C365 C360 1.425 1_465 S
C365 C362 1.409 1_455 S
C365 C363 1.415 . S
C366 H356 0.930 . S
C366 C364 1.419 . S
C366 C367 1.362 . S
C367 H357 0.934 . S
C367 C360 1.409 1_455 S
C367 C366 1.362 . S
C119 C3 1.379 . S
C124 C31 1.381 . S
C135 C50 1.410 . S
C140 C22 1.420 . S
C151 C87 1.408 . S
C156 C59 1.396 . S
C167 C78 1.413 . S
C172 C106 1.416 . S
C183 C93 1.630 . S
C188 C9 1.630 . S
C199 C21 1.709 . S
C204 C105 1.668 . S
C215 C37 1.619 . S
C220 C65 1.620 . S
C231 C77 1.664 . S
C236 C49 1.655 . S
C247 C8 1.545 . S
C252 C73 1.493 . S
C263 C92 1.514 . S
C268 C17 1.514 . S
C279 C101 1.428 . S
C284 C36 1.520 . S
C295 C45 1.427 . S
C300 C64 1.504 . S
C311 C7 1.033 . S
C316 C35 1.006 . S
C327 C51 0.975 . S
C332 C23 0.964 . S
C343 C91 1.024 . S
C348 C63 1.042 . S
C359 C107 0.961 . S
C364 C79 0.969 . S
