# Generated by pormake.
# Topology sva, (7)-cn, num edge types: 1
# Building blocks:
#     Node 0, Type 0, BuildingBlock: HICVOG_clean_sbu_0, # of connection points: 7
#     Node 1, Type 0, BuildingBlock: HICVOG_clean_sbu_0, # of connection points: 7
#     Node 2, Type 0, BuildingBlock: HICVOG_clean_sbu_0, # of connection points: 7
#     Node 3, Type 0, BuildingBlock: HICVOG_clean_sbu_0, # of connection points: 7
#     Node 4, Type 0, BuildingBlock: HICVOG_clean_sbu_0, # of connection points: 7
#     Node 5, Type 0, BuildingBlock: HICVOG_clean_sbu_0, # of connection points: 7
#     Node 6, Type 0, BuildingBlock: HICVOG_clean_sbu_0, # of connection points: 7
#     Node 7, Type 0, BuildingBlock: HICVOG_clean_sbu_0, # of connection points: 7
#     Edge 8, Type (0, 0), BuildingBlock: TEMPAE_clean_linker_10, # of connection points: 2
#     Edge 9, Type (0, 0), BuildingBlock: TEMPAE_clean_linker_10, # of connection points: 2
#     Edge 10, Type (0, 0), BuildingBlock: TEMPAE_clean_linker_10, # of connection points: 2
#     Edge 11, Type (0, 0), BuildingBlock: TEMPAE_clean_linker_10, # of connection points: 2
#     Edge 12, Type (0, 0), BuildingBlock: TEMPAE_clean_linker_10, # of connection points: 2
#     Edge 13, Type (0, 0), BuildingBlock: TEMPAE_clean_linker_10, # of connection points: 2
#     Edge 14, Type (0, 0), BuildingBlock: TEMPAE_clean_linker_10, # of connection points: 2
#     Edge 15, Type (0, 0), BuildingBlock: TEMPAE_clean_linker_10, # of connection points: 2
#     Edge 16, Type (0, 0), BuildingBlock: TEMPAE_clean_linker_10, # of connection points: 2
#     Edge 17, Type (0, 0), BuildingBlock: TEMPAE_clean_linker_10, # of connection points: 2
#     Edge 18, Type (0, 0), BuildingBlock: TEMPAE_clean_linker_10, # of connection points: 2
#     Edge 19, Type (0, 0), BuildingBlock: TEMPAE_clean_linker_10, # of connection points: 2
#     Edge 20, Type (0, 0), BuildingBlock: TEMPAE_clean_linker_10, # of connection points: 2
#     Edge 21, Type (0, 0), BuildingBlock: TEMPAE_clean_linker_10, # of connection points: 2
#     Edge 22, Type (0, 0), BuildingBlock: TEMPAE_clean_linker_10, # of connection points: 2
#     Edge 23, Type (0, 0), BuildingBlock: TEMPAE_clean_linker_10, # of connection points: 2
#     Edge 24, Type (0, 0), BuildingBlock: TEMPAE_clean_linker_10, # of connection points: 2
#     Edge 25, Type (0, 0), BuildingBlock: TEMPAE_clean_linker_10, # of connection points: 2
#     Edge 26, Type (0, 0), BuildingBlock: TEMPAE_clean_linker_10, # of connection points: 2
#     Edge 27, Type (0, 0), BuildingBlock: TEMPAE_clean_linker_10, # of connection points: 2
#     Edge 28, Type (0, 0), BuildingBlock: TEMPAE_clean_linker_10, # of connection points: 2
#     Edge 29, Type (0, 0), BuildingBlock: TEMPAE_clean_linker_10, # of connection points: 2
#     Edge 30, Type (0, 0), BuildingBlock: TEMPAE_clean_linker_10, # of connection points: 2
#     Edge 31, Type (0, 0), BuildingBlock: TEMPAE_clean_linker_10, # of connection points: 2
#     Edge 32, Type (0, 0), BuildingBlock: TEMPAE_clean_linker_10, # of connection points: 2
#     Edge 33, Type (0, 0), BuildingBlock: TEMPAE_clean_linker_10, # of connection points: 2
#     Edge 34, Type (0, 0), BuildingBlock: TEMPAE_clean_linker_10, # of connection points: 2
#     Edge 35, Type (0, 0), BuildingBlock: TEMPAE_clean_linker_10, # of connection points: 2
# Relax obj value: 0.232
# Max RMSD: 0.271
# Mean RMSD: 0.271
data_MOF--net-sva--node1-HICVOG_clean_sbu_0--edge1-TEMPAE_clean_linker_10
_symmetry_space_group_name_H-M    P1
_symmetry_Int_Tables_number       1
_symmetry_cell_setting            triclinic
loop_
_symmetry_equiv_pos_as_xyz
'x, y, z'
_cell_length_a     40.703488
_cell_length_b     40.701135
_cell_length_c     20.443703
_cell_angle_alpha  89.903497
_cell_angle_beta   89.883152
_cell_angle_gamma 90.116717
loop_
_atom_site_label
_atom_site_type_symbol
_atom_site_fract_x
_atom_site_fract_y
_atom_site_fract_z
_atom_type_partial_charge
Zn0 Zn 0.05981 0.19925 0.90729 0.0
C1 C 0.0939 0.23911 0.07348 0.0
N2 N 0.12056 0.22074 0.05993 0.0
C3 C 0.11078 0.20326 0.00789 0.0
N4 N 0.07993 0.2108 0.98974 0.0
N5 N 0.0687 0.23252 0.03246 0.0
C6 C 0.97441 0.28032 0.09418 0.0
O7 O 0.95752 0.2528 0.09207 0.0
O8 O 0.07426 0.15507 0.87558 0.0
Zn9 Zn 0.02301 0.2337 0.06247 0.0
N10 N 0.06862 0.23311 0.84279 0.0
C11 C 0.08084 0.28911 0.81931 0.0
C12 C 0.07643 0.26371 0.86432 0.0
C13 C 0.0654 0.22673 0.77776 0.0
N14 N 0.0771 0.28293 0.75451 0.0
C15 C 0.06964 0.25234 0.73211 0.0
O16 O 0.98956 0.21009 0.00423 0.0
C17 C 0.98707 0.19504 0.94992 0.0
O18 O 1.01167 0.19137 0.91257 0.0
H19 H 0.07872 0.26849 0.9161 0.0
H20 H 0.05857 0.20226 0.76214 0.0
C21 C 0.02847 0.2214 0.20242 0.0
C22 C 0.02605 0.20125 0.25828 0.0
C23 C 1.01193 0.15602 0.19067 0.0
C24 C 1.01436 0.17599 0.13558 0.0
N25 N 0.02213 0.20829 0.14246 0.0
N26 N 1.01763 0.1691 0.25053 0.0
H27 H 0.03461 0.2472 0.20649 0.0
C28 C 0.07078 0.1322 0.91736 0.0
O29 O 0.06468 0.13996 0.97852 0.0
O30 O 1.00516 0.27933 0.08264 0.0
H31 H 1.00988 0.16584 0.08758 0.0
H32 H 0.08682 0.31364 0.83576 0.0
H33 H 1.00548 0.13034 0.18599 0.0
Zn34 Zn 0.84865 0.56111 0.17023 0.0
C35 C 0.80455 0.59547 0.33033 0.0
N36 N 0.82262 0.62257 0.31771 0.0
C37 C 0.84209 0.61269 0.26859 0.0
N38 N 0.83591 0.58145 0.25114 0.0
N39 N 0.8131 0.57001 0.29142 0.0
C40 C 0.75229 0.49352 0.32597 0.0
O41 O 0.7567 0.49394 0.26229 0.0
O42 O 0.89304 0.57551 0.13994 0.0
Zn43 Zn 0.8163 0.52569 0.32744 0.0
N44 N 0.81652 0.57079 0.10356 0.0
C45 C 0.76418 0.59143 0.07272 0.0
C46 C 0.78703 0.58374 0.12099 0.0
C47 C 0.82405 0.56496 0.0398 0.0
N48 N 0.77168 0.58575 0.009 0.0
C49 C 0.80101 0.5725 0.99078 0.0
O50 O 0.83771 0.49082 0.26944 0.0
C51 C 0.8518 0.48814 0.21398 0.0
O52 O 0.85539 0.51272 0.17638 0.0
H53 H 0.78139 0.58825 0.17187 0.0
H54 H 0.848 0.55519 0.02777 0.0
C55 C 0.83449 0.53512 0.46233 0.0
C56 C 0.85712 0.53929 0.51367 0.0
C57 C 0.90096 0.53319 0.4377 0.0
C58 C 0.87846 0.52888 0.38725 0.0
N59 N 0.84577 0.52997 0.40051 0.0
N60 N 0.88982 0.53832 0.49944 0.0
H61 H 0.80829 0.53664 0.47075 0.0
C62 C 0.91613 0.57316 0.18126 0.0
O63 O 0.90875 0.56888 0.24324 0.0
O64 O 0.77352 0.50717 0.36251 0.0
H65 H 0.88688 0.52496 0.33769 0.0
H66 H 0.74066 0.60192 0.08572 0.0
H67 H 0.92708 0.53255 0.42793 0.0
Zn68 Zn 0.49503 0.34606 0.40654 0.0
C69 C 0.44881 0.30158 0.55401 0.0
N70 N 0.42267 0.31914 0.53401 0.0
C71 C 0.43562 0.33869 0.48777 0.0
N72 N 0.46802 0.3332 0.47945 0.0
N73 N 0.47669 0.31047 0.52249 0.0
C74 C 0.56447 0.2557 0.55738 0.0
O75 O 0.57659 0.27462 0.51113 0.0
O76 O 0.47817 0.3856 0.35926 0.0
Zn77 Zn 0.51963 0.31004 0.56585 0.0
N78 N 0.50002 0.30911 0.34838 0.0
C79 C 0.51442 0.25298 0.33371 0.0
C80 C 0.50872 0.27971 0.37469 0.0
C81 C 0.49664 0.31291 0.28266 0.0
N82 N 0.51152 0.25682 0.26799 0.0
C83 C 0.50261 0.28609 0.24101 0.0
O84 O 0.55638 0.33774 0.52422 0.0
C85 C 0.5612 0.35658 0.47542 0.0
O86 O 0.53957 0.36109 0.43199 0.0
H87 H 0.51172 0.27723 0.42701 0.0
H88 H 0.49053 0.33686 0.26317 0.0
C89 C 0.51157 0.31971 0.7068 0.0
C90 C 0.50673 0.34005 0.76159 0.0
C91 C 0.50131 0.38618 0.69122 0.0
C92 C 0.5063 0.36607 0.63723 0.0
N93 N 0.51165 0.33342 0.64601 0.0
N94 N 0.50186 0.37279 0.75195 0.0
H95 H 0.51601 0.29364 0.71232 0.0
C96 C 0.47704 0.41076 0.39576 0.0
O97 O 0.48147 0.40704 0.45894 0.0
O98 O 0.53828 0.26463 0.58653 0.0
H99 H 0.50622 0.37636 0.5884 0.0
H100 H 0.52155 0.22947 0.35388 0.0
H101 H 0.49725 0.41226 0.68503 0.0
Zn102 Zn 0.73359 0.02013 0.80546 0.0
C103 C 0.70403 0.93121 0.7539 0.0
N104 N 0.72182 0.92206 0.80601 0.0
C105 C 0.7397 0.94923 0.81868 0.0
N106 N 0.73249 0.97411 0.77718 0.0
N107 N 0.71091 0.96216 0.73497 0.0
C108 C 0.63171 0.96941 0.66509 0.0
O109 O 0.63995 0.97601 0.72575 0.0
O110 O 0.77918 0.03827 0.82544 0.0
Zn111 Zn 0.69855 0.98146 0.65228 0.0
N112 N 0.70811 0.02143 0.88554 0.0
C113 C 0.65591 0.03212 0.93339 0.0
C114 C 0.67592 0.02947 0.87843 0.0
C115 C 0.72105 1.01503 0.94567 0.0
N116 N 0.66882 0.02636 0.99338 0.0
C117 C 0.70084 1.01767 0.00144 0.0
O118 O 0.69049 0.02939 0.65696 0.0
C119 C 0.6945 0.05471 0.69203 0.0
O120 O 0.71015 0.05332 0.74584 0.0
H121 H 0.66589 0.03396 0.83033 0.0
H122 H 0.74677 1.00866 0.94996 0.0
C123 C 0.72547 0.97661 0.52197 0.0
C124 C 0.75091 0.97261 0.47588 0.0
C125 C 0.78782 0.96048 0.56233 0.0
C126 C 0.76261 0.96467 0.60778 0.0
N127 N 0.73202 0.97284 0.58687 0.0
N128 N 0.78149 0.96478 0.49772 0.0
H129 H 0.70102 0.98371 0.50683 0.0
C130 C 0.78003 0.06905 0.83664 0.0
O131 O 0.75243 0.08569 0.83439 0.0
O132 O 0.65423 0.96627 0.62247 0.0
H133 H 0.76754 0.96195 0.65943 0.0
H134 H 0.63032 0.03878 0.9285 0.0
H135 H 0.81234 0.95422 0.57831 0.0
Zn136 Zn 0.5572 0.70095 0.39582 0.0
C137 C 0.59241 0.74092 0.56013 0.0
N138 N 0.61836 0.72138 0.54758 0.0
C139 C 0.60792 0.70361 0.4965 0.0
N140 N 0.5774 0.71211 0.47795 0.0
N141 N 0.56698 0.73485 0.51933 0.0
C142 C 0.4736 0.78028 0.59128 0.0
O143 O 0.45758 0.75223 0.59042 0.0
O144 O 0.56929 0.65571 0.36668 0.0
Zn145 Zn 0.52181 0.73539 0.55181 0.0
N146 N 0.56939 0.73295 0.33009 0.0
C147 C 0.59464 0.78378 0.3017 0.0
C148 C 0.58506 0.7609 0.34883 0.0
C149 C 0.56267 0.727 0.26605 0.0
N150 N 0.58806 0.77784 0.23773 0.0
C151 C 0.57211 0.75011 0.21818 0.0
O152 O 0.48755 0.71346 0.49333 0.0
C153 C 0.48434 0.69957 0.43799 0.0
O154 O 0.50866 0.69579 0.39992 0.0
H155 H 0.59028 0.76531 0.39988 0.0
H156 H 0.55072 0.70419 0.2529 0.0
C157 C 0.5296 0.72001 0.68948 0.0
C158 C 0.53191 0.69808 0.74264 0.0
C159 C 0.52026 0.65364 0.67105 0.0
C160 C 0.51807 0.67539 0.61872 0.0
N161 N 0.52275 0.70804 0.62887 0.0
N162 N 0.5272 0.66542 0.73147 0.0
H163 H 0.53405 0.74605 0.69549 0.0
C164 C 0.56267 0.63379 0.40897 0.0
O165 O 0.55546 0.64289 0.46892 0.0
O166 O 0.50405 0.78035 0.57669 0.0
H167 H 0.5131 0.66632 0.57006 0.0
H168 H 0.60729 0.80606 0.31578 0.0
H169 H 0.51674 0.62755 0.66371 0.0
Zn170 Zn 0.34504 0.05965 0.65711 0.0
C171 C 0.30386 0.09481 0.82038 0.0
N172 N 0.32289 0.12121 0.80763 0.0
C173 C 0.34118 0.11098 0.75698 0.0
N174 N 0.33347 0.08012 0.73892 0.0
N175 N 0.31075 0.06937 0.78017 0.0
C176 C 0.2645 0.97583 0.84974 0.0
O177 O 0.29194 0.95895 0.84669 0.0
O178 O 0.39007 0.07228 0.6269 0.0
Zn179 Zn 0.31057 0.02439 0.8132 0.0
N180 N 0.31267 0.07079 0.59173 0.0
C181 C 0.26101 0.09412 0.56388 0.0
C182 C 0.28421 0.08537 0.61077 0.0
C183 C 0.31881 0.06432 0.52764 0.0
N184 N 0.26714 0.0878 0.49984 0.0
C185 C 0.29538 0.0729 0.48003 0.0
O186 O 0.33306 0.99034 0.75537 0.0
C187 C 0.34707 0.98699 0.7001 0.0
O188 O 0.35075 1.01112 0.66148 0.0
H189 H 0.27963 0.09038 0.66188 0.0
H190 H 0.34199 0.05321 0.51424 0.0
C191 C 0.32586 0.03206 0.95097 0.0
C192 C 0.34788 0.03484 0.00376 0.0
C193 C 0.39243 0.02503 0.93113 0.0
C194 C 0.3706 0.0224 0.87916 0.0
N195 N 0.33786 0.02591 0.89002 0.0
N196 N 0.38062 0.03126 0.9919 0.0
H197 H 0.29973 0.03564 0.95754 0.0
C198 C 0.41276 0.06921 0.66898 0.0
O199 O 0.4048 0.06516 0.73074 0.0
O200 O 0.26547 1.00654 0.83784 0.0
H201 H 0.37968 1.01805 0.8302 0.0
H202 H 0.23833 0.10592 0.5782 0.0
H203 H 0.41858 0.02241 0.92324 0.0
Zn204 Zn 0.9833 0.8462 0.91057 0.0
C205 C 0.94836 0.80612 0.076 0.0
N206 N 0.9216 0.82428 0.06219 0.0
C207 C 0.93159 0.8421 0.01052 0.0
N208 N 0.96265 0.8349 0.99285 0.0
N209 N 0.97374 0.81308 0.03554 0.0
C210 C 0.06775 0.76318 0.0928 0.0
O211 O 0.08536 0.79023 0.08953 0.0
O212 O 0.96851 0.88993 0.877 0.0
Zn213 Zn 1.01927 0.81113 0.06571 0.0
N214 N 0.97563 0.81165 0.84726 0.0
C215 C 0.96559 0.75505 0.82591 0.0
C216 C 0.9691 0.7809 0.86996 0.0
C217 C 0.97845 0.81768 0.78196 0.0
N218 N 0.96892 0.7609 0.76085 0.0
C219 C 0.97511 0.7916 0.73727 0.0
O220 O 0.05281 0.83524 0.00858 0.0
C221 C 0.05564 0.85084 0.95488 0.0
O222 O 0.03134 0.85476 0.91704 0.0
H223 H 0.96716 0.77638 0.92193 0.0
H224 H 0.98429 0.84229 0.76538 0.0
C225 C 1.01433 0.82242 0.20629 0.0
C226 C 1.01651 0.84245 0.26223 0.0
C227 C 0.02919 0.88824 0.19459 0.0
C228 C 0.02698 0.86842 0.13945 0.0
N229 N 0.02006 0.83591 0.14628 0.0
N230 N 0.02409 0.87482 0.25448 0.0
H231 H 1.0088 0.79647 0.21031 0.0
C232 C 0.97175 0.91301 0.91823 0.0
O233 O 0.97767 0.90555 0.9796 0.0
O234 O 0.03682 0.76509 0.08408 0.0
H235 H 0.03092 0.87885 0.0914 0.0
H236 H 0.96063 0.73041 0.84332 0.0
H237 H 0.03497 0.9141 0.18994 0.0
Zn238 Zn 0.23191 0.51999 0.31215 0.0
C239 C 0.20491 0.43115 0.26022 0.0
N240 N 0.22392 0.42215 0.31072 0.0
C241 C 0.24154 0.4496 0.32247 0.0
N242 N 0.23302 0.47444 0.28194 0.0
N243 N 0.21087 0.46229 0.2412 0.0
C244 C 0.13204 0.46819 0.17058 0.0
O245 O 0.14027 0.47485 0.23121 0.0
O246 O 0.2767 0.54028 0.33192 0.0
Zn247 Zn 0.19815 0.48153 0.15837 0.0
N248 N 0.2064 0.51951 0.3921 0.0
C249 C 0.15359 0.5271 0.43974 0.0
C250 C 0.17377 0.52555 0.38485 0.0
C251 C 0.21966 0.514 0.45228 0.0
N252 N 0.16679 0.52227 0.4998 0.0
C253 C 0.19928 0.51555 0.50794 0.0
O254 O 0.18819 0.52946 0.16197 0.0
C255 C 0.19115 0.554 0.19959 0.0
O256 O 0.20655 0.55181 0.25351 0.0
H257 H 0.16352 0.52936 0.3367 0.0
H258 H 0.24571 0.50919 0.45669 0.0
C259 C 0.22545 0.47739 0.02855 0.0
C260 C 0.25102 0.47407 0.98256 0.0
C261 C 0.28822 0.46318 0.06914 0.0
C262 C 0.26287 0.46666 0.1145 0.0
N263 N 0.23205 0.47388 0.09346 0.0
N264 N 0.28181 0.4672 0.0045 0.0
H265 H 0.20081 0.48373 0.01332 0.0
C266 C 0.2778 0.57159 0.3324 0.0
O267 O 0.25088 0.58817 0.32005 0.0
O268 O 0.1546 0.46486 0.12813 0.0
H269 H 0.26784 0.46412 0.16616 0.0
H270 H 0.12764 0.53219 0.43474 0.0
H271 H 0.31292 0.45768 0.08522 0.0
C272 C 1.00419 0.95006 0.84688 0.0
C273 C 0.98032 0.9462 0.89582 0.0
C274 C 0.02019 0.9803 0.83789 0.0
C275 C 1.01138 1.00729 0.87774 0.0
C276 C 0.98524 1.0041 0.92328 0.0
C277 C 0.97034 0.97336 0.93248 0.0
C278 C 0.04846 0.98245 0.79014 0.0
C279 C 0.97475 0.03242 0.96608 0.0
C280 C 0.0719 0.07191 0.93351 0.0
C281 C 0.06239 0.09888 0.89568 0.0
C282 C 0.05719 0.0411 0.9244 0.0
C283 C 0.03168 0.03765 0.87777 0.0
C284 C 0.02339 0.06442 0.83681 0.0
C285 C 0.03922 0.09473 0.84573 0.0
C286 C 0.06718 1.01298 0.96831 0.0
C287 C 0.99584 0.06195 0.78772 0.0
H288 H 1.01239 0.92877 0.81955 0.0
H289 H 0.95205 0.97014 0.97064 0.0
H290 H 0.04671 1.00509 0.7601 0.0
H291 H 0.07191 0.98371 0.81764 0.0
H292 H 0.04943 0.96083 0.75708 0.0
H293 H 0.99351 0.03655 0.00451 0.0
H294 H 0.9728 0.0554 0.93711 0.0
H295 H 0.95081 0.02758 0.99047 0.0
H296 H 0.08969 0.07535 0.97236 0.0
H297 H 0.03139 0.11586 0.8174 0.0
H298 H 0.06975 0.98994 0.93987 0.0
H299 H 0.04784 1.00882 0.00575 0.0
H300 H 0.09069 1.01805 0.99392 0.0
H301 H 0.99837 0.03937 0.75785 0.0
H302 H 0.99502 0.08359 0.75457 0.0
H303 H 0.97203 0.06029 0.81407 0.0
C304 C 0.97661 0.57189 0.19531 0.0
C305 C 0.94892 0.56325 0.15884 0.0
C306 C 1.00678 0.55622 0.18453 0.0
C307 C 1.00877 0.53064 0.1377 0.0
C308 C 0.98126 0.52313 0.09827 0.0
C309 C 0.95169 0.53992 0.10874 0.0
C310 C 0.03583 0.56543 0.22657 0.0
C311 C 0.9822 0.49553 0.04906 0.0
C312 C 0.09487 0.50092 0.10088 0.0
C313 C 0.09879 0.47704 0.1497 0.0
C314 C 0.06501 0.51764 0.09386 0.0
C315 C 0.03844 0.50956 0.13564 0.0
C316 C 0.04151 0.48334 0.18094 0.0
C317 C 0.07192 0.46769 0.18813 0.0
C318 C 0.06298 0.54594 0.04621 0.0
C319 C 1.01356 0.47362 0.2257 0.0
H320 H 0.97429 0.58985 0.23417 0.0
H321 H 0.93002 0.5328 0.08135 0.0
H322 H 0.04046 0.54562 0.26272 0.0
H323 H 0.05832 0.56811 0.19628 0.0
H324 H 0.03162 0.5887 0.25364 0.0
H325 H 0.95987 0.49496 0.01788 0.0
H326 H 1.00416 0.49777 0.01716 0.0
H327 H 0.98404 0.4717 0.07523 0.0
H328 H 0.11598 0.50864 0.07219 0.0
H329 H 0.07521 0.4494 0.2262 0.0
H330 H 0.06313 0.56941 0.07375 0.0
H331 H 0.03973 0.54496 0.01808 0.0
H332 H 0.08397 0.54618 0.01138 0.0
H333 H 1.01064 0.49246 0.26441 0.0
H334 H 1.01803 0.44954 0.24973 0.0
H335 H 0.99009 0.47232 0.19834 0.0
C336 C 0.55676 0.57452 0.43343 0.0
C337 C 0.55418 0.60023 0.3884 0.0
C338 C 0.54265 0.54383 0.42059 0.0
C339 C 0.52508 0.53892 0.36158 0.0
C340 C 0.52328 0.56453 0.31486 0.0
C341 C 0.53821 0.5949 0.32857 0.0
C342 C 0.54475 0.51746 0.47245 0.0
C343 C 0.50357 0.56076 0.25287 0.0
C344 C 0.51094 0.44877 0.33017 0.0
C345 C 0.4827 0.44345 0.368 0.0
C346 C 0.5238 0.48053 0.32237 0.0
C347 C 0.50735 0.50738 0.35164 0.0
C348 C 0.47665 0.50232 0.38286 0.0
C349 C 0.46503 0.4702 0.39209 0.0
C350 C 0.55681 0.48478 0.28962 0.0
C351 C 0.45756 0.5304 0.41205 0.0
H352 H 0.56879 0.57882 0.47996 0.0
H353 H 0.53545 0.6151 0.29439 0.0
H354 H 0.52113 0.51621 0.4995 0.0
H355 H 0.54906 0.49299 0.45031 0.0
H356 H 0.56455 0.52265 0.50832 0.0
H357 H 0.50787 0.58138 0.21819 0.0
H358 H 0.50953 0.53732 0.22803 0.0
H359 H 0.47702 0.56006 0.26528 0.0
H360 H 0.52483 0.42785 0.31254 0.0
H361 H 0.44325 0.46587 0.42157 0.0
H362 H 0.57552 0.4909 0.32709 0.0
H363 H 0.55618 0.50545 0.25426 0.0
H364 H 0.56472 0.4622 0.26358 0.0
H365 H 0.46855 0.5374 0.45964 0.0
H366 H 0.43151 0.52344 0.42066 0.0
H367 H 0.45841 0.55226 0.37959 0.0
C368 C 0.59254 0.99843 0.59278 0.0
C369 C 0.59792 0.97655 0.64467 0.0
C370 C 0.5619 1.01359 0.58464 0.0
C371 C 0.53606 1.00598 0.62855 0.0
C372 C 0.54062 0.98147 0.67703 0.0
C373 C 0.57174 0.9674 0.68516 0.0
C374 C 0.55821 0.04 0.5333 0.0
C375 C 0.51348 0.97204 0.72393 0.0
C376 C 0.47324 0.06869 0.68276 0.0
C377 C 0.44553 0.05867 0.6478 0.0
C378 C 0.50359 0.05318 0.67322 0.0
C379 C 0.50576 0.02622 0.62957 0.0
C380 C 0.47807 1.01694 0.5921 0.0
C381 C 0.44833 0.03373 0.60091 0.0
C382 C 0.53277 0.06431 0.71301 0.0
C383 C 0.47926 0.98801 0.54603 0.0
H384 H 0.61303 1.00595 0.56219 0.0
H385 H 0.57606 0.95053 0.72537 0.0
H386 H 0.53493 0.03687 0.50597 0.0
H387 H 0.55721 0.06434 0.55757 0.0
H388 H 0.57896 0.04004 0.49794 0.0
H389 H 0.51853 0.94819 0.7484 0.0
H390 H 0.51123 0.99119 0.76223 0.0
H391 H 0.48951 0.97038 0.69839 0.0
H392 H 0.47085 0.08784 0.7193 0.0
H393 H 0.42662 0.0256 0.57479 0.0
H394 H 0.55507 0.06605 0.68187 0.0
H395 H 0.5378 0.04601 0.75198 0.0
H396 H 0.52844 0.08851 0.73651 0.0
H397 H 0.49719 0.99287 0.50628 0.0
H398 H 0.45496 0.98269 0.52373 0.0
H399 H 0.48776 0.96577 0.57242 0.0
C400 C 0.27335 0.12202 0.90988 0.0
C401 C 0.27396 0.0979 0.86112 0.0
C402 C 0.24357 0.13368 0.93523 0.0
C403 C 0.21355 0.12045 0.91212 0.0
C404 C 0.21411 0.09369 0.86785 0.0
C405 C 0.24439 0.08298 0.84209 0.0
C406 C 0.24428 0.16207 0.98275 0.0
C407 C 0.18273 0.07795 0.84415 0.0
C408 C 0.14194 0.15115 0.0133 0.0
C409 C 0.13198 0.17853 0.97687 0.0
C410 C 0.16636 0.12989 0.98976 0.0
C411 C 0.18213 0.13713 0.92969 0.0
C412 C 0.17077 0.16386 0.89111 0.0
C413 C 0.14552 0.18413 0.91503 0.0
C414 C 0.17666 0.10099 0.0312 0.0
C415 C 0.18698 0.1726 0.82694 0.0
H416 H 0.29618 0.13355 0.92478 0.0
H417 H 0.24458 0.06486 0.80336 0.0
H418 H 0.23322 0.18408 0.9595 0.0
H419 H 0.22948 0.1562 0.02684 0.0
H420 H 0.26964 0.16835 -0.00154 0.0
H421 H 0.1874 0.054 0.81988 0.0
H422 H 0.16536 0.07403 0.88536 0.0
H423 H 0.17059 0.09447 0.80846 0.0
H424 H 0.13121 0.14688 0.06118 0.0
H425 H 0.1378 0.20548 0.88727 0.0
H426 H 0.19989 0.10697 0.05689 0.0
H427 H 0.18126 0.07904 0.00038 0.0
H428 H 0.15778 0.09472 0.06854 0.0
H429 H 0.21236 0.18146 0.83623 0.0
H430 H 0.17339 0.19207 0.80018 0.0
H431 H 0.18882 0.15063 0.79517 0.0
C432 C 0.86022 0.64874 0.17706 0.0
C433 C 0.86646 0.63453 0.23796 0.0
C434 C 0.88006 0.6745 0.15351 0.0
C435 C 0.90708 0.68567 0.1914 0.0
C436 C 0.91484 0.66946 0.25066 0.0
C437 C 0.89394 0.64454 0.27397 0.0
C438 C 0.87062 0.69129 0.0904 0.0
C439 C 0.94404 0.67961 0.29134 0.0
C440 C 0.96033 0.74704 0.09917 0.0
C441 C 0.94593 0.77678 0.11843 0.0
C442 C 0.94996 0.71702 0.1267 0.0
C443 C 0.92406 0.71688 0.17312 0.0
C444 C 0.91154 0.74712 0.19659 0.0
C445 C 0.92281 0.77667 0.16922 0.0
C446 C 0.96497 0.68538 0.10264 0.0
C447 C 0.8841 0.74826 0.24639 0.0
H448 H 0.83872 0.64106 0.14979 0.0
H449 H 0.8986 0.63338 0.32126 0.0
H450 H 0.86245 0.71675 0.10095 0.0
H451 H 0.89211 0.69298 0.05715 0.0
H452 H 0.85047 0.67821 0.06463 0.0
H453 H 0.95083 0.6603 0.32731 0.0
H454 H 0.96564 0.68495 0.25985 0.0
H455 H 0.93808 0.70236 0.31866 0.0
H456 H 0.97754 0.74685 0.05872 0.0
H457 H 0.91167 0.79966 0.18416 0.0
H458 H 0.94699 0.67204 0.07176 0.0
H459 H 0.97111 0.66914 0.14452 0.0
H460 H 0.98755 0.68979 0.07328 0.0
H461 H 0.86143 0.73765 0.22483 0.0
H462 H 0.87872 0.7737 0.26274 0.0
H463 H 0.89042 0.73328 0.28989 0.0
C464 C 0.40959 0.39357 0.49239 0.0
C465 C 0.41622 0.36493 0.45678 0.0
C466 C 0.38501 0.41557 0.47233 0.0
C467 C 0.3657 0.40796 0.41689 0.0
C468 C 0.37373 0.37997 0.37863 0.0
C469 C 0.39898 0.35877 0.3991 0.0
C470 C 0.37821 0.44563 0.51325 0.0
C471 C 0.3539 0.37093 0.31899 0.0
C472 C 0.27438 0.42507 0.41175 0.0
C473 C 0.27231 0.44797 0.36075 0.0
C474 C 0.30489 0.4137 0.43399 0.0
C475 C 0.33416 0.42567 0.40467 0.0
C476 C 0.33228 0.45158 0.35839 0.0
C477 C 0.30127 0.46232 0.33655 0.0
C478 C 0.30556 0.38664 0.48462 0.0
C479 C 0.36282 0.46603 0.32778 0.0
H480 H 0.42271 0.39801 0.53766 0.0
H481 H 0.4038 0.33629 0.37236 0.0
H482 H 0.37274 0.46717 0.48179 0.0
H483 H 0.35638 0.44108 0.54458 0.0
H484 H 0.39931 0.45176 0.54543 0.0
H485 H 0.36518 0.35043 0.2911 0.0
H486 H 0.3288 0.3634 0.33429 0.0
H487 H 0.35139 0.39246 0.28605 0.0
H488 H 0.25201 0.41407 0.43074 0.0
H489 H 0.29988 0.47974 0.29651 0.0
H490 H 0.32307 0.39275 0.52427 0.0
H491 H 0.31406 0.3635 0.46151 0.0
H492 H 0.28099 0.38221 0.50675 0.0
H493 H 0.38285 0.46841 0.36421 0.0
H494 H 0.35794 0.49056 0.30598 0.0
H495 H 0.37161 0.4495 0.28838 0.0
C496 C 0.65224 0.89925 0.76052 0.0
C497 C 0.67945 0.90949 0.72369 0.0
C498 C 0.63055 0.87526 0.7366 0.0
C499 C 0.6372 0.86013 0.67574 0.0
C500 C 0.66393 0.87161 0.63708 0.0
C501 C 0.6846 0.89648 0.66136 0.0
C502 C 0.60163 0.86488 0.77815 0.0
C503 C 0.67212 0.85603 0.57214 0.0
C504 C 0.61998 0.76957 0.65148 0.0
C505 C 0.59594 0.77012 0.60257 0.0
C506 C 0.63228 0.79873 0.6784 0.0
C507 C 0.6197 0.82931 0.6569 0.0
C508 C 0.5929 0.82988 0.61273 0.0
C509 C 0.58159 0.80021 0.58526 0.0
C510 C 0.6607 0.79679 0.72568 0.0
C511 C 0.57777 0.86188 0.5909 0.0
H512 H 0.64828 0.90963 0.80872 0.0
H513 H 0.70578 0.90447 0.63323 0.0
H514 H 0.60723 0.84122 0.80267 0.0
H515 H 0.59592 0.88335 0.81644 0.0
H516 H 0.57946 0.86106 0.74754 0.0
H517 H 0.69201 0.86942 0.54591 0.0
H518 H 0.68013 0.83029 0.58018 0.0
H519 H 0.65007 0.85529 0.54042 0.0
H520 H 0.63102 0.74633 0.66519 0.0
H521 H 0.56345 0.80092 0.54659 0.0
H522 H 0.65525 0.81106 0.77053 0.0
H523 H 0.68294 0.80774 0.70282 0.0
H524 H 0.6664 0.77109 0.74009 0.0
H525 H 0.57458 0.87881 0.63294 0.0
H526 H 0.55354 0.85799 0.56717 0.0
H527 H 0.59432 0.87414 0.55521 0.0
C528 C 0.839 0.06938 0.87372 0.0
C529 C 0.81116 0.08643 0.85199 0.0
C530 C 0.86798 0.08632 0.8907 0.0
C531 C 0.86929 0.12104 0.88463 0.0
C532 C 0.8414 0.13821 0.86161 0.0
C533 C 0.81268 0.12076 0.84617 0.0
C534 C 0.89707 0.0671 0.91549 0.0
C535 C 0.84188 0.17508 0.85306 0.0
C536 C 0.93152 0.17223 0.97978 0.0
C537 C 0.95601 0.1778 0.93259 0.0
C538 C 0.90358 0.15316 0.96531 0.0
C539 C 0.89973 0.13968 0.90188 0.0
C540 C 0.92423 0.14543 0.85393 0.0
C541 C 0.95205 0.16423 0.86991 0.0
C542 C 0.87828 0.14717 0.01813 0.0
C543 C 0.92098 0.1319 0.7855 0.0
H544 H 0.83794 0.04288 0.87867 0.0
H545 H 0.79137 0.13414 0.82896 0.0
H546 H 0.91804 0.07003 0.88128 0.0
H547 H 0.90502 0.07681 0.96363 0.0
H548 H 0.89157 0.04047 0.92069 0.0
H549 H 0.81838 0.18466 0.83321 0.0
H550 H 0.84667 0.18715 0.90071 0.0
H551 H 0.86208 0.18228 0.81939 0.0
H552 H 0.93453 0.18212 0.02861 0.0
H553 H 0.97087 0.16816 0.83311 0.0
H554 H 0.87461 0.12037 0.02517 0.0
H555 H 0.85431 0.15767 0.00317 0.0
H556 H 0.8855 0.15822 0.06565 0.0
H557 H 0.91876 0.10475 0.78719 0.0
H558 H 0.9423 0.13842 0.754 0.0
H559 H 0.89829 0.1415 0.76242 0.0
C560 C 0.87387 0.43215 0.24197 0.0
C561 C 0.86817 0.45683 0.19535 0.0
C562 C 0.89234 0.40403 0.22625 0.0
C563 C 0.90509 0.40021 0.16213 0.0
C564 C 0.89911 0.42485 0.11469 0.0
C565 C 0.88091 0.45283 0.13189 0.0
C566 C 0.89853 0.37855 0.27851 0.0
C567 C 0.91189 0.42165 0.04558 0.0
C568 C 0.97473 0.33931 0.13112 0.0
C569 C 0.95733 0.31152 0.10999 0.0
C570 C 0.95811 0.36834 0.14865 0.0
C571 C 0.92337 0.36976 0.14385 0.0
C572 C 0.90585 0.34192 0.12138 0.0
C573 C 0.92298 0.31315 0.1053 0.0
C574 C 0.97771 0.39736 0.17284 0.0
C575 C 0.86892 0.3425 0.11424 0.0
H576 H 0.86461 0.43516 0.29134 0.0
H577 H 0.87685 0.47178 0.09547 0.0
H578 H 0.88779 0.35464 0.26361 0.0
H579 H 0.92536 0.37479 0.28453 0.0
H580 H 0.88788 0.38563 0.32652 0.0
H581 H 0.9051 0.44298 0.01448 0.0
H582 H 0.93904 0.41945 0.04594 0.0
H583 H 0.90198 0.39895 0.02291 0.0
H584 H 1.00125 0.33816 0.13521 0.0
H585 H 0.90933 0.29188 0.08855 0.0
H586 H 0.96893 0.40471 0.2221 0.0
H587 H 0.97398 0.41865 0.13982 0.0
H588 H 1.00444 0.39206 0.17551 0.0
H589 H 0.85726 0.34725 0.16239 0.0
H590 H 0.85904 0.31906 0.09459 0.0
H591 H 0.86159 0.36278 0.08101 0.0
C592 C 0.69801 0.4649 0.31616 0.0
C593 C 0.72457 0.47476 0.35508 0.0
C594 C 0.67253 0.44546 0.34203 0.0
C595 C 0.67388 0.43508 0.40816 0.0
C596 C 0.70045 0.44525 0.44794 0.0
C597 C 0.72534 0.46517 0.42108 0.0
C598 C 0.6442 0.43588 0.29842 0.0
C599 C 0.7026 0.43499 0.51879 0.0
C600 C 0.59114 0.40959 0.47777 0.0
C601 C 0.59191 0.37547 0.46955 0.0
C602 C 0.61859 0.42907 0.46239 0.0
C603 C 0.64698 0.41418 0.43554 0.0
C604 C 0.64826 0.37947 0.42964 0.0
C605 C 0.62067 0.36045 0.44713 0.0
C606 C 0.61633 0.46576 0.47166 0.0
C607 C 0.67813 0.3626 0.40179 0.0
H608 H 0.69712 0.47238 0.26528 0.0
H609 H 0.74582 0.47261 0.45151 0.0
H610 H 0.64334 0.40876 0.29318 0.0
H611 H 0.62065 0.44362 0.32097 0.0
H612 H 0.64608 0.44706 0.24894 0.0
H613 H 0.72493 0.44482 0.54312 0.0
H614 H 0.68064 0.44374 0.54582 0.0
H615 H 0.70284 0.40779 0.52246 0.0
H616 H 0.56867 0.42116 0.49461 0.0
H617 H 0.62098 0.33405 0.44012 0.0
H618 H 0.60839 0.47726 0.42512 0.0
H619 H 0.64032 0.4767 0.48527 0.0
H620 H 0.59821 0.47196 0.51033 0.0
H621 H 0.68068 0.36895 0.34921 0.0
H622 H 0.67658 0.33544 0.40643 0.0
H623 H 0.70069 0.37126 0.42686 0.0
C624 C 0.67753 0.11343 0.71232 0.0
C625 C 0.67701 0.08532 0.6726 0.0
C626 C 0.65882 0.14137 0.69624 0.0
C627 C 0.63906 0.14124 0.6392 0.0
C628 C 0.63858 0.11305 0.59882 0.0
C629 C 0.65751 0.08558 0.61588 0.0
C630 C 0.66013 0.17104 0.74034 0.0
C631 C 0.61804 0.11189 0.53741 0.0
C632 C 0.56893 0.20276 0.62074 0.0
C633 C 0.58296 0.22611 0.57848 0.0
C634 C 0.5869 0.17506 0.64127 0.0
C635 C 0.61983 0.17094 0.61999 0.0
C636 C 0.63414 0.19465 0.57794 0.0
C637 C 0.61551 0.22172 0.55738 0.0
C638 C 0.57048 0.14995 0.68485 0.0
C639 C 0.66917 0.19136 0.55431 0.0
H640 H 0.69225 0.11348 0.75645 0.0
H641 H 0.65661 0.06403 0.58485 0.0
H642 H 0.66896 0.19273 0.71238 0.0
H643 H 0.63511 0.17689 0.75848 0.0
H644 H 0.67654 0.16725 0.78302 0.0
H645 H 0.5919 0.11667 0.54946 0.0
H646 H 0.6261 0.13143 0.50303 0.0
H647 H 0.61981 0.08785 0.51204 0.0
H648 H 0.54384 0.20598 0.63732 0.0
H649 H 0.62671 0.23973 0.52518 0.0
H650 H 0.58507 0.14634 0.73007 0.0
H651 H 0.56946 0.12596 0.65929 0.0
H652 H 0.54508 0.15715 0.69865 0.0
H653 H 0.68605 0.18942 0.59668 0.0
H654 H 0.67702 0.2125 0.52355 0.0
H655 H 0.67189 0.16852 0.52528 0.0
C656 C 0.74488 0.58246 0.34551 0.0
C657 C 0.77357 0.5979 0.36789 0.0
C658 C 0.71371 0.59275 0.36736 0.0
C659 C 0.71135 0.61959 0.41122 0.0
C660 C 0.74041 0.63327 0.43794 0.0
C661 C 0.77109 0.62207 0.41629 0.0
C662 C 0.68348 0.57653 0.33951 0.0
C663 C 0.73923 0.66169 0.48534 0.0
C664 C 0.64358 0.68339 0.40609 0.0
C665 C 0.62834 0.67794 0.46641 0.0
C666 C 0.66914 0.6628 0.38475 0.0
C667 C 0.67925 0.63602 0.42454 0.0
C668 C 0.66163 0.62878 0.48254 0.0
C669 C 0.63676 0.65024 0.50343 0.0
C670 C 0.68713 0.67136 0.32239 0.0
C671 C 0.67058 0.59981 0.52502 0.0
H672 H 0.74656 0.56427 0.30703 0.0
H673 H 0.79324 0.63403 0.43371 0.0
H674 H 0.66351 0.57501 0.37644 0.0
H675 H 0.67432 0.59131 0.29774 0.0
H676 H 0.68896 0.55139 0.32142 0.0
H677 H 0.76394 0.66819 0.50446 0.0
H678 H 0.72884 0.6836 0.46053 0.0
H679 H 0.72299 0.65573 0.52733 0.0
H680 H 0.63708 0.705 0.37788 0.0
H681 H 0.62478 0.64611 0.55017 0.0
H682 H 0.68986 0.64927 0.29118 0.0
H683 H 0.71219 0.68029 0.3344 0.0
H684 H 0.6743 0.69073 0.29392 0.0
H685 H 0.67589 0.57787 0.49467 0.0
H686 H 0.65066 0.59366 0.56022 0.0
H687 H 0.6931 0.60566 0.55321 0.0
C688 C 0.46162 0.24352 0.5855 0.0
C689 C 0.44484 0.27293 0.59778 0.0
C690 C 0.45109 0.21379 0.61416 0.0
C691 C 0.42274 0.21359 0.65457 0.0
C692 C 0.40731 0.24368 0.67066 0.0
C693 C 0.41872 0.27293 0.64244 0.0
C694 C 0.46899 0.18238 0.59804 0.0
C695 C 0.37706 0.24477 0.7136 0.0
C696 C 0.36214 0.14271 0.66117 0.0
C697 C 0.366 0.13217 0.72573 0.0
C698 C 0.38219 0.1678 0.63552 0.0
C699 C 0.40692 0.18216 0.67532 0.0
C700 C 0.41252 0.16951 0.73883 0.0
C701 C 0.39153 0.14508 0.76373 0.0
C702 C 0.3751 0.18072 0.56777 0.0
C703 C 0.43914 0.1833 0.78217 0.0
H704 H 0.48124 0.24324 0.54963 0.0
H705 H 0.40571 0.29567 0.65196 0.0
H706 H 0.47481 0.16871 0.64355 0.0
H707 H 0.45302 0.1663 0.56795 0.0
H708 H 0.49216 0.18704 0.57071 0.0
H709 H 0.36895 0.27031 0.72376 0.0
H710 H 0.35662 0.23147 0.68933 0.0
H711 H 0.38181 0.23231 0.76088 0.0
H712 H 0.34217 0.13283 0.63221 0.0
H713 H 0.39446 0.1367 0.81377 0.0
H714 H 0.3981 0.18277 0.53889 0.0
H715 H 0.36443 0.20573 0.5715 0.0
H716 H 0.35756 0.16479 0.54082 0.0
H717 H 0.46204 0.18767 0.7539 0.0
H718 H 0.44469 0.16664 0.82381 0.0
H719 H 0.43109 0.20726 0.80228 0.0
C720 C 0.79889 0.96152 0.84064 0.0
C721 C 0.76907 0.94747 0.86098 0.0
C722 C 0.82893 0.95103 0.86763 0.0
C723 C 0.82898 0.92541 0.91467 0.0
C724 C 0.79869 0.91347 0.93951 0.0
C725 C 0.76915 0.92483 0.91264 0.0
C726 C 0.86061 0.96555 0.84214 0.0
C727 C 0.79741 0.88648 0.99026 0.0
C728 C 0.89574 0.8603 0.91883 0.0
C729 C 0.91033 0.86672 0.97923 0.0
C730 C 0.8704 0.88052 0.89517 0.0
C731 C 0.86003 0.90808 0.93243 0.0
C732 C 0.87673 0.91601 0.99097 0.0
C733 C 0.9012 0.89476 0.01443 0.0
C734 C 0.85315 0.87098 0.83272 0.0
C735 C 0.86752 0.94578 0.03087 0.0
H736 H 0.79909 0.9785 0.79978 0.0
H737 H 0.7461 0.91401 0.92855 0.0
H738 H 0.87803 0.97017 0.88281 0.0
H739 H 0.87246 0.94791 0.80821 0.0
H740 H 0.8564 0.98893 0.81535 0.0
H741 H 0.77199 0.88165 0.00777 0.0
H742 H 0.80737 0.86346 0.96903 0.0
H743 H 0.81286 0.89291 0.03295 0.0
H744 H 0.90278 0.83841 0.8921 0.0
H745 H 0.91265 0.89961 0.06129 0.0
H746 H 0.85184 0.89228 0.79896 0.0
H747 H 0.82756 0.86336 0.84405 0.0
H748 H 0.86568 0.85042 0.80719 0.0
H749 H 0.86258 0.9672 -0.00124 0.0
H750 H 0.88717 0.95248 0.06608 0.0
H751 H 0.84475 0.94055 0.05897 0.0
C752 C 0.18595 0.39432 0.1706 0.0
C753 C 0.18034 0.40895 0.23132 0.0
C754 C 0.16538 0.36892 0.14816 0.0
C755 C 0.13824 0.35854 0.18695 0.0
C756 C 0.13124 0.37511 0.24615 0.0
C757 C 0.15285 0.39962 0.26836 0.0
C758 C 0.17398 0.35177 0.08503 0.0
C759 C 0.10195 0.36589 0.28772 0.0
C760 C 0.08277 0.29839 0.09706 0.0
C761 C 0.09658 0.26832 0.11612 0.0
C762 C 0.09406 0.32819 0.12398 0.0
C763 C 0.12024 0.32775 0.16959 0.0
C764 C 0.132 0.29723 0.19324 0.0
C765 C 0.11982 0.26794 0.16656 0.0
C766 C 0.07973 0.36015 0.09988 0.0
C767 C 0.15963 0.29542 0.24232 0.0
H768 H 0.20738 0.40153 0.1424 0.0
H769 H 0.14861 0.41114 0.31541 0.0
H770 H 0.18123 0.32602 0.0956 0.0
H771 H 0.15232 0.35088 0.05229 0.0
H772 H 0.1945 0.36409 0.0587 0.0
H773 H 0.0961 0.38525 0.32415 0.0
H774 H 0.07998 0.36156 0.25683 0.0
H775 H 0.10716 0.34276 0.31449 0.0
H776 H 0.0653 0.29895 0.05718 0.0
H777 H 0.13045 0.24471 0.18154 0.0
H778 H 0.09717 0.372 0.06533 0.0
H779 H 0.07581 0.3774 0.14114 0.0
H780 H 0.05601 0.35632 0.07418 0.0
H781 H 0.18251 0.30519 0.21987 0.0
H782 H 0.16427 0.26988 0.25913 0.0
H783 H 0.15402 0.31078 0.28564 0.0
C784 C 0.33279 0.57616 0.38722 0.0
C785 C 0.30847 0.58974 0.34708 0.0
C786 C 0.3609 0.59446 0.40425 0.0
C787 C 0.36511 0.62672 0.37915 0.0
C788 C 0.34077 0.64026 0.33785 0.0
C789 C 0.31264 0.62177 0.32294 0.0
C790 C 0.38555 0.5796 0.45058 0.0
C791 C 0.34449 0.67429 0.30917 0.0
C792 C 0.42506 0.68582 0.46125 0.0
C793 C 0.45285 0.68307 0.42086 0.0
C794 C 0.39633 0.66763 0.44843 0.0
C795 C 0.39539 0.64604 0.39412 0.0
C796 C 0.42326 0.6433 0.35303 0.0
C797 C 0.45149 0.66189 0.36665 0.0
C798 C 0.36715 0.67114 0.49353 0.0
C799 C 0.42351 0.62022 0.29524 0.0
H800 H 0.32942 0.5516 0.40678 0.0
H801 H 0.29394 0.63236 0.29171 0.0
H802 H 0.41094 0.58362 0.43257 0.0
H803 H 0.38355 0.59188 0.49881 0.0
H804 H 0.38138 0.55285 0.45782 0.0
H805 H 0.34715 0.69262 0.34893 0.0
H806 H 0.36712 0.67555 0.27889 0.0
H807 H 0.32321 0.68136 0.27828 0.0
H808 H 0.42587 0.70185 0.5035 0.0
H809 H 0.47287 0.65911 0.33545 0.0
H810 H 0.36121 0.64703 0.51606 0.0
H811 H 0.34526 0.67899 0.46534 0.0
H812 H 0.37163 0.68924 0.53315 0.0
H813 H 0.40317 0.62643 0.26137 0.0
H814 H 0.41942 0.59462 0.31227 0.0
H815 H 0.44705 0.62115 0.26768 0.0
C816 C 0.36958 0.93178 0.73183 0.0
C817 C 0.36359 0.95552 0.68344 0.0
C818 C 0.38848 0.90369 0.71822 0.0
C819 C 0.40132 0.89893 0.65446 0.0
C820 C 0.39495 0.92255 0.6052 0.0
C821 C 0.37635 0.95057 0.62032 0.0
C822 C 0.39511 0.87932 0.77233 0.0
C823 C 0.40792 0.9183 0.53647 0.0
C824 C 0.47243 0.83942 0.62688 0.0
C825 C 0.45572 0.81097 0.60713 0.0
C826 C 0.45509 0.86821 0.64308 0.0
C827 C 0.4203 0.86862 0.63849 0.0
C828 C 0.40346 0.84004 0.61781 0.0
C829 C 0.42132 0.81156 0.60297 0.0
C830 C 0.47394 0.89795 0.66609 0.0
C831 C 0.36652 0.83957 0.61087 0.0
H832 H 0.3603 0.93556 0.78097 0.0
H833 H 0.37208 0.96881 0.5826 0.0
H834 H 0.38515 0.85486 0.75893 0.0
H835 H 0.42199 0.87648 0.77912 0.0
H836 H 0.38401 0.88693 0.81961 0.0
H837 H 0.40074 0.93887 0.50374 0.0
H838 H 0.43512 0.91669 0.53722 0.0
H839 H 0.39854 0.89498 0.51548 0.0
H840 H 0.49898 0.83903 0.63073 0.0
H841 H 0.40822 0.78975 0.58727 0.0
H842 H 0.46819 0.9026 0.71834 0.0
H843 H 0.46635 0.92005 0.63827 0.0
H844 H 0.50093 0.89482 0.66088 0.0
H845 H 0.35478 0.84507 0.65862 0.0
H846 H 0.35718 0.8155 0.59327 0.0
H847 H 0.35868 0.85894 0.57598 0.0
C848 C 0.09145 0.88229 0.87677 0.0
C849 C 0.0868 0.86829 0.93899 0.0
C850 C 0.11955 0.90103 0.86214 0.0
C851 C 0.14355 0.9063 0.91106 0.0
C852 C 0.13892 0.89249 0.97412 0.0
C853 C 0.11077 0.87346 0.98718 0.0
C854 C 0.12368 0.9149 0.79405 0.0
C855 C 0.16363 0.89805 0.02797 0.0
C856 C 0.23141 0.92438 0.85902 0.0
C857 C 0.23321 0.95868 0.86504 0.0
C858 C 0.20233 0.90723 0.87319 0.0
C859 C 0.17437 0.92465 0.8952 0.0
C860 C 0.17601 0.95932 0.90172 0.0
C861 C 0.20535 0.97598 0.88592 0.0
C862 C 0.20151 0.8704 0.86421 0.0
C863 C 0.14684 0.9788 0.92549 0.0
H864 H 0.07302 0.87866 0.83925 0.0
H865 H 0.10719 0.86325 0.03569 0.0
H866 H 0.14635 0.90491 0.77142 0.0
H867 H 0.1025 0.90903 0.7619 0.0
H868 H 0.1265 0.94198 0.79622 0.0
H869 H 0.1557 0.88697 0.07515 0.0
H870 H 0.18764 0.88729 0.01395 0.0
H871 H 0.16755 0.92479 0.03526 0.0
H872 H 0.25274 0.91083 0.84239 0.0
H873 H 0.20662 1.00246 0.8909 0.0
H874 H 0.18163 0.8636 0.82968 0.0
H875 H 0.196 0.85817 0.91152 0.0
H876 H 0.22512 0.86062 0.84516 0.0
H877 H 0.12656 0.9769 0.88957 0.0
H878 H 0.15281 1.00521 0.93253 0.0
H879 H 0.13766 0.96856 0.97245 0.0
C880 C 0.11835 0.72876 0.09772 0.0
C881 C 0.08426 0.73141 0.10646 0.0
C882 C 0.13504 0.69947 0.11182 0.0
C883 C 0.11737 0.67211 0.13641 0.0
C884 C 0.08286 0.67452 0.1452 0.0
C885 C 0.06665 0.70407 0.12957 0.0
C886 C 0.1717 0.69787 0.10057 0.0
C887 C 0.06311 0.64602 0.17167 0.0
C888 C 0.15846 0.58844 0.12124 0.0
C889 C 0.17321 0.58474 0.18293 0.0
C890 C 0.13978 0.61641 0.10583 0.0
C891 C 0.13535 0.64127 0.15338 0.0
C892 C 0.14978 0.63753 0.21599 0.0
C893 C 0.16869 0.60947 0.22985 0.0
C894 C 0.12526 0.61958 0.03822 0.0
C895 C 0.14521 0.6632 0.26843 0.0
H896 H 0.13214 0.74967 0.07942 0.0
H897 H 0.04034 0.70601 0.1368 0.0
H898 H 0.18447 0.69312 0.14752 0.0
H899 H 0.17764 0.67722 0.06724 0.0
H900 H 0.18164 0.72094 0.07911 0.0
H901 H 0.03685 0.6524 0.17928 0.0
H902 H 0.06446 0.62506 0.1372 0.0
H903 H 0.07357 0.6376 0.21889 0.0
H904 H 0.16154 0.56943 0.08467 0.0
H905 H 0.17947 0.60669 0.27797 0.0
H906 H 0.13604 0.64125 0.01306 0.0
H907 H 0.09838 0.62367 0.04148 0.0
H908 H 0.12977 0.59746 0.00774 0.0
H909 H 0.15633 0.68678 0.25238 0.0
H910 H 0.15656 0.65586 0.31561 0.0
H911 H 0.11863 0.66769 0.27661 0.0
C912 C 1.01155 0.20301 0.37631 0.0
C913 C 0.03196 0.21368 0.32524 0.0
C914 C 1.01802 0.21164 0.44136 0.0
C915 C 0.04613 0.23078 0.45604 0.0
C916 C 0.06656 0.24222 0.40447 0.0
C917 C 0.05905 0.23376 0.33945 0.0
C918 C 0.99511 0.19964 0.49455 0.0
C919 C 0.09702 0.26226 0.4181 0.0
C920 C 0.04812 0.27082 0.62391 0.0
C921 C 0.06488 0.2472 0.66097 0.0
C922 C 0.0424 0.26618 0.55682 0.0
C923 C 0.05448 0.23759 0.52568 0.0
C924 C 0.0725 0.21423 0.56245 0.0
C925 C 0.07717 0.21913 0.62982 0.0
C926 C 0.02242 0.29128 0.51982 0.0
C927 C 0.0864 0.18378 0.53079 0.0
H928 H 0.9905 0.18762 0.36532 0.0
H929 H 0.07515 0.24166 0.3001 0.0
H930 H 1.00824 0.18224 0.52705 0.0
H931 H 0.98687 0.22056 0.52517 0.0
H932 H 0.9731 0.18703 0.47451 0.0
H933 H 0.10909 0.27102 0.37247 0.0
H934 H 0.09091 0.28384 0.44881 0.0
H935 H 0.11483 0.24713 0.44596 0.0
H936 H 0.03858 0.29255 0.64791 0.0
H937 H 0.09072 0.20113 0.65804 0.0
H938 H 0.99928 0.27982 0.50239 0.0
H939 H 0.03607 0.29988 0.47599 0.0
H940 H 1.01612 0.31292 0.5504 0.0
H941 H 0.06607 0.1677 0.51399 0.0
H942 H 0.10215 0.16948 0.5648 0.0
H943 H 0.10115 0.19056 0.48707 0.0
C944 C 0.82756 0.54073 0.89934 0.0
C945 C 0.80803 0.5671 0.92025 0.0
C946 C 0.83424 0.53578 0.83265 0.0
C947 C 0.82113 0.55774 0.7857 0.0
C948 C 0.80103 0.5841 0.80637 0.0
C949 C 0.79458 0.58834 0.87331 0.0
C950 C 0.8555 0.50716 0.81246 0.0
C951 C 0.78678 0.60816 0.75783 0.0
C952 C 0.86631 0.56422 0.62354 0.0
C953 C 0.8466 0.54501 0.58232 0.0
C954 C 0.858 0.56895 0.68946 0.0
C955 C 0.82944 0.55379 0.71519 0.0
C956 C 0.80926 0.53453 0.67385 0.0
C957 C 0.81804 0.53039 0.60785 0.0
C958 C 0.88 0.58994 0.73175 0.0
C959 C 0.77874 0.51775 0.69966 0.0
H960 H 0.83734 0.52362 0.93494 0.0
H961 H 0.77944 0.60875 0.88904 0.0
H962 H 0.84216 0.4915 0.7769 0.0
H963 H 0.878 0.51631 0.78767 0.0
H964 H 0.86293 0.49172 0.85478 0.0
H965 H 0.77092 0.62684 0.78167 0.0
H966 H 0.80692 0.62101 0.7315 0.0
H967 H 0.77203 0.59491 0.72066 0.0
H968 H 0.88833 0.5757 0.60413 0.0
H969 H 0.80299 0.51493 0.57687 0.0
H970 H 0.89011 0.57498 0.77238 0.0
H971 H 0.8656 0.61017 0.75403 0.0
H972 H 0.90081 0.60077 0.70378 0.0
H973 H 0.7855 0.50009 0.73875 0.0
H974 H 0.76523 0.50431 0.66082 0.0
H975 H 0.76198 0.53611 0.72182 0.0
C976 C 0.49112 0.29838 0.84701 0.0
C977 C 0.50754 0.32739 0.82937 0.0
C978 C 0.48933 0.28845 0.91288 0.0
C979 C 0.50476 0.30776 0.96165 0.0
C980 C 0.5223 0.33643 0.9435 0.0
C981 C 0.52316 0.34605 0.87773 0.0
C982 C 0.46997 0.25802 0.93051 0.0
C983 C 0.53965 0.35737 0.99374 0.0
C984 C 0.47707 0.30879 0.13892 0.0
C985 C 0.50128 0.28953 0.16891 0.0
C986 C 0.47691 0.31349 0.07089 0.0
C987 C 0.50184 0.299 0.03211 0.0
C988 C 0.52569 0.27865 0.06192 0.0
C989 C 0.52492 0.27391 0.12993 0.0
C990 C 0.45066 0.33484 0.04077 0.0
C991 C 0.55295 0.26318 0.02244 0.0
H992 H 0.4786 0.28418 0.80976 0.0
H993 H 0.536 0.36841 0.86403 0.0
H994 H 0.48513 0.24115 0.96049 0.0
H995 H 0.44833 0.26499 0.9605 0.0
H996 H 0.46124 0.2446 0.88656 0.0
H997 H 0.55385 0.37777 0.97103 0.0
H998 H 0.52142 0.36806 0.02799 0.0
H999 H 0.5567 0.34208 0.02309 0.0
H1000 H 0.45828 0.32029 0.16869 0.0
H1001 H 0.54366 0.25897 0.15297 0.0
H1002 H 0.43905 0.32203 -0.00112 0.0
H1003 H 0.46192 0.35777 0.02159 0.0
H1004 H 0.43123 0.34157 0.07655 0.0
H1005 H 0.54271 0.24964 0.98006 0.0
H1006 H 0.56801 0.24599 0.05207 0.0
H1007 H 0.56928 0.28271 0.00269 0.0
C1008 C 0.71749 0.96586 0.37361 0.0
C1009 C 0.74564 0.97792 0.40487 0.0
C1010 C 0.71265 0.97079 0.30624 0.0
C1011 C 0.73615 0.98888 0.26959 0.0
C1012 C 0.76476 1.00084 0.3009 0.0
C1013 C 0.76935 0.99484 0.36796 0.0
C1014 C 0.68217 0.957 0.27442 0.0
C1015 C 0.79 0.02091 0.26409 0.0
C1016 C 0.73291 0.98453 0.08322 0.0
C1017 C 0.71304 1.01167 0.06862 0.0
C1018 C 0.74108 0.97692 0.14841 0.0
C1019 C 0.72955 0.99729 0.19979 0.0
C1020 C 0.71063 0.02544 0.18475 0.0
C1021 C 0.70229 0.03202 0.11954 0.0
C1022 C 0.76091 0.94642 0.1624 0.0
C1023 C 0.69856 0.04831 0.23771 0.0
H1024 H 0.69942 0.9522 0.4017 0.0
H1025 H 0.79114 1.00421 0.39203 0.0
H1026 H 0.66629 0.97739 0.25732 0.0
H1027 H 0.68895 0.94224 0.23086 0.0
H1028 H 0.66768 0.9413 0.3084 0.0
H1029 H 0.81152 0.0273 0.29491 0.0
H1030 H 0.79875 1.00727 0.22052 0.0
H1031 H 0.77861 0.044 0.24627 0.0
H1032 H 0.74087 0.96846 0.04404 0.0
H1033 H 0.68707 0.05311 0.1083 0.0
H1034 H 0.74562 0.92863 0.19025 0.0
H1035 H 0.78246 0.95249 0.19324 0.0
H1036 H 0.76971 0.93435 0.11691 0.0
H1037 H 0.68101 0.03514 0.27008 0.0
H1038 H 0.6861 0.07033 0.21744 0.0
H1039 H 0.71942 0.05652 0.26854 0.0
C1040 C 0.53779 0.72793 0.12591 0.0
C1041 C 0.56589 0.74475 0.1474 0.0
C1042 C 0.5322 0.72257 0.05902 0.0
C1043 C 0.55527 0.73422 0.01245 0.0
C1044 C 0.5833 0.7518 0.03368 0.0
C1045 C 0.58818 0.75699 0.10084 0.0
C1046 C 0.50179 0.70403 0.03823 0.0
C1047 C 0.60857 0.7644 0.98555 0.0
C1048 C 0.55755 0.68819 0.85139 0.0
C1049 C 0.53973 0.70908 0.81001 0.0
C1050 C 0.56346 0.69652 0.91681 0.0
C1051 C 0.55092 0.72636 0.9419 0.0
C1052 C 0.53343 0.74793 0.90017 0.0
C1053 C 0.5281 0.73908 0.83457 0.0
C1054 C 0.5826 0.67304 0.95943 0.0
C1055 C 0.51952 0.77987 0.92531 0.0
H1056 H 0.51993 0.71918 0.16125 0.0
H1057 H 0.60991 0.77007 0.11703 0.0
H1058 H 0.4877 0.71871 0.00219 0.0
H1059 H 0.50894 0.68077 0.01385 0.0
H1060 H 0.48546 0.69804 0.08021 0.0
H1061 H 0.62822 0.77894 0.00971 0.0
H1062 H 0.62008 0.74342 0.95967 0.0
H1063 H 0.59665 0.78 0.94796 0.0
H1064 H 0.56681 0.66509 0.83261 0.0
H1065 H 0.51384 0.75513 0.80332 0.0
H1066 H 0.56671 0.6639 -0.00027 0.0
H1067 H 0.60373 0.68592 0.98213 0.0
H1068 H 0.59199 0.65159 0.93161 0.0
H1069 H 0.5008 0.77473 0.96352 0.0
H1070 H 0.50794 0.79465 0.8859 0.0
H1071 H 0.53916 0.79477 0.94841 0.0
C1072 C 0.28803 0.08873 0.36282 0.0
C1073 C 0.3009 0.06685 0.40924 0.0
C1074 C 0.29333 0.08401 0.29562 0.0
C1075 C 0.31166 0.05653 0.27425 0.0
C1076 C 0.32397 0.03385 0.3207 0.0
C1077 C 0.31849 0.03929 0.38762 0.0
C1078 C 0.28002 0.10886 0.24762 0.0
C1079 C 0.34334 1.00405 0.29974 0.0
C1080 C 0.30729 0.02938 0.09637 0.0
C1081 C 0.33687 0.04206 0.07143 0.0
C1082 C 0.29844 0.03429 0.16214 0.0
C1083 C 0.31958 0.05243 0.20365 0.0
C1084 C 0.349 0.06595 0.17822 0.0
C1085 C 0.35735 0.06045 0.11263 0.0
C1086 C 0.26697 1.01931 0.18768 0.0
C1087 C 0.37201 0.08578 0.22063 0.0
H1088 H 0.27436 0.11005 0.37914 0.0
H1089 H 0.32774 0.02173 0.4229 0.0
H1090 H 0.30066 0.121 0.22148 0.0
H1091 H 0.26471 0.09644 0.21022 0.0
H1092 H 0.26499 0.12807 0.27191 0.0
H1093 H 0.34981 0.98793 0.34167 0.0
H1094 H 0.32902 0.98947 0.26387 0.0
H1095 H 0.36636 1.01192 0.2751 0.0
H1096 H 0.29159 1.01467 0.06524 0.0
H1097 H 0.38012 0.07051 0.09356 0.0
H1098 H 0.2515 0.03846 0.21089 0.0
H1099 H 0.27269 1.00081 0.22589 0.0
H1100 H 0.25251 1.0072 0.14847 0.0
H1101 H 0.35861 0.10653 0.24347 0.0
H1102 H 0.3932 0.09581 0.19261 0.0
H1103 H 0.38158 0.07018 0.26084 0.0
C1104 C 0.98477 0.80875 0.34399 0.0
C1105 C 1.01116 0.82972 0.32928 0.0
C1106 C 0.97759 0.80011 0.40918 0.0
C1107 C 0.99761 0.81235 0.4604 0.0
C1108 C 0.02507 0.83237 0.44523 0.0
C1109 C 0.03125 0.84109 0.38002 0.0
C1110 C 0.94784 0.77906 0.42336 0.0
C1111 C 0.04754 0.84529 0.49806 0.0
C1112 C 0.96618 0.82383 0.63406 0.0
C1113 C 0.97951 0.79642 0.6659 0.0
C1114 C 0.97061 0.82848 0.56649 0.0
C1115 C 0.98942 0.80555 0.53022 0.0
C1116 C 1.00251 0.77759 0.56204 0.0
C1117 C 0.99704 0.77316 0.62934 0.0
C1118 C 0.95565 0.85826 0.53413 0.0
C1119 C 0.02332 0.75299 0.52553 0.0
H1120 H 0.96891 0.80029 0.30492 0.0
H1121 H 0.05177 0.85716 0.36866 0.0
H1122 H 0.95468 0.75781 0.45445 0.0
H1123 H 0.92948 0.79365 0.45102 0.0
H1124 H 0.93611 0.76974 0.37796 0.0
H1125 H 0.06915 0.85854 0.47766 0.0
H1126 H 0.03381 0.86238 0.53026 0.0
H1127 H 0.05642 0.82477 0.52908 0.0
H1128 H 0.95204 0.84151 0.6619 0.0
H1129 H 1.00738 0.75194 0.65387 0.0
H1130 H 0.94121 0.85075 0.49065 0.0
H1131 H 0.97542 0.87496 0.51683 0.0
H1132 H 0.93937 0.87214 0.56784 0.0
H1133 H 1.01004 0.74382 0.48188 0.0
H1134 H 0.03021 0.73166 0.55655 0.0
H1135 H 0.04614 0.7651 0.50789 0.0
C1136 C 0.23246 0.48401 0.59019 0.0
C1137 C 0.21179 0.51046 0.57509 0.0
C1138 C 0.2409 0.47703 0.65549 0.0
C1139 C 0.22885 0.49739 0.70641 0.0
C1140 C 0.20913 0.5249 0.69081 0.0
C1141 C 0.20051 0.53082 0.62551 0.0
C1142 C 0.26153 0.44715 0.67015 0.0
C1143 C 0.19648 0.54774 0.74329 0.0
C1144 C 0.21773 0.46619 0.88053 0.0
C1145 C 0.24559 0.47907 0.91156 0.0
C1146 C 0.21268 0.47086 0.81318 0.0
C1147 C 0.23566 0.48948 0.77631 0.0
C1148 C 0.26397 0.50229 0.80737 0.0
C1149 C 0.26879 0.49655 0.87444 0.0
C1150 C 0.18254 0.4562 0.78161 0.0
C1151 C 0.28863 0.52292 0.77024 0.0
H1152 H 0.24083 0.46795 0.55133 0.0
H1153 H 0.18464 0.55136 0.61379 0.0
H1154 H 0.28299 0.45401 0.70058 0.0
H1155 H 0.24677 0.42918 0.69869 0.0
H1156 H 0.27051 0.43496 0.62494 0.0
H1157 H 0.18349 0.56934 0.72255 0.0
H1158 H 0.17924 0.53431 0.77589 0.0
H1159 H 0.21711 0.55662 0.77398 0.0
H1160 H 0.20007 0.4521 0.9088 0.0
H1161 H 0.29034 0.50656 0.89835 0.0
H1162 H 0.18968 0.44143 0.73829 0.0
H1163 H 0.16616 0.47611 0.76419 0.0
H1164 H 0.16844 0.44028 0.81585 0.0
H1165 H 0.29778 0.50936 0.72689 0.0
H1166 H 0.30996 0.53004 0.80096 0.0
H1167 H 0.2766 0.5456 0.75206 0.0
loop_
_geom_bond_atom_site_label_1
_geom_bond_atom_site_label_2
_geom_bond_distance
_geom_bond_site_symmetry_2
_ccdc_geom_bond_type
Zn0 N4 2.020 . S
Zn0 O8 2.019 . S
Zn0 N10 2.119 . S
Zn0 O18 1.975 1_455 S
C1 N2 1.334 . S
C1 N5 1.336 . S
N2 C1 1.334 . S
N2 C3 1.334 1_554 S
C3 N2 1.334 1_556 S
C3 N4 1.336 . S
N4 Zn0 2.020 . S
N4 C3 1.336 . S
N4 N5 1.354 1_556 S
N5 C1 1.336 . S
N5 N4 1.354 1_554 S
N5 Zn9 2.020 1_455 S
C6 O7 1.244 . S
C6 O30 1.257 . S
O7 C6 1.244 . S
O8 Zn0 2.019 . S
O8 C28 1.257 . S
Zn9 N5 2.020 1_655 S
Zn9 O16 1.975 . S
Zn9 N25 2.119 . S
Zn9 O30 2.019 . S
N10 Zn0 2.119 . S
N10 C12 1.334 1_455 S
N10 C13 1.328 . S
C11 C12 1.391 . S
C11 N14 1.329 . S
C11 H32 0.930 . S
C12 N10 1.334 1_655 S
C12 C11 1.391 . S
C12 H19 0.930 . S
C13 N10 1.328 . S
C13 C15 1.395 . S
C13 H20 0.930 . S
N14 C11 1.329 . S
N14 C15 1.325 1_655 S
C15 C13 1.395 . S
C15 N14 1.325 1_455 S
O16 Zn9 1.975 . S
O16 C17 1.252 1_554 S
C17 O16 1.252 1_556 S
C17 O18 1.252 . S
O18 Zn0 1.975 1_655 S
O18 C17 1.252 . S
H19 C12 0.930 . S
H20 C13 0.930 . S
C21 C22 1.392 . S
C21 N25 1.328 . S
C21 H27 0.930 . S
C22 C21 1.392 . S
C22 N26 1.331 . S
C23 C24 1.391 . S
C23 N26 1.329 . S
C23 H33 0.930 . S
C24 C23 1.391 . S
C24 N25 1.334 . S
C24 H31 0.924 1_655 S
N25 Zn9 2.119 . S
N25 C21 1.328 . S
N25 C24 1.334 . S
N26 C22 1.331 . S
N26 C23 1.329 . S
H27 C21 0.930 . S
C28 O8 1.257 . S
C28 O29 1.244 . S
O29 C28 1.244 . S
O30 C6 1.257 . S
O30 Zn9 2.019 . S
H31 C24 0.924 1_455 S
H32 C11 0.930 . S
H33 C23 0.930 . S
Zn34 N38 2.020 . S
Zn34 O42 2.019 . S
Zn34 N44 2.119 . S
Zn34 O52 1.975 . S
C35 N36 1.334 . S
C35 N39 1.336 . S
N36 C35 1.334 . S
N36 C37 1.334 . S
C37 N36 1.334 . S
C37 N38 1.336 . S
N38 Zn34 2.020 . S
N38 C37 1.336 . S
N38 N39 1.354 . S
N39 C35 1.336 . S
N39 N38 1.354 . S
N39 Zn43 2.020 . S
C40 O41 1.244 . S
C40 O64 1.257 . S
O41 C40 1.244 . S
O42 Zn34 2.019 . S
O42 C62 1.257 . S
Zn43 N39 2.020 . S
Zn43 O50 1.975 . S
Zn43 N59 2.119 . S
Zn43 O64 2.019 . S
N44 Zn34 2.119 . S
N44 C46 1.334 . S
N44 C47 1.328 . S
C45 C46 1.391 . S
C45 N48 1.329 1_554 S
C45 H66 0.930 . S
C46 N44 1.334 . S
C46 C45 1.391 . S
C46 H53 0.930 . S
C47 N44 1.328 . S
C47 C49 1.392 1_554 S
C47 H54 0.930 . S
N48 C45 1.329 1_556 S
N48 C49 1.331 . S
C49 C47 1.392 1_556 S
C49 N48 1.331 . S
O50 Zn43 1.975 . S
O50 C51 1.252 . S
C51 O50 1.252 . S
C51 O52 1.252 . S
O52 Zn34 1.975 . S
O52 C51 1.252 . S
H53 C46 0.930 . S
H54 C47 0.930 . S
C55 C56 1.392 . S
C55 N59 1.328 . S
C55 H61 0.930 . S
C56 C55 1.392 . S
C56 N60 1.331 . S
C57 C58 1.391 . S
C57 N60 1.329 . S
C57 H67 0.930 . S
C58 C57 1.391 . S
C58 N59 1.334 . S
C58 H65 0.930 . S
N59 Zn43 2.119 . S
N59 C55 1.328 . S
N59 C58 1.334 . S
N60 C56 1.331 . S
N60 C57 1.329 . S
H61 C55 0.930 . S
C62 O42 1.257 . S
C62 O63 1.244 . S
O63 C62 1.244 . S
O64 C40 1.257 . S
O64 Zn43 2.019 . S
H65 C58 0.930 . S
H66 C45 0.930 . S
H67 C57 0.930 . S
Zn68 N72 2.020 . S
Zn68 O76 2.019 . S
Zn68 N78 2.119 . S
Zn68 O86 1.975 . S
C69 N70 1.334 . S
C69 N73 1.336 . S
N70 C69 1.334 . S
N70 C71 1.334 . S
C71 N70 1.334 . S
C71 N72 1.336 . S
N72 Zn68 2.020 . S
N72 C71 1.336 . S
N72 N73 1.354 . S
N73 C69 1.336 . S
N73 N72 1.354 . S
N73 Zn77 2.020 . S
C74 O75 1.244 . S
C74 O98 1.257 . S
O75 C74 1.244 . S
O76 Zn68 2.019 . S
O76 C96 1.257 . S
Zn77 N73 2.020 . S
Zn77 O84 1.975 . S
Zn77 N93 2.119 . S
Zn77 O98 2.019 . S
N78 Zn68 2.119 . S
N78 C80 1.334 . S
N78 C81 1.328 . S
C79 C80 1.391 . S
C79 N82 1.329 . S
C79 H100 0.930 . S
C80 N78 1.334 . S
C80 C79 1.391 . S
C80 H87 0.930 . S
C81 N78 1.328 . S
C81 C83 1.392 . S
C81 H88 0.930 . S
N82 C79 1.329 . S
N82 C83 1.331 . S
C83 C81 1.392 . S
C83 N82 1.331 . S
O84 Zn77 1.975 . S
O84 C85 1.252 . S
C85 O84 1.252 . S
C85 O86 1.252 . S
O86 Zn68 1.975 . S
O86 C85 1.252 . S
H87 C80 0.930 . S
H88 C81 0.930 . S
C89 C90 1.392 . S
C89 N93 1.328 . S
C89 H95 0.930 . S
C90 C89 1.392 . S
C90 N94 1.331 . S
C91 C92 1.391 . S
C91 N94 1.329 . S
C91 H101 0.930 . S
C92 C91 1.391 . S
C92 N93 1.334 . S
C92 H99 0.930 . S
N93 Zn77 2.119 . S
N93 C89 1.328 . S
N93 C92 1.334 . S
N94 C90 1.331 . S
N94 C91 1.329 . S
H95 C89 0.930 . S
C96 O76 1.257 . S
C96 O97 1.244 . S
O97 C96 1.244 . S
O98 C74 1.257 . S
O98 Zn77 2.019 . S
H99 C92 0.930 . S
H100 C79 0.930 . S
H101 C91 0.930 . S
Zn102 N106 2.020 1_545 S
Zn102 O110 2.019 . S
Zn102 N112 2.119 . S
Zn102 O120 1.975 . S
C103 N104 1.334 . S
C103 N107 1.336 . S
N104 C103 1.334 . S
N104 C105 1.334 . S
C105 N104 1.334 . S
C105 N106 1.336 . S
N106 Zn102 2.020 1_565 S
N106 C105 1.336 . S
N106 N107 1.354 . S
N107 C103 1.336 . S
N107 N106 1.354 . S
N107 Zn111 2.020 . S
C108 O109 1.244 . S
C108 O132 1.257 . S
O109 C108 1.244 . S
O110 Zn102 2.019 . S
O110 C130 1.257 . S
Zn111 N107 2.020 . S
Zn111 O118 1.975 1_565 S
Zn111 N127 2.119 1_565 S
Zn111 O132 2.019 . S
N112 Zn102 2.119 . S
N112 C114 1.334 . S
N112 C115 1.328 . S
C113 C114 1.391 . S
C113 N116 1.329 1_556 S
C113 H134 0.930 . S
C114 N112 1.334 . S
C114 C113 1.391 . S
C114 H121 0.930 . S
C115 N112 1.328 . S
C115 C117 1.392 1_556 S
C115 H122 0.930 . S
N116 C113 1.329 1_554 S
N116 C117 1.331 . S
C117 C115 1.392 1_554 S
C117 N116 1.331 . S
O118 Zn111 1.975 1_545 S
O118 C119 1.252 . S
C119 O118 1.252 . S
C119 O120 1.252 . S
O120 Zn102 1.975 . S
O120 C119 1.252 . S
H121 C114 0.930 . S
H122 C115 0.930 . S
C123 C124 1.387 1_565 S
C123 N127 1.325 1_565 S
C123 H129 0.939 . S
C124 C123 1.387 1_545 S
C124 N128 1.331 . S
C125 C126 1.391 . S
C125 N128 1.329 . S
C125 H135 0.930 . S
C126 C125 1.391 . S
C126 N127 1.334 . S
C126 H133 0.930 . S
N127 Zn111 2.119 1_545 S
N127 C123 1.325 1_545 S
N127 C126 1.334 . S
N128 C124 1.331 . S
N128 C125 1.329 . S
H129 C123 0.939 . S
C130 O110 1.257 . S
C130 O131 1.244 . S
O131 C130 1.244 . S
O132 C108 1.257 . S
O132 Zn111 2.019 . S
H133 C126 0.930 . S
H134 C113 0.930 . S
H135 C125 0.930 . S
Zn136 N140 2.020 . S
Zn136 O144 2.019 . S
Zn136 N146 2.119 . S
Zn136 O154 1.975 . S
C137 N138 1.334 . S
C137 N141 1.336 . S
N138 C137 1.334 . S
N138 C139 1.334 . S
C139 N138 1.334 . S
C139 N140 1.336 . S
N140 Zn136 2.020 . S
N140 C139 1.336 . S
N140 N141 1.354 . S
N141 C137 1.336 . S
N141 N140 1.354 . S
N141 Zn145 2.020 . S
C142 O143 1.244 . S
C142 O166 1.257 . S
O143 C142 1.244 . S
O144 Zn136 2.019 . S
O144 C164 1.257 . S
Zn145 N141 2.020 . S
Zn145 O152 1.975 . S
Zn145 N161 2.119 . S
Zn145 O166 2.019 . S
N146 Zn136 2.119 . S
N146 C148 1.334 . S
N146 C149 1.328 . S
C147 C148 1.391 . S
C147 N150 1.329 . S
C147 H168 0.930 . S
C148 N146 1.334 . S
C148 C147 1.391 . S
C148 H155 0.930 . S
C149 N146 1.328 . S
C149 C151 1.392 . S
C149 H156 0.930 . S
N150 C147 1.329 . S
N150 C151 1.331 . S
C151 C149 1.392 . S
C151 N150 1.331 . S
O152 Zn145 1.975 . S
O152 C153 1.252 . S
C153 O152 1.252 . S
C153 O154 1.252 . S
O154 Zn136 1.975 . S
O154 C153 1.252 . S
H155 C148 0.930 . S
H156 C149 0.930 . S
C157 C158 1.392 . S
C157 N161 1.328 . S
C157 H163 0.930 . S
C158 C157 1.392 . S
C158 N162 1.331 . S
C159 C160 1.391 . S
C159 N162 1.329 . S
C159 H169 0.930 . S
C160 C159 1.391 . S
C160 N161 1.334 . S
C160 H167 0.930 . S
N161 Zn145 2.119 . S
N161 C157 1.328 . S
N161 C160 1.334 . S
N162 C158 1.331 . S
N162 C159 1.329 . S
H163 C157 0.930 . S
C164 O144 1.257 . S
C164 O165 1.244 . S
O165 C164 1.244 . S
O166 C142 1.257 . S
O166 Zn145 2.019 . S
H167 C160 0.930 . S
H168 C147 0.930 . S
H169 C159 0.930 . S
Zn170 N174 2.020 . S
Zn170 O178 2.019 . S
Zn170 N180 2.119 . S
Zn170 O188 1.975 1_545 S
C171 N172 1.334 . S
C171 N175 1.336 . S
N172 C171 1.334 . S
N172 C173 1.334 . S
C173 N172 1.334 . S
C173 N174 1.336 . S
N174 Zn170 2.020 . S
N174 C173 1.336 . S
N174 N175 1.354 . S
N175 C171 1.336 . S
N175 N174 1.354 . S
N175 Zn179 2.020 1_545 S
C176 O177 1.244 . S
C176 O200 1.257 . S
O177 C176 1.244 . S
O178 Zn170 2.019 . S
O178 C198 1.257 . S
Zn179 N175 2.020 1_565 S
Zn179 O186 1.975 . S
Zn179 N195 2.119 . S
Zn179 O200 2.019 . S
N180 Zn170 2.119 . S
N180 C182 1.334 1_545 S
N180 C183 1.328 . S
C181 C182 1.391 . S
C181 N184 1.329 . S
C181 H202 0.930 . S
C182 N180 1.334 1_565 S
C182 C181 1.391 . S
C182 H189 0.930 . S
C183 N180 1.328 . S
C183 C185 1.395 . S
C183 H190 0.930 . S
N184 C181 1.329 . S
N184 C185 1.325 1_565 S
C185 C183 1.395 . S
C185 N184 1.325 1_545 S
O186 Zn179 1.975 . S
O186 C187 1.252 . S
C187 O186 1.252 . S
C187 O188 1.252 . S
O188 Zn170 1.975 1_565 S
O188 C187 1.252 . S
H189 C182 0.930 . S
H190 C183 0.930 . S
C191 C192 1.392 1_556 S
C191 N195 1.328 . S
C191 H197 0.930 . S
C192 C191 1.392 1_554 S
C192 N196 1.331 . S
C193 C194 1.391 . S
C193 N196 1.329 1_556 S
C193 H203 0.930 . S
C194 C193 1.391 . S
C194 N195 1.334 . S
C194 H201 0.924 1_565 S
N195 Zn179 2.119 . S
N195 C191 1.328 . S
N195 C194 1.334 . S
N196 C192 1.331 . S
N196 C193 1.329 1_554 S
H197 C191 0.930 . S
C198 O178 1.257 . S
C198 O199 1.244 . S
O199 C198 1.244 . S
O200 C176 1.257 . S
O200 Zn179 2.019 . S
H201 C194 0.924 1_545 S
H202 C181 0.930 . S
H203 C193 0.930 . S
Zn204 N208 2.020 . S
Zn204 O212 2.019 . S
Zn204 N214 2.119 1_655 S
Zn204 O222 1.975 1_655 S
C205 N206 1.334 . S
C205 N209 1.336 . S
N206 C205 1.334 . S
N206 C207 1.334 1_554 S
C207 N206 1.334 1_556 S
C207 N208 1.336 . S
N208 Zn204 2.020 . S
N208 C207 1.336 . S
N208 N209 1.354 1_556 S
N209 C205 1.336 . S
N209 N208 1.354 1_554 S
N209 Zn213 2.020 1_655 S
C210 O211 1.244 . S
C210 O234 1.257 . S
O211 C210 1.244 . S
O212 Zn204 2.019 . S
O212 C232 1.257 . S
Zn213 N209 2.020 1_455 S
Zn213 O220 1.975 . S
Zn213 N229 2.119 . S
Zn213 O234 2.019 . S
N214 Zn204 2.119 1_455 S
N214 C216 1.334 . S
N214 C217 1.325 1_455 S
C215 C216 1.391 . S
C215 N218 1.329 . S
C215 H236 0.930 . S
C216 N214 1.334 . S
C216 C215 1.391 . S
C216 H223 0.930 . S
C217 N214 1.325 1_655 S
C217 C219 1.387 1_655 S
C217 H224 0.939 . S
N218 C215 1.329 . S
N218 C219 1.331 . S
C219 C217 1.387 1_455 S
C219 N218 1.331 . S
O220 Zn213 1.975 . S
O220 C221 1.252 1_554 S
C221 O220 1.252 1_556 S
C221 O222 1.252 . S
O222 Zn204 1.975 1_455 S
O222 C221 1.252 . S
H223 C216 0.930 . S
H224 C217 0.939 . S
C225 C226 1.392 . S
C225 N229 1.328 . S
C225 H231 0.930 . S
C226 C225 1.392 . S
C226 N230 1.331 . S
C227 C228 1.391 . S
C227 N230 1.329 . S
C227 H237 0.930 . S
C228 C227 1.391 . S
C228 N229 1.334 . S
C228 H235 0.930 . S
N229 Zn213 2.119 . S
N229 C225 1.328 . S
N229 C228 1.334 . S
N230 C226 1.331 . S
N230 C227 1.329 . S
H231 C225 0.930 . S
C232 O212 1.257 . S
C232 O233 1.244 . S
O233 C232 1.244 . S
O234 C210 1.257 . S
O234 Zn213 2.019 . S
H235 C228 0.930 . S
H236 C215 0.930 . S
H237 C227 0.930 . S
Zn238 N242 2.020 . S
Zn238 O246 2.019 . S
Zn238 N248 2.119 . S
Zn238 O256 1.975 . S
C239 N240 1.334 . S
C239 N243 1.336 . S
N240 C239 1.334 . S
N240 C241 1.334 . S
C241 N240 1.334 . S
C241 N242 1.336 . S
N242 Zn238 2.020 . S
N242 C241 1.336 . S
N242 N243 1.354 . S
N243 C239 1.336 . S
N243 N242 1.354 . S
N243 Zn247 2.020 . S
C244 O245 1.244 . S
C244 O268 1.257 . S
O245 C244 1.244 . S
O246 Zn238 2.019 . S
O246 C266 1.257 . S
Zn247 N243 2.020 . S
Zn247 O254 1.975 . S
Zn247 N263 2.119 . S
Zn247 O268 2.019 . S
N248 Zn238 2.119 . S
N248 C250 1.334 . S
N248 C251 1.328 . S
C249 C250 1.391 . S
C249 N252 1.329 . S
C249 H270 0.930 . S
C250 N248 1.334 . S
C250 C249 1.391 . S
C250 H257 0.930 . S
C251 N248 1.328 . S
C251 C253 1.392 . S
C251 H258 0.930 . S
N252 C249 1.329 . S
N252 C253 1.331 . S
C253 C251 1.392 . S
C253 N252 1.331 . S
O254 Zn247 1.975 . S
O254 C255 1.252 . S
C255 O254 1.252 . S
C255 O256 1.252 . S
O256 Zn238 1.975 . S
O256 C255 1.252 . S
H257 C250 0.930 . S
H258 C251 0.930 . S
C259 C260 1.392 1_554 S
C259 N263 1.328 . S
C259 H265 0.930 . S
C260 C259 1.392 1_556 S
C260 N264 1.331 . S
C261 C262 1.391 . S
C261 N264 1.329 1_554 S
C261 H271 0.930 . S
C262 C261 1.391 . S
C262 N263 1.334 . S
C262 H269 0.930 . S
N263 Zn247 2.119 . S
N263 C259 1.328 . S
N263 C262 1.334 . S
N264 C260 1.331 . S
N264 C261 1.329 1_556 S
H265 C259 0.930 . S
C266 O246 1.257 . S
C266 O267 1.244 . S
O267 C266 1.244 . S
O268 C244 1.257 . S
O268 Zn247 2.019 . S
H269 C262 0.930 . S
H270 C249 0.930 . S
H271 C261 0.930 . S
C272 C273 1.391 1_455 S
C272 C274 1.394 . S
C272 H288 0.931 . S
C273 C272 1.391 1_655 S
C273 C277 1.376 . S
C274 C272 1.394 . S
C274 C275 1.369 1_455 S
C274 C278 1.531 . S
C275 C274 1.369 1_655 S
C275 C276 1.410 . S
C275 C283 1.503 1_665 S
C276 C275 1.410 . S
C276 C277 1.392 . S
C276 C279 1.511 1_565 S
C277 C273 1.376 . S
C277 C276 1.392 . S
C277 H289 0.929 . S
C278 C274 1.531 . S
C278 H290 0.960 . S
C278 H291 0.962 . S
C278 H292 0.960 . S
C279 C276 1.511 1_545 S
C279 H293 0.961 1_546 S
C279 H294 0.961 1_556 S
C279 H295 0.961 . S
C280 C281 1.370 . S
C280 C282 1.363 . S
C280 H296 0.931 1_556 S
C281 C280 1.370 . S
C281 C285 1.408 . S
C282 C280 1.363 . S
C282 C283 1.370 . S
C282 C286 1.524 1_556 S
C283 C275 1.503 1_445 S
C283 C282 1.370 . S
C283 C284 1.403 1_455 S
C284 C283 1.403 1_655 S
C284 C285 1.404 1_655 S
C284 C287 1.539 . S
C285 C281 1.408 . S
C285 C284 1.404 1_455 S
C285 H297 0.930 . S
C286 C282 1.524 1_554 S
C286 H298 0.956 1_545 S
C286 H299 0.961 1_545 S
C286 H300 0.961 . S
C287 C284 1.539 . S
C287 H301 0.958 . S
C287 H302 0.961 . S
C287 H303 0.960 . S
H288 C272 0.931 . S
H289 C277 0.929 . S
H290 C278 0.960 . S
H291 C278 0.962 . S
H292 C278 0.960 . S
H293 C279 0.961 1_564 S
H294 C279 0.961 1_554 S
H295 C279 0.961 . S
H296 C280 0.931 1_554 S
H297 C285 0.930 . S
H298 C286 0.956 1_565 S
H299 C286 0.961 1_565 S
H300 C286 0.961 . S
H301 C287 0.958 . S
H302 C287 0.961 . S
H303 C287 0.960 . S
C304 C305 1.391 . S
C304 C306 1.394 . S
C304 H320 0.931 . S
C305 C304 1.391 . S
C305 C309 1.376 . S
C306 C304 1.394 . S
C306 C307 1.369 . S
C306 C310 1.531 1_655 S
C307 C306 1.369 . S
C307 C308 1.410 . S
C307 C315 1.503 1_655 S
C308 C307 1.410 . S
C308 C309 1.392 . S
C308 C311 1.511 . S
C309 C305 1.376 . S
C309 C308 1.392 . S
C309 H321 0.929 . S
C310 C306 1.531 1_455 S
C310 H322 0.960 . S
C310 H323 0.962 . S
C310 H324 0.960 1_455 S
C311 C308 1.511 . S
C311 H325 0.961 . S
C311 H326 0.961 . S
C311 H327 0.961 . S
C312 C313 1.370 . S
C312 C314 1.363 . S
C312 H328 0.931 . S
C313 C312 1.370 . S
C313 C317 1.408 . S
C314 C312 1.363 . S
C314 C315 1.370 . S
C314 C318 1.524 . S
C315 C307 1.503 1_455 S
C315 C314 1.370 . S
C315 C316 1.403 . S
C316 C315 1.403 . S
C316 C317 1.404 . S
C316 C319 1.539 . S
C317 C313 1.408 . S
C317 C316 1.404 . S
C317 H329 0.930 . S
C318 C314 1.524 . S
C318 H330 0.956 . S
C318 H331 0.956 1_455 S
C318 H332 0.961 . S
C319 C316 1.539 . S
C319 H333 0.958 . S
C319 H334 0.961 . S
C319 H335 0.960 1_455 S
H320 C304 0.931 . S
H321 C309 0.929 . S
H322 C310 0.960 . S
H323 C310 0.962 . S
H324 C310 0.960 1_655 S
H325 C311 0.961 . S
H326 C311 0.961 . S
H327 C311 0.961 . S
H328 C312 0.931 . S
H329 C317 0.930 . S
H330 C318 0.956 . S
H331 C318 0.956 1_655 S
H332 C318 0.961 . S
H333 C319 0.958 . S
H334 C319 0.961 . S
H335 C319 0.960 1_655 S
C336 C337 1.391 . S
C336 C338 1.394 . S
C336 H352 0.931 . S
C337 C336 1.391 . S
C337 C341 1.376 . S
C338 C336 1.394 . S
C338 C339 1.369 . S
C338 C342 1.531 . S
C339 C338 1.369 . S
C339 C340 1.410 . S
C339 C347 1.503 . S
C340 C339 1.410 . S
C340 C341 1.392 . S
C340 C343 1.511 . S
C341 C337 1.376 . S
C341 C340 1.392 . S
C341 H353 0.929 . S
C342 C338 1.531 . S
C342 H354 0.960 . S
C342 H355 0.962 . S
C342 H356 0.960 . S
C343 C340 1.511 . S
C343 H357 0.961 . S
C343 H358 0.961 . S
C343 H359 0.961 . S
C344 C345 1.370 . S
C344 C346 1.363 . S
C344 H360 0.931 . S
C345 C344 1.370 . S
C345 C349 1.408 . S
C346 C344 1.363 . S
C346 C347 1.370 . S
C346 C350 1.524 . S
C347 C339 1.503 . S
C347 C346 1.370 . S
C347 C348 1.403 . S
C348 C347 1.403 . S
C348 C349 1.404 . S
C348 C351 1.539 . S
C349 C345 1.408 . S
C349 C348 1.404 . S
C349 H361 0.930 . S
C350 C346 1.524 . S
C350 H362 0.956 . S
C350 H363 0.961 . S
C350 H364 0.961 . S
C351 C348 1.539 . S
C351 H365 0.958 . S
C351 H366 0.961 . S
C351 H367 0.960 . S
H352 C336 0.931 . S
H353 C341 0.929 . S
H354 C342 0.960 . S
H355 C342 0.962 . S
H356 C342 0.960 . S
H357 C343 0.961 . S
H358 C343 0.961 . S
H359 C343 0.961 . S
H360 C344 0.931 . S
H361 C349 0.930 . S
H362 C350 0.956 . S
H363 C350 0.961 . S
H364 C350 0.961 . S
H365 C351 0.958 . S
H366 C351 0.961 . S
H367 C351 0.960 . S
C368 C369 1.391 1_545 S
C368 C370 1.394 . S
C368 H384 0.931 . S
C369 C368 1.391 1_565 S
C369 C373 1.376 . S
C370 C368 1.394 . S
C370 C371 1.369 1_545 S
C370 C374 1.531 . S
C371 C370 1.369 1_565 S
C371 C372 1.410 . S
C371 C379 1.503 1_565 S
C372 C371 1.410 . S
C372 C373 1.392 . S
C372 C375 1.511 . S
C373 C369 1.376 . S
C373 C372 1.392 . S
C373 H385 0.929 . S
C374 C370 1.531 . S
C374 H386 0.960 . S
C374 H387 0.962 . S
C374 H388 0.960 . S
C375 C372 1.511 . S
C375 H389 0.961 . S
C375 H390 0.961 . S
C375 H391 0.961 . S
C376 C377 1.370 . S
C376 C378 1.363 . S
C376 H392 0.931 . S
C377 C376 1.370 . S
C377 C381 1.408 . S
C378 C376 1.363 . S
C378 C379 1.370 . S
C378 C382 1.524 . S
C379 C371 1.503 1_545 S
C379 C378 1.370 . S
C379 C380 1.398 1_545 S
C380 C379 1.398 1_565 S
C380 C381 1.397 1_565 S
C380 C383 1.552 . S
C381 C377 1.408 . S
C381 C380 1.397 1_545 S
C381 H393 0.930 . S
C382 C378 1.524 . S
C382 H394 0.956 . S
C382 H395 0.961 . S
C382 H396 0.961 . S
C383 C380 1.552 . S
C383 H397 0.958 . S
C383 H398 0.961 . S
C383 H399 0.960 . S
H384 C368 0.931 . S
H385 C373 0.929 . S
H386 C374 0.960 . S
H387 C374 0.962 . S
H388 C374 0.960 . S
H389 C375 0.961 . S
H390 C375 0.961 . S
H391 C375 0.961 . S
H392 C376 0.931 . S
H393 C381 0.930 . S
H394 C382 0.956 . S
H395 C382 0.961 . S
H396 C382 0.961 . S
H397 C383 0.958 . S
H398 C383 0.961 . S
H399 C383 0.960 . S
C400 C401 1.391 . S
C400 C402 1.394 . S
C400 H416 0.931 . S
C401 C400 1.391 . S
C401 C405 1.376 . S
C402 C400 1.394 . S
C402 C403 1.369 . S
C402 C406 1.531 . S
C403 C402 1.369 . S
C403 C404 1.410 . S
C403 C411 1.503 . S
C404 C403 1.410 . S
C404 C405 1.392 . S
C404 C407 1.511 . S
C405 C401 1.376 . S
C405 C404 1.392 . S
C405 H417 0.929 . S
C406 C402 1.531 . S
C406 H418 0.960 . S
C406 H419 0.962 . S
C406 H420 0.960 . S
C407 C404 1.511 . S
C407 H421 0.961 . S
C407 H422 0.961 . S
C407 H423 0.961 . S
C408 C409 1.370 . S
C408 C410 1.363 . S
C408 H424 0.931 . S
C409 C408 1.370 . S
C409 C413 1.408 . S
C410 C408 1.363 . S
C410 C411 1.370 . S
C410 C414 1.524 . S
C411 C403 1.503 . S
C411 C410 1.370 . S
C411 C412 1.403 . S
C412 C411 1.403 . S
C412 C413 1.404 . S
C412 C415 1.539 . S
C413 C409 1.408 . S
C413 C412 1.404 . S
C413 H425 0.930 . S
C414 C410 1.524 . S
C414 H426 0.956 . S
C414 H427 0.961 . S
C414 H428 0.961 1_556 S
C415 C412 1.539 . S
C415 H429 0.958 . S
C415 H430 0.961 . S
C415 H431 0.960 . S
H416 C400 0.931 . S
H417 C405 0.929 . S
H418 C406 0.960 . S
H419 C406 0.962 . S
H420 C406 0.960 . S
H421 C407 0.961 . S
H422 C407 0.961 . S
H423 C407 0.961 . S
H424 C408 0.931 . S
H425 C413 0.930 . S
H426 C414 0.956 . S
H427 C414 0.961 . S
H428 C414 0.961 1_554 S
H429 C415 0.958 . S
H430 C415 0.961 . S
H431 C415 0.960 . S
C432 C433 1.391 . S
C432 C434 1.394 . S
C432 H448 0.931 . S
C433 C432 1.391 . S
C433 C437 1.376 . S
C434 C432 1.394 . S
C434 C435 1.369 . S
C434 C438 1.531 . S
C435 C434 1.369 . S
C435 C436 1.410 . S
C435 C443 1.503 . S
C436 C435 1.410 . S
C436 C437 1.392 . S
C436 C439 1.511 . S
C437 C433 1.376 . S
C437 C436 1.392 . S
C437 H449 0.929 . S
C438 C434 1.531 . S
C438 H450 0.960 . S
C438 H451 0.962 . S
C438 H452 0.960 . S
C439 C436 1.511 . S
C439 H453 0.961 . S
C439 H454 0.961 . S
C439 H455 0.961 . S
C440 C441 1.370 . S
C440 C442 1.363 . S
C440 H456 0.931 . S
C441 C440 1.370 . S
C441 C445 1.408 . S
C442 C440 1.363 . S
C442 C443 1.370 . S
C442 C446 1.524 . S
C443 C435 1.503 . S
C443 C442 1.370 . S
C443 C444 1.403 . S
C444 C443 1.403 . S
C444 C445 1.404 . S
C444 C447 1.539 . S
C445 C441 1.408 . S
C445 C444 1.404 . S
C445 H457 0.930 . S
C446 C442 1.524 . S
C446 H458 0.956 . S
C446 H459 0.961 . S
C446 H460 0.961 . S
C447 C444 1.539 . S
C447 H461 0.958 . S
C447 H462 0.961 . S
C447 H463 0.960 . S
H448 C432 0.931 . S
H449 C437 0.929 . S
H450 C438 0.960 . S
H451 C438 0.962 . S
H452 C438 0.960 . S
H453 C439 0.961 . S
H454 C439 0.961 . S
H455 C439 0.961 . S
H456 C440 0.931 . S
H457 C445 0.930 . S
H458 C446 0.956 . S
H459 C446 0.961 . S
H460 C446 0.961 . S
H461 C447 0.958 . S
H462 C447 0.961 . S
H463 C447 0.960 . S
C464 C465 1.391 . S
C464 C466 1.394 . S
C464 H480 0.931 . S
C465 C464 1.391 . S
C465 C469 1.376 . S
C466 C464 1.394 . S
C466 C467 1.369 . S
C466 C470 1.531 . S
C467 C466 1.369 . S
C467 C468 1.410 . S
C467 C475 1.503 . S
C468 C467 1.410 . S
C468 C469 1.392 . S
C468 C471 1.511 . S
C469 C465 1.376 . S
C469 C468 1.392 . S
C469 H481 0.929 . S
C470 C466 1.531 . S
C470 H482 0.960 . S
C470 H483 0.962 . S
C470 H484 0.960 . S
C471 C468 1.511 . S
C471 H485 0.961 . S
C471 H486 0.961 . S
C471 H487 0.961 . S
C472 C473 1.370 . S
C472 C474 1.363 . S
C472 H488 0.931 . S
C473 C472 1.370 . S
C473 C477 1.408 . S
C474 C472 1.363 . S
C474 C475 1.370 . S
C474 C478 1.524 . S
C475 C467 1.503 . S
C475 C474 1.370 . S
C475 C476 1.403 . S
C476 C475 1.403 . S
C476 C477 1.404 . S
C476 C479 1.539 . S
C477 C473 1.408 . S
C477 C476 1.404 . S
C477 H489 0.930 . S
C478 C474 1.524 . S
C478 H490 0.956 . S
C478 H491 0.961 . S
C478 H492 0.961 . S
C479 C476 1.539 . S
C479 H493 0.958 . S
C479 H494 0.961 . S
C479 H495 0.960 . S
H480 C464 0.931 . S
H481 C469 0.929 . S
H482 C470 0.960 . S
H483 C470 0.962 . S
H484 C470 0.960 . S
H485 C471 0.961 . S
H486 C471 0.961 . S
H487 C471 0.961 . S
H488 C472 0.931 . S
H489 C477 0.930 . S
H490 C478 0.956 . S
H491 C478 0.961 . S
H492 C478 0.961 . S
H493 C479 0.958 . S
H494 C479 0.961 . S
H495 C479 0.960 . S
C496 C497 1.391 . S
C496 C498 1.394 . S
C496 H512 0.931 . S
C497 C496 1.391 . S
C497 C501 1.376 . S
C498 C496 1.394 . S
C498 C499 1.369 . S
C498 C502 1.531 . S
C499 C498 1.369 . S
C499 C500 1.410 . S
C499 C507 1.503 . S
C500 C499 1.410 . S
C500 C501 1.392 . S
C500 C503 1.511 . S
C501 C497 1.376 . S
C501 C500 1.392 . S
C501 H513 0.929 . S
C502 C498 1.531 . S
C502 H514 0.960 . S
C502 H515 0.962 . S
C502 H516 0.960 . S
C503 C500 1.511 . S
C503 H517 0.961 . S
C503 H518 0.961 . S
C503 H519 0.961 . S
C504 C505 1.370 . S
C504 C506 1.363 . S
C504 H520 0.931 . S
C505 C504 1.370 . S
C505 C509 1.408 . S
C506 C504 1.363 . S
C506 C507 1.370 . S
C506 C510 1.524 . S
C507 C499 1.503 . S
C507 C506 1.370 . S
C507 C508 1.403 . S
C508 C507 1.403 . S
C508 C509 1.404 . S
C508 C511 1.539 . S
C509 C505 1.408 . S
C509 C508 1.404 . S
C509 H521 0.930 . S
C510 C506 1.524 . S
C510 H522 0.956 . S
C510 H523 0.961 . S
C510 H524 0.961 . S
C511 C508 1.539 . S
C511 H525 0.958 . S
C511 H526 0.961 . S
C511 H527 0.960 . S
H512 C496 0.931 . S
H513 C501 0.929 . S
H514 C502 0.960 . S
H515 C502 0.962 . S
H516 C502 0.960 . S
H517 C503 0.961 . S
H518 C503 0.961 . S
H519 C503 0.961 . S
H520 C504 0.931 . S
H521 C509 0.930 . S
H522 C510 0.956 . S
H523 C510 0.961 . S
H524 C510 0.961 . S
H525 C511 0.958 . S
H526 C511 0.961 . S
H527 C511 0.960 . S
C528 C529 1.391 . S
C528 C530 1.394 . S
C528 H544 0.931 . S
C529 C528 1.391 . S
C529 C533 1.376 . S
C530 C528 1.394 . S
C530 C531 1.369 . S
C530 C534 1.531 . S
C531 C530 1.369 . S
C531 C532 1.410 . S
C531 C539 1.503 . S
C532 C531 1.410 . S
C532 C533 1.392 . S
C532 C535 1.511 . S
C533 C529 1.376 . S
C533 C532 1.392 . S
C533 H545 0.929 . S
C534 C530 1.531 . S
C534 H546 0.960 1_556 S
C534 H547 0.962 1_556 S
C534 H548 0.960 1_556 S
C535 C532 1.511 . S
C535 H549 0.961 . S
C535 H550 0.961 . S
C535 H551 0.961 . S
C536 C537 1.370 . S
C536 C538 1.363 . S
C536 H552 0.931 . S
C537 C536 1.370 . S
C537 C541 1.408 . S
C538 C536 1.363 . S
C538 C539 1.370 . S
C538 C542 1.524 . S
C539 C531 1.503 . S
C539 C538 1.370 . S
C539 C540 1.403 . S
C540 C539 1.403 . S
C540 C541 1.404 . S
C540 C543 1.539 . S
C541 C537 1.408 . S
C541 C540 1.404 . S
C541 H553 0.930 1_556 S
C542 C538 1.524 . S
C542 H554 0.956 . S
C542 H555 0.961 . S
C542 H556 0.961 . S
C543 C540 1.539 . S
C543 H557 0.958 . S
C543 H558 0.961 . S
C543 H559 0.960 . S
H544 C528 0.931 . S
H545 C533 0.929 . S
H546 C534 0.960 1_554 S
H547 C534 0.962 1_554 S
H548 C534 0.960 1_554 S
H549 C535 0.961 . S
H550 C535 0.961 . S
H551 C535 0.961 . S
H552 C536 0.931 . S
H553 C541 0.930 1_554 S
H554 C542 0.956 . S
H555 C542 0.961 . S
H556 C542 0.961 . S
H557 C543 0.958 . S
H558 C543 0.961 . S
H559 C543 0.960 . S
C560 C561 1.391 . S
C560 C562 1.394 . S
C560 H576 0.931 . S
C561 C560 1.391 . S
C561 C565 1.376 . S
C562 C560 1.394 . S
C562 C563 1.369 . S
C562 C566 1.531 . S
C563 C562 1.369 . S
C563 C564 1.410 . S
C563 C571 1.503 . S
C564 C563 1.410 . S
C564 C565 1.392 . S
C564 C567 1.511 . S
C565 C561 1.376 . S
C565 C564 1.392 . S
C565 H577 0.929 . S
C566 C562 1.531 . S
C566 H578 0.960 . S
C566 H579 0.962 . S
C566 H580 0.960 . S
C567 C564 1.511 . S
C567 H581 0.961 . S
C567 H582 0.961 . S
C567 H583 0.961 . S
C568 C569 1.370 . S
C568 C570 1.363 . S
C568 H584 0.931 . S
C569 C568 1.370 . S
C569 C573 1.408 . S
C570 C568 1.363 . S
C570 C571 1.370 . S
C570 C574 1.524 . S
C571 C563 1.503 . S
C571 C570 1.370 . S
C571 C572 1.403 . S
C572 C571 1.403 . S
C572 C573 1.404 . S
C572 C575 1.539 . S
C573 C569 1.408 . S
C573 C572 1.404 . S
C573 H585 0.930 . S
C574 C570 1.524 . S
C574 H586 0.956 . S
C574 H587 0.961 . S
C574 H588 0.961 . S
C575 C572 1.539 . S
C575 H589 0.958 . S
C575 H590 0.961 . S
C575 H591 0.960 . S
H576 C560 0.931 . S
H577 C565 0.929 . S
H578 C566 0.960 . S
H579 C566 0.962 . S
H580 C566 0.960 . S
H581 C567 0.961 . S
H582 C567 0.961 . S
H583 C567 0.961 . S
H584 C568 0.931 . S
H585 C573 0.930 . S
H586 C574 0.956 . S
H587 C574 0.961 . S
H588 C574 0.961 . S
H589 C575 0.958 . S
H590 C575 0.961 . S
H591 C575 0.960 . S
C592 C593 1.391 . S
C592 C594 1.394 . S
C592 H608 0.931 . S
C593 C592 1.391 . S
C593 C597 1.376 . S
C594 C592 1.394 . S
C594 C595 1.369 . S
C594 C598 1.531 . S
C595 C594 1.369 . S
C595 C596 1.410 . S
C595 C603 1.503 . S
C596 C595 1.410 . S
C596 C597 1.392 . S
C596 C599 1.511 . S
C597 C593 1.376 . S
C597 C596 1.392 . S
C597 H609 0.929 . S
C598 C594 1.531 . S
C598 H610 0.960 . S
C598 H611 0.962 . S
C598 H612 0.960 . S
C599 C596 1.511 . S
C599 H613 0.961 . S
C599 H614 0.961 . S
C599 H615 0.961 . S
C600 C601 1.370 . S
C600 C602 1.363 . S
C600 H616 0.931 . S
C601 C600 1.370 . S
C601 C605 1.408 . S
C602 C600 1.363 . S
C602 C603 1.370 . S
C602 C606 1.524 . S
C603 C595 1.503 . S
C603 C602 1.370 . S
C603 C604 1.403 . S
C604 C603 1.403 . S
C604 C605 1.404 . S
C604 C607 1.539 . S
C605 C601 1.408 . S
C605 C604 1.404 . S
C605 H617 0.930 . S
C606 C602 1.524 . S
C606 H618 0.956 . S
C606 H619 0.961 . S
C606 H620 0.961 . S
C607 C604 1.539 . S
C607 H621 0.958 . S
C607 H622 0.961 . S
C607 H623 0.960 . S
H608 C592 0.931 . S
H609 C597 0.929 . S
H610 C598 0.960 . S
H611 C598 0.962 . S
H612 C598 0.960 . S
H613 C599 0.961 . S
H614 C599 0.961 . S
H615 C599 0.961 . S
H616 C600 0.931 . S
H617 C605 0.930 . S
H618 C606 0.956 . S
H619 C606 0.961 . S
H620 C606 0.961 . S
H621 C607 0.958 . S
H622 C607 0.961 . S
H623 C607 0.960 . S
C624 C625 1.391 . S
C624 C626 1.394 . S
C624 H640 0.931 . S
C625 C624 1.391 . S
C625 C629 1.376 . S
C626 C624 1.394 . S
C626 C627 1.369 . S
C626 C630 1.531 . S
C627 C626 1.369 . S
C627 C628 1.410 . S
C627 C635 1.503 . S
C628 C627 1.410 . S
C628 C629 1.392 . S
C628 C631 1.511 . S
C629 C625 1.376 . S
C629 C628 1.392 . S
C629 H641 0.929 . S
C630 C626 1.531 . S
C630 H642 0.960 . S
C630 H643 0.962 . S
C630 H644 0.960 . S
C631 C628 1.511 . S
C631 H645 0.961 . S
C631 H646 0.961 . S
C631 H647 0.961 . S
C632 C633 1.370 . S
C632 C634 1.363 . S
C632 H648 0.931 . S
C633 C632 1.370 . S
C633 C637 1.408 . S
C634 C632 1.363 . S
C634 C635 1.370 . S
C634 C638 1.524 . S
C635 C627 1.503 . S
C635 C634 1.370 . S
C635 C636 1.403 . S
C636 C635 1.403 . S
C636 C637 1.404 . S
C636 C639 1.539 . S
C637 C633 1.408 . S
C637 C636 1.404 . S
C637 H649 0.930 . S
C638 C634 1.524 . S
C638 H650 0.956 . S
C638 H651 0.961 . S
C638 H652 0.961 . S
C639 C636 1.539 . S
C639 H653 0.958 . S
C639 H654 0.961 . S
C639 H655 0.960 . S
H640 C624 0.931 . S
H641 C629 0.929 . S
H642 C630 0.960 . S
H643 C630 0.962 . S
H644 C630 0.960 . S
H645 C631 0.961 . S
H646 C631 0.961 . S
H647 C631 0.961 . S
H648 C632 0.931 . S
H649 C637 0.930 . S
H650 C638 0.956 . S
H651 C638 0.961 . S
H652 C638 0.961 . S
H653 C639 0.958 . S
H654 C639 0.961 . S
H655 C639 0.960 . S
C656 C657 1.391 . S
C656 C658 1.394 . S
C656 H672 0.931 . S
C657 C656 1.391 . S
C657 C661 1.376 . S
C658 C656 1.394 . S
C658 C659 1.369 . S
C658 C662 1.531 . S
C659 C658 1.369 . S
C659 C660 1.410 . S
C659 C667 1.503 . S
C660 C659 1.410 . S
C660 C661 1.392 . S
C660 C663 1.511 . S
C661 C657 1.376 . S
C661 C660 1.392 . S
C661 H673 0.929 . S
C662 C658 1.531 . S
C662 H674 0.960 . S
C662 H675 0.962 . S
C662 H676 0.960 . S
C663 C660 1.511 . S
C663 H677 0.961 . S
C663 H678 0.961 . S
C663 H679 0.961 . S
C664 C665 1.370 . S
C664 C666 1.363 . S
C664 H680 0.931 . S
C665 C664 1.370 . S
C665 C669 1.408 . S
C666 C664 1.363 . S
C666 C667 1.370 . S
C666 C670 1.524 . S
C667 C659 1.503 . S
C667 C666 1.370 . S
C667 C668 1.403 . S
C668 C667 1.403 . S
C668 C669 1.404 . S
C668 C671 1.539 . S
C669 C665 1.408 . S
C669 C668 1.404 . S
C669 H681 0.930 . S
C670 C666 1.524 . S
C670 H682 0.956 . S
C670 H683 0.961 . S
C670 H684 0.961 . S
C671 C668 1.539 . S
C671 H685 0.958 . S
C671 H686 0.961 . S
C671 H687 0.960 . S
H672 C656 0.931 . S
H673 C661 0.929 . S
H674 C662 0.960 . S
H675 C662 0.962 . S
H676 C662 0.960 . S
H677 C663 0.961 . S
H678 C663 0.961 . S
H679 C663 0.961 . S
H680 C664 0.931 . S
H681 C669 0.930 . S
H682 C670 0.956 . S
H683 C670 0.961 . S
H684 C670 0.961 . S
H685 C671 0.958 . S
H686 C671 0.961 . S
H687 C671 0.960 . S
C688 C689 1.391 . S
C688 C690 1.394 . S
C688 H704 0.931 . S
C689 C688 1.391 . S
C689 C693 1.376 . S
C690 C688 1.394 . S
C690 C691 1.369 . S
C690 C694 1.531 . S
C691 C690 1.369 . S
C691 C692 1.410 . S
C691 C699 1.503 . S
C692 C691 1.410 . S
C692 C693 1.392 . S
C692 C695 1.511 . S
C693 C689 1.376 . S
C693 C692 1.392 . S
C693 H705 0.929 . S
C694 C690 1.531 . S
C694 H706 0.960 . S
C694 H707 0.962 . S
C694 H708 0.960 . S
C695 C692 1.511 . S
C695 H709 0.961 . S
C695 H710 0.961 . S
C695 H711 0.961 . S
C696 C697 1.370 . S
C696 C698 1.363 . S
C696 H712 0.931 . S
C697 C696 1.370 . S
C697 C701 1.408 . S
C698 C696 1.363 . S
C698 C699 1.370 . S
C698 C702 1.524 . S
C699 C691 1.503 . S
C699 C698 1.370 . S
C699 C700 1.403 . S
C700 C699 1.403 . S
C700 C701 1.404 . S
C700 C703 1.539 . S
C701 C697 1.408 . S
C701 C700 1.404 . S
C701 H713 0.930 . S
C702 C698 1.524 . S
C702 H714 0.956 . S
C702 H715 0.961 . S
C702 H716 0.961 . S
C703 C700 1.539 . S
C703 H717 0.958 . S
C703 H718 0.961 . S
C703 H719 0.960 . S
H704 C688 0.931 . S
H705 C693 0.929 . S
H706 C694 0.960 . S
H707 C694 0.962 . S
H708 C694 0.960 . S
H709 C695 0.961 . S
H710 C695 0.961 . S
H711 C695 0.961 . S
H712 C696 0.931 . S
H713 C701 0.930 . S
H714 C702 0.956 . S
H715 C702 0.961 . S
H716 C702 0.961 . S
H717 C703 0.958 . S
H718 C703 0.961 . S
H719 C703 0.960 . S
C720 C721 1.391 . S
C720 C722 1.394 . S
C720 H736 0.931 . S
C721 C720 1.391 . S
C721 C725 1.376 . S
C722 C720 1.394 . S
C722 C723 1.369 . S
C722 C726 1.531 . S
C723 C722 1.369 . S
C723 C724 1.410 . S
C723 C731 1.503 . S
C724 C723 1.410 . S
C724 C725 1.392 . S
C724 C727 1.511 . S
C725 C721 1.376 . S
C725 C724 1.392 . S
C725 H737 0.929 . S
C726 C722 1.531 . S
C726 H738 0.960 . S
C726 H739 0.962 . S
C726 H740 0.960 . S
C727 C724 1.511 . S
C727 H741 0.961 . S
C727 H742 0.961 . S
C727 H743 0.961 . S
C728 C729 1.370 . S
C728 C730 1.363 . S
C728 H744 0.931 . S
C729 C728 1.370 . S
C729 C733 1.408 . S
C730 C728 1.363 . S
C730 C731 1.370 . S
C730 C734 1.524 . S
C731 C723 1.503 . S
C731 C730 1.370 . S
C731 C732 1.403 . S
C732 C731 1.403 . S
C732 C733 1.404 . S
C732 C735 1.539 1_556 S
C733 C729 1.408 . S
C733 C732 1.404 . S
C733 H745 0.930 1_556 S
C734 C730 1.524 . S
C734 H746 0.956 . S
C734 H747 0.961 . S
C734 H748 0.961 . S
C735 C732 1.539 1_554 S
C735 H749 0.958 . S
C735 H750 0.961 . S
C735 H751 0.960 1_554 S
H736 C720 0.931 . S
H737 C725 0.929 . S
H738 C726 0.960 . S
H739 C726 0.962 . S
H740 C726 0.960 . S
H741 C727 0.961 . S
H742 C727 0.961 . S
H743 C727 0.961 . S
H744 C728 0.931 . S
H745 C733 0.930 1_554 S
H746 C734 0.956 . S
H747 C734 0.961 . S
H748 C734 0.961 . S
H749 C735 0.958 . S
H750 C735 0.961 . S
H751 C735 0.960 1_556 S
C752 C753 1.391 . S
C752 C754 1.394 . S
C752 H768 0.931 . S
C753 C752 1.391 . S
C753 C757 1.376 . S
C754 C752 1.394 . S
C754 C755 1.369 . S
C754 C758 1.531 . S
C755 C754 1.369 . S
C755 C756 1.410 . S
C755 C763 1.503 . S
C756 C755 1.410 . S
C756 C757 1.392 . S
C756 C759 1.511 . S
C757 C753 1.376 . S
C757 C756 1.392 . S
C757 H769 0.929 . S
C758 C754 1.531 . S
C758 H770 0.960 . S
C758 H771 0.962 . S
C758 H772 0.960 . S
C759 C756 1.511 . S
C759 H773 0.961 . S
C759 H774 0.961 . S
C759 H775 0.961 . S
C760 C761 1.370 . S
C760 C762 1.363 . S
C760 H776 0.931 . S
C761 C760 1.370 . S
C761 C765 1.408 . S
C762 C760 1.363 . S
C762 C763 1.370 . S
C762 C766 1.524 . S
C763 C755 1.503 . S
C763 C762 1.370 . S
C763 C764 1.403 . S
C764 C763 1.403 . S
C764 C765 1.404 . S
C764 C767 1.539 . S
C765 C761 1.408 . S
C765 C764 1.404 . S
C765 H777 0.930 . S
C766 C762 1.524 . S
C766 H778 0.956 . S
C766 H779 0.961 . S
C766 H780 0.961 . S
C767 C764 1.539 . S
C767 H781 0.958 1_554 S
C767 H782 0.961 . S
C767 H783 0.960 . S
H768 C752 0.931 . S
H769 C757 0.929 . S
H770 C758 0.960 . S
H771 C758 0.962 . S
H772 C758 0.960 . S
H773 C759 0.961 . S
H774 C759 0.961 . S
H775 C759 0.961 . S
H776 C760 0.931 . S
H777 C765 0.930 . S
H778 C766 0.956 . S
H779 C766 0.961 . S
H780 C766 0.961 . S
H781 C767 0.958 1_556 S
H782 C767 0.961 . S
H783 C767 0.960 . S
C784 C785 1.391 . S
C784 C786 1.394 . S
C784 H800 0.931 . S
C785 C784 1.391 . S
C785 C789 1.376 . S
C786 C784 1.394 . S
C786 C787 1.369 . S
C786 C790 1.531 . S
C787 C786 1.369 . S
C787 C788 1.410 . S
C787 C795 1.503 . S
C788 C787 1.410 . S
C788 C789 1.392 . S
C788 C791 1.511 . S
C789 C785 1.376 . S
C789 C788 1.392 . S
C789 H801 0.929 . S
C790 C786 1.531 . S
C790 H802 0.960 . S
C790 H803 0.962 . S
C790 H804 0.960 . S
C791 C788 1.511 . S
C791 H805 0.961 . S
C791 H806 0.961 . S
C791 H807 0.961 . S
C792 C793 1.370 . S
C792 C794 1.363 . S
C792 H808 0.931 . S
C793 C792 1.370 . S
C793 C797 1.408 . S
C794 C792 1.363 . S
C794 C795 1.370 . S
C794 C798 1.524 . S
C795 C787 1.503 . S
C795 C794 1.370 . S
C795 C796 1.403 . S
C796 C795 1.403 . S
C796 C797 1.404 . S
C796 C799 1.539 . S
C797 C793 1.408 . S
C797 C796 1.404 . S
C797 H809 0.930 . S
C798 C794 1.524 . S
C798 H810 0.956 . S
C798 H811 0.961 . S
C798 H812 0.961 . S
C799 C796 1.539 . S
C799 H813 0.958 . S
C799 H814 0.961 . S
C799 H815 0.960 . S
H800 C784 0.931 . S
H801 C789 0.929 . S
H802 C790 0.960 . S
H803 C790 0.962 . S
H804 C790 0.960 . S
H805 C791 0.961 . S
H806 C791 0.961 . S
H807 C791 0.961 . S
H808 C792 0.931 . S
H809 C797 0.930 . S
H810 C798 0.956 . S
H811 C798 0.961 . S
H812 C798 0.961 . S
H813 C799 0.958 . S
H814 C799 0.961 . S
H815 C799 0.960 . S
C816 C817 1.391 . S
C816 C818 1.394 . S
C816 H832 0.931 . S
C817 C816 1.391 . S
C817 C821 1.376 . S
C818 C816 1.394 . S
C818 C819 1.369 . S
C818 C822 1.531 . S
C819 C818 1.369 . S
C819 C820 1.410 . S
C819 C827 1.503 . S
C820 C819 1.410 . S
C820 C821 1.392 . S
C820 C823 1.511 . S
C821 C817 1.376 . S
C821 C820 1.392 . S
C821 H833 0.929 . S
C822 C818 1.531 . S
C822 H834 0.960 . S
C822 H835 0.962 . S
C822 H836 0.960 . S
C823 C820 1.511 . S
C823 H837 0.961 . S
C823 H838 0.961 . S
C823 H839 0.961 . S
C824 C825 1.370 . S
C824 C826 1.363 . S
C824 H840 0.931 . S
C825 C824 1.370 . S
C825 C829 1.408 . S
C826 C824 1.363 . S
C826 C827 1.370 . S
C826 C830 1.524 . S
C827 C819 1.503 . S
C827 C826 1.370 . S
C827 C828 1.403 . S
C828 C827 1.403 . S
C828 C829 1.404 . S
C828 C831 1.539 . S
C829 C825 1.408 . S
C829 C828 1.404 . S
C829 H841 0.930 . S
C830 C826 1.524 . S
C830 H842 0.956 . S
C830 H843 0.961 . S
C830 H844 0.961 . S
C831 C828 1.539 . S
C831 H845 0.958 . S
C831 H846 0.961 . S
C831 H847 0.960 . S
H832 C816 0.931 . S
H833 C821 0.929 . S
H834 C822 0.960 . S
H835 C822 0.962 . S
H836 C822 0.960 . S
H837 C823 0.961 . S
H838 C823 0.961 . S
H839 C823 0.961 . S
H840 C824 0.931 . S
H841 C829 0.930 . S
H842 C830 0.956 . S
H843 C830 0.961 . S
H844 C830 0.961 . S
H845 C831 0.958 . S
H846 C831 0.961 . S
H847 C831 0.960 . S
C848 C849 1.391 . S
C848 C850 1.394 . S
C848 H864 0.931 1_556 S
C849 C848 1.391 . S
C849 C853 1.376 . S
C850 C848 1.394 . S
C850 C851 1.369 . S
C850 C854 1.531 . S
C851 C850 1.369 . S
C851 C852 1.410 . S
C851 C859 1.503 . S
C852 C851 1.410 . S
C852 C853 1.392 . S
C852 C855 1.511 . S
C853 C849 1.376 . S
C853 C852 1.392 . S
C853 H865 0.929 . S
C854 C850 1.531 . S
C854 H866 0.960 . S
C854 H867 0.962 . S
C854 H868 0.960 1_556 S
C855 C852 1.511 . S
C855 H869 0.961 . S
C855 H870 0.961 . S
C855 H871 0.961 . S
C856 C857 1.370 . S
C856 C858 1.363 . S
C856 H872 0.931 . S
C857 C856 1.370 . S
C857 C861 1.408 . S
C858 C856 1.363 . S
C858 C859 1.370 . S
C858 C862 1.524 . S
C859 C851 1.503 . S
C859 C858 1.370 . S
C859 C860 1.403 . S
C860 C859 1.403 . S
C860 C861 1.404 . S
C860 C863 1.539 . S
C861 C857 1.408 . S
C861 C860 1.404 . S
C861 H873 0.930 . S
C862 C858 1.524 . S
C862 H874 0.956 . S
C862 H875 0.961 . S
C862 H876 0.961 . S
C863 C860 1.539 . S
C863 H877 0.958 1_556 S
C863 H878 0.961 . S
C863 H879 0.960 . S
H864 C848 0.931 1_554 S
H865 C853 0.929 . S
H866 C854 0.960 . S
H867 C854 0.962 . S
H868 C854 0.960 1_554 S
H869 C855 0.961 . S
H870 C855 0.961 . S
H871 C855 0.961 . S
H872 C856 0.931 . S
H873 C861 0.930 . S
H874 C862 0.956 . S
H875 C862 0.961 . S
H876 C862 0.961 . S
H877 C863 0.958 1_554 S
H878 C863 0.961 . S
H879 C863 0.960 . S
C880 C881 1.391 . S
C880 C882 1.394 . S
C880 H896 0.931 . S
C881 C880 1.391 . S
C881 C885 1.376 . S
C882 C880 1.394 . S
C882 C883 1.369 . S
C882 C886 1.531 . S
C883 C882 1.369 . S
C883 C884 1.410 . S
C883 C891 1.503 . S
C884 C883 1.410 . S
C884 C885 1.392 . S
C884 C887 1.511 . S
C885 C881 1.376 . S
C885 C884 1.392 . S
C885 H897 0.929 . S
C886 C882 1.531 . S
C886 H898 0.960 . S
C886 H899 0.962 . S
C886 H900 0.960 . S
C887 C884 1.511 . S
C887 H901 0.961 . S
C887 H902 0.961 . S
C887 H903 0.961 . S
C888 C889 1.370 . S
C888 C890 1.363 . S
C888 H904 0.931 . S
C889 C888 1.370 . S
C889 C893 1.408 . S
C890 C888 1.363 . S
C890 C891 1.370 . S
C890 C894 1.524 . S
C891 C883 1.503 . S
C891 C890 1.370 . S
C891 C892 1.403 . S
C892 C891 1.403 . S
C892 C893 1.404 . S
C892 C895 1.539 . S
C893 C889 1.408 . S
C893 C892 1.404 . S
C893 H905 0.930 . S
C894 C890 1.524 . S
C894 H906 0.956 . S
C894 H907 0.961 . S
C894 H908 0.961 . S
C895 C892 1.539 . S
C895 H909 0.958 . S
C895 H910 0.961 . S
C895 H911 0.960 . S
H896 C880 0.931 . S
H897 C885 0.929 . S
H898 C886 0.960 . S
H899 C886 0.962 . S
H900 C886 0.960 . S
H901 C887 0.961 . S
H902 C887 0.961 . S
H903 C887 0.961 . S
H904 C888 0.931 . S
H905 C893 0.930 . S
H906 C894 0.956 . S
H907 C894 0.961 . S
H908 C894 0.961 . S
H909 C895 0.958 . S
H910 C895 0.961 . S
H911 C895 0.960 . S
C912 C913 1.391 . S
C912 C914 1.394 . S
C912 H928 0.931 . S
C913 C912 1.391 . S
C913 C917 1.376 1_655 S
C914 C912 1.394 . S
C914 C915 1.369 . S
C914 C918 1.531 . S
C915 C914 1.369 . S
C915 C916 1.410 1_655 S
C915 C923 1.503 . S
C916 C915 1.410 1_455 S
C916 C917 1.392 . S
C916 C919 1.511 . S
C917 C913 1.376 1_455 S
C917 C916 1.392 . S
C917 H929 0.929 . S
C918 C914 1.531 . S
C918 H930 0.960 . S
C918 H931 0.962 . S
C918 H932 0.960 . S
C919 C916 1.511 . S
C919 H933 0.961 . S
C919 H934 0.961 . S
C919 H935 0.961 . S
C920 C921 1.370 1_655 S
C920 C922 1.363 . S
C920 H936 0.931 . S
C921 C920 1.370 1_455 S
C921 C925 1.408 . S
C922 C920 1.363 . S
C922 C923 1.370 . S
C922 C926 1.524 . S
C923 C915 1.503 . S
C923 C922 1.370 . S
C923 C924 1.403 1_655 S
C924 C923 1.403 1_455 S
C924 C925 1.404 . S
C924 C927 1.539 . S
C925 C921 1.408 . S
C925 C924 1.404 . S
C925 H937 0.930 . S
C926 C922 1.524 . S
C926 H938 0.956 . S
C926 H939 0.961 . S
C926 H940 0.961 . S
C927 C924 1.539 . S
C927 H941 0.958 . S
C927 H942 0.961 . S
C927 H943 0.960 . S
H928 C912 0.931 . S
H929 C917 0.929 . S
H930 C918 0.960 . S
H931 C918 0.962 . S
H932 C918 0.960 . S
H933 C919 0.961 . S
H934 C919 0.961 . S
H935 C919 0.961 . S
H936 C920 0.931 . S
H937 C925 0.930 . S
H938 C926 0.956 . S
H939 C926 0.961 . S
H940 C926 0.961 . S
H941 C927 0.958 . S
H942 C927 0.961 . S
H943 C927 0.960 . S
C944 C945 1.391 . S
C944 C946 1.394 . S
C944 H960 0.931 . S
C945 C944 1.391 . S
C945 C949 1.376 . S
C946 C944 1.394 . S
C946 C947 1.369 . S
C946 C950 1.531 . S
C947 C946 1.369 . S
C947 C948 1.410 . S
C947 C955 1.503 . S
C948 C947 1.410 . S
C948 C949 1.392 . S
C948 C951 1.511 . S
C949 C945 1.376 . S
C949 C948 1.392 . S
C949 H961 0.929 . S
C950 C946 1.531 . S
C950 H962 0.960 . S
C950 H963 0.962 . S
C950 H964 0.960 . S
C951 C948 1.511 . S
C951 H965 0.961 . S
C951 H966 0.961 . S
C951 H967 0.961 . S
C952 C953 1.370 . S
C952 C954 1.363 . S
C952 H968 0.931 . S
C953 C952 1.370 . S
C953 C957 1.408 . S
C954 C952 1.363 . S
C954 C955 1.370 . S
C954 C958 1.524 . S
C955 C947 1.503 . S
C955 C954 1.370 . S
C955 C956 1.403 . S
C956 C955 1.403 . S
C956 C957 1.404 . S
C956 C959 1.539 . S
C957 C953 1.408 . S
C957 C956 1.404 . S
C957 H969 0.930 . S
C958 C954 1.524 . S
C958 H970 0.956 . S
C958 H971 0.961 . S
C958 H972 0.961 . S
C959 C956 1.539 . S
C959 H973 0.958 . S
C959 H974 0.961 . S
C959 H975 0.960 . S
H960 C944 0.931 . S
H961 C949 0.929 . S
H962 C950 0.960 . S
H963 C950 0.962 . S
H964 C950 0.960 . S
H965 C951 0.961 . S
H966 C951 0.961 . S
H967 C951 0.961 . S
H968 C952 0.931 . S
H969 C957 0.930 . S
H970 C958 0.956 . S
H971 C958 0.961 . S
H972 C958 0.961 . S
H973 C959 0.958 . S
H974 C959 0.961 . S
H975 C959 0.960 . S
C976 C977 1.391 . S
C976 C978 1.394 . S
C976 H992 0.931 . S
C977 C976 1.391 . S
C977 C981 1.376 . S
C978 C976 1.394 . S
C978 C979 1.369 . S
C978 C982 1.531 . S
C979 C978 1.369 . S
C979 C980 1.410 . S
C979 C987 1.503 1_556 S
C980 C979 1.410 . S
C980 C981 1.392 . S
C980 C983 1.511 . S
C981 C977 1.376 . S
C981 C980 1.392 . S
C981 H993 0.929 . S
C982 C978 1.531 . S
C982 H994 0.960 1_556 S
C982 H995 0.962 . S
C982 H996 0.960 . S
C983 C980 1.511 . S
C983 H997 0.961 . S
C983 H998 0.961 1_556 S
C983 H999 0.961 . S
C984 C985 1.370 . S
C984 C986 1.363 . S
C984 H1000 0.931 . S
C985 C984 1.370 . S
C985 C989 1.408 . S
C986 C984 1.363 . S
C986 C987 1.370 . S
C986 C990 1.524 1_554 S
C987 C979 1.503 1_554 S
C987 C986 1.370 . S
C987 C988 1.403 . S
C988 C987 1.403 . S
C988 C989 1.404 . S
C988 C991 1.539 . S
C989 C985 1.408 . S
C989 C988 1.404 . S
C989 H1001 0.930 . S
C990 C986 1.524 1_556 S
C990 H1002 0.956 . S
C990 H1003 0.961 . S
C990 H1004 0.961 1_556 S
C991 C988 1.539 . S
C991 H1005 0.958 . S
C991 H1006 0.961 . S
C991 H1007 0.960 . S
H992 C976 0.931 . S
H993 C981 0.929 . S
H994 C982 0.960 1_554 S
H995 C982 0.962 . S
H996 C982 0.960 . S
H997 C983 0.961 . S
H998 C983 0.961 1_554 S
H999 C983 0.961 . S
H1000 C984 0.931 . S
H1001 C989 0.930 . S
H1002 C990 0.956 . S
H1003 C990 0.961 . S
H1004 C990 0.961 1_554 S
H1005 C991 0.958 . S
H1006 C991 0.961 . S
H1007 C991 0.960 . S
C1008 C1009 1.391 1_565 S
C1008 C1010 1.394 1_565 S
C1008 H1024 0.931 . S
C1009 C1008 1.391 1_545 S
C1009 C1013 1.376 . S
C1010 C1008 1.394 1_545 S
C1010 C1011 1.369 . S
C1010 C1014 1.531 1_545 S
C1011 C1010 1.369 . S
C1011 C1012 1.410 . S
C1011 C1019 1.503 . S
C1012 C1011 1.410 . S
C1012 C1013 1.392 . S
C1012 C1015 1.511 . S
C1013 C1009 1.376 . S
C1013 C1012 1.392 . S
C1013 H1025 0.929 . S
C1014 C1010 1.531 1_565 S
C1014 H1026 0.960 1_565 S
C1014 H1027 0.962 . S
C1014 H1028 0.960 . S
C1015 C1012 1.511 . S
C1015 H1029 0.961 . S
C1015 H1030 0.961 . S
C1015 H1031 0.961 . S
C1016 C1017 1.370 . S
C1016 C1018 1.363 . S
C1016 H1032 0.931 1_545 S
C1017 C1016 1.370 . S
C1017 C1021 1.408 . S
C1018 C1016 1.363 . S
C1018 C1019 1.370 . S
C1018 C1022 1.524 1_545 S
C1019 C1011 1.503 . S
C1019 C1018 1.370 . S
C1019 C1020 1.403 . S
C1020 C1019 1.403 . S
C1020 C1021 1.404 . S
C1020 C1023 1.539 . S
C1021 C1017 1.408 . S
C1021 C1020 1.404 . S
C1021 H1033 0.930 . S
C1022 C1018 1.524 1_565 S
C1022 H1034 0.956 . S
C1022 H1035 0.961 . S
C1022 H1036 0.961 . S
C1023 C1020 1.539 . S
C1023 H1037 0.958 . S
C1023 H1038 0.961 . S
C1023 H1039 0.960 . S
H1024 C1008 0.931 . S
H1025 C1013 0.929 . S
H1026 C1014 0.960 1_545 S
H1027 C1014 0.962 . S
H1028 C1014 0.960 . S
H1029 C1015 0.961 . S
H1030 C1015 0.961 . S
H1031 C1015 0.961 . S
H1032 C1016 0.931 1_565 S
H1033 C1021 0.930 . S
H1034 C1022 0.956 . S
H1035 C1022 0.961 . S
H1036 C1022 0.961 . S
H1037 C1023 0.958 . S
H1038 C1023 0.961 . S
H1039 C1023 0.960 . S
C1040 C1041 1.391 . S
C1040 C1042 1.394 . S
C1040 H1056 0.931 . S
C1041 C1040 1.391 . S
C1041 C1045 1.376 . S
C1042 C1040 1.394 . S
C1042 C1043 1.369 . S
C1042 C1046 1.531 . S
C1043 C1042 1.369 . S
C1043 C1044 1.410 . S
C1043 C1051 1.503 1_554 S
C1044 C1043 1.410 . S
C1044 C1045 1.392 . S
C1044 C1047 1.511 . S
C1045 C1041 1.376 . S
C1045 C1044 1.392 . S
C1045 H1057 0.929 . S
C1046 C1042 1.531 . S
C1046 H1058 0.953 1_554 S
C1046 H1059 0.962 . S
C1046 H1060 0.960 . S
C1047 C1044 1.511 . S
C1047 H1061 0.961 . S
C1047 H1062 0.961 1_554 S
C1047 H1063 0.961 . S
C1048 C1049 1.370 . S
C1048 C1050 1.363 . S
C1048 H1064 0.931 . S
C1049 C1048 1.370 . S
C1049 C1053 1.408 . S
C1050 C1048 1.363 . S
C1050 C1051 1.370 . S
C1050 C1054 1.524 . S
C1051 C1043 1.503 1_556 S
C1051 C1050 1.370 . S
C1051 C1052 1.403 . S
C1052 C1051 1.403 . S
C1052 C1053 1.404 . S
C1052 C1055 1.539 . S
C1053 C1049 1.408 . S
C1053 C1052 1.404 . S
C1053 H1065 0.930 . S
C1054 C1050 1.524 . S
C1054 H1066 0.956 . S
C1054 H1067 0.961 . S
C1054 H1068 0.961 . S
C1055 C1052 1.539 . S
C1055 H1069 0.955 1_556 S
C1055 H1070 0.961 . S
C1055 H1071 0.960 1_556 S
H1056 C1040 0.931 . S
H1057 C1045 0.929 . S
H1058 C1046 0.953 1_556 S
H1059 C1046 0.962 . S
H1060 C1046 0.960 . S
H1061 C1047 0.961 . S
H1062 C1047 0.961 1_556 S
H1063 C1047 0.961 . S
H1064 C1048 0.931 . S
H1065 C1053 0.930 . S
H1066 C1054 0.956 . S
H1067 C1054 0.961 . S
H1068 C1054 0.961 . S
H1069 C1055 0.955 1_554 S
H1070 C1055 0.961 . S
H1071 C1055 0.960 1_554 S
C1072 C1073 1.391 . S
C1072 C1074 1.394 . S
C1072 H1088 0.931 . S
C1073 C1072 1.391 . S
C1073 C1077 1.376 1_545 S
C1074 C1072 1.394 . S
C1074 C1075 1.369 1_545 S
C1074 C1078 1.531 . S
C1075 C1074 1.369 1_565 S
C1075 C1076 1.410 . S
C1075 C1083 1.503 . S
C1076 C1075 1.410 . S
C1076 C1077 1.392 . S
C1076 C1079 1.511 . S
C1077 C1073 1.376 1_565 S
C1077 C1076 1.392 . S
C1077 H1089 0.929 . S
C1078 C1074 1.531 . S
C1078 H1090 0.960 . S
C1078 H1091 0.962 . S
C1078 H1092 0.960 . S
C1079 C1076 1.511 . S
C1079 H1093 0.961 . S
C1079 H1094 0.961 . S
C1079 H1095 0.961 . S
C1080 C1081 1.370 . S
C1080 C1082 1.363 . S
C1080 H1096 0.931 . S
C1081 C1080 1.370 . S
C1081 C1085 1.408 . S
C1082 C1080 1.363 . S
C1082 C1083 1.370 . S
C1082 C1086 1.524 . S
C1083 C1075 1.503 . S
C1083 C1082 1.370 . S
C1083 C1084 1.403 1_565 S
C1084 C1083 1.403 1_545 S
C1084 C1085 1.404 1_545 S
C1084 C1087 1.539 . S
C1085 C1081 1.408 . S
C1085 C1084 1.404 1_565 S
C1085 H1097 0.930 1_565 S
C1086 C1082 1.524 . S
C1086 H1098 0.956 . S
C1086 H1099 0.961 . S
C1086 H1100 0.961 . S
C1087 C1084 1.539 . S
C1087 H1101 0.958 . S
C1087 H1102 0.961 . S
C1087 H1103 0.960 . S
H1088 C1072 0.931 . S
H1089 C1077 0.929 . S
H1090 C1078 0.960 . S
H1091 C1078 0.962 . S
H1092 C1078 0.960 . S
H1093 C1079 0.961 . S
H1094 C1079 0.961 . S
H1095 C1079 0.961 . S
H1096 C1080 0.931 . S
H1097 C1085 0.930 1_545 S
H1098 C1086 0.956 . S
H1099 C1086 0.961 . S
H1100 C1086 0.961 . S
H1101 C1087 0.958 . S
H1102 C1087 0.961 . S
H1103 C1087 0.960 . S
C1104 C1105 1.391 . S
C1104 C1106 1.394 . S
C1104 H1120 0.931 . S
C1105 C1104 1.391 . S
C1105 C1109 1.376 . S
C1106 C1104 1.394 . S
C1106 C1107 1.369 . S
C1106 C1110 1.531 . S
C1107 C1106 1.369 . S
C1107 C1108 1.410 . S
C1107 C1115 1.503 . S
C1108 C1107 1.410 . S
C1108 C1109 1.392 . S
C1108 C1111 1.511 . S
C1109 C1105 1.376 . S
C1109 C1108 1.392 . S
C1109 H1121 0.929 . S
C1110 C1106 1.531 . S
C1110 H1122 0.960 . S
C1110 H1123 0.962 1_455 S
C1110 H1124 0.960 . S
C1111 C1108 1.511 . S
C1111 H1125 0.961 . S
C1111 H1126 0.961 . S
C1111 H1127 0.961 . S
C1112 C1113 1.370 1_655 S
C1112 C1114 1.363 . S
C1112 H1128 0.931 . S
C1113 C1112 1.370 1_455 S
C1113 C1117 1.408 . S
C1114 C1112 1.363 . S
C1114 C1115 1.370 1_655 S
C1114 C1118 1.524 . S
C1115 C1107 1.503 . S
C1115 C1114 1.370 1_455 S
C1115 C1116 1.403 . S
C1116 C1115 1.403 . S
C1116 C1117 1.404 . S
C1116 C1119 1.539 . S
C1117 C1113 1.408 . S
C1117 C1116 1.404 . S
C1117 H1129 0.930 . S
C1118 C1114 1.524 . S
C1118 H1130 0.956 . S
C1118 H1131 0.961 . S
C1118 H1132 0.961 . S
C1119 C1116 1.539 . S
C1119 H1133 0.958 . S
C1119 H1134 0.961 . S
C1119 H1135 0.960 . S
H1120 C1104 0.931 . S
H1121 C1109 0.929 . S
H1122 C1110 0.960 . S
H1123 C1110 0.962 1_655 S
H1124 C1110 0.960 . S
H1125 C1111 0.961 . S
H1126 C1111 0.961 . S
H1127 C1111 0.961 . S
H1128 C1112 0.931 . S
H1129 C1117 0.930 . S
H1130 C1118 0.956 . S
H1131 C1118 0.961 . S
H1132 C1118 0.961 . S
H1133 C1119 0.958 . S
H1134 C1119 0.961 . S
H1135 C1119 0.960 . S
C1136 C1137 1.391 . S
C1136 C1138 1.394 . S
C1136 H1152 0.931 . S
C1137 C1136 1.391 . S
C1137 C1141 1.376 . S
C1138 C1136 1.394 . S
C1138 C1139 1.369 . S
C1138 C1142 1.531 . S
C1139 C1138 1.369 . S
C1139 C1140 1.410 . S
C1139 C1147 1.503 . S
C1140 C1139 1.410 . S
C1140 C1141 1.392 . S
C1140 C1143 1.511 . S
C1141 C1137 1.376 . S
C1141 C1140 1.392 . S
C1141 H1153 0.929 . S
C1142 C1138 1.531 . S
C1142 H1154 0.960 . S
C1142 H1155 0.962 . S
C1142 H1156 0.960 . S
C1143 C1140 1.511 . S
C1143 H1157 0.961 . S
C1143 H1158 0.961 . S
C1143 H1159 0.961 . S
C1144 C1145 1.370 . S
C1144 C1146 1.363 . S
C1144 H1160 0.931 . S
C1145 C1144 1.370 . S
C1145 C1149 1.408 . S
C1146 C1144 1.363 . S
C1146 C1147 1.370 . S
C1146 C1150 1.524 . S
C1147 C1139 1.503 . S
C1147 C1146 1.370 . S
C1147 C1148 1.403 . S
C1148 C1147 1.403 . S
C1148 C1149 1.404 . S
C1148 C1151 1.539 . S
C1149 C1145 1.408 . S
C1149 C1148 1.404 . S
C1149 H1161 0.930 . S
C1150 C1146 1.524 . S
C1150 H1162 0.956 . S
C1150 H1163 0.961 . S
C1150 H1164 0.961 . S
C1151 C1148 1.539 . S
C1151 H1165 0.958 . S
C1151 H1166 0.961 . S
C1151 H1167 0.960 . S
H1152 C1136 0.931 . S
H1153 C1141 0.929 . S
H1154 C1142 0.960 . S
H1155 C1142 0.962 . S
H1156 C1142 0.960 . S
H1157 C1143 0.961 . S
H1158 C1143 0.961 . S
H1159 C1143 0.961 . S
H1160 C1144 0.931 . S
H1161 C1149 0.930 . S
H1162 C1150 0.956 . S
H1163 C1150 0.961 . S
H1164 C1150 0.961 . S
H1165 C1151 0.958 . S
H1166 C1151 0.961 . S
H1167 C1151 0.960 . S
C273 C232 0.577 . S
C281 C28 0.486 . S
C305 C62 0.461 . S
C313 C244 0.505 . S
C337 C164 0.461 . S
C345 C96 0.505 . S
C369 C108 0.575 . S
C377 C198 0.487 . S
C401 C171 2.069 . S
C409 C3 2.122 . S
C433 C37 2.107 . S
C441 C205 2.066 . S
C465 C71 2.115 . S
C473 C241 2.084 . S
C497 C103 2.124 . S
C505 C137 2.068 . S
C529 C130 1.524 . S
C537 C17 1.485 . S
C561 C51 1.512 . S
C569 C6 1.513 . S
C593 C40 1.516 . S
C601 C85 1.494 . S
C625 C119 1.459 . S
C633 C74 1.526 . S
C657 C35 2.093 . S
C665 C139 2.116 . S
C689 C69 2.084 . S
C697 C173 2.109 . S
C721 C105 2.079 . S
C729 C207 2.108 . S
C753 C239 2.112 . S
C761 C1 2.065 . S
C785 C266 1.510 . S
C793 C153 1.492 . S
C817 C187 1.515 . S
C825 C142 1.511 . S
C849 C221 1.517 . S
C857 C176 1.509 . S
C881 C210 1.492 . S
C889 C255 1.505 . S
C913 C22 1.354 . S
C921 C15 1.426 . S
C945 C49 1.357 . S
C953 C56 1.424 . S
C977 C90 1.448 . S
C985 C83 1.388 . S
C1009 C124 1.410 . S
C1017 C117 1.407 . S
C1041 C151 1.359 . S
C1049 C158 1.424 . S
C1073 C185 1.452 . S
C1081 C192 1.384 . S
C1105 C226 1.433 . S
C1113 C219 1.399 . S
C1137 C253 1.432 . S
C1145 C260 1.399 . S
