# Generated by pormake.
# Topology ooa, (5)-cn, num edge types: 1
# Building blocks:
#     Node 0, Type 0, BuildingBlock: XOMCOT_clean_sbu_0, # of connection points: 5
#     Node 1, Type 0, BuildingBlock: XOMCOT_clean_sbu_0, # of connection points: 5
#     Node 2, Type 0, BuildingBlock: XOMCOT_clean_sbu_0, # of connection points: 5
#     Node 3, Type 0, BuildingBlock: XOMCOT_clean_sbu_0, # of connection points: 5
#     Node 4, Type 0, BuildingBlock: XOMCOT_clean_sbu_0, # of connection points: 5
#     Node 5, Type 0, BuildingBlock: XOMCOT_clean_sbu_0, # of connection points: 5
#     Node 6, Type 0, BuildingBlock: XOMCOT_clean_sbu_0, # of connection points: 5
#     Node 7, Type 0, BuildingBlock: XOMCOT_clean_sbu_0, # of connection points: 5
#     Edge 8, Type (0, 0), BuildingBlock: KIFKEQ_clean_linker_1, # of connection points: 2
#     Edge 9, Type (0, 0), BuildingBlock: KIFKEQ_clean_linker_1, # of connection points: 2
#     Edge 10, Type (0, 0), BuildingBlock: KIFKEQ_clean_linker_1, # of connection points: 2
#     Edge 11, Type (0, 0), BuildingBlock: KIFKEQ_clean_linker_1, # of connection points: 2
#     Edge 12, Type (0, 0), BuildingBlock: KIFKEQ_clean_linker_1, # of connection points: 2
#     Edge 13, Type (0, 0), BuildingBlock: KIFKEQ_clean_linker_1, # of connection points: 2
#     Edge 14, Type (0, 0), BuildingBlock: KIFKEQ_clean_linker_1, # of connection points: 2
#     Edge 15, Type (0, 0), BuildingBlock: KIFKEQ_clean_linker_1, # of connection points: 2
#     Edge 16, Type (0, 0), BuildingBlock: KIFKEQ_clean_linker_1, # of connection points: 2
#     Edge 17, Type (0, 0), BuildingBlock: KIFKEQ_clean_linker_1, # of connection points: 2
#     Edge 18, Type (0, 0), BuildingBlock: KIFKEQ_clean_linker_1, # of connection points: 2
#     Edge 19, Type (0, 0), BuildingBlock: KIFKEQ_clean_linker_1, # of connection points: 2
#     Edge 20, Type (0, 0), BuildingBlock: KIFKEQ_clean_linker_1, # of connection points: 2
#     Edge 21, Type (0, 0), BuildingBlock: KIFKEQ_clean_linker_1, # of connection points: 2
#     Edge 22, Type (0, 0), BuildingBlock: KIFKEQ_clean_linker_1, # of connection points: 2
#     Edge 23, Type (0, 0), BuildingBlock: KIFKEQ_clean_linker_1, # of connection points: 2
#     Edge 24, Type (0, 0), BuildingBlock: KIFKEQ_clean_linker_1, # of connection points: 2
#     Edge 25, Type (0, 0), BuildingBlock: KIFKEQ_clean_linker_1, # of connection points: 2
#     Edge 26, Type (0, 0), BuildingBlock: KIFKEQ_clean_linker_1, # of connection points: 2
#     Edge 27, Type (0, 0), BuildingBlock: KIFKEQ_clean_linker_1, # of connection points: 2
# Relax obj value: 0.356
# Max RMSD: 0.214
# Mean RMSD: 0.214
data_MOF--net-ooa--node1-XOMCOT_clean_sbu_0--edge1-KIFKEQ_clean_linker_1
_symmetry_space_group_name_H-M    P1
_symmetry_Int_Tables_number       1
_symmetry_cell_setting            triclinic
loop_
_symmetry_equiv_pos_as_xyz
'x, y, z'
_cell_length_a     29.601721
_cell_length_b     32.794919
_cell_length_c     47.934016
_cell_angle_alpha  89.78434
_cell_angle_beta   89.971928
_cell_angle_gamma 90.097709
loop_
_atom_site_label
_atom_site_type_symbol
_atom_site_fract_x
_atom_site_fract_y
_atom_site_fract_z
_atom_type_partial_charge
Co0 Co 0.07593 0.18465 0.07056 0.0
C1 C 0.99509 0.22842 0.04979 0.0
C2 C 0.05401 0.24432 0.02622 0.0
C3 C 1.0168 0.26143 1.01347 0.0
N4 N 0.04059 0.22402 0.04931 0.0
N5 N 0.97968 0.25127 0.02828 0.0
H6 H 0.97307 0.21207 0.06389 0.0
H7 H 0.08788 0.24421 0.01783 0.0
C8 C 0.15164 0.24729 0.05893 0.0
O9 O 0.1277 0.27901 0.06665 0.0
N10 N 0.10989 0.14478 0.09134 0.0
C11 C 0.0997 0.13019 0.11692 0.0
C12 C 0.13038 0.10048 0.1238 0.0
C13 C 0.14582 0.12317 0.08264 0.0
N14 N 0.15907 0.09608 0.10221 0.0
C15 C 0.02789 0.21606 0.11776 0.0
C16 C 0.10385 0.23684 0.14803 0.0
C17 C 0.06228 0.23416 0.16198 0.0
C18 C 1.02367 0.22528 0.14613 0.0
C19 C 0.10668 0.22696 0.11977 0.0
N20 N 0.06917 0.21567 0.10502 0.0
H21 H 0.99845 0.20511 0.10696 0.0
H22 H 0.13992 0.22417 0.11084 0.0
H23 H 0.07127 0.13971 0.12945 0.0
H24 H 0.16139 0.1267 0.06233 0.0
O25 O 0.02411 0.14838 0.0734 0.0
O26 O 0.07459 0.14855 0.03921 0.0
O27 O 0.13487 0.21145 0.06001 0.0
C28 C 0.0394 0.13173 0.05059 0.0
H29 H 1.01692 0.27833 0.99404 0.0
H30 H 0.13054 0.08234 0.14272 0.0
H31 H 0.13461 0.24401 0.15921 0.0
H32 H 0.99088 0.22213 0.15592 0.0
Co33 Co 0.4711 0.7859 0.06939 0.0
C34 C 0.55241 0.74313 0.04855 0.0
C35 C 0.49378 0.72762 0.02469 0.0
C36 C 0.53119 0.71107 1.0119 0.0
N37 N 0.5069 0.74733 0.04797 0.0
N38 N 0.56814 0.721 0.02688 0.0
H39 H 0.57419 0.75911 0.06289 0.0
H40 H 0.45996 0.72778 1.01624 0.0
C41 C 0.39621 0.72259 0.05757 0.0
O42 O 0.42056 0.6909 0.06498 0.0
N43 N 0.4366 0.82496 0.09037 0.0
C44 C 0.44646 0.83909 0.11604 0.0
C45 C 0.41526 0.86821 0.12307 0.0
C46 C 0.40032 0.84629 0.08177 0.0
N47 N 0.38656 0.87273 0.10149 0.0
C48 C 0.51967 0.75514 0.11669 0.0
C49 C 0.44425 0.73137 0.14657 0.0
C50 C 0.4854 0.73557 0.16081 0.0
C51 C 0.52384 0.74594 0.14512 0.0
C52 C 0.44136 0.74168 0.11834 0.0
N53 N 0.47856 0.75441 0.10376 0.0
H54 H 0.54882 0.76713 0.10601 0.0
H55 H 0.40811 0.74358 0.10935 0.0
H56 H 0.47499 0.82968 0.12854 0.0
H57 H 0.38486 0.84302 0.06144 0.0
O58 O 0.52239 0.82275 0.07219 0.0
O59 O 0.47175 0.82258 0.03812 0.0
O60 O 0.41252 0.75857 0.05889 0.0
C61 C 0.50678 0.8396 0.04946 0.0
H62 H 0.53132 0.69471 0.99233 0.0
H63 H 0.41475 0.88592 0.14209 0.0
H64 H 0.41364 0.7228 0.15749 0.0
H65 H 0.55632 0.75028 0.15503 0.0
Co66 Co 0.07748 0.2844 0.46421 0.0
C67 C 0.99639 0.24018 0.48411 0.0
C68 C 0.05081 0.23538 0.51322 0.0
C69 C 1.0121 0.22024 0.52559 0.0
N70 N 0.04119 0.24741 0.48695 0.0
N71 N 0.97763 0.22372 0.50734 0.0
H72 H 0.97699 0.24964 0.46628 0.0
H73 H 0.08279 0.24048 0.52354 0.0
C74 C 0.14827 0.21882 0.4794 0.0
O75 O 0.11886 0.18935 0.48334 0.0
N76 N 0.11255 0.32221 0.44206 0.0
C77 C 0.10367 0.3354 0.41594 0.0
C78 C 0.13387 0.36566 0.40915 0.0
C79 C 0.14749 0.34509 0.45098 0.0
N80 N 0.16108 0.37185 0.43125 0.0
C81 C 0.0238 0.26127 0.41717 0.0
C82 C 0.09252 0.2243 0.38766 0.0
C83 C 0.05263 0.23472 0.3736 0.0
C84 C 1.0173 0.25173 0.38909 0.0
C85 C 0.09774 0.23435 0.41584 0.0
N86 N 0.06415 0.25393 0.43013 0.0
H87 H 0.99785 0.27868 0.42738 0.0
H88 H 0.13054 0.2298 0.42496 0.0
H89 H 0.07598 0.32537 0.40305 0.0
H90 H 0.16165 0.34313 0.47176 0.0
O91 O 0.02835 0.32343 0.46361 0.0
O92 O 0.08235 0.32068 0.49556 0.0
O93 O 0.13556 0.25426 0.47169 0.0
C94 C 0.04722 0.33934 0.48559 0.0
H95 H 1.0089 0.21087 0.54718 0.0
H96 H 0.13415 0.38339 0.39006 0.0
H97 H 0.12097 0.21158 0.37647 0.0
H98 H 0.98578 0.26011 0.37914 0.0
Co99 Co 0.46742 0.68808 0.46366 0.0
C100 C 0.55349 0.72151 0.48539 0.0
C101 C 0.4972 0.75284 0.50325 0.0
C102 C 0.5364 0.76734 0.51531 0.0
N103 N 0.5079 0.72439 0.4841 0.0
N104 N 0.57186 0.74743 0.50414 0.0
H105 H 0.5729 0.69981 0.47352 0.0
H106 H 0.46339 0.76113 0.50941 0.0
C107 C 0.39581 0.75544 0.47239 0.0
O108 O 0.41806 0.78403 0.45889 0.0
N109 N 0.42862 0.65118 0.44354 0.0
C110 C 0.43707 0.63583 0.41801 0.0
C111 C 0.40412 0.60799 0.41163 0.0
C112 C 0.39144 0.63157 0.45279 0.0
N113 N 0.3757 0.60526 0.43351 0.0
C114 C 0.51865 0.719 0.41752 0.0
C115 C 0.44516 0.73994 0.38494 0.0
C116 C 0.48787 0.7377 0.37245 0.0
C117 C 0.52511 0.72836 0.38931 0.0
C118 C 0.44006 0.72972 0.4131 0.0
N119 N 0.47643 0.71859 0.42901 0.0
H120 H 0.54725 0.70844 0.42934 0.0
H121 H 0.40618 0.72655 0.42114 0.0
H122 H 0.46607 0.64337 0.40526 0.0
H123 H 0.37705 0.63559 0.47337 0.0
O124 O 0.51486 0.64771 0.45986 0.0
O125 O 0.46644 0.65159 0.49509 0.0
O126 O 0.41211 0.71966 0.47526 0.0
C127 C 0.499 0.63201 0.48293 0.0
H128 H 0.53831 0.78919 0.53214 0.0
H129 H 0.40243 0.58954 0.39297 0.0
H130 H 0.41534 0.74607 0.37253 0.0
H131 H 0.55868 0.72619 0.38043 0.0
Co132 Co 0.96857 0.78746 0.96344 0.0
C133 C 0.04622 0.73945 0.98406 0.0
C134 C 0.99463 0.74436 1.01505 0.0
C135 C 0.0329 0.72842 0.02736 0.0
N136 N 1.00278 0.75105 0.98773 0.0
N137 N 0.06567 0.72582 1.00788 0.0
H138 H 0.06444 0.74352 0.96487 0.0
H139 H 0.96418 0.75348 0.02582 0.0
C140 C 0.89858 0.7216 0.97828 0.0
O141 O 0.92871 0.69554 0.9875 0.0
N142 N 0.93578 0.82488 0.93959 0.0
C143 C 0.94759 0.83779 0.91382 0.0
C144 C 0.92012 0.8695 0.9062 0.0
C145 C 0.90122 0.84917 0.94727 0.0
N146 N 0.8914 0.87702 0.92736 0.0
C147 C 0.02869 0.76881 0.9184 0.0
C148 C 0.96751 0.72423 0.88743 0.0
C149 C 1.00705 0.73832 0.87447 0.0
C150 C 0.03877 0.75922 0.89072 0.0
C151 C 0.95862 0.73451 0.91521 0.0
N152 N 0.9882 0.75803 0.93009 0.0
H153 H 0.05185 0.78834 0.92948 0.0
H154 H 0.92614 0.72618 0.92354 0.0
H155 H 0.9756 0.82683 0.90167 0.0
H156 H 0.88573 0.84827 0.96771 0.0
O157 O 1.01633 0.82811 0.9666 0.0
O158 O 0.95722 0.82262 0.99462 0.0
O159 O 0.91063 0.75545 0.96735 0.0
C160 C 0.99318 0.84268 0.98746 0.0
H161 H 0.03727 0.72269 0.04944 0.0
H162 H 0.92231 0.88663 0.88691 0.0
H163 H 0.94192 0.70815 0.87563 0.0
H164 H 0.06999 0.77031 0.88164 0.0
Co165 Co 0.5805 0.18522 0.96326 0.0
C166 C 0.50094 0.23121 0.98294 0.0
C167 C 0.55302 0.22939 1.01381 0.0
C168 C 0.51439 0.2449 0.02583 0.0
N169 N 0.54484 0.22121 0.98673 0.0
N170 N 0.48133 0.24562 1.00646 0.0
H171 H 0.4827 0.22536 0.96397 0.0
H172 H 0.58387 0.2216 0.02467 0.0
C173 C 0.64983 0.25157 0.97879 0.0
O174 O 0.61952 0.27833 0.98666 0.0
N175 N 0.61479 0.1484 0.94027 0.0
C176 C 0.60233 0.13218 0.91563 0.0
C177 C 0.63389 0.10379 0.90787 0.0
C178 C 0.65332 0.12924 0.9474 0.0
N179 N 0.66568 0.10183 0.92793 0.0
C180 C 0.52352 0.20428 0.91655 0.0
C181 C 0.58755 0.24808 0.88709 0.0
C182 C 0.54906 0.23418 0.87296 0.0
C183 C 0.51578 0.21371 0.88845 0.0
C184 C 0.59404 0.23801 0.91515 0.0
N185 N 0.56312 0.21484 0.92936 0.0
H186 H 0.49946 0.18483 0.92706 0.0
H187 H 0.62584 0.24633 0.92434 0.0
H188 H 0.57141 0.1387 0.90461 0.0
H189 H 0.67104 0.13432 0.96683 0.0
O190 O 0.53276 0.14434 0.9653 0.0
O191 O 0.5902 0.14969 0.99459 0.0
O192 O 0.63804 0.21732 0.96854 0.0
C193 C 0.55482 0.12954 0.9866 0.0
H194 H 0.51008 0.25168 0.04774 0.0
H195 H 0.63217 0.08437 0.88969 0.0
H196 H 0.61379 0.26474 0.87614 0.0
H197 H 0.48565 0.20202 0.87846 0.0
Co198 Co 0.97325 0.68187 0.57309 0.0
C199 C 0.05306 0.72475 0.55115 0.0
C200 C 0.99437 0.74101 0.52766 0.0
C201 C 0.03193 0.75778 0.51477 0.0
N202 N 1.00757 0.72096 0.55091 0.0
N203 N 0.06881 0.74704 0.52951 0.0
H204 H 0.07485 0.70893 0.56555 0.0
H205 H 0.96044 0.74084 0.51934 0.0
C206 C 0.89902 0.74726 0.56386 0.0
O207 O 0.92608 0.77902 0.5646 0.0
N208 N 0.94064 0.64208 0.59494 0.0
C209 C 0.95369 0.62611 0.61959 0.0
C210 C 0.92528 0.59451 0.62633 0.0
C211 C 0.90479 0.61971 0.58684 0.0
N212 N 0.89483 0.59022 0.60562 0.0
C213 C 0.02995 0.70482 0.61894 0.0
C214 C 0.96201 0.73719 0.65157 0.0
C215 C 1.00409 0.7293 0.66381 0.0
C216 C 0.03873 0.71417 0.64685 0.0
C217 C 0.95449 0.7271 0.62364 0.0
N218 N 0.98797 0.71035 0.60769 0.0
H219 H 0.05587 0.68928 0.6074 0.0
H220 H 0.92042 0.72933 0.61601 0.0
H221 H 0.98298 0.6354 0.63138 0.0
H222 H 0.88818 0.62348 0.56689 0.0
O223 O 1.02303 0.64314 0.57094 0.0
O224 O 0.96656 0.64813 0.54087 0.0
O225 O 0.91425 0.71129 0.56751 0.0
C226 C 1.00239 0.6288 0.549 0.0
H227 H 0.03244 0.77365 0.49492 0.0
H228 H 0.92767 0.57557 0.6448 0.0
H229 H 0.93398 0.74803 0.66403 0.0
H230 H 0.07173 0.7075 0.65546 0.0
Co231 Co 0.57211 0.28927 0.57021 0.0
C232 C 0.49346 0.24295 0.5492 0.0
C233 C 0.55276 0.2306 0.52512 0.0
C234 C 0.5161 0.2128 0.51215 0.0
N235 N 0.5387 0.24915 0.54863 0.0
N236 N 0.47876 0.22071 0.52732 0.0
H237 H 0.47089 0.25778 0.56359 0.0
H238 H 0.58662 0.23246 0.51676 0.0
C239 C 0.64778 0.22524 0.56152 0.0
O240 O 0.62184 0.19315 0.56532 0.0
N241 N 0.60401 0.3299 0.5914 0.0
C242 C 0.59054 0.34657 0.61567 0.0
C243 C 0.62082 0.37641 0.62301 0.0
C244 C 0.64165 0.35029 0.58393 0.0
N245 N 0.65273 0.37875 0.603 0.0
C246 C 0.51747 0.2639 0.61675 0.0
C247 C 0.58815 0.23592 0.64917 0.0
C248 C 0.54567 0.24087 0.66165 0.0
C249 C 0.50975 0.25391 0.64478 0.0
C250 C 0.59446 0.24631 0.62114 0.0
N251 N 0.55954 0.26065 0.60523 0.0
H252 H 0.49035 0.27783 0.60523 0.0
H253 H 0.62855 0.24641 0.61333 0.0
H254 H 0.56016 0.33847 0.62692 0.0
H255 H 0.66003 0.34486 0.5648 0.0
O256 O 0.52108 0.32679 0.56832 0.0
O257 O 0.57691 0.32294 0.53772 0.0
O258 O 0.63176 0.26116 0.56383 0.0
C259 C 0.54078 0.3415 0.54605 0.0
H260 H 0.51663 0.19708 0.49234 0.0
H261 H 0.61864 0.39592 0.64113 0.0
H262 H 0.61726 0.22708 0.66144 0.0
H263 H 0.47635 0.25833 0.65346 0.0
H264 H 0.99783 0.07181 0.08079 0.0
H265 H 0.04911 0.10023 0.99869 0.0
H266 H 0.98863 0.00063 0.06727 0.0
H267 H 0.03826 0.02962 0.98466 0.0
H268 H 0.06377 0.89467 0.97642 0.0
H269 H 0.072 0.96506 0.99218 0.0
H270 H 0.94864 0.95339 0.03991 0.0
H271 H 0.94171 0.88301 0.02525 0.0
C272 C 1.00571 0.06306 0.05957 0.0
C273 C 0.02403 0.0915 0.04076 0.0
C274 C 1.0007 0.02219 0.05181 0.0
C275 C 1.01344 0.00909 0.02497 0.0
C276 C 0.02936 0.03825 1.00574 0.0
C277 C 0.03489 0.07889 1.01362 0.0
C278 C 0.03897 0.90701 0.99069 0.0
C279 C 1.00221 0.88326 0.99959 0.0
C280 C 0.04326 0.94752 0.99945 0.0
C281 C 1.01059 0.96524 1.01705 0.0
C282 C 0.97468 0.94087 0.02661 0.0
C283 C 0.97069 0.90038 0.01811 0.0
H284 H 0.48404 0.07807 0.97503 0.0
H285 H 0.60569 0.0881 0.02426 0.0
H286 H 0.47499 0.00751 0.99068 0.0
H287 H 0.59805 0.0176 0.03875 0.0
H288 H 0.54848 0.89921 0.07952 0.0
H289 H 0.55789 0.97046 0.06598 0.0
H290 H 0.50737 0.9426 0.98356 0.0
H291 H 0.4962 0.8719 0.99766 0.0
C292 C 0.5086 0.06532 0.98934 0.0
C293 C 0.54542 0.08871 0.99845 0.0
C294 C 0.50383 0.02471 0.99804 0.0
C295 C 0.53613 0.00651 1.01576 0.0
C296 C 0.57221 0.03048 0.02542 0.0
C297 C 0.57663 0.07106 1.01701 0.0
C298 C 0.54039 0.90822 0.05834 0.0
C299 C 0.52179 0.88006 0.0396 0.0
C300 C 0.54555 0.94915 0.05056 0.0
C301 C 0.53275 0.96261 0.02374 0.0
C302 C 0.51638 0.93373 1.00461 0.0
C303 C 0.51066 0.89302 1.01252 0.0
H304 H 0.07454 0.57859 0.56034 0.0
H305 H 0.95288 0.5874 0.51098 0.0
H306 H 0.08484 0.50843 0.54444 0.0
H307 H 0.96133 0.51742 0.4966 0.0
H308 H 1.00631 0.40001 0.45637 0.0
H309 H 0.99975 0.47121 0.46961 0.0
H310 H 0.05544 0.44267 0.55082 0.0
H311 H 0.06438 0.37181 0.53668 0.0
C312 C 0.05029 0.56568 0.54594 0.0
C313 C 1.01309 0.58861 0.53685 0.0
C314 C 0.05573 0.52528 0.53711 0.0
C315 C 1.02365 0.50684 0.51938 0.0
C316 C 0.9872 0.53043 0.50982 0.0
C317 C 0.98226 0.57079 0.51821 0.0
C318 C 1.01633 0.40889 0.47722 0.0
C319 C 0.03544 0.38039 0.4956 0.0
C320 C 1.01273 0.44982 0.48486 0.0
C321 C 0.02732 0.46307 0.51131 0.0
C322 C 0.04488 0.434 0.53005 0.0
C323 C 0.04931 0.39321 0.52216 0.0
H324 H 0.49008 0.59999 0.53506 0.0
H325 H 0.53088 0.56977 0.45124 0.0
H326 H 0.49729 0.52868 0.54881 0.0
H327 H 0.53565 0.49816 0.46432 0.0
H328 H 0.58377 0.37981 0.50349 0.0
H329 H 0.57596 0.44982 0.4887 0.0
H330 H 0.46285 0.4645 0.54493 0.0
H331 H 0.47274 0.39424 0.56111 0.0
C332 C 0.50104 0.57803 0.51966 0.0
C333 C 0.51055 0.59042 0.49221 0.0
C334 C 0.5044 0.537 0.52738 0.0
C335 C 0.51649 0.50726 0.50765 0.0
C336 C 0.52689 0.52004 0.48027 0.0
C337 C 0.52436 0.56119 0.47272 0.0
C338 C 0.55674 0.39768 0.51251 0.0
C339 C 0.52894 0.38141 0.5336 0.0
C340 C 0.55214 0.43806 0.50387 0.0
C341 C 0.51903 0.46329 0.51571 0.0
C342 C 0.48951 0.44635 0.53579 0.0
C343 C 0.49462 0.40587 0.54479 0.0
H344 H 0.36586 0.91932 0.05678 0.0
H345 H 0.32833 0.89314 0.14188 0.0
H346 H 0.31138 0.97532 0.05543 0.0
H347 H 0.27253 0.94757 0.14045 0.0
H348 H 0.2166 0.07385 0.14261 0.0
H349 H 0.272 0.01915 0.14082 0.0
H350 H 0.23375 -0.00571 0.05544 0.0
H351 H 0.17965 0.05056 0.05718 0.0
C352 C 0.34515 0.92514 0.07496 0.0
C353 C 0.35124 0.90238 0.09951 0.0
C354 C 0.31399 0.95711 0.07424 0.0
C355 C 0.28804 0.9664 0.09798 0.0
C356 C 0.29289 0.94215 0.12206 0.0
C357 C 0.32449 0.91077 0.12288 0.0
C358 C 0.22045 0.05677 0.12347 0.0
C359 C 0.194 0.06609 0.10009 0.0
C360 C 0.25182 0.02524 0.12244 0.0
C361 C 0.25677 0.00174 0.09814 0.0
C362 C 0.23106 0.0119 0.07442 0.0
C363 C 0.20013 0.04403 0.07536 0.0
H364 H 0.21755 0.39903 0.39153 0.0
H365 H 0.1772 0.41771 0.47698 0.0
H366 H 0.26796 0.4576 0.39426 0.0
H367 H 0.22674 0.4774 0.47971 0.0
H368 H 0.35709 0.55817 0.47842 0.0
H369 H 0.30446 0.50043 0.47981 0.0
H370 H 0.26101 0.52972 0.39597 0.0
H371 H 0.31471 0.58607 0.39451 0.0
C372 C 0.21958 0.41585 0.41089 0.0
C373 C 0.19356 0.40409 0.43398 0.0
C374 C 0.2481 0.44956 0.41245 0.0
C375 C 0.25072 0.4727 0.43705 0.0
C376 C 0.22565 0.46015 0.4605 0.0
C377 C 0.19741 0.42599 0.459 0.0
C378 C 0.33552 0.55249 0.46061 0.0
C379 C 0.33991 0.57608 0.43627 0.0
C380 C 0.30551 0.51949 0.46132 0.0
C381 C 0.27921 0.50996 0.43777 0.0
C382 C 0.28177 0.5354 0.41415 0.0
C383 C 0.31209 0.56786 0.41334 0.0
H384 H 0.90009 0.95051 0.90215 0.0
H385 H 0.81444 0.88117 0.9579 0.0
H386 H 0.84774 0.00733 0.90418 0.0
H387 H 0.76188 0.93862 0.96011 0.0
H388 H 0.69859 0.06519 0.97437 0.0
H389 H 0.7561 0.01166 0.9762 0.0
H390 H 0.77012 0.01832 0.88657 0.0
H391 H 0.71352 0.07214 0.8849 0.0
C392 C 0.86988 0.94723 0.91467 0.0
C393 C 0.86099 0.91102 0.92949 0.0
C394 C 0.84003 0.97992 0.91594 0.0
C395 C 0.80064 0.97723 0.93211 0.0
C396 C 0.79225 0.94157 0.94764 0.0
C397 C 0.8222 0.90871 0.94633 0.0
C398 C 0.71463 0.05564 0.95518 0.0
C399 C 0.70177 0.07274 0.92947 0.0
C400 C 0.74706 0.02475 0.95619 0.0
C401 C 0.76744 0.01085 0.93153 0.0
C402 C 0.75527 0.0287 0.90594 0.0
C403 C 0.72269 0.05925 0.90493 0.0
H404 H 0.69995 0.40761 0.64659 0.0
H405 H 0.68808 0.41463 0.55695 0.0
H406 H 0.76005 0.4585 0.64537 0.0
H407 H 0.74885 0.46552 0.55564 0.0
H408 H 0.81699 0.59256 0.57573 0.0
H409 H 0.75945 0.53909 0.57303 0.0
H410 H 0.83975 0.4626 0.62711 0.0
H411 H 0.89737 0.51524 0.62941 0.0
C412 C 0.71033 0.42006 0.62664 0.0
C413 C 0.68948 0.40729 0.60189 0.0
C414 C 0.74488 0.4489 0.6259 0.0
C415 C 0.75904 0.46581 0.6004 0.0
C416 C 0.73833 0.45302 0.57557 0.0
C417 C 0.70399 0.42372 0.57629 0.0
C418 C 0.82259 0.56415 0.58674 0.0
C419 C 0.86149 0.55845 0.60311 0.0
C420 C 0.78972 0.53359 0.58517 0.0
C421 C 0.79512 0.49696 0.60007 0.0
C422 C 0.83445 0.49087 0.61581 0.0
C423 C 0.86732 0.52119 0.61725 0.0
H424 H 0.20686 0.31557 0.05985 0.0
H425 H 0.20519 0.18826 0.03692 0.0
H426 H 0.28636 0.32 0.04533 0.0
H427 H 0.28358 0.19256 0.02304 0.0
H428 H 0.41033 0.21601 0.97636 0.0
H429 H 0.33069 0.22186 0.9871 0.0
H430 H 0.36235 0.2945 0.05942 0.0
H431 H 0.4427 0.29009 0.04803 0.0
C432 C 0.22324 0.28866 0.05166 0.0
C433 C 0.19942 0.25161 0.04957 0.0
C434 C 0.26885 0.29112 0.04348 0.0
C435 C 0.29137 0.2567 0.03279 0.0
C436 C 0.26728 0.21991 0.03063 0.0
C437 C 0.22216 0.2174 0.03886 0.0
C438 C 0.40073 0.23403 0.99423 0.0
C439 C 0.43354 0.25229 1.01142 0.0
C440 C 0.35475 0.23698 1.0006 0.0
C441 C 0.33999 0.25813 0.02438 0.0
C442 C 0.37245 0.27801 0.04091 0.0
C443 C 0.41863 0.27508 0.03453 0.0
H444 H 0.13672 0.75224 0.97628 0.0
H445 H 0.10422 0.68329 0.05069 0.0
H446 H 0.21633 0.74561 0.98652 0.0
H447 H 0.18479 0.6781 0.06151 0.0
H448 H 0.34052 0.65471 0.06055 0.0
H449 H 0.26052 0.65039 0.04702 0.0
H450 H 0.26404 0.77677 0.02153 0.0
H451 H 0.34284 0.78098 0.03448 0.0
C452 C 0.14624 0.73512 0.99465 0.0
C453 C 0.1134 0.71855 1.01272 0.0
C454 C 0.19226 0.73174 1.00071 0.0
C455 C 0.20708 0.71184 0.02506 0.0
C456 C 0.17459 0.69359 0.04254 0.0
C457 C 0.12832 0.69696 0.03647 0.0
C458 C 0.32418 0.68139 0.05184 0.0
C459 C 0.34829 0.71814 0.0486 0.0
C460 C 0.27831 0.679 0.04426 0.0
C461 C 0.25587 0.71316 0.03299 0.0
C462 C 0.28027 0.74963 0.02964 0.0
C463 C 0.32562 0.75209 0.03731 0.0
H464 H 0.40763 0.20901 0.56211 0.0
H465 H 0.4438 0.21645 0.47502 0.0
H466 H 0.32785 0.20281 0.54924 0.0
H467 H 0.3643 0.20997 0.46218 0.0
H468 H 0.21801 0.26185 0.45691 0.0
H469 H 0.29811 0.25682 0.46772 0.0
H470 H 0.27063 0.15711 0.52429 0.0
H471 H 0.18972 0.16194 0.51323 0.0
C472 C 0.39859 0.20897 0.54023 0.0
C473 C 0.43216 0.21341 0.51963 0.0
C474 C 0.35293 0.20505 0.53285 0.0
C475 C 0.33967 0.20602 0.50468 0.0
C476 C 0.37335 0.20938 0.48407 0.0
C477 C 0.419 0.21278 0.49143 0.0
C478 C 0.22896 0.23848 0.47143 0.0
C479 C 0.19737 0.2123 0.48423 0.0
C480 C 0.27501 0.23549 0.47752 0.0
C481 C 0.29084 0.20659 0.49688 0.0
C482 C 0.25944 0.17984 0.50938 0.0
C483 C 0.21319 0.18239 0.50291 0.0
H484 H 0.13437 0.69045 0.53404 0.0
H485 H 0.1089 0.81321 0.50586 0.0
H486 H 0.21311 0.69702 0.52093 0.0
H487 H 0.18899 0.82089 0.49356 0.0
H488 H 0.32796 0.80141 0.44901 0.0
H489 H 0.24823 0.80205 0.46285 0.0
H490 H 0.28048 0.7266 0.53427 0.0
H491 H 0.35887 0.72427 0.51947 0.0
C492 C 0.14592 0.71921 0.52546 0.0
C493 C 0.11555 0.75151 0.52135 0.0
C494 C 0.19133 0.72316 0.51801 0.0
C495 C 0.20815 0.75984 0.50662 0.0
C496 C 0.1775 0.7921 0.50213 0.0
C497 C 0.13163 0.78785 0.50925 0.0
C498 C 0.31787 0.78556 0.46789 0.0
C499 C 0.3495 0.76254 0.48305 0.0
C500 C 0.27214 0.78587 0.47587 0.0
C501 C 0.25732 0.7636 0.49942 0.0
C502 C 0.28993 0.74292 0.51548 0.0
C503 C 0.33515 0.74196 0.50721 0.0
H504 H 0.64015 0.71462 0.06159 0.0
H505 H 0.60274 0.71425 0.97457 0.0
H506 H 0.71983 0.70937 0.04847 0.0
H507 H 0.68208 0.7084 0.9615 0.0
H508 H 0.82812 0.75962 0.95243 0.0
H509 H 0.74807 0.75477 0.9636 0.0
H510 H 0.7771 0.66331 0.02604 0.0
H511 H 0.85775 0.66817 1.01484 0.0
C512 C 0.64889 0.71315 0.03969 0.0
C513 C 0.61495 0.71501 0.01918 0.0
C514 C 0.69451 0.70974 0.03216 0.0
C515 C 0.70739 0.70855 1.00391 0.0
C516 C 0.67339 0.70955 0.98344 0.0
C517 C 0.62779 0.71255 0.99096 0.0
C518 C 0.8175 0.738 0.96829 0.0
C519 C 0.84948 0.71428 0.98275 0.0
C520 C 0.77147 0.73513 0.97462 0.0
C521 C 0.7561 0.70876 0.9958 0.0
C522 C 0.78788 0.68419 1.00979 0.0
C523 C 0.83404 0.6867 1.00319 0.0
H524 H 0.69005 0.30477 1.01551 0.0
H525 H 0.72057 0.21381 0.95339 0.0
H526 H 0.77064 0.30962 0.02702 0.0
H527 H 0.80047 0.21869 0.96482 0.0
H528 H 0.94549 0.25937 0.97596 0.0
H529 H 0.86624 0.26563 0.96276 0.0
H530 H 0.8279 0.26295 0.04964 0.0
H531 H 0.90749 0.25723 0.06289 0.0
C532 C 0.71395 0.28636 1.00399 0.0
C533 C 0.69881 0.2589 0.98354 0.0
C534 C 0.76004 0.28887 1.01076 0.0
C535 C 0.79202 0.26446 0.9969 0.0
C536 C 0.77692 0.23821 0.97573 0.0
C537 C 0.73098 0.23531 0.96926 0.0
C538 C 0.92033 0.26079 0.9923 0.0
C539 C 0.93296 0.25767 0.02052 0.0
C540 C 0.8748 0.26404 0.98471 0.0
C541 C 0.84066 0.26466 1.00512 0.0
C542 C 0.85333 0.26288 0.03339 0.0
C543 C 0.8989 0.2592 0.04098 0.0
H544 H 0.8335 0.69009 0.57145 0.0
H545 H 0.85296 0.81371 0.54231 0.0
H546 H 0.75494 0.69272 0.55755 0.0
H547 H 0.77336 0.81613 0.52788 0.0
H548 H 0.61481 0.81186 0.52829 0.0
H549 H 0.69338 0.81486 0.54411 0.0
H550 H 0.71451 0.69249 0.51395 0.0
H551 H 0.63633 0.6889 0.49921 0.0
C552 C 0.82103 0.718 0.56208 0.0
C553 C 0.84992 0.75158 0.55773 0.0
C554 C 0.77582 0.71938 0.55394 0.0
C555 C 0.75785 0.75433 0.54107 0.0
C556 C 0.78608 0.78869 0.53773 0.0
C557 C 0.8317 0.78732 0.54598 0.0
C558 C 0.63617 0.78553 0.52518 0.0
C559 C 0.61885 0.75009 0.51248 0.0
C560 C 0.68138 0.78742 0.53401 0.0
C561 C 0.7103 0.75382 0.53054 0.0
C562 C 0.69313 0.71876 0.51741 0.0
C563 C 0.64818 0.71689 0.50857 0.0
H564 H 0.93875 0.17363 0.54603 0.0
H565 H 0.90716 0.26312 0.48265 0.0
H566 H 0.85869 0.17037 0.55897 0.0
H567 H 0.8279 0.25887 0.49493 0.0
H568 H 0.70659 0.28647 0.54892 0.0
H569 H 0.78504 0.28211 0.53536 0.0
H570 H 0.77969 0.15097 0.54263 0.0
H571 H 0.69987 0.15527 0.55668 0.0
C572 C 0.91487 0.19232 0.53469 0.0
C573 C 0.92986 0.2188 0.51336 0.0
C574 C 0.86889 0.19014 0.54194 0.0
C575 C 0.83686 0.21465 0.52818 0.0
C576 C 0.85168 0.23998 0.50626 0.0
C577 C 0.89737 0.24205 0.49897 0.0
C578 C 0.72175 0.25652 0.54776 0.0
C579 C 0.69646 0.22118 0.55388 0.0
C580 C 0.76695 0.25405 0.53972 0.0
C581 C 0.78868 0.21618 0.53753 0.0
C582 C 0.76395 0.18066 0.54414 0.0
C583 C 0.7182 0.18311 0.55209 0.0
H584 H 1.01978 0.29259 0.33797 0.0
H585 H 0.08091 0.17317 0.33901 0.0
H586 H 1.02103 0.29273 0.28726 0.0
H587 H 0.0814 0.17282 0.28806 0.0
H588 H 0.12372 0.20427 0.19956 0.0
H589 H 0.11955 0.20421 0.25008 0.0
H590 H 0.98989 0.26425 0.24596 0.0
H591 H 0.99534 0.26652 0.19521 0.0
C592 C 0.0326 0.26591 0.32735 0.0
C593 C 0.05004 0.23274 0.34259 0.0
C594 C 0.03336 0.26602 0.29818 0.0
C595 C 0.05145 0.23287 0.2834 0.0
C596 C 0.06799 0.19926 0.29867 0.0
C597 C 0.06751 0.19929 0.3279 0.0
C598 C 0.0947 0.21832 0.20932 0.0
C599 C 0.06009 0.23584 0.19311 0.0
C600 C 0.0919 0.21754 0.23843 0.0
C601 C 0.05422 0.23391 0.25227 0.0
C602 C 1.01965 0.25164 0.23611 0.0
C603 C 1.02257 0.25263 0.20693 0.0
H604 H 0.4203 0.76034 0.19781 0.0
H605 H 0.55452 0.70872 0.19499 0.0
H606 H 0.42311 0.76071 0.24818 0.0
H607 H 0.55874 0.71225 0.24565 0.0
H608 H 0.53218 0.68482 0.33834 0.0
H609 H 0.53268 0.68358 0.28756 0.0
H610 H 0.4545 0.79486 0.286 0.0
H611 H 0.45256 0.79484 0.33688 0.0
C612 C 0.4504 0.74869 0.20784 0.0
C613 C 0.487 0.73404 0.19201 0.0
C614 C 0.4524 0.74981 0.23694 0.0
C615 C 0.49136 0.73699 0.25125 0.0
C616 C 0.52795 0.72209 0.23551 0.0
C617 C 0.52573 0.72048 0.20631 0.0
C618 C 0.51568 0.70933 0.32709 0.0
C619 C 0.49237 0.73998 0.34159 0.0
C620 C 0.51598 0.70867 0.2979 0.0
C621 C 0.49334 0.73893 0.28242 0.0
C622 C 0.47138 0.77042 0.29706 0.0
C623 C 0.47055 0.77071 0.32626 0.0
H624 H 0.04348 0.67375 0.69866 0.0
H625 H 0.97675 0.79073 0.69859 0.0
H626 H 0.04806 0.67555 0.7495 0.0
H627 H 0.98087 0.7923 0.74955 0.0
H628 H 0.03449 0.79851 0.83888 0.0
H629 H 0.03764 0.79687 0.78805 0.0
H630 H 0.99296 0.67148 0.78922 0.0
H631 H 0.99035 0.67294 0.84026 0.0
C632 C 0.0304 0.70016 0.70948 0.0
C633 C 1.00999 0.73225 0.69457 0.0
C634 C 0.03255 0.70093 0.73862 0.0
C635 C 1.01473 0.73399 0.75356 0.0
C636 C 0.99524 0.76654 0.73863 0.0
C637 C 0.99264 0.76556 0.70948 0.0
C638 C 0.02615 0.77032 0.82835 0.0
C639 C 1.01246 0.73573 0.84365 0.0
C640 C 0.02743 0.76957 0.7992 0.0
C641 C 1.0154 0.73413 0.7846 0.0
C642 C 1.00276 0.69918 0.79988 0.0
C643 C 1.00102 0.70006 0.82908 0.0
H644 H 0.49737 0.28985 0.69703 0.0
H645 H 0.58303 0.18335 0.69639 0.0
H646 H 0.49569 0.28792 0.74786 0.0
H647 H 0.58147 0.18155 0.74725 0.0
H648 H 0.61696 0.22211 0.83533 0.0
H649 H 0.61276 0.2225 0.78472 0.0
H650 H 0.47022 0.24962 0.78914 0.0
H651 H 0.47473 0.25056 0.84013 0.0
C652 C 0.51508 0.26548 0.70767 0.0
C653 C 0.54046 0.2368 0.69252 0.0
C654 C 0.51422 0.26448 0.73688 0.0
C655 C 0.53883 0.23486 0.7517 0.0
C656 C 0.56288 0.20532 0.73653 0.0
C657 C 0.56369 0.20627 0.70735 0.0
C658 C 0.58481 0.2289 0.8256 0.0
C659 C 0.54625 0.23671 0.84191 0.0
C660 C 0.58225 0.22843 0.7965 0.0
C661 C 0.54107 0.23571 0.78279 0.0
C662 C 0.50254 0.24406 0.79901 0.0
C663 C 0.50506 0.24437 0.82824 0.0
loop_
_geom_bond_atom_site_label_1
_geom_bond_atom_site_label_2
_geom_bond_distance
_geom_bond_site_symmetry_2
_ccdc_geom_bond_type
Co0 N4 2.148 . S
Co0 N10 2.128 . S
Co0 N20 2.194 . S
Co0 O25 2.351 . S
Co0 O26 2.155 . S
Co0 O27 2.096 . S
C1 N4 1.301 1_655 S
C1 N5 1.328 . S
C1 H6 0.930 . S
C2 C3 1.333 1_455 S
C2 N4 1.317 . S
C2 H7 0.930 . S
C3 C2 1.333 1_655 S
C3 N5 1.350 . S
C3 H29 0.931 . S
N4 Co0 2.148 . S
N4 C1 1.301 1_455 S
N4 C2 1.317 . S
N5 C1 1.328 . S
N5 C3 1.350 . S
H6 C1 0.930 . S
H7 C2 0.930 . S
C8 O9 1.224 . S
C8 O27 1.247 . S
O9 C8 1.224 . S
N10 Co0 2.128 . S
N10 C11 1.355 . S
N10 C13 1.311 . S
C11 N10 1.355 . S
C11 C12 1.363 . S
C11 H23 0.929 . S
C12 C11 1.363 . S
C12 N14 1.375 . S
C12 H30 0.931 . S
C13 N10 1.311 . S
C13 N14 1.347 . S
C13 H24 0.929 . S
N14 C12 1.375 . S
N14 C13 1.347 . S
C15 C18 1.365 . S
C15 N20 1.328 . S
C15 H21 0.929 1_455 S
C16 C17 1.362 . S
C16 C19 1.378 . S
C16 H31 0.929 . S
C17 C16 1.362 . S
C17 C18 1.366 . S
C18 C15 1.365 . S
C18 C17 1.366 . S
C18 H32 0.930 1_455 S
C19 C16 1.378 . S
C19 N20 1.315 . S
C19 H22 0.930 . S
N20 Co0 2.194 . S
N20 C15 1.328 . S
N20 C19 1.315 . S
H21 C15 0.929 1_655 S
H22 C19 0.930 . S
H23 C11 0.929 . S
H24 C13 0.929 . S
O25 Co0 2.351 . S
O25 C28 1.244 . S
O26 Co0 2.155 . S
O26 C28 1.240 . S
O27 Co0 2.096 . S
O27 C8 1.247 . S
C28 O25 1.244 . S
C28 O26 1.240 . S
H29 C3 0.931 . S
H30 C12 0.931 . S
H31 C16 0.929 . S
H32 C18 0.930 1_655 S
Co33 N37 2.148 . S
Co33 N43 2.128 . S
Co33 N53 2.194 . S
Co33 O58 2.351 . S
Co33 O59 2.155 . S
Co33 O60 2.096 . S
C34 N37 1.301 . S
C34 N38 1.328 . S
C34 H39 0.930 . S
C35 C36 1.333 . S
C35 N37 1.317 . S
C35 H40 0.930 . S
C36 C35 1.333 . S
C36 N38 1.350 . S
C36 H62 0.931 . S
N37 Co33 2.148 . S
N37 C34 1.301 . S
N37 C35 1.317 . S
N38 C34 1.328 . S
N38 C36 1.350 . S
H39 C34 0.930 . S
H40 C35 0.930 . S
C41 O42 1.224 . S
C41 O60 1.247 . S
O42 C41 1.224 . S
N43 Co33 2.128 . S
N43 C44 1.355 . S
N43 C46 1.311 . S
C44 N43 1.355 . S
C44 C45 1.363 . S
C44 H56 0.929 . S
C45 C44 1.363 . S
C45 N47 1.375 . S
C45 H63 0.931 . S
C46 N43 1.311 . S
C46 N47 1.347 . S
C46 H57 0.929 . S
N47 C45 1.375 . S
N47 C46 1.347 . S
C48 C51 1.365 . S
C48 N53 1.328 . S
C48 H54 0.929 . S
C49 C50 1.362 . S
C49 C52 1.378 . S
C49 H64 0.929 . S
C50 C49 1.362 . S
C50 C51 1.366 . S
C51 C48 1.365 . S
C51 C50 1.366 . S
C51 H65 0.930 . S
C52 C49 1.378 . S
C52 N53 1.315 . S
C52 H55 0.930 . S
N53 Co33 2.194 . S
N53 C48 1.328 . S
N53 C52 1.315 . S
H54 C48 0.929 . S
H55 C52 0.930 . S
H56 C44 0.929 . S
H57 C46 0.929 . S
O58 Co33 2.351 . S
O58 C61 1.244 . S
O59 Co33 2.155 . S
O59 C61 1.240 . S
O60 Co33 2.096 . S
O60 C41 1.247 . S
C61 O58 1.244 . S
C61 O59 1.240 . S
H62 C36 0.931 . S
H63 C45 0.931 . S
H64 C49 0.929 . S
H65 C51 0.930 . S
Co66 N70 2.148 . S
Co66 N76 2.128 . S
Co66 N86 2.194 . S
Co66 O91 2.351 . S
Co66 O92 2.155 . S
Co66 O93 2.096 . S
C67 N70 1.301 1_655 S
C67 N71 1.328 . S
C67 H72 0.930 . S
C68 C69 1.333 1_455 S
C68 N70 1.317 . S
C68 H73 0.930 . S
C69 C68 1.333 1_655 S
C69 N71 1.350 . S
C69 H95 0.931 . S
N70 Co66 2.148 . S
N70 C67 1.301 1_455 S
N70 C68 1.317 . S
N71 C67 1.328 . S
N71 C69 1.350 . S
H72 C67 0.930 . S
H73 C68 0.930 . S
C74 O75 1.224 . S
C74 O93 1.247 . S
O75 C74 1.224 . S
N76 Co66 2.128 . S
N76 C77 1.355 . S
N76 C79 1.311 . S
C77 N76 1.355 . S
C77 C78 1.363 . S
C77 H89 0.929 . S
C78 C77 1.363 . S
C78 N80 1.375 . S
C78 H96 0.931 . S
C79 N76 1.311 . S
C79 N80 1.347 . S
C79 H90 0.929 . S
N80 C78 1.375 . S
N80 C79 1.347 . S
C81 C84 1.365 . S
C81 N86 1.328 . S
C81 H87 0.929 1_455 S
C82 C83 1.362 . S
C82 C85 1.378 . S
C82 H97 0.929 . S
C83 C82 1.362 . S
C83 C84 1.366 . S
C84 C81 1.365 . S
C84 C83 1.366 . S
C84 H98 0.930 1_455 S
C85 C82 1.378 . S
C85 N86 1.315 . S
C85 H88 0.930 . S
N86 Co66 2.194 . S
N86 C81 1.328 . S
N86 C85 1.315 . S
H87 C81 0.929 1_655 S
H88 C85 0.930 . S
H89 C77 0.929 . S
H90 C79 0.929 . S
O91 Co66 2.351 . S
O91 C94 1.244 . S
O92 Co66 2.155 . S
O92 C94 1.240 . S
O93 Co66 2.096 . S
O93 C74 1.247 . S
C94 O91 1.244 . S
C94 O92 1.240 . S
H95 C69 0.931 . S
H96 C78 0.931 . S
H97 C82 0.929 . S
H98 C84 0.930 1_655 S
Co99 N103 2.148 . S
Co99 N109 2.128 . S
Co99 N119 2.194 . S
Co99 O124 2.351 . S
Co99 O125 2.155 . S
Co99 O126 2.096 . S
C100 N103 1.301 . S
C100 N104 1.328 . S
C100 H105 0.930 . S
C101 C102 1.333 . S
C101 N103 1.317 . S
C101 H106 0.930 . S
C102 C101 1.333 . S
C102 N104 1.350 . S
C102 H128 0.931 . S
N103 Co99 2.148 . S
N103 C100 1.301 . S
N103 C101 1.317 . S
N104 C100 1.328 . S
N104 C102 1.350 . S
H105 C100 0.930 . S
H106 C101 0.930 . S
C107 O108 1.224 . S
C107 O126 1.247 . S
O108 C107 1.224 . S
N109 Co99 2.128 . S
N109 C110 1.355 . S
N109 C112 1.311 . S
C110 N109 1.355 . S
C110 C111 1.363 . S
C110 H122 0.929 . S
C111 C110 1.363 . S
C111 N113 1.375 . S
C111 H129 0.931 . S
C112 N109 1.311 . S
C112 N113 1.347 . S
C112 H123 0.929 . S
N113 C111 1.375 . S
N113 C112 1.347 . S
C114 C117 1.365 . S
C114 N119 1.328 . S
C114 H120 0.929 . S
C115 C116 1.362 . S
C115 C118 1.378 . S
C115 H130 0.929 . S
C116 C115 1.362 . S
C116 C117 1.366 . S
C117 C114 1.365 . S
C117 C116 1.366 . S
C117 H131 0.930 . S
C118 C115 1.378 . S
C118 N119 1.315 . S
C118 H121 0.930 . S
N119 Co99 2.194 . S
N119 C114 1.328 . S
N119 C118 1.315 . S
H120 C114 0.929 . S
H121 C118 0.930 . S
H122 C110 0.929 . S
H123 C112 0.929 . S
O124 Co99 2.351 . S
O124 C127 1.244 . S
O125 Co99 2.155 . S
O125 C127 1.240 . S
O126 Co99 2.096 . S
O126 C107 1.247 . S
C127 O124 1.244 . S
C127 O125 1.240 . S
H128 C102 0.931 . S
H129 C111 0.931 . S
H130 C115 0.929 . S
H131 C117 0.930 . S
Co132 N136 2.148 . S
Co132 N142 2.128 . S
Co132 N152 2.194 . S
Co132 O157 2.351 . S
Co132 O158 2.155 . S
Co132 O159 2.096 . S
C133 N136 1.301 1_455 S
C133 N137 1.328 . S
C133 H138 0.930 . S
C134 C135 1.333 1_655 S
C134 N136 1.317 . S
C134 H139 0.930 . S
C135 C134 1.333 1_455 S
C135 N137 1.350 . S
C135 H161 0.931 . S
N136 Co132 2.148 . S
N136 C133 1.301 1_655 S
N136 C134 1.317 . S
N137 C133 1.328 . S
N137 C135 1.350 . S
H138 C133 0.930 . S
H139 C134 0.930 . S
C140 O141 1.224 . S
C140 O159 1.247 . S
O141 C140 1.224 . S
N142 Co132 2.128 . S
N142 C143 1.355 . S
N142 C145 1.311 . S
C143 N142 1.355 . S
C143 C144 1.363 . S
C143 H155 0.929 . S
C144 C143 1.363 . S
C144 N146 1.375 . S
C144 H162 0.931 . S
C145 N142 1.311 . S
C145 N146 1.347 . S
C145 H156 0.929 . S
N146 C144 1.375 . S
N146 C145 1.347 . S
C147 C150 1.365 . S
C147 N152 1.328 . S
C147 H153 0.929 1_655 S
C148 C149 1.362 . S
C148 C151 1.378 . S
C148 H163 0.929 . S
C149 C148 1.362 . S
C149 C150 1.366 . S
C150 C147 1.365 . S
C150 C149 1.366 . S
C150 H164 0.930 1_655 S
C151 C148 1.378 . S
C151 N152 1.315 . S
C151 H154 0.930 . S
N152 Co132 2.194 . S
N152 C147 1.328 . S
N152 C151 1.315 . S
H153 C147 0.929 1_455 S
H154 C151 0.930 . S
H155 C143 0.929 . S
H156 C145 0.929 . S
O157 Co132 2.351 . S
O157 C160 1.244 . S
O158 Co132 2.155 . S
O158 C160 1.240 . S
O159 Co132 2.096 . S
O159 C140 1.247 . S
C160 O157 1.244 . S
C160 O158 1.240 . S
H161 C135 0.931 . S
H162 C144 0.931 . S
H163 C148 0.929 . S
H164 C150 0.930 1_455 S
Co165 N169 2.148 . S
Co165 N175 2.128 . S
Co165 N185 2.194 . S
Co165 O190 2.351 . S
Co165 O191 2.155 . S
Co165 O192 2.096 . S
C166 N169 1.301 . S
C166 N170 1.328 . S
C166 H171 0.930 . S
C167 C168 1.333 . S
C167 N169 1.317 . S
C167 H172 0.930 . S
C168 C167 1.333 . S
C168 N170 1.350 . S
C168 H194 0.931 . S
N169 Co165 2.148 . S
N169 C166 1.301 . S
N169 C167 1.317 . S
N170 C166 1.328 . S
N170 C168 1.350 . S
H171 C166 0.930 . S
H172 C167 0.930 . S
C173 O174 1.224 . S
C173 O192 1.247 . S
O174 C173 1.224 . S
N175 Co165 2.128 . S
N175 C176 1.355 . S
N175 C178 1.311 . S
C176 N175 1.355 . S
C176 C177 1.363 . S
C176 H188 0.929 . S
C177 C176 1.363 . S
C177 N179 1.375 . S
C177 H195 0.931 . S
C178 N175 1.311 . S
C178 N179 1.347 . S
C178 H189 0.929 . S
N179 C177 1.375 . S
N179 C178 1.347 . S
C180 C183 1.365 . S
C180 N185 1.328 . S
C180 H186 0.929 . S
C181 C182 1.362 . S
C181 C184 1.378 . S
C181 H196 0.929 . S
C182 C181 1.362 . S
C182 C183 1.366 . S
C183 C180 1.365 . S
C183 C182 1.366 . S
C183 H197 0.930 . S
C184 C181 1.378 . S
C184 N185 1.315 . S
C184 H187 0.930 . S
N185 Co165 2.194 . S
N185 C180 1.328 . S
N185 C184 1.315 . S
H186 C180 0.929 . S
H187 C184 0.930 . S
H188 C176 0.929 . S
H189 C178 0.929 . S
O190 Co165 2.351 . S
O190 C193 1.244 . S
O191 Co165 2.155 . S
O191 C193 1.240 . S
O192 Co165 2.096 . S
O192 C173 1.247 . S
C193 O190 1.244 . S
C193 O191 1.240 . S
H194 C168 0.931 . S
H195 C177 0.931 . S
H196 C181 0.929 . S
H197 C183 0.930 . S
Co198 N202 2.148 . S
Co198 N208 2.128 . S
Co198 N218 2.194 . S
Co198 O223 2.351 . S
Co198 O224 2.155 . S
Co198 O225 2.096 . S
C199 N202 1.301 1_455 S
C199 N203 1.328 . S
C199 H204 0.930 . S
C200 C201 1.333 1_655 S
C200 N202 1.317 . S
C200 H205 0.930 . S
C201 C200 1.333 1_455 S
C201 N203 1.350 . S
C201 H227 0.931 . S
N202 Co198 2.148 . S
N202 C199 1.301 1_655 S
N202 C200 1.317 . S
N203 C199 1.328 . S
N203 C201 1.350 . S
H204 C199 0.930 . S
H205 C200 0.930 . S
C206 O207 1.224 . S
C206 O225 1.247 . S
O207 C206 1.224 . S
N208 Co198 2.128 . S
N208 C209 1.355 . S
N208 C211 1.311 . S
C209 N208 1.355 . S
C209 C210 1.363 . S
C209 H221 0.929 . S
C210 C209 1.363 . S
C210 N212 1.375 . S
C210 H228 0.931 . S
C211 N208 1.311 . S
C211 N212 1.347 . S
C211 H222 0.929 . S
N212 C210 1.375 . S
N212 C211 1.347 . S
C213 C216 1.365 . S
C213 N218 1.328 . S
C213 H219 0.929 1_655 S
C214 C215 1.362 . S
C214 C217 1.378 . S
C214 H229 0.929 . S
C215 C214 1.362 . S
C215 C216 1.366 . S
C216 C213 1.365 . S
C216 C215 1.366 . S
C216 H230 0.930 1_655 S
C217 C214 1.378 . S
C217 N218 1.315 . S
C217 H220 0.930 . S
N218 Co198 2.194 . S
N218 C213 1.328 . S
N218 C217 1.315 . S
H219 C213 0.929 1_455 S
H220 C217 0.930 . S
H221 C209 0.929 . S
H222 C211 0.929 . S
O223 Co198 2.351 . S
O223 C226 1.244 . S
O224 Co198 2.155 . S
O224 C226 1.240 . S
O225 Co198 2.096 . S
O225 C206 1.247 . S
C226 O223 1.244 . S
C226 O224 1.240 . S
H227 C201 0.931 . S
H228 C210 0.931 . S
H229 C214 0.929 . S
H230 C216 0.930 1_455 S
Co231 N235 2.148 . S
Co231 N241 2.128 . S
Co231 N251 2.194 . S
Co231 O256 2.351 . S
Co231 O257 2.155 . S
Co231 O258 2.096 . S
C232 N235 1.301 . S
C232 N236 1.328 . S
C232 H237 0.930 . S
C233 C234 1.333 . S
C233 N235 1.317 . S
C233 H238 0.930 . S
C234 C233 1.333 . S
C234 N236 1.350 . S
C234 H260 0.931 . S
N235 Co231 2.148 . S
N235 C232 1.301 . S
N235 C233 1.317 . S
N236 C232 1.328 . S
N236 C234 1.350 . S
H237 C232 0.930 . S
H238 C233 0.930 . S
C239 O240 1.224 . S
C239 O258 1.247 . S
O240 C239 1.224 . S
N241 Co231 2.128 . S
N241 C242 1.355 . S
N241 C244 1.311 . S
C242 N241 1.355 . S
C242 C243 1.363 . S
C242 H254 0.929 . S
C243 C242 1.363 . S
C243 N245 1.375 . S
C243 H261 0.931 . S
C244 N241 1.311 . S
C244 N245 1.347 . S
C244 H255 0.929 . S
N245 C243 1.375 . S
N245 C244 1.347 . S
C246 C249 1.365 . S
C246 N251 1.328 . S
C246 H252 0.929 . S
C247 C248 1.362 . S
C247 C250 1.378 . S
C247 H262 0.929 . S
C248 C247 1.362 . S
C248 C249 1.366 . S
C249 C246 1.365 . S
C249 C248 1.366 . S
C249 H263 0.930 . S
C250 C247 1.378 . S
C250 N251 1.315 . S
C250 H253 0.930 . S
N251 Co231 2.194 . S
N251 C246 1.328 . S
N251 C250 1.315 . S
H252 C246 0.929 . S
H253 C250 0.930 . S
H254 C242 0.929 . S
H255 C244 0.929 . S
O256 Co231 2.351 . S
O256 C259 1.244 . S
O257 Co231 2.155 . S
O257 C259 1.240 . S
O258 Co231 2.096 . S
O258 C239 1.247 . S
C259 O256 1.244 . S
C259 O257 1.240 . S
H260 C234 0.931 . S
H261 C243 0.931 . S
H262 C247 0.929 . S
H263 C249 0.930 . S
H264 C272 0.950 . S
H265 C277 0.950 . S
H266 C274 0.950 . S
H267 C276 0.950 1_556 S
H268 C278 0.950 . S
H269 C280 0.950 . S
H270 C282 0.950 1_554 S
H271 C283 0.950 . S
C272 H264 0.950 . S
C272 C273 1.379 1_455 S
C272 C274 1.391 . S
C273 C272 1.379 1_655 S
C273 C277 1.400 . S
C274 H266 0.950 . S
C274 C272 1.391 . S
C274 C275 1.394 1_455 S
C275 C274 1.394 1_655 S
C275 C276 1.405 . S
C275 C281 1.490 1_644 S
C276 H267 0.950 1_554 S
C276 C275 1.405 . S
C276 C277 1.391 . S
C277 H265 0.950 . S
C277 C273 1.400 . S
C277 C276 1.391 . S
C278 H268 0.950 . S
C278 C279 1.379 1_655 S
C278 C280 1.391 . S
C279 C278 1.379 1_455 S
C279 C283 1.400 . S
C280 H269 0.950 . S
C280 C278 1.391 . S
C280 C281 1.394 1_655 S
C281 C275 1.490 1_466 S
C281 C280 1.394 1_455 S
C281 C282 1.405 . S
C282 H270 0.950 1_556 S
C282 C281 1.405 . S
C282 C283 1.391 . S
C283 H271 0.950 . S
C283 C279 1.400 . S
C283 C282 1.391 . S
H284 C292 0.950 . S
H285 C297 0.950 . S
H286 C294 0.950 . S
H287 C296 0.950 . S
H288 C298 0.950 . S
H289 C300 0.950 . S
H290 C302 0.950 . S
H291 C303 0.950 . S
C292 H284 0.950 . S
C292 C293 1.386 . S
C292 C294 1.391 . S
C293 C292 1.386 . S
C293 C297 1.393 . S
C294 H286 0.950 . S
C294 C292 1.391 . S
C294 C295 1.400 . S
C295 C294 1.400 . S
C295 C296 1.398 . S
C295 C301 1.491 1_546 S
C296 H287 0.950 . S
C296 C295 1.398 . S
C296 C297 1.391 . S
C297 H285 0.950 . S
C297 C293 1.393 . S
C297 C296 1.391 . S
C298 H288 0.950 . S
C298 C299 1.386 . S
C298 C300 1.391 . S
C299 C298 1.386 . S
C299 C303 1.393 . S
C300 H289 0.950 . S
C300 C298 1.391 . S
C300 C301 1.400 . S
C301 C295 1.491 1_564 S
C301 C300 1.400 . S
C301 C302 1.398 . S
C302 H290 0.950 . S
C302 C301 1.398 . S
C302 C303 1.391 . S
C303 H291 0.950 . S
C303 C299 1.393 . S
C303 C302 1.391 . S
H304 C312 0.950 . S
H305 C317 0.950 . S
H306 C314 0.950 . S
H307 C316 0.950 . S
H308 C318 0.950 . S
H309 C320 0.950 . S
H310 C322 0.950 . S
H311 C323 0.950 . S
C312 H304 0.950 . S
C312 C313 1.386 1_455 S
C312 C314 1.391 . S
C313 C312 1.386 1_655 S
C313 C317 1.393 . S
C314 H306 0.950 . S
C314 C312 1.391 . S
C314 C315 1.391 1_455 S
C315 C314 1.391 1_655 S
C315 C316 1.409 . S
C315 C321 1.490 1_655 S
C316 H307 0.950 . S
C316 C315 1.409 . S
C316 C317 1.391 . S
C317 H305 0.950 . S
C317 C313 1.393 . S
C317 C316 1.391 . S
C318 H308 0.950 . S
C318 C319 1.386 1_655 S
C318 C320 1.391 . S
C319 C318 1.386 1_455 S
C319 C323 1.393 . S
C320 H309 0.950 . S
C320 C318 1.391 . S
C320 C321 1.391 1_655 S
C321 C315 1.490 1_455 S
C321 C320 1.391 1_455 S
C321 C322 1.409 . S
C322 H310 0.950 . S
C322 C321 1.409 . S
C322 C323 1.391 . S
C323 H311 0.950 . S
C323 C319 1.393 . S
C323 C322 1.391 . S
H324 C332 0.950 . S
H325 C337 0.950 . S
H326 C334 0.950 . S
H327 C336 0.950 . S
H328 C338 0.950 . S
H329 C340 0.950 . S
H330 C342 0.950 . S
H331 C343 0.950 . S
C332 H324 0.950 . S
C332 C333 1.386 . S
C332 C334 1.391 . S
C333 C332 1.386 . S
C333 C337 1.393 . S
C334 H326 0.950 . S
C334 C332 1.391 . S
C334 C335 1.400 . S
C335 C334 1.400 . S
C335 C336 1.398 . S
C335 C341 1.491 . S
C336 H327 0.950 . S
C336 C335 1.398 . S
C336 C337 1.391 . S
C337 H325 0.950 . S
C337 C333 1.393 . S
C337 C336 1.391 . S
C338 H328 0.950 . S
C338 C339 1.386 . S
C338 C340 1.391 . S
C339 C338 1.386 . S
C339 C343 1.393 . S
C340 H329 0.950 . S
C340 C338 1.391 . S
C340 C341 1.400 . S
C341 C335 1.491 . S
C341 C340 1.400 . S
C341 C342 1.398 . S
C342 H330 0.950 . S
C342 C341 1.398 . S
C342 C343 1.391 . S
C343 H331 0.950 . S
C343 C339 1.393 . S
C343 C342 1.391 . S
H344 C352 0.950 . S
H345 C357 0.950 . S
H346 C354 0.950 . S
H347 C356 0.950 . S
H348 C358 0.950 . S
H349 C360 0.950 . S
H350 C362 0.950 . S
H351 C363 0.950 . S
C352 H344 0.950 . S
C352 C353 1.386 . S
C352 C354 1.391 . S
C353 C352 1.386 . S
C353 C357 1.393 . S
C354 H346 0.950 . S
C354 C352 1.391 . S
C354 C355 1.400 . S
C355 C354 1.400 . S
C355 C356 1.398 . S
C355 C361 1.491 1_565 S
C356 H347 0.950 . S
C356 C355 1.398 . S
C356 C357 1.391 . S
C357 H345 0.950 . S
C357 C353 1.393 . S
C357 C356 1.391 . S
C358 H348 0.950 . S
C358 C359 1.386 . S
C358 C360 1.391 . S
C359 C358 1.386 . S
C359 C363 1.393 . S
C360 H349 0.950 . S
C360 C358 1.391 . S
C360 C361 1.400 . S
C361 C355 1.491 1_545 S
C361 C360 1.400 . S
C361 C362 1.398 . S
C362 H350 0.950 . S
C362 C361 1.398 . S
C362 C363 1.391 . S
C363 H351 0.950 . S
C363 C359 1.393 . S
C363 C362 1.391 . S
H364 C372 0.950 . S
H365 C377 0.950 . S
H366 C374 0.950 . S
H367 C376 0.950 . S
H368 C378 0.950 . S
H369 C380 0.950 . S
H370 C382 0.950 . S
H371 C383 0.950 . S
C372 H364 0.950 . S
C372 C373 1.386 . S
C372 C374 1.391 . S
C373 C372 1.386 . S
C373 C377 1.393 . S
C374 H366 0.950 . S
C374 C372 1.391 . S
C374 C375 1.400 . S
C375 C374 1.400 . S
C375 C376 1.398 . S
C375 C381 1.491 . S
C376 H367 0.950 . S
C376 C375 1.398 . S
C376 C377 1.391 . S
C377 H365 0.950 . S
C377 C373 1.393 . S
C377 C376 1.391 . S
C378 H368 0.950 . S
C378 C379 1.386 . S
C378 C380 1.391 . S
C379 C378 1.386 . S
C379 C383 1.393 . S
C380 H369 0.950 . S
C380 C378 1.391 . S
C380 C381 1.400 . S
C381 C375 1.491 . S
C381 C380 1.400 . S
C381 C382 1.398 . S
C382 H370 0.950 . S
C382 C381 1.398 . S
C382 C383 1.391 . S
C383 H371 0.950 . S
C383 C379 1.393 . S
C383 C382 1.391 . S
H384 C392 0.950 . S
H385 C397 0.950 . S
H386 C394 0.950 . S
H387 C396 0.950 . S
H388 C398 0.950 . S
H389 C400 0.950 . S
H390 C402 0.950 . S
H391 C403 0.950 . S
C392 H384 0.950 . S
C392 C393 1.386 . S
C392 C394 1.391 . S
C393 C392 1.386 . S
C393 C397 1.393 . S
C394 H386 0.950 . S
C394 C392 1.391 . S
C394 C395 1.400 . S
C395 C394 1.400 . S
C395 C396 1.398 . S
C395 C401 1.491 1_565 S
C396 H387 0.950 . S
C396 C395 1.398 . S
C396 C397 1.391 . S
C397 H385 0.950 . S
C397 C393 1.393 . S
C397 C396 1.391 . S
C398 H388 0.950 . S
C398 C399 1.386 . S
C398 C400 1.391 . S
C399 C398 1.386 . S
C399 C403 1.393 . S
C400 H389 0.950 . S
C400 C398 1.391 . S
C400 C401 1.400 . S
C401 C395 1.491 1_545 S
C401 C400 1.400 . S
C401 C402 1.398 . S
C402 H390 0.950 . S
C402 C401 1.398 . S
C402 C403 1.391 . S
C403 H391 0.950 . S
C403 C399 1.393 . S
C403 C402 1.391 . S
H404 C412 0.950 . S
H405 C417 0.950 . S
H406 C414 0.950 . S
H407 C416 0.950 . S
H408 C418 0.950 . S
H409 C420 0.950 . S
H410 C422 0.950 . S
H411 C423 0.950 . S
C412 H404 0.950 . S
C412 C413 1.386 . S
C412 C414 1.391 . S
C413 C412 1.386 . S
C413 C417 1.393 . S
C414 H406 0.950 . S
C414 C412 1.391 . S
C414 C415 1.400 . S
C415 C414 1.400 . S
C415 C416 1.398 . S
C415 C421 1.491 . S
C416 H407 0.950 . S
C416 C415 1.398 . S
C416 C417 1.391 . S
C417 H405 0.950 . S
C417 C413 1.393 . S
C417 C416 1.391 . S
C418 H408 0.950 . S
C418 C419 1.386 . S
C418 C420 1.391 . S
C419 C418 1.386 . S
C419 C423 1.393 . S
C420 H409 0.950 . S
C420 C418 1.391 . S
C420 C421 1.400 . S
C421 C415 1.491 . S
C421 C420 1.400 . S
C421 C422 1.398 . S
C422 H410 0.950 . S
C422 C421 1.398 . S
C422 C423 1.391 . S
C423 H411 0.950 . S
C423 C419 1.393 . S
C423 C422 1.391 . S
H424 C432 0.950 . S
H425 C437 0.950 . S
H426 C434 0.950 . S
H427 C436 0.943 1_556 S
H428 C438 0.950 . S
H429 C440 0.950 . S
H430 C442 0.950 . S
H431 C443 0.950 . S
C432 H424 0.950 . S
C432 C433 1.386 . S
C432 C434 1.391 . S
C433 C432 1.386 . S
C433 C437 1.393 . S
C434 H426 0.950 . S
C434 C432 1.391 . S
C434 C435 1.400 . S
C435 C434 1.400 . S
C435 C436 1.398 . S
C435 C441 1.491 1_554 S
C436 H427 0.943 1_554 S
C436 C435 1.398 . S
C436 C437 1.391 . S
C437 H425 0.950 . S
C437 C433 1.393 . S
C437 C436 1.391 . S
C438 H428 0.950 . S
C438 C439 1.386 . S
C438 C440 1.391 . S
C439 C438 1.386 . S
C439 C443 1.393 . S
C440 H429 0.950 . S
C440 C438 1.391 . S
C440 C441 1.400 . S
C441 C435 1.491 1_556 S
C441 C440 1.400 . S
C441 C442 1.398 . S
C442 H430 0.950 . S
C442 C441 1.398 . S
C442 C443 1.391 . S
C443 H431 0.950 . S
C443 C439 1.393 . S
C443 C442 1.391 . S
H444 C452 0.950 . S
H445 C457 0.950 . S
H446 C454 0.950 . S
H447 C456 0.950 . S
H448 C458 0.950 . S
H449 C460 0.950 . S
H450 C462 0.950 . S
H451 C463 0.950 . S
C452 H444 0.950 . S
C452 C453 1.386 . S
C452 C454 1.391 . S
C453 C452 1.386 . S
C453 C457 1.393 1_556 S
C454 H446 0.950 . S
C454 C452 1.391 . S
C454 C455 1.400 . S
C455 C454 1.400 . S
C455 C456 1.398 1_556 S
C455 C461 1.491 1_556 S
C456 H447 0.950 . S
C456 C455 1.398 1_554 S
C456 C457 1.391 . S
C457 H445 0.950 . S
C457 C453 1.393 1_554 S
C457 C456 1.391 . S
C458 H448 0.950 . S
C458 C459 1.386 . S
C458 C460 1.391 . S
C459 C458 1.386 . S
C459 C463 1.393 1_554 S
C460 H449 0.950 . S
C460 C458 1.391 . S
C460 C461 1.400 . S
C461 C455 1.491 1_554 S
C461 C460 1.400 . S
C461 C462 1.398 1_554 S
C462 H450 0.950 . S
C462 C461 1.398 1_556 S
C462 C463 1.391 . S
C463 H451 0.950 . S
C463 C459 1.393 1_556 S
C463 C462 1.391 . S
H464 C472 0.950 . S
H465 C477 0.950 . S
H466 C474 0.950 . S
H467 C476 0.950 . S
H468 C478 0.950 . S
H469 C480 0.950 . S
H470 C482 0.950 . S
H471 C483 0.950 . S
C472 H464 0.950 . S
C472 C473 1.386 . S
C472 C474 1.391 . S
C473 C472 1.386 . S
C473 C477 1.393 . S
C474 H466 0.950 . S
C474 C472 1.391 . S
C474 C475 1.400 . S
C475 C474 1.400 . S
C475 C476 1.398 . S
C475 C481 1.491 . S
C476 H467 0.950 . S
C476 C475 1.398 . S
C476 C477 1.391 . S
C477 H465 0.950 . S
C477 C473 1.393 . S
C477 C476 1.391 . S
C478 H468 0.950 . S
C478 C479 1.386 . S
C478 C480 1.391 . S
C479 C478 1.386 . S
C479 C483 1.393 . S
C480 H469 0.950 . S
C480 C478 1.391 . S
C480 C481 1.400 . S
C481 C475 1.491 . S
C481 C480 1.400 . S
C481 C482 1.398 . S
C482 H470 0.950 . S
C482 C481 1.398 . S
C482 C483 1.391 . S
C483 H471 0.950 . S
C483 C479 1.393 . S
C483 C482 1.391 . S
H484 C492 0.950 . S
H485 C497 0.950 . S
H486 C494 0.950 . S
H487 C496 0.950 . S
H488 C498 0.950 . S
H489 C500 0.950 . S
H490 C502 0.950 . S
H491 C503 0.950 . S
C492 H484 0.950 . S
C492 C493 1.386 . S
C492 C494 1.391 . S
C493 C492 1.386 . S
C493 C497 1.393 . S
C494 H486 0.950 . S
C494 C492 1.391 . S
C494 C495 1.400 . S
C495 C494 1.400 . S
C495 C496 1.398 . S
C495 C501 1.491 . S
C496 H487 0.950 . S
C496 C495 1.398 . S
C496 C497 1.391 . S
C497 H485 0.950 . S
C497 C493 1.393 . S
C497 C496 1.391 . S
C498 H488 0.950 . S
C498 C499 1.386 . S
C498 C500 1.391 . S
C499 C498 1.386 . S
C499 C503 1.393 . S
C500 H489 0.950 . S
C500 C498 1.391 . S
C500 C501 1.400 . S
C501 C495 1.491 . S
C501 C500 1.400 . S
C501 C502 1.398 . S
C502 H490 0.950 . S
C502 C501 1.398 . S
C502 C503 1.391 . S
C503 H491 0.950 . S
C503 C499 1.393 . S
C503 C502 1.391 . S
H504 C512 0.950 . S
H505 C517 0.950 1_556 S
H506 C514 0.950 . S
H507 C516 0.950 . S
H508 C518 0.950 . S
H509 C520 0.950 . S
H510 C522 0.950 . S
H511 C523 0.944 1_554 S
C512 H504 0.950 . S
C512 C513 1.386 . S
C512 C514 1.391 . S
C513 C512 1.386 . S
C513 C517 1.393 . S
C514 H506 0.950 . S
C514 C512 1.391 . S
C514 C515 1.400 . S
C515 C514 1.400 . S
C515 C516 1.398 1_554 S
C515 C521 1.491 1_554 S
C516 H507 0.950 . S
C516 C515 1.398 1_556 S
C516 C517 1.391 1_556 S
C517 H505 0.950 1_554 S
C517 C513 1.393 . S
C517 C516 1.391 1_554 S
C518 H508 0.950 . S
C518 C519 1.386 . S
C518 C520 1.391 . S
C519 C518 1.386 . S
C519 C523 1.402 . S
C520 H509 0.950 . S
C520 C518 1.391 . S
C520 C521 1.400 . S
C521 C515 1.491 1_556 S
C521 C520 1.400 . S
C521 C522 1.398 1_556 S
C522 H510 0.950 . S
C522 C521 1.398 1_554 S
C522 C523 1.387 1_554 S
C523 H511 0.944 1_556 S
C523 C519 1.402 . S
C523 C522 1.387 1_556 S
H524 C532 0.950 . S
H525 C537 0.950 . S
H526 C534 0.950 . S
H527 C536 0.950 . S
H528 C538 0.950 . S
H529 C540 0.950 . S
H530 C542 0.950 . S
H531 C543 0.950 . S
C532 H524 0.950 . S
C532 C533 1.386 1_554 S
C532 C534 1.391 . S
C533 C532 1.386 1_556 S
C533 C537 1.393 . S
C534 H526 0.950 . S
C534 C532 1.391 . S
C534 C535 1.400 1_554 S
C535 C534 1.400 1_556 S
C535 C536 1.398 . S
C535 C541 1.491 1_556 S
C536 H527 0.950 . S
C536 C535 1.398 . S
C536 C537 1.391 . S
C537 H525 0.950 . S
C537 C533 1.393 . S
C537 C536 1.391 . S
C538 H528 0.950 . S
C538 C539 1.386 1_556 S
C538 C540 1.391 . S
C539 C538 1.386 1_554 S
C539 C543 1.393 . S
C540 H529 0.950 . S
C540 C538 1.391 . S
C540 C541 1.400 1_556 S
C541 C535 1.491 1_554 S
C541 C540 1.400 1_554 S
C541 C542 1.398 . S
C542 H530 0.950 . S
C542 C541 1.398 . S
C542 C543 1.391 . S
C543 H531 0.950 . S
C543 C539 1.393 . S
C543 C542 1.391 . S
H544 C552 0.950 . S
H545 C557 0.950 . S
H546 C554 0.950 . S
H547 C556 0.950 . S
H548 C558 0.950 . S
H549 C560 0.950 . S
H550 C562 0.950 . S
H551 C563 0.950 . S
C552 H544 0.950 . S
C552 C553 1.386 . S
C552 C554 1.391 . S
C553 C552 1.386 . S
C553 C557 1.393 . S
C554 H546 0.950 . S
C554 C552 1.391 . S
C554 C555 1.400 . S
C555 C554 1.400 . S
C555 C556 1.398 . S
C555 C561 1.491 . S
C556 H547 0.950 . S
C556 C555 1.398 . S
C556 C557 1.391 . S
C557 H545 0.950 . S
C557 C553 1.393 . S
C557 C556 1.391 . S
C558 H548 0.950 . S
C558 C559 1.386 . S
C558 C560 1.391 . S
C559 C558 1.386 . S
C559 C563 1.393 . S
C560 H549 0.950 . S
C560 C558 1.391 . S
C560 C561 1.400 . S
C561 C555 1.491 . S
C561 C560 1.400 . S
C561 C562 1.398 . S
C562 H550 0.950 . S
C562 C561 1.398 . S
C562 C563 1.391 . S
C563 H551 0.950 . S
C563 C559 1.393 . S
C563 C562 1.391 . S
H564 C572 0.950 . S
H565 C577 0.950 . S
H566 C574 0.950 . S
H567 C576 0.950 . S
H568 C578 0.950 . S
H569 C580 0.950 . S
H570 C582 0.950 . S
H571 C583 0.950 . S
C572 H564 0.950 . S
C572 C573 1.386 . S
C572 C574 1.391 . S
C573 C572 1.386 . S
C573 C577 1.393 . S
C574 H566 0.950 . S
C574 C572 1.391 . S
C574 C575 1.400 . S
C575 C574 1.400 . S
C575 C576 1.398 . S
C575 C581 1.491 . S
C576 H567 0.950 . S
C576 C575 1.398 . S
C576 C577 1.391 . S
C577 H565 0.950 . S
C577 C573 1.393 . S
C577 C576 1.391 . S
C578 H568 0.950 . S
C578 C579 1.386 . S
C578 C580 1.391 . S
C579 C578 1.386 . S
C579 C583 1.393 . S
C580 H569 0.950 . S
C580 C578 1.391 . S
C580 C581 1.400 . S
C581 C575 1.491 . S
C581 C580 1.400 . S
C581 C582 1.398 . S
C582 H570 0.950 . S
C582 C581 1.398 . S
C582 C583 1.391 . S
C583 H571 0.950 . S
C583 C579 1.393 . S
C583 C582 1.391 . S
H584 C592 0.950 . S
H585 C597 0.950 . S
H586 C594 0.936 1_655 S
H587 C596 0.950 . S
H588 C598 0.950 . S
H589 C600 0.950 . S
H590 C602 0.950 1_655 S
H591 C603 0.950 1_655 S
C592 H584 0.950 . S
C592 C593 1.386 . S
C592 C594 1.391 . S
C593 C592 1.386 . S
C593 C597 1.393 . S
C594 H586 0.936 1_455 S
C594 C592 1.391 . S
C594 C595 1.400 . S
C595 C594 1.400 . S
C595 C596 1.398 . S
C595 C601 1.491 . S
C596 H587 0.950 . S
C596 C595 1.398 . S
C596 C597 1.391 . S
C597 H585 0.950 . S
C597 C593 1.393 . S
C597 C596 1.391 . S
C598 H588 0.950 . S
C598 C599 1.386 . S
C598 C600 1.391 . S
C599 C598 1.386 . S
C599 C603 1.393 . S
C600 H589 0.950 . S
C600 C598 1.391 . S
C600 C601 1.400 . S
C601 C595 1.491 . S
C601 C600 1.400 . S
C601 C602 1.398 . S
C602 H590 0.950 1_455 S
C602 C601 1.398 . S
C602 C603 1.391 . S
C603 H591 0.950 1_455 S
C603 C599 1.393 . S
C603 C602 1.391 . S
H604 C612 0.950 . S
H605 C617 0.950 . S
H606 C614 0.950 . S
H607 C616 0.950 . S
H608 C618 0.950 . S
H609 C620 0.950 . S
H610 C622 0.950 . S
H611 C623 0.950 . S
C612 H604 0.950 . S
C612 C613 1.386 . S
C612 C614 1.391 . S
C613 C612 1.386 . S
C613 C617 1.393 . S
C614 H606 0.950 . S
C614 C612 1.391 . S
C614 C615 1.400 . S
C615 C614 1.400 . S
C615 C616 1.398 . S
C615 C621 1.491 . S
C616 H607 0.950 . S
C616 C615 1.398 . S
C616 C617 1.391 . S
C617 H605 0.950 . S
C617 C613 1.393 . S
C617 C616 1.391 . S
C618 H608 0.950 . S
C618 C619 1.386 . S
C618 C620 1.391 . S
C619 C618 1.386 . S
C619 C623 1.393 . S
C620 H609 0.950 . S
C620 C618 1.391 . S
C620 C621 1.400 . S
C621 C615 1.491 . S
C621 C620 1.400 . S
C621 C622 1.398 . S
C622 H610 0.950 . S
C622 C621 1.398 . S
C622 C623 1.391 . S
C623 H611 0.950 . S
C623 C619 1.393 . S
C623 C622 1.391 . S
H624 C632 0.950 . S
H625 C637 0.950 . S
H626 C634 0.950 . S
H627 C636 0.950 . S
H628 C638 0.950 . S
H629 C640 0.950 . S
H630 C642 0.950 . S
H631 C643 0.950 . S
C632 H624 0.950 . S
C632 C633 1.386 . S
C632 C634 1.391 . S
C633 C632 1.386 . S
C633 C637 1.393 . S
C634 H626 0.950 . S
C634 C632 1.391 . S
C634 C635 1.400 . S
C635 C634 1.400 . S
C635 C636 1.398 . S
C635 C641 1.491 . S
C636 H627 0.950 . S
C636 C635 1.398 . S
C636 C637 1.391 . S
C637 H625 0.950 . S
C637 C633 1.393 . S
C637 C636 1.391 . S
C638 H628 0.950 . S
C638 C639 1.386 . S
C638 C640 1.391 . S
C639 C638 1.386 . S
C639 C643 1.393 . S
C640 H629 0.950 . S
C640 C638 1.391 . S
C640 C641 1.400 . S
C641 C635 1.491 . S
C641 C640 1.400 . S
C641 C642 1.398 . S
C642 H630 0.950 . S
C642 C641 1.398 . S
C642 C643 1.391 . S
C643 H631 0.950 . S
C643 C639 1.393 . S
C643 C642 1.391 . S
H644 C652 0.950 . S
H645 C657 0.950 . S
H646 C654 0.950 . S
H647 C656 0.950 . S
H648 C658 0.950 . S
H649 C660 0.950 . S
H650 C662 0.950 . S
H651 C663 0.950 . S
C652 H644 0.950 . S
C652 C653 1.386 . S
C652 C654 1.391 . S
C653 C652 1.386 . S
C653 C657 1.393 . S
C654 H646 0.950 . S
C654 C652 1.391 . S
C654 C655 1.400 . S
C655 C654 1.400 . S
C655 C656 1.398 . S
C655 C661 1.491 . S
C656 H647 0.950 . S
C656 C655 1.398 . S
C656 C657 1.391 . S
C657 H645 0.950 . S
C657 C653 1.393 . S
C657 C656 1.391 . S
C658 H648 0.950 . S
C658 C659 1.386 . S
C658 C660 1.391 . S
C659 C658 1.386 . S
C659 C663 1.393 . S
C660 H649 0.950 . S
C660 C658 1.391 . S
C660 C661 1.400 . S
C661 C655 1.491 . S
C661 C660 1.400 . S
C661 C662 1.398 . S
C662 H650 0.950 . S
C662 C661 1.398 . S
C662 C663 1.391 . S
C663 H651 0.950 . S
C663 C659 1.393 . S
C663 C662 1.391 . S
C273 C28 0.845 1_655 S
C279 C160 0.845 1_455 S
C293 C193 0.831 . S
C299 C61 0.831 . S
C313 C226 0.805 . S
C319 C94 0.805 . S
C333 C127 0.810 . S
C339 C259 0.810 . S
C353 N47 0.826 . S
C359 N14 0.826 . S
C373 N80 0.770 . S
C379 N113 0.770 . S
C393 N146 0.817 . S
C399 N179 0.817 . S
C413 N245 0.792 . S
C419 N212 0.792 . S
C433 C8 1.809 . S
C439 N170 1.835 . S
C453 N137 1.820 . S
C459 C41 1.827 . S
C473 N236 1.824 . S
C479 C74 1.820 . S
C493 N203 1.821 . S
C499 C107 1.825 . S
C513 N38 1.829 . S
C519 C140 1.819 . S
C533 C173 1.812 . S
C539 N5 1.835 . S
C553 C206 1.811 . S
C559 N104 1.833 . S
C573 N71 1.827 . S
C579 C239 1.821 . S
C593 C83 1.464 . S
C599 C17 1.467 . S
C613 C50 1.469 . S
C619 C116 1.471 . S
C633 C215 1.470 . S
C639 C149 1.467 . S
C653 C248 1.471 . S
C659 C182 1.469 . S
