# Generated by pormake.
# Topology rob, (6)-cn, num edge types: 1
# Building blocks:
#     Node 0, Type 0, BuildingBlock: BETFAJ_clean_sbu_0, # of connection points: 6
#     Node 1, Type 0, BuildingBlock: BETFAJ_clean_sbu_0, # of connection points: 6
#     Node 2, Type 0, BuildingBlock: BETFAJ_clean_sbu_0, # of connection points: 6
#     Node 3, Type 0, BuildingBlock: BETFAJ_clean_sbu_0, # of connection points: 6
#     Edge 4, Type (0, 0), BuildingBlock: ZUJKAS_clean_linker_0, # of connection points: 2
#     Edge 5, Type (0, 0), BuildingBlock: ZUJKAS_clean_linker_0, # of connection points: 2
#     Edge 6, Type (0, 0), BuildingBlock: ZUJKAS_clean_linker_0, # of connection points: 2
#     Edge 7, Type (0, 0), BuildingBlock: ZUJKAS_clean_linker_0, # of connection points: 2
#     Edge 8, Type (0, 0), BuildingBlock: ZUJKAS_clean_linker_0, # of connection points: 2
#     Edge 9, Type (0, 0), BuildingBlock: ZUJKAS_clean_linker_0, # of connection points: 2
#     Edge 10, Type (0, 0), BuildingBlock: ZUJKAS_clean_linker_0, # of connection points: 2
#     Edge 11, Type (0, 0), BuildingBlock: ZUJKAS_clean_linker_0, # of connection points: 2
#     Edge 12, Type (0, 0), BuildingBlock: ZUJKAS_clean_linker_0, # of connection points: 2
#     Edge 13, Type (0, 0), BuildingBlock: ZUJKAS_clean_linker_0, # of connection points: 2
#     Edge 14, Type (0, 0), BuildingBlock: ZUJKAS_clean_linker_0, # of connection points: 2
#     Edge 15, Type (0, 0), BuildingBlock: ZUJKAS_clean_linker_0, # of connection points: 2
# Relax obj value: 0.107
# Max RMSD: 0.172
# Mean RMSD: 0.172
data_MOF--net-rob--node1-BETFAJ_clean_sbu_0--edge1-ZUJKAS_clean_linker_0
_symmetry_space_group_name_H-M    P1
_symmetry_Int_Tables_number       1
_symmetry_cell_setting            triclinic
loop_
_symmetry_equiv_pos_as_xyz
'x, y, z'
_cell_length_a     19.393629
_cell_length_b     32.333658
_cell_length_c     45.953422
_cell_angle_alpha  89.992003
_cell_angle_beta   120.23609
_cell_angle_gamma 90.004942
loop_
_atom_site_label
_atom_site_type_symbol
_atom_site_fract_x
_atom_site_fract_y
_atom_site_fract_z
_atom_type_partial_charge
Sm0 Sm 0.17414 0.27178 0.99225 0.0
Sm1 Sm 0.32982 0.2472 0.99467 0.0
C2 C 0.05539 0.27709 0.00494 0.0
C3 C 0.0508 0.2775 0.03604 0.0
C4 C 0.98326 0.2616 0.03576 0.0
C5 C 0.97874 0.26134 0.06523 0.0
C6 C 0.04174 0.27712 0.09566 0.0
C7 C 0.10975 0.2927 0.0958 0.0
C8 C 0.11433 0.29275 0.06636 0.0
C9 C 0.26443 0.337 0.99182 0.0
C10 C 0.33723 0.25066 0.06516 0.0
C11 C 0.4513 0.24265 0.98354 0.0
C12 C 0.46095 0.24514 0.9537 0.0
C13 C 0.40755 0.26814 0.92524 0.0
C14 C 0.41544 0.26902 0.8966 0.0
C15 C 0.47746 0.24722 0.89589 0.0
C16 C 0.53136 0.22459 0.92469 0.0
C17 C 0.52294 0.22347 0.95322 0.0
C18 C 0.23971 0.18212 -0.00456 0.0
C19 C 0.16464 0.26606 0.92152 0.0
O20 O 0.07778 0.24219 -0.00214 0.0
O21 O 0.08849 0.30933 -0.00028 0.0
O22 O 0.29156 0.30498 0.00985 0.0
O23 O 0.18694 0.33634 0.97437 0.0
O24 O 0.25863 0.25167 0.04699 0.0
O25 O 0.38239 0.25416 0.05138 0.0
O26 O 0.43034 0.27675 0.99239 0.0
O27 O 0.41365 0.21012 0.9854 0.0
O28 O 0.21279 0.21402 0.97725 0.0
O29 O 0.31727 0.18271 0.01291 0.0
O30 O 0.24346 0.26541 0.9394 0.0
O31 O 0.12018 0.26373 0.93569 0.0
H32 H 0.93404 0.24922 0.01273 0.0
H33 H 0.92612 0.24831 0.0642 0.0
H34 H 0.15914 0.3055 0.11853 0.0
H35 H 0.16749 0.30484 0.06728 0.0
H36 H 0.35932 0.28523 0.92504 0.0
H37 H 0.37203 0.28628 0.87484 0.0
H38 H 0.5806 0.20796 0.92537 0.0
H39 H 0.56489 0.2056 0.97494 0.0
Sm40 Sm 0.67085 0.77544 0.99535 0.0
Sm41 Sm 0.82484 0.75096 -0.00363 0.0
C42 C 0.55147 0.77862 0.00778 0.0
C43 C 0.54472 0.77997 0.03841 0.0
C44 C 0.48466 0.75721 0.03959 0.0
C45 C 0.47896 0.75696 0.06878 0.0
C46 C 0.53324 0.7796 0.09749 0.0
C47 C 0.59349 0.80239 0.09614 0.0
C48 C 0.59931 0.80247 0.06697 0.0
C49 C 0.76166 0.8409 -0.00417 0.0
C50 C 0.8365 0.75517 0.06794 0.0
C51 C 0.94407 0.74367 0.98393 0.0
C52 C 0.95342 0.74678 0.95402 0.0
C53 C 0.90202 0.77153 0.9264 0.0
C54 C 0.90878 0.77253 0.89747 0.0
C55 C 0.96757 0.74898 0.89565 0.0
C56 C 0.01955 0.72458 0.9236 0.0
C57 C 0.01232 0.72342 0.95242 0.0
C58 C 0.73323 0.68597 -0.00372 0.0
C59 C 0.6615 0.77533 0.92479 0.0
O60 O 0.57832 0.74402 0.00248 0.0
O61 O 0.58093 0.81137 0.00119 0.0
O62 O 0.78863 0.80824 0.013 0.0
O63 O 0.68407 0.84092 0.97902 0.0
O64 O 0.75782 0.75732 0.05045 0.0
O65 O 0.88024 0.75673 0.05336 0.0
O66 O 0.92818 0.77791 0.9946 0.0
O67 O 0.90219 0.71229 0.98438 0.0
O68 O 0.70688 0.71825 0.97857 0.0
O69 O 0.81067 0.6864 0.01394 0.0
O70 O 0.74024 0.77558 0.94279 0.0
O71 O 0.61722 0.76875 0.93863 0.0
H72 H 0.44249 0.73925 0.01798 0.0
H73 H 0.43271 0.73843 0.06898 0.0
H74 H 0.63585 0.82058 0.11751 0.0
H75 H 0.64676 0.82 0.06684 0.0
H76 H 0.85649 0.78997 0.92718 0.0
H77 H 0.86835 0.79204 0.87663 0.0
H78 H 0.06483 0.70566 0.92295 0.0
H79 H 0.05227 0.7039 0.97337 0.0
Sm80 Sm 0.3287 0.77967 0.49799 0.0
Sm81 Sm 0.1728 0.75429 0.49489 0.0
C82 C 0.44971 0.78738 0.48686 0.0
C83 C 0.46013 0.78376 0.45724 0.0
C84 C 0.41833 0.75389 0.43221 0.0
C85 C 0.42486 0.75262 0.40322 0.0
C86 C 0.47387 0.78102 0.39879 0.0
C87 C 0.51653 0.81048 0.4242 0.0
C88 C 0.50949 0.81188 0.45305 0.0
C89 C 0.23658 0.84422 0.49796 0.0
C90 C 0.16796 0.75691 0.42505 0.0
C91 C 0.05131 0.74996 0.50594 0.0
C92 C 0.04341 0.74782 0.53626 0.0
C93 C 0.98057 0.76857 0.53678 0.0
C94 C 0.97417 0.76828 0.56582 0.0
C95 C 0.03072 0.74726 0.59505 0.0
C96 C 0.09363 0.72641 0.59434 0.0
C97 C 0.09989 0.7267 0.56529 0.0
C98 C 0.26447 0.68943 0.49511 0.0
C99 C 0.33644 0.77374 0.56865 0.0
O100 O 0.43465 0.75331 0.49806 0.0
O101 O 0.40664 0.81863 0.48655 0.0
O102 O 0.21045 0.81228 0.47977 0.0
O103 O 0.31396 0.84369 0.51607 0.0
O104 O 0.24657 0.75666 0.44374 0.0
O105 O 0.12215 0.76225 0.43836 0.0
O106 O 0.07846 0.78487 0.50128 0.0
O107 O 0.08171 0.7176 0.49937 0.0
O108 O 0.29074 0.72158 0.51302 0.0
O109 O 0.1869 0.68953 0.47767 0.0
O110 O 0.25786 0.77085 0.5506 0.0
O111 O 0.38155 0.77344 0.55471 0.0
H112 H 0.38021 0.7317 0.43497 0.0
H113 H 0.39192 0.72922 0.38439 0.0
H114 H 0.55402 0.83312 0.42146 0.0
H115 H 0.54185 0.83535 0.47193 0.0
H116 H 0.93679 0.7854 0.51479 0.0
H117 H 0.92566 0.78522 0.56553 0.0
H118 H 0.13778 0.70951 0.61617 0.0
H119 H 0.14923 0.7106 0.56559 0.0
Sm120 Sm 0.83076 0.28194 0.49479 0.0
Sm121 Sm 0.67519 0.25787 0.49258 0.0
C122 C 0.95211 0.28581 0.48357 0.0
C123 C 0.96142 0.28344 0.45364 0.0
C124 C 0.90913 0.25959 0.42552 0.0
C125 C 0.91681 0.25874 0.39682 0.0
C126 C 0.97735 0.28149 0.39573 0.0
C127 C 0.03005 0.30505 0.42411 0.0
C128 C 0.02195 0.30608 0.45272 0.0
C129 C 0.74152 0.34748 0.49535 0.0
C130 C 0.66517 0.2632 0.42173 0.0
C131 C 0.55705 0.25221 0.50564 0.0
C132 C 0.55307 0.25251 0.53688 0.0
C133 C 0.48349 0.26589 0.53616 0.0
C134 C 0.47945 0.26663 0.56574 0.0
C135 C 0.54498 0.25389 0.59663 0.0
C136 C 0.61494 0.2408 0.59727 0.0
C137 C 0.61901 0.24024 0.56771 0.0
C138 C 0.76556 0.19253 0.49232 0.0
C139 C 0.83806 0.27957 0.5652 0.0
O140 O 0.93037 0.2518 0.4922 0.0
O141 O 0.91551 0.31857 0.48579 0.0
O142 O 0.7139 0.31546 0.47736 0.0
O143 O 0.81909 0.34671 0.51269 0.0
O144 O 0.74401 0.26375 0.43952 0.0
O145 O 0.62092 0.2657 0.43599 0.0
O146 O 0.57785 0.28704 0.49774 0.0
O147 O 0.59137 0.22006 0.50105 0.0
O148 O 0.7924 0.22453 0.51035 0.0
O149 O 0.6881 0.19327 0.47466 0.0
O150 O 0.75948 0.27922 0.54695 0.0
O151 O 0.88324 0.27508 0.55151 0.0
H152 H 0.86215 0.24166 0.42567 0.0
H153 H 0.87579 0.2399 0.37561 0.0
H154 H 0.07673 0.32331 0.424 0.0
H155 H 0.06269 0.32483 0.47408 0.0
H156 H 0.43214 0.27567 0.51267 0.0
H157 H 0.4245 0.27656 0.56433 0.0
H158 H 0.66687 0.2314 0.6207 0.0
H159 H 0.67372 0.23021 0.56896 0.0
H160 H 0.78342 0.61524 0.03328 0.0
H161 H 0.70257 0.55629 0.03181 0.0
H162 H 0.48988 0.61843 0.95689 0.0
H163 H 0.57085 0.67733 0.95785 0.0
H164 H 0.57911 0.55305 0.04566 0.0
H165 H 0.47286 0.50568 0.91361 0.0
H166 H 0.55431 0.54149 0.93602 0.0
H167 H 0.45288 0.5587 0.91844 0.0
C168 C 0.71944 0.61629 0.01639 0.0
C169 C 0.68348 0.65079 -0.00447 0.0
C170 C 0.67329 0.58261 0.01562 0.0
C171 C 0.59027 0.58259 0.99388 0.0
C172 C 0.554 0.61733 0.97336 0.0
H173 H 0.21305 0.40741 0.95438 0.0
H174 H 0.29294 0.46674 0.95567 0.0
C175 C 0.60022 0.65108 0.97409 0.0
C176 C 0.54199 0.54642 0.99318 0.0
H177 H 0.41623 0.4708 0.94195 0.0
C178 C 0.54369 0.53497 0.02302 0.0
C179 C 0.49579 0.52282 0.96362 0.0
C180 C 0.49416 0.53246 0.93115 0.0
C181 C 0.49948 0.50106 0.02399 0.0
C182 C 0.45339 0.47741 0.99445 0.0
C183 C 0.4516 0.48889 0.96459 0.0
C184 C 0.40561 0.44103 0.99382 0.0
C185 C 0.50109 0.49146 0.05646 0.0
C186 C 0.44241 0.4065 0.01452 0.0
C187 C 0.39675 0.37255 0.0139 0.0
C188 C 0.31352 0.37241 0.99239 0.0
C189 C 0.27702 0.40669 0.97134 0.0
C190 C 0.32262 0.4406 0.97199 0.0
H191 H 0.52177 0.51838 0.07386 0.0
H192 H 0.4411 0.48211 0.05159 0.0
H193 H 0.54293 0.46547 0.06934 0.0
H194 H 0.50653 0.40571 0.03105 0.0
H195 H 0.42655 0.3465 0.03032 0.0
H196 H 0.21495 0.61924 0.4574 0.0
H197 H 0.29666 0.56132 0.45785 0.0
H198 H 0.50853 0.623 0.53377 0.0
H199 H 0.42688 0.68134 0.53327 0.0
H200 H 0.52395 0.58989 0.48069 0.0
H201 H 0.4021 0.47306 0.5313 0.0
H202 H 0.32749 0.49969 0.49457 0.0
H203 H 0.38703 0.5279 0.53301 0.0
C204 C 0.27893 0.62041 0.47429 0.0
C205 C 0.31453 0.65469 0.49545 0.0
C206 C 0.3255 0.58718 0.47463 0.0
C207 C 0.40856 0.58746 0.49627 0.0
C208 C 0.44447 0.62201 0.51705 0.0
H209 H 0.79319 0.41749 0.53332 0.0
H210 H 0.71292 0.47583 0.53345 0.0
C211 C 0.39783 0.65529 0.51674 0.0
C212 C 0.4579 0.55201 0.49671 0.0
H213 H 0.48554 0.44797 0.51117 0.0
C214 C 0.51594 0.5589 0.48755 0.0
C215 C 0.44716 0.51155 0.50555 0.0
C216 C 0.3881 0.50252 0.51697 0.0
C217 C 0.56242 0.5263 0.48635 0.0
C218 C 0.55157 0.48583 0.49513 0.0
C219 C 0.49364 0.47896 0.50435 0.0
C220 C 0.60021 0.45025 0.49518 0.0
C221 C 0.62142 0.53532 0.4749 0.0
C222 C 0.56339 0.41591 0.47429 0.0
C223 C 0.60917 0.38241 0.47428 0.0
C224 C 0.69255 0.38256 0.49536 0.0
C225 C 0.72912 0.41667 0.5166 0.0
C226 C 0.68338 0.45013 0.51658 0.0
H227 H 0.60774 0.56491 0.46075 0.0
H228 H 0.68214 0.53786 0.49727 0.0
H229 H 0.62204 0.51005 0.45867 0.0
H230 H 0.49924 0.41522 0.45774 0.0
H231 H 0.57936 0.35651 0.45769 0.0
H232 H 0.07753 0.17337 0.9573 0.0
H233 H 0.99628 0.11562 0.95804 0.0
H234 H 0.20894 0.0546 0.03409 0.0
H235 H 0.2901 0.11243 0.03386 0.0
H236 H 0.00367 0.03215 0.94429 0.0
H237 H 0.06504 0.05233 0.07512 0.0
H238 H 0.08724 0.09186 0.0533 0.0
H239 H 0.15321 0.04847 0.07183 0.0
C240 C 0.1068 0.14775 0.97433 0.0
C241 C 0.19009 0.14748 -0.00434 0.0
C242 C 0.06038 0.11476 0.97468 0.0
C243 C 0.09635 0.08105 -0.00351 0.0
C244 C 0.17964 0.08064 0.01758 0.0
H245 H 0.92418 0.84875 0.03306 0.0
H246 H 0.00564 0.90647 0.03238 0.0
C247 C 0.22601 0.11359 0.01726 0.0
C248 C 0.04716 0.04578 -0.00344 0.0
H249 H 0.9981 0.99062 0.04703 0.0
C250 C 0.00208 0.0232 0.9667 0.0
C251 C 0.04533 0.03403 0.02584 0.0
C252 C 0.08967 0.05813 0.05828 0.0
C253 C 0.95637 0.98878 0.96548 0.0
C254 C 0.95464 0.97701 0.99478 0.0
C255 C 0.99972 0.99957 0.02463 0.0
C256 C 0.90538 0.94179 0.99482 0.0
C257 C 0.91167 0.96477 0.93302 0.0
C258 C 0.82199 0.94265 0.97421 0.0
C259 C 0.77549 0.90979 0.97455 0.0
C260 C 0.81144 0.87549 -0.00435 0.0
C261 C 0.89489 0.87472 0.01645 0.0
C262 C 0.94142 0.90768 0.01612 0.0
H263 H 0.93553 0.97086 0.91594 0.0
H264 H 0.91468 0.931 0.93797 0.0
H265 H 0.84798 0.97417 0.91976 0.0
H266 H 0.79272 0.96898 0.95805 0.0
H267 H 0.7113 0.9113 0.95832 0.0
H268 H 0.71474 0.12235 0.45459 0.0
H269 H 0.79498 0.06307 0.45606 0.0
H270 H 0.00779 0.12376 0.53234 0.0
H271 H 0.92746 0.18292 0.53139 0.0
H272 H 0.92004 0.05951 0.44317 0.0
H273 H 0.02082 1.01062 0.5744 0.0
H274 H 0.94028 0.0469 0.55189 0.0
H275 H 0.04221 0.06364 0.57032 0.0
C276 C 0.77861 0.123 0.47177 0.0
C277 C 0.81482 0.15716 0.49301 0.0
C278 C 0.8244 0.08913 0.47254 0.0
C279 C 0.90725 0.08863 0.49467 0.0
C280 C 0.94376 0.12304 0.51556 0.0
H281 H 0.286 0.91449 0.53559 0.0
H282 H 0.20475 0.97335 0.53391 0.0
C283 C 0.89792 0.15695 0.51483 0.0
C284 C 0.95524 0.05232 0.49542 0.0
H285 H 0.07959 0.97629 0.54665 0.0
C286 C 0.95468 0.0412 0.46575 0.0
C287 C 1.00037 0.02841 0.52489 0.0
C288 C 1.00062 0.03766 0.55713 0.0
C289 C 0.99922 1.00737 0.46492 0.0
C290 C 0.04445 0.9835 0.49441 0.0
C291 C 0.0449 0.99458 0.52406 0.0
C292 C 0.09298 0.94739 0.49525 0.0
C293 C 0.999 0.99812 0.43269 0.0
C294 C 0.0571 0.91288 0.47439 0.0
C295 C 0.10355 0.87919 0.47523 0.0
C296 C 0.18662 0.87932 0.49713 0.0
C297 C 0.22217 0.91358 0.51834 0.0
C298 C 0.1758 0.94721 0.51746 0.0
H299 H 0.97845 0.0251 0.41534 0.0
H300 H 0.05944 0.98908 0.43793 0.0
H301 H 0.95772 0.972 0.41957 0.0
H302 H 0.99311 0.9119 0.45756 0.0
H303 H 0.07449 0.85312 0.45872 0.0
H304 H 0.73386 0.27811 0.38388 0.0
H305 H 0.67391 0.27154 0.32316 0.0
H306 H 0.45128 0.23419 0.31507 0.0
H307 H 0.511 0.24116 0.37626 0.0
H308 H 0.60832 0.20211 0.28356 0.0
H309 H 0.38457 0.32828 0.24688 0.0
H310 H 0.46601 0.32188 0.2895 0.0
H311 H 0.37978 0.28898 0.27343 0.0
C312 C 0.67219 0.26837 0.36929 0.0
C313 C 0.62713 0.26001 0.38484 0.0
C314 C 0.63803 0.26473 0.33457 0.0
C315 C 0.55814 0.25274 0.31469 0.0
C316 C 0.51275 0.2442 0.33002 0.0
H317 H 0.26205 0.22807 0.09907 0.0
H318 H 0.31749 0.22486 0.15968 0.0
C319 C 0.5469 0.24809 0.3649 0.0
C320 C 0.52341 0.24894 0.27794 0.0
H321 H 0.3825 0.28974 0.20289 0.0
C322 C 0.55882 0.22118 0.26585 0.0
C323 C 0.45896 0.27392 0.25507 0.0
C324 C 0.42038 0.30522 0.26678 0.0
C325 C 0.53132 0.21765 0.23132 0.0
C326 C 0.46768 0.24308 0.20851 0.0
C327 C 0.43154 0.2704 0.22057 0.0
C328 C 0.43699 0.24195 0.17191 0.0
C329 C 0.5699 0.18644 0.21957 0.0
C330 C 0.48618 0.25241 0.15873 0.0
C331 C 0.4547 0.25414 0.12389 0.0
C332 C 0.37342 0.24596 0.10189 0.0
C333 C 0.32488 0.23484 0.11531 0.0
C334 C 0.35638 0.2329 0.14996 0.0
H335 H 0.60204 0.1621 0.23881 0.0
H336 H 0.52488 0.1714 0.19577 0.0
H337 H 0.61395 0.20242 0.21484 0.0
H338 H 0.54827 0.26033 0.17535 0.0
H339 H 0.49331 0.26304 0.11425 0.0
H340 H 0.65488 0.77919 0.16363 0.0
H341 H 0.64391 0.77941 0.2144 0.0
H342 H 0.38742 0.77868 0.15314 0.0
H343 H 0.39741 0.77971 0.1022 0.0
H344 H 0.55745 0.83981 0.23237 0.0
H345 H 0.44406 0.67903 0.2199 0.0
H346 H 0.49507 0.6968 0.19843 0.0
H347 H 0.393 0.7111 0.18303 0.0
C348 C 0.59601 0.77952 0.16084 0.0
C349 C 0.52701 0.77937 0.12863 0.0
C350 C 0.58994 0.77937 0.18995 0.0
C351 C 0.51489 0.77857 0.18754 0.0
C352 C 0.44595 0.77859 0.15557 0.0
H353 H 0.35369 0.76979 0.33342 0.0
H354 H 0.36379 0.76995 0.28241 0.0
C355 C 0.45188 0.77902 0.12644 0.0
C356 C 0.50861 0.77849 0.21846 0.0
H357 H 0.44811 0.71985 0.26341 0.0
C358 C 0.53387 0.81355 0.23928 0.0
C359 C 0.4773 0.7443 0.22724 0.0
C360 C 0.45125 0.70547 0.2062 0.0
C361 C 0.52753 0.81562 0.26841 0.0
C362 C 0.49697 0.78122 0.27746 0.0
C363 C 0.47157 0.74618 0.25653 0.0
C364 C 0.4912 0.7809 0.30858 0.0
C365 C 0.5517 0.85506 0.28873 0.0
C366 C 0.55959 0.78628 0.34037 0.0
C367 C 0.55399 0.78622 0.36957 0.0
C368 C 0.47996 0.78029 0.3677 0.0
C369 C 0.41175 0.7741 0.33584 0.0
C370 C 0.41737 0.77435 0.30662 0.0
H371 H 0.55142 0.88186 0.27354 0.0
H372 H 0.51127 0.862 0.29865 0.0
H373 H 0.61321 0.8516 0.31041 0.0
H374 H 0.61757 0.79025 0.34266 0.0
H375 H 0.60793 0.7903 0.3937 0.0
H376 H 0.51286 0.75133 0.87503 0.0
H377 H 0.4586 0.75698 0.81399 0.0
H378 H 0.67124 0.82119 0.83166 0.0
H379 H 0.72535 0.8159 0.89226 0.0
H380 H 0.43475 0.82928 0.77178 0.0
H381 H 0.65878 0.71884 0.775 0.0
H382 H 0.63837 0.72317 0.80914 0.0
H383 H 0.69771 0.76167 0.80374 0.0
C384 C 0.54747 0.76701 0.86582 0.0
C385 C 0.624 0.78233 0.88829 0.0
C386 C 0.51662 0.77014 0.83108 0.0
C387 C 0.56194 0.78865 0.81856 0.0
C388 C 0.63638 0.80591 0.84095 0.0
H389 H 0.48803 0.7992 0.61477 0.0
H390 H 0.54465 0.8068 0.67579 0.0
C391 C 0.66723 0.80271 0.87552 0.0
C392 C 0.53266 0.78889 0.78211 0.0
H393 H 0.57028 0.74945 0.72267 0.0
C394 C 0.46419 0.81188 0.76095 0.0
C395 C 0.57216 0.76652 0.76834 0.0
C396 C 0.64553 0.74086 0.79011 0.0
C397 C 0.43379 0.81308 0.72609 0.0
C398 C 0.47189 0.78969 0.71214 0.0
C399 C 0.54131 0.76733 0.73346 0.0
C400 C 0.43802 0.78596 0.67538 0.0
C401 C 0.36175 0.83974 0.70468 0.0
C402 C 0.36029 0.7709 0.65524 0.0
C403 C 0.32787 0.76694 0.62064 0.0
C404 C 0.37307 0.77715 0.60549 0.0
C405 C 0.45184 0.79113 0.62577 0.0
C406 C 0.48407 0.79558 0.66053 0.0
H407 H 0.35716 0.86562 0.71952 0.0
H408 H 0.36371 0.85284 0.68277 0.0
H409 H 0.30693 0.82072 0.69516 0.0
H410 H 0.32467 0.76192 0.66631 0.0
H411 H 0.26739 0.75555 0.60582 0.0
H412 H 0.59684 0.19408 0.64544 0.0
H413 H 0.5851 0.19318 0.69604 0.0
H414 H 0.47217 0.313 0.66979 0.0
H415 H 0.48255 0.31376 0.61889 0.0
H416 H 0.64466 0.24307 0.75007 0.0
H417 H 0.31436 0.24922 0.68444 0.0
H418 H 0.36792 0.23959 0.66246 0.0
H419 H 0.35678 0.29156 0.67355 0.0
C420 C 0.56969 0.22029 0.65049 0.0
C421 C 0.53996 0.25384 0.62794 0.0
C422 C 0.56279 0.21968 0.67939 0.0
C423 C 0.52615 0.2526 0.68643 0.0
C424 C 0.49839 0.28663 0.66443 0.0
H425 H 0.45112 0.31232 0.85294 0.0
H426 H 0.46351 0.31308 0.80254 0.0
C427 C 0.50461 0.2871 0.63537 0.0
C428 C 0.51828 0.25157 0.71705 0.0
H429 H 0.38311 0.2587 0.74389 0.0
C430 C 0.58738 0.24624 0.74867 0.0
C431 C 0.44348 0.25559 0.71529 0.0
C432 C 0.36634 0.25889 0.6821 0.0
C433 C 0.58392 0.24561 0.77851 0.0
C434 C 0.50936 0.25018 0.77672 0.0
C435 C 0.44026 0.25544 0.74519 0.0
C436 C 0.50176 0.2494 0.80731 0.0
C437 C 0.66023 0.2408 0.81182 0.0
C438 C 0.51809 0.21316 0.82647 0.0
C439 C 0.51016 0.21241 0.85511 0.0
C440 C 0.48576 0.24797 0.86526 0.0
C441 C 0.46905 0.28419 0.84577 0.0
C442 C 0.47657 0.2848 0.81703 0.0
H443 H 0.71386 0.24631 0.80953 0.0
H444 H 0.66142 0.26252 0.83079 0.0
H445 H 0.66371 0.20886 0.8213 0.0
H446 H 0.53618 0.18526 0.81906 0.0
H447 H 0.52198 0.18372 0.86898 0.0
H448 H 0.99327 0.73758 0.11395 0.0
H449 H 0.05333 0.73135 0.17527 0.0
H450 H 0.82617 0.76029 0.16624 0.0
H451 H 0.76574 0.76547 0.10557 0.0
H452 H 0.06506 0.78956 0.22048 0.0
H453 H 0.88738 0.65711 0.22301 0.0
H454 H 0.88999 0.67154 0.18563 0.0
H455 H 0.82529 0.69835 0.19686 0.0
C456 C 0.95621 0.74234 0.12509 0.0
C457 C 0.87469 0.75167 0.10488 0.0
C458 C 0.99046 0.73871 0.16003 0.0
C459 C 0.94364 0.74437 0.17512 0.0
C460 C 0.86278 0.75448 0.15502 0.0
H461 H 0.0139 0.77233 0.37501 0.0
H462 H 0.96045 0.76741 0.314 0.0
C463 C 0.82851 0.75774 0.12028 0.0
C464 C 0.9794 0.74189 0.21205 0.0
H465 H 0.95566 0.6972 0.27376 0.0
C466 C 0.04193 0.76901 0.23221 0.0
C467 C 0.94882 0.71506 0.22719 0.0
C468 C 0.88472 0.68359 0.20705 0.0
C469 C 0.0729 0.77108 0.26708 0.0
C470 C 0.04078 0.74505 0.28204 0.0
C471 C 0.97934 0.71739 0.26202 0.0
C472 C 0.07116 0.74583 0.31859 0.0
C473 C 0.13825 0.80187 0.2875 0.0
C474 C 0.15003 0.73417 0.34103 0.0
C475 C 0.18044 0.73694 0.37559 0.0
C476 C 0.13244 0.75126 0.38841 0.0
C477 C 0.05232 0.76136 0.36587 0.0
C478 C 0.02184 0.75862 0.33111 0.0
H479 H 0.14298 0.82598 0.27135 0.0
H480 H 0.12786 0.81726 0.30656 0.0
H481 H 0.19628 0.78542 0.301 0.0
H482 H 0.18837 0.72332 0.33179 0.0
H483 H 0.24188 0.72807 0.39223 0.0
H484 H 0.85817 0.2852 0.32957 0.0
H485 H 0.87146 0.28388 0.27931 0.0
H486 H 0.12724 0.276 0.34209 0.0
H487 H 0.11451 0.27653 0.39246 0.0
H488 H 0.9611 0.3407 0.26243 0.0
H489 H 0.06821 0.17869 0.27463 0.0
H490 H 0.01926 0.19759 0.29662 0.0
H491 H 0.12181 0.21041 0.31152 0.0
C492 C 0.91724 0.28272 0.3327 0.0
C493 C 0.98528 0.28079 0.36509 0.0
C494 C 0.92473 0.28223 0.30395 0.0
C495 C 1.00025 0.27936 0.30694 0.0
C496 C 0.0683 0.27765 0.33918 0.0
H497 H 0.1612 0.26341 0.16109 0.0
H498 H 0.15205 0.26605 0.2122 0.0
C499 C 0.06094 0.27835 0.36796 0.0
C500 C 0.00786 0.27899 0.27634 0.0
H501 H 0.06707 0.21919 0.23156 0.0
C502 C 0.98404 0.31411 0.25558 0.0
C503 C 0.03833 0.24438 0.26762 0.0
C504 C 0.06287 0.20544 0.28855 0.0
C505 C 0.99083 0.3158 0.22655 0.0
C506 C 0.02027 0.28094 0.2175 0.0
C507 C 0.04445 0.24588 0.23842 0.0
C508 C 0.02577 0.28003 0.18631 0.0
C509 C 0.96818 0.35534 0.20635 0.0
C510 C 0.95773 0.28653 0.15461 0.0
C511 C 0.96295 0.28569 0.12534 0.0
C512 C 0.03621 0.27769 0.12696 0.0
C513 C 0.10405 0.27043 0.15878 0.0
C514 C 0.09882 0.27158 0.18808 0.0
H515 H 0.97074 0.38236 0.22181 0.0
H516 H 0.00803 0.3614 0.19599 0.0
H517 H 0.90603 0.35271 0.18502 0.0
H518 H 0.90026 0.29211 0.15244 0.0
H519 H 0.90954 0.29183 0.10145 0.0
H520 H 0.99188 0.2628 0.61467 0.0
H521 H 0.04503 0.26463 0.67574 0.0
H522 H 0.81848 0.30947 0.65911 0.0
H523 H 0.76478 0.3072 0.59856 0.0
H524 H 0.05629 0.32981 0.71888 0.0
H525 H 0.85426 0.20525 0.71502 0.0
H526 H 0.86812 0.21638 0.67981 0.0
H527 H 0.80411 0.24846 0.68803 0.0
C528 C 0.95378 0.27333 0.6241 0.0
C529 C 0.874 0.28429 0.60188 0.0
C530 C 0.98404 0.2743 0.65888 0.0
C531 C 0.93489 0.28627 0.67171 0.0
C532 C 0.85657 0.29912 0.64961 0.0
H533 H 0.0114 0.28955 0.87597 0.0
H534 H 0.95299 0.29756 0.81486 0.0
C535 C 0.82621 0.29792 0.61501 0.0
C536 C 0.9648 0.28476 0.70821 0.0
H537 H 0.93388 0.2386 0.76743 0.0
C538 C 0.02976 0.30985 0.72957 0.0
C539 C 0.92921 0.25892 0.72185 0.0
C540 C 0.8605 0.23045 0.70006 0.0
C541 C 0.06029 0.30986 0.76443 0.0
C542 C 0.02573 0.28343 0.77814 0.0
C543 C 0.95992 0.25886 0.75672 0.0
C544 C 0.06016 0.27892 0.81481 0.0
C545 C 0.12878 0.3384 0.7862 0.0
C546 C 0.13869 0.26482 0.83461 0.0
C547 C 0.17191 0.2603 0.86921 0.0
C548 C 0.12698 0.26944 0.88467 0.0
C549 C 0.04741 0.28241 0.8647 0.0
C550 C 0.01417 0.28712 0.82992 0.0
H551 H 0.13163 0.36499 0.77152 0.0
H552 H 0.12377 0.35048 0.80768 0.0
H553 H 0.18575 0.32109 0.79646 0.0
H554 H 0.17426 0.25706 0.82325 0.0
H555 H 0.23274 0.24928 0.88377 0.0
H556 H 0.15141 0.75339 0.66102 0.0
H557 H 0.14039 0.75247 0.71176 0.0
H558 H 0.88455 0.74224 0.6504 0.0
H559 H 0.89516 0.74141 0.59964 0.0
H560 H 0.06279 0.806 0.73181 0.0
H561 H 0.93562 0.6486 0.71675 0.0
H562 H 0.97915 0.66662 0.69239 0.0
H563 H 0.87904 0.68126 0.68082 0.0
C564 C 0.09282 0.75026 0.65827 0.0
C565 C 0.02421 0.74716 0.62611 0.0
C566 C 0.0866 0.75007 0.68735 0.0
C567 C 0.01176 0.74658 0.685 0.0
C568 C 0.94311 0.74405 0.65296 0.0
H569 H 0.84674 0.74758 0.82968 0.0
H570 H 0.85803 0.74838 0.77894 0.0
C571 C 0.94925 0.74414 0.62388 0.0
C572 C 0.00539 0.74665 0.71599 0.0
H573 H 0.93622 0.69078 0.75925 0.0
C574 C 0.03552 0.78069 0.7379 0.0
C575 C 0.9697 0.71365 0.72397 0.0
C576 C 0.9397 0.67528 0.70244 0.0
C577 C 0.02963 0.78299 0.76714 0.0
C578 C 0.99364 0.75009 0.77501 0.0
C579 C 0.96354 0.71605 0.75315 0.0
C580 C 0.9871 0.75027 0.80593 0.0
C581 C 0.06046 0.82106 0.78899 0.0
C582 C 0.05585 0.75067 0.83801 0.0
C583 C 0.04957 0.75038 0.86706 0.0
C584 C 0.97431 0.74957 0.86468 0.0
C585 C 0.90554 0.7489 0.83246 0.0
C586 C 0.91191 0.74906 0.80342 0.0
H587 H 0.06737 0.84754 0.77526 0.0
H588 H 0.01985 0.8304 0.7983 0.0
H589 H 0.11985 0.81422 0.81115 0.0
H590 H 0.11454 0.75089 0.8406 0.0
H591 H 0.10375 0.75117 0.89141 0.0
loop_
_geom_bond_atom_site_label_1
_geom_bond_atom_site_label_2
_geom_bond_distance
_geom_bond_site_symmetry_2
_ccdc_geom_bond_type
Sm0 C2 2.846 . S
Sm0 O20 2.543 . S
Sm0 O21 2.450 . S
Sm0 O22 2.681 1_554 S
Sm0 O23 2.464 . S
Sm0 O24 2.396 . S
Sm0 O28 2.386 . S
Sm0 O31 2.408 1_554 S
Sm1 C11 2.846 . S
Sm1 O22 2.386 . S
Sm1 O25 2.408 1_556 S
Sm1 O26 2.543 . S
Sm1 O27 2.450 . S
Sm1 O28 2.681 1_556 S
Sm1 O29 2.464 . S
Sm1 O30 2.396 . S
C2 Sm0 2.846 . S
C2 C3 1.506 . S
C2 O20 1.261 . S
C2 O21 1.242 . S
C3 C2 1.506 . S
C3 C4 1.358 . S
C3 C8 1.382 . S
C4 C3 1.358 . S
C4 C5 1.385 . S
C4 H32 0.930 . S
C5 C4 1.385 . S
C5 C6 1.395 . S
C5 H33 0.929 . S
C6 C5 1.395 . S
C6 C7 1.335 . S
C7 C6 1.335 . S
C7 C8 1.398 . S
C7 H34 0.930 . S
C8 C3 1.382 . S
C8 C7 1.398 . S
C8 H35 0.929 . S
C9 O22 1.271 1_554 S
C9 O23 1.251 . S
C10 O24 1.252 . S
C10 O25 1.272 . S
C11 Sm1 2.846 . S
C11 C12 1.506 . S
C11 O26 1.261 . S
C11 O27 1.242 . S
C12 C11 1.506 . S
C12 C13 1.358 . S
C12 C17 1.382 . S
C13 C12 1.358 . S
C13 C14 1.385 . S
C13 H36 0.930 . S
C14 C13 1.385 . S
C14 C15 1.395 . S
C14 H37 0.929 . S
C15 C14 1.395 . S
C15 C16 1.335 . S
C16 C15 1.335 . S
C16 C17 1.398 . S
C16 H38 0.930 . S
C17 C12 1.382 . S
C17 C16 1.398 . S
C17 H39 0.929 . S
C18 O28 1.271 1_556 S
C18 O29 1.251 . S
C19 O30 1.252 . S
C19 O31 1.272 . S
O20 Sm0 2.543 . S
O20 C2 1.261 . S
O21 Sm0 2.450 . S
O21 C2 1.242 . S
O22 Sm0 2.681 1_556 S
O22 Sm1 2.386 . S
O22 C9 1.271 1_556 S
O23 Sm0 2.464 . S
O23 C9 1.251 . S
O24 Sm0 2.396 . S
O24 C10 1.252 . S
O25 Sm1 2.408 1_554 S
O25 C10 1.272 . S
O26 Sm1 2.543 . S
O26 C11 1.261 . S
O27 Sm1 2.450 . S
O27 C11 1.242 . S
O28 Sm0 2.386 . S
O28 Sm1 2.681 1_554 S
O28 C18 1.271 1_554 S
O29 Sm1 2.464 . S
O29 C18 1.251 . S
O30 Sm1 2.396 . S
O30 C19 1.252 . S
O31 Sm0 2.408 1_556 S
O31 C19 1.272 . S
H32 C4 0.930 . S
H33 C5 0.929 . S
H34 C7 0.930 . S
H35 C8 0.929 . S
H36 C13 0.930 . S
H37 C14 0.929 . S
H38 C16 0.930 . S
H39 C17 0.929 . S
Sm40 C42 2.846 . S
Sm40 O60 2.543 . S
Sm40 O61 2.450 . S
Sm40 O62 2.681 1_554 S
Sm40 O63 2.464 . S
Sm40 O64 2.396 . S
Sm40 O68 2.386 . S
Sm40 O71 2.408 1_554 S
Sm41 C51 2.846 . S
Sm41 O62 2.386 . S
Sm41 O65 2.408 1_556 S
Sm41 O66 2.543 . S
Sm41 O67 2.450 . S
Sm41 O68 2.681 1_556 S
Sm41 O69 2.464 . S
Sm41 O70 2.396 . S
C42 Sm40 2.846 . S
C42 C43 1.506 . S
C42 O60 1.261 . S
C42 O61 1.242 . S
C43 C42 1.506 . S
C43 C44 1.358 . S
C43 C48 1.382 . S
C44 C43 1.358 . S
C44 C45 1.385 . S
C44 H72 0.930 . S
C45 C44 1.385 . S
C45 C46 1.395 . S
C45 H73 0.929 . S
C46 C45 1.395 . S
C46 C47 1.335 . S
C47 C46 1.335 . S
C47 C48 1.398 . S
C47 H74 0.930 . S
C48 C43 1.382 . S
C48 C47 1.398 . S
C48 H75 0.929 . S
C49 O62 1.271 1_554 S
C49 O63 1.251 . S
C50 O64 1.252 . S
C50 O65 1.272 . S
C51 Sm41 2.846 . S
C51 C52 1.506 . S
C51 O66 1.261 . S
C51 O67 1.242 . S
C52 C51 1.506 . S
C52 C53 1.358 . S
C52 C57 1.382 . S
C53 C52 1.358 . S
C53 C54 1.385 . S
C53 H76 0.930 . S
C54 C53 1.385 . S
C54 C55 1.395 . S
C54 H77 0.929 . S
C55 C54 1.395 . S
C55 C56 1.335 . S
C56 C55 1.335 . S
C56 C57 1.398 . S
C56 H78 0.930 . S
C57 C52 1.382 . S
C57 C56 1.398 . S
C57 H79 0.929 . S
C58 O68 1.271 1_556 S
C58 O69 1.251 . S
C59 O70 1.252 . S
C59 O71 1.272 . S
O60 Sm40 2.543 . S
O60 C42 1.261 . S
O61 Sm40 2.450 . S
O61 C42 1.242 . S
O62 Sm40 2.681 1_556 S
O62 Sm41 2.386 . S
O62 C49 1.271 1_556 S
O63 Sm40 2.464 . S
O63 C49 1.251 . S
O64 Sm40 2.396 . S
O64 C50 1.252 . S
O65 Sm41 2.408 1_554 S
O65 C50 1.272 . S
O66 Sm41 2.543 . S
O66 C51 1.261 . S
O67 Sm41 2.450 . S
O67 C51 1.242 . S
O68 Sm40 2.386 . S
O68 Sm41 2.681 1_554 S
O68 C58 1.271 1_554 S
O69 Sm41 2.464 . S
O69 C58 1.251 . S
O70 Sm41 2.396 . S
O70 C59 1.252 . S
O71 Sm40 2.408 1_556 S
O71 C59 1.272 . S
H72 C44 0.930 . S
H73 C45 0.929 . S
H74 C47 0.930 . S
H75 C48 0.929 . S
H76 C53 0.930 . S
H77 C54 0.929 . S
H78 C56 0.930 . S
H79 C57 0.929 . S
Sm80 C82 2.846 . S
Sm80 O100 2.543 . S
Sm80 O101 2.450 . S
Sm80 O102 2.681 . S
Sm80 O103 2.464 . S
Sm80 O104 2.396 . S
Sm80 O108 2.386 . S
Sm80 O111 2.408 . S
Sm81 C91 2.846 . S
Sm81 O102 2.386 . S
Sm81 O105 2.408 . S
Sm81 O106 2.543 . S
Sm81 O107 2.450 . S
Sm81 O108 2.681 . S
Sm81 O109 2.464 . S
Sm81 O110 2.396 . S
C82 Sm80 2.846 . S
C82 C83 1.506 . S
C82 O100 1.261 . S
C82 O101 1.242 . S
C83 C82 1.506 . S
C83 C84 1.358 . S
C83 C88 1.382 . S
C84 C83 1.358 . S
C84 C85 1.385 . S
C84 H112 0.930 . S
C85 C84 1.385 . S
C85 C86 1.395 . S
C85 H113 0.929 . S
C86 C85 1.395 . S
C86 C87 1.335 . S
C87 C86 1.335 . S
C87 C88 1.398 . S
C87 H114 0.930 . S
C88 C83 1.382 . S
C88 C87 1.398 . S
C88 H115 0.929 . S
C89 O102 1.271 . S
C89 O103 1.251 . S
C90 O104 1.252 . S
C90 O105 1.272 . S
C91 Sm81 2.846 . S
C91 C92 1.506 . S
C91 O106 1.261 . S
C91 O107 1.242 . S
C92 C91 1.506 . S
C92 C93 1.358 . S
C92 C97 1.382 . S
C93 C92 1.358 . S
C93 C94 1.385 . S
C93 H116 0.930 . S
C94 C93 1.385 . S
C94 C95 1.395 . S
C94 H117 0.929 . S
C95 C94 1.395 . S
C95 C96 1.335 . S
C96 C95 1.335 . S
C96 C97 1.398 . S
C96 H118 0.930 . S
C97 C92 1.382 . S
C97 C96 1.398 . S
C97 H119 0.929 . S
C98 O108 1.271 . S
C98 O109 1.251 . S
C99 O110 1.252 . S
C99 O111 1.272 . S
O100 Sm80 2.543 . S
O100 C82 1.261 . S
O101 Sm80 2.450 . S
O101 C82 1.242 . S
O102 Sm80 2.681 . S
O102 Sm81 2.386 . S
O102 C89 1.271 . S
O103 Sm80 2.464 . S
O103 C89 1.251 . S
O104 Sm80 2.396 . S
O104 C90 1.252 . S
O105 Sm81 2.408 . S
O105 C90 1.272 . S
O106 Sm81 2.543 . S
O106 C91 1.261 . S
O107 Sm81 2.450 . S
O107 C91 1.242 . S
O108 Sm80 2.386 . S
O108 Sm81 2.681 . S
O108 C98 1.271 . S
O109 Sm81 2.464 . S
O109 C98 1.251 . S
O110 Sm81 2.396 . S
O110 C99 1.252 . S
O111 Sm80 2.408 . S
O111 C99 1.272 . S
H112 C84 0.930 . S
H113 C85 0.929 . S
H114 C87 0.930 . S
H115 C88 0.929 . S
H116 C93 0.930 . S
H117 C94 0.929 . S
H118 C96 0.930 . S
H119 C97 0.929 . S
Sm120 C122 2.846 . S
Sm120 O140 2.543 . S
Sm120 O141 2.450 . S
Sm120 O142 2.681 . S
Sm120 O143 2.464 . S
Sm120 O144 2.396 . S
Sm120 O148 2.386 . S
Sm120 O151 2.408 . S
Sm121 C131 2.846 . S
Sm121 O142 2.386 . S
Sm121 O145 2.408 . S
Sm121 O146 2.543 . S
Sm121 O147 2.450 . S
Sm121 O148 2.681 . S
Sm121 O149 2.464 . S
Sm121 O150 2.396 . S
C122 Sm120 2.846 . S
C122 C123 1.506 . S
C122 O140 1.261 . S
C122 O141 1.242 . S
C123 C122 1.506 . S
C123 C124 1.358 . S
C123 C128 1.382 . S
C124 C123 1.358 . S
C124 C125 1.385 . S
C124 H152 0.930 . S
C125 C124 1.385 . S
C125 C126 1.395 . S
C125 H153 0.929 . S
C126 C125 1.395 . S
C126 C127 1.335 . S
C127 C126 1.335 . S
C127 C128 1.398 . S
C127 H154 0.930 . S
C128 C123 1.382 . S
C128 C127 1.398 . S
C128 H155 0.929 . S
C129 O142 1.271 . S
C129 O143 1.251 . S
C130 O144 1.252 . S
C130 O145 1.272 . S
C131 Sm121 2.846 . S
C131 C132 1.506 . S
C131 O146 1.261 . S
C131 O147 1.242 . S
C132 C131 1.506 . S
C132 C133 1.358 . S
C132 C137 1.382 . S
C133 C132 1.358 . S
C133 C134 1.385 . S
C133 H156 0.930 . S
C134 C133 1.385 . S
C134 C135 1.395 . S
C134 H157 0.929 . S
C135 C134 1.395 . S
C135 C136 1.335 . S
C136 C135 1.335 . S
C136 C137 1.398 . S
C136 H158 0.930 . S
C137 C132 1.382 . S
C137 C136 1.398 . S
C137 H159 0.929 . S
C138 O148 1.271 . S
C138 O149 1.251 . S
C139 O150 1.252 . S
C139 O151 1.272 . S
O140 Sm120 2.543 . S
O140 C122 1.261 . S
O141 Sm120 2.450 . S
O141 C122 1.242 . S
O142 Sm120 2.681 . S
O142 Sm121 2.386 . S
O142 C129 1.271 . S
O143 Sm120 2.464 . S
O143 C129 1.251 . S
O144 Sm120 2.396 . S
O144 C130 1.252 . S
O145 Sm121 2.408 . S
O145 C130 1.272 . S
O146 Sm121 2.543 . S
O146 C131 1.261 . S
O147 Sm121 2.450 . S
O147 C131 1.242 . S
O148 Sm120 2.386 . S
O148 Sm121 2.681 . S
O148 C138 1.271 . S
O149 Sm121 2.464 . S
O149 C138 1.251 . S
O150 Sm121 2.396 . S
O150 C139 1.252 . S
O151 Sm120 2.408 . S
O151 C139 1.272 . S
H152 C124 0.930 . S
H153 C125 0.929 . S
H154 C127 0.930 . S
H155 C128 0.929 . S
H156 C133 0.930 . S
H157 C134 0.929 . S
H158 C136 0.930 . S
H159 C137 0.929 . S
H160 C168 0.929 . S
H161 C170 0.930 . S
H162 C172 0.930 . S
H163 C175 0.929 . S
H164 C178 0.930 . S
H165 C180 0.960 . S
H166 C180 0.960 . S
H167 C180 0.960 . S
C168 H160 0.929 . S
C168 C169 1.377 1_554 S
C168 C170 1.384 . S
C169 C168 1.377 1_556 S
C169 C175 1.390 . S
C170 H161 0.930 . S
C170 C168 1.384 . S
C170 C171 1.372 1_554 S
C171 C170 1.372 1_556 S
C171 C172 1.404 . S
C171 C176 1.486 1_556 S
C172 H162 0.930 . S
C172 C171 1.404 . S
C172 C175 1.386 . S
H173 C189 0.930 . S
H174 C190 0.931 . S
C175 H163 0.929 . S
C175 C169 1.390 . S
C175 C172 1.386 . S
C176 C171 1.486 1_554 S
C176 C178 1.395 . S
C176 C179 1.403 1_554 S
H177 C183 0.930 . S
C178 H164 0.930 . S
C178 C176 1.395 . S
C178 C181 1.403 . S
C179 C176 1.403 1_556 S
C179 C180 1.524 . S
C179 C183 1.400 . S
C180 H165 0.960 . S
C180 H166 0.960 . S
C180 H167 0.960 . S
C180 C179 1.524 . S
C181 C178 1.403 . S
C181 C182 1.392 . S
C181 C185 1.495 . S
C182 C181 1.392 . S
C182 C183 1.385 1_554 S
C182 C184 1.478 . S
C183 H177 0.930 . S
C183 C179 1.400 . S
C183 C182 1.385 1_556 S
C184 C182 1.478 . S
C184 C186 1.381 . S
C184 C190 1.383 1_554 S
C185 C181 1.495 . S
C185 H191 0.959 . S
C185 H192 0.961 . S
C185 H193 0.960 . S
C186 C184 1.381 . S
C186 C187 1.394 . S
C186 H194 0.930 . S
C187 C186 1.394 . S
C187 C188 1.383 . S
C187 H195 0.929 . S
C188 C187 1.383 . S
C188 C189 1.377 1_554 S
C189 H173 0.930 . S
C189 C188 1.377 1_556 S
C189 C190 1.379 . S
C190 H174 0.931 . S
C190 C184 1.383 1_556 S
C190 C189 1.379 . S
H191 C185 0.959 . S
H192 C185 0.961 . S
H193 C185 0.960 . S
H194 C186 0.930 . S
H195 C187 0.929 . S
H196 C204 0.929 . S
H197 C206 0.930 . S
H198 C208 0.930 . S
H199 C211 0.929 . S
H200 C214 0.930 . S
H201 C216 0.960 . S
H202 C216 0.960 . S
H203 C216 0.960 . S
C204 H196 0.929 . S
C204 C205 1.377 . S
C204 C206 1.384 . S
C205 C204 1.377 . S
C205 C211 1.390 . S
C206 H197 0.930 . S
C206 C204 1.384 . S
C206 C207 1.372 . S
C207 C206 1.372 . S
C207 C208 1.400 . S
C207 C212 1.490 . S
C208 H198 0.930 . S
C208 C207 1.400 . S
C208 C211 1.386 . S
H209 C225 0.930 . S
H210 C226 0.931 . S
C211 H199 0.929 . S
C211 C205 1.390 . S
C211 C208 1.386 . S
C212 C207 1.490 . S
C212 C214 1.395 . S
C212 C215 1.403 . S
H213 C219 0.930 . S
C214 H200 0.930 . S
C214 C212 1.395 . S
C214 C217 1.403 . S
C215 C212 1.403 . S
C215 C216 1.524 . S
C215 C219 1.400 . S
C216 H201 0.960 . S
C216 H202 0.960 . S
C216 H203 0.960 . S
C216 C215 1.524 . S
C217 C214 1.403 . S
C217 C218 1.392 . S
C217 C221 1.495 . S
C218 C217 1.392 . S
C218 C219 1.385 . S
C218 C220 1.478 . S
C219 H213 0.930 . S
C219 C215 1.400 . S
C219 C218 1.385 . S
C220 C218 1.478 . S
C220 C222 1.381 . S
C220 C226 1.383 . S
C221 C217 1.495 . S
C221 H227 0.959 . S
C221 H228 0.961 . S
C221 H229 0.960 . S
C222 C220 1.381 . S
C222 C223 1.394 . S
C222 H230 0.930 . S
C223 C222 1.394 . S
C223 C224 1.383 . S
C223 H231 0.929 . S
C224 C223 1.383 . S
C224 C225 1.377 . S
C225 H209 0.930 . S
C225 C224 1.377 . S
C225 C226 1.379 . S
C226 H210 0.931 . S
C226 C220 1.383 . S
C226 C225 1.379 . S
H227 C221 0.959 . S
H228 C221 0.961 . S
H229 C221 0.960 . S
H230 C222 0.930 . S
H231 C223 0.929 . S
H232 C240 0.929 . S
H233 C242 0.930 . S
H234 C244 0.930 . S
H235 C247 0.929 . S
H236 C250 0.930 . S
H237 C252 0.960 1_565 S
H238 C252 0.960 . S
H239 C252 0.960 . S
C240 H232 0.929 . S
C240 C241 1.377 1_554 S
C240 C242 1.384 . S
C241 C240 1.377 1_556 S
C241 C247 1.390 . S
C242 H233 0.930 . S
C242 C240 1.384 . S
C242 C243 1.364 1_554 S
C243 C242 1.364 1_556 S
C243 C244 1.418 . S
C243 C248 1.493 . S
C244 H234 0.930 . S
C244 C243 1.418 . S
C244 C247 1.386 . S
H245 C261 0.930 . S
H246 C262 0.931 . S
C247 H235 0.929 . S
C247 C241 1.390 . S
C247 C244 1.386 . S
C248 C243 1.493 . S
C248 C250 1.403 1_455 S
C248 C251 1.383 1_556 S
H249 C255 0.930 . S
C250 H236 0.930 . S
C250 C248 1.403 1_655 S
C250 C253 1.403 1_545 S
C251 C248 1.383 1_554 S
C251 C252 1.524 . S
C251 C255 1.400 1_545 S
C252 H237 0.960 1_545 S
C252 H238 0.960 . S
C252 H239 0.960 . S
C252 C251 1.524 . S
C253 C250 1.403 1_565 S
C253 C254 1.392 . S
C253 C257 1.495 . S
C254 C253 1.392 . S
C254 C255 1.385 1_656 S
C254 C256 1.478 . S
C255 H249 0.930 . S
C255 C251 1.400 1_565 S
C255 C254 1.385 1_454 S
C256 C254 1.478 . S
C256 C258 1.381 1_556 S
C256 C262 1.383 . S
C257 C253 1.495 . S
C257 H263 0.959 1_565 S
C257 H264 0.961 . S
C257 H265 0.960 . S
C258 C256 1.381 1_554 S
C258 C259 1.394 . S
C258 H266 0.930 . S
C259 C258 1.394 . S
C259 C260 1.383 . S
C259 H267 0.929 . S
C260 C259 1.383 . S
C260 C261 1.377 1_554 S
C261 H245 0.930 . S
C261 C260 1.377 1_556 S
C261 C262 1.379 . S
C262 H246 0.931 . S
C262 C256 1.383 . S
C262 C261 1.379 . S
H263 C257 0.959 1_545 S
H264 C257 0.961 . S
H265 C257 0.960 . S
H266 C258 0.930 . S
H267 C259 0.929 . S
H268 C276 0.929 . S
H269 C278 0.930 . S
H270 C280 0.930 1_455 S
H271 C283 0.929 . S
H272 C286 0.930 . S
H273 C288 0.960 . S
H274 C288 0.960 . S
H275 C288 0.960 . S
C276 H268 0.929 . S
C276 C277 1.377 . S
C276 C278 1.384 . S
C277 C276 1.377 . S
C277 C283 1.390 . S
C278 H269 0.930 . S
C278 C276 1.384 . S
C278 C279 1.372 . S
C279 C278 1.372 . S
C279 C280 1.400 . S
C279 C284 1.490 . S
C280 H270 0.930 1_655 S
C280 C279 1.400 . S
C280 C283 1.386 . S
H281 C297 0.930 . S
H282 C298 0.931 . S
C283 H271 0.929 . S
C283 C277 1.390 . S
C283 C280 1.386 . S
C284 C279 1.490 . S
C284 C286 1.395 . S
C284 C287 1.403 1_655 S
H285 C291 0.930 . S
C286 H272 0.930 . S
C286 C284 1.395 . S
C286 C289 1.403 1_545 S
C287 C284 1.403 1_455 S
C287 C288 1.524 . S
C287 C291 1.400 1_545 S
C288 H273 0.960 . S
C288 H274 0.960 . S
C288 H275 0.960 . S
C288 C287 1.524 . S
C289 C286 1.403 1_565 S
C289 C290 1.392 1_655 S
C289 C293 1.495 . S
C290 C289 1.392 1_455 S
C290 C291 1.385 . S
C290 C292 1.478 . S
C291 H285 0.930 . S
C291 C287 1.400 1_565 S
C291 C290 1.385 . S
C292 C290 1.478 . S
C292 C294 1.381 . S
C292 C298 1.383 . S
C293 C289 1.495 . S
C293 H299 0.959 . S
C293 H300 0.961 . S
C293 H301 0.960 . S
C294 C292 1.381 . S
C294 C295 1.394 . S
C294 H302 0.930 1_455 S
C295 C294 1.394 . S
C295 C296 1.383 . S
C295 H303 0.929 . S
C296 C295 1.383 . S
C296 C297 1.377 . S
C297 H281 0.930 . S
C297 C296 1.377 . S
C297 C298 1.379 . S
C298 H282 0.931 . S
C298 C292 1.383 . S
C298 C297 1.379 . S
H299 C293 0.959 . S
H300 C293 0.961 . S
H301 C293 0.960 . S
H302 C294 0.930 1_655 S
H303 C295 0.929 . S
H304 C312 0.929 . S
H305 C314 0.930 . S
H306 C316 0.930 . S
H307 C319 0.929 . S
H308 C322 0.930 . S
H309 C324 0.960 . S
H310 C324 0.960 . S
H311 C324 0.960 . S
C312 H304 0.929 . S
C312 C313 1.377 . S
C312 C314 1.384 . S
C313 C312 1.377 . S
C313 C319 1.390 . S
C314 H305 0.930 . S
C314 C312 1.384 . S
C314 C315 1.372 . S
C315 C314 1.372 . S
C315 C316 1.400 . S
C315 C320 1.490 . S
C316 H306 0.930 . S
C316 C315 1.400 . S
C316 C319 1.386 . S
H317 C333 0.930 . S
H318 C334 0.931 . S
C319 H307 0.929 . S
C319 C313 1.390 . S
C319 C316 1.386 . S
C320 C315 1.490 . S
C320 C322 1.395 . S
C320 C323 1.403 . S
H321 C327 0.930 . S
C322 H308 0.930 . S
C322 C320 1.395 . S
C322 C325 1.403 . S
C323 C320 1.403 . S
C323 C324 1.524 . S
C323 C327 1.400 . S
C324 H309 0.960 . S
C324 H310 0.960 . S
C324 H311 0.960 . S
C324 C323 1.524 . S
C325 C322 1.403 . S
C325 C326 1.392 . S
C325 C329 1.495 . S
C326 C325 1.392 . S
C326 C327 1.385 . S
C326 C328 1.478 . S
C327 H321 0.930 . S
C327 C323 1.400 . S
C327 C326 1.385 . S
C328 C326 1.478 . S
C328 C330 1.381 . S
C328 C334 1.383 . S
C329 C325 1.495 . S
C329 H335 0.959 . S
C329 H336 0.961 . S
C329 H337 0.960 . S
C330 C328 1.381 . S
C330 C331 1.394 . S
C330 H338 0.930 . S
C331 C330 1.394 . S
C331 C332 1.383 . S
C331 H339 0.929 . S
C332 C331 1.383 . S
C332 C333 1.377 . S
C333 H317 0.930 . S
C333 C332 1.377 . S
C333 C334 1.379 . S
C334 H318 0.931 . S
C334 C328 1.383 . S
C334 C333 1.379 . S
H335 C329 0.959 . S
H336 C329 0.961 . S
H337 C329 0.960 . S
H338 C330 0.930 . S
H339 C331 0.929 . S
H340 C348 0.929 . S
H341 C350 0.930 . S
H342 C352 0.930 . S
H343 C355 0.929 . S
H344 C358 0.930 . S
H345 C360 0.960 . S
H346 C360 0.960 . S
H347 C360 0.960 . S
C348 H340 0.929 . S
C348 C349 1.377 . S
C348 C350 1.384 . S
C349 C348 1.377 . S
C349 C355 1.390 . S
C350 H341 0.930 . S
C350 C348 1.384 . S
C350 C351 1.372 . S
C351 C350 1.372 . S
C351 C352 1.400 . S
C351 C356 1.490 . S
C352 H342 0.930 . S
C352 C351 1.400 . S
C352 C355 1.386 . S
H353 C369 0.930 . S
H354 C370 0.931 . S
C355 H343 0.929 . S
C355 C349 1.390 . S
C355 C352 1.386 . S
C356 C351 1.490 . S
C356 C358 1.395 . S
C356 C359 1.403 . S
H357 C363 0.930 . S
C358 H344 0.930 . S
C358 C356 1.395 . S
C358 C361 1.403 . S
C359 C356 1.403 . S
C359 C360 1.524 . S
C359 C363 1.400 . S
C360 H345 0.960 . S
C360 H346 0.960 . S
C360 H347 0.960 . S
C360 C359 1.524 . S
C361 C358 1.403 . S
C361 C362 1.392 . S
C361 C365 1.495 . S
C362 C361 1.392 . S
C362 C363 1.385 . S
C362 C364 1.478 . S
C363 H357 0.930 . S
C363 C359 1.400 . S
C363 C362 1.385 . S
C364 C362 1.478 . S
C364 C366 1.381 . S
C364 C370 1.383 . S
C365 C361 1.495 . S
C365 H371 0.959 . S
C365 H372 0.961 . S
C365 H373 0.960 . S
C366 C364 1.381 . S
C366 C367 1.394 . S
C366 H374 0.930 . S
C367 C366 1.394 . S
C367 C368 1.383 . S
C367 H375 0.929 . S
C368 C367 1.383 . S
C368 C369 1.377 . S
C369 H353 0.930 . S
C369 C368 1.377 . S
C369 C370 1.379 . S
C370 H354 0.931 . S
C370 C364 1.383 . S
C370 C369 1.379 . S
H371 C365 0.959 . S
H372 C365 0.961 . S
H373 C365 0.960 . S
H374 C366 0.930 . S
H375 C367 0.929 . S
H376 C384 0.929 . S
H377 C386 0.930 . S
H378 C388 0.930 . S
H379 C391 0.929 . S
H380 C394 0.930 . S
H381 C396 0.960 . S
H382 C396 0.960 . S
H383 C396 0.960 . S
C384 H376 0.929 . S
C384 C385 1.377 . S
C384 C386 1.384 . S
C385 C384 1.377 . S
C385 C391 1.390 . S
C386 H377 0.930 . S
C386 C384 1.384 . S
C386 C387 1.372 . S
C387 C386 1.372 . S
C387 C388 1.400 . S
C387 C392 1.490 . S
C388 H378 0.930 . S
C388 C387 1.400 . S
C388 C391 1.386 . S
H389 C405 0.930 . S
H390 C406 0.931 . S
C391 H379 0.929 . S
C391 C385 1.390 . S
C391 C388 1.386 . S
C392 C387 1.490 . S
C392 C394 1.395 . S
C392 C395 1.403 . S
H393 C399 0.930 . S
C394 H380 0.930 . S
C394 C392 1.395 . S
C394 C397 1.403 . S
C395 C392 1.403 . S
C395 C396 1.524 . S
C395 C399 1.400 . S
C396 H381 0.960 . S
C396 H382 0.960 . S
C396 H383 0.960 . S
C396 C395 1.524 . S
C397 C394 1.403 . S
C397 C398 1.392 . S
C397 C401 1.495 . S
C398 C397 1.392 . S
C398 C399 1.385 . S
C398 C400 1.478 . S
C399 H393 0.930 . S
C399 C395 1.400 . S
C399 C398 1.385 . S
C400 C398 1.478 . S
C400 C402 1.381 . S
C400 C406 1.383 . S
C401 C397 1.495 . S
C401 H407 0.959 . S
C401 H408 0.961 . S
C401 H409 0.960 . S
C402 C400 1.381 . S
C402 C403 1.394 . S
C402 H410 0.930 . S
C403 C402 1.394 . S
C403 C404 1.383 . S
C403 H411 0.929 . S
C404 C403 1.383 . S
C404 C405 1.377 . S
C405 H389 0.930 . S
C405 C404 1.377 . S
C405 C406 1.379 . S
C406 H390 0.931 . S
C406 C400 1.383 . S
C406 C405 1.379 . S
H407 C401 0.959 . S
H408 C401 0.961 . S
H409 C401 0.960 . S
H410 C402 0.930 . S
H411 C403 0.929 . S
H412 C420 0.929 . S
H413 C422 0.930 . S
H414 C424 0.930 . S
H415 C427 0.929 . S
H416 C430 0.930 . S
H417 C432 0.960 . S
H418 C432 0.960 . S
H419 C432 0.960 . S
C420 H412 0.929 . S
C420 C421 1.377 . S
C420 C422 1.384 . S
C421 C420 1.377 . S
C421 C427 1.390 . S
C422 H413 0.930 . S
C422 C420 1.384 . S
C422 C423 1.372 . S
C423 C422 1.372 . S
C423 C424 1.400 . S
C423 C428 1.490 . S
C424 H414 0.930 . S
C424 C423 1.400 . S
C424 C427 1.386 . S
H425 C441 0.930 . S
H426 C442 0.931 . S
C427 H415 0.929 . S
C427 C421 1.390 . S
C427 C424 1.386 . S
C428 C423 1.490 . S
C428 C430 1.395 . S
C428 C431 1.403 . S
H429 C435 0.930 . S
C430 H416 0.930 . S
C430 C428 1.395 . S
C430 C433 1.403 . S
C431 C428 1.403 . S
C431 C432 1.524 . S
C431 C435 1.400 . S
C432 H417 0.960 . S
C432 H418 0.960 . S
C432 H419 0.960 . S
C432 C431 1.524 . S
C433 C430 1.403 . S
C433 C434 1.392 . S
C433 C437 1.495 . S
C434 C433 1.392 . S
C434 C435 1.385 . S
C434 C436 1.478 . S
C435 H429 0.930 . S
C435 C431 1.400 . S
C435 C434 1.385 . S
C436 C434 1.478 . S
C436 C438 1.381 . S
C436 C442 1.383 . S
C437 C433 1.495 . S
C437 H443 0.959 . S
C437 H444 0.961 . S
C437 H445 0.960 . S
C438 C436 1.381 . S
C438 C439 1.394 . S
C438 H446 0.930 . S
C439 C438 1.394 . S
C439 C440 1.383 . S
C439 H447 0.929 . S
C440 C439 1.383 . S
C440 C441 1.377 . S
C441 H425 0.930 . S
C441 C440 1.377 . S
C441 C442 1.379 . S
C442 H426 0.931 . S
C442 C436 1.383 . S
C442 C441 1.379 . S
H443 C437 0.959 . S
H444 C437 0.961 . S
H445 C437 0.960 . S
H446 C438 0.930 . S
H447 C439 0.929 . S
H448 C456 0.929 . S
H449 C458 0.930 1_455 S
H450 C460 0.930 . S
H451 C463 0.929 . S
H452 C466 0.930 . S
H453 C468 0.960 . S
H454 C468 0.960 . S
H455 C468 0.960 . S
C456 H448 0.929 . S
C456 C457 1.377 . S
C456 C458 1.384 . S
C457 C456 1.377 . S
C457 C463 1.390 . S
C458 H449 0.930 1_655 S
C458 C456 1.384 . S
C458 C459 1.372 . S
C459 C458 1.372 . S
C459 C460 1.400 . S
C459 C464 1.490 . S
C460 H450 0.930 . S
C460 C459 1.400 . S
C460 C463 1.386 . S
H461 C477 0.930 . S
H462 C478 0.931 1_655 S
C463 H451 0.929 . S
C463 C457 1.390 . S
C463 C460 1.386 . S
C464 C459 1.490 . S
C464 C466 1.395 1_655 S
C464 C467 1.403 . S
H465 C471 0.930 . S
C466 H452 0.930 . S
C466 C464 1.395 1_455 S
C466 C469 1.403 . S
C467 C464 1.403 . S
C467 C468 1.524 . S
C467 C471 1.400 . S
C468 H453 0.960 . S
C468 H454 0.960 . S
C468 H455 0.960 . S
C468 C467 1.524 . S
C469 C466 1.403 . S
C469 C470 1.392 . S
C469 C473 1.495 . S
C470 C469 1.392 . S
C470 C471 1.385 1_455 S
C470 C472 1.478 . S
C471 H465 0.930 . S
C471 C467 1.400 . S
C471 C470 1.385 1_655 S
C472 C470 1.478 . S
C472 C474 1.381 . S
C472 C478 1.383 . S
C473 C469 1.495 . S
C473 H479 0.959 . S
C473 H480 0.961 . S
C473 H481 0.960 . S
C474 C472 1.381 . S
C474 C475 1.394 . S
C474 H482 0.930 . S
C475 C474 1.394 . S
C475 C476 1.383 . S
C475 H483 0.929 . S
C476 C475 1.383 . S
C476 C477 1.377 . S
C477 H461 0.930 . S
C477 C476 1.377 . S
C477 C478 1.379 . S
C478 H462 0.931 1_455 S
C478 C472 1.383 . S
C478 C477 1.379 . S
H479 C473 0.959 . S
H480 C473 0.961 . S
H481 C473 0.960 . S
H482 C474 0.930 . S
H483 C475 0.929 . S
H484 C492 0.929 . S
H485 C494 0.930 . S
H486 C496 0.930 . S
H487 C499 0.929 . S
H488 C502 0.930 . S
H489 C504 0.960 . S
H490 C504 0.960 . S
H491 C504 0.960 . S
C492 H484 0.929 . S
C492 C493 1.377 . S
C492 C494 1.384 . S
C493 C492 1.377 . S
C493 C499 1.390 1_655 S
C494 H485 0.930 . S
C494 C492 1.384 . S
C494 C495 1.372 . S
C495 C494 1.372 . S
C495 C496 1.400 1_655 S
C495 C500 1.490 . S
C496 H486 0.930 . S
C496 C495 1.400 1_455 S
C496 C499 1.386 . S
H497 C513 0.930 . S
H498 C514 0.931 . S
C499 H487 0.929 . S
C499 C493 1.390 1_455 S
C499 C496 1.386 . S
C500 C495 1.490 . S
C500 C502 1.395 . S
C500 C503 1.403 1_655 S
H501 C507 0.930 . S
C502 H488 0.930 . S
C502 C500 1.395 . S
C502 C505 1.403 . S
C503 C500 1.403 1_455 S
C503 C504 1.524 . S
C503 C507 1.400 . S
C504 H489 0.960 . S
C504 H490 0.960 . S
C504 H491 0.960 . S
C504 C503 1.524 . S
C505 C502 1.403 . S
C505 C506 1.392 . S
C505 C509 1.495 . S
C506 C505 1.392 . S
C506 C507 1.385 1_655 S
C506 C508 1.478 1_655 S
C507 H501 0.930 . S
C507 C503 1.400 . S
C507 C506 1.385 1_455 S
C508 C506 1.478 1_455 S
C508 C510 1.381 1_455 S
C508 C514 1.383 . S
C509 C505 1.495 . S
C509 H515 0.959 . S
C509 H516 0.961 . S
C509 H517 0.960 . S
C510 C508 1.381 1_655 S
C510 C511 1.394 . S
C510 H518 0.930 . S
C511 C510 1.394 . S
C511 C512 1.383 1_655 S
C511 H519 0.929 . S
C512 C511 1.383 1_455 S
C512 C513 1.377 . S
C513 H497 0.930 . S
C513 C512 1.377 . S
C513 C514 1.379 . S
C514 H498 0.931 . S
C514 C508 1.383 . S
C514 C513 1.379 . S
H515 C509 0.959 . S
H516 C509 0.961 . S
H517 C509 0.960 . S
H518 C510 0.930 . S
H519 C511 0.929 . S
H520 C528 0.929 . S
H521 C530 0.930 1_455 S
H522 C532 0.930 . S
H523 C535 0.929 . S
H524 C538 0.930 . S
H525 C540 0.960 . S
H526 C540 0.960 . S
H527 C540 0.960 . S
C528 H520 0.929 . S
C528 C529 1.377 . S
C528 C530 1.384 . S
C529 C528 1.377 . S
C529 C535 1.390 . S
C530 H521 0.930 1_655 S
C530 C528 1.384 . S
C530 C531 1.372 . S
C531 C530 1.372 . S
C531 C532 1.400 . S
C531 C536 1.490 . S
C532 H522 0.930 . S
C532 C531 1.400 . S
C532 C535 1.386 . S
H533 C549 0.930 . S
H534 C550 0.931 1_655 S
C535 H523 0.929 . S
C535 C529 1.390 . S
C535 C532 1.386 . S
C536 C531 1.490 . S
C536 C538 1.395 1_655 S
C536 C539 1.403 . S
H537 C543 0.930 . S
C538 H524 0.930 . S
C538 C536 1.395 1_455 S
C538 C541 1.403 . S
C539 C536 1.403 . S
C539 C540 1.524 . S
C539 C543 1.400 . S
C540 H525 0.960 . S
C540 H526 0.960 . S
C540 H527 0.960 . S
C540 C539 1.524 . S
C541 C538 1.403 . S
C541 C542 1.392 . S
C541 C545 1.495 . S
C542 C541 1.392 . S
C542 C543 1.385 1_455 S
C542 C544 1.478 . S
C543 H537 0.930 . S
C543 C539 1.400 . S
C543 C542 1.385 1_655 S
C544 C542 1.478 . S
C544 C546 1.381 . S
C544 C550 1.383 . S
C545 C541 1.495 . S
C545 H551 0.959 . S
C545 H552 0.961 . S
C545 H553 0.960 . S
C546 C544 1.381 . S
C546 C547 1.394 . S
C546 H554 0.930 . S
C547 C546 1.394 . S
C547 C548 1.383 . S
C547 H555 0.929 . S
C548 C547 1.383 . S
C548 C549 1.377 . S
C549 H533 0.930 . S
C549 C548 1.377 . S
C549 C550 1.379 . S
C550 H534 0.931 1_455 S
C550 C544 1.383 . S
C550 C549 1.379 . S
H551 C545 0.959 . S
H552 C545 0.961 . S
H553 C545 0.960 . S
H554 C546 0.930 . S
H555 C547 0.929 . S
H556 C564 0.929 . S
H557 C566 0.930 . S
H558 C568 0.930 . S
H559 C571 0.929 . S
H560 C574 0.930 . S
H561 C576 0.960 . S
H562 C576 0.960 . S
H563 C576 0.960 . S
C564 H556 0.929 . S
C564 C565 1.377 . S
C564 C566 1.384 . S
C565 C564 1.377 . S
C565 C571 1.390 1_455 S
C566 H557 0.930 . S
C566 C564 1.384 . S
C566 C567 1.372 . S
C567 C566 1.372 . S
C567 C568 1.400 1_455 S
C567 C572 1.490 . S
C568 H558 0.930 . S
C568 C567 1.400 1_655 S
C568 C571 1.386 . S
H569 C585 0.930 . S
H570 C586 0.931 . S
C571 H559 0.929 . S
C571 C565 1.390 1_655 S
C571 C568 1.386 . S
C572 C567 1.490 . S
C572 C574 1.395 . S
C572 C575 1.403 1_455 S
H573 C579 0.930 . S
C574 H560 0.930 . S
C574 C572 1.395 . S
C574 C577 1.403 . S
C575 C572 1.403 1_655 S
C575 C576 1.524 . S
C575 C579 1.400 . S
C576 H561 0.960 . S
C576 H562 0.960 . S
C576 H563 0.960 . S
C576 C575 1.524 . S
C577 C574 1.403 . S
C577 C578 1.392 . S
C577 C581 1.495 . S
C578 C577 1.392 . S
C578 C579 1.385 1_455 S
C578 C580 1.478 1_455 S
C579 H573 0.930 . S
C579 C575 1.400 . S
C579 C578 1.385 1_655 S
C580 C578 1.478 1_655 S
C580 C582 1.381 1_655 S
C580 C586 1.383 . S
C581 C577 1.495 . S
C581 H587 0.959 . S
C581 H588 0.961 . S
C581 H589 0.960 . S
C582 C580 1.381 1_455 S
C582 C583 1.394 . S
C582 H590 0.930 . S
C583 C582 1.394 . S
C583 C584 1.383 1_455 S
C583 H591 0.929 . S
C584 C583 1.383 1_655 S
C584 C585 1.377 . S
C585 H569 0.930 . S
C585 C584 1.377 . S
C585 C586 1.379 . S
C586 H570 0.931 . S
C586 C580 1.383 . S
C586 C585 1.379 . S
H587 C581 0.959 . S
H588 C581 0.961 . S
H589 C581 0.960 . S
H590 C582 0.930 . S
H591 C583 0.929 . S
C169 C58 1.531 . S
C188 C9 1.529 . S
C205 C98 1.532 . S
C224 C129 1.517 . S
C241 C18 1.535 . S
C260 C49 1.521 . S
C277 C138 1.531 . S
C296 C89 1.532 . S
C313 C130 1.558 . S
C332 C10 1.566 . S
C349 C46 0.878 . S
C368 C86 0.889 . S
C385 C59 1.558 . S
C404 C99 1.560 . S
C421 C135 0.885 . S
C440 C15 0.899 . S
C457 C50 1.563 . S
C476 C90 1.548 . S
C493 C126 0.878 . S
C512 C6 0.900 . S
C529 C139 1.558 . S
C548 C19 1.566 . S
C565 C95 0.884 . S
C584 C55 0.883 . S
