# Generated by pormake.
# Topology uoy, (4)-cn, num edge types: 1
# Building blocks:
#     Node 0, Type 0, BuildingBlock: NAHDIM_clean_sbu_0, # of connection points: 4
#     Node 1, Type 0, BuildingBlock: NAHDIM_clean_sbu_0, # of connection points: 4
#     Node 2, Type 0, BuildingBlock: NAHDIM_clean_sbu_0, # of connection points: 4
#     Node 3, Type 0, BuildingBlock: NAHDIM_clean_sbu_0, # of connection points: 4
#     Node 4, Type 0, BuildingBlock: NAHDIM_clean_sbu_0, # of connection points: 4
#     Node 5, Type 0, BuildingBlock: NAHDIM_clean_sbu_0, # of connection points: 4
#     Node 6, Type 0, BuildingBlock: NAHDIM_clean_sbu_0, # of connection points: 4
#     Node 7, Type 0, BuildingBlock: NAHDIM_clean_sbu_0, # of connection points: 4
#     Node 8, Type 0, BuildingBlock: NAHDIM_clean_sbu_0, # of connection points: 4
#     Node 9, Type 0, BuildingBlock: NAHDIM_clean_sbu_0, # of connection points: 4
#     Node 10, Type 0, BuildingBlock: NAHDIM_clean_sbu_0, # of connection points: 4
#     Node 11, Type 0, BuildingBlock: NAHDIM_clean_sbu_0, # of connection points: 4
#     Node 12, Type 0, BuildingBlock: NAHDIM_clean_sbu_0, # of connection points: 4
#     Node 13, Type 0, BuildingBlock: NAHDIM_clean_sbu_0, # of connection points: 4
#     Node 14, Type 0, BuildingBlock: NAHDIM_clean_sbu_0, # of connection points: 4
#     Node 15, Type 0, BuildingBlock: NAHDIM_clean_sbu_0, # of connection points: 4
#     Edge 16, Type (0, 0), BuildingBlock: OJICUG_clean_linker_0, # of connection points: 2
#     Edge 17, Type (0, 0), BuildingBlock: OJICUG_clean_linker_0, # of connection points: 2
#     Edge 18, Type (0, 0), BuildingBlock: OJICUG_clean_linker_0, # of connection points: 2
#     Edge 19, Type (0, 0), BuildingBlock: OJICUG_clean_linker_0, # of connection points: 2
#     Edge 20, Type (0, 0), BuildingBlock: OJICUG_clean_linker_0, # of connection points: 2
#     Edge 21, Type (0, 0), BuildingBlock: OJICUG_clean_linker_0, # of connection points: 2
#     Edge 22, Type (0, 0), BuildingBlock: OJICUG_clean_linker_0, # of connection points: 2
#     Edge 23, Type (0, 0), BuildingBlock: OJICUG_clean_linker_0, # of connection points: 2
#     Edge 24, Type (0, 0), BuildingBlock: OJICUG_clean_linker_0, # of connection points: 2
#     Edge 25, Type (0, 0), BuildingBlock: OJICUG_clean_linker_0, # of connection points: 2
#     Edge 26, Type (0, 0), BuildingBlock: OJICUG_clean_linker_0, # of connection points: 2
#     Edge 27, Type (0, 0), BuildingBlock: OJICUG_clean_linker_0, # of connection points: 2
#     Edge 28, Type (0, 0), BuildingBlock: OJICUG_clean_linker_0, # of connection points: 2
#     Edge 29, Type (0, 0), BuildingBlock: OJICUG_clean_linker_0, # of connection points: 2
#     Edge 30, Type (0, 0), BuildingBlock: OJICUG_clean_linker_0, # of connection points: 2
#     Edge 31, Type (0, 0), BuildingBlock: OJICUG_clean_linker_0, # of connection points: 2
#     Edge 32, Type (0, 0), BuildingBlock: OJICUG_clean_linker_0, # of connection points: 2
#     Edge 33, Type (0, 0), BuildingBlock: OJICUG_clean_linker_0, # of connection points: 2
#     Edge 34, Type (0, 0), BuildingBlock: OJICUG_clean_linker_0, # of connection points: 2
#     Edge 35, Type (0, 0), BuildingBlock: OJICUG_clean_linker_0, # of connection points: 2
#     Edge 36, Type (0, 0), BuildingBlock: OJICUG_clean_linker_0, # of connection points: 2
#     Edge 37, Type (0, 0), BuildingBlock: OJICUG_clean_linker_0, # of connection points: 2
#     Edge 38, Type (0, 0), BuildingBlock: OJICUG_clean_linker_0, # of connection points: 2
#     Edge 39, Type (0, 0), BuildingBlock: OJICUG_clean_linker_0, # of connection points: 2
#     Edge 40, Type (0, 0), BuildingBlock: OJICUG_clean_linker_0, # of connection points: 2
#     Edge 41, Type (0, 0), BuildingBlock: OJICUG_clean_linker_0, # of connection points: 2
#     Edge 42, Type (0, 0), BuildingBlock: OJICUG_clean_linker_0, # of connection points: 2
#     Edge 43, Type (0, 0), BuildingBlock: OJICUG_clean_linker_0, # of connection points: 2
#     Edge 44, Type (0, 0), BuildingBlock: OJICUG_clean_linker_0, # of connection points: 2
#     Edge 45, Type (0, 0), BuildingBlock: OJICUG_clean_linker_0, # of connection points: 2
#     Edge 46, Type (0, 0), BuildingBlock: OJICUG_clean_linker_0, # of connection points: 2
#     Edge 47, Type (0, 0), BuildingBlock: OJICUG_clean_linker_0, # of connection points: 2
# Relax obj value: 0.103
# Max RMSD: 0.145
# Mean RMSD: 0.145
data_MOF--net-uoy--node1-NAHDIM_clean_sbu_0--edge1-OJICUG_clean_linker_0
_symmetry_space_group_name_H-M    P1
_symmetry_Int_Tables_number       1
_symmetry_cell_setting            triclinic
loop_
_symmetry_equiv_pos_as_xyz
'x, y, z'
_cell_length_a     20.700943
_cell_length_b     20.569263
_cell_length_c     74.850424
_cell_angle_alpha  90.442876
_cell_angle_beta   90.124269
_cell_angle_gamma 89.980402
loop_
_atom_site_label
_atom_site_type_symbol
_atom_site_fract_x
_atom_site_fract_y
_atom_site_fract_z
_atom_type_partial_charge
C0 C 0.13358 0.09685 0.17147 0.0
O1 O 0.13256 0.16013 0.17402 0.0
O2 O 0.25065 0.16248 0.20129 0.0
Zn3 Zn 0.26373 0.12565 0.17671 0.0
O4 O 0.26485 0.19474 0.15803 0.0
C5 C 0.38554 0.07408 0.18963 0.0
O6 O 0.36372 0.09589 0.20501 0.0
O7 O 0.18771 0.06754 0.17169 0.0
C8 C 0.31669 0.22388 0.15386 0.0
O9 O 0.36986 0.21163 0.16284 0.0
C10 C 0.24768 0.22134 0.20647 0.0
O11 O 0.25246 0.26826 0.19474 0.0
O12 O 0.34991 0.07838 0.1758 0.0
C13 C 0.90397 0.5969 0.4142 0.0
O14 O 0.84059 0.59582 0.41321 0.0
O15 O 0.82384 0.72705 0.43849 0.0
Zn16 Zn 0.87549 0.7302 0.41588 0.0
O17 O 0.81909 0.7289 0.39401 0.0
C18 C 0.95033 0.83443 0.43128 0.0
O19 O 0.94673 0.79776 0.44554 0.0
O20 O 0.93258 0.65148 0.4153 0.0
C21 C 0.80672 0.78061 0.38547 0.0
O22 O 0.82851 0.83649 0.39158 0.0
C23 C 0.78808 0.77481 0.44276 0.0
O24 O 0.78005 0.82205 0.43125 0.0
O25 O 0.92643 0.81375 0.41665 0.0
C26 C 0.38978 0.46295 0.67243 0.0
O27 O 0.39064 0.39939 0.67407 0.0
O28 O 0.27251 0.39844 0.70355 0.0
Zn29 Zn 0.26104 0.43345 0.67873 0.0
O30 O 0.26324 0.36371 0.65992 0.0
C31 C 0.12887 0.45919 0.68751 0.0
O32 O 0.14196 0.41532 0.69964 0.0
O33 O 0.33611 0.49267 0.67391 0.0
C34 C 0.21748 0.32382 0.65713 0.0
O35 O 0.1669 0.32455 0.66769 0.0
C36 C 0.27916 0.33917 0.7078 0.0
O37 O 0.28148 0.2944 0.69521 0.0
O38 O 0.17357 0.47761 0.67703 0.0
C39 C 0.48874 0.82319 0.92933 0.0
O40 O 0.47234 0.78184 0.94182 0.0
O41 O 0.64404 0.72682 0.93929 0.0
Zn42 Zn 0.58301 0.72317 0.91836 0.0
O43 O 0.63559 0.71964 0.89592 0.0
C44 C 0.529 0.60892 0.93507 0.0
O45 O 0.55271 0.63748 0.9494 0.0
O46 O 0.531 0.80666 0.91787 0.0
C47 C 0.65362 0.66611 0.88897 0.0
O48 O 0.63787 0.61127 0.89671 0.0
C49 C 0.65477 0.77644 0.94908 0.0
O50 O 0.62779 0.83227 0.94509 0.0
O51 O 0.53135 0.63871 0.92022 0.0
C52 C 0.17263 0.51545 0.04388 0.0
O53 O 0.21263 0.53089 0.03099 0.0
O54 O 0.27052 0.3582 0.03519 0.0
Zn55 Zn 0.27377 0.42288 0.05552 0.0
O56 O 0.27629 0.37421 0.07868 0.0
C57 C 0.38927 0.47271 0.03843 0.0
O58 O 0.36247 0.44531 0.02435 0.0
O59 O 0.19045 0.47485 0.05561 0.0
C60 C 0.32563 0.37244 0.0888 0.0
O61 O 0.37879 0.40225 0.08394 0.0
C62 C 0.22148 0.3462 0.02545 0.0
O63 O 0.16588 0.37373 0.02925 0.0
O64 O 0.3579 0.47439 0.05306 0.0
C65 C 0.55279 0.58084 0.30328 0.0
O66 O 0.59199 0.59518 0.31655 0.0
O67 O 0.63658 0.71147 0.26761 0.0
Zn68 Zn 0.58948 0.70937 0.29104 0.0
O69 O 0.65125 0.71411 0.31182 0.0
C70 C 0.52608 0.82851 0.27964 0.0
O71 O 0.54887 0.81106 0.26396 0.0
O72 O 0.54125 0.62351 0.29145 0.0
C73 C 0.66663 0.76864 0.31871 0.0
O74 O 0.64544 0.82237 0.31134 0.0
C75 C 0.68839 0.74255 0.26466 0.0
O76 O 0.71729 0.77298 0.27794 0.0
O77 O 0.53244 0.79002 0.29277 0.0
C78 C 0.38591 0.09953 0.55827 0.0
O79 O 0.38561 0.16337 0.55913 0.0
O80 O 0.25991 0.18323 0.536 0.0
Zn81 Zn 0.25405 0.12727 0.55769 0.0
O82 O 0.2537 0.18122 0.58011 0.0
C83 C 0.14872 0.0586 0.54062 0.0
O84 O 0.18564 0.06419 0.52645 0.0
O85 O 0.3322 0.06953 0.55778 0.0
C86 C 0.21864 0.165 0.59326 0.0
O87 O 0.1819 0.11313 0.59193 0.0
C88 C 0.212 0.21845 0.53177 0.0
O89 O 0.16316 0.22307 0.5429 0.0
O90 O 0.16972 0.07843 0.55567 0.0
C91 C 0.96796 0.83882 0.78982 0.0
O92 O 0.95416 0.82306 0.77321 0.0
O93 O 0.84416 0.72603 0.77603 0.0
Zn94 Zn 0.89491 0.72123 0.7989 0.0
O95 O 0.83304 0.71903 0.81943 0.0
C96 C 0.9522 0.60343 0.78433 0.0
O97 O 0.93293 0.62876 0.76917 0.0
O98 O 0.95107 0.80109 0.80236 0.0
C99 C 0.80941 0.66598 0.82503 0.0
O100 O 0.82444 0.61126 0.81687 0.0
C101 C 0.81535 0.77386 0.76889 0.0
O102 O 0.8152 0.83089 0.7769 0.0
O103 O 0.94495 0.63599 0.79873 0.0
C104 C 0.63069 0.60161 0.66463 0.0
O105 O 0.63145 0.66542 0.66564 0.0
O106 O 0.75901 0.67113 0.68963 0.0
Zn107 Zn 0.76318 0.62735 0.66571 0.0
O108 O 0.76348 0.68962 0.6452 0.0
C109 C 0.86561 0.54957 0.67997 0.0
O110 O 0.8277 0.55048 0.69403 0.0
O111 O 0.68416 0.57121 0.66394 0.0
C112 C 0.81618 0.70571 0.63777 0.0
O113 O 0.87105 0.68493 0.64448 0.0
C114 C 0.75841 0.73016 0.69468 0.0
O115 O 0.75995 0.77676 0.68279 0.0
O116 O 0.8462 0.57584 0.66561 0.0
C117 C 0.39337 0.0881 0.93239 0.0
O118 O 0.33415 0.09848 0.93801 0.0
O119 O 0.3348 0.22885 0.95236 0.0
Zn120 Zn 0.37953 0.22301 0.92858 0.0
O121 O 0.31616 0.22332 0.90826 0.0
C122 C 0.44731 0.33956 0.94005 0.0
O123 O 0.43272 0.31675 0.95587 0.0
O124 O 0.42705 0.13655 0.9274 0.0
C125 C 0.29447 0.27644 0.90211 0.0
O126 O 0.31054 0.33142 0.90999 0.0
C127 C 0.27674 0.24538 0.95544 0.0
O128 O 0.23765 0.25708 0.942 0.0
O129 O 0.43476 0.30504 0.92626 0.0
C130 C 0.89315 0.955 0.16606 0.0
O131 O 0.8938 0.8912 0.16499 0.0
O132 O 0.77036 0.87031 0.18991 0.0
Zn133 Zn 0.76157 0.92537 0.16804 0.0
O134 O 0.76135 0.86989 0.14581 0.0
C135 C 0.65037 0.98483 0.18485 0.0
O136 O 0.68184 0.96957 0.19949 0.0
O137 O 0.83907 0.98406 0.16731 0.0
C138 C 0.70946 0.85672 0.13743 0.0
O139 O 0.65415 0.87819 0.14371 0.0
C140 C 0.73511 0.82078 0.19243 0.0
O141 O 0.69487 0.80221 0.17979 0.0
O142 O 0.67673 0.97414 0.16978 0.0
C143 C 0.04734 0.35717 0.42064 0.0
O144 O 0.11004 0.35928 0.42338 0.0
O145 O 0.11015 0.24469 0.45195 0.0
Zn146 Zn 0.07767 0.22798 0.42705 0.0
O147 O 0.14862 0.22692 0.40889 0.0
C148 C 0.04695 0.0975 0.43754 0.0
O149 O 0.08773 0.11208 0.45042 0.0
O150 O 0.01888 0.30243 0.42117 0.0
C151 C 0.18621 0.17875 0.40663 0.0
O152 O 0.18173 0.12854 0.41729 0.0
C153 C 0.16847 0.25171 0.45688 0.0
O154 O 0.21494 0.24854 0.44499 0.0
O155 O 0.03288 0.14049 0.42601 0.0
C156 C 0.62762 0.96126 0.55081 0.0
O157 O 0.62748 0.89764 0.54904 0.0
O158 O 0.74277 0.89138 0.52122 0.0
Zn159 Zn 0.75743 0.93337 0.5452 0.0
O160 O 0.76019 0.86855 0.56516 0.0
C161 C 0.88425 0.97175 0.5329 0.0
O162 O 0.86898 0.93384 0.51935 0.0
O163 O 0.68113 0.99139 0.54979 0.0
C164 C 0.81341 0.84923 0.57175 0.0
O165 O 0.8679 0.86789 0.56444 0.0
C166 C 0.75282 0.83215 0.51721 0.0
O167 O 0.77296 0.79204 0.52961 0.0
O168 O 0.8428 0.98192 0.54516 0.0
C169 C 0.0726 0.09241 0.80723 0.0
O170 O 0.11577 0.09782 0.82004 0.0
O171 O 0.1726 0.23085 0.7817 0.0
Zn172 Zn 0.10789 0.22637 0.80156 0.0
O173 O 0.15324 0.22712 0.82541 0.0
C174 C 0.04264 0.33662 0.7853 0.0
O175 O 0.06221 0.30906 0.77037 0.0
O176 O 0.05857 0.14212 0.79796 0.0
C177 C 0.15878 0.27903 0.83462 0.0
O178 O 0.13565 0.33371 0.8283 0.0
C179 C 0.20814 0.28057 0.77974 0.0
O180 O 0.20632 0.327 0.79188 0.0
O181 O 0.0522 0.30753 0.80001 0.0
C182 C 0.90771 0.60707 0.0419 0.0
O183 O 0.89634 0.66617 0.03614 0.0
O184 O 0.76784 0.66408 0.02236 0.0
Zn185 Zn 0.77338 0.61919 0.04606 0.0
O186 O 0.77093 0.68356 0.06633 0.0
C187 C 0.65864 0.54999 0.03422 0.0
O188 O 0.68233 0.56401 0.01845 0.0
O189 O 0.86022 0.5728 0.0472 0.0
C190 C 0.71729 0.70406 0.07237 0.0
O191 O 0.66341 0.6855 0.06455 0.0
C192 C 0.75073 0.72227 0.01936 0.0
O193 O 0.73785 0.7614 0.03284 0.0
O194 O 0.69217 0.56292 0.0481 0.0
C195 C 0.45881 0.31717 0.29514 0.0
O196 O 0.44321 0.29412 0.27929 0.0
O197 O 0.32562 0.21081 0.28741 0.0
Zn198 Zn 0.38655 0.20523 0.30825 0.0
O199 O 0.33514 0.20509 0.3309 0.0
C200 C 0.44257 0.09526 0.28993 0.0
O201 O 0.42646 0.12997 0.27595 0.0
O202 O 0.44384 0.28503 0.30898 0.0
C203 C 0.34677 0.16672 0.34374 0.0
O204 O 0.39349 0.12382 0.3422 0.0
C205 C 0.29885 0.2607 0.28075 0.0
O206 O 0.30685 0.31785 0.28839 0.0
O207 O 0.43419 0.11931 0.30548 0.0
C208 C 0.37851 0.33027 0.11654 0.0
C209 C 0.32299 0.33695 0.10587 0.0
H210 H 0.42006 0.28956 0.14016 0.0
C211 C 0.26479 0.30891 0.11159 0.0
H212 H 0.42404 0.35152 0.11253 0.0
C213 C 0.26242 0.2738 0.12745 0.0
C214 C 0.31827 0.26571 0.13791 0.0
H215 H 0.22102 0.31353 0.10375 0.0
H216 H 0.21697 0.252 0.13131 0.0
C217 C 0.37619 0.2949 0.1324 0.0
C218 C 0.753 0.71721 0.36093 0.0
C219 C 0.77082 0.7775 0.3684 0.0
H220 H 0.70672 0.66705 0.33928 0.0
C221 C 0.75524 0.83474 0.35922 0.0
H222 H 0.76455 0.67218 0.36763 0.0
C223 C 0.72213 0.83179 0.34296 0.0
C224 C 0.70413 0.77153 0.33551 0.0
H225 H 0.76843 0.88195 0.3646 0.0
H226 H 0.71043 0.87682 0.33628 0.0
C227 C 0.72013 0.71425 0.34463 0.0
C228 C 0.26705 0.25153 0.61266 0.0
C229 C 0.21929 0.20406 0.60988 0.0
H230 H 0.30446 0.32586 0.62985 0.0
C231 C 0.17209 0.19455 0.62308 0.0
H232 H 0.30433 0.25971 0.60279 0.0
C233 C 0.17189 0.23282 0.63859 0.0
C234 C 0.2193 0.28077 0.64126 0.0
H235 H 0.13467 0.15827 0.62131 0.0
H236 H 0.13434 0.22513 0.6484 0.0
C237 C 0.26727 0.28924 0.62822 0.0
C238 C 0.74975 0.72465 0.84928 0.0
C239 C 0.76782 0.66579 0.84105 0.0
H240 H 0.69954 0.77091 0.87081 0.0
C241 C 0.74714 0.60694 0.84854 0.0
H242 H 0.7648 0.77086 0.84384 0.0
C243 C 0.70983 0.60695 0.86408 0.0
C244 C 0.69228 0.66584 0.87239 0.0
H245 H 0.76031 0.56076 0.84252 0.0
H246 H 0.695 0.5608 0.8696 0.0
C247 C 0.71231 0.72467 0.86476 0.0
C248 C 0.87284 0.79241 0.59623 0.0
C249 C 0.81402 0.81096 0.58837 0.0
H250 H 0.9197 0.74513 0.61806 0.0
C251 C 0.7559 0.79509 0.59698 0.0
H252 H 0.91848 0.80411 0.58998 0.0
C253 C 0.75662 0.76161 0.61313 0.0
C254 C 0.81546 0.74318 0.62101 0.0
H255 H 0.70975 0.80891 0.59131 0.0
H256 H 0.71098 0.75001 0.6194 0.0
C257 C 0.87355 0.75886 0.61238 0.0
C258 C 0.2451 0.21844 0.87592 0.0
C259 C 0.2563 0.27663 0.8854 0.0
H260 H 0.20578 0.17353 0.85243 0.0
C261 C 0.23346 0.33535 0.87829 0.0
H262 H 0.26208 0.17234 0.88102 0.0
C263 C 0.20117 0.33602 0.86189 0.0
C264 C 0.19123 0.27801 0.85222 0.0
H265 H 0.24126 0.38102 0.88527 0.0
H266 H 0.18477 0.38218 0.85669 0.0
C267 C 0.21301 0.21913 0.85949 0.0
C268 C 0.6561 0.76635 0.09568 0.0
C269 C 0.71541 0.74508 0.08866 0.0
H270 H 0.60765 0.81814 0.11662 0.0
C271 C 0.77279 0.76146 0.09769 0.0
H272 H 0.61101 0.7545 0.08905 0.0
C273 C 0.77084 0.79771 0.11353 0.0
C274 C 0.71149 0.81848 0.12065 0.0
H275 H 0.81929 0.74576 0.09265 0.0
H276 H 0.81593 0.80925 0.12021 0.0
C277 C 0.65416 0.80272 0.11151 0.0
C278 C 0.27346 0.12521 0.38857 0.0
C279 C 0.23033 0.17721 0.39114 0.0
H280 H 0.34441 0.08114 0.37156 0.0
C281 C 0.22738 0.22653 0.37828 0.0
H282 H 0.27687 0.08649 0.39825 0.0
C283 C 0.26549 0.22316 0.36297 0.0
C284 C 0.30786 0.17069 0.36023 0.0
H285 H 0.19468 0.2673 0.37984 0.0
H286 H 0.26144 0.26165 0.35323 0.0
C287 C 0.3121 0.12213 0.37329 0.0
C288 C 0.26118 0.29807 0.23253 0.0
C289 C 0.24791 0.23537 0.22587 0.0
H290 H 0.28705 0.35577 0.25545 0.0
C291 C 0.2412 0.1839 0.23797 0.0
H292 H 0.2662 0.33878 0.22354 0.0
C293 C 0.25309 0.19358 0.2561 0.0
C294 C 0.27158 0.255 0.26259 0.0
H295 H 0.22995 0.13516 0.23334 0.0
H296 H 0.25104 0.15209 0.26491 0.0
C297 C 0.27282 0.30786 0.2508 0.0
C298 C 0.73738 0.84143 0.46701 0.0
C299 C 0.76777 0.78358 0.46156 0.0
H300 H 0.70828 0.90187 0.48889 0.0
C301 C 0.78546 0.73789 0.47459 0.0
H302 H 0.72269 0.87743 0.45732 0.0
C303 C 0.77722 0.75195 0.49275 0.0
C304 C 0.75126 0.81197 0.49821 0.0
H305 H 0.80864 0.69261 0.47083 0.0
H306 H 0.7942 0.71717 0.50249 0.0
C307 C 0.72927 0.85551 0.48513 0.0
C308 C 0.27715 0.36898 0.7402 0.0
C309 C 0.27345 0.32092 0.72678 0.0
H310 H 0.26063 0.39358 0.76761 0.0
C311 C 0.2573 0.25707 0.73154 0.0
H312 H 0.29021 0.41852 0.73698 0.0
C313 C 0.23997 0.24282 0.74912 0.0
C314 C 0.23905 0.29206 0.76227 0.0
H315 H 0.25434 0.2189 0.72152 0.0
H316 H 0.22427 0.19394 0.7522 0.0
C317 C 0.26042 0.35462 0.75779 0.0
C318 C 0.74534 0.69682 -0.01324 0.0
C319 C 0.73595 0.74155 0.00081 0.0
H320 H 0.72751 0.67309 0.95937 0.0
C321 C 0.70679 0.80169 -0.00288 0.0
H322 H 0.76826 0.65027 -0.01092 0.0
C323 C 0.68363 0.81494 0.97995 0.0
C324 C 0.68899 0.76811 0.96625 0.0
H325 H 0.69921 0.83732 0.00763 0.0
H326 H 0.65863 0.86041 0.97767 0.0
C327 C 0.72195 0.70987 0.96969 0.0
C328 C 0.28883 0.27816 0.005 0.0
C329 C 0.23031 0.31041 0.00844 0.0
H330 H 0.34887 0.23141 0.98566 0.0
C331 C 0.1836 0.31379 -0.00519 0.0
H332 H 0.32557 0.27413 0.01526 0.0
C333 C 0.19712 0.28948 0.9777 0.0
C334 C 0.25745 0.26113 0.97399 0.0
H335 H 0.13792 0.33817 -0.00293 0.0
H336 H 0.16149 0.2956 0.96724 0.0
C337 C 0.30216 0.25364 -0.01201 0.0
C338 C 0.67413 0.72498 0.23178 0.0
C339 C 0.70859 0.75378 0.246 0.0
H340 H 0.65595 0.72307 0.20365 0.0
C341 C 0.75779 0.79848 0.24214 0.0
H342 H 0.63629 0.68986 0.23428 0.0
C343 C 0.76906 0.81751 0.22454 0.0
C344 C 0.73136 0.79216 0.21047 0.0
H345 H 0.78552 0.82121 0.25277 0.0
H346 H 0.80529 0.85434 0.2221 0.0
C347 C 0.68541 0.74398 0.2142 0.0
C348 C 0.13355 0.26765 0.48849 0.0
C349 C 0.18324 0.25507 0.47617 0.0
H350 H 0.1041 0.26744 0.51582 0.0
C351 C 0.24519 0.23982 0.48256 0.0
H352 H 0.08547 0.2804 0.48397 0.0
C353 C 0.25585 0.23211 0.50087 0.0
C354 C 0.20485 0.24006 0.51309 0.0
H355 H 0.28453 0.23024 0.47339 0.0
H356 H 0.30321 0.21676 0.50535 0.0
C357 C 0.14432 0.26055 0.50677 0.0
C358 C 0.77378 0.80787 0.72055 0.0
C359 C 0.76326 0.74441 0.71405 0.0
H360 H 0.79795 0.8674 0.74331 0.0
C361 C 0.76227 0.69264 0.7262 0.0
H362 H 0.77447 0.84877 0.71153 0.0
C363 C 0.77591 0.7032 0.74419 0.0
C364 C 0.79026 0.76586 0.75055 0.0
H365 H 0.75345 0.64319 0.72174 0.0
H366 H 0.77736 0.66174 0.75303 0.0
C367 C 0.78696 0.81856 0.73873 0.0
C368 C 0.0723 0.9927 0.16719 0.0
C369 C 0.07231 0.06062 0.16923 0.0
H370 H 0.01577 0.90615 0.16452 0.0
C371 C 0.01288 0.09379 0.16962 0.0
H372 H 0.11723 0.96572 0.16681 0.0
C373 C 0.95468 0.05968 0.16832 0.0
C374 C 0.95463 0.99165 0.1666 0.0
H375 H 0.01115 0.14617 0.17114 0.0
H376 H 0.90975 0.08662 0.16888 0.0
C377 C 0.01408 0.95858 0.16588 0.0
C378 C 0.04301 0.4782 0.41804 0.0
C379 C 0.0107 0.41807 0.418 0.0
H380 H 0.0348 0.58175 0.41683 0.0
C381 C 0.94323 0.41714 0.41601 0.0
H382 H 0.09502 0.48065 0.4195 0.0
C383 C 0.90868 0.47523 0.41447 0.0
C384 C 0.94091 0.53541 0.4149 0.0
H385 H 0.91694 0.37162 0.41589 0.0
H386 H 0.85661 0.4729 0.41319 0.0
C387 C 0.0085 0.53623 0.41651 0.0
C388 C 0.45163 0.56687 0.66883 0.0
C389 C 0.45081 0.49867 0.66952 0.0
H390 H 0.50908 0.65286 0.66667 0.0
C391 C 0.50938 0.46451 0.66781 0.0
H392 H 0.40734 0.59458 0.67006 0.0
C393 C 0.56767 0.49783 0.66583 0.0
C394 C 0.56869 0.56606 0.66555 0.0
H395 H 0.51044 0.4119 0.6682 0.0
H396 H 0.61199 0.47006 0.66482 0.0
C397 C 0.50999 0.60023 0.66688 0.0
C398 C 0.38675 0.9708 0.94084 0.0
C399 C 0.4187 0.02067 0.93161 0.0
H400 H 0.3838 0.86965 0.94741 0.0
C401 C 0.47337 0.00487 0.92138 0.0
H402 H 0.34448 0.98129 0.94887 0.0
C403 C 0.49528 0.94048 0.92031 0.0
C404 C 0.46356 0.89072 0.92969 0.0
H405 H 0.49883 0.04209 0.91404 0.0
H406 H 0.53768 0.92989 0.91235 0.0
C407 C 0.40921 0.90671 0.94001 0.0
C408 C 0.05671 0.5079 0.05362 0.0
C409 C 0.10506 0.53963 0.04375 0.0
H410 H 0.95621 0.50341 0.06056 0.0
C411 C 0.08765 0.59298 0.0332 0.0
H412 H 0.0684 0.46622 0.06177 0.0
C413 C 0.02359 0.61452 0.03265 0.0
C414 C 0.97512 0.58258 0.04239 0.0
H415 H 0.1236 0.61837 0.02541 0.0
H416 H 0.01199 0.65608 0.02444 0.0
C417 C 0.99232 0.52883 0.05284 0.0
C418 C 0.53198 0.46972 0.3155 0.0
C419 C 0.52754 0.51378 0.30128 0.0
H420 H 0.51395 0.37307 0.32472 0.0
C421 C 0.50177 0.49211 0.28489 0.0
H422 H 0.5518 0.4848 0.32828 0.0
C423 C 0.48119 0.42773 0.28276 0.0
C424 C 0.48508 0.38385 0.29703 0.0
H425 H 0.49818 0.52466 0.27363 0.0
H426 H 0.46117 0.41272 0.27 0.0
C427 C 0.51055 0.4056 0.31344 0.0
C428 C 0.56525 0.06473 0.55502 0.0
C429 C 0.56611 0.99668 0.55339 0.0
H430 H 0.5077 0.15051 0.55791 0.0
C431 C 0.5073 0.96253 0.55391 0.0
H432 H 0.60971 0.09245 0.55471 0.0
C433 C 0.44879 0.99577 0.55573 0.0
C434 C 0.44784 0.06388 0.5571 0.0
H435 H 0.50625 0.91003 0.55272 0.0
H436 H 0.4043 0.96806 0.55589 0.0
C437 C 0.50672 0.09797 0.55686 0.0
C438 C 0.01654 0.01587 0.78606 0.0
C439 C 0.04466 0.02795 0.80286 0.0
H440 H 0.97156 0.94622 0.76863 0.0
C441 C 0.04843 0.97697 0.81522 0.0
H442 H 0.01339 0.054 0.77619 0.0
C443 C 0.02401 0.91539 0.81095 0.0
C444 C 0.99637 0.90314 0.7941 0.0
H445 H 0.06994 0.98472 0.82827 0.0
H446 H 0.02702 0.87729 0.82083 0.0
C447 C 0.99316 0.95395 0.78166 0.0
C448 C 0.54555 0.0169 0.1704 0.0
C449 C 0.58299 0.00889 0.18593 0.0
H450 H 0.45362 0.04306 0.15936 0.0
C451 C 0.55452 0.02139 0.20264 0.0
H452 H 0.56586 0.00725 0.15732 0.0
C453 C 0.49025 0.04171 0.2038 0.0
C454 C 0.45275 0.04974 0.18829 0.0
H455 H 0.58181 0.01539 0.21488 0.0
H456 H 0.47004 0.05118 0.21691 0.0
C457 C 0.48106 0.03697 0.17157 0.0
C458 C 0.96835 0.9454 0.41855 0.0
C459 C 0.97645 0.90127 0.43264 0.0
H460 H 0.98346 0.04227 0.40911 0.0
C461 C 0.00721 0.92251 0.44838 0.0
H462 H 0.94442 0.9307 0.40629 0.0
C463 C 0.02966 0.98634 0.44998 0.0
C464 C 0.02131 0.03057 0.43593 0.0
H465 H 0.01397 0.88985 0.45952 0.0
H466 H 0.05336 1.00105 0.46228 0.0
C467 C 0.99028 0.00948 0.42021 0.0
C468 C 0.0158 0.47016 0.69878 0.0
C469 C 0.06185 0.48316 0.6855 0.0
H470 H 0.91791 0.48064 0.70741 0.0
C471 C 0.04251 0.51693 0.67014 0.0
H472 H 0.0291 0.44421 0.71078 0.0
C473 C 0.97835 0.53714 0.66811 0.0
C474 C 0.93245 0.52456 0.68148 0.0
H475 H 0.07675 0.52727 0.65962 0.0
H476 H 0.96498 0.56343 0.65617 0.0
C477 C 0.95195 0.49089 0.69683 0.0
C478 C 0.4742 0.43842 0.92171 0.0
C479 C 0.47051 0.40766 0.93842 0.0
H480 H 0.49465 0.52633 0.90751 0.0
C481 C 0.48515 0.44407 0.95388 0.0
H482 H 0.46269 0.41199 0.90955 0.0
C483 C 0.50297 0.50942 0.95272 0.0
C484 C 0.50648 0.54041 0.93607 0.0
H485 H 0.48255 0.42224 0.96698 0.0
H486 H 0.51412 0.53559 0.96496 0.0
C487 C 0.4919 0.50414 0.92056 0.0
C488 C 0.55556 0.51129 0.02016 0.0
C489 C 0.59053 0.52771 0.03567 0.0
H490 H 0.46516 0.48198 0.00884 0.0
C491 C 0.5583 0.5271 0.05221 0.0
H492 H 0.57858 0.51156 0.00717 0.0
C493 C 0.49255 0.51072 0.05315 0.0
C494 C 0.45774 0.49427 0.03758 0.0
H495 H 0.58357 0.54014 0.0644 0.0
H496 H 0.46922 0.51037 0.06609 0.0
C497 C 0.49021 0.49466 0.0211 0.0
C498 C 0.4753 1.002 0.27023 0.0
C499 C 0.46452 0.02708 0.2875 0.0
H500 H 0.50231 0.91989 0.25422 0.0
C501 C 0.47211 0.98555 0.3022 0.0
H502 H 0.46964 0.03245 0.25858 0.0
C503 C 0.49029 0.92049 0.29967 0.0
C504 C 0.50158 0.89566 0.28239 0.0
H505 H 0.46373 0.00316 0.31567 0.0
H506 H 0.49647 0.88999 0.31128 0.0
C507 C 0.49373 0.93721 0.26771 0.0
C508 C 0.99464 0.99076 0.5204 0.0
C509 C 0.95118 0.99623 0.53475 0.0
H510 H 0.091 0.0059 0.51101 0.0
C511 C 0.97336 0.0219 0.55109 0.0
H512 H 0.97911 0.97109 0.50763 0.0
C513 C 0.03779 0.0411 0.5531 0.0
C514 C 0.08127 0.03557 0.53875 0.0
H515 H 0.94123 0.02628 0.56244 0.0
H516 H 0.05335 0.06071 0.56587 0.0
C517 C 0.05888 0.01047 0.52236 0.0
C518 C 0.98662 0.50104 0.76866 0.0
C519 C 0.97643 0.53554 0.78471 0.0
H520 H 0.01486 0.4114 0.75626 0.0
C521 C 0.98669 0.50349 0.80099 0.0
H522 H 0.97895 0.52407 0.75587 0.0
C523 C 0.00672 0.43845 0.80122 0.0
C524 C 0.01723 0.40409 0.78515 0.0
H525 H 0.97882 0.52845 0.8136 0.0
H526 H 0.01465 0.41537 0.81399 0.0
C527 C 0.00693 0.4362 0.76888 0.0
loop_
_geom_bond_atom_site_label_1
_geom_bond_atom_site_label_2
_geom_bond_distance
_geom_bond_site_symmetry_2
_ccdc_geom_bond_type
C0 O1 1.160 . S
C0 O7 1.185 . S
O1 C0 1.160 . S
O2 Zn3 1.899 . S
O2 C10 1.284 . S
Zn3 O2 1.899 . S
Zn3 O4 2.032 . S
Zn3 O7 2.086 . S
Zn3 O12 1.977 . S
O4 Zn3 2.032 . S
O4 C8 1.278 . S
C5 O6 1.203 . S
C5 O12 1.267 . S
O6 C5 1.203 . S
O7 C0 1.185 . S
O7 Zn3 2.086 . S
C8 O4 1.278 . S
C8 O9 1.211 . S
O9 C8 1.211 . S
C10 O2 1.284 . S
C10 O11 1.273 . S
O11 C10 1.273 . S
O12 Zn3 1.977 . S
O12 C5 1.267 . S
C13 O14 1.160 . S
C13 O20 1.185 . S
O14 C13 1.160 . S
O15 Zn16 1.899 . S
O15 C23 1.284 . S
Zn16 O15 1.899 . S
Zn16 O17 2.032 . S
Zn16 O20 2.086 . S
Zn16 O25 1.977 . S
O17 Zn16 2.032 . S
O17 C21 1.278 . S
C18 O19 1.203 . S
C18 O25 1.267 . S
O19 C18 1.203 . S
O20 C13 1.185 . S
O20 Zn16 2.086 . S
C21 O17 1.278 . S
C21 O22 1.211 . S
O22 C21 1.211 . S
C23 O15 1.284 . S
C23 O24 1.273 . S
O24 C23 1.273 . S
O25 Zn16 1.977 . S
O25 C18 1.267 . S
C26 O27 1.160 . S
C26 O33 1.185 . S
O27 C26 1.160 . S
O28 Zn29 1.899 . S
O28 C36 1.284 . S
Zn29 O28 1.899 . S
Zn29 O30 2.032 . S
Zn29 O33 2.086 . S
Zn29 O38 1.977 . S
O30 Zn29 2.032 . S
O30 C34 1.278 . S
C31 O32 1.203 . S
C31 O38 1.267 . S
O32 C31 1.203 . S
O33 C26 1.185 . S
O33 Zn29 2.086 . S
C34 O30 1.278 . S
C34 O35 1.211 . S
O35 C34 1.211 . S
C36 O28 1.284 . S
C36 O37 1.273 . S
O37 C36 1.273 . S
O38 Zn29 1.977 . S
O38 C31 1.267 . S
C39 O40 1.160 . S
C39 O46 1.185 . S
O40 C39 1.160 . S
O41 Zn42 1.899 . S
O41 C49 1.284 . S
Zn42 O41 1.899 . S
Zn42 O43 2.032 . S
Zn42 O46 2.086 . S
Zn42 O51 1.977 . S
O43 Zn42 2.032 . S
O43 C47 1.278 . S
C44 O45 1.203 . S
C44 O51 1.267 . S
O45 C44 1.203 . S
O46 C39 1.185 . S
O46 Zn42 2.086 . S
C47 O43 1.278 . S
C47 O48 1.211 . S
O48 C47 1.211 . S
C49 O41 1.284 . S
C49 O50 1.273 . S
O50 C49 1.273 . S
O51 Zn42 1.977 . S
O51 C44 1.267 . S
C52 O53 1.160 . S
C52 O59 1.185 . S
O53 C52 1.160 . S
O54 Zn55 1.899 . S
O54 C62 1.284 . S
Zn55 O54 1.899 . S
Zn55 O56 2.032 . S
Zn55 O59 2.086 . S
Zn55 O64 1.977 . S
O56 Zn55 2.032 . S
O56 C60 1.278 . S
C57 O58 1.203 . S
C57 O64 1.267 . S
O58 C57 1.203 . S
O59 C52 1.185 . S
O59 Zn55 2.086 . S
C60 O56 1.278 . S
C60 O61 1.211 . S
O61 C60 1.211 . S
C62 O54 1.284 . S
C62 O63 1.273 . S
O63 C62 1.273 . S
O64 Zn55 1.977 . S
O64 C57 1.267 . S
C65 O66 1.160 . S
C65 O72 1.185 . S
O66 C65 1.160 . S
O67 Zn68 1.899 . S
O67 C75 1.284 . S
Zn68 O67 1.899 . S
Zn68 O69 2.032 . S
Zn68 O72 2.086 . S
Zn68 O77 1.977 . S
O69 Zn68 2.032 . S
O69 C73 1.278 . S
C70 O71 1.203 . S
C70 O77 1.267 . S
O71 C70 1.203 . S
O72 C65 1.185 . S
O72 Zn68 2.086 . S
C73 O69 1.278 . S
C73 O74 1.211 . S
O74 C73 1.211 . S
C75 O67 1.284 . S
C75 O76 1.273 . S
O76 C75 1.273 . S
O77 Zn68 1.977 . S
O77 C70 1.267 . S
C78 O79 1.160 . S
C78 O85 1.185 . S
O79 C78 1.160 . S
O80 Zn81 1.899 . S
O80 C88 1.284 . S
Zn81 O80 1.899 . S
Zn81 O82 2.032 . S
Zn81 O85 2.086 . S
Zn81 O90 1.977 . S
O82 Zn81 2.032 . S
O82 C86 1.278 . S
C83 O84 1.203 . S
C83 O90 1.267 . S
O84 C83 1.203 . S
O85 C78 1.185 . S
O85 Zn81 2.086 . S
C86 O82 1.278 . S
C86 O87 1.211 . S
O87 C86 1.211 . S
C88 O80 1.284 . S
C88 O89 1.273 . S
O89 C88 1.273 . S
O90 Zn81 1.977 . S
O90 C83 1.267 . S
C91 O92 1.160 . S
C91 O98 1.185 . S
O92 C91 1.160 . S
O93 Zn94 1.899 . S
O93 C101 1.284 . S
Zn94 O93 1.899 . S
Zn94 O95 2.032 . S
Zn94 O98 2.086 . S
Zn94 O103 1.977 . S
O95 Zn94 2.032 . S
O95 C99 1.278 . S
C96 O97 1.203 . S
C96 O103 1.267 . S
O97 C96 1.203 . S
O98 C91 1.185 . S
O98 Zn94 2.086 . S
C99 O95 1.278 . S
C99 O100 1.211 . S
O100 C99 1.211 . S
C101 O93 1.284 . S
C101 O102 1.273 . S
O102 C101 1.273 . S
O103 Zn94 1.977 . S
O103 C96 1.267 . S
C104 O105 1.160 . S
C104 O111 1.185 . S
O105 C104 1.160 . S
O106 Zn107 1.899 . S
O106 C114 1.284 . S
Zn107 O106 1.899 . S
Zn107 O108 2.032 . S
Zn107 O111 2.086 . S
Zn107 O116 1.977 . S
O108 Zn107 2.032 . S
O108 C112 1.278 . S
C109 O110 1.203 . S
C109 O116 1.267 . S
O110 C109 1.203 . S
O111 C104 1.185 . S
O111 Zn107 2.086 . S
C112 O108 1.278 . S
C112 O113 1.211 . S
O113 C112 1.211 . S
C114 O106 1.284 . S
C114 O115 1.273 . S
O115 C114 1.273 . S
O116 Zn107 1.977 . S
O116 C109 1.267 . S
C117 O118 1.160 . S
C117 O124 1.185 . S
O118 C117 1.160 . S
O119 Zn120 1.899 . S
O119 C127 1.284 . S
Zn120 O119 1.899 . S
Zn120 O121 2.032 . S
Zn120 O124 2.086 . S
Zn120 O129 1.977 . S
O121 Zn120 2.032 . S
O121 C125 1.278 . S
C122 O123 1.203 . S
C122 O129 1.267 . S
O123 C122 1.203 . S
O124 C117 1.185 . S
O124 Zn120 2.086 . S
C125 O121 1.278 . S
C125 O126 1.211 . S
O126 C125 1.211 . S
C127 O119 1.284 . S
C127 O128 1.273 . S
O128 C127 1.273 . S
O129 Zn120 1.977 . S
O129 C122 1.267 . S
C130 O131 1.160 . S
C130 O137 1.185 . S
O131 C130 1.160 . S
O132 Zn133 1.899 . S
O132 C140 1.284 . S
Zn133 O132 1.899 . S
Zn133 O134 2.032 . S
Zn133 O137 2.086 . S
Zn133 O142 1.977 . S
O134 Zn133 2.032 . S
O134 C138 1.278 . S
C135 O136 1.203 . S
C135 O142 1.267 . S
O136 C135 1.203 . S
O137 C130 1.185 . S
O137 Zn133 2.086 . S
C138 O134 1.278 . S
C138 O139 1.211 . S
O139 C138 1.211 . S
C140 O132 1.284 . S
C140 O141 1.273 . S
O141 C140 1.273 . S
O142 Zn133 1.977 . S
O142 C135 1.267 . S
C143 O144 1.160 . S
C143 O150 1.185 . S
O144 C143 1.160 . S
O145 Zn146 1.899 . S
O145 C153 1.284 . S
Zn146 O145 1.899 . S
Zn146 O147 2.032 . S
Zn146 O150 2.086 . S
Zn146 O155 1.977 . S
O147 Zn146 2.032 . S
O147 C151 1.278 . S
C148 O149 1.203 . S
C148 O155 1.267 . S
O149 C148 1.203 . S
O150 C143 1.185 . S
O150 Zn146 2.086 . S
C151 O147 1.278 . S
C151 O152 1.211 . S
O152 C151 1.211 . S
C153 O145 1.284 . S
C153 O154 1.273 . S
O154 C153 1.273 . S
O155 Zn146 1.977 . S
O155 C148 1.267 . S
C156 O157 1.160 . S
C156 O163 1.185 . S
O157 C156 1.160 . S
O158 Zn159 1.899 . S
O158 C166 1.284 . S
Zn159 O158 1.899 . S
Zn159 O160 2.032 . S
Zn159 O163 2.086 . S
Zn159 O168 1.977 . S
O160 Zn159 2.032 . S
O160 C164 1.278 . S
C161 O162 1.203 . S
C161 O168 1.267 . S
O162 C161 1.203 . S
O163 C156 1.185 . S
O163 Zn159 2.086 . S
C164 O160 1.278 . S
C164 O165 1.211 . S
O165 C164 1.211 . S
C166 O158 1.284 . S
C166 O167 1.273 . S
O167 C166 1.273 . S
O168 Zn159 1.977 . S
O168 C161 1.267 . S
C169 O170 1.160 . S
C169 O176 1.185 . S
O170 C169 1.160 . S
O171 Zn172 1.899 . S
O171 C179 1.284 . S
Zn172 O171 1.899 . S
Zn172 O173 2.032 . S
Zn172 O176 2.086 . S
Zn172 O181 1.977 . S
O173 Zn172 2.032 . S
O173 C177 1.278 . S
C174 O175 1.203 . S
C174 O181 1.267 . S
O175 C174 1.203 . S
O176 C169 1.185 . S
O176 Zn172 2.086 . S
C177 O173 1.278 . S
C177 O178 1.211 . S
O178 C177 1.211 . S
C179 O171 1.284 . S
C179 O180 1.273 . S
O180 C179 1.273 . S
O181 Zn172 1.977 . S
O181 C174 1.267 . S
C182 O183 1.160 . S
C182 O189 1.185 . S
O183 C182 1.160 . S
O184 Zn185 1.899 . S
O184 C192 1.284 . S
Zn185 O184 1.899 . S
Zn185 O186 2.032 . S
Zn185 O189 2.086 . S
Zn185 O194 1.977 . S
O186 Zn185 2.032 . S
O186 C190 1.278 . S
C187 O188 1.203 . S
C187 O194 1.267 . S
O188 C187 1.203 . S
O189 C182 1.185 . S
O189 Zn185 2.086 . S
C190 O186 1.278 . S
C190 O191 1.211 . S
O191 C190 1.211 . S
C192 O184 1.284 . S
C192 O193 1.273 . S
O193 C192 1.273 . S
O194 Zn185 1.977 . S
O194 C187 1.267 . S
C195 O196 1.160 . S
C195 O202 1.185 . S
O196 C195 1.160 . S
O197 Zn198 1.899 . S
O197 C205 1.284 . S
Zn198 O197 1.899 . S
Zn198 O199 2.032 . S
Zn198 O202 2.086 . S
Zn198 O207 1.977 . S
O199 Zn198 2.032 . S
O199 C203 1.278 . S
C200 O201 1.203 . S
C200 O207 1.267 . S
O201 C200 1.203 . S
O202 C195 1.185 . S
O202 Zn198 2.086 . S
C203 O199 1.278 . S
C203 O204 1.211 . S
O204 C203 1.211 . S
C205 O197 1.284 . S
C205 O206 1.273 . S
O206 C205 1.273 . S
O207 Zn198 1.977 . S
O207 C200 1.267 . S
C208 C209 1.387 . S
C208 H212 0.950 . S
C208 C217 1.390 . S
C209 C208 1.387 . S
C209 C211 1.387 . S
H210 C217 0.950 . S
C211 C209 1.387 . S
C211 C213 1.390 . S
C211 H215 0.950 . S
H212 C208 0.950 . S
C213 C211 1.390 . S
C213 C214 1.387 . S
C213 H216 0.950 . S
C214 C213 1.387 . S
C214 C217 1.387 . S
H215 C211 0.950 . S
H216 C213 0.950 . S
C217 C208 1.390 . S
C217 H210 0.950 . S
C217 C214 1.387 . S
C218 C219 1.387 . S
C218 H222 0.950 . S
C218 C227 1.390 . S
C219 C218 1.387 . S
C219 C221 1.387 . S
H220 C227 0.950 . S
C221 C219 1.387 . S
C221 C223 1.390 . S
C221 H225 0.950 . S
H222 C218 0.950 . S
C223 C221 1.390 . S
C223 C224 1.387 . S
C223 H226 0.950 . S
C224 C223 1.387 . S
C224 C227 1.387 . S
H225 C221 0.950 . S
H226 C223 0.950 . S
C227 C218 1.390 . S
C227 H220 0.950 . S
C227 C224 1.387 . S
C228 C229 1.387 . S
C228 H232 0.950 . S
C228 C237 1.390 . S
C229 C228 1.387 . S
C229 C231 1.387 . S
H230 C237 0.950 . S
C231 C229 1.387 . S
C231 C233 1.390 . S
C231 H235 0.950 . S
H232 C228 0.950 . S
C233 C231 1.390 . S
C233 C234 1.387 . S
C233 H236 0.950 . S
C234 C233 1.387 . S
C234 C237 1.387 . S
H235 C231 0.950 . S
H236 C233 0.950 . S
C237 C228 1.390 . S
C237 H230 0.950 . S
C237 C234 1.387 . S
C238 C239 1.387 . S
C238 H242 0.950 . S
C238 C247 1.390 . S
C239 C238 1.387 . S
C239 C241 1.387 . S
H240 C247 0.950 . S
C241 C239 1.387 . S
C241 C243 1.390 . S
C241 H245 0.950 . S
H242 C238 0.950 . S
C243 C241 1.390 . S
C243 C244 1.387 . S
C243 H246 0.950 . S
C244 C243 1.387 . S
C244 C247 1.387 . S
H245 C241 0.950 . S
H246 C243 0.950 . S
C247 C238 1.390 . S
C247 H240 0.950 . S
C247 C244 1.387 . S
C248 C249 1.387 . S
C248 H252 0.950 . S
C248 C257 1.390 . S
C249 C248 1.387 . S
C249 C251 1.387 . S
H250 C257 0.950 . S
C251 C249 1.387 . S
C251 C253 1.390 . S
C251 H255 0.950 . S
H252 C248 0.950 . S
C253 C251 1.390 . S
C253 C254 1.387 . S
C253 H256 0.950 . S
C254 C253 1.387 . S
C254 C257 1.387 . S
H255 C251 0.950 . S
H256 C253 0.950 . S
C257 C248 1.390 . S
C257 H250 0.950 . S
C257 C254 1.387 . S
C258 C259 1.387 . S
C258 H262 0.950 . S
C258 C267 1.390 . S
C259 C258 1.387 . S
C259 C261 1.387 . S
H260 C267 0.950 . S
C261 C259 1.387 . S
C261 C263 1.390 . S
C261 H265 0.950 . S
H262 C258 0.950 . S
C263 C261 1.390 . S
C263 C264 1.387 . S
C263 H266 0.950 . S
C264 C263 1.387 . S
C264 C267 1.387 . S
H265 C261 0.950 . S
H266 C263 0.950 . S
C267 C258 1.390 . S
C267 H260 0.950 . S
C267 C264 1.387 . S
C268 C269 1.387 . S
C268 H272 0.950 . S
C268 C277 1.390 . S
C269 C268 1.387 . S
C269 C271 1.387 . S
H270 C277 0.950 . S
C271 C269 1.387 . S
C271 C273 1.390 . S
C271 H275 0.950 . S
H272 C268 0.950 . S
C273 C271 1.390 . S
C273 C274 1.387 . S
C273 H276 0.950 . S
C274 C273 1.387 . S
C274 C277 1.387 . S
H275 C271 0.950 . S
H276 C273 0.950 . S
C277 C268 1.390 . S
C277 H270 0.950 . S
C277 C274 1.387 . S
C278 C279 1.387 . S
C278 H282 0.950 . S
C278 C287 1.390 . S
C279 C278 1.387 . S
C279 C281 1.387 . S
H280 C287 0.950 . S
C281 C279 1.387 . S
C281 C283 1.390 . S
C281 H285 0.950 . S
H282 C278 0.950 . S
C283 C281 1.390 . S
C283 C284 1.387 . S
C283 H286 0.950 . S
C284 C283 1.387 . S
C284 C287 1.387 . S
H285 C281 0.950 . S
H286 C283 0.950 . S
C287 C278 1.390 . S
C287 H280 0.950 . S
C287 C284 1.387 . S
C288 C289 1.387 . S
C288 H292 0.950 . S
C288 C297 1.390 . S
C289 C288 1.387 . S
C289 C291 1.387 . S
H290 C297 0.950 . S
C291 C289 1.387 . S
C291 C293 1.390 . S
C291 H295 0.950 . S
H292 C288 0.950 . S
C293 C291 1.390 . S
C293 C294 1.387 . S
C293 H296 0.950 . S
C294 C293 1.387 . S
C294 C297 1.387 . S
H295 C291 0.950 . S
H296 C293 0.950 . S
C297 C288 1.390 . S
C297 H290 0.950 . S
C297 C294 1.387 . S
C298 C299 1.387 . S
C298 H302 0.950 . S
C298 C307 1.390 . S
C299 C298 1.387 . S
C299 C301 1.387 . S
H300 C307 0.950 . S
C301 C299 1.387 . S
C301 C303 1.390 . S
C301 H305 0.950 . S
H302 C298 0.950 . S
C303 C301 1.390 . S
C303 C304 1.387 . S
C303 H306 0.950 . S
C304 C303 1.387 . S
C304 C307 1.387 . S
H305 C301 0.950 . S
H306 C303 0.950 . S
C307 C298 1.390 . S
C307 H300 0.950 . S
C307 C304 1.387 . S
C308 C309 1.387 . S
C308 H312 0.950 . S
C308 C317 1.390 . S
C309 C308 1.387 . S
C309 C311 1.387 . S
H310 C317 0.950 . S
C311 C309 1.387 . S
C311 C313 1.390 . S
C311 H315 0.950 . S
H312 C308 0.950 . S
C313 C311 1.390 . S
C313 C314 1.387 . S
C313 H316 0.950 . S
C314 C313 1.387 . S
C314 C317 1.387 . S
H315 C311 0.950 . S
H316 C313 0.950 . S
C317 C308 1.390 . S
C317 H310 0.950 . S
C317 C314 1.387 . S
C318 C319 1.387 . S
C318 H322 0.950 . S
C318 C327 1.390 1_554 S
C319 C318 1.387 . S
C319 C321 1.387 . S
H320 C327 0.950 . S
C321 C319 1.387 . S
C321 C323 1.390 1_554 S
C321 H325 0.950 . S
H322 C318 0.950 . S
C323 C321 1.390 1_556 S
C323 C324 1.387 . S
C323 H326 0.950 . S
C324 C323 1.387 . S
C324 C327 1.387 . S
H325 C321 0.950 . S
H326 C323 0.950 . S
C327 C318 1.390 1_556 S
C327 H320 0.950 . S
C327 C324 1.387 . S
C328 C329 1.387 . S
C328 H332 0.950 . S
C328 C337 1.390 1_554 S
C329 C328 1.387 . S
C329 C331 1.387 . S
H330 C337 0.950 . S
C331 C329 1.387 . S
C331 C333 1.390 1_554 S
C331 H335 0.950 . S
H332 C328 0.950 . S
C333 C331 1.390 1_556 S
C333 C334 1.387 . S
C333 H336 0.950 . S
C334 C333 1.387 . S
C334 C337 1.387 . S
H335 C331 0.950 . S
H336 C333 0.950 . S
C337 C328 1.390 1_556 S
C337 H330 0.950 . S
C337 C334 1.387 . S
C338 C339 1.387 . S
C338 H342 0.950 . S
C338 C347 1.390 . S
C339 C338 1.387 . S
C339 C341 1.387 . S
H340 C347 0.950 . S
C341 C339 1.387 . S
C341 C343 1.390 . S
C341 H345 0.950 . S
H342 C338 0.950 . S
C343 C341 1.390 . S
C343 C344 1.387 . S
C343 H346 0.950 . S
C344 C343 1.387 . S
C344 C347 1.387 . S
H345 C341 0.950 . S
H346 C343 0.950 . S
C347 C338 1.390 . S
C347 H340 0.950 . S
C347 C344 1.387 . S
C348 C349 1.387 . S
C348 H352 0.950 . S
C348 C357 1.390 . S
C349 C348 1.387 . S
C349 C351 1.387 . S
H350 C357 0.950 . S
C351 C349 1.387 . S
C351 C353 1.390 . S
C351 H355 0.950 . S
H352 C348 0.950 . S
C353 C351 1.390 . S
C353 C354 1.387 . S
C353 H356 0.950 . S
C354 C353 1.387 . S
C354 C357 1.387 . S
H355 C351 0.950 . S
H356 C353 0.950 . S
C357 C348 1.390 . S
C357 H350 0.950 . S
C357 C354 1.387 . S
C358 C359 1.387 . S
C358 H362 0.950 . S
C358 C367 1.390 . S
C359 C358 1.387 . S
C359 C361 1.387 . S
H360 C367 0.950 . S
C361 C359 1.387 . S
C361 C363 1.390 . S
C361 H365 0.950 . S
H362 C358 0.950 . S
C363 C361 1.390 . S
C363 C364 1.387 . S
C363 H366 0.950 . S
C364 C363 1.387 . S
C364 C367 1.387 . S
H365 C361 0.950 . S
H366 C363 0.950 . S
C367 C358 1.390 . S
C367 H360 0.950 . S
C367 C364 1.387 . S
C368 C369 1.387 . S
C368 H372 0.950 . S
C368 C377 1.390 1_445 S
C369 C368 1.387 . S
C369 C371 1.387 . S
H370 C377 0.950 . S
C371 C369 1.387 . S
C371 C373 1.390 1_445 S
C371 H375 0.950 . S
H372 C368 0.950 . S
C373 C371 1.390 1_665 S
C373 C374 1.387 . S
C373 H376 0.950 . S
C374 C373 1.387 . S
C374 C377 1.387 . S
H375 C371 0.950 . S
H376 C373 0.950 . S
C377 C368 1.390 1_665 S
C377 H370 0.950 . S
C377 C374 1.387 . S
C378 C379 1.387 . S
C378 H382 0.950 . S
C378 C387 1.390 1_455 S
C379 C378 1.387 . S
C379 C381 1.387 . S
H380 C387 0.950 . S
C381 C379 1.387 . S
C381 C383 1.390 1_455 S
C381 H385 0.950 . S
H382 C378 0.950 . S
C383 C381 1.390 1_655 S
C383 C384 1.387 . S
C383 H386 0.950 . S
C384 C383 1.387 . S
C384 C387 1.387 . S
H385 C381 0.950 . S
H386 C383 0.950 . S
C387 C378 1.390 1_655 S
C387 H380 0.950 . S
C387 C384 1.387 . S
C388 C389 1.387 . S
C388 H392 0.950 . S
C388 C397 1.390 . S
C389 C388 1.387 . S
C389 C391 1.387 . S
H390 C397 0.950 . S
C391 C389 1.387 . S
C391 C393 1.390 . S
C391 H395 0.950 . S
H392 C388 0.950 . S
C393 C391 1.390 . S
C393 C394 1.387 . S
C393 H396 0.950 . S
C394 C393 1.387 . S
C394 C397 1.387 . S
H395 C391 0.950 . S
H396 C393 0.950 . S
C397 C388 1.390 . S
C397 H390 0.950 . S
C397 C394 1.387 . S
C398 C399 1.387 . S
C398 H402 0.950 . S
C398 C407 1.390 1_545 S
C399 C398 1.387 . S
C399 C401 1.387 . S
H400 C407 0.950 . S
C401 C399 1.387 . S
C401 C403 1.390 1_545 S
C401 H405 0.950 . S
H402 C398 0.950 . S
C403 C401 1.390 1_565 S
C403 C404 1.387 . S
C403 H406 0.950 . S
C404 C403 1.387 . S
C404 C407 1.387 . S
H405 C401 0.950 . S
H406 C403 0.950 . S
C407 C398 1.390 1_565 S
C407 H400 0.950 . S
C407 C404 1.387 . S
C408 C409 1.387 . S
C408 H412 0.950 . S
C408 C417 1.390 1_455 S
C409 C408 1.387 . S
C409 C411 1.387 . S
H410 C417 0.950 . S
C411 C409 1.387 . S
C411 C413 1.390 1_455 S
C411 H415 0.950 . S
H412 C408 0.950 . S
C413 C411 1.390 1_655 S
C413 C414 1.387 . S
C413 H416 0.950 . S
C414 C413 1.387 . S
C414 C417 1.387 . S
H415 C411 0.950 . S
H416 C413 0.950 . S
C417 C408 1.390 1_655 S
C417 H410 0.950 . S
C417 C414 1.387 . S
C418 C419 1.387 . S
C418 H422 0.950 . S
C418 C427 1.390 . S
C419 C418 1.387 . S
C419 C421 1.387 . S
H420 C427 0.950 . S
C421 C419 1.387 . S
C421 C423 1.390 . S
C421 H425 0.950 . S
H422 C418 0.950 . S
C423 C421 1.390 . S
C423 C424 1.387 . S
C423 H426 0.950 . S
C424 C423 1.387 . S
C424 C427 1.387 . S
H425 C421 0.950 . S
H426 C423 0.950 . S
C427 C418 1.390 . S
C427 H420 0.950 . S
C427 C424 1.387 . S
C428 C429 1.387 . S
C428 H432 0.950 . S
C428 C437 1.390 1_565 S
C429 C428 1.387 . S
C429 C431 1.387 . S
H430 C437 0.950 . S
C431 C429 1.387 . S
C431 C433 1.390 1_565 S
C431 H435 0.950 . S
H432 C428 0.950 . S
C433 C431 1.390 1_545 S
C433 C434 1.387 . S
C433 H436 0.950 . S
C434 C433 1.387 . S
C434 C437 1.387 . S
H435 C431 0.950 . S
H436 C433 0.950 . S
C437 C428 1.390 1_545 S
C437 H430 0.950 . S
C437 C434 1.387 . S
C438 C439 1.387 . S
C438 H442 0.950 . S
C438 C447 1.390 1_445 S
C439 C438 1.387 . S
C439 C441 1.387 . S
H440 C447 0.950 . S
C441 C439 1.387 . S
C441 C443 1.390 1_445 S
C441 H445 0.950 . S
H442 C438 0.950 . S
C443 C441 1.390 1_665 S
C443 C444 1.387 . S
C443 H446 0.950 . S
C444 C443 1.387 . S
C444 C447 1.387 . S
H445 C441 0.950 . S
H446 C443 0.950 . S
C447 C438 1.390 1_665 S
C447 H440 0.950 . S
C447 C444 1.387 . S
C448 C449 1.387 . S
C448 H452 0.950 . S
C448 C457 1.390 1_565 S
C449 C448 1.387 . S
C449 C451 1.387 . S
H450 C457 0.950 . S
C451 C449 1.387 . S
C451 C453 1.390 1_565 S
C451 H455 0.950 . S
H452 C448 0.950 . S
C453 C451 1.390 1_545 S
C453 C454 1.387 . S
C453 H456 0.950 . S
C454 C453 1.387 . S
C454 C457 1.387 . S
H455 C451 0.950 . S
H456 C453 0.950 . S
C457 C448 1.390 1_545 S
C457 H450 0.950 . S
C457 C454 1.387 . S
C458 C459 1.387 . S
C458 H462 0.950 . S
C458 C467 1.390 1_665 S
C459 C458 1.387 . S
C459 C461 1.387 . S
H460 C467 0.950 . S
C461 C459 1.387 . S
C461 C463 1.390 1_665 S
C461 H465 0.950 . S
H462 C458 0.950 . S
C463 C461 1.390 1_445 S
C463 C464 1.387 . S
C463 H466 0.950 . S
C464 C463 1.387 . S
C464 C467 1.387 . S
H465 C461 0.950 . S
H466 C463 0.950 . S
C467 C458 1.390 1_445 S
C467 H460 0.950 . S
C467 C464 1.387 . S
C468 C469 1.387 . S
C468 H472 0.950 . S
C468 C477 1.390 1_455 S
C469 C468 1.387 . S
C469 C471 1.387 . S
H470 C477 0.950 . S
C471 C469 1.387 . S
C471 C473 1.390 1_455 S
C471 H475 0.950 . S
H472 C468 0.950 . S
C473 C471 1.390 1_655 S
C473 C474 1.387 . S
C473 H476 0.950 . S
C474 C473 1.387 . S
C474 C477 1.387 . S
H475 C471 0.950 . S
H476 C473 0.950 . S
C477 C468 1.390 1_655 S
C477 H470 0.950 . S
C477 C474 1.387 . S
C478 C479 1.387 . S
C478 H482 0.950 . S
C478 C487 1.390 . S
C479 C478 1.387 . S
C479 C481 1.387 . S
H480 C487 0.950 . S
C481 C479 1.387 . S
C481 C483 1.390 . S
C481 H485 0.950 . S
H482 C478 0.950 . S
C483 C481 1.390 . S
C483 C484 1.387 . S
C483 H486 0.950 . S
C484 C483 1.387 . S
C484 C487 1.387 . S
H485 C481 0.950 . S
H486 C483 0.950 . S
C487 C478 1.390 . S
C487 H480 0.950 . S
C487 C484 1.387 . S
C488 C489 1.387 . S
C488 H492 0.950 . S
C488 C497 1.390 . S
C489 C488 1.387 . S
C489 C491 1.387 . S
H490 C497 0.950 . S
C491 C489 1.387 . S
C491 C493 1.390 . S
C491 H495 0.950 . S
H492 C488 0.950 . S
C493 C491 1.390 . S
C493 C494 1.387 . S
C493 H496 0.950 . S
C494 C493 1.387 . S
C494 C497 1.387 . S
H495 C491 0.950 . S
H496 C493 0.950 . S
C497 C488 1.390 . S
C497 H490 0.950 . S
C497 C494 1.387 . S
C498 C499 1.387 . S
C498 H502 0.950 . S
C498 C507 1.390 1_545 S
C499 C498 1.387 . S
C499 C501 1.387 . S
H500 C507 0.950 . S
C501 C499 1.387 . S
C501 C503 1.390 1_545 S
C501 H505 0.950 . S
H502 C498 0.950 . S
C503 C501 1.390 1_565 S
C503 C504 1.387 . S
C503 H506 0.950 . S
C504 C503 1.387 . S
C504 C507 1.387 . S
H505 C501 0.950 . S
H506 C503 0.950 . S
C507 C498 1.390 1_565 S
C507 H500 0.950 . S
C507 C504 1.387 . S
C508 C509 1.387 . S
C508 H512 0.950 . S
C508 C517 1.390 1_665 S
C509 C508 1.387 . S
C509 C511 1.387 . S
H510 C517 0.950 . S
C511 C509 1.387 . S
C511 C513 1.390 1_665 S
C511 H515 0.950 . S
H512 C508 0.950 . S
C513 C511 1.390 1_445 S
C513 C514 1.387 . S
C513 H516 0.950 . S
C514 C513 1.387 . S
C514 C517 1.387 . S
H515 C511 0.950 . S
H516 C513 0.950 . S
C517 C508 1.390 1_445 S
C517 H510 0.950 . S
C517 C514 1.387 . S
C518 C519 1.387 . S
C518 H522 0.950 . S
C518 C527 1.390 1_655 S
C519 C518 1.387 . S
C519 C521 1.387 . S
H520 C527 0.950 . S
C521 C519 1.387 . S
C521 C523 1.390 1_655 S
C521 H525 0.950 . S
H522 C518 0.950 . S
C523 C521 1.390 1_455 S
C523 C524 1.387 . S
C523 H526 0.950 . S
C524 C523 1.387 . S
C524 C527 1.387 . S
H525 C521 0.950 . S
H526 C523 0.950 . S
C527 C518 1.390 1_455 S
C527 H520 0.950 . S
C527 C524 1.387 . S
C209 C60 1.179 . S
C214 C8 1.179 . S
C219 C21 1.176 . S
C224 C73 1.176 . S
C229 C86 1.176 . S
C234 C34 1.176 . S
C239 C99 1.175 . S
C244 C47 1.175 . S
C249 C164 1.179 . S
C254 C112 1.179 . S
C259 C125 1.176 . S
C264 C177 1.176 . S
C269 C190 1.180 . S
C274 C138 1.180 . S
C279 C151 1.179 . S
C284 C203 1.179 . S
C289 C10 1.346 . S
C294 C205 1.346 . S
C299 C23 1.346 . S
C304 C166 1.346 . S
C309 C36 1.346 . S
C314 C179 1.346 . S
C319 C192 1.346 . S
C324 C49 1.346 . S
C329 C62 1.346 . S
C334 C127 1.346 . S
C339 C75 1.346 . S
C344 C140 1.346 . S
C349 C153 1.346 . S
C354 C88 1.346 . S
C359 C114 1.346 . S
C364 C101 1.346 . S
C369 C0 1.473 . S
C374 C130 1.473 . S
C379 C143 1.474 . S
C384 C13 1.474 . S
C389 C26 1.474 . S
C394 C104 1.474 . S
C399 C117 1.474 . S
C404 C39 1.474 . S
C409 C52 1.473 . S
C414 C182 1.473 . S
C419 C65 1.473 . S
C424 C195 1.473 . S
C429 C156 1.473 . S
C434 C78 1.473 . S
C439 C169 1.474 . S
C444 C91 1.474 . S
C449 C135 1.444 . S
C454 C5 1.444 . S
C459 C18 1.444 . S
C464 C148 1.444 . S
C469 C31 1.441 . S
C474 C109 1.441 . S
C479 C122 1.444 . S
C484 C44 1.444 . S
C489 C187 1.441 . S
C494 C57 1.441 . S
C499 C200 1.441 . S
C504 C70 1.441 . S
C509 C161 1.441 . S
C514 C83 1.441 . S
C519 C96 1.441 . S
C524 C174 1.441 . S
