# Generated by pormake.
# Topology ukb, (4)-cn, num edge types: 1
# Building blocks:
#     Node 0, Type 0, BuildingBlock: QUQFOY_clean_sbu_1, # of connection points: 4
#     Node 1, Type 0, BuildingBlock: QUQFOY_clean_sbu_1, # of connection points: 4
#     Node 2, Type 0, BuildingBlock: QUQFOY_clean_sbu_1, # of connection points: 4
#     Node 3, Type 0, BuildingBlock: QUQFOY_clean_sbu_1, # of connection points: 4
#     Node 4, Type 0, BuildingBlock: QUQFOY_clean_sbu_1, # of connection points: 4
#     Node 5, Type 0, BuildingBlock: QUQFOY_clean_sbu_1, # of connection points: 4
#     Node 6, Type 0, BuildingBlock: QUQFOY_clean_sbu_1, # of connection points: 4
#     Node 7, Type 0, BuildingBlock: QUQFOY_clean_sbu_1, # of connection points: 4
#     Node 8, Type 0, BuildingBlock: QUQFOY_clean_sbu_1, # of connection points: 4
#     Node 9, Type 0, BuildingBlock: QUQFOY_clean_sbu_1, # of connection points: 4
#     Node 10, Type 0, BuildingBlock: QUQFOY_clean_sbu_1, # of connection points: 4
#     Node 11, Type 0, BuildingBlock: QUQFOY_clean_sbu_1, # of connection points: 4
#     Node 12, Type 0, BuildingBlock: QUQFOY_clean_sbu_1, # of connection points: 4
#     Node 13, Type 0, BuildingBlock: QUQFOY_clean_sbu_1, # of connection points: 4
#     Node 14, Type 0, BuildingBlock: QUQFOY_clean_sbu_1, # of connection points: 4
#     Node 15, Type 0, BuildingBlock: QUQFOY_clean_sbu_1, # of connection points: 4
#     Edge 16, Type (0, 0), BuildingBlock: TEMPAE_clean_linker_10, # of connection points: 2
#     Edge 17, Type (0, 0), BuildingBlock: TEMPAE_clean_linker_10, # of connection points: 2
#     Edge 18, Type (0, 0), BuildingBlock: TEMPAE_clean_linker_10, # of connection points: 2
#     Edge 19, Type (0, 0), BuildingBlock: TEMPAE_clean_linker_10, # of connection points: 2
#     Edge 20, Type (0, 0), BuildingBlock: TEMPAE_clean_linker_10, # of connection points: 2
#     Edge 21, Type (0, 0), BuildingBlock: TEMPAE_clean_linker_10, # of connection points: 2
#     Edge 22, Type (0, 0), BuildingBlock: TEMPAE_clean_linker_10, # of connection points: 2
#     Edge 23, Type (0, 0), BuildingBlock: TEMPAE_clean_linker_10, # of connection points: 2
#     Edge 24, Type (0, 0), BuildingBlock: TEMPAE_clean_linker_10, # of connection points: 2
#     Edge 25, Type (0, 0), BuildingBlock: TEMPAE_clean_linker_10, # of connection points: 2
#     Edge 26, Type (0, 0), BuildingBlock: TEMPAE_clean_linker_10, # of connection points: 2
#     Edge 27, Type (0, 0), BuildingBlock: TEMPAE_clean_linker_10, # of connection points: 2
#     Edge 28, Type (0, 0), BuildingBlock: TEMPAE_clean_linker_10, # of connection points: 2
#     Edge 29, Type (0, 0), BuildingBlock: TEMPAE_clean_linker_10, # of connection points: 2
#     Edge 30, Type (0, 0), BuildingBlock: TEMPAE_clean_linker_10, # of connection points: 2
#     Edge 31, Type (0, 0), BuildingBlock: TEMPAE_clean_linker_10, # of connection points: 2
#     Edge 32, Type (0, 0), BuildingBlock: TEMPAE_clean_linker_10, # of connection points: 2
#     Edge 33, Type (0, 0), BuildingBlock: TEMPAE_clean_linker_10, # of connection points: 2
#     Edge 34, Type (0, 0), BuildingBlock: TEMPAE_clean_linker_10, # of connection points: 2
#     Edge 35, Type (0, 0), BuildingBlock: TEMPAE_clean_linker_10, # of connection points: 2
#     Edge 36, Type (0, 0), BuildingBlock: TEMPAE_clean_linker_10, # of connection points: 2
#     Edge 37, Type (0, 0), BuildingBlock: TEMPAE_clean_linker_10, # of connection points: 2
#     Edge 38, Type (0, 0), BuildingBlock: TEMPAE_clean_linker_10, # of connection points: 2
#     Edge 39, Type (0, 0), BuildingBlock: TEMPAE_clean_linker_10, # of connection points: 2
#     Edge 40, Type (0, 0), BuildingBlock: TEMPAE_clean_linker_10, # of connection points: 2
#     Edge 41, Type (0, 0), BuildingBlock: TEMPAE_clean_linker_10, # of connection points: 2
#     Edge 42, Type (0, 0), BuildingBlock: TEMPAE_clean_linker_10, # of connection points: 2
#     Edge 43, Type (0, 0), BuildingBlock: TEMPAE_clean_linker_10, # of connection points: 2
#     Edge 44, Type (0, 0), BuildingBlock: TEMPAE_clean_linker_10, # of connection points: 2
#     Edge 45, Type (0, 0), BuildingBlock: TEMPAE_clean_linker_10, # of connection points: 2
#     Edge 46, Type (0, 0), BuildingBlock: TEMPAE_clean_linker_10, # of connection points: 2
#     Edge 47, Type (0, 0), BuildingBlock: TEMPAE_clean_linker_10, # of connection points: 2
# Relax obj value: 0.039
# Max RMSD: 0.067
# Mean RMSD: 0.067
data_MOF--net-ukb--node1-QUQFOY_clean_sbu_1--edge1-TEMPAE_clean_linker_10
_symmetry_space_group_name_H-M    P1
_symmetry_Int_Tables_number       1
_symmetry_cell_setting            triclinic
loop_
_symmetry_equiv_pos_as_xyz
'x, y, z'
_cell_length_a     46.214799
_cell_length_b     46.237451
_cell_length_c     43.309372
_cell_angle_alpha  89.993621
_cell_angle_beta   89.989903
_cell_angle_gamma 89.992971
loop_
_atom_site_label
_atom_site_type_symbol
_atom_site_fract_x
_atom_site_fract_y
_atom_site_fract_z
_atom_type_partial_charge
O0 O 0.57006 0.2365 0.18161 0.0
Cd1 Cd 0.56146 0.19957 0.1568 0.0
Cd2 Cd 0.52918 0.18816 0.20879 0.0
O3 O 0.53625 0.23173 0.2172 0.0
O4 O 0.57705 0.20783 0.11469 0.0
O5 O 0.53033 0.2023 0.12408 0.0
C6 C 0.5508 0.20807 0.10473 0.0
C7 C 0.48391 0.16696 0.21607 0.0
C8 C 0.55621 0.24653 0.20459 0.0
C9 C 0.5824 0.15191 0.19752 0.0
O10 O 0.56334 0.16028 0.21673 0.0
O11 O 0.58367 0.16306 0.17071 0.0
O12 O 0.4988 0.17644 0.23907 0.0
O13 O 0.49407 0.17067 0.18856 0.0
O14 O 0.34436 0.56371 0.72458 0.0
Cd15 Cd 0.31606 0.52904 0.72443 0.0
Cd16 Cd 0.29728 0.55784 0.67018 0.0
O17 O 0.33272 0.58342 0.67975 0.0
O18 O 0.33199 0.50085 0.75493 0.0
O19 O 0.33038 0.49231 0.70463 0.0
C20 C 0.33779 0.48407 0.73202 0.0
C21 C 0.28436 0.55067 0.6183 0.0
C22 C 0.34831 0.5829 0.70394 0.0
C23 C 0.25604 0.55282 0.72504 0.0
O24 O 0.26212 0.56312 0.69865 0.0
O25 O 0.27399 0.53664 0.73904 0.0
O26 O 0.28115 0.57524 0.63177 0.0
O27 O 0.29604 0.52997 0.63394 0.0
O28 O 0.93713 0.25762 0.19106 0.0
Cd29 Cd 0.94119 0.29315 0.16289 0.0
Cd30 Cd 0.97211 0.31081 0.21767 0.0
O31 O 0.9641 0.26863 0.23148 0.0
O32 O 0.92383 0.2774 0.12423 0.0
O33 O 0.9688 0.29326 0.1264 0.0
C34 C 0.94822 0.2815 0.11063 0.0
C35 C 0.01574 0.33336 0.23093 0.0
C36 C 0.94776 0.25103 0.21717 0.0
C37 C 0.91722 0.34336 0.1981 0.0
O38 O 0.93749 0.33913 0.21741 0.0
O39 O 0.91529 0.32803 0.17382 0.0
O40 O 0.99611 0.32798 0.25121 0.0
O41 O 0.01134 0.32458 0.20301 0.0
O42 O 0.15899 0.93868 0.72237 0.0
Cd43 Cd 0.18722 0.97342 0.7217 0.0
Cd44 Cd 0.20618 0.94382 0.66802 0.0
O45 O 0.17089 0.91812 0.67803 0.0
O46 O 0.1712 0.00203 0.75168 0.0
O47 O 0.17293 0.00984 0.70124 0.0
C48 C 0.16548 0.01849 0.72848 0.0
C49 C 0.21924 0.95083 0.61614 0.0
C50 C 0.15521 0.91906 0.70216 0.0
C51 C 0.24732 0.94984 0.72283 0.0
O52 O 0.24132 0.93915 0.6966 0.0
O53 O 0.22926 0.96612 0.73654 0.0
O54 O 0.22257 0.92634 0.62974 0.0
O55 O 0.20728 0.9715 0.6316 0.0
O56 O 0.57111 0.26293 0.81358 0.0
Cd57 Cd 0.56242 0.29931 0.83935 0.0
Cd58 Cd 0.53092 0.31216 0.78758 0.0
O59 O 0.53784 0.26887 0.77764 0.0
O60 O 0.57767 0.29007 0.88136 0.0
O61 O 0.53104 0.29599 0.87175 0.0
C62 C 0.55136 0.2898 0.89112 0.0
C63 C 0.48562 0.33371 0.78221 0.0
C64 C 0.55756 0.25361 0.79006 0.0
C65 C 0.58403 0.34791 0.80026 0.0
O66 O 0.56521 0.34008 0.78054 0.0
O67 O 0.58487 0.33611 0.82677 0.0
O68 O 0.50005 0.32511 0.75847 0.0
O69 O 0.49628 0.32892 0.80931 0.0
O70 O 0.15503 0.56461 0.29426 0.0
Cd71 Cd 0.18418 0.53076 0.29105 0.0
Cd72 Cd 0.20371 0.55998 0.34617 0.0
O73 O 0.16827 0.58588 0.33772 0.0
O74 O 0.16611 0.50722 0.25768 0.0
O75 O 0.17242 0.49072 0.30507 0.0
C76 C 0.16249 0.4868 0.27751 0.0
C77 C 0.21753 0.55193 0.3976 0.0
C78 C 0.15163 0.58432 0.31442 0.0
C79 C 0.24374 0.55586 0.28986 0.0
O80 O 0.23817 0.56522 0.31678 0.0
O81 O 0.2256 0.54015 0.2755 0.0
O82 O 0.22083 0.57664 0.38446 0.0
O83 O 0.20532 0.53158 0.3819 0.0
O84 O 0.93963 0.24756 0.80682 0.0
Cd85 Cd 0.94363 0.21158 0.83437 0.0
Cd86 Cd 0.97493 0.1944 0.78149 0.0
O87 O 0.96868 0.23699 0.76805 0.0
O88 O 0.92545 0.22648 0.87299 0.0
O89 O 0.97067 0.21128 0.87133 0.0
C90 C 0.9497 0.22254 0.88693 0.0
C91 C 0.01969 0.17172 0.77587 0.0
C92 C 0.95155 0.25446 0.78145 0.0
C93 C 0.91982 0.16208 0.79736 0.0
O94 O 0.93993 0.16678 0.77793 0.0
O95 O 0.91833 0.17659 0.82226 0.0
O96 O 0.00442 0.17887 0.75218 0.0
O97 O 0.01015 0.1785 0.80296 0.0
O98 O 0.34441 0.93984 0.28686 0.0
Cd99 Cd 0.31594 0.97437 0.28783 0.0
Cd100 Cd 0.29938 0.94493 0.34332 0.0
O101 O 0.33492 0.91998 0.33223 0.0
O102 O 0.33036 0.00163 0.25555 0.0
O103 O 0.33123 0.01166 0.30553 0.0
C104 C 0.33733 0.01906 0.27751 0.0
C105 C 0.2873 0.95139 0.39556 0.0
C106 C 0.34948 0.92074 0.30732 0.0
C107 C 0.25621 0.94984 0.29009 0.0
O108 O 0.26353 0.93935 0.31602 0.0
O109 O 0.2733 0.96645 0.27544 0.0
O110 O 0.28443 0.92685 0.38195 0.0
O111 O 0.29836 0.97242 0.37992 0.0
O112 O 0.43779 0.84708 0.79276 0.0
Cd113 Cd 0.47128 0.81749 0.78929 0.0
Cd114 Cd 0.44199 0.798 0.84418 0.0
O115 O 0.41641 0.83372 0.83611 0.0
O116 O 0.49527 0.83559 0.75631 0.0
O117 O 0.51145 0.82839 0.80371 0.0
C118 C 0.51566 0.83858 0.7763 0.0
C119 C 0.44999 0.7837 0.89544 0.0
C120 C 0.41814 0.85054 0.81298 0.0
C121 C 0.44559 0.75827 0.78764 0.0
O122 O 0.43635 0.76379 0.81462 0.0
O123 O 0.46144 0.77634 0.77334 0.0
O124 O 0.42521 0.78075 0.88233 0.0
O125 O 0.47044 0.79585 0.87982 0.0
O126 O 0.65848 0.43913 0.27681 0.0
Cd127 Cd 0.68744 0.47239 0.28411 0.0
Cd128 Cd 0.69858 0.44148 0.33624 0.0
O129 O 0.66152 0.4197 0.32322 0.0
O130 O 0.6755 0.50389 0.25536 0.0
O131 O 0.6717 0.5072 0.30626 0.0
C132 C 0.66718 0.51824 0.27927 0.0
C133 C 0.70693 0.45308 0.38808 0.0
C134 C 0.64998 0.42068 0.29659 0.0
C135 C 0.74514 0.44409 0.28758 0.0
O136 O 0.7353 0.43151 0.31148 0.0
O137 O 0.73047 0.46383 0.2744 0.0
O138 O 0.70646 0.42667 0.37871 0.0
O139 O 0.7017 0.47324 0.36821 0.0
O140 O 0.06512 0.65619 0.79379 0.0
Cd141 Cd 0.03151 0.68558 0.78984 0.0
Cd142 Cd 0.06081 0.70545 0.84542 0.0
O143 O 0.08653 0.66987 0.83703 0.0
O144 O 0.00853 0.66757 0.75594 0.0
O145 O 0.99102 0.67413 0.80287 0.0
C146 C 0.98762 0.66418 0.77524 0.0
C147 C 0.05319 0.71945 0.89692 0.0
C148 C 0.08483 0.65294 0.81398 0.0
C149 C 0.05697 0.74511 0.7887 0.0
O150 O 0.06601 0.73975 0.8158 0.0
O151 O 0.04146 0.72686 0.77426 0.0
O152 O 0.07781 0.72267 0.88352 0.0
O153 O 0.03268 0.70729 0.88142 0.0
O154 O 0.84151 0.06129 0.28706 0.0
Cd155 Cd 0.81214 0.0279 0.29199 0.0
Cd156 Cd 0.79883 0.05818 0.34462 0.0
O157 O 0.83612 0.08031 0.33343 0.0
O158 O 0.82481 0.99774 0.26195 0.0
O159 O 0.82739 0.99206 0.31268 0.0
C160 C 0.83255 0.98228 0.28528 0.0
C161 C 0.78939 0.04624 0.39613 0.0
C162 C 0.84901 0.07952 0.30752 0.0
C163 C 0.75386 0.05574 0.29437 0.0
O164 O 0.76278 0.06813 0.31877 0.0
O165 O 0.76922 0.03646 0.28131 0.0
O166 O 0.78965 0.07268 0.38686 0.0
O167 O 0.79524 0.02621 0.37631 0.0
O168 O 0.43695 0.65842 0.22346 0.0
Cd169 Cd 0.4715 0.68688 0.22194 0.0
Cd170 Cd 0.44228 0.70375 0.16766 0.0
O171 O 0.41708 0.66832 0.17823 0.0
O172 O 0.50026 0.67191 0.25235 0.0
O173 O 0.50795 0.67224 0.20184 0.0
C174 C 0.51669 0.66559 0.22928 0.0
C175 C 0.44963 0.7158 0.11563 0.0
C176 C 0.41777 0.65359 0.20302 0.0
C177 C 0.44728 0.74659 0.22093 0.0
O178 O 0.43653 0.73952 0.19505 0.0
O179 O 0.46401 0.72934 0.23519 0.0
O180 O 0.42488 0.71882 0.1288 0.0
O181 O 0.47039 0.70464 0.13163 0.0
O182 O 0.84549 0.44152 0.70757 0.0
Cd183 Cd 0.81489 0.47415 0.70788 0.0
Cd184 Cd 0.79918 0.44306 0.65345 0.0
O185 O 0.83699 0.42095 0.66251 0.0
O186 O 0.82988 0.49806 0.74268 0.0
O187 O 0.82711 0.51442 0.69489 0.0
C188 C 0.83504 0.51841 0.72317 0.0
C189 C 0.78708 0.45383 0.60219 0.0
C190 C 0.85177 0.42282 0.68714 0.0
C191 C 0.75699 0.44461 0.70717 0.0
O192 O 0.76461 0.4334 0.68162 0.0
O193 O 0.7729 0.46332 0.72047 0.0
O194 O 0.78779 0.42762 0.61215 0.0
O195 O 0.79385 0.4743 0.62113 0.0
O196 O 0.06336 0.84474 0.22501 0.0
Cd197 Cd 0.0291 0.81596 0.22383 0.0
Cd198 Cd 0.0595 0.7979 0.17018 0.0
O199 O 0.08458 0.83345 0.18084 0.0
O200 O 1.00049 0.83104 0.25436 0.0
O201 O 0.9923 0.8301 0.20397 0.0
C202 C 0.98377 0.83693 0.23142 0.0
C203 C 0.05278 0.78565 0.11805 0.0
C204 C 0.08313 0.84896 0.20505 0.0
C205 C 0.05354 0.75613 0.22437 0.0
O206 O 0.06442 0.76247 0.19832 0.0
O207 O 0.03694 0.77388 0.2381 0.0
O208 O 0.07729 0.78238 0.13165 0.0
O209 O 0.0319 0.79702 0.1337 0.0
O210 O 0.65945 0.06179 0.71923 0.0
Cd211 Cd 0.68959 0.02889 0.71726 0.0
Cd212 Cd 0.70197 0.05795 0.66217 0.0
O213 O 0.66483 0.0806 0.67282 0.0
O214 O 0.67576 0.0035 0.75135 0.0
O215 O 0.67692 0.98938 0.70262 0.0
C216 C 0.6699 0.98412 0.73094 0.0
C217 C 0.71151 0.04579 0.61069 0.0
C218 C 0.65188 0.07986 0.69868 0.0
C219 C 0.74708 0.05801 0.71312 0.0
O220 O 0.73806 0.06842 0.68771 0.0
O221 O 0.73197 0.03961 0.72788 0.0
O222 O 0.71119 0.07226 0.61984 0.0
O223 O 0.70569 0.02584 0.6306 0.0
C224 C 0.43772 0.15791 0.24428 0.0
C225 C 0.45774 0.14953 0.2217 0.0
C226 C 0.41492 0.13949 0.25289 0.0
C227 C 0.41308 0.1115 0.23973 0.0
C228 C 0.43301 0.10323 0.21645 0.0
C229 C 0.45475 0.12263 0.20726 0.0
C230 C 0.39335 0.14964 0.27671 0.0
C231 C 0.43251 0.07326 0.20258 0.0
C232 C 0.37961 0.05096 0.2872 0.0
C233 C 0.35427 0.04527 0.2706 0.0
C234 C 0.39876 0.07279 0.27766 0.0
C235 C 0.39172 0.09009 0.25168 0.0
C236 C 0.36517 0.08554 0.23608 0.0
C237 C 0.34709 0.06266 0.24526 0.0
C238 C 0.42727 0.0762 0.29431 0.0
C239 C 0.35624 0.1043 0.2092 0.0
H240 H 0.44013 0.17877 0.25544 0.0
H241 H 0.47057 0.11602 0.19016 0.0
H242 H 0.37095 0.14491 0.26897 0.0
H243 H 0.39686 0.13787 0.2987 0.0
H244 H 0.39528 0.1732 0.28132 0.0
H245 H 0.4493 0.07037 0.18448 0.0
H246 H 0.43616 0.05695 0.22098 0.0
H247 H 0.41103 0.06873 0.19227 0.0
H248 H 0.38531 0.03716 0.30651 0.0
H249 H 0.32744 0.05818 0.23246 0.0
H250 H 0.42976 0.09867 0.30282 0.0
H251 H 0.44536 0.07199 0.27805 0.0
H252 H 0.42933 0.06119 0.31422 0.0
H253 H 0.35908 0.1275 0.21503 0.0
H254 H 0.33336 0.10058 0.20242 0.0
H255 H 0.37021 0.09963 0.18898 0.0
C256 C 0.34823 0.43903 0.76164 0.0
C257 C 0.35486 0.45759 0.73708 0.0
C258 C 0.36649 0.41574 0.7691 0.0
C259 C 0.39268 0.41195 0.75259 0.0
C260 C 0.39915 0.43044 0.72739 0.0
C261 C 0.3798 0.45268 0.71954 0.0
C262 C 0.35814 0.39574 0.79516 0.0
C263 C 0.42728 0.42784 0.70986 0.0
C264 C 0.45664 0.3776 0.79381 0.0
C265 C 0.45938 0.35138 0.77795 0.0
C266 C 0.43471 0.39735 0.78611 0.0
C267 C 0.41433 0.39008 0.7629 0.0
C268 C 0.41595 0.36272 0.74828 0.0
C269 C 0.43894 0.34398 0.75542 0.0
C270 C 0.43444 0.42665 0.80151 0.0
C271 C 0.39392 0.35359 0.72447 0.0
H272 H 0.32887 0.44291 0.77518 0.0
H273 H 0.38506 0.46738 0.70084 0.0
H274 H 0.36091 0.37284 0.78804 0.0
H275 H 0.37251 0.3995 0.81526 0.0
H276 H 0.33539 0.39907 0.80265 0.0
H277 H 0.42888 0.44374 0.6907 0.0
H278 H 0.44572 0.43134 0.72586 0.0
H279 H 0.4296 0.40579 0.70014 0.0
H280 H 0.47277 0.38346 0.81088 0.0
H281 H 0.44114 0.32365 0.74317 0.0
H282 H 0.41319 0.43062 0.81261 0.0
H283 H 0.43761 0.44379 0.78388 0.0
H284 H 0.45163 0.4288 0.81928 0.0
H285 H 0.37168 0.35793 0.73297 0.0
H286 H 0.39578 0.33027 0.71863 0.0
H287 H 0.39696 0.36634 0.70303 0.0
C288 C 0.06637 0.35102 0.22132 0.0
C289 C 0.04104 0.35142 0.23911 0.0
C290 C 0.08936 0.37003 0.22783 0.0
C291 C 0.08643 0.39054 0.25196 0.0
C292 C 0.0611 0.39054 0.27036 0.0
C293 C 0.03896 0.3707 0.26401 0.0
C294 C 0.11641 0.36874 0.20836 0.0
C295 C 0.05666 0.41254 0.29573 0.0
C296 C 0.14816 0.43495 0.28572 0.0
C297 C 0.1453 0.46093 0.2693 0.0
C298 C 0.13026 0.41112 0.27909 0.0
C299 C 0.10838 0.41378 0.25633 0.0
C300 C 0.10582 0.43984 0.23937 0.0
C301 C 0.12459 0.46288 0.24574 0.0
C302 C 0.13426 0.38338 0.29694 0.0
C303 C 0.08228 0.44397 0.21556 0.0
H304 H 0.06812 0.33601 0.20218 0.0
H305 H 0.01933 0.37127 0.27771 0.0
H306 H 0.11761 0.38815 0.19336 0.0
H307 H 0.13592 0.3688 0.22329 0.0
H308 H 0.11694 0.34921 0.19343 0.0
H309 H 0.03613 0.40902 0.30854 0.0
H310 H 0.07486 0.41175 0.31238 0.0
H311 H 0.05628 0.43461 0.28566 0.0
H312 H 0.1643 0.43331 0.3038 0.0
H313 H 0.12214 0.483 0.23314 0.0
H314 H 0.13483 0.36464 0.28095 0.0
H315 H 0.11568 0.38013 0.31278 0.0
H316 H 0.15446 0.38352 0.31085 0.0
H317 H 0.08346 0.42674 0.19781 0.0
H318 H 0.08372 0.4653 0.20384 0.0
H319 H 0.06077 0.44226 0.22682 0.0
C320 C 0.12304 0.04931 0.71621 0.0
C321 C 0.14851 0.04509 0.73306 0.0
C322 C 0.10396 0.07188 0.7237 0.0
C323 C 0.11122 0.09139 0.74776 0.0
C324 C 0.13787 0.08817 0.76354 0.0
C325 C 0.15587 0.06456 0.75654 0.0
C326 C 0.07532 0.07386 0.70704 0.0
C327 C 0.14703 0.10922 0.78832 0.0
C328 C 0.06554 0.15978 0.74832 0.0
C329 C 0.04565 0.15363 0.77182 0.0
C330 C 0.08821 0.14054 0.74153 0.0
C331 C 0.09002 0.1139 0.75756 0.0
C332 C 0.0702 0.1079 0.78173 0.0
C333 C 0.04861 0.12817 0.789 0.0
C334 C 0.10966 0.14835 0.71661 0.0
C335 C 0.07068 0.07936 0.79869 0.0
H336 H 0.11722 0.03391 0.69838 0.0
H337 H 0.17563 0.06118 0.76955 0.0
H338 H 0.05735 0.07131 0.72383 0.0
H339 H 0.07286 0.09542 0.69616 0.0
H340 H 0.07303 0.05706 0.68886 0.0
H341 H 0.16993 0.106 0.79533 0.0
H342 H 0.14428 0.1318 0.78012 0.0
H343 H 0.13314 0.10649 0.80899 0.0
H344 H 0.06315 0.17953 0.73505 0.0
H345 H 0.03289 0.12327 0.80683 0.0
H346 H 0.10598 0.13461 0.69599 0.0
H347 H 0.13209 0.14426 0.72467 0.0
H348 H 0.10779 0.17137 0.70954 0.0
H349 H 0.06682 0.06145 0.78212 0.0
H350 H 0.054 0.07824 0.81713 0.0
H351 H 0.0922 0.07568 0.80926 0.0
C352 C 0.54004 0.87716 0.74599 0.0
C353 C 0.54185 0.85543 0.76848 0.0
C354 C 0.56349 0.89553 0.74002 0.0
C355 C 0.58981 0.89149 0.75619 0.0
C356 C 0.59227 0.8686 0.77781 0.0
C357 C 0.56803 0.85115 0.78416 0.0
C358 C 0.55957 0.92019 0.71749 0.0
C359 C 0.62027 0.86298 0.7947 0.0
C360 C 0.65221 0.93363 0.72075 0.0
C361 C 0.65266 0.95836 0.73947 0.0
C362 C 0.63325 0.91059 0.72721 0.0
C363 C 0.61361 0.91291 0.75223 0.0
C364 C 0.61468 0.93747 0.77172 0.0
C365 C 0.63451 0.95963 0.76539 0.0
C366 C 0.63347 0.8843 0.70658 0.0
C367 C 0.59361 0.94129 0.79809 0.0
H368 H 0.51976 0.88069 0.73399 0.0
H369 H 0.56953 0.83421 0.8014 0.0
H370 H 0.56243 0.94112 0.72966 0.0
H371 H 0.57621 0.9191 0.69909 0.0
H372 H 0.53786 0.92004 0.70647 0.0
H373 H 0.61982 0.84217 0.80752 0.0
H374 H 0.63865 0.86262 0.7782 0.0
H375 H 0.62442 0.88068 0.81139 0.0
H376 H 0.66636 0.93248 0.70082 0.0
H377 H 0.6346 0.97878 0.77983 0.0
H378 H 0.61391 0.88435 0.69175 0.0
H379 H 0.6329 0.86423 0.72062 0.0
H380 H 0.65285 0.88374 0.69142 0.0
H381 H 0.57127 0.94291 0.78883 0.0
H382 H 0.59819 0.96101 0.81191 0.0
H383 H 0.59425 0.92228 0.81366 0.0
C384 C 0.56217 0.65584 0.25842 0.0
C385 C 0.54329 0.64871 0.2343 0.0
C386 C 0.5856 0.63778 0.26592 0.0
C387 C 0.58921 0.6113 0.24994 0.0
C388 C 0.5704 0.60432 0.22518 0.0
C389 C 0.54801 0.62346 0.21723 0.0
C390 C 0.60594 0.64665 0.29148 0.0
C391 C 0.57281 0.57587 0.20824 0.0
C392 C 0.65707 0.56489 0.2524 0.0
C393 C 0.64986 0.54474 0.27529 0.0
C394 C 0.63836 0.58792 0.24531 0.0
C395 C 0.61123 0.58987 0.26039 0.0
C396 C 0.60423 0.56987 0.28405 0.0
C397 C 0.62394 0.54789 0.29166 0.0
C398 C 0.64722 0.60956 0.22098 0.0
C399 C 0.57516 0.57051 0.29999 0.0
H400 H 0.55842 0.67544 0.27158 0.0
H401 H 0.53308 0.61781 0.19889 0.0
H402 H 0.6024 0.63273 0.31199 0.0
H403 H 0.62876 0.6437 0.28411 0.0
H404 H 0.60271 0.66954 0.29846 0.0
H405 H 0.55663 0.57386 0.18939 0.0
H406 H 0.59473 0.57342 0.19819 0.0
H407 H 0.5696 0.55774 0.22469 0.0
H408 H 0.67716 0.56238 0.23975 0.0
H409 H 0.61822 0.53198 0.30902 0.0
H410 H 0.64291 0.63193 0.22907 0.0
H411 H 0.63429 0.6061 0.19974 0.0
H412 H 0.67051 0.60764 0.21493 0.0
H413 H 0.57134 0.59199 0.31059 0.0
H414 H 0.5733 0.55374 0.31825 0.0
H415 H 0.55774 0.56693 0.28276 0.0
C416 C 0.93536 0.65051 0.78197 0.0
C417 C 0.96175 0.64724 0.76639 0.0
C418 C 0.91146 0.63291 0.77466 0.0
C419 C 0.91444 0.6109 0.7521 0.0
C420 C 0.94095 0.60792 0.736 0.0
C421 C 0.96407 0.62641 0.743 0.0
C422 C 0.88327 0.63739 0.79158 0.0
C423 C 0.94542 0.58424 0.71243 0.0
C424 C 0.87062 0.54185 0.75827 0.0
C425 C 0.85232 0.54392 0.73253 0.0
C426 C 0.89024 0.56396 0.76548 0.0
C427 C 0.89102 0.58924 0.74706 0.0
C428 C 0.87135 0.59225 0.72216 0.0
C429 C 0.85254 0.5693 0.71483 0.0
C430 C 0.91133 0.55942 0.7917 0.0
C431 C 0.87086 0.61927 0.70262 0.0
H432 H 0.93343 0.66675 0.7999 0.0
H433 H 0.98449 0.62364 0.73104 0.0
H434 H 0.86498 0.63811 0.77499 0.0
H435 H 0.87931 0.61896 0.80742 0.0
H436 H 0.88328 0.65766 0.80536 0.0
H437 H 0.96714 0.58527 0.70147 0.0
H438 H 0.94299 0.56281 0.72368 0.0
H439 H 0.92878 0.58566 0.69406 0.0
H440 H 0.87072 0.52221 0.77194 0.0
H441 H 0.83831 0.57107 0.69503 0.0
H442 H 0.91032 0.57778 0.80812 0.0
H443 H 0.93372 0.55859 0.78244 0.0
H444 H 0.90708 0.53909 0.80458 0.0
H445 H 0.87093 0.63882 0.7175 0.0
H446 H 0.85162 0.62006 0.68727 0.0
H447 H 0.89057 0.62012 0.68804 0.0
C448 C 0.87572 0.95226 0.29684 0.0
C449 C 0.84995 0.95597 0.28036 0.0
C450 C 0.89554 0.9306 0.28854 0.0
C451 C 0.88877 0.91145 0.26401 0.0
C452 C 0.86178 0.91393 0.24874 0.0
C453 C 0.84299 0.93668 0.25657 0.0
C454 C 0.92446 0.92941 0.30473 0.0
C455 C 0.85316 0.89317 0.22347 0.0
C456 C 0.95248 0.8793 0.22041 0.0
C457 C 0.95703 0.85353 0.23661 0.0
C458 C 0.92997 0.89815 0.22875 0.0
C459 C 0.91088 0.89036 0.25301 0.0
C460 C 0.91434 0.86337 0.26804 0.0
C461 C 0.93788 0.84559 0.26019 0.0
C462 C 0.92774 0.92714 0.21285 0.0
C463 C 0.89371 0.85366 0.29299 0.0
H464 H 0.88126 0.96754 0.3149 0.0
H465 H 0.82301 0.93964 0.24383 0.0
H466 H 0.92815 0.9076 0.31459 0.0
H467 H 0.94204 0.93351 0.28782 0.0
H468 H 0.92617 0.94559 0.3236 0.0
H469 H 0.82994 0.89531 0.21724 0.0
H470 H 0.86631 0.89735 0.20253 0.0
H471 H 0.85738 0.87053 0.23072 0.0
H472 H 0.96764 0.88555 0.2025 0.0
H473 H 0.94152 0.8256 0.2727 0.0
H474 H 0.93083 0.94471 0.23 0.0
H475 H 0.90591 0.92996 0.20268 0.0
H476 H 0.94409 0.92975 0.19425 0.0
H477 H 0.89704 0.86687 0.31406 0.0
H478 H 0.89685 0.83054 0.29912 0.0
H479 H 0.87098 0.85688 0.28547 0.0
C480 C 0.5477 0.28911 0.23957 0.0
C481 C 0.56516 0.27462 0.21803 0.0
C482 C 0.5572 0.3148 0.25373 0.0
C483 C 0.58503 0.32579 0.24665 0.0
C484 C 0.60251 0.31145 0.2246 0.0
C485 C 0.59225 0.28627 0.21037 0.0
C486 C 0.53772 0.32989 0.27659 0.0
C487 C 0.63249 0.32219 0.21668 0.0
C488 C 0.61144 0.40211 0.26118 0.0
C489 C 0.62902 0.39811 0.28723 0.0
C490 C 0.595 0.37922 0.24909 0.0
C491 C 0.59677 0.35156 0.26297 0.0
C492 C 0.61312 0.34786 0.29034 0.0
C493 C 0.62881 0.37128 0.30233 0.0
C494 C 0.57719 0.38424 0.22038 0.0
C495 C 0.61592 0.31863 0.30562 0.0
H496 H 0.52668 0.28031 0.24548 0.0
H497 H 0.60597 0.27516 0.19389 0.0
H498 H 0.54746 0.3289 0.29997 0.0
H499 H 0.5355 0.35309 0.27045 0.0
H500 H 0.51583 0.32001 0.27757 0.0
H501 H 0.64327 0.30857 0.19895 0.0
H502 H 0.63139 0.34471 0.20794 0.0
H503 H 0.64617 0.3224 0.23774 0.0
H504 H 0.61124 0.42291 0.24962 0.0
H505 H 0.64238 0.36801 0.32245 0.0
H506 H 0.55559 0.37398 0.22264 0.0
H507 H 0.58814 0.37417 0.20027 0.0
H508 H 0.57423 0.40764 0.21547 0.0
H509 H 0.59434 0.30861 0.30887 0.0
H510 H 0.62686 0.31999 0.32842 0.0
H511 H 0.62869 0.30403 0.29051 0.0
C512 C 0.21383 0.58615 0.72859 0.0
C513 C 0.22887 0.56219 0.74032 0.0
C514 C 0.18955 0.59736 0.74376 0.0
C515 C 0.17954 0.58396 0.77113 0.0
C516 C 0.19393 0.55914 0.78262 0.0
C517 C 0.21869 0.5487 0.76726 0.0
C518 C 0.17511 0.6241 0.73085 0.0
C519 C 0.18343 0.54391 0.81132 0.0
C520 C 0.13582 0.63588 0.82003 0.0
C521 C 0.10789 0.63133 0.80835 0.0
C522 C 0.15926 0.61912 0.80975 0.0
C523 C 0.1545 0.59691 0.78779 0.0
C524 C 0.12594 0.59051 0.77818 0.0
C525 C 0.103 0.60803 0.78827 0.0
C526 C 0.1894 0.62694 0.82029 0.0
C527 C 0.11982 0.56653 0.75545 0.0
H528 H 0.22155 0.59687 0.70791 0.0
H529 H 0.23013 0.53012 0.77641 0.0
H530 H 0.15209 0.61951 0.72557 0.0
H531 H 0.17558 0.6417 0.74826 0.0
H532 H 0.18576 0.63201 0.70946 0.0
H533 H 0.19548 0.52354 0.81578 0.0
H534 H 0.18597 0.55832 0.83161 0.0
H535 H 0.16004 0.53881 0.80922 0.0
H536 H 0.13976 0.65386 0.83553 0.0
H537 H 0.08138 0.60417 0.77948 0.0
H538 H 0.20118 0.63748 0.801 0.0
H539 H 0.20172 0.6073 0.82681 0.0
H540 H 0.18914 0.64202 0.84026 0.0
H541 H 0.12652 0.57347 0.73199 0.0
H542 H 0.09647 0.56089 0.75474 0.0
H543 H 0.13242 0.54686 0.76134 0.0
C544 C 0.89098 0.09726 0.27631 0.0
C545 C 0.87064 0.10196 0.2998 0.0
C546 C 0.90854 0.11989 0.26552 0.0
C547 C 0.90498 0.14803 0.27787 0.0
C548 C 0.88572 0.15246 0.30286 0.0
C549 C 0.86904 0.12926 0.31379 0.0
C550 C 0.92949 0.11408 0.23951 0.0
C551 C 0.88079 0.1822 0.31629 0.0
C552 C 0.95406 0.21118 0.25629 0.0
C553 C 0.93849 0.22362 0.23186 0.0
C554 C 0.94405 0.1859 0.27096 0.0
C555 C 0.91749 0.1734 0.26148 0.0
C556 C 0.90187 0.18583 0.23671 0.0
C557 C 0.91273 0.21049 0.22202 0.0
C558 C 0.96164 0.17275 0.29673 0.0
C559 C 0.87318 0.17359 0.22621 0.0
H560 H 0.89256 0.07608 0.2657 0.0
H561 H 0.85332 0.13304 0.33192 0.0
H562 H 0.92049 0.12269 0.21762 0.0
H563 H 0.9504 0.12519 0.24373 0.0
H564 H 0.93361 0.09058 0.23647 0.0
H565 H 0.86779 0.18145 0.33786 0.0
H566 H 0.90168 0.193 0.32129 0.0
H567 H 0.86912 0.19575 0.29919 0.0
H568 H 0.97404 0.22117 0.2639 0.0
H569 H 0.9004 0.22006 0.20334 0.0
H570 H 0.96526 0.1494 0.29226 0.0
H571 H 0.94962 0.17449 0.31881 0.0
H572 H 0.98296 0.18355 0.29951 0.0
H573 H 0.87592 0.15084 0.21865 0.0
H574 H 0.8636 0.18608 0.20683 0.0
H575 H 0.8576 0.17359 0.24572 0.0
C576 C 0.28987 0.91698 0.72668 0.0
C577 C 0.2745 0.9408 0.73828 0.0
C578 C 0.31412 0.906 0.74206 0.0
C579 C 0.3238 0.91949 0.76951 0.0
C580 C 0.30912 0.94421 0.78084 0.0
C581 C 0.28439 0.95442 0.76526 0.0
C582 C 0.32888 0.87937 0.72931 0.0
C583 C 0.31926 0.95955 0.80962 0.0
C584 C 0.36716 0.86765 0.81878 0.0
C585 C 0.39516 0.87221 0.8073 0.0
C586 C 0.3438 0.88442 0.80835 0.0
C587 C 0.34871 0.90666 0.78647 0.0
C588 C 0.37734 0.91312 0.77712 0.0
C589 C 0.4002 0.89556 0.78734 0.0
C590 C 0.31358 0.87653 0.81861 0.0
C591 C 0.38361 0.93717 0.75452 0.0
H592 H 0.2824 0.90618 0.70595 0.0
H593 H 0.27271 0.9729 0.77431 0.0
H594 H 0.35192 0.88412 0.72428 0.0
H595 H 0.32836 0.86176 0.74671 0.0
H596 H 0.3185 0.87139 0.7078 0.0
H597 H 0.30722 0.97998 0.81375 0.0
H598 H 0.31634 0.94526 0.82994 0.0
H599 H 0.34269 0.96455 0.80789 0.0
H600 H 0.36312 0.84962 0.83419 0.0
H601 H 0.42189 0.89944 0.77871 0.0
H602 H 0.30199 0.86597 0.7992 0.0
H603 H 0.30117 0.89614 0.82502 0.0
H604 H 0.3137 0.86144 0.83857 0.0
H605 H 0.37724 0.93023 0.73096 0.0
H606 H 0.40695 0.94292 0.75415 0.0
H607 H 0.37085 0.95677 0.76027 0.0
C608 C 0.59325 0.21359 0.78393 0.0
C609 C 0.56652 0.22584 0.77589 0.0
C610 C 0.60349 0.18862 0.76924 0.0
C611 C 0.58638 0.17513 0.74628 0.0
C612 C 0.55895 0.18679 0.73868 0.0
C613 C 0.54945 0.21222 0.75337 0.0
C614 C 0.63303 0.17711 0.77781 0.0
C615 C 0.53986 0.17261 0.71481 0.0
C616 C 0.63121 0.12937 0.69178 0.0
C617 C 0.63045 0.10245 0.70667 0.0
C618 C 0.61538 0.15294 0.70328 0.0
C619 C 0.59797 0.1493 0.72992 0.0
C620 C 0.59513 0.12153 0.74334 0.0
C621 C 0.61165 0.09849 0.73176 0.0
C622 C 0.61927 0.18225 0.68846 0.0
C623 C 0.57622 0.11658 0.77127 0.0
H624 H 0.60669 0.22401 0.80116 0.0
H625 H 0.52872 0.2215 0.74713 0.0
H626 H 0.63121 0.15451 0.78616 0.0
H627 H 0.64724 0.17689 0.75715 0.0
H628 H 0.64366 0.19024 0.79606 0.0
H629 H 0.51834 0.18319 0.71308 0.0
H630 H 0.55048 0.17354 0.69186 0.0
H631 H 0.53669 0.14943 0.72052 0.0
H632 H 0.64571 0.1326 0.6724 0.0
H633 H 0.61071 0.07762 0.74314 0.0
H634 H 0.63216 0.19629 0.70404 0.0
H635 H 0.59805 0.19293 0.6849 0.0
H636 H 0.63062 0.18082 0.6659 0.0
H637 H 0.58677 0.12604 0.79195 0.0
H638 H 0.57251 0.09319 0.77564 0.0
H639 H 0.55499 0.12744 0.76839 0.0
C640 C 0.36712 0.63606 0.1958 0.0
C641 C 0.39435 0.63264 0.20961 0.0
C642 C 0.34326 0.61977 0.20575 0.0
C643 C 0.34689 0.59913 0.2296 0.0
C644 C 0.37486 0.59385 0.2417 0.0
C645 C 0.39821 0.61095 0.23186 0.0
C646 C 0.31375 0.62647 0.1926 0.0
C647 C 0.3798 0.5715 0.26656 0.0
C648 C 0.28451 0.59068 0.28548 0.0
C649 C 0.27077 0.5656 0.27468 0.0
C650 C 0.30922 0.60163 0.27096 0.0
C651 C 0.32103 0.58682 0.2453 0.0
C652 C 0.30774 0.56107 0.23462 0.0
C653 C 0.28246 0.55093 0.24922 0.0
C654 C 0.32234 0.62946 0.28279 0.0
C655 C 0.32017 0.54437 0.20778 0.0
H656 H 0.36398 0.6528 0.17859 0.0
H657 H 0.41932 0.60795 0.24231 0.0
H658 H 0.30206 0.60629 0.18667 0.0
H659 H 0.30068 0.63802 0.21023 0.0
H660 H 0.31507 0.64027 0.17164 0.0
H661 H 0.40313 0.56641 0.26949 0.0
H662 H 0.37136 0.57974 0.28887 0.0
H663 H 0.36798 0.55124 0.26114 0.0
H664 H 0.27549 0.60234 0.30495 0.0
H665 H 0.27199 0.53147 0.24086 0.0
H666 H 0.32283 0.64583 0.26406 0.0
H667 H 0.34501 0.62568 0.29018 0.0
H668 H 0.31015 0.63858 0.30264 0.0
H669 H 0.31948 0.5578 0.18658 0.0
H670 H 0.30821 0.52394 0.20337 0.0
H671 H 0.34322 0.53913 0.21228 0.0
C672 C 0.87176 0.37291 0.68186 0.0
C673 C 0.87411 0.40085 0.69416 0.0
C674 C 0.88878 0.35015 0.69331 0.0
C675 C 0.90907 0.35566 0.71711 0.0
C676 C 0.91346 0.38438 0.72745 0.0
C677 C 0.89563 0.40658 0.71616 0.0
C678 C 0.88306 0.31981 0.68194 0.0
C679 C 0.93547 0.39133 0.75209 0.0
C680 C 0.91767 0.29607 0.77635 0.0
C681 C 0.94278 0.28185 0.76626 0.0
C682 C 0.90684 0.32024 0.76072 0.0
C683 C 0.9218 0.33105 0.73464 0.0
C684 C 0.94785 0.31764 0.72502 0.0
C685 C 0.95787 0.29291 0.74073 0.0
C686 C 0.87876 0.3336 0.77158 0.0
C687 C 0.96478 0.32906 0.69784 0.0
H688 H 0.85514 0.36832 0.66489 0.0
H689 H 0.89779 0.42824 0.72547 0.0
H690 H 0.90365 0.30846 0.67688 0.0
H691 H 0.87178 0.30738 0.70027 0.0
H692 H 0.86939 0.31959 0.66085 0.0
H693 H 0.94011 0.41488 0.75328 0.0
H694 H 0.92712 0.38429 0.7749 0.0
H695 H 0.95601 0.37955 0.74782 0.0
H696 H 0.90573 0.28767 0.79594 0.0
H697 H 0.97735 0.28213 0.73287 0.0
H698 H 0.86245 0.33268 0.7528 0.0
H699 H 0.88213 0.35671 0.7774 0.0
H700 H 0.86976 0.32248 0.79219 0.0
H701 H 0.95226 0.32572 0.67629 0.0
H702 H 0.98608 0.31816 0.69534 0.0
H703 H 0.96838 0.35267 0.70032 0.0
C704 C 0.10163 0.8926 0.23296 0.0
C705 C 0.10625 0.87025 0.21164 0.0
C706 C 0.12457 0.91023 0.24285 0.0
C707 C 0.15288 0.90483 0.23176 0.0
C708 C 0.15732 0.88343 0.20885 0.0
C709 C 0.13387 0.86661 0.19881 0.0
C710 C 0.1188 0.93337 0.26665 0.0
C711 C 0.18722 0.87662 0.19678 0.0
C712 C 0.21679 0.95409 0.25011 0.0
C713 C 0.22856 0.94023 0.27606 0.0
C714 C 0.19152 0.94348 0.2359 0.0
C715 C 0.17824 0.91809 0.24752 0.0
C716 C 0.18986 0.90431 0.27393 0.0
C717 C 0.2146 0.91571 0.28801 0.0
C718 C 0.17931 0.95911 0.20823 0.0
C719 C 0.17667 0.87694 0.28686 0.0
H720 H 0.08023 0.89578 0.24265 0.0
H721 H 0.13759 0.84936 0.18232 0.0
H722 H 0.1268 0.92603 0.2895 0.0
H723 H 0.13051 0.95357 0.26073 0.0
H724 H 0.09534 0.93827 0.26877 0.0
H725 H 0.1866 0.86181 0.17659 0.0
H726 H 0.19866 0.89671 0.19001 0.0
H727 H 0.2001 0.8662 0.21533 0.0
H728 H 0.22739 0.97311 0.24082 0.0
H729 H 0.22356 0.9047 0.30793 0.0
H730 H 0.15591 0.96346 0.21167 0.0
H731 H 0.18135 0.9453 0.18741 0.0
H732 H 0.19057 0.97992 0.20378 0.0
H733 H 0.15379 0.8808 0.29337 0.0
H734 H 0.18843 0.86887 0.30751 0.0
H735 H 0.17684 0.85973 0.269 0.0
C736 C 0.36557 0.63346 0.69529 0.0
C737 C 0.36924 0.60654 0.70969 0.0
C738 C 0.3818 0.6576 0.70457 0.0
C739 C 0.40259 0.65456 0.72836 0.0
C740 C 0.40816 0.62688 0.74102 0.0
C741 C 0.39117 0.60324 0.7318 0.0
C742 C 0.37484 0.68678 0.69079 0.0
C743 C 0.43064 0.62258 0.76588 0.0
C744 C 0.45045 0.71947 0.74711 0.0
C745 C 0.43574 0.73132 0.77246 0.0
C746 C 0.44036 0.69406 0.73273 0.0
C747 C 0.41466 0.68078 0.74356 0.0
C748 C 0.39974 0.69281 0.76904 0.0
C749 C 0.41061 0.71766 0.78331 0.0
C750 C 0.45714 0.68144 0.70606 0.0
C751 C 0.37196 0.67969 0.78104 0.0
H752 H 0.34868 0.63618 0.67816 0.0
H753 H 0.3944 0.58238 0.7427 0.0
H754 H 0.36304 0.7 0.70808 0.0
H755 H 0.39493 0.6986 0.68474 0.0
H756 H 0.36116 0.68493 0.66978 0.0
H757 H 0.43596 0.59936 0.76925 0.0
H758 H 0.45078 0.63449 0.76017 0.0
H759 H 0.42236 0.63131 0.78805 0.0
H760 H 0.46993 0.72988 0.73871 0.0
H761 H 0.39892 0.72681 0.8027 0.0
H762 H 0.44355 0.68138 0.68495 0.0
H763 H 0.46289 0.65862 0.71109 0.0
H764 H 0.4773 0.6937 0.70119 0.0
H765 H 0.35562 0.67878 0.76228 0.0
H766 H 0.36269 0.69212 0.80064 0.0
H767 H 0.37589 0.65718 0.78885 0.0
C768 C 0.86641 0.36145 0.19305 0.0
C769 C 0.89411 0.36434 0.20588 0.0
C770 C 0.84304 0.37777 0.20428 0.0
C771 C 0.84762 0.39779 0.22856 0.0
C772 C 0.87596 0.40238 0.23994 0.0
C773 C 0.89882 0.38542 0.22866 0.0
C774 C 0.81312 0.37205 0.1917 0.0
C775 C 0.88186 0.42393 0.26534 0.0
C776 C 0.78552 0.44853 0.2489 0.0
C777 C 0.7727 0.43388 0.27379 0.0
C778 C 0.81041 0.4375 0.23434 0.0
C779 C 0.82242 0.41103 0.24463 0.0
C780 C 0.80987 0.39647 0.27009 0.0
C781 C 0.78536 0.40817 0.28446 0.0
C782 C 0.82353 0.45387 0.20764 0.0
C783 C 0.82187 0.36807 0.28168 0.0
H784 H 0.86258 0.3452 0.17548 0.0
H785 H 0.92026 0.38801 0.23844 0.0
H786 H 0.79991 0.36105 0.2096 0.0
H787 H 0.80209 0.39265 0.18593 0.0
H788 H 0.8136 0.35818 0.17076 0.0
H789 H 0.90538 0.42804 0.26835 0.0
H790 H 0.87086 0.44477 0.26047 0.0
H791 H 0.87311 0.41557 0.28747 0.0
H792 H 0.77595 0.46845 0.24057 0.0
H793 H 0.77562 0.3966 0.30359 0.0
H794 H 0.82162 0.44089 0.1862 0.0
H795 H 0.84693 0.45755 0.21178 0.0
H796 H 0.81285 0.4751 0.20383 0.0
H797 H 0.82112 0.35169 0.26297 0.0
H798 H 0.80967 0.35959 0.30185 0.0
H799 H 0.84486 0.37071 0.28845 0.0
C800 C 0.05277 0.78326 0.74735 0.0
C801 C 0.06685 0.77206 0.77345 0.0
C802 C 0.06309 0.8084 0.73264 0.0
C803 C 0.08842 0.8221 0.7439 0.0
C804 C 0.10262 0.81081 0.77021 0.0
C805 C 0.09151 0.7862 0.78479 0.0
C806 C 0.04703 0.82026 0.70508 0.0
C807 C 0.12998 0.82439 0.78271 0.0
C808 C 0.13853 0.86808 0.69522 0.0
C809 C 0.13436 0.89546 0.70842 0.0
C810 C 0.12226 0.84416 0.70507 0.0
C811 C 0.1009 0.84787 0.72818 0.0
C812 C 0.09491 0.87593 0.73961 0.0
C813 C 0.11198 0.89935 0.72989 0.0
C814 C 0.12969 0.81457 0.69263 0.0
C815 C 0.07182 0.88094 0.76368 0.0
H816 H 0.03365 0.77248 0.73855 0.0
H817 H 0.10271 0.77759 0.80476 0.0
H818 H 0.04142 0.8433 0.70902 0.0
H819 H 0.06108 0.81941 0.68433 0.0
H820 H 0.02686 0.80802 0.70021 0.0
H821 H 0.13865 0.81259 0.80305 0.0
H822 H 0.14689 0.82476 0.76451 0.0
H823 H 0.12577 0.84711 0.78957 0.0
H824 H 0.1558 0.8649 0.67862 0.0
H825 H 0.10839 0.92055 0.73987 0.0
H826 H 0.10981 0.80256 0.68625 0.0
H827 H 0.14088 0.8019 0.71084 0.0
H828 H 0.14407 0.81576 0.67211 0.0
H829 H 0.05184 0.86882 0.75781 0.0
H830 H 0.06639 0.90423 0.76609 0.0
H831 H 0.07953 0.87289 0.78637 0.0
C832 C 0.60043 0.11342 0.23332 0.0
C833 C 0.6051 0.13142 0.20773 0.0
C834 C 0.6231 0.09704 0.24601 0.0
C835 C 0.65123 0.09932 0.23329 0.0
C836 C 0.65572 0.11634 0.20652 0.0
C837 C 0.63251 0.13193 0.19385 0.0
C838 C 0.61725 0.07853 0.27404 0.0
C839 C 0.68546 0.11976 0.19252 0.0
C840 C 0.71478 0.09249 0.28818 0.0
C841 C 0.72645 0.06556 0.27999 0.0
C842 C 0.69021 0.1035 0.2733 0.0
C843 C 0.6765 0.08693 0.25004 0.0
C844 C 0.68754 0.05928 0.24232 0.0
C845 C 0.71262 0.04904 0.25715 0.0
C846 C 0.67942 0.13328 0.28193 0.0
C847 C 0.6731 0.04073 0.21815 0.0
H848 H 0.5792 0.11271 0.24395 0.0
H849 H 0.6363 0.14588 0.17415 0.0
H850 H 0.62741 0.05693 0.27137 0.0
H851 H 0.62693 0.08882 0.29474 0.0
H852 H 0.59371 0.07563 0.27822 0.0
H853 H 0.68486 0.13156 0.17019 0.0
H854 H 0.69953 0.13191 0.20874 0.0
H855 H 0.69562 0.09833 0.18872 0.0
H856 H 0.7254 0.10551 0.30564 0.0
H857 H 0.72144 0.02815 0.25081 0.0
H858 H 0.65663 0.13208 0.28984 0.0
H859 H 0.67994 0.14762 0.26138 0.0
H860 H 0.69258 0.14338 0.30049 0.0
H861 H 0.64977 0.03819 0.22356 0.0
H862 H 0.68309 0.01894 0.21643 0.0
H863 H 0.6746 0.05142 0.19528 0.0
C864 C 0.41305 0.78803 0.22417 0.0
C865 C 0.43797 0.77417 0.23528 0.0
C866 C 0.40214 0.81288 0.23845 0.0
C867 C 0.41681 0.8247 0.2642 0.0
C868 C 0.44253 0.81145 0.27502 0.0
C869 C 0.45265 0.78606 0.26064 0.0
C870 C 0.37438 0.82602 0.22641 0.0
C871 C 0.4591 0.82388 0.30194 0.0
C872 C 0.39225 0.90162 0.27836 0.0
C873 C 0.37053 0.89747 0.30054 0.0
C874 C 0.40945 0.87844 0.26827 0.0
C875 C 0.40424 0.85035 0.28003 0.0
C876 C 0.38355 0.8464 0.30379 0.0
C877 C 0.36717 0.8701 0.31402 0.0
C878 C 0.43186 0.88371 0.24354 0.0
C879 C 0.37694 0.81675 0.3166 0.0
H880 H 0.40141 0.77894 0.20473 0.0
H881 H 0.47198 0.77553 0.26926 0.0
H882 H 0.3578 0.82624 0.24495 0.0
H883 H 0.37814 0.84877 0.21934 0.0
H884 H 0.36552 0.814 0.20631 0.0
H885 H 0.47988 0.81239 0.30595 0.0
H886 H 0.46369 0.84713 0.29789 0.0
H887 H 0.44584 0.82241 0.32322 0.0
H888 H 0.3952 0.92283 0.26816 0.0
H889 H 0.3504 0.86673 0.33115 0.0
H890 H 0.42373 0.87545 0.22111 0.0
H891 H 0.45218 0.87194 0.2489 0.0
H892 H 0.43685 0.90708 0.24087 0.0
H893 H 0.36575 0.80371 0.2987 0.0
H894 H 0.36287 0.81778 0.33737 0.0
H895 H 0.39718 0.80521 0.32271 0.0
C896 C 0.71561 0.45111 0.74425 0.0
C897 C 0.73012 0.43427 0.7222 0.0
C898 C 0.69039 0.44082 0.7588 0.0
C899 C 0.67998 0.41279 0.75167 0.0
C900 C 0.69469 0.39571 0.72953 0.0
C901 C 0.71932 0.40678 0.71485 0.0
C902 C 0.67488 0.45989 0.78173 0.0
C903 C 0.68469 0.36547 0.72167 0.0
C904 C 0.63364 0.3687 0.80649 0.0
C905 C 0.60698 0.36855 0.791 0.0
C906 C 0.65728 0.38437 0.79487 0.0
C907 C 0.65401 0.40072 0.76744 0.0
C908 C 0.62655 0.40241 0.75305 0.0
C909 C 0.60344 0.38605 0.76481 0.0
C910 C 0.68627 0.38165 0.8107 0.0
C911 C 0.62199 0.42014 0.72419 0.0
H912 H 0.7238 0.47243 0.7499 0.0
H913 H 0.73057 0.39351 0.69806 0.0
H914 H 0.65199 0.46278 0.77463 0.0
H915 H 0.67471 0.44944 0.80478 0.0
H916 H 0.68512 0.48153 0.78388 0.0
H917 H 0.69891 0.35481 0.7044 0.0
H918 H 0.68422 0.35195 0.74284 0.0
H919 H 0.66235 0.36612 0.71233 0.0
H920 H 0.63659 0.35521 0.82671 0.0
H921 H 0.5828 0.3863 0.75291 0.0
H922 H 0.69623 0.40324 0.81404 0.0
H923 H 0.70114 0.36886 0.79591 0.0
H924 H 0.68454 0.37078 0.8335 0.0
H925 H 0.63184 0.44189 0.72677 0.0
H926 H 0.59868 0.42272 0.71857 0.0
H927 H 0.63278 0.40938 0.70439 0.0
C928 C 0.13485 0.6354 0.3202 0.0
C929 C 0.13024 0.60751 0.30849 0.0
C930 C 0.11838 0.65893 0.30967 0.0
C931 C 0.09639 0.6543 0.28741 0.0
C932 C 0.0899 0.62579 0.27774 0.0
C933 C 0.10714 0.60275 0.28811 0.0
C934 C 0.12628 0.68901 0.32029 0.0
C935 C 0.06614 0.61982 0.2547 0.0
C936 C 0.04873 0.7187 0.26637 0.0
C937 C 0.06259 0.72888 0.23965 0.0
C938 C 0.05887 0.69388 0.28182 0.0
C939 C 0.08376 0.67939 0.27061 0.0
C940 C 0.09751 0.68937 0.24343 0.0
C941 C 0.08662 0.71373 0.22818 0.0
C942 C 0.04327 0.68344 0.31032 0.0
C943 C 0.12432 0.6748 0.23082 0.0
H944 H 0.15269 0.63923 0.33593 0.0
H945 H 0.10323 0.58116 0.27929 0.0
H946 H 0.13708 0.70072 0.30112 0.0
H947 H 0.10663 0.70144 0.32659 0.0
H948 H 0.14116 0.68867 0.34043 0.0
H949 H 0.06036 0.59651 0.25391 0.0
H950 H 0.04646 0.63252 0.26034 0.0
H951 H 0.07339 0.62648 0.23134 0.0
H952 H 0.0301 0.73021 0.27532 0.0
H953 H 0.09761 0.72144 0.20765 0.0
H954 H 0.05747 0.68594 0.33079 0.0
H955 H 0.03811 0.66009 0.30816 0.0
H956 H 0.02289 0.69556 0.31452 0.0
H957 H 0.14175 0.67518 0.24843 0.0
H958 H 0.13249 0.68539 0.20951 0.0
H959 H 0.11966 0.6518 0.22551 0.0
C960 C 0.86921 0.14381 0.80324 0.0
C961 C 0.89659 0.14126 0.78955 0.0
C962 C 0.84578 0.12716 0.79282 0.0
C963 C 0.84999 0.10708 0.76853 0.0
C964 C 0.87804 0.10296 0.75615 0.0
C965 C 0.90095 0.12034 0.76657 0.0
C966 C 0.81614 0.13251 0.80636 0.0
C967 C 0.88354 0.08131 0.73073 0.0
C968 C 0.78811 0.05513 0.75118 0.0
C969 C 0.77446 0.06915 0.7264 0.0
C970 C 0.81324 0.06674 0.7647 0.0
C971 C 0.82454 0.09323 0.75356 0.0
C972 C 0.81099 0.10727 0.72838 0.0
C973 C 0.78634 0.09494 0.71497 0.0
C974 C 0.82748 0.05088 0.7911 0.0
C975 C 0.82209 0.13576 0.71604 0.0
H976 H 0.86566 0.15996 0.82099 0.0
H977 H 0.92216 0.11801 0.75614 0.0
H978 H 0.80216 0.14293 0.78874 0.0
H979 H 0.80574 0.11179 0.81291 0.0
H980 H 0.81697 0.14673 0.82701 0.0
H981 H 0.90703 0.0777 0.72682 0.0
H982 H 0.8732 0.06029 0.73627 0.0
H983 H 0.87382 0.08924 0.70889 0.0
H984 H 0.77913 0.03513 0.76005 0.0
H985 H 0.77588 0.10605 0.69596 0.0
H986 H 0.82625 0.06415 0.81239 0.0
H987 H 0.85075 0.04736 0.78601 0.0
H988 H 0.81716 0.02961 0.7957 0.0
H989 H 0.82176 0.15229 0.73462 0.0
H990 H 0.80904 0.14388 0.69632 0.0
H991 H 0.84486 0.13342 0.70833 0.0
C992 C 0.56289 0.20774 0.04873 0.0
C993 C 0.54473 0.21697 0.07265 0.0
C994 C 0.56007 0.21903 0.01879 0.0
C995 C 0.53941 0.24103 0.01296 0.0
C996 C 0.52049 0.24989 0.03693 0.0
C997 C 0.52307 0.23735 0.06642 0.0
C998 C 0.58 0.20819 0.99369 0.0
C999 C 0.49885 0.27389 0.03201 0.0
C1000 C 0.56246 0.29035 0.94732 0.0
C1001 C 0.54506 0.28057 0.92303 0.0
C1002 C 0.55946 0.27892 0.97718 0.0
C1003 C 0.53945 0.25623 0.98255 0.0
C1004 C 0.52132 0.24675 0.95816 0.0
C1005 C 0.524 0.25944 0.92876 0.0
C1006 C 0.5785 0.29041 1.00272 0.0
C1007 C 0.50044 0.222 0.96259 0.0
H1008 H 0.57964 0.19196 0.05359 0.0
H1009 H 0.50932 0.2448 0.08508 0.0
H1010 H 0.56748 0.20303 0.97253 0.0
H1011 H 0.59581 0.22531 0.98758 0.0
H1012 H 0.59218 0.18861 1.00092 0.0
H1013 H 0.4841 0.27654 0.05207 0.0
H1014 H 0.51055 0.29456 0.02826 0.0
H1015 H 0.48568 0.26976 0.01108 0.0
H1016 H 0.57874 0.3067 0.94283 0.0
H1017 H 0.51087 0.25158 0.90979 0.0
H1018 H 0.59476 0.27383 0.00919 0.0
H1019 H 0.5654 0.29514 0.02359 0.0
H1020 H 0.59015 0.31039 0.99576 0.0
H1021 H 0.51278 0.20176 0.9666 0.0
H1022 H 0.48621 0.21885 0.94219 0.0
H1023 H 0.48671 0.22566 0.98322 0.0
C1024 C 0.21569 0.52669 0.44892 0.0
C1025 C 0.22822 0.54737 0.42941 0.0
C1026 C 0.22476 0.52396 0.47982 0.0
C1027 C 0.24735 0.54183 0.49107 0.0
C1028 C 0.26093 0.56176 0.47093 0.0
C1029 C 0.25095 0.56453 0.44052 0.0
C1030 C 0.20936 0.5029 0.50076 0.0
C1031 C 0.28546 0.58083 0.48174 0.0
C1032 C 0.25184 0.56444 0.57501 0.0
C1033 C 0.27402 0.54665 0.58627 0.0
C1034 C 0.24205 0.56202 0.5445 0.0
C1035 C 0.25524 0.54179 0.52442 0.0
C1036 C 0.27734 0.52336 0.53578 0.0
C1037 C 0.28624 0.52576 0.56678 0.0
C1038 C 0.21805 0.58171 0.53356 0.0
C1039 C 0.29233 0.50195 0.51491 0.0
H1040 H 0.19809 0.51341 0.44038 0.0
H1041 H 0.26099 0.58028 0.42536 0.0
H1042 H 0.22521 0.48879 0.51272 0.0
H1043 H 0.1974 0.515 0.51883 0.0
H1044 H 0.19378 0.48907 0.48798 0.0
H1045 H 0.29555 0.59306 0.46245 0.0
H1046 H 0.2773 0.59657 0.499 0.0
H1047 H 0.30239 0.56763 0.49319 0.0
H1048 H 0.24204 0.58035 0.59013 0.0
H1049 H 0.30341 0.512 0.57544 0.0
H1050 H 0.20077 0.56891 0.52217 0.0
H1051 H 0.22663 0.59713 0.5162 0.0
H1052 H 0.20827 0.5943 0.55276 0.0
H1053 H 0.27622 0.48812 0.50301 0.0
H1054 H 0.30766 0.48786 0.52772 0.0
H1055 H 0.30451 0.51378 0.49678 0.0
C1056 C 0.93484 0.24997 0.06631 0.0
C1057 C 0.95223 0.27217 0.07823 0.0
C1058 C 0.93733 0.24111 0.03547 0.0
C1059 C 0.9572 0.25529 0.01573 0.0
C1060 C 0.97519 0.27744 0.02773 0.0
C1061 C 0.97275 0.28538 0.05902 0.0
C1062 C 0.91814 0.21701 0.02384 0.0
C1063 C 0.99618 0.29349 0.00726 0.0
C1064 C 0.97383 0.2188 0.93878 0.0
C1065 C 0.95314 0.23164 0.9195 0.0
C1066 C 0.97589 0.22664 0.97013 0.0
C1067 C 0.95731 0.24831 0.98212 0.0
C1068 C 0.93718 0.26206 0.96235 0.0
C1069 C 0.93511 0.25331 0.93144 0.0
C1070 C 0.99717 0.21103 0.99064 0.0
C1071 C 0.91736 0.28565 0.97398 0.0
H1072 H 0.9192 0.23942 0.0812 0.0
H1073 H 0.9862 0.30257 0.06816 0.0
H1074 H 0.90249 0.2257 0.00679 0.0
H1075 H 0.9313 0.20034 0.0119 0.0
H1076 H 0.90581 0.20646 0.04277 0.0
H1077 H 0.00983 0.30892 0.02047 0.0
H1078 H 0.01048 0.27804 0.99499 0.0
H1079 H 0.98402 0.30572 0.98943 0.0
H1080 H 0.98778 0.20201 0.92962 0.0
H1081 H 0.91932 0.26358 0.91652 0.0
H1082 H 0.98525 0.19858 0.00848 0.0
H1083 H 0.01113 0.22679 1.00291 0.0
H1084 H 0.01117 0.19588 0.97747 0.0
H1085 H 0.90194 0.27655 0.99104 0.0
H1086 H 0.90475 0.29588 0.95506 0.0
H1087 H 0.93007 0.30266 0.98592 0.0
C1088 C 0.28886 0.97606 0.44724 0.0
C1089 C 0.27696 0.95509 0.42765 0.0
C1090 C 0.27973 0.97838 0.47817 0.0
C1091 C 0.25767 0.9598 0.48935 0.0
C1092 C 0.24484 0.93942 0.46919 0.0
C1093 C 0.2549 0.93707 0.43877 0.0
C1094 C 0.29438 0.99992 0.49915 0.0
C1095 C 0.22087 0.9196 0.47992 0.0
C1096 C 0.25268 0.93761 0.57342 0.0
C1097 C 0.22987 0.95487 0.58421 0.0
C1098 C 0.26285 0.94013 0.54306 0.0
C1099 C 0.24939 0.95986 0.52262 0.0
C1100 C 0.22664 0.97775 0.5335 0.0
C1101 C 0.21738 0.97531 0.56438 0.0
C1102 C 0.28755 0.92107 0.53264 0.0
C1103 C 0.21131 0.99857 0.51223 0.0
H1104 H 0.30593 0.99001 0.43869 0.0
H1105 H 0.24533 0.92109 0.42356 0.0
H1106 H 0.27806 0.01383 0.51065 0.0
H1107 H 0.30626 0.98822 0.5176 0.0
H1108 H 0.30991 0.01394 0.48652 0.0
H1109 H 0.21143 0.90685 0.46066 0.0
H1110 H 0.22937 0.90432 0.49747 0.0
H1111 H 0.20337 0.93232 0.49101 0.0
H1112 H 0.26268 0.92206 0.58883 0.0
H1113 H 0.19974 0.98866 0.57268 0.0
H1114 H 0.30457 0.93428 0.52133 0.0
H1115 H 0.27964 0.90524 0.51535 0.0
H1116 H 0.29747 0.90896 0.55211 0.0
H1117 H 0.22719 0.01282 0.50051 0.0
H1118 H 0.19538 0.01226 0.52468 0.0
H1119 H 0.19978 0.98628 0.49399 0.0
C1120 C 0.47503 0.78507 0.94687 0.0
C1121 C 0.45449 0.77265 0.92711 0.0
C1122 C 0.47758 0.77573 0.97769 0.0
C1123 C 0.45968 0.753 0.98859 0.0
C1124 C 0.43996 0.73952 0.96816 0.0
C1125 C 0.43735 0.74975 0.93784 0.0
C1126 C 0.49842 0.79104 0.99895 0.0
C1127 C 0.42088 0.71484 0.97859 0.0
C1128 C 0.47502 0.71395 0.06436 0.0
C1129 C 0.45386 0.72605 0.08361 0.0
C1130 C 0.47774 0.72293 0.03342 0.0
C1131 C 0.45936 0.74498 0.0219 0.0
C1132 C 0.43883 0.75804 0.04174 0.0
C1133 C 0.4361 0.74816 0.07217 0.0
C1134 C 0.49944 0.70807 0.01278 0.0
C1135 C 0.41919 0.78201 0.03062 0.0
H1136 H 0.48828 0.80279 0.9386 0.0
H1137 H 0.42172 0.73982 0.92247 0.0
H1138 H 0.4861 0.80298 0.01688 0.0
H1139 H 0.51238 0.77517 0.01106 0.0
H1140 H 0.51242 0.80664 0.98639 0.0
H1141 H 0.40896 0.70477 0.95908 0.0
H1142 H 0.43403 0.69794 0.99017 0.0
H1143 H 0.40487 0.72284 0.99565 0.0
H1144 H 0.48877 0.69684 0.07317 0.0
H1145 H 0.41998 0.75788 0.08713 0.0
H1146 H 0.51338 0.72426 1.00113 0.0
H1147 H 0.48786 0.69594 0.99444 0.0
H1148 H 0.51342 0.69273 0.02571 0.0
H1149 H 0.43209 0.79937 0.01949 0.0
H1150 H 0.40633 0.79166 0.04969 0.0
H1151 H 0.40401 0.77345 0.01302 0.0
C1152 C 0.7869 0.44195 0.54625 0.0
C1153 C 0.77748 0.45978 0.57034 0.0
C1154 C 0.77555 0.44489 0.51637 0.0
C1155 C 0.75332 0.46534 0.51076 0.0
C1156 C 0.74416 0.48386 0.53495 0.0
C1157 C 0.75676 0.48119 0.56441 0.0
C1158 C 0.78668 0.42535 0.49106 0.0
C1159 C 0.71991 0.50526 0.53023 0.0
C1160 C 0.73595 0.48102 0.42643 0.0
C1161 C 0.7153 0.45962 0.4202 0.0
C1162 C 0.74799 0.48386 0.45612 0.0
C1163 C 0.73834 0.46552 0.48025 0.0
C1164 C 0.716 0.44525 0.47439 0.0
C1165 C 0.70521 0.44213 0.44428 0.0
C1166 C 0.77236 0.50508 0.4611 0.0
C1167 C 0.70436 0.42595 0.49962 0.0
H1168 H 0.80299 0.42544 0.5509 0.0
H1169 H 0.74922 0.4947 0.58322 0.0
H1170 H 0.76968 0.40955 0.48457 0.0
H1171 H 0.79193 0.43818 0.47014 0.0
H1172 H 0.80628 0.41318 0.49824 0.0
H1173 H 0.71698 0.5197 0.55049 0.0
H1174 H 0.72397 0.51874 0.50951 0.0
H1175 H 0.69939 0.49337 0.52621 0.0
H1176 H 0.74403 0.49426 0.40765 0.0
H1177 H 0.68918 0.42562 0.43942 0.0
H1178 H 0.79278 0.49302 0.4651 0.0
H1179 H 0.76831 0.51845 0.48191 0.0
H1180 H 0.77544 0.51963 0.44096 0.0
H1181 H 0.72097 0.40973 0.50611 0.0
H1182 H 0.6845 0.41426 0.49233 0.0
H1183 H 0.69934 0.43883 0.52057 0.0
C1184 C 0.06683 0.75356 0.07447 0.0
C1185 C 0.04895 0.7756 0.08587 0.0
C1186 C 0.06443 0.7439 0.04391 0.0
C1187 C 0.04412 0.7571 0.02391 0.0
C1188 C 0.02567 0.77912 0.03539 0.0
C1189 C 0.02805 0.78787 0.06643 0.0
C1190 C 0.08413 0.71996 0.03285 0.0
C1191 C 0.00421 0.79415 0.0146 0.0
C1192 C 0.06627 0.75278 0.93978 0.0
C1193 C 0.04894 0.73012 0.9288 0.0
C1194 C 0.06378 0.76272 0.97024 0.0
C1195 C 0.04397 0.74918 0.99055 0.0
C1196 C 0.02596 0.72663 0.97945 0.0
C1197 C 0.02841 0.7176 0.9485 0.0
C1198 C 0.08297 0.78721 0.98089 0.0
C1199 C 0.00504 0.71125 1.00056 0.0
H1200 H 0.08277 0.74373 0.08955 0.0
H1201 H 0.01422 0.80494 0.07519 0.0
H1202 H 0.07129 0.70265 0.02157 0.0
H1203 H 0.09943 0.72856 0.01537 0.0
H1204 H 0.09686 0.71024 0.05197 0.0
H1205 H 0.99027 0.8096 0.02743 0.0
H1206 H 0.01598 0.80616 0.99631 0.0
H1207 H 0.9902 0.77806 1.0029 0.0
H1208 H 0.08191 0.7628 0.92449 0.0
H1209 H 0.01502 0.70005 0.94007 0.0
H1210 H 0.09882 0.77904 0.99804 0.0
H1211 H 0.06987 0.80416 0.99244 0.0
H1212 H 0.09509 0.79727 0.96151 0.0
H1213 H 0.01728 0.69938 0.01861 0.0
H1214 H 0.99118 0.6956 0.98793 0.0
H1215 H 0.99095 0.72709 0.01255 0.0
C1216 C 0.70967 0.05617 0.55446 0.0
C1217 C 0.71999 0.03901 0.57868 0.0
C1218 C 0.72048 0.05294 0.52439 0.0
C1219 C 0.74305 0.0329 0.5187 0.0
C1220 C 0.75294 0.01485 0.54298 0.0
C1221 C 0.7409 0.01781 0.57266 0.0
C1222 C 0.7086 0.07195 0.49902 0.0
C1223 C 0.77753 0.99386 0.53814 0.0
C1224 C 0.76076 0.01766 0.43435 0.0
C1225 C 0.78093 0.03953 0.42818 0.0
C1226 C 0.74878 0.01451 0.46404 0.0
C1227 C 0.75797 0.03307 0.48817 0.0
C1228 C 0.77982 0.05387 0.48234 0.0
C1229 C 0.79059 0.05723 0.45227 0.0
C1230 C 0.72495 0.99269 0.46903 0.0
C1231 C 0.79097 0.07347 0.50757 0.0
H1232 H 0.69344 0.07253 0.55919 0.0
H1233 H 0.74914 0.00483 0.59157 0.0
H1234 H 0.72506 0.08825 0.49233 0.0
H1235 H 0.70365 0.05885 0.47821 0.0
H1236 H 0.68866 0.08353 0.50626 0.0
H1237 H 0.78064 0.97935 0.55832 0.0
H1238 H 0.77374 0.98045 0.51732 0.0
H1239 H 0.79786 0.00612 0.53427 0.0
H1240 H 0.75304 0.00423 0.41556 0.0
H1241 H 0.80627 0.07409 0.44744 0.0
H1242 H 0.7042 0.00424 0.47285 0.0
H1243 H 0.72924 0.97953 0.48994 0.0
H1244 H 0.72235 0.97797 0.44895 0.0
H1245 H 0.77391 0.08918 0.51414 0.0
H1246 H 0.81046 0.08574 0.50024 0.0
H1247 H 0.79641 0.0607 0.52847 0.0
loop_
_geom_bond_atom_site_label_1
_geom_bond_atom_site_label_2
_geom_bond_distance
_geom_bond_site_symmetry_2
_ccdc_geom_bond_type
O0 Cd1 2.223 . S
O0 C8 1.315 . S
Cd1 O0 2.223 . S
Cd1 O4 2.297 . S
Cd1 O5 2.439 . S
Cd1 O11 2.240 . S
Cd2 O3 2.240 . S
Cd2 O10 2.223 . S
Cd2 O12 2.297 . S
Cd2 O13 2.439 . S
O3 Cd2 2.240 . S
O3 C8 1.279 . S
O4 Cd1 2.297 . S
O4 C6 1.247 . S
O5 Cd1 2.439 . S
O5 C6 1.208 . S
C6 O4 1.247 . S
C6 O5 1.208 . S
C7 O12 1.247 . S
C7 O13 1.208 . S
C8 O0 1.315 . S
C8 O3 1.279 . S
C9 O10 1.315 . S
C9 O11 1.279 . S
O10 Cd2 2.223 . S
O10 C9 1.315 . S
O11 Cd1 2.240 . S
O11 C9 1.279 . S
O12 Cd2 2.297 . S
O12 C7 1.247 . S
O13 Cd2 2.439 . S
O13 C7 1.208 . S
O14 Cd15 2.223 . S
O14 C22 1.315 . S
Cd15 O14 2.223 . S
Cd15 O18 2.297 . S
Cd15 O19 2.439 . S
Cd15 O25 2.240 . S
Cd16 O17 2.240 . S
Cd16 O24 2.223 . S
Cd16 O26 2.297 . S
Cd16 O27 2.439 . S
O17 Cd16 2.240 . S
O17 C22 1.279 . S
O18 Cd15 2.297 . S
O18 C20 1.247 . S
O19 Cd15 2.439 . S
O19 C20 1.208 . S
C20 O18 1.247 . S
C20 O19 1.208 . S
C21 O26 1.247 . S
C21 O27 1.208 . S
C22 O14 1.315 . S
C22 O17 1.279 . S
C23 O24 1.315 . S
C23 O25 1.279 . S
O24 Cd16 2.223 . S
O24 C23 1.315 . S
O25 Cd15 2.240 . S
O25 C23 1.279 . S
O26 Cd16 2.297 . S
O26 C21 1.247 . S
O27 Cd16 2.439 . S
O27 C21 1.208 . S
O28 Cd29 2.223 . S
O28 C36 1.315 . S
Cd29 O28 2.223 . S
Cd29 O32 2.297 . S
Cd29 O33 2.439 . S
Cd29 O39 2.240 . S
Cd30 O31 2.240 . S
Cd30 O38 2.223 . S
Cd30 O40 2.297 1_655 S
Cd30 O41 2.439 1_655 S
O31 Cd30 2.240 . S
O31 C36 1.279 . S
O32 Cd29 2.297 . S
O32 C34 1.247 . S
O33 Cd29 2.439 . S
O33 C34 1.208 . S
C34 O32 1.247 . S
C34 O33 1.208 . S
C35 O40 1.247 . S
C35 O41 1.208 . S
C36 O28 1.315 . S
C36 O31 1.279 . S
C37 O38 1.315 . S
C37 O39 1.279 . S
O38 Cd30 2.223 . S
O38 C37 1.315 . S
O39 Cd29 2.240 . S
O39 C37 1.279 . S
O40 Cd30 2.297 1_455 S
O40 C35 1.247 . S
O41 Cd30 2.439 1_455 S
O41 C35 1.208 . S
O42 Cd43 2.223 . S
O42 C50 1.315 . S
Cd43 O42 2.223 . S
Cd43 O46 2.297 1_565 S
Cd43 O47 2.439 1_565 S
Cd43 O53 2.240 . S
Cd44 O45 2.240 . S
Cd44 O52 2.223 . S
Cd44 O54 2.297 . S
Cd44 O55 2.439 . S
O45 Cd44 2.240 . S
O45 C50 1.279 . S
O46 Cd43 2.297 1_545 S
O46 C48 1.247 . S
O47 Cd43 2.439 1_545 S
O47 C48 1.208 . S
C48 O46 1.247 . S
C48 O47 1.208 . S
C49 O54 1.247 . S
C49 O55 1.208 . S
C50 O42 1.315 . S
C50 O45 1.279 . S
C51 O52 1.315 . S
C51 O53 1.279 . S
O52 Cd44 2.223 . S
O52 C51 1.315 . S
O53 Cd43 2.240 . S
O53 C51 1.279 . S
O54 Cd44 2.297 . S
O54 C49 1.247 . S
O55 Cd44 2.439 . S
O55 C49 1.208 . S
O56 Cd57 2.223 . S
O56 C64 1.315 . S
Cd57 O56 2.223 . S
Cd57 O60 2.297 . S
Cd57 O61 2.439 . S
Cd57 O67 2.240 . S
Cd58 O59 2.240 . S
Cd58 O66 2.223 . S
Cd58 O68 2.297 . S
Cd58 O69 2.439 . S
O59 Cd58 2.240 . S
O59 C64 1.279 . S
O60 Cd57 2.297 . S
O60 C62 1.247 . S
O61 Cd57 2.439 . S
O61 C62 1.208 . S
C62 O60 1.247 . S
C62 O61 1.208 . S
C63 O68 1.247 . S
C63 O69 1.208 . S
C64 O56 1.315 . S
C64 O59 1.279 . S
C65 O66 1.315 . S
C65 O67 1.279 . S
O66 Cd58 2.223 . S
O66 C65 1.315 . S
O67 Cd57 2.240 . S
O67 C65 1.279 . S
O68 Cd58 2.297 . S
O68 C63 1.247 . S
O69 Cd58 2.439 . S
O69 C63 1.208 . S
O70 Cd71 2.223 . S
O70 C78 1.315 . S
Cd71 O70 2.223 . S
Cd71 O74 2.297 . S
Cd71 O75 2.439 . S
Cd71 O81 2.240 . S
Cd72 O73 2.240 . S
Cd72 O80 2.223 . S
Cd72 O82 2.297 . S
Cd72 O83 2.439 . S
O73 Cd72 2.240 . S
O73 C78 1.279 . S
O74 Cd71 2.297 . S
O74 C76 1.247 . S
O75 Cd71 2.439 . S
O75 C76 1.208 . S
C76 O74 1.247 . S
C76 O75 1.208 . S
C77 O82 1.247 . S
C77 O83 1.208 . S
C78 O70 1.315 . S
C78 O73 1.279 . S
C79 O80 1.315 . S
C79 O81 1.279 . S
O80 Cd72 2.223 . S
O80 C79 1.315 . S
O81 Cd71 2.240 . S
O81 C79 1.279 . S
O82 Cd72 2.297 . S
O82 C77 1.247 . S
O83 Cd72 2.439 . S
O83 C77 1.208 . S
O84 Cd85 2.223 . S
O84 C92 1.315 . S
Cd85 O84 2.223 . S
Cd85 O88 2.297 . S
Cd85 O89 2.439 . S
Cd85 O95 2.240 . S
Cd86 O87 2.240 . S
Cd86 O94 2.223 . S
Cd86 O96 2.297 1_655 S
Cd86 O97 2.439 1_655 S
O87 Cd86 2.240 . S
O87 C92 1.279 . S
O88 Cd85 2.297 . S
O88 C90 1.247 . S
O89 Cd85 2.439 . S
O89 C90 1.208 . S
C90 O88 1.247 . S
C90 O89 1.208 . S
C91 O96 1.247 . S
C91 O97 1.208 . S
C92 O84 1.315 . S
C92 O87 1.279 . S
C93 O94 1.315 . S
C93 O95 1.279 . S
O94 Cd86 2.223 . S
O94 C93 1.315 . S
O95 Cd85 2.240 . S
O95 C93 1.279 . S
O96 Cd86 2.297 1_455 S
O96 C91 1.247 . S
O97 Cd86 2.439 1_455 S
O97 C91 1.208 . S
O98 Cd99 2.223 . S
O98 C106 1.315 . S
Cd99 O98 2.223 . S
Cd99 O102 2.297 1_565 S
Cd99 O103 2.439 1_565 S
Cd99 O109 2.240 . S
Cd100 O101 2.240 . S
Cd100 O108 2.223 . S
Cd100 O110 2.297 . S
Cd100 O111 2.439 . S
O101 Cd100 2.240 . S
O101 C106 1.279 . S
O102 Cd99 2.297 1_545 S
O102 C104 1.247 . S
O103 Cd99 2.439 1_545 S
O103 C104 1.208 . S
C104 O102 1.247 . S
C104 O103 1.208 . S
C105 O110 1.247 . S
C105 O111 1.208 . S
C106 O98 1.315 . S
C106 O101 1.279 . S
C107 O108 1.315 . S
C107 O109 1.279 . S
O108 Cd100 2.223 . S
O108 C107 1.315 . S
O109 Cd99 2.240 . S
O109 C107 1.279 . S
O110 Cd100 2.297 . S
O110 C105 1.247 . S
O111 Cd100 2.439 . S
O111 C105 1.208 . S
O112 Cd113 2.223 . S
O112 C120 1.315 . S
Cd113 O112 2.223 . S
Cd113 O116 2.297 . S
Cd113 O117 2.439 . S
Cd113 O123 2.240 . S
Cd114 O115 2.240 . S
Cd114 O122 2.223 . S
Cd114 O124 2.297 . S
Cd114 O125 2.439 . S
O115 Cd114 2.240 . S
O115 C120 1.279 . S
O116 Cd113 2.297 . S
O116 C118 1.247 . S
O117 Cd113 2.439 . S
O117 C118 1.208 . S
C118 O116 1.247 . S
C118 O117 1.208 . S
C119 O124 1.247 . S
C119 O125 1.208 . S
C120 O112 1.315 . S
C120 O115 1.279 . S
C121 O122 1.315 . S
C121 O123 1.279 . S
O122 Cd114 2.223 . S
O122 C121 1.315 . S
O123 Cd113 2.240 . S
O123 C121 1.279 . S
O124 Cd114 2.297 . S
O124 C119 1.247 . S
O125 Cd114 2.439 . S
O125 C119 1.208 . S
O126 Cd127 2.223 . S
O126 C134 1.315 . S
Cd127 O126 2.223 . S
Cd127 O130 2.297 . S
Cd127 O131 2.439 . S
Cd127 O137 2.240 . S
Cd128 O129 2.240 . S
Cd128 O136 2.223 . S
Cd128 O138 2.297 . S
Cd128 O139 2.439 . S
O129 Cd128 2.240 . S
O129 C134 1.279 . S
O130 Cd127 2.297 . S
O130 C132 1.247 . S
O131 Cd127 2.439 . S
O131 C132 1.208 . S
C132 O130 1.247 . S
C132 O131 1.208 . S
C133 O138 1.247 . S
C133 O139 1.208 . S
C134 O126 1.315 . S
C134 O129 1.279 . S
C135 O136 1.315 . S
C135 O137 1.279 . S
O136 Cd128 2.223 . S
O136 C135 1.315 . S
O137 Cd127 2.240 . S
O137 C135 1.279 . S
O138 Cd128 2.297 . S
O138 C133 1.247 . S
O139 Cd128 2.439 . S
O139 C133 1.208 . S
O140 Cd141 2.223 . S
O140 C148 1.315 . S
Cd141 O140 2.223 . S
Cd141 O144 2.297 1_455 S
Cd141 O145 2.439 1_455 S
Cd141 O151 2.240 . S
Cd142 O143 2.240 . S
Cd142 O150 2.223 . S
Cd142 O152 2.297 . S
Cd142 O153 2.439 . S
O143 Cd142 2.240 . S
O143 C148 1.279 . S
O144 Cd141 2.297 1_655 S
O144 C146 1.247 . S
O145 Cd141 2.439 1_655 S
O145 C146 1.208 . S
C146 O144 1.247 . S
C146 O145 1.208 . S
C147 O152 1.247 . S
C147 O153 1.208 . S
C148 O140 1.315 . S
C148 O143 1.279 . S
C149 O150 1.315 . S
C149 O151 1.279 . S
O150 Cd142 2.223 . S
O150 C149 1.315 . S
O151 Cd141 2.240 . S
O151 C149 1.279 . S
O152 Cd142 2.297 . S
O152 C147 1.247 . S
O153 Cd142 2.439 . S
O153 C147 1.208 . S
O154 Cd155 2.223 . S
O154 C162 1.315 . S
Cd155 O154 2.223 . S
Cd155 O158 2.297 1_545 S
Cd155 O159 2.439 1_545 S
Cd155 O165 2.240 . S
Cd156 O157 2.240 . S
Cd156 O164 2.223 . S
Cd156 O166 2.297 . S
Cd156 O167 2.439 . S
O157 Cd156 2.240 . S
O157 C162 1.279 . S
O158 Cd155 2.297 1_565 S
O158 C160 1.247 . S
O159 Cd155 2.439 1_565 S
O159 C160 1.208 . S
C160 O158 1.247 . S
C160 O159 1.208 . S
C161 O166 1.247 . S
C161 O167 1.208 . S
C162 O154 1.315 . S
C162 O157 1.279 . S
C163 O164 1.315 . S
C163 O165 1.279 . S
O164 Cd156 2.223 . S
O164 C163 1.315 . S
O165 Cd155 2.240 . S
O165 C163 1.279 . S
O166 Cd156 2.297 . S
O166 C161 1.247 . S
O167 Cd156 2.439 . S
O167 C161 1.208 . S
O168 Cd169 2.223 . S
O168 C176 1.315 . S
Cd169 O168 2.223 . S
Cd169 O172 2.297 . S
Cd169 O173 2.439 . S
Cd169 O179 2.240 . S
Cd170 O171 2.240 . S
Cd170 O178 2.223 . S
Cd170 O180 2.297 . S
Cd170 O181 2.439 . S
O171 Cd170 2.240 . S
O171 C176 1.279 . S
O172 Cd169 2.297 . S
O172 C174 1.247 . S
O173 Cd169 2.439 . S
O173 C174 1.208 . S
C174 O172 1.247 . S
C174 O173 1.208 . S
C175 O180 1.247 . S
C175 O181 1.208 . S
C176 O168 1.315 . S
C176 O171 1.279 . S
C177 O178 1.315 . S
C177 O179 1.279 . S
O178 Cd170 2.223 . S
O178 C177 1.315 . S
O179 Cd169 2.240 . S
O179 C177 1.279 . S
O180 Cd170 2.297 . S
O180 C175 1.247 . S
O181 Cd170 2.439 . S
O181 C175 1.208 . S
O182 Cd183 2.223 . S
O182 C190 1.315 . S
Cd183 O182 2.223 . S
Cd183 O186 2.297 . S
Cd183 O187 2.439 . S
Cd183 O193 2.240 . S
Cd184 O185 2.240 . S
Cd184 O192 2.223 . S
Cd184 O194 2.297 . S
Cd184 O195 2.439 . S
O185 Cd184 2.240 . S
O185 C190 1.279 . S
O186 Cd183 2.297 . S
O186 C188 1.247 . S
O187 Cd183 2.439 . S
O187 C188 1.208 . S
C188 O186 1.247 . S
C188 O187 1.208 . S
C189 O194 1.247 . S
C189 O195 1.208 . S
C190 O182 1.315 . S
C190 O185 1.279 . S
C191 O192 1.315 . S
C191 O193 1.279 . S
O192 Cd184 2.223 . S
O192 C191 1.315 . S
O193 Cd183 2.240 . S
O193 C191 1.279 . S
O194 Cd184 2.297 . S
O194 C189 1.247 . S
O195 Cd184 2.439 . S
O195 C189 1.208 . S
O196 Cd197 2.223 . S
O196 C204 1.315 . S
Cd197 O196 2.223 . S
Cd197 O200 2.297 1_455 S
Cd197 O201 2.439 1_455 S
Cd197 O207 2.240 . S
Cd198 O199 2.240 . S
Cd198 O206 2.223 . S
Cd198 O208 2.297 . S
Cd198 O209 2.439 . S
O199 Cd198 2.240 . S
O199 C204 1.279 . S
O200 Cd197 2.297 1_655 S
O200 C202 1.247 . S
O201 Cd197 2.439 1_655 S
O201 C202 1.208 . S
C202 O200 1.247 . S
C202 O201 1.208 . S
C203 O208 1.247 . S
C203 O209 1.208 . S
C204 O196 1.315 . S
C204 O199 1.279 . S
C205 O206 1.315 . S
C205 O207 1.279 . S
O206 Cd198 2.223 . S
O206 C205 1.315 . S
O207 Cd197 2.240 . S
O207 C205 1.279 . S
O208 Cd198 2.297 . S
O208 C203 1.247 . S
O209 Cd198 2.439 . S
O209 C203 1.208 . S
O210 Cd211 2.223 . S
O210 C218 1.315 . S
Cd211 O210 2.223 . S
Cd211 O214 2.297 1_545 S
Cd211 O215 2.439 1_545 S
Cd211 O221 2.240 . S
Cd212 O213 2.240 . S
Cd212 O220 2.223 . S
Cd212 O222 2.297 . S
Cd212 O223 2.439 . S
O213 Cd212 2.240 . S
O213 C218 1.279 . S
O214 Cd211 2.297 1_565 S
O214 C216 1.247 . S
O215 Cd211 2.439 1_565 S
O215 C216 1.208 . S
C216 O214 1.247 . S
C216 O215 1.208 . S
C217 O222 1.247 . S
C217 O223 1.208 . S
C218 O210 1.315 . S
C218 O213 1.279 . S
C219 O220 1.315 . S
C219 O221 1.279 . S
O220 Cd212 2.223 . S
O220 C219 1.315 . S
O221 Cd211 2.240 . S
O221 C219 1.279 . S
O222 Cd212 2.297 . S
O222 C217 1.247 . S
O223 Cd212 2.439 . S
O223 C217 1.208 . S
C224 C225 1.391 . S
C224 C226 1.394 . S
C224 H240 0.931 . S
C225 C224 1.391 . S
C225 C229 1.376 . S
C226 C224 1.394 . S
C226 C227 1.369 . S
C226 C230 1.531 . S
C227 C226 1.369 . S
C227 C228 1.410 . S
C227 C235 1.503 . S
C228 C227 1.410 . S
C228 C229 1.392 . S
C228 C231 1.511 . S
C229 C225 1.376 . S
C229 C228 1.392 . S
C229 H241 0.929 . S
C230 C226 1.531 . S
C230 H242 0.960 . S
C230 H243 0.962 . S
C230 H244 0.960 . S
C231 C228 1.511 . S
C231 H245 0.961 . S
C231 H246 0.961 . S
C231 H247 0.961 . S
C232 C233 1.370 . S
C232 C234 1.363 . S
C232 H248 0.931 . S
C233 C232 1.370 . S
C233 C237 1.408 . S
C234 C232 1.363 . S
C234 C235 1.370 . S
C234 C238 1.524 . S
C235 C227 1.503 . S
C235 C234 1.370 . S
C235 C236 1.403 . S
C236 C235 1.403 . S
C236 C237 1.404 . S
C236 C239 1.539 . S
C237 C233 1.408 . S
C237 C236 1.404 . S
C237 H249 0.930 . S
C238 C234 1.524 . S
C238 H250 0.956 . S
C238 H251 0.961 . S
C238 H252 0.961 . S
C239 C236 1.539 . S
C239 H253 0.958 . S
C239 H254 0.961 . S
C239 H255 0.960 . S
H240 C224 0.931 . S
H241 C229 0.929 . S
H242 C230 0.960 . S
H243 C230 0.962 . S
H244 C230 0.960 . S
H245 C231 0.961 . S
H246 C231 0.961 . S
H247 C231 0.961 . S
H248 C232 0.931 . S
H249 C237 0.930 . S
H250 C238 0.956 . S
H251 C238 0.961 . S
H252 C238 0.961 . S
H253 C239 0.958 . S
H254 C239 0.961 . S
H255 C239 0.960 . S
C256 C257 1.391 . S
C256 C258 1.394 . S
C256 H272 0.931 . S
C257 C256 1.391 . S
C257 C261 1.376 . S
C258 C256 1.394 . S
C258 C259 1.369 . S
C258 C262 1.531 . S
C259 C258 1.369 . S
C259 C260 1.410 . S
C259 C267 1.503 . S
C260 C259 1.410 . S
C260 C261 1.392 . S
C260 C263 1.511 . S
C261 C257 1.376 . S
C261 C260 1.392 . S
C261 H273 0.929 . S
C262 C258 1.531 . S
C262 H274 0.960 . S
C262 H275 0.962 . S
C262 H276 0.960 . S
C263 C260 1.511 . S
C263 H277 0.961 . S
C263 H278 0.961 . S
C263 H279 0.961 . S
C264 C265 1.370 . S
C264 C266 1.363 . S
C264 H280 0.931 . S
C265 C264 1.370 . S
C265 C269 1.408 . S
C266 C264 1.363 . S
C266 C267 1.370 . S
C266 C270 1.524 . S
C267 C259 1.503 . S
C267 C266 1.370 . S
C267 C268 1.403 . S
C268 C267 1.403 . S
C268 C269 1.404 . S
C268 C271 1.539 . S
C269 C265 1.408 . S
C269 C268 1.404 . S
C269 H281 0.930 . S
C270 C266 1.524 . S
C270 H282 0.956 . S
C270 H283 0.961 . S
C270 H284 0.961 . S
C271 C268 1.539 . S
C271 H285 0.958 . S
C271 H286 0.961 . S
C271 H287 0.960 . S
H272 C256 0.931 . S
H273 C261 0.929 . S
H274 C262 0.960 . S
H275 C262 0.962 . S
H276 C262 0.960 . S
H277 C263 0.961 . S
H278 C263 0.961 . S
H279 C263 0.961 . S
H280 C264 0.931 . S
H281 C269 0.930 . S
H282 C270 0.956 . S
H283 C270 0.961 . S
H284 C270 0.961 . S
H285 C271 0.958 . S
H286 C271 0.961 . S
H287 C271 0.960 . S
C288 C289 1.391 . S
C288 C290 1.394 . S
C288 H304 0.931 . S
C289 C288 1.391 . S
C289 C293 1.376 . S
C290 C288 1.394 . S
C290 C291 1.369 . S
C290 C294 1.531 . S
C291 C290 1.369 . S
C291 C292 1.410 . S
C291 C299 1.503 . S
C292 C291 1.410 . S
C292 C293 1.392 . S
C292 C295 1.511 . S
C293 C289 1.376 . S
C293 C292 1.392 . S
C293 H305 0.929 . S
C294 C290 1.531 . S
C294 H306 0.960 . S
C294 H307 0.962 . S
C294 H308 0.960 . S
C295 C292 1.511 . S
C295 H309 0.961 . S
C295 H310 0.961 . S
C295 H311 0.961 . S
C296 C297 1.370 . S
C296 C298 1.363 . S
C296 H312 0.931 . S
C297 C296 1.370 . S
C297 C301 1.408 . S
C298 C296 1.363 . S
C298 C299 1.370 . S
C298 C302 1.524 . S
C299 C291 1.503 . S
C299 C298 1.370 . S
C299 C300 1.403 . S
C300 C299 1.403 . S
C300 C301 1.404 . S
C300 C303 1.539 . S
C301 C297 1.408 . S
C301 C300 1.404 . S
C301 H313 0.930 . S
C302 C298 1.524 . S
C302 H314 0.956 . S
C302 H315 0.961 . S
C302 H316 0.961 . S
C303 C300 1.539 . S
C303 H317 0.958 . S
C303 H318 0.961 . S
C303 H319 0.960 . S
H304 C288 0.931 . S
H305 C293 0.929 . S
H306 C294 0.960 . S
H307 C294 0.962 . S
H308 C294 0.960 . S
H309 C295 0.961 . S
H310 C295 0.961 . S
H311 C295 0.961 . S
H312 C296 0.931 . S
H313 C301 0.930 . S
H314 C302 0.956 . S
H315 C302 0.961 . S
H316 C302 0.961 . S
H317 C303 0.958 . S
H318 C303 0.961 . S
H319 C303 0.960 . S
C320 C321 1.391 . S
C320 C322 1.394 . S
C320 H336 0.931 . S
C321 C320 1.391 . S
C321 C325 1.376 . S
C322 C320 1.394 . S
C322 C323 1.369 . S
C322 C326 1.531 . S
C323 C322 1.369 . S
C323 C324 1.410 . S
C323 C331 1.503 . S
C324 C323 1.410 . S
C324 C325 1.392 . S
C324 C327 1.511 . S
C325 C321 1.376 . S
C325 C324 1.392 . S
C325 H337 0.929 . S
C326 C322 1.531 . S
C326 H338 0.960 . S
C326 H339 0.962 . S
C326 H340 0.960 . S
C327 C324 1.511 . S
C327 H341 0.961 . S
C327 H342 0.961 . S
C327 H343 0.961 . S
C328 C329 1.370 . S
C328 C330 1.363 . S
C328 H344 0.931 . S
C329 C328 1.370 . S
C329 C333 1.408 . S
C330 C328 1.363 . S
C330 C331 1.370 . S
C330 C334 1.524 . S
C331 C323 1.503 . S
C331 C330 1.370 . S
C331 C332 1.403 . S
C332 C331 1.403 . S
C332 C333 1.404 . S
C332 C335 1.539 . S
C333 C329 1.408 . S
C333 C332 1.404 . S
C333 H345 0.930 . S
C334 C330 1.524 . S
C334 H346 0.956 . S
C334 H347 0.961 . S
C334 H348 0.961 . S
C335 C332 1.539 . S
C335 H349 0.958 . S
C335 H350 0.961 . S
C335 H351 0.960 . S
H336 C320 0.931 . S
H337 C325 0.929 . S
H338 C326 0.960 . S
H339 C326 0.962 . S
H340 C326 0.960 . S
H341 C327 0.961 . S
H342 C327 0.961 . S
H343 C327 0.961 . S
H344 C328 0.931 . S
H345 C333 0.930 . S
H346 C334 0.956 . S
H347 C334 0.961 . S
H348 C334 0.961 . S
H349 C335 0.958 . S
H350 C335 0.961 . S
H351 C335 0.960 . S
C352 C353 1.391 . S
C352 C354 1.394 . S
C352 H368 0.931 . S
C353 C352 1.391 . S
C353 C357 1.376 . S
C354 C352 1.394 . S
C354 C355 1.369 . S
C354 C358 1.531 . S
C355 C354 1.369 . S
C355 C356 1.410 . S
C355 C363 1.503 . S
C356 C355 1.410 . S
C356 C357 1.392 . S
C356 C359 1.511 . S
C357 C353 1.376 . S
C357 C356 1.392 . S
C357 H369 0.929 . S
C358 C354 1.531 . S
C358 H370 0.960 . S
C358 H371 0.962 . S
C358 H372 0.960 . S
C359 C356 1.511 . S
C359 H373 0.961 . S
C359 H374 0.961 . S
C359 H375 0.961 . S
C360 C361 1.370 . S
C360 C362 1.363 . S
C360 H376 0.931 . S
C361 C360 1.370 . S
C361 C365 1.408 . S
C362 C360 1.363 . S
C362 C363 1.370 . S
C362 C366 1.524 . S
C363 C355 1.503 . S
C363 C362 1.370 . S
C363 C364 1.403 . S
C364 C363 1.403 . S
C364 C365 1.404 . S
C364 C367 1.539 . S
C365 C361 1.408 . S
C365 C364 1.404 . S
C365 H377 0.930 . S
C366 C362 1.524 . S
C366 H378 0.956 . S
C366 H379 0.961 . S
C366 H380 0.961 . S
C367 C364 1.539 . S
C367 H381 0.958 . S
C367 H382 0.961 . S
C367 H383 0.960 . S
H368 C352 0.931 . S
H369 C357 0.929 . S
H370 C358 0.960 . S
H371 C358 0.962 . S
H372 C358 0.960 . S
H373 C359 0.961 . S
H374 C359 0.961 . S
H375 C359 0.961 . S
H376 C360 0.931 . S
H377 C365 0.930 . S
H378 C366 0.956 . S
H379 C366 0.961 . S
H380 C366 0.961 . S
H381 C367 0.958 . S
H382 C367 0.961 . S
H383 C367 0.960 . S
C384 C385 1.391 . S
C384 C386 1.394 . S
C384 H400 0.931 . S
C385 C384 1.391 . S
C385 C389 1.376 . S
C386 C384 1.394 . S
C386 C387 1.369 . S
C386 C390 1.531 . S
C387 C386 1.369 . S
C387 C388 1.410 . S
C387 C395 1.503 . S
C388 C387 1.410 . S
C388 C389 1.392 . S
C388 C391 1.511 . S
C389 C385 1.376 . S
C389 C388 1.392 . S
C389 H401 0.929 . S
C390 C386 1.531 . S
C390 H402 0.960 . S
C390 H403 0.962 . S
C390 H404 0.960 . S
C391 C388 1.511 . S
C391 H405 0.961 . S
C391 H406 0.961 . S
C391 H407 0.961 . S
C392 C393 1.370 . S
C392 C394 1.363 . S
C392 H408 0.931 . S
C393 C392 1.370 . S
C393 C397 1.408 . S
C394 C392 1.363 . S
C394 C395 1.370 . S
C394 C398 1.524 . S
C395 C387 1.503 . S
C395 C394 1.370 . S
C395 C396 1.403 . S
C396 C395 1.403 . S
C396 C397 1.404 . S
C396 C399 1.539 . S
C397 C393 1.408 . S
C397 C396 1.404 . S
C397 H409 0.930 . S
C398 C394 1.524 . S
C398 H410 0.956 . S
C398 H411 0.961 . S
C398 H412 0.961 . S
C399 C396 1.539 . S
C399 H413 0.958 . S
C399 H414 0.961 . S
C399 H415 0.960 . S
H400 C384 0.931 . S
H401 C389 0.929 . S
H402 C390 0.960 . S
H403 C390 0.962 . S
H404 C390 0.960 . S
H405 C391 0.961 . S
H406 C391 0.961 . S
H407 C391 0.961 . S
H408 C392 0.931 . S
H409 C397 0.930 . S
H410 C398 0.956 . S
H411 C398 0.961 . S
H412 C398 0.961 . S
H413 C399 0.958 . S
H414 C399 0.961 . S
H415 C399 0.960 . S
C416 C417 1.391 . S
C416 C418 1.394 . S
C416 H432 0.931 . S
C417 C416 1.391 . S
C417 C421 1.376 . S
C418 C416 1.394 . S
C418 C419 1.369 . S
C418 C422 1.531 . S
C419 C418 1.369 . S
C419 C420 1.410 . S
C419 C427 1.503 . S
C420 C419 1.410 . S
C420 C421 1.392 . S
C420 C423 1.511 . S
C421 C417 1.376 . S
C421 C420 1.392 . S
C421 H433 0.929 . S
C422 C418 1.531 . S
C422 H434 0.960 . S
C422 H435 0.962 . S
C422 H436 0.960 . S
C423 C420 1.511 . S
C423 H437 0.961 . S
C423 H438 0.961 . S
C423 H439 0.961 . S
C424 C425 1.370 . S
C424 C426 1.363 . S
C424 H440 0.931 . S
C425 C424 1.370 . S
C425 C429 1.408 . S
C426 C424 1.363 . S
C426 C427 1.370 . S
C426 C430 1.524 . S
C427 C419 1.503 . S
C427 C426 1.370 . S
C427 C428 1.403 . S
C428 C427 1.403 . S
C428 C429 1.404 . S
C428 C431 1.539 . S
C429 C425 1.408 . S
C429 C428 1.404 . S
C429 H441 0.930 . S
C430 C426 1.524 . S
C430 H442 0.956 . S
C430 H443 0.961 . S
C430 H444 0.961 . S
C431 C428 1.539 . S
C431 H445 0.958 . S
C431 H446 0.961 . S
C431 H447 0.960 . S
H432 C416 0.931 . S
H433 C421 0.929 . S
H434 C422 0.960 . S
H435 C422 0.962 . S
H436 C422 0.960 . S
H437 C423 0.961 . S
H438 C423 0.961 . S
H439 C423 0.961 . S
H440 C424 0.931 . S
H441 C429 0.930 . S
H442 C430 0.956 . S
H443 C430 0.961 . S
H444 C430 0.961 . S
H445 C431 0.958 . S
H446 C431 0.961 . S
H447 C431 0.960 . S
C448 C449 1.391 . S
C448 C450 1.394 . S
C448 H464 0.931 . S
C449 C448 1.391 . S
C449 C453 1.376 . S
C450 C448 1.394 . S
C450 C451 1.369 . S
C450 C454 1.531 . S
C451 C450 1.369 . S
C451 C452 1.410 . S
C451 C459 1.503 . S
C452 C451 1.410 . S
C452 C453 1.392 . S
C452 C455 1.511 . S
C453 C449 1.376 . S
C453 C452 1.392 . S
C453 H465 0.929 . S
C454 C450 1.531 . S
C454 H466 0.960 . S
C454 H467 0.962 . S
C454 H468 0.960 . S
C455 C452 1.511 . S
C455 H469 0.961 . S
C455 H470 0.961 . S
C455 H471 0.961 . S
C456 C457 1.370 . S
C456 C458 1.363 . S
C456 H472 0.931 . S
C457 C456 1.370 . S
C457 C461 1.408 . S
C458 C456 1.363 . S
C458 C459 1.370 . S
C458 C462 1.524 . S
C459 C451 1.503 . S
C459 C458 1.370 . S
C459 C460 1.403 . S
C460 C459 1.403 . S
C460 C461 1.404 . S
C460 C463 1.539 . S
C461 C457 1.408 . S
C461 C460 1.404 . S
C461 H473 0.930 . S
C462 C458 1.524 . S
C462 H474 0.956 . S
C462 H475 0.961 . S
C462 H476 0.961 . S
C463 C460 1.539 . S
C463 H477 0.958 . S
C463 H478 0.961 . S
C463 H479 0.960 . S
H464 C448 0.931 . S
H465 C453 0.929 . S
H466 C454 0.960 . S
H467 C454 0.962 . S
H468 C454 0.960 . S
H469 C455 0.961 . S
H470 C455 0.961 . S
H471 C455 0.961 . S
H472 C456 0.931 . S
H473 C461 0.930 . S
H474 C462 0.956 . S
H475 C462 0.961 . S
H476 C462 0.961 . S
H477 C463 0.958 . S
H478 C463 0.961 . S
H479 C463 0.960 . S
C480 C481 1.391 . S
C480 C482 1.394 . S
C480 H496 0.931 . S
C481 C480 1.391 . S
C481 C485 1.376 . S
C482 C480 1.394 . S
C482 C483 1.369 . S
C482 C486 1.531 . S
C483 C482 1.369 . S
C483 C484 1.410 . S
C483 C491 1.503 . S
C484 C483 1.410 . S
C484 C485 1.392 . S
C484 C487 1.511 . S
C485 C481 1.376 . S
C485 C484 1.392 . S
C485 H497 0.929 . S
C486 C482 1.531 . S
C486 H498 0.960 . S
C486 H499 0.962 . S
C486 H500 0.960 . S
C487 C484 1.511 . S
C487 H501 0.961 . S
C487 H502 0.961 . S
C487 H503 0.961 . S
C488 C489 1.370 . S
C488 C490 1.363 . S
C488 H504 0.931 . S
C489 C488 1.370 . S
C489 C493 1.408 . S
C490 C488 1.363 . S
C490 C491 1.370 . S
C490 C494 1.524 . S
C491 C483 1.503 . S
C491 C490 1.370 . S
C491 C492 1.403 . S
C492 C491 1.403 . S
C492 C493 1.404 . S
C492 C495 1.539 . S
C493 C489 1.408 . S
C493 C492 1.404 . S
C493 H505 0.930 . S
C494 C490 1.524 . S
C494 H506 0.956 . S
C494 H507 0.961 . S
C494 H508 0.961 . S
C495 C492 1.539 . S
C495 H509 0.958 . S
C495 H510 0.961 . S
C495 H511 0.960 . S
H496 C480 0.931 . S
H497 C485 0.929 . S
H498 C486 0.960 . S
H499 C486 0.962 . S
H500 C486 0.960 . S
H501 C487 0.961 . S
H502 C487 0.961 . S
H503 C487 0.961 . S
H504 C488 0.931 . S
H505 C493 0.930 . S
H506 C494 0.956 . S
H507 C494 0.961 . S
H508 C494 0.961 . S
H509 C495 0.958 . S
H510 C495 0.961 . S
H511 C495 0.960 . S
C512 C513 1.391 . S
C512 C514 1.394 . S
C512 H528 0.931 . S
C513 C512 1.391 . S
C513 C517 1.376 . S
C514 C512 1.394 . S
C514 C515 1.369 . S
C514 C518 1.531 . S
C515 C514 1.369 . S
C515 C516 1.410 . S
C515 C523 1.503 . S
C516 C515 1.410 . S
C516 C517 1.392 . S
C516 C519 1.511 . S
C517 C513 1.376 . S
C517 C516 1.392 . S
C517 H529 0.929 . S
C518 C514 1.531 . S
C518 H530 0.960 . S
C518 H531 0.962 . S
C518 H532 0.960 . S
C519 C516 1.511 . S
C519 H533 0.961 . S
C519 H534 0.961 . S
C519 H535 0.961 . S
C520 C521 1.370 . S
C520 C522 1.363 . S
C520 H536 0.931 . S
C521 C520 1.370 . S
C521 C525 1.408 . S
C522 C520 1.363 . S
C522 C523 1.370 . S
C522 C526 1.524 . S
C523 C515 1.503 . S
C523 C522 1.370 . S
C523 C524 1.403 . S
C524 C523 1.403 . S
C524 C525 1.404 . S
C524 C527 1.539 . S
C525 C521 1.408 . S
C525 C524 1.404 . S
C525 H537 0.930 . S
C526 C522 1.524 . S
C526 H538 0.956 . S
C526 H539 0.961 . S
C526 H540 0.961 . S
C527 C524 1.539 . S
C527 H541 0.958 . S
C527 H542 0.961 . S
C527 H543 0.960 . S
H528 C512 0.931 . S
H529 C517 0.929 . S
H530 C518 0.960 . S
H531 C518 0.962 . S
H532 C518 0.960 . S
H533 C519 0.961 . S
H534 C519 0.961 . S
H535 C519 0.961 . S
H536 C520 0.931 . S
H537 C525 0.930 . S
H538 C526 0.956 . S
H539 C526 0.961 . S
H540 C526 0.961 . S
H541 C527 0.958 . S
H542 C527 0.961 . S
H543 C527 0.960 . S
C544 C545 1.391 . S
C544 C546 1.394 . S
C544 H560 0.931 . S
C545 C544 1.391 . S
C545 C549 1.376 . S
C546 C544 1.394 . S
C546 C547 1.369 . S
C546 C550 1.531 . S
C547 C546 1.369 . S
C547 C548 1.410 . S
C547 C555 1.503 . S
C548 C547 1.410 . S
C548 C549 1.392 . S
C548 C551 1.511 . S
C549 C545 1.376 . S
C549 C548 1.392 . S
C549 H561 0.929 . S
C550 C546 1.531 . S
C550 H562 0.960 . S
C550 H563 0.962 . S
C550 H564 0.960 . S
C551 C548 1.511 . S
C551 H565 0.961 . S
C551 H566 0.961 . S
C551 H567 0.961 . S
C552 C553 1.370 . S
C552 C554 1.363 . S
C552 H568 0.931 . S
C553 C552 1.370 . S
C553 C557 1.408 . S
C554 C552 1.363 . S
C554 C555 1.370 . S
C554 C558 1.524 . S
C555 C547 1.503 . S
C555 C554 1.370 . S
C555 C556 1.403 . S
C556 C555 1.403 . S
C556 C557 1.404 . S
C556 C559 1.539 . S
C557 C553 1.408 . S
C557 C556 1.404 . S
C557 H569 0.930 . S
C558 C554 1.524 . S
C558 H570 0.956 . S
C558 H571 0.961 . S
C558 H572 0.961 . S
C559 C556 1.539 . S
C559 H573 0.958 . S
C559 H574 0.961 . S
C559 H575 0.960 . S
H560 C544 0.931 . S
H561 C549 0.929 . S
H562 C550 0.960 . S
H563 C550 0.962 . S
H564 C550 0.960 . S
H565 C551 0.961 . S
H566 C551 0.961 . S
H567 C551 0.961 . S
H568 C552 0.931 . S
H569 C557 0.930 . S
H570 C558 0.956 . S
H571 C558 0.961 . S
H572 C558 0.961 . S
H573 C559 0.958 . S
H574 C559 0.961 . S
H575 C559 0.960 . S
C576 C577 1.391 . S
C576 C578 1.394 . S
C576 H592 0.931 . S
C577 C576 1.391 . S
C577 C581 1.376 . S
C578 C576 1.394 . S
C578 C579 1.369 . S
C578 C582 1.531 . S
C579 C578 1.369 . S
C579 C580 1.410 . S
C579 C587 1.503 . S
C580 C579 1.410 . S
C580 C581 1.392 . S
C580 C583 1.511 . S
C581 C577 1.376 . S
C581 C580 1.392 . S
C581 H593 0.929 . S
C582 C578 1.531 . S
C582 H594 0.960 . S
C582 H595 0.962 . S
C582 H596 0.960 . S
C583 C580 1.511 . S
C583 H597 0.961 . S
C583 H598 0.961 . S
C583 H599 0.961 . S
C584 C585 1.370 . S
C584 C586 1.363 . S
C584 H600 0.931 . S
C585 C584 1.370 . S
C585 C589 1.408 . S
C586 C584 1.363 . S
C586 C587 1.370 . S
C586 C590 1.524 . S
C587 C579 1.503 . S
C587 C586 1.370 . S
C587 C588 1.403 . S
C588 C587 1.403 . S
C588 C589 1.404 . S
C588 C591 1.539 . S
C589 C585 1.408 . S
C589 C588 1.404 . S
C589 H601 0.930 . S
C590 C586 1.524 . S
C590 H602 0.956 . S
C590 H603 0.961 . S
C590 H604 0.961 . S
C591 C588 1.539 . S
C591 H605 0.958 . S
C591 H606 0.961 . S
C591 H607 0.960 . S
H592 C576 0.931 . S
H593 C581 0.929 . S
H594 C582 0.960 . S
H595 C582 0.962 . S
H596 C582 0.960 . S
H597 C583 0.961 . S
H598 C583 0.961 . S
H599 C583 0.961 . S
H600 C584 0.931 . S
H601 C589 0.930 . S
H602 C590 0.956 . S
H603 C590 0.961 . S
H604 C590 0.961 . S
H605 C591 0.958 . S
H606 C591 0.961 . S
H607 C591 0.960 . S
C608 C609 1.391 . S
C608 C610 1.394 . S
C608 H624 0.931 . S
C609 C608 1.391 . S
C609 C613 1.376 . S
C610 C608 1.394 . S
C610 C611 1.369 . S
C610 C614 1.531 . S
C611 C610 1.369 . S
C611 C612 1.410 . S
C611 C619 1.503 . S
C612 C611 1.410 . S
C612 C613 1.392 . S
C612 C615 1.511 . S
C613 C609 1.376 . S
C613 C612 1.392 . S
C613 H625 0.929 . S
C614 C610 1.531 . S
C614 H626 0.960 . S
C614 H627 0.962 . S
C614 H628 0.960 . S
C615 C612 1.511 . S
C615 H629 0.961 . S
C615 H630 0.961 . S
C615 H631 0.961 . S
C616 C617 1.370 . S
C616 C618 1.363 . S
C616 H632 0.931 . S
C617 C616 1.370 . S
C617 C621 1.408 . S
C618 C616 1.363 . S
C618 C619 1.370 . S
C618 C622 1.524 . S
C619 C611 1.503 . S
C619 C618 1.370 . S
C619 C620 1.403 . S
C620 C619 1.403 . S
C620 C621 1.404 . S
C620 C623 1.539 . S
C621 C617 1.408 . S
C621 C620 1.404 . S
C621 H633 0.930 . S
C622 C618 1.524 . S
C622 H634 0.956 . S
C622 H635 0.961 . S
C622 H636 0.961 . S
C623 C620 1.539 . S
C623 H637 0.958 . S
C623 H638 0.961 . S
C623 H639 0.960 . S
H624 C608 0.931 . S
H625 C613 0.929 . S
H626 C614 0.960 . S
H627 C614 0.962 . S
H628 C614 0.960 . S
H629 C615 0.961 . S
H630 C615 0.961 . S
H631 C615 0.961 . S
H632 C616 0.931 . S
H633 C621 0.930 . S
H634 C622 0.956 . S
H635 C622 0.961 . S
H636 C622 0.961 . S
H637 C623 0.958 . S
H638 C623 0.961 . S
H639 C623 0.960 . S
C640 C641 1.391 . S
C640 C642 1.394 . S
C640 H656 0.931 . S
C641 C640 1.391 . S
C641 C645 1.376 . S
C642 C640 1.394 . S
C642 C643 1.369 . S
C642 C646 1.531 . S
C643 C642 1.369 . S
C643 C644 1.410 . S
C643 C651 1.503 . S
C644 C643 1.410 . S
C644 C645 1.392 . S
C644 C647 1.511 . S
C645 C641 1.376 . S
C645 C644 1.392 . S
C645 H657 0.929 . S
C646 C642 1.531 . S
C646 H658 0.960 . S
C646 H659 0.962 . S
C646 H660 0.960 . S
C647 C644 1.511 . S
C647 H661 0.961 . S
C647 H662 0.961 . S
C647 H663 0.961 . S
C648 C649 1.370 . S
C648 C650 1.363 . S
C648 H664 0.931 . S
C649 C648 1.370 . S
C649 C653 1.408 . S
C650 C648 1.363 . S
C650 C651 1.370 . S
C650 C654 1.524 . S
C651 C643 1.503 . S
C651 C650 1.370 . S
C651 C652 1.403 . S
C652 C651 1.403 . S
C652 C653 1.404 . S
C652 C655 1.539 . S
C653 C649 1.408 . S
C653 C652 1.404 . S
C653 H665 0.930 . S
C654 C650 1.524 . S
C654 H666 0.956 . S
C654 H667 0.961 . S
C654 H668 0.961 . S
C655 C652 1.539 . S
C655 H669 0.958 . S
C655 H670 0.961 . S
C655 H671 0.960 . S
H656 C640 0.931 . S
H657 C645 0.929 . S
H658 C646 0.960 . S
H659 C646 0.962 . S
H660 C646 0.960 . S
H661 C647 0.961 . S
H662 C647 0.961 . S
H663 C647 0.961 . S
H664 C648 0.931 . S
H665 C653 0.930 . S
H666 C654 0.956 . S
H667 C654 0.961 . S
H668 C654 0.961 . S
H669 C655 0.958 . S
H670 C655 0.961 . S
H671 C655 0.960 . S
C672 C673 1.391 . S
C672 C674 1.394 . S
C672 H688 0.931 . S
C673 C672 1.391 . S
C673 C677 1.376 . S
C674 C672 1.394 . S
C674 C675 1.369 . S
C674 C678 1.531 . S
C675 C674 1.369 . S
C675 C676 1.410 . S
C675 C683 1.503 . S
C676 C675 1.410 . S
C676 C677 1.392 . S
C676 C679 1.511 . S
C677 C673 1.376 . S
C677 C676 1.392 . S
C677 H689 0.929 . S
C678 C674 1.531 . S
C678 H690 0.960 . S
C678 H691 0.962 . S
C678 H692 0.960 . S
C679 C676 1.511 . S
C679 H693 0.961 . S
C679 H694 0.961 . S
C679 H695 0.961 . S
C680 C681 1.370 . S
C680 C682 1.363 . S
C680 H696 0.931 . S
C681 C680 1.370 . S
C681 C685 1.408 . S
C682 C680 1.363 . S
C682 C683 1.370 . S
C682 C686 1.524 . S
C683 C675 1.503 . S
C683 C682 1.370 . S
C683 C684 1.403 . S
C684 C683 1.403 . S
C684 C685 1.404 . S
C684 C687 1.539 . S
C685 C681 1.408 . S
C685 C684 1.404 . S
C685 H697 0.930 . S
C686 C682 1.524 . S
C686 H698 0.956 . S
C686 H699 0.961 . S
C686 H700 0.961 . S
C687 C684 1.539 . S
C687 H701 0.958 . S
C687 H702 0.961 . S
C687 H703 0.960 . S
H688 C672 0.931 . S
H689 C677 0.929 . S
H690 C678 0.960 . S
H691 C678 0.962 . S
H692 C678 0.960 . S
H693 C679 0.961 . S
H694 C679 0.961 . S
H695 C679 0.961 . S
H696 C680 0.931 . S
H697 C685 0.930 . S
H698 C686 0.956 . S
H699 C686 0.961 . S
H700 C686 0.961 . S
H701 C687 0.958 . S
H702 C687 0.961 . S
H703 C687 0.960 . S
C704 C705 1.391 . S
C704 C706 1.394 . S
C704 H720 0.931 . S
C705 C704 1.391 . S
C705 C709 1.376 . S
C706 C704 1.394 . S
C706 C707 1.369 . S
C706 C710 1.531 . S
C707 C706 1.369 . S
C707 C708 1.410 . S
C707 C715 1.503 . S
C708 C707 1.410 . S
C708 C709 1.392 . S
C708 C711 1.511 . S
C709 C705 1.376 . S
C709 C708 1.392 . S
C709 H721 0.929 . S
C710 C706 1.531 . S
C710 H722 0.960 . S
C710 H723 0.962 . S
C710 H724 0.960 . S
C711 C708 1.511 . S
C711 H725 0.961 . S
C711 H726 0.961 . S
C711 H727 0.961 . S
C712 C713 1.370 . S
C712 C714 1.363 . S
C712 H728 0.931 . S
C713 C712 1.370 . S
C713 C717 1.408 . S
C714 C712 1.363 . S
C714 C715 1.370 . S
C714 C718 1.524 . S
C715 C707 1.503 . S
C715 C714 1.370 . S
C715 C716 1.403 . S
C716 C715 1.403 . S
C716 C717 1.404 . S
C716 C719 1.539 . S
C717 C713 1.408 . S
C717 C716 1.404 . S
C717 H729 0.930 . S
C718 C714 1.524 . S
C718 H730 0.956 . S
C718 H731 0.961 . S
C718 H732 0.961 . S
C719 C716 1.539 . S
C719 H733 0.958 . S
C719 H734 0.961 . S
C719 H735 0.960 . S
H720 C704 0.931 . S
H721 C709 0.929 . S
H722 C710 0.960 . S
H723 C710 0.962 . S
H724 C710 0.960 . S
H725 C711 0.961 . S
H726 C711 0.961 . S
H727 C711 0.961 . S
H728 C712 0.931 . S
H729 C717 0.930 . S
H730 C718 0.956 . S
H731 C718 0.961 . S
H732 C718 0.961 . S
H733 C719 0.958 . S
H734 C719 0.961 . S
H735 C719 0.960 . S
C736 C737 1.391 . S
C736 C738 1.394 . S
C736 H752 0.931 . S
C737 C736 1.391 . S
C737 C741 1.376 . S
C738 C736 1.394 . S
C738 C739 1.369 . S
C738 C742 1.531 . S
C739 C738 1.369 . S
C739 C740 1.410 . S
C739 C747 1.503 . S
C740 C739 1.410 . S
C740 C741 1.392 . S
C740 C743 1.511 . S
C741 C737 1.376 . S
C741 C740 1.392 . S
C741 H753 0.929 . S
C742 C738 1.531 . S
C742 H754 0.960 . S
C742 H755 0.962 . S
C742 H756 0.960 . S
C743 C740 1.511 . S
C743 H757 0.961 . S
C743 H758 0.961 . S
C743 H759 0.961 . S
C744 C745 1.370 . S
C744 C746 1.363 . S
C744 H760 0.931 . S
C745 C744 1.370 . S
C745 C749 1.408 . S
C746 C744 1.363 . S
C746 C747 1.370 . S
C746 C750 1.524 . S
C747 C739 1.503 . S
C747 C746 1.370 . S
C747 C748 1.403 . S
C748 C747 1.403 . S
C748 C749 1.404 . S
C748 C751 1.539 . S
C749 C745 1.408 . S
C749 C748 1.404 . S
C749 H761 0.930 . S
C750 C746 1.524 . S
C750 H762 0.956 . S
C750 H763 0.961 . S
C750 H764 0.961 . S
C751 C748 1.539 . S
C751 H765 0.958 . S
C751 H766 0.961 . S
C751 H767 0.960 . S
H752 C736 0.931 . S
H753 C741 0.929 . S
H754 C742 0.960 . S
H755 C742 0.962 . S
H756 C742 0.960 . S
H757 C743 0.961 . S
H758 C743 0.961 . S
H759 C743 0.961 . S
H760 C744 0.931 . S
H761 C749 0.930 . S
H762 C750 0.956 . S
H763 C750 0.961 . S
H764 C750 0.961 . S
H765 C751 0.958 . S
H766 C751 0.961 . S
H767 C751 0.960 . S
C768 C769 1.391 . S
C768 C770 1.394 . S
C768 H784 0.931 . S
C769 C768 1.391 . S
C769 C773 1.376 . S
C770 C768 1.394 . S
C770 C771 1.369 . S
C770 C774 1.531 . S
C771 C770 1.369 . S
C771 C772 1.410 . S
C771 C779 1.503 . S
C772 C771 1.410 . S
C772 C773 1.392 . S
C772 C775 1.511 . S
C773 C769 1.376 . S
C773 C772 1.392 . S
C773 H785 0.929 . S
C774 C770 1.531 . S
C774 H786 0.960 . S
C774 H787 0.962 . S
C774 H788 0.960 . S
C775 C772 1.511 . S
C775 H789 0.961 . S
C775 H790 0.961 . S
C775 H791 0.961 . S
C776 C777 1.370 . S
C776 C778 1.363 . S
C776 H792 0.931 . S
C777 C776 1.370 . S
C777 C781 1.408 . S
C778 C776 1.363 . S
C778 C779 1.370 . S
C778 C782 1.524 . S
C779 C771 1.503 . S
C779 C778 1.370 . S
C779 C780 1.403 . S
C780 C779 1.403 . S
C780 C781 1.404 . S
C780 C783 1.539 . S
C781 C777 1.408 . S
C781 C780 1.404 . S
C781 H793 0.930 . S
C782 C778 1.524 . S
C782 H794 0.956 . S
C782 H795 0.961 . S
C782 H796 0.961 . S
C783 C780 1.539 . S
C783 H797 0.958 . S
C783 H798 0.961 . S
C783 H799 0.960 . S
H784 C768 0.931 . S
H785 C773 0.929 . S
H786 C774 0.960 . S
H787 C774 0.962 . S
H788 C774 0.960 . S
H789 C775 0.961 . S
H790 C775 0.961 . S
H791 C775 0.961 . S
H792 C776 0.931 . S
H793 C781 0.930 . S
H794 C782 0.956 . S
H795 C782 0.961 . S
H796 C782 0.961 . S
H797 C783 0.958 . S
H798 C783 0.961 . S
H799 C783 0.960 . S
C800 C801 1.391 . S
C800 C802 1.394 . S
C800 H816 0.931 . S
C801 C800 1.391 . S
C801 C805 1.376 . S
C802 C800 1.394 . S
C802 C803 1.369 . S
C802 C806 1.531 . S
C803 C802 1.369 . S
C803 C804 1.410 . S
C803 C811 1.503 . S
C804 C803 1.410 . S
C804 C805 1.392 . S
C804 C807 1.511 . S
C805 C801 1.376 . S
C805 C804 1.392 . S
C805 H817 0.929 . S
C806 C802 1.531 . S
C806 H818 0.960 . S
C806 H819 0.962 . S
C806 H820 0.960 . S
C807 C804 1.511 . S
C807 H821 0.961 . S
C807 H822 0.961 . S
C807 H823 0.961 . S
C808 C809 1.370 . S
C808 C810 1.363 . S
C808 H824 0.931 . S
C809 C808 1.370 . S
C809 C813 1.408 . S
C810 C808 1.363 . S
C810 C811 1.370 . S
C810 C814 1.524 . S
C811 C803 1.503 . S
C811 C810 1.370 . S
C811 C812 1.403 . S
C812 C811 1.403 . S
C812 C813 1.404 . S
C812 C815 1.539 . S
C813 C809 1.408 . S
C813 C812 1.404 . S
C813 H825 0.930 . S
C814 C810 1.524 . S
C814 H826 0.956 . S
C814 H827 0.961 . S
C814 H828 0.961 . S
C815 C812 1.539 . S
C815 H829 0.958 . S
C815 H830 0.961 . S
C815 H831 0.960 . S
H816 C800 0.931 . S
H817 C805 0.929 . S
H818 C806 0.960 . S
H819 C806 0.962 . S
H820 C806 0.960 . S
H821 C807 0.961 . S
H822 C807 0.961 . S
H823 C807 0.961 . S
H824 C808 0.931 . S
H825 C813 0.930 . S
H826 C814 0.956 . S
H827 C814 0.961 . S
H828 C814 0.961 . S
H829 C815 0.958 . S
H830 C815 0.961 . S
H831 C815 0.960 . S
C832 C833 1.391 . S
C832 C834 1.394 . S
C832 H848 0.931 . S
C833 C832 1.391 . S
C833 C837 1.376 . S
C834 C832 1.394 . S
C834 C835 1.369 . S
C834 C838 1.531 . S
C835 C834 1.369 . S
C835 C836 1.410 . S
C835 C843 1.503 . S
C836 C835 1.410 . S
C836 C837 1.392 . S
C836 C839 1.511 . S
C837 C833 1.376 . S
C837 C836 1.392 . S
C837 H849 0.929 . S
C838 C834 1.531 . S
C838 H850 0.960 . S
C838 H851 0.962 . S
C838 H852 0.960 . S
C839 C836 1.511 . S
C839 H853 0.961 . S
C839 H854 0.961 . S
C839 H855 0.961 . S
C840 C841 1.370 . S
C840 C842 1.363 . S
C840 H856 0.931 . S
C841 C840 1.370 . S
C841 C845 1.408 . S
C842 C840 1.363 . S
C842 C843 1.370 . S
C842 C846 1.524 . S
C843 C835 1.503 . S
C843 C842 1.370 . S
C843 C844 1.403 . S
C844 C843 1.403 . S
C844 C845 1.404 . S
C844 C847 1.539 . S
C845 C841 1.408 . S
C845 C844 1.404 . S
C845 H857 0.930 . S
C846 C842 1.524 . S
C846 H858 0.956 . S
C846 H859 0.961 . S
C846 H860 0.961 . S
C847 C844 1.539 . S
C847 H861 0.958 . S
C847 H862 0.961 . S
C847 H863 0.960 . S
H848 C832 0.931 . S
H849 C837 0.929 . S
H850 C838 0.960 . S
H851 C838 0.962 . S
H852 C838 0.960 . S
H853 C839 0.961 . S
H854 C839 0.961 . S
H855 C839 0.961 . S
H856 C840 0.931 . S
H857 C845 0.930 . S
H858 C846 0.956 . S
H859 C846 0.961 . S
H860 C846 0.961 . S
H861 C847 0.958 . S
H862 C847 0.961 . S
H863 C847 0.960 . S
C864 C865 1.391 . S
C864 C866 1.394 . S
C864 H880 0.931 . S
C865 C864 1.391 . S
C865 C869 1.376 . S
C866 C864 1.394 . S
C866 C867 1.369 . S
C866 C870 1.531 . S
C867 C866 1.369 . S
C867 C868 1.410 . S
C867 C875 1.503 . S
C868 C867 1.410 . S
C868 C869 1.392 . S
C868 C871 1.511 . S
C869 C865 1.376 . S
C869 C868 1.392 . S
C869 H881 0.929 . S
C870 C866 1.531 . S
C870 H882 0.960 . S
C870 H883 0.962 . S
C870 H884 0.960 . S
C871 C868 1.511 . S
C871 H885 0.961 . S
C871 H886 0.961 . S
C871 H887 0.961 . S
C872 C873 1.370 . S
C872 C874 1.363 . S
C872 H888 0.931 . S
C873 C872 1.370 . S
C873 C877 1.408 . S
C874 C872 1.363 . S
C874 C875 1.370 . S
C874 C878 1.524 . S
C875 C867 1.503 . S
C875 C874 1.370 . S
C875 C876 1.403 . S
C876 C875 1.403 . S
C876 C877 1.404 . S
C876 C879 1.539 . S
C877 C873 1.408 . S
C877 C876 1.404 . S
C877 H889 0.930 . S
C878 C874 1.524 . S
C878 H890 0.956 . S
C878 H891 0.961 . S
C878 H892 0.961 . S
C879 C876 1.539 . S
C879 H893 0.958 . S
C879 H894 0.961 . S
C879 H895 0.960 . S
H880 C864 0.931 . S
H881 C869 0.929 . S
H882 C870 0.960 . S
H883 C870 0.962 . S
H884 C870 0.960 . S
H885 C871 0.961 . S
H886 C871 0.961 . S
H887 C871 0.961 . S
H888 C872 0.931 . S
H889 C877 0.930 . S
H890 C878 0.956 . S
H891 C878 0.961 . S
H892 C878 0.961 . S
H893 C879 0.958 . S
H894 C879 0.961 . S
H895 C879 0.960 . S
C896 C897 1.391 . S
C896 C898 1.394 . S
C896 H912 0.931 . S
C897 C896 1.391 . S
C897 C901 1.376 . S
C898 C896 1.394 . S
C898 C899 1.369 . S
C898 C902 1.531 . S
C899 C898 1.369 . S
C899 C900 1.410 . S
C899 C907 1.503 . S
C900 C899 1.410 . S
C900 C901 1.392 . S
C900 C903 1.511 . S
C901 C897 1.376 . S
C901 C900 1.392 . S
C901 H913 0.929 . S
C902 C898 1.531 . S
C902 H914 0.960 . S
C902 H915 0.962 . S
C902 H916 0.960 . S
C903 C900 1.511 . S
C903 H917 0.961 . S
C903 H918 0.961 . S
C903 H919 0.961 . S
C904 C905 1.370 . S
C904 C906 1.363 . S
C904 H920 0.931 . S
C905 C904 1.370 . S
C905 C909 1.408 . S
C906 C904 1.363 . S
C906 C907 1.370 . S
C906 C910 1.524 . S
C907 C899 1.503 . S
C907 C906 1.370 . S
C907 C908 1.403 . S
C908 C907 1.403 . S
C908 C909 1.404 . S
C908 C911 1.539 . S
C909 C905 1.408 . S
C909 C908 1.404 . S
C909 H921 0.930 . S
C910 C906 1.524 . S
C910 H922 0.956 . S
C910 H923 0.961 . S
C910 H924 0.961 . S
C911 C908 1.539 . S
C911 H925 0.958 . S
C911 H926 0.961 . S
C911 H927 0.960 . S
H912 C896 0.931 . S
H913 C901 0.929 . S
H914 C902 0.960 . S
H915 C902 0.962 . S
H916 C902 0.960 . S
H917 C903 0.961 . S
H918 C903 0.961 . S
H919 C903 0.961 . S
H920 C904 0.931 . S
H921 C909 0.930 . S
H922 C910 0.956 . S
H923 C910 0.961 . S
H924 C910 0.961 . S
H925 C911 0.958 . S
H926 C911 0.961 . S
H927 C911 0.960 . S
C928 C929 1.391 . S
C928 C930 1.394 . S
C928 H944 0.931 . S
C929 C928 1.391 . S
C929 C933 1.376 . S
C930 C928 1.394 . S
C930 C931 1.369 . S
C930 C934 1.531 . S
C931 C930 1.369 . S
C931 C932 1.410 . S
C931 C939 1.503 . S
C932 C931 1.410 . S
C932 C933 1.392 . S
C932 C935 1.511 . S
C933 C929 1.376 . S
C933 C932 1.392 . S
C933 H945 0.929 . S
C934 C930 1.531 . S
C934 H946 0.960 . S
C934 H947 0.962 . S
C934 H948 0.960 . S
C935 C932 1.511 . S
C935 H949 0.961 . S
C935 H950 0.961 . S
C935 H951 0.961 . S
C936 C937 1.370 . S
C936 C938 1.363 . S
C936 H952 0.931 . S
C937 C936 1.370 . S
C937 C941 1.408 . S
C938 C936 1.363 . S
C938 C939 1.370 . S
C938 C942 1.524 . S
C939 C931 1.503 . S
C939 C938 1.370 . S
C939 C940 1.403 . S
C940 C939 1.403 . S
C940 C941 1.404 . S
C940 C943 1.539 . S
C941 C937 1.408 . S
C941 C940 1.404 . S
C941 H953 0.930 . S
C942 C938 1.524 . S
C942 H954 0.956 . S
C942 H955 0.961 . S
C942 H956 0.961 . S
C943 C940 1.539 . S
C943 H957 0.958 . S
C943 H958 0.961 . S
C943 H959 0.960 . S
H944 C928 0.931 . S
H945 C933 0.929 . S
H946 C934 0.960 . S
H947 C934 0.962 . S
H948 C934 0.960 . S
H949 C935 0.961 . S
H950 C935 0.961 . S
H951 C935 0.961 . S
H952 C936 0.931 . S
H953 C941 0.930 . S
H954 C942 0.956 . S
H955 C942 0.961 . S
H956 C942 0.961 . S
H957 C943 0.958 . S
H958 C943 0.961 . S
H959 C943 0.960 . S
C960 C961 1.391 . S
C960 C962 1.394 . S
C960 H976 0.931 . S
C961 C960 1.391 . S
C961 C965 1.376 . S
C962 C960 1.394 . S
C962 C963 1.369 . S
C962 C966 1.531 . S
C963 C962 1.369 . S
C963 C964 1.410 . S
C963 C971 1.503 . S
C964 C963 1.410 . S
C964 C965 1.392 . S
C964 C967 1.511 . S
C965 C961 1.376 . S
C965 C964 1.392 . S
C965 H977 0.929 . S
C966 C962 1.531 . S
C966 H978 0.960 . S
C966 H979 0.962 . S
C966 H980 0.960 . S
C967 C964 1.511 . S
C967 H981 0.961 . S
C967 H982 0.961 . S
C967 H983 0.961 . S
C968 C969 1.370 . S
C968 C970 1.363 . S
C968 H984 0.931 . S
C969 C968 1.370 . S
C969 C973 1.408 . S
C970 C968 1.363 . S
C970 C971 1.370 . S
C970 C974 1.524 . S
C971 C963 1.503 . S
C971 C970 1.370 . S
C971 C972 1.403 . S
C972 C971 1.403 . S
C972 C973 1.404 . S
C972 C975 1.539 . S
C973 C969 1.408 . S
C973 C972 1.404 . S
C973 H985 0.930 . S
C974 C970 1.524 . S
C974 H986 0.956 . S
C974 H987 0.961 . S
C974 H988 0.961 . S
C975 C972 1.539 . S
C975 H989 0.958 . S
C975 H990 0.961 . S
C975 H991 0.960 . S
H976 C960 0.931 . S
H977 C965 0.929 . S
H978 C966 0.960 . S
H979 C966 0.962 . S
H980 C966 0.960 . S
H981 C967 0.961 . S
H982 C967 0.961 . S
H983 C967 0.961 . S
H984 C968 0.931 . S
H985 C973 0.930 . S
H986 C974 0.956 . S
H987 C974 0.961 . S
H988 C974 0.961 . S
H989 C975 0.958 . S
H990 C975 0.961 . S
H991 C975 0.960 . S
C992 C993 1.391 . S
C992 C994 1.394 . S
C992 H1008 0.931 . S
C993 C992 1.391 . S
C993 C997 1.376 . S
C994 C992 1.394 . S
C994 C995 1.369 . S
C994 C998 1.531 . S
C995 C994 1.369 . S
C995 C996 1.410 . S
C995 C1003 1.503 1_554 S
C996 C995 1.410 . S
C996 C997 1.392 . S
C996 C999 1.511 . S
C997 C993 1.376 . S
C997 C996 1.392 . S
C997 H1009 0.929 . S
C998 C994 1.531 . S
C998 H1010 0.960 1_554 S
C998 H1011 0.962 . S
C998 H1012 0.960 . S
C999 C996 1.511 . S
C999 H1013 0.961 . S
C999 H1014 0.961 . S
C999 H1015 0.961 . S
C1000 C1001 1.370 . S
C1000 C1002 1.363 . S
C1000 H1016 0.931 . S
C1001 C1000 1.370 . S
C1001 C1005 1.408 . S
C1002 C1000 1.363 . S
C1002 C1003 1.370 . S
C1002 C1006 1.524 . S
C1003 C995 1.503 1_556 S
C1003 C1002 1.370 . S
C1003 C1004 1.403 . S
C1004 C1003 1.403 . S
C1004 C1005 1.404 . S
C1004 C1007 1.539 . S
C1005 C1001 1.408 . S
C1005 C1004 1.404 . S
C1005 H1017 0.930 . S
C1006 C1002 1.524 . S
C1006 H1018 0.956 1_556 S
C1006 H1019 0.961 1_556 S
C1006 H1020 0.961 . S
C1007 C1004 1.539 . S
C1007 H1021 0.958 . S
C1007 H1022 0.961 . S
C1007 H1023 0.960 . S
H1008 C992 0.931 . S
H1009 C997 0.929 . S
H1010 C998 0.960 1_556 S
H1011 C998 0.962 . S
H1012 C998 0.960 . S
H1013 C999 0.961 . S
H1014 C999 0.961 . S
H1015 C999 0.961 . S
H1016 C1000 0.931 . S
H1017 C1005 0.930 . S
H1018 C1006 0.956 1_554 S
H1019 C1006 0.961 1_554 S
H1020 C1006 0.961 . S
H1021 C1007 0.958 . S
H1022 C1007 0.961 . S
H1023 C1007 0.960 . S
C1024 C1025 1.391 . S
C1024 C1026 1.394 . S
C1024 H1040 0.931 . S
C1025 C1024 1.391 . S
C1025 C1029 1.376 . S
C1026 C1024 1.394 . S
C1026 C1027 1.369 . S
C1026 C1030 1.531 . S
C1027 C1026 1.369 . S
C1027 C1028 1.410 . S
C1027 C1035 1.503 . S
C1028 C1027 1.410 . S
C1028 C1029 1.392 . S
C1028 C1031 1.511 . S
C1029 C1025 1.376 . S
C1029 C1028 1.392 . S
C1029 H1041 0.929 . S
C1030 C1026 1.531 . S
C1030 H1042 0.960 . S
C1030 H1043 0.962 . S
C1030 H1044 0.960 . S
C1031 C1028 1.511 . S
C1031 H1045 0.961 . S
C1031 H1046 0.961 . S
C1031 H1047 0.961 . S
C1032 C1033 1.370 . S
C1032 C1034 1.363 . S
C1032 H1048 0.931 . S
C1033 C1032 1.370 . S
C1033 C1037 1.408 . S
C1034 C1032 1.363 . S
C1034 C1035 1.370 . S
C1034 C1038 1.524 . S
C1035 C1027 1.503 . S
C1035 C1034 1.370 . S
C1035 C1036 1.403 . S
C1036 C1035 1.403 . S
C1036 C1037 1.404 . S
C1036 C1039 1.539 . S
C1037 C1033 1.408 . S
C1037 C1036 1.404 . S
C1037 H1049 0.930 . S
C1038 C1034 1.524 . S
C1038 H1050 0.956 . S
C1038 H1051 0.961 . S
C1038 H1052 0.961 . S
C1039 C1036 1.539 . S
C1039 H1053 0.958 . S
C1039 H1054 0.961 . S
C1039 H1055 0.960 . S
H1040 C1024 0.931 . S
H1041 C1029 0.929 . S
H1042 C1030 0.960 . S
H1043 C1030 0.962 . S
H1044 C1030 0.960 . S
H1045 C1031 0.961 . S
H1046 C1031 0.961 . S
H1047 C1031 0.961 . S
H1048 C1032 0.931 . S
H1049 C1037 0.930 . S
H1050 C1038 0.956 . S
H1051 C1038 0.961 . S
H1052 C1038 0.961 . S
H1053 C1039 0.958 . S
H1054 C1039 0.961 . S
H1055 C1039 0.960 . S
C1056 C1057 1.391 . S
C1056 C1058 1.394 . S
C1056 H1072 0.931 . S
C1057 C1056 1.391 . S
C1057 C1061 1.376 . S
C1058 C1056 1.394 . S
C1058 C1059 1.369 . S
C1058 C1062 1.531 . S
C1059 C1058 1.369 . S
C1059 C1060 1.410 . S
C1059 C1067 1.503 1_554 S
C1060 C1059 1.410 . S
C1060 C1061 1.392 . S
C1060 C1063 1.511 1_655 S
C1061 C1057 1.376 . S
C1061 C1060 1.392 . S
C1061 H1073 0.929 . S
C1062 C1058 1.531 . S
C1062 H1074 0.960 . S
C1062 H1075 0.962 . S
C1062 H1076 0.960 . S
C1063 C1060 1.511 1_455 S
C1063 H1077 0.961 . S
C1063 H1078 0.961 1_554 S
C1063 H1079 0.955 1_454 S
C1064 C1065 1.370 . S
C1064 C1066 1.363 . S
C1064 H1080 0.920 1_655 S
C1065 C1064 1.370 . S
C1065 C1069 1.408 . S
C1066 C1064 1.363 . S
C1066 C1067 1.370 . S
C1066 C1070 1.524 1_655 S
C1067 C1059 1.503 1_556 S
C1067 C1066 1.370 . S
C1067 C1068 1.403 . S
C1068 C1067 1.403 . S
C1068 C1069 1.404 . S
C1068 C1071 1.539 . S
C1069 C1065 1.408 . S
C1069 C1068 1.404 . S
C1069 H1081 0.930 . S
C1070 C1066 1.524 1_455 S
C1070 H1082 0.956 1_456 S
C1070 H1083 0.961 1_556 S
C1070 H1084 0.961 . S
C1071 C1068 1.539 . S
C1071 H1085 0.958 . S
C1071 H1086 0.961 . S
C1071 H1087 0.960 . S
H1072 C1056 0.931 . S
H1073 C1061 0.929 . S
H1074 C1062 0.960 . S
H1075 C1062 0.962 . S
H1076 C1062 0.960 . S
H1077 C1063 0.961 . S
H1078 C1063 0.961 1_556 S
H1079 C1063 0.955 1_656 S
H1080 C1064 0.920 1_455 S
H1081 C1069 0.930 . S
H1082 C1070 0.956 1_654 S
H1083 C1070 0.961 1_554 S
H1084 C1070 0.961 . S
H1085 C1071 0.958 . S
H1086 C1071 0.961 . S
H1087 C1071 0.960 . S
C1088 C1089 1.391 . S
C1088 C1090 1.394 . S
C1088 H1104 0.931 1_565 S
C1089 C1088 1.391 . S
C1089 C1093 1.376 . S
C1090 C1088 1.394 . S
C1090 C1091 1.369 . S
C1090 C1094 1.531 1_565 S
C1091 C1090 1.369 . S
C1091 C1092 1.410 . S
C1091 C1099 1.503 . S
C1092 C1091 1.410 . S
C1092 C1093 1.392 . S
C1092 C1095 1.511 . S
C1093 C1089 1.376 . S
C1093 C1092 1.392 . S
C1093 H1105 0.929 . S
C1094 C1090 1.531 1_545 S
C1094 H1106 0.960 . S
C1094 H1107 0.962 . S
C1094 H1108 0.960 . S
C1095 C1092 1.511 . S
C1095 H1109 0.961 . S
C1095 H1110 0.961 . S
C1095 H1111 0.961 . S
C1096 C1097 1.370 . S
C1096 C1098 1.363 . S
C1096 H1112 0.931 . S
C1097 C1096 1.370 . S
C1097 C1101 1.408 . S
C1098 C1096 1.363 . S
C1098 C1099 1.370 . S
C1098 C1102 1.524 . S
C1099 C1091 1.503 . S
C1099 C1098 1.370 . S
C1099 C1100 1.403 . S
C1100 C1099 1.403 . S
C1100 C1101 1.404 . S
C1100 C1103 1.539 1_565 S
C1101 C1097 1.408 . S
C1101 C1100 1.404 . S
C1101 H1113 0.930 1_565 S
C1102 C1098 1.524 . S
C1102 H1114 0.956 . S
C1102 H1115 0.961 . S
C1102 H1116 0.961 . S
C1103 C1100 1.539 1_545 S
C1103 H1117 0.958 . S
C1103 H1118 0.961 . S
C1103 H1119 0.960 . S
H1104 C1088 0.931 1_545 S
H1105 C1093 0.929 . S
H1106 C1094 0.960 . S
H1107 C1094 0.962 . S
H1108 C1094 0.960 . S
H1109 C1095 0.961 . S
H1110 C1095 0.961 . S
H1111 C1095 0.961 . S
H1112 C1096 0.931 . S
H1113 C1101 0.930 1_545 S
H1114 C1102 0.956 . S
H1115 C1102 0.961 . S
H1116 C1102 0.961 . S
H1117 C1103 0.958 . S
H1118 C1103 0.961 . S
H1119 C1103 0.960 . S
C1120 C1121 1.391 . S
C1120 C1122 1.394 . S
C1120 H1136 0.931 . S
C1121 C1120 1.391 . S
C1121 C1125 1.376 . S
C1122 C1120 1.394 . S
C1122 C1123 1.369 . S
C1122 C1126 1.531 . S
C1123 C1122 1.369 . S
C1123 C1124 1.410 . S
C1123 C1131 1.503 1_556 S
C1124 C1123 1.410 . S
C1124 C1125 1.392 . S
C1124 C1127 1.511 . S
C1125 C1121 1.376 . S
C1125 C1124 1.392 . S
C1125 H1137 0.929 . S
C1126 C1122 1.531 . S
C1126 H1138 0.960 1_556 S
C1126 H1139 0.962 . S
C1126 H1140 0.960 . S
C1127 C1124 1.511 . S
C1127 H1141 0.961 . S
C1127 H1142 0.961 . S
C1127 H1143 0.961 . S
C1128 C1129 1.370 . S
C1128 C1130 1.363 . S
C1128 H1144 0.931 . S
C1129 C1128 1.370 . S
C1129 C1133 1.408 . S
C1130 C1128 1.363 . S
C1130 C1131 1.370 . S
C1130 C1134 1.524 . S
C1131 C1123 1.503 1_554 S
C1131 C1130 1.370 . S
C1131 C1132 1.403 . S
C1132 C1131 1.403 . S
C1132 C1133 1.404 . S
C1132 C1135 1.539 . S
C1133 C1129 1.408 . S
C1133 C1132 1.404 . S
C1133 H1145 0.930 . S
C1134 C1130 1.524 . S
C1134 H1146 0.956 1_554 S
C1134 H1147 0.961 1_554 S
C1134 H1148 0.961 . S
C1135 C1132 1.539 . S
C1135 H1149 0.958 . S
C1135 H1150 0.961 . S
C1135 H1151 0.960 . S
H1136 C1120 0.931 . S
H1137 C1125 0.929 . S
H1138 C1126 0.960 1_554 S
H1139 C1126 0.962 . S
H1140 C1126 0.960 . S
H1141 C1127 0.961 . S
H1142 C1127 0.961 . S
H1143 C1127 0.961 . S
H1144 C1128 0.931 . S
H1145 C1133 0.930 . S
H1146 C1134 0.956 1_556 S
H1147 C1134 0.961 1_556 S
H1148 C1134 0.961 . S
H1149 C1135 0.958 . S
H1150 C1135 0.961 . S
H1151 C1135 0.960 . S
C1152 C1153 1.391 . S
C1152 C1154 1.394 . S
C1152 H1168 0.931 . S
C1153 C1152 1.391 . S
C1153 C1157 1.376 . S
C1154 C1152 1.394 . S
C1154 C1155 1.369 . S
C1154 C1158 1.531 . S
C1155 C1154 1.369 . S
C1155 C1156 1.410 . S
C1155 C1163 1.503 . S
C1156 C1155 1.410 . S
C1156 C1157 1.392 . S
C1156 C1159 1.511 . S
C1157 C1153 1.376 . S
C1157 C1156 1.392 . S
C1157 H1169 0.929 . S
C1158 C1154 1.531 . S
C1158 H1170 0.960 . S
C1158 H1171 0.962 . S
C1158 H1172 0.960 . S
C1159 C1156 1.511 . S
C1159 H1173 0.961 . S
C1159 H1174 0.961 . S
C1159 H1175 0.961 . S
C1160 C1161 1.370 . S
C1160 C1162 1.363 . S
C1160 H1176 0.931 . S
C1161 C1160 1.370 . S
C1161 C1165 1.408 . S
C1162 C1160 1.363 . S
C1162 C1163 1.370 . S
C1162 C1166 1.524 . S
C1163 C1155 1.503 . S
C1163 C1162 1.370 . S
C1163 C1164 1.403 . S
C1164 C1163 1.403 . S
C1164 C1165 1.404 . S
C1164 C1167 1.539 . S
C1165 C1161 1.408 . S
C1165 C1164 1.404 . S
C1165 H1177 0.930 . S
C1166 C1162 1.524 . S
C1166 H1178 0.956 . S
C1166 H1179 0.961 . S
C1166 H1180 0.961 . S
C1167 C1164 1.539 . S
C1167 H1181 0.958 . S
C1167 H1182 0.961 . S
C1167 H1183 0.960 . S
H1168 C1152 0.931 . S
H1169 C1157 0.929 . S
H1170 C1158 0.960 . S
H1171 C1158 0.962 . S
H1172 C1158 0.960 . S
H1173 C1159 0.961 . S
H1174 C1159 0.961 . S
H1175 C1159 0.961 . S
H1176 C1160 0.931 . S
H1177 C1165 0.930 . S
H1178 C1166 0.956 . S
H1179 C1166 0.961 . S
H1180 C1166 0.961 . S
H1181 C1167 0.958 . S
H1182 C1167 0.961 . S
H1183 C1167 0.960 . S
C1184 C1185 1.391 . S
C1184 C1186 1.394 . S
C1184 H1200 0.931 . S
C1185 C1184 1.391 . S
C1185 C1189 1.376 . S
C1186 C1184 1.394 . S
C1186 C1187 1.369 . S
C1186 C1190 1.531 . S
C1187 C1186 1.369 . S
C1187 C1188 1.410 . S
C1187 C1195 1.503 1_554 S
C1188 C1187 1.410 . S
C1188 C1189 1.392 . S
C1188 C1191 1.511 1_455 S
C1189 C1185 1.376 . S
C1189 C1188 1.392 . S
C1189 H1201 0.929 1_455 S
C1190 C1186 1.531 . S
C1190 H1202 0.960 . S
C1190 H1203 0.962 . S
C1190 H1204 0.960 . S
C1191 C1188 1.511 1_655 S
C1191 H1205 0.961 . S
C1191 H1206 0.961 1_554 S
C1191 H1207 0.961 . S
C1192 C1193 1.370 . S
C1192 C1194 1.363 . S
C1192 H1208 0.931 . S
C1193 C1192 1.370 . S
C1193 C1197 1.408 . S
C1194 C1192 1.363 . S
C1194 C1195 1.370 . S
C1194 C1198 1.524 . S
C1195 C1187 1.503 1_556 S
C1195 C1194 1.370 . S
C1195 C1196 1.403 . S
C1196 C1195 1.403 . S
C1196 C1197 1.404 . S
C1196 C1199 1.539 1_455 S
C1197 C1193 1.408 . S
C1197 C1196 1.404 . S
C1197 H1209 0.930 . S
C1198 C1194 1.524 . S
C1198 H1210 0.956 . S
C1198 H1211 0.961 . S
C1198 H1212 0.961 . S
C1199 C1196 1.539 1_655 S
C1199 H1213 0.958 1_655 S
C1199 H1214 0.961 . S
C1199 H1215 0.960 1_556 S
H1200 C1184 0.931 . S
H1201 C1189 0.929 1_655 S
H1202 C1190 0.960 . S
H1203 C1190 0.962 . S
H1204 C1190 0.960 . S
H1205 C1191 0.961 . S
H1206 C1191 0.961 1_556 S
H1207 C1191 0.961 . S
H1208 C1192 0.931 . S
H1209 C1197 0.930 . S
H1210 C1198 0.956 . S
H1211 C1198 0.961 . S
H1212 C1198 0.961 . S
H1213 C1199 0.958 1_455 S
H1214 C1199 0.961 . S
H1215 C1199 0.960 1_554 S
C1216 C1217 1.391 . S
C1216 C1218 1.394 . S
C1216 H1232 0.931 . S
C1217 C1216 1.391 . S
C1217 C1221 1.376 . S
C1218 C1216 1.394 . S
C1218 C1219 1.369 . S
C1218 C1222 1.531 . S
C1219 C1218 1.369 . S
C1219 C1220 1.410 . S
C1219 C1227 1.503 . S
C1220 C1219 1.410 . S
C1220 C1221 1.392 . S
C1220 C1223 1.511 . S
C1221 C1217 1.376 . S
C1221 C1220 1.392 . S
C1221 H1233 0.929 . S
C1222 C1218 1.531 . S
C1222 H1234 0.960 . S
C1222 H1235 0.962 . S
C1222 H1236 0.960 . S
C1223 C1220 1.511 . S
C1223 H1237 0.961 1_545 S
C1223 H1238 0.961 1_545 S
C1223 H1239 0.961 . S
C1224 C1225 1.370 . S
C1224 C1226 1.363 . S
C1224 H1240 0.931 1_545 S
C1225 C1224 1.370 . S
C1225 C1229 1.408 . S
C1226 C1224 1.363 . S
C1226 C1227 1.370 . S
C1226 C1230 1.524 1_545 S
C1227 C1219 1.503 . S
C1227 C1226 1.370 . S
C1227 C1228 1.403 . S
C1228 C1227 1.403 . S
C1228 C1229 1.404 . S
C1228 C1231 1.539 . S
C1229 C1225 1.408 . S
C1229 C1228 1.404 . S
C1229 H1241 0.930 . S
C1230 C1226 1.524 1_565 S
C1230 H1242 0.956 . S
C1230 H1243 0.961 . S
C1230 H1244 0.961 . S
C1231 C1228 1.539 . S
C1231 H1245 0.958 . S
C1231 H1246 0.961 . S
C1231 H1247 0.960 . S
H1232 C1216 0.931 . S
H1233 C1221 0.929 . S
H1234 C1222 0.960 . S
H1235 C1222 0.962 . S
H1236 C1222 0.960 . S
H1237 C1223 0.961 1_565 S
H1238 C1223 0.961 1_565 S
H1239 C1223 0.961 . S
H1240 C1224 0.931 1_565 S
H1241 C1229 0.930 . S
H1242 C1230 0.956 . S
H1243 C1230 0.961 . S
H1244 C1230 0.961 . S
H1245 C1231 0.958 . S
H1246 C1231 0.961 . S
H1247 C1231 0.960 . S
C225 C7 1.436 . S
C233 C104 1.404 . S
C257 C20 1.436 . S
C265 C63 1.404 . S
C289 C35 1.435 . S
C297 C76 1.407 . S
C321 C48 1.390 . S
C329 C91 1.426 . S
C353 C118 1.435 . S
C361 C216 1.405 . S
C385 C174 1.387 . S
C393 C132 1.425 . S
C417 C146 1.384 . S
C425 C188 1.426 . S
C449 C160 1.431 . S
C457 C202 1.408 . S
C481 C8 1.576 . S
C489 C134 1.592 . S
C513 C23 1.539 . S
C521 C148 1.583 . S
C545 C162 1.574 . S
C553 C36 1.551 . S
C577 C51 1.578 . S
C585 C120 1.589 . S
C609 C64 1.549 . S
C617 C218 1.583 . S
C641 C176 1.581 . S
C649 C79 1.567 . S
C673 C190 1.590 . S
C681 C92 1.570 . S
C705 C204 1.575 . S
C713 C107 1.551 . S
C737 C22 1.593 . S
C745 C121 1.556 . S
C769 C37 1.593 . S
C777 C135 1.555 . S
C801 C149 1.539 . S
C809 C50 1.584 . S
C833 C9 1.595 . S
C841 C163 1.564 . S
C865 C177 1.536 . S
C873 C106 1.590 . S
C897 C191 1.532 . S
C905 C65 1.587 . S
C929 C78 1.574 . S
C937 C205 1.553 . S
C961 C93 1.583 . S
C969 C219 1.550 . S
C993 C6 1.542 . S
C1001 C62 1.554 . S
C1025 C77 1.566 . S
C1033 C21 1.546 . S
C1057 C34 1.511 . S
C1065 C90 1.539 . S
C1089 C105 1.568 . S
C1097 C49 1.548 . S
C1121 C119 1.514 . S
C1129 C175 1.538 . S
C1153 C189 1.526 . S
C1161 C133 1.533 . S
C1185 C203 1.564 . S
C1193 C147 1.549 . S
C1217 C217 1.522 . S
C1225 C161 1.532 . S
