# Generated by pormake.
# Topology smb, (6)-cn, num edge types: 1
# Building blocks:
#     Node 0, Type 0, BuildingBlock: OJICUG_clean_sbu_0, # of connection points: 6
#     Node 1, Type 0, BuildingBlock: OJICUG_clean_sbu_0, # of connection points: 6
#     Node 2, Type 0, BuildingBlock: OJICUG_clean_sbu_0, # of connection points: 6
#     Node 3, Type 0, BuildingBlock: OJICUG_clean_sbu_0, # of connection points: 6
#     Node 4, Type 0, BuildingBlock: OJICUG_clean_sbu_0, # of connection points: 6
#     Node 5, Type 0, BuildingBlock: OJICUG_clean_sbu_0, # of connection points: 6
#     Node 6, Type 0, BuildingBlock: OJICUG_clean_sbu_0, # of connection points: 6
#     Node 7, Type 0, BuildingBlock: OJICUG_clean_sbu_0, # of connection points: 6
#     Node 8, Type 0, BuildingBlock: OJICUG_clean_sbu_0, # of connection points: 6
#     Edge 9, Type (0, 0), BuildingBlock: EZIPEK_clean_linker_0, # of connection points: 2
#     Edge 10, Type (0, 0), BuildingBlock: EZIPEK_clean_linker_0, # of connection points: 2
#     Edge 11, Type (0, 0), BuildingBlock: EZIPEK_clean_linker_0, # of connection points: 2
#     Edge 12, Type (0, 0), BuildingBlock: EZIPEK_clean_linker_0, # of connection points: 2
#     Edge 13, Type (0, 0), BuildingBlock: EZIPEK_clean_linker_0, # of connection points: 2
#     Edge 14, Type (0, 0), BuildingBlock: EZIPEK_clean_linker_0, # of connection points: 2
#     Edge 15, Type (0, 0), BuildingBlock: EZIPEK_clean_linker_0, # of connection points: 2
#     Edge 16, Type (0, 0), BuildingBlock: EZIPEK_clean_linker_0, # of connection points: 2
#     Edge 17, Type (0, 0), BuildingBlock: EZIPEK_clean_linker_0, # of connection points: 2
#     Edge 18, Type (0, 0), BuildingBlock: EZIPEK_clean_linker_0, # of connection points: 2
#     Edge 19, Type (0, 0), BuildingBlock: EZIPEK_clean_linker_0, # of connection points: 2
#     Edge 20, Type (0, 0), BuildingBlock: EZIPEK_clean_linker_0, # of connection points: 2
#     Edge 21, Type (0, 0), BuildingBlock: EZIPEK_clean_linker_0, # of connection points: 2
#     Edge 22, Type (0, 0), BuildingBlock: EZIPEK_clean_linker_0, # of connection points: 2
#     Edge 23, Type (0, 0), BuildingBlock: EZIPEK_clean_linker_0, # of connection points: 2
#     Edge 24, Type (0, 0), BuildingBlock: EZIPEK_clean_linker_0, # of connection points: 2
#     Edge 25, Type (0, 0), BuildingBlock: EZIPEK_clean_linker_0, # of connection points: 2
#     Edge 26, Type (0, 0), BuildingBlock: EZIPEK_clean_linker_0, # of connection points: 2
#     Edge 27, Type (0, 0), BuildingBlock: EZIPEK_clean_linker_0, # of connection points: 2
#     Edge 28, Type (0, 0), BuildingBlock: EZIPEK_clean_linker_0, # of connection points: 2
#     Edge 29, Type (0, 0), BuildingBlock: EZIPEK_clean_linker_0, # of connection points: 2
#     Edge 30, Type (0, 0), BuildingBlock: EZIPEK_clean_linker_0, # of connection points: 2
#     Edge 31, Type (0, 0), BuildingBlock: EZIPEK_clean_linker_0, # of connection points: 2
#     Edge 32, Type (0, 0), BuildingBlock: EZIPEK_clean_linker_0, # of connection points: 2
#     Edge 33, Type (0, 0), BuildingBlock: EZIPEK_clean_linker_0, # of connection points: 2
#     Edge 34, Type (0, 0), BuildingBlock: EZIPEK_clean_linker_0, # of connection points: 2
#     Edge 35, Type (0, 0), BuildingBlock: EZIPEK_clean_linker_0, # of connection points: 2
# Relax obj value: 0.341
# Max RMSD: 0.254
# Mean RMSD: 0.254
data_MOF--net-smb--node1-OJICUG_clean_sbu_0--edge1-EZIPEK_clean_linker_0
_symmetry_space_group_name_H-M    P1
_symmetry_Int_Tables_number       1
_symmetry_cell_setting            triclinic
loop_
_symmetry_equiv_pos_as_xyz
'x, y, z'
_cell_length_a     30.776085
_cell_length_b     30.822186
_cell_length_c     21.666679
_cell_angle_alpha  89.873653
_cell_angle_beta   90.144561
_cell_angle_gamma 119.82262
loop_
_atom_site_label
_atom_site_type_symbol
_atom_site_fract_x
_atom_site_fract_y
_atom_site_fract_z
_atom_type_partial_charge
Sc0 Sc 0.32056 0.14721 0.04591 0.0
Sc1 Sc 0.40545 0.17862 0.92408 0.0
Sc2 Sc 0.44848 0.20402 0.07434 0.0
O3 O 0.3913 0.17599 0.01483 0.0
C4 C 0.37702 0.24029 0.13006 0.0
C5 C 0.32188 0.20655 0.92427 0.0
C6 C 0.49341 0.28277 0.96984 0.0
C7 C 0.30563 0.07333 0.94096 0.0
C8 C 0.37116 0.10977 0.14486 0.0
C9 C 0.48285 0.15122 0.97341 0.0
O10 O 0.34005 0.21446 0.09492 0.0
O11 O 0.36562 0.21768 0.90741 0.0
O12 O 0.48409 0.27368 0.0268 0.0
O13 O 0.29686 0.07878 -0.00322 0.0
O14 O 0.41539 0.13628 0.12481 0.0
O15 O 0.44728 0.14042 0.93573 0.0
O16 O 0.33405 0.11381 0.1264 0.0
O17 O 0.33961 0.10787 0.90857 0.0
O18 O 0.48966 0.1772 0.02176 0.0
O19 O 0.29904 0.17733 0.96915 0.0
O20 O 0.41523 0.23496 0.13374 0.0
O21 O 0.47288 0.25 0.928 0.0
Sc22 Sc 0.8198 0.14434 0.04941 0.0
Sc23 Sc 0.77775 0.19296 0.93196 0.0
Sc24 Sc 0.75735 0.21028 0.08434 0.0
O25 O 0.7845 0.18197 0.02188 0.0
C26 C 0.73139 0.10978 0.14679 0.0
C27 C 0.75538 0.07903 0.9389 0.0
C28 C 0.673 0.17149 0.97978 0.0
C29 C 0.88509 0.20553 0.93364 0.0
C30 C 0.86193 0.23381 0.14136 0.0
C31 C 0.80824 0.29929 -0.01015 0.0
O32 O 0.7705 0.10999 0.12767 0.0
O33 O 0.75731 0.11662 0.91159 0.0
O34 O 0.69009 0.19012 0.03255 0.0
O35 O 0.87421 0.17294 0.97568 0.0
O36 O 0.82071 0.23372 0.14422 0.0
O37 O 0.79742 0.2701 0.94392 0.0
O38 O 0.87 0.20617 0.10529 0.0
O39 O 0.85606 0.22172 0.91816 0.0
O40 O 0.79634 0.28297 0.04451 0.0
O41 O 0.77257 0.08132 -0.00698 0.0
O42 O 0.71786 0.14021 0.12819 0.0
O43 O 0.69914 0.16639 0.93845 0.0
Sc44 Sc 0.81779 0.64622 0.04671 0.0
Sc45 Sc 0.77726 0.55187 0.93351 0.0
Sc46 Sc 0.7518 0.51798 0.08611 0.0
O47 O 0.78226 0.57239 0.02243 0.0
C48 C 0.85497 0.59687 0.14761 0.0
C49 C 0.88486 0.64919 0.93546 0.0
C50 C 0.80275 0.47587 -0.00742 0.0
C51 C 0.74991 0.63753 0.93001 0.0
C52 C 0.73002 0.60088 0.14407 0.0
C53 C 0.6719 0.46748 0.98302 0.0
O54 O 0.85992 0.63533 0.11938 0.0
O55 O 0.85043 0.60921 0.91273 0.0
O56 O 0.77843 0.47265 0.04152 0.0
O57 O 0.77776 0.66165 0.97568 0.0
O58 O 0.72269 0.55668 0.13842 0.0
O59 O 0.70386 0.48869 0.94069 0.0
O60 O 0.762 0.63725 0.11241 0.0
O61 O 0.74305 0.59541 0.91219 0.0
O62 O 0.68134 0.47805 0.03968 0.0
O63 O 0.87976 0.66737 0.98545 0.0
O64 O 0.81911 0.55306 0.13714 0.0
O65 O 0.81141 0.5078 0.95082 0.0
Sc66 Sc 0.01532 0.49427 0.36085 0.0
Sc67 Sc 0.0757 0.52384 0.21643 0.0
Sc68 Sc 0.14459 0.54851 0.3544 0.0
O69 O 0.07877 0.5228 0.31029 0.0
C70 C 0.08607 0.5878 0.43859 0.0
C71 C -0.01006 0.54614 0.2508 0.0
C72 C 0.16852 0.62963 0.24886 0.0
C73 C -0.00649 0.41393 0.25674 0.0
C74 C 0.07745 0.45662 0.43733 0.0
C75 C 0.16171 0.49812 0.23546 0.0
O76 O 0.0435 0.56105 0.41377 0.0
O77 O 0.02321 0.54956 0.214 0.0
O78 O 0.17601 0.61636 0.30169 0.0
O79 O -0.01389 0.4255 0.31039 0.0
O80 O 0.11814 0.48227 0.40841 0.0
O81 O 0.12763 0.49812 0.20303 0.0
O82 O 0.03882 0.46036 0.42905 0.0
O83 O 0.01868 0.44673 0.21599 0.0
O84 O 0.17224 0.51564 0.28976 0.0
O85 O -0.01787 0.52525 0.30296 0.0
O86 O 0.12422 0.58364 0.42605 0.0
O87 O 0.1342 0.60081 0.21172 0.0
Sc88 Sc 0.47183 0.49287 0.36341 0.0
Sc89 Sc 0.45149 0.53667 0.22236 0.0
Sc90 Sc 0.40777 0.55926 0.35996 0.0
O91 O 0.44363 0.52955 0.31507 0.0
C92 C 0.37132 0.4559 0.43188 0.0
C93 C 0.42944 0.42713 0.24214 0.0
C94 C 0.34012 0.51375 0.24215 0.0
C95 C 0.55723 0.55458 0.26929 0.0
C96 C 0.49634 0.58477 0.45011 0.0
C97 C 0.46737 0.64212 0.25621 0.0
O98 O 0.40151 0.44489 0.40617 0.0
O99 O 0.42234 0.45847 0.21243 0.0
O100 O 0.34416 0.52145 0.3001 0.0
O101 O 0.5438 0.53951 0.32408 0.0
O102 O 0.47006 0.59893 0.42033 0.0
O103 O 0.48053 0.61617 0.22426 0.0
O104 O 0.49593 0.54407 0.43989 0.0
O105 O 0.52711 0.55113 0.22682 0.0
O106 O 0.43872 0.62509 0.3028 0.0
O107 O 0.4519 0.4364 0.29375 0.0
O108 O 0.37294 0.49763 0.42416 0.0
O109 O 0.37648 0.52179 0.20744 0.0
Sc110 Sc 0.47992 0.9712 0.38029 0.0
Sc111 Sc 0.44814 0.90627 0.2397 0.0
Sc112 Sc 0.41447 0.84045 0.37849 0.0
O113 O 0.44756 0.9057 0.333 0.0
C114 C 0.50859 0.90454 0.46267 0.0
C115 C 0.5568 -0.00585 0.27579 0.0
C116 C 0.47153 0.82052 0.26716 0.0
C117 C 0.41849 -0.01311 0.27499 0.0
C118 C 0.382 0.90868 0.4548 0.0
C119 C 0.34078 0.81188 0.26636 0.0
O120 O 0.51052 0.94574 0.45108 0.0
O121 O 0.52314 0.96942 0.23584 0.0
O122 O 0.44661 0.80869 0.31734 0.0
O123 O 0.45221 0.00551 0.31633 0.0
O124 O 0.37891 0.86688 0.44222 0.0
O125 O 0.37409 0.8426 0.22982 0.0
O126 O 0.41471 0.95022 0.43285 0.0
O127 O 0.41332 0.95114 0.24104 0.0
O128 O 0.34796 0.81021 0.32372 0.0
O129 O 0.54787 -0.00462 0.33238 0.0
O130 O 0.47791 0.86353 0.43724 0.0
O131 O 0.48036 0.85859 0.23509 0.0
Sc132 Sc 0.64947 0.8114 0.72114 0.0
Sc133 Sc 0.72968 0.84857 0.59478 0.0
Sc134 Sc 0.77925 0.86634 0.74176 0.0
O135 O 0.71965 0.84216 0.68621 0.0
C136 C 0.71164 0.89952 0.81389 0.0
C137 C 0.63941 0.87058 0.61468 0.0
C138 C 0.81663 0.95169 0.63827 0.0
C139 C 0.63616 0.74474 0.60276 0.0
C140 C 0.69736 0.76294 0.80199 0.0
C141 C 0.81577 0.8249 0.63456 0.0
O142 O 0.67065 0.86131 0.79887 0.0
O143 O 0.66782 0.86194 0.58055 0.0
O144 O 0.82352 0.93229 0.68666 0.0
O145 O 0.61781 0.75848 0.646 0.0
O146 O 0.74066 0.8017 0.80039 0.0
O147 O 0.79158 0.83453 0.59458 0.0
O148 O 0.6598 0.75809 0.77197 0.0
O149 O 0.68162 0.76985 0.58632 0.0
O150 O 0.81024 0.82783 0.69225 0.0
O151 O 0.63557 0.86307 0.67232 0.0
O152 O 0.75392 0.90847 0.79355 0.0
O153 O 0.77949 0.92802 0.60211 0.0
Sc154 Sc 0.14691 0.81634 0.70424 0.0
Sc155 Sc 0.09758 0.84655 0.57517 0.0
Sc156 Sc 0.07116 0.87012 0.72246 0.0
O157 O 0.10492 0.84382 0.6674 0.0
C158 C 0.05417 0.77515 0.79474 0.0
C159 C 0.09862 0.74386 0.59384 0.0
C160 C -0.01044 0.81516 0.61569 0.0
C161 C 0.20967 0.87808 0.58681 0.0
C162 C 0.17489 0.90674 0.79139 0.0
C163 C 0.10673 0.94922 0.61708 0.0
O164 O 0.09526 0.77836 0.77846 0.0
O165 O 0.09715 0.77726 0.56093 0.0
O166 O 0.00565 0.84052 0.66502 0.0
O167 O 0.20254 0.85032 0.63353 0.0
O168 O 0.13204 0.90283 0.78632 0.0
O169 O 0.09887 0.91695 0.5759 0.0
O170 O 0.1891 0.88159 0.75965 0.0
O171 O 0.177 0.88769 0.56536 0.0
O172 O 0.10366 0.94004 0.67448 0.0
O173 O 0.1092 0.74901 0.65095 0.0
O174 O 0.03746 0.80237 0.77334 0.0
O175 O 0.01701 0.80663 0.57972 0.0
Sc176 Sc 0.14898 0.30184 0.70136 0.0
Sc177 Sc 0.09711 0.219 0.57787 0.0
Sc178 Sc 0.08136 0.17301 0.72629 0.0
O179 O 0.11005 0.23129 0.66868 0.0
C180 C 0.18575 0.24233 0.78651 0.0
C181 C 0.20901 0.31333 0.58317 0.0
C182 C 0.11944 0.13514 0.61162 0.0
C183 C 0.08339 0.3098 0.59194 0.0
C184 C 0.06073 0.25146 0.79557 0.0
C185 C -0.00716 0.13646 0.63224 0.0
O186 O 0.18632 0.28259 0.77191 0.0
O187 O 0.16943 0.28226 0.55463 0.0
O188 O 0.09849 0.12937 0.66391 0.0
O189 O 0.11793 0.3296 0.63239 0.0
O190 O 0.05989 0.2099 0.79337 0.0
O191 O 0.02304 0.15523 0.58754 0.0
O192 O 0.08898 0.28891 0.76221 0.0
O193 O 0.06244 0.264 0.57775 0.0
O194 O 0.00799 0.14336 0.68781 0.0
O195 O 0.21079 0.3195 0.64123 0.0
O196 O 0.15261 0.19932 0.7683 0.0
O197 O 0.12903 0.17115 0.57522 0.0
C198 C 0.26668 0.9816 0.91872 0.0
C199 C 0.26967 0.02836 0.9078 0.0
C200 C 0.21991 -0.0034 0.81473 0.0
C201 C 0.21147 0.94827 0.8291 0.0
N202 N 0.22086 0.89231 0.89888 0.0
N203 N 0.23765 0.0761 0.85587 0.0
C204 C 0.23324 0.93986 0.88229 0.0
C205 C 0.2427 0.03455 0.85898 0.0
N206 N 0.2967 0.97753 0.96215 0.0
N207 N 0.20772 0.00668 0.75786 0.0
H208 H 0.25199 0.10383 0.88959 0.0
H209 H 0.21455 0.08014 0.82387 0.0
H210 H 0.19372 0.98016 0.72265 0.0
H211 H 0.21711 0.04263 0.74362 0.0
H212 H 0.29962 0.94552 0.96791 0.0
H213 H 0.32148 0.00759 -0.01051 0.0
H214 H 0.23166 0.88365 0.94062 0.0
H215 H 0.19674 0.86104 0.8728 0.0
C216 C 0.9781 0.2377 0.93131 0.0
C217 C 0.93265 0.22399 0.89915 0.0
C218 C 0.97845 0.24728 0.80121 0.0
C219 C 0.02124 0.25245 0.83237 0.0
N220 N 0.06273 0.25152 0.92613 0.0
N221 N 0.88861 0.2082 0.80121 0.0
C222 C 0.02143 0.24768 0.89726 0.0
C223 C 0.93262 0.2276 0.83355 0.0
N224 N -0.01953 0.2427 -0.00593 0.0
N225 N -0.01914 0.25915 0.74 0.0
H226 H 0.85337 0.19 0.82139 0.0
H227 H 0.88647 0.20513 0.75331 0.0
H228 H 0.01213 0.26902 0.7126 0.0
H229 H 0.95284 0.26259 0.71728 0.0
H230 H 0.01383 0.25799 0.01899 0.0
H231 H 0.94988 0.23582 0.02116 0.0
H232 H 0.06306 0.2418 0.97213 0.0
H233 H 0.0962 0.26223 0.90286 0.0
C234 C 0.70259 0.68594 0.79945 0.0
C235 C 0.69341 0.71938 0.83385 0.0
C236 C 0.7014 0.68254 0.92926 0.0
C237 C 0.72436 0.65987 0.89573 0.0
N238 N 0.74734 0.64034 0.79645 0.0
N239 N 0.68092 0.74884 0.93124 0.0
C240 C 0.72397 0.66037 0.82994 0.0
C241 C 0.69122 0.71709 0.8988 0.0
N242 N 0.693 0.68051 0.73748 0.0
N243 N 0.68757 0.6695 -0.01078 0.0
H244 H 0.67088 0.7729 0.90962 0.0
H245 H 0.68458 0.7527 0.97905 0.0
H246 H 0.692 0.64199 0.01176 0.0
H247 H 0.6662 0.68138 0.01345 0.0
H248 H 0.69385 0.65278 0.71103 0.0
H249 H 0.6796 0.70082 0.71349 0.0
H250 H 0.74911 0.64113 0.74855 0.0
H251 H 0.76886 0.62636 0.81558 0.0
C252 C 0.97699 0.69564 0.80266 0.0
C253 C 0.01968 0.733 0.83269 0.0
C254 C 0.97891 0.7028 0.93181 0.0
C255 C 0.9322 0.67587 0.90043 0.0
N256 N 0.88743 0.65429 0.80213 0.0
N257 N 0.06352 0.77304 0.92611 0.0
C258 C 0.93125 0.67333 0.83464 0.0
C259 C 0.02167 0.73663 0.89758 0.0
N260 N -0.02007 0.68422 0.74257 0.0
N261 N -0.01701 0.69465 -0.00704 0.0
H262 H 0.09603 0.79696 0.90175 0.0
H263 H 0.06481 0.78075 0.97311 0.0
H264 H 0.9535 0.66674 0.01819 0.0
H265 H 0.01717 0.71113 0.01624 0.0
H266 H 0.95054 0.65442 0.71944 0.0
H267 H 0.01381 0.7015 0.71864 0.0
H268 H 0.88562 0.65185 0.75419 0.0
H269 H 0.85377 0.6475 0.82159 0.0
C270 C 0.25858 0.22953 0.78823 0.0
C271 C 0.22873 0.24531 0.8197 0.0
C272 C 0.27199 0.25006 0.91613 0.0
C273 C 0.29435 0.22485 0.88686 0.0
N274 N 0.30434 0.18518 0.79545 0.0
N275 N 0.20581 0.27103 0.9132 0.0
C276 C 0.28727 0.21387 0.82273 0.0
C277 C 0.23555 0.25649 0.88348 0.0
N278 N 0.25923 0.2294 0.72517 0.0
N279 N 0.28625 0.26844 0.97453 0.0
H280 H 0.18012 0.27786 0.88995 0.0
H281 H 0.20477 0.27382 0.961 0.0
H282 H 0.31347 0.26492 -0.00079 0.0
H283 H 0.27465 0.29106 -0.00378 0.0
H284 H 0.28449 0.22349 0.69968 0.0
H285 H 0.23795 0.24026 0.69859 0.0
H286 H 0.29464 0.17134 0.75069 0.0
H287 H 0.32398 0.17075 0.81877 0.0
C288 C 0.70191 0.94044 0.90912 0.0
C289 C 0.7097 0.9408 0.84494 0.0
C290 C 0.74283 0.03037 0.84026 0.0
C291 C 0.73475 0.03095 0.9049 0.0
N292 N 0.68749 0.98287 -0.00646 0.0
N293 N 0.71513 0.98077 0.74735 0.0
C294 C 0.7083 0.98477 0.93737 0.0
C295 C 0.72198 0.98396 0.80981 0.0
N296 N 0.6896 0.89857 0.94308 0.0
N297 N 0.77414 0.07299 0.80856 0.0
H298 H 0.7007 0.94697 0.72369 0.0
H299 H 0.71965 0.01084 0.72045 0.0
H300 H 0.79798 0.10675 0.82993 0.0
H301 H 0.78195 0.07321 0.76176 0.0
H302 H 0.68858 0.89816 -0.00882 0.0
H303 H 0.68327 0.86517 0.92299 0.0
H304 H 0.66472 0.94941 0.01664 0.0
H305 H 0.68767 0.01391 0.01293 0.0
C306 C 0.94566 0.31053 0.14508 0.0
C307 C 0.90376 0.27262 0.17663 0.0
C308 C 0.93206 0.32024 0.27278 0.0
C309 C 0.9705 0.36026 0.23827 0.0
N310 N 0.03094 0.37604 0.15796 0.0
N311 N 0.8662 0.2328 0.2728 0.0
C312 C -0.01687 0.34963 0.17971 0.0
C313 C 0.89974 0.27473 0.24157 0.0
N314 N 0.94812 0.31203 0.08212 0.0
N315 N 0.92725 0.32492 0.33463 0.0
H316 H 0.84456 0.19866 0.25045 0.0
H317 H 0.86292 0.23037 0.32062 0.0
H318 H 0.95629 0.35157 0.36158 0.0
H319 H 0.89557 0.30073 0.35986 0.0
H320 H 0.97678 0.34195 0.05818 0.0
H321 H 0.91912 0.2867 0.05393 0.0
H322 H 0.04196 0.36728 0.1165 0.0
H323 H 0.06033 0.40151 0.18572 0.0
C324 C 0.63173 0.62316 0.21743 0.0
C325 C 0.61054 0.57868 0.25335 0.0
C326 C 0.68841 0.57792 0.24484 0.0
C327 C 0.70051 0.60874 0.19229 0.0
N328 N 0.69131 0.67244 0.13806 0.0
N329 N 0.62041 0.5126 0.30143 0.0
C330 C 0.67515 0.63588 0.18185 0.0
C331 C 0.6397 0.55628 0.26884 0.0
N332 N 0.61074 0.65317 0.21856 0.0
N333 N 0.72368 0.56917 0.27053 0.0
H334 H 0.58363 0.49277 0.31698 0.0
H335 H 0.64012 0.49353 0.30799 0.0
H336 H 0.76051 0.58881 0.2548 0.0
H337 H 0.7179 0.54886 0.3112 0.0
H338 H 0.62649 0.688 0.19717 0.0
H339 H 0.58032 0.64545 0.24683 0.0
H340 H 0.6705 0.68891 0.12387 0.0
H341 H 0.72573 0.68681 0.11609 0.0
C342 C 0.34038 0.02197 0.17727 0.0
C343 C 0.36401 0.07329 0.19271 0.0
C344 C 0.40021 0.05829 0.28501 0.0
C345 C 0.38845 0.0114 0.25958 0.0
N346 N 0.32176 0.93929 0.2092 0.0
N347 N 0.40871 0.13973 0.26584 0.0
C348 C 0.35016 -0.01001 0.21427 0.0
C349 C 0.3907 0.09105 0.24892 0.0
N350 N 0.31192 0.00464 0.12503 0.0
N351 N 0.41681 0.06972 0.34446 0.0
H352 H 0.39941 0.16343 0.24187 0.0
H353 H 0.43387 0.15688 0.30201 0.0
H354 H 0.4167 0.04317 0.37448 0.0
H355 H 0.42351 0.10241 0.36656 0.0
H356 H 0.29959 0.9691 0.10703 0.0
H357 H 0.30224 0.02664 0.0982 0.0
H358 H 0.29069 0.92126 0.18028 0.0
H359 H 0.32552 0.91549 0.24013 0.0
C360 C 0.68788 0.09906 0.24437 0.0
C361 C 0.70112 0.07645 0.19694 0.0
C362 C 0.62927 -0.00409 0.22279 0.0
C363 C 0.60909 0.02163 0.25565 0.0
N364 N 0.61917 0.09907 0.29727 0.0
N365 N 0.68851 0.00185 0.14528 0.0
C366 C 0.63881 0.07343 0.26801 0.0
C367 C 0.67373 0.0241 0.18828 0.0
N368 N 0.72162 0.14615 0.26373 0.0
N369 N 0.6064 0.94496 0.22569 0.0
H370 H 0.72243 0.02104 0.12187 0.0
H371 H 0.66646 0.96471 0.13178 0.0
H372 H 0.57511 0.92381 0.25331 0.0
H373 H 0.62146 0.92438 0.20649 0.0
H374 H 0.71556 0.16329 0.30155 0.0
H375 H 0.75762 0.16566 0.24524 0.0
H376 H 0.63823 0.13789 0.30133 0.0
H377 H 0.58227 0.08249 0.3126 0.0
C378 C 0.97807 0.61529 0.20742 0.0
C379 C 0.95752 0.56612 0.23208 0.0
C380 C 0.87585 0.55896 0.23386 0.0
C381 C 0.8928 0.59983 0.19263 0.0
N382 N 0.96319 0.67409 0.14982 0.0
N383 N 0.8837 0.4873 0.25777 0.0
C384 C 0.94505 0.63078 0.18277 0.0
C385 C 0.90559 0.53699 0.24324 0.0
N386 N 0.02853 0.64754 0.20968 0.0
N387 N 0.82996 0.53941 0.26078 0.0
H388 H 0.90318 0.46765 0.25879 0.0
H389 H 0.84498 0.46426 0.26107 0.0
H390 H 0.80749 0.55531 0.25378 0.0
H391 H 0.81732 0.5114 0.2943 0.0
H392 H 0.04514 0.68521 0.19789 0.0
H393 H 0.05352 0.63784 0.22901 0.0
H394 H -0.00029 0.69364 0.13313 0.0
H395 H 0.94208 0.69113 0.13999 0.0
C396 C 0.40847 0.33052 0.12205 0.0
C397 C 0.38222 0.28603 0.15681 0.0
C398 C 0.3797 0.33356 0.24511 0.0
C399 C 0.4128 0.37835 0.21329 0.0
N400 N 0.46675 0.419 0.12574 0.0
N401 N 0.34548 0.24379 0.25234 0.0
C402 C 0.42911 0.37686 0.15266 0.0
C403 C 0.3684 0.28701 0.21871 0.0
N404 N 0.4139 0.32861 0.05974 0.0
N405 N 0.35771 0.33544 0.299 0.0
H406 H 0.33499 0.20889 0.23317 0.0
H407 H 0.33956 0.24297 0.29974 0.0
H408 H 0.36387 0.3689 0.31863 0.0
H409 H 0.32984 0.3038 0.32112 0.0
H410 H 0.4266 0.3601 0.03171 0.0
H411 H 0.40081 0.29521 0.03543 0.0
H412 H 0.48334 0.41845 0.08407 0.0
H413 H 0.48526 0.4536 0.14783 0.0
C414 C 0.56513 0.65616 0.59346 0.0
C415 C 0.60211 0.70113 0.56506 0.0
C416 C 0.57749 0.66152 0.46418 0.0
C417 C 0.53501 0.62102 0.49122 0.0
N418 N 0.48576 0.57939 0.58101 0.0
N419 N 0.63448 0.74982 0.47095 0.0
C420 C 0.52804 0.61798 0.55585 0.0
C421 C 0.60627 0.70472 0.49969 0.0
N422 N 0.56648 0.64915 0.65557 0.0
N423 N 0.59031 0.65876 0.40461 0.0
H424 H 0.65106 0.78394 0.49407 0.0
H425 H 0.6363 0.75401 0.42315 0.0
H426 H 0.56961 0.62736 0.37701 0.0
H427 H 0.62387 0.68568 0.38484 0.0
H428 H 0.54314 0.61528 0.67748 0.0
H429 H 0.59416 0.67544 0.68438 0.0
H430 H 0.47607 0.57824 0.62726 0.0
H431 H 0.45877 0.55001 0.55458 0.0
C432 C 0.34411 0.9177 0.55211 0.0
C433 C 0.34064 0.90801 0.48805 0.0
C434 C 0.25242 0.88243 0.48735 0.0
C435 C 0.25564 0.89396 0.55129 0.0
N436 N 0.30685 0.93469 0.64056 0.0
N437 N 0.29774 0.89946 0.3917 0.0
C438 C 0.30236 0.9155 0.58259 0.0
C439 C 0.29688 0.89659 0.45464 0.0
N440 N 0.38661 0.92789 0.58371 0.0
N441 N 0.20725 0.85427 0.45857 0.0
H442 H 0.32998 0.90967 0.36581 0.0
H443 H 0.26781 0.89688 0.36608 0.0
H444 H 0.17285 0.83907 0.48085 0.0
H445 H 0.20418 0.84093 0.41366 0.0
H446 H 0.38928 0.93008 0.63165 0.0
H447 H 0.4183 0.93104 0.56199 0.0
H448 H 0.34094 0.95449 0.66361 0.0
H449 H 0.27714 0.93512 0.66311 0.0
C450 C 0.06686 0.38086 0.57944 0.0
C451 C 0.07417 0.34315 0.55216 0.0
C452 C 0.07101 0.37429 0.44945 0.0
C453 C 0.07269 0.41641 0.47718 0.0
N454 N 0.07479 0.46272 0.56773 0.0
N455 N 0.09326 0.3104 0.45997 0.0
C456 C 0.07087 0.42044 0.54202 0.0
C457 C 0.07819 0.34091 0.48675 0.0
N458 N 0.05523 0.37828 0.64065 0.0
N459 N 0.06252 0.36612 0.38741 0.0
H460 H 0.10287 0.28731 0.48428 0.0
H461 H 0.10223 0.3124 0.41331 0.0
H462 H 0.05745 0.39023 0.35822 0.0
H463 H 0.05551 0.33295 0.36613 0.0
H464 H 0.04476 0.40202 0.66173 0.0
H465 H 0.05152 0.34942 0.66923 0.0
H466 H 0.0793 0.47015 0.61489 0.0
H467 H 0.07708 0.49219 0.54142 0.0
C468 C 0.24403 0.38056 0.50387 0.0
C469 C 0.25173 0.34972 0.54585 0.0
C470 C 0.34042 0.39239 0.5181 0.0
C471 C 0.33048 0.4178 0.47004 0.0
N472 N 0.26902 0.42501 0.40767 0.0
N473 N 0.30566 0.32059 0.58652 0.0
C474 C 0.28112 0.40849 0.45997 0.0
C475 C 0.29953 0.35388 0.55119 0.0
N476 N 0.20255 0.38558 0.50803 0.0
N477 N 0.3886 0.40656 0.53435 0.0
H478 H 0.27622 0.29173 0.61072 0.0
H479 H 0.33867 0.31894 0.58725 0.0
H480 H 0.41967 0.43612 0.51329 0.0
H481 H 0.39764 0.39233 0.57287 0.0
H482 H 0.1976 0.41126 0.48191 0.0
H483 H 0.17645 0.36883 0.54302 0.0
H484 H 0.2323 0.41506 0.3962 0.0
H485 H 0.29464 0.44365 0.37254 0.0
C486 C 0.52233 0.86921 0.5584 0.0
C487 C 0.54287 0.90346 0.50893 0.0
C488 C 0.62716 0.92696 0.54376 0.0
C489 C 0.60622 0.8856 0.58455 0.0
N490 N 0.53272 0.81201 0.62418 0.0
N491 N 0.61523 0.96186 0.44968 0.0
C492 C 0.55346 0.85555 0.59101 0.0
C493 C 0.59549 0.9322 0.5006 0.0
N494 N 0.47313 0.84985 0.5742 0.0
N495 N 0.67713 0.9612 0.54657 0.0
H496 H 0.59343 0.96577 0.41571 0.0
H497 H 0.65311 0.97916 0.43838 0.0
H498 H 0.70108 0.95874 0.57882 0.0
H499 H 0.69352 -0.00553 0.52149 0.0
H500 H 0.45752 0.82813 0.61357 0.0
H501 H 0.44947 0.86001 0.55172 0.0
H502 H 0.49443 0.78645 0.62413 0.0
H503 H 0.55358 0.79866 0.64687 0.0
C504 C 0.13301 0.67556 0.47896 0.0
C505 C 0.0916 0.62625 0.48327 0.0
C506 C 0.05407 0.65363 0.56258 0.0
C507 C 0.09723 0.70154 0.56121 0.0
N508 N 0.18403 0.75301 0.53273 0.0
N509 N 0.02045 0.56556 0.54237 0.0
C510 C 0.13879 0.71081 0.52419 0.0
C511 C 0.05433 0.61429 0.52916 0.0
N512 N 0.1652 0.69003 0.43002 0.0
N513 N 0.0124 0.64606 0.5938 0.0
H514 H 0.02127 0.53555 0.52141 0.0
H515 H -0.00471 0.55507 0.57897 0.0
H516 H 0.01097 0.6746 0.61777 0.0
H517 H 0.97821 0.61287 0.59123 0.0
H518 H 0.19279 0.72707 0.42243 0.0
H519 H 0.16111 0.66671 0.39321 0.0
H520 H 0.21667 0.75935 0.51046 0.0
H521 H 0.18998 0.77872 0.56731 0.0
C522 C 0.53377 0.11266 0.0044 0.0
C523 C 0.52192 0.13833 0.95909 0.0
C524 C 0.60712 0.17802 0.91879 0.0
C525 C 0.61999 0.15487 0.96657 0.0
N526 N 0.59345 0.08903 0.04219 0.0
N527 N 0.54084 0.17913 0.85971 0.0
C528 C 0.58242 0.11827 0.0052 0.0
C529 C 0.55629 0.16494 0.91122 0.0
N530 N 0.49892 0.08475 0.04801 0.0
N531 N 0.64366 0.2154 0.88403 0.0
H532 H 0.5038 0.17002 0.85254 0.0
H533 H 0.56354 0.19508 0.82121 0.0
H534 H 0.68164 0.22716 0.88872 0.0
H535 H 0.6368 0.23779 0.85406 0.0
H536 H 0.50672 0.06997 0.08698 0.0
H537 H 0.46209 0.07779 0.04573 0.0
H538 H 0.56683 0.05914 0.06808 0.0
H539 H 0.62871 0.09192 0.04272 0.0
C540 C 0.84674 0.43166 0.03138 0.0
C541 C 0.81997 0.43944 0.98321 0.0
C542 C 0.8193 0.37149 0.92476 0.0
C543 C 0.82952 0.35405 0.98005 0.0
N544 N 0.87254 0.376 0.07767 0.0
N545 N 0.78212 0.41697 0.8808 0.0
C546 C 0.85005 0.38729 0.03079 0.0
C547 C 0.80769 0.41034 0.92818 0.0
N548 N 0.86907 0.46692 0.0766 0.0
N549 N 0.82246 0.35244 0.86925 0.0
H550 H 0.77158 0.44419 0.88005 0.0
H551 H 0.76745 0.39219 0.84385 0.0
H552 H 0.83688 0.32829 0.86524 0.0
H553 H 0.8185 0.36655 0.82712 0.0
H554 H 0.89075 0.46484 0.11215 0.0
H555 H 0.86889 0.50068 0.07605 0.0
H556 H 0.88401 0.3953 0.11921 0.0
H557 H 0.88038 0.34684 0.07386 0.0
C558 C 0.57959 0.42056 0.96452 0.0
C559 C 0.62598 0.42142 0.96708 0.0
C560 C 0.58451 0.331 0.9537 0.0
C561 C 0.53806 0.32991 0.95439 0.0
N562 N 0.49062 0.3718 0.94162 0.0
N563 N 0.67448 0.38014 0.95105 0.0
C564 C 0.53537 0.37431 0.95365 0.0
C565 C 0.62902 0.37751 0.95676 0.0
N566 N 0.57789 0.46348 0.97427 0.0
N567 N 0.58583 0.28729 0.95433 0.0
H568 H 0.70817 0.41278 0.95826 0.0
H569 H 0.67913 0.35078 0.93547 0.0
H570 H 0.554 0.25255 0.94828 0.0
H571 H 0.61782 0.28494 0.96341 0.0
H572 H 0.54473 0.46437 0.9795 0.0
H573 H 0.61008 0.49823 0.98012 0.0
H574 H 0.48646 0.40306 0.93565 0.0
H575 H 0.45819 0.3379 0.93234 0.0
C576 C 0.25009 0.45083 0.23834 0.0
C577 C 0.29045 0.49533 0.21443 0.0
C578 C 0.23131 0.51549 0.1661 0.0
C579 C 0.1948 0.48213 0.20773 0.0
N580 N 0.16393 0.41034 0.27377 0.0
N581 N 0.31997 0.56799 0.14832 0.0
C582 C 0.20204 0.44623 0.2395 0.0
C583 C 0.28128 0.52631 0.17427 0.0
N584 N 0.25837 0.41411 0.26048 0.0
N585 N 0.21842 0.53781 0.12086 0.0
H586 H 0.35711 0.57663 0.15205 0.0
H587 H 0.31532 0.59517 0.12543 0.0
H588 H 0.18144 0.52916 0.11387 0.0
H589 H 0.24313 0.56022 0.08656 0.0
H590 H 0.22982 0.37938 0.27527 0.0
H591 H 0.29384 0.41744 0.25898 0.0
H592 H 0.1682 0.3862 0.30365 0.0
H593 H 0.12806 0.40607 0.27282 0.0
C594 C 0.4717 0.75798 0.19359 0.0
C595 C 0.49117 0.78773 0.24733 0.0
C596 C 0.51818 0.73086 0.28726 0.0
C597 C 0.48776 0.69566 0.24207 0.0
N598 N 0.44225 0.67659 0.14637 0.0
N599 N 0.54527 0.81165 0.33572 0.0
C600 C 0.46776 0.71003 0.19229 0.0
C601 C 0.51925 0.77735 0.29066 0.0
N602 N 0.45667 0.7753 0.14464 0.0
N603 N 0.54423 0.7184 0.32775 0.0
H604 H 0.54795 0.84679 0.33639 0.0
H605 H 0.56486 0.80639 0.37136 0.0
H606 H 0.54477 0.68498 0.3235 0.0
H607 H 0.56658 0.7412 0.36323 0.0
H608 H 0.44514 0.75689 0.1025 0.0
H609 H 0.45996 0.81058 0.14408 0.0
H610 H 0.42079 0.6817 0.11304 0.0
H611 H 0.44178 0.64265 0.14255 0.0
C612 C 0.24768 0.76802 0.2625 0.0
C613 C 0.29303 0.77209 0.24103 0.0
C614 C 0.24655 0.6887 0.19566 0.0
C615 C 0.20422 0.6809 0.22963 0.0
N616 N 0.15992 0.71301 0.28725 0.0
N617 N 0.33655 0.7367 0.18619 0.0
C618 C 0.20307 0.72102 0.25943 0.0
C619 C 0.29265 0.73318 0.20552 0.0
N620 N 0.24803 0.80889 0.28708 0.0
N621 N 0.24274 0.65276 0.15573 0.0
H622 H 0.37131 0.76858 0.19223 0.0
H623 H 0.33904 0.70692 0.16748 0.0
H624 H 0.20891 0.61996 0.14806 0.0
H625 H 0.27126 0.6576 0.12584 0.0
H626 H 0.21614 0.81001 0.30026 0.0
H627 H 0.28082 0.84323 0.29013 0.0
H628 H 0.1569 0.73914 0.31448 0.0
H629 H 0.12688 0.67867 0.28458 0.0
C630 C 0.92814 0.82748 0.55594 0.0
C631 C 0.93711 0.79875 0.59954 0.0
C632 C 0.85483 0.77105 0.64441 0.0
C633 C 0.85293 0.81067 0.61368 0.0
N634 N 0.89083 0.87934 0.54019 0.0
N635 N 0.90813 0.74048 0.68384 0.0
C636 C 0.88957 0.83889 0.56794 0.0
C637 C 0.89956 0.76873 0.64239 0.0
N638 N 0.9581 0.84593 0.50524 0.0
N639 N 0.81381 0.73549 0.67497 0.0
H640 H 0.9395 0.73595 0.68097 0.0
H641 H 0.88562 0.72443 0.72243 0.0
H642 H 0.7798 0.73525 0.67512 0.0
H643 H 0.81224 0.70358 0.69353 0.0
H644 H 0.95103 0.86412 0.46932 0.0
H645 H -0.01315 0.83822 0.49627 0.0
H646 H 0.91928 0.90324 0.51044 0.0
H647 H 0.86645 0.89233 0.55094 0.0
C648 C 0.16249 0.04107 0.60498 0.0
C649 C 0.1146 -0.0018 0.59765 0.0
C650 C 0.07957 0.05077 0.56802 0.0
C651 C 0.12394 0.09277 0.58926 0.0
N652 N 0.20931 0.1306 0.62354 0.0
N653 N 0.02662 0.96111 0.57338 0.0
C654 C 0.16639 0.08891 0.60535 0.0
C655 C 0.07301 0.00258 0.57799 0.0
N656 N 0.20375 0.03573 0.6113 0.0
N657 N 0.04338 0.05727 0.54001 0.0
H658 H 0.02023 0.92495 0.58039 0.0
H659 H -0.00604 0.96283 0.56726 0.0
H660 H 0.04805 0.09271 0.53186 0.0
H661 H 0.01153 0.02835 0.5194 0.0
H662 H 0.24024 0.06572 0.61259 0.0
H663 H 0.2015 0.0008 0.61001 0.0
H664 H 0.23982 0.12969 0.643 0.0
H665 H 0.21338 0.16624 0.62056 0.0
C666 C 0.86338 0.04009 0.6751 0.0
C667 C 0.85287 0.00515 0.62665 0.0
C668 C 0.9226 0.07002 0.56684 0.0
C669 C 0.93882 0.10003 0.62071 0.0
N670 N 0.91146 0.12598 0.7096 0.0
N671 N 0.87173 -0.01295 0.52463 0.0
C672 C 0.90482 0.0889 0.66976 0.0
C673 C 0.88142 0.02047 0.57123 0.0
N674 N 0.83549 0.02578 0.7278 0.0
N675 N 0.94408 0.08968 0.51112 0.0
H676 H 0.84108 0.951 0.52438 0.0
H677 H 0.89592 -0.00591 0.48765 0.0
H678 H 0.9691 0.12766 0.50496 0.0
H679 H 0.93149 0.07048 0.46955 0.0
H680 H 0.84652 0.04642 0.76852 0.0
H681 H 0.80245 -0.00821 0.73172 0.0
H682 H 0.88596 0.12163 0.74388 0.0
H683 H 0.93994 0.16285 0.70317 0.0
loop_
_geom_bond_atom_site_label_1
_geom_bond_atom_site_label_2
_geom_bond_distance
_geom_bond_site_symmetry_2
_ccdc_geom_bond_type
Sc0 O3 2.025 . S
Sc0 O10 2.105 . S
Sc0 O13 2.105 1_554 S
Sc0 O16 2.105 . S
Sc0 O19 2.105 1_554 S
Sc1 O3 2.025 1_556 S
Sc1 O11 2.105 . S
Sc1 O15 2.105 . S
Sc1 O17 2.105 . S
Sc1 O21 2.105 . S
Sc2 O3 2.025 . S
Sc2 O12 2.105 . S
Sc2 O14 2.105 . S
Sc2 O18 2.105 . S
Sc2 O20 2.105 . S
O3 Sc0 2.025 . S
O3 Sc1 2.025 1_554 S
O3 Sc2 2.025 . S
C4 O10 1.268 . S
C4 O20 1.268 . S
C5 O11 1.268 . S
C5 O19 1.268 . S
C6 O12 1.268 1_556 S
C6 O21 1.268 . S
C7 O13 1.268 . S
C7 O17 1.268 . S
C8 O14 1.268 . S
C8 O16 1.268 . S
C9 O15 1.268 . S
C9 O18 1.268 1_556 S
O10 Sc0 2.105 . S
O10 C4 1.268 . S
O11 Sc1 2.105 . S
O11 C5 1.268 . S
O12 Sc2 2.105 . S
O12 C6 1.268 1_554 S
O13 Sc0 2.105 1_556 S
O13 C7 1.268 . S
O14 Sc2 2.105 . S
O14 C8 1.268 . S
O15 Sc1 2.105 . S
O15 C9 1.268 . S
O16 Sc0 2.105 . S
O16 C8 1.268 . S
O17 Sc1 2.105 . S
O17 C7 1.268 . S
O18 Sc2 2.105 . S
O18 C9 1.268 1_554 S
O19 Sc0 2.105 1_556 S
O19 C5 1.268 . S
O20 Sc2 2.105 . S
O20 C4 1.268 . S
O21 Sc1 2.105 . S
O21 C6 1.268 . S
Sc22 O25 2.025 . S
Sc22 O32 2.105 . S
Sc22 O35 2.105 1_554 S
Sc22 O38 2.105 . S
Sc22 O41 2.105 1_554 S
Sc23 O25 2.025 1_556 S
Sc23 O33 2.105 . S
Sc23 O37 2.105 . S
Sc23 O39 2.105 . S
Sc23 O43 2.105 . S
Sc24 O25 2.025 . S
Sc24 O34 2.105 . S
Sc24 O36 2.105 . S
Sc24 O40 2.105 . S
Sc24 O42 2.105 . S
O25 Sc22 2.025 . S
O25 Sc23 2.025 1_554 S
O25 Sc24 2.025 . S
C26 O32 1.268 . S
C26 O42 1.268 . S
C27 O33 1.268 . S
C27 O41 1.268 . S
C28 O34 1.268 1_556 S
C28 O43 1.268 . S
C29 O35 1.268 . S
C29 O39 1.268 . S
C30 O36 1.268 . S
C30 O38 1.268 . S
C31 O37 1.268 . S
C31 O40 1.268 1_556 S
O32 Sc22 2.105 . S
O32 C26 1.268 . S
O33 Sc23 2.105 . S
O33 C27 1.268 . S
O34 Sc24 2.105 . S
O34 C28 1.268 1_554 S
O35 Sc22 2.105 1_556 S
O35 C29 1.268 . S
O36 Sc24 2.105 . S
O36 C30 1.268 . S
O37 Sc23 2.105 . S
O37 C31 1.268 . S
O38 Sc22 2.105 . S
O38 C30 1.268 . S
O39 Sc23 2.105 . S
O39 C29 1.268 . S
O40 Sc24 2.105 . S
O40 C31 1.268 1_554 S
O41 Sc22 2.105 1_556 S
O41 C27 1.268 . S
O42 Sc24 2.105 . S
O42 C26 1.268 . S
O43 Sc23 2.105 . S
O43 C28 1.268 . S
Sc44 O47 2.025 . S
Sc44 O54 2.105 . S
Sc44 O57 2.105 1_554 S
Sc44 O60 2.105 . S
Sc44 O63 2.105 1_554 S
Sc45 O47 2.025 1_556 S
Sc45 O55 2.105 . S
Sc45 O59 2.105 . S
Sc45 O61 2.105 . S
Sc45 O65 2.105 . S
Sc46 O47 2.025 . S
Sc46 O56 2.105 . S
Sc46 O58 2.105 . S
Sc46 O62 2.105 . S
Sc46 O64 2.105 . S
O47 Sc44 2.025 . S
O47 Sc45 2.025 1_554 S
O47 Sc46 2.025 . S
C48 O54 1.268 . S
C48 O64 1.268 . S
C49 O55 1.268 . S
C49 O63 1.268 . S
C50 O56 1.268 1_556 S
C50 O65 1.268 . S
C51 O57 1.268 . S
C51 O61 1.268 . S
C52 O58 1.268 . S
C52 O60 1.268 . S
C53 O59 1.268 . S
C53 O62 1.268 1_556 S
O54 Sc44 2.105 . S
O54 C48 1.268 . S
O55 Sc45 2.105 . S
O55 C49 1.268 . S
O56 Sc46 2.105 . S
O56 C50 1.268 1_554 S
O57 Sc44 2.105 1_556 S
O57 C51 1.268 . S
O58 Sc46 2.105 . S
O58 C52 1.268 . S
O59 Sc45 2.105 . S
O59 C53 1.268 . S
O60 Sc44 2.105 . S
O60 C52 1.268 . S
O61 Sc45 2.105 . S
O61 C51 1.268 . S
O62 Sc46 2.105 . S
O62 C53 1.268 1_554 S
O63 Sc44 2.105 1_556 S
O63 C49 1.268 . S
O64 Sc46 2.105 . S
O64 C48 1.268 . S
O65 Sc45 2.105 . S
O65 C50 1.268 . S
Sc66 O69 2.025 . S
Sc66 O76 2.105 . S
Sc66 O79 2.105 1_455 S
Sc66 O82 2.105 . S
Sc66 O85 2.105 1_455 S
Sc67 O69 2.025 . S
Sc67 O77 2.105 . S
Sc67 O81 2.105 . S
Sc67 O83 2.105 . S
Sc67 O87 2.105 . S
Sc68 O69 2.025 . S
Sc68 O78 2.105 . S
Sc68 O80 2.105 . S
Sc68 O84 2.105 . S
Sc68 O86 2.105 . S
O69 Sc66 2.025 . S
O69 Sc67 2.025 . S
O69 Sc68 2.025 . S
C70 O76 1.268 . S
C70 O86 1.268 . S
C71 O77 1.268 . S
C71 O85 1.268 1_455 S
C72 O78 1.268 . S
C72 O87 1.268 . S
C73 O79 1.268 1_455 S
C73 O83 1.268 . S
C74 O80 1.268 . S
C74 O82 1.268 . S
C75 O81 1.268 . S
C75 O84 1.268 . S
O76 Sc66 2.105 . S
O76 C70 1.268 . S
O77 Sc67 2.105 . S
O77 C71 1.268 . S
O78 Sc68 2.105 . S
O78 C72 1.268 . S
O79 Sc66 2.105 1_655 S
O79 C73 1.268 1_655 S
O80 Sc68 2.105 . S
O80 C74 1.268 . S
O81 Sc67 2.105 . S
O81 C75 1.268 . S
O82 Sc66 2.105 . S
O82 C74 1.268 . S
O83 Sc67 2.105 . S
O83 C73 1.268 . S
O84 Sc68 2.105 . S
O84 C75 1.268 . S
O85 Sc66 2.105 1_655 S
O85 C71 1.268 1_655 S
O86 Sc68 2.105 . S
O86 C70 1.268 . S
O87 Sc67 2.105 . S
O87 C72 1.268 . S
Sc88 O91 2.025 . S
Sc88 O98 2.105 . S
Sc88 O101 2.105 . S
Sc88 O104 2.105 . S
Sc88 O107 2.105 . S
Sc89 O91 2.025 . S
Sc89 O99 2.105 . S
Sc89 O103 2.105 . S
Sc89 O105 2.105 . S
Sc89 O109 2.105 . S
Sc90 O91 2.025 . S
Sc90 O100 2.105 . S
Sc90 O102 2.105 . S
Sc90 O106 2.105 . S
Sc90 O108 2.105 . S
O91 Sc88 2.025 . S
O91 Sc89 2.025 . S
O91 Sc90 2.025 . S
C92 O98 1.268 . S
C92 O108 1.268 . S
C93 O99 1.268 . S
C93 O107 1.268 . S
C94 O100 1.268 . S
C94 O109 1.268 . S
C95 O101 1.268 . S
C95 O105 1.268 . S
C96 O102 1.268 . S
C96 O104 1.268 . S
C97 O103 1.268 . S
C97 O106 1.268 . S
O98 Sc88 2.105 . S
O98 C92 1.268 . S
O99 Sc89 2.105 . S
O99 C93 1.268 . S
O100 Sc90 2.105 . S
O100 C94 1.268 . S
O101 Sc88 2.105 . S
O101 C95 1.268 . S
O102 Sc90 2.105 . S
O102 C96 1.268 . S
O103 Sc89 2.105 . S
O103 C97 1.268 . S
O104 Sc88 2.105 . S
O104 C96 1.268 . S
O105 Sc89 2.105 . S
O105 C95 1.268 . S
O106 Sc90 2.105 . S
O106 C97 1.268 . S
O107 Sc88 2.105 . S
O107 C93 1.268 . S
O108 Sc90 2.105 . S
O108 C92 1.268 . S
O109 Sc89 2.105 . S
O109 C94 1.268 . S
Sc110 O113 2.025 . S
Sc110 O120 2.105 . S
Sc110 O123 2.105 1_565 S
Sc110 O126 2.105 . S
Sc110 O129 2.105 1_565 S
Sc111 O113 2.025 . S
Sc111 O121 2.105 . S
Sc111 O125 2.105 . S
Sc111 O127 2.105 . S
Sc111 O131 2.105 . S
Sc112 O113 2.025 . S
Sc112 O122 2.105 . S
Sc112 O124 2.105 . S
Sc112 O128 2.105 . S
Sc112 O130 2.105 . S
O113 Sc110 2.025 . S
O113 Sc111 2.025 . S
O113 Sc112 2.025 . S
C114 O120 1.268 . S
C114 O130 1.268 . S
C115 O121 1.268 . S
C115 O129 1.268 1_565 S
C116 O122 1.268 . S
C116 O131 1.268 . S
C117 O123 1.268 1_565 S
C117 O127 1.268 . S
C118 O124 1.268 . S
C118 O126 1.268 . S
C119 O125 1.268 . S
C119 O128 1.268 . S
O120 Sc110 2.105 . S
O120 C114 1.268 . S
O121 Sc111 2.105 . S
O121 C115 1.268 . S
O122 Sc112 2.105 . S
O122 C116 1.268 . S
O123 Sc110 2.105 1_545 S
O123 C117 1.268 1_545 S
O124 Sc112 2.105 . S
O124 C118 1.268 . S
O125 Sc111 2.105 . S
O125 C119 1.268 . S
O126 Sc110 2.105 . S
O126 C118 1.268 . S
O127 Sc111 2.105 . S
O127 C117 1.268 . S
O128 Sc112 2.105 . S
O128 C119 1.268 . S
O129 Sc110 2.105 1_545 S
O129 C115 1.268 1_545 S
O130 Sc112 2.105 . S
O130 C114 1.268 . S
O131 Sc111 2.105 . S
O131 C116 1.268 . S
Sc132 O135 2.025 . S
Sc132 O142 2.105 . S
Sc132 O145 2.105 . S
Sc132 O148 2.105 . S
Sc132 O151 2.105 . S
Sc133 O135 2.025 . S
Sc133 O143 2.105 . S
Sc133 O147 2.105 . S
Sc133 O149 2.105 . S
Sc133 O153 2.105 . S
Sc134 O135 2.025 . S
Sc134 O144 2.105 . S
Sc134 O146 2.105 . S
Sc134 O150 2.105 . S
Sc134 O152 2.105 . S
O135 Sc132 2.025 . S
O135 Sc133 2.025 . S
O135 Sc134 2.025 . S
C136 O142 1.268 . S
C136 O152 1.268 . S
C137 O143 1.268 . S
C137 O151 1.268 . S
C138 O144 1.268 . S
C138 O153 1.268 . S
C139 O145 1.268 . S
C139 O149 1.268 . S
C140 O146 1.268 . S
C140 O148 1.268 . S
C141 O147 1.268 . S
C141 O150 1.268 . S
O142 Sc132 2.105 . S
O142 C136 1.268 . S
O143 Sc133 2.105 . S
O143 C137 1.268 . S
O144 Sc134 2.105 . S
O144 C138 1.268 . S
O145 Sc132 2.105 . S
O145 C139 1.268 . S
O146 Sc134 2.105 . S
O146 C140 1.268 . S
O147 Sc133 2.105 . S
O147 C141 1.268 . S
O148 Sc132 2.105 . S
O148 C140 1.268 . S
O149 Sc133 2.105 . S
O149 C139 1.268 . S
O150 Sc134 2.105 . S
O150 C141 1.268 . S
O151 Sc132 2.105 . S
O151 C137 1.268 . S
O152 Sc134 2.105 . S
O152 C136 1.268 . S
O153 Sc133 2.105 . S
O153 C138 1.268 . S
Sc154 O157 2.025 . S
Sc154 O164 2.105 . S
Sc154 O167 2.105 . S
Sc154 O170 2.105 . S
Sc154 O173 2.105 . S
Sc155 O157 2.025 . S
Sc155 O165 2.105 . S
Sc155 O169 2.105 . S
Sc155 O171 2.105 . S
Sc155 O175 2.105 . S
Sc156 O157 2.025 . S
Sc156 O166 2.105 . S
Sc156 O168 2.105 . S
Sc156 O172 2.105 . S
Sc156 O174 2.105 . S
O157 Sc154 2.025 . S
O157 Sc155 2.025 . S
O157 Sc156 2.025 . S
C158 O164 1.268 . S
C158 O174 1.268 . S
C159 O165 1.268 . S
C159 O173 1.268 . S
C160 O166 1.268 . S
C160 O175 1.268 . S
C161 O167 1.268 . S
C161 O171 1.268 . S
C162 O168 1.268 . S
C162 O170 1.268 . S
C163 O169 1.268 . S
C163 O172 1.268 . S
O164 Sc154 2.105 . S
O164 C158 1.268 . S
O165 Sc155 2.105 . S
O165 C159 1.268 . S
O166 Sc156 2.105 . S
O166 C160 1.268 . S
O167 Sc154 2.105 . S
O167 C161 1.268 . S
O168 Sc156 2.105 . S
O168 C162 1.268 . S
O169 Sc155 2.105 . S
O169 C163 1.268 . S
O170 Sc154 2.105 . S
O170 C162 1.268 . S
O171 Sc155 2.105 . S
O171 C161 1.268 . S
O172 Sc156 2.105 . S
O172 C163 1.268 . S
O173 Sc154 2.105 . S
O173 C159 1.268 . S
O174 Sc156 2.105 . S
O174 C158 1.268 . S
O175 Sc155 2.105 . S
O175 C160 1.268 . S
Sc176 O179 2.025 . S
Sc176 O186 2.105 . S
Sc176 O189 2.105 . S
Sc176 O192 2.105 . S
Sc176 O195 2.105 . S
Sc177 O179 2.025 . S
Sc177 O187 2.105 . S
Sc177 O191 2.105 . S
Sc177 O193 2.105 . S
Sc177 O197 2.105 . S
Sc178 O179 2.025 . S
Sc178 O188 2.105 . S
Sc178 O190 2.105 . S
Sc178 O194 2.105 . S
Sc178 O196 2.105 . S
O179 Sc176 2.025 . S
O179 Sc177 2.025 . S
O179 Sc178 2.025 . S
C180 O186 1.268 . S
C180 O196 1.268 . S
C181 O187 1.268 . S
C181 O195 1.268 . S
C182 O188 1.268 . S
C182 O197 1.268 . S
C183 O189 1.268 . S
C183 O193 1.268 . S
C184 O190 1.268 . S
C184 O192 1.268 . S
C185 O191 1.268 . S
C185 O194 1.268 . S
O186 Sc176 2.105 . S
O186 C180 1.268 . S
O187 Sc177 2.105 . S
O187 C181 1.268 . S
O188 Sc178 2.105 . S
O188 C182 1.268 . S
O189 Sc176 2.105 . S
O189 C183 1.268 . S
O190 Sc178 2.105 . S
O190 C184 1.268 . S
O191 Sc177 2.105 . S
O191 C185 1.268 . S
O192 Sc176 2.105 . S
O192 C184 1.268 . S
O193 Sc177 2.105 . S
O193 C183 1.268 . S
O194 Sc178 2.105 . S
O194 C185 1.268 . S
O195 Sc176 2.105 . S
O195 C181 1.268 . S
O196 Sc178 2.105 . S
O196 C180 1.268 . S
O197 Sc177 2.105 . S
O197 C182 1.268 . S
C198 C199 1.363 . S
C198 C204 1.379 1_545 S
C198 N206 1.356 . S
C199 C198 1.363 . S
C199 C205 1.363 . S
C200 C201 1.363 1_545 S
C200 C205 1.379 . S
C200 N207 1.356 1_545 S
C201 C200 1.363 1_565 S
C201 C204 1.363 . S
N202 C204 1.356 . S
N202 H214 0.984 . S
N202 H215 0.985 . S
N203 C205 1.356 . S
N203 H208 0.984 . S
N203 H209 0.985 . S
C204 C198 1.379 1_565 S
C204 C201 1.363 . S
C204 N202 1.356 . S
C205 C199 1.363 . S
C205 C200 1.379 . S
C205 N203 1.356 . S
N206 C198 1.356 . S
N206 H212 0.984 1_546 S
N206 H213 0.984 1_556 S
N207 C200 1.356 1_565 S
N207 H210 0.984 . S
N207 H211 0.985 1_565 S
H208 N203 0.984 . S
H209 N203 0.985 . S
H210 N207 0.984 . S
H211 N207 0.985 1_545 S
H212 N206 0.984 1_564 S
H213 N206 0.984 1_554 S
H214 N202 0.984 . S
H215 N202 0.985 . S
C216 C217 1.363 . S
C216 C222 1.379 1_655 S
C216 N224 1.356 . S
C217 C216 1.363 . S
C217 C223 1.363 . S
C218 C219 1.363 1_655 S
C218 C223 1.379 . S
C218 N225 1.356 1_655 S
C219 C218 1.363 1_455 S
C219 C222 1.363 . S
N220 C222 1.356 . S
N220 H232 0.984 . S
N220 H233 0.985 . S
N221 C223 1.356 . S
N221 H226 0.984 . S
N221 H227 0.985 . S
C222 C216 1.379 1_455 S
C222 C219 1.363 . S
C222 N220 1.356 . S
C223 C217 1.363 . S
C223 C218 1.379 . S
C223 N221 1.356 . S
N224 C216 1.356 . S
N224 H230 0.984 1_656 S
N224 H231 0.984 . S
N225 C218 1.356 1_455 S
N225 H228 0.984 . S
N225 H229 0.985 1_455 S
H226 N221 0.984 . S
H227 N221 0.985 . S
H228 N225 0.984 . S
H229 N225 0.985 1_655 S
H230 N224 0.984 1_454 S
H231 N224 0.984 . S
H232 N220 0.984 . S
H233 N220 0.985 . S
C234 C235 1.363 . S
C234 C240 1.379 . S
C234 N242 1.356 . S
C235 C234 1.363 . S
C235 C241 1.363 . S
C236 C237 1.363 . S
C236 C241 1.379 . S
C236 N243 1.356 . S
C237 C236 1.363 . S
C237 C240 1.363 . S
N238 C240 1.356 . S
N238 H250 0.984 . S
N238 H251 0.985 . S
N239 C241 1.356 . S
N239 H244 0.984 . S
N239 H245 0.985 . S
C240 C234 1.379 . S
C240 C237 1.363 . S
C240 N238 1.356 . S
C241 C235 1.363 . S
C241 C236 1.379 . S
C241 N239 1.356 . S
N242 C234 1.356 . S
N242 H248 0.984 . S
N242 H249 0.984 . S
N243 C236 1.356 . S
N243 H246 0.984 . S
N243 H247 0.985 1_556 S
H244 N239 0.984 . S
H245 N239 0.985 . S
H246 N243 0.984 . S
H247 N243 0.985 1_554 S
H248 N242 0.984 . S
H249 N242 0.984 . S
H250 N238 0.984 . S
H251 N238 0.985 . S
C252 C253 1.363 1_655 S
C252 C258 1.379 . S
C252 N260 1.356 1_655 S
C253 C252 1.363 1_455 S
C253 C259 1.363 . S
C254 C255 1.363 . S
C254 C259 1.379 1_655 S
C254 N261 1.356 . S
C255 C254 1.363 . S
C255 C258 1.363 . S
N256 C258 1.356 . S
N256 H268 0.984 . S
N256 H269 0.985 . S
N257 C259 1.356 . S
N257 H262 0.984 . S
N257 H263 0.985 . S
C258 C252 1.379 . S
C258 C255 1.363 . S
C258 N256 1.356 . S
C259 C253 1.363 . S
C259 C254 1.379 1_455 S
C259 N257 1.356 . S
N260 C252 1.356 1_455 S
N260 H266 0.984 1_455 S
N260 H267 0.984 . S
N261 C254 1.356 . S
N261 H264 0.983 1_556 S
N261 H265 0.985 1_656 S
H262 N257 0.984 . S
H263 N257 0.985 . S
H264 N261 0.983 1_554 S
H265 N261 0.985 1_454 S
H266 N260 0.984 1_655 S
H267 N260 0.984 . S
H268 N256 0.984 . S
H269 N256 0.985 . S
C270 C271 1.363 . S
C270 C276 1.379 . S
C270 N278 1.356 . S
C271 C270 1.363 . S
C271 C277 1.363 . S
C272 C273 1.363 . S
C272 C277 1.379 . S
C272 N279 1.356 . S
C273 C272 1.363 . S
C273 C276 1.363 . S
N274 C276 1.356 . S
N274 H286 0.984 . S
N274 H287 0.985 . S
N275 C277 1.356 . S
N275 H280 0.984 . S
N275 H281 0.985 . S
C276 C270 1.379 . S
C276 C273 1.363 . S
C276 N274 1.356 . S
C277 C271 1.363 . S
C277 C272 1.379 . S
C277 N275 1.356 . S
N278 C270 1.356 . S
N278 H284 0.984 . S
N278 H285 0.984 . S
N279 C272 1.356 . S
N279 H282 0.984 . S
N279 H283 0.985 . S
H280 N275 0.984 . S
H281 N275 0.985 . S
H282 N279 0.984 . S
H283 N279 0.985 . S
H284 N278 0.984 . S
H285 N278 0.984 . S
H286 N274 0.984 . S
H287 N274 0.985 . S
C288 C289 1.363 . S
C288 C294 1.379 1_565 S
C288 N296 1.356 . S
C289 C288 1.363 . S
C289 C295 1.363 1_565 S
C290 C291 1.363 . S
C290 C295 1.379 . S
C290 N297 1.356 . S
C291 C290 1.363 . S
C291 C294 1.363 . S
N292 C294 1.356 . S
N292 H304 0.984 1_545 S
N292 H305 0.985 . S
N293 C295 1.356 1_565 S
N293 H298 0.984 . S
N293 H299 0.985 1_565 S
C294 C288 1.379 1_545 S
C294 C291 1.363 . S
C294 N292 1.356 . S
C295 C289 1.363 1_545 S
C295 C290 1.379 . S
C295 N293 1.356 1_545 S
N296 C288 1.356 . S
N296 H302 0.984 . S
N296 H303 0.984 . S
N297 C290 1.356 . S
N297 H300 0.984 . S
N297 H301 0.985 . S
H298 N293 0.984 . S
H299 N293 0.985 1_545 S
H300 N297 0.984 . S
H301 N297 0.985 . S
H302 N296 0.984 . S
H303 N296 0.984 . S
H304 N292 0.984 1_565 S
H305 N292 0.985 . S
C306 C307 1.363 . S
C306 C312 1.379 . S
C306 N314 1.356 . S
C307 C306 1.363 . S
C307 C313 1.363 . S
C308 C309 1.363 . S
C308 C313 1.379 . S
C308 N315 1.356 . S
C309 C308 1.363 . S
C309 C312 1.363 . S
N310 C312 1.356 1_455 S
N310 H322 0.984 . S
N310 H323 0.985 . S
N311 C313 1.356 . S
N311 H316 0.984 . S
N311 H317 0.985 . S
C312 C306 1.379 . S
C312 C309 1.363 . S
C312 N310 1.356 1_655 S
C313 C307 1.363 . S
C313 C308 1.379 . S
C313 N311 1.356 . S
N314 C306 1.356 . S
N314 H320 0.984 . S
N314 H321 0.984 . S
N315 C308 1.356 . S
N315 H318 0.984 . S
N315 H319 0.985 . S
H316 N311 0.984 . S
H317 N311 0.985 . S
H318 N315 0.984 . S
H319 N315 0.985 . S
H320 N314 0.984 . S
H321 N314 0.984 . S
H322 N310 0.984 . S
H323 N310 0.985 . S
C324 C325 1.363 . S
C324 C330 1.379 . S
C324 N332 1.356 . S
C325 C324 1.363 . S
C325 C331 1.363 . S
C326 C327 1.363 . S
C326 C331 1.379 . S
C326 N333 1.356 . S
C327 C326 1.363 . S
C327 C330 1.363 . S
N328 C330 1.356 . S
N328 H340 0.984 . S
N328 H341 0.985 . S
N329 C331 1.356 . S
N329 H334 0.984 . S
N329 H335 0.985 . S
C330 C324 1.379 . S
C330 C327 1.363 . S
C330 N328 1.356 . S
C331 C325 1.363 . S
C331 C326 1.379 . S
C331 N329 1.356 . S
N332 C324 1.356 . S
N332 H338 0.984 . S
N332 H339 0.984 . S
N333 C326 1.356 . S
N333 H336 0.984 . S
N333 H337 0.985 . S
H334 N329 0.984 . S
H335 N329 0.985 . S
H336 N333 0.984 . S
H337 N333 0.985 . S
H338 N332 0.984 . S
H339 N332 0.984 . S
H340 N328 0.984 . S
H341 N328 0.985 . S
C342 C343 1.363 . S
C342 C348 1.379 1_545 S
C342 N350 1.356 . S
C343 C342 1.363 . S
C343 C349 1.363 . S
C344 C345 1.363 . S
C344 C349 1.379 . S
C344 N351 1.356 . S
C345 C344 1.363 . S
C345 C348 1.363 1_545 S
N346 C348 1.356 . S
N346 H358 0.984 . S
N346 H359 0.985 . S
N347 C349 1.356 . S
N347 H352 0.984 . S
N347 H353 0.985 . S
C348 C342 1.379 1_565 S
C348 C345 1.363 1_565 S
C348 N346 1.356 . S
C349 C343 1.363 . S
C349 C344 1.379 . S
C349 N347 1.356 . S
N350 C342 1.356 . S
N350 H356 0.984 1_545 S
N350 H357 0.984 . S
N351 C344 1.356 . S
N351 H354 0.984 . S
N351 H355 0.985 . S
H352 N347 0.984 . S
H353 N347 0.985 . S
H354 N351 0.984 . S
H355 N351 0.985 . S
H356 N350 0.984 1_565 S
H357 N350 0.984 . S
H358 N346 0.984 . S
H359 N346 0.985 . S
C360 C361 1.363 . S
C360 C366 1.379 . S
C360 N368 1.356 . S
C361 C360 1.363 . S
C361 C367 1.363 . S
C362 C363 1.363 . S
C362 C367 1.379 . S
C362 N369 1.356 1_545 S
C363 C362 1.363 . S
C363 C366 1.363 . S
N364 C366 1.356 . S
N364 H376 0.984 . S
N364 H377 0.985 . S
N365 C367 1.356 . S
N365 H370 0.984 . S
N365 H371 0.985 . S
C366 C360 1.379 . S
C366 C363 1.363 . S
C366 N364 1.356 . S
C367 C361 1.363 . S
C367 C362 1.379 . S
C367 N365 1.356 . S
N368 C360 1.356 . S
N368 H374 0.984 . S
N368 H375 0.984 . S
N369 C362 1.356 1_565 S
N369 H372 0.984 . S
N369 H373 0.985 . S
H370 N365 0.984 . S
H371 N365 0.985 . S
H372 N369 0.984 . S
H373 N369 0.985 . S
H374 N368 0.984 . S
H375 N368 0.984 . S
H376 N364 0.984 . S
H377 N364 0.985 . S
C378 C379 1.363 . S
C378 C384 1.379 . S
C378 N386 1.356 1_655 S
C379 C378 1.363 . S
C379 C385 1.363 . S
C380 C381 1.363 . S
C380 C385 1.379 . S
C380 N387 1.356 . S
C381 C380 1.363 . S
C381 C384 1.363 . S
N382 C384 1.356 . S
N382 H394 0.984 . S
N382 H395 0.985 . S
N383 C385 1.356 . S
N383 H388 0.984 . S
N383 H389 0.985 . S
C384 C378 1.379 . S
C384 C381 1.363 . S
C384 N382 1.356 . S
C385 C379 1.363 . S
C385 C380 1.379 . S
C385 N383 1.356 . S
N386 C378 1.356 1_455 S
N386 H392 0.984 . S
N386 H393 0.984 . S
N387 C380 1.356 . S
N387 H390 0.984 . S
N387 H391 0.985 . S
H388 N383 0.984 . S
H389 N383 0.985 . S
H390 N387 0.984 . S
H391 N387 0.985 . S
H392 N386 0.984 . S
H393 N386 0.984 . S
H394 N382 0.984 . S
H395 N382 0.985 . S
C396 C397 1.363 . S
C396 C402 1.379 . S
C396 N404 1.356 . S
C397 C396 1.363 . S
C397 C403 1.363 . S
C398 C399 1.363 . S
C398 C403 1.379 . S
C398 N405 1.356 . S
C399 C398 1.363 . S
C399 C402 1.363 . S
N400 C402 1.356 . S
N400 H412 0.984 . S
N400 H413 0.985 . S
N401 C403 1.356 . S
N401 H406 0.984 . S
N401 H407 0.985 . S
C402 C396 1.379 . S
C402 C399 1.363 . S
C402 N400 1.356 . S
C403 C397 1.363 . S
C403 C398 1.379 . S
C403 N401 1.356 . S
N404 C396 1.356 . S
N404 H410 0.984 . S
N404 H411 0.984 . S
N405 C398 1.356 . S
N405 H408 0.984 . S
N405 H409 0.985 . S
H406 N401 0.984 . S
H407 N401 0.985 . S
H408 N405 0.984 . S
H409 N405 0.985 . S
H410 N404 0.984 . S
H411 N404 0.984 . S
H412 N400 0.984 . S
H413 N400 0.985 . S
C414 C415 1.363 . S
C414 C420 1.379 . S
C414 N422 1.356 . S
C415 C414 1.363 . S
C415 C421 1.363 . S
C416 C417 1.363 . S
C416 C421 1.379 . S
C416 N423 1.356 . S
C417 C416 1.363 . S
C417 C420 1.363 . S
N418 C420 1.356 . S
N418 H430 0.984 . S
N418 H431 0.985 . S
N419 C421 1.356 . S
N419 H424 0.984 . S
N419 H425 0.985 . S
C420 C414 1.379 . S
C420 C417 1.363 . S
C420 N418 1.356 . S
C421 C415 1.363 . S
C421 C416 1.379 . S
C421 N419 1.356 . S
N422 C414 1.356 . S
N422 H428 0.984 . S
N422 H429 0.984 . S
N423 C416 1.356 . S
N423 H426 0.984 . S
N423 H427 0.985 . S
H424 N419 0.984 . S
H425 N419 0.985 . S
H426 N423 0.984 . S
H427 N423 0.985 . S
H428 N422 0.984 . S
H429 N422 0.984 . S
H430 N418 0.984 . S
H431 N418 0.985 . S
C432 C433 1.363 . S
C432 C438 1.379 . S
C432 N440 1.353 1_565 S
C433 C432 1.363 . S
C433 C439 1.363 . S
C434 C435 1.363 . S
C434 C439 1.379 . S
C434 N441 1.356 . S
C435 C434 1.363 . S
C435 C438 1.363 . S
N436 C438 1.356 . S
N436 H448 0.995 . S
N436 H449 0.985 . S
N437 C439 1.356 . S
N437 H442 0.984 . S
N437 H443 0.985 . S
C438 C432 1.379 . S
C438 C435 1.363 . S
C438 N436 1.356 . S
C439 C433 1.363 . S
C439 C434 1.379 . S
C439 N437 1.356 . S
N440 C432 1.353 1_545 S
N440 H446 0.994 . S
N440 H447 0.986 . S
N441 C434 1.356 . S
N441 H444 0.984 . S
N441 H445 0.985 . S
H442 N437 0.984 . S
H443 N437 0.985 . S
H444 N441 0.984 . S
H445 N441 0.985 . S
H446 N440 0.994 . S
H447 N440 0.986 . S
H448 N436 0.995 . S
H449 N436 0.985 . S
C450 C451 1.363 . S
C450 C456 1.379 . S
C450 N458 1.356 . S
C451 C450 1.363 . S
C451 C457 1.363 . S
C452 C453 1.363 . S
C452 C457 1.379 . S
C452 N459 1.356 . S
C453 C452 1.363 . S
C453 C456 1.363 . S
N454 C456 1.356 1_655 S
N454 H466 0.984 . S
N454 H467 0.985 . S
N455 C457 1.356 . S
N455 H460 0.984 . S
N455 H461 0.985 . S
C456 C450 1.379 . S
C456 C453 1.363 . S
C456 N454 1.356 1_455 S
C457 C451 1.363 . S
C457 C452 1.379 . S
C457 N455 1.356 . S
N458 C450 1.356 . S
N458 H464 0.974 1_455 S
N458 H465 0.984 . S
N459 C452 1.356 . S
N459 H462 0.984 . S
N459 H463 0.985 . S
H460 N455 0.984 . S
H461 N455 0.985 . S
H462 N459 0.984 . S
H463 N459 0.985 . S
H464 N458 0.974 1_655 S
H465 N458 0.984 . S
H466 N454 0.984 . S
H467 N454 0.985 . S
C468 C469 1.363 . S
C468 C474 1.379 . S
C468 N476 1.356 . S
C469 C468 1.363 . S
C469 C475 1.363 . S
C470 C471 1.363 . S
C470 C475 1.379 . S
C470 N477 1.356 . S
C471 C470 1.363 . S
C471 C474 1.363 . S
N472 C474 1.356 . S
N472 H484 0.984 . S
N472 H485 0.985 . S
N473 C475 1.356 . S
N473 H478 0.984 . S
N473 H479 0.985 . S
C474 C468 1.379 . S
C474 C471 1.363 . S
C474 N472 1.356 . S
C475 C469 1.363 . S
C475 C470 1.379 . S
C475 N473 1.356 . S
N476 C468 1.356 . S
N476 H482 0.984 . S
N476 H483 0.984 . S
N477 C470 1.356 . S
N477 H480 0.984 . S
N477 H481 0.985 . S
H478 N473 0.984 . S
H479 N473 0.985 . S
H480 N477 0.984 . S
H481 N477 0.985 . S
H482 N476 0.984 . S
H483 N476 0.984 . S
H484 N472 0.984 . S
H485 N472 0.985 . S
C486 C487 1.363 . S
C486 C492 1.379 . S
C486 N494 1.356 . S
C487 C486 1.363 . S
C487 C493 1.363 . S
C488 C489 1.363 . S
C488 C493 1.379 . S
C488 N495 1.356 . S
C489 C488 1.363 . S
C489 C492 1.363 . S
N490 C492 1.356 . S
N490 H502 0.984 . S
N490 H503 0.985 . S
N491 C493 1.356 1_545 S
N491 H496 0.984 . S
N491 H497 0.985 . S
C492 C486 1.379 . S
C492 C489 1.363 . S
C492 N490 1.356 . S
C493 C487 1.363 . S
C493 C488 1.379 . S
C493 N491 1.356 1_565 S
N494 C486 1.356 . S
N494 H500 0.984 . S
N494 H501 0.984 . S
N495 C488 1.356 . S
N495 H498 0.984 . S
N495 H499 0.985 1_565 S
H496 N491 0.984 . S
H497 N491 0.985 . S
H498 N495 0.984 . S
H499 N495 0.985 1_545 S
H500 N494 0.984 . S
H501 N494 0.984 . S
H502 N490 0.984 . S
H503 N490 0.985 . S
C504 C505 1.363 . S
C504 C510 1.379 . S
C504 N512 1.356 . S
C505 C504 1.363 . S
C505 C511 1.363 . S
C506 C507 1.363 . S
C506 C511 1.379 . S
C506 N513 1.356 . S
C507 C506 1.363 . S
C507 C510 1.363 . S
N508 C510 1.356 . S
N508 H520 0.984 . S
N508 H521 0.985 . S
N509 C511 1.356 1_655 S
N509 H514 0.984 . S
N509 H515 0.985 . S
C510 C504 1.379 . S
C510 C507 1.363 . S
C510 N508 1.356 . S
C511 C505 1.363 . S
C511 C506 1.379 . S
C511 N509 1.356 1_455 S
N512 C504 1.356 . S
N512 H518 0.984 . S
N512 H519 0.984 . S
N513 C506 1.356 . S
N513 H516 0.984 . S
N513 H517 0.985 1_455 S
H514 N509 0.984 . S
H515 N509 0.985 . S
H516 N513 0.984 . S
H517 N513 0.985 1_655 S
H518 N512 0.984 . S
H519 N512 0.984 . S
H520 N508 0.984 . S
H521 N508 0.985 . S
C522 C523 1.363 1_554 S
C522 C528 1.379 . S
C522 N530 1.356 . S
C523 C522 1.363 1_556 S
C523 C529 1.363 . S
C524 C525 1.363 . S
C524 C529 1.379 . S
C524 N531 1.356 . S
C525 C524 1.363 . S
C525 C528 1.363 1_556 S
N526 C528 1.356 . S
N526 H538 0.984 . S
N526 H539 0.985 . S
N527 C529 1.356 . S
N527 H532 0.984 . S
N527 H533 0.985 . S
C528 C522 1.379 . S
C528 C525 1.363 1_554 S
C528 N526 1.356 . S
C529 C523 1.363 . S
C529 C524 1.379 . S
C529 N527 1.356 . S
N530 C522 1.356 . S
N530 H536 0.984 . S
N530 H537 0.984 . S
N531 C524 1.356 . S
N531 H534 0.984 . S
N531 H535 0.985 . S
H532 N527 0.984 . S
H533 N527 0.985 . S
H534 N531 0.984 . S
H535 N531 0.985 . S
H536 N530 0.984 . S
H537 N530 0.984 . S
H538 N526 0.984 . S
H539 N526 0.985 . S
C540 C541 1.363 1_554 S
C540 C546 1.379 . S
C540 N548 1.356 . S
C541 C540 1.363 1_556 S
C541 C547 1.363 . S
C542 C543 1.363 . S
C542 C547 1.379 . S
C542 N549 1.356 . S
C543 C542 1.363 . S
C543 C546 1.363 1_556 S
N544 C546 1.356 . S
N544 H556 0.984 . S
N544 H557 0.985 . S
N545 C547 1.356 . S
N545 H550 0.984 . S
N545 H551 0.985 . S
C546 C540 1.379 . S
C546 C543 1.363 1_554 S
C546 N544 1.356 . S
C547 C541 1.363 . S
C547 C542 1.379 . S
C547 N545 1.356 . S
N548 C540 1.356 . S
N548 H554 0.984 . S
N548 H555 0.984 . S
N549 C542 1.356 . S
N549 H552 0.984 . S
N549 H553 0.985 . S
H550 N545 0.984 . S
H551 N545 0.985 . S
H552 N549 0.984 . S
H553 N549 0.985 . S
H554 N548 0.984 . S
H555 N548 0.984 . S
H556 N544 0.984 . S
H557 N544 0.985 . S
C558 C559 1.363 . S
C558 C564 1.379 . S
C558 N566 1.356 . S
C559 C558 1.363 . S
C559 C565 1.363 1_556 S
C560 C561 1.363 1_554 S
C560 C565 1.379 . S
C560 N567 1.356 . S
C561 C560 1.363 1_556 S
C561 C564 1.363 . S
N562 C564 1.356 . S
N562 H574 0.984 . S
N562 H575 0.985 . S
N563 C565 1.356 . S
N563 H568 0.984 . S
N563 H569 0.985 . S
C564 C558 1.379 . S
C564 C561 1.363 . S
C564 N562 1.356 . S
C565 C559 1.363 1_554 S
C565 C560 1.379 . S
C565 N563 1.356 . S
N566 C558 1.356 . S
N566 H572 0.984 . S
N566 H573 0.984 . S
N567 C560 1.356 . S
N567 H570 0.984 . S
N567 H571 0.985 . S
H568 N563 0.984 . S
H569 N563 0.985 . S
H570 N567 0.984 . S
H571 N567 0.985 . S
H572 N566 0.984 . S
H573 N566 0.984 . S
H574 N562 0.984 . S
H575 N562 0.985 . S
C576 C577 1.363 . S
C576 C582 1.379 . S
C576 N584 1.356 . S
C577 C576 1.363 . S
C577 C583 1.363 . S
C578 C579 1.363 . S
C578 C583 1.379 . S
C578 N585 1.356 . S
C579 C578 1.363 . S
C579 C582 1.363 . S
N580 C582 1.356 . S
N580 H592 0.984 . S
N580 H593 0.985 . S
N581 C583 1.356 . S
N581 H586 0.984 . S
N581 H587 0.985 . S
C582 C576 1.379 . S
C582 C579 1.363 . S
C582 N580 1.356 . S
C583 C577 1.363 . S
C583 C578 1.379 . S
C583 N581 1.356 . S
N584 C576 1.356 . S
N584 H590 0.984 . S
N584 H591 0.984 . S
N585 C578 1.356 . S
N585 H588 0.984 . S
N585 H589 0.985 . S
H586 N581 0.984 . S
H587 N581 0.985 . S
H588 N585 0.984 . S
H589 N585 0.985 . S
H590 N584 0.984 . S
H591 N584 0.984 . S
H592 N580 0.984 . S
H593 N580 0.985 . S
C594 C595 1.363 . S
C594 C600 1.379 . S
C594 N602 1.356 . S
C595 C594 1.363 . S
C595 C601 1.363 . S
C596 C597 1.363 . S
C596 C601 1.379 . S
C596 N603 1.356 . S
C597 C596 1.363 . S
C597 C600 1.363 . S
N598 C600 1.356 . S
N598 H610 0.984 . S
N598 H611 0.985 . S
N599 C601 1.356 . S
N599 H604 0.984 . S
N599 H605 0.985 . S
C600 C594 1.379 . S
C600 C597 1.363 . S
C600 N598 1.356 . S
C601 C595 1.363 . S
C601 C596 1.379 . S
C601 N599 1.356 . S
N602 C594 1.356 . S
N602 H608 0.984 . S
N602 H609 0.984 . S
N603 C596 1.356 . S
N603 H606 0.984 . S
N603 H607 0.985 . S
H604 N599 0.984 . S
H605 N599 0.985 . S
H606 N603 0.984 . S
H607 N603 0.985 . S
H608 N602 0.984 . S
H609 N602 0.984 . S
H610 N598 0.984 . S
H611 N598 0.985 . S
C612 C613 1.363 . S
C612 C618 1.379 . S
C612 N620 1.356 . S
C613 C612 1.363 . S
C613 C619 1.363 . S
C614 C615 1.363 . S
C614 C619 1.379 . S
C614 N621 1.356 . S
C615 C614 1.363 . S
C615 C618 1.363 . S
N616 C618 1.356 . S
N616 H628 0.984 . S
N616 H629 0.985 . S
N617 C619 1.356 . S
N617 H622 0.984 . S
N617 H623 0.985 . S
C618 C612 1.379 . S
C618 C615 1.363 . S
C618 N616 1.356 . S
C619 C613 1.363 . S
C619 C614 1.379 . S
C619 N617 1.356 . S
N620 C612 1.356 . S
N620 H626 0.984 . S
N620 H627 0.984 . S
N621 C614 1.356 . S
N621 H624 0.984 . S
N621 H625 0.985 . S
H622 N617 0.984 . S
H623 N617 0.985 . S
H624 N621 0.984 . S
H625 N621 0.985 . S
H626 N620 0.984 . S
H627 N620 0.984 . S
H628 N616 0.984 . S
H629 N616 0.985 . S
C630 C631 1.363 . S
C630 C636 1.379 . S
C630 N638 1.356 1_655 S
C631 C630 1.363 . S
C631 C637 1.363 . S
C632 C633 1.363 . S
C632 C637 1.379 . S
C632 N639 1.356 . S
C633 C632 1.363 . S
C633 C636 1.363 . S
N634 C636 1.356 . S
N634 H646 0.984 . S
N634 H647 0.985 . S
N635 C637 1.356 . S
N635 H640 0.984 . S
N635 H641 0.985 . S
C636 C630 1.379 . S
C636 C633 1.363 . S
C636 N634 1.356 . S
C637 C631 1.363 . S
C637 C632 1.379 . S
C637 N635 1.356 . S
N638 C630 1.356 1_455 S
N638 H644 0.984 . S
N638 H645 0.984 . S
N639 C632 1.356 . S
N639 H642 0.984 . S
N639 H643 0.985 . S
H640 N635 0.984 . S
H641 N635 0.985 . S
H642 N639 0.984 . S
H643 N639 0.985 . S
H644 N638 0.984 . S
H645 N638 0.984 . S
H646 N634 0.984 . S
H647 N634 0.985 . S
C648 C649 1.363 . S
C648 C654 1.379 . S
C648 N656 1.356 . S
C649 C648 1.363 . S
C649 C655 1.363 . S
C650 C651 1.363 . S
C650 C655 1.379 . S
C650 N657 1.356 . S
C651 C650 1.363 . S
C651 C654 1.363 . S
N652 C654 1.356 . S
N652 H664 0.984 . S
N652 H665 0.985 . S
N653 C655 1.356 1_565 S
N653 H658 0.984 . S
N653 H659 0.985 . S
C654 C648 1.379 . S
C654 C651 1.363 . S
C654 N652 1.356 . S
C655 C649 1.363 . S
C655 C650 1.379 . S
C655 N653 1.356 1_545 S
N656 C648 1.356 . S
N656 H662 0.984 . S
N656 H663 0.984 . S
N657 C650 1.356 . S
N657 H660 0.984 . S
N657 H661 0.985 . S
H658 N653 0.984 . S
H659 N653 0.985 . S
H660 N657 0.984 . S
H661 N657 0.985 . S
H662 N656 0.984 . S
H663 N656 0.984 . S
H664 N652 0.984 . S
H665 N652 0.985 . S
C666 C667 1.363 . S
C666 C672 1.379 . S
C666 N674 1.356 . S
C667 C666 1.363 . S
C667 C673 1.363 . S
C668 C669 1.363 . S
C668 C673 1.379 . S
C668 N675 1.356 1_655 S
C669 C668 1.363 . S
C669 C672 1.363 . S
N670 C672 1.356 . S
N670 H682 0.984 . S
N670 H683 0.985 . S
N671 C673 1.356 1_565 S
N671 H676 0.984 . S
N671 H677 0.985 . S
C672 C666 1.379 . S
C672 C669 1.363 . S
C672 N670 1.356 . S
C673 C667 1.363 . S
C673 C668 1.379 . S
C673 N671 1.356 1_545 S
N674 C666 1.356 . S
N674 H680 0.984 . S
N674 H681 0.984 . S
N675 C668 1.356 1_455 S
N675 H678 0.984 . S
N675 H679 0.985 . S
H676 N671 0.984 . S
H677 N671 0.985 . S
H678 N675 0.984 . S
H679 N675 0.985 . S
H680 N674 0.984 . S
H681 N674 0.984 . S
H682 N670 0.984 . S
H683 N670 0.985 . S
C199 C7 1.313 . S
C201 C162 1.318 . S
C217 C29 1.313 . S
C219 C184 1.318 . S
C235 C140 1.318 . S
C237 C51 1.313 . S
C253 C158 1.318 . S
C255 C49 1.313 . S
C271 C180 1.318 . S
C273 C5 1.313 . S
C289 C136 1.318 . S
C291 C27 1.313 . S
C307 C30 1.318 . S
C309 C73 1.313 1_655 S
C325 C95 1.313 . S
C327 C52 1.318 . S
C343 C8 1.318 . S
C345 C117 1.313 1_545 S
C361 C26 1.318 . S
C363 C115 1.313 1_545 S
C379 C71 1.313 1_655 S
C381 C48 1.318 . S
C397 C4 1.318 . S
C399 C93 1.313 . S
C415 C139 1.313 . S
C417 C96 1.318 . S
C433 C118 1.318 . S
C435 C161 1.313 . S
C451 C183 1.313 . S
C453 C74 1.318 . S
C469 C181 1.313 . S
C471 C92 1.318 . S
C487 C114 1.318 . S
C489 C137 1.313 . S
C505 C70 1.318 . S
C507 C159 1.313 . S
C523 C9 1.248 . S
C525 C28 1.248 . S
C541 C50 1.248 . S
C543 C31 1.248 . S
C559 C53 1.248 . S
C561 C6 1.248 . S
C577 C94 1.248 . S
C579 C75 1.248 . S
C595 C116 1.248 . S
C597 C97 1.248 . S
C613 C119 1.248 . S
C615 C72 1.248 . S
C631 C160 1.248 1_655 S
C633 C141 1.248 . S
C649 C163 1.248 1_545 S
C651 C182 1.248 . S
C667 C138 1.248 1_545 S
C669 C185 1.248 1_655 S
