# Generated by pormake.
# Topology snp, (6)-cn, num edge types: 1
# Building blocks:
#     Node 0, Type 0, BuildingBlock: HISSIN_clean_sbu_0, # of connection points: 6
#     Node 1, Type 0, BuildingBlock: HISSIN_clean_sbu_0, # of connection points: 6
#     Node 2, Type 0, BuildingBlock: HISSIN_clean_sbu_0, # of connection points: 6
#     Node 3, Type 0, BuildingBlock: HISSIN_clean_sbu_0, # of connection points: 6
#     Edge 4, Type (0, 0), BuildingBlock: MIFKUJ_clean_linker_0, # of connection points: 2
#     Edge 5, Type (0, 0), BuildingBlock: MIFKUJ_clean_linker_0, # of connection points: 2
#     Edge 6, Type (0, 0), BuildingBlock: MIFKUJ_clean_linker_0, # of connection points: 2
#     Edge 7, Type (0, 0), BuildingBlock: MIFKUJ_clean_linker_0, # of connection points: 2
#     Edge 8, Type (0, 0), BuildingBlock: MIFKUJ_clean_linker_0, # of connection points: 2
#     Edge 9, Type (0, 0), BuildingBlock: MIFKUJ_clean_linker_0, # of connection points: 2
#     Edge 10, Type (0, 0), BuildingBlock: MIFKUJ_clean_linker_0, # of connection points: 2
#     Edge 11, Type (0, 0), BuildingBlock: MIFKUJ_clean_linker_0, # of connection points: 2
#     Edge 12, Type (0, 0), BuildingBlock: MIFKUJ_clean_linker_0, # of connection points: 2
#     Edge 13, Type (0, 0), BuildingBlock: MIFKUJ_clean_linker_0, # of connection points: 2
#     Edge 14, Type (0, 0), BuildingBlock: MIFKUJ_clean_linker_0, # of connection points: 2
#     Edge 15, Type (0, 0), BuildingBlock: MIFKUJ_clean_linker_0, # of connection points: 2
# Relax obj value: 0.535
# Max RMSD: 0.183
# Mean RMSD: 0.183
data_MOF--net-snp--node1-HISSIN_clean_sbu_0--edge1-MIFKUJ_clean_linker_0
_symmetry_space_group_name_H-M    P1
_symmetry_Int_Tables_number       1
_symmetry_cell_setting            triclinic
loop_
_symmetry_equiv_pos_as_xyz
'x, y, z'
_cell_length_a     32.716425
_cell_length_b     32.734735
_cell_length_c     38.176842
_cell_angle_alpha  90.239132
_cell_angle_beta   89.434438
_cell_angle_gamma 124.94326
loop_
_atom_site_label
_atom_site_type_symbol
_atom_site_fract_x
_atom_site_fract_y
_atom_site_fract_z
_atom_type_partial_charge
Eu0 Eu 0.21936 0.01603 0.13561 0.0
Eu1 Eu 0.28461 0.13061 0.11207 0.0
C2 C 0.34107 0.07818 0.13204 0.0
C3 C 0.19137 0.89843 0.17642 0.0
C4 C 0.23209 0.92778 0.19852 0.0
C5 C 0.18407 0.82442 0.19711 0.0
C6 C 0.24846 0.90572 0.21998 0.0
C7 C 0.16763 0.84671 0.17553 0.0
C8 C 0.22468 0.85376 0.21965 0.0
C9 C 0.17599 0.92261 0.15305 0.0
O10 O 0.27097 0.09222 1.05771 0.0
O11 O 0.21493 0.01083 1.07472 0.0
C12 C 0.23872 0.04446 1.04938 0.0
O13 O 0.16117 0.02491 0.11389 0.0
O14 O 0.35737 0.20192 0.1155 0.0
O15 O 0.2966 0.19809 1.09011 0.0
O16 O 0.2108 0.10249 1.08824 0.0
C17 C 0.16746 0.05993 1.09297 0.0
O18 O 0.21 0.0513 0.18528 0.0
O19 O 0.25583 0.13301 0.16793 0.0
O20 O 0.34152 0.11162 0.11293 0.0
O21 O 0.16591 0.95183 0.16803 0.0
O22 O 0.20413 0.94303 0.12535 0.0
O23 O 0.29962 0.04319 0.14792 0.0
C24 C 0.37626 0.25128 1.06557 0.0
C25 C 0.37413 0.22381 1.03655 0.0
C26 C 0.43535 0.32796 1.03434 0.0
C27 C 0.40145 0.24817 1.00629 0.0
C28 C 0.40765 0.30341 1.06464 0.0
C29 C 0.43178 0.30055 1.00458 0.0
C30 C 0.34431 0.22523 1.09613 0.0
C31 C 0.22681 0.09831 0.19169 0.0
H32 H 0.25108 0.96785 0.19934 0.0
H33 H 0.16502 0.78437 0.19621 0.0
H34 H 0.27896 0.92946 0.23761 0.0
H35 H 0.13651 0.82366 0.15818 0.0
H36 H 0.35013 0.18347 1.03691 0.0
H37 H 0.45866 0.36831 1.03393 0.0
H38 H 0.39686 0.2258 0.9837 0.0
H39 H 0.40988 0.32507 1.087 0.0
Eu40 Eu 0.00892 0.23734 0.58521 0.0
Eu41 Eu 0.12561 0.3088 0.60306 0.0
C42 C 0.0687 0.36127 0.58361 0.0
C43 C 0.88598 0.20534 0.55224 0.0
C44 C 0.89997 0.25371 0.5599 0.0
C45 C 0.82895 0.19778 0.50829 0.0
C46 C 0.88042 0.27483 0.54069 0.0
C47 C 0.84885 0.17675 0.52739 0.0
C48 C 0.8465 0.24779 0.51363 0.0
C49 C 0.91591 0.18833 0.56534 0.0
O50 O 0.08847 0.2917 0.65904 0.0
O51 O 0.00529 0.23705 0.6457 0.0
C52 C 0.04093 0.26079 0.66944 0.0
O53 O 0.02037 0.18258 0.60973 0.0
O54 O 0.19145 0.37612 0.62456 0.0
O55 O 0.19913 0.32352 0.59574 0.0
O56 O 0.10085 0.23651 0.62928 0.0
C57 C 0.0583 0.19224 0.62857 0.0
O58 O 0.04489 0.21924 0.54024 0.0
O59 O 0.12544 0.28633 0.54494 0.0
O60 O 0.11105 0.36694 0.58978 0.0
O61 O 0.95256 0.19838 0.54475 0.0
O62 O 0.92964 0.19839 0.59792 0.0
O63 O 0.02698 0.3163 0.58095 0.0
C64 C 0.25827 0.37034 0.63963 0.0
C65 C 0.30203 0.37677 0.62704 0.0
C66 C 0.28613 0.37573 0.69917 0.0
C67 C 0.33751 0.38228 0.65032 0.0
C68 C 0.25043 0.36973 0.67588 0.0
C69 C 0.32994 0.38194 0.68659 0.0
C70 C 0.22155 0.36419 0.61437 0.0
C71 C 0.09099 0.24609 0.52753 0.0
H72 H 0.92853 0.27639 0.57903 0.0
H73 H 0.80328 0.17642 0.48727 0.0
H74 H 0.89452 0.31349 0.54521 0.0
H75 H 0.83789 0.13948 0.52101 0.0
H76 H 0.30866 0.37733 0.59912 0.0
H77 H 0.27902 0.37449 0.72706 0.0
H78 H 0.37099 0.38712 0.63999 0.0
H79 H 0.2167 0.36435 0.68621 0.0
Eu80 Eu 0.91978 0.1431 0.13146 0.0
Eu81 Eu 0.8428 0.0248 0.1169 0.0
C82 C 0.79672 0.08667 0.13879 0.0
C83 C 0.9626 0.26787 0.16804 0.0
C84 C 0.91264 0.24741 0.17654 0.0
C85 C -0.0133 0.34486 0.19679 0.0
C86 C 0.89969 0.27518 0.19505 0.0
C87 C -0.00039 0.31695 0.17786 0.0
C88 C 0.93654 0.32403 0.20579 0.0
C89 C 0.9751 0.23765 0.14847 0.0
O90 O 0.86413 0.06008 1.05992 0.0
O91 O 0.91821 0.14387 1.0713 0.0
C92 C 0.89414 0.10711 1.04837 0.0
O93 O 0.96405 0.12365 1.09771 0.0
O94 O 0.77231 0.96028 1.09756 0.0
O95 O 0.82856 0.95112 0.11645 0.0
O96 O 0.92157 0.04927 0.12267 0.0
C97 C 0.95424 0.07895 1.0993 0.0
O98 O 0.92685 0.10496 0.18101 0.0
O99 O 0.85944 0.0236 0.1758 0.0
O100 O 0.78992 0.04313 0.13727 0.0
O101 O 0.97406 0.20315 0.16624 0.0
O102 O 0.95231 0.22082 0.11875 0.0
O103 O 0.84189 0.1282 0.13545 0.0
C104 C 0.77873 0.89968 1.07053 0.0
C105 C 0.8059 0.92236 1.03973 0.0
C106 C 0.74202 0.81854 1.04411 0.0
C107 C 0.80261 0.8933 1.01164 0.0
C108 C 0.74638 0.84776 1.07252 0.0
C109 C 0.77086 0.84085 1.01347 0.0
C110 C 0.78567 0.92994 1.1011 0.0
C111 C 0.89847 0.05884 0.1941 0.0
H112 H 0.88354 0.20958 0.16933 0.0
H113 H 0.0159 0.38236 0.20483 0.0
H114 H 0.8609 0.25744 0.2022 0.0
H115 H 0.03837 0.33339 0.1713 0.0
H116 H 0.83063 0.96259 1.03775 0.0
H117 H 0.71593 0.77852 1.04631 0.0
H118 H 0.82599 0.91227 0.98893 0.0
H119 H 0.72474 0.8298 1.09613 0.0
Eu120 Eu 0.11768 0.93288 0.58851 0.0
Eu121 Eu 0.00123 0.85633 0.60544 0.0
C122 C 0.06579 0.81183 0.59009 0.0
C123 C 0.24583 0.97532 0.55875 0.0
C124 C 0.29267 0.01114 0.54427 0.0
C125 C 0.25724 0.91052 0.54347 0.0
C126 C 0.32127 -0.00351 0.52863 0.0
C127 C 0.22928 0.92531 0.55942 0.0
C128 C 0.30289 0.94561 0.52664 0.0
C129 C 0.21254 -0.01115 0.57135 0.0
O130 O 0.03549 0.87577 0.66197 0.0
O131 O 0.11911 0.92145 0.64804 0.0
C132 C 0.08305 0.90148 0.67209 0.0
O133 O 0.09915 0.9756 0.62426 0.0
O134 O 0.9305 0.78735 0.59177 0.0
O135 O 0.93244 0.83592 0.63152 0.0
O136 O 0.02024 0.93361 0.60568 0.0
C137 C 0.05464 0.96645 0.62685 0.0
O138 O 0.07957 0.9511 0.54588 0.0
O139 O 0.0045 0.87576 0.546 0.0
O140 O 0.02877 0.8069 0.60788 0.0
O141 O 0.17695 0.97867 0.55008 0.0
O142 O 0.19602 0.97501 0.60321 0.0
O143 O 0.0994 0.85505 0.57517 0.0
C144 C 0.87451 0.75025 0.63945 0.0
C145 C 0.82775 0.7382 0.65 0.0
C146 C 0.8684 0.69299 0.68275 0.0
C147 C 0.80243 0.70547 0.67793 0.0
C148 C 0.89382 0.72594 0.65492 0.0
C149 C 0.82381 0.6846 0.69577 0.0
C150 C 0.90552 0.79275 0.616 0.0
C151 C 0.03605 0.91958 0.53056 0.0
H152 H 0.30634 0.05011 0.54399 0.0
H153 H 0.24098 0.87099 0.54237 0.0
H154 H 0.35671 0.02482 0.51675 0.0
H155 H 0.19358 0.89724 0.571 0.0
H156 H 0.81245 0.75677 0.6383 0.0
H157 H 0.88554 0.67713 0.69582 0.0
H158 H 0.76849 0.70033 0.6875 0.0
H159 H 0.92998 0.73484 0.64702 0.0
H160 H -0.00806 0.12098 1.03411 0.0
H161 H 0.97857 0.07682 0.97953 0.0
H162 H 0.90764 0.93823 1.03773 0.0
H163 H 0.92109 0.98241 1.09103 0.0
H164 H 0.89629 0.89782 0.9818 0.0
H165 H 0.89821 0.9813 0.91248 0.0
H166 H 0.89267 0.0216 0.8604 0.0
H167 H 0.05092 0.13068 0.86187 0.0
H168 H 0.05778 0.09346 0.91427 0.0
H169 H 0.18304 0.08954 1.02514 0.0
H170 H 0.12457 0.04939 0.97755 0.0
H171 H 0.00637 0.95869 1.05299 0.0
H172 H 0.06662 -0.00575 1.09991 0.0
H173 H 0.06207 0.04207 0.94735 0.0
H174 H 0.89982 0.86009 1.03003 0.0
H175 H 0.89565 0.79212 1.06043 0.0
H176 H 0.03674 0.83783 1.01583 0.0
H177 H 0.04104 0.90508 0.98363 0.0
C178 C 0.97401 0.0811 1.03501 0.0
C179 C 0.95721 0.05532 1.067 0.0
C180 C 0.96555 0.0553 1.0035 0.0
C181 C 0.94166 0.00304 1.00312 0.0
C182 C 0.92604 0.97802 1.03573 0.0
C183 C 0.93433 0.0037 1.06691 0.0
C184 C 0.94114 0.97643 0.97031 0.0
C185 C 0.93363 0.93027 0.97661 0.0
C186 C -0.01789 0.00658 0.94774 0.0
C187 C 0.97864 0.03333 0.91761 0.0
C188 C 0.93201 0.01428 0.9021 0.0
C189 C 0.92857 0.03679 0.87227 0.0
C190 C 0.97145 0.07844 0.8575 0.0
C191 C 0.01763 0.09831 0.87302 0.0
C192 C 0.02133 0.07634 0.90295 0.0
C193 C 0.14439 0.061 1.03152 0.0
C194 C 0.12925 0.04484 1.06627 0.0
C195 C 0.11084 0.03757 1.00406 0.0
C196 C 0.06073 -0.00097 1.01085 0.0
C197 C 0.04511 -0.01437 1.04609 0.0
C198 C 0.07923 0.00727 1.07335 0.0
C199 C 0.02313 0.97829 0.98234 0.0
C200 C 0.02632 0.01152 0.95711 0.0
C201 C 0.97593 0.93178 0.98662 0.0
C202 C 0.97099 0.88839 1.00412 0.0
C203 C 0.92973 0.85554 1.02588 0.0
C204 C 0.92734 0.81697 1.04366 0.0
C205 C 0.96596 0.81073 1.04016 0.0
C206 C 0.00683 0.8427 1.01854 0.0
C207 C 0.00922 0.88103 1.00042 0.0
H208 H 0.96412 0.78098 1.05409 0.0
H209 H 0.96887 0.0955 0.83419 0.0
H210 H 0.11255 0.01776 0.6838 0.0
H211 H 0.08477 0.01829 0.74262 0.0
H212 H 0.93133 0.92512 0.7084 0.0
H213 H 0.95959 0.92702 0.64967 0.0
H214 H 0.90841 0.94169 0.76225 0.0
H215 H 0.00624 0.94096 0.81692 0.0
H216 H 0.04228 0.9361 0.87119 0.0
H217 H 0.13779 0.09545 0.8772 0.0
H218 H 0.10248 0.10239 0.82357 0.0
H219 H 0.10284 0.21638 0.69227 0.0
H220 H 0.0723 0.1661 0.7448 0.0
H221 H 0.95834 0.04029 0.68429 0.0
H222 H -0.0136 0.09212 0.63224 0.0
H223 H 0.06856 0.10476 0.77557 0.0
H224 H 0.87103 0.95486 0.71001 0.0
H225 H 0.79487 0.95057 0.69748 0.0
H226 H 0.84465 0.07582 0.7649 0.0
H227 H 0.9212 0.08075 0.77783 0.0
C228 C 0.07292 -0.00161 0.68874 0.0
C229 C 0.03849 0.97338 0.6616 0.0
C230 C 0.05668 -0.00226 0.72292 0.0
C231 C 0.0054 0.97264 0.73115 0.0
C232 C 0.97113 0.94597 0.70387 0.0
C233 C -0.01257 0.94739 0.66968 0.0
C234 C -0.01155 0.98142 0.76575 0.0
C235 C 0.94373 0.97787 0.76353 0.0
C236 C 0.02526 0.02479 0.78392 0.0
C237 C 0.051 0.02215 0.81515 0.0
C238 C 0.03515 0.97538 0.8293 0.0
C239 C 0.05538 0.9722 0.86039 0.0
C240 C 0.09207 0.01541 0.87772 0.0
C241 C 0.10915 0.06195 0.86376 0.0
C242 C 0.08873 0.0655 0.83288 0.0
C243 C 0.0714 0.17778 0.6901 0.0
C244 C 0.04719 0.15807 0.65792 0.0
C245 C 0.05324 0.1491 0.72058 0.0
C246 C 0.01125 0.09947 0.71961 0.0
C247 C -0.01127 0.07915 0.68691 0.0
C248 C 0.00591 0.10831 0.65661 0.0
C249 C -0.00394 0.06617 0.75071 0.0
C250 C 0.03338 0.06944 0.77148 0.0
C251 C 0.94747 0.02112 0.75319 0.0
C252 C 0.90217 0.01873 0.74448 0.0
C253 C 0.86578 0.98154 0.72213 0.0
C254 C 0.8226 0.97905 0.71488 0.0
C255 C 0.8151 0.01315 0.73018 0.0
C256 C 0.85079 0.04981 0.75274 0.0
C257 C 0.89425 0.05272 0.75981 0.0
H258 H 0.78154 0.01102 0.72468 0.0
H259 H 0.10727 0.01283 0.90199 0.0
H260 H 0.69966 0.00971 0.15485 0.0
H261 H 0.62507 0.00964 0.15654 0.0
H262 H 0.71392 0.16614 0.13099 0.0
H263 H 0.78936 0.16676 0.13068 0.0
H264 H 0.6456 0.15233 0.17273 0.0
H265 H 0.63409 0.06408 1.06918 0.0
H266 H 0.63338 0.00043 1.03386 0.0
H267 H 0.50682 0.88442 1.09241 0.0
H268 H 0.50717 0.94741 0.1284 0.0
H269 H 0.4377 0.15423 0.11346 0.0
H270 H 0.51392 0.15688 0.11733 0.0
H271 H 0.42922 0.00882 0.16103 0.0
H272 H 0.35275 0.0062 0.15768 0.0
H273 H 0.49495 0.01873 0.11011 0.0
H274 H 0.50656 0.11095 0.21199 0.0
H275 H 0.50844 0.17695 0.24491 0.0
H276 H 0.63645 0.28889 0.18536 0.0
H277 H 0.63489 0.22352 0.15169 0.0
C278 C 0.70372 0.04438 0.14975 0.0
C279 C 0.75128 0.08818 0.14236 0.0
C280 C 0.66046 0.04419 0.15038 0.0
C281 C 0.6625 0.08752 0.14284 0.0
C282 C 0.71026 0.13179 0.13664 0.0
C283 C 0.7538 0.13215 0.13643 0.0
C284 C 0.61515 0.08639 0.14123 0.0
C285 C 0.6131 0.12338 0.15851 0.0
C286 C 0.57142 0.04844 0.12334 0.0
C287 C 0.57098 0.01046 1.10171 0.0
C288 C 0.60631 0.02499 1.07467 0.0
C289 C 0.60595 -0.01096 1.05451 0.0
C290 C 0.57016 0.93842 1.06095 0.0
C291 C 0.53457 0.92365 1.0875 0.0
C292 C 0.5348 0.95945 1.10777 0.0
C293 C 0.43504 0.12217 0.1241 0.0
C294 C 0.38836 0.08002 0.13532 0.0
C295 C 0.47909 0.12383 0.12642 0.0
C296 C 0.47826 0.08321 0.13971 0.0
C297 C 0.43162 0.04089 0.15068 0.0
C298 C 0.38761 0.03949 0.14886 0.0
C299 C 0.52557 0.08458 0.14155 0.0
C300 C 0.52755 0.04764 0.12427 0.0
C301 C 0.5694 0.12296 0.15897 0.0
C302 C 0.57024 0.16231 0.17904 0.0
C303 C 0.53482 0.14963 0.20567 0.0
C304 C 0.53589 0.18693 0.22452 0.0
C305 C 0.57245 0.23708 0.21716 0.0
C306 C 0.60809 0.25003 0.19099 0.0
C307 C 0.60714 0.21286 0.17202 0.0
H308 H 0.57324 0.2659 0.23181 0.0
H309 H 0.56994 0.91063 1.04532 0.0
H310 H -0.00924 0.37032 0.59674 0.0
H311 H -0.0085 0.44537 0.59715 0.0
H312 H 0.14546 0.53259 0.56345 0.0
H313 H 0.14558 0.45793 0.56577 0.0
H314 H 0.1419 0.58936 0.60216 0.0
H315 H 0.02816 0.4948 0.50882 0.0
H316 H 0.95509 0.42232 0.48045 0.0
H317 H 0.85819 0.42447 0.55599 0.0
H318 H 0.93096 0.49727 0.58483 0.0
H319 H 0.14024 0.80462 0.56103 0.0
H320 H 0.14249 0.7309 0.5571 0.0
H321 H -0.00062 0.64279 0.60903 0.0
H322 H -0.00335 0.71562 0.61239 0.0
H323 H -0.00055 0.58877 0.55856 0.0
H324 H 0.11732 0.68683 0.65035 0.0
H325 H 0.19213 0.76296 0.67447 0.0
H326 H 0.28339 0.75682 0.59597 0.0
H327 H 0.20901 0.68088 0.5712 0.0
C328 C 0.02475 0.40535 0.5891 0.0
C329 C 0.06797 0.40724 0.58095 0.0
C330 C 0.02512 0.44885 0.589 0.0
C331 C 0.06822 0.49604 0.5794 0.0
C332 C 0.11134 0.49764 0.57103 0.0
C333 C 0.11134 0.45438 0.57211 0.0
C334 C 0.06899 0.54347 0.57897 0.0
C335 C 0.11079 0.58884 0.59198 0.0
C336 C 0.02873 0.54465 0.56643 0.0
C337 C -0.015 0.50098 0.54922 0.0
C338 C -0.00871 0.47953 0.51954 0.0
C339 C 0.94988 0.4383 0.50342 0.0
C340 C 0.90195 0.41829 0.51669 0.0
C341 C 0.89534 0.43978 0.54591 0.0
C342 C 0.93664 0.48112 0.56209 0.0
C343 C 0.10914 0.76957 0.57151 0.0
C344 C 0.06828 0.76689 0.587 0.0
C345 C 0.11058 0.72709 0.56952 0.0
C346 C 0.07131 0.68031 0.58313 0.0
C347 C 0.03039 0.67771 0.59822 0.0
C348 C 0.02898 0.71996 0.60024 0.0
C349 C 0.07207 0.63403 0.58174 0.0
C350 C 0.03054 0.58902 0.56849 0.0
C351 C 0.11283 0.63343 0.59351 0.0
C352 C 0.15759 0.67845 0.60878 0.0
C353 C 0.15333 0.70185 0.63817 0.0
C354 C 0.19564 0.74494 0.65196 0.0
C355 C 0.24247 0.76477 0.63672 0.0
C356 C 0.2471 0.74144 0.60774 0.0
C357 C 0.20489 0.69833 0.59385 0.0
H358 H 0.27517 0.79818 0.6474 0.0
H359 H 0.86981 0.38659 0.50411 0.0
H360 H 0.05864 0.15103 0.50349 0.0
H361 H 0.08064 0.12582 0.4496 0.0
H362 H 0.1759 0.27906 0.41735 0.0
H363 H 0.15545 0.30452 0.47196 0.0
H364 H 0.12345 0.22131 0.35945 0.0
H365 H 0.21765 0.20887 0.4486 0.0
H366 H 0.23348 0.17927 0.50258 0.0
H367 H 0.14752 0.02952 0.46324 0.0
H368 H 0.12933 0.05779 0.40961 0.0
H369 H 0.24727 0.19047 0.21362 0.0
H370 H 0.22361 0.21308 0.26772 0.0
H371 H 0.1479 0.06218 0.30468 0.0
H372 H 0.17165 0.03949 0.25047 0.0
H373 H 0.18793 0.11649 0.36031 0.0
H374 H 0.08496 0.12072 0.27717 0.0
H375 H 0.06038 0.14223 0.22324 0.0
H376 H 0.15378 0.29729 0.2506 0.0
H377 H 0.17924 0.2766 0.3046 0.0
C378 C 0.08428 0.17971 0.48506 0.0
C379 C 0.10451 0.23029 0.49305 0.0
C380 C 0.09725 0.16502 0.45375 0.0
C381 C 0.13037 0.19981 0.42792 0.0
C382 C 0.1502 0.25039 0.43576 0.0
C383 C 0.13839 0.26522 0.46758 0.0
C384 C 0.14416 0.18388 0.39336 0.0
C385 C 0.13831 0.19904 0.3601 0.0
C386 C 0.16191 0.15272 0.39238 0.0
C387 C 0.17139 0.13542 0.42522 0.0
C388 C 0.20125 0.16947 0.45169 0.0
C389 C 0.2107 0.15291 0.48226 0.0
C390 C 0.19121 0.10248 0.48645 0.0
C391 C 0.16231 0.06852 0.46006 0.0
C392 C 0.15226 0.08478 0.42963 0.0
C393 C 0.22556 0.16168 0.23305 0.0
C394 C 0.21211 0.11268 0.22644 0.0
C395 C 0.21141 0.1748 0.26455 0.0
C396 C 0.1829 0.13989 0.29174 0.0
C397 C 0.16978 0.09095 0.28526 0.0
C398 C 0.18357 0.0777 0.2536 0.0
C399 C 0.16773 0.15436 0.32644 0.0
C400 C 0.17317 0.13884 0.35968 0.0
C401 C 0.1485 0.18416 0.32745 0.0
C402 C 0.13452 0.19714 0.29467 0.0
C403 C 0.10069 0.15943 0.27147 0.0
C404 C 0.08647 0.17146 0.24095 0.0
C405 C 0.10565 0.22113 0.23342 0.0
C406 C 0.13904 0.25884 0.25643 0.0
C407 C 0.15335 0.24697 0.28702 0.0
H408 H 0.09452 0.23039 0.20982 0.0
H409 H 0.19873 0.08975 0.51007 0.0
H410 H 0.09519 0.30936 0.73092 0.0
H411 H 0.07121 0.28591 0.79235 0.0
H412 H 0.93063 0.15518 0.75971 0.0
H413 H 0.95348 0.18011 0.69892 0.0
H414 H 0.90479 0.16194 0.81363 0.0
H415 H 0.05495 0.17348 0.80323 0.0
H416 H 0.14341 0.20854 0.79051 0.0
H417 H 0.18841 0.32468 0.86569 0.0
H418 H 0.10019 0.29038 0.87856 0.0
H419 H 0.85505 0.04653 0.98738 0.0
H420 H 0.8788 0.07008 0.92539 0.0
H421 H -0.01248 0.22184 0.95612 0.0
H422 H 0.96388 0.19873 1.01751 0.0
H423 H 0.02891 0.20124 0.90461 0.0
H424 H 0.86678 0.17506 0.91407 0.0
H425 H 0.77631 0.12471 0.92639 0.0
H426 H 0.75341 0.01616 0.8507 0.0
H427 H 0.84384 0.0656 0.83826 0.0
C428 C 0.05906 0.27545 0.7367 0.0
C429 C 0.02673 0.24724 0.70871 0.0
C430 C 0.04527 0.26104 0.77262 0.0
C431 C -0.00093 0.21637 0.78287 0.0
C432 C 0.96681 0.18895 0.75456 0.0
C433 C 0.98008 0.20377 0.71886 0.0
C434 C -0.01635 0.19861 0.82205 0.0
C435 C 0.93274 0.17035 0.83282 0.0
C436 C 0.018 0.20827 0.84934 0.0
C437 C 0.07107 0.22986 0.84132 0.0
C438 C 0.08384 0.20697 0.81656 0.0
C439 C 0.13386 0.22651 0.80949 0.0
C440 C 0.17152 0.26902 0.82712 0.0
C441 C 0.15919 0.29186 0.85198 0.0
C442 C 0.10917 0.27229 0.85922 0.0
C443 C 0.88361 0.08513 0.98115 0.0
C444 C 0.90645 0.12037 1.00874 0.0
C445 C 0.8975 0.09889 0.94509 0.0
C446 C 0.93522 0.1486 0.93451 0.0
C447 C 0.9584 0.18334 0.96218 0.0
C448 C 0.94428 0.16981 0.99798 0.0
C449 C 0.95072 0.16494 0.89545 0.0
C450 C 0.00153 0.19311 0.88495 0.0
C451 C 0.91621 0.15323 0.86808 0.0
C452 C 0.86201 0.12379 0.87546 0.0
C453 C 0.84244 0.14031 0.90022 0.0
C454 C 0.79119 0.11196 0.9072 0.0
C455 C 0.75914 0.06721 0.88939 0.0
C456 C 0.77827 0.05078 0.8645 0.0
C457 C 0.82949 0.07896 0.85746 0.0
H458 H 0.71948 0.04532 0.89484 0.0
H459 H 0.21025 0.28414 0.82163 0.0
H460 H 0.06769 0.01394 0.50511 0.0
H461 H 0.0452 0.03755 0.4513 0.0
H462 H 0.95006 0.88346 0.42152 0.0
H463 H 0.97135 0.8596 0.47596 0.0
H464 H -0.00274 0.93625 0.36247 0.0
H465 H 0.91017 0.95665 0.453 0.0
H466 H 0.89476 -0.01183 0.50656 0.0
H467 H 0.97903 0.13616 0.46374 0.0
H468 H -0.00283 0.1061 0.41056 0.0
H469 H 0.86642 0.9655 0.22206 0.0
H470 H 0.89052 0.94419 0.27613 0.0
H471 H -0.01264 0.09961 0.30235 0.0
H472 H 0.96423 0.12116 0.2477 0.0
H473 H 0.9404 0.04763 0.36289 0.0
H474 H 0.03612 0.03083 0.2771 0.0
H475 H 0.053 0.00189 0.22269 0.0
H476 H 0.9511 0.84988 0.2559 0.0
H477 H 0.9335 0.87808 0.31049 0.0
C478 C 0.04191 -0.01533 0.4873 0.0
C479 C 0.02201 0.93434 0.49602 0.0
C480 C 0.02863 -0.00154 0.45599 0.0
C481 C -0.00472 0.96299 0.43084 0.0
C482 C 0.97585 0.91268 0.43936 0.0
C483 C -0.01185 0.89875 0.47113 0.0
C484 C -0.01907 0.97798 0.3963 0.0
C485 C -0.01577 0.96013 0.36316 0.0
C486 C 0.96478 0.01053 0.39517 0.0
C487 C 0.95594 0.02916 0.42793 0.0
C488 C 0.92649 -0.00387 0.45525 0.0
C489 C 0.91719 0.01376 0.48558 0.0
C490 C 0.93627 0.06422 0.48869 0.0
C491 C 0.96462 0.09714 0.46143 0.0
C492 C 0.97465 0.07985 0.43125 0.0
C493 C 0.89284 -0.00442 0.23913 0.0
C494 C 0.91257 0.04553 0.22933 0.0
C495 C 0.90714 0.98313 0.27057 0.0
C496 C 0.94156 0.0197 0.29476 0.0
C497 C 0.96079 0.06965 0.28526 0.0
C498 C 0.94729 0.08219 0.2534 0.0
C499 C 0.95679 0.00591 0.32939 0.0
C500 C 0.95363 0.02393 0.36244 0.0
C501 C 0.97334 0.97386 0.33053 0.0
C502 C -0.01697 0.95656 0.29763 0.0
C503 C 0.01696 -0.00875 0.27262 0.0
C504 C 0.02678 0.97499 0.24181 0.0
C505 C 0.00296 0.92405 0.23576 0.0
C506 C 0.96943 0.88932 0.26059 0.0
C507 C 0.95959 0.90543 0.2915 0.0
H508 H 0.01059 0.9115 0.21189 0.0
H509 H 0.92883 0.07778 0.51211 0.0
H510 H 0.02354 0.87272 0.73366 0.0
H511 H 0.04947 0.89591 0.79509 0.0
H512 H 0.20336 0.98172 0.76234 0.0
H513 H 0.17775 0.95892 0.70141 0.0
H514 H 0.09721 0.88256 0.84341 0.0
H515 H 0.28197 0.07877 0.82409 0.0
H516 H 0.31982 0.1509 0.78405 0.0
H517 H 0.17432 0.10331 0.74947 0.0
H518 H 0.13599 0.03127 0.78953 0.0
H519 H 0.14827 0.96658 1.02221 0.0
H520 H 0.12157 0.94428 0.96178 0.0
H521 H 0.26961 0.05919 0.92594 0.0
H522 H 0.29448 0.08593 0.98683 0.0
H523 H 0.22409 0.05707 0.87796 0.0
H524 H 0.04137 0.86422 0.90165 0.0
H525 H 0.00464 0.79252 0.94197 0.0
H526 H 0.15084 0.83188 0.96658 0.0
H527 H 0.18842 0.90345 0.926 0.0
C528 C 0.06301 0.89623 0.73932 0.0
C529 C 0.09801 0.91311 0.71133 0.0
C530 C 0.07812 0.90986 0.77503 0.0
C531 C 0.12906 0.94175 0.78485 0.0
C532 C 0.16386 0.95811 0.75684 0.0
C533 C 0.14884 0.94436 0.72132 0.0
C534 C 0.14564 0.95723 0.82372 0.0
C535 C 0.12476 0.92099 0.85069 0.0
C536 C 0.1829 0.00709 0.83476 0.0
C537 C 0.20596 0.04942 0.80969 0.0
C538 C 0.25807 0.08375 0.80797 0.0
C539 C 0.27968 0.12463 0.78527 0.0
C540 C 0.24953 0.13167 0.76418 0.0
C541 C 0.19772 0.09781 0.76572 0.0
C542 C 0.17605 0.05693 0.78839 0.0
C543 C 0.17563 -0.01275 1.00163 0.0
C544 C 0.22421 0.02823 1.01064 0.0
C545 C 0.16018 0.97366 0.96617 0.0
C546 C 0.19304 -0.00206 0.93715 0.0
C547 C 0.242 0.03878 0.94635 0.0
C548 C 0.25683 0.05405 0.98189 0.0
C549 C 0.17657 0.98221 0.89801 0.0
C550 C 0.1973 0.01845 0.87086 0.0
C551 C 0.1398 0.93219 0.88665 0.0
C552 C 0.11769 0.88938 0.91104 0.0
C553 C 0.06565 0.85744 0.91555 0.0
C554 C 0.04469 0.81682 0.93842 0.0
C555 C 0.07539 0.8077 0.95685 0.0
C556 C 0.12712 0.83906 0.95234 0.0
C557 C 0.14828 0.87964 0.92939 0.0
H558 H 0.05908 0.77634 0.97465 0.0
H559 H 0.2663 0.16339 0.74667 0.0
H560 H 0.75201 0.74719 1.01562 0.0
H561 H 0.74446 0.6958 0.96658 0.0
H562 H 0.78196 0.81463 0.89505 0.0
H563 H 0.78317 0.86346 0.94316 0.0
H564 H 0.71727 0.73866 0.86638 0.0
H565 H 0.86943 0.78279 0.9196 0.0
H566 H 0.92633 0.79122 0.96525 0.0
H567 H 0.83289 0.63324 0.98321 0.0
H568 H 0.77578 0.62377 0.93692 0.0
H569 H 0.88135 0.70741 0.753 0.0
H570 H 0.85546 0.70403 0.81288 0.0
H571 H 0.7012 0.61625 0.78148 0.0
H572 H 0.72739 0.62077 0.72043 0.0
H573 H 0.80475 0.6553 0.86568 0.0
H574 H 0.64612 0.67221 0.81971 0.0
H575 H 0.61841 0.69109 0.766 0.0
H576 H 0.76796 0.77304 0.7249 0.0
H577 H 0.79647 0.75513 0.77852 0.0
C578 C 0.75742 0.76207 0.98943 0.0
C579 C 0.768 0.80977 0.98367 0.0
C580 C 0.75409 0.73284 0.96135 0.0
C581 C 0.76312 0.75131 0.92698 0.0
C582 C 0.77439 0.79911 0.92123 0.0
C583 C 0.77604 0.82761 0.94907 0.0
C584 C 0.76074 0.72132 0.89672 0.0
C585 C 0.73619 0.72018 0.8664 0.0
C586 C 0.78543 0.69722 0.89642 0.0
C587 C 0.81802 0.70269 0.9253 0.0
C588 C 0.86075 0.74994 0.93357 0.0
C589 C 0.89314 0.75487 0.95946 0.0
C590 C 0.88303 0.71289 0.97745 0.0
C591 C 0.84057 0.66577 0.96938 0.0
C592 C 0.80828 0.66054 0.94321 0.0
C593 C 0.84175 0.68528 0.75879 0.0
C594 C 0.80646 0.66541 0.73182 0.0
C595 C 0.82688 0.6834 0.79332 0.0
C596 C 0.77646 0.66133 0.80155 0.0
C597 C 0.74046 0.63464 0.77551 0.0
C598 C 0.75543 0.63718 0.74067 0.0
C599 C 0.76406 0.6755 0.83486 0.0
C600 C 0.7848 0.67273 0.86601 0.0
C601 C 0.73973 0.70003 0.83509 0.0
C602 C 0.72297 0.71088 0.80263 0.0
C603 C 0.67289 0.69387 0.79906 0.0
C604 C 0.65715 0.70467 0.76872 0.0
C605 C 0.69131 0.73284 0.7419 0.0
C606 C 0.74142 0.75081 0.74554 0.0
C607 C 0.75737 0.74032 0.7759 0.0
H608 H 0.67902 0.74103 0.71839 0.0
H609 H 0.90826 0.71678 0.99744 0.0
H610 H 0.31921 0.88759 0.2396 0.0
H611 H 0.34148 0.86844 0.29444 0.0
H612 H 0.18758 0.74673 0.31197 0.0
H613 H 0.16455 0.76843 0.25823 0.0
H614 H 0.21195 0.80749 0.35988 0.0
H615 H 0.28875 0.73269 0.31946 0.0
H616 H 0.33917 0.71536 0.28237 0.0
H617 H 0.47197 0.85654 0.31039 0.0
H618 H 0.42238 0.87521 0.34722 0.0
H619 H 0.30449 0.86212 0.53215 0.0
H620 H 0.3063 0.81672 0.48195 0.0
H621 H 0.35718 0.94386 0.41582 0.0
H622 H 0.35186 -0.01202 0.46445 0.0
H623 H 0.37293 0.8443 0.40179 0.0
H624 H 0.24699 0.9042 0.39396 0.0
H625 H 0.19871 0.92323 0.43237 0.0
H626 H 0.15946 0.80028 0.49911 0.0
H627 H 0.20786 0.78097 0.46127 0.0
C628 C 0.29021 0.85599 0.25473 0.0
C629 C 0.23986 0.83093 0.24534 0.0
C630 C 0.30318 0.8443 0.28591 0.0
C631 C 0.26613 0.80649 0.30787 0.0
C632 C 0.21681 0.77649 0.29573 0.0
C633 C 0.20365 0.78887 0.26484 0.0
C634 C 0.27653 0.80805 0.34587 0.0
C635 C 0.24615 0.8132 0.36904 0.0
C636 C 0.32123 0.81595 0.35843 0.0
C637 C 0.35167 0.80535 0.33619 0.0
C638 C 0.32867 0.76025 0.31757 0.0
C639 C 0.35714 0.75015 0.29659 0.0
C640 C 0.40874 0.78482 0.29404 0.0
C641 C 0.43199 0.82967 0.31246 0.0
C642 C 0.4037 0.83997 0.33349 0.0
C643 C 0.31744 0.88109 0.50715 0.0
C644 C 0.32539 0.92785 0.50212 0.0
C645 C 0.31949 0.85531 0.47864 0.0
C646 C 0.33105 0.87675 0.4452 0.0
C647 C 0.34821 0.92678 0.44156 0.0
C648 C 0.34493 0.95205 0.46969 0.0
C649 C 0.30896 0.84471 0.41407 0.0
C650 C 0.33738 0.83509 0.39249 0.0
C651 C 0.26175 0.83115 0.4029 0.0
C652 C 0.23079 0.84113 0.42484 0.0
C653 C 0.22769 0.88108 0.41672 0.0
C654 C 0.20056 0.89208 0.43848 0.0
C655 C 0.17606 0.86303 0.46823 0.0
C656 C 0.1785 0.82283 0.47616 0.0
C657 C 0.20583 0.8119 0.45462 0.0
H658 H 0.15524 0.87169 0.48514 0.0
H659 H 0.43072 0.77692 0.27778 0.0
H660 H 0.36814 0.44132 0.74421 0.0
H661 H 0.41917 0.43975 0.78968 0.0
H662 H 0.42534 0.3306 0.73072 0.0
H663 H 0.37372 0.33174 0.68517 0.0
H664 H 0.38857 0.29868 0.79529 0.0
H665 H 0.53552 0.44069 0.74881 0.0
H666 H 0.59017 0.5242 0.72233 0.0
H667 H 0.57067 0.58948 0.81308 0.0
H668 H 0.5162 0.50652 0.84018 0.0
H669 H 0.47652 0.27691 0.95511 0.0
H670 H 0.49235 0.30339 0.89376 0.0
H671 H 0.4544 0.40723 0.91572 0.0
H672 H 0.43719 0.38021 0.97661 0.0
H673 H 0.52879 0.43997 0.86145 0.0
H674 H 0.36238 0.29513 0.89609 0.0
H675 H 0.30547 0.21167 0.9223 0.0
H676 H 0.36165 0.1521 0.85154 0.0
H677 H 0.41896 0.23532 0.82499 0.0
C678 C 0.38112 0.41765 0.7407 0.0
C679 C 0.3666 0.38626 0.71145 0.0
C680 C 0.41085 0.41727 0.76642 0.0
C681 C 0.42647 0.3854 0.7634 0.0
C682 C 0.41407 0.3558 0.73335 0.0
C683 C 0.38461 0.35648 0.70742 0.0
C684 C 0.44786 0.37711 0.79427 0.0
C685 C 0.42044 0.32929 0.8091 0.0
C686 C 0.48889 0.41711 0.81255 0.0
C687 C 0.52166 0.4673 0.79649 0.0
C688 C 0.54277 0.47286 0.76307 0.0
C689 C 0.5739 0.52014 0.748 0.0
C690 C 0.58406 0.56217 0.76603 0.0
C691 C 0.56316 0.55701 0.79922 0.0
C692 C 0.53229 0.50986 0.81452 0.0
C693 C 0.47261 0.30618 0.94703 0.0
C694 C 0.45445 0.32561 0.97056 0.0
C695 C 0.48215 0.32157 0.91208 0.0
C696 C 0.47388 0.35674 0.90026 0.0
C697 C 0.46116 0.38014 0.92444 0.0
C698 C 0.4513 0.36458 0.95932 0.0
C699 C 0.46855 0.36205 0.86251 0.0
C700 C 0.49851 0.40916 0.84672 0.0
C701 C 0.42984 0.3214 0.84314 0.0
C702 C 0.3953 0.27141 0.8589 0.0
C703 C 0.36274 0.26424 0.88629 0.0
C704 C 0.33033 0.217 0.90112 0.0
C705 C 0.32994 0.17662 0.88858 0.0
C706 C 0.36194 0.1834 0.86118 0.0
C707 C 0.39435 0.23056 0.84621 0.0
H708 H 0.30478 0.14011 0.90004 0.0
H709 H 0.60806 0.59867 0.75423 0.0
H710 H -0.01503 0.3755 0.26488 0.0
H711 H 0.94808 0.39109 0.31409 0.0
H712 H 0.81841 0.3441 0.25244 0.0
H713 H 0.85553 0.32881 0.20261 0.0
H714 H 0.89578 0.43348 0.33706 0.0
H715 H 0.72583 0.25737 0.29666 0.0
H716 H 0.69516 0.19007 0.25296 0.0
H717 H 0.82956 0.19687 0.26336 0.0
H718 H 0.86079 0.26412 0.3071 0.0
H719 H 0.75788 0.22428 0.48619 0.0
H720 H 0.74827 0.26204 0.43406 0.0
H721 H 0.90838 0.36538 0.42654 0.0
H722 H 0.91762 0.32899 0.47826 0.0
H723 H 0.77727 0.2569 0.37303 0.0
H724 H 0.95162 0.46544 0.38757 0.0
H725 H -0.01619 0.53291 0.43094 0.0
H726 H 0.83734 0.46193 0.47588 0.0
H727 H 0.80405 0.39408 0.43267 0.0
C728 C 0.94978 0.37087 0.26107 0.0
C729 C 0.92251 0.34954 0.23021 0.0
C730 C 0.92869 0.37996 0.2893 0.0
C731 C 0.88005 0.36767 0.28712 0.0
C732 C 0.85577 0.35328 0.25474 0.0
C733 C 0.87688 0.34416 0.22642 0.0
C734 C 0.85163 0.35713 0.32015 0.0
C735 C 0.86897 0.39513 0.34506 0.0
C736 C 0.81482 0.30724 0.33002 0.0
C737 C 0.79551 0.26557 0.30496 0.0
C738 C 0.74857 0.24418 0.28973 0.0
C739 C 0.73119 0.20619 0.26492 0.0
C740 C 0.76041 0.18922 0.25538 0.0
C741 C 0.80694 0.21 0.27079 0.0
C742 C 0.82448 0.24799 0.29558 0.0
C743 C 0.79067 0.25622 0.47391 0.0
C744 C 0.83844 0.27443 0.48648 0.0
C745 C 0.78522 0.27785 0.4443 0.0
C746 C 0.82751 0.31754 0.42676 0.0
C747 C 0.87496 0.33636 0.44021 0.0
C748 C 0.88033 0.31522 0.46974 0.0
C749 C 0.82427 0.33303 0.39098 0.0
C750 C 0.80121 0.29578 0.36529 0.0
C751 C 0.85507 0.38371 0.38052 0.0
C752 C 0.8752 0.42469 0.4066 0.0
C753 C 0.92608 0.46441 0.40641 0.0
C754 C 0.94458 0.5027 0.43106 0.0
C755 C 0.91259 0.50189 0.45599 0.0
C756 C 0.86204 0.46265 0.45643 0.0
C757 C 0.84338 0.42412 0.43197 0.0
H758 H 0.92704 0.53144 0.47516 0.0
H759 H 0.74701 0.16 0.23605 0.0
loop_
_geom_bond_atom_site_label_1
_geom_bond_atom_site_label_2
_geom_bond_distance
_geom_bond_site_symmetry_2
_ccdc_geom_bond_type
Eu0 C9 2.828 . S
Eu0 O11 2.392 1_554 S
Eu0 O13 2.418 . S
Eu0 O18 2.373 . S
Eu0 O21 2.488 . S
Eu0 O22 2.471 . S
Eu0 O23 2.349 . S
Eu1 O10 2.373 . S
Eu1 O14 2.488 . S
Eu1 O15 2.471 . S
Eu1 O16 2.349 . S
Eu1 O19 2.392 1_556 S
Eu1 O20 2.418 . S
Eu1 C30 2.828 . S
C2 O20 1.244 1_554 S
C2 O23 1.265 . S
C3 C4 1.379 . S
C3 C7 1.373 . S
C3 C9 1.505 . S
C4 C3 1.379 . S
C4 C6 1.369 . S
C4 H32 0.930 . S
C5 C7 1.383 1_565 S
C5 C8 1.382 1_565 S
C5 H33 0.930 . S
C6 C4 1.369 . S
C6 C8 1.392 . S
C6 H34 0.930 . S
C7 C3 1.373 . S
C7 C5 1.383 1_545 S
C7 H35 0.933 1_545 S
C8 C5 1.382 1_545 S
C8 C6 1.392 . S
C9 Eu0 2.828 . S
C9 C3 1.505 . S
C9 O21 1.249 . S
C9 O22 1.244 . S
O10 Eu1 2.373 . S
O10 C12 1.258 . S
O11 Eu0 2.392 1_556 S
O11 C12 1.242 . S
C12 O10 1.258 . S
C12 O11 1.242 . S
O13 Eu0 2.418 . S
O13 C17 1.244 . S
O14 Eu1 2.488 . S
O14 C30 1.249 . S
O15 Eu1 2.471 . S
O15 C30 1.244 . S
O16 Eu1 2.349 . S
O16 C17 1.265 1_556 S
C17 O13 1.244 . S
C17 O16 1.265 1_554 S
O18 Eu0 2.373 . S
O18 C31 1.258 . S
O19 Eu1 2.392 1_554 S
O19 C31 1.242 . S
O20 Eu1 2.418 . S
O20 C2 1.244 1_556 S
O21 Eu0 2.488 . S
O21 C9 1.249 . S
O22 Eu0 2.471 . S
O22 C9 1.244 . S
O23 Eu0 2.349 . S
O23 C2 1.265 . S
C24 C25 1.379 . S
C24 C28 1.373 . S
C24 C30 1.505 . S
C25 C24 1.379 . S
C25 C27 1.369 . S
C25 H36 0.930 . S
C26 C28 1.383 . S
C26 C29 1.382 . S
C26 H37 0.930 . S
C27 C25 1.369 . S
C27 C29 1.392 . S
C27 H38 0.930 . S
C28 C24 1.373 . S
C28 C26 1.383 . S
C28 H39 0.931 . S
C29 C26 1.382 . S
C29 C27 1.392 . S
C30 Eu1 2.828 . S
C30 O14 1.249 . S
C30 O15 1.244 . S
C30 C24 1.505 . S
C31 O18 1.258 . S
C31 O19 1.242 . S
H32 C4 0.930 . S
H33 C5 0.930 . S
H34 C6 0.930 . S
H35 C7 0.933 1_565 S
H36 C25 0.930 . S
H37 C26 0.930 . S
H38 C27 0.930 . S
H39 C28 0.931 . S
Eu40 C49 2.828 . S
Eu40 O51 2.392 . S
Eu40 O53 2.418 . S
Eu40 O58 2.373 . S
Eu40 O61 2.488 . S
Eu40 O62 2.471 . S
Eu40 O63 2.349 . S
Eu41 O50 2.373 . S
Eu41 O54 2.488 . S
Eu41 O55 2.471 . S
Eu41 O56 2.349 . S
Eu41 O59 2.392 . S
Eu41 O60 2.418 . S
Eu41 C70 2.828 . S
C42 O60 1.244 . S
C42 O63 1.265 . S
C43 C44 1.379 . S
C43 C47 1.373 . S
C43 C49 1.505 . S
C44 C43 1.379 . S
C44 C46 1.369 . S
C44 H72 0.930 . S
C45 C47 1.383 1_655 S
C45 C48 1.382 1_655 S
C45 H73 0.930 . S
C46 C44 1.369 . S
C46 C48 1.392 . S
C46 H74 0.930 . S
C47 C43 1.373 . S
C47 C45 1.383 1_455 S
C47 H75 0.933 1_455 S
C48 C45 1.382 1_455 S
C48 C46 1.392 . S
C49 Eu40 2.828 . S
C49 C43 1.505 . S
C49 O61 1.249 . S
C49 O62 1.244 . S
O50 Eu41 2.373 . S
O50 C52 1.258 . S
O51 Eu40 2.392 . S
O51 C52 1.242 . S
C52 O50 1.258 . S
C52 O51 1.242 . S
O53 Eu40 2.418 . S
O53 C57 1.244 . S
O54 Eu41 2.488 . S
O54 C70 1.249 . S
O55 Eu41 2.471 . S
O55 C70 1.244 . S
O56 Eu41 2.349 . S
O56 C57 1.265 . S
C57 O53 1.244 . S
C57 O56 1.265 . S
O58 Eu40 2.373 . S
O58 C71 1.258 . S
O59 Eu41 2.392 . S
O59 C71 1.242 . S
O60 Eu41 2.418 . S
O60 C42 1.244 . S
O61 Eu40 2.488 . S
O61 C49 1.249 . S
O62 Eu40 2.471 . S
O62 C49 1.244 . S
O63 Eu40 2.349 . S
O63 C42 1.265 . S
C64 C65 1.379 . S
C64 C68 1.373 . S
C64 C70 1.505 . S
C65 C64 1.379 . S
C65 C67 1.369 . S
C65 H76 0.930 . S
C66 C68 1.383 . S
C66 C69 1.382 . S
C66 H77 0.930 . S
C67 C65 1.369 . S
C67 C69 1.392 . S
C67 H78 0.930 . S
C68 C64 1.373 . S
C68 C66 1.383 . S
C68 H79 0.931 . S
C69 C66 1.382 . S
C69 C67 1.392 . S
C70 Eu41 2.828 . S
C70 O54 1.249 . S
C70 O55 1.244 . S
C70 C64 1.505 . S
C71 O58 1.258 . S
C71 O59 1.242 . S
H72 C44 0.930 . S
H73 C45 0.930 . S
H74 C46 0.930 . S
H75 C47 0.933 1_655 S
H76 C65 0.930 . S
H77 C66 0.930 . S
H78 C67 0.930 . S
H79 C68 0.931 . S
Eu80 C89 2.828 . S
Eu80 O91 2.392 1_554 S
Eu80 O93 2.418 . S
Eu80 O98 2.365 1_545 S
Eu80 O101 2.488 . S
Eu80 O102 2.471 . S
Eu80 O103 2.349 . S
Eu81 O90 2.373 1_565 S
Eu81 O94 2.488 . S
Eu81 O95 2.471 . S
Eu81 O96 2.349 . S
Eu81 O99 2.392 1_556 S
Eu81 O100 2.418 . S
Eu81 C110 2.828 . S
C82 O100 1.244 1_554 S
C82 O103 1.265 1_565 S
C83 C84 1.379 . S
C83 C87 1.373 . S
C83 C89 1.505 . S
C84 C83 1.379 . S
C84 C86 1.369 . S
C84 H112 0.930 . S
C85 C87 1.383 . S
C85 C88 1.382 . S
C85 H113 0.930 . S
C86 C84 1.369 . S
C86 C88 1.392 . S
C86 H114 0.930 . S
C87 C83 1.373 . S
C87 C85 1.383 . S
C87 H115 0.931 . S
C88 C85 1.382 . S
C88 C86 1.392 . S
C89 Eu80 2.828 . S
C89 C83 1.505 . S
C89 O101 1.249 . S
C89 O102 1.244 . S
O90 Eu81 2.373 1_545 S
O90 C92 1.258 . S
O91 Eu80 2.392 1_556 S
O91 C92 1.242 . S
C92 O90 1.258 . S
C92 O91 1.242 . S
O93 Eu80 2.418 . S
O93 C97 1.244 . S
O94 Eu81 2.488 . S
O94 C110 1.249 . S
O95 Eu81 2.471 . S
O95 C110 1.244 . S
O96 Eu81 2.349 . S
O96 C97 1.265 1_566 S
C97 O93 1.244 . S
C97 O96 1.265 1_544 S
O98 Eu80 2.365 1_565 S
O98 C111 1.266 . S
O99 Eu81 2.392 1_554 S
O99 C111 1.242 . S
O100 Eu81 2.418 . S
O100 C82 1.244 1_556 S
O101 Eu80 2.488 . S
O101 C89 1.249 . S
O102 Eu80 2.471 . S
O102 C89 1.244 . S
O103 Eu80 2.349 . S
O103 C82 1.265 1_545 S
C104 C105 1.379 . S
C104 C108 1.373 . S
C104 C110 1.505 . S
C105 C104 1.379 . S
C105 C107 1.369 . S
C105 H116 0.930 . S
C106 C108 1.383 . S
C106 C109 1.382 . S
C106 H117 0.930 . S
C107 C105 1.369 . S
C107 C109 1.392 . S
C107 H118 0.930 . S
C108 C104 1.373 . S
C108 C106 1.383 . S
C108 H119 0.931 . S
C109 C106 1.382 . S
C109 C107 1.392 . S
C110 Eu81 2.828 . S
C110 O94 1.249 . S
C110 O95 1.244 . S
C110 C104 1.505 . S
C111 O98 1.266 . S
C111 O99 1.242 . S
H112 C84 0.930 . S
H113 C85 0.930 . S
H114 C86 0.930 . S
H115 C87 0.931 . S
H116 C105 0.930 . S
H117 C106 0.930 . S
H118 C107 0.930 . S
H119 C108 0.931 . S
Eu120 C129 2.828 . S
Eu120 O131 2.392 . S
Eu120 O133 2.418 . S
Eu120 O138 2.365 1_455 S
Eu120 O141 2.488 . S
Eu120 O142 2.471 . S
Eu120 O143 2.349 . S
Eu121 O130 2.373 1_655 S
Eu121 O134 2.488 . S
Eu121 O135 2.471 . S
Eu121 O136 2.349 . S
Eu121 O139 2.392 . S
Eu121 O140 2.418 . S
Eu121 C150 2.828 . S
C122 O140 1.244 . S
C122 O143 1.265 1_655 S
C123 C124 1.379 . S
C123 C127 1.373 . S
C123 C129 1.505 . S
C124 C123 1.379 . S
C124 C126 1.369 . S
C124 H152 0.930 . S
C125 C127 1.383 . S
C125 C128 1.382 . S
C125 H153 0.930 . S
C126 C124 1.369 . S
C126 C128 1.392 . S
C126 H154 0.930 . S
C127 C123 1.373 . S
C127 C125 1.383 . S
C127 H155 0.931 . S
C128 C125 1.382 . S
C128 C126 1.392 . S
C129 Eu120 2.828 . S
C129 C123 1.505 . S
C129 O141 1.249 . S
C129 O142 1.244 . S
O130 Eu121 2.373 1_455 S
O130 C132 1.258 . S
O131 Eu120 2.392 . S
O131 C132 1.242 . S
C132 O130 1.258 . S
C132 O131 1.242 . S
O133 Eu120 2.418 . S
O133 C137 1.244 . S
O134 Eu121 2.488 . S
O134 C150 1.249 . S
O135 Eu121 2.471 . S
O135 C150 1.244 . S
O136 Eu121 2.349 . S
O136 C137 1.265 1_655 S
C137 O133 1.244 . S
C137 O136 1.265 1_455 S
O138 Eu120 2.365 1_655 S
O138 C151 1.266 . S
O139 Eu121 2.392 . S
O139 C151 1.242 . S
O140 Eu121 2.418 . S
O140 C122 1.244 . S
O141 Eu120 2.488 . S
O141 C129 1.249 . S
O142 Eu120 2.471 . S
O142 C129 1.244 . S
O143 Eu120 2.349 . S
O143 C122 1.265 1_455 S
C144 C145 1.379 . S
C144 C148 1.373 . S
C144 C150 1.505 . S
C145 C144 1.379 . S
C145 C147 1.369 . S
C145 H156 0.930 . S
C146 C148 1.383 . S
C146 C149 1.382 . S
C146 H157 0.930 . S
C147 C145 1.369 . S
C147 C149 1.392 . S
C147 H158 0.930 . S
C148 C144 1.373 . S
C148 C146 1.383 . S
C148 H159 0.931 . S
C149 C146 1.382 . S
C149 C147 1.392 . S
C150 Eu121 2.828 . S
C150 O134 1.249 . S
C150 O135 1.244 . S
C150 C144 1.505 . S
C151 O138 1.266 . S
C151 O139 1.242 . S
H152 C124 0.930 . S
H153 C125 0.930 . S
H154 C126 0.930 . S
H155 C127 0.931 . S
H156 C145 0.930 . S
H157 C146 0.930 . S
H158 C147 0.930 . S
H159 C148 0.931 . S
H160 C178 0.951 . S
H161 C180 0.952 . S
H162 C182 0.950 . S
H163 C183 0.950 . S
H164 C185 0.950 . S
H165 C188 0.957 1_655 S
H166 C189 0.950 . S
H167 C191 0.950 . S
H168 C192 0.950 . S
H169 C193 0.951 . S
H170 C195 0.951 . S
H171 C197 0.950 . S
H172 C198 0.950 . S
H173 C200 0.950 . S
H174 C203 0.950 . S
H175 C204 0.950 . S
H176 C206 0.950 . S
H177 C207 0.950 . S
C178 H160 0.951 . S
C178 C179 1.365 1_544 S
C178 C180 1.388 . S
C179 C178 1.365 1_566 S
C179 C183 1.386 . S
C180 H161 0.952 . S
C180 C178 1.388 . S
C180 C181 1.364 1_554 S
C181 C180 1.364 1_556 S
C181 C182 1.414 1_545 S
C181 C184 1.499 1_655 S
C182 H162 0.950 . S
C182 C181 1.414 1_565 S
C182 C183 1.374 . S
C183 H163 0.950 . S
C183 C179 1.386 . S
C183 C182 1.374 . S
C184 C181 1.499 1_455 S
C184 C185 1.373 1_556 S
C184 C186 1.389 . S
C185 H164 0.950 . S
C185 C184 1.373 1_554 S
C185 C201 1.377 . S
C186 C184 1.389 . S
C186 C187 1.524 . S
C186 C200 1.377 . S
C187 C186 1.524 . S
C187 C188 1.397 . S
C187 C192 1.363 . S
C188 H165 0.957 1_455 S
C188 C187 1.397 . S
C188 C189 1.334 1_455 S
C189 H166 0.950 . S
C189 C188 1.334 1_655 S
C189 C190 1.287 1_655 S
C190 C189 1.287 1_455 S
C190 C191 1.524 . S
C190 H209 0.913 . S
C191 H167 0.950 . S
C191 C190 1.524 . S
C191 C192 1.415 . S
C192 H168 0.950 . S
C192 C187 1.363 . S
C192 C191 1.415 . S
C193 H169 0.951 . S
C193 C194 1.367 . S
C193 C195 1.388 . S
C194 C193 1.367 . S
C194 C198 1.383 1_556 S
C195 H170 0.951 . S
C195 C193 1.388 . S
C195 C196 1.366 1_556 S
C196 C195 1.366 1_554 S
C196 C197 1.414 . S
C196 C199 1.499 . S
C197 H171 0.950 . S
C197 C196 1.414 . S
C197 C198 1.374 . S
C198 H172 0.950 . S
C198 C194 1.383 1_554 S
C198 C197 1.374 . S
C199 C196 1.499 . S
C199 C200 1.373 1_554 S
C199 C201 1.389 . S
C200 H173 0.950 . S
C200 C186 1.377 . S
C200 C199 1.373 1_556 S
C201 C185 1.377 . S
C201 C199 1.389 . S
C201 C202 1.524 . S
C202 C201 1.524 . S
C202 C203 1.397 . S
C202 C207 1.363 1_545 S
C203 H174 0.950 . S
C203 C202 1.397 . S
C203 C204 1.334 . S
C204 H175 0.950 . S
C204 C203 1.334 . S
C204 C205 1.287 . S
C205 C204 1.287 . S
C205 C206 1.524 1_545 S
C205 H208 0.999 . S
C206 H176 0.950 . S
C206 C205 1.524 1_565 S
C206 C207 1.415 . S
C207 H177 0.950 . S
C207 C202 1.363 1_565 S
C207 C206 1.415 . S
H208 C205 0.999 . S
H209 C190 0.913 . S
H210 C228 0.951 . S
H211 C230 0.951 . S
H212 C232 0.950 . S
H213 C233 0.950 . S
H214 C235 0.950 . S
H215 C238 0.950 1_565 S
H216 C239 0.950 . S
H217 C241 0.950 . S
H218 C242 0.950 . S
H219 C243 0.951 . S
H220 C245 0.951 . S
H221 C247 0.950 . S
H222 C248 0.950 . S
H223 C250 0.950 . S
H224 C253 0.950 . S
H225 C254 0.950 . S
H226 C256 0.952 . S
H227 C257 0.950 1_655 S
C228 H210 0.951 . S
C228 C229 1.366 1_455 S
C228 C230 1.388 . S
C229 C228 1.366 1_655 S
C229 C233 1.385 . S
C230 H211 0.951 . S
C230 C228 1.388 . S
C230 C231 1.366 . S
C231 C230 1.366 . S
C231 C232 1.414 1_455 S
C231 C234 1.499 1_565 S
C232 H212 0.950 . S
C232 C231 1.414 1_655 S
C232 C233 1.374 . S
C233 H213 0.950 . S
C233 C229 1.385 . S
C233 C232 1.374 . S
C234 C231 1.499 1_545 S
C234 C235 1.373 . S
C234 C236 1.389 . S
C235 H214 0.950 . S
C235 C234 1.373 . S
C235 C251 1.377 . S
C236 C234 1.389 . S
C236 C237 1.524 . S
C236 C250 1.377 . S
C237 C236 1.524 . S
C237 C238 1.397 . S
C237 C242 1.363 . S
C238 H215 0.950 1_545 S
C238 C237 1.397 . S
C238 C239 1.334 1_545 S
C239 H216 0.950 . S
C239 C238 1.334 1_565 S
C239 C240 1.287 1_565 S
C240 C239 1.287 1_545 S
C240 C241 1.524 . S
C240 H259 0.913 1_545 S
C241 H217 0.950 . S
C241 C240 1.524 . S
C241 C242 1.415 . S
C242 H218 0.950 . S
C242 C237 1.363 . S
C242 C241 1.415 . S
C243 H219 0.951 . S
C243 C244 1.366 . S
C243 C245 1.388 . S
C244 C243 1.366 . S
C244 C248 1.385 . S
C245 H220 0.951 . S
C245 C243 1.388 . S
C245 C246 1.366 . S
C246 C245 1.366 . S
C246 C247 1.414 . S
C246 C249 1.499 . S
C247 H221 0.950 . S
C247 C246 1.414 . S
C247 C248 1.374 . S
C248 H222 0.950 . S
C248 C244 1.385 . S
C248 C247 1.374 . S
C249 C246 1.499 . S
C249 C250 1.373 . S
C249 C251 1.389 . S
C250 H223 0.950 . S
C250 C236 1.377 . S
C250 C249 1.373 . S
C251 C235 1.377 . S
C251 C249 1.389 . S
C251 C252 1.524 . S
C252 C251 1.524 . S
C252 C253 1.397 . S
C252 C257 1.363 . S
C253 H224 0.950 . S
C253 C252 1.397 . S
C253 C254 1.334 . S
C254 H225 0.950 . S
C254 C253 1.334 . S
C254 C255 1.287 . S
C255 C254 1.287 . S
C255 C256 1.523 1_455 S
C255 H258 0.999 . S
C256 H226 0.952 . S
C256 C255 1.523 1_655 S
C256 C257 1.414 1_655 S
C257 H227 0.950 1_455 S
C257 C252 1.363 . S
C257 C256 1.414 1_455 S
H258 C255 0.999 . S
H259 C240 0.913 1_565 S
H260 C278 0.951 . S
H261 C280 0.951 . S
H262 C282 0.950 . S
H263 C283 0.950 . S
H264 C285 0.950 . S
H265 C288 0.950 1_545 S
H266 C289 0.950 . S
H267 C291 0.950 . S
H268 C292 0.950 1_554 S
H269 C293 0.951 . S
H270 C295 0.951 . S
H271 C297 0.950 . S
H272 C298 0.950 . S
H273 C300 0.950 . S
H274 C303 0.950 . S
H275 C304 0.950 . S
H276 C306 0.950 . S
H277 C307 0.950 . S
C278 H260 0.951 . S
C278 C279 1.366 . S
C278 C280 1.388 . S
C279 C278 1.366 . S
C279 C283 1.385 1_564 S
C280 H261 0.951 . S
C280 C278 1.388 . S
C280 C281 1.366 1_565 S
C281 C280 1.366 1_545 S
C281 C282 1.414 1_554 S
C281 C284 1.499 . S
C282 H262 0.950 . S
C282 C281 1.414 1_556 S
C282 C283 1.374 . S
C283 H263 0.950 . S
C283 C279 1.385 1_546 S
C283 C282 1.374 . S
C284 C281 1.499 . S
C284 C285 1.373 . S
C284 C286 1.389 1_554 S
C285 H264 0.950 . S
C285 C284 1.373 . S
C285 C301 1.377 . S
C286 C284 1.389 1_556 S
C286 C287 1.524 1_545 S
C286 C300 1.377 . S
C287 C286 1.524 1_565 S
C287 C288 1.397 . S
C287 C292 1.363 . S
C288 H265 0.950 1_565 S
C288 C287 1.397 . S
C288 C289 1.334 . S
C289 H266 0.950 . S
C289 C288 1.334 . S
C289 C290 1.287 . S
C290 C289 1.287 . S
C290 C291 1.524 . S
C290 H309 0.913 . S
C291 H267 0.950 . S
C291 C290 1.524 . S
C291 C292 1.415 . S
C292 H268 0.950 1_556 S
C292 C287 1.363 . S
C292 C291 1.415 . S
C293 H269 0.951 . S
C293 C294 1.366 1_556 S
C293 C295 1.388 . S
C294 C293 1.366 1_554 S
C294 C298 1.385 . S
C295 H270 0.951 . S
C295 C293 1.388 . S
C295 C296 1.366 1_556 S
C296 C295 1.366 1_554 S
C296 C297 1.414 . S
C296 C299 1.499 . S
C297 H271 0.950 . S
C297 C296 1.414 . S
C297 C298 1.374 . S
C298 H272 0.950 . S
C298 C294 1.385 . S
C298 C297 1.374 . S
C299 C296 1.499 . S
C299 C300 1.373 1_554 S
C299 C301 1.389 . S
C300 H273 0.950 . S
C300 C286 1.377 . S
C300 C299 1.373 1_556 S
C301 C285 1.377 . S
C301 C299 1.389 . S
C301 C302 1.524 . S
C302 C301 1.524 . S
C302 C303 1.397 . S
C302 C307 1.363 . S
C303 H274 0.950 . S
C303 C302 1.397 . S
C303 C304 1.334 . S
C304 H275 0.950 . S
C304 C303 1.334 . S
C304 C305 1.287 . S
C305 C304 1.287 . S
C305 C306 1.524 . S
C305 H308 0.999 . S
C306 H276 0.950 . S
C306 C305 1.524 . S
C306 C307 1.415 . S
C307 H277 0.950 . S
C307 C302 1.363 . S
C307 C306 1.415 . S
H308 C305 0.999 . S
H309 C290 0.913 . S
H310 C328 0.951 . S
H311 C330 0.951 . S
H312 C332 0.950 . S
H313 C333 0.950 . S
H314 C335 0.950 . S
H315 C338 0.950 . S
H316 C339 0.950 . S
H317 C341 0.950 1_655 S
H318 C342 0.950 1_655 S
H319 C343 0.951 . S
H320 C345 0.951 . S
H321 C347 0.950 . S
H322 C348 0.950 . S
H323 C350 0.950 . S
H324 C353 0.950 . S
H325 C354 0.950 . S
H326 C356 0.950 . S
H327 C357 0.950 . S
C328 H310 0.951 . S
C328 C329 1.366 . S
C328 C330 1.388 . S
C329 C328 1.366 . S
C329 C333 1.385 . S
C330 H311 0.951 . S
C330 C328 1.388 . S
C330 C331 1.366 . S
C331 C330 1.366 . S
C331 C332 1.414 . S
C331 C334 1.499 . S
C332 H312 0.950 . S
C332 C331 1.414 . S
C332 C333 1.374 . S
C333 H313 0.950 . S
C333 C329 1.385 . S
C333 C332 1.374 . S
C334 C331 1.499 . S
C334 C335 1.373 . S
C334 C336 1.389 . S
C335 H314 0.950 . S
C335 C334 1.373 . S
C335 C351 1.377 . S
C336 C334 1.389 . S
C336 C337 1.524 . S
C336 C350 1.377 . S
C337 C336 1.524 . S
C337 C338 1.397 . S
C337 C342 1.363 . S
C338 H315 0.950 . S
C338 C337 1.397 . S
C338 C339 1.334 . S
C339 H316 0.950 . S
C339 C338 1.334 . S
C339 C340 1.287 . S
C340 C339 1.287 . S
C340 C341 1.524 . S
C340 H359 0.913 . S
C341 H317 0.950 1_455 S
C341 C340 1.524 . S
C341 C342 1.415 . S
C342 H318 0.950 1_455 S
C342 C337 1.363 . S
C342 C341 1.415 . S
C343 H319 0.951 . S
C343 C344 1.366 1_455 S
C343 C345 1.388 . S
C344 C343 1.366 1_655 S
C344 C348 1.385 . S
C345 H320 0.951 . S
C345 C343 1.388 . S
C345 C346 1.366 . S
C346 C345 1.366 . S
C346 C347 1.414 1_455 S
C346 C349 1.499 . S
C347 H321 0.950 . S
C347 C346 1.414 1_655 S
C347 C348 1.374 . S
C348 H322 0.950 . S
C348 C344 1.385 . S
C348 C347 1.374 . S
C349 C346 1.499 . S
C349 C350 1.373 . S
C349 C351 1.389 . S
C350 H323 0.950 . S
C350 C336 1.377 . S
C350 C349 1.373 . S
C351 C335 1.377 . S
C351 C349 1.389 . S
C351 C352 1.524 . S
C352 C351 1.524 . S
C352 C353 1.397 . S
C352 C357 1.363 . S
C353 H324 0.950 . S
C353 C352 1.397 . S
C353 C354 1.334 . S
C354 H325 0.950 . S
C354 C353 1.334 . S
C354 C355 1.287 . S
C355 C354 1.287 . S
C355 C356 1.524 . S
C355 H358 0.999 . S
C356 H326 0.950 . S
C356 C355 1.524 . S
C356 C357 1.415 . S
C357 H327 0.950 . S
C357 C352 1.363 . S
C357 C356 1.415 . S
H358 C355 0.999 . S
H359 C340 0.913 . S
H360 C378 0.951 . S
H361 C380 0.951 . S
H362 C382 0.950 . S
H363 C383 0.950 . S
H364 C385 0.950 . S
H365 C388 0.950 . S
H366 C389 0.950 . S
H367 C391 0.950 . S
H368 C392 0.950 . S
H369 C393 0.951 . S
H370 C395 0.951 . S
H371 C397 0.950 . S
H372 C398 0.950 . S
H373 C400 0.950 . S
H374 C403 0.950 . S
H375 C404 0.950 . S
H376 C406 0.950 . S
H377 C407 0.950 . S
C378 H360 0.951 . S
C378 C379 1.366 . S
C378 C380 1.388 . S
C379 C378 1.366 . S
C379 C383 1.385 . S
C380 H361 0.951 . S
C380 C378 1.388 . S
C380 C381 1.366 . S
C381 C380 1.366 . S
C381 C382 1.414 . S
C381 C384 1.499 . S
C382 H362 0.950 . S
C382 C381 1.414 . S
C382 C383 1.374 . S
C383 H363 0.950 . S
C383 C379 1.385 . S
C383 C382 1.374 . S
C384 C381 1.499 . S
C384 C385 1.373 . S
C384 C386 1.389 . S
C385 H364 0.950 . S
C385 C384 1.373 . S
C385 C401 1.377 . S
C386 C384 1.389 . S
C386 C387 1.524 . S
C386 C400 1.377 . S
C387 C386 1.524 . S
C387 C388 1.397 . S
C387 C392 1.363 . S
C388 H365 0.950 . S
C388 C387 1.397 . S
C388 C389 1.334 . S
C389 H366 0.950 . S
C389 C388 1.334 . S
C389 C390 1.287 . S
C390 C389 1.287 . S
C390 C391 1.524 . S
C390 H409 0.913 . S
C391 H367 0.950 . S
C391 C390 1.524 . S
C391 C392 1.415 . S
C392 H368 0.950 . S
C392 C387 1.363 . S
C392 C391 1.415 . S
C393 H369 0.951 . S
C393 C394 1.366 . S
C393 C395 1.388 . S
C394 C393 1.366 . S
C394 C398 1.385 . S
C395 H370 0.951 . S
C395 C393 1.388 . S
C395 C396 1.366 . S
C396 C395 1.366 . S
C396 C397 1.414 . S
C396 C399 1.499 . S
C397 H371 0.950 . S
C397 C396 1.414 . S
C397 C398 1.374 . S
C398 H372 0.950 . S
C398 C394 1.385 . S
C398 C397 1.374 . S
C399 C396 1.499 . S
C399 C400 1.373 . S
C399 C401 1.389 . S
C400 H373 0.950 . S
C400 C386 1.377 . S
C400 C399 1.373 . S
C401 C385 1.377 . S
C401 C399 1.389 . S
C401 C402 1.524 . S
C402 C401 1.524 . S
C402 C403 1.397 . S
C402 C407 1.363 . S
C403 H374 0.950 . S
C403 C402 1.397 . S
C403 C404 1.334 . S
C404 H375 0.950 . S
C404 C403 1.334 . S
C404 C405 1.287 . S
C405 C404 1.287 . S
C405 C406 1.524 . S
C405 H408 0.999 . S
C406 H376 0.950 . S
C406 C405 1.524 . S
C406 C407 1.415 . S
C407 H377 0.950 . S
C407 C402 1.363 . S
C407 C406 1.415 . S
H408 C405 0.999 . S
H409 C390 0.913 . S
H410 C428 0.951 . S
H411 C430 0.951 . S
H412 C432 0.950 1_655 S
H413 C433 0.950 . S
H414 C435 0.950 . S
H415 C438 0.950 . S
H416 C439 0.950 . S
H417 C441 0.950 . S
H418 C442 0.950 . S
H419 C443 0.951 . S
H420 C445 0.951 . S
H421 C447 0.950 . S
H422 C448 0.950 . S
H423 C450 0.950 1_455 S
H424 C453 0.950 . S
H425 C454 0.950 . S
H426 C456 0.950 1_565 S
H427 C457 0.950 . S
C428 H410 0.951 . S
C428 C429 1.366 . S
C428 C430 1.388 . S
C429 C428 1.366 . S
C429 C433 1.385 . S
C430 H411 0.951 . S
C430 C428 1.388 . S
C430 C431 1.366 . S
C431 C430 1.366 . S
C431 C432 1.414 . S
C431 C434 1.499 1_455 S
C432 H412 0.950 1_455 S
C432 C431 1.414 . S
C432 C433 1.374 . S
C433 H413 0.950 . S
C433 C429 1.385 . S
C433 C432 1.374 . S
C434 C431 1.499 1_655 S
C434 C435 1.373 . S
C434 C436 1.389 1_655 S
C435 H414 0.950 . S
C435 C434 1.373 . S
C435 C451 1.377 . S
C436 C434 1.389 1_455 S
C436 C437 1.524 . S
C436 C450 1.377 1_455 S
C437 C436 1.524 . S
C437 C438 1.397 . S
C437 C442 1.363 . S
C438 H415 0.950 . S
C438 C437 1.397 . S
C438 C439 1.334 . S
C439 H416 0.950 . S
C439 C438 1.334 . S
C439 C440 1.287 . S
C440 C439 1.287 . S
C440 C441 1.524 . S
C440 H459 0.913 . S
C441 H417 0.950 . S
C441 C440 1.524 . S
C441 C442 1.415 . S
C442 H418 0.950 . S
C442 C437 1.363 . S
C442 C441 1.415 . S
C443 H419 0.951 . S
C443 C444 1.366 . S
C443 C445 1.388 . S
C444 C443 1.366 . S
C444 C448 1.385 . S
C445 H420 0.951 . S
C445 C443 1.388 . S
C445 C446 1.366 . S
C446 C445 1.366 . S
C446 C447 1.414 . S
C446 C449 1.499 . S
C447 H421 0.950 . S
C447 C446 1.414 . S
C447 C448 1.374 . S
C448 H422 0.950 . S
C448 C444 1.385 . S
C448 C447 1.374 . S
C449 C446 1.499 . S
C449 C450 1.373 . S
C449 C451 1.389 . S
C450 H423 0.950 1_655 S
C450 C436 1.377 1_655 S
C450 C449 1.373 . S
C451 C435 1.377 . S
C451 C449 1.389 . S
C451 C452 1.524 . S
C452 C451 1.524 . S
C452 C453 1.397 . S
C452 C457 1.363 . S
C453 H424 0.950 . S
C453 C452 1.397 . S
C453 C454 1.334 . S
C454 H425 0.950 . S
C454 C453 1.334 . S
C454 C455 1.287 . S
C455 C454 1.287 . S
C455 C456 1.524 . S
C455 H458 1.004 . S
C456 H426 0.950 1_545 S
C456 C455 1.524 . S
C456 C457 1.415 . S
C457 H427 0.950 . S
C457 C452 1.363 . S
C457 C456 1.415 . S
H458 C455 1.004 . S
H459 C440 0.913 . S
H460 C478 0.951 . S
H461 C480 0.951 . S
H462 C482 0.950 . S
H463 C483 0.950 . S
H464 C485 0.950 . S
H465 C488 0.950 . S
H466 C489 0.950 . S
H467 C491 0.950 . S
H468 C492 0.950 . S
H469 C493 0.951 . S
H470 C495 0.951 . S
H471 C497 0.950 . S
H472 C498 0.950 . S
H473 C500 0.950 . S
H474 C503 0.950 . S
H475 C504 0.950 . S
H476 C506 0.950 . S
H477 C507 0.950 . S
C478 H460 0.951 . S
C478 C479 1.366 . S
C478 C480 1.388 . S
C479 C478 1.366 . S
C479 C483 1.385 . S
C480 H461 0.951 . S
C480 C478 1.388 . S
C480 C481 1.366 . S
C481 C480 1.366 . S
C481 C482 1.414 . S
C481 C484 1.499 . S
C482 H462 0.950 . S
C482 C481 1.414 . S
C482 C483 1.374 . S
C483 H463 0.950 . S
C483 C479 1.385 . S
C483 C482 1.374 . S
C484 C481 1.499 . S
C484 C485 1.373 . S
C484 C486 1.389 . S
C485 H464 0.950 . S
C485 C484 1.373 . S
C485 C501 1.377 . S
C486 C484 1.389 . S
C486 C487 1.524 . S
C486 C500 1.377 . S
C487 C486 1.524 . S
C487 C488 1.397 . S
C487 C492 1.363 . S
C488 H465 0.950 . S
C488 C487 1.397 . S
C488 C489 1.334 . S
C489 H466 0.950 . S
C489 C488 1.334 . S
C489 C490 1.287 . S
C490 C489 1.287 . S
C490 C491 1.524 . S
C490 H509 0.913 . S
C491 H467 0.950 . S
C491 C490 1.524 . S
C491 C492 1.415 . S
C492 H468 0.950 . S
C492 C487 1.363 . S
C492 C491 1.415 . S
C493 H469 0.951 . S
C493 C494 1.366 . S
C493 C495 1.388 . S
C494 C493 1.366 . S
C494 C498 1.385 . S
C495 H470 0.951 . S
C495 C493 1.388 . S
C495 C496 1.366 . S
C496 C495 1.366 . S
C496 C497 1.414 . S
C496 C499 1.499 . S
C497 H471 0.950 . S
C497 C496 1.414 . S
C497 C498 1.374 . S
C498 H472 0.950 . S
C498 C494 1.385 . S
C498 C497 1.374 . S
C499 C496 1.499 . S
C499 C500 1.373 . S
C499 C501 1.389 . S
C500 H473 0.950 . S
C500 C486 1.377 . S
C500 C499 1.373 . S
C501 C485 1.377 . S
C501 C499 1.389 . S
C501 C502 1.524 . S
C502 C501 1.524 . S
C502 C503 1.397 . S
C502 C507 1.363 . S
C503 H474 0.950 . S
C503 C502 1.397 . S
C503 C504 1.334 . S
C504 H475 0.950 . S
C504 C503 1.334 . S
C504 C505 1.287 . S
C505 C504 1.287 . S
C505 C506 1.524 . S
C505 H508 0.999 . S
C506 H476 0.950 . S
C506 C505 1.524 . S
C506 C507 1.415 . S
C507 H477 0.950 . S
C507 C502 1.363 . S
C507 C506 1.415 . S
H508 C505 0.999 . S
H509 C490 0.913 . S
H510 C528 0.951 . S
H511 C530 0.951 . S
H512 C532 0.950 . S
H513 C533 0.950 . S
H514 C535 0.950 . S
H515 C538 0.950 . S
H516 C539 0.950 . S
H517 C541 0.950 . S
H518 C542 0.950 . S
H519 C543 0.951 . S
H520 C545 0.970 . S
H521 C547 0.950 . S
H522 C548 0.950 . S
H523 C550 0.950 . S
H524 C553 0.950 . S
H525 C554 0.950 . S
H526 C556 0.950 . S
H527 C557 0.950 . S
C528 H510 0.951 . S
C528 C529 1.366 . S
C528 C530 1.388 . S
C529 C528 1.366 . S
C529 C533 1.385 . S
C530 H511 0.951 . S
C530 C528 1.388 . S
C530 C531 1.366 . S
C531 C530 1.366 . S
C531 C532 1.414 . S
C531 C534 1.499 . S
C532 H512 0.950 . S
C532 C531 1.414 . S
C532 C533 1.374 . S
C533 H513 0.950 . S
C533 C529 1.385 . S
C533 C532 1.374 . S
C534 C531 1.499 . S
C534 C535 1.373 . S
C534 C536 1.389 . S
C535 H514 0.950 . S
C535 C534 1.373 . S
C535 C551 1.377 . S
C536 C534 1.389 . S
C536 C537 1.524 1_565 S
C536 C550 1.377 1_565 S
C537 C536 1.524 1_545 S
C537 C538 1.397 . S
C537 C542 1.363 . S
C538 H515 0.950 . S
C538 C537 1.397 . S
C538 C539 1.334 . S
C539 H516 0.950 . S
C539 C538 1.334 . S
C539 C540 1.287 . S
C540 C539 1.287 . S
C540 C541 1.524 . S
C540 H559 0.913 . S
C541 H517 0.950 . S
C541 C540 1.524 . S
C541 C542 1.415 . S
C542 H518 0.950 . S
C542 C537 1.363 . S
C542 C541 1.415 . S
C543 H519 0.951 . S
C543 C544 1.366 . S
C543 C545 1.388 . S
C544 C543 1.366 . S
C544 C548 1.385 . S
C545 H520 0.970 . S
C545 C543 1.388 . S
C545 C546 1.366 . S
C546 C545 1.366 . S
C546 C547 1.414 . S
C546 C549 1.499 1_545 S
C547 H521 0.950 . S
C547 C546 1.414 . S
C547 C548 1.374 . S
C548 H522 0.950 . S
C548 C544 1.385 . S
C548 C547 1.374 . S
C549 C546 1.499 1_565 S
C549 C550 1.373 1_565 S
C549 C551 1.389 . S
C550 H523 0.950 . S
C550 C536 1.377 1_545 S
C550 C549 1.373 1_545 S
C551 C535 1.377 . S
C551 C549 1.389 . S
C551 C552 1.524 . S
C552 C551 1.524 . S
C552 C553 1.397 . S
C552 C557 1.363 . S
C553 H524 0.950 . S
C553 C552 1.397 . S
C553 C554 1.334 . S
C554 H525 0.950 . S
C554 C553 1.334 . S
C554 C555 1.287 . S
C555 C554 1.287 . S
C555 C556 1.524 . S
C555 H558 0.999 . S
C556 H526 0.950 . S
C556 C555 1.524 . S
C556 C557 1.415 . S
C557 H527 0.950 . S
C557 C552 1.363 . S
C557 C556 1.415 . S
H558 C555 0.999 . S
H559 C540 0.913 . S
H560 C578 0.951 . S
H561 C580 0.951 . S
H562 C582 0.950 . S
H563 C583 0.950 . S
H564 C585 0.950 . S
H565 C588 0.950 . S
H566 C589 0.950 . S
H567 C591 0.950 . S
H568 C592 0.950 . S
H569 C593 0.951 . S
H570 C595 0.951 . S
H571 C597 0.950 . S
H572 C598 0.950 . S
H573 C600 0.950 . S
H574 C603 0.950 . S
H575 C604 0.950 . S
H576 C606 0.950 . S
H577 C607 0.950 . S
C578 H560 0.951 . S
C578 C579 1.366 . S
C578 C580 1.388 . S
C579 C578 1.366 . S
C579 C583 1.385 . S
C580 H561 0.951 . S
C580 C578 1.388 . S
C580 C581 1.366 . S
C581 C580 1.366 . S
C581 C582 1.414 . S
C581 C584 1.499 . S
C582 H562 0.950 . S
C582 C581 1.414 . S
C582 C583 1.374 . S
C583 H563 0.950 . S
C583 C579 1.385 . S
C583 C582 1.374 . S
C584 C581 1.499 . S
C584 C585 1.373 . S
C584 C586 1.389 . S
C585 H564 0.950 . S
C585 C584 1.373 . S
C585 C601 1.377 . S
C586 C584 1.389 . S
C586 C587 1.524 . S
C586 C600 1.377 . S
C587 C586 1.524 . S
C587 C588 1.397 . S
C587 C592 1.363 . S
C588 H565 0.950 . S
C588 C587 1.397 . S
C588 C589 1.334 . S
C589 H566 0.950 . S
C589 C588 1.334 . S
C589 C590 1.287 . S
C590 C589 1.287 . S
C590 C591 1.524 . S
C590 H609 0.913 . S
C591 H567 0.950 . S
C591 C590 1.524 . S
C591 C592 1.415 . S
C592 H568 0.950 . S
C592 C587 1.363 . S
C592 C591 1.415 . S
C593 H569 0.951 . S
C593 C594 1.366 . S
C593 C595 1.388 . S
C594 C593 1.366 . S
C594 C598 1.385 . S
C595 H570 0.951 . S
C595 C593 1.388 . S
C595 C596 1.366 . S
C596 C595 1.366 . S
C596 C597 1.414 . S
C596 C599 1.499 . S
C597 H571 0.950 . S
C597 C596 1.414 . S
C597 C598 1.374 . S
C598 H572 0.950 . S
C598 C594 1.385 . S
C598 C597 1.374 . S
C599 C596 1.499 . S
C599 C600 1.373 . S
C599 C601 1.389 . S
C600 H573 0.950 . S
C600 C586 1.377 . S
C600 C599 1.373 . S
C601 C585 1.377 . S
C601 C599 1.389 . S
C601 C602 1.524 . S
C602 C601 1.524 . S
C602 C603 1.397 . S
C602 C607 1.363 . S
C603 H574 0.950 . S
C603 C602 1.397 . S
C603 C604 1.334 . S
C604 H575 0.950 . S
C604 C603 1.334 . S
C604 C605 1.287 . S
C605 C604 1.287 . S
C605 C606 1.524 . S
C605 H608 0.999 . S
C606 H576 0.950 . S
C606 C605 1.524 . S
C606 C607 1.415 . S
C607 H577 0.950 . S
C607 C602 1.363 . S
C607 C606 1.415 . S
H608 C605 0.999 . S
H609 C590 0.913 . S
H610 C628 0.951 . S
H611 C630 0.951 . S
H612 C632 0.950 1_565 S
H613 C633 0.950 . S
H614 C635 0.950 1_545 S
H615 C638 0.950 . S
H616 C639 0.950 . S
H617 C641 0.950 . S
H618 C642 0.950 . S
H619 C643 0.951 . S
H620 C645 0.951 . S
H621 C647 0.950 . S
H622 C648 0.950 . S
H623 C650 0.950 . S
H624 C653 0.950 1_565 S
H625 C654 0.950 . S
H626 C656 0.950 . S
H627 C657 0.950 1_565 S
C628 H610 0.951 . S
C628 C629 1.366 . S
C628 C630 1.388 1_545 S
C629 C628 1.366 . S
C629 C633 1.385 . S
C630 H611 0.951 . S
C630 C628 1.388 1_565 S
C630 C631 1.366 . S
C631 C630 1.366 . S
C631 C632 1.414 1_565 S
C631 C634 1.499 . S
C632 H612 0.950 1_545 S
C632 C631 1.414 1_545 S
C632 C633 1.374 . S
C633 H613 0.950 . S
C633 C629 1.385 . S
C633 C632 1.374 . S
C634 C631 1.499 . S
C634 C635 1.373 . S
C634 C636 1.389 . S
C635 H614 0.950 1_565 S
C635 C634 1.373 . S
C635 C651 1.377 . S
C636 C634 1.389 . S
C636 C637 1.524 . S
C636 C650 1.377 . S
C637 C636 1.524 . S
C637 C638 1.397 . S
C637 C642 1.363 . S
C638 H615 0.950 . S
C638 C637 1.397 . S
C638 C639 1.334 . S
C639 H616 0.950 . S
C639 C638 1.334 . S
C639 C640 1.287 . S
C640 C639 1.287 . S
C640 C641 1.524 . S
C640 H659 0.913 . S
C641 H617 0.950 . S
C641 C640 1.524 . S
C641 C642 1.415 . S
C642 H618 0.950 . S
C642 C637 1.363 . S
C642 C641 1.415 . S
C643 H619 0.951 . S
C643 C644 1.366 . S
C643 C645 1.388 . S
C644 C643 1.366 . S
C644 C648 1.385 . S
C645 H620 0.951 . S
C645 C643 1.388 . S
C645 C646 1.366 . S
C646 C645 1.366 . S
C646 C647 1.414 . S
C646 C649 1.499 . S
C647 H621 0.950 . S
C647 C646 1.414 . S
C647 C648 1.374 . S
C648 H622 0.950 . S
C648 C644 1.385 . S
C648 C647 1.374 . S
C649 C646 1.499 . S
C649 C650 1.373 . S
C649 C651 1.389 . S
C650 H623 0.950 . S
C650 C636 1.377 . S
C650 C649 1.373 . S
C651 C635 1.377 . S
C651 C649 1.389 . S
C651 C652 1.524 . S
C652 C651 1.524 . S
C652 C653 1.397 1_565 S
C652 C657 1.363 1_565 S
C653 H624 0.950 1_545 S
C653 C652 1.397 1_545 S
C653 C654 1.334 . S
C654 H625 0.950 . S
C654 C653 1.334 . S
C654 C655 1.287 . S
C655 C654 1.287 . S
C655 C656 1.524 . S
C655 H658 0.999 . S
C656 H626 0.950 . S
C656 C655 1.524 . S
C656 C657 1.415 . S
C657 H627 0.950 1_545 S
C657 C652 1.363 1_545 S
C657 C656 1.415 . S
H658 C655 0.999 . S
H659 C640 0.913 . S
H660 C678 0.951 . S
H661 C680 0.951 . S
H662 C682 0.950 . S
H663 C683 0.950 . S
H664 C685 0.950 . S
H665 C688 0.950 . S
H666 C689 0.950 . S
H667 C691 0.950 . S
H668 C692 0.950 . S
H669 C693 0.951 . S
H670 C695 0.951 . S
H671 C697 0.950 . S
H672 C698 0.950 . S
H673 C700 0.950 . S
H674 C703 0.950 . S
H675 C704 0.950 . S
H676 C706 0.950 . S
H677 C707 0.950 . S
C678 H660 0.951 . S
C678 C679 1.366 . S
C678 C680 1.388 . S
C679 C678 1.366 . S
C679 C683 1.385 . S
C680 H661 0.951 . S
C680 C678 1.388 . S
C680 C681 1.366 . S
C681 C680 1.366 . S
C681 C682 1.414 . S
C681 C684 1.499 . S
C682 H662 0.950 . S
C682 C681 1.414 . S
C682 C683 1.374 . S
C683 H663 0.950 . S
C683 C679 1.385 . S
C683 C682 1.374 . S
C684 C681 1.499 . S
C684 C685 1.373 . S
C684 C686 1.389 . S
C685 H664 0.950 . S
C685 C684 1.373 . S
C685 C701 1.377 . S
C686 C684 1.389 . S
C686 C687 1.524 . S
C686 C700 1.377 . S
C687 C686 1.524 . S
C687 C688 1.397 . S
C687 C692 1.363 . S
C688 H665 0.950 . S
C688 C687 1.397 . S
C688 C689 1.334 . S
C689 H666 0.950 . S
C689 C688 1.334 . S
C689 C690 1.287 . S
C690 C689 1.287 . S
C690 C691 1.524 . S
C690 H709 0.913 . S
C691 H667 0.950 . S
C691 C690 1.524 . S
C691 C692 1.415 . S
C692 H668 0.950 . S
C692 C687 1.363 . S
C692 C691 1.415 . S
C693 H669 0.951 . S
C693 C694 1.366 . S
C693 C695 1.388 . S
C694 C693 1.366 . S
C694 C698 1.385 . S
C695 H670 0.951 . S
C695 C693 1.388 . S
C695 C696 1.366 . S
C696 C695 1.366 . S
C696 C697 1.414 . S
C696 C699 1.499 . S
C697 H671 0.950 . S
C697 C696 1.414 . S
C697 C698 1.374 . S
C698 H672 0.950 . S
C698 C694 1.385 . S
C698 C697 1.374 . S
C699 C696 1.499 . S
C699 C700 1.373 . S
C699 C701 1.389 . S
C700 H673 0.950 . S
C700 C686 1.377 . S
C700 C699 1.373 . S
C701 C685 1.377 . S
C701 C699 1.389 . S
C701 C702 1.524 . S
C702 C701 1.524 . S
C702 C703 1.397 . S
C702 C707 1.363 . S
C703 H674 0.950 . S
C703 C702 1.397 . S
C703 C704 1.334 . S
C704 H675 0.950 . S
C704 C703 1.334 . S
C704 C705 1.287 . S
C705 C704 1.287 . S
C705 C706 1.524 . S
C705 H708 0.999 . S
C706 H676 0.950 . S
C706 C705 1.524 . S
C706 C707 1.415 . S
C707 H677 0.950 . S
C707 C702 1.363 . S
C707 C706 1.415 . S
H708 C705 0.999 . S
H709 C690 0.913 . S
H710 C728 0.951 . S
H711 C730 0.951 . S
H712 C732 0.950 . S
H713 C733 0.950 . S
H714 C735 0.950 . S
H715 C738 0.950 . S
H716 C739 0.950 . S
H717 C741 0.950 . S
H718 C742 0.950 . S
H719 C743 0.951 . S
H720 C745 0.951 . S
H721 C747 0.950 . S
H722 C748 0.950 . S
H723 C750 0.950 . S
H724 C753 0.950 1_455 S
H725 C754 0.950 . S
H726 C756 0.950 . S
H727 C757 0.950 . S
C728 H710 0.951 . S
C728 C729 1.366 . S
C728 C730 1.388 . S
C729 C728 1.366 . S
C729 C733 1.385 . S
C730 H711 0.951 . S
C730 C728 1.388 . S
C730 C731 1.366 . S
C731 C730 1.366 . S
C731 C732 1.414 . S
C731 C734 1.499 . S
C732 H712 0.950 . S
C732 C731 1.414 . S
C732 C733 1.374 . S
C733 H713 0.950 . S
C733 C729 1.385 . S
C733 C732 1.374 . S
C734 C731 1.499 . S
C734 C735 1.373 . S
C734 C736 1.389 . S
C735 H714 0.950 . S
C735 C734 1.373 . S
C735 C751 1.377 . S
C736 C734 1.389 . S
C736 C737 1.524 . S
C736 C750 1.377 . S
C737 C736 1.524 . S
C737 C738 1.397 . S
C737 C742 1.363 . S
C738 H715 0.950 . S
C738 C737 1.397 . S
C738 C739 1.334 . S
C739 H716 0.950 . S
C739 C738 1.334 . S
C739 C740 1.287 . S
C740 C739 1.287 . S
C740 C741 1.524 . S
C740 H759 0.913 . S
C741 H717 0.950 . S
C741 C740 1.524 . S
C741 C742 1.415 . S
C742 H718 0.950 . S
C742 C737 1.363 . S
C742 C741 1.415 . S
C743 H719 0.951 . S
C743 C744 1.366 1_655 S
C743 C745 1.388 . S
C744 C743 1.366 1_455 S
C744 C748 1.385 . S
C745 H720 0.951 . S
C745 C743 1.388 . S
C745 C746 1.366 . S
C746 C745 1.366 . S
C746 C747 1.414 1_655 S
C746 C749 1.499 . S
C747 H721 0.950 . S
C747 C746 1.414 1_455 S
C747 C748 1.374 . S
C748 H722 0.950 . S
C748 C744 1.385 . S
C748 C747 1.374 . S
C749 C746 1.499 . S
C749 C750 1.373 . S
C749 C751 1.389 . S
C750 H723 0.950 . S
C750 C736 1.377 . S
C750 C749 1.373 . S
C751 C735 1.377 . S
C751 C749 1.389 . S
C751 C752 1.524 . S
C752 C751 1.524 . S
C752 C753 1.397 . S
C752 C757 1.363 . S
C753 H724 0.950 1_655 S
C753 C752 1.397 . S
C753 C754 1.334 1_655 S
C754 H725 0.950 . S
C754 C753 1.334 1_455 S
C754 C755 1.287 1_455 S
C755 C754 1.287 1_655 S
C755 C756 1.524 . S
C755 H758 0.999 . S
C756 H726 0.950 . S
C756 C755 1.524 . S
C756 C757 1.415 . S
C757 H727 0.950 . S
C757 C752 1.363 . S
C757 C756 1.415 . S
H758 C755 0.999 . S
H759 C740 0.913 . S
C179 C97 0.883 1_566 S
C194 C17 0.883 1_556 S
C229 C137 0.886 1_655 S
C244 C57 0.887 . S
C279 C82 1.071 . S
C294 C2 1.070 . S
C329 C42 1.070 . S
C344 C122 1.071 . S
C379 C71 4.642 . S
C394 C31 4.642 . S
C429 C52 4.404 . S
C444 C92 4.404 . S
C479 C151 4.642 . S
C494 C111 4.642 . S
C529 C132 4.404 . S
C544 C12 4.404 . S
C579 C109 0.871 . S
C594 C149 0.871 . S
C629 C8 1.171 . S
C644 C128 1.172 . S
C679 C69 0.870 . S
C694 C29 0.870 . S
C729 C88 1.171 . S
C744 C48 1.171 . S
