# Generated by pormake.
# Topology kag, (6)-cn, num edge types: 1
# Building blocks:
#     Node 0, Type 0, BuildingBlock: KUMBOL_clean_sbu_0, # of connection points: 6
#     Node 1, Type 0, BuildingBlock: KUMBOL_clean_sbu_0, # of connection points: 6
#     Node 2, Type 0, BuildingBlock: KUMBOL_clean_sbu_0, # of connection points: 6
#     Edge 3, Type (0, 0), BuildingBlock: AJUNOK_clean_linker_0, # of connection points: 2
#     Edge 4, Type (0, 0), BuildingBlock: AJUNOK_clean_linker_0, # of connection points: 2
#     Edge 5, Type (0, 0), BuildingBlock: AJUNOK_clean_linker_0, # of connection points: 2
#     Edge 6, Type (0, 0), BuildingBlock: AJUNOK_clean_linker_0, # of connection points: 2
#     Edge 7, Type (0, 0), BuildingBlock: AJUNOK_clean_linker_0, # of connection points: 2
#     Edge 8, Type (0, 0), BuildingBlock: AJUNOK_clean_linker_0, # of connection points: 2
#     Edge 9, Type (0, 0), BuildingBlock: AJUNOK_clean_linker_0, # of connection points: 2
#     Edge 10, Type (0, 0), BuildingBlock: AJUNOK_clean_linker_0, # of connection points: 2
#     Edge 11, Type (0, 0), BuildingBlock: AJUNOK_clean_linker_0, # of connection points: 2
# Relax obj value: 0.104
# Max RMSD: 0.221
# Mean RMSD: 0.161
data_MOF--net-kag--node1-KUMBOL_clean_sbu_0--edge1-AJUNOK_clean_linker_0
_symmetry_space_group_name_H-M    P1
_symmetry_Int_Tables_number       1
_symmetry_cell_setting            triclinic
loop_
_symmetry_equiv_pos_as_xyz
'x, y, z'
_cell_length_a     31.925846
_cell_length_b     22.603603
_cell_length_c     11.211336
_cell_angle_alpha  94.86969
_cell_angle_beta   114.11829
_cell_angle_gamma 92.899497
loop_
_atom_site_label
_atom_site_type_symbol
_atom_site_fract_x
_atom_site_fract_y
_atom_site_fract_z
_atom_type_partial_charge
Gd0 Gd 0.01653 0.64472 0.00848 0.0
Gd1 Gd 1.00995 0.48495 0.99016 0.0
C2 C 0.12135 0.3698 0.97633 0.0
C3 C 0.08206 0.3104 0.76353 0.0
C4 C 0.04203 0.38381 0.83749 0.0
C5 C 0.08121 0.39911 0.95302 0.0
C6 C 0.04189 0.33882 0.74201 0.0
C7 C 0.12172 0.32595 0.88028 0.0
C8 C 0.15961 0.38454 0.09667 0.0
C9 C 0.15669 0.42604 0.19186 0.0
N10 N 0.07963 0.44119 0.04454 0.0
C11 C 0.11593 0.45331 0.16478 0.0
H12 H 0.11384 0.48463 0.23985 0.0
C13 C 0.96398 0.39728 0.70851 0.0
N14 N 1.00391 0.41267 0.81878 0.0
C15 C 0.96225 0.35305 0.61101 0.0
C16 C 1.00139 0.3238 0.62756 0.0
H17 H 0.93341 0.41929 0.69431 0.0
H18 H 0.15231 0.30319 0.89617 0.0
H19 H 0.91357 0.63831 0.75044 0.0
H20 H 0.19114 0.36322 0.11815 0.0
H21 H 0.18573 0.4369 0.28629 0.0
H22 H 0.08271 0.27608 0.69087 0.0
H23 H 0.08985 0.72158 0.29425 0.0
H24 H 0.82629 0.74383 0.86787 0.0
H25 H 0.83787 0.67688 0.69978 0.0
H26 H 0.9276 0.83466 0.29984 0.0
H27 H 0.93069 0.3415 0.52317 0.0
H28 H 0.99993 0.28963 0.55172 0.0
H29 H 0.86003 0.80229 0.09225 0.0
H30 H 0.08666 0.79556 0.46494 0.0
N31 N 0.94384 0.68091 0.94706 0.0
C32 C 0.85953 0.72686 0.89082 0.0
C33 C 0.86593 0.68912 0.79561 0.0
C34 C 0.89648 0.74366 0.01312 0.0
C35 C 0.93895 0.72003 0.03833 0.0
C36 C 0.90881 0.66723 0.82479 0.0
N37 N 0.01773 0.71576 0.17537 0.0
C38 C 0.97698 0.73803 0.15581 0.0
C39 C 0.05552 0.77942 0.37894 0.0
C40 C 0.01344 0.8004 0.36391 0.0
C41 C 0.05721 0.7375 0.2822 0.0
C42 C 0.97361 0.78042 0.25048 0.0
H43 H 1.01227 0.83296 0.43894 0.0
O44 O 0.07306 0.69763 -0.00134 0.0
O45 O 0.05511 0.56585 0.00347 0.0
O46 O 0.04071 0.52835 0.20329 0.0
O47 O 0.01576 0.62313 0.19991 0.0
O48 O 0.09158 0.6365 0.14031 0.0
O49 O 1.0029 0.71367 0.87623 0.0
O50 O 0.95291 0.42881 0.98892 0.0
O51 O 0.97175 0.56407 0.00044 0.0
O52 O 0.99094 0.60009 0.79607 0.0
O53 O 0.02063 0.50827 0.81278 0.0
O54 O 0.9351 0.49557 0.85979 0.0
O55 O 0.02181 0.42551 0.14118 0.0
C56 C 0.09517 0.58444 0.08987 0.0
C57 C 0.93097 0.80248 0.22769 0.0
C58 C 0.89249 0.78407 0.10941 0.0
C59 C 0.04645 0.73177 0.91838 0.0
C60 C 0.06071 0.79571 0.95658 0.0
C61 C 0.03608 0.83441 0.00251 0.0
C62 C 0.10312 0.81669 0.95986 0.0
C63 C 0.12204 0.87515 0.01241 0.0
C64 C 0.05457 0.89327 0.05348 0.0
C65 C 0.09776 0.91351 0.06015 0.0
C66 C 0.03024 0.57562 0.2607 0.0
C67 C 0.9312 0.54581 0.91629 0.0
C68 C 0.97862 0.4044 0.092 0.0
C69 C 0.96748 0.34046 0.08736 0.0
C70 C 0.99312 0.297 0.05992 0.0
C71 C 0.92804 0.32316 0.1053 0.0
C72 C 0.91303 0.26281 0.09388 0.0
C73 C 0.97891 0.2365 0.05082 0.0
C74 C 0.93896 0.2193 0.06725 0.0
C75 C 1.00705 0.55509 0.74837 0.0
H76 H 1.0033 0.81899 0.00168 0.0
H77 H 0.12259 0.78642 0.92685 0.0
H78 H 0.03581 0.92289 0.09015 0.0
H79 H 0.11217 0.95874 0.10232 0.0
H80 H 0.02355 0.30971 0.04456 0.0
H81 H 0.90855 0.35719 0.12705 0.0
H82 H 0.99855 0.20284 0.02921 0.0
H83 H 0.9279 0.17233 0.05664 0.0
Gd84 Gd 0.44911 1.04726 0.8951 0.0
Gd85 Gd 0.56868 0.06469 0.03576 0.0
C86 C 0.62146 0.90206 0.89167 0.0
C87 C 0.67375 0.872 0.0996 0.0
C88 C 0.62295 0.94936 0.09561 0.0
C89 C 0.60717 0.94623 0.96016 0.0
C90 C 0.65603 0.91172 0.1665 0.0
C91 C 0.65591 0.86643 0.9622 0.0
C92 C 0.59935 0.89319 0.75447 0.0
C93 C 0.56212 0.92529 0.68981 0.0
N94 N 0.57471 0.98252 0.89506 0.0
C95 C 0.54952 0.96879 0.76198 0.0
H96 H 0.51853 0.98892 0.70981 0.0
C97 C 0.61583 0.98714 0.28888 0.0
N98 N 0.60447 0.98732 0.15721 0.0
C99 C 0.64827 0.95039 0.36286 0.0
C100 C 0.66947 0.91384 0.30217 0.0
H101 H 0.60216 1.01728 0.34027 0.0
H102 H 0.66797 0.8332 0.91128 0.0
H103 H 0.42975 0.1723 0.0345 0.0
H104 H 0.60899 0.85939 0.69834 0.0
H105 H 0.5426 0.91599 0.58439 0.0
H106 H 0.69949 0.84319 0.15275 0.0
H107 H 0.43072 0.96047 0.61128 0.0
H108 H 0.31548 0.24376 0.74429 0.0
H109 H 0.37192 0.24533 0.97552 0.0
H110 H 0.28682 0.11806 0.34728 0.0
H111 H 0.65784 0.95154 0.46752 0.0
H112 H 0.69541 0.88646 0.36029 0.0
H113 H 0.28516 0.19748 0.50932 0.0
H114 H 0.3777 0.95258 0.37853 0.0
N115 N 0.40592 0.12905 0.8397 0.0
C116 C 0.34076 0.21141 0.76974 0.0
C117 C 0.37266 0.21261 0.90025 0.0
C118 C 0.34178 0.16844 0.67375 0.0
C119 C 0.37453 0.12636 0.7129 0.0
C120 C 0.40577 0.17167 0.93313 0.0
N121 N 0.40533 1.03928 0.66524 0.0
C122 C 0.37435 0.08037 0.62265 0.0
C123 C 0.37617 0.98854 0.44596 0.0
C124 C 0.34437 1.03054 0.40073 0.0
C125 C 0.40624 0.99317 0.57909 0.0
C126 C 0.34298 0.07702 0.48941 0.0
H127 H 0.32116 1.02674 0.29737 0.0
O128 O 0.39094 0.98108 0.84039 0.0
O129 O 0.51045 0.99367 0.00779 0.0
O130 O 0.55027 0.08753 0.83008 0.0
O131 O 0.47032 0.08615 0.743 0.0
O132 O 0.4602 0.95132 0.83892 0.0
O133 O 0.40394 1.05229 -0.00375 0.0
O134 O 0.62677 0.10304 0.21343 0.0
O135 O 0.50745 0.11955 0.97616 0.0
O136 O 0.47053 0.08239 0.10944 0.0
O137 O 0.54947 0.07787 0.20683 0.0
O138 O 0.56858 0.1671 0.03418 0.0
O139 O 0.63536 0.08515 0.03183 0.0
C140 C 0.49733 0.94209 0.93631 0.0
C141 C 0.31122 0.11994 0.44915 0.0
C142 C 0.31038 0.16528 0.54131 0.0
C143 C 0.37864 1.00374 0.93045 0.0
C144 C 0.36734 0.96157 0.00697 0.0
C145 C 0.40002 0.92594 0.08529 0.0
C146 C 0.32242 0.95625 -0.00152 0.0
C147 C 0.30934 0.91447 0.06526 0.0
C148 C 0.38734 0.88451 0.15323 0.0
C149 C 0.34211 0.87853 0.14301 0.0
C150 C 0.51039 0.0961 0.7346 0.0
C151 C 0.52547 0.17462 -0.00497 0.0
C152 C 0.65411 0.10913 0.15419 0.0
C153 C 0.68112 0.16731 0.18104 0.0
C154 C 0.66778 0.21913 0.22956 0.0
C155 C 0.72092 0.17103 0.15692 0.0
C156 C 0.74677 0.22606 0.1786 0.0
C157 C 0.69335 0.27396 0.2506 0.0
C158 C 0.73254 0.27756 0.22469 0.0
C159 C 0.51018 0.08694 0.21431 0.0
H160 H 0.43497 0.93002 0.09291 0.0
H161 H 0.29746 0.9845 0.93895 0.0
H162 H 0.41249 0.85676 0.21321 0.0
H163 H 0.33264 0.84573 0.19488 0.0
H164 H 0.6376 0.21748 0.25086 0.0
H165 H 0.73142 0.13128 0.11951 0.0
H166 H 0.68276 0.31377 0.28707 0.0
H167 H 0.7521 0.32039 0.24197 0.0
Gd168 Gd 0.57158 0.56345 0.05252 0.0
Gd169 Gd 0.44577 0.55239 0.91249 0.0
C170 C 0.37027 0.39706 0.59869 0.0
C171 C 0.34344 0.44488 0.3976 0.0
C172 C 0.38576 0.504 0.60959 0.0
C173 C 0.39038 0.45279 0.67201 0.0
C174 C 0.36286 0.50047 0.47158 0.0
C175 C 0.34695 0.39331 0.46109 0.0
C176 C 0.37409 0.34694 0.66641 0.0
C177 C 0.39577 0.35397 0.8038 0.0
N178 N 0.41425 0.45753 0.80481 0.0
C179 C 0.4143 0.41031 0.87178 0.0
H180 H 0.42975 0.41613 0.97804 0.0
C181 C 0.40231 0.60847 0.6267 0.0
N182 N 0.40585 0.55695 0.68415 0.0
C183 C 0.37989 0.60709 0.48991 0.0
C184 C 0.36076 0.55277 0.412 0.0
H185 H 0.418 0.65055 0.68497 0.0
H186 H 0.33149 0.3508 0.40298 0.0
H187 H 0.58573 0.70529 0.01634 0.0
H188 H 0.35976 0.30309 0.61392 0.0
H189 H 0.39895 0.3164 0.85829 0.0
H190 H 0.32559 0.44133 0.29136 0.0
H191 H 0.6195 0.45545 0.25103 0.0
H192 H 0.65354 0.80506 0.39839 0.0
H193 H 0.61272 0.80229 0.15554 0.0
H194 H 0.70686 0.65188 0.6809 0.0
H195 H 0.37807 0.64784 0.44459 0.0
H196 H 0.34434 0.55162 0.3061 0.0
H197 H 0.68994 0.74842 0.59332 0.0
H198 H 0.66925 0.44878 0.48196 0.0
N199 N 0.60401 0.65547 0.17858 0.0
C200 C 0.64089 0.76281 0.33717 0.0
C201 C 0.61814 0.76149 0.20071 0.0
C202 C 0.64872 0.70915 0.3927 0.0
C203 C 0.62996 0.65539 0.30928 0.0
C204 C 0.60126 0.70684 0.12222 0.0
N205 N 0.62147 0.5506 0.27315 0.0
C206 C 0.63989 0.60131 0.35797 0.0
C207 C 0.66115 0.49201 0.44842 0.0
C208 C 0.67834 0.54363 0.53722 0.0
C209 C 0.63283 0.49621 0.31632 0.0
C210 C 0.6681 0.59922 0.49235 0.0
H211 H 0.69977 0.54013 0.63973 0.0
O212 O 0.60382 0.51632 0.93821 0.0
O213 O 0.50751 0.49572 0.98401 0.0
O214 O 0.4724 0.55583 0.13427 0.0
O215 O 0.55245 0.5549 0.22424 0.0
O216 O 0.56909 0.46106 0.03266 0.0
O217 O 0.63649 0.59969 0.05019 0.0
O218 O 0.37611 0.57834 0.85976 0.0
O219 O 0.5091 0.6213 0.9882 0.0
O220 O 0.53859 0.59774 0.85447 0.0
O221 O 0.47552 0.5296 0.76251 0.0
O222 O 0.44638 0.65438 0.92031 0.0
O223 O 0.4037 0.52171 0.01326 0.0
C224 C 0.52584 0.44456 -0.00594 0.0
C225 C 0.68539 0.6526 0.5772 0.0
C226 C 0.67562 0.70752 0.52746 0.0
C227 C 0.63977 0.55485 0.97507 0.0
C228 C 0.68602 0.53071 0.01493 0.0
C229 C 0.69663 0.48594 0.09915 0.0
C230 C 0.71965 0.55103 0.96965 0.0
C231 C 0.76317 0.52662 0.01059 0.0
C232 C 0.73898 0.46197 0.13875 0.0
C233 C 0.7718 0.482 0.09533 0.0
C234 C 0.51279 0.5556 0.23481 0.0
C235 C 0.4898 0.67181 0.97022 0.0
C236 C 0.36821 0.54989 0.94622 0.0
C237 C 0.34455 0.5827 0.01965 0.0
C238 C 0.36645 0.63674 0.09609 0.0
C239 C 0.29964 0.56281 0.00974 0.0
C240 C 0.2777 0.59713 0.07723 0.0
C241 C 0.34475 0.6711 0.15894 0.0
C242 C 0.30107 0.65195 0.14901 0.0
C243 C 0.5085 0.56313 0.75174 0.0
H244 H 0.67192 0.46912 0.13417 0.0
H245 H 0.71221 0.58558 0.90452 0.0
H246 H 0.74651 0.42758 0.20411 0.0
H247 H 0.80442 0.46247 0.12856 0.0
H248 H 0.40029 0.65299 0.10533 0.0
H249 H 0.2823 0.521 0.95152 0.0
H250 H 0.36193 0.7132 0.21594 0.0
H251 H 0.28543 0.6805 0.19863 0.0
C252 C 1.0038 0.61128 0.56018 0.0
C253 C 0.01456 0.56 0.62603 0.0
C254 C 1.01187 0.6177 0.44744 0.0
C255 C 0.03006 0.5726 0.39324 0.0
H256 H 0.98884 0.64694 0.59545 0.0
H257 H 1.00235 0.65781 0.40032 0.0
S258 S 0.07187 0.43412 0.54027 0.0
N259 N 0.0505 0.46683 0.63734 0.0
N260 N 0.06426 0.47828 0.4249 0.0
C261 C 0.04344 0.52268 0.46224 0.0
C262 C 0.0358 0.51642 0.57798 0.0
C263 C 0.46904 0.09598 0.36394 0.0
C264 C 0.51049 0.10029 0.34752 0.0
C265 C 0.46907 0.10007 0.48981 0.0
C266 C 0.51045 0.10704 0.60478 0.0
H267 H 0.43623 0.08708 0.27922 0.0
H268 H 0.43635 0.09526 0.49623 0.0
S269 S 0.62786 0.13585 0.61647 0.0
N270 N 0.59368 0.12411 0.4581 0.0
N271 N 0.59373 0.12928 0.69324 0.0
C272 C 0.55189 0.11707 0.58971 0.0
C273 C 0.55189 0.114 0.46167 0.0
C274 C 0.49305 0.60598 0.53959 0.0
C275 C 0.51141 0.56184 0.62271 0.0
C276 C 0.49304 0.60311 0.4135 0.0
C277 C 0.51335 0.55751 0.36846 0.0
H278 H 0.47818 0.64269 0.57157 0.0
H279 H 0.47765 0.63736 0.35152 0.0
S280 S 0.56904 0.43369 0.55273 0.0
N281 N 0.55106 0.47186 0.65225 0.0
N282 N 0.55403 0.46877 0.41992 0.0
C283 C 0.5334 0.51449 0.45292 0.0
C284 C 0.53178 0.51615 0.579 0.0
C285 C 0.14582 0.56309 0.96493 0.0
C286 C 0.14061 0.57235 0.08448 0.0
C287 C 0.19017 0.56634 0.96206 0.0
C288 C 0.23124 0.57874 0.07863 0.0
H289 H 0.11551 0.55718 0.87252 0.0
H290 H 0.19211 0.56285 0.86757 0.0
S291 S 0.23642 0.59745 0.41759 0.0
N292 N 0.18071 0.58878 0.32182 0.0
N293 N 0.26258 0.59286 0.3175 0.0
C294 C 0.22601 0.5835 0.19836 0.0
C295 C 0.18131 0.58104 0.20096 0.0
C296 C 0.7907 0.26923 0.06234 0.0
C297 C 0.78817 0.23038 0.15085 0.0
C298 C 0.83054 0.27712 0.04014 0.0
C299 C 0.86957 0.24704 0.10698 0.0
H300 H 0.76181 0.29418 0.01093 0.0
H301 H 0.83116 0.30805 0.97201 0.0
S302 S 0.88022 0.14072 0.34986 0.0
N303 N 0.82734 0.16082 0.30446 0.0
N304 N 0.90298 0.17677 0.26516 0.0
C305 C 0.86708 0.20704 0.19372 0.0
C306 C 0.82621 0.19855 0.2153 0.0
C307 C 0.5011 0.83112 0.85661 0.0
C308 C 0.50769 0.87515 0.96376 0.0
C309 C 0.50009 0.76748 0.86384 0.0
C310 C 0.50526 0.7407 0.97906 0.0
H311 H 0.49462 0.84603 0.7619 0.0
H312 H 0.49266 0.73845 0.7743 0.0
S313 S 0.5213 0.83245 0.29085 0.0
N314 N 0.51939 0.8838 0.19259 0.0
N315 N 0.51509 0.76708 0.20419 0.0
C316 C 0.51153 0.78406 0.08748 0.0
C317 C 0.51375 0.84942 0.08098 0.0
C318 C 0.84437 0.52526 0.83552 0.0
C319 C 0.88662 0.55341 0.93318 0.0
C320 C 0.80314 0.52132 0.85511 0.0
C321 C 0.80166 0.5463 0.97272 0.0
H322 H 0.84362 0.5032 0.74496 0.0
H323 H 0.77293 0.49535 0.78072 0.0
S324 S 0.90017 0.62844 0.25691 0.0
N325 N 0.92244 0.60842 0.15172 0.0
N326 N 0.84523 0.60323 0.18474 0.0
C327 C 0.84265 0.57734 0.06783 0.0
C328 C 0.88484 0.58046 0.04921 0.0
C329 C 0.20553 0.90483 0.14868 0.0
C330 C 0.16863 0.89328 0.02385 0.0
C331 C 0.25117 0.91152 0.16175 0.0
C332 C 0.2611 0.90771 0.05026 0.0
H333 H 0.19916 0.90621 0.23664 0.0
H334 H 0.27884 0.91923 0.2595 0.0
S335 S 0.17624 0.87884 0.70187 0.0
N336 N 0.14461 0.87891 0.78731 0.0
N337 N 0.23029 0.89201 0.81135 0.0
C338 C 0.2243 0.89749 0.92494 0.0
C339 C 0.17805 0.89018 0.91187 0.0
C340 C 0.51437 0.33549 0.87443 0.0
C341 C 0.50974 0.37512 0.97389 0.0
C342 C 0.51377 0.27115 0.87375 0.0
C343 C 0.50853 0.23933 0.97251 0.0
H344 H 0.52126 0.35485 0.79844 0.0
H345 H 0.52051 0.24617 0.7977 0.0
S346 S 0.49994 0.31893 0.26601 0.0
N347 N 0.50258 0.37409 0.18079 0.0
N348 N 0.50186 0.2569 0.17992 0.0
C349 C 0.50413 0.27833 0.07308 0.0
C350 C 0.5047 0.34398 0.07379 0.0
loop_
_geom_bond_atom_site_label_1
_geom_bond_atom_site_label_2
_geom_bond_distance
_geom_bond_site_symmetry_2
_ccdc_geom_bond_type
Gd0 N31 2.661 1_454 S
Gd0 N37 2.601 . S
Gd0 O44 2.545 . S
Gd0 O45 2.606 . S
Gd0 O47 2.429 . S
Gd0 O48 2.545 . S
Gd0 O49 2.412 1_554 S
Gd0 O51 2.362 1_454 S
Gd0 O52 2.324 1_454 S
Gd0 C59 2.828 . S
Gd1 N10 2.661 1_656 S
Gd1 N14 2.601 . S
Gd1 O45 2.362 1_656 S
Gd1 O46 2.324 1_656 S
Gd1 O50 2.545 . S
Gd1 O51 2.606 . S
Gd1 O53 2.429 . S
Gd1 O54 2.545 . S
Gd1 O55 2.412 1_556 S
Gd1 C68 2.828 . S
C2 C5 1.417 . S
C2 C7 1.431 1_554 S
C2 C8 1.412 . S
C3 C6 1.437 . S
C3 C7 1.317 . S
C3 H22 0.929 . S
C4 C5 1.426 1_556 S
C4 C6 1.413 . S
C4 N14 1.359 1_455 S
C5 C2 1.417 . S
C5 C4 1.426 1_554 S
C5 N10 1.350 . S
C6 C3 1.437 . S
C6 C4 1.413 . S
C6 C16 1.391 . S
C7 C2 1.431 1_556 S
C7 C3 1.317 . S
C7 H18 0.930 1_556 S
C8 C2 1.412 . S
C8 C9 1.355 . S
C8 H20 0.930 . S
C9 C8 1.355 . S
C9 C11 1.402 . S
C9 H21 0.930 . S
N10 Gd1 2.661 1_454 S
N10 C5 1.350 . S
N10 C11 1.307 . S
C11 C9 1.402 . S
C11 N10 1.307 . S
C11 H12 0.930 . S
H12 C11 0.930 . S
C13 N14 1.334 . S
C13 C15 1.394 . S
C13 H17 0.930 . S
N14 Gd1 2.601 . S
N14 C4 1.359 1_655 S
N14 C13 1.334 . S
C15 C13 1.394 . S
C15 C16 1.359 1_655 S
C15 H27 0.930 . S
C16 C6 1.391 . S
C16 C15 1.359 1_455 S
C16 H28 0.929 . S
H17 C13 0.930 . S
H18 C7 0.930 1_554 S
H19 C36 0.930 . S
H20 C8 0.930 . S
H21 C9 0.930 . S
H22 C3 0.929 . S
H23 C41 0.930 . S
H24 C32 0.930 . S
H25 C33 0.930 . S
H26 C57 0.929 . S
H27 C15 0.930 . S
H28 C16 0.929 . S
H29 C58 0.930 1_556 S
H30 C39 0.930 . S
N31 Gd0 2.661 1_656 S
N31 C35 1.350 . S
N31 C36 1.307 . S
C32 H24 0.930 . S
C32 C33 1.355 . S
C32 C34 1.412 . S
C33 H25 0.930 . S
C33 C32 1.355 . S
C33 C36 1.402 . S
C34 C32 1.412 . S
C34 C35 1.417 . S
C34 C58 1.431 1_556 S
C35 N31 1.350 . S
C35 C34 1.417 . S
C35 C38 1.426 1_556 S
C36 H19 0.930 . S
C36 N31 1.307 . S
C36 C33 1.402 . S
N37 Gd0 2.601 . S
N37 C38 1.359 1_455 S
N37 C41 1.334 . S
C38 C35 1.426 1_554 S
C38 N37 1.359 1_655 S
C38 C42 1.413 . S
C39 H30 0.930 . S
C39 C40 1.359 1_455 S
C39 C41 1.394 . S
C40 C39 1.359 1_655 S
C40 C42 1.391 . S
C40 H43 0.929 . S
C41 H23 0.930 . S
C41 N37 1.334 . S
C41 C39 1.394 . S
C42 C38 1.413 . S
C42 C40 1.391 . S
C42 C57 1.437 . S
H43 C40 0.929 . S
O44 Gd0 2.545 . S
O44 C59 1.258 . S
O45 Gd0 2.606 . S
O45 Gd1 2.362 1_454 S
O45 C56 1.284 . S
O46 Gd1 2.324 1_454 S
O46 C66 1.254 . S
O47 Gd0 2.429 . S
O47 C66 1.268 . S
O48 Gd0 2.545 . S
O48 C56 1.250 . S
O49 Gd0 2.412 1_556 S
O49 C59 1.252 1_556 S
O50 Gd1 2.545 . S
O50 C68 1.258 . S
O51 Gd0 2.362 1_656 S
O51 Gd1 2.606 . S
O51 C67 1.284 . S
O52 Gd0 2.324 1_656 S
O52 C75 1.254 . S
O53 Gd1 2.429 . S
O53 C75 1.268 . S
O54 Gd1 2.545 . S
O54 C67 1.250 . S
O55 Gd1 2.412 1_554 S
O55 C68 1.252 1_554 S
C56 O45 1.284 . S
C56 O48 1.250 . S
C57 H26 0.929 . S
C57 C42 1.437 . S
C57 C58 1.317 . S
C58 H29 0.930 1_554 S
C58 C34 1.431 1_554 S
C58 C57 1.317 . S
C59 Gd0 2.828 . S
C59 O44 1.258 . S
C59 O49 1.252 1_554 S
C59 C60 1.497 . S
C60 C59 1.497 . S
C60 C61 1.395 . S
C60 C62 1.380 1_554 S
C61 C60 1.395 . S
C61 C64 1.398 . S
C61 H76 0.930 . S
C62 C60 1.380 1_556 S
C62 C63 1.391 1_556 S
C62 H77 0.930 . S
C63 C62 1.391 1_554 S
C63 C65 1.387 . S
C64 C61 1.398 . S
C64 C65 1.380 . S
C64 H78 0.930 . S
C65 C63 1.387 . S
C65 C64 1.380 . S
C65 H79 0.930 . S
C66 O46 1.254 . S
C66 O47 1.268 . S
C67 O51 1.284 . S
C67 O54 1.250 . S
C68 Gd1 2.828 . S
C68 O50 1.258 . S
C68 O55 1.252 1_556 S
C68 C69 1.497 . S
C69 C68 1.497 . S
C69 C70 1.395 . S
C69 C71 1.380 1_556 S
C70 C69 1.395 . S
C70 C73 1.398 . S
C70 H80 0.930 . S
C71 C69 1.380 1_554 S
C71 C72 1.391 1_554 S
C71 H81 0.930 . S
C72 C71 1.391 1_556 S
C72 C74 1.387 . S
C73 C70 1.398 . S
C73 C74 1.380 . S
C73 H82 0.930 . S
C74 C72 1.387 . S
C74 C73 1.380 . S
C74 H83 0.930 . S
C75 O52 1.254 . S
C75 O53 1.268 . S
H76 C61 0.930 . S
H77 C62 0.930 . S
H78 C64 0.930 . S
H79 C65 0.930 . S
H80 C70 0.930 . S
H81 C71 0.930 . S
H82 C73 0.930 . S
H83 C74 0.930 . S
Gd84 N115 2.661 1_565 S
Gd84 N121 2.601 1_565 S
Gd84 O128 2.545 . S
Gd84 O129 2.606 1_556 S
Gd84 O131 2.429 . S
Gd84 O132 2.545 . S
Gd84 O133 2.412 . S
Gd84 O135 2.362 1_565 S
Gd84 O136 2.324 1_556 S
Gd84 C143 2.828 . S
Gd85 N94 2.661 1_545 S
Gd85 N98 2.601 1_545 S
Gd85 O129 2.362 1_545 S
Gd85 O130 2.324 1_554 S
Gd85 O134 2.545 . S
Gd85 O135 2.606 1_554 S
Gd85 O137 2.429 . S
Gd85 O138 2.545 . S
Gd85 O139 2.412 . S
Gd85 C152 2.828 . S
C86 C89 1.417 . S
C86 C91 1.431 . S
C86 C92 1.412 1_554 S
C87 C90 1.437 . S
C87 C91 1.317 . S
C87 H106 0.929 . S
C88 C89 1.426 . S
C88 C90 1.413 . S
C88 N98 1.359 . S
C89 C86 1.417 . S
C89 C88 1.426 . S
C89 N94 1.350 . S
C90 C87 1.437 . S
C90 C88 1.413 . S
C90 C100 1.391 . S
C91 C86 1.431 . S
C91 C87 1.317 . S
C91 H102 0.930 . S
C92 C86 1.412 1_556 S
C92 C93 1.355 . S
C92 H104 0.930 . S
C93 C92 1.355 . S
C93 C95 1.402 . S
C93 H105 0.930 . S
N94 Gd85 2.661 1_565 S
N94 C89 1.350 . S
N94 C95 1.307 1_554 S
C95 C93 1.402 . S
C95 N94 1.307 1_556 S
C95 H96 0.930 . S
H96 C95 0.930 . S
C97 N98 1.334 . S
C97 C99 1.394 . S
C97 H101 0.930 1_565 S
N98 Gd85 2.601 1_565 S
N98 C88 1.359 . S
N98 C97 1.334 . S
C99 C97 1.394 . S
C99 C100 1.359 . S
C99 H111 0.930 . S
C100 C90 1.391 . S
C100 C99 1.359 . S
C100 H112 0.929 . S
H101 C97 0.930 1_545 S
H102 C91 0.930 . S
H103 C120 0.930 . S
H104 C92 0.930 . S
H105 C93 0.930 . S
H106 C87 0.929 . S
H107 C125 0.930 1_565 S
H108 C116 0.930 . S
H109 C117 0.930 . S
H110 C141 0.929 . S
H111 C99 0.930 . S
H112 C100 0.929 . S
H113 C142 0.930 . S
H114 C123 0.930 . S
N115 Gd84 2.661 1_545 S
N115 C119 1.350 . S
N115 C120 1.307 1_556 S
C116 H108 0.930 . S
C116 C117 1.355 . S
C116 C118 1.412 1_554 S
C117 H109 0.930 . S
C117 C116 1.355 . S
C117 C120 1.402 . S
C118 C116 1.412 1_556 S
C118 C119 1.417 . S
C118 C142 1.431 . S
C119 N115 1.350 . S
C119 C118 1.417 . S
C119 C122 1.426 . S
C120 H103 0.930 . S
C120 N115 1.307 1_554 S
C120 C117 1.402 . S
N121 Gd84 2.601 1_545 S
N121 C122 1.359 . S
N121 C125 1.334 . S
C122 C119 1.426 . S
C122 N121 1.359 . S
C122 C126 1.413 . S
C123 H114 0.930 . S
C123 C124 1.359 . S
C123 C125 1.394 . S
C124 C123 1.359 . S
C124 C126 1.391 . S
C124 H127 0.929 . S
C125 H107 0.930 1_545 S
C125 N121 1.334 . S
C125 C123 1.394 . S
C126 C122 1.413 . S
C126 C124 1.391 . S
C126 C141 1.437 . S
H127 C124 0.929 . S
O128 Gd84 2.545 . S
O128 C143 1.258 . S
O129 Gd84 2.606 1_554 S
O129 Gd85 2.362 1_565 S
O129 C140 1.284 . S
O130 Gd85 2.324 1_556 S
O130 C150 1.253 . S
O131 Gd84 2.429 . S
O131 C150 1.266 1_565 S
O132 Gd84 2.545 . S
O132 C140 1.250 1_556 S
O133 Gd84 2.412 . S
O133 C143 1.252 . S
O134 Gd85 2.545 . S
O134 C152 1.258 . S
O135 Gd84 2.362 1_545 S
O135 Gd85 2.606 1_556 S
O135 C151 1.284 . S
O136 Gd84 2.324 1_554 S
O136 C159 1.254 . S
O137 Gd85 2.429 . S
O137 C159 1.268 1_545 S
O138 Gd85 2.545 . S
O138 C151 1.250 1_554 S
O139 Gd85 2.412 . S
O139 C152 1.252 . S
C140 O129 1.284 . S
C140 O132 1.250 1_554 S
C141 H110 0.929 . S
C141 C126 1.437 . S
C141 C142 1.317 . S
C142 H113 0.930 . S
C142 C118 1.431 . S
C142 C141 1.317 . S
C143 Gd84 2.828 . S
C143 O128 1.258 . S
C143 O133 1.252 . S
C143 C144 1.497 . S
C144 C143 1.497 . S
C144 C145 1.395 . S
C144 C146 1.380 . S
C145 C144 1.395 . S
C145 C148 1.398 . S
C145 H160 0.930 . S
C146 C144 1.380 . S
C146 C147 1.391 . S
C146 H161 0.930 1_556 S
C147 C146 1.391 . S
C147 C149 1.387 . S
C148 C145 1.398 . S
C148 C149 1.380 . S
C148 H162 0.930 . S
C149 C147 1.387 . S
C149 C148 1.380 . S
C149 H163 0.930 . S
C150 O130 1.253 . S
C150 O131 1.266 1_545 S
C151 O135 1.284 . S
C151 O138 1.250 1_556 S
C152 Gd85 2.828 . S
C152 O134 1.258 . S
C152 O139 1.252 . S
C152 C153 1.497 . S
C153 C152 1.497 . S
C153 C154 1.395 . S
C153 C155 1.380 . S
C154 C153 1.395 . S
C154 C157 1.398 . S
C154 H164 0.930 . S
C155 C153 1.380 . S
C155 C156 1.391 . S
C155 H165 0.930 1_554 S
C156 C155 1.391 . S
C156 C158 1.387 . S
C157 C154 1.398 . S
C157 C158 1.380 . S
C157 H166 0.930 . S
C158 C156 1.387 . S
C158 C157 1.380 . S
C158 H167 0.930 . S
C159 O136 1.254 . S
C159 O137 1.268 1_565 S
H160 C145 0.930 . S
H161 C146 0.930 1_554 S
H162 C148 0.930 . S
H163 C149 0.930 . S
H164 C154 0.930 . S
H165 C155 0.930 1_556 S
H166 C157 0.930 . S
H167 C158 0.930 . S
Gd168 N199 2.661 . S
Gd168 N205 2.601 . S
Gd168 O212 2.545 . S
Gd168 O213 2.606 1_554 S
Gd168 O215 2.429 . S
Gd168 O216 2.545 . S
Gd168 O217 2.412 . S
Gd168 O219 2.362 . S
Gd168 O220 2.324 1_554 S
Gd168 C227 2.828 . S
Gd169 N178 2.661 . S
Gd169 N182 2.601 . S
Gd169 O213 2.362 . S
Gd169 O214 2.324 1_556 S
Gd169 O218 2.545 . S
Gd169 O219 2.606 1_556 S
Gd169 O221 2.429 . S
Gd169 O222 2.545 . S
Gd169 O223 2.412 . S
Gd169 C236 2.828 . S
C170 C173 1.417 . S
C170 C175 1.431 . S
C170 C176 1.412 1_556 S
C171 C174 1.437 . S
C171 C175 1.317 . S
C171 H190 0.929 . S
C172 C173 1.426 . S
C172 C174 1.413 . S
C172 N182 1.359 . S
C173 C170 1.417 . S
C173 C172 1.426 . S
C173 N178 1.350 . S
C174 C171 1.437 . S
C174 C172 1.413 . S
C174 C184 1.391 . S
C175 C170 1.431 . S
C175 C171 1.317 . S
C175 H186 0.930 . S
C176 C170 1.412 1_554 S
C176 C177 1.355 . S
C176 H188 0.930 . S
C177 C176 1.355 . S
C177 C179 1.402 . S
C177 H189 0.930 . S
N178 Gd169 2.661 . S
N178 C173 1.350 . S
N178 C179 1.307 1_556 S
C179 C177 1.402 . S
C179 N178 1.307 1_554 S
C179 H180 0.930 . S
H180 C179 0.930 . S
C181 N182 1.334 . S
C181 C183 1.394 . S
C181 H185 0.930 . S
N182 Gd169 2.601 . S
N182 C172 1.359 . S
N182 C181 1.334 . S
C183 C181 1.394 . S
C183 C184 1.359 . S
C183 H195 0.930 . S
C184 C174 1.391 . S
C184 C183 1.359 . S
C184 H196 0.929 . S
H185 C181 0.930 . S
H186 C175 0.930 . S
H187 C204 0.930 . S
H188 C176 0.930 . S
H189 C177 0.930 . S
H190 C171 0.929 . S
H191 C209 0.930 . S
H192 C200 0.930 . S
H193 C201 0.930 . S
H194 C225 0.929 . S
H195 C183 0.930 . S
H196 C184 0.929 . S
H197 C226 0.930 . S
H198 C207 0.930 . S
N199 Gd168 2.661 . S
N199 C203 1.350 . S
N199 C204 1.307 1_554 S
C200 H192 0.930 . S
C200 C201 1.355 . S
C200 C202 1.412 1_556 S
C201 H193 0.930 . S
C201 C200 1.355 . S
C201 C204 1.402 . S
C202 C200 1.412 1_554 S
C202 C203 1.417 . S
C202 C226 1.431 . S
C203 N199 1.350 . S
C203 C202 1.417 . S
C203 C206 1.426 . S
C204 H187 0.930 . S
C204 N199 1.307 1_556 S
C204 C201 1.402 . S
N205 Gd168 2.601 . S
N205 C206 1.359 . S
N205 C209 1.334 . S
C206 C203 1.426 . S
C206 N205 1.359 . S
C206 C210 1.413 . S
C207 H198 0.930 . S
C207 C208 1.359 . S
C207 C209 1.394 . S
C208 C207 1.359 . S
C208 C210 1.391 . S
C208 H211 0.929 . S
C209 H191 0.930 . S
C209 N205 1.334 . S
C209 C207 1.394 . S
C210 C206 1.413 . S
C210 C208 1.391 . S
C210 C225 1.437 . S
H211 C208 0.929 . S
O212 Gd168 2.545 . S
O212 C227 1.258 . S
O213 Gd168 2.606 1_556 S
O213 Gd169 2.362 . S
O213 C224 1.284 . S
O214 Gd169 2.324 1_554 S
O214 C234 1.254 . S
O215 Gd168 2.429 . S
O215 C234 1.268 . S
O216 Gd168 2.545 . S
O216 C224 1.250 1_554 S
O217 Gd168 2.412 . S
O217 C227 1.252 . S
O218 Gd169 2.545 . S
O218 C236 1.258 . S
O219 Gd168 2.362 . S
O219 Gd169 2.606 1_554 S
O219 C235 1.284 . S
O220 Gd168 2.324 1_556 S
O220 C243 1.254 . S
O221 Gd169 2.429 . S
O221 C243 1.268 . S
O222 Gd169 2.545 . S
O222 C235 1.250 1_556 S
O223 Gd169 2.412 . S
O223 C236 1.252 . S
C224 O213 1.284 . S
C224 O216 1.250 1_556 S
C225 H194 0.929 . S
C225 C210 1.437 . S
C225 C226 1.317 . S
C226 H197 0.930 . S
C226 C202 1.431 . S
C226 C225 1.317 . S
C227 Gd168 2.828 . S
C227 O212 1.258 . S
C227 O217 1.252 . S
C227 C228 1.497 . S
C228 C227 1.497 . S
C228 C229 1.395 . S
C228 C230 1.380 . S
C229 C228 1.395 . S
C229 C232 1.398 . S
C229 H244 0.930 . S
C230 C228 1.380 . S
C230 C231 1.391 . S
C230 H245 0.930 1_554 S
C231 C230 1.391 . S
C231 C233 1.387 . S
C232 C229 1.398 . S
C232 C233 1.380 . S
C232 H246 0.930 . S
C233 C231 1.387 . S
C233 C232 1.380 . S
C233 H247 0.930 . S
C234 O214 1.254 . S
C234 O215 1.268 . S
C235 O219 1.284 . S
C235 O222 1.250 1_554 S
C236 Gd169 2.828 . S
C236 O218 1.258 . S
C236 O223 1.252 . S
C236 C237 1.497 . S
C237 C236 1.497 . S
C237 C238 1.395 . S
C237 C239 1.380 . S
C238 C237 1.395 . S
C238 C241 1.398 . S
C238 H248 0.930 . S
C239 C237 1.380 . S
C239 C240 1.391 . S
C239 H249 0.930 1_556 S
C240 C239 1.391 . S
C240 C242 1.387 . S
C241 C238 1.398 . S
C241 C242 1.380 . S
C241 H250 0.930 . S
C242 C240 1.387 . S
C242 C241 1.380 . S
C242 H251 0.930 . S
C243 O220 1.254 . S
C243 O221 1.268 . S
H244 C229 0.930 . S
H245 C230 0.930 1_556 S
H246 C232 0.930 . S
H247 C233 0.930 . S
H248 C238 0.930 . S
H249 C239 0.930 1_554 S
H250 C241 0.930 . S
H251 C242 0.930 . S
C252 C253 1.369 . S
C252 C254 1.419 . S
C252 H256 0.930 . S
C253 C252 1.369 . S
C253 C262 1.429 1_655 S
C254 C252 1.419 . S
C254 C255 1.363 1_655 S
C254 H257 0.929 . S
C255 C254 1.363 1_455 S
C255 C261 1.428 . S
H256 C252 0.930 . S
H257 C254 0.929 . S
S258 N259 1.613 . S
S258 N260 1.610 . S
N259 S258 1.613 . S
N259 C262 1.350 . S
N260 S258 1.610 . S
N260 C261 1.351 . S
C261 C255 1.428 . S
C261 N260 1.351 . S
C261 C262 1.434 . S
C262 C253 1.429 1_455 S
C262 N259 1.350 . S
C262 C261 1.434 . S
C263 C264 1.369 . S
C263 C265 1.419 . S
C263 H267 0.930 . S
C264 C263 1.369 . S
C264 C273 1.429 1_565 S
C265 C263 1.419 . S
C265 C266 1.363 1_565 S
C265 H268 0.929 . S
C266 C265 1.363 1_545 S
C266 C272 1.428 . S
H267 C263 0.930 . S
H268 C265 0.929 . S
S269 N270 1.613 . S
S269 N271 1.610 . S
N270 S269 1.613 . S
N270 C273 1.350 . S
N271 S269 1.610 . S
N271 C272 1.351 . S
C272 C266 1.428 . S
C272 N271 1.351 . S
C272 C273 1.434 . S
C273 C264 1.429 1_545 S
C273 N270 1.350 . S
C273 C272 1.434 . S
C274 C275 1.369 . S
C274 C276 1.419 . S
C274 H278 0.930 . S
C275 C274 1.369 . S
C275 C284 1.429 . S
C276 C274 1.419 . S
C276 C277 1.363 . S
C276 H279 0.929 . S
C277 C276 1.363 . S
C277 C283 1.428 . S
H278 C274 0.930 . S
H279 C276 0.929 . S
S280 N281 1.613 . S
S280 N282 1.610 . S
N281 S280 1.613 . S
N281 C284 1.350 . S
N282 S280 1.610 . S
N282 C283 1.351 . S
C283 C277 1.428 . S
C283 N282 1.351 . S
C283 C284 1.434 . S
C284 C275 1.429 . S
C284 N281 1.350 . S
C284 C283 1.434 . S
C285 C286 1.369 1_556 S
C285 C287 1.419 . S
C285 H289 0.930 . S
C286 C285 1.369 1_554 S
C286 C295 1.429 . S
C287 C285 1.419 . S
C287 C288 1.363 1_556 S
C287 H290 0.929 . S
C288 C287 1.363 1_554 S
C288 C294 1.428 . S
H289 C285 0.930 . S
H290 C287 0.929 . S
S291 N292 1.613 . S
S291 N293 1.610 . S
N292 S291 1.613 . S
N292 C295 1.350 . S
N293 S291 1.610 . S
N293 C294 1.351 . S
C294 C288 1.428 . S
C294 N293 1.351 . S
C294 C295 1.434 . S
C295 C286 1.429 . S
C295 N292 1.350 . S
C295 C294 1.434 . S
C296 C297 1.369 1_556 S
C296 C298 1.419 . S
C296 H300 0.930 . S
C297 C296 1.369 1_554 S
C297 C306 1.429 . S
C298 C296 1.419 . S
C298 C299 1.363 1_556 S
C298 H301 0.929 . S
C299 C298 1.363 1_554 S
C299 C305 1.428 . S
H300 C296 0.930 . S
H301 C298 0.929 . S
S302 N303 1.613 . S
S302 N304 1.610 . S
N303 S302 1.613 . S
N303 C306 1.350 . S
N304 S302 1.610 . S
N304 C305 1.351 . S
C305 C299 1.428 . S
C305 N304 1.351 . S
C305 C306 1.434 . S
C306 C297 1.429 . S
C306 N303 1.350 . S
C306 C305 1.434 . S
C307 C308 1.369 1_556 S
C307 C309 1.419 . S
C307 H311 0.930 . S
C308 C307 1.369 1_554 S
C308 C317 1.429 . S
C309 C307 1.419 . S
C309 C310 1.363 1_556 S
C309 H312 0.929 . S
C310 C309 1.363 1_554 S
C310 C316 1.428 . S
H311 C307 0.930 . S
H312 C309 0.929 . S
S313 N314 1.613 . S
S313 N315 1.610 . S
N314 S313 1.613 . S
N314 C317 1.350 . S
N315 S313 1.610 . S
N315 C316 1.351 . S
C316 C310 1.428 . S
C316 N315 1.351 . S
C316 C317 1.434 . S
C317 C308 1.429 . S
C317 N314 1.350 . S
C317 C316 1.434 . S
C318 C319 1.369 . S
C318 C320 1.419 . S
C318 H322 0.930 . S
C319 C318 1.369 . S
C319 C328 1.429 1_556 S
C320 C318 1.419 . S
C320 C321 1.363 . S
C320 H323 0.929 . S
C321 C320 1.363 . S
C321 C327 1.428 1_556 S
H322 C318 0.930 . S
H323 C320 0.929 . S
S324 N325 1.613 . S
S324 N326 1.610 . S
N325 S324 1.613 . S
N325 C328 1.350 . S
N326 S324 1.610 . S
N326 C327 1.351 . S
C327 C321 1.428 1_554 S
C327 N326 1.351 . S
C327 C328 1.434 . S
C328 C319 1.429 1_554 S
C328 N325 1.350 . S
C328 C327 1.434 . S
C329 C330 1.369 . S
C329 C331 1.415 . S
C329 H333 0.930 1_556 S
C330 C329 1.369 . S
C330 C339 1.429 . S
C331 C329 1.415 . S
C331 C332 1.366 . S
C331 H334 0.930 1_556 S
C332 C331 1.366 . S
C332 C338 1.428 . S
H333 C329 0.930 1_554 S
H334 C331 0.930 1_554 S
S335 N336 1.613 . S
S335 N337 1.610 . S
N336 S335 1.613 . S
N336 C339 1.350 . S
N337 S335 1.610 . S
N337 C338 1.351 . S
C338 C332 1.428 . S
C338 N337 1.351 . S
C338 C339 1.434 . S
C339 C330 1.429 . S
C339 N336 1.350 . S
C339 C338 1.434 . S
C340 C341 1.369 . S
C340 C342 1.419 . S
C340 H344 0.930 . S
C341 C340 1.369 . S
C341 C350 1.429 . S
C342 C340 1.419 . S
C342 C343 1.363 . S
C342 H345 0.929 . S
C343 C342 1.363 . S
C343 C349 1.428 . S
H344 C340 0.930 . S
H345 C342 0.929 . S
S346 N347 1.613 . S
S346 N348 1.610 . S
N347 S346 1.613 . S
N347 C350 1.350 1_554 S
N348 S346 1.610 . S
N348 C349 1.351 1_554 S
C349 C343 1.428 . S
C349 N348 1.351 1_556 S
C349 C350 1.434 . S
C350 C341 1.429 . S
C350 N347 1.350 1_556 S
C350 C349 1.434 . S
C253 C75 1.496 . S
C255 C66 1.491 . S
C264 C159 1.463 . S
C266 C150 1.474 . S
C275 C243 1.485 . S
C277 C234 1.486 . S
C286 C56 1.662 . S
C288 C240 1.630 1_554 S
C297 C156 0.813 . S
C299 C72 0.860 1_554 S
C308 C140 2.347 . S
C310 C235 2.445 . S
C319 C67 1.673 . S
C321 C231 1.624 1_556 S
C330 C63 0.856 1_556 S
C332 C147 0.818 . S
C341 C224 2.440 . S
C343 C151 2.343 . S
