# Generated by pormake.
# Topology ecf, (8)-cn, num edge types: 1
# Building blocks:
#     Node 0, Type 0, BuildingBlock: LIZSOE_clean_sbu_0, # of connection points: 8
#     Node 1, Type 0, BuildingBlock: LIZSOE_clean_sbu_0, # of connection points: 8
#     Node 2, Type 0, BuildingBlock: LIZSOE_clean_sbu_0, # of connection points: 8
#     Node 3, Type 0, BuildingBlock: LIZSOE_clean_sbu_0, # of connection points: 8
#     Node 4, Type 0, BuildingBlock: LIZSOE_clean_sbu_0, # of connection points: 8
#     Node 5, Type 0, BuildingBlock: LIZSOE_clean_sbu_0, # of connection points: 8
#     Edge 6, Type (0, 0), BuildingBlock: OJICUG_clean_linker_0, # of connection points: 2
#     Edge 7, Type (0, 0), BuildingBlock: OJICUG_clean_linker_0, # of connection points: 2
#     Edge 8, Type (0, 0), BuildingBlock: OJICUG_clean_linker_0, # of connection points: 2
#     Edge 9, Type (0, 0), BuildingBlock: OJICUG_clean_linker_0, # of connection points: 2
#     Edge 10, Type (0, 0), BuildingBlock: OJICUG_clean_linker_0, # of connection points: 2
#     Edge 11, Type (0, 0), BuildingBlock: OJICUG_clean_linker_0, # of connection points: 2
#     Edge 12, Type (0, 0), BuildingBlock: OJICUG_clean_linker_0, # of connection points: 2
#     Edge 13, Type (0, 0), BuildingBlock: OJICUG_clean_linker_0, # of connection points: 2
#     Edge 14, Type (0, 0), BuildingBlock: OJICUG_clean_linker_0, # of connection points: 2
#     Edge 15, Type (0, 0), BuildingBlock: OJICUG_clean_linker_0, # of connection points: 2
#     Edge 16, Type (0, 0), BuildingBlock: OJICUG_clean_linker_0, # of connection points: 2
#     Edge 17, Type (0, 0), BuildingBlock: OJICUG_clean_linker_0, # of connection points: 2
#     Edge 18, Type (0, 0), BuildingBlock: OJICUG_clean_linker_0, # of connection points: 2
#     Edge 19, Type (0, 0), BuildingBlock: OJICUG_clean_linker_0, # of connection points: 2
#     Edge 20, Type (0, 0), BuildingBlock: OJICUG_clean_linker_0, # of connection points: 2
#     Edge 21, Type (0, 0), BuildingBlock: OJICUG_clean_linker_0, # of connection points: 2
#     Edge 22, Type (0, 0), BuildingBlock: OJICUG_clean_linker_0, # of connection points: 2
#     Edge 23, Type (0, 0), BuildingBlock: OJICUG_clean_linker_0, # of connection points: 2
#     Edge 24, Type (0, 0), BuildingBlock: OJICUG_clean_linker_0, # of connection points: 2
#     Edge 25, Type (0, 0), BuildingBlock: OJICUG_clean_linker_0, # of connection points: 2
#     Edge 26, Type (0, 0), BuildingBlock: OJICUG_clean_linker_0, # of connection points: 2
#     Edge 27, Type (0, 0), BuildingBlock: OJICUG_clean_linker_0, # of connection points: 2
#     Edge 28, Type (0, 0), BuildingBlock: OJICUG_clean_linker_0, # of connection points: 2
#     Edge 29, Type (0, 0), BuildingBlock: OJICUG_clean_linker_0, # of connection points: 2
# Relax obj value: 0.291
# Max RMSD: 0.208
# Mean RMSD: 0.204
data_MOF--net-ecf--node1-LIZSOE_clean_sbu_0--edge1-OJICUG_clean_linker_0
_symmetry_space_group_name_H-M    P1
_symmetry_Int_Tables_number       1
_symmetry_cell_setting            triclinic
loop_
_symmetry_equiv_pos_as_xyz
'x, y, z'
_cell_length_a     29.464579
_cell_length_b     29.391695
_cell_length_c     14.932378
_cell_angle_alpha  90.0532
_cell_angle_beta   89.902237
_cell_angle_gamma 119.70626
loop_
_atom_site_label
_atom_site_type_symbol
_atom_site_fract_x
_atom_site_fract_y
_atom_site_fract_z
_atom_type_partial_charge
Co0 Co 0.08887 0.25443 0.36927 0.0
N1 N 0.05532 0.18387 0.36262 0.0
C2 C 0.06722 0.15443 0.30833 0.0
N3 N 0.99184 0.10143 0.36968 0.0
C4 C 1.00895 0.15046 0.39905 0.0
C5 C 1.02825 0.10356 0.31307 0.0
Co6 Co 0.30413 0.43103 0.22931 0.0
N7 N 0.36863 0.49029 0.23854 0.0
N8 N 0.43695 0.57043 0.2589 0.0
C9 C 0.45177 0.53526 0.27982 0.0
C10 C 0.41001 0.48619 0.26608 0.0
C11 C 0.3866 0.54245 0.23238 0.0
Co12 Co 0.18304 0.35008 0.29414 0.0
C13 C 0.26112 0.39121 0.12864 0.0
H14 H 0.40896 0.44951 0.27944 0.0
O15 O 0.11895 0.32195 0.38137 0.0
O16 O 0.19295 0.4188 0.3274 0.0
O17 O 0.13151 0.34137 0.19726 0.0
O18 O 0.17646 0.28532 0.24923 0.0
O19 O 0.15154 0.24999 0.37588 0.0
O20 O 0.27119 0.46902 0.26762 0.0
O21 O 0.24627 0.37603 0.21145 0.0
O22 O 0.31128 0.41185 0.34692 0.0
O23 O 0.08041 0.25794 0.23984 0.0
O24 O 0.09627 0.25723 0.4845 0.0
O25 O 0.23121 0.35338 0.39568 0.0
O26 O 0.29288 0.44102 0.11496 0.0
C27 C 0.08992 0.29628 0.18698 0.0
C28 C 0.35378 0.56612 0.20512 0.0
H29 H 0.32369 0.54055 0.15614 0.0
H30 H 0.33457 0.57098 0.26544 0.0
H31 H 0.37738 0.60524 0.17458 0.0
C32 C 0.23023 0.46321 0.30591 0.0
C33 C 0.17899 0.25765 0.30823 0.0
H34 H 0.0994 0.16914 0.26174 0.0
H35 H 0.99974 0.19239 0.50864 0.0
H36 H 0.94028 0.13448 0.47797 0.0
H37 H 0.96634 0.19145 0.40727 0.0
C38 C 0.97676 0.16779 0.45153 0.0
C39 C 0.10367 0.30324 0.46379 0.0
C40 C 0.28125 0.37871 0.40451 0.0
H41 H 1.02435 0.07149 0.27178 0.0
H42 H 0.4897 0.54455 0.30578 0.0
Co43 Co 0.85995 0.05796 0.83601 0.0
N44 N 0.83427 0.98987 0.87515 0.0
C45 C 0.78427 0.9561 0.89858 0.0
N46 N 0.82773 0.91471 0.9223 0.0
C47 C 0.85963 0.96293 0.88832 0.0
C48 C 0.78006 0.90977 0.92733 0.0
Co49 Co 0.86201 0.28186 0.80628 0.0
N50 N 0.89391 0.35627 0.81583 0.0
N51 N 0.90327 0.43757 0.82966 0.0
C52 C 0.95101 0.44203 0.82655 0.0
C53 C 0.94521 0.39242 0.81837 0.0
C54 C 0.86941 0.38519 0.82213 0.0
Co55 Co 0.85144 0.16177 0.80564 0.0
C56 C 0.79308 0.22021 0.85769 0.0
H57 H 0.97655 0.38333 0.81528 0.0
O58 O 0.88584 0.11926 0.80423 0.0
O59 O 0.90084 0.20401 0.90328 0.0
O60 O 0.79687 0.11467 0.90087 0.0
O61 O 0.80106 0.1106 0.7115 0.0
O62 O 0.79686 0.03865 0.77453 0.0
O63 O 0.90893 0.28327 0.89994 0.0
O64 O 0.82122 0.21009 0.80099 0.0
O65 O 0.91284 0.28809 0.71871 0.0
O66 O 0.83637 0.07113 0.94319 0.0
O67 O 0.92417 0.0848 0.88716 0.0
O68 O 0.90575 0.20808 0.71089 0.0
O69 O 0.81261 0.26817 0.88659 0.0
C70 C 0.80123 0.08291 0.95505 0.0
C71 C 0.81126 0.36169 0.81622 0.0
H72 H 0.79429 0.35129 0.88453 0.0
H73 H 0.80086 0.39003 0.78705 0.0
H74 H 0.79413 0.3256 0.77478 0.0
C75 C 0.92168 0.2509 0.93162 0.0
C76 C 0.7807 0.05987 0.7173 0.0
H77 H 0.75239 0.9639 0.89212 0.0
H78 H 0.92546 1.01057 0.80278 0.0
H79 H 0.92052 0.94931 0.83611 0.0
H80 H 0.94162 1.00179 0.9158 0.0
C81 C 0.91494 0.98219 0.85863 0.0
C82 C 0.92669 0.12505 0.84608 0.0
C83 C 0.92708 0.25669 0.68654 0.0
H84 H 0.74474 0.87472 0.94759 0.0
H85 H 0.98756 0.4785 0.83214 0.0
Co86 Co 0.78098 0.81676 0.36806 0.0
N87 N 0.84766 0.83173 0.34582 0.0
C88 C 0.88094 0.87556 0.29989 0.0
N89 N 0.92498 0.83713 0.33533 0.0
C90 C 0.87631 0.80915 0.36776 0.0
C91 C 0.92813 0.87867 0.29288 0.0
Co92 Co 0.62309 0.89598 0.2552 0.0
N93 N 0.56547 0.90473 0.2684 0.0
N94 N 0.48539 0.8944 0.28535 0.0
C95 C 0.5201 0.94092 0.32061 0.0
C96 C 0.56919 0.94745 0.30898 0.0
C97 C 0.51372 0.87337 0.25252 0.0
Co98 Co 0.69621 0.84375 0.30851 0.0
C99 C 0.66256 0.89554 0.15254 0.0
H100 H 0.60532 0.98032 0.33237 0.0
O101 O 0.71732 0.80086 0.39182 0.0
O102 O 0.62543 0.78523 0.32086 0.0
O103 O 0.70289 0.80638 0.19746 0.0
O104 O 0.76773 0.90463 0.29976 0.0
O105 O 0.80612 0.8848 0.40683 0.0
O106 O 0.58028 0.82395 0.28424 0.0
O107 O 0.6773 0.89021 0.23335 0.0
O108 O 0.64237 0.91655 0.37552 0.0
O109 O 0.78107 0.83352 0.24334 0.0
O110 O 0.75083 0.75093 0.33364 0.0
O111 O 0.68947 0.87978 0.41995 0.0
O112 O 0.61314 0.87945 0.13943 0.0
C113 C 0.74636 0.80792 0.18607 0.0
C114 C 0.4903 0.81985 0.21087 0.0
H115 H 0.51833 0.81714 0.165 0.0
H116 H 0.47891 0.79024 0.26483 0.0
H117 H 0.45479 0.80973 0.17185 0.0
C118 C 0.58264 0.78392 0.3082 0.0
C119 C 0.80035 0.91839 0.36335 0.0
H120 H 0.87161 0.90376 0.27191 0.0
H121 H 0.86633 0.77211 0.49443 0.0
H122 H 0.87908 0.73976 0.40429 0.0
H123 H 0.81542 0.73401 0.41482 0.0
C124 C 0.85778 0.76068 0.42306 0.0
C125 C 0.72372 0.75907 0.39398 0.0
C126 C 0.67052 0.91035 0.43335 0.0
H127 H 0.96277 0.90965 0.2611 0.0
H128 H 0.51037 0.96748 0.35478 0.0
Co129 Co 0.99663 0.81647 0.79375 0.0
N130 N 0.06754 0.86018 0.78757 0.0
C131 C 0.0924 0.87831 0.70901 0.0
N132 N 0.14871 0.92566 0.81446 0.0
C133 C 0.10343 0.88837 0.851 0.0
C134 C 0.14207 0.91807 0.72517 0.0
Co135 Co 0.76873 0.59272 0.81462 0.0
N136 N 0.69497 0.55147 0.82517 0.0
N137 N 0.61394 0.48051 0.83693 0.0
C138 C 0.60939 0.52381 0.83146 0.0
C139 C 0.65893 0.56711 0.82458 0.0
C140 C 0.66622 0.49839 0.83207 0.0
Co141 Co 0.88727 0.70153 0.80865 0.0
C142 C 0.83017 0.5859 0.86745 0.0
H143 H 0.66801 0.60746 0.81913 0.0
O144 O 0.93027 0.77935 0.80549 0.0
O145 O 0.84762 0.71013 0.91096 0.0
O146 O 0.93822 0.69722 0.8996 0.0
O147 O 0.93057 0.69532 0.70461 0.0
O148 O 1.00119 0.77559 0.70717 0.0
O149 O 0.76735 0.64174 0.90209 0.0
O150 O 0.83973 0.62303 0.80868 0.0
O151 O 0.76172 0.63313 0.72112 0.0
O152 O 1.00698 0.777 0.8777 0.0
O153 O 0.98642 0.85248 0.87821 0.0
O154 O 0.83853 0.70845 0.71797 0.0
O155 O 0.78295 0.55978 0.90008 0.0
C156 C 0.98575 0.73325 0.91689 0.0
C157 C 0.6899 0.46354 0.82852 0.0
H158 H 0.69908 0.45683 0.89763 0.0
H159 H 0.66228 0.42502 0.79851 0.0
H160 H 0.72667 0.4823 0.789 0.0
C161 C 0.79979 0.68609 0.93547 0.0
C162 C 0.97625 0.72993 0.67524 0.0
H163 H 0.07404 0.86657 0.64399 0.0
H164 H 0.06479 0.88958 0.97368 0.0
H165 H 0.13137 0.90391 0.9882 0.0
H166 H 0.0811 0.83857 0.96721 0.0
C167 C 0.09464 0.87981 0.95046 0.0
C168 C 0.93874 0.81527 0.8652 0.0
C169 C 0.79109 0.67931 0.69051 0.0
H170 H 0.16861 0.94406 0.67453 0.0
H171 H 0.57286 0.52419 0.83366 0.0
Co172 Co 0.16077 0.74714 0.24648 0.0
N173 N 0.15226 0.68147 0.26373 0.0
C174 C 0.10727 0.6426 0.29778 0.0
N175 N 0.16017 0.61047 0.28435 0.0
C176 C 0.18376 0.66041 0.25436 0.0
C177 C 0.11222 0.59915 0.31155 0.0
Co178 Co 0.23366 0.98514 0.34293 0.0
N179 N 0.22665 0.0402 0.30732 0.0
N180 N 0.24159 0.11816 0.26065 0.0
C181 C 0.19375 0.08192 0.23273 0.0
C182 C 0.18455 0.03433 0.26169 0.0
C183 C 0.26081 0.0921 0.30636 0.0
Co184 Co 0.20785 0.87193 0.29594 0.0
C185 C 0.29044 0.97957 0.38154 0.0
H186 H 0.14969 0.99756 0.24775 0.0
O187 O 0.16612 0.80635 0.22024 0.0
O188 O 0.25198 0.91522 0.18806 0.0
O189 O 0.26454 0.85869 0.32669 0.0
O190 O 0.16341 0.82967 0.40226 0.0
O191 O 0.13702 0.74634 0.36471 0.0
O192 O 0.22275 0.96754 0.21929 0.0
O193 O 0.24474 0.93554 0.37932 0.0
O194 O 0.16161 0.94523 0.3686 0.0
O195 O 0.2316 0.77698 0.28122 0.0
O196 O 0.18056 0.75294 0.13213 0.0
O197 O 0.15014 0.88477 0.26851 0.0
O198 O 0.30167 1.01541 0.32127 0.0
C199 C 0.26871 0.81875 0.31288 0.0
C200 C 0.31419 0.11787 0.348 0.0
H201 H 0.3413 0.11233 0.3037 0.0
H202 H 0.33052 0.16066 0.35618 0.0
H203 H 0.31278 0.10023 0.41385 0.0
C204 C 0.24924 0.95595 0.16792 0.0
C205 C 0.13654 0.78009 0.41749 0.0
H206 H 0.07344 0.64629 0.314 0.0
H207 H 0.25269 0.66453 0.19146 0.0
H208 H 0.26537 0.71022 0.27929 0.0
H209 H 0.24416 0.71978 0.17097 0.0
C210 C 0.23936 0.6902 0.22158 0.0
C211 C 0.16455 0.78692 0.14017 0.0
C212 C 0.13201 0.90394 0.32457 0.0
H213 H 0.08316 0.56221 0.34016 0.0
H214 H 0.16585 0.08991 0.19923 0.0
Co215 Co 0.24093 0.19803 0.75679 0.0
N216 N 0.19769 0.22652 0.74615 0.0
C217 C 0.19426 0.25004 0.67118 0.0
N218 N 0.13693 0.2508 0.76587 0.0
C219 C 0.16367 0.22919 0.80405 0.0
C220 C 0.15826 0.26578 0.68374 0.0
Co221 Co 0.46316 0.19207 0.80189 0.0
N222 N 0.50379 0.15855 0.8138 0.0
N223 N 0.57393 0.1468 0.82798 0.0
C224 C 0.53056 0.09956 0.82111 0.0
C225 C 0.48775 0.10681 0.81273 0.0
C226 C 0.5566 0.18187 0.82255 0.0
Co227 Co 0.35529 0.20446 0.78784 0.0
C228 C 0.46868 0.26002 0.85761 0.0
H229 H 0.44746 0.0762 0.80606 0.0
O230 O 0.27802 0.16918 0.77248 0.0
O231 O 0.34309 0.1526 0.88673 0.0
O232 O 0.35347 0.25633 0.8824 0.0
O233 O 0.36708 0.2584 0.68856 0.0
O234 O 0.28708 0.2483 0.68401 0.0
O235 O 0.41329 0.1426 0.88785 0.0
O236 O 0.43312 0.23373 0.79644 0.0
O237 O 0.42344 0.14447 0.70617 0.0
O238 O 0.27321 0.24228 0.85141 0.0
O239 O 0.1992 0.14576 0.82838 0.0
O240 O 0.35243 0.15319 0.693 0.0
O241 O 0.49527 0.23884 0.88868 0.0
C242 C 0.31476 0.26502 0.89674 0.0
C243 C 0.5918 0.24011 0.82062 0.0
H244 H 0.59765 0.25546 0.89007 0.0
H245 H 0.63054 0.25047 0.79205 0.0
H246 H 0.5739 0.25893 0.78061 0.0
C247 C 0.36758 0.12974 0.91602 0.0
C248 C 0.33387 0.27123 0.6586 0.0
H249 H 0.21481 0.25345 0.60928 0.0
H250 H 0.1177 0.17553 0.90865 0.0
H251 H 0.15961 0.2422 0.94477 0.0
H252 H 0.187 0.20214 0.92314 0.0
C253 C 0.15668 0.21084 0.8999 0.0
C254 C 0.23819 0.13705 0.82158 0.0
C255 C 0.37934 0.1315 0.66995 0.0
H256 H 0.1447 0.28178 0.63232 0.0
H257 H 0.52977 0.06236 0.82351 0.0
C258 C 0.20009 0.5188 0.38129 0.0
C259 C 0.21953 0.50647 0.30496 0.0
H260 H 0.16654 0.56353 0.43398 0.0
C261 C 0.21972 0.52904 0.22222 0.0
H262 H 0.19819 0.50029 0.44498 0.0
C263 C 0.20013 0.56323 0.2155 0.0
C264 C 0.18162 0.57648 0.29184 0.0
H265 H 0.23206 0.51779 0.16178 0.0
H266 H 0.19797 0.57819 0.15036 0.0
C267 C 0.18164 0.55417 0.37486 0.0
C268 C 0.65145 0.13909 0.78248 0.0
C269 C 0.62684 0.15696 0.84284 0.0
H270 H 0.72379 0.14412 0.74 0.0
C271 C 0.6554 0.18664 0.91684 0.0
H272 H 0.63006 0.11563 0.72529 0.0
C273 C 0.70823 0.20146 0.927 0.0
C274 C 0.73466 0.18801 0.86243 0.0
H275 H 0.63715 0.1999 0.9654 0.0
H276 H 0.72947 0.22688 0.98252 0.0
C277 C 0.70498 0.15479 0.79171 0.0
C278 C 0.48824 0.64395 0.35988 0.0
C279 C 0.46733 0.62552 0.27454 0.0
H280 H 0.54133 0.71033 0.43824 0.0
C281 C 0.4801 0.66083 0.20348 0.0
H282 H 0.47908 0.61683 0.41499 0.0
C283 C 0.51423 0.714 0.21718 0.0
C284 C 0.53652 0.73221 0.30178 0.0
H285 H 0.46593 0.64687 0.13656 0.0
H286 H 0.52642 0.74014 0.16008 0.0
C287 C 0.52305 0.69706 0.37334 0.0
C288 C 0.91068 0.52351 0.78816 0.0
C289 C 0.89163 0.47962 0.84532 0.0
H290 H 0.90709 0.59248 0.75008 0.0
C291 C 0.86009 0.47695 0.91783 0.0
H292 H 0.93559 0.52692 0.7322 0.0
C293 C 0.84524 0.51515 0.92996 0.0
C294 C 0.86046 0.55697 0.86888 0.0
H295 H 0.84583 0.4444 0.96415 0.0
H296 H 0.81892 0.50997 0.9847 0.0
C297 C 0.89489 0.56152 0.79921 0.0
C298 C 0.34397 0.82951 0.22658 0.0
C299 C 0.32162 0.82706 0.31059 0.0
H300 H 0.41478 0.85714 0.15194 0.0
C301 C 0.35339 0.84542 0.38669 0.0
H302 H 0.32017 0.81788 0.16659 0.0
C303 C 0.40727 0.86614 0.37858 0.0
C304 C 0.42982 0.86998 0.29406 0.0
H305 H 0.33679 0.84551 0.45144 0.0
H306 H 0.43161 0.88057 0.43766 0.0
C307 C 0.39787 0.85191 0.21813 0.0
C308 C 0.49245 0.34969 0.79518 0.0
C309 C 0.49558 0.31867 0.86426 0.0
H310 H 0.52798 0.42587 0.73242 0.0
C311 C 0.535 0.344 0.92941 0.0
H312 H 0.46343 0.33187 0.743 0.0
C313 C 0.57272 0.39712 0.9215 0.0
C314 C 0.57177 0.42708 0.84928 0.0
H315 H 0.53893 0.3218 0.98376 0.0
H316 H 0.60377 0.41456 0.97053 0.0
C317 C 0.52992 0.40345 0.7883 0.0
C318 C 0.22829 0.21805 0.37178 0.0
C319 C 0.21218 0.23495 0.2972 0.0
H320 H 0.25585 0.1677 0.41711 0.0
C321 C 0.22443 0.22627 0.21053 0.0
H322 H 0.22 0.22558 0.43921 0.0
C323 C 0.24749 0.19571 0.19816 0.0
C324 C 0.25467 0.171 0.27211 0.0
H325 H 0.21162 0.2387 0.15215 0.0
H326 H 0.25051 0.18358 0.13088 0.0
C327 C 0.25052 0.18665 0.35914 0.0
C328 C 0.99342 0.17877 0.73677 0.0
C329 C 0.97749 0.16988 0.82623 0.0
H330 H 0.05771 0.21042 0.64738 0.0
C331 C 1.01332 0.19709 0.89424 0.0
H332 H 0.96625 0.15737 0.68332 0.0
C333 C 0.06537 0.23188 0.87287 0.0
C334 C 0.08304 0.23443 0.78454 0.0
H335 H 1.00175 0.18924 0.96364 0.0
H336 H 0.0922 0.25291 0.92644 0.0
C337 C 0.04593 0.20972 0.71619 0.0
C338 C 0.91825 0.03373 0.45174 0.0
C339 C 0.93964 0.06022 0.37174 0.0
H340 H 0.854 0.96714 0.512 0.0
C341 C 0.91093 0.04531 0.29222 0.0
H342 H 0.94056 0.04594 0.51329 0.0
C343 C 0.86215 1.00101 0.29095 0.0
C344 C 0.84224 0.97182 0.36954 0.0
H345 H 0.9276 0.06654 0.23056 0.0
H346 H 0.84259 0.98717 0.22726 0.0
C347 C 0.86922 0.98952 0.45083 0.0
C348 C 0.82334 0.83457 0.86896 0.0
C349 C 0.84047 0.87425 0.93333 0.0
H350 H 0.84204 0.78346 0.79722 0.0
C351 C 0.88084 0.88248 0.99187 0.0
H352 H 0.7922 0.82811 0.82324 0.0
C353 C 0.90904 0.85671 0.9773 0.0
C354 C 0.89712 0.82289 0.90356 0.0
H355 H 0.89409 0.913 1.04214 0.0
H356 H 0.94341 0.86744 1.01772 0.0
C357 C 0.85195 0.80926 0.8537 0.0
C358 C 0.99963 0.85535 0.42405 0.0
C359 C 0.96881 0.83098 0.34877 0.0
H360 H 0.07767 0.90055 0.47398 0.0
C361 C 0.99089 0.82329 0.27173 0.0
H362 H 0.9824 0.86181 0.48342 0.0
C363 C 0.04449 0.84788 0.264 0.0
C364 C 0.07603 0.87755 0.33548 0.0
H365 H 0.96708 0.80549 0.21291 0.0
H366 H 0.06122 0.84681 0.19999 0.0
C367 C 0.05362 0.87913 0.41729 0.0
C368 C 0.18551 0.05536 0.90649 0.0
C369 C 0.22925 0.0856 0.85234 0.0
H370 H 0.12374 0.97951 0.93528 0.0
C371 C 0.25448 0.0612 0.81185 0.0
H372 H 0.16565 0.07297 0.94102 0.0
C373 C 0.23224 1.00702 0.81336 0.0
C374 C 0.1829 0.97639 0.85183 0.0
H375 H 0.28881 0.08293 0.77277 0.0
H376 H 0.24981 0.98894 0.77362 0.0
C377 C 0.1619 1.00113 0.90495 0.0
C378 C 0.29996 0.33109 0.10736 0.0
C379 C 0.27546 0.35804 0.07106 0.0
H380 H 0.33286 0.28062 0.0822 0.0
C381 C 0.27472 0.36172 0.97757 0.0
H382 H 0.30458 0.33035 0.17919 0.0
C383 C 0.29405 0.33639 0.92248 0.0
C384 C 0.31481 0.30581 0.95797 0.0
H385 H 0.25872 0.38407 0.94672 0.0
H386 H 0.28981 0.33818 0.8507 0.0
C387 C 0.31828 0.30427 1.05176 0.0
C388 C 0.9698 0.27702 0.53189 0.0
C389 C 0.9742 0.27931 0.62586 0.0
H390 H 1.00899 0.28763 0.40517 0.0
C391 C 1.02486 0.30375 0.66246 0.0
H392 H 0.93156 0.25961 0.50109 0.0
C393 C 0.0693 0.31976 0.60751 0.0
C394 C 0.06476 0.31284 0.51381 0.0
H395 H 1.02991 0.30756 0.73446 0.0
H396 H 0.10692 0.33406 0.63924 0.0
C397 C 1.01453 0.29428 0.47667 0.0
C398 C 0.74547 0.98403 0.13982 0.0
C399 C 0.69744 0.94618 0.10338 0.0
H400 H 0.81465 0.05881 0.12441 0.0
C401 C 0.67948 0.96091 1.02657 0.0
H402 H 0.75974 0.97602 0.20094 0.0
C403 C 0.70987 1.01022 0.98511 0.0
C404 C 0.75973 0.0461 1.01796 0.0
H405 H 0.64214 0.93379 0.99704 0.0
H406 H 0.69656 1.01793 0.92233 0.0
C407 C 0.77607 0.03275 0.09777 0.0
C408 C 0.78479 0.75355 0.61354 0.0
C409 C 0.76834 0.69975 0.62126 0.0
H410 H 0.78072 0.81417 0.53986 0.0
C411 C 0.72908 0.66516 0.56198 0.0
H412 H 0.81479 0.78174 0.65698 0.0
C413 C 0.71012 0.68407 0.49308 0.0
C414 C 0.72819 0.73805 0.48315 0.0
H415 H 0.71495 0.62346 0.56571 0.0
H416 H 0.68349 0.65665 0.44415 0.0
C417 C 0.76446 0.77227 0.5466 0.0
C418 C 1.02273 0.74215 0.07113 0.0
C419 C 1.02203 0.7284 0.98054 0.0
H420 H 0.06748 0.77052 0.19261 0.0
C421 C 0.06881 0.7341 0.94415 0.0
H422 H 0.98835 0.74044 0.10084 0.0
C423 C 0.11515 0.75526 0.99459 0.0
C424 C 0.11665 0.77135 0.08388 0.0
H425 H 0.07063 0.72614 0.87375 0.0
H426 H 0.15025 0.75963 0.96312 0.0
C427 C 0.06903 0.76226 0.12243 0.0
C428 C 0.38798 0.0732 0.55166 0.0
C429 C 0.35633 0.08713 0.60263 0.0
H430 H 0.39207 0.02778 0.44154 0.0
C431 C 0.3018 0.05759 0.58891 0.0
H432 H 0.43001 0.09465 0.5598 0.0
C433 C 0.27983 1.01654 0.52596 0.0
C434 C 0.31166 1.00529 0.47034 0.0
H435 H 0.27567 0.06723 0.62429 0.0
H436 H 0.23807 0.99724 0.51452 0.0
C437 C 0.36611 0.0339 0.485 0.0
C438 C 0.81822 0.74709 0.0654 0.0
C439 C 0.78228 0.71283 1.00244 0.0
H440 H 0.83611 0.80377 0.16709 0.0
C441 C 0.73259 0.70934 0.99951 0.0
H442 H 0.8567 0.75106 0.07045 0.0
C443 C 0.72011 0.7403 1.057 0.0
C444 C 0.7571 0.77564 0.11867 0.0
H445 H 0.70385 0.68372 0.95127 0.0
H446 H 0.68174 0.7366 1.05299 0.0
C447 C 0.8061 0.77783 0.12139 0.0
C448 C 0.04462 0.75548 0.4563 0.0
C449 C 0.09246 0.75985 0.48287 0.0
H450 H 0.96774 0.73903 0.49575 0.0
C451 C 0.09519 0.74068 0.5675 0.0
H452 H 0.04072 0.76806 0.39006 0.0
C453 C 0.0524 0.72189 0.62694 0.0
C454 C 1.00562 0.7211 0.6029 0.0
H455 H 0.13099 0.74217 0.58901 0.0
H456 H 0.05753 0.71225 0.69484 0.0
C457 C 1.00196 0.73683 0.51561 0.0
C458 C 0.29382 0.07693 1.02277 0.0
C459 C 0.3396 0.08448 0.98068 0.0
H460 H 0.22774 0.02882 0.10292 0.0
C461 C 0.35496 0.04645 0.99681 0.0
H462 H 0.28086 0.10531 1.01478 0.0
C463 C 0.32523 1.00266 1.0539 0.0
C464 C 0.27875 0.99524 0.09448 0.0
H465 H 0.38998 0.05055 0.96555 0.0
H466 H 0.3392 0.97556 0.06768 0.0
C467 C 0.26339 0.03272 0.07525 0.0
C468 C 0.34632 0.30593 0.50281 0.0
C469 C 0.34529 0.3145 0.59512 0.0
H470 H 0.32732 0.32043 0.37066 0.0
C471 C 0.32961 0.35075 0.62287 0.0
H472 H 0.35614 0.27707 0.47888 0.0
C473 C 0.30938 0.37249 0.56174 0.0
C474 C 0.30652 0.36039 0.4706 0.0
H475 H 0.32696 0.35725 0.69365 0.0
H476 H 0.29404 0.3969 0.58621 0.0
C477 C 0.32809 0.32949 0.44119 0.0
C478 C 0.99907 0.24073 0.12593 0.0
C479 C 0.04785 0.2873 0.12016 0.0
H480 H 0.92169 0.19392 0.07386 0.0
C481 C 0.05308 0.32458 1.05541 0.0
H482 H 0.99238 0.21108 0.17537 0.0
C483 C 1.01133 0.3145 0.99666 0.0
C484 C 0.96335 0.26703 1.00159 0.0
H485 H 0.08949 0.36118 1.04943 0.0
H486 H 1.01722 0.34295 0.94538 0.0
C487 C 0.95779 0.23093 0.06816 0.0
C488 C 0.72481 0.96751 0.66203 0.0
C489 C 0.74281 1.02175 0.65009 0.0
H490 H 0.68953 0.89065 0.60384 0.0
C491 C 0.73026 0.03733 0.56925 0.0
H492 H 0.73267 0.95296 0.72322 0.0
C493 C 0.70331 1.0002 0.50115 0.0
C494 C 0.6894 0.94693 0.51145 0.0
H495 H 0.74338 0.07829 0.55684 0.0
H496 H 0.69632 1.01384 0.43809 0.0
C497 C 0.69967 0.93109 0.59344 0.0
loop_
_geom_bond_atom_site_label_1
_geom_bond_atom_site_label_2
_geom_bond_distance
_geom_bond_site_symmetry_2
_ccdc_geom_bond_type
Co0 N1 2.034 1_455 S
Co0 O15 2.262 . S
Co0 O19 1.958 . S
Co0 O23 1.950 . S
Co0 O24 2.057 1_455 S
N1 Co0 2.034 1_655 S
N1 C2 1.366 . S
N1 C4 1.332 . S
C2 N1 1.366 . S
C2 C5 1.377 . S
C2 H34 0.931 . S
N3 C4 1.346 . S
N3 C5 1.337 . S
C4 N1 1.332 . S
C4 N3 1.346 . S
C4 C38 1.361 . S
C5 C2 1.377 . S
C5 N3 1.337 . S
C5 H41 0.930 . S
Co6 N7 2.034 . S
Co6 O20 1.950 . S
Co6 O21 2.262 . S
Co6 O22 1.958 . S
Co6 O26 2.057 . S
N7 Co6 2.034 . S
N7 C10 1.366 . S
N7 C11 1.332 . S
N8 C9 1.337 . S
N8 C11 1.346 . S
C9 N8 1.337 . S
C9 C10 1.377 . S
C9 H42 0.930 . S
C10 N7 1.366 . S
C10 C9 1.377 . S
C10 H14 0.931 . S
C11 N7 1.332 . S
C11 N8 1.346 . S
C11 C28 1.361 . S
Co12 O15 2.097 . S
Co12 O16 2.065 . S
Co12 O17 2.065 . S
Co12 O18 2.042 . S
Co12 O21 2.097 . S
Co12 O25 2.042 . S
C13 O21 1.253 . S
C13 O26 1.263 . S
H14 C10 0.931 . S
O15 Co0 2.262 . S
O15 Co12 2.097 . S
O15 C39 1.253 . S
O16 Co12 2.065 . S
O16 C32 1.221 . S
O17 Co12 2.065 . S
O17 C27 1.221 . S
O18 Co12 2.042 . S
O18 C33 1.237 . S
O19 Co0 1.958 . S
O19 C33 1.278 . S
O20 Co6 1.950 . S
O20 C32 1.277 . S
O21 Co6 2.262 . S
O21 Co12 2.097 . S
O21 C13 1.253 . S
O22 Co6 1.958 . S
O22 C40 1.278 . S
O23 Co0 1.950 . S
O23 C27 1.277 . S
O24 Co0 2.057 1_655 S
O24 C39 1.263 1_655 S
O25 Co12 2.042 . S
O25 C40 1.237 . S
O26 Co6 2.057 . S
O26 C13 1.263 . S
C27 O17 1.221 . S
C27 O23 1.277 . S
C28 C11 1.361 . S
C28 H29 0.960 . S
C28 H30 0.961 . S
C28 H31 0.961 . S
H29 C28 0.960 . S
H30 C28 0.961 . S
H31 C28 0.961 . S
C32 O16 1.221 . S
C32 O20 1.277 . S
C33 O18 1.237 . S
C33 O19 1.278 . S
H34 C2 0.931 . S
H35 C38 0.961 . S
H36 C38 0.961 . S
H37 C38 0.960 . S
C38 C4 1.361 . S
C38 H35 0.961 . S
C38 H36 0.961 . S
C38 H37 0.960 . S
C39 O15 1.253 . S
C39 O24 1.263 1_455 S
C40 O22 1.278 . S
C40 O25 1.237 . S
H41 C5 0.930 . S
H42 C9 0.930 . S
Co43 N44 2.034 1_545 S
Co43 O58 2.262 . S
Co43 O62 1.958 . S
Co43 O66 1.950 . S
Co43 O67 2.057 . S
N44 Co43 2.034 1_565 S
N44 C45 1.366 . S
N44 C47 1.332 . S
C45 N44 1.366 . S
C45 C48 1.377 . S
C45 H77 0.931 . S
N46 C47 1.346 . S
N46 C48 1.337 . S
C47 N44 1.332 . S
C47 N46 1.346 . S
C47 C81 1.361 . S
C48 C45 1.377 . S
C48 N46 1.337 . S
C48 H84 0.930 . S
Co49 N50 2.034 . S
Co49 O63 1.950 . S
Co49 O64 2.262 . S
Co49 O65 1.958 . S
Co49 O69 2.057 . S
N50 Co49 2.034 . S
N50 C53 1.366 . S
N50 C54 1.332 . S
N51 C52 1.337 . S
N51 C54 1.346 . S
C52 N51 1.337 . S
C52 C53 1.377 . S
C52 H85 0.930 . S
C53 N50 1.366 . S
C53 C52 1.377 . S
C53 H57 0.931 . S
C54 N50 1.332 . S
C54 N51 1.346 . S
C54 C71 1.361 . S
Co55 O58 2.097 . S
Co55 O59 2.065 . S
Co55 O60 2.065 . S
Co55 O61 2.042 . S
Co55 O64 2.097 . S
Co55 O68 2.042 . S
C56 O64 1.253 . S
C56 O69 1.263 . S
H57 C53 0.931 . S
O58 Co43 2.262 . S
O58 Co55 2.097 . S
O58 C82 1.253 . S
O59 Co55 2.065 . S
O59 C75 1.221 . S
O60 Co55 2.065 . S
O60 C70 1.221 . S
O61 Co55 2.042 . S
O61 C76 1.237 . S
O62 Co43 1.958 . S
O62 C76 1.278 . S
O63 Co49 1.950 . S
O63 C75 1.277 . S
O64 Co49 2.262 . S
O64 Co55 2.097 . S
O64 C56 1.253 . S
O65 Co49 1.958 . S
O65 C83 1.278 . S
O66 Co43 1.950 . S
O66 C70 1.277 . S
O67 Co43 2.057 . S
O67 C82 1.263 . S
O68 Co55 2.042 . S
O68 C83 1.237 . S
O69 Co49 2.057 . S
O69 C56 1.263 . S
C70 O60 1.221 . S
C70 O66 1.277 . S
C71 C54 1.361 . S
C71 H72 0.960 . S
C71 H73 0.961 . S
C71 H74 0.961 . S
H72 C71 0.960 . S
H73 C71 0.961 . S
H74 C71 0.961 . S
C75 O59 1.221 . S
C75 O63 1.277 . S
C76 O61 1.237 . S
C76 O62 1.278 . S
H77 C45 0.931 . S
H78 C81 0.961 . S
H79 C81 0.961 . S
H80 C81 0.960 . S
C81 C47 1.361 . S
C81 H78 0.961 . S
C81 H79 0.961 . S
C81 H80 0.960 . S
C82 O58 1.253 . S
C82 O67 1.263 . S
C83 O65 1.278 . S
C83 O68 1.237 . S
H84 C48 0.930 . S
H85 C52 0.930 . S
Co86 N87 2.034 . S
Co86 O101 2.262 . S
Co86 O105 1.958 . S
Co86 O109 1.950 . S
Co86 O110 2.057 . S
N87 Co86 2.034 . S
N87 C88 1.366 . S
N87 C90 1.332 . S
C88 N87 1.366 . S
C88 C91 1.377 . S
C88 H120 0.931 . S
N89 C90 1.346 . S
N89 C91 1.337 . S
C90 N87 1.332 . S
C90 N89 1.346 . S
C90 C124 1.361 . S
C91 C88 1.377 . S
C91 N89 1.337 . S
C91 H127 0.930 . S
Co92 N93 2.034 . S
Co92 O106 1.950 . S
Co92 O107 2.262 . S
Co92 O108 1.958 . S
Co92 O112 2.057 . S
N93 Co92 2.034 . S
N93 C96 1.366 . S
N93 C97 1.332 . S
N94 C95 1.337 . S
N94 C97 1.346 . S
C95 N94 1.337 . S
C95 C96 1.377 . S
C95 H128 0.930 . S
C96 N93 1.366 . S
C96 C95 1.377 . S
C96 H100 0.931 . S
C97 N93 1.332 . S
C97 N94 1.346 . S
C97 C114 1.361 . S
Co98 O101 2.097 . S
Co98 O102 2.065 . S
Co98 O103 2.065 . S
Co98 O104 2.042 . S
Co98 O107 2.097 . S
Co98 O111 2.042 . S
C99 O107 1.253 . S
C99 O112 1.263 . S
H100 C96 0.931 . S
O101 Co86 2.262 . S
O101 Co98 2.097 . S
O101 C125 1.253 . S
O102 Co98 2.065 . S
O102 C118 1.221 . S
O103 Co98 2.065 . S
O103 C113 1.221 . S
O104 Co98 2.042 . S
O104 C119 1.237 . S
O105 Co86 1.958 . S
O105 C119 1.278 . S
O106 Co92 1.950 . S
O106 C118 1.277 . S
O107 Co92 2.262 . S
O107 Co98 2.097 . S
O107 C99 1.253 . S
O108 Co92 1.958 . S
O108 C126 1.278 . S
O109 Co86 1.950 . S
O109 C113 1.277 . S
O110 Co86 2.057 . S
O110 C125 1.263 . S
O111 Co98 2.042 . S
O111 C126 1.237 . S
O112 Co92 2.057 . S
O112 C99 1.263 . S
C113 O103 1.221 . S
C113 O109 1.277 . S
C114 C97 1.361 . S
C114 H115 0.960 . S
C114 H116 0.961 . S
C114 H117 0.961 . S
H115 C114 0.960 . S
H116 C114 0.961 . S
H117 C114 0.961 . S
C118 O102 1.221 . S
C118 O106 1.277 . S
C119 O104 1.237 . S
C119 O105 1.278 . S
H120 C88 0.931 . S
H121 C124 0.961 . S
H122 C124 0.961 . S
H123 C124 0.960 . S
C124 C90 1.361 . S
C124 H121 0.961 . S
C124 H122 0.961 . S
C124 H123 0.960 . S
C125 O101 1.253 . S
C125 O110 1.263 . S
C126 O108 1.278 . S
C126 O111 1.237 . S
H127 C91 0.930 . S
H128 C95 0.930 . S
Co129 N130 2.034 1_655 S
Co129 O144 2.262 . S
Co129 O148 1.958 . S
Co129 O152 1.950 . S
Co129 O153 2.057 . S
N130 Co129 2.034 1_455 S
N130 C131 1.366 . S
N130 C133 1.332 . S
C131 N130 1.366 . S
C131 C134 1.377 . S
C131 H163 0.931 . S
N132 C133 1.346 . S
N132 C134 1.337 . S
C133 N130 1.332 . S
C133 N132 1.346 . S
C133 C167 1.361 . S
C134 C131 1.377 . S
C134 N132 1.337 . S
C134 H170 0.930 . S
Co135 N136 2.034 . S
Co135 O149 1.950 . S
Co135 O150 2.262 . S
Co135 O151 1.958 . S
Co135 O155 2.057 . S
N136 Co135 2.034 . S
N136 C139 1.366 . S
N136 C140 1.332 . S
N137 C138 1.337 . S
N137 C140 1.346 . S
C138 N137 1.337 . S
C138 C139 1.377 . S
C138 H171 0.930 . S
C139 N136 1.366 . S
C139 C138 1.377 . S
C139 H143 0.931 . S
C140 N136 1.332 . S
C140 N137 1.346 . S
C140 C157 1.361 . S
Co141 O144 2.097 . S
Co141 O145 2.065 . S
Co141 O146 2.065 . S
Co141 O147 2.042 . S
Co141 O150 2.097 . S
Co141 O154 2.042 . S
C142 O150 1.253 . S
C142 O155 1.263 . S
H143 C139 0.931 . S
O144 Co129 2.262 . S
O144 Co141 2.097 . S
O144 C168 1.253 . S
O145 Co141 2.065 . S
O145 C161 1.221 . S
O146 Co141 2.065 . S
O146 C156 1.221 . S
O147 Co141 2.042 . S
O147 C162 1.237 . S
O148 Co129 1.958 . S
O148 C162 1.278 . S
O149 Co135 1.950 . S
O149 C161 1.277 . S
O150 Co135 2.262 . S
O150 Co141 2.097 . S
O150 C142 1.253 . S
O151 Co135 1.958 . S
O151 C169 1.278 . S
O152 Co129 1.950 . S
O152 C156 1.277 . S
O153 Co129 2.057 . S
O153 C168 1.263 . S
O154 Co141 2.042 . S
O154 C169 1.237 . S
O155 Co135 2.057 . S
O155 C142 1.263 . S
C156 O146 1.221 . S
C156 O152 1.277 . S
C157 C140 1.361 . S
C157 H158 0.960 . S
C157 H159 0.961 . S
C157 H160 0.961 . S
H158 C157 0.960 . S
H159 C157 0.961 . S
H160 C157 0.961 . S
C161 O145 1.221 . S
C161 O149 1.277 . S
C162 O147 1.237 . S
C162 O148 1.278 . S
H163 C131 0.931 . S
H164 C167 0.961 . S
H165 C167 0.961 . S
H166 C167 0.960 . S
C167 C133 1.361 . S
C167 H164 0.961 . S
C167 H165 0.961 . S
C167 H166 0.960 . S
C168 O144 1.253 . S
C168 O153 1.263 . S
C169 O151 1.278 . S
C169 O154 1.237 . S
H170 C134 0.930 . S
H171 C138 0.930 . S
Co172 N173 2.034 . S
Co172 O187 2.262 . S
Co172 O191 1.958 . S
Co172 O195 1.950 . S
Co172 O196 2.057 . S
N173 Co172 2.034 . S
N173 C174 1.366 . S
N173 C176 1.332 . S
C174 N173 1.366 . S
C174 C177 1.377 . S
C174 H206 0.931 . S
N175 C176 1.346 . S
N175 C177 1.337 . S
C176 N173 1.332 . S
C176 N175 1.346 . S
C176 C210 1.361 . S
C177 C174 1.377 . S
C177 N175 1.337 . S
C177 H213 0.930 . S
Co178 N179 2.034 1_565 S
Co178 O192 1.950 . S
Co178 O193 2.262 . S
Co178 O194 1.958 . S
Co178 O198 2.057 1_565 S
N179 Co178 2.034 1_545 S
N179 C182 1.366 . S
N179 C183 1.332 . S
N180 C181 1.337 . S
N180 C183 1.346 . S
C181 N180 1.337 . S
C181 C182 1.377 . S
C181 H214 0.930 . S
C182 N179 1.366 . S
C182 C181 1.377 . S
C182 H186 0.931 . S
C183 N179 1.332 . S
C183 N180 1.346 . S
C183 C200 1.361 . S
Co184 O187 2.097 . S
Co184 O188 2.065 . S
Co184 O189 2.065 . S
Co184 O190 2.042 . S
Co184 O193 2.097 . S
Co184 O197 2.042 . S
C185 O193 1.253 . S
C185 O198 1.263 1_565 S
H186 C182 0.931 . S
O187 Co172 2.262 . S
O187 Co184 2.097 . S
O187 C211 1.253 . S
O188 Co184 2.065 . S
O188 C204 1.221 . S
O189 Co184 2.065 . S
O189 C199 1.221 . S
O190 Co184 2.042 . S
O190 C205 1.237 . S
O191 Co172 1.958 . S
O191 C205 1.278 . S
O192 Co178 1.950 . S
O192 C204 1.277 . S
O193 Co178 2.262 . S
O193 Co184 2.097 . S
O193 C185 1.253 . S
O194 Co178 1.958 . S
O194 C212 1.278 . S
O195 Co172 1.950 . S
O195 C199 1.277 . S
O196 Co172 2.057 . S
O196 C211 1.263 . S
O197 Co184 2.042 . S
O197 C212 1.237 . S
O198 Co178 2.057 1_545 S
O198 C185 1.263 1_545 S
C199 O189 1.221 . S
C199 O195 1.277 . S
C200 C183 1.361 . S
C200 H201 0.960 . S
C200 H202 0.961 . S
C200 H203 0.961 . S
H201 C200 0.960 . S
H202 C200 0.961 . S
H203 C200 0.961 . S
C204 O188 1.221 . S
C204 O192 1.277 . S
C205 O190 1.237 . S
C205 O191 1.278 . S
H206 C174 0.931 . S
H207 C210 0.961 . S
H208 C210 0.961 . S
H209 C210 0.960 . S
C210 C176 1.361 . S
C210 H207 0.961 . S
C210 H208 0.961 . S
C210 H209 0.960 . S
C211 O187 1.253 . S
C211 O196 1.263 . S
C212 O194 1.278 . S
C212 O197 1.237 . S
H213 C177 0.930 . S
H214 C181 0.930 . S
Co215 N216 2.034 . S
Co215 O230 2.262 . S
Co215 O234 1.958 . S
Co215 O238 1.950 . S
Co215 O239 2.057 . S
N216 Co215 2.034 . S
N216 C217 1.366 . S
N216 C219 1.332 . S
C217 N216 1.366 . S
C217 C220 1.377 . S
C217 H249 0.931 . S
N218 C219 1.346 . S
N218 C220 1.337 . S
C219 N216 1.332 . S
C219 N218 1.346 . S
C219 C253 1.361 . S
C220 C217 1.377 . S
C220 N218 1.337 . S
C220 H256 0.930 . S
Co221 N222 2.034 . S
Co221 O235 1.950 . S
Co221 O236 2.262 . S
Co221 O237 1.958 . S
Co221 O241 2.057 . S
N222 Co221 2.034 . S
N222 C225 1.366 . S
N222 C226 1.332 . S
N223 C224 1.337 . S
N223 C226 1.346 . S
C224 N223 1.337 . S
C224 C225 1.377 . S
C224 H257 0.930 . S
C225 N222 1.366 . S
C225 C224 1.377 . S
C225 H229 0.931 . S
C226 N222 1.332 . S
C226 N223 1.346 . S
C226 C243 1.361 . S
Co227 O230 2.097 . S
Co227 O231 2.065 . S
Co227 O232 2.065 . S
Co227 O233 2.042 . S
Co227 O236 2.097 . S
Co227 O240 2.042 . S
C228 O236 1.253 . S
C228 O241 1.263 . S
H229 C225 0.931 . S
O230 Co215 2.262 . S
O230 Co227 2.097 . S
O230 C254 1.253 . S
O231 Co227 2.065 . S
O231 C247 1.221 . S
O232 Co227 2.065 . S
O232 C242 1.221 . S
O233 Co227 2.042 . S
O233 C248 1.237 . S
O234 Co215 1.958 . S
O234 C248 1.278 . S
O235 Co221 1.950 . S
O235 C247 1.277 . S
O236 Co221 2.262 . S
O236 Co227 2.097 . S
O236 C228 1.253 . S
O237 Co221 1.958 . S
O237 C255 1.278 . S
O238 Co215 1.950 . S
O238 C242 1.277 . S
O239 Co215 2.057 . S
O239 C254 1.263 . S
O240 Co227 2.042 . S
O240 C255 1.237 . S
O241 Co221 2.057 . S
O241 C228 1.263 . S
C242 O232 1.221 . S
C242 O238 1.277 . S
C243 C226 1.361 . S
C243 H244 0.960 . S
C243 H245 0.961 . S
C243 H246 0.961 . S
H244 C243 0.960 . S
H245 C243 0.961 . S
H246 C243 0.961 . S
C247 O231 1.221 . S
C247 O235 1.277 . S
C248 O233 1.237 . S
C248 O234 1.278 . S
H249 C217 0.931 . S
H250 C253 0.961 . S
H251 C253 0.961 . S
H252 C253 0.960 . S
C253 C219 1.361 . S
C253 H250 0.961 . S
C253 H251 0.961 . S
C253 H252 0.960 . S
C254 O230 1.253 . S
C254 O239 1.263 . S
C255 O237 1.278 . S
C255 O240 1.237 . S
H256 C220 0.930 . S
H257 C224 0.930 . S
C258 C259 1.387 . S
C258 H262 0.950 . S
C258 C267 1.390 . S
C259 C258 1.387 . S
C259 C261 1.387 . S
H260 C267 0.950 . S
C261 C259 1.387 . S
C261 C263 1.390 . S
C261 H265 0.950 . S
H262 C258 0.950 . S
C263 C261 1.390 . S
C263 C264 1.387 . S
C263 H266 0.950 . S
C264 C263 1.387 . S
C264 C267 1.387 . S
H265 C261 0.950 . S
H266 C263 0.950 . S
C267 C258 1.390 . S
C267 H260 0.950 . S
C267 C264 1.387 . S
C268 C269 1.387 . S
C268 H272 0.950 . S
C268 C277 1.390 . S
C269 C268 1.387 . S
C269 C271 1.387 . S
H270 C277 0.950 . S
C271 C269 1.387 . S
C271 C273 1.390 . S
C271 H275 0.950 . S
H272 C268 0.950 . S
C273 C271 1.390 . S
C273 C274 1.387 . S
C273 H276 0.950 . S
C274 C273 1.387 . S
C274 C277 1.387 . S
H275 C271 0.950 . S
H276 C273 0.950 . S
C277 C268 1.390 . S
C277 H270 0.950 . S
C277 C274 1.387 . S
C278 C279 1.387 . S
C278 H282 0.950 . S
C278 C287 1.390 . S
C279 C278 1.387 . S
C279 C281 1.387 . S
H280 C287 0.950 . S
C281 C279 1.387 . S
C281 C283 1.390 . S
C281 H285 0.950 . S
H282 C278 0.950 . S
C283 C281 1.390 . S
C283 C284 1.387 . S
C283 H286 0.950 . S
C284 C283 1.387 . S
C284 C287 1.387 . S
H285 C281 0.950 . S
H286 C283 0.950 . S
C287 C278 1.390 . S
C287 H280 0.950 . S
C287 C284 1.387 . S
C288 C289 1.387 . S
C288 H292 0.950 . S
C288 C297 1.390 . S
C289 C288 1.387 . S
C289 C291 1.387 . S
H290 C297 0.950 . S
C291 C289 1.387 . S
C291 C293 1.390 . S
C291 H295 0.950 . S
H292 C288 0.950 . S
C293 C291 1.390 . S
C293 C294 1.387 . S
C293 H296 0.950 . S
C294 C293 1.387 . S
C294 C297 1.387 . S
H295 C291 0.950 . S
H296 C293 0.950 . S
C297 C288 1.390 . S
C297 H290 0.950 . S
C297 C294 1.387 . S
C298 C299 1.387 . S
C298 H302 0.950 . S
C298 C307 1.390 . S
C299 C298 1.387 . S
C299 C301 1.387 . S
H300 C307 0.950 . S
C301 C299 1.387 . S
C301 C303 1.390 . S
C301 H305 0.950 . S
H302 C298 0.950 . S
C303 C301 1.390 . S
C303 C304 1.387 . S
C303 H306 0.950 . S
C304 C303 1.387 . S
C304 C307 1.387 . S
H305 C301 0.950 . S
H306 C303 0.950 . S
C307 C298 1.390 . S
C307 H300 0.950 . S
C307 C304 1.387 . S
C308 C309 1.387 . S
C308 H312 0.950 . S
C308 C317 1.390 . S
C309 C308 1.387 . S
C309 C311 1.387 . S
H310 C317 0.950 . S
C311 C309 1.387 . S
C311 C313 1.390 . S
C311 H315 0.950 . S
H312 C308 0.950 . S
C313 C311 1.390 . S
C313 C314 1.387 . S
C313 H316 0.950 . S
C314 C313 1.387 . S
C314 C317 1.387 . S
H315 C311 0.950 . S
H316 C313 0.950 . S
C317 C308 1.390 . S
C317 H310 0.950 . S
C317 C314 1.387 . S
C318 C319 1.387 . S
C318 H322 0.950 . S
C318 C327 1.390 . S
C319 C318 1.387 . S
C319 C321 1.387 . S
H320 C327 0.950 . S
C321 C319 1.387 . S
C321 C323 1.390 . S
C321 H325 0.950 . S
H322 C318 0.950 . S
C323 C321 1.390 . S
C323 C324 1.387 . S
C323 H326 0.950 . S
C324 C323 1.387 . S
C324 C327 1.387 . S
H325 C321 0.950 . S
H326 C323 0.950 . S
C327 C318 1.390 . S
C327 H320 0.950 . S
C327 C324 1.387 . S
C328 C329 1.387 . S
C328 H332 0.950 . S
C328 C337 1.390 1_655 S
C329 C328 1.387 . S
C329 C331 1.387 . S
H330 C337 0.950 . S
C331 C329 1.387 . S
C331 C333 1.390 1_655 S
C331 H335 0.950 . S
H332 C328 0.950 . S
C333 C331 1.390 1_455 S
C333 C334 1.387 . S
C333 H336 0.950 . S
C334 C333 1.387 . S
C334 C337 1.387 . S
H335 C331 0.950 . S
H336 C333 0.950 . S
C337 C328 1.390 1_455 S
C337 H330 0.950 . S
C337 C334 1.387 . S
C338 C339 1.387 . S
C338 H342 0.950 . S
C338 C347 1.390 1_545 S
C339 C338 1.387 . S
C339 C341 1.387 . S
H340 C347 0.950 . S
C341 C339 1.387 . S
C341 C343 1.390 1_545 S
C341 H345 0.950 . S
H342 C338 0.950 . S
C343 C341 1.390 1_565 S
C343 C344 1.387 . S
C343 H346 0.950 . S
C344 C343 1.387 . S
C344 C347 1.387 . S
H345 C341 0.950 . S
H346 C343 0.950 . S
C347 C338 1.390 1_565 S
C347 H340 0.950 . S
C347 C344 1.387 . S
C348 C349 1.387 . S
C348 H352 0.950 . S
C348 C357 1.390 . S
C349 C348 1.387 . S
C349 C351 1.387 . S
H350 C357 0.950 . S
C351 C349 1.387 . S
C351 C353 1.390 . S
C351 H355 0.950 . S
H352 C348 0.950 . S
C353 C351 1.390 . S
C353 C354 1.387 . S
C353 H356 0.950 . S
C354 C353 1.387 . S
C354 C357 1.387 . S
H355 C351 0.950 . S
H356 C353 0.950 . S
C357 C348 1.390 . S
C357 H350 0.950 . S
C357 C354 1.387 . S
C358 C359 1.387 . S
C358 H362 0.950 . S
C358 C367 1.390 1_655 S
C359 C358 1.387 . S
C359 C361 1.387 . S
H360 C367 0.950 . S
C361 C359 1.387 . S
C361 C363 1.390 1_655 S
C361 H365 0.950 . S
H362 C358 0.950 . S
C363 C361 1.390 1_455 S
C363 C364 1.387 . S
C363 H366 0.950 . S
C364 C363 1.387 . S
C364 C367 1.387 . S
H365 C361 0.950 . S
H366 C363 0.950 . S
C367 C358 1.390 1_455 S
C367 H360 0.950 . S
C367 C364 1.387 . S
C368 C369 1.387 . S
C368 H372 0.950 . S
C368 C377 1.390 1_545 S
C369 C368 1.387 . S
C369 C371 1.387 . S
H370 C377 0.950 . S
C371 C369 1.387 . S
C371 C373 1.390 1_545 S
C371 H375 0.950 . S
H372 C368 0.950 . S
C373 C371 1.390 1_565 S
C373 C374 1.387 . S
C373 H376 0.950 . S
C374 C373 1.387 . S
C374 C377 1.387 . S
H375 C371 0.950 . S
H376 C373 0.950 . S
C377 C368 1.390 1_565 S
C377 H370 0.950 . S
C377 C374 1.387 . S
C378 C379 1.387 . S
C378 H382 0.950 . S
C378 C387 1.390 . S
C379 C378 1.387 . S
C379 C381 1.387 1_554 S
H380 C387 0.950 . S
C381 C379 1.387 1_556 S
C381 C383 1.390 . S
C381 H385 0.950 . S
H382 C378 0.950 . S
C383 C381 1.390 . S
C383 C384 1.387 . S
C383 H386 0.950 . S
C384 C383 1.387 . S
C384 C387 1.387 1_556 S
H385 C381 0.950 . S
H386 C383 0.950 . S
C387 C378 1.390 . S
C387 H380 0.950 . S
C387 C384 1.387 1_554 S
C388 C389 1.387 . S
C388 H392 0.950 . S
C388 C397 1.390 . S
C389 C388 1.387 . S
C389 C391 1.387 . S
H390 C397 0.950 . S
C391 C389 1.387 . S
C391 C393 1.390 1_655 S
C391 H395 0.950 . S
H392 C388 0.950 . S
C393 C391 1.390 1_455 S
C393 C394 1.387 1_455 S
C393 H396 0.950 . S
C394 C393 1.387 1_655 S
C394 C397 1.387 . S
H395 C391 0.950 . S
H396 C393 0.950 . S
C397 C388 1.390 . S
C397 H390 0.950 . S
C397 C394 1.387 . S
C398 C399 1.387 . S
C398 H402 0.950 . S
C398 C407 1.399 . S
C399 C398 1.387 . S
C399 C401 1.387 1_554 S
H400 C407 0.950 . S
C401 C399 1.387 1_556 S
C401 C403 1.390 . S
C401 H405 0.950 . S
H402 C398 0.950 . S
C403 C401 1.390 . S
C403 C404 1.387 . S
C403 H406 0.950 . S
C404 C403 1.387 . S
C404 C407 1.379 1_556 S
H405 C401 0.950 . S
H406 C403 0.950 . S
C407 C398 1.399 . S
C407 H400 0.950 . S
C407 C404 1.379 1_554 S
C408 C409 1.387 . S
C408 H412 0.950 . S
C408 C417 1.390 . S
C409 C408 1.387 . S
C409 C411 1.387 . S
H410 C417 0.950 . S
C411 C409 1.387 . S
C411 C413 1.390 . S
C411 H415 0.950 . S
H412 C408 0.950 . S
C413 C411 1.390 . S
C413 C414 1.387 . S
C413 H416 0.950 . S
C414 C413 1.387 . S
C414 C417 1.387 . S
H415 C411 0.950 . S
H416 C413 0.950 . S
C417 C408 1.390 . S
C417 H410 0.950 . S
C417 C414 1.387 . S
C418 C419 1.387 1_654 S
C418 H422 0.950 . S
C418 C427 1.390 1_655 S
C419 C418 1.387 1_456 S
C419 C421 1.387 . S
H420 C427 0.950 . S
C421 C419 1.387 . S
C421 C423 1.390 . S
C421 H425 0.950 . S
H422 C418 0.950 . S
C423 C421 1.390 . S
C423 C424 1.387 1_556 S
C423 H426 0.950 . S
C424 C423 1.387 1_554 S
C424 C427 1.387 . S
H425 C421 0.950 . S
H426 C423 0.950 . S
C427 C418 1.390 1_455 S
C427 H420 0.950 . S
C427 C424 1.387 . S
C428 C429 1.387 . S
C428 H432 0.950 . S
C428 C437 1.390 . S
C429 C428 1.387 . S
C429 C431 1.387 . S
H430 C437 0.950 1_565 S
C431 C429 1.387 . S
C431 C433 1.390 . S
C431 H435 0.950 . S
H432 C428 0.950 . S
C433 C431 1.390 . S
C433 C434 1.387 . S
C433 H436 0.950 . S
C434 C433 1.387 . S
C434 C437 1.387 . S
H435 C431 0.950 . S
H436 C433 0.950 . S
C437 C428 1.390 . S
C437 H430 0.950 1_545 S
C437 C434 1.387 . S
C438 C439 1.387 1_554 S
C438 H442 0.950 . S
C438 C447 1.390 . S
C439 C438 1.387 1_556 S
C439 C441 1.387 . S
H440 C447 0.950 . S
C441 C439 1.387 . S
C441 C443 1.390 . S
C441 H445 0.950 . S
H442 C438 0.950 . S
C443 C441 1.390 . S
C443 C444 1.387 1_556 S
C443 H446 0.950 . S
C444 C443 1.387 1_554 S
C444 C447 1.387 . S
H445 C441 0.950 . S
H446 C443 0.950 . S
C447 C438 1.390 . S
C447 H440 0.950 . S
C447 C444 1.387 . S
C448 C449 1.387 . S
C448 H452 0.950 . S
C448 C457 1.390 1_455 S
C449 C448 1.387 . S
C449 C451 1.387 . S
H450 C457 0.950 . S
C451 C449 1.387 . S
C451 C453 1.390 . S
C451 H455 0.950 . S
H452 C448 0.950 . S
C453 C451 1.390 . S
C453 C454 1.402 . S
C453 H456 0.950 . S
C454 C453 1.402 . S
C454 C457 1.389 1_455 S
H455 C451 0.950 . S
H456 C453 0.950 . S
C457 C448 1.390 1_655 S
C457 H450 0.950 . S
C457 C454 1.389 1_655 S
C458 C459 1.387 . S
C458 H462 0.950 . S
C458 C467 1.382 1_556 S
C459 C458 1.387 . S
C459 C461 1.391 . S
H460 C467 0.950 . S
C461 C459 1.391 . S
C461 C463 1.387 1_556 S
C461 H465 0.950 . S
H462 C458 0.950 . S
C463 C461 1.387 1_554 S
C463 C464 1.387 . S
C463 H466 0.950 . S
C464 C463 1.387 . S
C464 C467 1.395 . S
H465 C461 0.950 . S
H466 C463 0.950 . S
C467 C458 1.382 1_554 S
C467 H460 0.950 . S
C467 C464 1.395 . S
C468 C469 1.387 . S
C468 H472 0.950 . S
C468 C477 1.390 . S
C469 C468 1.387 . S
C469 C471 1.387 . S
H470 C477 0.950 . S
C471 C469 1.387 . S
C471 C473 1.390 . S
C471 H475 0.950 . S
H472 C468 0.950 . S
C473 C471 1.390 . S
C473 C474 1.387 . S
C473 H476 0.950 . S
C474 C473 1.387 . S
C474 C477 1.387 . S
H475 C471 0.950 . S
H476 C473 0.950 . S
C477 C468 1.390 . S
C477 H470 0.950 . S
C477 C474 1.387 . S
C478 C479 1.387 . S
C478 H482 0.950 . S
C478 C487 1.390 . S
C479 C478 1.387 . S
C479 C481 1.387 1_554 S
H480 C487 0.950 . S
C481 C479 1.387 1_556 S
C481 C483 1.390 . S
C481 H485 0.950 1_655 S
H482 C478 0.950 . S
C483 C481 1.390 . S
C483 C484 1.387 . S
C483 H486 0.950 . S
C484 C483 1.387 . S
C484 C487 1.387 1_556 S
H485 C481 0.950 1_455 S
H486 C483 0.950 . S
C487 C478 1.390 . S
C487 H480 0.950 . S
C487 C484 1.387 1_554 S
C488 C489 1.387 . S
C488 H492 0.950 . S
C488 C497 1.390 . S
C489 C488 1.387 . S
C489 C491 1.387 . S
H490 C497 0.950 . S
C491 C489 1.387 . S
C491 C493 1.390 . S
C491 H495 0.950 1_565 S
H492 C488 0.950 . S
C493 C491 1.390 . S
C493 C494 1.387 . S
C493 H496 0.950 . S
C494 C493 1.387 . S
C494 C497 1.387 . S
H495 C491 0.950 1_545 S
H496 C493 0.950 . S
C497 C488 1.390 . S
C497 H490 0.950 . S
C497 C494 1.387 . S
C259 C32 1.440 . S
C264 N175 1.447 . S
C269 N223 1.416 . S
C274 C56 1.288 . S
C279 N8 1.447 . S
C284 C118 1.440 . S
C289 N51 1.416 . S
C294 C142 1.288 . S
C299 C199 1.437 . S
C304 N94 1.446 . S
C309 C228 1.288 . S
C314 N137 1.416 . S
C319 C33 1.281 . S
C324 N180 1.015 . S
C329 C82 1.182 . S
C334 N218 1.155 . S
C339 N3 1.015 . S
C344 C119 1.281 . S
C349 N46 1.154 . S
C354 C168 1.181 . S
C359 N89 1.015 . S
C364 C212 1.281 . S
C369 C254 1.183 . S
C374 N132 1.153 . S
C379 C13 1.939 . S
C384 C242 1.879 . S
C389 C83 1.972 . S
C394 C39 1.702 1_655 S
C399 C99 1.939 . S
C404 C70 1.879 1_565 S
C409 C169 1.971 . S
C414 C125 1.700 . S
C419 C156 1.881 1_455 S
C424 C211 1.940 . S
C429 C255 1.973 . S
C434 C185 1.701 1_545 S
C439 C161 1.999 . S
C444 C113 1.922 . S
C449 C205 1.859 . S
C454 C162 1.757 1_455 S
C459 C247 2.000 . S
C464 C204 1.925 1_545 S
C469 C248 1.771 . S
C474 C40 1.860 . S
C479 C27 1.922 1_655 S
C484 C75 1.998 . S
C489 C76 1.771 1_565 S
C494 C126 1.861 . S
