# Generated by pormake.
# Topology skc, (5)-cn, num edge types: 1
# Building blocks:
#     Node 0, Type 0, BuildingBlock: BEQFEK_clean_sbu_0, # of connection points: 5
#     Node 1, Type 0, BuildingBlock: BEQFEK_clean_sbu_0, # of connection points: 5
#     Node 2, Type 0, BuildingBlock: BEQFEK_clean_sbu_0, # of connection points: 5
#     Node 3, Type 0, BuildingBlock: BEQFEK_clean_sbu_0, # of connection points: 5
#     Node 4, Type 0, BuildingBlock: BEQFEK_clean_sbu_0, # of connection points: 5
#     Node 5, Type 0, BuildingBlock: BEQFEK_clean_sbu_0, # of connection points: 5
#     Node 6, Type 0, BuildingBlock: BEQFEK_clean_sbu_0, # of connection points: 5
#     Node 7, Type 0, BuildingBlock: BEQFEK_clean_sbu_0, # of connection points: 5
#     Edge 8, Type (0, 0), BuildingBlock: KIFKEQ_clean_linker_1, # of connection points: 2
#     Edge 9, Type (0, 0), BuildingBlock: KIFKEQ_clean_linker_1, # of connection points: 2
#     Edge 10, Type (0, 0), BuildingBlock: KIFKEQ_clean_linker_1, # of connection points: 2
#     Edge 11, Type (0, 0), BuildingBlock: KIFKEQ_clean_linker_1, # of connection points: 2
#     Edge 12, Type (0, 0), BuildingBlock: KIFKEQ_clean_linker_1, # of connection points: 2
#     Edge 13, Type (0, 0), BuildingBlock: KIFKEQ_clean_linker_1, # of connection points: 2
#     Edge 14, Type (0, 0), BuildingBlock: KIFKEQ_clean_linker_1, # of connection points: 2
#     Edge 15, Type (0, 0), BuildingBlock: KIFKEQ_clean_linker_1, # of connection points: 2
#     Edge 16, Type (0, 0), BuildingBlock: KIFKEQ_clean_linker_1, # of connection points: 2
#     Edge 17, Type (0, 0), BuildingBlock: KIFKEQ_clean_linker_1, # of connection points: 2
#     Edge 18, Type (0, 0), BuildingBlock: KIFKEQ_clean_linker_1, # of connection points: 2
#     Edge 19, Type (0, 0), BuildingBlock: KIFKEQ_clean_linker_1, # of connection points: 2
#     Edge 20, Type (0, 0), BuildingBlock: KIFKEQ_clean_linker_1, # of connection points: 2
#     Edge 21, Type (0, 0), BuildingBlock: KIFKEQ_clean_linker_1, # of connection points: 2
#     Edge 22, Type (0, 0), BuildingBlock: KIFKEQ_clean_linker_1, # of connection points: 2
#     Edge 23, Type (0, 0), BuildingBlock: KIFKEQ_clean_linker_1, # of connection points: 2
#     Edge 24, Type (0, 0), BuildingBlock: KIFKEQ_clean_linker_1, # of connection points: 2
#     Edge 25, Type (0, 0), BuildingBlock: KIFKEQ_clean_linker_1, # of connection points: 2
#     Edge 26, Type (0, 0), BuildingBlock: KIFKEQ_clean_linker_1, # of connection points: 2
#     Edge 27, Type (0, 0), BuildingBlock: KIFKEQ_clean_linker_1, # of connection points: 2
# Relax obj value: 0.153
# Max RMSD: 0.194
# Mean RMSD: 0.194
data_MOF--net-skc--node1-BEQFEK_clean_sbu_0--edge1-KIFKEQ_clean_linker_1
_symmetry_space_group_name_H-M    P1
_symmetry_Int_Tables_number       1
_symmetry_cell_setting            triclinic
loop_
_symmetry_equiv_pos_as_xyz
'x, y, z'
_cell_length_a     46.653829
_cell_length_b     22.532738
_cell_length_c     25.085495
_cell_angle_alpha  90.08775
_cell_angle_beta   90.011093
_cell_angle_gamma 89.987176
loop_
_atom_site_label
_atom_site_type_symbol
_atom_site_fract_x
_atom_site_fract_y
_atom_site_fract_z
_atom_type_partial_charge
Co0 Co 0.07946 0.19949 0.12483 0.0
Co1 Co 0.11536 0.25635 0.03214 0.0
C2 C 0.07592 0.15133 0.01418 0.0
O3 O 0.06904 0.14888 0.0633 0.0
O4 O 0.0937 0.19008 0.99713 0.0
C5 C 0.04603 0.12419 0.19748 0.0
O6 O 0.03887 0.09181 0.15598 0.0
C7 C 0.15908 0.26615 0.94667 0.0
C8 C 0.16746 0.36265 0.94806 0.0
C9 C 0.17594 0.31027 0.92368 0.0
N10 N 0.14173 0.29158 0.98302 0.0
N11 N 0.14666 0.34931 0.98311 0.0
C12 C 0.16106 0.20055 0.93825 0.0
H13 H 0.1522 0.17653 0.97316 0.0
H14 H 0.18365 0.18702 0.93149 0.0
H15 H 0.14831 0.18823 0.90257 0.0
C16 C 0.13685 0.19502 0.175 0.0
N17 N 0.1197 0.20686 0.13313 0.0
N18 N 0.135 0.23079 0.09472 0.0
C19 C 0.16249 0.23518 0.11116 0.0
C20 C 0.1646 0.21259 0.16259 0.0
C21 C 0.12614 0.17237 0.22742 0.0
H22 H 0.10914 0.20247 0.24251 0.0
H23 H 0.11642 0.12788 0.22159 0.0
H24 H 0.1434 0.16953 0.25767 0.0
O25 O 0.0613 0.27803 0.11427 0.0
O26 O 0.08735 0.31988 0.05064 0.0
H27 H 0.18141 0.30725 0.06841 0.0
H28 H 0.20723 0.25777 0.0988 0.0
C29 C 0.18626 0.26031 0.07814 0.0
H30 H 0.18782 0.23515 0.04031 0.0
H31 H 0.13632 0.37947 0.00819 0.0
O32 O 0.0626 0.16841 0.19145 0.0
C33 C 0.06663 0.32162 0.08365 0.0
Co34 Co 0.92828 0.80296 0.14074 0.0
Co35 Co 0.89117 0.75483 0.04519 0.0
C36 C 0.93348 0.85381 0.03063 0.0
O37 O 0.94015 0.85205 0.07977 0.0
O38 O 0.91428 0.81966 0.01135 0.0
C39 C 0.94511 0.88548 0.22574 0.0
O40 O 0.92597 0.92294 0.20736 0.0
C41 C 0.84721 0.74877 0.95858 0.0
C42 C 0.83849 0.65241 0.95797 0.0
C43 C 0.83042 0.7053 0.93423 0.0
N44 N 0.86398 0.72252 0.99545 0.0
N45 N 0.85871 0.66491 0.99446 0.0
C46 C 0.84811 0.81365 0.94596 0.0
H47 H 0.86916 0.83281 0.95683 0.0
H48 H 0.83139 0.83703 0.96939 0.0
H49 H 0.84391 0.8212 0.90295 0.0
C50 C 0.87059 0.8075 0.19195 0.0
N51 N 0.88778 0.79873 0.1494 0.0
N52 N 0.87213 0.77995 0.10901 0.0
C53 C 0.84444 0.777 0.12461 0.0
C54 C 0.84258 0.79468 0.17753 0.0
C55 C 0.88099 0.82061 0.24718 0.0
H56 H 0.90252 0.80111 0.25351 0.0
H57 H 0.88214 0.86934 0.25288 0.0
H58 H 0.86605 0.80247 0.27749 0.0
O59 O 0.94435 0.72319 0.12883 0.0
O60 O 0.91822 0.68828 0.0618 0.0
H61 H 0.82353 0.70986 0.07858 0.0
H62 H 0.79922 0.76199 0.10967 0.0
C63 C 0.82029 0.75704 0.0897 0.0
H64 H 0.82016 0.78381 0.05276 0.0
H65 H 0.86875 0.63407 0.01922 0.0
O66 O 0.94822 0.83485 0.20415 0.0
C67 C 0.93841 0.68227 0.09563 0.0
Co68 Co 0.08096 0.7953 0.64607 0.0
Co69 Co 0.11546 0.74399 0.74306 0.0
C70 C 0.07406 0.84552 0.75588 0.0
O71 O 0.06795 0.84429 0.70644 0.0
O72 O 0.09269 0.81042 0.77587 0.0
C73 C 0.04896 0.87143 0.5733 0.0
O74 O 0.04238 0.90386 0.6151 0.0
C75 C 0.1582 0.73623 0.83048 0.0
C76 C 0.16651 0.63968 0.83103 0.0
C77 C 0.17486 0.69256 0.85464 0.0
N78 N 0.14112 0.71007 0.79411 0.0
N79 N 0.14596 0.65232 0.79524 0.0
C80 C 0.1602 0.80199 0.83779 0.0
H81 H 0.15127 0.82533 0.80255 0.0
H82 H 0.18281 0.81559 0.8442 0.0
H83 H 0.14756 0.81506 0.87337 0.0
C84 C 0.13914 0.80235 0.60033 0.0
N85 N 0.12135 0.7909 0.6413 0.0
N86 N 0.13614 0.76888 0.68132 0.0
C87 C 0.16396 0.76523 0.66675 0.0
C88 C 0.16679 0.78648 0.61498 0.0
C89 C 0.12917 0.82267 0.54663 0.0
H90 H 0.11263 0.79155 0.53149 0.0
H91 H 0.11908 0.86706 0.55053 0.0
H92 H 0.14693 0.82493 0.51736 0.0
O93 O 0.06406 0.71579 0.65518 0.0
O94 O 0.08826 0.67891 0.72368 0.0
H95 H 0.18239 0.69505 0.71273 0.0
H96 H 0.20854 0.74318 0.68166 0.0
C97 C 0.18734 0.74153 0.70157 0.0
H98 H 0.18848 0.76833 0.73853 0.0
H99 H 0.13583 0.62165 0.77038 0.0
O100 O 0.06493 0.82618 0.57885 0.0
C101 C 0.06889 0.67412 0.68811 0.0
Co102 Co 0.93062 0.19012 0.63746 0.0
Co103 Co 0.89298 0.24422 0.72969 0.0
C104 C 0.93346 0.14167 0.74826 0.0
O105 O 0.94055 0.13946 0.69927 0.0
O106 O 0.91528 0.17968 0.76495 0.0
C107 C 0.9472 0.10786 0.55138 0.0
O108 O 0.92759 0.07085 0.56874 0.0
C109 C 0.84868 0.25214 0.81523 0.0
C110 C 0.84072 0.34879 0.81589 0.0
C111 C 0.83219 0.29614 0.83949 0.0
N112 N 0.86573 0.27785 0.77853 0.0
N113 N 0.86091 0.33563 0.7795 0.0
C114 C 0.84899 0.1872 0.82771 0.0
H115 H 0.86984 0.16718 0.81684 0.0
H116 H 0.83207 0.16458 0.80419 0.0
H117 H 0.84473 0.17969 0.87071 0.0
C118 C 0.87335 0.18972 0.58331 0.0
N119 N 0.89021 0.19777 0.62649 0.0
N120 N 0.8744 0.21862 0.66584 0.0
C121 C 0.84699 0.22352 0.64907 0.0
C122 C 0.84542 0.20512 0.59634 0.0
C123 C 0.88409 0.175 0.52865 0.0
H124 H 0.90594 0.19309 0.52282 0.0
H125 H 0.88458 0.12613 0.52364 0.0
H126 H 0.86973 0.19353 0.49756 0.0
O127 O 0.94797 0.2691 0.65006 0.0
O128 O 0.92051 0.3091 0.71283 0.0
H129 H 0.82671 0.29315 0.69306 0.0
H130 H 0.80188 0.24189 0.66222 0.0
C131 C 0.82283 0.24594 0.68276 0.0
H132 H 0.82194 0.22011 0.72021 0.0
H133 H 0.87128 0.36615 0.75493 0.0
O134 O 0.95077 0.1577 0.57421 0.0
C135 C 0.9417 0.31208 0.68093 0.0
Co136 Co 0.57823 0.70353 0.63619 0.0
Co137 Co 0.61629 0.75997 0.54582 0.0
C138 C 0.57652 0.65791 0.52381 0.0
O139 O 0.569 0.65517 0.57257 0.0
O140 O 0.59486 0.69601 0.508 0.0
C141 C 0.55949 0.61896 0.7197 0.0
O142 O 0.57886 0.58104 0.70282 0.0
C143 C 0.66017 0.77 0.46055 0.0
C144 C 0.67216 0.86448 0.46817 0.0
C145 C 0.67856 0.81305 0.44025 0.0
N146 N 0.64391 0.79502 0.49885 0.0
N147 N 0.65097 0.85165 0.50261 0.0
C148 C 0.65983 0.70515 0.44774 0.0
H149 H 0.64583 0.69757 0.41262 0.0
H150 H 0.65111 0.6795 0.48181 0.0
H151 H 0.68172 0.68921 0.43798 0.0
C152 C 0.63509 0.7012 0.69131 0.0
N153 N 0.61845 0.71065 0.64811 0.0
N154 N 0.63446 0.73215 0.6094 0.0
C155 C 0.66184 0.73577 0.62648 0.0
C156 C 0.66314 0.71644 0.67895 0.0
C157 C 0.62395 0.6847 0.74523 0.0
H158 H 0.60212 0.70292 0.75109 0.0
H159 H 0.62313 0.63567 0.7485 0.0
H160 H 0.63819 0.70175 0.77722 0.0
O161 O 0.56111 0.78275 0.62549 0.0
O162 O 0.58845 0.82434 0.56356 0.0
H163 H 0.68411 0.80522 0.58596 0.0
H164 H 0.70731 0.74809 0.6123 0.0
C165 C 0.68635 0.75687 0.59304 0.0
H166 H 0.68595 0.73377 0.55408 0.0
H167 H 0.64183 0.88122 0.52978 0.0
O168 O 0.55717 0.66957 0.69777 0.0
C169 C 0.56727 0.82647 0.59559 0.0
Co170 Co 0.4257 0.30955 0.62583 0.0
Co171 Co 0.39002 0.24932 0.53368 0.0
C172 C 0.43171 0.35017 0.51365 0.0
O173 O 0.43772 0.3556 0.56292 0.0
O174 O 0.41364 0.31157 0.49755 0.0
C175 C 0.46949 0.35536 0.69303 0.0
O176 O 0.48552 0.34203 0.65164 0.0
C177 C 0.34601 0.24163 0.44814 0.0
C178 C 0.34 0.1446 0.44249 0.0
C179 C 0.33044 0.19791 0.4215 0.0
N180 N 0.36356 0.21513 0.48355 0.0
N181 N 0.35989 0.15714 0.47969 0.0
C182 C 0.34516 0.30722 0.43891 0.0
H183 H 0.36536 0.3283 0.45229 0.0
H184 H 0.32734 0.32687 0.46226 0.0
H185 H 0.3415 0.31696 0.39608 0.0
C186 C 0.36797 0.31782 0.67377 0.0
N187 N 0.38529 0.30465 0.63246 0.0
N188 N 0.37022 0.27862 0.59473 0.0
C189 C 0.3428 0.27361 0.61132 0.0
C190 C 0.34043 0.29855 0.66185 0.0
C191 C 0.37847 0.34246 0.72568 0.0
H192 H 0.39515 0.31256 0.74217 0.0
H193 H 0.38856 0.38634 0.71864 0.0
H194 H 0.36097 0.34723 0.75529 0.0
O195 O 0.44274 0.22918 0.61906 0.0
O196 O 0.41687 0.1853 0.55586 0.0
H197 H 0.32624 0.19788 0.57 0.0
H198 H 0.29899 0.24264 0.60217 0.0
C199 C 0.31956 0.24379 0.58007 0.0
H200 H 0.31614 0.26822 0.54236 0.0
H201 H 0.37088 0.12603 0.50272 0.0
O202 O 0.44263 0.34635 0.69041 0.0
C203 C 0.4372 0.18431 0.58984 0.0
Co204 Co 0.58069 0.29824 0.13659 0.0
Co205 Co 0.6182 0.24429 0.22908 0.0
C206 C 0.57779 0.34629 0.24802 0.0
O207 O 0.57066 0.34806 0.19899 0.0
O208 O 0.59625 0.30894 0.26493 0.0
C209 C 0.56321 0.37954 0.05017 0.0
O210 O 0.58137 0.41884 0.06904 0.0
C211 C 0.6621 0.23517 0.31477 0.0
C212 C 0.67344 0.14021 0.30845 0.0
C213 C 0.68034 0.19199 0.3354 0.0
N214 N 0.6455 0.20987 0.2771 0.0
N215 N 0.65216 0.15296 0.27419 0.0
C216 C 0.66223 0.30025 0.32658 0.0
H217 H 0.65294 0.32543 0.29273 0.0
H218 H 0.68437 0.31591 0.33467 0.0
H219 H 0.64897 0.30872 0.36251 0.0
C220 C 0.63793 0.30001 0.08319 0.0
N221 N 0.62101 0.29109 0.12607 0.0
N222 N 0.6368 0.27066 0.16554 0.0
C223 C 0.66434 0.26722 0.14925 0.0
C224 C 0.66594 0.28569 0.09658 0.0
C225 C 0.62719 0.31493 0.0286 0.0
H226 H 0.60577 0.29499 0.02203 0.0
H227 H 0.62559 0.36381 0.02464 0.0
H228 H 0.64205 0.29841 0.99739 0.0
O229 O 0.56353 0.21954 0.14862 0.0
O230 O 0.59047 0.1796 0.21203 0.0
H231 H 0.68628 0.19908 0.19216 0.0
H232 H 0.70973 0.2548 0.16427 0.0
C233 C 0.68869 0.24707 0.18357 0.0
H234 H 0.68825 0.27169 0.22178 0.0
H235 H 0.64274 0.12314 0.24758 0.0
O236 O 0.56067 0.32937 0.07274 0.0
C237 C 0.56947 0.1767 0.17967 0.0
Co238 Co 0.42589 0.69858 0.1468 0.0
Co239 Co 0.3909 0.75524 0.24146 0.0
C240 C 0.43258 0.65242 0.25646 0.0
O241 O 0.43839 0.64842 0.20695 0.0
O242 O 0.41481 0.69097 0.27389 0.0
C243 C 0.45475 0.62153 0.06797 0.0
O244 O 0.45733 0.58095 0.10521 0.0
C245 C 0.34781 0.75948 0.3289 0.0
C246 C 0.34187 0.8563 0.33726 0.0
C247 C 0.33259 0.80236 0.3573 0.0
N248 N 0.36492 0.78712 0.29347 0.0
N249 N 0.36128 0.84496 0.29895 0.0
C250 C 0.34709 0.69362 0.33642 0.0
H251 H 0.36713 0.67302 0.32167 0.0
H252 H 0.32899 0.67473 0.31328 0.0
H253 H 0.34395 0.68247 0.37911 0.0
C254 C 0.36771 0.69102 0.10053 0.0
N255 N 0.38544 0.70378 0.14134 0.0
N256 N 0.37067 0.72879 0.18001 0.0
C257 C 0.34305 0.73365 0.16455 0.0
C258 C 0.34025 0.70957 0.11379 0.0
C259 C 0.37762 0.66675 0.04808 0.0
H260 H 0.39337 0.69781 0.03027 0.0
H261 H 0.38863 0.62373 0.05465 0.0
H262 H 0.35965 0.66044 0.0197 0.0
O263 O 0.44304 0.77806 0.15756 0.0
O264 O 0.41742 0.82053 0.22167 0.0
H265 H 0.32668 0.80734 0.20899 0.0
H266 H 0.2993 0.76402 0.17565 0.0
C267 C 0.31998 0.76192 0.19733 0.0
H268 H 0.31682 0.73575 0.23419 0.0
H269 H 0.37197 0.8768 0.27627 0.0
O270 O 0.44233 0.67034 0.07859 0.0
C271 C 0.43777 0.82207 0.18787 0.0
H272 H 0.01179 0.32813 0.12118 0.0
H273 H 0.07861 0.43431 0.04968 0.0
H274 H 0.98022 0.41473 0.12297 0.0
H275 H 0.04706 0.52115 0.05254 0.0
H276 H 0.99247 0.66964 0.13513 0.0
H277 H 0.02334 0.5823 0.13099 0.0
H278 H 0.95649 0.48512 0.05022 0.0
H279 H 0.92555 0.57309 0.05331 0.0
C280 C 0.01979 0.37 0.1061 0.0
C281 C 0.04775 0.37445 0.08544 0.0
C282 C 1.00163 0.41937 0.10683 0.0
C283 C 0.01124 0.47445 0.08789 0.0
C284 C 0.03922 0.47914 0.06758 0.0
C285 C 0.05721 0.42947 0.06584 0.0
C286 C 0.98425 0.62964 0.11663 0.0
C287 C 0.95651 0.62823 0.09465 0.0
C288 C 1.00203 0.57984 0.11398 0.0
C289 C 0.99229 0.52718 0.0902 0.0
C290 C 0.96443 0.52525 0.06892 0.0
C291 C 0.9468 0.57554 0.0706 0.0
H292 H 0.99709 0.32087 0.64692 0.0
H293 H 0.92827 0.42377 0.71604 0.0
H294 H 0.02821 0.4081 0.64948 0.0
H295 H 0.95939 0.5113 0.71754 0.0
H296 H 0.01576 0.66304 0.644 0.0
H297 H 0.98488 0.57553 0.64295 0.0
H298 H 0.0498 0.47585 0.72647 0.0
H299 H 0.08068 0.56385 0.72857 0.0
C300 C 0.98854 0.36218 0.66231 0.0
C301 C 0.96018 0.3655 0.68115 0.0
C302 C 0.00643 0.4119 0.66409 0.0
C303 C 0.99616 0.46623 0.68374 0.0
C304 C 0.96775 0.46988 0.702 0.0
C305 C 0.95 0.41982 0.70125 0.0
C306 C 0.02353 0.62246 0.66203 0.0
C307 C 0.0507 0.62031 0.68629 0.0
C308 C 0.00576 0.57256 0.6617 0.0
C309 C 0.01499 0.51914 0.68468 0.0
C310 C 0.04228 0.51656 0.70831 0.0
C311 C 0.05986 0.56688 0.70962 0.0
H312 H 0.57952 0.93861 0.55991 0.0
H313 H 0.51259 0.83436 0.63337 0.0
H314 H 0.54784 0.02535 0.5603 0.0
H315 H 0.48099 0.92072 0.6329 0.0
H316 H 0.42556 0.07144 0.55555 0.0
H317 H 0.45732 0.98505 0.55826 0.0
H318 H 0.52295 0.09113 0.63333 0.0
H319 H 0.49118 0.17734 0.6315 0.0
C320 C 0.55811 0.93421 0.57613 0.0
C321 C 0.5486 0.87966 0.59672 0.0
C322 C 0.54005 0.98384 0.57652 0.0
C323 C 0.51199 0.97954 0.59653 0.0
C324 C 0.50246 0.92506 0.61694 0.0
C325 C 0.52064 0.8758 0.61747 0.0
C326 C 0.44669 0.07625 0.57291 0.0
C327 C 0.45581 0.13119 0.59345 0.0
C328 C 0.46481 0.02682 0.57456 0.0
C329 C 0.49258 0.03161 0.59585 0.0
C330 C 0.50172 0.08642 0.61637 0.0
C331 C 0.48343 0.13557 0.61564 0.0
H332 H 0.42678 0.93463 0.22391 0.0
H333 H 0.49184 0.82809 0.14698 0.0
H334 H 0.45897 0.02045 0.2216 0.0
H335 H 0.524 0.91356 0.14562 0.0
H336 H 0.58131 0.06531 0.21753 0.0
H337 H 0.54919 0.97928 0.2191 0.0
H338 H 0.48264 0.08366 0.14514 0.0
H339 H 0.51467 0.16923 0.14264 0.0
C340 C 0.44789 0.92954 0.20653 0.0
C341 C 0.45671 0.87468 0.18543 0.0
C342 C 0.46625 0.9786 0.20513 0.0
C343 C 0.49394 0.97337 0.18359 0.0
C344 C 0.50282 0.91855 0.16278 0.0
C345 C 0.48431 0.86984 0.16325 0.0
C346 C 0.55987 0.06978 0.20144 0.0
C347 C 0.55057 0.12396 0.17978 0.0
C348 C 0.54156 0.0206 0.20223 0.0
C349 C 0.51347 0.0251 0.18238 0.0
C350 C 0.50413 0.07924 0.16102 0.0
C351 C 0.52256 0.12802 0.15929 0.0
H352 H 0.3193 0.12209 0.33981 0.0
H353 H 0.28905 0.2847 0.41166 0.0
H354 H 0.28038 0.12649 0.27503 0.0
H355 H 0.25032 0.28938 0.34675 0.0
H356 H 0.19849 0.30554 0.19199 0.0
H357 H 0.23992 0.30389 0.25194 0.0
H358 H 0.22856 0.11514 0.27384 0.0
H359 H 0.18764 0.11702 0.21287 0.0
C360 C 0.3045 0.15911 0.3415 0.0
C361 C 0.30773 0.2037 0.3803 0.0
C362 C 0.28211 0.16147 0.30451 0.0
C363 C 0.26222 0.20835 0.30557 0.0
C364 C 0.26558 0.25326 0.3441 0.0
C365 C 0.28799 0.25082 0.38119 0.0
C366 C 0.20514 0.26374 0.20932 0.0
C367 C 0.19006 0.21136 0.19782 0.0
C368 C 0.22865 0.26281 0.24397 0.0
C369 C 0.2376 0.20938 0.26773 0.0
C370 C 0.22252 0.15691 0.25573 0.0
C371 C 0.19899 0.15795 0.22119 0.0
H372 H 0.73072 0.86533 0.44445 0.0
H373 H 0.6794 0.74865 0.34687 0.0
H374 H 0.76951 0.85945 0.38008 0.0
H375 H 0.71801 0.74389 0.28112 0.0
H376 H 0.80516 0.70498 0.2004 0.0
H377 H 0.76505 0.70739 0.26328 0.0
H378 H 0.78248 0.89266 0.29498 0.0
H379 H 0.82303 0.88896 0.23375 0.0
C380 C 0.72772 0.83851 0.409 0.0
C381 C 0.70212 0.807 0.40099 0.0
C382 C 0.74991 0.83544 0.37178 0.0
C383 C 0.74694 0.80158 0.32493 0.0
C384 C 0.72128 0.76975 0.31702 0.0
C385 C 0.69913 0.77235 0.35473 0.0
C386 C 0.80011 0.74617 0.22063 0.0
C387 C 0.81702 0.79683 0.2124 0.0
C388 C 0.77712 0.74772 0.25654 0.0
C389 C 0.77053 0.80012 0.28471 0.0
C390 C 0.78722 0.85111 0.27512 0.0
C391 C 0.81032 0.84928 0.23974 0.0
H392 H 0.32227 0.87648 0.44048 0.0
H393 H 0.29155 0.71483 0.36753 0.0
H394 H 0.28371 0.87137 0.50588 0.0
H395 H 0.25324 0.70937 0.43325 0.0
H396 H 0.20132 0.69354 0.58818 0.0
H397 H 0.24315 0.69483 0.52907 0.0
H398 H 0.23157 0.88323 0.50528 0.0
H399 H 0.19018 0.88168 0.5651 0.0
C400 C 0.30748 0.83946 0.43873 0.0
C401 C 0.3104 0.79548 0.39929 0.0
C402 C 0.28531 0.83669 0.47609 0.0
C403 C 0.26538 0.78996 0.47482 0.0
C404 C 0.26854 0.74539 0.43593 0.0
C405 C 0.29071 0.74828 0.3984 0.0
C406 C 0.20804 0.7352 0.57067 0.0
C407 C 0.19276 0.78758 0.58117 0.0
C408 C 0.23177 0.73591 0.53654 0.0
C409 C 0.24072 0.78914 0.51248 0.0
C410 C 0.22551 0.84164 0.52368 0.0
C411 C 0.20173 0.84079 0.55759 0.0
H412 H 0.80965 0.29717 0.57172 0.0
H413 H 0.82485 0.11177 0.54005 0.0
H414 H 0.76951 0.29657 0.50883 0.0
H415 H 0.78429 0.10999 0.47874 0.0
H416 H 0.73203 0.1379 0.33025 0.0
H417 H 0.77138 0.14307 0.39348 0.0
H418 H 0.72185 0.26241 0.4923 0.0
H419 H 0.68265 0.25833 0.42766 0.0
C420 C 0.80404 0.25611 0.55177 0.0
C421 C 0.82018 0.20447 0.56059 0.0
C422 C 0.78103 0.25561 0.51587 0.0
C423 C 0.77365 0.20332 0.48827 0.0
C424 C 0.78965 0.15145 0.4982 0.0
C425 C 0.81277 0.1522 0.5336 0.0
C426 C 0.72958 0.16543 0.36541 0.0
C427 C 0.70434 0.19808 0.37374 0.0
C428 C 0.75209 0.1681 0.40197 0.0
C429 C 0.74982 0.20272 0.44849 0.0
C430 C 0.72457 0.23588 0.45664 0.0
C431 C 0.70209 0.23368 0.41956 0.0
H432 H 0.79163 0.79646 0.91985 0.0
H433 H 0.81629 0.62489 0.85801 0.0
H434 H 0.75218 0.80044 0.85633 0.0
H435 H 0.77652 0.62851 0.79503 0.0
H436 H 0.68256 0.62489 0.73944 0.0
H437 H 0.72382 0.62412 0.79965 0.0
H438 H 0.74152 0.80689 0.75956 0.0
H439 H 0.69986 0.80766 0.70015 0.0
C440 C 0.78921 0.76035 0.89181 0.0
C441 C 0.80758 0.71091 0.89332 0.0
C442 C 0.76637 0.7624 0.85564 0.0
C443 C 0.76117 0.71475 0.82068 0.0
C444 C 0.77972 0.66563 0.82187 0.0
C445 C 0.80259 0.66371 0.85779 0.0
C446 C 0.6953 0.6648 0.74369 0.0
C447 C 0.68827 0.71615 0.71501 0.0
C448 C 0.71903 0.66431 0.77776 0.0
C449 C 0.73606 0.71537 0.78415 0.0
C450 C 0.72876 0.76696 0.75572 0.0
C451 C 0.70512 0.76728 0.72141 0.0
H452 H 0.18086 0.23538 0.83701 0.0
H453 H 0.22472 0.37533 0.92182 0.0
H454 H 0.21989 0.23165 0.77218 0.0
H455 H 0.26375 0.37128 0.85778 0.0
H456 H 0.31457 0.39461 0.70591 0.0
H457 H 0.27403 0.3962 0.76756 0.0
H458 H 0.26973 0.20464 0.76097 0.0
H459 H 0.30993 0.20378 0.69825 0.0
C460 C 0.19906 0.2645 0.84245 0.0
C461 C 0.19984 0.30516 0.88495 0.0
C462 C 0.22141 0.26258 0.80514 0.0
C463 C 0.24497 0.30136 0.80951 0.0
C464 C 0.24574 0.34156 0.85241 0.0
C465 C 0.22341 0.34364 0.88939 0.0
C466 C 0.30477 0.35304 0.71759 0.0
C467 C 0.31518 0.29916 0.69746 0.0
C468 C 0.28169 0.35376 0.75311 0.0
C469 C 0.26867 0.30047 0.76964 0.0
C470 C 0.27896 0.24653 0.7487 0.0
C471 C 0.302 0.24592 0.71294 0.0
H472 H 0.70306 0.19493 0.07621 0.0
H473 H 0.68537 0.37749 0.03666 0.0
H474 H 0.74457 0.1958 0.01639 0.0
H475 H 0.72653 0.37843 0.97623 0.0
H476 H 0.8188 0.37682 0.91599 0.0
H477 H 0.77949 0.37362 0.98001 0.0
H478 H 0.75397 0.20246 0.9187 0.0
H479 H 0.79286 0.20611 0.85405 0.0
C480 C 0.70824 0.2353 0.0549 0.0
C481 C 0.69129 0.28631 0.06118 0.0
C482 C 0.73179 0.23569 0.02038 0.0
C483 C 0.73888 0.28723 0.99172 0.0
C484 C 0.72186 0.33828 0.99827 0.0
C485 C 0.69823 0.3377 0.03249 0.0
C486 C 0.80492 0.33828 0.91639 0.0
C487 C 0.80944 0.29113 0.8806 0.0
C488 C 0.78234 0.33659 0.95295 0.0
C489 C 0.76367 0.28772 0.95451 0.0
C490 C 0.76833 0.24023 0.91914 0.0
C491 C 0.79084 0.24209 0.88232 0.0
H492 H 0.17957 0.76886 0.94033 0.0
H493 H 0.22378 0.62813 0.85718 0.0
H494 H 0.21861 0.77388 0.00517 0.0
H495 H 0.26281 0.63355 0.92107 0.0
H496 H 0.31419 0.6127 0.0719 0.0
H497 H 0.27321 0.60989 0.01132 0.0
H498 H 0.26834 0.80148 0.01622 0.0
H499 H 0.30896 0.80353 0.07809 0.0
C500 C 0.19783 0.73981 0.93529 0.0
C501 C 0.19871 0.69851 0.89331 0.0
C502 C 0.22019 0.74249 0.97258 0.0
C503 C 0.24384 0.70387 0.96862 0.0
C504 C 0.24472 0.66312 0.92617 0.0
C505 C 0.22238 0.66024 0.88927 0.0
C506 C 0.30413 0.65401 0.06016 0.0
C507 C 0.31453 0.70825 0.07943 0.0
C508 C 0.28081 0.65259 0.02522 0.0
C509 C 0.26757 0.70554 0.0084 0.0
C510 C 0.27777 0.75985 0.0287 0.0
C511 C 0.30104 0.76114 0.06395 0.0
H512 H 0.00853 0.03586 0.2267 0.0
H513 H 0.0548 0.18719 0.28861 0.0
H514 H 0.98594 0.02219 0.31351 0.0
H515 H 0.03189 0.17446 0.37418 0.0
H516 H 1.00387 0.12338 0.53488 0.0
H517 H 0.02967 0.11675 0.45071 0.0
H518 H 0.95134 0.06379 0.37139 0.0
H519 H 0.92617 0.06668 0.45692 0.0
C520 C 0.01403 0.06589 0.25886 0.0
C521 C 0.03347 0.11263 0.25065 0.0
C522 C 1.00101 0.05811 0.30866 0.0
C523 C 0.00724 0.09664 0.35132 0.0
C524 C 0.02701 0.14282 0.34296 0.0
C525 C 0.04002 0.15051 0.29348 0.0
C526 C 0.99242 0.10919 0.4995 0.0
C527 C 0.96315 0.09567 0.50204 0.0
C528 C 0.00705 0.10597 0.45113 0.0
C529 C 0.99251 0.09107 0.40379 0.0
C530 C 0.96334 0.07513 0.40691 0.0
C531 C 0.94886 0.07683 0.45581 0.0
H532 H 0.01119 0.96 0.54624 0.0
H533 H 0.05741 0.81023 0.48112 0.0
H534 H 0.98752 0.97421 0.46051 0.0
H535 H 0.03343 0.8235 0.3966 0.0
H536 H 1.00219 0.87364 0.2382 0.0
H537 H 0.02954 0.88206 0.32057 0.0
H538 H 0.95213 0.93093 0.40497 0.0
H539 H 0.92534 0.92629 0.32117 0.0
C540 C 0.01648 0.93049 0.51357 0.0
C541 C 0.03613 0.88388 0.52059 0.0
C542 C 1.00284 0.93858 0.46442 0.0
C543 C 0.00867 0.9005 0.42126 0.0
C544 C 0.02881 0.85472 0.4283 0.0
C545 C 0.04243 0.84671 0.47715 0.0
C546 C 0.99127 0.8874 0.2743 0.0
C547 C 0.9618 0.89914 0.27378 0.0
C548 C 0.0068 0.89165 0.3216 0.0
C549 C 0.99297 0.90579 0.36983 0.0
C550 C 0.96357 0.9202 0.36867 0.0
C551 C 0.94817 0.91747 0.32081 0.0
H552 H 0.08692 0.89932 0.85151 0.0
H553 H 0.01771 0.86742 0.74124 0.0
H554 H 0.05274 0.9358 0.91716 0.0
H555 H 0.98343 0.89615 0.80746 0.0
H556 H 0.92097 0.90469 0.93359 0.0
H557 H 0.95546 0.9367 0.86672 0.0
H558 H 0.02443 0.89924 0.97769 0.0
H559 H 0.98996 0.87498 0.0448 0.0
C560 C 0.06435 0.90039 0.84137 0.0
C561 C 0.05493 0.87931 0.7918 0.0
C562 C 0.04451 0.92033 0.87934 0.0
C563 C 0.01468 0.9161 0.86975 0.0
C564 C 0.00579 0.90025 0.81789 0.0
C565 C 0.02567 0.88306 0.77934 0.0
C566 C 0.94354 0.90539 0.94373 0.0
C567 C 0.95279 0.8861 0.99397 0.0
C568 C 0.96356 0.9227 0.90506 0.0
C569 C 0.99334 0.91759 0.91477 0.0
C570 C 1.0021 0.90384 0.96713 0.0
C571 C 0.9821 0.88928 0.00625 0.0
H572 H 0.03048 0.07714 0.03386 0.0
H573 H 0.08271 0.14599 0.90579 0.0
H574 H 0.99484 0.04428 0.96928 0.0
H575 H 0.04705 0.11364 0.84159 0.0
H576 H 0.98027 0.07059 0.72983 0.0
H577 H 0.01648 0.0426 0.79522 0.0
H578 H 0.96244 0.10981 0.92138 0.0
H579 H 0.9262 0.13693 0.8565 0.0
C580 C 0.03484 0.08376 0.99188 0.0
C581 C 0.0591 0.11594 0.97515 0.0
C582 C 0.0143 0.06498 0.95487 0.0
C583 C 0.0177 0.07757 0.90038 0.0
C584 C 0.04363 0.10316 0.88322 0.0
C585 C 0.06409 0.1222 0.9202 0.0
C586 C 0.97567 0.07761 0.77168 0.0
C587 C 0.95068 0.10786 0.78774 0.0
C588 C 0.99653 0.06175 0.80913 0.0
C589 C 0.99276 0.07555 0.86334 0.0
C590 C 0.96619 0.09866 0.87996 0.0
C591 C 0.94538 0.11467 0.84257 0.0
H592 H 0.45467 0.69959 0.9854 0.0
H593 H 0.48395 0.52432 0.02935 0.0
H594 H 0.47809 0.69001 0.89984 0.0
H595 H 0.50681 0.51396 0.94211 0.0
H596 H 0.57486 0.55965 0.81032 0.0
H597 H 0.54751 0.55424 0.89352 0.0
H598 H 0.47605 0.6409 0.8165 0.0
H599 H 0.50414 0.65017 0.73512 0.0
C600 C 0.46581 0.65855 0.97656 0.0
C601 C 0.46752 0.61283 0.01445 0.0
C602 C 0.47908 0.65283 0.92708 0.0
C603 C 0.49426 0.60099 0.91375 0.0
C604 C 0.49554 0.55463 0.95123 0.0
C605 C 0.4823 0.56047 0.00112 0.0
C606 C 0.55313 0.57657 0.81118 0.0
C607 C 0.54165 0.60589 0.76671 0.0
C608 C 0.53737 0.57304 0.85862 0.0
C609 C 0.50962 0.59733 0.86184 0.0
C610 C 0.49758 0.62295 0.8159 0.0
C611 C 0.51357 0.62792 0.76915 0.0
H612 H 0.4426 0.38815 0.78542 0.0
H613 H 0.52661 0.36501 0.71589 0.0
H614 H 0.46456 0.40685 0.87202 0.0
H615 H 0.54849 0.38205 0.8027 0.0
H616 H 0.58128 0.44367 0.96402 0.0
H617 H 0.55846 0.44859 0.87619 0.0
H618 H 0.48815 0.34237 0.93489 0.0
H619 H 0.51122 0.3365 0.0217 0.0
C620 C 0.46576 0.38753 0.78849 0.0
C621 C 0.48284 0.37413 0.74391 0.0
C622 C 0.47834 0.39798 0.83818 0.0
C623 C 0.50826 0.39492 0.84451 0.0
C624 C 0.5254 0.38502 0.79927 0.0
C625 C 0.51282 0.37482 0.74949 0.0
C626 C 0.56069 0.42241 0.95821 0.0
C627 C 0.54795 0.38979 0.99952 0.0
C628 C 0.54771 0.42491 0.90791 0.0
C629 C 0.52132 0.39645 0.8986 0.0
C630 C 0.50817 0.36579 0.94081 0.0
C631 C 0.52145 0.36209 0.99051 0.0
H632 H 0.53071 0.41603 0.22878 0.0
H633 H 0.58432 0.35078 0.35647 0.0
H634 H 0.49411 0.44368 0.29334 0.0
H635 H 0.5477 0.37784 0.42067 0.0
H636 H 0.47939 0.41815 0.5323 0.0
H637 H 0.51621 0.44407 0.46773 0.0
H638 H 0.46262 0.37723 0.34067 0.0
H639 H 0.42582 0.35145 0.405 0.0
C640 C 0.53513 0.40917 0.27071 0.0
C641 C 0.56018 0.37958 0.28727 0.0
C642 C 0.51401 0.42481 0.30772 0.0
C643 C 0.51761 0.41176 0.36207 0.0
C644 C 0.5441 0.38868 0.37917 0.0
C645 C 0.56516 0.37277 0.34218 0.0
C646 C 0.47503 0.41064 0.49041 0.0
C647 C 0.44988 0.3813 0.47398 0.0
C648 C 0.49626 0.42537 0.45339 0.0
C649 C 0.49267 0.41185 0.39911 0.0
C650 C 0.46618 0.38858 0.38211 0.0
C651 C 0.44505 0.37337 0.41914 0.0
H652 H 0.53045 0.58495 0.54115 0.0
H653 H 0.5837 0.65574 0.4154 0.0
H654 H 0.49475 0.55564 0.47555 0.0
H655 H 0.54798 0.62675 0.35005 0.0
H656 H 0.48084 0.58635 0.23657 0.0
H657 H 0.51759 0.55966 0.30124 0.0
H658 H 0.46256 0.61991 0.42885 0.0
H659 H 0.42586 0.64587 0.36459 0.0
C660 C 0.53501 0.59269 0.4994 0.0
C661 C 0.55963 0.62429 0.48372 0.0
C662 C 0.51443 0.57598 0.46176 0.0
C663 C 0.51814 0.58988 0.40761 0.0
C664 C 0.54432 0.61512 0.39136 0.0
C665 C 0.56483 0.63218 0.42901 0.0
C666 C 0.47618 0.59209 0.27856 0.0
C667 C 0.45068 0.61984 0.2953 0.0
C668 C 0.49737 0.57702 0.31563 0.0
C669 C 0.49337 0.58884 0.37016 0.0
C670 C 0.4665 0.61001 0.38724 0.0
C671 C 0.44541 0.62538 0.35022 0.0
loop_
_geom_bond_atom_site_label_1
_geom_bond_atom_site_label_2
_geom_bond_distance
_geom_bond_site_symmetry_2
_ccdc_geom_bond_type
Co0 O3 1.970 . S
Co0 N17 1.989 . S
Co0 O25 1.967 . S
Co0 O32 1.920 . S
Co1 O4 1.966 1_554 S
Co1 N10 2.022 1_554 S
Co1 N18 1.993 . S
Co1 O26 1.941 . S
C2 O3 1.258 . S
C2 O4 1.263 1_554 S
O3 Co0 1.970 . S
O3 C2 1.258 . S
O4 Co1 1.966 1_556 S
O4 C2 1.263 1_556 S
C5 O6 1.235 . S
C5 O32 1.289 . S
O6 C5 1.235 . S
C7 C9 1.400 . S
C7 N10 1.351 . S
C7 C12 1.501 . S
C8 C9 1.387 . S
C8 N11 1.341 . S
C9 C7 1.400 . S
C9 C8 1.387 . S
N10 Co1 2.022 1_556 S
N10 C7 1.351 . S
N10 N11 1.365 . S
N11 C8 1.341 . S
N11 N10 1.365 . S
N11 H31 0.862 . S
C12 C7 1.501 . S
C12 H13 0.961 . S
C12 H14 0.961 . S
C12 H15 0.960 . S
H13 C12 0.961 . S
H14 C12 0.961 . S
H15 C12 0.960 . S
C16 N17 1.342 . S
C16 C20 1.401 . S
C16 C21 1.499 . S
N17 Co0 1.989 . S
N17 C16 1.342 . S
N17 N18 1.388 . S
N18 Co1 1.993 . S
N18 N17 1.388 . S
N18 C19 1.346 . S
C19 N18 1.346 . S
C19 C20 1.396 . S
C19 C29 1.510 . S
C20 C16 1.401 . S
C20 C19 1.396 . S
C21 C16 1.499 . S
C21 H22 0.959 . S
C21 H23 0.960 . S
C21 H24 0.961 . S
H22 C21 0.959 . S
H23 C21 0.960 . S
H24 C21 0.961 . S
O25 Co0 1.967 . S
O25 C33 1.258 . S
O26 Co1 1.941 . S
O26 C33 1.266 . S
H27 C29 0.959 . S
H28 C29 0.961 . S
C29 C19 1.510 . S
C29 H27 0.959 . S
C29 H28 0.961 . S
C29 H30 0.960 . S
H30 C29 0.960 . S
H31 N11 0.862 . S
O32 Co0 1.920 . S
O32 C5 1.289 . S
C33 O25 1.258 . S
C33 O26 1.266 . S
Co34 O37 1.970 . S
Co34 N51 1.989 . S
Co34 O59 1.967 . S
Co34 O66 1.920 . S
Co35 O38 1.966 1_554 S
Co35 N44 2.022 1_554 S
Co35 N52 1.993 . S
Co35 O60 1.941 . S
C36 O37 1.258 . S
C36 O38 1.263 1_554 S
O37 Co34 1.970 . S
O37 C36 1.258 . S
O38 Co35 1.966 1_556 S
O38 C36 1.263 1_556 S
C39 O40 1.235 . S
C39 O66 1.289 . S
O40 C39 1.235 . S
C41 C43 1.400 . S
C41 N44 1.351 . S
C41 C46 1.501 . S
C42 C43 1.387 . S
C42 N45 1.341 . S
C43 C41 1.400 . S
C43 C42 1.387 . S
N44 Co35 2.022 1_556 S
N44 C41 1.351 . S
N44 N45 1.365 . S
N45 C42 1.341 . S
N45 N44 1.365 . S
N45 H65 0.862 . S
C46 C41 1.501 . S
C46 H47 0.961 . S
C46 H48 0.961 . S
C46 H49 0.960 . S
H47 C46 0.961 . S
H48 C46 0.961 . S
H49 C46 0.960 . S
C50 N51 1.342 . S
C50 C54 1.401 . S
C50 C55 1.499 . S
N51 Co34 1.989 . S
N51 C50 1.342 . S
N51 N52 1.388 . S
N52 Co35 1.993 . S
N52 N51 1.388 . S
N52 C53 1.346 . S
C53 N52 1.346 . S
C53 C54 1.396 . S
C53 C63 1.510 . S
C54 C50 1.401 . S
C54 C53 1.396 . S
C55 C50 1.499 . S
C55 H56 0.959 . S
C55 H57 0.960 . S
C55 H58 0.961 . S
H56 C55 0.959 . S
H57 C55 0.960 . S
H58 C55 0.961 . S
O59 Co34 1.967 . S
O59 C67 1.258 . S
O60 Co35 1.941 . S
O60 C67 1.266 . S
H61 C63 0.959 . S
H62 C63 0.961 . S
C63 C53 1.510 . S
C63 H61 0.959 . S
C63 H62 0.961 . S
C63 H64 0.960 . S
H64 C63 0.960 . S
H65 N45 0.862 . S
O66 Co34 1.920 . S
O66 C39 1.289 . S
C67 O59 1.258 . S
C67 O60 1.266 . S
Co68 O71 1.970 . S
Co68 N85 1.989 . S
Co68 O93 1.967 . S
Co68 O100 1.920 . S
Co69 O72 1.966 . S
Co69 N78 2.022 . S
Co69 N86 1.993 . S
Co69 O94 1.941 . S
C70 O71 1.258 . S
C70 O72 1.263 . S
O71 Co68 1.970 . S
O71 C70 1.258 . S
O72 Co69 1.966 . S
O72 C70 1.263 . S
C73 O74 1.235 . S
C73 O100 1.289 . S
O74 C73 1.235 . S
C75 C77 1.400 . S
C75 N78 1.351 . S
C75 C80 1.501 . S
C76 C77 1.387 . S
C76 N79 1.341 . S
C77 C75 1.400 . S
C77 C76 1.387 . S
N78 Co69 2.022 . S
N78 C75 1.351 . S
N78 N79 1.365 . S
N79 C76 1.341 . S
N79 N78 1.365 . S
N79 H99 0.862 . S
C80 C75 1.501 . S
C80 H81 0.961 . S
C80 H82 0.961 . S
C80 H83 0.960 . S
H81 C80 0.961 . S
H82 C80 0.961 . S
H83 C80 0.960 . S
C84 N85 1.342 . S
C84 C88 1.401 . S
C84 C89 1.499 . S
N85 Co68 1.989 . S
N85 C84 1.342 . S
N85 N86 1.388 . S
N86 Co69 1.993 . S
N86 N85 1.388 . S
N86 C87 1.346 . S
C87 N86 1.346 . S
C87 C88 1.396 . S
C87 C97 1.510 . S
C88 C84 1.401 . S
C88 C87 1.396 . S
C89 C84 1.499 . S
C89 H90 0.959 . S
C89 H91 0.960 . S
C89 H92 0.961 . S
H90 C89 0.959 . S
H91 C89 0.960 . S
H92 C89 0.961 . S
O93 Co68 1.967 . S
O93 C101 1.258 . S
O94 Co69 1.941 . S
O94 C101 1.266 . S
H95 C97 0.959 . S
H96 C97 0.961 . S
C97 C87 1.510 . S
C97 H95 0.959 . S
C97 H96 0.961 . S
C97 H98 0.960 . S
H98 C97 0.960 . S
H99 N79 0.862 . S
O100 Co68 1.920 . S
O100 C73 1.289 . S
C101 O93 1.258 . S
C101 O94 1.266 . S
Co102 O105 1.970 . S
Co102 N119 1.989 . S
Co102 O127 1.967 . S
Co102 O134 1.920 . S
Co103 O106 1.966 . S
Co103 N112 2.022 . S
Co103 N120 1.993 . S
Co103 O128 1.941 . S
C104 O105 1.258 . S
C104 O106 1.263 . S
O105 Co102 1.970 . S
O105 C104 1.258 . S
O106 Co103 1.966 . S
O106 C104 1.263 . S
C107 O108 1.235 . S
C107 O134 1.289 . S
O108 C107 1.235 . S
C109 C111 1.400 . S
C109 N112 1.351 . S
C109 C114 1.501 . S
C110 C111 1.387 . S
C110 N113 1.341 . S
C111 C109 1.400 . S
C111 C110 1.387 . S
N112 Co103 2.022 . S
N112 C109 1.351 . S
N112 N113 1.365 . S
N113 C110 1.341 . S
N113 N112 1.365 . S
N113 H133 0.862 . S
C114 C109 1.501 . S
C114 H115 0.961 . S
C114 H116 0.961 . S
C114 H117 0.960 . S
H115 C114 0.961 . S
H116 C114 0.961 . S
H117 C114 0.960 . S
C118 N119 1.342 . S
C118 C122 1.401 . S
C118 C123 1.499 . S
N119 Co102 1.989 . S
N119 C118 1.342 . S
N119 N120 1.388 . S
N120 Co103 1.993 . S
N120 N119 1.388 . S
N120 C121 1.346 . S
C121 N120 1.346 . S
C121 C122 1.396 . S
C121 C131 1.510 . S
C122 C118 1.401 . S
C122 C121 1.396 . S
C123 C118 1.499 . S
C123 H124 0.959 . S
C123 H125 0.960 . S
C123 H126 0.961 . S
H124 C123 0.959 . S
H125 C123 0.960 . S
H126 C123 0.961 . S
O127 Co102 1.967 . S
O127 C135 1.258 . S
O128 Co103 1.941 . S
O128 C135 1.266 . S
H129 C131 0.959 . S
H130 C131 0.961 . S
C131 C121 1.510 . S
C131 H129 0.959 . S
C131 H130 0.961 . S
C131 H132 0.960 . S
H132 C131 0.960 . S
H133 N113 0.862 . S
O134 Co102 1.920 . S
O134 C107 1.289 . S
C135 O127 1.258 . S
C135 O128 1.266 . S
Co136 O139 1.970 . S
Co136 N153 1.989 . S
Co136 O161 1.967 . S
Co136 O168 1.920 . S
Co137 O140 1.966 . S
Co137 N146 2.022 . S
Co137 N154 1.993 . S
Co137 O162 1.941 . S
C138 O139 1.258 . S
C138 O140 1.263 . S
O139 Co136 1.970 . S
O139 C138 1.258 . S
O140 Co137 1.966 . S
O140 C138 1.263 . S
C141 O142 1.235 . S
C141 O168 1.289 . S
O142 C141 1.235 . S
C143 C145 1.400 . S
C143 N146 1.351 . S
C143 C148 1.501 . S
C144 C145 1.387 . S
C144 N147 1.341 . S
C145 C143 1.400 . S
C145 C144 1.387 . S
N146 Co137 2.022 . S
N146 C143 1.351 . S
N146 N147 1.365 . S
N147 C144 1.341 . S
N147 N146 1.365 . S
N147 H167 0.862 . S
C148 C143 1.501 . S
C148 H149 0.961 . S
C148 H150 0.961 . S
C148 H151 0.960 . S
H149 C148 0.961 . S
H150 C148 0.961 . S
H151 C148 0.960 . S
C152 N153 1.342 . S
C152 C156 1.401 . S
C152 C157 1.499 . S
N153 Co136 1.989 . S
N153 C152 1.342 . S
N153 N154 1.388 . S
N154 Co137 1.993 . S
N154 N153 1.388 . S
N154 C155 1.346 . S
C155 N154 1.346 . S
C155 C156 1.396 . S
C155 C165 1.510 . S
C156 C152 1.401 . S
C156 C155 1.396 . S
C157 C152 1.499 . S
C157 H158 0.959 . S
C157 H159 0.960 . S
C157 H160 0.961 . S
H158 C157 0.959 . S
H159 C157 0.960 . S
H160 C157 0.961 . S
O161 Co136 1.967 . S
O161 C169 1.258 . S
O162 Co137 1.941 . S
O162 C169 1.266 . S
H163 C165 0.959 . S
H164 C165 0.961 . S
C165 C155 1.510 . S
C165 H163 0.959 . S
C165 H164 0.961 . S
C165 H166 0.960 . S
H166 C165 0.960 . S
H167 N147 0.862 . S
O168 Co136 1.920 . S
O168 C141 1.289 . S
C169 O161 1.258 . S
C169 O162 1.266 . S
Co170 O173 1.970 . S
Co170 N187 1.989 . S
Co170 O195 1.967 . S
Co170 O202 1.920 . S
Co171 O174 1.966 . S
Co171 N180 2.022 . S
Co171 N188 1.993 . S
Co171 O196 1.941 . S
C172 O173 1.258 . S
C172 O174 1.263 . S
O173 Co170 1.970 . S
O173 C172 1.258 . S
O174 Co171 1.966 . S
O174 C172 1.263 . S
C175 O176 1.235 . S
C175 O202 1.289 . S
O176 C175 1.235 . S
C177 C179 1.400 . S
C177 N180 1.351 . S
C177 C182 1.501 . S
C178 C179 1.387 . S
C178 N181 1.341 . S
C179 C177 1.400 . S
C179 C178 1.387 . S
N180 Co171 2.022 . S
N180 C177 1.351 . S
N180 N181 1.365 . S
N181 C178 1.341 . S
N181 N180 1.365 . S
N181 H201 0.862 . S
C182 C177 1.501 . S
C182 H183 0.961 . S
C182 H184 0.961 . S
C182 H185 0.960 . S
H183 C182 0.961 . S
H184 C182 0.961 . S
H185 C182 0.960 . S
C186 N187 1.342 . S
C186 C190 1.401 . S
C186 C191 1.499 . S
N187 Co170 1.989 . S
N187 C186 1.342 . S
N187 N188 1.388 . S
N188 Co171 1.993 . S
N188 N187 1.388 . S
N188 C189 1.346 . S
C189 N188 1.346 . S
C189 C190 1.396 . S
C189 C199 1.510 . S
C190 C186 1.401 . S
C190 C189 1.396 . S
C191 C186 1.499 . S
C191 H192 0.959 . S
C191 H193 0.960 . S
C191 H194 0.961 . S
H192 C191 0.959 . S
H193 C191 0.960 . S
H194 C191 0.961 . S
O195 Co170 1.967 . S
O195 C203 1.258 . S
O196 Co171 1.941 . S
O196 C203 1.266 . S
H197 C199 0.959 . S
H198 C199 0.961 . S
C199 C189 1.510 . S
C199 H197 0.959 . S
C199 H198 0.961 . S
C199 H200 0.960 . S
H200 C199 0.960 . S
H201 N181 0.862 . S
O202 Co170 1.920 . S
O202 C175 1.289 . S
C203 O195 1.258 . S
C203 O196 1.266 . S
Co204 O207 1.970 . S
Co204 N221 1.989 . S
Co204 O229 1.967 . S
Co204 O236 1.920 . S
Co205 O208 1.966 . S
Co205 N214 2.022 . S
Co205 N222 1.993 . S
Co205 O230 1.941 . S
C206 O207 1.258 . S
C206 O208 1.263 . S
O207 Co204 1.970 . S
O207 C206 1.258 . S
O208 Co205 1.966 . S
O208 C206 1.263 . S
C209 O210 1.235 . S
C209 O236 1.289 . S
O210 C209 1.235 . S
C211 C213 1.400 . S
C211 N214 1.351 . S
C211 C216 1.501 . S
C212 C213 1.387 . S
C212 N215 1.341 . S
C213 C211 1.400 . S
C213 C212 1.387 . S
N214 Co205 2.022 . S
N214 C211 1.351 . S
N214 N215 1.365 . S
N215 C212 1.341 . S
N215 N214 1.365 . S
N215 H235 0.862 . S
C216 C211 1.501 . S
C216 H217 0.961 . S
C216 H218 0.961 . S
C216 H219 0.960 . S
H217 C216 0.961 . S
H218 C216 0.961 . S
H219 C216 0.960 . S
C220 N221 1.342 . S
C220 C224 1.401 . S
C220 C225 1.499 . S
N221 Co204 1.989 . S
N221 C220 1.342 . S
N221 N222 1.388 . S
N222 Co205 1.993 . S
N222 N221 1.388 . S
N222 C223 1.346 . S
C223 N222 1.346 . S
C223 C224 1.396 . S
C223 C233 1.510 . S
C224 C220 1.401 . S
C224 C223 1.396 . S
C225 C220 1.499 . S
C225 H226 0.959 . S
C225 H227 0.960 . S
C225 H228 0.961 . S
H226 C225 0.959 . S
H227 C225 0.960 . S
H228 C225 0.961 . S
O229 Co204 1.967 . S
O229 C237 1.258 . S
O230 Co205 1.941 . S
O230 C237 1.266 . S
H231 C233 0.959 . S
H232 C233 0.961 . S
C233 C223 1.510 . S
C233 H231 0.959 . S
C233 H232 0.961 . S
C233 H234 0.960 . S
H234 C233 0.960 . S
H235 N215 0.862 . S
O236 Co204 1.920 . S
O236 C209 1.289 . S
C237 O229 1.258 . S
C237 O230 1.266 . S
Co238 O241 1.970 . S
Co238 N255 1.989 . S
Co238 O263 1.967 . S
Co238 O270 1.920 . S
Co239 O242 1.966 . S
Co239 N248 2.022 . S
Co239 N256 1.993 . S
Co239 O264 1.941 . S
C240 O241 1.258 . S
C240 O242 1.263 . S
O241 Co238 1.970 . S
O241 C240 1.258 . S
O242 Co239 1.966 . S
O242 C240 1.263 . S
C243 O244 1.235 . S
C243 O270 1.289 . S
O244 C243 1.235 . S
C245 C247 1.400 . S
C245 N248 1.351 . S
C245 C250 1.501 . S
C246 C247 1.387 . S
C246 N249 1.341 . S
C247 C245 1.400 . S
C247 C246 1.387 . S
N248 Co239 2.022 . S
N248 C245 1.351 . S
N248 N249 1.365 . S
N249 C246 1.341 . S
N249 N248 1.365 . S
N249 H269 0.862 . S
C250 C245 1.501 . S
C250 H251 0.961 . S
C250 H252 0.961 . S
C250 H253 0.960 . S
H251 C250 0.961 . S
H252 C250 0.961 . S
H253 C250 0.960 . S
C254 N255 1.342 . S
C254 C258 1.401 . S
C254 C259 1.499 . S
N255 Co238 1.989 . S
N255 C254 1.342 . S
N255 N256 1.388 . S
N256 Co239 1.993 . S
N256 N255 1.388 . S
N256 C257 1.346 . S
C257 N256 1.346 . S
C257 C258 1.396 . S
C257 C267 1.510 . S
C258 C254 1.401 . S
C258 C257 1.396 . S
C259 C254 1.499 . S
C259 H260 0.959 . S
C259 H261 0.960 . S
C259 H262 0.961 . S
H260 C259 0.959 . S
H261 C259 0.960 . S
H262 C259 0.961 . S
O263 Co238 1.967 . S
O263 C271 1.258 . S
O264 Co239 1.941 . S
O264 C271 1.266 . S
H265 C267 0.959 . S
H266 C267 0.961 . S
C267 C257 1.510 . S
C267 H265 0.959 . S
C267 H266 0.961 . S
C267 H268 0.960 . S
H268 C267 0.960 . S
H269 N249 0.862 . S
O270 Co238 1.920 . S
O270 C243 1.289 . S
C271 O263 1.258 . S
C271 O264 1.266 . S
H272 C280 0.950 . S
H273 C285 0.950 . S
H274 C282 0.950 1_655 S
H275 C284 0.950 . S
H276 C286 0.950 . S
H277 C288 0.950 1_455 S
H278 C290 0.950 . S
H279 C291 0.950 . S
C280 H272 0.950 . S
C280 C281 1.386 . S
C280 C282 1.391 . S
C281 C280 1.386 . S
C281 C285 1.393 . S
C282 H274 0.950 1_455 S
C282 C280 1.391 . S
C282 C283 1.400 . S
C283 C282 1.400 . S
C283 C284 1.398 . S
C283 C289 1.491 1_455 S
C284 H275 0.950 . S
C284 C283 1.398 . S
C284 C285 1.391 . S
C285 H273 0.950 . S
C285 C281 1.393 . S
C285 C284 1.391 . S
C286 H276 0.950 . S
C286 C287 1.386 . S
C286 C288 1.391 . S
C287 C286 1.386 . S
C287 C291 1.393 . S
C288 H277 0.950 1_655 S
C288 C286 1.391 . S
C288 C289 1.400 . S
C289 C283 1.491 1_655 S
C289 C288 1.400 . S
C289 C290 1.398 . S
C290 H278 0.950 . S
C290 C289 1.398 . S
C290 C291 1.391 . S
C291 H279 0.950 . S
C291 C287 1.393 . S
C291 C290 1.391 . S
H292 C300 0.950 . S
H293 C305 0.950 . S
H294 C302 0.950 1_455 S
H295 C304 0.950 . S
H296 C306 0.950 . S
H297 C308 0.950 1_655 S
H298 C310 0.950 . S
H299 C311 0.950 . S
C300 H292 0.950 . S
C300 C301 1.386 . S
C300 C302 1.391 . S
C301 C300 1.386 . S
C301 C305 1.393 . S
C302 H294 0.950 1_655 S
C302 C300 1.391 . S
C302 C303 1.400 . S
C303 C302 1.400 . S
C303 C304 1.398 . S
C303 C309 1.491 1_655 S
C304 H295 0.950 . S
C304 C303 1.398 . S
C304 C305 1.391 . S
C305 H293 0.950 . S
C305 C301 1.393 . S
C305 C304 1.391 . S
C306 H296 0.950 . S
C306 C307 1.386 . S
C306 C308 1.391 . S
C307 C306 1.386 . S
C307 C311 1.393 . S
C308 H297 0.950 1_455 S
C308 C306 1.391 . S
C308 C309 1.400 . S
C309 C303 1.491 1_455 S
C309 C308 1.400 . S
C309 C310 1.398 . S
C310 H298 0.950 . S
C310 C309 1.398 . S
C310 C311 1.391 . S
C311 H299 0.950 . S
C311 C307 1.393 . S
C311 C310 1.391 . S
H312 C320 0.950 . S
H313 C325 0.950 . S
H314 C322 0.950 1_545 S
H315 C324 0.950 . S
H316 C326 0.950 . S
H317 C328 0.950 1_565 S
H318 C330 0.950 . S
H319 C331 0.950 . S
C320 H312 0.950 . S
C320 C321 1.386 . S
C320 C322 1.391 . S
C321 C320 1.386 . S
C321 C325 1.393 . S
C322 H314 0.950 1_565 S
C322 C320 1.391 . S
C322 C323 1.400 . S
C323 C322 1.400 . S
C323 C324 1.398 . S
C323 C329 1.491 1_565 S
C324 H315 0.950 . S
C324 C323 1.398 . S
C324 C325 1.391 . S
C325 H313 0.950 . S
C325 C321 1.393 . S
C325 C324 1.391 . S
C326 H316 0.950 . S
C326 C327 1.386 . S
C326 C328 1.391 . S
C327 C326 1.386 . S
C327 C331 1.393 . S
C328 H317 0.950 1_545 S
C328 C326 1.391 . S
C328 C329 1.400 . S
C329 C323 1.491 1_545 S
C329 C328 1.400 . S
C329 C330 1.398 . S
C330 H318 0.950 . S
C330 C329 1.398 . S
C330 C331 1.391 . S
C331 H319 0.950 . S
C331 C327 1.393 . S
C331 C330 1.391 . S
H332 C340 0.950 . S
H333 C345 0.950 . S
H334 C342 0.950 1_545 S
H335 C344 0.950 . S
H336 C346 0.950 . S
H337 C348 0.950 1_565 S
H338 C350 0.950 . S
H339 C351 0.950 . S
C340 H332 0.950 . S
C340 C341 1.386 . S
C340 C342 1.391 . S
C341 C340 1.386 . S
C341 C345 1.393 . S
C342 H334 0.950 1_565 S
C342 C340 1.391 . S
C342 C343 1.400 . S
C343 C342 1.400 . S
C343 C344 1.398 . S
C343 C349 1.491 1_565 S
C344 H335 0.950 . S
C344 C343 1.398 . S
C344 C345 1.391 . S
C345 H333 0.950 . S
C345 C341 1.393 . S
C345 C344 1.391 . S
C346 H336 0.950 . S
C346 C347 1.386 . S
C346 C348 1.391 . S
C347 C346 1.386 . S
C347 C351 1.393 . S
C348 H337 0.950 1_545 S
C348 C346 1.391 . S
C348 C349 1.400 . S
C349 C343 1.491 1_545 S
C349 C348 1.400 . S
C349 C350 1.398 . S
C350 H338 0.950 . S
C350 C349 1.398 . S
C350 C351 1.391 . S
C351 H339 0.950 . S
C351 C347 1.393 . S
C351 C350 1.391 . S
H352 C360 0.950 . S
H353 C365 0.950 . S
H354 C362 0.950 . S
H355 C364 0.950 . S
H356 C366 0.950 . S
H357 C368 0.950 . S
H358 C370 0.950 . S
H359 C371 0.950 . S
C360 H352 0.950 . S
C360 C361 1.386 . S
C360 C362 1.391 . S
C361 C360 1.386 . S
C361 C365 1.393 . S
C362 H354 0.950 . S
C362 C360 1.391 . S
C362 C363 1.400 . S
C363 C362 1.400 . S
C363 C364 1.398 . S
C363 C369 1.491 . S
C364 H355 0.950 . S
C364 C363 1.398 . S
C364 C365 1.391 . S
C365 H353 0.950 . S
C365 C361 1.393 . S
C365 C364 1.391 . S
C366 H356 0.950 . S
C366 C367 1.386 . S
C366 C368 1.391 . S
C367 C366 1.386 . S
C367 C371 1.393 . S
C368 H357 0.950 . S
C368 C366 1.391 . S
C368 C369 1.400 . S
C369 C363 1.491 . S
C369 C368 1.400 . S
C369 C370 1.398 . S
C370 H358 0.950 . S
C370 C369 1.398 . S
C370 C371 1.391 . S
C371 H359 0.950 . S
C371 C367 1.393 . S
C371 C370 1.391 . S
H372 C380 0.950 . S
H373 C385 0.950 . S
H374 C382 0.950 . S
H375 C384 0.950 . S
H376 C386 0.950 . S
H377 C388 0.950 . S
H378 C390 0.950 . S
H379 C391 0.950 . S
C380 H372 0.950 . S
C380 C381 1.386 . S
C380 C382 1.391 . S
C381 C380 1.386 . S
C381 C385 1.393 . S
C382 H374 0.950 . S
C382 C380 1.391 . S
C382 C383 1.400 . S
C383 C382 1.400 . S
C383 C384 1.398 . S
C383 C389 1.491 . S
C384 H375 0.950 . S
C384 C383 1.398 . S
C384 C385 1.391 . S
C385 H373 0.950 . S
C385 C381 1.393 . S
C385 C384 1.391 . S
C386 H376 0.950 . S
C386 C387 1.386 . S
C386 C388 1.391 . S
C387 C386 1.386 . S
C387 C391 1.393 . S
C388 H377 0.950 . S
C388 C386 1.391 . S
C388 C389 1.400 . S
C389 C383 1.491 . S
C389 C388 1.400 . S
C389 C390 1.398 . S
C390 H378 0.950 . S
C390 C389 1.398 . S
C390 C391 1.391 . S
C391 H379 0.950 . S
C391 C387 1.393 . S
C391 C390 1.391 . S
H392 C400 0.950 . S
H393 C405 0.950 . S
H394 C402 0.950 . S
H395 C404 0.950 . S
H396 C406 0.950 . S
H397 C408 0.950 . S
H398 C410 0.950 . S
H399 C411 0.950 . S
C400 H392 0.950 . S
C400 C401 1.386 . S
C400 C402 1.391 . S
C401 C400 1.386 . S
C401 C405 1.393 . S
C402 H394 0.950 . S
C402 C400 1.391 . S
C402 C403 1.400 . S
C403 C402 1.400 . S
C403 C404 1.398 . S
C403 C409 1.491 . S
C404 H395 0.950 . S
C404 C403 1.398 . S
C404 C405 1.391 . S
C405 H393 0.950 . S
C405 C401 1.393 . S
C405 C404 1.391 . S
C406 H396 0.950 . S
C406 C407 1.386 . S
C406 C408 1.391 . S
C407 C406 1.386 . S
C407 C411 1.393 . S
C408 H397 0.950 . S
C408 C406 1.391 . S
C408 C409 1.400 . S
C409 C403 1.491 . S
C409 C408 1.400 . S
C409 C410 1.398 . S
C410 H398 0.950 . S
C410 C409 1.398 . S
C410 C411 1.391 . S
C411 H399 0.950 . S
C411 C407 1.393 . S
C411 C410 1.391 . S
H412 C420 0.950 . S
H413 C425 0.950 . S
H414 C422 0.950 . S
H415 C424 0.950 . S
H416 C426 0.950 . S
H417 C428 0.950 . S
H418 C430 0.950 . S
H419 C431 0.950 . S
C420 H412 0.950 . S
C420 C421 1.386 . S
C420 C422 1.391 . S
C421 C420 1.386 . S
C421 C425 1.393 . S
C422 H414 0.950 . S
C422 C420 1.391 . S
C422 C423 1.400 . S
C423 C422 1.400 . S
C423 C424 1.398 . S
C423 C429 1.491 . S
C424 H415 0.950 . S
C424 C423 1.398 . S
C424 C425 1.391 . S
C425 H413 0.950 . S
C425 C421 1.393 . S
C425 C424 1.391 . S
C426 H416 0.950 . S
C426 C427 1.386 . S
C426 C428 1.391 . S
C427 C426 1.386 . S
C427 C431 1.393 . S
C428 H417 0.950 . S
C428 C426 1.391 . S
C428 C429 1.400 . S
C429 C423 1.491 . S
C429 C428 1.400 . S
C429 C430 1.398 . S
C430 H418 0.950 . S
C430 C429 1.398 . S
C430 C431 1.391 . S
C431 H419 0.950 . S
C431 C427 1.393 . S
C431 C430 1.391 . S
H432 C440 0.950 . S
H433 C445 0.950 . S
H434 C442 0.950 . S
H435 C444 0.950 . S
H436 C446 0.950 . S
H437 C448 0.950 . S
H438 C450 0.950 . S
H439 C451 0.950 . S
C440 H432 0.950 . S
C440 C441 1.386 . S
C440 C442 1.391 . S
C441 C440 1.386 . S
C441 C445 1.393 . S
C442 H434 0.950 . S
C442 C440 1.391 . S
C442 C443 1.400 . S
C443 C442 1.400 . S
C443 C444 1.398 . S
C443 C449 1.491 . S
C444 H435 0.950 . S
C444 C443 1.398 . S
C444 C445 1.391 . S
C445 H433 0.950 . S
C445 C441 1.393 . S
C445 C444 1.391 . S
C446 H436 0.950 . S
C446 C447 1.386 . S
C446 C448 1.391 . S
C447 C446 1.386 . S
C447 C451 1.393 . S
C448 H437 0.950 . S
C448 C446 1.391 . S
C448 C449 1.400 . S
C449 C443 1.491 . S
C449 C448 1.400 . S
C449 C450 1.398 . S
C450 H438 0.950 . S
C450 C449 1.398 . S
C450 C451 1.391 . S
C451 H439 0.950 . S
C451 C447 1.393 . S
C451 C450 1.391 . S
H452 C460 0.950 . S
H453 C465 0.950 . S
H454 C462 0.950 . S
H455 C464 0.950 . S
H456 C466 0.950 . S
H457 C468 0.950 . S
H458 C470 0.950 . S
H459 C471 0.950 . S
C460 H452 0.950 . S
C460 C461 1.386 . S
C460 C462 1.391 . S
C461 C460 1.386 . S
C461 C465 1.393 . S
C462 H454 0.950 . S
C462 C460 1.391 . S
C462 C463 1.400 . S
C463 C462 1.400 . S
C463 C464 1.398 . S
C463 C469 1.491 . S
C464 H455 0.950 . S
C464 C463 1.398 . S
C464 C465 1.391 . S
C465 H453 0.950 . S
C465 C461 1.393 . S
C465 C464 1.391 . S
C466 H456 0.950 . S
C466 C467 1.386 . S
C466 C468 1.391 . S
C467 C466 1.386 . S
C467 C471 1.393 . S
C468 H457 0.950 . S
C468 C466 1.391 . S
C468 C469 1.400 . S
C469 C463 1.491 . S
C469 C468 1.400 . S
C469 C470 1.398 . S
C470 H458 0.950 . S
C470 C469 1.398 . S
C470 C471 1.391 . S
C471 H459 0.950 . S
C471 C467 1.393 . S
C471 C470 1.391 . S
H472 C480 0.950 . S
H473 C485 0.950 . S
H474 C482 0.950 . S
H475 C484 0.950 1_556 S
H476 C486 0.950 . S
H477 C488 0.950 . S
H478 C490 0.950 . S
H479 C491 0.950 . S
C480 H472 0.950 . S
C480 C481 1.386 . S
C480 C482 1.391 . S
C481 C480 1.386 . S
C481 C485 1.393 . S
C482 H474 0.950 . S
C482 C480 1.391 . S
C482 C483 1.403 . S
C483 C482 1.403 . S
C483 C484 1.399 . S
C483 C489 1.488 1_554 S
C484 H475 0.950 1_554 S
C484 C483 1.399 . S
C484 C485 1.391 . S
C485 H473 0.950 . S
C485 C481 1.393 . S
C485 C484 1.391 . S
C486 H476 0.950 . S
C486 C487 1.386 . S
C486 C488 1.391 . S
C487 C486 1.386 . S
C487 C491 1.393 . S
C488 H477 0.950 . S
C488 C486 1.391 . S
C488 C489 1.400 . S
C489 C483 1.488 1_556 S
C489 C488 1.400 . S
C489 C490 1.398 . S
C490 H478 0.950 . S
C490 C489 1.398 . S
C490 C491 1.391 . S
C491 H479 0.950 . S
C491 C487 1.393 . S
C491 C490 1.391 . S
H492 C500 0.950 . S
H493 C505 0.950 . S
H494 C502 0.950 1_554 S
H495 C504 0.950 . S
H496 C506 0.950 . S
H497 C508 0.950 . S
H498 C510 0.950 . S
H499 C511 0.950 . S
C500 H492 0.950 . S
C500 C501 1.386 . S
C500 C502 1.391 . S
C501 C500 1.386 . S
C501 C505 1.393 . S
C502 H494 0.950 1_556 S
C502 C500 1.391 . S
C502 C503 1.400 . S
C503 C502 1.400 . S
C503 C504 1.398 . S
C503 C509 1.479 1_556 S
C504 H495 0.950 . S
C504 C503 1.398 . S
C504 C505 1.391 . S
C505 H493 0.950 . S
C505 C501 1.393 . S
C505 C504 1.391 . S
C506 H496 0.950 . S
C506 C507 1.386 . S
C506 C508 1.391 1_554 S
C507 C506 1.386 . S
C507 C511 1.393 . S
C508 H497 0.950 . S
C508 C506 1.391 1_556 S
C508 C509 1.394 1_556 S
C509 C503 1.479 1_554 S
C509 C508 1.394 1_554 S
C509 C510 1.417 . S
C510 H498 0.950 . S
C510 C509 1.417 . S
C510 C511 1.391 . S
C511 H499 0.950 . S
C511 C507 1.393 . S
C511 C510 1.391 . S
H512 C520 0.950 . S
H513 C525 0.950 . S
H514 C522 0.950 1_655 S
H515 C524 0.950 . S
H516 C526 0.950 . S
H517 C528 0.950 1_455 S
H518 C530 0.950 . S
H519 C531 0.950 . S
C520 H512 0.950 . S
C520 C521 1.386 . S
C520 C522 1.391 . S
C521 C520 1.386 . S
C521 C525 1.393 . S
C522 H514 0.950 1_455 S
C522 C520 1.391 . S
C522 C523 1.400 . S
C523 C522 1.400 . S
C523 C524 1.398 . S
C523 C529 1.491 1_455 S
C524 H515 0.950 . S
C524 C523 1.398 . S
C524 C525 1.391 . S
C525 H513 0.950 . S
C525 C521 1.393 . S
C525 C524 1.391 . S
C526 H516 0.950 . S
C526 C527 1.386 . S
C526 C528 1.391 . S
C527 C526 1.386 . S
C527 C531 1.393 . S
C528 H517 0.950 1_655 S
C528 C526 1.391 . S
C528 C529 1.400 . S
C529 C523 1.491 1_655 S
C529 C528 1.400 . S
C529 C530 1.398 . S
C530 H518 0.950 . S
C530 C529 1.398 . S
C530 C531 1.391 . S
C531 H519 0.950 . S
C531 C527 1.393 . S
C531 C530 1.391 . S
H532 C540 0.950 . S
H533 C545 0.950 . S
H534 C542 0.950 . S
H535 C544 0.950 . S
H536 C546 0.950 . S
H537 C548 0.950 . S
H538 C550 0.950 . S
H539 C551 0.950 . S
C540 H532 0.950 . S
C540 C541 1.386 . S
C540 C542 1.391 1_455 S
C541 C540 1.386 . S
C541 C545 1.393 . S
C542 H534 0.950 . S
C542 C540 1.391 1_655 S
C542 C543 1.400 1_655 S
C543 C542 1.400 1_455 S
C543 C544 1.398 . S
C543 C549 1.491 1_455 S
C544 H535 0.950 . S
C544 C543 1.398 . S
C544 C545 1.391 . S
C545 H533 0.950 . S
C545 C541 1.393 . S
C545 C544 1.391 . S
C546 H536 0.950 . S
C546 C547 1.386 . S
C546 C548 1.391 1_655 S
C547 C546 1.386 . S
C547 C551 1.393 . S
C548 H537 0.950 . S
C548 C546 1.391 1_455 S
C548 C549 1.400 1_455 S
C549 C543 1.491 1_655 S
C549 C548 1.400 1_655 S
C549 C550 1.398 . S
C550 H538 0.950 . S
C550 C549 1.398 . S
C550 C551 1.391 . S
C551 H539 0.950 . S
C551 C547 1.393 . S
C551 C550 1.391 . S
H552 C560 0.950 . S
H553 C565 0.950 . S
H554 C562 0.950 . S
H555 C564 0.950 1_655 S
H556 C566 0.950 . S
H557 C568 0.950 . S
H558 C570 0.950 1_455 S
H559 C571 0.950 . S
C560 H552 0.950 . S
C560 C561 1.386 . S
C560 C562 1.391 . S
C561 C560 1.386 . S
C561 C565 1.393 . S
C562 H554 0.950 . S
C562 C560 1.391 . S
C562 C563 1.400 . S
C563 C562 1.400 . S
C563 C564 1.398 . S
C563 C569 1.491 1_455 S
C564 H555 0.950 1_455 S
C564 C563 1.398 . S
C564 C565 1.391 . S
C565 H553 0.950 . S
C565 C561 1.393 . S
C565 C564 1.391 . S
C566 H556 0.950 . S
C566 C567 1.386 . S
C566 C568 1.391 . S
C567 C566 1.386 . S
C567 C571 1.393 1_556 S
C568 H557 0.950 . S
C568 C566 1.391 . S
C568 C569 1.400 . S
C569 C563 1.491 1_655 S
C569 C568 1.400 . S
C569 C570 1.398 . S
C570 H558 0.950 1_655 S
C570 C569 1.398 . S
C570 C571 1.391 1_556 S
C571 H559 0.950 . S
C571 C567 1.393 1_554 S
C571 C570 1.391 1_554 S
H572 C580 0.950 1_554 S
H573 C585 0.950 . S
H574 C582 0.950 . S
H575 C584 0.950 . S
H576 C586 0.950 . S
H577 C588 0.950 . S
H578 C590 0.950 . S
H579 C591 0.950 . S
C580 H572 0.950 1_556 S
C580 C581 1.386 . S
C580 C582 1.391 . S
C581 C580 1.386 . S
C581 C585 1.393 . S
C582 H574 0.950 . S
C582 C580 1.391 . S
C582 C583 1.400 . S
C583 C582 1.400 . S
C583 C584 1.398 . S
C583 C589 1.491 1_455 S
C584 H575 0.950 . S
C584 C583 1.398 . S
C584 C585 1.391 . S
C585 H573 0.950 . S
C585 C581 1.393 . S
C585 C584 1.391 . S
C586 H576 0.950 . S
C586 C587 1.386 . S
C586 C588 1.391 . S
C587 C586 1.386 . S
C587 C591 1.393 . S
C588 H577 0.950 . S
C588 C586 1.391 . S
C588 C589 1.400 . S
C589 C583 1.491 1_655 S
C589 C588 1.400 . S
C589 C590 1.398 . S
C590 H578 0.950 . S
C590 C589 1.398 . S
C590 C591 1.391 . S
C591 H579 0.950 . S
C591 C587 1.393 . S
C591 C590 1.391 . S
H592 C600 0.950 . S
H593 C605 0.950 . S
H594 C602 0.950 . S
H595 C604 0.950 . S
H596 C606 0.950 . S
H597 C608 0.950 . S
H598 C610 0.950 . S
H599 C611 0.950 . S
C600 H592 0.950 . S
C600 C601 1.386 1_556 S
C600 C602 1.391 . S
C601 C600 1.386 1_554 S
C601 C605 1.393 . S
C602 H594 0.950 . S
C602 C600 1.391 . S
C602 C603 1.400 . S
C603 C602 1.400 . S
C603 C604 1.398 . S
C603 C609 1.491 . S
C604 H595 0.950 . S
C604 C603 1.398 . S
C604 C605 1.391 1_556 S
C605 H593 0.950 . S
C605 C601 1.393 . S
C605 C604 1.391 1_554 S
C606 H596 0.950 . S
C606 C607 1.386 . S
C606 C608 1.391 . S
C607 C606 1.386 . S
C607 C611 1.393 . S
C608 H597 0.950 . S
C608 C606 1.391 . S
C608 C609 1.400 . S
C609 C603 1.491 . S
C609 C608 1.400 . S
C609 C610 1.398 . S
C610 H598 0.950 . S
C610 C609 1.398 . S
C610 C611 1.391 . S
C611 H599 0.950 . S
C611 C607 1.393 . S
C611 C610 1.391 . S
H612 C620 0.950 . S
H613 C625 0.950 . S
H614 C622 0.950 . S
H615 C624 0.950 . S
H616 C626 0.950 . S
H617 C628 0.950 . S
H618 C630 0.950 . S
H619 C631 0.950 . S
C620 H612 0.950 . S
C620 C621 1.386 . S
C620 C622 1.391 . S
C621 C620 1.386 . S
C621 C625 1.393 . S
C622 H614 0.950 . S
C622 C620 1.391 . S
C622 C623 1.400 . S
C623 C622 1.400 . S
C623 C624 1.398 . S
C623 C629 1.491 . S
C624 H615 0.950 . S
C624 C623 1.398 . S
C624 C625 1.391 . S
C625 H613 0.950 . S
C625 C621 1.393 . S
C625 C624 1.391 . S
C626 H616 0.950 . S
C626 C627 1.386 1_556 S
C626 C628 1.391 . S
C627 C626 1.386 1_554 S
C627 C631 1.393 . S
C628 H617 0.950 . S
C628 C626 1.391 . S
C628 C629 1.400 . S
C629 C623 1.491 . S
C629 C628 1.400 . S
C629 C630 1.398 . S
C630 H618 0.950 . S
C630 C629 1.398 . S
C630 C631 1.391 1_556 S
C631 H619 0.950 . S
C631 C627 1.393 . S
C631 C630 1.391 1_554 S
H632 C640 0.950 . S
H633 C645 0.950 . S
H634 C642 0.950 . S
H635 C644 0.950 . S
H636 C646 0.950 . S
H637 C648 0.950 . S
H638 C650 0.950 . S
H639 C651 0.950 . S
C640 H632 0.950 . S
C640 C641 1.386 . S
C640 C642 1.391 . S
C641 C640 1.386 . S
C641 C645 1.393 . S
C642 H634 0.950 . S
C642 C640 1.391 . S
C642 C643 1.400 . S
C643 C642 1.400 . S
C643 C644 1.398 . S
C643 C649 1.491 . S
C644 H635 0.950 . S
C644 C643 1.398 . S
C644 C645 1.391 . S
C645 H633 0.950 . S
C645 C641 1.393 . S
C645 C644 1.391 . S
C646 H636 0.950 . S
C646 C647 1.386 . S
C646 C648 1.391 . S
C647 C646 1.386 . S
C647 C651 1.393 . S
C648 H637 0.950 . S
C648 C646 1.391 . S
C648 C649 1.400 . S
C649 C643 1.491 . S
C649 C648 1.400 . S
C649 C650 1.398 . S
C650 H638 0.950 . S
C650 C649 1.398 . S
C650 C651 1.391 . S
C651 H639 0.950 . S
C651 C647 1.393 . S
C651 C650 1.391 . S
H652 C660 0.950 . S
H653 C665 0.950 . S
H654 C662 0.950 . S
H655 C664 0.950 . S
H656 C666 0.950 . S
H657 C668 0.950 . S
H658 C670 0.950 . S
H659 C671 0.950 . S
C660 H652 0.950 . S
C660 C661 1.386 . S
C660 C662 1.391 . S
C661 C660 1.386 . S
C661 C665 1.393 . S
C662 H654 0.950 . S
C662 C660 1.391 . S
C662 C663 1.400 . S
C663 C662 1.400 . S
C663 C664 1.398 . S
C663 C669 1.491 . S
C664 H655 0.950 . S
C664 C663 1.398 . S
C664 C665 1.391 . S
C665 H653 0.950 . S
C665 C661 1.393 . S
C665 C664 1.391 . S
C666 H656 0.950 . S
C666 C667 1.386 . S
C666 C668 1.391 . S
C667 C666 1.386 . S
C667 C671 1.393 . S
C668 H657 0.950 . S
C668 C666 1.391 . S
C668 C669 1.400 . S
C669 C663 1.491 . S
C669 C668 1.400 . S
C669 C670 1.398 . S
C670 H658 0.950 . S
C670 C669 1.398 . S
C670 C671 1.391 . S
C671 H659 0.950 . S
C671 C667 1.393 . S
C671 C670 1.391 . S
C281 C33 1.563 . S
C287 C67 1.562 . S
C301 C135 1.565 . S
C307 C101 1.565 . S
C321 C169 1.557 . S
C327 C203 1.557 . S
C341 C271 1.554 . S
C347 C237 1.554 . S
C361 C179 1.396 . S
C367 C20 1.496 . S
C381 C145 1.417 . S
C387 C54 1.500 . S
C401 C247 1.395 . S
C407 C88 1.495 . S
C421 C122 1.490 . S
C427 C213 1.390 . S
C441 C43 1.397 . S
C447 C156 1.491 . S
C461 C9 1.384 . S
C467 C190 1.489 . S
C481 C224 1.493 . S
C487 C111 1.404 . S
C501 C77 1.385 . S
C507 C258 1.489 . S
C521 C5 1.437 . S
C527 C107 1.437 . S
C541 C73 1.438 . S
C547 C39 1.438 . S
C561 C70 0.970 . S
C567 C36 0.936 1_556 S
C581 C2 0.951 1_556 S
C587 C104 0.962 . S
C601 C243 1.452 . S
C607 C141 1.452 . S
C621 C175 1.448 . S
C627 C209 1.448 . S
C641 C206 0.952 . S
C647 C172 0.960 . S
C661 C138 0.949 . S
C667 C240 0.963 . S
