# Generated by pormake.
# Topology wfu, (7)-cn, num edge types: 1
# Building blocks:
#     Node 0, Type 0, BuildingBlock: HICVOG_clean_sbu_0, # of connection points: 7
#     Node 1, Type 0, BuildingBlock: HICVOG_clean_sbu_0, # of connection points: 7
#     Node 2, Type 0, BuildingBlock: HICVOG_clean_sbu_0, # of connection points: 7
#     Node 3, Type 0, BuildingBlock: HICVOG_clean_sbu_0, # of connection points: 7
#     Node 4, Type 0, BuildingBlock: HICVOG_clean_sbu_0, # of connection points: 7
#     Node 5, Type 0, BuildingBlock: HICVOG_clean_sbu_0, # of connection points: 7
#     Node 6, Type 0, BuildingBlock: HICVOG_clean_sbu_0, # of connection points: 7
#     Node 7, Type 0, BuildingBlock: HICVOG_clean_sbu_0, # of connection points: 7
#     Edge 8, Type (0, 0), BuildingBlock: CIFDUS_clean_linker_0, # of connection points: 2
#     Edge 9, Type (0, 0), BuildingBlock: CIFDUS_clean_linker_0, # of connection points: 2
#     Edge 10, Type (0, 0), BuildingBlock: CIFDUS_clean_linker_0, # of connection points: 2
#     Edge 11, Type (0, 0), BuildingBlock: CIFDUS_clean_linker_0, # of connection points: 2
#     Edge 12, Type (0, 0), BuildingBlock: CIFDUS_clean_linker_0, # of connection points: 2
#     Edge 13, Type (0, 0), BuildingBlock: CIFDUS_clean_linker_0, # of connection points: 2
#     Edge 14, Type (0, 0), BuildingBlock: CIFDUS_clean_linker_0, # of connection points: 2
#     Edge 15, Type (0, 0), BuildingBlock: CIFDUS_clean_linker_0, # of connection points: 2
#     Edge 16, Type (0, 0), BuildingBlock: CIFDUS_clean_linker_0, # of connection points: 2
#     Edge 17, Type (0, 0), BuildingBlock: CIFDUS_clean_linker_0, # of connection points: 2
#     Edge 18, Type (0, 0), BuildingBlock: CIFDUS_clean_linker_0, # of connection points: 2
#     Edge 19, Type (0, 0), BuildingBlock: CIFDUS_clean_linker_0, # of connection points: 2
#     Edge 20, Type (0, 0), BuildingBlock: CIFDUS_clean_linker_0, # of connection points: 2
#     Edge 21, Type (0, 0), BuildingBlock: CIFDUS_clean_linker_0, # of connection points: 2
#     Edge 22, Type (0, 0), BuildingBlock: CIFDUS_clean_linker_0, # of connection points: 2
#     Edge 23, Type (0, 0), BuildingBlock: CIFDUS_clean_linker_0, # of connection points: 2
#     Edge 24, Type (0, 0), BuildingBlock: CIFDUS_clean_linker_0, # of connection points: 2
#     Edge 25, Type (0, 0), BuildingBlock: CIFDUS_clean_linker_0, # of connection points: 2
#     Edge 26, Type (0, 0), BuildingBlock: CIFDUS_clean_linker_0, # of connection points: 2
#     Edge 27, Type (0, 0), BuildingBlock: CIFDUS_clean_linker_0, # of connection points: 2
#     Edge 28, Type (0, 0), BuildingBlock: CIFDUS_clean_linker_0, # of connection points: 2
#     Edge 29, Type (0, 0), BuildingBlock: CIFDUS_clean_linker_0, # of connection points: 2
#     Edge 30, Type (0, 0), BuildingBlock: CIFDUS_clean_linker_0, # of connection points: 2
#     Edge 31, Type (0, 0), BuildingBlock: CIFDUS_clean_linker_0, # of connection points: 2
#     Edge 32, Type (0, 0), BuildingBlock: CIFDUS_clean_linker_0, # of connection points: 2
#     Edge 33, Type (0, 0), BuildingBlock: CIFDUS_clean_linker_0, # of connection points: 2
#     Edge 34, Type (0, 0), BuildingBlock: CIFDUS_clean_linker_0, # of connection points: 2
#     Edge 35, Type (0, 0), BuildingBlock: CIFDUS_clean_linker_0, # of connection points: 2
# Relax obj value: 0.450
# Max RMSD: 0.288
# Mean RMSD: 0.288
data_MOF--net-wfu--node1-HICVOG_clean_sbu_0--edge1-CIFDUS_clean_linker_0
_symmetry_space_group_name_H-M    P1
_symmetry_Int_Tables_number       1
_symmetry_cell_setting            triclinic
loop_
_symmetry_equiv_pos_as_xyz
'x, y, z'
_cell_length_a     27.473696
_cell_length_b     27.686786
_cell_length_c     28.17689
_cell_angle_alpha  90.008256
_cell_angle_beta   89.859567
_cell_angle_gamma 90.196813
loop_
_atom_site_label
_atom_site_type_symbol
_atom_site_fract_x
_atom_site_fract_y
_atom_site_fract_z
_atom_type_partial_charge
Zn0 Zn 0.24447 0.35429 0.09306 0.0
C1 C 0.22429 0.36228 0.23467 0.0
N2 N 0.21972 0.31409 0.23063 0.0
C3 C 0.22827 0.30605 0.18443 0.0
N4 N 0.23819 0.34773 0.16123 0.0
N5 N 0.23506 0.38325 0.19277 0.0
C6 C 0.22666 0.53547 0.22784 0.0
O7 O 0.20391 0.53856 0.18701 0.0
O8 O 0.30098 0.31753 0.06219 0.0
Zn9 Zn 0.26948 0.44441 0.18836 0.0
N10 N 0.18334 0.33089 0.06853 0.0
C11 C 0.09683 0.32768 0.07389 0.0
C12 C 0.14177 0.34147 0.09263 0.0
C13 C 0.18191 0.3065 0.02685 0.0
N14 N 0.09525 0.30439 0.03148 0.0
C15 C 0.13676 0.29301 0.00764 0.0
O16 O 0.26853 0.47743 0.12371 0.0
C17 C 0.26033 0.46612 0.08064 0.0
O18 O 0.25105 0.42273 0.06874 0.0
H19 H 0.14349 0.36122 0.12571 0.0
H20 H 0.21552 0.29963 0.00791 0.0
C21 C 0.35829 0.46079 0.23272 0.0
C22 C 0.40086 0.44809 0.25721 0.0
C23 C 0.39341 0.36828 0.22665 0.0
C24 C 0.35097 0.38125 0.20309 0.0
N25 N 0.33422 0.42719 0.20693 0.0
N26 N 0.41719 0.40181 0.25307 0.0
H27 H 0.34326 0.49656 0.23392 0.0
C28 C 0.3441 0.33474 0.06277 0.0
O29 O 0.35296 0.37351 0.08823 0.0
O30 O 0.25061 0.4972 0.23708 0.0
H31 H 0.33083 0.35453 0.18339 0.0
H32 H 0.06344 0.33625 0.09243 0.0
H33 H 0.40711 0.33176 0.22439 0.0
Zn34 Zn 0.45091 0.77379 0.79859 0.0
C35 C 0.30571 0.79113 0.78964 0.0
N36 N 0.31608 0.80367 0.74474 0.0
C37 C 0.36492 0.80671 0.74468 0.0
N38 N 0.38418 0.79569 0.78722 0.0
N39 N 0.34677 0.78647 0.81589 0.0
C40 C 0.29654 0.69415 0.90819 0.0
O41 O 0.30186 0.68046 0.86387 0.0
O42 O 0.50418 0.79006 0.74867 0.0
Zn43 Zn 0.35199 0.78575 0.88454 0.0
N44 N 0.44349 0.70547 0.79679 0.0
C45 C 0.40383 0.63408 0.82334 0.0
C46 C 0.41238 0.68349 0.82749 0.0
C47 C 0.4671 0.68031 0.76264 0.0
N48 N 0.42754 0.6088 0.78919 0.0
C49 C 0.45925 0.63058 0.7586 0.0
O50 O 0.41948 0.77552 0.91207 0.0
C51 C 0.46492 0.77969 0.9042 0.0
O52 O 0.48117 0.7875 0.86263 0.0
H53 H 0.39401 0.70434 0.8544 0.0
H54 H 0.49109 0.69923 0.73854 0.0
C55 C 0.34332 0.85908 0.952 0.0
C56 C 0.33451 0.9053 0.97004 0.0
C57 C 0.31116 0.93157 0.89357 0.0
C58 C 0.32087 0.88559 0.8755 0.0
N59 N 0.33565 0.84997 0.90542 0.0
N60 N 0.31775 0.94037 0.94058 0.0
H61 H 0.3557 0.83021 0.97487 0.0
C62 C 0.53472 0.82429 0.75466 0.0
O63 O 0.52697 0.85522 0.78921 0.0
O64 O 0.3106 0.7362 0.92046 0.0
H65 H 0.31674 0.87864 0.83802 0.0
H66 H 0.37897 0.61585 0.84724 0.0
H67 H 0.29858 0.96005 0.87041 0.0
Zn68 Zn 0.7525 0.59355 0.20057 0.0
C69 C 0.80577 0.7277 0.20223 0.0
N70 N 0.82359 0.71531 0.2448 0.0
C71 C 0.81548 0.6674 0.24685 0.0
N72 N 0.79341 0.65076 0.20731 0.0
N73 N 0.78818 0.68867 0.17895 0.0
C74 C 0.6851 0.71171 0.07589 0.0
O75 O 0.67396 0.6696 0.09449 0.0
O76 O 0.76178 0.53683 0.24708 0.0
Zn77 Zn 0.78077 0.68533 0.11056 0.0
N78 N 0.6886 0.618 0.21589 0.0
C79 C 0.63494 0.68404 0.2284 0.0
C80 C 0.67608 0.66455 0.20693 0.0
C81 C 0.66069 0.58972 0.24424 0.0
N82 N 0.60768 0.65599 0.2577 0.0
C83 C 0.61941 0.60909 0.26664 0.0
O84 O 0.76949 0.61879 0.08236 0.0
C85 C 0.75978 0.57506 0.09265 0.0
O86 O 0.75313 0.56184 0.13542 0.0
H87 H 0.69828 0.6868 0.18436 0.0
H88 H 0.67122 0.55265 0.24899 0.0
C89 C 0.84637 0.73015 0.04633 0.0
C90 C 0.89213 0.74194 0.02747 0.0
C91 C 0.93002 0.70482 0.09334 0.0
C92 C 0.88438 0.69249 0.11164 0.0
N93 N 0.84354 0.70525 0.08754 0.0
N94 N 0.93296 0.72853 0.05122 0.0
H95 H 0.81323 0.73847 0.02734 0.0
C96 C 0.79305 0.50331 0.25204 0.0
O97 O 0.83372 0.50502 0.2275 0.0
O98 O 0.72828 0.72794 0.08068 0.0
H99 H 0.88157 0.67224 0.14434 0.0
H100 H 0.6248 0.72119 0.22199 0.0
H101 H 0.96285 0.69459 0.11186 0.0
Zn102 Zn 0.59766 0.28025 0.79018 0.0
C103 C 0.73303 0.22675 0.79704 0.0
N104 N 0.72137 0.20578 0.75558 0.0
C105 C 0.67339 0.21446 0.75158 0.0
N106 N 0.65603 0.23987 0.78882 0.0
N107 N 0.69346 0.24706 0.8177 0.0
C108 C 0.71576 0.35367 0.91436 0.0
O109 O 0.6788 0.36504 0.88711 0.0
O110 O 0.53988 0.26045 0.74745 0.0
Zn111 Zn 0.6872 0.25735 0.88554 0.0
N112 N 0.62028 0.3418 0.76648 0.0
C113 C 0.68542 0.3919 0.74019 0.0
C114 C 0.66855 0.35284 0.76654 0.0
C115 C 0.58799 0.369 0.74207 0.0
N116 N 0.65317 0.41903 0.71565 0.0
C117 C 0.60459 0.40893 0.71568 0.0
O118 O 0.61946 0.27208 0.91079 0.0
C119 C 0.57648 0.28293 0.89805 0.0
O120 O 0.56541 0.28726 0.8545 0.0
H121 H 0.69413 0.33091 0.78554 0.0
H122 H 0.55 0.35909 0.74382 0.0
C123 C 0.72603 0.19283 0.95412 0.0
C124 C 0.73511 0.14755 0.97452 0.0
C125 C 0.70009 0.10941 0.90754 0.0
C126 C 0.69043 0.15454 0.88773 0.0
N127 N 0.70353 0.1953 0.91155 0.0
N128 N 0.72151 0.10688 0.95084 0.0
H129 H 0.73451 0.22597 0.9728 0.0
C130 C 0.51038 0.22644 0.75758 0.0
O131 O 0.52042 0.1982 0.79371 0.0
O132 O 0.72983 0.30984 0.9155 0.0
H133 H 0.67193 0.15702 0.85401 0.0
H134 H 0.72379 0.40077 0.73936 0.0
H135 H 0.68962 0.07668 0.88918 0.0
Zn136 Zn 0.76356 0.17682 0.38667 0.0
C137 C 0.73408 0.17507 0.24771 0.0
N138 N 0.73299 0.22335 0.25253 0.0
C139 C 0.74685 0.22999 0.29768 0.0
N140 N 0.75661 0.18746 0.3193 0.0
N141 N 0.74849 0.15293 0.28769 0.0
C142 C 0.74495 0.99872 0.25997 0.0
O143 O 0.73181 0.99782 0.30477 0.0
O144 O 0.81291 0.22144 0.41775 0.0
Zn145 Zn 0.78522 0.09376 0.28411 0.0
N146 N 0.6999 0.18771 0.41354 0.0
C147 C 0.61684 0.21165 0.40886 0.0
C148 C 0.66243 0.20604 0.38772 0.0
C149 C 0.69326 0.17376 0.45919 0.0
N150 N 0.61052 0.1987 0.45493 0.0
C151 C 0.64751 0.17929 0.48057 0.0
O152 O 0.79897 0.06136 0.34669 0.0
C153 C 0.795 0.06814 0.39115 0.0
O154 O 0.78155 0.10871 0.40778 0.0
H155 H 0.66748 0.21607 0.35108 0.0
H156 H 0.72391 0.15971 0.47887 0.0
C157 C 0.86289 0.07674 0.22393 0.0
C158 C 0.89953 0.08763 0.19085 0.0
C159 C 0.89519 0.17005 0.21434 0.0
C160 C 0.85927 0.1585 0.24751 0.0
N161 N 0.84355 0.11208 0.25109 0.0
N162 N 0.91464 0.13446 0.18715 0.0
H163 H 0.84985 0.04051 0.22923 0.0
C164 C 0.85828 0.21659 0.40981 0.0
O165 O 0.87251 0.18556 0.37737 0.0
O166 O 0.75866 0.03885 0.2422 0.0
H167 H 0.84272 0.18656 0.26857 0.0
H168 H 0.58681 0.22652 0.38893 0.0
H169 H 0.90764 0.20694 0.21033 0.0
Zn170 Zn 0.09835 0.24638 0.67682 0.0
C171 C 0.23845 0.27726 0.69571 0.0
N172 N 0.22528 0.27939 0.74152 0.0
C173 C 0.17646 0.27805 0.73948 0.0
N174 N 0.16005 0.27471 0.69467 0.0
N175 N 0.19914 0.27411 0.66683 0.0
C176 C 0.24102 0.17207 0.59017 0.0
O177 O 0.23151 0.16709 0.6356 0.0
O178 O 0.04343 0.24194 0.72729 0.0
Zn179 Zn 0.19777 0.2712 0.5977 0.0
N180 N 0.11543 0.1807 0.66642 0.0
C181 C 0.13216 0.10979 0.62219 0.0
C182 C 0.12017 0.15866 0.62362 0.0
C183 C 0.12251 0.15655 0.70753 0.0
N184 N 0.13645 0.08493 0.66355 0.0
C185 C 0.13128 0.10687 0.70663 0.0
O186 O 0.13013 0.27178 0.56675 0.0
C187 C 0.08459 0.27441 0.57533 0.0
O188 O 0.0682 0.27131 0.61739 0.0
H189 H 0.11504 0.17862 0.59112 0.0
H190 H 0.11918 0.17617 0.74048 0.0
C191 C 0.2423 0.33144 0.52846 0.0
C192 C 0.25604 0.37577 0.50822 0.0
C193 C 0.24164 0.41451 0.58184 0.0
C194 C 0.22684 0.37054 0.60152 0.0
N195 N 0.22753 0.3299 0.57442 0.0
N196 N 0.25509 0.41634 0.53543 0.0
H197 H 0.24041 0.29893 0.50716 0.0
C198 C 1.00874 0.27132 0.73582 0.0
O199 O 1.00936 0.31409 0.71566 0.0
O200 O 0.23221 0.21227 0.57 0.0
H201 H 0.2137 0.36908 0.63769 0.0
H202 H 0.13658 0.09142 0.58858 0.0
H203 H 0.24102 0.44718 0.60289 0.0
Zn204 Zn 0.2671 0.85806 0.37798 0.0
C205 C 0.29594 0.86474 0.23827 0.0
N206 N 0.29464 0.81631 0.23964 0.0
C207 C 0.27881 0.80672 0.2839 0.0
N208 N 0.2707 0.84825 0.30854 0.0
N209 N 0.28046 0.88437 0.27908 0.0
C210 C 0.2864 0.03523 0.23127 0.0
O211 O 0.32111 0.03984 0.26291 0.0
O212 O 0.20791 0.82917 0.4119 0.0
Zn213 Zn 0.25243 0.94785 0.28554 0.0
N214 N 0.32563 0.83054 0.40484 0.0
C215 C 0.40217 0.79055 0.40077 0.0
C216 C 0.35939 0.80604 0.37901 0.0
C217 C 0.33369 0.84137 0.4511 0.0
N218 N 0.41012 0.80131 0.44714 0.0
C219 C 0.37725 0.82708 0.47288 0.0
O220 O 0.27068 0.9826 0.34408 0.0
C221 C 0.27372 0.97241 0.38782 0.0
O222 O 0.27049 0.92883 0.40228 0.0
H223 H 0.35393 0.79922 0.34179 0.0
H224 H 0.30608 0.86099 0.47053 0.0
C225 C 0.15897 0.94842 0.24812 0.0
C226 C 0.10868 0.94136 0.24615 0.0
C227 C 0.11109 0.90781 0.32377 0.0
C228 C 0.16108 0.91668 0.3259 0.0
N229 N 0.18386 0.93643 0.28779 0.0
N230 N 0.08602 0.92077 0.28425 0.0
H231 H 0.17842 0.96387 0.21857 0.0
C232 C 0.16805 0.81182 0.39638 0.0
O233 O 0.16167 0.80737 0.35047 0.0
O234 O 0.26056 0.99688 0.23112 0.0
H235 H 0.18161 0.90777 0.35731 0.0
H236 H 0.42914 0.77064 0.38079 0.0
H237 H 0.0922 0.89168 0.35358 0.0
Zn238 Zn 0.94903 0.78573 0.7145 0.0
C239 C 0.80434 0.76219 0.70453 0.0
N240 N 0.81032 0.75397 0.75106 0.0
C241 C 0.85889 0.7531 0.75562 0.0
N242 N 0.88207 0.76131 0.71437 0.0
N243 N 0.84777 0.76702 0.68163 0.0
C244 C 0.82617 0.86871 0.59559 0.0
O245 O 0.84636 0.87697 0.63704 0.0
O246 O 1.00198 0.75002 0.75279 0.0
Zn247 Zn 0.85937 0.7705 0.61331 0.0
N248 N 0.94706 0.84605 0.74735 0.0
C249 C 0.90799 0.90761 0.79162 0.0
C250 C 0.90533 0.86834 0.76088 0.0
C251 C 0.9912 0.86206 0.76179 0.0
N252 N 0.9523 0.92392 0.80582 0.0
C253 C 0.99459 0.90253 0.79162 0.0
O254 O 0.92925 0.78072 0.59138 0.0
C255 C 0.97153 0.79106 0.60664 0.0
O256 O 0.97993 0.79521 0.65071 0.0
H257 H 0.87038 0.85497 0.74913 0.0
H258 H 0.02277 0.8431 0.749 0.0
C259 C 0.84936 0.70157 0.5399 0.0
C260 C 0.83931 0.65636 0.51955 0.0
C261 C 0.81265 0.62762 0.5944 0.0
C262 C 0.824 0.67222 0.61472 0.0
N263 N 0.84096 0.7087 0.58682 0.0
N264 N 0.82038 0.62069 0.54726 0.0
H265 H 0.86378 0.73101 0.51876 0.0
C266 C 0.03549 0.72613 0.73218 0.0
O267 O 0.02933 0.71358 0.68763 0.0
O268 O 0.82354 0.82543 0.58044 0.0
H269 H 0.81996 0.67731 0.65247 0.0
H270 H 0.87522 0.92542 0.80364 0.0
H271 H 0.79843 0.59852 0.61603 0.0
H272 H 0.08345 0.32443 0.9337 0.0
H273 H 0.18588 0.21476 0.97522 0.0
H274 H 0.19763 0.19189 0.89224 0.0
H275 H 0.19208 0.21502 0.80895 0.0
H276 H 0.09802 0.33123 0.76674 0.0
H277 H 0.068 0.33886 0.84851 0.0
C278 C 0.10708 0.29455 0.92443 0.0
C279 C 0.13438 0.27165 0.95995 0.0
C280 C 0.1153 0.28321 0.87654 0.0
C281 C 0.16512 0.23313 0.94805 0.0
C282 C 0.17188 0.22019 0.90075 0.0
C283 C 0.16383 0.24092 0.81761 0.0
C284 C 0.14708 0.2726 0.78254 0.0
C285 C 0.14919 0.24674 0.86476 0.0
C286 C 0.11071 0.30616 0.79345 0.0
C287 C 0.0942 0.3109 0.84023 0.0
H288 H 0.2635 0.93041 0.03017 0.0
H289 H 0.41619 0.89653 0.02316 0.0
H290 H 0.41968 0.89039 0.10977 0.0
H291 H 0.37564 0.87992 0.18521 0.0
H292 H 0.22073 0.89946 0.18888 0.0
H293 H 0.2211 0.92743 0.10668 0.0
C294 C 0.29773 0.92338 0.04799 0.0
C295 C 0.3395 0.91401 0.02106 0.0
C296 C 0.29869 0.91724 0.0973 0.0
C297 C 0.38371 0.90393 0.04378 0.0
C298 C 0.38558 0.9001 0.09309 0.0
C299 C 0.34248 0.89203 0.16815 0.0
C300 C 0.29845 0.89042 0.19315 0.0
C301 C 0.34282 0.90448 0.11996 0.0
C302 C 0.25514 0.90387 0.17081 0.0
C303 C 0.25535 0.91864 0.12356 0.0
H304 H 0.83639 0.81204 0.82692 0.0
H305 H 0.93113 0.69495 0.78801 0.0
H306 H 0.95923 0.68846 0.8704 0.0
H307 H 0.94496 0.7071 0.95484 0.0
H308 H 0.84499 0.82043 0.99302 0.0
H309 H 0.83165 0.83882 0.90927 0.0
C310 C 0.86405 0.78591 0.8365 0.0
C311 C 0.88216 0.75416 0.80214 0.0
C312 C 0.8788 0.78185 0.88365 0.0
C313 C 0.91763 0.7202 0.81425 0.0
C314 C 0.93326 0.71631 0.86125 0.0
C315 C 0.92165 0.73689 0.94463 0.0
C316 C 0.89543 0.76208 0.97946 0.0
C317 C 0.91263 0.74576 0.89651 0.0
C318 C 0.86504 0.80042 0.96636 0.0
C319 C 0.85719 0.81066 0.91866 0.0
H320 H 0.79453 0.20185 0.17891 0.0
H321 H 0.68013 0.10061 0.21203 0.0
H322 H 0.67718 0.07507 0.12848 0.0
H323 H 0.69823 0.09261 0.04495 0.0
H324 H 0.81089 0.19678 0.01347 0.0
H325 H 0.82518 0.209 0.0981 0.0
C326 C 0.7699 0.17327 0.1679 0.0
C327 C 0.73741 0.15308 0.20074 0.0
C328 C 0.76827 0.15952 0.12037 0.0
C329 C 0.70538 0.11635 0.18677 0.0
C330 C 0.70369 0.10199 0.13921 0.0
C331 C 0.72692 0.11676 0.05679 0.0
C332 C 0.75283 0.1446 0.02353 0.0
C333 C 0.73369 0.12478 0.10544 0.0
C334 C 0.79 0.17577 0.03883 0.0
C335 C 0.798 0.18288 0.08704 0.0
H336 H 0.60335 0.23705 0.54338 0.0
H337 H 0.67886 0.10133 0.53156 0.0
H338 H 0.68415 0.09581 0.61806 0.0
H339 H 0.68011 0.13691 0.69523 0.0
H340 H 0.61719 0.27854 0.70349 0.0
H341 H 0.59216 0.27406 0.62122 0.0
C342 C 0.61964 0.20562 0.55991 0.0
C343 C 0.64125 0.17003 0.53159 0.0
C344 C 0.62459 0.20391 0.60927 0.0
C345 C 0.66265 0.12952 0.55302 0.0
C346 C 0.66572 0.12641 0.60233 0.0
C347 C 0.65955 0.16603 0.67918 0.0
C348 C 0.64863 0.20735 0.70596 0.0
C349 C 0.6488 0.16452 0.63063 0.0
C350 C 0.6234 0.24544 0.68468 0.0
C351 C 0.61014 0.24325 0.63707 0.0
H352 H 0.21229 0.43384 0.44426 0.0
H353 H 0.32183 0.32366 0.45815 0.0
H354 H 0.32828 0.31752 0.37182 0.0
H355 H 0.29331 0.33372 0.29402 0.0
H356 H 0.17722 0.43662 0.27931 0.0
H357 H 0.18331 0.45674 0.36412 0.0
C358 C 0.23838 0.40948 0.42812 0.0
C359 C 0.26637 0.37896 0.45705 0.0
C360 C 0.2403 0.40474 0.37849 0.0
C361 C 0.29978 0.34712 0.43625 0.0
C362 C 0.30337 0.34358 0.38704 0.0
C363 C 0.27017 0.36139 0.30935 0.0
C364 C 0.23487 0.38376 0.2811 0.0
C365 C 0.2724 0.37073 0.35803 0.0
C366 C 0.2049 0.41942 0.30071 0.0
C367 C 0.20811 0.43044 0.34915 0.0
H368 H 0.42242 0.76974 0.53674 0.0
H369 H 0.35366 0.90892 0.52236 0.0
H370 H 0.35468 0.91947 0.6082 0.0
H371 H 0.36085 0.88242 0.68684 0.0
H372 H 0.42246 0.74083 0.7013 0.0
H373 H 0.44084 0.7385 0.61643 0.0
C374 C 0.40873 0.80284 0.55239 0.0
C375 C 0.3864 0.83765 0.5235 0.0
C376 C 0.40861 0.80828 0.6019 0.0
C377 C 0.36932 0.88069 0.54406 0.0
C378 C 0.37021 0.88695 0.59311 0.0
C379 C 0.38024 0.85208 0.67149 0.0
C380 C 0.3916 0.81229 0.70004 0.0
C381 C 0.38767 0.85002 0.62238 0.0
C382 C 0.41544 0.77249 0.68014 0.0
C383 C 0.42478 0.77081 0.63141 0.0
H384 H 0.77803 0.61415 0.45713 0.0
H385 H 0.92015 0.67969 0.46849 0.0
H386 H 0.92966 0.67712 0.38235 0.0
H387 H 0.89189 0.66928 0.30436 0.0
H388 H 0.74537 0.6156 0.29309 0.0
H389 H 0.74365 0.59805 0.37792 0.0
C390 C 0.81142 0.62682 0.44061 0.0
C391 C 0.84795 0.64787 0.46865 0.0
C392 C 0.81585 0.62683 0.39098 0.0
C393 C 0.89117 0.66427 0.44725 0.0
C394 C 0.89668 0.66264 0.39812 0.0
C395 C 0.86036 0.65199 0.3204 0.0
C396 C 0.81932 0.64221 0.29247 0.0
C397 C 0.85847 0.64583 0.36964 0.0
C398 C 0.7781 0.62115 0.31343 0.0
C399 C 0.77677 0.61234 0.36225 0.0
H400 H 0.47864 0.26537 0.89319 0.0
H401 H 0.58999 0.32112 0.9861 0.0
H402 H 0.52842 0.34039 0.04595 0.0
H403 H 0.4424 0.34459 0.07072 0.0
H404 H 0.3314 0.28402 0.98035 0.0
H405 H 0.39315 0.26289 0.92121 0.0
C406 C 0.48936 0.28163 0.92662 0.0
C407 C 0.53884 0.29223 0.93495 0.0
C408 C 0.45378 0.29158 0.96147 0.0
C409 C 0.55223 0.31258 0.97876 0.0
C410 C 0.517 0.3237 0.01299 0.0
C411 C 0.43178 0.3263 0.03829 0.0
C412 C 0.38224 0.31616 0.02995 0.0
C413 C 0.46761 0.31375 0.00462 0.0
C414 C 0.36921 0.29207 0.98788 0.0
C415 C 0.40453 0.28026 0.95384 0.0
H416 H 0.26679 0.56452 0.09124 0.0
H417 H 0.25922 0.45279 0.98453 0.0
H418 H 0.26613 0.51332 0.9221 0.0
H419 H 0.27827 0.59764 0.8973 0.0
H420 H 0.28584 0.70963 0.00365 0.0
H421 H 0.27441 0.64959 0.06614 0.0
C422 C 0.26652 0.55336 0.05434 0.0
C423 C 0.26279 0.50389 0.04291 0.0
C424 C 0.27038 0.58853 0.01827 0.0
C425 C 0.2621 0.49042 -0.0053 0.0
C426 C 0.26608 0.5251 0.95878 0.0
C427 C 0.27677 0.6091 0.93408 0.0
C428 C 0.28307 0.65828 0.9455 0.0
C429 C 0.27068 0.57423 0.97009 0.0
C430 C 0.28114 0.67215 0.99356 0.0
C431 C 0.27481 0.63774 0.02948 0.0
H432 H 0.56253 0.80145 0.90833 0.0
H433 H 0.44536 0.7377 0.98962 0.0
H434 H 0.50255 0.71401 0.05119 0.0
H435 H 0.58665 0.70528 0.07925 0.0
H436 H 0.70396 0.77159 0.00069 0.0
H437 H 0.64606 0.80075 0.94133 0.0
C438 C 0.54943 0.78284 0.93975 0.0
C439 C 0.4996 0.77098 0.94386 0.0
C440 C 0.58263 0.76955 0.97558 0.0
C441 C 0.48336 0.7473 0.98521 0.0
C442 C 0.51613 0.73351 0.02051 0.0
C443 C 0.59946 0.72668 0.04945 0.0
C444 C 0.64958 0.73588 0.04421 0.0
C445 C 0.56594 0.74355 0.01565 0.0
C446 C 0.66556 0.7641 0.00568 0.0
C447 C 0.63246 0.78051 0.97152 0.0
H448 H 0.71022 0.4517 0.90973 0.0
H449 H 0.76083 0.33599 -0.00083 0.0
H450 H 0.77904 0.39389 0.06237 0.0
H451 H 0.77588 0.47734 0.09421 0.0
H452 H 0.72947 0.59312 0.00259 0.0
H453 H 0.71433 0.53551 0.93865 0.0
C454 C 0.72585 0.4392 0.94282 0.0
C455 C 0.73393 0.38947 0.94964 0.0
C456 C 0.73654 0.47278 0.97896 0.0
C457 C 0.75448 0.37402 0.99272 0.0
C458 C 0.76456 0.40713 0.02909 0.0
C459 C 0.76265 0.48991 0.06017 0.0
C460 C 0.75344 0.53952 0.05343 0.0
C461 C 0.75493 0.45655 0.02297 0.0
C462 C 0.73693 0.55525 0.00883 0.0
C463 C 0.72815 0.52227 0.97219 0.0
H464 H 0.95664 0.22248 0.39723 0.0
H465 H 0.84179 0.26237 0.49426 0.0
H466 H 0.90203 0.28884 0.5523 0.0
H467 H 0.98706 0.29221 0.57895 0.0
H468 H 0.10217 0.2528 0.482 0.0
H469 H 0.04218 0.23547 0.42044 0.0
C470 C 0.94476 0.23759 0.43081 0.0
C471 C 0.89468 0.23975 0.44153 0.0
C472 C 0.97969 0.25266 0.46424 0.0
C473 C 0.88 0.26003 0.48502 0.0
C474 C 0.91449 0.27503 0.5184 0.0
C475 C 0.99917 0.2806 0.54411 0.0
C476 C 0.04917 0.27329 0.53546 0.0
C477 C 0.96441 0.27026 0.50891 0.0
C478 C 0.06404 0.25872 0.48985 0.0
C479 C 0.02967 0.24845 0.45463 0.0
H480 H 0.26821 0.17097 0.49732 0.0
H481 H 0.24367 0.07673 0.61697 0.0
H482 H 0.25523 1.0061 0.56603 0.0
H483 H 0.26547 0.97093 0.48554 0.0
H484 H 0.28982 0.06707 0.36694 0.0
H485 H 0.28556 0.13642 0.41939 0.0
C486 C 0.26589 0.13502 0.51248 0.0
C487 C 0.25455 0.12937 0.56088 0.0
C488 C 0.27225 0.09456 0.48297 0.0
C489 C 0.25221 0.08235 0.57983 0.0
C490 C 0.25862 0.04182 0.55063 0.0
C491 C 0.27047 1.00699 0.47128 0.0
C492 C 0.27732 1.0134 0.42203 0.0
C493 C 0.26764 0.04741 0.50183 0.0
C494 C 0.28395 0.06064 0.40445 0.0
C495 C 0.2815 0.10061 0.43446 0.0
H496 H 0.16701 0.82486 0.49218 0.0
H497 H 0.07639 0.77856 0.37571 0.0
H498 H 1.00755 0.76833 0.43001 0.0
H499 H 0.97248 0.77415 0.51062 0.0
H500 H 0.0641 0.82081 0.62644 0.0
H501 H 0.1327 0.82946 0.57227 0.0
C502 C 0.13233 0.81224 0.47858 0.0
C503 C 0.12709 0.80246 0.42981 0.0
C504 C 0.09276 0.80684 0.50992 0.0
C505 C 0.08167 0.78627 0.41304 0.0
C506 C 0.04215 0.78057 0.44408 0.0
C507 C 1.00738 0.78637 0.52402 0.0
C508 C 1.01276 0.797 0.57269 0.0
C509 C 0.04714 0.79111 0.49258 0.0
C510 C 0.05856 0.81243 0.58928 0.0
C511 C 0.09801 0.81735 0.55829 0.0
H512 H 0.78968 0.0665 0.48856 0.0
H513 H 0.81643 0.97489 0.36719 0.0
H514 H 0.82448 0.90513 0.4191 0.0
H515 H 0.82522 0.86959 0.49899 0.0
H516 H 0.80278 0.96101 0.62094 0.0
H517 H 0.79111 0.03084 0.56891 0.0
C518 C 0.7975 0.03136 0.47341 0.0
C519 C 0.80252 0.02636 0.42379 0.0
C520 C 0.80241 0.99101 0.50363 0.0
C521 C 0.81252 0.98024 0.40509 0.0
C522 C 0.81697 0.94007 0.4348 0.0
C523 C 0.81712 0.90466 0.51418 0.0
C524 C 0.8144 0.90992 0.56383 0.0
C525 C 0.81192 0.94494 0.48409 0.0
C526 C 0.80485 0.95588 0.58287 0.0
C527 C 0.79839 0.9959 0.55311 0.0
H528 H 0.48931 0.43433 0.29805 0.0
H529 H 0.38032 0.5451 0.27877 0.0
H530 H 0.43985 0.60672 0.29363 0.0
H531 H 0.52549 0.6287 0.28797 0.0
H532 H 0.63518 0.51979 0.31038 0.0
H533 H 0.57234 0.45855 0.31954 0.0
C534 C 0.478 0.47181 0.29795 0.0
C535 C 0.43096 0.4845 0.2828 0.0
C536 C 0.51283 0.50781 0.30613 0.0
C537 C 0.41673 0.53332 0.28628 0.0
C538 C 0.45092 0.56921 0.29542 0.0
C539 C 0.53597 0.59191 0.2962 0.0
C540 C 0.58492 0.5779 0.29329 0.0
C541 C 0.49973 0.55682 0.30128 0.0
C542 C 0.59762 0.53078 0.30747 0.0
C543 C 0.56165 0.49569 0.31344 0.0
H544 H 0.4324 0.5461 0.71845 0.0
H545 H 0.55238 0.6473 0.72589 0.0
H546 H 0.60726 0.58674 0.69543 0.0
H547 H 0.62474 0.50122 0.69167 0.0
H548 H 0.50679 0.39754 0.69024 0.0
H549 H 0.44799 0.46289 0.69217 0.0
C550 C 0.47031 0.55522 0.71213 0.0
C551 C 0.48833 0.60057 0.72597 0.0
C552 C 0.5025 0.51941 0.69687 0.0
C553 C 0.53717 0.61262 0.71611 0.0
C554 C 0.56899 0.57772 0.69903 0.0
C555 C 0.58622 0.49258 0.69039 0.0
C556 C 0.57032 0.44458 0.69537 0.0
C557 C 0.55266 0.53019 0.69308 0.0
C558 C 0.5203 0.43427 0.69061 0.0
C559 C 0.48646 0.47169 0.69129 0.0
H560 H 0.98866 0.09525 0.15001 0.0
H561 H 0.87553 0.98995 0.17562 0.0
H562 H 0.9363 0.9273 0.18616 0.0
H563 H 1.01977 0.91191 0.21531 0.0
H564 H 0.13127 0.01906 0.18831 0.0
H565 H 0.07324 0.07016 0.14957 0.0
C566 C 0.97689 0.05833 0.15614 0.0
C567 C 0.92832 0.04847 0.16824 0.0
C568 C 1.01204 0.02266 0.16285 0.0
C569 C 0.91346 0.99974 0.17172 0.0
C570 C 0.94819 0.96358 0.17732 0.0
C571 C 0.03169 0.9457 0.19955 0.0
C572 C 0.07931 0.96244 0.20733 0.0
C573 C 0.99759 0.97606 0.17798 0.0
C574 C 0.09474 1.00532 0.1847 0.0
C575 C 0.0613 0.0351 0.16233 0.0
H576 H 0.16609 1.01669 0.72218 0.0
H577 H 0.08044 0.12852 0.78928 0.0
H578 H 0.04014 0.06932 0.83786 0.0
H579 H 1.00899 0.9871 0.83838 0.0
H580 H 0.09072 0.87435 0.76849 0.0
H581 H 0.15266 0.93207 0.74605 0.0
C582 C 0.1399 0.02832 0.74867 0.0
C583 C 0.1247 0.07671 0.74972 0.0
C584 C 0.11452 0.99363 0.77522 0.0
C585 C 0.09241 0.09154 0.78593 0.0
C586 C 0.0686 0.0574 0.81389 0.0
C587 C 0.04088 0.97454 0.81934 0.0
C588 C 0.04188 0.9276 0.80032 0.0
C589 C 0.07599 1.00828 0.80518 0.0
C590 C 0.0857 0.91133 0.77951 0.0
C591 C 0.12189 0.94439 0.76689 0.0
H592 H 0.33605 0.10984 0.18825 0.0
H593 H 0.19214 0.06151 0.22693 0.0
H594 H 0.1585 0.13972 0.20525 0.0
H595 H 0.17235 0.22604 0.18914 0.0
H596 H 0.31551 0.27552 0.14998 0.0
H597 H 0.34685 0.19325 0.15659 0.0
C598 C 0.29719 0.11615 0.1906 0.0
C599 C 0.26654 0.07955 0.2087 0.0
C600 C 0.27797 0.16176 0.17815 0.0
C601 C 0.21628 0.0884 0.21186 0.0
C602 C 0.19708 0.13349 0.20005 0.0
C603 C 0.20988 0.21832 0.17985 0.0
C604 C 0.24137 0.25679 0.16851 0.0
C605 C 0.22778 0.17096 0.18475 0.0
C606 C 0.29019 0.24651 0.15758 0.0
C607 C 0.30836 0.19945 0.16233 0.0
H608 H 0.26129 0.71075 0.76017 0.0
H609 H 0.2366 0.83927 0.84243 0.0
H610 H 0.14853 0.8261 0.83794 0.0
H611 H 0.07851 0.78518 0.79882 0.0
H612 H 0.10532 0.66043 0.71094 0.0
H613 H 0.1918 0.66425 0.73001 0.0
C614 C 0.2366 0.73473 0.77882 0.0
C615 C 0.25569 0.77534 0.80252 0.0
C616 C 0.18597 0.72795 0.7742 0.0
C617 C 0.22324 0.80702 0.82516 0.0
C618 C 0.17264 0.79982 0.82189 0.0
C619 C 0.10307 0.75806 0.78491 0.0
C620 C 0.08523 0.72262 0.75318 0.0
C621 C 0.1535 0.76147 0.79482 0.0
C622 C 0.11787 0.68813 0.7352 0.0
C623 C 0.16749 0.69041 0.74598 0.0
H624 H 0.85929 0.80632 0.22413 0.0
H625 H 0.72233 0.76401 0.16286 0.0
H626 H 0.69236 0.84649 0.17001 0.0
H627 H 0.70056 0.92834 0.20619 0.0
H628 H 0.83619 0.96761 0.27246 0.0
H629 H 0.87099 0.88959 0.25129 0.0
C630 C 0.82349 0.81557 0.2108 0.0
C631 C 0.79354 0.77895 0.19206 0.0
C632 C 0.80575 0.86279 0.21713 0.0
C633 C 0.74693 0.79143 0.17575 0.0
C634 C 0.7293 0.83867 0.18091 0.0
C635 C 0.73802 0.91998 0.21491 0.0
C636 C 0.76606 0.95385 0.24026 0.0
C637 C 0.75766 0.87426 0.20334 0.0
C638 C 0.81428 0.94245 0.25215 0.0
C639 C 0.83412 0.89767 0.24033 0.0
H640 H 0.93704 0.32477 0.77903 0.0
H641 H 0.97774 0.17816 0.74597 0.0
H642 H 0.89719 0.14981 0.76999 0.0
H643 H 0.81135 0.16825 0.78838 0.0
H644 H 0.77087 0.31374 0.82481 0.0
H645 H 0.85494 0.3406 0.81292 0.0
C646 C 0.92861 0.2865 0.77802 0.0
C647 C 0.96339 0.25385 0.75982 0.0
C648 C 0.88201 0.27016 0.7925 0.0
C649 C 0.95189 0.20427 0.75948 0.0
C650 C 0.9056 0.18796 0.77307 0.0
C651 C 0.82136 0.20548 0.79551 0.0
C652 C 0.78471 0.23888 0.80751 0.0
C653 C 0.86984 0.22074 0.78806 0.0
C654 C 0.79822 0.28707 0.81626 0.0
C655 C 0.84634 0.30262 0.80867 0.0
H656 H 0.69023 0.30853 0.30764 0.0
H657 H 0.83864 0.26062 0.31679 0.0
H658 H 0.86757 0.34379 0.30813 0.0
H659 H 0.85028 0.42797 0.28268 0.0
H660 H 0.70091 0.47476 0.27442 0.0
H661 H 0.67293 0.39515 0.29844 0.0
C662 C 0.7288 0.31671 0.3101 0.0
C663 C 0.76219 0.27856 0.31365 0.0
C664 C 0.7451 0.36459 0.30383 0.0
C665 C 0.81214 0.28941 0.31553 0.0
C666 C 0.82872 0.33701 0.30952 0.0
C667 C 0.81168 0.42103 0.28718 0.0
C668 C 0.77785 0.45753 0.276 0.0
C669 C 0.79555 0.3746 0.30125 0.0
C670 C 0.72795 0.44779 0.28263 0.0
C671 C 0.71175 0.40193 0.29619 0.0
H672 H 0.46428 0.29476 0.70287 0.0
H673 H 0.44566 0.15191 0.76171 0.0
H674 H 0.36056 0.15154 0.73751 0.0
H675 H 0.28862 0.19659 0.7119 0.0
H676 H 0.30454 0.34131 0.65859 0.0
H677 H 0.39309 0.33591 0.667 0.0
C678 C 0.44191 0.26309 0.7094 0.0
C679 C 0.46149 0.22357 0.73468 0.0
C680 C 0.39224 0.26351 0.69624 0.0
C681 C 0.4317 0.183 0.74287 0.0
C682 C 0.38287 0.18275 0.72902 0.0
C683 C 0.31174 0.22604 0.69993 0.0
C684 C 0.29006 0.26868 0.68304 0.0
C685 C 0.36234 0.2234 0.70723 0.0
C686 C 0.32025 0.30742 0.66976 0.0
C687 C 0.37096 0.30462 0.67558 0.0
H688 H 0.31674 0.72232 0.31972 0.0
H689 H 0.18775 0.7849 0.25919 0.0
H690 H 0.15634 0.70474 0.2404 0.0
H691 H 0.1725 0.6182 0.22808 0.0
H692 H 0.29823 0.55373 0.293 0.0
H693 H 0.3238 0.63266 0.32335 0.0
C694 C 0.28066 0.71828 0.30476 0.0
C695 C 0.25401 0.75978 0.2922 0.0
C696 C 0.26294 0.6716 0.29334 0.0
C697 C 0.20818 0.75366 0.27087 0.0
C698 C 0.19056 0.70772 0.25925 0.0
C699 C 0.20486 0.62114 0.24987 0.0
C700 C 0.23442 0.58022 0.25664 0.0
C701 C 0.21863 0.66658 0.26834 0.0
C702 C 0.27562 0.58476 0.28591 0.0
C703 C 0.29019 0.63001 0.30345 0.0
H704 H 0.58001 0.74952 0.70778 0.0
H705 H 0.5993 0.89884 0.7475 0.0
H706 H 0.68442 0.89568 0.72289 0.0
H707 H 0.75668 0.84674 0.70416 0.0
H708 H 0.73902 0.69583 0.67206 0.0
H709 H 0.65083 0.7036 0.67768 0.0
C710 C 0.60245 0.78176 0.70982 0.0
C711 C 0.58305 0.82428 0.73002 0.0
C712 C 0.65219 0.77936 0.69672 0.0
C713 C 0.61308 0.86549 0.7326 0.0
C714 C 0.66198 0.86372 0.71853 0.0
C715 C 0.73331 0.81623 0.69583 0.0
C716 C 0.75473 0.77116 0.6859 0.0
C717 C 0.68246 0.82037 0.70229 0.0
C718 C 0.7239 0.7314 0.67758 0.0
C719 C 0.67319 0.73562 0.68201 0.0
loop_
_geom_bond_atom_site_label_1
_geom_bond_atom_site_label_2
_geom_bond_distance
_geom_bond_site_symmetry_2
_ccdc_geom_bond_type
Zn0 N4 2.020 . S
Zn0 O8 2.019 . S
Zn0 N10 2.119 . S
Zn0 O18 1.975 . S
C1 N2 1.334 . S
C1 N5 1.336 . S
N2 C1 1.334 . S
N2 C3 1.334 . S
C3 N2 1.334 . S
C3 N4 1.336 . S
N4 Zn0 2.020 . S
N4 C3 1.336 . S
N4 N5 1.354 . S
N5 C1 1.336 . S
N5 N4 1.354 . S
N5 Zn9 2.020 . S
C6 O7 1.244 . S
C6 O30 1.257 . S
O7 C6 1.244 . S
O8 Zn0 2.019 . S
O8 C28 1.257 . S
Zn9 N5 2.020 . S
Zn9 O16 1.975 . S
Zn9 N25 2.119 . S
Zn9 O30 2.019 . S
N10 Zn0 2.119 . S
N10 C12 1.334 . S
N10 C13 1.328 . S
C11 C12 1.391 . S
C11 N14 1.329 . S
C11 H32 0.930 . S
C12 N10 1.334 . S
C12 C11 1.391 . S
C12 H19 0.930 . S
C13 N10 1.328 . S
C13 C15 1.392 . S
C13 H20 0.930 . S
N14 C11 1.329 . S
N14 C15 1.331 . S
C15 C13 1.392 . S
C15 N14 1.331 . S
O16 Zn9 1.975 . S
O16 C17 1.252 . S
C17 O16 1.252 . S
C17 O18 1.252 . S
O18 Zn0 1.975 . S
O18 C17 1.252 . S
H19 C12 0.930 . S
H20 C13 0.930 . S
C21 C22 1.392 . S
C21 N25 1.328 . S
C21 H27 0.930 . S
C22 C21 1.392 . S
C22 N26 1.331 . S
C23 C24 1.391 . S
C23 N26 1.329 . S
C23 H33 0.930 . S
C24 C23 1.391 . S
C24 N25 1.334 . S
C24 H31 0.930 . S
N25 Zn9 2.119 . S
N25 C21 1.328 . S
N25 C24 1.334 . S
N26 C22 1.331 . S
N26 C23 1.329 . S
H27 C21 0.930 . S
C28 O8 1.257 . S
C28 O29 1.244 . S
O29 C28 1.244 . S
O30 C6 1.257 . S
O30 Zn9 2.019 . S
H31 C24 0.930 . S
H32 C11 0.930 . S
H33 C23 0.930 . S
Zn34 N38 2.020 . S
Zn34 O42 2.019 . S
Zn34 N44 2.119 . S
Zn34 O52 1.975 . S
C35 N36 1.334 . S
C35 N39 1.336 . S
N36 C35 1.334 . S
N36 C37 1.334 . S
C37 N36 1.334 . S
C37 N38 1.336 . S
N38 Zn34 2.020 . S
N38 C37 1.336 . S
N38 N39 1.354 . S
N39 C35 1.336 . S
N39 N38 1.354 . S
N39 Zn43 2.020 . S
C40 O41 1.244 . S
C40 O64 1.257 . S
O41 C40 1.244 . S
O42 Zn34 2.019 . S
O42 C62 1.257 . S
Zn43 N39 2.020 . S
Zn43 O50 1.975 . S
Zn43 N59 2.119 . S
Zn43 O64 2.019 . S
N44 Zn34 2.119 . S
N44 C46 1.334 . S
N44 C47 1.328 . S
C45 C46 1.391 . S
C45 N48 1.329 . S
C45 H66 0.930 . S
C46 N44 1.334 . S
C46 C45 1.391 . S
C46 H53 0.930 . S
C47 N44 1.328 . S
C47 C49 1.392 . S
C47 H54 0.930 . S
N48 C45 1.329 . S
N48 C49 1.331 . S
C49 C47 1.392 . S
C49 N48 1.331 . S
O50 Zn43 1.975 . S
O50 C51 1.252 . S
C51 O50 1.252 . S
C51 O52 1.252 . S
O52 Zn34 1.975 . S
O52 C51 1.252 . S
H53 C46 0.930 . S
H54 C47 0.930 . S
C55 C56 1.392 . S
C55 N59 1.328 . S
C55 H61 0.930 . S
C56 C55 1.392 . S
C56 N60 1.331 . S
C57 C58 1.391 . S
C57 N60 1.329 . S
C57 H67 0.930 . S
C58 C57 1.391 . S
C58 N59 1.334 . S
C58 H65 0.930 . S
N59 Zn43 2.119 . S
N59 C55 1.328 . S
N59 C58 1.334 . S
N60 C56 1.331 . S
N60 C57 1.329 . S
H61 C55 0.930 . S
C62 O42 1.257 . S
C62 O63 1.244 . S
O63 C62 1.244 . S
O64 C40 1.257 . S
O64 Zn43 2.019 . S
H65 C58 0.930 . S
H66 C45 0.930 . S
H67 C57 0.930 . S
Zn68 N72 2.020 . S
Zn68 O76 2.019 . S
Zn68 N78 2.119 . S
Zn68 O86 1.975 . S
C69 N70 1.334 . S
C69 N73 1.336 . S
N70 C69 1.334 . S
N70 C71 1.334 . S
C71 N70 1.334 . S
C71 N72 1.336 . S
N72 Zn68 2.020 . S
N72 C71 1.336 . S
N72 N73 1.354 . S
N73 C69 1.336 . S
N73 N72 1.354 . S
N73 Zn77 2.020 . S
C74 O75 1.244 . S
C74 O98 1.257 . S
O75 C74 1.244 . S
O76 Zn68 2.019 . S
O76 C96 1.257 . S
Zn77 N73 2.020 . S
Zn77 O84 1.975 . S
Zn77 N93 2.119 . S
Zn77 O98 2.019 . S
N78 Zn68 2.119 . S
N78 C80 1.334 . S
N78 C81 1.328 . S
C79 C80 1.391 . S
C79 N82 1.329 . S
C79 H100 0.930 . S
C80 N78 1.334 . S
C80 C79 1.391 . S
C80 H87 0.930 . S
C81 N78 1.328 . S
C81 C83 1.392 . S
C81 H88 0.930 . S
N82 C79 1.329 . S
N82 C83 1.331 . S
C83 C81 1.392 . S
C83 N82 1.331 . S
O84 Zn77 1.975 . S
O84 C85 1.252 . S
C85 O84 1.252 . S
C85 O86 1.252 . S
O86 Zn68 1.975 . S
O86 C85 1.252 . S
H87 C80 0.930 . S
H88 C81 0.930 . S
C89 C90 1.392 . S
C89 N93 1.328 . S
C89 H95 0.930 . S
C90 C89 1.392 . S
C90 N94 1.331 . S
C91 C92 1.391 . S
C91 N94 1.329 . S
C91 H101 0.930 . S
C92 C91 1.391 . S
C92 N93 1.334 . S
C92 H99 0.930 . S
N93 Zn77 2.119 . S
N93 C89 1.328 . S
N93 C92 1.334 . S
N94 C90 1.331 . S
N94 C91 1.329 . S
H95 C89 0.930 . S
C96 O76 1.257 . S
C96 O97 1.244 . S
O97 C96 1.244 . S
O98 C74 1.257 . S
O98 Zn77 2.019 . S
H99 C92 0.930 . S
H100 C79 0.930 . S
H101 C91 0.930 . S
Zn102 N106 2.020 . S
Zn102 O110 2.019 . S
Zn102 N112 2.119 . S
Zn102 O120 1.975 . S
C103 N104 1.334 . S
C103 N107 1.336 . S
N104 C103 1.334 . S
N104 C105 1.334 . S
C105 N104 1.334 . S
C105 N106 1.336 . S
N106 Zn102 2.020 . S
N106 C105 1.336 . S
N106 N107 1.354 . S
N107 C103 1.336 . S
N107 N106 1.354 . S
N107 Zn111 2.020 . S
C108 O109 1.244 . S
C108 O132 1.257 . S
O109 C108 1.244 . S
O110 Zn102 2.019 . S
O110 C130 1.257 . S
Zn111 N107 2.020 . S
Zn111 O118 1.975 . S
Zn111 N127 2.119 . S
Zn111 O132 2.019 . S
N112 Zn102 2.119 . S
N112 C114 1.334 . S
N112 C115 1.328 . S
C113 C114 1.391 . S
C113 N116 1.329 . S
C113 H134 0.930 . S
C114 N112 1.334 . S
C114 C113 1.391 . S
C114 H121 0.930 . S
C115 N112 1.328 . S
C115 C117 1.392 . S
C115 H122 0.930 . S
N116 C113 1.329 . S
N116 C117 1.331 . S
C117 C115 1.392 . S
C117 N116 1.331 . S
O118 Zn111 1.975 . S
O118 C119 1.252 . S
C119 O118 1.252 . S
C119 O120 1.252 . S
O120 Zn102 1.975 . S
O120 C119 1.252 . S
H121 C114 0.930 . S
H122 C115 0.930 . S
C123 C124 1.392 . S
C123 N127 1.328 . S
C123 H129 0.930 . S
C124 C123 1.392 . S
C124 N128 1.331 . S
C125 C126 1.391 . S
C125 N128 1.329 . S
C125 H135 0.930 . S
C126 C125 1.391 . S
C126 N127 1.334 . S
C126 H133 0.930 . S
N127 Zn111 2.119 . S
N127 C123 1.328 . S
N127 C126 1.334 . S
N128 C124 1.331 . S
N128 C125 1.329 . S
H129 C123 0.930 . S
C130 O110 1.257 . S
C130 O131 1.244 . S
O131 C130 1.244 . S
O132 C108 1.257 . S
O132 Zn111 2.019 . S
H133 C126 0.930 . S
H134 C113 0.930 . S
H135 C125 0.930 . S
Zn136 N140 2.020 . S
Zn136 O144 2.019 . S
Zn136 N146 2.119 . S
Zn136 O154 1.975 . S
C137 N138 1.334 . S
C137 N141 1.336 . S
N138 C137 1.334 . S
N138 C139 1.334 . S
C139 N138 1.334 . S
C139 N140 1.336 . S
N140 Zn136 2.020 . S
N140 C139 1.336 . S
N140 N141 1.354 . S
N141 C137 1.336 . S
N141 N140 1.354 . S
N141 Zn145 2.020 . S
C142 O143 1.260 . S
C142 O166 1.257 . S
O143 C142 1.260 . S
O144 Zn136 2.019 . S
O144 C164 1.257 . S
Zn145 N141 2.020 . S
Zn145 O152 1.975 . S
Zn145 N161 2.119 . S
Zn145 O166 2.019 1_545 S
N146 Zn136 2.119 . S
N146 C148 1.334 . S
N146 C149 1.328 . S
C147 C148 1.391 . S
C147 N150 1.329 . S
C147 H168 0.930 . S
C148 N146 1.334 . S
C148 C147 1.391 . S
C148 H155 0.930 . S
C149 N146 1.328 . S
C149 C151 1.392 . S
C149 H156 0.930 . S
N150 C147 1.329 . S
N150 C151 1.331 . S
C151 C149 1.392 . S
C151 N150 1.331 . S
O152 Zn145 1.975 . S
O152 C153 1.252 . S
C153 O152 1.252 . S
C153 O154 1.252 . S
O154 Zn136 1.975 . S
O154 C153 1.252 . S
H155 C148 0.930 . S
H156 C149 0.930 . S
C157 C158 1.392 1_545 S
C157 N161 1.328 . S
C157 H163 0.930 1_545 S
C158 C157 1.392 1_565 S
C158 N162 1.331 1_565 S
C159 C160 1.391 . S
C159 N162 1.329 . S
C159 H169 0.930 . S
C160 C159 1.391 . S
C160 N161 1.334 . S
C160 H167 0.930 . S
N161 Zn145 2.119 . S
N161 C157 1.328 . S
N161 C160 1.334 . S
N162 C158 1.331 1_545 S
N162 C159 1.329 . S
H163 C157 0.930 1_565 S
C164 O144 1.257 . S
C164 O165 1.244 . S
O165 C164 1.244 . S
O166 C142 1.257 . S
O166 Zn145 2.019 1_565 S
H167 C160 0.930 . S
H168 C147 0.930 . S
H169 C159 0.930 . S
Zn170 N174 2.020 . S
Zn170 O178 2.019 1_455 S
Zn170 N180 2.119 . S
Zn170 O188 1.975 . S
C171 N172 1.334 . S
C171 N175 1.336 . S
N172 C171 1.334 . S
N172 C173 1.334 . S
C173 N172 1.334 . S
C173 N174 1.336 . S
N174 Zn170 2.020 . S
N174 C173 1.336 . S
N174 N175 1.354 . S
N175 C171 1.336 . S
N175 N174 1.354 . S
N175 Zn179 2.020 . S
C176 O177 1.244 . S
C176 O200 1.257 . S
O177 C176 1.244 . S
O178 Zn170 2.019 1_655 S
O178 C198 1.257 . S
Zn179 N175 2.020 . S
Zn179 O186 1.975 . S
Zn179 N195 2.119 . S
Zn179 O200 2.019 . S
N180 Zn170 2.119 . S
N180 C182 1.334 . S
N180 C183 1.328 . S
C181 C182 1.391 . S
C181 N184 1.329 . S
C181 H202 0.930 . S
C182 N180 1.334 . S
C182 C181 1.391 . S
C182 H189 0.930 . S
C183 N180 1.328 . S
C183 C185 1.392 1_455 S
C183 H190 0.930 1_455 S
N184 C181 1.329 . S
N184 C185 1.331 1_455 S
C185 C183 1.392 1_655 S
C185 N184 1.331 1_655 S
O186 Zn179 1.975 . S
O186 C187 1.252 . S
C187 O186 1.252 . S
C187 O188 1.252 . S
O188 Zn170 1.975 . S
O188 C187 1.252 . S
H189 C182 0.930 . S
H190 C183 0.930 1_655 S
C191 C192 1.392 . S
C191 N195 1.328 . S
C191 H197 0.930 . S
C192 C191 1.392 . S
C192 N196 1.331 . S
C193 C194 1.391 . S
C193 N196 1.329 . S
C193 H203 0.930 . S
C194 C193 1.391 . S
C194 N195 1.334 . S
C194 H201 0.930 . S
N195 Zn179 2.119 . S
N195 C191 1.328 . S
N195 C194 1.334 . S
N196 C192 1.331 . S
N196 C193 1.329 . S
H197 C191 0.930 . S
C198 O178 1.257 . S
C198 O199 1.260 . S
O199 C198 1.260 . S
O200 C176 1.257 . S
O200 Zn179 2.019 . S
H201 C194 0.930 . S
H202 C181 0.930 . S
H203 C193 0.930 . S
Zn204 N208 2.020 . S
Zn204 O212 2.019 . S
Zn204 N214 2.119 . S
Zn204 O222 1.975 . S
C205 N206 1.334 . S
C205 N209 1.336 . S
N206 C205 1.334 . S
N206 C207 1.334 . S
C207 N206 1.334 . S
C207 N208 1.336 . S
N208 Zn204 2.020 . S
N208 C207 1.336 . S
N208 N209 1.354 . S
N209 C205 1.336 . S
N209 N208 1.354 . S
N209 Zn213 2.020 . S
C210 O211 1.260 . S
C210 O234 1.257 . S
O211 C210 1.260 . S
O212 Zn204 2.019 . S
O212 C232 1.257 . S
Zn213 N209 2.020 . S
Zn213 O220 1.975 . S
Zn213 N229 2.119 . S
Zn213 O234 2.019 1_565 S
N214 Zn204 2.119 . S
N214 C216 1.334 . S
N214 C217 1.328 . S
C215 C216 1.391 . S
C215 N218 1.329 . S
C215 H236 0.930 . S
C216 N214 1.334 . S
C216 C215 1.391 . S
C216 H223 0.930 . S
C217 N214 1.328 . S
C217 C219 1.392 . S
C217 H224 0.930 . S
N218 C215 1.329 . S
N218 C219 1.331 . S
C219 C217 1.392 . S
C219 N218 1.331 . S
O220 Zn213 1.975 . S
O220 C221 1.252 . S
C221 O220 1.252 . S
C221 O222 1.252 . S
O222 Zn204 1.975 . S
O222 C221 1.252 . S
H223 C216 0.930 . S
H224 C217 0.930 . S
C225 C226 1.392 1_565 S
C225 N229 1.328 . S
C225 H231 0.930 1_565 S
C226 C225 1.392 1_545 S
C226 N230 1.331 1_545 S
C227 C228 1.391 . S
C227 N230 1.329 . S
C227 H237 0.930 . S
C228 C227 1.391 . S
C228 N229 1.334 . S
C228 H235 0.930 . S
N229 Zn213 2.119 . S
N229 C225 1.328 . S
N229 C228 1.334 . S
N230 C226 1.331 1_565 S
N230 C227 1.329 . S
H231 C225 0.930 1_545 S
C232 O212 1.257 . S
C232 O233 1.244 . S
O233 C232 1.244 . S
O234 C210 1.257 . S
O234 Zn213 2.019 1_545 S
H235 C228 0.930 . S
H236 C215 0.930 . S
H237 C227 0.930 . S
Zn238 N242 2.020 . S
Zn238 O246 2.019 1_655 S
Zn238 N248 2.119 . S
Zn238 O256 1.975 . S
C239 N240 1.334 . S
C239 N243 1.336 . S
N240 C239 1.334 . S
N240 C241 1.334 . S
C241 N240 1.334 . S
C241 N242 1.336 . S
N242 Zn238 2.020 . S
N242 C241 1.336 . S
N242 N243 1.354 . S
N243 C239 1.336 . S
N243 N242 1.354 . S
N243 Zn247 2.020 . S
C244 O245 1.244 . S
C244 O268 1.257 . S
O245 C244 1.244 . S
O246 Zn238 2.019 1_455 S
O246 C266 1.257 . S
Zn247 N243 2.020 . S
Zn247 O254 1.975 . S
Zn247 N263 2.119 . S
Zn247 O268 2.019 . S
N248 Zn238 2.119 . S
N248 C250 1.334 . S
N248 C251 1.328 . S
C249 C250 1.391 . S
C249 N252 1.329 . S
C249 H270 0.930 . S
C250 N248 1.334 . S
C250 C249 1.391 . S
C250 H257 0.930 . S
C251 N248 1.328 . S
C251 C253 1.392 1_655 S
C251 H258 0.930 1_655 S
N252 C249 1.329 . S
N252 C253 1.331 1_655 S
C253 C251 1.392 1_455 S
C253 N252 1.331 1_455 S
O254 Zn247 1.975 . S
O254 C255 1.252 . S
C255 O254 1.252 . S
C255 O256 1.252 . S
O256 Zn238 1.975 . S
O256 C255 1.252 . S
H257 C250 0.930 . S
H258 C251 0.930 1_455 S
C259 C260 1.392 . S
C259 N263 1.328 . S
C259 H265 0.930 . S
C260 C259 1.392 . S
C260 N264 1.331 . S
C261 C262 1.391 . S
C261 N264 1.329 . S
C261 H271 0.930 . S
C262 C261 1.391 . S
C262 N263 1.334 . S
C262 H269 0.930 . S
N263 Zn247 2.119 . S
N263 C259 1.328 . S
N263 C262 1.334 . S
N264 C260 1.331 . S
N264 C261 1.329 . S
H265 C259 0.930 . S
C266 O246 1.257 . S
C266 O267 1.260 . S
O267 C266 1.260 . S
O268 C244 1.257 . S
O268 Zn247 2.019 . S
H269 C262 0.930 . S
H270 C249 0.930 . S
H271 C261 0.930 . S
H272 C278 0.930 . S
H273 C281 0.930 . S
H274 C282 0.930 . S
H275 C283 0.930 . S
H276 C286 0.930 . S
H277 C287 0.930 . S
C278 H272 0.930 . S
C278 C279 1.355 . S
C278 C280 1.415 . S
C279 C278 1.355 . S
C279 C281 1.419 . S
C280 C278 1.415 . S
C280 C285 1.425 . S
C280 C287 1.409 . S
C281 H273 0.930 . S
C281 C279 1.419 . S
C281 C282 1.362 . S
C282 H274 0.930 . S
C282 C281 1.362 . S
C282 C285 1.409 . S
C283 H275 0.930 . S
C283 C284 1.355 . S
C283 C285 1.415 . S
C284 C283 1.355 . S
C284 C286 1.419 . S
C285 C280 1.425 . S
C285 C282 1.409 . S
C285 C283 1.415 . S
C286 H276 0.930 . S
C286 C284 1.419 . S
C286 C287 1.362 . S
C287 H277 0.930 . S
C287 C280 1.409 . S
C287 C286 1.362 . S
H288 C294 0.930 . S
H289 C297 0.930 . S
H290 C298 0.930 . S
H291 C299 0.930 . S
H292 C302 0.930 . S
H293 C303 0.930 . S
C294 H288 0.930 . S
C294 C295 1.355 . S
C294 C296 1.415 . S
C295 C294 1.355 . S
C295 C297 1.419 . S
C296 C294 1.415 . S
C296 C301 1.425 . S
C296 C303 1.409 . S
C297 H289 0.930 . S
C297 C295 1.419 . S
C297 C298 1.362 . S
C298 H290 0.930 . S
C298 C297 1.362 . S
C298 C301 1.409 . S
C299 H291 0.930 . S
C299 C300 1.355 . S
C299 C301 1.415 . S
C300 C299 1.355 . S
C300 C302 1.419 . S
C301 C296 1.425 . S
C301 C298 1.409 . S
C301 C299 1.415 . S
C302 H292 0.930 . S
C302 C300 1.419 . S
C302 C303 1.362 . S
C303 H293 0.930 . S
C303 C296 1.409 . S
C303 C302 1.362 . S
H304 C310 0.930 . S
H305 C313 0.930 . S
H306 C314 0.930 . S
H307 C315 0.930 . S
H308 C318 0.930 1_554 S
H309 C319 0.930 . S
C310 H304 0.930 . S
C310 C311 1.355 . S
C310 C312 1.415 . S
C311 C310 1.355 . S
C311 C313 1.419 . S
C312 C310 1.415 . S
C312 C317 1.425 . S
C312 C319 1.409 . S
C313 H305 0.930 . S
C313 C311 1.419 . S
C313 C314 1.362 . S
C314 H306 0.930 . S
C314 C313 1.362 . S
C314 C317 1.409 . S
C315 H307 0.930 . S
C315 C316 1.355 . S
C315 C317 1.415 . S
C316 C315 1.355 . S
C316 C318 1.419 . S
C317 C312 1.425 . S
C317 C314 1.409 . S
C317 C315 1.415 . S
C318 H308 0.930 1_556 S
C318 C316 1.419 . S
C318 C319 1.362 . S
C319 H309 0.930 . S
C319 C312 1.409 . S
C319 C318 1.362 . S
H320 C326 0.930 . S
H321 C329 0.930 . S
H322 C330 0.930 . S
H323 C331 0.930 . S
H324 C334 0.930 1_556 S
H325 C335 0.930 . S
C326 H320 0.930 . S
C326 C327 1.355 . S
C326 C328 1.415 . S
C327 C326 1.355 . S
C327 C329 1.419 . S
C328 C326 1.415 . S
C328 C333 1.425 . S
C328 C335 1.409 . S
C329 H321 0.930 . S
C329 C327 1.419 . S
C329 C330 1.362 . S
C330 H322 0.930 . S
C330 C329 1.362 . S
C330 C333 1.409 . S
C331 H323 0.930 . S
C331 C332 1.355 . S
C331 C333 1.415 . S
C332 C331 1.355 . S
C332 C334 1.419 . S
C333 C328 1.425 . S
C333 C330 1.409 . S
C333 C331 1.415 . S
C334 H324 0.930 1_554 S
C334 C332 1.419 . S
C334 C335 1.362 . S
C335 H325 0.930 . S
C335 C328 1.409 . S
C335 C334 1.362 . S
H336 C342 0.930 . S
H337 C345 0.930 . S
H338 C346 0.930 . S
H339 C347 0.930 . S
H340 C350 0.930 . S
H341 C351 0.930 . S
C342 H336 0.930 . S
C342 C343 1.355 . S
C342 C344 1.415 . S
C343 C342 1.355 . S
C343 C345 1.419 . S
C344 C342 1.415 . S
C344 C349 1.425 . S
C344 C351 1.409 . S
C345 H337 0.930 . S
C345 C343 1.419 . S
C345 C346 1.362 . S
C346 H338 0.930 . S
C346 C345 1.362 . S
C346 C349 1.409 . S
C347 H339 0.930 . S
C347 C348 1.355 . S
C347 C349 1.415 . S
C348 C347 1.355 . S
C348 C350 1.419 . S
C349 C344 1.425 . S
C349 C346 1.409 . S
C349 C347 1.415 . S
C350 H340 0.930 . S
C350 C348 1.419 . S
C350 C351 1.362 . S
C351 H341 0.930 . S
C351 C344 1.409 . S
C351 C350 1.362 . S
H352 C358 0.930 . S
H353 C361 0.930 . S
H354 C362 0.930 . S
H355 C363 0.930 . S
H356 C366 0.930 . S
H357 C367 0.930 . S
C358 H352 0.930 . S
C358 C359 1.355 . S
C358 C360 1.415 . S
C359 C358 1.355 . S
C359 C361 1.419 . S
C360 C358 1.415 . S
C360 C365 1.425 . S
C360 C367 1.409 . S
C361 H353 0.930 . S
C361 C359 1.419 . S
C361 C362 1.362 . S
C362 H354 0.930 . S
C362 C361 1.362 . S
C362 C365 1.409 . S
C363 H355 0.930 . S
C363 C364 1.355 . S
C363 C365 1.415 . S
C364 C363 1.355 . S
C364 C366 1.419 . S
C365 C360 1.425 . S
C365 C362 1.409 . S
C365 C363 1.415 . S
C366 H356 0.930 . S
C366 C364 1.419 . S
C366 C367 1.362 . S
C367 H357 0.930 . S
C367 C360 1.409 . S
C367 C366 1.362 . S
H368 C374 0.930 . S
H369 C377 0.930 . S
H370 C378 0.930 . S
H371 C379 0.930 . S
H372 C382 0.930 . S
H373 C383 0.930 . S
C374 H368 0.930 . S
C374 C375 1.355 . S
C374 C376 1.415 . S
C375 C374 1.355 . S
C375 C377 1.419 . S
C376 C374 1.415 . S
C376 C381 1.425 . S
C376 C383 1.409 . S
C377 H369 0.930 . S
C377 C375 1.419 . S
C377 C378 1.362 . S
C378 H370 0.930 . S
C378 C377 1.362 . S
C378 C381 1.409 . S
C379 H371 0.930 . S
C379 C380 1.355 . S
C379 C381 1.415 . S
C380 C379 1.355 . S
C380 C382 1.419 . S
C381 C376 1.425 . S
C381 C378 1.409 . S
C381 C379 1.415 . S
C382 H372 0.930 . S
C382 C380 1.419 . S
C382 C383 1.362 . S
C383 H373 0.930 . S
C383 C376 1.409 . S
C383 C382 1.362 . S
H384 C390 0.930 . S
H385 C393 0.930 . S
H386 C394 0.930 . S
H387 C395 0.930 . S
H388 C398 0.930 . S
H389 C399 0.930 . S
C390 H384 0.930 . S
C390 C391 1.355 . S
C390 C392 1.415 . S
C391 C390 1.355 . S
C391 C393 1.419 . S
C392 C390 1.415 . S
C392 C397 1.425 . S
C392 C399 1.409 . S
C393 H385 0.930 . S
C393 C391 1.419 . S
C393 C394 1.362 . S
C394 H386 0.930 . S
C394 C393 1.362 . S
C394 C397 1.409 . S
C395 H387 0.930 . S
C395 C396 1.355 . S
C395 C397 1.415 . S
C396 C395 1.355 . S
C396 C398 1.419 . S
C397 C392 1.425 . S
C397 C394 1.409 . S
C397 C395 1.415 . S
C398 H388 0.930 . S
C398 C396 1.419 . S
C398 C399 1.362 . S
C399 H389 0.930 . S
C399 C392 1.409 . S
C399 C398 1.362 . S
H400 C406 0.930 . S
H401 C409 0.930 . S
H402 C410 0.930 . S
H403 C411 0.930 . S
H404 C414 0.930 . S
H405 C415 0.930 . S
C406 H400 0.930 . S
C406 C407 1.355 . S
C406 C408 1.415 . S
C407 C406 1.355 . S
C407 C409 1.419 . S
C408 C406 1.415 . S
C408 C413 1.425 1_556 S
C408 C415 1.409 . S
C409 H401 0.930 . S
C409 C407 1.419 . S
C409 C410 1.362 1_556 S
C410 H402 0.930 . S
C410 C409 1.362 1_554 S
C410 C413 1.409 . S
C411 H403 0.930 . S
C411 C412 1.355 . S
C411 C413 1.415 . S
C412 C411 1.355 . S
C412 C414 1.419 1_554 S
C413 C408 1.425 1_554 S
C413 C410 1.409 . S
C413 C411 1.415 . S
C414 H404 0.930 . S
C414 C412 1.419 1_556 S
C414 C415 1.362 . S
C415 H405 0.930 . S
C415 C408 1.409 . S
C415 C414 1.362 . S
H416 C422 0.930 . S
H417 C425 0.930 . S
H418 C426 0.930 . S
H419 C427 0.930 . S
H420 C430 0.930 . S
H421 C431 0.930 . S
C422 H416 0.930 . S
C422 C423 1.355 . S
C422 C424 1.415 . S
C423 C422 1.355 . S
C423 C425 1.419 . S
C424 C422 1.415 . S
C424 C429 1.425 . S
C424 C431 1.409 . S
C425 H417 0.930 . S
C425 C423 1.419 . S
C425 C426 1.362 . S
C426 H418 0.930 . S
C426 C425 1.362 . S
C426 C429 1.409 . S
C427 H419 0.930 . S
C427 C428 1.355 . S
C427 C429 1.415 1_556 S
C428 C427 1.355 . S
C428 C430 1.419 . S
C429 C424 1.425 . S
C429 C426 1.409 . S
C429 C427 1.415 1_554 S
C430 H420 0.930 . S
C430 C428 1.419 . S
C430 C431 1.362 1_556 S
C431 H421 0.930 . S
C431 C424 1.409 . S
C431 C430 1.362 1_554 S
H432 C438 0.930 . S
H433 C441 0.930 . S
H434 C442 0.930 . S
H435 C443 0.930 . S
H436 C446 0.930 . S
H437 C447 0.930 . S
C438 H432 0.930 . S
C438 C439 1.355 . S
C438 C440 1.415 . S
C439 C438 1.355 . S
C439 C441 1.419 . S
C440 C438 1.415 . S
C440 C445 1.425 1_556 S
C440 C447 1.409 . S
C441 H433 0.930 . S
C441 C439 1.419 . S
C441 C442 1.362 1_556 S
C442 H434 0.930 . S
C442 C441 1.362 1_554 S
C442 C445 1.409 . S
C443 H435 0.930 . S
C443 C444 1.355 . S
C443 C445 1.415 . S
C444 C443 1.355 . S
C444 C446 1.419 1_554 S
C445 C440 1.425 1_554 S
C445 C442 1.409 . S
C445 C443 1.415 . S
C446 H436 0.930 . S
C446 C444 1.419 1_556 S
C446 C447 1.362 . S
C447 H437 0.930 . S
C447 C440 1.409 . S
C447 C446 1.362 . S
H448 C454 0.930 . S
H449 C457 0.930 . S
H450 C458 0.930 . S
H451 C459 0.930 . S
H452 C462 0.930 . S
H453 C463 0.930 . S
C454 H448 0.930 . S
C454 C455 1.355 . S
C454 C456 1.415 . S
C455 C454 1.355 . S
C455 C457 1.419 1_556 S
C456 C454 1.415 . S
C456 C461 1.425 1_556 S
C456 C463 1.409 . S
C457 H449 0.930 . S
C457 C455 1.419 1_554 S
C457 C458 1.362 . S
C458 H450 0.930 . S
C458 C457 1.362 . S
C458 C461 1.409 . S
C459 H451 0.930 . S
C459 C460 1.355 . S
C459 C461 1.415 . S
C460 C459 1.355 . S
C460 C462 1.419 . S
C461 C456 1.425 1_554 S
C461 C458 1.409 . S
C461 C459 1.415 . S
C462 H452 0.930 . S
C462 C460 1.419 . S
C462 C463 1.362 1_554 S
C463 H453 0.930 . S
C463 C456 1.409 . S
C463 C462 1.362 1_556 S
H464 C470 0.930 . S
H465 C473 0.930 . S
H466 C474 0.930 . S
H467 C475 0.930 . S
H468 C478 0.930 1_455 S
H469 C479 0.930 . S
C470 H464 0.930 . S
C470 C471 1.355 . S
C470 C472 1.415 . S
C471 C470 1.355 . S
C471 C473 1.419 . S
C472 C470 1.415 . S
C472 C477 1.425 . S
C472 C479 1.409 . S
C473 H465 0.930 . S
C473 C471 1.419 . S
C473 C474 1.362 . S
C474 H466 0.930 . S
C474 C473 1.362 . S
C474 C477 1.409 . S
C475 H467 0.930 . S
C475 C476 1.355 . S
C475 C477 1.415 . S
C476 C475 1.355 . S
C476 C478 1.419 . S
C477 C472 1.425 . S
C477 C474 1.409 . S
C477 C475 1.415 . S
C478 H468 0.930 1_655 S
C478 C476 1.419 . S
C478 C479 1.362 . S
C479 H469 0.930 . S
C479 C472 1.409 . S
C479 C478 1.362 . S
H480 C486 0.930 . S
H481 C489 0.930 . S
H482 C490 0.930 . S
H483 C491 0.930 1_565 S
H484 C494 0.930 . S
H485 C495 0.930 . S
C486 H480 0.930 . S
C486 C487 1.355 . S
C486 C488 1.415 . S
C487 C486 1.355 . S
C487 C489 1.419 . S
C488 C486 1.415 . S
C488 C493 1.425 . S
C488 C495 1.409 . S
C489 H481 0.930 . S
C489 C487 1.419 . S
C489 C490 1.362 . S
C490 H482 0.930 . S
C490 C489 1.362 . S
C490 C493 1.409 . S
C491 H483 0.930 1_545 S
C491 C492 1.355 . S
C491 C493 1.415 . S
C492 C491 1.355 . S
C492 C494 1.419 . S
C493 C488 1.425 . S
C493 C490 1.409 . S
C493 C491 1.415 . S
C494 H484 0.930 . S
C494 C492 1.419 . S
C494 C495 1.362 . S
C495 H485 0.930 . S
C495 C488 1.409 . S
C495 C494 1.362 . S
H496 C502 0.930 . S
H497 C505 0.930 . S
H498 C506 0.930 . S
H499 C507 0.930 . S
H500 C510 0.930 . S
H501 C511 0.930 . S
C502 H496 0.930 . S
C502 C503 1.355 . S
C502 C504 1.415 . S
C503 C502 1.355 . S
C503 C505 1.419 . S
C504 C502 1.415 . S
C504 C509 1.425 . S
C504 C511 1.409 . S
C505 H497 0.930 . S
C505 C503 1.419 . S
C505 C506 1.362 . S
C506 H498 0.930 . S
C506 C505 1.362 . S
C506 C509 1.409 . S
C507 H499 0.930 . S
C507 C508 1.355 . S
C507 C509 1.415 . S
C508 C507 1.355 . S
C508 C510 1.419 . S
C509 C504 1.425 . S
C509 C506 1.409 . S
C509 C507 1.415 . S
C510 H500 0.930 . S
C510 C508 1.419 . S
C510 C511 1.362 . S
C511 H501 0.930 . S
C511 C504 1.409 . S
C511 C510 1.362 . S
H512 C518 0.930 1_545 S
H513 C521 0.930 . S
H514 C522 0.930 . S
H515 C523 0.930 . S
H516 C526 0.930 . S
H517 C527 0.930 . S
C518 H512 0.930 1_565 S
C518 C519 1.355 . S
C518 C520 1.415 . S
C519 C518 1.355 . S
C519 C521 1.419 . S
C520 C518 1.415 . S
C520 C525 1.425 . S
C520 C527 1.409 . S
C521 H513 0.930 . S
C521 C519 1.419 . S
C521 C522 1.362 . S
C522 H514 0.930 . S
C522 C521 1.362 . S
C522 C525 1.409 . S
C523 H515 0.930 . S
C523 C524 1.355 . S
C523 C525 1.415 . S
C524 C523 1.355 . S
C524 C526 1.419 . S
C525 C520 1.425 . S
C525 C522 1.409 . S
C525 C523 1.415 . S
C526 H516 0.930 . S
C526 C524 1.419 . S
C526 C527 1.362 . S
C527 H517 0.930 . S
C527 C520 1.409 . S
C527 C526 1.362 . S
H528 C534 0.930 . S
H529 C537 0.930 . S
H530 C538 0.930 . S
H531 C539 0.930 . S
H532 C542 0.930 . S
H533 C543 0.930 . S
C534 H528 0.930 . S
C534 C535 1.355 . S
C534 C536 1.415 . S
C535 C534 1.355 . S
C535 C537 1.419 . S
C536 C534 1.415 . S
C536 C541 1.425 . S
C536 C543 1.409 . S
C537 H529 0.930 . S
C537 C535 1.419 . S
C537 C538 1.362 . S
C538 H530 0.930 . S
C538 C537 1.362 . S
C538 C541 1.409 . S
C539 H531 0.930 . S
C539 C540 1.355 . S
C539 C541 1.415 . S
C540 C539 1.355 . S
C540 C542 1.419 . S
C541 C536 1.425 . S
C541 C538 1.409 . S
C541 C539 1.415 . S
C542 H532 0.930 . S
C542 C540 1.419 . S
C542 C543 1.362 . S
C543 H533 0.930 . S
C543 C536 1.409 . S
C543 C542 1.362 . S
H544 C550 0.930 . S
H545 C553 0.930 . S
H546 C554 0.930 . S
H547 C555 0.930 . S
H548 C558 0.930 . S
H549 C559 0.930 . S
C550 H544 0.930 . S
C550 C551 1.355 . S
C550 C552 1.415 . S
C551 C550 1.355 . S
C551 C553 1.419 . S
C552 C550 1.415 . S
C552 C557 1.425 . S
C552 C559 1.409 . S
C553 H545 0.930 . S
C553 C551 1.419 . S
C553 C554 1.362 . S
C554 H546 0.930 . S
C554 C553 1.362 . S
C554 C557 1.409 . S
C555 H547 0.930 . S
C555 C556 1.355 . S
C555 C557 1.415 . S
C556 C555 1.355 . S
C556 C558 1.419 . S
C557 C552 1.425 . S
C557 C554 1.409 . S
C557 C555 1.415 . S
C558 H548 0.930 . S
C558 C556 1.419 . S
C558 C559 1.362 . S
C559 H549 0.930 . S
C559 C552 1.409 . S
C559 C558 1.362 . S
H560 C566 0.930 . S
H561 C569 0.930 . S
H562 C570 0.930 . S
H563 C571 0.930 . S
H564 C574 0.930 . S
H565 C575 0.930 . S
C566 H560 0.930 . S
C566 C567 1.355 . S
C566 C568 1.415 . S
C567 C566 1.355 . S
C567 C569 1.419 . S
C568 C566 1.415 . S
C568 C573 1.425 1_665 S
C568 C575 1.409 1_665 S
C569 H561 0.930 . S
C569 C567 1.419 . S
C569 C570 1.362 . S
C570 H562 0.930 . S
C570 C569 1.362 . S
C570 C573 1.409 1_665 S
C571 H563 0.930 . S
C571 C572 1.355 . S
C571 C573 1.415 . S
C572 C571 1.355 . S
C572 C574 1.419 . S
C573 C568 1.425 1_445 S
C573 C570 1.409 1_445 S
C573 C571 1.415 . S
C574 H564 0.930 . S
C574 C572 1.419 . S
C574 C575 1.362 . S
C575 H565 0.930 . S
C575 C568 1.409 1_445 S
C575 C574 1.362 . S
H576 C582 0.930 . S
H577 C585 0.930 . S
H578 C586 0.930 1_565 S
H579 C587 0.930 . S
H580 C590 0.930 . S
H581 C591 0.930 1_545 S
C582 H576 0.930 . S
C582 C583 1.355 1_455 S
C582 C584 1.415 . S
C583 C582 1.355 1_655 S
C583 C585 1.419 . S
C584 C582 1.415 . S
C584 C589 1.425 1_445 S
C584 C591 1.409 1_545 S
C585 H577 0.930 . S
C585 C583 1.419 . S
C585 C586 1.362 . S
C586 H578 0.930 1_545 S
C586 C585 1.362 . S
C586 C589 1.409 1_545 S
C587 H579 0.930 . S
C587 C588 1.355 1_655 S
C587 C589 1.415 . S
C588 C587 1.355 1_455 S
C588 C590 1.419 . S
C589 C584 1.425 1_665 S
C589 C586 1.409 1_565 S
C589 C587 1.415 . S
C590 H580 0.930 . S
C590 C588 1.419 . S
C590 C591 1.362 . S
C591 H581 0.930 1_565 S
C591 C584 1.409 1_565 S
C591 C590 1.362 . S
H592 C598 0.930 . S
H593 C601 0.930 . S
H594 C602 0.930 . S
H595 C603 0.930 . S
H596 C606 0.930 . S
H597 C607 0.930 . S
C598 H592 0.930 . S
C598 C599 1.355 . S
C598 C600 1.415 . S
C599 C598 1.355 . S
C599 C601 1.419 . S
C600 C598 1.415 . S
C600 C605 1.425 . S
C600 C607 1.409 . S
C601 H593 0.930 . S
C601 C599 1.419 . S
C601 C602 1.362 . S
C602 H594 0.930 . S
C602 C601 1.362 . S
C602 C605 1.409 . S
C603 H595 0.930 . S
C603 C604 1.355 . S
C603 C605 1.415 . S
C604 C603 1.355 . S
C604 C606 1.419 . S
C605 C600 1.425 . S
C605 C602 1.409 . S
C605 C603 1.415 . S
C606 H596 0.930 . S
C606 C604 1.419 . S
C606 C607 1.362 . S
C607 H597 0.930 . S
C607 C600 1.409 . S
C607 C606 1.362 . S
H608 C614 0.930 . S
H609 C617 0.930 . S
H610 C618 0.930 . S
H611 C619 0.930 . S
H612 C622 0.930 . S
H613 C623 0.930 . S
C614 H608 0.930 . S
C614 C615 1.355 . S
C614 C616 1.415 . S
C615 C614 1.355 . S
C615 C617 1.419 . S
C616 C614 1.415 . S
C616 C621 1.425 . S
C616 C623 1.409 . S
C617 H609 0.930 . S
C617 C615 1.419 . S
C617 C618 1.362 . S
C618 H610 0.930 . S
C618 C617 1.362 . S
C618 C621 1.409 . S
C619 H611 0.930 . S
C619 C620 1.355 . S
C619 C621 1.415 . S
C620 C619 1.355 . S
C620 C622 1.419 . S
C621 C616 1.425 . S
C621 C618 1.409 . S
C621 C619 1.415 . S
C622 H612 0.930 . S
C622 C620 1.419 . S
C622 C623 1.362 . S
C623 H613 0.930 . S
C623 C616 1.409 . S
C623 C622 1.362 . S
H624 C630 0.930 . S
H625 C633 0.930 . S
H626 C634 0.930 . S
H627 C635 0.930 . S
H628 C638 0.930 . S
H629 C639 0.930 . S
C630 H624 0.930 . S
C630 C631 1.355 . S
C630 C632 1.415 . S
C631 C630 1.355 . S
C631 C633 1.419 . S
C632 C630 1.415 . S
C632 C637 1.425 . S
C632 C639 1.409 . S
C633 H625 0.930 . S
C633 C631 1.419 . S
C633 C634 1.362 . S
C634 H626 0.930 . S
C634 C633 1.362 . S
C634 C637 1.409 . S
C635 H627 0.930 . S
C635 C636 1.355 . S
C635 C637 1.415 . S
C636 C635 1.355 . S
C636 C638 1.419 . S
C637 C632 1.425 . S
C637 C634 1.409 . S
C637 C635 1.415 . S
C638 H628 0.930 . S
C638 C636 1.419 . S
C638 C639 1.362 . S
C639 H629 0.930 . S
C639 C632 1.409 . S
C639 C638 1.362 . S
H640 C646 0.930 . S
H641 C649 0.930 . S
H642 C650 0.930 . S
H643 C651 0.930 . S
H644 C654 0.930 . S
H645 C655 0.930 . S
C646 H640 0.930 . S
C646 C647 1.355 . S
C646 C648 1.415 . S
C647 C646 1.355 . S
C647 C649 1.419 . S
C648 C646 1.415 . S
C648 C653 1.425 . S
C648 C655 1.409 . S
C649 H641 0.930 . S
C649 C647 1.419 . S
C649 C650 1.362 . S
C650 H642 0.930 . S
C650 C649 1.362 . S
C650 C653 1.409 . S
C651 H643 0.930 . S
C651 C652 1.355 . S
C651 C653 1.415 . S
C652 C651 1.355 . S
C652 C654 1.419 . S
C653 C648 1.425 . S
C653 C650 1.409 . S
C653 C651 1.415 . S
C654 H644 0.930 . S
C654 C652 1.419 . S
C654 C655 1.362 . S
C655 H645 0.930 . S
C655 C648 1.409 . S
C655 C654 1.362 . S
H656 C662 0.930 . S
H657 C665 0.930 . S
H658 C666 0.930 . S
H659 C667 0.930 . S
H660 C670 0.930 . S
H661 C671 0.930 . S
C662 H656 0.930 . S
C662 C663 1.355 . S
C662 C664 1.415 . S
C663 C662 1.355 . S
C663 C665 1.419 . S
C664 C662 1.415 . S
C664 C669 1.425 . S
C664 C671 1.409 . S
C665 H657 0.930 . S
C665 C663 1.419 . S
C665 C666 1.362 . S
C666 H658 0.930 . S
C666 C665 1.362 . S
C666 C669 1.409 . S
C667 H659 0.930 . S
C667 C668 1.355 . S
C667 C669 1.415 . S
C668 C667 1.355 . S
C668 C670 1.419 . S
C669 C664 1.425 . S
C669 C666 1.409 . S
C669 C667 1.415 . S
C670 H660 0.930 . S
C670 C668 1.419 . S
C670 C671 1.362 . S
C671 H661 0.930 . S
C671 C664 1.409 . S
C671 C670 1.362 . S
H672 C678 0.930 . S
H673 C681 0.930 . S
H674 C682 0.930 . S
H675 C683 0.930 . S
H676 C686 0.930 . S
H677 C687 0.930 . S
C678 H672 0.930 . S
C678 C679 1.355 . S
C678 C680 1.415 . S
C679 C678 1.355 . S
C679 C681 1.419 . S
C680 C678 1.415 . S
C680 C685 1.425 . S
C680 C687 1.409 . S
C681 H673 0.930 . S
C681 C679 1.419 . S
C681 C682 1.362 . S
C682 H674 0.930 . S
C682 C681 1.362 . S
C682 C685 1.409 . S
C683 H675 0.930 . S
C683 C684 1.355 . S
C683 C685 1.415 . S
C684 C683 1.355 . S
C684 C686 1.419 . S
C685 C680 1.425 . S
C685 C682 1.409 . S
C685 C683 1.415 . S
C686 H676 0.930 . S
C686 C684 1.419 . S
C686 C687 1.362 . S
C687 H677 0.930 . S
C687 C680 1.409 . S
C687 C686 1.362 . S
H688 C694 0.930 . S
H689 C697 0.930 . S
H690 C698 0.930 . S
H691 C699 0.930 . S
H692 C702 0.930 . S
H693 C703 0.930 . S
C694 H688 0.930 . S
C694 C695 1.355 . S
C694 C696 1.415 . S
C695 C694 1.355 . S
C695 C697 1.419 . S
C696 C694 1.415 . S
C696 C701 1.425 . S
C696 C703 1.409 . S
C697 H689 0.930 . S
C697 C695 1.419 . S
C697 C698 1.362 . S
C698 H690 0.930 . S
C698 C697 1.362 . S
C698 C701 1.409 . S
C699 H691 0.930 . S
C699 C700 1.355 . S
C699 C701 1.415 . S
C700 C699 1.355 . S
C700 C702 1.419 . S
C701 C696 1.425 . S
C701 C698 1.409 . S
C701 C699 1.415 . S
C702 H692 0.930 . S
C702 C700 1.419 . S
C702 C703 1.362 . S
C703 H693 0.930 . S
C703 C696 1.409 . S
C703 C702 1.362 . S
H704 C710 0.930 . S
H705 C713 0.930 . S
H706 C714 0.930 . S
H707 C715 0.930 . S
H708 C718 0.930 . S
H709 C719 0.930 . S
C710 H704 0.930 . S
C710 C711 1.355 . S
C710 C712 1.415 . S
C711 C710 1.355 . S
C711 C713 1.419 . S
C712 C710 1.415 . S
C712 C717 1.425 . S
C712 C719 1.409 . S
C713 H705 0.930 . S
C713 C711 1.419 . S
C713 C714 1.362 . S
C714 H706 0.930 . S
C714 C713 1.362 . S
C714 C717 1.409 . S
C715 H707 0.930 . S
C715 C716 1.355 . S
C715 C717 1.415 . S
C716 C715 1.355 . S
C716 C718 1.419 . S
C717 C712 1.425 . S
C717 C714 1.409 . S
C717 C715 1.415 . S
C718 H708 0.930 . S
C718 C716 1.419 . S
C718 C719 1.362 . S
C719 H709 0.930 . S
C719 C712 1.409 . S
C719 C718 1.362 . S
C279 C15 1.583 1_556 S
C284 C173 1.538 . S
C295 C56 1.560 1_554 S
C300 C205 1.532 . S
C311 C241 1.523 . S
C316 C90 1.592 1_556 S
C327 C137 1.496 . S
C332 C124 1.600 1_554 S
C343 C151 1.579 . S
C348 C105 1.506 . S
C359 C192 1.572 . S
C364 C1 1.554 . S
C375 C219 1.553 . S
C380 C37 1.570 . S
C391 C260 1.577 . S
C396 C71 1.509 . S
C407 C119 1.379 . S
C412 C28 1.326 . S
C423 C17 1.377 . S
C428 C40 1.343 . S
C439 C51 1.380 . S
C444 C74 1.340 . S
C455 C108 1.336 . S
C460 C85 1.381 . S
C471 C164 1.252 . S
C476 C187 1.350 1_655 S
C487 C176 1.243 . S
C492 C221 1.338 1_545 S
C503 C232 1.330 . S
C508 C255 1.365 1_455 S
C519 C153 1.358 1_565 S
C524 C244 1.318 . S
C535 C22 0.851 . S
C540 C83 0.712 . S
C551 C49 0.937 . S
C556 C117 0.901 . S
C567 C158 0.892 . S
C572 C226 0.728 . S
C583 C185 0.878 . S
C588 C253 0.947 . S
C599 C210 1.916 . S
C604 C3 1.877 . S
C615 C35 1.949 . S
C620 C266 1.937 . S
C631 C69 1.887 . S
C636 C142 1.962 . S
C647 C198 1.912 . S
C652 C103 1.879 . S
C663 C139 1.928 . S
C668 C96 1.902 . S
C679 C130 1.916 . S
C684 C171 1.943 . S
C695 C207 1.877 . S
C700 C6 1.915 . S
C711 C62 1.969 . S
C716 C239 1.902 . S
