# Generated by pormake.
# Topology sth, (5)-cn, num edge types: 1
# Building blocks:
#     Node 0, Type 0, BuildingBlock: BEQFEK_clean_sbu_0, # of connection points: 5
#     Node 1, Type 0, BuildingBlock: BEQFEK_clean_sbu_0, # of connection points: 5
#     Node 2, Type 0, BuildingBlock: BEQFEK_clean_sbu_0, # of connection points: 5
#     Node 3, Type 0, BuildingBlock: BEQFEK_clean_sbu_0, # of connection points: 5
#     Node 4, Type 0, BuildingBlock: BEQFEK_clean_sbu_0, # of connection points: 5
#     Node 5, Type 0, BuildingBlock: BEQFEK_clean_sbu_0, # of connection points: 5
#     Node 6, Type 0, BuildingBlock: BEQFEK_clean_sbu_0, # of connection points: 5
#     Node 7, Type 0, BuildingBlock: BEQFEK_clean_sbu_0, # of connection points: 5
#     Node 8, Type 0, BuildingBlock: BEQFEK_clean_sbu_0, # of connection points: 5
#     Node 9, Type 0, BuildingBlock: BEQFEK_clean_sbu_0, # of connection points: 5
#     Node 10, Type 0, BuildingBlock: BEQFEK_clean_sbu_0, # of connection points: 5
#     Node 11, Type 0, BuildingBlock: BEQFEK_clean_sbu_0, # of connection points: 5
#     Node 12, Type 0, BuildingBlock: BEQFEK_clean_sbu_0, # of connection points: 5
#     Node 13, Type 0, BuildingBlock: BEQFEK_clean_sbu_0, # of connection points: 5
#     Node 14, Type 0, BuildingBlock: BEQFEK_clean_sbu_0, # of connection points: 5
#     Node 15, Type 0, BuildingBlock: BEQFEK_clean_sbu_0, # of connection points: 5
#     Node 16, Type 0, BuildingBlock: BEQFEK_clean_sbu_0, # of connection points: 5
#     Node 17, Type 0, BuildingBlock: BEQFEK_clean_sbu_0, # of connection points: 5
#     Edge 18, Type (0, 0), BuildingBlock: XIVTED_clean_linker_0, # of connection points: 2
#     Edge 19, Type (0, 0), BuildingBlock: XIVTED_clean_linker_0, # of connection points: 2
#     Edge 20, Type (0, 0), BuildingBlock: XIVTED_clean_linker_0, # of connection points: 2
#     Edge 21, Type (0, 0), BuildingBlock: XIVTED_clean_linker_0, # of connection points: 2
#     Edge 22, Type (0, 0), BuildingBlock: XIVTED_clean_linker_0, # of connection points: 2
#     Edge 23, Type (0, 0), BuildingBlock: XIVTED_clean_linker_0, # of connection points: 2
#     Edge 24, Type (0, 0), BuildingBlock: XIVTED_clean_linker_0, # of connection points: 2
#     Edge 25, Type (0, 0), BuildingBlock: XIVTED_clean_linker_0, # of connection points: 2
#     Edge 26, Type (0, 0), BuildingBlock: XIVTED_clean_linker_0, # of connection points: 2
#     Edge 27, Type (0, 0), BuildingBlock: XIVTED_clean_linker_0, # of connection points: 2
#     Edge 28, Type (0, 0), BuildingBlock: XIVTED_clean_linker_0, # of connection points: 2
#     Edge 29, Type (0, 0), BuildingBlock: XIVTED_clean_linker_0, # of connection points: 2
#     Edge 30, Type (0, 0), BuildingBlock: XIVTED_clean_linker_0, # of connection points: 2
#     Edge 31, Type (0, 0), BuildingBlock: XIVTED_clean_linker_0, # of connection points: 2
#     Edge 32, Type (0, 0), BuildingBlock: XIVTED_clean_linker_0, # of connection points: 2
#     Edge 33, Type (0, 0), BuildingBlock: XIVTED_clean_linker_0, # of connection points: 2
#     Edge 34, Type (0, 0), BuildingBlock: XIVTED_clean_linker_0, # of connection points: 2
#     Edge 35, Type (0, 0), BuildingBlock: XIVTED_clean_linker_0, # of connection points: 2
#     Edge 36, Type (0, 0), BuildingBlock: XIVTED_clean_linker_0, # of connection points: 2
#     Edge 37, Type (0, 0), BuildingBlock: XIVTED_clean_linker_0, # of connection points: 2
#     Edge 38, Type (0, 0), BuildingBlock: XIVTED_clean_linker_0, # of connection points: 2
#     Edge 39, Type (0, 0), BuildingBlock: XIVTED_clean_linker_0, # of connection points: 2
#     Edge 40, Type (0, 0), BuildingBlock: XIVTED_clean_linker_0, # of connection points: 2
#     Edge 41, Type (0, 0), BuildingBlock: XIVTED_clean_linker_0, # of connection points: 2
#     Edge 42, Type (0, 0), BuildingBlock: XIVTED_clean_linker_0, # of connection points: 2
#     Edge 43, Type (0, 0), BuildingBlock: XIVTED_clean_linker_0, # of connection points: 2
#     Edge 44, Type (0, 0), BuildingBlock: XIVTED_clean_linker_0, # of connection points: 2
#     Edge 45, Type (0, 0), BuildingBlock: XIVTED_clean_linker_0, # of connection points: 2
#     Edge 46, Type (0, 0), BuildingBlock: XIVTED_clean_linker_0, # of connection points: 2
#     Edge 47, Type (0, 0), BuildingBlock: XIVTED_clean_linker_0, # of connection points: 2
#     Edge 48, Type (0, 0), BuildingBlock: XIVTED_clean_linker_0, # of connection points: 2
#     Edge 49, Type (0, 0), BuildingBlock: XIVTED_clean_linker_0, # of connection points: 2
#     Edge 50, Type (0, 0), BuildingBlock: XIVTED_clean_linker_0, # of connection points: 2
#     Edge 51, Type (0, 0), BuildingBlock: XIVTED_clean_linker_0, # of connection points: 2
#     Edge 52, Type (0, 0), BuildingBlock: XIVTED_clean_linker_0, # of connection points: 2
#     Edge 53, Type (0, 0), BuildingBlock: XIVTED_clean_linker_0, # of connection points: 2
#     Edge 54, Type (0, 0), BuildingBlock: XIVTED_clean_linker_0, # of connection points: 2
#     Edge 55, Type (0, 0), BuildingBlock: XIVTED_clean_linker_0, # of connection points: 2
#     Edge 56, Type (0, 0), BuildingBlock: XIVTED_clean_linker_0, # of connection points: 2
#     Edge 57, Type (0, 0), BuildingBlock: XIVTED_clean_linker_0, # of connection points: 2
#     Edge 58, Type (0, 0), BuildingBlock: XIVTED_clean_linker_0, # of connection points: 2
#     Edge 59, Type (0, 0), BuildingBlock: XIVTED_clean_linker_0, # of connection points: 2
#     Edge 60, Type (0, 0), BuildingBlock: XIVTED_clean_linker_0, # of connection points: 2
#     Edge 61, Type (0, 0), BuildingBlock: XIVTED_clean_linker_0, # of connection points: 2
#     Edge 62, Type (0, 0), BuildingBlock: XIVTED_clean_linker_0, # of connection points: 2
# Relax obj value: 0.262
# Max RMSD: 0.160
# Mean RMSD: 0.160
data_MOF--net-sth--node1-BEQFEK_clean_sbu_0--edge1-XIVTED_clean_linker_0
_symmetry_space_group_name_H-M    P1
_symmetry_Int_Tables_number       1
_symmetry_cell_setting            triclinic
loop_
_symmetry_equiv_pos_as_xyz
'x, y, z'
_cell_length_a     44.638584
_cell_length_b     44.665897
_cell_length_c     67.421684
_cell_angle_alpha  90.022835
_cell_angle_beta   90.004678
_cell_angle_gamma 120.04387
loop_
_atom_site_label
_atom_site_type_symbol
_atom_site_fract_x
_atom_site_fract_y
_atom_site_fract_z
_atom_type_partial_charge
Co0 Co 0.06131 0.23919 0.23424 0.0
Co1 Co 0.13603 0.30139 0.22542 0.0
C2 C 0.07492 0.29511 0.20414 0.0
O3 O 0.05511 0.26792 0.21398 0.0
O4 O 0.10765 0.3108 0.20644 0.0
C5 C 0.99765 0.18152 0.22133 0.0
O6 O 1.00709 0.19842 0.20444 0.0
C7 C 0.20269 0.3444 0.20503 0.0
C8 C 0.23763 0.36905 0.23055 0.0
C9 C 0.2372 0.36645 0.21006 0.0
N10 N 0.1839 0.33439 0.22181 0.0
N11 N 0.20489 0.3496 0.23697 0.0
C12 C 0.188 0.3304 0.18498 0.0
H13 H 0.16266 0.3062 0.18638 0.0
H14 H 0.20617 0.32543 0.17626 0.0
H15 H 0.18392 0.34971 0.1769 0.0
C16 C 0.09713 0.19965 0.22703 0.0
N17 N 0.09681 0.22966 0.22707 0.0
N18 N 0.12825 0.25536 0.22346 0.0
C19 C 0.14963 0.24236 0.2211 0.0
C20 C 0.13057 0.20665 0.22327 0.0
C21 C 0.06594 0.16502 0.23088 0.0
H22 H 0.04617 0.15981 0.21939 0.0
H23 H 0.07202 0.14382 0.23042 0.0
H24 H 0.0548 0.16526 0.24555 0.0
O25 O 0.07298 0.26415 0.26009 0.0
O26 O 0.12434 0.30918 0.25249 0.0
H27 H 0.20088 0.24817 0.22115 0.0
H28 H 0.19474 0.27599 0.20435 0.0
C29 C 0.18814 0.26386 0.21923 0.0
H30 H 0.19835 0.28462 0.23055 0.0
H31 H 0.197 0.34583 0.25177 0.0
O32 O 0.01675 0.19465 0.23653 0.0
C33 C 0.09953 0.29296 0.26465 0.0
Co34 Co 0.77969 0.82883 0.23384 0.0
Co35 Co 0.71925 0.84359 0.22425 0.0
C36 C 0.72244 0.78585 0.20448 0.0
O37 O 0.74994 0.79346 0.21405 0.0
O38 O 0.70738 0.80351 0.20652 0.0
C39 C 0.83839 0.82966 0.21871 0.0
O40 O 0.82343 0.83144 0.20231 0.0
C41 C 0.67542 0.86597 0.20352 0.0
C42 C 0.65457 0.8811 0.22893 0.0
C43 C 0.65465 0.87997 0.20839 0.0
N44 N 0.68715 0.8595 0.22044 0.0
N45 N 0.67421 0.86818 0.23554 0.0
C46 C 0.68664 0.86162 0.18334 0.0
H47 H 0.71065 0.86006 0.18435 0.0
H48 H 0.691 0.88342 0.17355 0.0
H49 H 0.66602 0.83722 0.1767 0.0
C50 C 0.82083 0.90464 0.22667 0.0
N51 N 0.79063 0.87438 0.22618 0.0
N52 N 0.76559 0.88044 0.22125 0.0
C53 C 0.77921 0.91474 0.21826 0.0
C54 C 0.81463 0.93115 0.22157 0.0
C55 C 0.85479 0.90823 0.23268 0.0
H56 H 0.86516 0.90019 0.22011 0.0
H57 H 0.87428 0.93525 0.23643 0.0
H58 H 0.85112 0.89131 0.24556 0.0
O59 O 0.75517 0.81681 0.2599 0.0
O60 O 0.71335 0.82808 0.25207 0.0
H61 H 0.73905 0.92484 0.22699 0.0
H62 H 0.7747 0.96061 0.21455 0.0
C63 C 0.7583 0.93204 0.21493 0.0
H64 H 0.74426 0.92309 0.20066 0.0
H65 H 0.67959 0.86622 0.25039 0.0
O66 O 0.82348 0.82727 0.2352 0.0
C67 C 0.72828 0.81841 0.2645 0.0
Co68 Co 0.18922 0.95861 0.23431 0.0
Co69 Co 0.17329 0.88287 0.22443 0.0
C70 C 0.23309 0.94469 0.2059 0.0
O71 O 0.2255 0.96498 0.21504 0.0
O72 O 0.21494 0.91201 0.20798 0.0
C73 C 0.19643 0.02281 0.22199 0.0
O74 O 0.20294 0.01305 0.20492 0.0
C75 C 0.15339 0.81704 0.20305 0.0
C76 C 0.12924 0.7797 0.22757 0.0
C77 C 0.13607 0.78171 0.2074 0.0
N78 N 0.15581 0.83457 0.21982 0.0
N79 N 0.14165 0.81203 0.23441 0.0
C80 C 0.16799 0.8342 0.18356 0.0
H81 H 0.18868 0.86131 0.18572 0.0
H82 H 0.14722 0.83435 0.17461 0.0
H83 H 0.17867 0.82014 0.1753 0.0
C84 C 0.11456 0.92617 0.22432 0.0
N85 N 0.14421 0.92512 0.22533 0.0
N86 N 0.13764 0.89375 0.22073 0.0
C87 C 0.10358 0.87389 0.21671 0.0
C88 C 0.08789 0.89377 0.21883 0.0
C89 C 0.11114 0.95644 0.23068 0.0
H90 H 0.12546 0.96721 0.24474 0.0
H91 H 0.12262 0.97682 0.21915 0.0
H92 H 0.08368 0.94918 0.23283 0.0
O93 O 0.19961 0.94422 0.26024 0.0
O94 O 0.18723 0.89075 0.25253 0.0
H95 H 0.08642 0.82157 0.22492 0.0
H96 H 0.05877 0.82617 0.2071 0.0
C97 C 0.08601 0.83621 0.21175 0.0
H98 H 0.10012 0.83203 0.19954 0.0
H99 H 0.13982 0.81872 0.24901 0.0
O100 O 0.19079 1.00375 0.23716 0.0
C101 C 0.19712 0.9154 0.26495 0.0
Co102 Co 0.24152 0.05672 0.76463 0.0
Co103 Co 0.30163 0.13233 0.77454 0.0
C104 C 0.29862 0.07104 0.79398 0.0
O105 O 0.27117 0.05095 0.78441 0.0
O106 O 0.31338 0.10376 0.792 0.0
C107 C 0.18262 0.99856 0.77927 0.0
O108 O 0.19699 0.01539 0.79575 0.0
C109 C 0.34605 0.19899 0.79538 0.0
C110 C 0.36459 0.23504 0.76995 0.0
C111 C 0.36593 0.23387 0.79043 0.0
N112 N 0.33308 0.18069 0.77856 0.0
N113 N 0.3446 0.20243 0.76345 0.0
C114 C 0.34022 0.18307 0.81557 0.0
H115 H 0.33533 0.15625 0.81455 0.0
H116 H 0.31716 0.18212 0.8224 0.0
H117 H 0.36293 0.19856 0.82528 0.0
C118 C 0.19969 0.09046 0.7728 0.0
N119 N 0.23016 0.0909 0.77261 0.0
N120 N 0.25511 0.12221 0.7773 0.0
C121 C 0.24123 0.14257 0.78056 0.0
C122 C 0.2057 0.12304 0.77794 0.0
C123 C 0.166 0.06078 0.76585 0.0
H124 H 0.17041 0.04715 0.75344 0.0
H125 H 0.15359 0.04241 0.77829 0.0
H126 H 0.14804 0.06966 0.76086 0.0
O127 O 0.26666 0.06992 0.73873 0.0
O128 O 0.30829 0.12297 0.74683 0.0
H129 H 0.27891 0.19424 0.77244 0.0
H130 H 0.24467 0.19142 0.78805 0.0
C131 C 0.26166 0.1804 0.78511 0.0
H132 H 0.2779 0.18452 0.79836 0.0
H133 H 0.33826 0.19507 0.74866 0.0
O134 O 0.19797 0.01118 0.7629 0.0
C135 C 0.29371 0.09844 0.73432 0.0
Co136 Co 0.9617 0.18698 0.76366 0.0
Co137 Co 0.88733 0.17382 0.77433 0.0
C138 C 0.94931 0.23132 0.79306 0.0
O139 O 0.96863 0.22431 0.78249 0.0
O140 O 0.91648 0.21268 0.79251 0.0
C141 C 0.01994 0.18646 0.77838 0.0
O142 O 1.00387 0.18547 0.79491 0.0
C143 C 0.82116 0.15191 0.79556 0.0
C144 C 0.78523 0.13868 0.77025 0.0
C145 C 0.78643 0.13897 0.79078 0.0
N146 N 0.83927 0.15825 0.77858 0.0
N147 N 0.81762 0.15053 0.76355 0.0
C148 C 0.83725 0.15949 0.81576 0.0
H149 H 0.86489 0.17969 0.81499 0.0
H150 H 0.83574 0.13577 0.82194 0.0
H151 H 0.8234 0.16804 0.82591 0.0
C152 C 0.92643 0.11145 0.77163 0.0
N153 N 0.92691 0.1419 0.7719 0.0
N154 N 0.8959 0.13625 0.77666 0.0
C155 C 0.87485 0.10202 0.7798 0.0
C156 C 0.89353 0.08524 0.77675 0.0
C157 C 0.95663 0.1074 0.76587 0.0
H158 H 0.97527 0.11612 0.77835 0.0
H159 H 0.94892 0.08017 0.76264 0.0
H160 H 0.96973 0.12359 0.75271 0.0
O161 O 0.9483 0.19762 0.73775 0.0
O162 O 0.89765 0.19188 0.74669 0.0
H163 H 0.8241 0.05654 0.78341 0.0
H164 H 0.83183 0.09402 0.79754 0.0
C165 C 0.83666 0.08515 0.78319 0.0
H166 H 0.82477 0.0928 0.77125 0.0
H167 H 0.82489 0.15288 0.74867 0.0
O168 O 1.00682 0.18815 0.76196 0.0
C169 C 0.92136 0.19954 0.73382 0.0
Co170 Co 0.83318 0.77708 0.76454 0.0
Co171 Co 0.8461 0.71505 0.77341 0.0
C172 C 0.78904 0.71983 0.79338 0.0
O173 O 0.79683 0.7476 0.78404 0.0
O174 O 0.80654 0.70466 0.79114 0.0
C175 C 0.82854 0.83554 0.77731 0.0
O176 O 0.82271 0.81967 0.79448 0.0
C177 C 0.86742 0.6706 0.79466 0.0
C178 C 0.8807 0.64769 0.76948 0.0
C179 C 0.88019 0.64869 0.79001 0.0
N180 N 0.86138 0.68242 0.77763 0.0
N181 N 0.86909 0.66835 0.76267 0.0
C182 C 0.85985 0.67927 0.81482 0.0
H183 H 0.8391 0.68592 0.81402 0.0
H184 H 0.88337 0.70204 0.82079 0.0
H185 H 0.85203 0.65723 0.82515 0.0
C186 C 0.90809 0.81703 0.77382 0.0
N187 N 0.8779 0.78686 0.77278 0.0
N188 N 0.88372 0.76117 0.77618 0.0
C189 C 0.91798 0.7743 0.77919 0.0
C190 C 0.93441 0.81009 0.77797 0.0
C191 C 0.91219 0.85154 0.76881 0.0
H192 H 0.89812 0.84959 0.75488 0.0
H193 H 0.90086 0.85959 0.78088 0.0
H194 H 0.93979 0.87163 0.76699 0.0
O195 O 0.82169 0.75269 0.73845 0.0
O196 O 0.82858 0.70798 0.74597 0.0
H197 H 0.92837 0.7347 0.76968 0.0
H198 H 0.96345 0.76929 0.78343 0.0
C199 C 0.93492 0.75301 0.78222 0.0
H200 H 0.92499 0.73784 0.79605 0.0
H201 H 0.86692 0.67326 0.74777 0.0
O202 O 0.83294 0.82145 0.76203 0.0
C203 C 0.82029 0.72433 0.73375 0.0
Co204 Co 0.72516 0.57058 0.56757 0.0
Co205 Co 0.79981 0.63096 0.55667 0.0
C206 C 0.73774 0.62717 0.53828 0.0
O207 O 0.71821 0.60104 0.54893 0.0
O208 O 0.77054 0.6409 0.53867 0.0
C209 C 0.65899 0.51467 0.55616 0.0
O210 O 0.66655 0.53219 0.53949 0.0
C211 C 0.86559 0.6731 0.53484 0.0
C212 C 0.90185 0.69854 0.55973 0.0
C213 C 0.90033 0.69558 0.53926 0.0
N214 N 0.84776 0.66296 0.55197 0.0
N215 N 0.8696 0.67849 0.56674 0.0
C216 C 0.84917 0.66254 0.51478 0.0
H217 H 0.82143 0.65479 0.51551 0.0
H218 H 0.85091 0.63998 0.50942 0.0
H219 H 0.86267 0.684 0.504 0.0
C220 C 0.75821 0.52901 0.55827 0.0
N221 N 0.75893 0.55954 0.55864 0.0
N222 N 0.79043 0.58452 0.55441 0.0
C223 C 0.81083 0.57058 0.55136 0.0
C224 C 0.79104 0.53493 0.55366 0.0
C225 C 0.72675 0.49495 0.56281 0.0
H226 H 0.70591 0.49047 0.55223 0.0
H227 H 0.73181 0.47312 0.56154 0.0
H228 H 0.71755 0.49561 0.578 0.0
O229 O 0.73989 0.595 0.59337 0.0
O230 O 0.79063 0.63953 0.58429 0.0
H231 H 0.86143 0.57487 0.55041 0.0
H232 H 0.85555 0.60348 0.53412 0.0
C233 C 0.84931 0.59121 0.54895 0.0
H234 H 0.8605 0.61188 0.56033 0.0
H235 H 0.86254 0.67506 0.58168 0.0
O236 O 0.68012 0.52686 0.57061 0.0
C237 C 0.76707 0.6237 0.59724 0.0
Co238 Co 0.44667 0.16459 0.56623 0.0
Co239 Co 0.38272 0.17477 0.55858 0.0
C240 C 0.3892 0.11818 0.53859 0.0
O241 O 0.41805 0.12729 0.54706 0.0
O242 O 0.37309 0.13465 0.54146 0.0
C243 C 0.50121 0.14513 0.56767 0.0
O244 O 0.4767 0.11262 0.56613 0.0
C245 C 0.33755 0.19462 0.53751 0.0
C246 C 0.31077 0.20313 0.56258 0.0
C247 C 0.31388 0.20519 0.5421 0.0
N248 N 0.34797 0.18698 0.55452 0.0
N249 N 0.33152 0.19168 0.56941 0.0
C250 C 0.35262 0.19469 0.51768 0.0
H251 H 0.37739 0.19478 0.51946 0.0
H252 H 0.35689 0.21751 0.50889 0.0
H253 H 0.33426 0.17096 0.50947 0.0
C254 C 0.48341 0.23923 0.55628 0.0
N255 N 0.45393 0.2085 0.55754 0.0
N256 N 0.42748 0.21331 0.55468 0.0
C257 C 0.43937 0.24744 0.55204 0.0
C258 C 0.47527 0.26497 0.55295 0.0
C259 C 0.51879 0.24389 0.55856 0.0
H260 H 0.52227 0.23792 0.57408 0.0
H261 H 0.5213 0.22561 0.54852 0.0
H262 H 0.53935 0.27056 0.55483 0.0
O263 O 0.4232 0.15249 0.59279 0.0
O264 O 0.37908 0.16097 0.5864 0.0
H265 H 0.39661 0.25161 0.56316 0.0
H266 H 0.432 0.2918 0.55411 0.0
C267 C 0.41687 0.26347 0.55159 0.0
H268 H 0.40406 0.25863 0.53692 0.0
H269 H 0.33526 0.18808 0.5843 0.0
O270 O 0.49314 0.16869 0.56838 0.0
C271 C 0.39598 0.15281 0.59825 0.0
Co272 Co 0.85487 0.28893 0.56777 0.0
Co273 Co 0.84298 0.21476 0.55791 0.0
C274 C 0.89817 0.27624 0.53746 0.0
O275 O 0.89032 0.29558 0.54747 0.0
O276 O 0.88116 0.24343 0.53932 0.0
C277 C 0.85529 0.34947 0.55415 0.0
O278 O 0.85862 0.33765 0.53694 0.0
C279 C 0.82228 0.14739 0.53849 0.0
C280 C 0.80419 0.11282 0.56458 0.0
C281 C 0.80706 0.11279 0.54412 0.0
N282 N 0.82761 0.16662 0.5549 0.0
N283 N 0.81723 0.14579 0.57043 0.0
C284 C 0.82846 0.16179 0.51791 0.0
H285 H 0.83101 0.18782 0.51792 0.0
H286 H 0.80699 0.14425 0.50793 0.0
H287 H 0.85288 0.16424 0.51216 0.0
C288 C 0.77912 0.25192 0.56183 0.0
N289 N 0.80985 0.25313 0.5608 0.0
N290 N 0.80477 0.22249 0.55572 0.0
C291 C 0.77054 0.20098 0.55283 0.0
C292 C 0.75306 0.21885 0.5567 0.0
C293 C 0.7746 0.28044 0.57028 0.0
H294 H 0.79349 0.29366 0.58241 0.0
H295 H 0.77937 0.29961 0.55846 0.0
H296 H 0.74816 0.27057 0.57626 0.0
O297 O 0.86811 0.2774 0.59352 0.0
O298 O 0.86204 0.22646 0.58519 0.0
H299 H 0.75611 0.14852 0.55905 0.0
H300 H 0.72761 0.15306 0.54178 0.0
C301 C 0.75489 0.16401 0.54655 0.0
H302 H 0.76978 0.16219 0.53397 0.0
H303 H 0.81793 0.154 0.585 0.0
O304 O 0.8542 0.33315 0.56985 0.0
C305 C 0.87035 0.25076 0.59771 0.0
Co306 Co 0.9047 0.39107 0.09789 0.0
Co307 Co 0.96628 0.46614 0.10713 0.0
C308 C 0.96289 0.40424 0.12607 0.0
O309 O 0.93494 0.38425 0.11686 0.0
O310 O 0.97776 0.43695 0.1241 0.0
C311 C 0.84735 0.32727 0.11062 0.0
O312 O 0.86393 0.33691 0.12762 0.0
C313 C 0.01274 0.53204 0.12817 0.0
C314 C 0.02723 0.5691 0.10339 0.0
C315 C 0.0312 0.56729 0.12368 0.0
N316 N 0.99806 0.51436 0.11138 0.0
N317 N 0.00726 0.5367 0.09663 0.0
C318 C 0.00933 0.51511 0.14784 0.0
H319 H 1.00359 0.48818 0.14591 0.0
H320 H 0.98761 0.51445 0.15621 0.0
H321 H 0.03352 0.52959 0.15658 0.0
C322 C 0.86414 0.4249 0.10808 0.0
N323 N 0.89448 0.42528 0.10681 0.0
N324 N 0.91998 0.45666 0.11075 0.0
C325 C 0.90654 0.47724 0.11461 0.0
C326 C 0.87078 0.45777 0.11309 0.0
C327 C 0.82986 0.39468 0.1024 0.0
H328 H 0.8324 0.38337 0.08829 0.0
H329 H 0.82141 0.37463 0.11411 0.0
H330 H 0.80977 0.40217 0.10061 0.0
O331 O 0.92831 0.40477 0.07169 0.0
O332 O 0.9727 0.45657 0.07931 0.0
H333 H 0.94306 0.52883 0.10575 0.0
H334 H 0.91085 0.52607 0.12304 0.0
C335 C 0.92749 0.5151 0.11898 0.0
H336 H 0.94537 0.51937 0.13143 0.0
H337 H 0.99915 0.52986 0.08198 0.0
O338 O 0.86064 0.3463 0.09543 0.0
C339 C 0.95628 0.43213 0.06694 0.0
Co340 Co 0.62614 0.5205 0.09849 0.0
Co341 Co 0.55029 0.505 0.1075 0.0
C342 C 0.61131 0.5634 0.12734 0.0
O343 O 0.63164 0.55589 0.11821 0.0
O344 O 0.57867 0.54556 0.12491 0.0
C345 C 0.68458 0.52055 0.11356 0.0
O346 O 0.66807 0.51901 0.13 0.0
C347 C 0.48401 0.48209 0.12865 0.0
C348 C 0.44789 0.46839 0.1034 0.0
C349 C 0.44921 0.46876 0.12394 0.0
N350 N 0.50206 0.48859 0.11166 0.0
N351 N 0.4803 0.48058 0.09666 0.0
C352 C 0.50023 0.48984 0.14882 0.0
H353 H 0.52783 0.51017 0.14797 0.0
H354 H 0.49894 0.46622 0.155 0.0
H355 H 0.48631 0.49827 0.15899 0.0
C356 C 0.59168 0.4447 0.10562 0.0
N357 N 0.59154 0.47484 0.10607 0.0
N358 N 0.56018 0.46847 0.1106 0.0
C359 C 0.53949 0.43408 0.1133 0.0
C360 C 0.5588 0.41794 0.11029 0.0
C361 C 0.62239 0.44145 0.09999 0.0
H362 H 0.63559 0.45804 0.08698 0.0
H363 H 0.64076 0.45016 0.11261 0.0
H364 H 0.61523 0.41441 0.09659 0.0
O365 O 0.61356 0.53255 0.07246 0.0
O366 O 0.55996 0.52055 0.07967 0.0
H367 H 0.48966 0.4241 0.10366 0.0
H368 H 0.48895 0.38792 0.11592 0.0
C369 C 0.50107 0.41649 0.11589 0.0
H370 H 0.49507 0.42479 0.1301 0.0
H371 H 0.48752 0.483 0.08176 0.0
O372 O 0.67167 0.52238 0.09708 0.0
C373 C 0.58507 0.53071 0.06753 0.0
Co374 Co 0.49616 0.10964 0.09696 0.0
Co375 Co 0.50882 0.04749 0.10596 0.0
C376 C 0.45286 0.05342 0.12645 0.0
O377 O 0.46063 0.08095 0.11689 0.0
O378 O 0.46986 0.03776 0.12411 0.0
C379 C 0.48989 0.16719 0.10953 0.0
O380 O 0.48194 0.15012 0.12636 0.0
C381 C 0.53219 0.00527 0.12763 0.0
C382 C 0.54234 0.97918 0.10285 0.0
C383 C 0.54445 0.9828 0.1233 0.0
N384 N 0.52399 0.01487 0.11049 0.0
N385 N 0.52982 0.9989 0.09577 0.0
C386 C 0.52701 0.01653 0.14764 0.0
H387 H 0.50654 0.02361 0.14705 0.0
H388 H 0.55131 0.03969 0.15248 0.0
H389 H 0.51995 0.99568 0.15873 0.0
C390 C 0.57127 0.14937 0.10503 0.0
N391 N 0.54099 0.11927 0.10471 0.0
N392 N 0.54679 0.09363 0.1083 0.0
C393 C 0.58117 0.10675 0.11083 0.0
C394 C 0.59774 0.14248 0.10891 0.0
C395 C 0.57474 0.18399 0.10119 0.0
H396 H 0.56377 0.18389 0.08641 0.0
H397 H 0.55982 0.18897 0.11254 0.0
H398 H 0.60201 0.20525 0.1019 0.0
O399 O 0.48367 0.08451 0.07113 0.0
O400 O 0.49063 0.03981 0.07857 0.0
H401 H 0.58781 0.06487 0.10092 0.0
H402 H 0.62679 0.10128 0.11044 0.0
C403 C 0.59835 0.0854 0.11238 0.0
H404 H 0.59297 0.07298 0.12717 0.0
H405 H 0.52585 1.00197 0.08084 0.0
O406 O 0.49622 0.15418 0.09441 0.0
C407 C 0.48206 0.05605 0.06642 0.0
Co408 Co 0.39986 0.90316 0.89853 0.0
Co409 Co 0.47334 0.96861 0.89129 0.0
C410 C 0.41068 0.95954 0.86983 0.0
O411 O 0.39132 0.93108 0.87877 0.0
O412 O 0.44329 0.97641 0.87274 0.0
C413 C 0.32623 0.84818 0.89899 0.0
O414 O 0.31826 0.87261 0.89692 0.0
C415 C 0.53952 0.0138 0.87113 0.0
C416 C 0.5735 0.04101 0.89662 0.0
C417 C 0.57361 0.0374 0.8762 0.0
N418 N 0.52047 1.00385 0.88781 0.0
N419 N 0.54084 0.02061 0.90294 0.0
C420 C 0.52568 0.99823 0.85121 0.0
H421 H 0.50084 0.97354 0.85279 0.0
H422 H 0.54471 0.99372 0.8431 0.0
H423 H 0.52086 0.01639 0.84241 0.0
C424 C 0.43945 0.868 0.89 0.0
N425 N 0.43747 0.89706 0.89094 0.0
N426 N 0.4686 0.92402 0.88856 0.0
C427 C 0.49151 0.91279 0.88649 0.0
C428 C 0.4737 0.87689 0.88734 0.0
C429 C 0.409 0.83231 0.89182 0.0
H430 H 0.39858 0.82842 0.90713 0.0
H431 H 0.38861 0.8295 0.88134 0.0
H432 H 0.41582 0.81218 0.88836 0.0
O433 O 0.40975 0.92685 0.92488 0.0
O434 O 0.46033 0.9739 0.91842 0.0
H435 H 0.53779 0.95655 0.89752 0.0
H436 H 0.54352 0.92123 0.88943 0.0
C437 C 0.52999 0.93585 0.88629 0.0
H438 H 0.53817 0.94798 0.87147 0.0
H439 H 0.53269 0.01717 0.91769 0.0
O440 O 0.35784 0.85635 0.90036 0.0
C441 C 0.43525 0.95597 0.93013 0.0
Co442 Co 0.11355 0.49484 0.90177 0.0
Co443 Co 0.05231 0.50735 0.89065 0.0
C444 C 0.05709 0.45063 0.87179 0.0
O445 O 0.08319 0.45772 0.88267 0.0
O446 O 0.04272 0.4691 0.87207 0.0
C447 C 0.17267 0.49353 0.88781 0.0
O448 O 0.15702 0.49041 0.8708 0.0
C449 C 1.00615 0.52813 0.87074 0.0
C450 C 0.98997 0.54717 0.89654 0.0
C451 C 0.98698 0.5437 0.8761 0.0
N452 N 0.02 0.52316 0.88728 0.0
N453 N 0.00976 0.53412 0.90263 0.0
C454 C 0.01419 0.52122 0.85027 0.0
H455 H 0.03757 0.51849 0.85041 0.0
H456 H 0.01824 0.54241 0.84006 0.0
H457 H 0.99206 0.49672 0.84471 0.0
C458 C 0.1534 0.57025 0.89475 0.0
N459 N 0.1236 0.53972 0.89385 0.0
N460 N 0.09841 0.54507 0.88835 0.0
C461 C 0.11164 0.57923 0.885 0.0
C462 C 0.14696 0.59643 0.88905 0.0
C463 C 0.18609 0.57461 0.90368 0.0
H464 H 0.17991 0.55578 0.91588 0.0
H465 H 0.20084 0.56973 0.89213 0.0
H466 H 0.20258 0.60106 0.90968 0.0
O467 O 0.08963 0.48388 0.92756 0.0
O468 O 0.0445 0.48886 0.91828 0.0
H469 H 0.07417 0.59472 0.8905 0.0
H470 H 0.1075 0.62205 0.87302 0.0
C471 C 0.09079 0.59507 0.87817 0.0
H472 H 0.07396 0.57977 0.86572 0.0
H473 H 0.01727 0.53376 0.91725 0.0
O474 O 0.158 0.49472 0.90373 0.0
C475 C 0.06054 0.48151 0.9313 0.0
Co476 Co 0.52534 0.62464 0.90085 0.0
Co477 Co 0.50905 0.54897 0.89095 0.0
C478 C 0.56747 0.60996 0.87129 0.0
O479 O 0.56045 0.63012 0.88102 0.0
O480 O 0.54934 0.57721 0.87322 0.0
C481 C 0.53594 0.69092 0.8892 0.0
O482 O 0.54478 0.68281 0.87232 0.0
C483 C 0.48448 0.48211 0.8702 0.0
C484 C 0.47073 0.44674 0.89581 0.0
C485 C 0.47049 0.4474 0.87527 0.0
N486 N 0.49225 0.50077 0.88702 0.0
N487 N 0.48433 0.47947 0.90223 0.0
C488 C 0.48781 0.49725 0.84999 0.0
H489 H 0.49001 0.52309 0.85105 0.0
H490 H 0.46523 0.47983 0.84065 0.0
H491 H 0.51159 0.50041 0.84281 0.0
C492 C 0.45029 0.59219 0.89244 0.0
N493 N 0.47985 0.59098 0.89265 0.0
N494 N 0.47282 0.55942 0.88815 0.0
C495 C 0.43841 0.53951 0.88505 0.0
C496 C 0.42303 0.55965 0.88764 0.0
C497 C 0.44823 0.62383 0.89728 0.0
H498 H 0.45908 0.63323 0.9123 0.0
H499 H 0.46408 0.64446 0.88648 0.0
H500 H 0.42134 0.61896 0.8966 0.0
O501 O 0.53678 0.611 0.92671 0.0
O502 O 0.5248 0.55784 0.91872 0.0
H503 H 0.42816 0.48928 0.89403 0.0
H504 H 0.39155 0.48943 0.8829 0.0
C505 C 0.42007 0.5011 0.88229 0.0
H506 H 0.42725 0.49508 0.86771 0.0
H507 H 0.48735 0.48718 0.91705 0.0
O508 O 0.52746 0.67007 0.90374 0.0
C509 C 0.53483 0.58236 0.93122 0.0
Co510 Co 0.57198 0.72535 0.43062 0.0
Co511 Co 0.63398 0.79997 0.44094 0.0
C512 C 0.62828 0.73637 0.45935 0.0
O513 O 0.60108 0.71684 0.44941 0.0
O514 O 0.64321 0.76923 0.45822 0.0
C515 C 0.51954 0.65082 0.43004 0.0
O516 O 0.54477 0.64457 0.43382 0.0
C517 C 0.67761 0.86509 0.46312 0.0
C518 C 0.70433 0.90131 0.43842 0.0
C519 C 0.7011 0.89965 0.45888 0.0
N520 N 0.66722 0.84753 0.4459 0.0
N521 N 0.6835 0.86934 0.43124 0.0
C522 C 0.66624 0.84848 0.48307 0.0
H523 H 0.65733 0.82048 0.48216 0.0
H524 H 0.64425 0.85128 0.48836 0.0
H525 H 0.68768 0.86107 0.49396 0.0
C526 C 0.53267 0.76062 0.44058 0.0
N527 N 0.56277 0.7605 0.43983 0.0
N528 N 0.58832 0.79184 0.44378 0.0
C529 C 0.57523 0.813 0.44674 0.0
C530 C 0.53948 0.79382 0.44483 0.0
C531 C 0.49801 0.72949 0.43694 0.0
H532 H 0.49655 0.72096 0.42133 0.0
H533 H 0.49494 0.70834 0.44686 0.0
H534 H 0.47658 0.73468 0.43989 0.0
O535 O 0.59691 0.73916 0.40472 0.0
O536 O 0.64033 0.79121 0.41299 0.0
H537 H 0.6171 0.86166 0.43692 0.0
H538 H 0.58086 0.86415 0.4468 0.0
C539 C 0.5967 0.85152 0.44847 0.0
H540 H 0.60939 0.85832 0.4632 0.0
H541 H 0.68006 0.86249 0.41627 0.0
O542 O 0.52642 0.68189 0.42764 0.0
C543 C 0.62462 0.76708 0.40035 0.0
Co544 Co 0.29218 0.85414 0.43091 0.0
Co545 Co 0.21699 0.83943 0.4408 0.0
C546 C 0.27814 0.89632 0.46097 0.0
O547 O 0.29798 0.88899 0.45113 0.0
O548 O 0.24536 0.87881 0.45894 0.0
C549 C 0.35428 0.85805 0.44449 0.0
O550 O 0.3427 0.86231 0.46155 0.0
C551 C 0.15003 0.81754 0.46088 0.0
C552 C 0.11461 0.79941 0.43513 0.0
C553 C 0.11525 0.80223 0.45561 0.0
N554 N 0.16875 0.82305 0.44425 0.0
N555 N 0.14744 0.81259 0.42893 0.0
C556 C 0.16513 0.82372 0.4813 0.0
H557 H 0.1911 0.82609 0.48093 0.0
H558 H 0.14783 0.80236 0.49139 0.0
H559 H 0.16796 0.84823 0.48715 0.0
C560 C 0.25734 0.77846 0.43738 0.0
N561 N 0.25746 0.80867 0.43829 0.0
N562 N 0.22636 0.80252 0.44323 0.0
C563 C 0.20552 0.76814 0.44577 0.0
C564 C 0.22443 0.75173 0.4421 0.0
C565 C 0.28684 0.775 0.4295 0.0
H566 H 0.29889 0.79269 0.41673 0.0
H567 H 0.30665 0.78236 0.44129 0.0
H568 H 0.27831 0.74817 0.42465 0.0
O569 O 0.27976 0.86695 0.40513 0.0
O570 O 0.22692 0.8561 0.41319 0.0
H571 H 0.15349 0.75358 0.43813 0.0
H572 H 0.15699 0.72342 0.4545 0.0
C573 C 0.1679 0.75116 0.45085 0.0
H574 H 0.16442 0.76429 0.46382 0.0
H575 H 0.1552 0.81343 0.41425 0.0
O576 O 0.33713 0.85499 0.42879 0.0
C577 C 0.25147 0.86592 0.40072 0.0
Co578 Co 0.16685 0.44406 0.4323 0.0
Co579 Co 0.17694 0.38042 0.44091 0.0
C580 C 0.122 0.38732 0.46153 0.0
O581 O 0.13061 0.41531 0.45221 0.0
O582 O 0.13851 0.37119 0.45912 0.0
C583 C 0.15198 0.50121 0.42463 0.0
O584 O 0.12529 0.48031 0.41365 0.0
C585 C 0.19422 0.33211 0.46096 0.0
C586 C 0.2145 0.31571 0.43586 0.0
C587 C 0.20961 0.31259 0.4562 0.0
N588 N 0.1911 0.34679 0.44424 0.0
N589 N 0.20279 0.33642 0.42927 0.0
C590 C 0.1821 0.33644 0.48091 0.0
H591 H 0.15762 0.33684 0.47942 0.0
H592 H 0.20172 0.36146 0.48745 0.0
H593 H 0.17778 0.31511 0.49106 0.0
C594 C 0.24244 0.48084 0.43803 0.0
N595 N 0.2114 0.45167 0.43897 0.0
N596 N 0.21585 0.42565 0.44378 0.0
C597 C 0.25 0.43775 0.44669 0.0
C598 C 0.26807 0.47322 0.4431 0.0
C599 C 0.24768 0.51414 0.42955 0.0
H600 H 0.22859 0.50883 0.4176 0.0
H601 H 0.24388 0.52908 0.44144 0.0
H602 H 0.27403 0.53003 0.4233 0.0
O603 O 0.15311 0.42055 0.40611 0.0
O604 O 0.15864 0.3749 0.41349 0.0
H605 H 0.2645 0.40005 0.43972 0.0
H606 H 0.29202 0.43158 0.45797 0.0
C607 C 0.26502 0.41572 0.45261 0.0
H608 H 0.24929 0.39797 0.46465 0.0
H609 H 0.20376 0.34437 0.41462 0.0
O610 O 0.1704 0.49019 0.43262 0.0
C611 C 0.15057 0.39168 0.40138 0.0
H612 H 0.38953 0.46969 0.11718 0.0
H613 H 0.30058 0.37589 0.21922 0.0
H614 H 0.43799 0.43589 0.16013 0.0
H615 H 0.24526 0.39289 0.17218 0.0
H616 H 0.35256 0.40181 0.19869 0.0
H617 H 0.33761 0.4452 0.13791 0.0
C618 C 0.38944 0.45748 0.13107 0.0
C619 C 0.41861 0.45571 0.13713 0.0
C620 C 0.32903 0.39971 0.19278 0.0
C621 C 0.35915 0.42737 0.16087 0.0
C622 C 0.29935 0.385 0.20452 0.0
C623 C 0.26836 0.3817 0.19729 0.0
C624 C 0.32794 0.41167 0.1737 0.0
C625 C 0.26829 0.39403 0.17816 0.0
C626 C 0.35976 0.44346 0.14288 0.0
C627 C 0.41685 0.43923 0.15517 0.0
N628 N 0.29766 0.40854 0.16703 0.0
N629 N 0.38767 0.42577 0.16639 0.0
H630 H 0.62367 0.85626 0.17186 0.0
H631 H 0.58214 0.00956 0.15768 0.0
H632 H 0.64717 0.93567 0.21552 0.0
H633 H 0.54249 0.92123 0.11865 0.0
H634 H 0.6078 0.98376 0.17839 0.0
H635 H 0.59637 0.88097 0.15119 0.0
C636 C 0.62356 0.87915 0.17698 0.0
C637 C 0.63826 0.89428 0.19529 0.0
C638 C 0.59314 0.96978 0.16542 0.0
C639 C 0.60642 0.92223 0.17195 0.0
C640 C 0.57797 0.98433 0.1537 0.0
C641 C 0.5591 0.96706 0.13669 0.0
C642 C 0.58994 0.93795 0.15997 0.0
C643 C 0.55651 0.93528 0.13175 0.0
C644 C 0.60761 0.89302 0.16527 0.0
C645 C 0.63622 0.92322 0.20148 0.0
N646 N 0.57173 0.92174 0.14332 0.0
N647 N 0.62077 0.93632 0.18981 0.0
H648 H 0.02108 0.57393 0.16387 0.0
H649 H 0.12258 0.77542 0.16673 0.0
H650 H 0.0817 0.6321 0.11329 0.0
H651 H 0.12038 0.71673 0.21821 0.0
H652 H 0.1013 0.72351 0.14664 0.0
H653 H 0.05061 0.62588 0.18401 0.0
C654 C 0.04126 0.59708 0.15702 0.0
C655 C 0.04965 0.59798 0.13685 0.0
C656 C 0.10607 0.72228 0.16229 0.0
C657 C 0.08193 0.65835 0.15978 0.0
C658 C 0.1188 0.75217 0.17383 0.0
C659 C 0.1246 0.7511 0.19425 0.0
C660 C 0.09789 0.69083 0.17131 0.0
C661 C 0.11662 0.71904 0.20254 0.0
C662 C 0.05777 0.627 0.16856 0.0
C663 C 0.07452 0.62994 0.12877 0.0
N664 N 0.10338 0.69014 0.1911 0.0
N665 N 0.08955 0.6589 0.1402 0.0
H666 H 0.41594 0.38419 0.88392 0.0
H667 H 0.42491 0.29476 0.7829 0.0
H668 H 0.49099 0.43897 0.83795 0.0
H669 H 0.34497 0.24414 0.827 0.0
H670 H 0.45112 0.34719 0.80326 0.0
H671 H 0.3914 0.33192 0.86376 0.0
C672 C 0.42719 0.38528 0.86951 0.0
C673 C 0.45524 0.41622 0.86249 0.0
C674 C 0.42805 0.32447 0.80857 0.0
C675 C 0.42732 0.3562 0.8393 0.0
C676 C 0.41311 0.29452 0.79699 0.0
C677 C 0.38317 0.26466 0.80347 0.0
C678 C 0.41277 0.32468 0.82673 0.0
C679 C 0.36874 0.26594 0.82171 0.0
C680 C 0.4131 0.35539 0.85799 0.0
C681 C 0.46879 0.41604 0.84374 0.0
N682 N 0.38367 0.29543 0.83268 0.0
N683 N 0.45472 0.38645 0.83279 0.0
H684 H 0.72692 0.1401 0.78374 0.0
H685 H 0.63752 0.04918 0.88623 0.0
H686 H 0.77479 0.10635 0.82712 0.0
H687 H 0.58156 0.06184 0.83787 0.0
H688 H 0.68974 0.07503 0.86587 0.0
H689 H 0.67486 0.11595 0.80434 0.0
C690 C 0.72668 0.12799 0.7977 0.0
C691 C 0.75575 0.12615 0.80391 0.0
C692 C 0.66602 0.07201 0.85965 0.0
C693 C 0.69612 0.09822 0.8275 0.0
C694 C 0.63621 0.05736 0.87129 0.0
C695 C 0.60499 0.05286 0.86362 0.0
C696 C 0.66481 0.08272 0.84025 0.0
C697 C 0.60481 0.06399 0.84419 0.0
C698 C 0.69692 0.11416 0.80942 0.0
C699 C 0.75378 0.10979 0.82203 0.0
N700 N 0.63431 0.07849 0.83317 0.0
N701 N 0.72453 0.09655 0.83318 0.0
H702 H 0.98278 0.60127 0.88319 0.0
H703 H 0.87699 0.58675 0.7843 0.0
H704 H 0.95215 0.51891 0.84055 0.0
H705 H 0.91527 0.67222 0.82534 0.0
H706 H 0.90194 0.55992 0.80519 0.0
H707 H 0.9553 0.62576 0.86284 0.0
C708 C 0.97031 0.58833 0.86949 0.0
C709 C 0.97031 0.55828 0.86341 0.0
C710 C 0.90453 0.58436 0.80972 0.0
C711 C 0.93857 0.58623 0.83998 0.0
C712 C 0.89027 0.59967 0.79783 0.0
C713 C 0.89324 0.63137 0.80332 0.0
C714 C 0.92217 0.60104 0.82717 0.0
C715 C 0.91107 0.64718 0.82086 0.0
C716 C 0.95467 0.60241 0.85784 0.0
C717 C 0.95368 0.54263 0.84555 0.0
N718 N 0.92484 0.63186 0.83213 0.0
N719 N 0.93847 0.55681 0.83444 0.0
H720 H 0.75679 0.65523 0.81038 0.0
H721 H 0.60531 0.67702 0.85888 0.0
H722 H 0.74884 0.74729 0.8046 0.0
H723 H 0.60142 0.57864 0.855 0.0
H724 H 0.65943 0.7037 0.84039 0.0
H725 H 0.7021 0.62765 0.8287 0.0
C726 C 0.74374 0.66977 0.81308 0.0
C727 C 0.75748 0.70367 0.80588 0.0
C728 C 0.64671 0.67624 0.84348 0.0
C729 C 0.69476 0.67211 0.82675 0.0
C730 C 0.61572 0.66093 0.85404 0.0
C731 C 0.59873 0.62548 0.85855 0.0
C732 C 0.66119 0.65613 0.83747 0.0
C733 C 0.61353 0.60602 0.85181 0.0
C734 C 0.71239 0.65389 0.82343 0.0
C735 C 0.73927 0.72112 0.80979 0.0
N736 N 0.64405 0.62165 0.84172 0.0
N737 N 0.70892 0.70516 0.81994 0.0
H738 H 0.34314 0.92936 0.85758 0.0
H739 H 0.36326 0.1034 0.81104 0.0
H740 H 0.44086 0.02486 0.85392 0.0
H741 H 0.2712 1.00329 0.80494 0.0
H742 H 0.39103 0.07609 0.82893 0.0
H743 H 0.31564 0.95676 0.83974 0.0
C744 C 0.35892 0.95601 0.85289 0.0
C745 C 0.39443 0.97479 0.85728 0.0
C746 C 0.36473 0.06015 0.8237 0.0
C747 C 0.36287 0.00651 0.83704 0.0
C748 C 0.34876 0.07575 0.8136 0.0
C749 C 0.31484 0.05563 0.8064 0.0
C750 C 0.34659 0.0242 0.82676 0.0
C751 C 0.29741 0.01987 0.81012 0.0
C752 C 0.34314 0.97167 0.84274 0.0
C753 C 0.41345 0.00929 0.85082 0.0
N754 N 0.31348 0.00534 0.82001 0.0
N755 N 0.3974 0.02409 0.84114 0.0
H756 H 0.04761 0.38818 0.88312 0.0
H757 H 1.0029 0.29382 0.78217 0.0
H758 H 0.03062 0.43986 0.83406 0.0
H759 H 0.93192 0.24208 0.83034 0.0
H760 H 0.02835 0.34813 0.80113 0.0
H761 H 0.01972 0.33392 0.86411 0.0
C762 C 0.03828 0.38812 0.86827 0.0
C763 C 0.04144 0.41843 0.86005 0.0
C764 C 1.00725 0.32479 0.80747 0.0
C765 C 0.0104 0.357 0.83833 0.0
C766 C 0.99293 0.29387 0.79682 0.0
C767 C 0.9654 0.26353 0.8048 0.0
C768 C 0.99469 0.32501 0.82647 0.0
C769 C 0.95312 0.26499 0.82372 0.0
C770 C 0.02224 0.35723 0.85758 0.0
C771 C 0.02861 0.41697 0.84086 0.0
N772 N 0.96824 0.29522 0.8341 0.0
N773 N 0.01405 0.38676 0.83047 0.0
H774 H 0.75184 0.74805 0.1923 0.0
H775 H 0.57858 0.59584 0.14374 0.0
H776 H 0.65702 0.75139 0.18832 0.0
H777 H 0.67865 0.60343 0.13914 0.0
H778 H 0.6055 0.6507 0.16196 0.0
H779 H 0.72437 0.6936 0.17411 0.0
C780 C 0.72527 0.73745 0.1875 0.0
C781 C 0.70672 0.75438 0.1919 0.0
C782 C 0.62149 0.64028 0.15697 0.0
C783 C 0.67488 0.69156 0.17116 0.0
C784 C 0.60613 0.60884 0.14668 0.0
C785 C 0.62637 0.59498 0.13983 0.0
C786 C 0.65732 0.65785 0.16056 0.0
C787 C 0.66198 0.61311 0.14404 0.0
C788 C 0.70956 0.70626 0.17712 0.0
C789 C 0.67235 0.73933 0.18522 0.0
N790 N 0.67625 0.64353 0.1541 0.0
N791 N 0.65746 0.70866 0.17529 0.0
H792 H 0.26487 0.91171 0.1891 0.0
H793 H 0.41579 0.08352 0.13895 0.0
H794 H 0.27384 0.01222 0.19466 0.0
H795 H 0.41897 0.98869 0.14328 0.0
H796 H 0.36222 0.05684 0.15802 0.0
H797 H 0.31923 0.93824 0.17044 0.0
C798 C 0.27811 0.93929 0.18631 0.0
C799 C 0.26475 0.95976 0.19351 0.0
C800 C 0.3747 0.04188 0.1549 0.0
C801 C 0.327 0.99024 0.17224 0.0
C802 C 0.40536 0.05713 0.14401 0.0
C803 C 0.42195 0.03832 0.13945 0.0
C804 C 0.36021 0.00742 0.16119 0.0
C805 C 0.40715 1.00421 0.14647 0.0
C806 C 0.30924 0.95443 0.17576 0.0
C807 C 0.28314 0.99539 0.18948 0.0
N808 N 0.37699 0.98977 0.15688 0.0
N809 N 0.31325 0.00944 0.17912 0.0
H810 H 0.00777 0.26456 0.19143 0.0
H811 H 0.02764 0.43693 0.14292 0.0
H812 H 0.10556 0.35986 0.18734 0.0
H813 H 0.93617 0.33637 0.13673 0.0
H814 H 0.05569 0.41015 0.16101 0.0
H815 H 0.98055 0.29116 0.17259 0.0
C816 C 0.02362 0.29102 0.18645 0.0
C817 C 0.05905 0.31 0.19103 0.0
C818 C 0.02948 0.39398 0.15569 0.0
C819 C 0.02781 0.34081 0.1696 0.0
C820 C 0.01334 0.40927 0.14546 0.0
C821 C 0.97946 0.38889 0.13825 0.0
C822 C 0.01155 0.35808 0.15887 0.0
C823 C 0.96233 0.35315 0.14195 0.0
C824 C 0.00801 0.30622 0.1757 0.0
C825 C 0.0782 0.3442 0.18412 0.0
N826 N 0.97853 0.33893 0.15201 0.0
N827 N 0.06229 0.35859 0.17389 0.0
H828 H 0.10589 0.82694 0.49131 0.0
H829 H 0.91186 0.67039 0.50448 0.0
H830 H 0.05304 0.74504 0.44852 0.0
H831 H 0.9593 0.75761 0.54435 0.0
H832 H 0.96366 0.69739 0.48399 0.0
H833 H 0.05323 0.80157 0.51148 0.0
C834 C 0.08343 0.80339 0.48628 0.0
C835 C 0.08408 0.78774 0.46837 0.0
C836 C 0.96264 0.71086 0.4971 0.0
C837 C 0.02351 0.75902 0.49112 0.0
C838 C 0.93274 0.69562 0.50869 0.0
C839 C 0.93074 0.71218 0.5259 0.0
C840 C 0.99101 0.74272 0.50285 0.0
C841 C 0.95961 0.74406 0.53111 0.0
C842 C 0.05323 0.78912 0.4977 0.0
C843 C 0.05374 0.75794 0.46225 0.0
N844 N 0.98855 0.7583 0.51965 0.0
N845 N 0.0248 0.7445 0.47363 0.0
H846 H 0.23957 0.33401 0.49288 0.0
H847 H 0.28941 0.18603 0.50388 0.0
H848 H 0.21213 0.25375 0.44922 0.0
H849 H 0.30053 0.25668 0.55076 0.0
H850 H 0.26312 0.21149 0.48296 0.0
H851 H 0.26336 0.30664 0.51384 0.0
C852 C 0.23766 0.31008 0.48792 0.0
C853 C 0.2227 0.29545 0.46957 0.0
C854 C 0.2714 0.22143 0.49781 0.0
C855 C 0.25147 0.26475 0.49316 0.0
C856 C 0.28677 0.20717 0.50969 0.0
C857 C 0.29776 0.21969 0.52897 0.0
C858 C 0.26708 0.24841 0.5053 0.0
C859 C 0.29251 0.24629 0.53596 0.0
C860 C 0.25175 0.29469 0.4998 0.0
C861 C 0.22299 0.26557 0.46341 0.0
N862 N 0.27773 0.25986 0.52412 0.0
N863 N 0.23713 0.25116 0.47519 0.0
H864 H 0.76409 0.95745 0.4539 0.0
H865 H 0.74962 0.05102 0.55172 0.0
H866 H 0.67688 0.91206 0.49383 0.0
H867 H 0.83123 0.10202 0.50858 0.0
H868 H 0.72485 0.99852 0.53173 0.0
H869 H 0.79105 0.00936 0.47463 0.0
C870 C 0.75077 0.95819 0.46716 0.0
C871 C 0.71847 0.92991 0.47234 0.0
C872 C 0.74809 0.02121 0.52655 0.0
C873 C 0.74907 0.98944 0.49605 0.0
C874 C 0.76234 0.05122 0.53799 0.0
C875 C 0.79226 0.08122 0.53166 0.0
C876 C 0.76402 0.02093 0.50867 0.0
C877 C 0.80763 0.07988 0.51378 0.0
C878 C 0.76617 0.98787 0.47896 0.0
C879 C 0.70229 0.93249 0.48957 0.0
N880 N 0.79332 0.05021 0.50289 0.0
N881 N 0.71775 0.96171 0.50078 0.0
H882 H 0.32393 0.08487 0.52246 0.0
H883 H 0.34559 0.93404 0.473 0.0
H884 H 0.41702 0.07838 0.52701 0.0
H885 H 0.24719 0.92999 0.47797 0.0
H886 H 0.37267 0.98813 0.4916 0.0
H887 H 0.29625 0.03004 0.50438 0.0
C888 C 0.33867 0.0721 0.51955 0.0
C889 C 0.37291 0.08634 0.52631 0.0
C890 C 0.34512 0.97535 0.48872 0.0
C891 C 0.3412 0.02337 0.50569 0.0
C892 C 0.32959 0.94439 0.47811 0.0
C893 C 0.29401 0.9274 0.47385 0.0
C894 C 0.32509 0.98976 0.49503 0.0
C895 C 0.27466 0.94211 0.48093 0.0
C896 C 0.32274 0.04066 0.50933 0.0
C897 C 0.3906 0.06844 0.52213 0.0
N898 N 0.29049 0.97256 0.49105 0.0
N899 N 0.37456 0.03795 0.5121 0.0
H900 H 0.08902 0.323 0.47871 0.0
H901 H 0.93638 0.34417 0.5261 0.0
H902 H 0.08208 0.41554 0.47237 0.0
H903 H 0.93228 0.24589 0.52044 0.0
H904 H 0.9913 0.37172 0.50814 0.0
H905 H 0.03392 0.29573 0.49646 0.0
C906 C 0.07613 0.33775 0.4812 0.0
C907 C 0.0903 0.37167 0.47398 0.0
C908 C 0.97829 0.3441 0.51072 0.0
C909 C 0.02691 0.34038 0.49422 0.0
C910 C 0.94686 0.3283 0.52096 0.0
C911 C 0.92962 0.2926 0.52483 0.0
C912 C 0.99287 0.32419 0.50447 0.0
C913 C 0.94454 0.27344 0.51776 0.0
C914 C 0.0445 0.32203 0.49122 0.0
C915 C 0.0722 0.38935 0.47761 0.0
N916 N 0.9754 0.2895 0.50807 0.0
N917 N 0.04149 0.37351 0.48747 0.0
H918 H 0.68523 0.63749 0.54946 0.0
H919 H 0.63465 0.68101 0.44915 0.0
H920 H 0.75447 0.65416 0.50073 0.0
H921 H 0.65888 0.75561 0.49594 0.0
H922 H 0.66336 0.65549 0.46817 0.0
H923 H 0.65962 0.66599 0.53036 0.0
C924 C 0.69481 0.64692 0.53468 0.0
C925 C 0.72188 0.64347 0.52656 0.0
C926 C 0.66225 0.67741 0.47418 0.0
C927 C 0.69238 0.67518 0.50475 0.0
C928 C 0.64575 0.69178 0.46351 0.0
C929 C 0.64438 0.72033 0.47109 0.0
C930 C 0.67638 0.691 0.4928 0.0
C931 C 0.65947 0.73361 0.48964 0.0
C932 C 0.6804 0.66329 0.52393 0.0
C933 C 0.73366 0.65641 0.50745 0.0
N934 N 0.67445 0.71846 0.50007 0.0
N935 N 0.71842 0.6713 0.49699 0.0
H936 H 0.13875 0.36063 0.27543 0.0
H937 H 0.12088 0.32403 0.39043 0.0
H938 H 0.06734 0.25982 0.29916 0.0
H939 H 0.1523 0.42544 0.36697 0.0
H940 H 0.10395 0.29991 0.35711 0.0
H941 H 0.14696 0.38502 0.30876 0.0
C942 C 0.12464 0.34364 0.28765 0.0
C943 C 0.10246 0.30808 0.28455 0.0
C944 C 0.11423 0.32737 0.35928 0.0
C945 C 0.11207 0.33583 0.32272 0.0
C946 C 0.12409 0.34122 0.37826 0.0
C947 C 0.13823 0.37686 0.38144 0.0
C948 C 0.11917 0.34938 0.34326 0.0
C949 C 0.14151 0.39784 0.36516 0.0
C950 C 0.12923 0.35764 0.30664 0.0
C951 C 0.08466 0.28735 0.3009 0.0
N952 N 0.13249 0.38384 0.34668 0.0
N953 N 0.09022 0.30147 0.31936 0.0
H954 H 0.69934 0.84979 0.28468 0.0
H955 H 0.62205 0.71884 0.37392 0.0
H956 H 0.7249 0.76893 0.29029 0.0
H957 H 0.66048 0.82816 0.381 0.0
H958 H 0.64894 0.7305 0.34073 0.0
H959 H 0.67385 0.83594 0.31778 0.0
C960 C 0.69954 0.82906 0.29291 0.0
C961 C 0.7143 0.81051 0.28483 0.0
C962 C 0.65141 0.75177 0.34967 0.0
C963 C 0.68462 0.79419 0.32251 0.0
C964 C 0.63591 0.74516 0.36844 0.0
C965 C 0.63909 0.77261 0.38014 0.0
C966 C 0.66922 0.78585 0.34253 0.0
C967 C 0.65754 0.80628 0.37249 0.0
C968 C 0.68509 0.82127 0.31178 0.0
C969 C 0.71399 0.78398 0.29614 0.0
N970 N 0.6716 0.81191 0.3541 0.0
N971 N 0.69898 0.77628 0.31444 0.0
H972 H 0.16715 0.85488 0.28511 0.0
H973 H 0.299 0.91292 0.3744 0.0
H974 H 0.24603 0.96222 0.29068 0.0
H975 H 0.19035 0.83875 0.38127 0.0
H976 H 0.28656 0.92723 0.34114 0.0
H977 H 0.18189 0.84395 0.31816 0.0
C978 C 0.1876 0.87616 0.29333 0.0
C979 C 0.20531 0.90954 0.28525 0.0
C980 C 0.26561 0.90793 0.35007 0.0
C981 C 0.2227 0.89701 0.32285 0.0
C982 C 0.27268 0.8996 0.36887 0.0
C983 C 0.24563 0.87469 0.38054 0.0
C984 C 0.23151 0.89046 0.34286 0.0
C985 C 0.21192 0.85827 0.37281 0.0
C986 C 0.19592 0.86991 0.31216 0.0
C987 C 0.23158 0.93621 0.29653 0.0
N988 N 0.20588 0.8662 0.3544 0.0
N989 N 0.2398 0.92931 0.31478 0.0
H990 H 0.36987 0.18516 0.61985 0.0
H991 H 0.29205 0.05088 0.70752 0.0
H992 H 0.39338 0.10265 0.62321 0.0
H993 H 0.32979 0.15993 0.71549 0.0
H994 H 0.31957 0.0636 0.67446 0.0
H995 H 0.3453 0.17062 0.65312 0.0
C996 C 0.36995 0.16402 0.62769 0.0
C997 C 0.38377 0.14514 0.6189 0.0
C998 C 0.3218 0.08457 0.6836 0.0
C999 C 0.35503 0.12793 0.65677 0.0
C1000 C 0.30592 0.07736 0.70229 0.0
C1001 C 0.30866 0.10441 0.7142 0.0
C1002 C 0.33959 0.11887 0.67677 0.0
C1003 C 0.32715 0.1383 0.70685 0.0
C1004 C 0.35599 0.15578 0.64664 0.0
C1005 C 0.38324 0.11797 0.62965 0.0
N1006 N 0.3416 0.1445 0.68856 0.0
N1007 N 0.36864 0.10982 0.64806 0.0
H1008 H 0.88036 0.22626 0.72346 0.0
H1009 H 0.89907 0.21158 0.60794 0.0
H1010 H 0.95235 0.19832 0.69892 0.0
H1011 H 0.86818 0.28119 0.63265 0.0
H1012 H 0.91495 0.20244 0.64114 0.0
H1013 H 0.87148 0.24255 0.69029 0.0
C1014 C 0.89436 0.22361 0.71109 0.0
C1015 C 0.91704 0.21076 0.71393 0.0
C1016 C 0.90499 0.21994 0.63927 0.0
C1017 C 0.90672 0.22909 0.67597 0.0
C1018 C 0.89577 0.22507 0.62036 0.0
C1019 C 0.88215 0.2471 0.61756 0.0
C1020 C 0.8999 0.23637 0.65558 0.0
C1021 C 0.87864 0.26406 0.63415 0.0
C1022 C 0.88942 0.23311 0.69221 0.0
C1023 C 0.93467 0.20813 0.69739 0.0
N1024 N 0.88705 0.258 0.65253 0.0
N1025 N 0.92883 0.21683 0.67906 0.0
H1026 H 0.79137 0.65676 0.72299 0.0
H1027 H 0.80906 0.69129 0.60767 0.0
H1028 H 0.82297 0.75792 0.69907 0.0
H1029 H 0.73613 0.59161 0.63215 0.0
H1030 H 0.81873 0.71636 0.64092 0.0
H1031 H 0.77507 0.63234 0.6897 0.0
C1032 C 0.79479 0.67384 0.71072 0.0
C1033 C 0.8087 0.70947 0.71376 0.0
C1034 C 0.80042 0.68908 0.63896 0.0
C1035 C 0.7904 0.68167 0.67563 0.0
C1036 C 0.79502 0.67469 0.62004 0.0
C1037 C 0.77186 0.63925 0.61717 0.0
C1038 C 0.78308 0.66777 0.65519 0.0
C1039 C 0.75419 0.61903 0.6337 0.0
C1040 C 0.7853 0.65983 0.69176 0.0
C1041 C 0.8123 0.73032 0.69735 0.0
N1042 N 0.76048 0.63351 0.65207 0.0
N1043 N 0.80361 0.71616 0.6789 0.0
H1044 H 0.92217 0.40043 0.03251 0.0
H1045 H 0.09316 0.48371 0.96613 0.0
H1046 H 0.02343 0.47239 0.05561 0.0
H1047 H 0.99276 0.45483 0.94184 0.0
H1048 H 0.06727 0.46863 0.99927 0.0
H1049 H 0.9473 0.40949 0.9991 0.0
C1050 C 0.94966 0.4179 0.03057 0.0
C1051 C 0.97072 0.43588 0.04679 0.0
C1052 C 0.05096 0.46547 0.98664 0.0
C1053 C 0.99951 0.44589 0.0089 0.0
C1054 C 0.06565 0.47392 0.96774 0.0
C1055 C 0.04511 0.47074 0.95124 0.0
C1056 C 0.01542 0.45319 0.98897 0.0
C1057 C 0.00959 0.45798 0.9542 0.0
C1058 C 0.96391 0.42313 0.01155 0.0
C1059 C 1.00619 0.45827 0.04347 0.0
N1060 N 0.99582 0.44959 0.97271 0.0
N1061 N 0.01949 0.46255 0.02492 0.0
H1062 H 0.63343 0.5784 0.04185 0.0
H1063 H 0.50493 0.52144 0.9509 0.0
H1064 H 0.52478 0.50315 0.04714 0.0
H1065 H 0.58318 0.62881 0.95743 0.0
H1066 H 0.51877 0.50988 0.984 0.0
H1067 H 0.62223 0.59323 0.00844 0.0
C1068 C 0.60737 0.56491 0.03594 0.0
C1069 C 0.57996 0.53955 0.04721 0.0
C1070 C 0.5329 0.53597 0.97819 0.0
C1071 C 0.56725 0.55597 0.00934 0.0
C1072 C 0.52512 0.54259 0.95932 0.0
C1073 C 0.5429 0.57615 0.95149 0.0
C1074 C 0.55918 0.56291 0.98922 0.0
C1075 C 0.56873 0.60264 0.96307 0.0
C1076 C 0.601 0.57356 0.01704 0.0
C1077 C 0.54661 0.52298 0.03898 0.0
N1078 N 0.5764 0.59541 0.98139 0.0
N1079 N 0.54126 0.53125 0.02049 0.0
H1080 H 0.48145 0.08943 0.03237 0.0
H1081 H 0.40367 0.92016 0.96417 0.0
H1082 H 0.45587 0.98893 0.05493 0.0
H1083 H 0.46992 0.02335 0.94175 0.0
H1084 H 0.41071 0.94428 0.99774 0.0
H1085 H 0.46529 0.06448 0.99899 0.0
C1086 C 0.47213 0.0621 0.03034 0.0
C1087 C 0.47031 0.04129 0.04639 0.0
C1088 C 0.42344 0.96156 0.98539 0.0
C1089 C 0.45151 0.01264 0.00844 0.0
C1090 C 0.41933 0.94786 0.96627 0.0
C1091 C 0.4365 0.96976 0.95022 0.0
C1092 C 0.44431 0.99739 0.98832 0.0
C1093 C 0.45654 0.00549 0.95376 0.0
C1094 C 0.46304 0.04793 0.01132 0.0
C1095 C 0.45805 0.006 0.04292 0.0
N1096 N 0.45989 0.01819 0.97242 0.0
N1097 N 0.44911 0.99277 0.02432 0.0
H1098 H 0.20821 0.0699 0.19271 0.0
H1099 H 0.12504 0.16416 0.25372 0.0
H1100 H 0.17311 0.04485 0.25329 0.0
H1101 H 0.16608 0.19397 0.19465 0.0
H1102 H 0.14449 0.12172 0.25428 0.0
H1103 H 0.19535 0.117 0.19356 0.0
C1104 C 0.19805 0.07446 0.20626 0.0
C1105 C 0.19162 0.05328 0.22294 0.0
C1106 C 0.1494 0.13757 0.2412 0.0
C1107 C 0.17659 0.1071 0.22395 0.0
C1108 C 0.13818 0.16165 0.24087 0.0
C1109 C 0.14365 0.18211 0.22402 0.0
C1110 C 0.16618 0.13391 0.22452 0.0
C1111 C 0.16128 0.17844 0.20787 0.0
C1112 C 0.19069 0.10138 0.20672 0.0
C1113 C 0.17849 0.0605 0.24008 0.0
N1114 N 0.17173 0.1546 0.20845 0.0
N1115 N 0.17121 0.08663 0.24009 0.0
H1116 H 0.85126 0.96961 0.25344 0.0
H1117 H 0.95239 0.14565 0.19135 0.0
H1118 H 0.83307 0.97782 0.19147 0.0
H1119 H 0.97445 0.13609 0.25262 0.0
H1120 H 0.90569 0.08548 0.19179 0.0
H1121 H 0.89371 0.03161 0.25409 0.0
C1122 C 0.85639 0.98461 0.23996 0.0
C1123 C 0.83928 0.96876 0.22229 0.0
C1124 C 0.9206 0.09658 0.20518 0.0
C1125 C 0.8873 0.03957 0.2229 0.0
C1126 C 0.94728 0.131 0.20496 0.0
C1127 C 0.96751 0.14596 0.22196 0.0
C1128 C 0.91405 0.07685 0.22252 0.0
C1129 C 0.95957 0.12566 0.23916 0.0
C1130 C 0.88046 0.01995 0.24033 0.0
C1131 C 0.84608 0.98923 0.20532 0.0
N1132 N 0.93359 0.09211 0.23896 0.0
N1133 N 0.86974 0.0236 0.20601 0.0
H1134 H 0.88359 0.85426 0.18767 0.0
H1135 H 0.03721 0.84473 0.24212 0.0
H1136 H 0.87494 0.81957 0.24824 0.0
H1137 H 0.05429 0.91643 0.19486 0.0
H1138 H 0.97534 0.82673 0.24193 0.0
H1139 H 0.94395 0.86832 0.1873 0.0
C1140 C 0.89426 0.84925 0.20085 0.0
C1141 C 0.87416 0.83574 0.21804 0.0
C1142 C 0.99263 0.84632 0.23157 0.0
C1143 C 0.94332 0.85177 0.21764 0.0
C1144 C 0.02774 0.85643 0.23162 0.0
C1145 C 0.05052 0.88193 0.21842 0.0
C1146 C 0.9803 0.8615 0.21802 0.0
C1147 C 0.03734 0.89663 0.20521 0.0
C1148 C 0.9288 0.85751 0.20064 0.0
C1149 C 0.88953 0.83002 0.23469 0.0
N1150 N 1.00299 0.88608 0.20526 0.0
N1151 N 0.92321 0.83798 0.23407 0.0
H1152 H 0.04111 0.16235 0.80936 0.0
H1153 H 0.20411 0.17216 0.75462 0.0
H1154 H 0.06604 0.19615 0.74858 0.0
H1155 H 0.14933 0.10014 0.80174 0.0
H1156 H 0.16006 0.18993 0.7548 0.0
H1157 H 0.08753 0.14849 0.80956 0.0
C1158 C 0.05657 0.1672 0.7961 0.0
C1159 C 0.04964 0.1804 0.7789 0.0
C1160 C 0.15778 0.17033 0.76512 0.0
C1161 C 0.10291 0.16463 0.7791 0.0
C1162 C 0.1829 0.16037 0.76509 0.0
C1163 C 0.18021 0.1349 0.77828 0.0
C1164 C 0.13021 0.155 0.77865 0.0
C1165 C 0.15219 0.11998 0.79142 0.0
C1166 C 0.08292 0.15906 0.79621 0.0
C1167 C 0.07044 0.18592 0.76213 0.0
N1168 N 0.12834 0.13041 0.79137 0.0
N1169 N 0.09626 0.1781 0.76266 0.0
H1170 H 0.86516 0.0399 0.80744 0.0
H1171 H 0.84715 0.87869 0.74505 0.0
H1172 H 0.89138 0.04527 0.74558 0.0
H1173 H 0.82231 0.87347 0.80729 0.0
H1174 H 0.85983 0.93864 0.74442 0.0
H1175 H 0.84564 0.97781 0.80724 0.0
C1176 C 0.86667 0.02784 0.79383 0.0
C1177 C 0.88031 0.04755 0.77659 0.0
C1178 C 0.85141 0.92432 0.75819 0.0
C1179 C 0.85812 0.97686 0.77613 0.0
C1180 C 0.84408 0.89003 0.75855 0.0
C1181 C 0.83376 0.871 0.77627 0.0
C1182 C 0.84846 0.9398 0.77568 0.0
C1183 C 0.8303 0.88714 0.7933 0.0
C1184 C 0.8556 0.99251 0.79368 0.0
C1185 C 0.88154 0.03091 0.75925 0.0
N1186 N 0.83778 0.92061 0.7926 0.0
N1187 N 0.87078 0.99655 0.75947 0.0
H1188 H 0.1378 0.975 0.81052 0.0
H1189 H 0.98472 0.81518 0.75288 0.0
H1190 H 0.14649 0.95317 0.74908 0.0
H1191 H 0.96846 0.86235 0.80438 0.0
H1192 H 0.04649 0.85951 0.75338 0.0
H1193 H 0.07808 0.92741 0.8107 0.0
C1194 C 0.12728 0.96001 0.79709 0.0
C1195 C 0.14721 0.96817 0.77973 0.0
C1196 C 0.02942 0.86004 0.76462 0.0
C1197 C 0.07869 0.91353 0.77989 0.0
C1198 C 0.99438 0.83473 0.76439 0.0
C1199 C 0.97186 0.83525 0.77869 0.0
C1200 C 0.04191 0.88567 0.7794 0.0
C1201 C 0.98523 0.86118 0.79317 0.0
C1202 C 0.09309 0.93294 0.7972 0.0
C1203 C 0.13204 0.94785 0.76277 0.0
N1204 N 0.01945 0.88533 0.79322 0.0
N1205 N 0.09865 0.9214 0.76328 0.0
H1206 H 0.82412 0.52098 0.52417 0.0
H1207 H 0.83642 0.37418 0.58623 0.0
H1208 H 0.78607 0.49206 0.58385 0.0
H1209 H 0.86055 0.39269 0.52387 0.0
H1210 H 0.82318 0.4211 0.58657 0.0
H1211 H 0.84286 0.47781 0.52464 0.0
C1212 C 0.81982 0.50551 0.53736 0.0
C1213 C 0.80323 0.50962 0.5539 0.0
C1214 C 0.83152 0.415 0.57283 0.0
C1215 C 0.82459 0.46047 0.55466 0.0
C1216 C 0.83923 0.38829 0.57265 0.0
C1217 C 0.84954 0.37939 0.55498 0.0
C1218 C 0.83425 0.43309 0.55524 0.0
C1219 C 0.85257 0.39853 0.53782 0.0
C1220 C 0.83042 0.48088 0.53764 0.0
C1221 C 0.79835 0.4892 0.5707 0.0
N1222 N 0.8449 0.4244 0.53837 0.0
N1223 N 0.80891 0.46545 0.57065 0.0
H1224 H 0.63995 0.46784 0.58655 0.0
H1225 H 0.48364 0.31441 0.52606 0.0
H1226 H 0.60896 0.48069 0.52797 0.0
H1227 H 0.52063 0.30104 0.58252 0.0
H1228 H 0.5257 0.37668 0.52769 0.0
H1229 H 0.5926 0.40794 0.58663 0.0
C1230 C 0.623 0.45819 0.57377 0.0
C1231 C 0.62857 0.47933 0.55719 0.0
C1232 C 0.52455 0.36015 0.53975 0.0
C1233 C 0.57436 0.41057 0.55712 0.0
C1234 C 0.50056 0.32473 0.53882 0.0
C1235 C 0.49914 0.30275 0.55404 0.0
C1236 C 0.54707 0.37353 0.5561 0.0
C1237 C 0.5214 0.31718 0.57032 0.0
C1238 C 0.596 0.42391 0.5738 0.0
C1239 C 0.60575 0.46532 0.54105 0.0
N1240 N 0.54454 0.35162 0.57089 0.0
N1241 N 0.57977 0.43179 0.54137 0.0
H1242 H 0.70266 0.15849 0.57361 0.0
H1243 H 0.55769 0.21025 0.56652 0.0
H1244 H 0.71748 0.24877 0.54193 0.0
H1245 H 0.52968 0.1027 0.56749 0.0
H1246 H 0.61813 0.22649 0.56301 0.0
H1247 H 0.64056 0.13859 0.5761 0.0
C1248 C 0.69278 0.17386 0.56692 0.0
C1249 C 0.71518 0.20526 0.55743 0.0
C1250 C 0.59874 0.19932 0.56394 0.0
C1251 C 0.64472 0.18333 0.56091 0.0
C1252 C 0.56411 0.18995 0.56597 0.0
C1253 C 0.53828 0.15497 0.56699 0.0
C1254 C 0.60798 0.17364 0.56333 0.0
C1255 C 0.54863 0.12997 0.5666 0.0
C1256 C 0.65745 0.1626 0.56848 0.0
C1257 C 0.70115 0.22459 0.54952 0.0
N1258 N 0.58277 0.13979 0.56487 0.0
N1259 N 0.6669 0.2135 0.5516 0.0
H1260 H 0.86845 0.50599 0.08937 0.0
H1261 H 0.70637 0.49752 0.14479 0.0
H1262 H 0.81594 0.43683 0.13801 0.0
H1263 H 0.73076 0.53019 0.08381 0.0
H1264 H 0.75319 0.48425 0.14519 0.0
H1265 H 0.82457 0.52395 0.08969 0.0
C1266 C 0.84779 0.4949 0.10022 0.0
C1267 C 0.84564 0.47008 0.11375 0.0
C1268 C 0.74839 0.49447 0.13175 0.0
C1269 C 0.79579 0.4904 0.11427 0.0
C1270 C 0.72179 0.50225 0.13152 0.0
C1271 C 0.71458 0.51495 0.1142 0.0
C1272 C 0.76833 0.49984 0.11464 0.0
C1273 C 0.73537 0.52035 0.09745 0.0
C1274 C 0.82276 0.50496 0.10033 0.0
C1275 C 0.81836 0.4561 0.1274 0.0
N1276 N 0.76139 0.51284 0.09809 0.0
N1277 N 0.79453 0.46657 0.12739 0.0
H1278 H 0.4798 0.20271 0.13939 0.0
H1279 H 0.5587 0.38024 0.07846 0.0
H1280 H 0.5136 0.21323 0.07851 0.0
H1281 H 0.52908 0.37058 0.13994 0.0
H1282 H 0.53892 0.31821 0.0775 0.0
H1283 H 0.49389 0.26302 0.13916 0.0
C1284 C 0.48994 0.21761 0.1259 0.0
C1285 C 0.49563 0.20285 0.10895 0.0
C1286 C 0.53669 0.32957 0.09122 0.0
C1287 C 0.51203 0.27216 0.10864 0.0
C1288 C 0.5481 0.36492 0.09177 0.0
C1289 C 0.54597 0.38037 0.10939 0.0
C1290 C 0.5229 0.30952 0.10842 0.0
C1291 C 0.53137 0.35949 0.12613 0.0
C1292 C 0.49805 0.25211 0.12581 0.0
C1293 C 0.50879 0.22349 0.09192 0.0
N1294 N 0.52053 0.32512 0.12528 0.0
N1295 N 0.5167 0.25712 0.09223 0.0
H1296 H 0.63489 0.18494 0.0785 0.0
H1297 H 0.81179 0.28062 0.14009 0.0
H1298 H 0.64569 0.15542 0.13772 0.0
H1299 H 0.80214 0.30477 0.07926 0.0
H1300 H 0.75185 0.23328 0.13919 0.0
H1301 H 0.69677 0.22769 0.07813 0.0
C1302 C 0.65046 0.18758 0.09143 0.0
C1303 C 0.63536 0.16713 0.10826 0.0
C1304 C 0.76291 0.24877 0.12599 0.0
C1305 C 0.70605 0.21569 0.10799 0.0
C1306 C 0.79717 0.27583 0.12649 0.0
C1307 C 0.81203 0.29682 0.10974 0.0
C1308 C 0.74323 0.24271 0.10865 0.0
C1309 C 0.7918 0.2893 0.09253 0.0
C1310 C 0.68574 0.21184 0.09121 0.0
C1311 C 0.65652 0.17096 0.12452 0.0
N1312 N 0.7584 0.26302 0.09248 0.0
N1313 N 0.69082 0.195 0.12405 0.0
H1314 H 0.51556 0.86929 0.86064 0.0
H1315 H 0.50999 0.71099 0.92006 0.0
H1316 H 0.46441 0.83157 0.91683 0.0
H1317 H 0.55237 0.74114 0.86112 0.0
H1318 H 0.49904 0.75935 0.92064 0.0
H1319 H 0.53527 0.82684 0.86201 0.0
C1320 C 0.50878 0.85221 0.87331 0.0
C1321 C 0.48807 0.85346 0.88852 0.0
C1322 C 0.51095 0.75554 0.90762 0.0
C1323 C 0.51029 0.80507 0.89026 0.0
C1324 C 0.51731 0.72797 0.90731 0.0
C1325 C 0.53196 0.72186 0.89047 0.0
C1326 C 0.51928 0.77725 0.89099 0.0
C1327 C 0.54086 0.74474 0.87438 0.0
C1328 C 0.51988 0.82797 0.87409 0.0
C1329 C 0.47996 0.83096 0.90468 0.0
N1330 N 0.53422 0.77131 0.875 0.0
N1331 N 0.49093 0.80757 0.90508 0.0
H1332 H 0.33492 0.79176 0.89798 0.0
H1333 H 0.13729 0.64769 0.90489 0.0
H1334 H 0.25533 0.81974 0.89841 0.0
H1335 H 0.21307 0.63103 0.87492 0.0
H1336 H 0.17991 0.70966 0.907 0.0
H1337 H 0.29059 0.73124 0.89474 0.0
C1338 C 0.30817 0.7853 0.89739 0.0
C1339 C 0.29901 0.81112 0.89824 0.0
C1340 C 0.18703 0.69241 0.89984 0.0
C1341 C 0.24787 0.7414 0.89481 0.0
C1342 C 0.16271 0.65714 0.89849 0.0
C1343 C 0.17163 0.63424 0.88958 0.0
C1344 C 0.22067 0.70464 0.89264 0.0
C1345 C 0.20523 0.64774 0.88205 0.0
C1346 C 0.28283 0.75064 0.89549 0.0
C1347 C 0.26365 0.80079 0.89769 0.0
N1348 N 0.22863 0.68198 0.88392 0.0
N1349 N 0.23929 0.76666 0.89609 0.0
H1350 H 0.38603 0.56393 0.91853 0.0
H1351 H 0.20949 0.48813 0.85694 0.0
H1352 H 0.37532 0.52816 0.85821 0.0
H1353 H 0.21746 0.51265 0.91934 0.0
H1354 H 0.26984 0.50204 0.85713 0.0
H1355 H 0.3242 0.54517 0.91915 0.0
C1356 C 0.37053 0.55218 0.9054 0.0
C1357 C 0.38562 0.54785 0.88822 0.0
C1358 C 0.25834 0.50416 0.87082 0.0
C1359 C 0.31498 0.5261 0.88879 0.0
C1360 C 0.22385 0.49622 0.87073 0.0
C1361 C 0.20836 0.49928 0.88815 0.0
C1362 C 0.27768 0.51553 0.88843 0.0
C1363 C 0.22828 0.50984 0.90557 0.0
C1364 C 0.33527 0.54132 0.90577 0.0
C1365 C 0.36451 0.53202 0.87169 0.0
N1366 N 0.26194 0.51779 0.90523 0.0
N1367 N 0.33026 0.52187 0.87233 0.0
H1368 H 0.4967 0.78735 0.41435 0.0
H1369 H 0.39922 0.8676 0.47468 0.0
H1370 H 0.5266 0.82974 0.47317 0.0
H1371 H 0.37862 0.83706 0.41319 0.0
H1372 H 0.44664 0.85514 0.47432 0.0
H1373 H 0.45389 0.80629 0.41351 0.0
C1374 C 0.49415 0.8007 0.42709 0.0
C1375 C 0.51478 0.80673 0.44394 0.0
C1376 C 0.43193 0.85141 0.46086 0.0
C1377 C 0.46606 0.82861 0.44312 0.0
C1378 C 0.40481 0.85851 0.46105 0.0
C1379 C 0.38481 0.85328 0.44395 0.0
C1380 C 0.43899 0.83871 0.44349 0.0
C1381 C 0.39334 0.84152 0.42671 0.0
C1382 C 0.46986 0.81163 0.42659 0.0
C1383 C 0.51098 0.82455 0.45995 0.0
N1384 N 0.41961 0.83441 0.42697 0.0
N1385 N 0.48686 0.83466 0.45922 0.0
H1386 H 0.20253 0.54883 0.44877 0.0
H1387 H 0.16923 0.70387 0.42054 0.0
H1388 H 0.12238 0.53681 0.40822 0.0
H1389 H 0.25071 0.71468 0.4594 0.0
H1390 H 0.14975 0.64216 0.41684 0.0
H1391 H 0.21879 0.60901 0.45366 0.0
C1392 C 0.18835 0.55883 0.44082 0.0
C1393 C 0.16119 0.53767 0.4279 0.0
C1394 C 0.17177 0.65796 0.42626 0.0
C1395 C 0.17967 0.60698 0.43361 0.0
C1396 C 0.18273 0.69307 0.42847 0.0
C1397 C 0.21142 0.71416 0.44041 0.0
C1398 C 0.18974 0.64392 0.43604 0.0
C1399 C 0.22848 0.69919 0.45006 0.0
C1400 C 0.19763 0.5933 0.44368 0.0
C1401 C 0.14355 0.55216 0.41825 0.0
N1402 N 0.2174 0.66499 0.44765 0.0
N1403 N 0.15315 0.58596 0.42127 0.0
H1404 H 0.49381 0.58054 0.43342 0.0
H1405 H 0.30328 0.53843 0.45821 0.0
H1406 H 0.4613 0.65639 0.42819 0.0
H1407 H 0.31915 0.46332 0.42685 0.0
H1408 H 0.36488 0.58064 0.45445 0.0
H1409 H 0.43274 0.53528 0.43716 0.0
C1410 C 0.47398 0.58774 0.43302 0.0
C1411 C 0.48287 0.62253 0.43073 0.0
C1412 C 0.35486 0.55481 0.44853 0.0
C1413 C 0.41346 0.57115 0.43546 0.0
C1414 C 0.31979 0.53076 0.45066 0.0
C1415 C 0.30604 0.4974 0.44274 0.0
C1416 C 0.37659 0.54529 0.43877 0.0
C1417 C 0.32876 0.48862 0.4334 0.0
C1418 C 0.43924 0.56193 0.43516 0.0
C1419 C 0.45597 0.63021 0.43024 0.0
N1420 N 0.36304 0.51245 0.43168 0.0
N1421 N 0.42262 0.60487 0.43284 0.0
loop_
_geom_bond_atom_site_label_1
_geom_bond_atom_site_label_2
_geom_bond_distance
_geom_bond_site_symmetry_2
_ccdc_geom_bond_type
Co0 O3 1.970 . S
Co0 N17 1.989 . S
Co0 O25 1.967 . S
Co0 O32 1.920 . S
Co1 O4 1.966 . S
Co1 N10 2.022 . S
Co1 N18 1.993 . S
Co1 O26 1.941 . S
C2 O3 1.258 . S
C2 O4 1.263 . S
O3 Co0 1.970 . S
O3 C2 1.258 . S
O4 Co1 1.966 . S
O4 C2 1.263 . S
C5 O6 1.235 . S
C5 O32 1.289 1_655 S
O6 C5 1.235 . S
C7 C9 1.400 . S
C7 N10 1.351 . S
C7 C12 1.501 . S
C8 C9 1.387 . S
C8 N11 1.341 . S
C9 C7 1.400 . S
C9 C8 1.387 . S
N10 Co1 2.022 . S
N10 C7 1.351 . S
N10 N11 1.365 . S
N11 C8 1.341 . S
N11 N10 1.365 . S
N11 H31 0.862 . S
C12 C7 1.501 . S
C12 H13 0.961 . S
C12 H14 0.961 . S
C12 H15 0.960 . S
H13 C12 0.961 . S
H14 C12 0.961 . S
H15 C12 0.960 . S
C16 N17 1.342 . S
C16 C20 1.401 . S
C16 C21 1.499 . S
N17 Co0 1.989 . S
N17 C16 1.342 . S
N17 N18 1.388 . S
N18 Co1 1.993 . S
N18 N17 1.388 . S
N18 C19 1.346 . S
C19 N18 1.346 . S
C19 C20 1.396 . S
C19 C29 1.510 . S
C20 C16 1.401 . S
C20 C19 1.396 . S
C21 C16 1.499 . S
C21 H22 0.959 . S
C21 H23 0.960 . S
C21 H24 0.961 . S
H22 C21 0.959 . S
H23 C21 0.960 . S
H24 C21 0.961 . S
O25 Co0 1.967 . S
O25 C33 1.258 . S
O26 Co1 1.941 . S
O26 C33 1.266 . S
H27 C29 0.959 . S
H28 C29 0.961 . S
C29 C19 1.510 . S
C29 H27 0.959 . S
C29 H28 0.961 . S
C29 H30 0.960 . S
H30 C29 0.960 . S
H31 N11 0.862 . S
O32 Co0 1.920 . S
O32 C5 1.289 1_455 S
C33 O25 1.258 . S
C33 O26 1.266 . S
Co34 O37 1.970 . S
Co34 N51 1.989 . S
Co34 O59 1.967 . S
Co34 O66 1.920 . S
Co35 O38 1.966 . S
Co35 N44 2.022 . S
Co35 N52 1.993 . S
Co35 O60 1.941 . S
C36 O37 1.258 . S
C36 O38 1.263 . S
O37 Co34 1.970 . S
O37 C36 1.258 . S
O38 Co35 1.966 . S
O38 C36 1.263 . S
C39 O40 1.235 . S
C39 O66 1.289 . S
O40 C39 1.235 . S
C41 C43 1.400 . S
C41 N44 1.351 . S
C41 C46 1.501 . S
C42 C43 1.387 . S
C42 N45 1.341 . S
C43 C41 1.400 . S
C43 C42 1.387 . S
N44 Co35 2.022 . S
N44 C41 1.351 . S
N44 N45 1.365 . S
N45 C42 1.341 . S
N45 N44 1.365 . S
N45 H65 0.862 . S
C46 C41 1.501 . S
C46 H47 0.961 . S
C46 H48 0.961 . S
C46 H49 0.960 . S
H47 C46 0.961 . S
H48 C46 0.961 . S
H49 C46 0.960 . S
C50 N51 1.342 . S
C50 C54 1.401 . S
C50 C55 1.499 . S
N51 Co34 1.989 . S
N51 C50 1.342 . S
N51 N52 1.388 . S
N52 Co35 1.993 . S
N52 N51 1.388 . S
N52 C53 1.346 . S
C53 N52 1.346 . S
C53 C54 1.396 . S
C53 C63 1.510 . S
C54 C50 1.401 . S
C54 C53 1.396 . S
C55 C50 1.499 . S
C55 H56 0.959 . S
C55 H57 0.960 . S
C55 H58 0.961 . S
H56 C55 0.959 . S
H57 C55 0.960 . S
H58 C55 0.961 . S
O59 Co34 1.967 . S
O59 C67 1.258 . S
O60 Co35 1.941 . S
O60 C67 1.266 . S
H61 C63 0.959 . S
H62 C63 0.961 . S
C63 C53 1.510 . S
C63 H61 0.959 . S
C63 H62 0.961 . S
C63 H64 0.960 . S
H64 C63 0.960 . S
H65 N45 0.862 . S
O66 Co34 1.920 . S
O66 C39 1.289 . S
C67 O59 1.258 . S
C67 O60 1.266 . S
Co68 O71 1.970 . S
Co68 N85 1.989 . S
Co68 O93 1.967 . S
Co68 O100 1.920 . S
Co69 O72 1.966 . S
Co69 N78 2.022 . S
Co69 N86 1.993 . S
Co69 O94 1.941 . S
C70 O71 1.258 . S
C70 O72 1.263 . S
O71 Co68 1.970 . S
O71 C70 1.258 . S
O72 Co69 1.966 . S
O72 C70 1.263 . S
C73 O74 1.235 . S
C73 O100 1.289 1_545 S
O74 C73 1.235 . S
C75 C77 1.400 . S
C75 N78 1.351 . S
C75 C80 1.501 . S
C76 C77 1.387 . S
C76 N79 1.341 . S
C77 C75 1.400 . S
C77 C76 1.387 . S
N78 Co69 2.022 . S
N78 C75 1.351 . S
N78 N79 1.365 . S
N79 C76 1.341 . S
N79 N78 1.365 . S
N79 H99 0.862 . S
C80 C75 1.501 . S
C80 H81 0.961 . S
C80 H82 0.961 . S
C80 H83 0.960 . S
H81 C80 0.961 . S
H82 C80 0.961 . S
H83 C80 0.960 . S
C84 N85 1.342 . S
C84 C88 1.401 . S
C84 C89 1.499 . S
N85 Co68 1.989 . S
N85 C84 1.342 . S
N85 N86 1.388 . S
N86 Co69 1.993 . S
N86 N85 1.388 . S
N86 C87 1.346 . S
C87 N86 1.346 . S
C87 C88 1.396 . S
C87 C97 1.510 . S
C88 C84 1.401 . S
C88 C87 1.396 . S
C89 C84 1.499 . S
C89 H90 0.959 . S
C89 H91 0.960 . S
C89 H92 0.961 . S
H90 C89 0.959 . S
H91 C89 0.960 . S
H92 C89 0.961 . S
O93 Co68 1.967 . S
O93 C101 1.258 . S
O94 Co69 1.941 . S
O94 C101 1.266 . S
H95 C97 0.959 . S
H96 C97 0.961 . S
C97 C87 1.510 . S
C97 H95 0.959 . S
C97 H96 0.961 . S
C97 H98 0.960 . S
H98 C97 0.960 . S
H99 N79 0.862 . S
O100 Co68 1.920 . S
O100 C73 1.289 1_565 S
C101 O93 1.258 . S
C101 O94 1.266 . S
Co102 O105 1.970 . S
Co102 N119 1.989 . S
Co102 O127 1.967 . S
Co102 O134 1.920 . S
Co103 O106 1.966 . S
Co103 N112 2.022 . S
Co103 N120 1.993 . S
Co103 O128 1.941 . S
C104 O105 1.258 . S
C104 O106 1.263 . S
O105 Co102 1.970 . S
O105 C104 1.258 . S
O106 Co103 1.966 . S
O106 C104 1.263 . S
C107 O108 1.235 . S
C107 O134 1.289 1_565 S
O108 C107 1.235 . S
C109 C111 1.400 . S
C109 N112 1.351 . S
C109 C114 1.501 . S
C110 C111 1.387 . S
C110 N113 1.341 . S
C111 C109 1.400 . S
C111 C110 1.387 . S
N112 Co103 2.022 . S
N112 C109 1.351 . S
N112 N113 1.365 . S
N113 C110 1.341 . S
N113 N112 1.365 . S
N113 H133 0.862 . S
C114 C109 1.501 . S
C114 H115 0.961 . S
C114 H116 0.961 . S
C114 H117 0.960 . S
H115 C114 0.961 . S
H116 C114 0.961 . S
H117 C114 0.960 . S
C118 N119 1.342 . S
C118 C122 1.401 . S
C118 C123 1.499 . S
N119 Co102 1.989 . S
N119 C118 1.342 . S
N119 N120 1.388 . S
N120 Co103 1.993 . S
N120 N119 1.388 . S
N120 C121 1.346 . S
C121 N120 1.346 . S
C121 C122 1.396 . S
C121 C131 1.510 . S
C122 C118 1.401 . S
C122 C121 1.396 . S
C123 C118 1.499 . S
C123 H124 0.959 . S
C123 H125 0.960 . S
C123 H126 0.961 . S
H124 C123 0.959 . S
H125 C123 0.960 . S
H126 C123 0.961 . S
O127 Co102 1.967 . S
O127 C135 1.258 . S
O128 Co103 1.941 . S
O128 C135 1.266 . S
H129 C131 0.959 . S
H130 C131 0.961 . S
C131 C121 1.510 . S
C131 H129 0.959 . S
C131 H130 0.961 . S
C131 H132 0.960 . S
H132 C131 0.960 . S
H133 N113 0.862 . S
O134 Co102 1.920 . S
O134 C107 1.289 1_545 S
C135 O127 1.258 . S
C135 O128 1.266 . S
Co136 O139 1.970 . S
Co136 N153 1.989 . S
Co136 O161 1.967 . S
Co136 O168 1.920 . S
Co137 O140 1.966 . S
Co137 N146 2.022 . S
Co137 N154 1.993 . S
Co137 O162 1.941 . S
C138 O139 1.258 . S
C138 O140 1.263 . S
O139 Co136 1.970 . S
O139 C138 1.258 . S
O140 Co137 1.966 . S
O140 C138 1.263 . S
C141 O142 1.235 . S
C141 O168 1.289 1_455 S
O142 C141 1.235 . S
C143 C145 1.400 . S
C143 N146 1.351 . S
C143 C148 1.501 . S
C144 C145 1.387 . S
C144 N147 1.341 . S
C145 C143 1.400 . S
C145 C144 1.387 . S
N146 Co137 2.022 . S
N146 C143 1.351 . S
N146 N147 1.365 . S
N147 C144 1.341 . S
N147 N146 1.365 . S
N147 H167 0.862 . S
C148 C143 1.501 . S
C148 H149 0.961 . S
C148 H150 0.961 . S
C148 H151 0.960 . S
H149 C148 0.961 . S
H150 C148 0.961 . S
H151 C148 0.960 . S
C152 N153 1.342 . S
C152 C156 1.401 . S
C152 C157 1.499 . S
N153 Co136 1.989 . S
N153 C152 1.342 . S
N153 N154 1.388 . S
N154 Co137 1.993 . S
N154 N153 1.388 . S
N154 C155 1.346 . S
C155 N154 1.346 . S
C155 C156 1.396 . S
C155 C165 1.510 . S
C156 C152 1.401 . S
C156 C155 1.396 . S
C157 C152 1.499 . S
C157 H158 0.959 . S
C157 H159 0.960 . S
C157 H160 0.961 . S
H158 C157 0.959 . S
H159 C157 0.960 . S
H160 C157 0.961 . S
O161 Co136 1.967 . S
O161 C169 1.258 . S
O162 Co137 1.941 . S
O162 C169 1.266 . S
H163 C165 0.959 . S
H164 C165 0.961 . S
C165 C155 1.510 . S
C165 H163 0.959 . S
C165 H164 0.961 . S
C165 H166 0.960 . S
H166 C165 0.960 . S
H167 N147 0.862 . S
O168 Co136 1.920 . S
O168 C141 1.289 1_655 S
C169 O161 1.258 . S
C169 O162 1.266 . S
Co170 O173 1.970 . S
Co170 N187 1.989 . S
Co170 O195 1.967 . S
Co170 O202 1.920 . S
Co171 O174 1.966 . S
Co171 N180 2.022 . S
Co171 N188 1.993 . S
Co171 O196 1.941 . S
C172 O173 1.258 . S
C172 O174 1.263 . S
O173 Co170 1.970 . S
O173 C172 1.258 . S
O174 Co171 1.966 . S
O174 C172 1.263 . S
C175 O176 1.235 . S
C175 O202 1.289 . S
O176 C175 1.235 . S
C177 C179 1.400 . S
C177 N180 1.351 . S
C177 C182 1.501 . S
C178 C179 1.387 . S
C178 N181 1.341 . S
C179 C177 1.400 . S
C179 C178 1.387 . S
N180 Co171 2.022 . S
N180 C177 1.351 . S
N180 N181 1.365 . S
N181 C178 1.341 . S
N181 N180 1.365 . S
N181 H201 0.862 . S
C182 C177 1.501 . S
C182 H183 0.961 . S
C182 H184 0.961 . S
C182 H185 0.960 . S
H183 C182 0.961 . S
H184 C182 0.961 . S
H185 C182 0.960 . S
C186 N187 1.342 . S
C186 C190 1.401 . S
C186 C191 1.499 . S
N187 Co170 1.989 . S
N187 C186 1.342 . S
N187 N188 1.388 . S
N188 Co171 1.993 . S
N188 N187 1.388 . S
N188 C189 1.346 . S
C189 N188 1.346 . S
C189 C190 1.396 . S
C189 C199 1.510 . S
C190 C186 1.401 . S
C190 C189 1.396 . S
C191 C186 1.499 . S
C191 H192 0.959 . S
C191 H193 0.960 . S
C191 H194 0.961 . S
H192 C191 0.959 . S
H193 C191 0.960 . S
H194 C191 0.961 . S
O195 Co170 1.967 . S
O195 C203 1.258 . S
O196 Co171 1.941 . S
O196 C203 1.266 . S
H197 C199 0.959 . S
H198 C199 0.961 . S
C199 C189 1.510 . S
C199 H197 0.959 . S
C199 H198 0.961 . S
C199 H200 0.960 . S
H200 C199 0.960 . S
H201 N181 0.862 . S
O202 Co170 1.920 . S
O202 C175 1.289 . S
C203 O195 1.258 . S
C203 O196 1.266 . S
Co204 O207 1.970 . S
Co204 N221 1.989 . S
Co204 O229 1.967 . S
Co204 O236 1.920 . S
Co205 O208 1.966 . S
Co205 N214 2.022 . S
Co205 N222 1.993 . S
Co205 O230 1.941 . S
C206 O207 1.258 . S
C206 O208 1.263 . S
O207 Co204 1.970 . S
O207 C206 1.258 . S
O208 Co205 1.966 . S
O208 C206 1.263 . S
C209 O210 1.235 . S
C209 O236 1.289 . S
O210 C209 1.235 . S
C211 C213 1.400 . S
C211 N214 1.351 . S
C211 C216 1.501 . S
C212 C213 1.387 . S
C212 N215 1.341 . S
C213 C211 1.400 . S
C213 C212 1.387 . S
N214 Co205 2.022 . S
N214 C211 1.351 . S
N214 N215 1.365 . S
N215 C212 1.341 . S
N215 N214 1.365 . S
N215 H235 0.862 . S
C216 C211 1.501 . S
C216 H217 0.961 . S
C216 H218 0.961 . S
C216 H219 0.960 . S
H217 C216 0.961 . S
H218 C216 0.961 . S
H219 C216 0.960 . S
C220 N221 1.342 . S
C220 C224 1.401 . S
C220 C225 1.499 . S
N221 Co204 1.989 . S
N221 C220 1.342 . S
N221 N222 1.388 . S
N222 Co205 1.993 . S
N222 N221 1.388 . S
N222 C223 1.346 . S
C223 N222 1.346 . S
C223 C224 1.396 . S
C223 C233 1.510 . S
C224 C220 1.401 . S
C224 C223 1.396 . S
C225 C220 1.499 . S
C225 H226 0.959 . S
C225 H227 0.960 . S
C225 H228 0.961 . S
H226 C225 0.959 . S
H227 C225 0.960 . S
H228 C225 0.961 . S
O229 Co204 1.967 . S
O229 C237 1.258 . S
O230 Co205 1.941 . S
O230 C237 1.266 . S
H231 C233 0.959 . S
H232 C233 0.961 . S
C233 C223 1.510 . S
C233 H231 0.959 . S
C233 H232 0.961 . S
C233 H234 0.960 . S
H234 C233 0.960 . S
H235 N215 0.862 . S
O236 Co204 1.920 . S
O236 C209 1.289 . S
C237 O229 1.258 . S
C237 O230 1.266 . S
Co238 O241 1.970 . S
Co238 N255 1.989 . S
Co238 O263 1.967 . S
Co238 O270 1.920 . S
Co239 O242 1.966 . S
Co239 N248 2.022 . S
Co239 N256 1.993 . S
Co239 O264 1.941 . S
C240 O241 1.258 . S
C240 O242 1.263 . S
O241 Co238 1.970 . S
O241 C240 1.258 . S
O242 Co239 1.966 . S
O242 C240 1.263 . S
C243 O244 1.235 . S
C243 O270 1.289 . S
O244 C243 1.235 . S
C245 C247 1.400 . S
C245 N248 1.351 . S
C245 C250 1.501 . S
C246 C247 1.387 . S
C246 N249 1.341 . S
C247 C245 1.400 . S
C247 C246 1.387 . S
N248 Co239 2.022 . S
N248 C245 1.351 . S
N248 N249 1.365 . S
N249 C246 1.341 . S
N249 N248 1.365 . S
N249 H269 0.862 . S
C250 C245 1.501 . S
C250 H251 0.961 . S
C250 H252 0.961 . S
C250 H253 0.960 . S
H251 C250 0.961 . S
H252 C250 0.961 . S
H253 C250 0.960 . S
C254 N255 1.342 . S
C254 C258 1.401 . S
C254 C259 1.499 . S
N255 Co238 1.989 . S
N255 C254 1.342 . S
N255 N256 1.388 . S
N256 Co239 1.993 . S
N256 N255 1.388 . S
N256 C257 1.346 . S
C257 N256 1.346 . S
C257 C258 1.396 . S
C257 C267 1.510 . S
C258 C254 1.401 . S
C258 C257 1.396 . S
C259 C254 1.499 . S
C259 H260 0.959 . S
C259 H261 0.960 . S
C259 H262 0.961 . S
H260 C259 0.959 . S
H261 C259 0.960 . S
H262 C259 0.961 . S
O263 Co238 1.967 . S
O263 C271 1.258 . S
O264 Co239 1.941 . S
O264 C271 1.266 . S
H265 C267 0.959 . S
H266 C267 0.961 . S
C267 C257 1.510 . S
C267 H265 0.959 . S
C267 H266 0.961 . S
C267 H268 0.960 . S
H268 C267 0.960 . S
H269 N249 0.862 . S
O270 Co238 1.920 . S
O270 C243 1.289 . S
C271 O263 1.258 . S
C271 O264 1.266 . S
Co272 O275 1.970 . S
Co272 N289 1.989 . S
Co272 O297 1.967 . S
Co272 O304 1.920 . S
Co273 O276 1.966 . S
Co273 N282 2.022 . S
Co273 N290 1.993 . S
Co273 O298 1.941 . S
C274 O275 1.258 . S
C274 O276 1.263 . S
O275 Co272 1.970 . S
O275 C274 1.258 . S
O276 Co273 1.966 . S
O276 C274 1.263 . S
C277 O278 1.235 . S
C277 O304 1.289 . S
O278 C277 1.235 . S
C279 C281 1.400 . S
C279 N282 1.351 . S
C279 C284 1.501 . S
C280 C281 1.387 . S
C280 N283 1.341 . S
C281 C279 1.400 . S
C281 C280 1.387 . S
N282 Co273 2.022 . S
N282 C279 1.351 . S
N282 N283 1.365 . S
N283 C280 1.341 . S
N283 N282 1.365 . S
N283 H303 0.862 . S
C284 C279 1.501 . S
C284 H285 0.961 . S
C284 H286 0.961 . S
C284 H287 0.960 . S
H285 C284 0.961 . S
H286 C284 0.961 . S
H287 C284 0.960 . S
C288 N289 1.342 . S
C288 C292 1.401 . S
C288 C293 1.499 . S
N289 Co272 1.989 . S
N289 C288 1.342 . S
N289 N290 1.388 . S
N290 Co273 1.993 . S
N290 N289 1.388 . S
N290 C291 1.346 . S
C291 N290 1.346 . S
C291 C292 1.396 . S
C291 C301 1.510 . S
C292 C288 1.401 . S
C292 C291 1.396 . S
C293 C288 1.499 . S
C293 H294 0.959 . S
C293 H295 0.960 . S
C293 H296 0.961 . S
H294 C293 0.959 . S
H295 C293 0.960 . S
H296 C293 0.961 . S
O297 Co272 1.967 . S
O297 C305 1.258 . S
O298 Co273 1.941 . S
O298 C305 1.266 . S
H299 C301 0.959 . S
H300 C301 0.961 . S
C301 C291 1.510 . S
C301 H299 0.959 . S
C301 H300 0.961 . S
C301 H302 0.960 . S
H302 C301 0.960 . S
H303 N283 0.862 . S
O304 Co272 1.920 . S
O304 C277 1.289 . S
C305 O297 1.258 . S
C305 O298 1.266 . S
Co306 O309 1.970 . S
Co306 N323 1.989 . S
Co306 O331 1.967 . S
Co306 O338 1.920 . S
Co307 O310 1.966 . S
Co307 N316 2.022 . S
Co307 N324 1.993 . S
Co307 O332 1.941 . S
C308 O309 1.258 . S
C308 O310 1.263 . S
O309 Co306 1.970 . S
O309 C308 1.258 . S
O310 Co307 1.966 . S
O310 C308 1.263 . S
C311 O312 1.235 . S
C311 O338 1.289 . S
O312 C311 1.235 . S
C313 C315 1.400 . S
C313 N316 1.351 1_455 S
C313 C318 1.501 . S
C314 C315 1.387 . S
C314 N317 1.341 1_455 S
C315 C313 1.400 . S
C315 C314 1.387 . S
N316 Co307 2.022 . S
N316 C313 1.351 1_655 S
N316 N317 1.365 . S
N317 C314 1.341 1_655 S
N317 N316 1.365 . S
N317 H337 0.862 . S
C318 C313 1.501 . S
C318 H319 0.961 1_455 S
C318 H320 0.961 1_455 S
C318 H321 0.960 . S
H319 C318 0.961 1_655 S
H320 C318 0.961 1_655 S
H321 C318 0.960 . S
C322 N323 1.342 . S
C322 C326 1.401 . S
C322 C327 1.499 . S
N323 Co306 1.989 . S
N323 C322 1.342 . S
N323 N324 1.388 . S
N324 Co307 1.993 . S
N324 N323 1.388 . S
N324 C325 1.346 . S
C325 N324 1.346 . S
C325 C326 1.396 . S
C325 C335 1.510 . S
C326 C322 1.401 . S
C326 C325 1.396 . S
C327 C322 1.499 . S
C327 H328 0.959 . S
C327 H329 0.960 . S
C327 H330 0.961 . S
H328 C327 0.959 . S
H329 C327 0.960 . S
H330 C327 0.961 . S
O331 Co306 1.967 . S
O331 C339 1.258 . S
O332 Co307 1.941 . S
O332 C339 1.266 . S
H333 C335 0.959 . S
H334 C335 0.961 . S
C335 C325 1.510 . S
C335 H333 0.959 . S
C335 H334 0.961 . S
C335 H336 0.960 . S
H336 C335 0.960 . S
H337 N317 0.862 . S
O338 Co306 1.920 . S
O338 C311 1.289 . S
C339 O331 1.258 . S
C339 O332 1.266 . S
Co340 O343 1.970 . S
Co340 N357 1.989 . S
Co340 O365 1.967 . S
Co340 O372 1.920 . S
Co341 O344 1.966 . S
Co341 N350 2.022 . S
Co341 N358 1.993 . S
Co341 O366 1.941 . S
C342 O343 1.258 . S
C342 O344 1.263 . S
O343 Co340 1.970 . S
O343 C342 1.258 . S
O344 Co341 1.966 . S
O344 C342 1.263 . S
C345 O346 1.235 . S
C345 O372 1.289 . S
O346 C345 1.235 . S
C347 C349 1.400 . S
C347 N350 1.351 . S
C347 C352 1.501 . S
C348 C349 1.387 . S
C348 N351 1.341 . S
C349 C347 1.400 . S
C349 C348 1.387 . S
N350 Co341 2.022 . S
N350 C347 1.351 . S
N350 N351 1.365 . S
N351 C348 1.341 . S
N351 N350 1.365 . S
N351 H371 0.862 . S
C352 C347 1.501 . S
C352 H353 0.961 . S
C352 H354 0.961 . S
C352 H355 0.960 . S
H353 C352 0.961 . S
H354 C352 0.961 . S
H355 C352 0.960 . S
C356 N357 1.342 . S
C356 C360 1.401 . S
C356 C361 1.499 . S
N357 Co340 1.989 . S
N357 C356 1.342 . S
N357 N358 1.388 . S
N358 Co341 1.993 . S
N358 N357 1.388 . S
N358 C359 1.346 . S
C359 N358 1.346 . S
C359 C360 1.396 . S
C359 C369 1.510 . S
C360 C356 1.401 . S
C360 C359 1.396 . S
C361 C356 1.499 . S
C361 H362 0.959 . S
C361 H363 0.960 . S
C361 H364 0.961 . S
H362 C361 0.959 . S
H363 C361 0.960 . S
H364 C361 0.961 . S
O365 Co340 1.967 . S
O365 C373 1.258 . S
O366 Co341 1.941 . S
O366 C373 1.266 . S
H367 C369 0.959 . S
H368 C369 0.961 . S
C369 C359 1.510 . S
C369 H367 0.959 . S
C369 H368 0.961 . S
C369 H370 0.960 . S
H370 C369 0.960 . S
H371 N351 0.862 . S
O372 Co340 1.920 . S
O372 C345 1.289 . S
C373 O365 1.258 . S
C373 O366 1.266 . S
Co374 O377 1.970 . S
Co374 N391 1.989 . S
Co374 O399 1.967 . S
Co374 O406 1.920 . S
Co375 O378 1.966 . S
Co375 N384 2.022 . S
Co375 N392 1.993 . S
Co375 O400 1.941 . S
C376 O377 1.258 . S
C376 O378 1.263 . S
O377 Co374 1.970 . S
O377 C376 1.258 . S
O378 Co375 1.966 . S
O378 C376 1.263 . S
C379 O380 1.235 . S
C379 O406 1.289 . S
O380 C379 1.235 . S
C381 C383 1.381 1_545 S
C381 N384 1.363 . S
C381 C386 1.509 1_545 S
C382 C383 1.387 . S
C382 N385 1.341 1_565 S
C383 C381 1.381 1_565 S
C383 C382 1.387 . S
N384 Co375 2.022 . S
N384 C381 1.363 . S
N384 N385 1.365 . S
N385 C382 1.341 1_545 S
N385 N384 1.365 . S
N385 H405 0.862 . S
C386 C381 1.509 1_565 S
C386 H387 0.961 1_565 S
C386 H388 0.961 1_565 S
C386 H389 0.960 . S
H387 C386 0.961 1_545 S
H388 C386 0.961 1_545 S
H389 C386 0.960 . S
C390 N391 1.342 . S
C390 C394 1.401 . S
C390 C395 1.499 . S
N391 Co374 1.989 . S
N391 C390 1.342 . S
N391 N392 1.388 . S
N392 Co375 1.993 . S
N392 N391 1.388 . S
N392 C393 1.346 . S
C393 N392 1.346 . S
C393 C394 1.396 . S
C393 C403 1.510 . S
C394 C390 1.401 . S
C394 C393 1.396 . S
C395 C390 1.499 . S
C395 H396 0.959 . S
C395 H397 0.960 . S
C395 H398 0.961 . S
H396 C395 0.959 . S
H397 C395 0.960 . S
H398 C395 0.961 . S
O399 Co374 1.967 . S
O399 C407 1.258 . S
O400 Co375 1.941 . S
O400 C407 1.266 . S
H401 C403 0.959 . S
H402 C403 0.961 . S
C403 C393 1.510 . S
C403 H401 0.959 . S
C403 H402 0.961 . S
C403 H404 0.960 . S
H404 C403 0.960 . S
H405 N385 0.862 . S
O406 Co374 1.920 . S
O406 C379 1.289 . S
C407 O399 1.258 . S
C407 O400 1.266 . S
Co408 O411 1.970 . S
Co408 N425 1.989 . S
Co408 O433 1.967 . S
Co408 O440 1.920 . S
Co409 O412 1.966 . S
Co409 N418 2.022 . S
Co409 N426 1.993 . S
Co409 O434 1.941 . S
C410 O411 1.258 . S
C410 O412 1.263 . S
O411 Co408 1.970 . S
O411 C410 1.258 . S
O412 Co409 1.966 . S
O412 C410 1.263 . S
C413 O414 1.235 . S
C413 O440 1.289 . S
O414 C413 1.235 . S
C415 C417 1.400 . S
C415 N418 1.351 1_545 S
C415 C420 1.501 . S
C416 C417 1.387 . S
C416 N419 1.341 1_545 S
C417 C415 1.400 . S
C417 C416 1.387 . S
N418 Co409 2.022 . S
N418 C415 1.351 1_565 S
N418 N419 1.365 . S
N419 C416 1.341 1_565 S
N419 N418 1.365 . S
N419 H439 0.862 . S
C420 C415 1.501 . S
C420 H421 0.961 1_545 S
C420 H422 0.961 1_545 S
C420 H423 0.960 . S
H421 C420 0.961 1_565 S
H422 C420 0.961 1_565 S
H423 C420 0.960 . S
C424 N425 1.342 . S
C424 C428 1.401 . S
C424 C429 1.499 . S
N425 Co408 1.989 . S
N425 C424 1.342 . S
N425 N426 1.388 . S
N426 Co409 1.993 . S
N426 N425 1.388 . S
N426 C427 1.346 . S
C427 N426 1.346 . S
C427 C428 1.396 . S
C427 C437 1.510 . S
C428 C424 1.401 . S
C428 C427 1.396 . S
C429 C424 1.499 . S
C429 H430 0.959 . S
C429 H431 0.960 . S
C429 H432 0.961 . S
H430 C429 0.959 . S
H431 C429 0.960 . S
H432 C429 0.961 . S
O433 Co408 1.967 . S
O433 C441 1.258 . S
O434 Co409 1.941 . S
O434 C441 1.266 . S
H435 C437 0.959 . S
H436 C437 0.961 . S
C437 C427 1.510 . S
C437 H435 0.959 . S
C437 H436 0.961 . S
C437 H438 0.960 . S
H438 C437 0.960 . S
H439 N419 0.862 . S
O440 Co408 1.920 . S
O440 C413 1.289 . S
C441 O433 1.258 . S
C441 O434 1.266 . S
Co442 O445 1.970 . S
Co442 N459 1.989 . S
Co442 O467 1.967 . S
Co442 O474 1.920 . S
Co443 O446 1.966 . S
Co443 N452 2.022 . S
Co443 N460 1.993 . S
Co443 O468 1.941 . S
C444 O445 1.258 . S
C444 O446 1.263 . S
O445 Co442 1.970 . S
O445 C444 1.258 . S
O446 Co443 1.966 . S
O446 C444 1.263 . S
C447 O448 1.235 . S
C447 O474 1.289 . S
O448 C447 1.235 . S
C449 C451 1.381 1_455 S
C449 N452 1.363 . S
C449 C454 1.509 1_455 S
C450 C451 1.387 . S
C450 N453 1.341 1_655 S
C451 C449 1.381 1_655 S
C451 C450 1.387 . S
N452 Co443 2.022 . S
N452 C449 1.363 . S
N452 N453 1.365 . S
N453 C450 1.341 1_455 S
N453 N452 1.365 . S
N453 H473 0.862 . S
C454 C449 1.509 1_655 S
C454 H455 0.961 1_655 S
C454 H456 0.961 1_655 S
C454 H457 0.960 . S
H455 C454 0.961 1_455 S
H456 C454 0.961 1_455 S
H457 C454 0.960 . S
C458 N459 1.342 . S
C458 C462 1.401 . S
C458 C463 1.499 . S
N459 Co442 1.989 . S
N459 C458 1.342 . S
N459 N460 1.388 . S
N460 Co443 1.993 . S
N460 N459 1.388 . S
N460 C461 1.346 . S
C461 N460 1.346 . S
C461 C462 1.396 . S
C461 C471 1.510 . S
C462 C458 1.401 . S
C462 C461 1.396 . S
C463 C458 1.499 . S
C463 H464 0.959 . S
C463 H465 0.960 . S
C463 H466 0.961 . S
H464 C463 0.959 . S
H465 C463 0.960 . S
H466 C463 0.961 . S
O467 Co442 1.967 . S
O467 C475 1.258 . S
O468 Co443 1.941 . S
O468 C475 1.266 . S
H469 C471 0.959 . S
H470 C471 0.961 . S
C471 C461 1.510 . S
C471 H469 0.959 . S
C471 H470 0.961 . S
C471 H472 0.960 . S
H472 C471 0.960 . S
H473 N453 0.862 . S
O474 Co442 1.920 . S
O474 C447 1.289 . S
C475 O467 1.258 . S
C475 O468 1.266 . S
Co476 O479 1.970 . S
Co476 N493 1.989 . S
Co476 O501 1.967 . S
Co476 O508 1.920 . S
Co477 O480 1.966 . S
Co477 N486 2.022 . S
Co477 N494 1.993 . S
Co477 O502 1.941 . S
C478 O479 1.258 . S
C478 O480 1.263 . S
O479 Co476 1.970 . S
O479 C478 1.258 . S
O480 Co477 1.966 . S
O480 C478 1.263 . S
C481 O482 1.235 . S
C481 O508 1.289 . S
O482 C481 1.235 . S
C483 C485 1.400 . S
C483 N486 1.351 . S
C483 C488 1.501 . S
C484 C485 1.387 . S
C484 N487 1.341 . S
C485 C483 1.400 . S
C485 C484 1.387 . S
N486 Co477 2.022 . S
N486 C483 1.351 . S
N486 N487 1.365 . S
N487 C484 1.341 . S
N487 N486 1.365 . S
N487 H507 0.862 . S
C488 C483 1.501 . S
C488 H489 0.961 . S
C488 H490 0.961 . S
C488 H491 0.960 . S
H489 C488 0.961 . S
H490 C488 0.961 . S
H491 C488 0.960 . S
C492 N493 1.342 . S
C492 C496 1.401 . S
C492 C497 1.499 . S
N493 Co476 1.989 . S
N493 C492 1.342 . S
N493 N494 1.388 . S
N494 Co477 1.993 . S
N494 N493 1.388 . S
N494 C495 1.346 . S
C495 N494 1.346 . S
C495 C496 1.396 . S
C495 C505 1.510 . S
C496 C492 1.401 . S
C496 C495 1.396 . S
C497 C492 1.499 . S
C497 H498 0.959 . S
C497 H499 0.960 . S
C497 H500 0.961 . S
H498 C497 0.959 . S
H499 C497 0.960 . S
H500 C497 0.961 . S
O501 Co476 1.967 . S
O501 C509 1.258 . S
O502 Co477 1.941 . S
O502 C509 1.266 . S
H503 C505 0.959 . S
H504 C505 0.961 . S
C505 C495 1.510 . S
C505 H503 0.959 . S
C505 H504 0.961 . S
C505 H506 0.960 . S
H506 C505 0.960 . S
H507 N487 0.862 . S
O508 Co476 1.920 . S
O508 C481 1.289 . S
C509 O501 1.258 . S
C509 O502 1.266 . S
Co510 O513 1.970 . S
Co510 N527 1.989 . S
Co510 O535 1.967 . S
Co510 O542 1.920 . S
Co511 O514 1.966 . S
Co511 N520 2.022 . S
Co511 N528 1.993 . S
Co511 O536 1.941 . S
C512 O513 1.258 . S
C512 O514 1.263 . S
O513 Co510 1.970 . S
O513 C512 1.258 . S
O514 Co511 1.966 . S
O514 C512 1.263 . S
C515 O516 1.235 . S
C515 O542 1.289 . S
O516 C515 1.235 . S
C517 C519 1.400 . S
C517 N520 1.351 . S
C517 C522 1.501 . S
C518 C519 1.387 . S
C518 N521 1.341 . S
C519 C517 1.400 . S
C519 C518 1.387 . S
N520 Co511 2.022 . S
N520 C517 1.351 . S
N520 N521 1.365 . S
N521 C518 1.341 . S
N521 N520 1.365 . S
N521 H541 0.862 . S
C522 C517 1.501 . S
C522 H523 0.961 . S
C522 H524 0.961 . S
C522 H525 0.960 . S
H523 C522 0.961 . S
H524 C522 0.961 . S
H525 C522 0.960 . S
C526 N527 1.342 . S
C526 C530 1.401 . S
C526 C531 1.499 . S
N527 Co510 1.989 . S
N527 C526 1.342 . S
N527 N528 1.388 . S
N528 Co511 1.993 . S
N528 N527 1.388 . S
N528 C529 1.346 . S
C529 N528 1.346 . S
C529 C530 1.396 . S
C529 C539 1.510 . S
C530 C526 1.401 . S
C530 C529 1.396 . S
C531 C526 1.499 . S
C531 H532 0.959 . S
C531 H533 0.960 . S
C531 H534 0.961 . S
H532 C531 0.959 . S
H533 C531 0.960 . S
H534 C531 0.961 . S
O535 Co510 1.967 . S
O535 C543 1.258 . S
O536 Co511 1.941 . S
O536 C543 1.266 . S
H537 C539 0.959 . S
H538 C539 0.961 . S
C539 C529 1.510 . S
C539 H537 0.959 . S
C539 H538 0.961 . S
C539 H540 0.960 . S
H540 C539 0.960 . S
H541 N521 0.862 . S
O542 Co510 1.920 . S
O542 C515 1.289 . S
C543 O535 1.258 . S
C543 O536 1.266 . S
Co544 O547 1.970 . S
Co544 N561 1.989 . S
Co544 O569 1.967 . S
Co544 O576 1.920 . S
Co545 O548 1.966 . S
Co545 N554 2.022 . S
Co545 N562 1.993 . S
Co545 O570 1.941 . S
C546 O547 1.258 . S
C546 O548 1.263 . S
O547 Co544 1.970 . S
O547 C546 1.258 . S
O548 Co545 1.966 . S
O548 C546 1.263 . S
C549 O550 1.235 . S
C549 O576 1.289 . S
O550 C549 1.235 . S
C551 C553 1.400 . S
C551 N554 1.351 . S
C551 C556 1.501 . S
C552 C553 1.387 . S
C552 N555 1.341 . S
C553 C551 1.400 . S
C553 C552 1.387 . S
N554 Co545 2.022 . S
N554 C551 1.351 . S
N554 N555 1.365 . S
N555 C552 1.341 . S
N555 N554 1.365 . S
N555 H575 0.862 . S
C556 C551 1.501 . S
C556 H557 0.961 . S
C556 H558 0.961 . S
C556 H559 0.960 . S
H557 C556 0.961 . S
H558 C556 0.961 . S
H559 C556 0.960 . S
C560 N561 1.342 . S
C560 C564 1.401 . S
C560 C565 1.499 . S
N561 Co544 1.989 . S
N561 C560 1.342 . S
N561 N562 1.388 . S
N562 Co545 1.993 . S
N562 N561 1.388 . S
N562 C563 1.346 . S
C563 N562 1.346 . S
C563 C564 1.396 . S
C563 C573 1.510 . S
C564 C560 1.401 . S
C564 C563 1.396 . S
C565 C560 1.499 . S
C565 H566 0.959 . S
C565 H567 0.960 . S
C565 H568 0.961 . S
H566 C565 0.959 . S
H567 C565 0.960 . S
H568 C565 0.961 . S
O569 Co544 1.967 . S
O569 C577 1.258 . S
O570 Co545 1.941 . S
O570 C577 1.266 . S
H571 C573 0.959 . S
H572 C573 0.961 . S
C573 C563 1.510 . S
C573 H571 0.959 . S
C573 H572 0.961 . S
C573 H574 0.960 . S
H574 C573 0.960 . S
H575 N555 0.862 . S
O576 Co544 1.920 . S
O576 C549 1.289 . S
C577 O569 1.258 . S
C577 O570 1.266 . S
Co578 O581 1.970 . S
Co578 N595 1.989 . S
Co578 O603 1.967 . S
Co578 O610 1.920 . S
Co579 O582 1.966 . S
Co579 N588 2.022 . S
Co579 N596 1.993 . S
Co579 O604 1.941 . S
C580 O581 1.258 . S
C580 O582 1.263 . S
O581 Co578 1.970 . S
O581 C580 1.258 . S
O582 Co579 1.966 . S
O582 C580 1.263 . S
C583 O584 1.235 . S
C583 O610 1.289 . S
O584 C583 1.235 . S
C585 C587 1.400 . S
C585 N588 1.351 . S
C585 C590 1.501 . S
C586 C587 1.387 . S
C586 N589 1.341 . S
C587 C585 1.400 . S
C587 C586 1.387 . S
N588 Co579 2.022 . S
N588 C585 1.351 . S
N588 N589 1.365 . S
N589 C586 1.341 . S
N589 N588 1.365 . S
N589 H609 0.862 . S
C590 C585 1.501 . S
C590 H591 0.961 . S
C590 H592 0.961 . S
C590 H593 0.960 . S
H591 C590 0.961 . S
H592 C590 0.961 . S
H593 C590 0.960 . S
C594 N595 1.342 . S
C594 C598 1.401 . S
C594 C599 1.499 . S
N595 Co578 1.989 . S
N595 C594 1.342 . S
N595 N596 1.388 . S
N596 Co579 1.993 . S
N596 N595 1.388 . S
N596 C597 1.346 . S
C597 N596 1.346 . S
C597 C598 1.396 . S
C597 C607 1.510 . S
C598 C594 1.401 . S
C598 C597 1.396 . S
C599 C594 1.499 . S
C599 H600 0.959 . S
C599 H601 0.960 . S
C599 H602 0.961 . S
H600 C599 0.959 . S
H601 C599 0.960 . S
H602 C599 0.961 . S
O603 Co578 1.967 . S
O603 C611 1.258 . S
O604 Co579 1.941 . S
O604 C611 1.266 . S
H605 C607 0.959 . S
H606 C607 0.961 . S
C607 C597 1.510 . S
C607 H605 0.959 . S
C607 H606 0.961 . S
C607 H608 0.960 . S
H608 C607 0.960 . S
H609 N589 0.862 . S
O610 Co578 1.920 . S
O610 C583 1.289 . S
C611 O603 1.258 . S
C611 O604 1.266 . S
H612 C618 0.930 . S
H613 C622 0.930 . S
H614 C627 0.929 . S
H615 C625 0.929 . S
H616 C620 0.929 . S
H617 C626 0.929 . S
C618 H612 0.930 . S
C618 C619 1.367 . S
C618 C626 1.378 . S
C619 C618 1.367 . S
C619 C627 1.433 . S
C620 H616 0.929 . S
C620 C622 1.378 . S
C620 C624 1.350 . S
C621 C624 1.463 . S
C621 C626 1.350 . S
C621 N629 1.427 . S
C622 H613 0.930 . S
C622 C620 1.378 . S
C622 C623 1.367 . S
C623 C622 1.367 . S
C623 C625 1.433 . S
C624 C620 1.350 . S
C624 C621 1.463 . S
C624 N628 1.427 . S
C625 H615 0.929 . S
C625 C623 1.433 . S
C625 N628 1.384 . S
C626 H617 0.929 . S
C626 C618 1.378 . S
C626 C621 1.350 . S
C627 H614 0.929 . S
C627 C619 1.433 . S
C627 N629 1.384 . S
N628 C624 1.427 . S
N628 C625 1.384 . S
N629 C621 1.427 . S
N629 C627 1.384 . S
H630 C636 0.930 . S
H631 C640 0.930 . S
H632 C645 0.929 . S
H633 C643 0.929 . S
H634 C638 0.929 . S
H635 C644 0.929 . S
C636 H630 0.930 . S
C636 C637 1.367 . S
C636 C644 1.378 . S
C637 C636 1.367 . S
C637 C645 1.433 . S
C638 H634 0.929 . S
C638 C640 1.378 . S
C638 C642 1.350 . S
C639 C642 1.463 . S
C639 C644 1.350 . S
C639 N647 1.427 . S
C640 H631 0.930 . S
C640 C638 1.378 . S
C640 C641 1.367 . S
C641 C640 1.367 . S
C641 C643 1.433 . S
C642 C638 1.350 . S
C642 C639 1.463 . S
C642 N646 1.427 . S
C643 H633 0.929 . S
C643 C641 1.433 . S
C643 N646 1.384 . S
C644 H635 0.929 . S
C644 C636 1.378 . S
C644 C639 1.350 . S
C645 H632 0.929 . S
C645 C637 1.433 . S
C645 N647 1.384 . S
N646 C642 1.427 . S
N646 C643 1.384 . S
N647 C639 1.427 . S
N647 C645 1.384 . S
H648 C654 0.930 . S
H649 C658 0.930 . S
H650 C663 0.929 . S
H651 C661 0.929 . S
H652 C656 0.929 . S
H653 C662 0.929 . S
C654 H648 0.930 . S
C654 C655 1.367 . S
C654 C662 1.378 . S
C655 C654 1.367 . S
C655 C663 1.433 . S
C656 H652 0.929 . S
C656 C658 1.378 . S
C656 C660 1.350 . S
C657 C660 1.463 . S
C657 C662 1.350 . S
C657 N665 1.427 . S
C658 H649 0.930 . S
C658 C656 1.378 . S
C658 C659 1.367 . S
C659 C658 1.367 . S
C659 C661 1.433 . S
C660 C656 1.350 . S
C660 C657 1.463 . S
C660 N664 1.427 . S
C661 H651 0.929 . S
C661 C659 1.433 . S
C661 N664 1.384 . S
C662 H653 0.929 . S
C662 C654 1.378 . S
C662 C657 1.350 . S
C663 H650 0.929 . S
C663 C655 1.433 . S
C663 N665 1.384 . S
N664 C660 1.427 . S
N664 C661 1.384 . S
N665 C657 1.427 . S
N665 C663 1.384 . S
H666 C672 0.930 . S
H667 C676 0.930 . S
H668 C681 0.929 . S
H669 C679 0.929 . S
H670 C674 0.929 . S
H671 C680 0.929 . S
C672 H666 0.930 . S
C672 C673 1.367 . S
C672 C680 1.378 . S
C673 C672 1.367 . S
C673 C681 1.433 . S
C674 H670 0.929 . S
C674 C676 1.378 . S
C674 C678 1.350 . S
C675 C678 1.463 . S
C675 C680 1.350 . S
C675 N683 1.427 . S
C676 H667 0.930 . S
C676 C674 1.378 . S
C676 C677 1.367 . S
C677 C676 1.367 . S
C677 C679 1.433 . S
C678 C674 1.350 . S
C678 C675 1.463 . S
C678 N682 1.427 . S
C679 H669 0.929 . S
C679 C677 1.433 . S
C679 N682 1.384 . S
C680 H671 0.929 . S
C680 C672 1.378 . S
C680 C675 1.350 . S
C681 H668 0.929 . S
C681 C673 1.433 . S
C681 N683 1.384 . S
N682 C678 1.427 . S
N682 C679 1.384 . S
N683 C675 1.427 . S
N683 C681 1.384 . S
H684 C690 0.930 . S
H685 C694 0.930 . S
H686 C699 0.929 . S
H687 C697 0.929 . S
H688 C692 0.929 . S
H689 C698 0.929 . S
C690 H684 0.930 . S
C690 C691 1.367 . S
C690 C698 1.378 . S
C691 C690 1.367 . S
C691 C699 1.433 . S
C692 H688 0.929 . S
C692 C694 1.378 . S
C692 C696 1.350 . S
C693 C696 1.463 . S
C693 C698 1.350 . S
C693 N701 1.427 . S
C694 H685 0.930 . S
C694 C692 1.378 . S
C694 C695 1.367 . S
C695 C694 1.367 . S
C695 C697 1.433 . S
C696 C692 1.350 . S
C696 C693 1.463 . S
C696 N700 1.427 . S
C697 H687 0.929 . S
C697 C695 1.433 . S
C697 N700 1.384 . S
C698 H689 0.929 . S
C698 C690 1.378 . S
C698 C693 1.350 . S
C699 H686 0.929 . S
C699 C691 1.433 . S
C699 N701 1.384 . S
N700 C696 1.427 . S
N700 C697 1.384 . S
N701 C693 1.427 . S
N701 C699 1.384 . S
H702 C708 0.930 1_455 S
H703 C712 0.930 . S
H704 C717 0.929 . S
H705 C715 0.929 . S
H706 C710 0.929 . S
H707 C716 0.929 . S
C708 H702 0.930 1_655 S
C708 C709 1.367 . S
C708 C716 1.378 . S
C709 C708 1.367 . S
C709 C717 1.433 . S
C710 H706 0.929 . S
C710 C712 1.378 . S
C710 C714 1.350 . S
C711 C714 1.463 . S
C711 C716 1.350 . S
C711 N719 1.427 . S
C712 H703 0.930 . S
C712 C710 1.378 . S
C712 C713 1.367 . S
C713 C712 1.367 . S
C713 C715 1.433 . S
C714 C710 1.350 . S
C714 C711 1.463 . S
C714 N718 1.427 . S
C715 H705 0.929 . S
C715 C713 1.433 . S
C715 N718 1.384 . S
C716 H707 0.929 . S
C716 C708 1.378 . S
C716 C711 1.350 . S
C717 H704 0.929 . S
C717 C709 1.433 . S
C717 N719 1.384 . S
N718 C714 1.427 . S
N718 C715 1.384 . S
N719 C711 1.427 . S
N719 C717 1.384 . S
H720 C726 0.930 . S
H721 C730 0.930 . S
H722 C735 0.929 . S
H723 C733 0.929 . S
H724 C728 0.929 . S
H725 C734 0.929 . S
C726 H720 0.930 . S
C726 C727 1.367 . S
C726 C734 1.378 . S
C727 C726 1.367 . S
C727 C735 1.433 . S
C728 H724 0.929 . S
C728 C730 1.378 . S
C728 C732 1.350 . S
C729 C732 1.463 . S
C729 C734 1.350 . S
C729 N737 1.427 . S
C730 H721 0.930 . S
C730 C728 1.378 . S
C730 C731 1.367 . S
C731 C730 1.367 . S
C731 C733 1.433 . S
C732 C728 1.350 . S
C732 C729 1.463 . S
C732 N736 1.427 . S
C733 H723 0.929 . S
C733 C731 1.433 . S
C733 N736 1.384 . S
C734 H725 0.929 . S
C734 C726 1.378 . S
C734 C729 1.350 . S
C735 H722 0.929 . S
C735 C727 1.433 . S
C735 N737 1.384 . S
N736 C732 1.427 . S
N736 C733 1.384 . S
N737 C729 1.427 . S
N737 C735 1.384 . S
H738 C744 0.930 . S
H739 C748 0.930 . S
H740 C753 0.929 . S
H741 C751 0.929 . S
H742 C746 0.929 . S
H743 C752 0.929 . S
C744 H738 0.930 . S
C744 C745 1.367 . S
C744 C752 1.378 . S
C745 C744 1.367 . S
C745 C753 1.433 1_565 S
C746 H742 0.929 . S
C746 C748 1.378 . S
C746 C750 1.350 . S
C747 C750 1.463 . S
C747 C752 1.350 1_545 S
C747 N755 1.427 . S
C748 H739 0.930 . S
C748 C746 1.378 . S
C748 C749 1.367 . S
C749 C748 1.367 . S
C749 C751 1.433 . S
C750 C746 1.350 . S
C750 C747 1.463 . S
C750 N754 1.427 . S
C751 H741 0.929 . S
C751 C749 1.433 . S
C751 N754 1.384 . S
C752 H743 0.929 . S
C752 C744 1.378 . S
C752 C747 1.350 1_565 S
C753 H740 0.929 . S
C753 C745 1.433 1_545 S
C753 N755 1.384 . S
N754 C750 1.427 . S
N754 C751 1.384 . S
N755 C747 1.427 . S
N755 C753 1.384 . S
H756 C762 0.930 . S
H757 C766 0.930 . S
H758 C771 0.929 . S
H759 C769 0.929 . S
H760 C764 0.929 . S
H761 C770 0.929 . S
C762 H756 0.930 . S
C762 C763 1.367 . S
C762 C770 1.378 1_455 S
C763 C762 1.367 . S
C763 C771 1.433 . S
C764 H760 0.929 . S
C764 C766 1.378 . S
C764 C768 1.350 . S
C765 C768 1.463 . S
C765 C770 1.350 . S
C765 N773 1.427 1_655 S
C766 H757 0.930 . S
C766 C764 1.378 . S
C766 C767 1.367 . S
C767 C766 1.367 . S
C767 C769 1.433 . S
C768 C764 1.350 . S
C768 C765 1.463 . S
C768 N772 1.427 . S
C769 H759 0.929 . S
C769 C767 1.433 . S
C769 N772 1.384 . S
C770 H761 0.929 . S
C770 C762 1.378 1_655 S
C770 C765 1.350 . S
C771 H758 0.929 . S
C771 C763 1.433 . S
C771 N773 1.384 . S
N772 C768 1.427 . S
N772 C769 1.384 . S
N773 C765 1.427 1_455 S
N773 C771 1.384 . S
H774 C780 0.930 . S
H775 C784 0.930 . S
H776 C789 0.929 . S
H777 C787 0.929 . S
H778 C782 0.929 . S
H779 C788 0.929 . S
C780 H774 0.930 . S
C780 C781 1.367 . S
C780 C788 1.378 . S
C781 C780 1.367 . S
C781 C789 1.433 . S
C782 H778 0.929 . S
C782 C784 1.378 . S
C782 C786 1.350 . S
C783 C786 1.463 . S
C783 C788 1.350 . S
C783 N791 1.427 . S
C784 H775 0.930 . S
C784 C782 1.378 . S
C784 C785 1.367 . S
C785 C784 1.367 . S
C785 C787 1.433 . S
C786 C782 1.350 . S
C786 C783 1.463 . S
C786 N790 1.427 . S
C787 H777 0.929 . S
C787 C785 1.433 . S
C787 N790 1.384 . S
C788 H779 0.929 . S
C788 C780 1.378 . S
C788 C783 1.350 . S
C789 H776 0.929 . S
C789 C781 1.433 . S
C789 N791 1.384 . S
N790 C786 1.427 . S
N790 C787 1.384 . S
N791 C783 1.427 . S
N791 C789 1.384 . S
H792 C798 0.930 . S
H793 C802 0.930 . S
H794 C807 0.929 . S
H795 C805 0.929 . S
H796 C800 0.929 . S
H797 C806 0.929 . S
C798 H792 0.930 . S
C798 C799 1.367 . S
C798 C806 1.378 . S
C799 C798 1.367 . S
C799 C807 1.433 . S
C800 H796 0.929 . S
C800 C802 1.378 . S
C800 C804 1.350 1_545 S
C801 C804 1.463 . S
C801 C806 1.350 . S
C801 N809 1.427 . S
C802 H793 0.930 . S
C802 C800 1.378 . S
C802 C803 1.367 . S
C803 C802 1.367 . S
C803 C805 1.433 1_545 S
C804 C800 1.350 1_565 S
C804 C801 1.463 . S
C804 N808 1.427 . S
C805 H795 0.929 . S
C805 C803 1.433 1_565 S
C805 N808 1.384 . S
C806 H797 0.929 . S
C806 C798 1.378 . S
C806 C801 1.350 . S
C807 H794 0.929 . S
C807 C799 1.433 . S
C807 N809 1.384 . S
N808 C804 1.427 . S
N808 C805 1.384 . S
N809 C801 1.427 . S
N809 C807 1.384 . S
H810 C816 0.930 . S
H811 C820 0.930 . S
H812 C825 0.929 . S
H813 C823 0.929 . S
H814 C818 0.929 . S
H815 C824 0.929 . S
C816 H810 0.930 . S
C816 C817 1.367 . S
C816 C824 1.378 . S
C817 C816 1.367 . S
C817 C825 1.433 . S
C818 H814 0.929 . S
C818 C820 1.378 1_455 S
C818 C822 1.350 . S
C819 C822 1.463 . S
C819 C824 1.350 . S
C819 N827 1.427 . S
C820 H811 0.930 . S
C820 C818 1.378 1_655 S
C820 C821 1.367 . S
C821 C820 1.367 . S
C821 C823 1.433 . S
C822 C818 1.350 . S
C822 C819 1.463 . S
C822 N826 1.427 1_455 S
C823 H813 0.929 . S
C823 C821 1.433 . S
C823 N826 1.384 . S
C824 H815 0.929 . S
C824 C816 1.378 . S
C824 C819 1.350 . S
C825 H812 0.929 . S
C825 C817 1.433 . S
C825 N827 1.384 . S
N826 C822 1.427 1_655 S
N826 C823 1.384 . S
N827 C819 1.427 . S
N827 C825 1.384 . S
H828 C834 0.930 . S
H829 C838 0.930 . S
H830 C843 0.929 . S
H831 C841 0.929 . S
H832 C836 0.929 . S
H833 C842 0.929 . S
C834 H828 0.930 . S
C834 C835 1.367 . S
C834 C842 1.378 . S
C835 C834 1.367 . S
C835 C843 1.433 . S
C836 H832 0.929 . S
C836 C838 1.378 . S
C836 C840 1.350 . S
C837 C840 1.463 1_455 S
C837 C842 1.350 . S
C837 N845 1.427 . S
C838 H829 0.930 . S
C838 C836 1.378 . S
C838 C839 1.367 . S
C839 C838 1.367 . S
C839 C841 1.433 . S
C840 C836 1.350 . S
C840 C837 1.463 1_655 S
C840 N844 1.427 . S
C841 H831 0.929 . S
C841 C839 1.433 . S
C841 N844 1.384 . S
C842 H833 0.929 . S
C842 C834 1.378 . S
C842 C837 1.350 . S
C843 H830 0.929 . S
C843 C835 1.433 . S
C843 N845 1.384 . S
N844 C840 1.427 . S
N844 C841 1.384 . S
N845 C837 1.427 . S
N845 C843 1.384 . S
H846 C852 0.930 . S
H847 C856 0.930 . S
H848 C861 0.929 . S
H849 C859 0.929 . S
H850 C854 0.929 . S
H851 C860 0.929 . S
C852 H846 0.930 . S
C852 C853 1.367 . S
C852 C860 1.378 . S
C853 C852 1.367 . S
C853 C861 1.433 . S
C854 H850 0.929 . S
C854 C856 1.378 . S
C854 C858 1.350 . S
C855 C858 1.463 . S
C855 C860 1.350 . S
C855 N863 1.427 . S
C856 H847 0.930 . S
C856 C854 1.378 . S
C856 C857 1.367 . S
C857 C856 1.367 . S
C857 C859 1.433 . S
C858 C854 1.350 . S
C858 C855 1.463 . S
C858 N862 1.427 . S
C859 H849 0.929 . S
C859 C857 1.433 . S
C859 N862 1.384 . S
C860 H851 0.929 . S
C860 C852 1.378 . S
C860 C855 1.350 . S
C861 H848 0.929 . S
C861 C853 1.433 . S
C861 N863 1.384 . S
N862 C858 1.427 . S
N862 C859 1.384 . S
N863 C855 1.427 . S
N863 C861 1.384 . S
H864 C870 0.930 . S
H865 C874 0.930 . S
H866 C879 0.929 . S
H867 C877 0.929 . S
H868 C872 0.929 . S
H869 C878 0.929 . S
C870 H864 0.930 . S
C870 C871 1.367 . S
C870 C878 1.378 . S
C871 C870 1.367 . S
C871 C879 1.433 . S
C872 H868 0.929 . S
C872 C874 1.378 . S
C872 C876 1.350 . S
C873 C876 1.463 1_565 S
C873 C878 1.350 . S
C873 N881 1.427 . S
C874 H865 0.930 . S
C874 C872 1.378 . S
C874 C875 1.367 . S
C875 C874 1.367 . S
C875 C877 1.433 . S
C876 C872 1.350 . S
C876 C873 1.463 1_545 S
C876 N880 1.427 . S
C877 H867 0.929 . S
C877 C875 1.433 . S
C877 N880 1.384 . S
C878 H869 0.929 . S
C878 C870 1.378 . S
C878 C873 1.350 . S
C879 H866 0.929 . S
C879 C871 1.433 . S
C879 N881 1.384 . S
N880 C876 1.427 . S
N880 C877 1.384 . S
N881 C873 1.427 . S
N881 C879 1.384 . S
H882 C888 0.930 . S
H883 C892 0.930 . S
H884 C897 0.929 . S
H885 C895 0.929 . S
H886 C890 0.929 1_545 S
H887 C896 0.929 1_565 S
C888 H882 0.930 . S
C888 C889 1.367 . S
C888 C896 1.378 . S
C889 C888 1.367 . S
C889 C897 1.433 . S
C890 H886 0.929 1_565 S
C890 C892 1.378 . S
C890 C894 1.350 . S
C891 C894 1.463 1_545 S
C891 C896 1.350 . S
C891 N899 1.427 . S
C892 H883 0.930 . S
C892 C890 1.378 . S
C892 C893 1.367 . S
C893 C892 1.367 . S
C893 C895 1.433 . S
C894 C890 1.350 . S
C894 C891 1.463 1_565 S
C894 N898 1.427 . S
C895 H885 0.929 . S
C895 C893 1.433 . S
C895 N898 1.384 . S
C896 H887 0.929 1_545 S
C896 C888 1.378 . S
C896 C891 1.350 . S
C897 H884 0.929 . S
C897 C889 1.433 . S
C897 N899 1.384 . S
N898 C894 1.427 . S
N898 C895 1.384 . S
N899 C891 1.427 . S
N899 C897 1.384 . S
H900 C906 0.930 . S
H901 C910 0.930 . S
H902 C915 0.929 . S
H903 C913 0.929 . S
H904 C908 0.929 . S
H905 C914 0.929 . S
C906 H900 0.930 . S
C906 C907 1.367 . S
C906 C914 1.378 . S
C907 C906 1.367 . S
C907 C915 1.433 . S
C908 H904 0.929 . S
C908 C910 1.378 . S
C908 C912 1.350 . S
C909 C912 1.463 1_455 S
C909 C914 1.350 . S
C909 N917 1.427 . S
C910 H901 0.930 . S
C910 C908 1.378 . S
C910 C911 1.367 . S
C911 C910 1.367 . S
C911 C913 1.433 . S
C912 C908 1.350 . S
C912 C909 1.463 1_655 S
C912 N916 1.427 . S
C913 H903 0.929 . S
C913 C911 1.433 . S
C913 N916 1.384 . S
C914 H905 0.929 . S
C914 C906 1.378 . S
C914 C909 1.350 . S
C915 H902 0.929 . S
C915 C907 1.433 . S
C915 N917 1.384 . S
N916 C912 1.427 . S
N916 C913 1.384 . S
N917 C909 1.427 . S
N917 C915 1.384 . S
H918 C924 0.930 . S
H919 C928 0.930 . S
H920 C933 0.929 . S
H921 C931 0.929 . S
H922 C926 0.929 . S
H923 C932 0.929 . S
C924 H918 0.930 . S
C924 C925 1.367 . S
C924 C932 1.378 . S
C925 C924 1.367 . S
C925 C933 1.433 . S
C926 H922 0.929 . S
C926 C928 1.378 . S
C926 C930 1.350 . S
C927 C930 1.463 . S
C927 C932 1.350 . S
C927 N935 1.427 . S
C928 H919 0.930 . S
C928 C926 1.378 . S
C928 C929 1.367 . S
C929 C928 1.367 . S
C929 C931 1.433 . S
C930 C926 1.350 . S
C930 C927 1.463 . S
C930 N934 1.427 . S
C931 H921 0.929 . S
C931 C929 1.433 . S
C931 N934 1.384 . S
C932 H923 0.929 . S
C932 C924 1.378 . S
C932 C927 1.350 . S
C933 H920 0.929 . S
C933 C925 1.433 . S
C933 N935 1.384 . S
N934 C930 1.427 . S
N934 C931 1.384 . S
N935 C927 1.427 . S
N935 C933 1.384 . S
H936 C942 0.930 . S
H937 C946 0.930 . S
H938 C951 0.929 . S
H939 C949 0.929 . S
H940 C944 0.929 . S
H941 C950 0.929 . S
C942 H936 0.930 . S
C942 C943 1.367 . S
C942 C950 1.378 . S
C943 C942 1.367 . S
C943 C951 1.433 . S
C944 H940 0.929 . S
C944 C946 1.378 . S
C944 C948 1.350 . S
C945 C948 1.463 . S
C945 C950 1.350 . S
C945 N953 1.427 . S
C946 H937 0.930 . S
C946 C944 1.378 . S
C946 C947 1.367 . S
C947 C946 1.367 . S
C947 C949 1.433 . S
C948 C944 1.350 . S
C948 C945 1.463 . S
C948 N952 1.427 . S
C949 H939 0.929 . S
C949 C947 1.433 . S
C949 N952 1.384 . S
C950 H941 0.929 . S
C950 C942 1.378 . S
C950 C945 1.350 . S
C951 H938 0.929 . S
C951 C943 1.433 . S
C951 N953 1.384 . S
N952 C948 1.427 . S
N952 C949 1.384 . S
N953 C945 1.427 . S
N953 C951 1.384 . S
H954 C960 0.930 . S
H955 C964 0.930 . S
H956 C969 0.929 . S
H957 C967 0.929 . S
H958 C962 0.929 . S
H959 C968 0.929 . S
C960 H954 0.930 . S
C960 C961 1.367 . S
C960 C968 1.378 . S
C961 C960 1.367 . S
C961 C969 1.433 . S
C962 H958 0.929 . S
C962 C964 1.378 . S
C962 C966 1.350 . S
C963 C966 1.463 . S
C963 C968 1.350 . S
C963 N971 1.427 . S
C964 H955 0.930 . S
C964 C962 1.378 . S
C964 C965 1.367 . S
C965 C964 1.367 . S
C965 C967 1.433 . S
C966 C962 1.350 . S
C966 C963 1.463 . S
C966 N970 1.427 . S
C967 H957 0.929 . S
C967 C965 1.433 . S
C967 N970 1.384 . S
C968 H959 0.929 . S
C968 C960 1.378 . S
C968 C963 1.350 . S
C969 H956 0.929 . S
C969 C961 1.433 . S
C969 N971 1.384 . S
N970 C966 1.427 . S
N970 C967 1.384 . S
N971 C963 1.427 . S
N971 C969 1.384 . S
H972 C978 0.930 . S
H973 C982 0.930 . S
H974 C987 0.929 . S
H975 C985 0.929 . S
H976 C980 0.929 . S
H977 C986 0.929 . S
C978 H972 0.930 . S
C978 C979 1.367 . S
C978 C986 1.378 . S
C979 C978 1.367 . S
C979 C987 1.433 . S
C980 H976 0.929 . S
C980 C982 1.378 . S
C980 C984 1.350 . S
C981 C984 1.463 . S
C981 C986 1.350 . S
C981 N989 1.427 . S
C982 H973 0.930 . S
C982 C980 1.378 . S
C982 C983 1.367 . S
C983 C982 1.367 . S
C983 C985 1.433 . S
C984 C980 1.350 . S
C984 C981 1.463 . S
C984 N988 1.427 . S
C985 H975 0.929 . S
C985 C983 1.433 . S
C985 N988 1.384 . S
C986 H977 0.929 . S
C986 C978 1.378 . S
C986 C981 1.350 . S
C987 H974 0.929 . S
C987 C979 1.433 . S
C987 N989 1.384 . S
N988 C984 1.427 . S
N988 C985 1.384 . S
N989 C981 1.427 . S
N989 C987 1.384 . S
H990 C996 0.930 . S
H991 C1000 0.930 . S
H992 C1005 0.929 . S
H993 C1003 0.929 . S
H994 C998 0.929 . S
H995 C1004 0.929 . S
C996 H990 0.930 . S
C996 C997 1.367 . S
C996 C1004 1.378 . S
C997 C996 1.367 . S
C997 C1005 1.433 . S
C998 H994 0.929 . S
C998 C1000 1.378 . S
C998 C1002 1.350 . S
C999 C1002 1.463 . S
C999 C1004 1.350 . S
C999 N1007 1.427 . S
C1000 H991 0.930 . S
C1000 C998 1.378 . S
C1000 C1001 1.367 . S
C1001 C1000 1.367 . S
C1001 C1003 1.433 . S
C1002 C998 1.350 . S
C1002 C999 1.463 . S
C1002 N1006 1.427 . S
C1003 H993 0.929 . S
C1003 C1001 1.433 . S
C1003 N1006 1.384 . S
C1004 H995 0.929 . S
C1004 C996 1.378 . S
C1004 C999 1.350 . S
C1005 H992 0.929 . S
C1005 C997 1.433 . S
C1005 N1007 1.384 . S
N1006 C1002 1.427 . S
N1006 C1003 1.384 . S
N1007 C999 1.427 . S
N1007 C1005 1.384 . S
H1008 C1014 0.930 . S
H1009 C1018 0.930 . S
H1010 C1023 0.929 . S
H1011 C1021 0.929 . S
H1012 C1016 0.929 . S
H1013 C1022 0.929 . S
C1014 H1008 0.930 . S
C1014 C1015 1.367 . S
C1014 C1022 1.378 . S
C1015 C1014 1.367 . S
C1015 C1023 1.433 . S
C1016 H1012 0.929 . S
C1016 C1018 1.378 . S
C1016 C1020 1.350 . S
C1017 C1020 1.463 . S
C1017 C1022 1.350 . S
C1017 N1025 1.427 . S
C1018 H1009 0.930 . S
C1018 C1016 1.378 . S
C1018 C1019 1.367 . S
C1019 C1018 1.367 . S
C1019 C1021 1.433 . S
C1020 C1016 1.350 . S
C1020 C1017 1.463 . S
C1020 N1024 1.427 . S
C1021 H1011 0.929 . S
C1021 C1019 1.433 . S
C1021 N1024 1.384 . S
C1022 H1013 0.929 . S
C1022 C1014 1.378 . S
C1022 C1017 1.350 . S
C1023 H1010 0.929 . S
C1023 C1015 1.433 . S
C1023 N1025 1.384 . S
N1024 C1020 1.427 . S
N1024 C1021 1.384 . S
N1025 C1017 1.427 . S
N1025 C1023 1.384 . S
H1026 C1032 0.930 . S
H1027 C1036 0.930 . S
H1028 C1041 0.929 . S
H1029 C1039 0.929 . S
H1030 C1034 0.929 . S
H1031 C1040 0.929 . S
C1032 H1026 0.930 . S
C1032 C1033 1.367 . S
C1032 C1040 1.378 . S
C1033 C1032 1.367 . S
C1033 C1041 1.433 . S
C1034 H1030 0.929 . S
C1034 C1036 1.378 . S
C1034 C1038 1.350 . S
C1035 C1038 1.463 . S
C1035 C1040 1.350 . S
C1035 N1043 1.427 . S
C1036 H1027 0.930 . S
C1036 C1034 1.378 . S
C1036 C1037 1.367 . S
C1037 C1036 1.367 . S
C1037 C1039 1.433 . S
C1038 C1034 1.350 . S
C1038 C1035 1.463 . S
C1038 N1042 1.427 . S
C1039 H1029 0.929 . S
C1039 C1037 1.433 . S
C1039 N1042 1.384 . S
C1040 H1031 0.929 . S
C1040 C1032 1.378 . S
C1040 C1035 1.350 . S
C1041 H1028 0.929 . S
C1041 C1033 1.433 . S
C1041 N1043 1.384 . S
N1042 C1038 1.427 . S
N1042 C1039 1.384 . S
N1043 C1035 1.427 . S
N1043 C1041 1.384 . S
H1044 C1050 0.930 . S
H1045 C1054 0.930 . S
H1046 C1059 0.935 . S
H1047 C1057 0.929 1_655 S
H1048 C1052 0.929 . S
H1049 C1058 0.929 . S
C1050 H1044 0.930 . S
C1050 C1051 1.367 . S
C1050 C1058 1.378 . S
C1051 C1050 1.367 . S
C1051 C1059 1.418 1_655 S
C1052 H1048 0.929 . S
C1052 C1054 1.378 . S
C1052 C1056 1.350 . S
C1053 C1056 1.463 1_654 S
C1053 C1058 1.350 . S
C1053 N1061 1.427 1_655 S
C1054 H1045 0.930 . S
C1054 C1052 1.378 . S
C1054 C1055 1.367 . S
C1055 C1054 1.367 . S
C1055 C1057 1.433 . S
C1056 C1052 1.350 . S
C1056 C1053 1.463 1_456 S
C1056 N1060 1.427 1_455 S
C1057 H1047 0.929 1_455 S
C1057 C1055 1.433 . S
C1057 N1060 1.384 1_455 S
C1058 H1049 0.929 . S
C1058 C1050 1.378 . S
C1058 C1053 1.350 . S
C1059 H1046 0.935 . S
C1059 C1051 1.418 1_455 S
C1059 N1061 1.395 . S
N1060 C1056 1.427 1_655 S
N1060 C1057 1.384 1_655 S
N1061 C1053 1.427 1_455 S
N1061 C1059 1.395 . S
H1062 C1068 0.930 . S
H1063 C1072 0.930 . S
H1064 C1077 0.929 . S
H1065 C1075 0.929 . S
H1066 C1070 0.929 . S
H1067 C1076 0.929 . S
C1068 H1062 0.930 . S
C1068 C1069 1.367 . S
C1068 C1076 1.378 . S
C1069 C1068 1.367 . S
C1069 C1077 1.433 . S
C1070 H1066 0.929 . S
C1070 C1072 1.378 . S
C1070 C1074 1.350 . S
C1071 C1074 1.463 1_554 S
C1071 C1076 1.350 . S
C1071 N1079 1.427 . S
C1072 H1063 0.930 . S
C1072 C1070 1.378 . S
C1072 C1073 1.367 . S
C1073 C1072 1.367 . S
C1073 C1075 1.433 . S
C1074 C1070 1.350 . S
C1074 C1071 1.463 1_556 S
C1074 N1078 1.427 . S
C1075 H1065 0.929 . S
C1075 C1073 1.433 . S
C1075 N1078 1.384 . S
C1076 H1067 0.929 . S
C1076 C1068 1.378 . S
C1076 C1071 1.350 . S
C1077 H1064 0.929 . S
C1077 C1069 1.433 . S
C1077 N1079 1.384 . S
N1078 C1074 1.427 . S
N1078 C1075 1.384 . S
N1079 C1071 1.427 . S
N1079 C1077 1.384 . S
H1080 C1086 0.930 . S
H1081 C1090 0.930 . S
H1082 C1095 0.920 1_565 S
H1083 C1093 0.929 . S
H1084 C1088 0.929 . S
H1085 C1094 0.929 . S
C1086 H1080 0.930 . S
C1086 C1087 1.367 . S
C1086 C1094 1.378 . S
C1087 C1086 1.367 . S
C1087 C1095 1.453 . S
C1088 H1084 0.929 . S
C1088 C1090 1.378 . S
C1088 C1092 1.350 . S
C1089 C1092 1.463 1_544 S
C1089 C1094 1.350 . S
C1089 N1097 1.427 1_545 S
C1090 H1081 0.930 . S
C1090 C1088 1.378 . S
C1090 C1091 1.367 . S
C1091 C1090 1.367 . S
C1091 C1093 1.433 1_565 S
C1092 C1088 1.350 . S
C1092 C1089 1.463 1_566 S
C1092 N1096 1.427 1_565 S
C1093 H1083 0.929 . S
C1093 C1091 1.433 1_545 S
C1093 N1096 1.384 . S
C1094 H1085 0.929 . S
C1094 C1086 1.378 . S
C1094 C1089 1.350 . S
C1095 H1082 0.920 1_545 S
C1095 C1087 1.453 . S
C1095 N1097 1.375 1_545 S
N1096 C1092 1.427 1_545 S
N1096 C1093 1.384 . S
N1097 C1089 1.427 1_565 S
N1097 C1095 1.375 1_565 S
H1098 C1104 0.930 . S
H1099 C1108 0.930 . S
H1100 C1113 0.929 . S
H1101 C1111 0.929 . S
H1102 C1106 0.929 . S
H1103 C1112 0.929 . S
C1104 H1098 0.930 . S
C1104 C1105 1.367 . S
C1104 C1112 1.378 . S
C1105 C1104 1.367 . S
C1105 C1113 1.433 . S
C1106 H1102 0.929 . S
C1106 C1108 1.378 . S
C1106 C1110 1.350 . S
C1107 C1110 1.463 . S
C1107 C1112 1.350 . S
C1107 N1115 1.427 . S
C1108 H1099 0.930 . S
C1108 C1106 1.378 . S
C1108 C1109 1.367 . S
C1109 C1108 1.367 . S
C1109 C1111 1.433 . S
C1110 C1106 1.350 . S
C1110 C1107 1.463 . S
C1110 N1114 1.427 . S
C1111 H1101 0.929 . S
C1111 C1109 1.433 . S
C1111 N1114 1.384 . S
C1112 H1103 0.929 . S
C1112 C1104 1.378 . S
C1112 C1107 1.350 . S
C1113 H1100 0.929 . S
C1113 C1105 1.433 . S
C1113 N1115 1.384 . S
N1114 C1110 1.427 . S
N1114 C1111 1.384 . S
N1115 C1107 1.427 . S
N1115 C1113 1.384 . S
H1116 C1122 0.930 . S
H1117 C1126 0.930 . S
H1118 C1131 0.929 . S
H1119 C1129 0.929 . S
H1120 C1124 0.929 . S
H1121 C1130 0.929 . S
C1122 H1116 0.930 . S
C1122 C1123 1.367 . S
C1122 C1130 1.378 1_565 S
C1123 C1122 1.367 . S
C1123 C1131 1.433 . S
C1124 H1120 0.929 . S
C1124 C1126 1.378 . S
C1124 C1128 1.350 . S
C1125 C1128 1.463 . S
C1125 C1130 1.350 . S
C1125 N1133 1.427 . S
C1126 H1117 0.930 . S
C1126 C1124 1.378 . S
C1126 C1127 1.367 . S
C1127 C1126 1.367 . S
C1127 C1129 1.433 . S
C1128 C1124 1.350 . S
C1128 C1125 1.463 . S
C1128 N1132 1.427 . S
C1129 H1119 0.929 . S
C1129 C1127 1.433 . S
C1129 N1132 1.384 . S
C1130 H1121 0.929 . S
C1130 C1122 1.378 1_545 S
C1130 C1125 1.350 . S
C1131 H1118 0.929 . S
C1131 C1123 1.433 . S
C1131 N1133 1.384 1_565 S
N1132 C1128 1.427 . S
N1132 C1129 1.384 . S
N1133 C1125 1.427 . S
N1133 C1131 1.384 1_545 S
H1134 C1140 0.930 . S
H1135 C1144 0.930 . S
H1136 C1149 0.929 . S
H1137 C1147 0.929 . S
H1138 C1142 0.929 . S
H1139 C1148 0.929 . S
C1140 H1134 0.930 . S
C1140 C1141 1.367 . S
C1140 C1148 1.378 . S
C1141 C1140 1.367 . S
C1141 C1149 1.433 . S
C1142 H1138 0.929 . S
C1142 C1144 1.378 1_655 S
C1142 C1146 1.350 . S
C1143 C1146 1.463 . S
C1143 C1148 1.350 . S
C1143 N1151 1.427 . S
C1144 H1135 0.930 . S
C1144 C1142 1.378 1_455 S
C1144 C1145 1.367 . S
C1145 C1144 1.367 . S
C1145 C1147 1.433 . S
C1146 C1142 1.350 . S
C1146 C1143 1.463 . S
C1146 N1150 1.427 . S
C1147 H1137 0.929 . S
C1147 C1145 1.433 . S
C1147 N1150 1.384 1_455 S
C1148 H1139 0.929 . S
C1148 C1140 1.378 . S
C1148 C1143 1.350 . S
C1149 H1136 0.929 . S
C1149 C1141 1.433 . S
C1149 N1151 1.384 . S
N1150 C1146 1.427 . S
N1150 C1147 1.384 1_655 S
N1151 C1143 1.427 . S
N1151 C1149 1.384 . S
H1152 C1158 0.930 . S
H1153 C1162 0.930 . S
H1154 C1167 0.929 . S
H1155 C1165 0.929 . S
H1156 C1160 0.929 . S
H1157 C1166 0.929 . S
C1158 H1152 0.930 . S
C1158 C1159 1.367 . S
C1158 C1166 1.378 . S
C1159 C1158 1.367 . S
C1159 C1167 1.433 . S
C1160 H1156 0.929 . S
C1160 C1162 1.378 . S
C1160 C1164 1.350 . S
C1161 C1164 1.463 . S
C1161 C1166 1.350 . S
C1161 N1169 1.427 . S
C1162 H1153 0.930 . S
C1162 C1160 1.378 . S
C1162 C1163 1.367 . S
C1163 C1162 1.367 . S
C1163 C1165 1.433 . S
C1164 C1160 1.350 . S
C1164 C1161 1.463 . S
C1164 N1168 1.427 . S
C1165 H1155 0.929 . S
C1165 C1163 1.433 . S
C1165 N1168 1.384 . S
C1166 H1157 0.929 . S
C1166 C1158 1.378 . S
C1166 C1161 1.350 . S
C1167 H1154 0.929 . S
C1167 C1159 1.433 . S
C1167 N1169 1.384 . S
N1168 C1164 1.427 . S
N1168 C1165 1.384 . S
N1169 C1161 1.427 . S
N1169 C1167 1.384 . S
H1170 C1176 0.930 . S
H1171 C1180 0.930 . S
H1172 C1185 0.929 . S
H1173 C1183 0.929 . S
H1174 C1178 0.929 . S
H1175 C1184 0.929 . S
C1176 H1170 0.930 . S
C1176 C1177 1.367 . S
C1176 C1184 1.378 1_545 S
C1177 C1176 1.367 . S
C1177 C1185 1.433 . S
C1178 H1174 0.929 . S
C1178 C1180 1.378 . S
C1178 C1182 1.350 . S
C1179 C1182 1.463 . S
C1179 C1184 1.350 . S
C1179 N1187 1.427 . S
C1180 H1171 0.930 . S
C1180 C1178 1.378 . S
C1180 C1181 1.367 . S
C1181 C1180 1.367 . S
C1181 C1183 1.433 . S
C1182 C1178 1.350 . S
C1182 C1179 1.463 . S
C1182 N1186 1.427 . S
C1183 H1173 0.929 . S
C1183 C1181 1.433 . S
C1183 N1186 1.384 . S
C1184 H1175 0.929 . S
C1184 C1176 1.378 1_565 S
C1184 C1179 1.350 . S
C1185 H1172 0.929 . S
C1185 C1177 1.433 . S
C1185 N1187 1.384 1_545 S
N1186 C1182 1.427 . S
N1186 C1183 1.384 . S
N1187 C1179 1.427 . S
N1187 C1185 1.384 1_565 S
H1188 C1194 0.930 . S
H1189 C1198 0.930 . S
H1190 C1203 0.929 . S
H1191 C1201 0.929 . S
H1192 C1196 0.929 . S
H1193 C1202 0.929 . S
C1194 H1188 0.930 . S
C1194 C1195 1.367 . S
C1194 C1202 1.378 . S
C1195 C1194 1.367 . S
C1195 C1203 1.433 . S
C1196 H1192 0.929 . S
C1196 C1198 1.378 1_455 S
C1196 C1200 1.350 . S
C1197 C1200 1.463 . S
C1197 C1202 1.350 . S
C1197 N1205 1.427 . S
C1198 H1189 0.930 . S
C1198 C1196 1.378 1_655 S
C1198 C1199 1.367 . S
C1199 C1198 1.367 . S
C1199 C1201 1.433 . S
C1200 C1196 1.350 . S
C1200 C1197 1.463 . S
C1200 N1204 1.427 . S
C1201 H1191 0.929 . S
C1201 C1199 1.433 . S
C1201 N1204 1.384 1_655 S
C1202 H1193 0.929 . S
C1202 C1194 1.378 . S
C1202 C1197 1.350 . S
C1203 H1190 0.929 . S
C1203 C1195 1.433 . S
C1203 N1205 1.384 . S
N1204 C1200 1.427 . S
N1204 C1201 1.384 1_455 S
N1205 C1197 1.427 . S
N1205 C1203 1.384 . S
H1206 C1212 0.930 . S
H1207 C1216 0.930 . S
H1208 C1221 0.929 . S
H1209 C1219 0.929 . S
H1210 C1214 0.929 . S
H1211 C1220 0.929 . S
C1212 H1206 0.930 . S
C1212 C1213 1.367 . S
C1212 C1220 1.378 . S
C1213 C1212 1.367 . S
C1213 C1221 1.433 . S
C1214 H1210 0.929 . S
C1214 C1216 1.378 . S
C1214 C1218 1.350 . S
C1215 C1218 1.463 . S
C1215 C1220 1.350 . S
C1215 N1223 1.427 . S
C1216 H1207 0.930 . S
C1216 C1214 1.378 . S
C1216 C1217 1.367 . S
C1217 C1216 1.367 . S
C1217 C1219 1.433 . S
C1218 C1214 1.350 . S
C1218 C1215 1.463 . S
C1218 N1222 1.427 . S
C1219 H1209 0.929 . S
C1219 C1217 1.433 . S
C1219 N1222 1.384 . S
C1220 H1211 0.929 . S
C1220 C1212 1.378 . S
C1220 C1215 1.350 . S
C1221 H1208 0.929 . S
C1221 C1213 1.433 . S
C1221 N1223 1.384 . S
N1222 C1218 1.427 . S
N1222 C1219 1.384 . S
N1223 C1215 1.427 . S
N1223 C1221 1.384 . S
H1224 C1230 0.930 . S
H1225 C1234 0.930 . S
H1226 C1239 0.929 . S
H1227 C1237 0.929 . S
H1228 C1232 0.929 . S
H1229 C1238 0.929 . S
C1230 H1224 0.930 . S
C1230 C1231 1.367 . S
C1230 C1238 1.378 . S
C1231 C1230 1.367 . S
C1231 C1239 1.433 . S
C1232 H1228 0.929 . S
C1232 C1234 1.378 . S
C1232 C1236 1.350 . S
C1233 C1236 1.463 . S
C1233 C1238 1.350 . S
C1233 N1241 1.427 . S
C1234 H1225 0.930 . S
C1234 C1232 1.378 . S
C1234 C1235 1.367 . S
C1235 C1234 1.367 . S
C1235 C1237 1.433 . S
C1236 C1232 1.350 . S
C1236 C1233 1.463 . S
C1236 N1240 1.427 . S
C1237 H1227 0.929 . S
C1237 C1235 1.433 . S
C1237 N1240 1.384 . S
C1238 H1229 0.929 . S
C1238 C1230 1.378 . S
C1238 C1233 1.350 . S
C1239 H1226 0.929 . S
C1239 C1231 1.433 . S
C1239 N1241 1.384 . S
N1240 C1236 1.427 . S
N1240 C1237 1.384 . S
N1241 C1233 1.427 . S
N1241 C1239 1.384 . S
H1242 C1248 0.930 . S
H1243 C1252 0.930 . S
H1244 C1257 0.929 . S
H1245 C1255 0.929 . S
H1246 C1250 0.929 . S
H1247 C1256 0.929 . S
C1248 H1242 0.930 . S
C1248 C1249 1.367 . S
C1248 C1256 1.378 . S
C1249 C1248 1.367 . S
C1249 C1257 1.433 . S
C1250 H1246 0.929 . S
C1250 C1252 1.378 . S
C1250 C1254 1.350 . S
C1251 C1254 1.463 . S
C1251 C1256 1.350 . S
C1251 N1259 1.427 . S
C1252 H1243 0.930 . S
C1252 C1250 1.378 . S
C1252 C1253 1.367 . S
C1253 C1252 1.367 . S
C1253 C1255 1.433 . S
C1254 C1250 1.350 . S
C1254 C1251 1.463 . S
C1254 N1258 1.427 . S
C1255 H1245 0.929 . S
C1255 C1253 1.433 . S
C1255 N1258 1.384 . S
C1256 H1247 0.929 . S
C1256 C1248 1.378 . S
C1256 C1251 1.350 . S
C1257 H1244 0.929 . S
C1257 C1249 1.433 . S
C1257 N1259 1.384 . S
N1258 C1254 1.427 . S
N1258 C1255 1.384 . S
N1259 C1251 1.427 . S
N1259 C1257 1.384 . S
H1260 C1266 0.930 . S
H1261 C1270 0.930 . S
H1262 C1275 0.929 . S
H1263 C1273 0.929 . S
H1264 C1268 0.929 . S
H1265 C1274 0.929 . S
C1266 H1260 0.930 . S
C1266 C1267 1.367 . S
C1266 C1274 1.378 . S
C1267 C1266 1.367 . S
C1267 C1275 1.433 . S
C1268 H1264 0.929 . S
C1268 C1270 1.378 . S
C1268 C1272 1.350 . S
C1269 C1272 1.463 . S
C1269 C1274 1.350 . S
C1269 N1277 1.427 . S
C1270 H1261 0.930 . S
C1270 C1268 1.378 . S
C1270 C1271 1.367 . S
C1271 C1270 1.367 . S
C1271 C1273 1.433 . S
C1272 C1268 1.350 . S
C1272 C1269 1.463 . S
C1272 N1276 1.427 . S
C1273 H1263 0.929 . S
C1273 C1271 1.433 . S
C1273 N1276 1.384 . S
C1274 H1265 0.929 . S
C1274 C1266 1.378 . S
C1274 C1269 1.350 . S
C1275 H1262 0.929 . S
C1275 C1267 1.433 . S
C1275 N1277 1.384 . S
N1276 C1272 1.427 . S
N1276 C1273 1.384 . S
N1277 C1269 1.427 . S
N1277 C1275 1.384 . S
H1278 C1284 0.930 . S
H1279 C1288 0.930 . S
H1280 C1293 0.929 . S
H1281 C1291 0.929 . S
H1282 C1286 0.929 . S
H1283 C1292 0.929 . S
C1284 H1278 0.930 . S
C1284 C1285 1.367 . S
C1284 C1292 1.378 . S
C1285 C1284 1.367 . S
C1285 C1293 1.433 . S
C1286 H1282 0.929 . S
C1286 C1288 1.378 . S
C1286 C1290 1.350 . S
C1287 C1290 1.463 . S
C1287 C1292 1.350 . S
C1287 N1295 1.427 . S
C1288 H1279 0.930 . S
C1288 C1286 1.378 . S
C1288 C1289 1.367 . S
C1289 C1288 1.367 . S
C1289 C1291 1.433 . S
C1290 C1286 1.350 . S
C1290 C1287 1.463 . S
C1290 N1294 1.427 . S
C1291 H1281 0.929 . S
C1291 C1289 1.433 . S
C1291 N1294 1.384 . S
C1292 H1283 0.929 . S
C1292 C1284 1.378 . S
C1292 C1287 1.350 . S
C1293 H1280 0.929 . S
C1293 C1285 1.433 . S
C1293 N1295 1.384 . S
N1294 C1290 1.427 . S
N1294 C1291 1.384 . S
N1295 C1287 1.427 . S
N1295 C1293 1.384 . S
H1296 C1302 0.930 . S
H1297 C1306 0.930 . S
H1298 C1311 0.929 . S
H1299 C1309 0.929 . S
H1300 C1304 0.929 . S
H1301 C1310 0.929 . S
C1302 H1296 0.930 . S
C1302 C1303 1.367 . S
C1302 C1310 1.378 . S
C1303 C1302 1.367 . S
C1303 C1311 1.433 . S
C1304 H1300 0.929 . S
C1304 C1306 1.378 . S
C1304 C1308 1.350 . S
C1305 C1308 1.463 . S
C1305 C1310 1.350 . S
C1305 N1313 1.427 . S
C1306 H1297 0.930 . S
C1306 C1304 1.378 . S
C1306 C1307 1.367 . S
C1307 C1306 1.367 . S
C1307 C1309 1.433 . S
C1308 C1304 1.350 . S
C1308 C1305 1.463 . S
C1308 N1312 1.427 . S
C1309 H1299 0.929 . S
C1309 C1307 1.433 . S
C1309 N1312 1.384 . S
C1310 H1301 0.929 . S
C1310 C1302 1.378 . S
C1310 C1305 1.350 . S
C1311 H1298 0.929 . S
C1311 C1303 1.433 . S
C1311 N1313 1.384 . S
N1312 C1308 1.427 . S
N1312 C1309 1.384 . S
N1313 C1305 1.427 . S
N1313 C1311 1.384 . S
H1314 C1320 0.930 . S
H1315 C1324 0.930 . S
H1316 C1329 0.929 . S
H1317 C1327 0.929 . S
H1318 C1322 0.929 . S
H1319 C1328 0.929 . S
C1320 H1314 0.930 . S
C1320 C1321 1.367 . S
C1320 C1328 1.378 . S
C1321 C1320 1.367 . S
C1321 C1329 1.433 . S
C1322 H1318 0.929 . S
C1322 C1324 1.378 . S
C1322 C1326 1.350 . S
C1323 C1326 1.463 . S
C1323 C1328 1.350 . S
C1323 N1331 1.427 . S
C1324 H1315 0.930 . S
C1324 C1322 1.378 . S
C1324 C1325 1.367 . S
C1325 C1324 1.367 . S
C1325 C1327 1.433 . S
C1326 C1322 1.350 . S
C1326 C1323 1.463 . S
C1326 N1330 1.427 . S
C1327 H1317 0.929 . S
C1327 C1325 1.433 . S
C1327 N1330 1.384 . S
C1328 H1319 0.929 . S
C1328 C1320 1.378 . S
C1328 C1323 1.350 . S
C1329 H1316 0.929 . S
C1329 C1321 1.433 . S
C1329 N1331 1.384 . S
N1330 C1326 1.427 . S
N1330 C1327 1.384 . S
N1331 C1323 1.427 . S
N1331 C1329 1.384 . S
H1332 C1338 0.930 . S
H1333 C1342 0.930 . S
H1334 C1347 0.929 . S
H1335 C1345 0.929 . S
H1336 C1340 0.929 . S
H1337 C1346 0.929 . S
C1338 H1332 0.930 . S
C1338 C1339 1.367 . S
C1338 C1346 1.378 . S
C1339 C1338 1.367 . S
C1339 C1347 1.433 . S
C1340 H1336 0.929 . S
C1340 C1342 1.378 . S
C1340 C1344 1.350 . S
C1341 C1344 1.463 . S
C1341 C1346 1.350 . S
C1341 N1349 1.427 . S
C1342 H1333 0.930 . S
C1342 C1340 1.378 . S
C1342 C1343 1.367 . S
C1343 C1342 1.367 . S
C1343 C1345 1.433 . S
C1344 C1340 1.350 . S
C1344 C1341 1.463 . S
C1344 N1348 1.427 . S
C1345 H1335 0.929 . S
C1345 C1343 1.433 . S
C1345 N1348 1.384 . S
C1346 H1337 0.929 . S
C1346 C1338 1.378 . S
C1346 C1341 1.350 . S
C1347 H1334 0.929 . S
C1347 C1339 1.433 . S
C1347 N1349 1.384 . S
N1348 C1344 1.427 . S
N1348 C1345 1.384 . S
N1349 C1341 1.427 . S
N1349 C1347 1.384 . S
H1350 C1356 0.930 . S
H1351 C1360 0.930 . S
H1352 C1365 0.929 . S
H1353 C1363 0.929 . S
H1354 C1358 0.929 . S
H1355 C1364 0.929 . S
C1356 H1350 0.930 . S
C1356 C1357 1.367 . S
C1356 C1364 1.378 . S
C1357 C1356 1.367 . S
C1357 C1365 1.433 . S
C1358 H1354 0.929 . S
C1358 C1360 1.378 . S
C1358 C1362 1.350 . S
C1359 C1362 1.463 . S
C1359 C1364 1.350 . S
C1359 N1367 1.427 . S
C1360 H1351 0.930 . S
C1360 C1358 1.378 . S
C1360 C1361 1.367 . S
C1361 C1360 1.367 . S
C1361 C1363 1.433 . S
C1362 C1358 1.350 . S
C1362 C1359 1.463 . S
C1362 N1366 1.427 . S
C1363 H1353 0.929 . S
C1363 C1361 1.433 . S
C1363 N1366 1.384 . S
C1364 H1355 0.929 . S
C1364 C1356 1.378 . S
C1364 C1359 1.350 . S
C1365 H1352 0.929 . S
C1365 C1357 1.433 . S
C1365 N1367 1.384 . S
N1366 C1362 1.427 . S
N1366 C1363 1.384 . S
N1367 C1359 1.427 . S
N1367 C1365 1.384 . S
H1368 C1374 0.930 . S
H1369 C1378 0.930 . S
H1370 C1383 0.929 . S
H1371 C1381 0.929 . S
H1372 C1376 0.929 . S
H1373 C1382 0.929 . S
C1374 H1368 0.930 . S
C1374 C1375 1.367 . S
C1374 C1382 1.378 . S
C1375 C1374 1.367 . S
C1375 C1383 1.433 . S
C1376 H1372 0.929 . S
C1376 C1378 1.378 . S
C1376 C1380 1.350 . S
C1377 C1380 1.463 . S
C1377 C1382 1.350 . S
C1377 N1385 1.427 . S
C1378 H1369 0.930 . S
C1378 C1376 1.378 . S
C1378 C1379 1.367 . S
C1379 C1378 1.367 . S
C1379 C1381 1.433 . S
C1380 C1376 1.350 . S
C1380 C1377 1.463 . S
C1380 N1384 1.427 . S
C1381 H1371 0.929 . S
C1381 C1379 1.433 . S
C1381 N1384 1.384 . S
C1382 H1373 0.929 . S
C1382 C1374 1.378 . S
C1382 C1377 1.350 . S
C1383 H1370 0.929 . S
C1383 C1375 1.433 . S
C1383 N1385 1.384 . S
N1384 C1380 1.427 . S
N1384 C1381 1.384 . S
N1385 C1377 1.427 . S
N1385 C1383 1.384 . S
H1386 C1392 0.930 . S
H1387 C1396 0.930 . S
H1388 C1401 0.929 . S
H1389 C1399 0.929 . S
H1390 C1394 0.929 . S
H1391 C1400 0.929 . S
C1392 H1386 0.930 . S
C1392 C1393 1.367 . S
C1392 C1400 1.378 . S
C1393 C1392 1.367 . S
C1393 C1401 1.433 . S
C1394 H1390 0.929 . S
C1394 C1396 1.378 . S
C1394 C1398 1.350 . S
C1395 C1398 1.463 . S
C1395 C1400 1.350 . S
C1395 N1403 1.427 . S
C1396 H1387 0.930 . S
C1396 C1394 1.378 . S
C1396 C1397 1.367 . S
C1397 C1396 1.367 . S
C1397 C1399 1.433 . S
C1398 C1394 1.350 . S
C1398 C1395 1.463 . S
C1398 N1402 1.427 . S
C1399 H1389 0.929 . S
C1399 C1397 1.433 . S
C1399 N1402 1.384 . S
C1400 H1391 0.929 . S
C1400 C1392 1.378 . S
C1400 C1395 1.350 . S
C1401 H1388 0.929 . S
C1401 C1393 1.433 . S
C1401 N1403 1.384 . S
N1402 C1398 1.427 . S
N1402 C1399 1.384 . S
N1403 C1395 1.427 . S
N1403 C1401 1.384 . S
H1404 C1410 0.930 . S
H1405 C1414 0.930 . S
H1406 C1419 0.929 . S
H1407 C1417 0.929 . S
H1408 C1412 0.929 . S
H1409 C1418 0.929 . S
C1410 H1404 0.930 . S
C1410 C1411 1.367 . S
C1410 C1418 1.378 . S
C1411 C1410 1.367 . S
C1411 C1419 1.433 . S
C1412 H1408 0.929 . S
C1412 C1414 1.378 . S
C1412 C1416 1.350 . S
C1413 C1416 1.463 . S
C1413 C1418 1.350 . S
C1413 N1421 1.427 . S
C1414 H1405 0.930 . S
C1414 C1412 1.378 . S
C1414 C1415 1.367 . S
C1415 C1414 1.367 . S
C1415 C1417 1.433 . S
C1416 C1412 1.350 . S
C1416 C1413 1.463 . S
C1416 N1420 1.427 . S
C1417 H1407 0.929 . S
C1417 C1415 1.433 . S
C1417 N1420 1.384 . S
C1418 H1409 0.929 . S
C1418 C1410 1.378 . S
C1418 C1413 1.350 . S
C1419 H1406 0.929 . S
C1419 C1411 1.433 . S
C1419 N1421 1.384 . S
N1420 C1416 1.427 . S
N1420 C1417 1.384 . S
N1421 C1413 1.427 . S
N1421 C1419 1.384 . S
C619 C349 1.304 . S
C623 C9 1.300 . S
C637 C43 1.316 . S
C641 C383 1.315 . S
C655 C315 1.316 . S
C659 C77 1.315 . S
C673 C485 1.299 . S
C677 C111 1.301 . S
C691 C145 1.301 . S
C695 C417 1.299 . S
C709 C451 1.300 . S
C713 C179 1.304 . S
C727 C172 2.031 . S
C731 C478 2.029 . S
C745 C410 2.029 . S
C749 C104 2.031 . S
C763 C444 2.030 . S
C767 C138 2.030 . S
C781 C36 2.029 . S
C785 C342 2.030 . S
C799 C70 2.031 . S
C803 C376 2.029 . S
C817 C2 2.029 . S
C821 C308 2.031 . S
C835 C553 1.316 . S
C839 C213 1.314 . S
C853 C587 1.311 . S
C857 C247 1.314 . S
C871 C519 1.306 . S
C875 C281 1.301 . S
C889 C240 2.030 . S
C893 C546 2.030 . S
C907 C580 2.031 . S
C911 C274 2.029 . S
C925 C206 2.030 . S
C929 C512 2.030 . S
C943 C33 1.379 . S
C947 C611 1.377 . S
C961 C67 1.376 . S
C965 C543 1.381 . S
C979 C101 1.375 . S
C983 C577 1.381 . S
C997 C271 1.375 . S
C1001 C135 1.381 . S
C1015 C169 1.377 . S
C1019 C305 1.380 . S
C1033 C203 1.380 . S
C1037 C237 1.376 . S
C1051 C339 1.380 . S
C1055 C475 1.377 . S
C1069 C373 1.381 . S
C1073 C509 1.375 . S
C1087 C407 1.377 . S
C1091 C441 1.380 . S
C1105 C73 1.537 . S
C1109 C20 1.655 . S
C1123 C54 1.655 . S
C1127 C5 1.537 . S
C1141 C39 1.529 . S
C1145 C88 1.656 . S
C1159 C141 1.528 . S
C1163 C122 1.655 . S
C1177 C156 1.657 . S
C1181 C175 1.538 . S
C1195 C107 1.529 . S
C1199 C190 1.655 . S
C1213 C224 1.658 . S
C1217 C277 1.538 . S
C1231 C209 1.546 . S
C1235 C258 1.658 . S
C1249 C292 1.656 . S
C1253 C243 1.530 . S
C1267 C326 1.655 . S
C1271 C345 1.529 . S
C1285 C379 1.529 . S
C1289 C360 1.655 . S
C1303 C394 1.654 . S
C1307 C311 1.532 . S
C1321 C428 1.658 . S
C1325 C481 1.545 . S
C1339 C413 1.533 . S
C1343 C462 1.657 . S
C1357 C496 1.655 . S
C1361 C447 1.534 . S
C1375 C530 1.655 . S
C1379 C549 1.532 . S
C1393 C583 1.530 . S
C1397 C564 1.656 . S
C1411 C515 1.542 . S
C1415 C598 1.655 . S
