# Generated by pormake.
# Topology ukh, (4)-cn, num edge types: 1
# Building blocks:
#     Node 0, Type 0, BuildingBlock: GALJAG_clean_sbu_0, # of connection points: 4
#     Node 1, Type 0, BuildingBlock: GALJAG_clean_sbu_0, # of connection points: 4
#     Node 2, Type 0, BuildingBlock: GALJAG_clean_sbu_0, # of connection points: 4
#     Node 3, Type 0, BuildingBlock: GALJAG_clean_sbu_0, # of connection points: 4
#     Node 4, Type 0, BuildingBlock: GALJAG_clean_sbu_0, # of connection points: 4
#     Node 5, Type 0, BuildingBlock: GALJAG_clean_sbu_0, # of connection points: 4
#     Node 6, Type 0, BuildingBlock: GALJAG_clean_sbu_0, # of connection points: 4
#     Node 7, Type 0, BuildingBlock: GALJAG_clean_sbu_0, # of connection points: 4
#     Node 8, Type 0, BuildingBlock: GALJAG_clean_sbu_0, # of connection points: 4
#     Node 9, Type 0, BuildingBlock: GALJAG_clean_sbu_0, # of connection points: 4
#     Node 10, Type 0, BuildingBlock: GALJAG_clean_sbu_0, # of connection points: 4
#     Node 11, Type 0, BuildingBlock: GALJAG_clean_sbu_0, # of connection points: 4
#     Edge 12, Type (0, 0), BuildingBlock: OJICUG_clean_linker_0, # of connection points: 2
#     Edge 13, Type (0, 0), BuildingBlock: OJICUG_clean_linker_0, # of connection points: 2
#     Edge 14, Type (0, 0), BuildingBlock: OJICUG_clean_linker_0, # of connection points: 2
#     Edge 15, Type (0, 0), BuildingBlock: OJICUG_clean_linker_0, # of connection points: 2
#     Edge 16, Type (0, 0), BuildingBlock: OJICUG_clean_linker_0, # of connection points: 2
#     Edge 17, Type (0, 0), BuildingBlock: OJICUG_clean_linker_0, # of connection points: 2
#     Edge 18, Type (0, 0), BuildingBlock: OJICUG_clean_linker_0, # of connection points: 2
#     Edge 19, Type (0, 0), BuildingBlock: OJICUG_clean_linker_0, # of connection points: 2
#     Edge 20, Type (0, 0), BuildingBlock: OJICUG_clean_linker_0, # of connection points: 2
#     Edge 21, Type (0, 0), BuildingBlock: OJICUG_clean_linker_0, # of connection points: 2
#     Edge 22, Type (0, 0), BuildingBlock: OJICUG_clean_linker_0, # of connection points: 2
#     Edge 23, Type (0, 0), BuildingBlock: OJICUG_clean_linker_0, # of connection points: 2
#     Edge 24, Type (0, 0), BuildingBlock: OJICUG_clean_linker_0, # of connection points: 2
#     Edge 25, Type (0, 0), BuildingBlock: OJICUG_clean_linker_0, # of connection points: 2
#     Edge 26, Type (0, 0), BuildingBlock: OJICUG_clean_linker_0, # of connection points: 2
#     Edge 27, Type (0, 0), BuildingBlock: OJICUG_clean_linker_0, # of connection points: 2
#     Edge 28, Type (0, 0), BuildingBlock: OJICUG_clean_linker_0, # of connection points: 2
#     Edge 29, Type (0, 0), BuildingBlock: OJICUG_clean_linker_0, # of connection points: 2
#     Edge 30, Type (0, 0), BuildingBlock: OJICUG_clean_linker_0, # of connection points: 2
#     Edge 31, Type (0, 0), BuildingBlock: OJICUG_clean_linker_0, # of connection points: 2
#     Edge 32, Type (0, 0), BuildingBlock: OJICUG_clean_linker_0, # of connection points: 2
#     Edge 33, Type (0, 0), BuildingBlock: OJICUG_clean_linker_0, # of connection points: 2
#     Edge 34, Type (0, 0), BuildingBlock: OJICUG_clean_linker_0, # of connection points: 2
#     Edge 35, Type (0, 0), BuildingBlock: OJICUG_clean_linker_0, # of connection points: 2
# Relax obj value: 0.072
# Max RMSD: 0.081
# Mean RMSD: 0.081
data_MOF--net-ukh--node1-GALJAG_clean_sbu_0--edge1-OJICUG_clean_linker_0
_symmetry_space_group_name_H-M    P1
_symmetry_Int_Tables_number       1
_symmetry_cell_setting            triclinic
loop_
_symmetry_equiv_pos_as_xyz
'x, y, z'
_cell_length_a     22.881515
_cell_length_b     22.871029
_cell_length_c     49.26428
_cell_angle_alpha  89.949434
_cell_angle_beta   90.03825
_cell_angle_gamma 120.04205
loop_
_atom_site_label
_atom_site_type_symbol
_atom_site_fract_x
_atom_site_fract_y
_atom_site_fract_z
_atom_type_partial_charge
In0 In 0.32348 0.22523 0.05812 0.0
O1 O 0.42089 0.31838 0.04313 0.0
O2 O 0.36175 0.33245 0.0729 0.0
C3 C 0.32635 0.12019 0.03413 0.0
C4 C 0.32647 0.19659 0.11085 0.0
C5 C 0.21767 0.21986 0.03135 0.0
O6 O 0.36429 0.18049 0.02653 0.0
O7 O 0.29013 0.11377 0.05441 0.0
O8 O 0.21716 0.21165 0.05668 0.0
O9 O 0.27139 0.23141 0.01978 0.0
C10 C 0.41333 0.35914 0.05798 0.0
O11 O 0.27344 0.18729 0.099 0.0
O12 O 0.37852 0.22004 0.09595 0.0
In13 In 0.10165 0.32482 0.39253 0.0
O14 O 0.09158 0.27404 0.43314 0.0
O15 O 0.16243 0.37965 0.43028 0.0
C16 C 0.99921 0.22064 0.36581 0.0
C17 C 0.05854 0.41529 0.39224 0.0
C18 C 0.20873 0.327 0.36817 0.0
O19 O 0.00496 0.22105 0.39129 0.0
O20 O 0.04462 0.27233 0.3541 0.0
O21 O 0.18839 0.36719 0.36147 0.0
O22 O 0.17725 0.28861 0.38774 0.0
C23 C 0.13501 0.32722 0.44502 0.0
O24 O 0.10513 0.42119 0.37672 0.0
O25 O 0.03521 0.3653 0.40802 0.0
In26 In 0.78292 0.09967 0.72625 0.0
O27 O 0.68959 0.10239 0.7105 0.0
O28 O 0.67608 0.03312 0.74201 0.0
C29 C 0.88837 0.20659 0.70198 0.0
C30 C 0.8142 0.13409 0.77861 0.0
C31 C 0.78507 0.9979 0.69928 0.0
O32 O 0.82791 0.187 0.6954 0.0
O33 O 0.89493 0.17434 0.72135 0.0
O34 O 0.79096 0.00358 0.72475 0.0
O35 O 0.77789 0.04295 0.68772 0.0
C36 C 0.6491 0.056 0.72618 0.0
O37 O 0.82204 0.08898 0.76717 0.0
O38 O 0.79082 0.1624 0.7635 0.0
In39 In 0.68148 0.78113 0.0603 0.0
O40 O 0.73088 0.81828 0.1014 0.0
O41 O 0.62591 0.78573 0.09799 0.0
C42 C 0.78635 0.786 0.03298 0.0
C43 C 0.59146 0.64729 0.05915 0.0
C44 C 0.67903 0.88749 0.03745 0.0
O45 O 0.78618 0.79056 0.0585 0.0
O46 O 0.73389 0.7785 0.02154 0.0
O47 O 0.63789 0.82729 0.03061 0.0
O48 O 0.71858 0.89325 0.05639 0.0
C49 C 0.67763 0.80891 0.11306 0.0
O50 O 0.58632 0.68843 0.04359 0.0
O51 O 0.64064 0.67357 0.07532 0.0
In52 In 0.9017 0.68046 0.39198 0.0
O53 O 0.91349 0.73072 0.43279 0.0
O54 O 0.84209 0.62524 0.42984 0.0
C55 C 0.00255 0.78471 0.36469 0.0
C56 C 0.94585 0.59085 0.39169 0.0
C57 C 0.79342 0.67801 0.3686 0.0
O58 O 0.99695 0.7851 0.39015 0.0
O59 O 0.95781 0.7321 0.35324 0.0
O60 O 0.81363 0.63799 0.3615 0.0
O61 O 0.82573 0.71637 0.38805 0.0
C62 C 0.87029 0.67741 0.44469 0.0
O63 O 0.89841 0.584 0.37642 0.0
O64 O 0.96963 0.64146 0.40713 0.0
In65 In 0.22681 0.90007 0.72532 0.0
O66 O 0.32017 0.89702 0.70983 0.0
O67 O 0.33337 0.96524 0.74167 0.0
C68 C 0.12211 0.79262 0.70097 0.0
C69 C 0.19276 0.86597 0.77753 0.0
C70 C 0.22541 0.00234 0.69828 0.0
O71 O 0.18268 0.81316 0.69428 0.0
O72 O 0.11513 0.82423 0.72044 0.0
O73 O 0.221 0.99737 0.7238 0.0
O74 O 0.23071 0.95629 0.68668 0.0
C75 C 0.36046 0.94266 0.72581 0.0
O76 O 0.18481 0.91043 0.76554 0.0
O77 O 0.21788 0.83824 0.76308 0.0
In78 In 0.78275 0.67843 0.61154 0.0
O79 O 0.82206 0.72946 0.57089 0.0
O80 O 0.78765 0.62388 0.57358 0.0
C81 C 0.78539 0.78217 0.63887 0.0
C82 C 0.64902 0.58843 0.61177 0.0
C83 C 0.88835 0.67587 0.63506 0.0
O84 O 0.79097 0.78253 0.61339 0.0
O85 O 0.77838 0.72989 0.65031 0.0
O86 O 0.828 0.6355 0.64195 0.0
O87 O 0.89467 0.71467 0.61572 0.0
C88 C 0.81201 0.67634 0.55887 0.0
O89 O 0.68962 0.58192 0.62715 0.0
O90 O 0.67583 0.63886 0.59621 0.0
In91 In 0.10026 0.78061 0.94453 0.0
O92 O 0.11454 0.68935 0.95191 0.0
O93 O 0.01659 0.67127 0.94163 0.0
C94 C 0.20829 0.88462 0.96892 0.0
C95 C 0.12639 0.80391 0.89103 0.0
C96 C 0.00344 0.78974 0.97205 0.0
O97 O 0.18256 0.82454 0.97737 0.0
O98 O 0.18173 0.89125 0.94759 0.0
O99 O 0.0068 0.79247 0.94642 0.0
O100 O 0.04894 0.78298 0.98353 0.0
C101 C 0.05317 0.64638 0.94756 0.0
O102 O 0.08679 0.81819 0.90343 0.0
O103 O 0.15268 0.77773 0.90562 0.0
In104 In 0.32254 0.10317 0.27742 0.0
O105 O 0.41864 0.10626 0.29327 0.0
O106 O 0.36191 0.03546 0.26234 0.0
C107 C 0.32492 0.21069 0.30146 0.0
C108 C 0.3258 0.13613 0.22484 0.0
C109 C 0.21822 1.00157 0.30439 0.0
O110 O 0.36518 0.19049 0.3082 0.0
O111 O 0.2864 0.17887 0.28197 0.0
O112 O 0.21847 0.00689 0.27889 0.0
O113 O 0.27013 0.04696 0.31598 0.0
C114 C 0.4121 0.05897 0.278 0.0
O115 O 0.27237 0.09302 0.23668 0.0
O116 O 0.37802 0.16346 0.23967 0.0
In117 In 0.227 0.32278 0.6113 0.0
O118 O 0.18743 0.27279 0.57049 0.0
O119 O 0.22127 0.37814 0.57368 0.0
C120 C 0.22523 0.21887 0.63823 0.0
C121 C 0.36065 0.41299 0.61152 0.0
C122 C 0.12158 0.32415 0.63554 0.0
O123 O 0.21874 0.21856 0.61279 0.0
O124 O 0.23269 0.27116 0.6498 0.0
O125 O 0.18202 0.3646 0.64228 0.0
O126 O 0.11503 0.2859 0.61597 0.0
C127 C 0.19696 0.32609 0.55876 0.0
O128 O 0.31997 0.41938 0.62688 0.0
O129 O 0.33394 0.36262 0.59596 0.0
In130 In 0.89902 0.22338 0.94587 0.0
O131 O 0.91118 0.18148 0.90566 0.0
O132 O 0.849 0.22626 0.90618 0.0
C133 C 0.99708 0.21389 0.97227 0.0
C134 C 0.94526 0.3576 0.94856 0.0
C135 C 0.79143 0.12191 0.97162 0.0
O136 O 0.9504 0.21747 0.98431 0.0
O137 O 0.99421 0.21446 0.94665 0.0
O138 O 0.82046 0.18209 0.98012 0.0
O139 O 0.81422 0.11404 0.9495 0.0
C140 C 0.87378 0.19731 0.89243 0.0
O141 O 0.98275 0.33292 0.94426 0.0
O142 O 0.88338 0.31445 0.9515 0.0
In143 In 0.67726 0.9022 0.27931 0.0
O144 O 0.72843 0.91272 0.23882 0.0
O145 O 0.62279 0.84186 0.24146 0.0
C146 C 0.78146 0.0041 0.30622 0.0
C147 C 0.58701 0.94556 0.27909 0.0
C148 C 0.6748 0.79455 0.30338 0.0
O149 O 0.78133 0.9983 0.28075 0.0
O150 O 0.7294 0.95904 0.31785 0.0
O151 O 0.63547 0.81557 0.3105 0.0
O152 O 0.71241 0.82568 0.28358 0.0
C153 C 0.67537 0.8694 0.22683 0.0
O154 O 0.58045 0.89858 0.29458 0.0
O155 O 0.63759 0.96922 0.26365 0.0
C156 C 0.52523 0.53879 0.03378 0.0
C157 C 0.54465 0.57389 0.05853 0.0
H158 H 0.47002 0.44194 0.01428 0.0
C159 C 0.5217 0.53787 0.08295 0.0
H160 H 0.54301 0.56568 0.01473 0.0
C161 C 0.47866 0.46792 0.08267 0.0
C162 C 0.46023 0.43255 0.058 0.0
H163 H 0.53634 0.56402 0.10226 0.0
H164 H 0.46049 0.44127 0.10175 0.0
C165 C 0.48424 0.46831 0.03354 0.0
C166 C 0.01639 0.48245 0.4163 0.0
C167 C 0.03155 0.46171 0.3918 0.0
H168 H 0.97858 0.5412 0.43532 0.0
C169 C 0.01711 0.48255 0.36711 0.0
H170 H 0.02687 0.46666 0.43557 0.0
C171 C 0.9868 0.52274 0.36698 0.0
C172 C 0.97292 0.5445 0.39153 0.0
H173 H 0.02777 0.46643 0.34799 0.0
H174 H 0.97568 0.53811 0.34776 0.0
C175 C 0.98863 0.52469 0.41616 0.0
C176 C 0.46951 0.98479 0.75027 0.0
C177 C 0.43397 0.96973 0.72565 0.0
H178 H 0.56583 0.02268 0.7696 0.0
C179 C 0.46971 0.98438 0.70109 0.0
H180 H 0.44292 0.97417 0.76945 0.0
C181 C 0.54025 0.01481 0.70118 0.0
C182 C 0.57555 0.02864 0.72584 0.0
H183 H 0.44327 0.97382 0.68187 0.0
H184 H 0.56703 0.02608 0.68204 0.0
C185 C 0.53958 0.01269 0.75036 0.0
C186 C 0.53998 0.52189 0.5874 0.0
C187 C 0.57558 0.54204 0.612 0.0
H188 H 0.4436 0.46361 0.56811 0.0
C189 C 0.53999 0.52068 0.6366 0.0
H190 H 0.56651 0.5381 0.56822 0.0
C191 C 0.46945 0.48054 0.63653 0.0
C192 C 0.4341 0.45936 0.61188 0.0
H193 H 0.56655 0.53635 0.65579 0.0
H194 H 0.44271 0.46473 0.65568 0.0
C195 C 0.46994 0.47969 0.58734 0.0
C196 C 0.92907 0.45815 0.94839 0.0
C197 C 0.97239 0.43137 0.94945 0.0
H198 H 0.92087 0.54733 0.94674 0.0
C199 C 0.04254 0.47585 0.95066 0.0
H200 H 0.87486 0.42512 0.94741 0.0
C201 C 0.06892 0.54577 0.95055 0.0
C202 C 0.02568 0.57258 0.94888 0.0
H203 H 0.07719 0.45661 0.9516 0.0
H204 H 0.12316 0.57878 0.95131 0.0
C205 C 0.95549 0.5281 0.94794 0.0
C206 C 0.47799 0.01506 0.25414 0.0
C207 C 0.45814 0.03152 0.27856 0.0
H208 H 0.53597 0.97611 0.2353 0.0
C209 C 0.47961 0.01813 0.30331 0.0
H210 H 0.4617 0.02472 0.23483 0.0
C211 C 0.51962 0.98763 0.30359 0.0
C212 C 0.54056 0.97251 0.27911 0.0
H213 H 0.46419 0.02982 0.32238 0.0
H214 H 0.53556 0.97741 0.32287 0.0
C215 C 0.52007 0.98711 0.2544 0.0
C216 C 0.38797 0.1897 0.18168 0.0
C217 C 0.3267 0.1525 0.19575 0.0
H218 H 0.43602 0.2322 0.14358 0.0
C219 C 0.26573 0.12995 0.18167 0.0
H220 H 0.43574 0.2075 0.19201 0.0
C221 C 0.2659 0.14457 0.15413 0.0
C222 C 0.32704 0.18129 0.13997 0.0
H223 H 0.21771 0.10123 0.19197 0.0
H224 H 0.218 0.12666 0.1439 0.0
C225 C 0.38813 0.20359 0.15397 0.0
C226 C 0.12866 0.26638 0.48803 0.0
C227 C 0.15165 0.32762 0.47406 0.0
H228 H 0.12537 0.21802 0.52565 0.0
C229 C 0.18964 0.38869 0.48818 0.0
H230 H 0.09932 0.2185 0.47769 0.0
C231 C 0.20389 0.38841 0.51582 0.0
C232 C 0.18116 0.32706 0.52971 0.0
H233 H 0.20782 0.43666 0.47794 0.0
H234 H 0.23314 0.43617 0.52624 0.0
C235 C 0.14362 0.2661 0.5155 0.0
C236 C 0.81132 0.19375 0.82081 0.0
C237 C 0.83051 0.15158 0.80758 0.0
H238 H 0.80954 0.24092 0.85815 0.0
C239 C 0.86469 0.12527 0.82238 0.0
H240 H 0.78481 0.21466 0.80993 0.0
C241 C 0.87932 0.14073 0.84987 0.0
C242 C 0.85945 0.18223 0.86321 0.0
H243 H 0.88021 0.0927 0.81272 0.0
H244 H 0.90561 0.11957 0.86075 0.0
C245 C 0.82534 0.20865 0.84842 0.0
C246 C 0.61494 0.80156 0.15588 0.0
C247 C 0.6764 0.82401 0.14216 0.0
H248 H 0.56634 0.79762 0.19362 0.0
C249 C 0.73717 0.86087 0.15655 0.0
H250 H 0.56732 0.77285 0.14531 0.0
C251 C 0.73662 0.87557 0.18403 0.0
C252 C 0.67527 0.85294 0.19781 0.0
H253 H 0.78533 0.8789 0.14652 0.0
H254 H 0.78437 0.90444 0.1945 0.0
C255 C 0.61437 0.81552 0.18352 0.0
C256 C 0.86455 0.73722 0.51567 0.0
C257 C 0.82708 0.67598 0.52972 0.0
H258 H 0.90787 0.78555 0.47785 0.0
C259 C 0.80355 0.6149 0.51558 0.0
H260 H 0.8834 0.7851 0.52603 0.0
C261 C 0.81689 0.61516 0.48783 0.0
C262 C 0.85473 0.6765 0.47385 0.0
H263 H 0.77433 0.56693 0.52589 0.0
H264 H 0.79807 0.56739 0.47739 0.0
C265 C 0.8786 0.73748 0.48808 0.0
C266 C 0.12091 0.85762 0.84757 0.0
C267 C 0.14195 0.81817 0.86182 0.0
H268 H 0.12091 0.90399 0.8098 0.0
C269 C 0.17888 0.79344 0.84802 0.0
H270 H 0.09245 0.87745 0.85767 0.0
C271 C 0.19465 0.80811 0.8205 0.0
C272 C 0.17447 0.84845 0.80638 0.0
H273 H 0.19565 0.76277 0.85847 0.0
H274 H 0.22339 0.78862 0.8104 0.0
C275 C 0.13733 0.87292 0.82017 0.0
C276 C 0.29039 0.00815 0.97329 0.0
C277 C 0.25521 0.94383 0.98532 0.0
H278 H 0.34298 0.11526 0.9796 0.0
C279 C 0.25544 0.93852 0.01372 0.0
H280 H 0.291 0.01362 0.95143 0.0
C281 C 0.28396 0.99668 0.02983 0.0
C282 C 0.31415 0.06101 0.01779 0.0
H283 H 0.22849 0.88964 0.02355 0.0
H284 H 0.27857 0.99125 0.05168 0.0
C285 C 0.32036 0.06633 0.98942 0.0
C286 C 0.29024 0.2854 0.36299 0.0
C287 C 0.25531 0.31523 0.3514 0.0
H288 H 0.34244 0.23088 0.35595 0.0
C289 C 0.25494 0.32141 0.32305 0.0
H290 H 0.29104 0.27987 0.38481 0.0
C291 C 0.28278 0.29182 0.30654 0.0
C292 C 0.31313 0.2574 0.31814 0.0
H293 H 0.22785 0.34362 0.3136 0.0
H294 H 0.27684 0.2922 0.28473 0.0
C295 C 0.31983 0.25757 0.34648 0.0
C296 C 0.01166 0.28796 0.69702 0.0
C297 C 0.94697 0.25344 0.68535 0.0
H298 H 0.11849 0.34021 0.6901 0.0
C299 C 0.94067 0.25377 0.657 0.0
H300 H 0.01778 0.28821 0.71884 0.0
C301 C 0.99827 0.28194 0.64056 0.0
C302 C 0.06296 0.31194 0.65223 0.0
H303 H 0.89142 0.227 0.64748 0.0
H304 H 0.99214 0.27657 0.61873 0.0
C305 C 0.06925 0.3179 0.68058 0.0
C306 C 0.67879 0.94125 0.99339 0.0
C307 C 0.69001 0.94688 0.02153 0.0
H308 H 0.70275 0.99332 0.95521 0.0
C309 C 0.7237 0.01141 0.03337 0.0
H310 H 0.65334 0.89212 0.98373 0.0
C311 C 0.75068 0.06932 0.01712 0.0
C312 C 0.74588 0.06354 0.98872 0.0
H313 H 0.73296 0.01707 0.05504 0.0
H314 H 0.78042 0.11823 0.02667 0.0
C315 C 0.70724 0.99916 0.97706 0.0
C316 C 0.71577 0.71237 0.30789 0.0
C317 C 0.68678 0.74762 0.31987 0.0
H318 H 0.77037 0.65995 0.31425 0.0
C319 C 0.68193 0.74811 0.34826 0.0
H320 H 0.72023 0.71143 0.28602 0.0
C321 C 0.71214 0.72018 0.3644 0.0
C322 C 0.7459 0.68966 0.35239 0.0
H323 H 0.66037 0.77542 0.35802 0.0
H324 H 0.71283 0.72625 0.38623 0.0
C325 C 0.74427 0.68274 0.32404 0.0
C326 C 0.99916 0.71005 0.69611 0.0
C327 C 0.06365 0.74557 0.68433 0.0
H328 H 0.89224 0.65733 0.68942 0.0
C329 C 0.06962 0.74628 0.65596 0.0
H330 H 0.9933 0.70899 0.71796 0.0
C331 C 0.0118 0.71828 0.63963 0.0
C332 C 0.94724 0.68748 0.65145 0.0
H333 H 0.11872 0.77383 0.64636 0.0
H334 H 0.01761 0.72454 0.61782 0.0
C335 C 0.94136 0.68033 0.67978 0.0
C336 C 0.10907 0.21963 0.97338 0.0
C337 C 0.0522 0.21238 0.9872 0.0
H338 H 0.2063 0.22814 0.97661 0.0
C339 C 0.04941 0.2061 0.01562 0.0
H340 H 0.11263 0.22474 0.95149 0.0
C341 C 0.1029 0.20785 0.03001 0.0
C342 C 0.1603 0.21632 0.01624 0.0
H343 H 0.00606 0.20028 0.0268 0.0
H344 H 0.09957 0.20327 0.05192 0.0
C345 C 0.16273 0.2218 0.98778 0.0
C346 C 0.83729 0.05885 0.34995 0.0
C347 C 0.83765 0.05909 0.3214 0.0
H348 H 0.88845 0.1097 0.38644 0.0
C349 C 0.89178 0.11237 0.30763 0.0
H350 H 0.79621 0.01827 0.36111 0.0
C351 C 0.94431 0.1648 0.32213 0.0
C352 C 0.94388 0.16466 0.35068 0.0
H353 H 0.89334 0.11383 0.28565 0.0
H354 H 0.98528 0.20547 0.31097 0.0
C355 C 0.89007 0.11106 0.36446 0.0
C356 C 0.7867 0.89203 0.6407 0.0
C357 C 0.78644 0.83796 0.65427 0.0
H358 H 0.78617 0.98495 0.64439 0.0
C359 C 0.78655 0.83716 0.68281 0.0
H360 H 0.78661 0.89392 0.61873 0.0
C361 C 0.7867 0.88943 0.69753 0.0
C362 C 0.78622 0.94313 0.68395 0.0
H363 H 0.78652 0.79612 0.69382 0.0
H364 H 0.78662 0.88749 0.7195 0.0
C365 C 0.78634 0.94402 0.65541 0.0
C366 C 0.89812 0.7912 0.03094 0.0
C367 C 0.84295 0.78895 0.0175 0.0
H368 H 0.99227 0.79324 0.02702 0.0
C369 C 0.84185 0.78896 0.98896 0.0
H370 H 0.90034 0.79136 0.05291 0.0
C371 C 0.89459 0.79044 0.97413 0.0
C372 C 0.94922 0.79155 0.98757 0.0
H373 H 0.80004 0.78751 0.97804 0.0
H374 H 0.8921 0.78977 0.95216 0.0
C375 C 0.95069 0.79228 0.01611 0.0
C376 C 0.05668 0.83985 0.32077 0.0
C377 C 0.05711 0.84083 0.34931 0.0
H378 H 0.10722 0.89028 0.28411 0.0
C379 C 0.11028 0.89545 0.36291 0.0
H380 H 0.01616 0.79839 0.30975 0.0
C381 C 0.16251 0.94776 0.34823 0.0
C382 C 0.16226 0.94664 0.31969 0.0
H383 H 0.11188 0.89751 0.38488 0.0
H384 H 0.20314 0.98908 0.35926 0.0
C385 C 0.10868 0.89242 0.30608 0.0
C386 C 0.22328 0.05625 0.65446 0.0
C387 C 0.22459 0.05741 0.683 0.0
H388 H 0.22207 0.10635 0.61787 0.0
C389 C 0.22548 0.11164 0.69666 0.0
H390 H 0.22243 0.01493 0.64339 0.0
C391 C 0.22564 0.16407 0.68204 0.0
C392 C 0.22445 0.16298 0.6535 0.0
H393 H 0.22651 0.11383 0.71863 0.0
H394 H 0.22665 0.20546 0.69312 0.0
C395 C 0.22298 0.10846 0.63984 0.0
loop_
_geom_bond_atom_site_label_1
_geom_bond_atom_site_label_2
_geom_bond_distance
_geom_bond_site_symmetry_2
_ccdc_geom_bond_type
In0 O1 2.294 . S
In0 O2 2.326 . S
In0 O6 2.266 . S
In0 O7 2.326 . S
In0 O8 2.266 . S
In0 O9 2.326 . S
In0 O11 2.294 . S
In0 O12 2.326 . S
O1 In0 2.294 . S
O1 C10 1.240 . S
O2 In0 2.326 . S
O2 C10 1.252 . S
C3 O6 1.252 . S
C3 O7 1.260 . S
C4 O11 1.240 . S
C4 O12 1.252 . S
C5 O8 1.252 . S
C5 O9 1.260 . S
O6 In0 2.266 . S
O6 C3 1.252 . S
O7 In0 2.326 . S
O7 C3 1.260 . S
O8 In0 2.266 . S
O8 C5 1.252 . S
O9 In0 2.326 . S
O9 C5 1.260 . S
C10 O1 1.240 . S
C10 O2 1.252 . S
O11 In0 2.294 . S
O11 C4 1.240 . S
O12 In0 2.326 . S
O12 C4 1.252 . S
In13 O14 2.294 . S
In13 O15 2.326 . S
In13 O19 2.266 1_455 S
In13 O20 2.326 . S
In13 O21 2.266 . S
In13 O22 2.326 . S
In13 O24 2.294 . S
In13 O25 2.326 . S
O14 In13 2.294 . S
O14 C23 1.240 . S
O15 In13 2.326 . S
O15 C23 1.252 . S
C16 O19 1.252 . S
C16 O20 1.260 1_655 S
C17 O24 1.240 . S
C17 O25 1.252 . S
C18 O21 1.252 . S
C18 O22 1.260 . S
O19 In13 2.266 1_655 S
O19 C16 1.252 . S
O20 In13 2.326 . S
O20 C16 1.260 1_455 S
O21 In13 2.266 . S
O21 C18 1.252 . S
O22 In13 2.326 . S
O22 C18 1.260 . S
C23 O14 1.240 . S
C23 O15 1.252 . S
O24 In13 2.294 . S
O24 C17 1.240 . S
O25 In13 2.326 . S
O25 C17 1.252 . S
In26 O27 2.294 . S
In26 O28 2.326 . S
In26 O32 2.266 . S
In26 O33 2.326 . S
In26 O34 2.266 1_545 S
In26 O35 2.326 . S
In26 O37 2.294 . S
In26 O38 2.326 . S
O27 In26 2.294 . S
O27 C36 1.240 . S
O28 In26 2.326 . S
O28 C36 1.252 . S
C29 O32 1.252 . S
C29 O33 1.260 . S
C30 O37 1.240 . S
C30 O38 1.252 . S
C31 O34 1.252 . S
C31 O35 1.260 1_565 S
O32 In26 2.266 . S
O32 C29 1.252 . S
O33 In26 2.326 . S
O33 C29 1.260 . S
O34 In26 2.266 1_565 S
O34 C31 1.252 . S
O35 In26 2.326 . S
O35 C31 1.260 1_545 S
C36 O27 1.240 . S
C36 O28 1.252 . S
O37 In26 2.294 . S
O37 C30 1.240 . S
O38 In26 2.326 . S
O38 C30 1.252 . S
In39 O40 2.294 . S
In39 O41 2.326 . S
In39 O45 2.266 . S
In39 O46 2.326 . S
In39 O47 2.266 . S
In39 O48 2.326 . S
In39 O50 2.294 . S
In39 O51 2.326 . S
O40 In39 2.294 . S
O40 C49 1.240 . S
O41 In39 2.326 . S
O41 C49 1.252 . S
C42 O45 1.252 . S
C42 O46 1.260 . S
C43 O50 1.240 . S
C43 O51 1.252 . S
C44 O47 1.252 . S
C44 O48 1.260 . S
O45 In39 2.266 . S
O45 C42 1.252 . S
O46 In39 2.326 . S
O46 C42 1.260 . S
O47 In39 2.266 . S
O47 C44 1.252 . S
O48 In39 2.326 . S
O48 C44 1.260 . S
C49 O40 1.240 . S
C49 O41 1.252 . S
O50 In39 2.294 . S
O50 C43 1.240 . S
O51 In39 2.326 . S
O51 C43 1.252 . S
In52 O53 2.294 . S
In52 O54 2.326 . S
In52 O58 2.266 1_655 S
In52 O59 2.326 . S
In52 O60 2.266 . S
In52 O61 2.326 . S
In52 O63 2.294 . S
In52 O64 2.326 . S
O53 In52 2.294 . S
O53 C62 1.240 . S
O54 In52 2.326 . S
O54 C62 1.252 . S
C55 O58 1.252 . S
C55 O59 1.260 1_455 S
C56 O63 1.240 . S
C56 O64 1.252 . S
C57 O60 1.252 . S
C57 O61 1.260 . S
O58 In52 2.266 1_455 S
O58 C55 1.252 . S
O59 In52 2.326 . S
O59 C55 1.260 1_655 S
O60 In52 2.266 . S
O60 C57 1.252 . S
O61 In52 2.326 . S
O61 C57 1.260 . S
C62 O53 1.240 . S
C62 O54 1.252 . S
O63 In52 2.294 . S
O63 C56 1.240 . S
O64 In52 2.326 . S
O64 C56 1.252 . S
In65 O66 2.294 . S
In65 O67 2.326 . S
In65 O71 2.266 . S
In65 O72 2.326 . S
In65 O73 2.266 1_565 S
In65 O74 2.326 . S
In65 O76 2.294 . S
In65 O77 2.326 . S
O66 In65 2.294 . S
O66 C75 1.240 . S
O67 In65 2.326 . S
O67 C75 1.252 . S
C68 O71 1.252 . S
C68 O72 1.260 . S
C69 O76 1.240 . S
C69 O77 1.252 . S
C70 O73 1.252 . S
C70 O74 1.260 1_545 S
O71 In65 2.266 . S
O71 C68 1.252 . S
O72 In65 2.326 . S
O72 C68 1.260 . S
O73 In65 2.266 1_545 S
O73 C70 1.252 . S
O74 In65 2.326 . S
O74 C70 1.260 1_565 S
C75 O66 1.240 . S
C75 O67 1.252 . S
O76 In65 2.294 . S
O76 C69 1.240 . S
O77 In65 2.326 . S
O77 C69 1.252 . S
In78 O79 2.294 . S
In78 O80 2.326 . S
In78 O84 2.266 . S
In78 O85 2.326 . S
In78 O86 2.266 . S
In78 O87 2.326 . S
In78 O89 2.294 . S
In78 O90 2.326 . S
O79 In78 2.294 . S
O79 C88 1.240 . S
O80 In78 2.326 . S
O80 C88 1.252 . S
C81 O84 1.252 . S
C81 O85 1.260 . S
C82 O89 1.240 . S
C82 O90 1.252 . S
C83 O86 1.252 . S
C83 O87 1.260 . S
O84 In78 2.266 . S
O84 C81 1.252 . S
O85 In78 2.326 . S
O85 C81 1.260 . S
O86 In78 2.266 . S
O86 C83 1.252 . S
O87 In78 2.326 . S
O87 C83 1.260 . S
C88 O79 1.240 . S
C88 O80 1.252 . S
O89 In78 2.294 . S
O89 C82 1.240 . S
O90 In78 2.326 . S
O90 C82 1.252 . S
In91 O92 2.294 . S
In91 O93 2.326 . S
In91 O97 2.266 . S
In91 O98 2.326 . S
In91 O99 2.266 1_455 S
In91 O100 2.326 . S
In91 O102 2.294 . S
In91 O103 2.326 . S
O92 In91 2.294 . S
O92 C101 1.240 . S
O93 In91 2.326 . S
O93 C101 1.252 . S
C94 O97 1.252 . S
C94 O98 1.260 . S
C95 O102 1.240 . S
C95 O103 1.252 . S
C96 O99 1.252 . S
C96 O100 1.260 1_655 S
O97 In91 2.266 . S
O97 C94 1.252 . S
O98 In91 2.326 . S
O98 C94 1.260 . S
O99 In91 2.266 1_655 S
O99 C96 1.252 . S
O100 In91 2.326 . S
O100 C96 1.260 1_455 S
C101 O92 1.240 . S
C101 O93 1.252 . S
O102 In91 2.294 . S
O102 C95 1.240 . S
O103 In91 2.326 . S
O103 C95 1.252 . S
In104 O105 2.294 . S
In104 O106 2.326 . S
In104 O110 2.266 . S
In104 O111 2.326 . S
In104 O112 2.266 1_545 S
In104 O113 2.326 . S
In104 O115 2.294 . S
In104 O116 2.326 . S
O105 In104 2.294 . S
O105 C114 1.240 . S
O106 In104 2.326 . S
O106 C114 1.252 . S
C107 O110 1.252 . S
C107 O111 1.260 . S
C108 O115 1.240 . S
C108 O116 1.252 . S
C109 O112 1.252 . S
C109 O113 1.260 1_565 S
O110 In104 2.266 . S
O110 C107 1.252 . S
O111 In104 2.326 . S
O111 C107 1.260 . S
O112 In104 2.266 1_565 S
O112 C109 1.252 . S
O113 In104 2.326 . S
O113 C109 1.260 1_545 S
C114 O105 1.240 . S
C114 O106 1.252 . S
O115 In104 2.294 . S
O115 C108 1.240 . S
O116 In104 2.326 . S
O116 C108 1.252 . S
In117 O118 2.294 . S
In117 O119 2.326 . S
In117 O123 2.266 . S
In117 O124 2.326 . S
In117 O125 2.266 . S
In117 O126 2.326 . S
In117 O128 2.294 . S
In117 O129 2.326 . S
O118 In117 2.294 . S
O118 C127 1.240 . S
O119 In117 2.326 . S
O119 C127 1.252 . S
C120 O123 1.252 . S
C120 O124 1.260 . S
C121 O128 1.240 . S
C121 O129 1.252 . S
C122 O125 1.252 . S
C122 O126 1.260 . S
O123 In117 2.266 . S
O123 C120 1.252 . S
O124 In117 2.326 . S
O124 C120 1.260 . S
O125 In117 2.266 . S
O125 C122 1.252 . S
O126 In117 2.326 . S
O126 C122 1.260 . S
C127 O118 1.240 . S
C127 O119 1.252 . S
O128 In117 2.294 . S
O128 C121 1.240 . S
O129 In117 2.326 . S
O129 C121 1.252 . S
In130 O131 2.294 . S
In130 O132 2.326 . S
In130 O136 2.266 1_655 S
In130 O137 2.326 . S
In130 O138 2.266 . S
In130 O139 2.326 . S
In130 O141 2.294 . S
In130 O142 2.326 . S
O131 In130 2.294 . S
O131 C140 1.240 . S
O132 In130 2.326 . S
O132 C140 1.252 . S
C133 O136 1.252 . S
C133 O137 1.260 1_455 S
C134 O141 1.240 . S
C134 O142 1.252 . S
C135 O138 1.252 . S
C135 O139 1.260 . S
O136 In130 2.266 1_455 S
O136 C133 1.252 . S
O137 In130 2.326 . S
O137 C133 1.260 1_655 S
O138 In130 2.266 . S
O138 C135 1.252 . S
O139 In130 2.326 . S
O139 C135 1.260 . S
C140 O131 1.240 . S
C140 O132 1.252 . S
O141 In130 2.294 . S
O141 C134 1.240 . S
O142 In130 2.326 . S
O142 C134 1.252 . S
In143 O144 2.294 . S
In143 O145 2.326 . S
In143 O149 2.266 1_565 S
In143 O150 2.326 . S
In143 O151 2.266 . S
In143 O152 2.326 . S
In143 O154 2.294 . S
In143 O155 2.326 . S
O144 In143 2.294 . S
O144 C153 1.240 . S
O145 In143 2.326 . S
O145 C153 1.252 . S
C146 O149 1.252 . S
C146 O150 1.260 1_545 S
C147 O154 1.240 . S
C147 O155 1.252 . S
C148 O151 1.252 . S
C148 O152 1.260 . S
O149 In143 2.266 1_545 S
O149 C146 1.252 . S
O150 In143 2.326 . S
O150 C146 1.260 1_565 S
O151 In143 2.266 . S
O151 C148 1.252 . S
O152 In143 2.326 . S
O152 C148 1.260 . S
C153 O144 1.240 . S
C153 O145 1.252 . S
O154 In143 2.294 . S
O154 C147 1.240 . S
O155 In143 2.326 . S
O155 C147 1.252 . S
C156 C157 1.387 . S
C156 H160 0.950 . S
C156 C165 1.390 . S
C157 C156 1.387 . S
C157 C159 1.387 . S
H158 C165 0.950 . S
C159 C157 1.387 . S
C159 C161 1.390 . S
C159 H163 0.950 . S
H160 C156 0.950 . S
C161 C159 1.390 . S
C161 C162 1.387 . S
C161 H164 0.950 . S
C162 C161 1.387 . S
C162 C165 1.387 . S
H163 C159 0.950 . S
H164 C161 0.950 . S
C165 C156 1.390 . S
C165 H158 0.950 . S
C165 C162 1.387 . S
C166 C167 1.387 . S
C166 H170 0.950 . S
C166 C175 1.390 1_455 S
C167 C166 1.387 . S
C167 C169 1.387 . S
H168 C175 0.950 . S
C169 C167 1.387 . S
C169 C171 1.390 1_455 S
C169 H173 0.950 . S
H170 C166 0.950 . S
C171 C169 1.390 1_655 S
C171 C172 1.387 . S
C171 H174 0.950 . S
C172 C171 1.387 . S
C172 C175 1.387 . S
H173 C169 0.950 . S
H174 C171 0.950 . S
C175 C166 1.390 1_655 S
C175 H168 0.950 . S
C175 C172 1.387 . S
C176 C177 1.387 . S
C176 H180 0.950 . S
C176 C185 1.390 1_565 S
C177 C176 1.387 . S
C177 C179 1.387 . S
H178 C185 0.950 . S
C179 C177 1.387 . S
C179 C181 1.390 1_565 S
C179 H183 0.950 . S
H180 C176 0.950 . S
C181 C179 1.390 1_545 S
C181 C182 1.387 . S
C181 H184 0.950 . S
C182 C181 1.387 . S
C182 C185 1.387 . S
H183 C179 0.950 . S
H184 C181 0.950 . S
C185 C176 1.390 1_545 S
C185 H178 0.950 . S
C185 C182 1.387 . S
C186 C187 1.387 . S
C186 H190 0.950 . S
C186 C195 1.390 . S
C187 C186 1.387 . S
C187 C189 1.387 . S
H188 C195 0.950 . S
C189 C187 1.387 . S
C189 C191 1.390 . S
C189 H193 0.950 . S
H190 C186 0.950 . S
C191 C189 1.390 . S
C191 C192 1.387 . S
C191 H194 0.950 . S
C192 C191 1.387 . S
C192 C195 1.387 . S
H193 C189 0.950 . S
H194 C191 0.950 . S
C195 C186 1.390 . S
C195 H188 0.950 . S
C195 C192 1.387 . S
C196 C197 1.387 . S
C196 H200 0.950 . S
C196 C205 1.390 1_655 S
C197 C196 1.387 . S
C197 C199 1.387 . S
H198 C205 0.950 . S
C199 C197 1.387 . S
C199 C201 1.390 1_655 S
C199 H203 0.950 . S
H200 C196 0.950 . S
C201 C199 1.390 1_455 S
C201 C202 1.387 . S
C201 H204 0.950 . S
C202 C201 1.387 . S
C202 C205 1.387 . S
H203 C199 0.950 . S
H204 C201 0.950 . S
C205 C196 1.390 1_455 S
C205 H198 0.950 . S
C205 C202 1.387 . S
C206 C207 1.387 . S
C206 H210 0.950 . S
C206 C215 1.390 1_545 S
C207 C206 1.387 . S
C207 C209 1.387 . S
H208 C215 0.950 . S
C209 C207 1.387 . S
C209 C211 1.390 1_545 S
C209 H213 0.950 . S
H210 C206 0.950 . S
C211 C209 1.390 1_565 S
C211 C212 1.387 . S
C211 H214 0.950 . S
C212 C211 1.387 . S
C212 C215 1.387 . S
H213 C209 0.950 . S
H214 C211 0.950 . S
C215 C206 1.390 1_565 S
C215 H208 0.950 . S
C215 C212 1.387 . S
C216 C217 1.387 . S
C216 H220 0.950 . S
C216 C225 1.390 . S
C217 C216 1.387 . S
C217 C219 1.387 . S
H218 C225 0.950 . S
C219 C217 1.387 . S
C219 C221 1.390 . S
C219 H223 0.950 . S
H220 C216 0.950 . S
C221 C219 1.390 . S
C221 C222 1.387 . S
C221 H224 0.950 . S
C222 C221 1.387 . S
C222 C225 1.387 . S
H223 C219 0.950 . S
H224 C221 0.950 . S
C225 C216 1.390 . S
C225 H218 0.950 . S
C225 C222 1.387 . S
C226 C227 1.387 . S
C226 H230 0.950 . S
C226 C235 1.390 . S
C227 C226 1.387 . S
C227 C229 1.387 . S
H228 C235 0.950 . S
C229 C227 1.387 . S
C229 C231 1.390 . S
C229 H233 0.950 . S
H230 C226 0.950 . S
C231 C229 1.390 . S
C231 C232 1.387 . S
C231 H234 0.950 . S
C232 C231 1.387 . S
C232 C235 1.387 . S
H233 C229 0.950 . S
H234 C231 0.950 . S
C235 C226 1.390 . S
C235 H228 0.950 . S
C235 C232 1.387 . S
C236 C237 1.387 . S
C236 H240 0.950 . S
C236 C245 1.390 . S
C237 C236 1.387 . S
C237 C239 1.387 . S
H238 C245 0.950 . S
C239 C237 1.387 . S
C239 C241 1.390 . S
C239 H243 0.950 . S
H240 C236 0.950 . S
C241 C239 1.390 . S
C241 C242 1.387 . S
C241 H244 0.950 . S
C242 C241 1.387 . S
C242 C245 1.387 . S
H243 C239 0.950 . S
H244 C241 0.950 . S
C245 C236 1.390 . S
C245 H238 0.950 . S
C245 C242 1.387 . S
C246 C247 1.387 . S
C246 H250 0.950 . S
C246 C255 1.390 . S
C247 C246 1.387 . S
C247 C249 1.387 . S
H248 C255 0.950 . S
C249 C247 1.387 . S
C249 C251 1.390 . S
C249 H253 0.950 . S
H250 C246 0.950 . S
C251 C249 1.390 . S
C251 C252 1.387 . S
C251 H254 0.950 . S
C252 C251 1.387 . S
C252 C255 1.387 . S
H253 C249 0.950 . S
H254 C251 0.950 . S
C255 C246 1.390 . S
C255 H248 0.950 . S
C255 C252 1.387 . S
C256 C257 1.387 . S
C256 H260 0.950 . S
C256 C265 1.390 . S
C257 C256 1.387 . S
C257 C259 1.387 . S
H258 C265 0.950 . S
C259 C257 1.387 . S
C259 C261 1.390 . S
C259 H263 0.950 . S
H260 C256 0.950 . S
C261 C259 1.390 . S
C261 C262 1.387 . S
C261 H264 0.950 . S
C262 C261 1.387 . S
C262 C265 1.387 . S
H263 C259 0.950 . S
H264 C261 0.950 . S
C265 C256 1.390 . S
C265 H258 0.950 . S
C265 C262 1.387 . S
C266 C267 1.387 . S
C266 H270 0.950 . S
C266 C275 1.390 . S
C267 C266 1.387 . S
C267 C269 1.387 . S
H268 C275 0.950 . S
C269 C267 1.387 . S
C269 C271 1.390 . S
C269 H273 0.950 . S
H270 C266 0.950 . S
C271 C269 1.390 . S
C271 C272 1.387 . S
C271 H274 0.950 . S
C272 C271 1.387 . S
C272 C275 1.387 . S
H273 C269 0.950 . S
H274 C271 0.950 . S
C275 C266 1.390 . S
C275 H268 0.950 . S
C275 C272 1.387 . S
C276 C277 1.387 . S
C276 H280 0.950 . S
C276 C285 1.390 1_566 S
C277 C276 1.387 . S
C277 C279 1.387 . S
H278 C285 0.950 . S
C279 C277 1.387 . S
C279 C281 1.390 1_566 S
C279 H283 0.950 . S
H280 C276 0.950 . S
C281 C279 1.390 1_544 S
C281 C282 1.387 . S
C281 H284 0.950 . S
C282 C281 1.387 . S
C282 C285 1.387 . S
H283 C279 0.950 . S
H284 C281 0.950 . S
C285 C276 1.390 1_544 S
C285 H278 0.950 . S
C285 C282 1.387 . S
C286 C287 1.387 . S
C286 H290 0.950 . S
C286 C295 1.390 . S
C287 C286 1.387 . S
C287 C289 1.387 . S
H288 C295 0.950 . S
C289 C287 1.387 . S
C289 C291 1.390 . S
C289 H293 0.950 . S
H290 C286 0.950 . S
C291 C289 1.390 . S
C291 C292 1.387 . S
C291 H294 0.950 . S
C292 C291 1.387 . S
C292 C295 1.387 . S
H293 C289 0.950 . S
H294 C291 0.950 . S
C295 C286 1.390 . S
C295 H288 0.950 . S
C295 C292 1.387 . S
C296 C297 1.387 . S
C296 H300 0.950 . S
C296 C305 1.390 1_655 S
C297 C296 1.387 . S
C297 C299 1.387 . S
H298 C305 0.950 . S
C299 C297 1.387 . S
C299 C301 1.390 1_655 S
C299 H303 0.950 . S
H300 C296 0.950 . S
C301 C299 1.390 1_455 S
C301 C302 1.387 . S
C301 H304 0.950 . S
C302 C301 1.387 . S
C302 C305 1.387 . S
H303 C299 0.950 . S
H304 C301 0.950 . S
C305 C296 1.390 1_455 S
C305 H298 0.950 . S
C305 C302 1.387 . S
C306 C307 1.387 . S
C306 H310 0.950 . S
C306 C315 1.390 1_564 S
C307 C306 1.387 . S
C307 C309 1.387 . S
H308 C315 0.950 . S
C309 C307 1.387 . S
C309 C311 1.390 1_564 S
C309 H313 0.950 . S
H310 C306 0.950 . S
C311 C309 1.390 1_546 S
C311 C312 1.387 . S
C311 H314 0.950 . S
C312 C311 1.387 . S
C312 C315 1.387 . S
H313 C309 0.950 . S
H314 C311 0.950 . S
C315 C306 1.390 1_546 S
C315 H308 0.950 . S
C315 C312 1.387 . S
C316 C317 1.387 . S
C316 H320 0.950 . S
C316 C325 1.390 . S
C317 C316 1.387 . S
C317 C319 1.387 . S
H318 C325 0.950 . S
C319 C317 1.387 . S
C319 C321 1.390 . S
C319 H323 0.950 . S
H320 C316 0.950 . S
C321 C319 1.390 . S
C321 C322 1.387 . S
C321 H324 0.950 . S
C322 C321 1.387 . S
C322 C325 1.387 . S
H323 C319 0.950 . S
H324 C321 0.950 . S
C325 C316 1.390 . S
C325 H318 0.950 . S
C325 C322 1.387 . S
C326 C327 1.387 . S
C326 H330 0.950 . S
C326 C335 1.390 1_455 S
C327 C326 1.387 . S
C327 C329 1.387 . S
H328 C335 0.950 . S
C329 C327 1.387 . S
C329 C331 1.390 1_455 S
C329 H333 0.950 . S
H330 C326 0.950 . S
C331 C329 1.390 1_655 S
C331 C332 1.387 . S
C331 H334 0.950 . S
C332 C331 1.387 . S
C332 C335 1.387 . S
H333 C329 0.950 . S
H334 C331 0.950 . S
C335 C326 1.390 1_655 S
C335 H328 0.950 . S
C335 C332 1.387 . S
C336 C337 1.387 . S
C336 H340 0.950 . S
C336 C345 1.390 1_556 S
C337 C336 1.387 . S
C337 C339 1.387 . S
H338 C345 0.950 . S
C339 C337 1.387 . S
C339 C341 1.390 1_556 S
C339 H343 0.950 . S
H340 C336 0.950 . S
C341 C339 1.390 1_554 S
C341 C342 1.387 . S
C341 H344 0.950 . S
C342 C341 1.387 . S
C342 C345 1.387 . S
H343 C339 0.950 . S
H344 C341 0.950 . S
C345 C336 1.390 1_554 S
C345 H338 0.950 . S
C345 C342 1.387 . S
C346 C347 1.387 . S
C346 H350 0.950 . S
C346 C355 1.390 . S
C347 C346 1.387 . S
C347 C349 1.387 . S
H348 C355 0.950 . S
C349 C347 1.387 . S
C349 C351 1.390 . S
C349 H353 0.950 . S
H350 C346 0.950 . S
C351 C349 1.390 . S
C351 C352 1.387 . S
C351 H354 0.950 . S
C352 C351 1.387 . S
C352 C355 1.387 . S
H353 C349 0.950 . S
H354 C351 0.950 . S
C355 C346 1.390 . S
C355 H348 0.950 . S
C355 C352 1.387 . S
C356 C357 1.387 . S
C356 H360 0.950 . S
C356 C365 1.390 . S
C357 C356 1.387 . S
C357 C359 1.387 . S
H358 C365 0.950 . S
C359 C357 1.387 . S
C359 C361 1.390 . S
C359 H363 0.950 . S
H360 C356 0.950 . S
C361 C359 1.390 . S
C361 C362 1.387 . S
C361 H364 0.950 . S
C362 C361 1.387 . S
C362 C365 1.387 . S
H363 C359 0.950 . S
H364 C361 0.950 . S
C365 C356 1.390 . S
C365 H358 0.950 . S
C365 C362 1.387 . S
C366 C367 1.387 . S
C366 H370 0.950 . S
C366 C375 1.390 1_554 S
C367 C366 1.387 . S
C367 C369 1.387 . S
H368 C375 0.950 . S
C369 C367 1.387 . S
C369 C371 1.390 1_554 S
C369 H373 0.950 . S
H370 C366 0.950 . S
C371 C369 1.390 1_556 S
C371 C372 1.387 . S
C371 H374 0.950 . S
C372 C371 1.387 . S
C372 C375 1.387 . S
H373 C369 0.950 . S
H374 C371 0.950 . S
C375 C366 1.390 1_556 S
C375 H368 0.950 . S
C375 C372 1.387 . S
C376 C377 1.387 . S
C376 H380 0.950 . S
C376 C385 1.390 . S
C377 C376 1.387 . S
C377 C379 1.387 . S
H378 C385 0.950 . S
C379 C377 1.387 . S
C379 C381 1.390 . S
C379 H383 0.950 . S
H380 C376 0.950 . S
C381 C379 1.390 . S
C381 C382 1.387 . S
C381 H384 0.950 . S
C382 C381 1.387 . S
C382 C385 1.387 . S
H383 C379 0.950 . S
H384 C381 0.950 . S
C385 C376 1.390 . S
C385 H378 0.950 . S
C385 C382 1.387 . S
C386 C387 1.387 . S
C386 H390 0.950 . S
C386 C395 1.390 . S
C387 C386 1.387 . S
C387 C389 1.387 . S
H388 C395 0.950 . S
C389 C387 1.387 . S
C389 C391 1.390 . S
C389 H393 0.950 . S
H390 C386 0.950 . S
C391 C389 1.390 . S
C391 C392 1.387 . S
C391 H394 0.950 . S
C392 C391 1.387 . S
C392 C395 1.387 . S
H393 C389 0.950 . S
H394 C391 0.950 . S
C395 C386 1.390 . S
C395 H388 0.950 . S
C395 C392 1.387 . S
C157 C43 1.593 . S
C162 C10 1.593 . S
C167 C17 1.590 . S
C172 C56 1.590 . S
C177 C75 1.591 . S
C182 C36 1.591 . S
C187 C82 1.591 . S
C192 C121 1.591 . S
C197 C134 1.591 . S
C202 C101 1.591 . S
C207 C114 1.590 . S
C212 C147 1.590 . S
C217 C108 1.625 . S
C222 C4 1.625 . S
C227 C23 1.625 . S
C232 C127 1.625 . S
C237 C30 1.625 . S
C242 C140 1.625 . S
C247 C49 1.625 . S
C252 C153 1.625 . S
C257 C88 1.625 . S
C262 C62 1.625 . S
C267 C95 1.625 . S
C272 C69 1.625 . S
C277 C94 1.355 . S
C282 C3 1.355 . S
C287 C18 1.356 . S
C292 C107 1.354 . S
C297 C29 1.356 . S
C302 C122 1.354 . S
C307 C44 1.355 . S
C312 C135 1.355 . S
C317 C148 1.356 . S
C322 C57 1.354 . S
C327 C68 1.356 . S
C332 C83 1.355 . S
C337 C133 1.434 . S
C342 C5 1.434 . S
C347 C146 1.433 . S
C352 C16 1.433 . S
C357 C81 1.433 . S
C362 C31 1.434 . S
C367 C42 1.434 . S
C372 C96 1.434 . S
C377 C55 1.433 . S
C382 C109 1.433 . S
C387 C70 1.434 . S
C392 C120 1.433 . S
