# Generated by pormake.
# Topology uni, (4)-cn, num edge types: 1
# Building blocks:
#     Node 0, Type 0, BuildingBlock: ICAMEG_clean_sbu_1, # of connection points: 4
#     Node 1, Type 0, BuildingBlock: ICAMEG_clean_sbu_1, # of connection points: 4
#     Node 2, Type 0, BuildingBlock: ICAMEG_clean_sbu_1, # of connection points: 4
#     Node 3, Type 0, BuildingBlock: ICAMEG_clean_sbu_1, # of connection points: 4
#     Node 4, Type 0, BuildingBlock: ICAMEG_clean_sbu_1, # of connection points: 4
#     Node 5, Type 0, BuildingBlock: ICAMEG_clean_sbu_1, # of connection points: 4
#     Edge 6, Type (0, 0), BuildingBlock: AJUNOK_clean_linker_0, # of connection points: 2
#     Edge 7, Type (0, 0), BuildingBlock: AJUNOK_clean_linker_0, # of connection points: 2
#     Edge 8, Type (0, 0), BuildingBlock: AJUNOK_clean_linker_0, # of connection points: 2
#     Edge 9, Type (0, 0), BuildingBlock: AJUNOK_clean_linker_0, # of connection points: 2
#     Edge 10, Type (0, 0), BuildingBlock: AJUNOK_clean_linker_0, # of connection points: 2
#     Edge 11, Type (0, 0), BuildingBlock: AJUNOK_clean_linker_0, # of connection points: 2
#     Edge 12, Type (0, 0), BuildingBlock: AJUNOK_clean_linker_0, # of connection points: 2
#     Edge 13, Type (0, 0), BuildingBlock: AJUNOK_clean_linker_0, # of connection points: 2
#     Edge 14, Type (0, 0), BuildingBlock: AJUNOK_clean_linker_0, # of connection points: 2
#     Edge 15, Type (0, 0), BuildingBlock: AJUNOK_clean_linker_0, # of connection points: 2
#     Edge 16, Type (0, 0), BuildingBlock: AJUNOK_clean_linker_0, # of connection points: 2
#     Edge 17, Type (0, 0), BuildingBlock: AJUNOK_clean_linker_0, # of connection points: 2
# Relax obj value: 0.140
# Max RMSD: 0.183
# Mean RMSD: 0.183
data_MOF--net-uni--node1-ICAMEG_clean_sbu_1--edge1-AJUNOK_clean_linker_0
_symmetry_space_group_name_H-M    P1
_symmetry_Int_Tables_number       1
_symmetry_cell_setting            triclinic
loop_
_symmetry_equiv_pos_as_xyz
'x, y, z'
_cell_length_a     30.353473
_cell_length_b     30.3012
_cell_length_c     18.233235
_cell_angle_alpha  89.93336
_cell_angle_beta   89.922139
_cell_angle_gamma 119.86788
loop_
_atom_site_label
_atom_site_type_symbol
_atom_site_fract_x
_atom_site_fract_y
_atom_site_fract_z
_atom_type_partial_charge
Co0 Co 0.64602 0.03158 0.04185 0.0
Co1 Co 0.73625 0.11109 0.16302 0.0
O2 O 0.70283 0.09796 0.06787 0.0
C3 C 0.57193 0.05639 0.97551 0.0
O4 O 0.54023 0.02832 0.02743 0.0
C5 C 0.82672 0.15367 0.06261 0.0
O6 O 0.8102 0.10904 0.03177 0.0
O7 O 0.74855 0.05272 0.14929 0.0
O8 O 0.67383 0.99532 0.10131 0.0
H9 H 0.77296 0.06344 0.41029 0.0
H10 H 0.71036 0.10788 0.93046 0.0
O11 O 0.61795 0.06635 0.97827 0.0
H12 H 0.7176 0.95348 0.86756 0.0
H13 H 0.51774 0.8998 0.8699 0.0
H14 H 0.57748 0.93842 0.1256 0.0
H15 H 0.66588 0.95343 0.97157 0.0
H16 H 0.59112 0.98304 0.90199 0.0
O17 O 0.80218 0.15912 0.11505 0.0
H18 H 0.72956 0.04746 0.29094 0.0
H19 H 0.81771 0.20422 0.23604 0.0
H20 H 0.5041 0.85462 0.09583 0.0
H21 H 0.76202 0.10956 0.82509 0.0
H22 H 0.47375 0.83484 0.96717 0.0
H23 H 0.76605 0.032 0.79306 0.0
O24 O 0.60775 0.0341 0.13089 0.0
H25 H 0.73007 0.26665 0.08255 0.0
H26 H 0.69804 0.14767 0.28682 0.0
H27 H 0.67994 0.21779 0.3033 0.0
H28 H 0.69622 0.2781 0.20073 0.0
H29 H 0.74684 0.19544 0.06815 0.0
H30 H 0.86232 0.22181 0.35458 0.0
H31 H 0.83985 0.15116 0.4428 0.0
O32 O 0.67066 0.06495 0.21372 0.0
C33 C 0.71595 1.00697 0.13228 0.0
C34 C 0.78298 0.09457 0.37241 0.0
C35 C 0.83319 0.18344 0.34109 0.0
N36 N 0.77083 0.12489 0.25674 0.0
C37 C 0.75846 0.08577 0.3048 0.0
C38 C 0.8079 0.17321 0.27394 0.0
C39 C 0.82055 0.14379 0.39057 0.0
C40 C 0.71163 0.07384 0.91681 0.0
N41 N 0.68499 0.0305 0.95759 0.0
C42 C 0.74109 0.07509 0.85708 0.0
C43 C 0.74338 0.0316 0.8392 0.0
C44 C 0.71628 0.98758 0.88102 0.0
C45 C 0.68725 0.98781 0.94037 0.0
C46 C 0.53064 0.90792 0.92615 0.0
C47 C 0.56454 0.93014 0.06948 0.0
C48 C 0.57218 0.95501 0.94469 0.0
N49 N 0.5887 0.96563 1.01568 0.0
C50 C 0.52296 0.88259 0.05294 0.0
C51 C 0.50597 0.87152 0.98075 0.0
C52 C 0.6236 0.04355 0.19737 0.0
C53 C 0.72282 0.24064 0.12766 0.0
C54 C 0.70468 0.17333 0.24173 0.0
C55 C 0.69463 0.21318 0.25149 0.0
C56 C 0.7038 0.24702 0.19395 0.0
N57 N 0.72337 0.16728 0.17658 0.0
C58 C 0.73234 0.20027 0.11989 0.0
Co59 Co 0.67082 0.63346 0.20484 0.0
Co60 Co 0.67974 0.73376 0.30343 0.0
O61 O 0.66217 0.69302 0.21353 0.0
C62 C 0.57829 0.60976 0.11217 0.0
O63 O 0.58124 0.65322 0.12871 0.0
C64 C 0.73919 0.83927 0.24346 0.0
O65 O 0.77602 0.84784 0.28917 0.0
O66 O 0.75027 0.74517 0.29812 0.0
O67 O 0.73385 0.66715 0.2659 0.0
H68 H 0.75997 0.79135 0.55147 0.0
H69 H 0.6678 0.69243 0.07418 0.0
O70 O 0.60837 0.59675 0.14123 0.0
H71 H 0.82212 0.67966 0.04223 0.0
H72 H 0.66614 0.48369 0.07693 0.0
H73 H 0.69885 0.577 0.31022 0.0
H74 H 0.7672 0.64163 0.15008 0.0
H75 H 0.65843 0.56078 0.08482 0.0
O76 O 0.69962 0.79528 0.2407 0.0
H77 H 0.73529 0.73893 0.43949 0.0
H78 H 0.66304 0.81782 0.35641 0.0
H79 H 0.70761 0.50045 0.30445 0.0
H80 H 0.72098 0.73007 0.96515 0.0
H81 H 0.69112 0.45317 0.18719 0.0
H82 H 0.79896 0.72396 0.94829 0.0
O83 O 0.62844 0.60375 0.29463 0.0
H84 H 0.52203 0.72477 0.19966 0.0
H85 H 0.60126 0.70249 0.42172 0.0
H86 H 0.51325 0.68593 0.42779 0.0
H87 H 0.47306 0.69735 0.31622 0.0
H88 H 0.60957 0.73973 0.19601 0.0
H89 H 0.68692 0.8711 0.46753 0.0
H90 H 0.73577 0.85803 0.56602 0.0
O91 O 0.65888 0.67238 0.36725 0.0
C92 C 0.7638 0.71179 0.29017 0.0
C93 C 0.73866 0.7974 0.50897 0.0
C94 C 0.69769 0.84217 0.46185 0.0
N95 N 0.69783 0.77532 0.3914 0.0
C96 C 0.72457 0.76782 0.44543 0.0
C97 C 0.68429 0.8119 0.39905 0.0
C98 C 0.72509 0.83481 0.51708 0.0
C99 C 0.70078 0.68839 0.06711 0.0
N100 N 0.71314 0.66321 0.11803 0.0
C101 C 0.73119 0.71036 1.00525 0.0
C102 C 0.775 0.70704 0.9959 0.0
C103 C 0.78799 0.6822 0.04855 0.0
C104 C 0.75662 0.66067 0.10966 0.0
C105 C 0.67346 0.50399 0.12833 0.0
C106 C 0.69199 0.5569 0.25883 0.0
C107 C 0.66895 0.54757 0.13324 0.0
N108 N 0.67839 0.57357 0.1979 0.0
C109 C 0.69685 0.51346 0.25596 0.0
C110 C 0.68752 0.48691 0.19019 0.0
C111 C 0.63398 0.62423 0.35769 0.0
C112 C 0.53906 0.71963 0.24868 0.0
C113 C 0.58388 0.70675 0.37271 0.0
C114 C 0.53409 0.6977 0.3766 0.0
C115 C 0.5116 0.70419 0.31404 0.0
N116 N 0.6106 0.72179 0.30838 0.0
C117 C 0.58875 0.72826 0.24695 0.0
Co118 Co 0.09916 0.67711 0.35533 0.0
Co119 Co 1.00125 0.67551 0.44928 0.0
O120 O 0.03002 0.66565 0.35913 0.0
C121 C 0.04205 0.5764 0.27757 0.0
O122 O 1.01221 0.55572 0.33459 0.0
C123 C 0.95542 0.73669 0.3978 0.0
O124 O 0.9821 0.77046 0.44813 0.0
O125 O 0.05876 0.74695 0.45567 0.0
O126 O 0.12327 0.73405 0.4275 0.0
H127 H 1.00828 0.73724 0.70697 0.0
H128 H 0.04507 0.67792 0.22053 0.0
O129 O 0.07773 0.62242 0.2796 0.0
H130 H 0.20431 0.84306 0.22108 0.0
H131 H 0.25299 0.68899 0.23049 0.0
H132 H 0.17807 0.69724 0.46663 0.0
H133 H 0.18578 0.78073 0.31999 0.0
H134 H 0.16686 0.67787 0.23537 0.0
O135 O 0.9613 0.69823 0.38818 0.0
H136 H 0.04321 0.72234 0.59351 0.0
H137 H 0.89678 0.65091 0.4961 0.0
H138 H 0.26449 0.70904 0.4641 0.0
H139 H 0.06232 0.73887 0.11989 0.0
H140 H 0.30251 0.70491 0.34539 0.0
H141 H 0.14239 0.8222 0.11981 0.0
O142 O 0.08329 0.62768 0.4381 0.0
H143 H 0.86497 0.52377 0.31611 0.0
H144 H 0.9499 0.58799 0.55393 0.0
H145 H 0.88144 0.49876 0.54377 0.0
H146 H 0.83826 0.46613 0.42419 0.0
H147 H 0.9342 0.61257 0.32853 0.0
H148 H 0.86026 0.66502 0.60853 0.0
H149 H 0.91617 0.7085 0.71498 0.0
O150 O 0.03982 0.65179 0.51159 0.0
C151 C 0.10615 0.76187 0.45275 0.0
C152 C 0.98352 0.71822 0.66098 0.0
C153 C 0.90045 0.67769 0.60574 0.0
N154 N 0.97212 0.6858 0.53822 0.0
C155 C 1.00309 0.70967 0.59659 0.0
C156 C 0.92135 0.6698 0.54223 0.0
C157 C 0.93184 0.70209 0.66543 0.0
C158 C 0.08007 0.71404 0.22084 0.0
N159 N 0.11433 0.72576 0.27636 0.0
C160 C 0.08959 0.74842 0.16371 0.0
C161 C 0.13451 0.79518 0.16372 0.0
C162 C 0.16923 0.80692 0.22054 0.0
C163 C 0.15842 0.77157 0.2767 0.0
C164 C 0.23686 0.69092 0.28254 0.0
C165 C 0.19443 0.69569 0.41468 0.0
C166 C 0.18801 0.68448 0.2857 0.0
N167 N 0.16748 0.68712 0.35122 0.0
C168 C 0.24336 0.70227 0.41363 0.0
C169 C 0.26464 0.69989 0.34702 0.0
C170 C 0.06468 0.62857 0.50082 0.0
C171 C 0.88341 0.53756 0.36854 0.0
C172 C 0.93169 0.57404 0.50162 0.0
C173 C 0.89273 0.52349 0.49625 0.0
C174 C 0.86849 0.50522 0.42918 0.0
N175 N 0.94605 0.60561 0.44198 0.0
C176 C 0.92253 0.58788 0.37599 0.0
Co177 Co 0.47222 0.0883 0.54739 0.0
Co178 Co 0.36753 0.99878 0.63785 0.0
O179 O 0.41061 0.02177 0.55032 0.0
C180 C 0.49195 0.01993 0.44597 0.0
O181 O 0.44621 0.98117 0.45656 0.0
C182 C 0.26386 0.95371 0.57395 0.0
O183 O 0.25451 0.98224 0.61821 0.0
O184 O 0.35799 0.0589 0.62972 0.0
O185 O 0.43911 0.11844 0.60977 0.0
H186 H 0.30266 0.02189 0.88026 0.0
H187 H 0.41237 0.03358 0.41235 0.0
O188 O 0.50765 0.06129 0.48204 0.0
H189 H 0.44141 0.20799 0.39236 0.0
H190 H 0.63 0.23189 0.43276 0.0
H191 H 0.52869 0.16744 0.65945 0.0
H192 H 0.47306 0.1826 0.49904 0.0
H193 H 0.54996 0.14974 0.43327 0.0
O194 O 0.30801 0.95843 0.57229 0.0
H195 H 0.35832 0.04934 0.77138 0.0
H196 H 0.28217 0.89832 0.68875 0.0
H197 H 0.60817 0.25012 0.66107 0.0
H198 H 0.38116 0.05763 0.30443 0.0
H199 H 0.65946 0.28284 0.54715 0.0
H200 H 0.39551 0.14551 0.29345 0.0
O201 O 0.49746 0.06982 0.63749 0.0
H202 H 0.37611 0.84828 0.53939 0.0
H203 H 0.39659 0.95154 0.75898 0.0
H204 H 0.41215 0.87931 0.76787 0.0
H205 H 0.4017 0.82691 0.65761 0.0
H206 H 0.36176 0.92139 0.53269 0.0
H207 H 0.22575 0.86921 0.79688 0.0
H208 H 0.23576 0.93122 0.89356 0.0
O209 O 0.42657 0.03812 0.70492 0.0
C210 C 0.39339 0.10531 0.62762 0.0
C211 C 0.29791 0.9945 0.83852 0.0
C212 C 0.25475 0.90882 0.79173 0.0
N213 N 0.32347 0.97556 0.72359 0.0
C214 C 0.3293 0.00983 0.77669 0.0
C215 C 0.28683 0.92553 0.73064 0.0
C216 C 0.26039 0.94363 0.84594 0.0
C217 C 0.42038 0.07219 0.4078 0.0
N218 N 0.44687 0.10706 0.46121 0.0
C219 C 0.40186 0.08549 0.34655 0.0
C220 C 0.40975 0.13472 0.34052 0.0
C221 C 0.43553 0.16977 0.39592 0.0
C222 C 0.45355 0.1551 0.45626 0.0
C223 C 0.60796 0.21807 0.48274 0.0
C224 C 0.55058 0.18155 0.60952 0.0
C225 C 0.56269 0.17144 0.48348 0.0
N226 N 0.53446 0.15385 0.5463 0.0
C227 C 0.59565 0.22834 0.61083 0.0
C228 C 0.62445 0.24665 0.54692 0.0
C229 C 0.47452 0.05687 0.6994 0.0
C230 C 0.3808 0.87082 0.58784 0.0
C231 C 0.3925 0.92936 0.7105 0.0
C232 C 0.4011 0.88828 0.71601 0.0
C233 C 0.39518 0.85887 0.65415 0.0
N234 N 0.37844 0.9409 0.64521 0.0
C235 C 0.3726 0.91222 0.58439 0.0
Co236 Co 0.43466 0.47585 0.70534 0.0
Co237 Co 0.42899 0.37647 0.80323 0.0
O238 O 0.44482 0.41718 0.71347 0.0
C239 C 0.52796 0.50135 0.6134 0.0
O240 O 0.52601 0.45852 0.6313 0.0
C241 C 0.36978 0.27127 0.74419 0.0
O242 O 0.33308 0.26317 0.79001 0.0
O243 O 0.35801 0.36382 0.80055 0.0
O244 O 0.37164 0.44075 0.76689 0.0
H245 H 0.35203 0.31746 0.05334 0.0
H246 H 0.43962 0.41883 0.57384 0.0
O247 O 0.49699 0.51363 0.6413 0.0
H248 H 0.28247 0.42664 0.54417 0.0
H249 H 0.43571 0.62417 0.57794 0.0
H250 H 0.40487 0.53058 0.81115 0.0
H251 H 0.33706 0.46511 0.65184 0.0
H252 H 0.44545 0.54824 0.58553 0.0
O253 O 0.40928 0.31524 0.74036 0.0
H254 H 0.37455 0.37001 0.9413 0.0
H255 H 0.44824 0.29361 0.85416 0.0
H256 H 0.39407 0.60594 0.80571 0.0
H257 H 0.3868 0.38083 0.46494 0.0
H258 H 0.4096 0.65336 0.68849 0.0
H259 H 0.30739 0.38443 0.44926 0.0
O260 O 0.47692 0.50617 0.7948 0.0
H261 H 0.58546 0.38515 0.6942 0.0
H262 H 0.50979 0.41071 0.91795 0.0
H263 H 0.59822 0.42837 0.92068 0.0
H264 H 0.63663 0.41537 0.80823 0.0
H265 H 0.49747 0.36898 0.69365 0.0
H266 H 0.42653 0.24024 0.96529 0.0
H267 H 0.37804 0.25199 0.06585 0.0
O268 O 0.44957 0.43757 0.86723 0.0
C269 C 0.34299 0.39602 0.7923 0.0
C270 C 0.3732 0.312 1.00994 0.0
C271 C 0.41499 0.26865 0.96051 0.0
N272 N 0.41264 0.3349 0.89122 0.0
C273 C 0.38608 0.34166 0.94638 0.0
C274 C 0.42717 0.29899 0.89772 0.0
C275 C 0.38779 0.27526 1.01691 0.0
C276 C 0.40595 0.42172 0.56731 0.0
N277 N 0.39256 0.4457 0.61879 0.0
C278 C 0.37577 0.39958 0.50551 0.0
C279 C 0.33118 0.40149 0.49682 0.0
C280 C 0.31719 0.42516 0.55001 0.0
C281 C 0.34835 0.44692 0.61102 0.0
C282 C 0.42878 0.6038 0.62932 0.0
C283 C 0.41131 0.55074 0.75978 0.0
C284 C 0.43445 0.56088 0.63406 0.0
N285 N 0.42552 0.5348 0.6987 0.0
C286 C 0.4053 0.59351 0.7571 0.0
C287 C 0.4141 0.62014 0.69135 0.0
C288 C 0.47275 0.48576 0.85768 0.0
C289 C 0.56922 0.3911 0.74352 0.0
C290 C 0.52641 0.40587 0.86848 0.0
C291 C 0.57643 0.4155 0.87051 0.0
C292 C 0.59792 0.4081 0.80747 0.0
N293 N 0.49853 0.38947 0.80545 0.0
C294 C 0.51932 0.38191 0.74358 0.0
Co295 Co 1.01145 0.43406 0.86185 0.0
Co296 Co 0.10054 0.42135 0.95644 0.0
O297 O 0.07814 0.43929 0.86619 0.0
C298 C 0.07912 0.51983 0.75677 0.0
O299 O 0.11867 0.51481 0.77161 0.0
C300 C 0.14764 0.36257 0.8989 0.0
O301 O 0.11843 0.32532 0.94366 0.0
O302 O 0.04124 0.35122 0.94945 0.0
O303 O 0.98238 0.37401 0.93027 0.0
H304 H 0.0755 0.33861 0.20372 0.0
H305 H 0.06401 0.42641 0.72645 0.0
O306 O 0.03715 0.49345 0.79106 0.0
H307 H 0.89335 0.27488 0.7231 0.0
H308 H 0.8653 0.44041 0.74142 0.0
H309 H 0.93353 0.41661 0.97412 0.0
H310 H 0.91872 0.33658 0.82404 0.0
H311 H 0.94818 0.4439 0.74435 0.0
O312 O 0.14262 0.40184 0.89445 0.0
H313 H 0.04871 0.36326 0.09067 0.0
H314 H 0.20074 0.43868 1.01204 0.0
H315 H 0.85022 0.41216 0.97343 0.0
H316 H 0.03992 0.36629 0.62418 0.0
H317 H 0.81558 0.42417 0.85648 0.0
H318 H 0.95396 0.28969 0.62175 0.0
O319 O 0.03083 0.48144 0.94726 0.0
H320 H 0.25083 0.57941 0.85605 0.0
H321 H 0.14483 0.49979 0.07493 0.0
H322 H 0.21593 0.58793 0.08206 0.0
H323 H 0.2697 0.62829 0.97217 0.0
H324 H 0.17883 0.4916 0.851 0.0
H325 H 0.22914 0.4146 0.12413 0.0
H326 H 0.16632 0.36426 0.221 0.0
O327 O 0.05956 0.44179 0.02022 0.0
C328 C 0.99516 0.34122 0.94862 0.0
C329 C 0.10325 0.36056 0.16193 0.0
C330 C 0.18947 0.40322 0.11728 0.0
N331 N 0.12307 0.40247 0.04481 0.0
C332 C 0.0883 0.37467 0.09778 0.0
C333 C 0.17315 0.41674 0.05392 0.0
C334 C 0.15421 0.37497 0.17159 0.0
C335 C 0.02619 0.3942 0.72541 0.0
N336 N 0.99232 0.38651 0.78021 0.0
C337 C 0.01289 0.35977 0.66746 0.0
C338 C 0.96472 0.31674 0.66622 0.0
C339 C 0.93071 0.30845 0.72299 0.0
C340 C 0.94532 0.34373 0.77996 0.0
C341 C 0.87997 0.43508 0.79272 0.0
C342 C 0.91864 0.42158 0.92291 0.0
C343 C 0.927 0.43724 0.7948 0.0
N344 N 0.94566 0.43026 0.85934 0.0
C345 C 0.87147 0.41915 0.92291 0.0
C346 C 0.85208 0.42594 0.85728 0.0
C347 C 0.04204 0.4719 1.01065 0.0
C348 C 0.22769 0.56225 0.90432 0.0
C349 C 0.16765 0.51717 0.02658 0.0
C350 C 0.20806 0.56706 0.0311 0.0
C351 C 0.23823 0.58966 0.96946 0.0
N352 N 0.15749 0.49047 0.96244 0.0
C353 C 0.18691 0.51246 0.90182 0.0
C354 C 0.60745 0.04884 0.33138 0.0
C355 C 0.58756 0.03182 0.26029 0.0
C356 C 0.5762 0.04366 0.39117 0.0
C357 C 0.5233 0.01943 0.38374 0.0
H358 H 0.64792 0.06762 0.34133 0.0
H359 H 0.59373 0.05922 0.44368 0.0
S360 S 0.45052 0.96387 0.21252 0.0
N361 N 0.51045 0.98725 0.18771 0.0
N362 N 0.45152 0.97587 0.30105 0.0
C363 C 0.50226 0.9998 0.31436 0.0
C364 C 0.53434 1.00626 0.25257 0.0
C365 C 0.60801 0.61421 0.49028 0.0
C366 C 0.60995 0.59155 0.42358 0.0
C367 C 0.58255 0.58482 0.55193 0.0
C368 C 0.55961 0.53161 0.55067 0.0
H369 H 0.62536 0.65509 0.49497 0.0
H370 H 0.58046 0.60393 0.60091 0.0
S371 S 0.55642 0.45292 0.39282 0.0
N372 N 0.58786 0.51195 0.36181 0.0
N373 N 0.54185 0.45706 0.47887 0.0
C374 C 0.56306 0.50831 0.48592 0.0
C375 C 0.58781 0.53815 0.42221 0.0
C376 C 0.04819 0.57204 0.69263 0.0
C377 C 0.08006 0.55082 0.69285 0.0
C378 C 0.04455 0.59768 0.63101 0.0
C379 C 0.07153 0.60219 0.56559 0.0
H380 H 0.02557 0.56867 0.74058 0.0
H381 H 0.01963 0.61355 0.63497 0.0
S382 S 0.16093 0.55341 0.53795 0.0
N383 N 0.14028 0.53678 0.62293 0.0
N384 N 0.13235 0.58374 0.50612 0.0
C385 C 0.10406 0.58148 0.5653 0.0
C386 C 0.10858 0.55617 0.62901 0.0
C387 C 0.49983 0.0517 0.90296 0.0
C388 C 0.55124 0.065 0.90594 0.0
C389 C 0.47637 0.05087 0.83649 0.0
C390 C 0.50299 0.0631 0.76914 0.0
H391 H 0.47674 0.04015 0.95222 0.0
H392 H 0.43635 0.03912 0.83822 0.0
S393 S 0.63998 0.10549 0.74691 0.0
N394 N 0.62939 0.09469 0.83572 0.0
N395 N 0.58507 0.09276 0.71071 0.0
C396 C 0.55514 0.07897 0.7715 0.0
C397 C 0.57927 0.08004 0.8397 0.0
C398 C 0.52482 0.526 0.05115 0.0
C399 C 0.54643 0.57912 0.04992 0.0
C400 C 0.49964 0.49635 0.98978 0.0
C401 C 0.4965 0.51863 0.92334 0.0
H402 H 0.52785 0.50715 0.09985 0.0
H403 H 0.48352 0.45558 0.99444 0.0
S404 S 0.54602 0.65675 0.89264 0.0
N405 N 0.56152 0.65306 0.9783 0.0
N406 N 0.51585 0.59771 0.86186 0.0
C407 C 0.51716 0.57188 0.92201 0.0
C408 C 0.54173 0.60198 0.98543 0.0
C409 C 0.05079 0.54825 0.0765 0.0
C410 C 0.03504 0.49615 0.07677 0.0
C411 C 0.05158 0.5734 0.14155 0.0
C412 C 0.03562 0.54722 0.2091 0.0
H413 H 0.06487 0.57023 0.02643 0.0
H414 H 0.06573 0.614 0.13906 0.0
S415 S 0.98659 0.40928 0.23736 0.0
N416 N 1.00032 0.41842 0.14901 0.0
N417 N 1.00071 0.46545 0.27083 0.0
C418 C 0.01734 0.49455 0.20925 0.0
C419 C 0.01743 0.46913 0.14324 0.0
C420 C 0.7714 0.93305 0.22735 0.0
C421 C 0.73815 0.8824 0.20595 0.0
C422 C 0.76524 0.97339 0.2013 0.0
C423 C 0.7252 0.96463 0.15352 0.0
H424 H 0.80123 0.94153 0.26676 0.0
H425 H 0.79097 0.01142 0.22107 0.0
S426 S 0.63091 0.83917 0.07498 0.0
N427 N 0.6674 0.82662 0.1276 0.0
N428 N 0.6535 0.9009 0.08298 0.0
C429 C 0.69299 0.91421 0.12963 0.0
C430 C 0.70012 0.87359 0.15459 0.0
C431 C 0.87792 0.6944 0.3198 0.0
C432 C 0.9108 0.73625 0.36334 0.0
C433 C 0.83147 0.68787 0.29553 0.0
C434 C 0.81565 0.72322 0.31245 0.0
H435 H 0.88699 0.66502 0.30637 0.0
H436 H 0.80728 0.65376 0.26471 0.0
S437 S 0.88971 0.8422 0.41923 0.0
N438 N 0.92577 0.8156 0.41884 0.0
N439 N 0.83853 0.80377 0.37168 0.0
C440 C 0.84922 0.76674 0.35287 0.0
C441 C 0.89669 0.77316 0.37851 0.0
C442 C 0.19617 0.83028 0.4689 0.0
C443 C 0.14422 0.81307 0.48057 0.0
C444 C 0.23387 0.87699 0.49558 0.0
C445 C 0.22188 0.9087 0.53705 0.0
H446 H 0.2085 0.80716 0.44002 0.0
H447 H 0.27299 0.88732 0.48534 0.0
S448 S 0.09172 0.88294 0.58186 0.0
N449 N 0.08255 0.83279 0.53414 0.0
N450 N 0.15392 0.92055 0.58652 0.0
C451 C 0.17011 0.89293 0.54795 0.0
C452 C 0.13127 0.84517 0.5195 0.0
C453 C 0.41516 0.23726 0.66956 0.0
C454 C 0.3709 0.22806 0.70734 0.0
C455 C 0.42118 0.19743 0.64285 0.0
C456 C 0.383 0.14624 0.65156 0.0
H457 H 0.44657 0.27562 0.66252 0.0
H458 H 0.45693 0.20722 0.61665 0.0
S459 S 0.25738 0.10125 0.74023 0.0
N460 N 0.28655 0.1638 0.7481 0.0
N461 N 0.29747 0.08867 0.69641 0.0
C462 C 0.33733 0.13635 0.68599 0.0
C463 C 0.33138 0.17723 0.7141 0.0
C464 C 0.22535 0.40761 0.82128 0.0
C465 C 0.19343 0.36512 0.86482 0.0
C466 C 0.27274 0.41634 0.79746 0.0
C467 C 0.29054 0.38265 0.81483 0.0
H468 H 0.21459 0.4357 0.80725 0.0
H469 H 0.296 0.45078 0.76648 0.0
S470 S 0.22002 0.26303 0.92234 0.0
N471 N 0.18175 0.28711 0.92117 0.0
N472 N 0.27076 0.30303 0.87487 0.0
C473 C 0.25806 0.33854 0.8554 0.0
C474 C 0.20959 0.32985 0.88053 0.0
C475 C 0.91648 0.29281 0.02158 0.0
C476 C 0.95489 0.29252 0.97899 0.0
C477 C 0.87601 0.24776 0.04875 0.0
C478 C 0.87153 0.20012 0.03354 0.0
H479 H 0.91768 0.32833 0.03428 0.0
H480 H 0.84751 0.25051 0.08107 0.0
S481 S 0.96273 0.17876 0.92502 0.0
N482 N 0.98702 0.24117 0.92374 0.0
N483 N 0.9098 0.15558 0.97369 0.0
C484 C 0.90989 0.19917 0.99123 0.0
C485 C 0.95193 0.24558 0.96447 0.0
loop_
_geom_bond_atom_site_label_1
_geom_bond_atom_site_label_2
_geom_bond_distance
_geom_bond_site_symmetry_2
_ccdc_geom_bond_type
Co0 O2 2.143 1_565 S
Co0 O8 2.074 . S
Co0 O11 2.093 1_564 S
Co0 O24 2.097 1_565 S
Co0 N41 2.151 1_554 S
Co0 N49 2.214 . S
Co1 O2 2.160 . S
Co1 O7 2.058 . S
Co1 O17 2.057 . S
Co1 O32 2.037 . S
Co1 N36 2.145 . S
Co1 N57 2.257 . S
O2 Co0 2.143 1_545 S
O2 Co1 2.160 . S
C3 O4 1.278 . S
C3 O11 1.224 . S
O4 C3 1.278 . S
C5 O6 1.245 1_554 S
C5 O17 1.232 . S
O6 C5 1.245 1_556 S
O7 Co1 2.058 . S
O7 C33 1.269 1_545 S
O8 Co0 2.074 . S
O8 C33 1.257 . S
H9 C34 0.930 . S
H10 C40 0.930 1_545 S
O11 Co0 2.093 1_546 S
O11 C3 1.224 . S
H12 C44 0.929 . S
H13 C46 0.930 . S
H14 C47 0.930 . S
H15 C45 0.929 . S
H16 C48 0.928 . S
O17 Co1 2.057 . S
O17 C5 1.232 . S
H18 C37 0.929 . S
H19 C38 0.929 . S
H20 C50 0.931 . S
H21 C42 0.929 . S
H22 C51 0.930 . S
H23 C43 0.931 . S
O24 Co0 2.097 1_545 S
O24 C52 1.214 . S
H25 C53 0.929 . S
H26 C54 0.929 . S
H27 C55 0.930 . S
H28 C56 0.929 . S
H29 C58 0.930 . S
H30 C35 0.930 . S
H31 C39 0.930 . S
O32 Co1 2.037 . S
O32 C52 1.234 . S
C33 O7 1.269 1_565 S
C33 O8 1.257 . S
C34 H9 0.930 . S
C34 C37 1.388 . S
C34 C39 1.418 . S
C35 H30 0.930 . S
C35 C38 1.404 . S
C35 C39 1.353 . S
N36 Co1 2.145 . S
N36 C37 1.397 . S
N36 C38 1.334 . S
C37 H18 0.929 . S
C37 C34 1.388 . S
C37 N36 1.397 . S
C38 H19 0.929 . S
C38 C35 1.404 . S
C38 N36 1.334 . S
C39 H31 0.930 . S
C39 C34 1.418 . S
C39 C35 1.353 . S
C40 H10 0.930 1_565 S
C40 N41 1.330 . S
C40 C42 1.446 . S
N41 Co0 2.151 1_556 S
N41 C40 1.330 . S
N41 C45 1.418 . S
C42 H21 0.929 . S
C42 C40 1.446 . S
C42 C43 1.332 . S
C43 H23 0.931 . S
C43 C42 1.332 . S
C43 C44 1.267 . S
C44 H12 0.929 . S
C44 C43 1.267 . S
C44 C45 1.251 . S
C45 H15 0.929 . S
C45 N41 1.418 . S
C45 C44 1.251 . S
C46 H13 0.930 . S
C46 C48 1.406 . S
C46 C51 1.261 1_556 S
C47 H14 0.930 . S
C47 N49 1.325 . S
C47 C50 1.357 . S
C48 H16 0.928 . S
C48 C46 1.406 . S
C48 N49 1.261 1_556 S
N49 Co0 2.214 . S
N49 C47 1.325 . S
N49 C48 1.261 1_554 S
C50 H20 0.931 . S
C50 C47 1.357 . S
C50 C51 1.312 . S
C51 H22 0.930 . S
C51 C46 1.261 1_554 S
C51 C50 1.312 . S
C52 O24 1.214 . S
C52 O32 1.234 . S
C53 H25 0.929 . S
C53 C56 1.391 . S
C53 C58 1.391 . S
C54 H26 0.929 . S
C54 C55 1.390 . S
C54 N57 1.391 . S
C55 H27 0.930 . S
C55 C54 1.390 . S
C55 C56 1.392 . S
C56 H28 0.929 . S
C56 C53 1.391 . S
C56 C55 1.392 . S
N57 Co1 2.257 . S
N57 C54 1.391 . S
N57 C58 1.388 . S
C58 H29 0.930 . S
C58 C53 1.391 . S
C58 N57 1.388 . S
Co59 O61 2.143 . S
Co59 O67 2.074 . S
Co59 O70 2.093 . S
Co59 O83 2.097 . S
Co59 N100 2.151 . S
Co59 N108 2.214 . S
Co60 O61 2.160 . S
Co60 O66 2.058 . S
Co60 O76 2.057 . S
Co60 O91 2.037 . S
Co60 N95 2.145 . S
Co60 N116 2.257 . S
O61 Co59 2.143 . S
O61 Co60 2.160 . S
C62 O63 1.278 . S
C62 O70 1.224 . S
O63 C62 1.278 . S
C64 O65 1.245 . S
C64 O76 1.232 . S
O65 C64 1.245 . S
O66 Co60 2.058 . S
O66 C92 1.269 . S
O67 Co59 2.074 . S
O67 C92 1.257 . S
H68 C93 0.930 . S
H69 C99 0.930 . S
O70 Co59 2.093 . S
O70 C62 1.224 . S
H71 C103 0.929 . S
H72 C105 0.930 . S
H73 C106 0.930 . S
H74 C104 0.929 . S
H75 C107 0.928 . S
O76 Co60 2.057 . S
O76 C64 1.232 . S
H77 C96 0.929 . S
H78 C97 0.929 . S
H79 C109 0.931 . S
H80 C101 0.929 . S
H81 C110 0.930 . S
H82 C102 0.931 . S
O83 Co59 2.097 . S
O83 C111 1.214 . S
H84 C112 0.929 . S
H85 C113 0.929 . S
H86 C114 0.930 . S
H87 C115 0.929 . S
H88 C117 0.930 . S
H89 C94 0.930 . S
H90 C98 0.930 . S
O91 Co60 2.037 . S
O91 C111 1.234 . S
C92 O66 1.269 . S
C92 O67 1.257 . S
C93 H68 0.930 . S
C93 C96 1.388 . S
C93 C98 1.418 . S
C94 H89 0.930 . S
C94 C97 1.404 . S
C94 C98 1.353 . S
N95 Co60 2.145 . S
N95 C96 1.397 . S
N95 C97 1.334 . S
C96 H77 0.929 . S
C96 C93 1.388 . S
C96 N95 1.397 . S
C97 H78 0.929 . S
C97 C94 1.404 . S
C97 N95 1.334 . S
C98 H90 0.930 . S
C98 C93 1.418 . S
C98 C94 1.353 . S
C99 H69 0.930 . S
C99 N100 1.330 . S
C99 C101 1.446 1_554 S
N100 Co59 2.151 . S
N100 C99 1.330 . S
N100 C104 1.418 . S
C101 H80 0.929 . S
C101 C99 1.446 1_556 S
C101 C102 1.332 . S
C102 H82 0.931 . S
C102 C101 1.332 . S
C102 C103 1.267 1_556 S
C103 H71 0.929 . S
C103 C102 1.267 1_554 S
C103 C104 1.251 . S
C104 H74 0.929 . S
C104 N100 1.418 . S
C104 C103 1.251 . S
C105 H72 0.930 . S
C105 C107 1.406 . S
C105 C110 1.261 . S
C106 H73 0.930 . S
C106 N108 1.325 . S
C106 C109 1.357 . S
C107 H75 0.928 . S
C107 C105 1.406 . S
C107 N108 1.261 . S
N108 Co59 2.214 . S
N108 C106 1.325 . S
N108 C107 1.261 . S
C109 H79 0.931 . S
C109 C106 1.357 . S
C109 C110 1.312 . S
C110 H81 0.930 . S
C110 C105 1.261 . S
C110 C109 1.312 . S
C111 O83 1.214 . S
C111 O91 1.234 . S
C112 H84 0.929 . S
C112 C115 1.391 . S
C112 C117 1.391 . S
C113 H85 0.929 . S
C113 C114 1.390 . S
C113 N116 1.391 . S
C114 H86 0.930 . S
C114 C113 1.390 . S
C114 C115 1.392 . S
C115 H87 0.929 . S
C115 C112 1.391 . S
C115 C114 1.392 . S
N116 Co60 2.257 . S
N116 C113 1.391 . S
N116 C117 1.388 . S
C117 H88 0.930 . S
C117 C112 1.391 . S
C117 N116 1.388 . S
Co118 O120 2.143 . S
Co118 O126 2.074 . S
Co118 O129 2.093 . S
Co118 O142 2.097 . S
Co118 N159 2.151 . S
Co118 N167 2.214 . S
Co119 O120 2.160 1_655 S
Co119 O125 2.058 1_655 S
Co119 O135 2.057 . S
Co119 O150 2.037 1_655 S
Co119 N154 2.145 . S
Co119 N175 2.257 . S
O120 Co118 2.143 . S
O120 Co119 2.160 1_455 S
C121 O122 1.278 1_455 S
C121 O129 1.224 . S
O122 C121 1.278 1_655 S
C123 O124 1.245 . S
C123 O135 1.232 . S
O124 C123 1.245 . S
O125 Co119 2.058 1_455 S
O125 C151 1.269 . S
O126 Co118 2.074 . S
O126 C151 1.257 . S
H127 C152 0.930 . S
H128 C158 0.930 . S
O129 Co118 2.093 . S
O129 C121 1.224 . S
H130 C162 0.929 . S
H131 C164 0.930 . S
H132 C165 0.930 . S
H133 C163 0.929 . S
H134 C166 0.928 . S
O135 Co119 2.057 . S
O135 C123 1.232 . S
H136 C155 0.929 1_455 S
H137 C156 0.929 . S
H138 C168 0.931 . S
H139 C160 0.929 . S
H140 C169 0.930 . S
H141 C161 0.931 . S
O142 Co118 2.097 . S
O142 C170 1.214 . S
H143 C171 0.929 . S
H144 C172 0.929 . S
H145 C173 0.930 . S
H146 C174 0.929 . S
H147 C176 0.930 . S
H148 C153 0.930 . S
H149 C157 0.930 . S
O150 Co119 2.037 1_455 S
O150 C170 1.234 . S
C151 O125 1.269 . S
C151 O126 1.257 . S
C152 H127 0.930 . S
C152 C155 1.388 . S
C152 C157 1.418 . S
C153 H148 0.930 . S
C153 C156 1.404 . S
C153 C157 1.353 . S
N154 Co119 2.145 . S
N154 C155 1.397 . S
N154 C156 1.334 . S
C155 H136 0.929 1_655 S
C155 C152 1.388 . S
C155 N154 1.397 . S
C156 H137 0.929 . S
C156 C153 1.404 . S
C156 N154 1.334 . S
C157 H149 0.930 . S
C157 C152 1.418 . S
C157 C153 1.353 . S
C158 H128 0.930 . S
C158 N159 1.330 . S
C158 C160 1.446 . S
N159 Co118 2.151 . S
N159 C158 1.330 . S
N159 C163 1.418 . S
C160 H139 0.929 . S
C160 C158 1.446 . S
C160 C161 1.332 . S
C161 H141 0.931 . S
C161 C160 1.332 . S
C161 C162 1.267 . S
C162 H130 0.929 . S
C162 C161 1.267 . S
C162 C163 1.251 . S
C163 H133 0.929 . S
C163 N159 1.418 . S
C163 C162 1.251 . S
C164 H131 0.930 . S
C164 C166 1.406 . S
C164 C169 1.261 . S
C165 H132 0.930 . S
C165 N167 1.325 . S
C165 C168 1.357 . S
C166 H134 0.928 . S
C166 C164 1.406 . S
C166 N167 1.261 . S
N167 Co118 2.214 . S
N167 C165 1.325 . S
N167 C166 1.261 . S
C168 H138 0.931 . S
C168 C165 1.357 . S
C168 C169 1.312 . S
C169 H140 0.930 . S
C169 C164 1.261 . S
C169 C168 1.312 . S
C170 O142 1.214 . S
C170 O150 1.234 . S
C171 H143 0.929 . S
C171 C174 1.391 . S
C171 C176 1.391 . S
C172 H144 0.929 . S
C172 C173 1.390 . S
C172 N175 1.391 . S
C173 H145 0.930 . S
C173 C172 1.390 . S
C173 C174 1.392 . S
C174 H146 0.929 . S
C174 C171 1.391 . S
C174 C173 1.392 . S
N175 Co119 2.257 . S
N175 C172 1.391 . S
N175 C176 1.388 . S
C176 H147 0.930 . S
C176 C171 1.391 . S
C176 N175 1.388 . S
Co177 O179 2.143 . S
Co177 O185 2.074 . S
Co177 O188 2.093 . S
Co177 O201 2.097 . S
Co177 N218 2.151 . S
Co177 N226 2.214 . S
Co178 O179 2.160 1_565 S
Co178 O184 2.058 1_565 S
Co178 O194 2.057 . S
Co178 O209 2.037 1_565 S
Co178 N213 2.145 . S
Co178 N234 2.257 . S
O179 Co177 2.143 . S
O179 Co178 2.160 1_545 S
C180 O181 1.278 1_545 S
C180 O188 1.224 . S
O181 C180 1.278 1_565 S
C182 O183 1.245 . S
C182 O194 1.232 . S
O183 C182 1.245 . S
O184 Co178 2.058 1_545 S
O184 C210 1.269 . S
O185 Co177 2.074 . S
O185 C210 1.257 . S
H186 C211 0.930 . S
H187 C217 0.930 . S
O188 Co177 2.093 . S
O188 C180 1.224 . S
H189 C221 0.929 . S
H190 C223 0.930 . S
H191 C224 0.930 . S
H192 C222 0.929 . S
H193 C225 0.928 . S
O194 Co178 2.057 . S
O194 C182 1.232 . S
H195 C214 0.929 1_545 S
H196 C215 0.929 . S
H197 C227 0.931 . S
H198 C219 0.929 . S
H199 C228 0.930 . S
H200 C220 0.931 . S
O201 Co177 2.097 . S
O201 C229 1.214 . S
H202 C230 0.929 . S
H203 C231 0.929 . S
H204 C232 0.930 . S
H205 C233 0.929 . S
H206 C235 0.930 . S
H207 C212 0.930 . S
H208 C216 0.930 . S
O209 Co178 2.037 1_545 S
O209 C229 1.234 . S
C210 O184 1.269 . S
C210 O185 1.257 . S
C211 H186 0.930 . S
C211 C214 1.388 . S
C211 C216 1.418 . S
C212 H207 0.930 . S
C212 C215 1.404 . S
C212 C216 1.353 . S
N213 Co178 2.145 . S
N213 C214 1.397 . S
N213 C215 1.334 . S
C214 H195 0.929 1_565 S
C214 C211 1.388 . S
C214 N213 1.397 . S
C215 H196 0.929 . S
C215 C212 1.404 . S
C215 N213 1.334 . S
C216 H208 0.930 . S
C216 C211 1.418 . S
C216 C212 1.353 . S
C217 H187 0.930 . S
C217 N218 1.330 . S
C217 C219 1.446 . S
N218 Co177 2.151 . S
N218 C217 1.330 . S
N218 C222 1.418 . S
C219 H198 0.929 . S
C219 C217 1.446 . S
C219 C220 1.332 . S
C220 H200 0.931 . S
C220 C219 1.332 . S
C220 C221 1.267 . S
C221 H189 0.929 . S
C221 C220 1.267 . S
C221 C222 1.251 . S
C222 H192 0.929 . S
C222 N218 1.418 . S
C222 C221 1.251 . S
C223 H190 0.930 . S
C223 C225 1.406 . S
C223 C228 1.261 . S
C224 H191 0.930 . S
C224 N226 1.325 . S
C224 C227 1.357 . S
C225 H193 0.928 . S
C225 C223 1.406 . S
C225 N226 1.261 . S
N226 Co177 2.214 . S
N226 C224 1.325 . S
N226 C225 1.261 . S
C227 H197 0.931 . S
C227 C224 1.357 . S
C227 C228 1.312 . S
C228 H199 0.930 . S
C228 C223 1.261 . S
C228 C227 1.312 . S
C229 O201 1.214 . S
C229 O209 1.234 . S
C230 H202 0.929 . S
C230 C233 1.391 . S
C230 C235 1.391 . S
C231 H203 0.929 . S
C231 C232 1.390 . S
C231 N234 1.391 . S
C232 H204 0.930 . S
C232 C231 1.390 . S
C232 C233 1.392 . S
C233 H205 0.929 . S
C233 C230 1.391 . S
C233 C232 1.392 . S
N234 Co178 2.257 . S
N234 C231 1.391 . S
N234 C235 1.388 . S
C235 H206 0.930 . S
C235 C230 1.391 . S
C235 N234 1.388 . S
Co236 O238 2.143 . S
Co236 O244 2.074 . S
Co236 O247 2.093 . S
Co236 O260 2.097 . S
Co236 N277 2.151 . S
Co236 N285 2.214 . S
Co237 O238 2.160 . S
Co237 O243 2.058 . S
Co237 O253 2.057 . S
Co237 O268 2.037 . S
Co237 N272 2.145 . S
Co237 N293 2.257 . S
O238 Co236 2.143 . S
O238 Co237 2.160 . S
C239 O240 1.278 . S
C239 O247 1.224 . S
O240 C239 1.278 . S
C241 O242 1.245 . S
C241 O253 1.232 . S
O242 C241 1.245 . S
O243 Co237 2.058 . S
O243 C269 1.269 . S
O244 Co236 2.074 . S
O244 C269 1.257 . S
H245 C270 0.930 . S
H246 C276 0.930 . S
O247 Co236 2.093 . S
O247 C239 1.224 . S
H248 C280 0.929 . S
H249 C282 0.930 . S
H250 C283 0.930 . S
H251 C281 0.929 . S
H252 C284 0.928 . S
O253 Co237 2.057 . S
O253 C241 1.232 . S
H254 C273 0.929 . S
H255 C274 0.929 . S
H256 C286 0.931 . S
H257 C278 0.929 . S
H258 C287 0.930 . S
H259 C279 0.931 . S
O260 Co236 2.097 . S
O260 C288 1.214 . S
H261 C289 0.929 . S
H262 C290 0.929 . S
H263 C291 0.930 . S
H264 C292 0.929 . S
H265 C294 0.930 . S
H266 C271 0.930 . S
H267 C275 0.930 . S
O268 Co237 2.037 . S
O268 C288 1.234 . S
C269 O243 1.269 . S
C269 O244 1.257 . S
C270 H245 0.930 . S
C270 C273 1.388 1_554 S
C270 C275 1.418 . S
C271 H266 0.930 . S
C271 C274 1.404 . S
C271 C275 1.353 1_556 S
N272 Co237 2.145 . S
N272 C273 1.397 . S
N272 C274 1.334 . S
C273 H254 0.929 . S
C273 C270 1.388 1_556 S
C273 N272 1.397 . S
C274 H255 0.929 . S
C274 C271 1.404 . S
C274 N272 1.334 . S
C275 H267 0.930 . S
C275 C270 1.418 . S
C275 C271 1.353 1_554 S
C276 H246 0.930 . S
C276 N277 1.330 . S
C276 C278 1.446 . S
N277 Co236 2.151 . S
N277 C276 1.330 . S
N277 C281 1.418 . S
C278 H257 0.929 . S
C278 C276 1.446 . S
C278 C279 1.332 . S
C279 H259 0.931 . S
C279 C278 1.332 . S
C279 C280 1.267 . S
C280 H248 0.929 . S
C280 C279 1.267 . S
C280 C281 1.251 . S
C281 H251 0.929 . S
C281 N277 1.418 . S
C281 C280 1.251 . S
C282 H249 0.930 . S
C282 C284 1.406 . S
C282 C287 1.261 . S
C283 H250 0.930 . S
C283 N285 1.325 . S
C283 C286 1.357 . S
C284 H252 0.928 . S
C284 C282 1.406 . S
C284 N285 1.261 . S
N285 Co236 2.214 . S
N285 C283 1.325 . S
N285 C284 1.261 . S
C286 H256 0.931 . S
C286 C283 1.357 . S
C286 C287 1.312 . S
C287 H258 0.930 . S
C287 C282 1.261 . S
C287 C286 1.312 . S
C288 O260 1.214 . S
C288 O268 1.234 . S
C289 H261 0.929 . S
C289 C292 1.391 . S
C289 C294 1.391 . S
C290 H262 0.929 . S
C290 C291 1.390 . S
C290 N293 1.391 . S
C291 H263 0.930 . S
C291 C290 1.390 . S
C291 C292 1.392 . S
C292 H264 0.929 . S
C292 C289 1.391 . S
C292 C291 1.392 . S
N293 Co237 2.257 . S
N293 C290 1.391 . S
N293 C294 1.388 . S
C294 H265 0.930 . S
C294 C289 1.391 . S
C294 N293 1.388 . S
Co295 O297 2.143 1_655 S
Co295 O303 2.074 . S
Co295 O306 2.093 1_655 S
Co295 O319 2.097 1_655 S
Co295 N336 2.151 . S
Co295 N344 2.214 . S
Co296 O297 2.160 . S
Co296 O302 2.058 . S
Co296 O312 2.057 . S
Co296 O327 2.037 1_556 S
Co296 N331 2.145 1_556 S
Co296 N352 2.257 . S
O297 Co295 2.143 1_455 S
O297 Co296 2.160 . S
C298 O299 1.278 . S
C298 O306 1.224 . S
O299 C298 1.278 . S
C300 O301 1.245 . S
C300 O312 1.232 . S
O301 C300 1.245 . S
O302 Co296 2.058 . S
O302 C328 1.269 1_455 S
O303 Co295 2.074 . S
O303 C328 1.257 . S
H304 C329 0.930 . S
H305 C335 0.930 1_455 S
O306 Co295 2.093 1_455 S
O306 C298 1.224 . S
H307 C339 0.929 . S
H308 C341 0.930 . S
H309 C342 0.930 . S
H310 C340 0.929 . S
H311 C343 0.928 . S
O312 Co296 2.057 . S
O312 C300 1.232 . S
H313 C332 0.929 . S
H314 C333 0.929 . S
H315 C345 0.931 . S
H316 C337 0.929 . S
H317 C346 0.930 . S
H318 C338 0.931 . S
O319 Co295 2.097 1_455 S
O319 C347 1.220 . S
H320 C348 0.929 . S
H321 C349 0.929 . S
H322 C350 0.930 . S
H323 C351 0.929 . S
H324 C353 0.930 . S
H325 C330 0.930 . S
H326 C334 0.930 . S
O327 Co296 2.037 1_554 S
O327 C347 1.232 1_554 S
C328 O302 1.269 1_655 S
C328 O303 1.257 . S
C329 H304 0.930 . S
C329 C332 1.388 . S
C329 C334 1.418 . S
C330 H325 0.930 . S
C330 C333 1.404 . S
C330 C334 1.353 . S
N331 Co296 2.145 1_554 S
N331 C332 1.397 . S
N331 C333 1.334 . S
C332 H313 0.929 . S
C332 C329 1.388 . S
C332 N331 1.397 . S
C333 H314 0.929 . S
C333 C330 1.404 . S
C333 N331 1.334 . S
C334 H326 0.930 . S
C334 C329 1.418 . S
C334 C330 1.353 . S
C335 H305 0.930 1_655 S
C335 N336 1.330 . S
C335 C337 1.446 . S
N336 Co295 2.151 . S
N336 C335 1.330 . S
N336 C340 1.418 . S
C337 H316 0.929 . S
C337 C335 1.446 . S
C337 C338 1.332 . S
C338 H318 0.931 . S
C338 C337 1.332 . S
C338 C339 1.267 . S
C339 H307 0.929 . S
C339 C338 1.267 . S
C339 C340 1.251 . S
C340 H310 0.929 . S
C340 N336 1.418 . S
C340 C339 1.251 . S
C341 H308 0.930 . S
C341 C343 1.406 . S
C341 C346 1.261 . S
C342 H309 0.930 . S
C342 N344 1.325 . S
C342 C345 1.357 . S
C343 H311 0.928 . S
C343 C341 1.406 . S
C343 N344 1.261 . S
N344 Co295 2.214 . S
N344 C342 1.325 . S
N344 C343 1.261 . S
C345 H315 0.931 . S
C345 C342 1.357 . S
C345 C346 1.312 . S
C346 H317 0.930 . S
C346 C341 1.261 . S
C346 C345 1.312 . S
C347 O319 1.220 . S
C347 O327 1.232 1_556 S
C348 H320 0.929 . S
C348 C351 1.391 . S
C348 C353 1.391 . S
C349 H321 0.929 . S
C349 C350 1.390 . S
C349 N352 1.391 1_554 S
C350 H322 0.930 . S
C350 C349 1.390 . S
C350 C351 1.392 1_554 S
C351 H323 0.929 . S
C351 C348 1.391 . S
C351 C350 1.392 1_556 S
N352 Co296 2.257 . S
N352 C349 1.391 1_556 S
N352 C353 1.388 . S
C353 H324 0.930 . S
C353 C348 1.391 . S
C353 N352 1.388 . S
C354 C355 1.369 . S
C354 C356 1.419 . S
C354 H358 0.930 . S
C355 C354 1.369 . S
C355 C364 1.429 . S
C356 C354 1.419 . S
C356 C357 1.363 . S
C356 H359 0.932 . S
C357 C356 1.363 . S
C357 C363 1.428 . S
H358 C354 0.930 . S
H359 C356 0.932 . S
S360 N361 1.613 . S
S360 N362 1.610 . S
N361 S360 1.613 . S
N361 C364 1.350 . S
N362 S360 1.610 . S
N362 C363 1.351 . S
C363 C357 1.428 . S
C363 N362 1.351 . S
C363 C364 1.434 . S
C364 C355 1.429 . S
C364 N361 1.350 . S
C364 C363 1.434 . S
C365 C366 1.369 . S
C365 C367 1.419 . S
C365 H369 0.930 . S
C366 C365 1.369 . S
C366 C375 1.429 . S
C367 C365 1.419 . S
C367 C368 1.363 . S
C367 H370 0.929 . S
C368 C367 1.363 . S
C368 C374 1.428 . S
H369 C365 0.930 . S
H370 C367 0.929 . S
S371 N372 1.613 . S
S371 N373 1.610 . S
N372 S371 1.613 . S
N372 C375 1.350 . S
N373 S371 1.610 . S
N373 C374 1.351 . S
C374 C368 1.428 . S
C374 N373 1.351 . S
C374 C375 1.434 . S
C375 C366 1.429 . S
C375 N372 1.350 . S
C375 C374 1.434 . S
C376 C377 1.369 . S
C376 C378 1.419 . S
C376 H380 0.930 . S
C377 C376 1.369 . S
C377 C386 1.429 . S
C378 C376 1.419 . S
C378 C379 1.363 . S
C378 H381 0.929 . S
C379 C378 1.363 . S
C379 C385 1.428 . S
H380 C376 0.930 . S
H381 C378 0.929 . S
S382 N383 1.613 . S
S382 N384 1.610 . S
N383 S382 1.613 . S
N383 C386 1.350 . S
N384 S382 1.610 . S
N384 C385 1.351 . S
C385 C379 1.428 . S
C385 N384 1.351 . S
C385 C386 1.434 . S
C386 C377 1.429 . S
C386 N383 1.350 . S
C386 C385 1.434 . S
C387 C388 1.369 . S
C387 C389 1.419 . S
C387 H391 0.930 . S
C388 C387 1.369 . S
C388 C397 1.429 . S
C389 C387 1.419 . S
C389 C390 1.363 . S
C389 H392 0.929 . S
C390 C389 1.363 . S
C390 C396 1.428 . S
H391 C387 0.930 . S
H392 C389 0.929 . S
S393 N394 1.613 1_565 S
S393 N395 1.610 1_565 S
N394 S393 1.613 1_545 S
N394 C397 1.350 . S
N395 S393 1.610 1_545 S
N395 C396 1.351 . S
C396 C390 1.428 . S
C396 N395 1.351 . S
C396 C397 1.434 . S
C397 C388 1.429 . S
C397 N394 1.350 . S
C397 C396 1.434 . S
C398 C399 1.369 . S
C398 C400 1.419 1_554 S
C398 H402 0.930 . S
C399 C398 1.369 . S
C399 C408 1.429 1_554 S
C400 C398 1.419 1_556 S
C400 C401 1.363 . S
C400 H403 0.929 . S
C401 C400 1.363 . S
C401 C407 1.428 . S
H402 C398 0.930 . S
H403 C400 0.929 . S
S404 N405 1.613 . S
S404 N406 1.610 . S
N405 S404 1.613 . S
N405 C408 1.350 . S
N406 S404 1.610 . S
N406 C407 1.351 . S
C407 C401 1.428 . S
C407 N406 1.351 . S
C407 C408 1.434 . S
C408 C399 1.429 1_556 S
C408 N405 1.350 . S
C408 C407 1.434 . S
C409 C410 1.369 . S
C409 C411 1.419 . S
C409 H413 0.930 . S
C410 C409 1.369 . S
C410 C419 1.429 1_455 S
C411 C409 1.419 . S
C411 C412 1.363 . S
C411 H414 0.929 . S
C412 C411 1.363 . S
C412 C418 1.428 1_455 S
H413 C409 0.930 . S
H414 C411 0.929 . S
S415 N416 1.613 . S
S415 N417 1.610 . S
N416 S415 1.613 . S
N416 C419 1.350 . S
N417 S415 1.610 . S
N417 C418 1.351 . S
C418 C412 1.428 1_655 S
C418 N417 1.351 . S
C418 C419 1.434 . S
C419 C410 1.429 1_655 S
C419 N416 1.350 . S
C419 C418 1.434 . S
C420 C421 1.369 . S
C420 C422 1.419 . S
C420 H424 0.930 . S
C421 C420 1.369 . S
C421 C430 1.429 . S
C422 C420 1.419 . S
C422 C423 1.363 . S
C422 H425 0.929 . S
C423 C422 1.363 . S
C423 C429 1.428 . S
H424 C420 0.930 . S
H425 C422 0.929 . S
S426 N427 1.613 1_556 S
S426 N428 1.610 1_556 S
N427 S426 1.613 1_554 S
N427 C430 1.350 . S
N428 S426 1.610 1_554 S
N428 C429 1.351 . S
C429 C423 1.428 . S
C429 N428 1.351 . S
C429 C430 1.434 . S
C430 C421 1.429 . S
C430 N427 1.350 . S
C430 C429 1.434 . S
C431 C432 1.369 . S
C431 C433 1.419 . S
C431 H435 0.930 . S
C432 C431 1.369 . S
C432 C441 1.429 . S
C433 C431 1.419 . S
C433 C434 1.363 . S
C433 H436 0.929 . S
C434 C433 1.363 . S
C434 C440 1.428 . S
H435 C431 0.930 . S
H436 C433 0.929 . S
S437 N438 1.613 . S
S437 N439 1.610 . S
N438 S437 1.613 . S
N438 C441 1.350 . S
N439 S437 1.610 . S
N439 C440 1.351 . S
C440 C434 1.428 . S
C440 N439 1.351 . S
C440 C441 1.434 . S
C441 C432 1.429 . S
C441 N438 1.350 . S
C441 C440 1.434 . S
C442 C443 1.369 . S
C442 C444 1.419 . S
C442 H446 0.930 . S
C443 C442 1.369 . S
C443 C452 1.429 . S
C444 C442 1.419 . S
C444 C445 1.363 . S
C444 H447 0.929 . S
C445 C444 1.363 . S
C445 C451 1.428 . S
H446 C442 0.930 . S
H447 C444 0.929 . S
S448 N449 1.613 . S
S448 N450 1.610 . S
N449 S448 1.613 . S
N449 C452 1.350 . S
N450 S448 1.610 . S
N450 C451 1.351 . S
C451 C445 1.428 . S
C451 N450 1.351 . S
C451 C452 1.434 . S
C452 C443 1.429 . S
C452 N449 1.350 . S
C452 C451 1.434 . S
C453 C454 1.369 . S
C453 C455 1.419 . S
C453 H457 0.930 . S
C454 C453 1.369 . S
C454 C463 1.429 . S
C455 C453 1.419 . S
C455 C456 1.363 . S
C455 H458 0.929 . S
C456 C455 1.363 . S
C456 C462 1.428 . S
H457 C453 0.930 . S
H458 C455 0.929 . S
S459 N460 1.613 . S
S459 N461 1.610 . S
N460 S459 1.613 . S
N460 C463 1.350 . S
N461 S459 1.610 . S
N461 C462 1.351 . S
C462 C456 1.428 . S
C462 N461 1.351 . S
C462 C463 1.434 . S
C463 C454 1.429 . S
C463 N460 1.350 . S
C463 C462 1.434 . S
C464 C465 1.369 . S
C464 C466 1.419 . S
C464 H468 0.930 . S
C465 C464 1.369 . S
C465 C474 1.429 . S
C466 C464 1.419 . S
C466 C467 1.363 . S
C466 H469 0.929 . S
C467 C466 1.363 . S
C467 C473 1.428 . S
H468 C464 0.930 . S
H469 C466 0.929 . S
S470 N471 1.613 . S
S470 N472 1.610 . S
N471 S470 1.613 . S
N471 C474 1.350 . S
N472 S470 1.610 . S
N472 C473 1.351 . S
C473 C467 1.428 . S
C473 N472 1.351 . S
C473 C474 1.434 . S
C474 C465 1.429 . S
C474 N471 1.350 . S
C474 C473 1.434 . S
C475 C476 1.369 1_554 S
C475 C477 1.419 . S
C475 H479 0.930 . S
C476 C475 1.369 1_556 S
C476 C485 1.429 . S
C477 C475 1.419 . S
C477 C478 1.363 1_554 S
C477 H480 0.929 . S
C478 C477 1.363 1_556 S
C478 C484 1.428 . S
H479 C475 0.930 . S
H480 C477 0.929 . S
S481 N482 1.613 . S
S481 N483 1.610 . S
N482 S481 1.613 . S
N482 C485 1.350 . S
N483 S481 1.610 . S
N483 C484 1.351 . S
C484 C478 1.428 . S
C484 N483 1.351 . S
C484 C485 1.434 . S
C485 C476 1.429 . S
C485 N482 1.350 . S
C485 C484 1.434 . S
C355 C52 1.760 . S
C357 C180 1.751 . S
C366 C111 1.760 . S
C368 C239 1.752 . S
C377 C298 1.753 . S
C379 C170 1.761 . S
C388 C3 1.752 . S
C390 C229 1.760 . S
C399 C62 1.753 . S
C401 C288 1.762 . S
C410 C347 1.756 1_554 S
C412 C121 1.752 . S
C421 C64 1.484 . S
C423 C33 1.475 . S
C432 C123 1.484 . S
C434 C92 1.478 . S
C443 C151 1.477 . S
C445 C182 1.484 . S
C454 C241 1.485 . S
C456 C210 1.476 . S
C465 C300 1.484 . S
C467 C269 1.478 . S
C476 C328 1.475 . S
C478 C5 1.484 1_556 S
