# Generated by pormake.
# Topology unj, (4)-cn, num edge types: 1
# Building blocks:
#     Node 0, Type 0, BuildingBlock: AZAVOO_clean_sbu_0, # of connection points: 4
#     Node 1, Type 0, BuildingBlock: AZAVOO_clean_sbu_0, # of connection points: 4
#     Node 2, Type 0, BuildingBlock: AZAVOO_clean_sbu_0, # of connection points: 4
#     Node 3, Type 0, BuildingBlock: AZAVOO_clean_sbu_0, # of connection points: 4
#     Node 4, Type 0, BuildingBlock: AZAVOO_clean_sbu_0, # of connection points: 4
#     Node 5, Type 0, BuildingBlock: AZAVOO_clean_sbu_0, # of connection points: 4
#     Edge 6, Type (0, 0), BuildingBlock: MIFKUJ_clean_linker_0, # of connection points: 2
#     Edge 7, Type (0, 0), BuildingBlock: MIFKUJ_clean_linker_0, # of connection points: 2
#     Edge 8, Type (0, 0), BuildingBlock: MIFKUJ_clean_linker_0, # of connection points: 2
#     Edge 9, Type (0, 0), BuildingBlock: MIFKUJ_clean_linker_0, # of connection points: 2
#     Edge 10, Type (0, 0), BuildingBlock: MIFKUJ_clean_linker_0, # of connection points: 2
#     Edge 11, Type (0, 0), BuildingBlock: MIFKUJ_clean_linker_0, # of connection points: 2
#     Edge 12, Type (0, 0), BuildingBlock: MIFKUJ_clean_linker_0, # of connection points: 2
#     Edge 13, Type (0, 0), BuildingBlock: MIFKUJ_clean_linker_0, # of connection points: 2
#     Edge 14, Type (0, 0), BuildingBlock: MIFKUJ_clean_linker_0, # of connection points: 2
#     Edge 15, Type (0, 0), BuildingBlock: MIFKUJ_clean_linker_0, # of connection points: 2
#     Edge 16, Type (0, 0), BuildingBlock: MIFKUJ_clean_linker_0, # of connection points: 2
#     Edge 17, Type (0, 0), BuildingBlock: MIFKUJ_clean_linker_0, # of connection points: 2
# Relax obj value: 0.028
# Max RMSD: 0.066
# Mean RMSD: 0.065
data_MOF--net-unj--node1-AZAVOO_clean_sbu_0--edge1-MIFKUJ_clean_linker_0
_symmetry_space_group_name_H-M    P1
_symmetry_Int_Tables_number       1
_symmetry_cell_setting            triclinic
loop_
_symmetry_equiv_pos_as_xyz
'x, y, z'
_cell_length_a     45.423267
_cell_length_b     45.097898
_cell_length_c     43.049006
_cell_angle_alpha  89.941586
_cell_angle_beta   90.006021
_cell_angle_gamma 120.07005
loop_
_atom_site_label
_atom_site_type_symbol
_atom_site_fract_x
_atom_site_fract_y
_atom_site_fract_z
_atom_type_partial_charge
Mg0 Mg 0.51365 0.24687 0.55585 0.0
O1 O 0.54764 0.24565 0.59466 0.0
O2 O 0.58288 0.2303 0.5735 0.0
Mg3 Mg 0.57039 0.22037 0.52165 0.0
C4 C 0.57184 0.2391 0.59696 0.0
C5 C 0.46381 0.26483 0.58307 0.0
O6 O 0.44739 0.24206 0.56125 0.0
O7 O 0.55713 0.29651 0.53592 0.0
O8 O 0.58898 0.27761 0.51329 0.0
O9 O 0.47634 0.19204 0.56431 0.0
O10 O 0.51822 0.21011 0.53014 0.0
C11 C 0.58275 0.30165 0.51955 0.0
C12 C 0.49256 0.1849 0.54365 0.0
O13 O 0.49503 0.27457 0.58753 0.0
Mg14 Mg 0.2259 0.41333 0.7326 0.0
O15 O 0.2546 0.44661 0.77479 0.0
O16 O 0.30895 0.48019 0.76091 0.0
Mg17 Mg 0.31504 0.46929 0.7102 0.0
C18 C 0.28514 0.46966 0.78102 0.0
C19 C 0.15512 0.3666 0.76315 0.0
O20 O 0.16434 0.34391 0.75682 0.0
O21 O 0.22609 0.45879 0.70894 0.0
O22 O 0.28035 0.48968 0.69394 0.0
O23 O 0.23975 0.37346 0.74584 0.0
O24 O 0.27081 0.41756 0.71535 0.0
C25 C 0.25002 0.48454 0.69486 0.0
C26 C 0.26709 0.39076 0.72945 0.0
O27 O 0.17515 0.39782 0.75622 0.0
Mg28 Mg 0.76195 0.21872 0.93965 0.0
O29 O 0.72968 0.22259 0.9003 0.0
O30 O 0.67833 0.20694 0.91981 0.0
Mg31 Mg 0.67774 0.19385 0.97122 0.0
C32 C 0.69937 0.21712 0.8972 0.0
C33 C 0.82718 0.23204 0.9071 0.0
O34 O 0.81534 0.2016 0.91969 0.0
O35 O 0.76946 0.26826 0.96165 0.0
O36 O 0.71739 0.24996 0.98096 0.0
O37 O 0.74107 0.16308 0.92849 0.0
O38 O 0.71849 0.18233 0.96272 0.0
C39 C 0.74824 0.27352 0.9767 0.0
C40 C 0.71716 0.15679 0.94826 0.0
O41 O 0.81032 0.24738 0.91046 0.0
Mg42 Mg 0.48616 0.75388 0.06748 0.0
O43 O 0.45189 0.7559 0.10563 0.0
O44 O 0.4167 0.77073 0.08347 0.0
Mg45 Mg 0.42898 0.77892 0.03152 0.0
C46 C 0.42768 0.7625 0.10736 0.0
C47 C 0.53473 0.73344 0.09351 0.0
O48 O 0.54948 0.75195 0.06866 0.0
O49 O 0.44291 0.70354 0.04851 0.0
O50 O 0.4104 0.72143 0.02537 0.0
O51 O 0.52327 0.80914 0.07441 0.0
O52 O 0.48116 0.78952 0.04043 0.0
C53 C 0.41693 0.69775 0.03238 0.0
C54 C 0.50683 0.81533 0.05322 0.0
O55 O 0.50504 0.72743 0.10049 0.0
Mg56 Mg 0.78341 0.58961 0.22257 0.0
O57 O 0.75074 0.55285 0.26146 0.0
O58 O 0.69696 0.52361 0.24475 0.0
Mg59 Mg 0.69558 0.53929 0.19448 0.0
C60 C 0.71939 0.53089 0.26576 0.0
C61 C 0.83612 0.60939 0.27712 0.0
O62 O 0.81204 0.61143 0.29218 0.0
O63 O 0.78297 0.54542 0.19613 0.0
O64 O 0.72946 0.51778 0.1786 0.0
O65 O 0.76967 0.62899 0.23835 0.0
O66 O 0.74104 0.58895 0.20353 0.0
C67 C 0.75916 0.52134 0.18038 0.0
C68 C 0.74389 0.61413 0.21973 0.0
O69 O 0.83172 0.60092 0.24862 0.0
Mg70 Mg 0.23194 0.77677 0.44881 0.0
O71 O 0.26533 0.77459 0.40963 0.0
O72 O 0.3175 0.79384 0.42889 0.0
Mg73 Mg 0.31761 0.80795 0.47992 0.0
C74 C 0.29626 0.78198 0.40648 0.0
C75 C 0.15622 0.73862 0.43347 0.0
O76 O 0.15771 0.75039 0.46169 0.0
O77 O 0.22824 0.72925 0.47199 0.0
O78 O 0.28094 0.75142 0.49105 0.0
O79 O 0.24929 0.83149 0.4362 0.0
O80 O 0.27434 0.81547 0.47098 0.0
C81 C 0.25076 0.72629 0.48728 0.0
C82 C 0.27382 0.83971 0.45579 0.0
O83 O 0.18376 0.74459 0.42038 0.0
H84 H 0.5025 0.16274 0.48789 0.0
H85 H 0.4727 0.10378 0.46823 0.0
H86 H 0.42421 0.06773 0.55725 0.0
H87 H 0.45301 0.12668 0.57679 0.0
H88 H 0.45272 0.02668 0.52108 0.0
H89 H 0.37906 0.07836 0.51456 0.0
H90 H 0.36856 0.12433 0.49699 0.0
H91 H 0.38691 0.10752 0.40254 0.0
H92 H 0.39803 0.06176 0.41967 0.0
H93 H 0.3071 0.86701 0.50937 0.0
H94 H 0.3509 0.92591 0.51943 0.0
H95 H 0.34691 0.95178 0.42346 0.0
H96 H 0.30081 0.89285 0.41397 0.0
H97 H 0.35286 0.00049 0.45522 0.0
H98 H 0.4158 0.94314 0.45692 0.0
H99 H 0.43011 0.8987 0.47039 0.0
H100 H 0.43886 0.92718 0.56653 0.0
H101 H 0.42411 0.97146 0.55373 0.0
C102 C 0.48608 0.14215 0.50348 0.0
C103 C 0.47989 0.14921 0.53382 0.0
C104 C 0.46907 0.10858 0.49218 0.0
C105 C 0.44629 0.08163 0.51132 0.0
C106 C 0.44183 0.08831 0.54224 0.0
C107 C 0.45819 0.12193 0.55332 0.0
C108 C 0.42447 0.047 0.49843 0.0
C109 C 0.43078 0.0207 0.50675 0.0
C110 C 0.39688 0.03984 0.47866 0.0
C111 C 0.38977 0.06699 0.46842 0.0
C112 C 0.38117 0.0847 0.49009 0.0
C113 C 0.37504 0.11066 0.48021 0.0
C114 C 0.37718 0.11892 0.44868 0.0
C115 C 0.38533 0.10115 0.42696 0.0
C116 C 0.39153 0.0752 0.43674 0.0
C117 C 0.31565 0.88526 0.49038 0.0
C118 C 0.30078 0.87546 0.46087 0.0
C119 C 0.34102 0.91891 0.49605 0.0
C120 C 0.35319 0.94328 0.47201 0.0
C121 C 0.33822 0.93348 0.44239 0.0
C122 C 0.31194 0.89988 0.43694 0.0
C123 C 0.38021 0.97921 0.47853 0.0
C124 C 0.37502 0.00606 0.46902 0.0
C125 C 0.40944 0.98695 0.4965 0.0
C126 C 0.41867 0.96055 0.50435 0.0
C127 C 0.4206 0.93982 0.48096 0.0
C128 C 0.4288 0.91466 0.48848 0.0
C129 C 0.43535 0.9101 0.5193 0.0
C130 C 0.43379 0.93075 0.54266 0.0
C131 C 0.42556 0.95593 0.53528 0.0
H132 H 0.44167 0.89058 0.52508 0.0
H133 H 0.37242 0.13903 0.44107 0.0
H134 H 0.48754 0.30782 0.63364 0.0
H135 H 0.45642 0.32887 0.66466 0.0
H136 H 0.36811 0.27225 0.6066 0.0
H137 H 0.39881 0.25139 0.5756 0.0
H138 H 0.38193 0.33675 0.61482 0.0
H139 H 0.3706 0.24393 0.67834 0.0
H140 H 0.3912 0.21142 0.7085 0.0
H141 H 0.44583 0.29733 0.76945 0.0
H142 H 0.42592 0.33054 0.73937 0.0
H143 H 0.25773 0.32652 0.73884 0.0
H144 H 0.29479 0.30505 0.72061 0.0
H145 H 0.36954 0.40706 0.69162 0.0
H146 H 0.33275 0.4284 0.70911 0.0
H147 H 0.36216 0.31878 0.72844 0.0
H148 H 0.39318 0.40214 0.61854 0.0
H149 H 0.36902 0.43117 0.58791 0.0
H150 H 0.26852 0.35672 0.61813 0.0
H151 H 0.29203 0.32699 0.64854 0.0
C152 C 0.46149 0.29989 0.62753 0.0
C153 C 0.44569 0.27801 0.6021 0.0
C154 C 0.4437 0.31177 0.64537 0.0
C155 C 0.40989 0.30196 0.63802 0.0
C156 C 0.39418 0.28017 0.61266 0.0
C157 C 0.41181 0.26824 0.59497 0.0
C158 C 0.3909 0.3151 0.6559 0.0
C159 C 0.37778 0.33291 0.63968 0.0
C160 C 0.38511 0.30975 0.68828 0.0
C161 C 0.39707 0.28984 0.7064 0.0
C162 C 0.38725 0.25599 0.69801 0.0
C163 C 0.39875 0.23742 0.71512 0.0
C164 C 0.41989 0.25234 0.74082 0.0
C165 C 0.4295 0.28583 0.7495 0.0
C166 C 0.41809 0.30453 0.73245 0.0
C167 C 0.28243 0.34449 0.72928 0.0
C168 C 0.29198 0.37908 0.72488 0.0
C169 C 0.30359 0.3322 0.71893 0.0
C170 C 0.3346 0.35438 0.70422 0.0
C171 C 0.34545 0.38942 0.70243 0.0
C172 C 0.32426 0.40159 0.71242 0.0
C173 C 0.3536 0.34062 0.68732 0.0
C174 C 0.36665 0.32278 0.70364 0.0
C175 C 0.35894 0.34539 0.65486 0.0
C176 C 0.34442 0.36257 0.63604 0.0
C177 C 0.36591 0.39189 0.61851 0.0
C178 C 0.35234 0.40847 0.60121 0.0
C179 C 0.31727 0.39586 0.60116 0.0
C180 C 0.29568 0.36653 0.61827 0.0
C181 C 0.30912 0.34982 0.63556 0.0
H182 H 0.30682 0.40878 0.5878 0.0
H183 H 0.42876 0.23791 0.75404 0.0
H184 H 0.8634 0.29753 0.88377 0.0
H185 H 0.91959 0.32462 0.85906 0.0
H186 H 0.92159 0.23038 0.86829 0.0
H187 H 0.86604 0.20346 0.89334 0.0
H188 H 0.97991 0.28293 0.8871 0.0
H189 H 0.90655 0.25762 0.79796 0.0
H190 H 0.86246 0.2599 0.76632 0.0
H191 H 0.92298 0.36963 0.76233 0.0
H192 H 0.96726 0.36802 0.7943 0.0
H193 H 0.10913 0.30296 0.78471 0.0
H194 H 0.05421 0.28484 0.80915 0.0
H195 H 0.0703 0.38712 0.79958 0.0
H196 H 0.12547 0.40557 0.7749 0.0
H197 H 0.00499 0.3371 0.7828 0.0
H198 H 0.08015 0.36184 0.86884 0.0
H199 H 0.1244 0.35926 0.89992 0.0
H200 H 0.06037 0.25035 0.90963 0.0
H201 H 0.01589 0.25221 0.87821 0.0
C202 C 0.87575 0.28256 0.88035 0.0
C203 C 0.86027 0.24836 0.8906 0.0
C204 C 0.90783 0.29804 0.86615 0.0
C205 C 0.92478 0.27949 0.8617 0.0
C206 C 0.9091 0.24526 0.87159 0.0
C207 C 0.87724 0.22987 0.88585 0.0
C208 C 0.95925 0.29564 0.84756 0.0
C209 C 0.98526 0.29448 0.86416 0.0
C210 C 0.9666 0.31173 0.81807 0.0
C211 C 0.94003 0.31272 0.79882 0.0
C212 C 0.91033 0.28225 0.79055 0.0
C213 C 0.88533 0.28342 0.77252 0.0
C214 C 0.88987 0.3149 0.76241 0.0
C215 C 0.91947 0.34527 0.77023 0.0
C216 C 0.94453 0.34424 0.78829 0.0
C217 C 0.10108 0.32167 0.78777 0.0
C218 C 0.12178 0.35576 0.77796 0.0
C219 C 0.06968 0.31127 0.80184 0.0
C220 C 0.05833 0.33472 0.80646 0.0
C221 C 0.07864 0.36865 0.79628 0.0
C222 C 0.1102 0.37916 0.78231 0.0
C223 C 0.02525 0.32353 0.82205 0.0
C224 C -0.00038 0.32577 0.80583 0.0
C225 C 0.01817 0.30836 0.8519 0.0
C226 C 0.04479 0.30714 0.87095 0.0
C227 C 0.0756 0.3373 0.8774 0.0
C228 C 0.10071 0.33598 0.89511 0.0
C229 C 0.09523 0.30465 0.90669 0.0
C230 C 0.06459 0.2746 0.90063 0.0
C231 C 0.0394 0.27578 0.8829 0.0
H232 H 0.1147 0.30368 0.9204 0.0
H233 H 0.87049 0.31575 0.74844 0.0
H234 H 0.5489 0.87527 0.08314 0.0
H235 H 0.57626 0.93319 0.06104 0.0
H236 H 0.52196 0.8926 0.97521 0.0
H237 H 0.49362 0.83473 0.99741 0.0
H238 H 0.60607 0.93735 0.98197 0.0
H239 H 0.49705 0.93261 0.99542 0.0
H240 H 0.44747 0.92262 0.0268 0.0
H241 H 0.51349 -4e-05 0.09145 0.0
H242 H 0.56351 0.01001 0.06067 0.0
H243 H 0.69113 0.10063 0.91011 0.0
H244 H 0.64707 0.04193 0.92306 0.0
H245 H 0.63923 0.07514 0.01524 0.0
H246 H 0.68115 0.13382 0.00158 0.0
H247 H 0.58071 0.03087 1.00018 0.0
H248 H 0.68818 0.03392 0.9948 0.0
H249 H 0.74152 0.04378 0.97045 0.0
H250 H 0.6845 0.97069 0.89922 0.0
H251 H 0.63081 0.96068 0.92297 0.0
C252 C 0.5422 0.8788 0.05983 0.0
C253 C 0.51917 0.85055 0.04198 0.0
C254 C 0.55782 0.91182 0.04727 0.0
C255 C 0.55102 0.91694 0.01658 0.0
C256 C 0.52728 0.889 0.99902 0.0
C257 C 0.51107 0.85606 0.01178 0.0
C258 C 0.5712 0.95102 0.00213 0.0
C259 C 0.6003 0.95776 0.98532 0.0
C260 C 0.56406 0.97759 0.00759 0.0
C261 C 0.53401 0.97178 0.02593 0.0
C262 C 0.50101 0.94722 0.0165 0.0
C263 C 0.47283 0.94161 0.03413 0.0
C264 C 0.47733 0.96057 0.06115 0.0
C265 C 0.51003 0.98526 0.07054 0.0
C266 C 0.5383 0.99094 0.05299 0.0
C267 C 0.67964 0.09529 0.93298 0.0
C268 C 0.6896 0.12163 0.9549 0.0
C269 C 0.65464 0.06174 0.94048 0.0
C270 C 0.64024 0.05377 0.97043 0.0
C271 C 0.64975 0.08041 0.99198 0.0
C272 C 0.67388 0.114 0.98419 0.0
C273 C 0.61627 0.01777 0.98002 0.0
C274 C 0.58645 0.01056 0.99617 0.0
C275 C 0.62332 0.9909 0.97473 0.0
C276 C 0.65554 0.99687 0.96043 0.0
C277 C 0.68705 0.02013 0.97382 0.0
C278 C 0.71733 0.02572 0.96015 0.0
C279 C 0.71641 0.00796 0.93325 0.0
C280 C 0.68518 0.98449 0.92001 0.0
C281 C 0.65482 0.97883 0.93357 0.0
H282 H 0.73988 0.01232 0.9227 0.0
H283 H 0.45548 0.95619 0.07477 0.0
H284 H 0.69226 0.59087 0.17801 0.0
H285 H 0.65319 0.61168 0.16861 0.0
H286 H 0.69828 0.68392 0.2438 0.0
H287 H 0.73828 0.66317 0.25327 0.0
H288 H 0.60504 0.61512 0.19925 0.0
H289 H 0.69704 0.75706 0.22206 0.0
H290 H 0.75873 0.79806 0.22527 0.0
H291 H 0.77815 0.73752 0.16048 0.0
H292 H 0.71658 0.69641 0.15667 0.0
H293 H 0.51676 0.70275 0.15103 0.0
H294 H 0.54909 0.68429 0.1835 0.0
H295 H 0.6264 0.71776 0.11254 0.0
H296 H 0.59489 0.73683 0.08056 0.0
H297 H 0.65553 0.73662 0.16708 0.0
H298 H 0.56356 0.63207 0.12241 0.0
H299 H 0.50338 0.58925 0.11271 0.0
H300 H 0.48612 0.57195 0.21081 0.0
H301 H 0.54615 0.61498 0.22108 0.0
C302 C 0.69364 0.61075 0.19304 0.0
C303 C 0.71846 0.62532 0.21645 0.0
C304 C 0.67111 0.62261 0.18763 0.0
C305 C 0.67279 0.64945 0.20538 0.0
C306 C 0.69669 0.66334 0.22962 0.0
C307 C 0.7195 0.65147 0.23503 0.0
C308 C 0.65113 0.66411 0.19631 0.0
C309 C 0.61599 0.64184 0.1927 0.0
C310 C 0.66534 0.69889 0.18755 0.0
C311 C 0.70233 0.7235 0.18944 0.0
C312 C 0.71451 0.75257 0.2085 0.0
C313 C 0.74943 0.77581 0.21041 0.0
C314 C 0.77235 0.77032 0.19319 0.0
C315 C 0.76039 0.74166 0.17391 0.0
C316 C 0.7255 0.71838 0.17188 0.0
C317 C 0.54064 0.70611 0.1424 0.0
C318 C 0.55321 0.72117 0.11318 0.0
C319 C 0.55909 0.69558 0.16098 0.0
C320 C 0.59018 0.69957 0.15045 0.0
C321 C 0.60266 0.71467 0.12132 0.0
C322 C 0.58446 0.72538 0.10294 0.0
C323 C 0.60966 0.68733 0.16893 0.0
C324 C 0.64434 0.71014 0.17449 0.0
C325 C 0.59519 0.65283 0.17869 0.0
C326 C 0.55916 0.62703 0.17252 0.0
C327 C 0.54684 0.61932 0.14191 0.0
C328 C 0.51279 0.59498 0.13631 0.0
C329 C 0.49091 0.57798 0.16113 0.0
C330 C 0.50307 0.5852 0.19161 0.0
C331 C 0.5371 0.60955 0.19734 0.0
H332 H 0.46455 0.55914 0.15675 0.0
H333 H 0.79937 0.78833 0.19472 0.0
H334 H 0.14334 0.71044 0.37503 0.0
H335 H 0.08887 0.6828 0.34739 0.0
H336 H 0.04027 0.69855 0.4267 0.0
H337 H 0.09422 0.72545 0.45461 0.0
H338 H 0.0005 0.63649 0.40274 0.0
H339 H 0.06508 0.75217 0.36272 0.0
H340 H 0.11467 0.80111 0.33808 0.0
H341 H 0.10125 0.74039 0.25686 0.0
H342 H 0.0518 0.69095 0.2812 0.0
H343 H 0.85402 0.62912 0.33748 0.0
H344 H 0.90821 0.64553 0.36271 0.0
H345 H 0.94555 0.62522 0.2779 0.0
H346 H 0.89155 0.60925 0.25231 0.0
H347 H 0.99165 0.6851 0.30206 0.0
H348 H 0.92425 0.57089 0.33994 0.0
H349 H 0.87439 0.52188 0.36413 0.0
H350 H 0.89256 0.57898 0.44863 0.0
H351 H 0.94237 0.62853 0.42483 0.0
C352 C 0.121 0.70782 0.38664 0.0
C353 C 0.12319 0.72037 0.41696 0.0
C354 C 0.08991 0.69212 0.37078 0.0
C355 C 0.06054 0.68899 0.38482 0.0
C356 C 0.06255 0.70066 0.41537 0.0
C357 C 0.0935 0.71618 0.43126 0.0
C358 C 0.02787 0.67459 0.36759 0.0
C359 C 0.99851 0.64729 0.38084 0.0
C360 C 0.02538 0.68804 0.33859 0.0
C361 C 0.055 0.71778 0.32391 0.0
C362 C 0.07286 0.7492 0.3397 0.0
C363 C 0.10092 0.77703 0.32577 0.0
C364 C 0.11117 0.77383 0.29596 0.0
C365 C 0.09332 0.74281 0.27997 0.0
C366 C 0.06527 0.71489 0.29381 0.0
C367 C 0.87366 0.62796 0.32421 0.0
C368 C 0.86844 0.61793 0.29285 0.0
C369 C 0.90461 0.63718 0.33873 0.0
C370 C 0.93086 0.63629 0.32229 0.0
C371 C 0.92565 0.62607 0.29104 0.0
C372 C 0.89472 0.61688 0.27648 0.0
C373 C 0.96418 0.64732 0.33741 0.0
C374 C 0.99366 0.67403 0.32379 0.0
C375 C 0.96676 0.63328 0.36602 0.0
C376 C 0.93692 0.60351 0.38051 0.0
C377 C 0.91749 0.57309 0.36362 0.0
C378 C 0.88927 0.5452 0.37727 0.0
C379 C 0.88031 0.54733 0.40789 0.0
C380 C 0.89956 0.57737 0.42492 0.0
C381 C 0.92783 0.60535 0.41138 0.0
H382 H 0.85853 0.52565 0.41843 0.0
H383 H 0.13289 0.7954 0.28521 0.0
H384 H 0.56479 0.34991 0.50674 0.0
H385 H 0.59286 0.39758 0.47006 0.0
H386 H 0.67476 0.37625 0.459 0.0
H387 H 0.64671 0.32824 0.49532 0.0
H388 H 0.69419 0.45025 0.45741 0.0
H389 H 0.61677 0.339 0.41129 0.0
H390 H 0.56128 0.28579 0.40712 0.0
H391 H 0.51235 0.34459 0.38966 0.0
H392 H 0.56754 0.3982 0.39423 0.0
H393 H 0.75608 0.51495 0.30588 0.0
H394 H 0.73655 0.48293 0.35461 0.0
H395 H 0.63932 0.47727 0.34366 0.0
H396 H 0.65809 0.50726 0.29406 0.0
H397 H 0.62766 0.4194 0.35952 0.0
H398 H 0.70464 0.53094 0.39929 0.0
H399 H 0.75908 0.58509 0.40457 0.0
H400 H 0.80763 0.52969 0.43579 0.0
H401 H 0.75368 0.47511 0.43003 0.0
C402 C 0.58928 0.35598 0.49727 0.0
C403 C 0.60331 0.335 0.50362 0.0
C404 C 0.60526 0.38321 0.47629 0.0
C405 C 0.63569 0.39016 0.46167 0.0
C406 C 0.65131 0.37129 0.4701 0.0
C407 C 0.63513 0.34376 0.49073 0.0
C408 C 0.64835 0.41326 0.43439 0.0
C409 C 0.67987 0.44365 0.43588 0.0
C410 C 0.62924 0.40477 0.40663 0.0
C411 C 0.59617 0.37257 0.40345 0.0
C412 C 0.59413 0.34057 0.40682 0.0
C413 C 0.56275 0.31035 0.40434 0.0
C414 C 0.53329 0.31181 0.39822 0.0
C415 C 0.53517 0.3435 0.39446 0.0
C416 C 0.56649 0.37381 0.39698 0.0
C417 C 0.7306 0.50697 0.31402 0.0
C418 C 0.70851 0.51338 0.29613 0.0
C419 C 0.71952 0.48892 0.34204 0.0
C420 C 0.68654 0.478 0.35324 0.0
C421 C 0.66482 0.48522 0.33561 0.0
C422 C 0.67556 0.5024 0.30724 0.0
C423 C 0.67373 0.45716 0.38218 0.0
C424 C 0.64209 0.42674 0.381 0.0
C425 C 0.69265 0.46604 0.41027 0.0
C426 C 0.72514 0.49887 0.41393 0.0
C427 C 0.72699 0.53026 0.40702 0.0
C428 C 0.75778 0.56104 0.41009 0.0
C429 C 0.78685 0.56081 0.42035 0.0
C430 C 0.78515 0.52981 0.42768 0.0
C431 C 0.75446 0.49894 0.42453 0.0
H432 H 0.81066 0.58466 0.42272 0.0
H433 H 0.50901 0.28838 0.39631 0.0
H434 H 0.18733 0.67352 0.50358 0.0
H435 H 0.17466 0.62347 0.53583 0.0
H436 H 0.2816 0.65609 0.53889 0.0
H437 H 0.29431 0.70546 0.5068 0.0
H438 H 0.24354 0.58772 0.53187 0.0
H439 H 0.24342 0.67648 0.59684 0.0
H440 H 0.22204 0.71488 0.61256 0.0
H441 H 0.12217 0.62808 0.62609 0.0
H442 H 0.14292 0.5892 0.61007 0.0
H443 H 0.29512 0.5438 0.66564 0.0
H444 H 0.28269 0.57656 0.62834 0.0
H445 H 0.17517 0.51037 0.64359 0.0
H446 H 0.18731 0.47696 0.68127 0.0
H447 H 0.19767 0.5832 0.63752 0.0
H448 H 0.20314 0.49422 0.58262 0.0
H449 H 0.22727 0.45769 0.56884 0.0
H450 H 0.31881 0.54601 0.53692 0.0
H451 H 0.29545 0.58316 0.55096 0.0
C452 C 0.208 0.66959 0.51068 0.0
C453 C 0.24185 0.6936 0.5029 0.0
C454 C 0.20075 0.64114 0.52923 0.0
C455 C 0.22725 0.6363 0.54003 0.0
C456 C 0.26075 0.6593 0.53085 0.0
C457 C 0.26799 0.68765 0.5126 0.0
C458 C 0.22117 0.60879 0.56241 0.0
C459 C 0.23332 0.58658 0.55489 0.0
C460 C 0.20698 0.60668 0.5922 0.0
C461 C 0.19459 0.63001 0.60188 0.0
C462 C 0.21684 0.66563 0.60294 0.0
C463 C 0.20486 0.68747 0.61194 0.0
C464 C 0.17074 0.67394 0.62021 0.0
C465 C 0.14857 0.63853 0.6196 0.0
C466 C 0.16042 0.61658 0.61057 0.0
C467 C 0.26877 0.53629 0.66149 0.0
C468 C 0.2422 0.5074 0.6762 0.0
C469 C 0.26174 0.55507 0.64007 0.0
C470 C 0.22803 0.54543 0.63281 0.0
C471 C 0.20135 0.518 0.64878 0.0
C472 C 0.20837 0.499 0.6703 0.0
C473 C 0.22136 0.56327 0.60726 0.0
C474 C 0.20686 0.58356 0.61418 0.0
C475 C 0.23355 0.5638 0.57691 0.0
C476 C 0.24757 0.5415 0.56798 0.0
C477 C 0.2285 0.50589 0.57283 0.0
C478 C 0.24203 0.48506 0.56496 0.0
C479 C 0.27457 0.49952 0.55204 0.0
C480 C 0.2936 0.53484 0.54691 0.0
C481 C 0.2802 0.55579 0.55478 0.0
H482 H 0.28501 0.48336 0.54598 0.0
H483 H 0.16151 0.69088 0.62718 0.0
H484 H 0.63969 0.21515 0.88303 0.0
H485 H 0.61982 0.22142 0.83218 0.0
H486 H 0.71241 0.23593 0.7903 0.0
H487 H 0.73292 0.23043 0.84134 0.0
H488 H 0.69545 0.27952 0.76598 0.0
H489 H 0.63777 0.15892 0.78519 0.0
H490 H 0.60282 0.10554 0.81456 0.0
H491 H 0.51862 0.12369 0.81298 0.0
H492 H 0.55325 0.17746 0.78395 0.0
H493 H 0.63159 0.24071 0.61023 0.0
H494 H 0.65464 0.24015 0.66145 0.0
H495 H 0.56879 0.23934 0.70505 0.0
H496 H 0.54563 0.24021 0.65394 0.0
H497 H 0.58269 0.18905 0.72799 0.0
H498 H 0.64181 0.31005 0.7074 0.0
H499 H 0.67751 0.36232 0.67686 0.0
H500 H 0.75996 0.34153 0.67944 0.0
H501 H 0.72456 0.28882 0.70963 0.0
C502 C 0.65593 0.21973 0.86307 0.0
C503 C 0.68785 0.22204 0.86632 0.0
C504 C 0.64444 0.22319 0.83394 0.0
C505 C 0.66435 0.22856 0.80731 0.0
C506 C 0.69655 0.23168 0.81051 0.0
C507 C 0.7082 0.22845 0.83972 0.0
C508 C 0.65134 0.23059 0.77615 0.0
C509 C 0.671 0.25951 0.75752 0.0
C510 C 0.61916 0.20476 0.76525 0.0
C511 C 0.59822 0.1724 0.78266 0.0
C512 C 0.61189 0.15167 0.79131 0.0
C513 C 0.59212 0.12132 0.80787 0.0
C514 C 0.55855 0.11128 0.81571 0.0
C515 C 0.54465 0.13153 0.80693 0.0
C516 C 0.56432 0.16193 0.79041 0.0
C517 C 0.61768 0.24062 0.63069 0.0
C518 C 0.58674 0.24049 0.62796 0.0
C519 C 0.63097 0.24042 0.65994 0.0
C520 C 0.61347 0.23981 0.68701 0.0
C521 C 0.58269 0.23983 0.68442 0.0
C522 C 0.56958 0.24047 0.65518 0.0
C523 C 0.62672 0.238 0.71801 0.0
C524 C 0.60712 0.20905 0.73654 0.0
C525 C 0.65906 0.2636 0.72863 0.0
C526 C 0.6804 0.29529 0.7105 0.0
C527 C 0.66744 0.31644 0.70121 0.0
C528 C 0.68765 0.34619 0.68401 0.0
C529 C 0.72095 0.35519 0.67614 0.0
C530 C 0.73414 0.33449 0.68551 0.0
C531 C 0.71403 0.30469 0.70269 0.0
H532 H 0.73655 0.37824 0.66283 0.0
H533 H 0.54328 0.08776 0.82852 0.0
H534 H 0.24175 0.47252 0.82355 0.0
H535 H 0.25664 0.50207 0.87383 0.0
H536 H 0.36159 0.53075 0.85981 0.0
H537 H 0.34715 0.50192 0.8094 0.0
H538 H 0.3341 0.50663 0.92301 0.0
H539 H 0.34318 0.58685 0.84198 0.0
H540 H 0.32014 0.60495 0.79871 0.0
H541 H 0.24056 0.5973 0.85795 0.0
H542 H 0.26289 0.57866 0.90146 0.0
H543 H 0.43792 0.65418 0.01207 0.0
H544 H 0.40742 0.6058 0.97696 0.0
H545 H 0.31815 0.61615 0.9843 0.0
H546 H 0.34948 0.666 0.01794 0.0
H547 H 0.32895 0.6138 0.92811 0.0
H548 H 0.32311 0.54262 0.01169 0.0
H549 H 0.34321 0.5227 0.05589 0.0
H550 H 0.41111 0.50966 0.99552 0.0
H551 H 0.39178 0.52995 0.95102 0.0
C552 C 0.26793 0.48481 0.83134 0.0
C553 C 0.29334 0.48516 0.8124 0.0
C554 C 0.27635 0.50161 0.86004 0.0
C555 C 0.31019 0.51853 0.87045 0.0
C556 C 0.33532 0.51768 0.85221 0.0
C557 C 0.32705 0.50144 0.82332 0.0
C558 C 0.3201 0.53958 0.89902 0.0
C559 C 0.33312 0.53014 0.9243 0.0
C560 C 0.31768 0.56954 0.90091 0.0
C561 C 0.30443 0.58096 0.87482 0.0
C562 C 0.32059 0.58873 0.84568 0.0
C563 C 0.3077 0.59915 0.82113 0.0
C564 C 0.27883 0.60216 0.82554 0.0
C565 C 0.26287 0.59488 0.85454 0.0
C566 C 0.27563 0.5844 0.87915 0.0
C567 C 0.41149 0.64552 0.00688 0.0
C568 C 0.3961 0.66392 0.0176 0.0
C569 C 0.39392 0.61767 0.98685 0.0
C570 C 0.36026 0.60699 0.97793 0.0
C571 C 0.34413 0.62392 0.99056 0.0
C572 C 0.36197 0.65231 0.00993 0.0
C573 C 0.34357 0.58134 0.95261 0.0
C574 C 0.32937 0.58997 0.92759 0.0
C575 C 0.3444 0.55033 0.95133 0.0
C576 C 0.35612 0.53804 0.97803 0.0
C577 C 0.3425 0.53574 0.00786 0.0
C578 C 0.35373 0.52434 0.03297 0.0
C579 C 0.37846 0.51498 0.02853 0.0
C580 C 0.39196 0.51693 0.99894 0.0
C581 C 0.38083 0.52832 0.97375 0.0
H582 H 0.38713 0.50617 0.048 0.0
H583 H 0.2689 0.61024 0.80652 0.0
H584 H 0.8128 0.32194 0.99487 0.0
H585 H 0.8287 0.37326 0.02636 0.0
H586 H 0.72473 0.35132 0.02383 0.0
H587 H 0.70882 0.30054 0.99263 0.0
H588 H 0.76976 0.4196 0.01708 0.0
H589 H 0.75358 0.32481 0.08404 0.0
H590 H 0.76743 0.28131 0.10219 0.0
H591 H 0.87011 0.36021 0.12099 0.0
H592 H 0.85692 0.40413 0.10257 0.0
H593 H 0.71406 0.46652 0.14606 0.0
H594 H 0.72629 0.43335 0.10922 0.0
H595 H 0.8326 0.49044 0.13347 0.0
H596 H 0.82066 0.52435 0.17074 0.0
H597 H 0.80433 0.41678 0.12595 0.0
H598 H 0.81457 0.51241 0.06974 0.0
H599 H 0.79803 0.5544 0.05324 0.0
H600 H 0.70531 0.47348 0.01458 0.0
H601 H 0.72102 0.43092 0.03127 0.0
C602 C 0.79356 0.32853 1.00054 0.0
C603 C 0.75951 0.30708 0.99152 0.0
C604 C 0.80263 0.35769 0.01865 0.0
C605 C 0.7778 0.36587 0.02766 0.0
C606 C 0.74429 0.3455 0.01715 0.0
C607 C 0.7352 0.31637 0.99942 0.0
C608 C 0.78542 0.39402 0.04974 0.0
C609 C 0.77757 0.41917 0.04082 0.0
C610 C 0.79655 0.39402 0.08048 0.0
C611 C 0.80441 0.36766 0.09155 0.0
C612 C 0.77918 0.33283 0.09181 0.0
C613 C 0.78689 0.30811 0.10218 0.0
C614 C 0.81966 0.31798 0.11262 0.0
C615 C 0.84476 0.3526 0.11281 0.0
C616 C 0.83719 0.3774 0.10241 0.0
C617 C 0.74007 0.47201 0.14393 0.0
C618 C 0.76644 0.49845 0.16118 0.0
C619 C 0.747 0.45301 0.12273 0.0
C620 C 0.78041 0.45992 0.11824 0.0
C621 C 0.80668 0.48497 0.1365 0.0
C622 C 0.79978 0.50424 0.15777 0.0
C623 C 0.78725 0.44135 0.09353 0.0
C624 C 0.79773 0.41803 0.10195 0.0
C625 C 0.77842 0.44292 0.0623 0.0
C626 C 0.76895 0.46845 0.05188 0.0
C627 C 0.79056 0.50353 0.05789 0.0
C628 C 0.78133 0.52745 0.04848 0.0
C629 C 0.75063 0.51661 0.03289 0.0
C630 C 0.7291 0.48184 0.02664 0.0
C631 C 0.73818 0.45781 0.03602 0.0
H632 H 0.74353 0.53517 0.02564 0.0
H633 H 0.82558 0.29881 0.12066 0.0
H634 H 0.26441 0.77116 0.35007 0.0
H635 H 0.28548 0.76577 0.29938 0.0
H636 H 0.37577 0.776 0.34274 0.0
H637 H 0.35541 0.78251 0.3933 0.0
H638 H 0.39308 0.81373 0.29329 0.0
H639 H 0.30907 0.69727 0.31547 0.0
H640 H 0.25233 0.6496 0.32962 0.0
H641 H 0.20933 0.66927 0.24879 0.0
H642 H 0.26577 0.71736 0.23436 0.0
H643 H 0.45134 0.75833 0.16483 0.0
H644 H 0.42755 0.75944 0.21548 0.0
H645 H 0.34596 0.76554 0.17043 0.0
H646 H 0.36955 0.76454 0.11964 0.0
H647 H 0.324 0.71892 0.22017 0.0
H648 H 0.40927 0.83589 0.19879 0.0
H649 H 0.46668 0.88247 0.1849 0.0
H650 H 0.50806 0.85994 0.26526 0.0
H651 H 0.45092 0.81286 0.27939 0.0
C652 C 0.28867 0.77207 0.34885 0.0
C653 C 0.3082 0.77725 0.37579 0.0
C654 C 0.30063 0.76883 0.31983 0.0
C655 C 0.33207 0.77004 0.31721 0.0
C656 C 0.35148 0.77501 0.34411 0.0
C657 C 0.33974 0.77866 0.37305 0.0
C658 C 0.34526 0.76714 0.28639 0.0
C659 C 0.3781 0.79268 0.27756 0.0
C660 C 0.32554 0.74011 0.26545 0.0
C661 C 0.29159 0.71113 0.274 0.0
C662 C 0.28747 0.69159 0.30083 0.0
C663 C 0.25537 0.66447 0.30889 0.0
C664 C 0.22723 0.65647 0.29016 0.0
C665 C 0.23115 0.67552 0.26329 0.0
C666 C 0.26319 0.70269 0.25515 0.0
C667 C 0.42823 0.75971 0.16563 0.0
C668 C 0.41247 0.76152 0.13811 0.0
C669 C 0.41473 0.76044 0.19462 0.0
C670 C 0.38516 0.76285 0.19668 0.0
C671 C 0.36883 0.76371 0.16933 0.0
C672 C 0.38245 0.76328 0.14032 0.0
C673 C 0.37173 0.76534 0.22738 0.0
C674 C 0.3389 0.73982 0.23607 0.0
C675 C 0.39152 0.7922 0.24833 0.0
C676 C 0.42587 0.82063 0.23997 0.0
C677 C 0.43065 0.84068 0.21336 0.0
C678 C 0.46313 0.86721 0.20547 0.0
C679 C 0.49102 0.8741 0.22414 0.0
C680 C 0.48645 0.85454 0.25079 0.0
C681 C 0.45401 0.82795 0.25877 0.0
H682 H 0.51615 0.89465 0.21799 0.0
H683 H 0.20239 0.63546 0.29644 0.0
loop_
_geom_bond_atom_site_label_1
_geom_bond_atom_site_label_2
_geom_bond_distance
_geom_bond_site_symmetry_2
_ccdc_geom_bond_type
Mg0 O1 2.028 . S
Mg0 O7 1.986 . S
Mg0 O9 2.114 . S
Mg0 O10 2.251 . S
Mg0 O13 2.010 . S
O1 Mg0 2.028 . S
O1 C4 1.250 . S
O2 Mg3 2.028 . S
O2 C4 1.248 . S
Mg3 O2 2.028 . S
Mg3 O8 2.032 . S
Mg3 O10 2.079 . S
C4 O1 1.250 . S
C4 O2 1.248 . S
C5 O6 1.264 . S
C5 O13 1.249 . S
O6 C5 1.264 . S
O7 Mg0 1.986 . S
O7 C11 1.246 . S
O8 Mg3 2.032 . S
O8 C11 1.259 . S
O9 Mg0 2.114 . S
O9 C12 1.252 . S
O10 Mg0 2.251 . S
O10 Mg3 2.079 . S
O10 C12 1.273 . S
C11 O7 1.246 . S
C11 O8 1.259 . S
C12 O9 1.252 . S
C12 O10 1.273 . S
O13 Mg0 2.010 . S
O13 C5 1.249 . S
Mg14 O15 2.028 . S
Mg14 O21 1.986 . S
Mg14 O23 2.114 . S
Mg14 O24 2.251 . S
Mg14 O27 2.010 . S
O15 Mg14 2.028 . S
O15 C18 1.250 . S
O16 Mg17 2.028 . S
O16 C18 1.248 . S
Mg17 O16 2.028 . S
Mg17 O22 2.032 . S
Mg17 O24 2.079 . S
C18 O15 1.250 . S
C18 O16 1.248 . S
C19 O20 1.264 . S
C19 O27 1.249 . S
O20 C19 1.264 . S
O21 Mg14 1.986 . S
O21 C25 1.246 . S
O22 Mg17 2.032 . S
O22 C25 1.259 . S
O23 Mg14 2.114 . S
O23 C26 1.252 . S
O24 Mg14 2.251 . S
O24 Mg17 2.079 . S
O24 C26 1.273 . S
C25 O21 1.246 . S
C25 O22 1.259 . S
C26 O23 1.252 . S
C26 O24 1.273 . S
O27 Mg14 2.010 . S
O27 C19 1.249 . S
Mg28 O29 2.028 . S
Mg28 O35 1.986 . S
Mg28 O37 2.114 . S
Mg28 O38 2.251 . S
Mg28 O41 2.010 . S
O29 Mg28 2.028 . S
O29 C32 1.250 . S
O30 Mg31 2.028 . S
O30 C32 1.248 . S
Mg31 O30 2.028 . S
Mg31 O36 2.032 . S
Mg31 O38 2.079 . S
C32 O29 1.250 . S
C32 O30 1.248 . S
C33 O34 1.264 . S
C33 O41 1.249 . S
O34 C33 1.264 . S
O35 Mg28 1.986 . S
O35 C39 1.246 . S
O36 Mg31 2.032 . S
O36 C39 1.259 . S
O37 Mg28 2.114 . S
O37 C40 1.252 . S
O38 Mg28 2.251 . S
O38 Mg31 2.079 . S
O38 C40 1.273 . S
C39 O35 1.246 . S
C39 O36 1.259 . S
C40 O37 1.252 . S
C40 O38 1.273 . S
O41 Mg28 2.010 . S
O41 C33 1.249 . S
Mg42 O43 2.028 . S
Mg42 O49 1.986 . S
Mg42 O51 2.114 . S
Mg42 O52 2.251 . S
Mg42 O55 2.010 . S
O43 Mg42 2.028 . S
O43 C46 1.250 . S
O44 Mg45 2.028 . S
O44 C46 1.248 . S
Mg45 O44 2.028 . S
Mg45 O50 2.032 . S
Mg45 O52 2.079 . S
C46 O43 1.250 . S
C46 O44 1.248 . S
C47 O48 1.264 . S
C47 O55 1.249 . S
O48 C47 1.264 . S
O49 Mg42 1.986 . S
O49 C53 1.246 . S
O50 Mg45 2.032 . S
O50 C53 1.259 . S
O51 Mg42 2.114 . S
O51 C54 1.252 . S
O52 Mg42 2.251 . S
O52 Mg45 2.079 . S
O52 C54 1.273 . S
C53 O49 1.246 . S
C53 O50 1.259 . S
C54 O51 1.252 . S
C54 O52 1.273 . S
O55 Mg42 2.010 . S
O55 C47 1.249 . S
Mg56 O57 2.028 . S
Mg56 O63 1.986 . S
Mg56 O65 2.114 . S
Mg56 O66 2.251 . S
Mg56 O69 2.010 . S
O57 Mg56 2.028 . S
O57 C60 1.250 . S
O58 Mg59 2.028 . S
O58 C60 1.248 . S
Mg59 O58 2.028 . S
Mg59 O64 2.032 . S
Mg59 O66 2.079 . S
C60 O57 1.250 . S
C60 O58 1.248 . S
C61 O62 1.264 . S
C61 O69 1.249 . S
O62 C61 1.264 . S
O63 Mg56 1.986 . S
O63 C67 1.246 . S
O64 Mg59 2.032 . S
O64 C67 1.259 . S
O65 Mg56 2.114 . S
O65 C68 1.252 . S
O66 Mg56 2.251 . S
O66 Mg59 2.079 . S
O66 C68 1.273 . S
C67 O63 1.246 . S
C67 O64 1.259 . S
C68 O65 1.252 . S
C68 O66 1.273 . S
O69 Mg56 2.010 . S
O69 C61 1.249 . S
Mg70 O71 2.028 . S
Mg70 O77 1.986 . S
Mg70 O79 2.114 . S
Mg70 O80 2.251 . S
Mg70 O83 2.010 . S
O71 Mg70 2.028 . S
O71 C74 1.250 . S
O72 Mg73 2.028 . S
O72 C74 1.248 . S
Mg73 O72 2.028 . S
Mg73 O78 2.032 . S
Mg73 O80 2.079 . S
C74 O71 1.250 . S
C74 O72 1.248 . S
C75 O76 1.264 . S
C75 O83 1.249 . S
O76 C75 1.264 . S
O77 Mg70 1.986 . S
O77 C81 1.246 . S
O78 Mg73 2.032 . S
O78 C81 1.259 . S
O79 Mg70 2.114 . S
O79 C82 1.252 . S
O80 Mg70 2.251 . S
O80 Mg73 2.079 . S
O80 C82 1.273 . S
C81 O77 1.246 . S
C81 O78 1.259 . S
C82 O79 1.252 . S
C82 O80 1.273 . S
O83 Mg70 2.010 . S
O83 C75 1.249 . S
H84 C102 0.951 . S
H85 C104 0.951 . S
H86 C106 0.950 . S
H87 C107 0.950 . S
H88 C109 0.950 . S
H89 C112 0.950 . S
H90 C113 0.950 . S
H91 C115 0.950 . S
H92 C116 0.950 . S
H93 C117 0.951 . S
H94 C119 0.951 . S
H95 C121 0.950 . S
H96 C122 0.950 . S
H97 C124 0.950 1_565 S
H98 C127 0.950 . S
H99 C128 0.950 . S
H100 C130 0.950 . S
H101 C131 0.950 . S
C102 H84 0.951 . S
C102 C103 1.366 . S
C102 C104 1.388 . S
C103 C102 1.366 . S
C103 C107 1.385 . S
C104 H85 0.951 . S
C104 C102 1.388 . S
C104 C105 1.366 . S
C105 C104 1.366 . S
C105 C106 1.414 . S
C105 C108 1.499 . S
C106 H86 0.950 . S
C106 C105 1.414 . S
C106 C107 1.374 . S
C107 H87 0.950 . S
C107 C103 1.385 . S
C107 C106 1.374 . S
C108 C105 1.499 . S
C108 C109 1.373 . S
C108 C110 1.389 . S
C109 H88 0.950 . S
C109 C108 1.373 . S
C109 C125 1.377 1_545 S
C110 C108 1.389 . S
C110 C111 1.524 . S
C110 C124 1.377 . S
C111 C110 1.524 . S
C111 C112 1.397 . S
C111 C116 1.363 . S
C112 H89 0.950 . S
C112 C111 1.397 . S
C112 C113 1.334 . S
C113 H90 0.950 . S
C113 C112 1.334 . S
C113 C114 1.287 . S
C114 C113 1.287 . S
C114 C115 1.524 . S
C114 H133 0.913 . S
C115 H91 0.950 . S
C115 C114 1.524 . S
C115 C116 1.415 . S
C116 H92 0.950 . S
C116 C111 1.363 . S
C116 C115 1.415 . S
C117 H93 0.951 . S
C117 C118 1.366 . S
C117 C119 1.388 . S
C118 C117 1.366 . S
C118 C122 1.385 . S
C119 H94 0.951 . S
C119 C117 1.388 . S
C119 C120 1.366 . S
C120 C119 1.366 . S
C120 C121 1.414 . S
C120 C123 1.499 . S
C121 H95 0.950 . S
C121 C120 1.414 . S
C121 C122 1.374 . S
C122 H96 0.950 . S
C122 C118 1.385 . S
C122 C121 1.374 . S
C123 C120 1.499 . S
C123 C124 1.373 1_565 S
C123 C125 1.389 . S
C124 H97 0.950 1_545 S
C124 C110 1.377 . S
C124 C123 1.373 1_545 S
C125 C109 1.377 1_565 S
C125 C123 1.389 . S
C125 C126 1.524 . S
C126 C125 1.524 . S
C126 C127 1.397 . S
C126 C131 1.363 . S
C127 H98 0.950 . S
C127 C126 1.397 . S
C127 C128 1.334 . S
C128 H99 0.950 . S
C128 C127 1.334 . S
C128 C129 1.287 . S
C129 C128 1.287 . S
C129 C130 1.524 . S
C129 H132 0.999 . S
C130 H100 0.950 . S
C130 C129 1.524 . S
C130 C131 1.415 . S
C131 H101 0.950 . S
C131 C126 1.363 . S
C131 C130 1.415 . S
H132 C129 0.999 . S
H133 C114 0.913 . S
H134 C152 0.951 . S
H135 C154 0.951 . S
H136 C156 0.950 . S
H137 C157 0.950 . S
H138 C159 0.950 . S
H139 C162 0.950 . S
H140 C163 0.950 . S
H141 C165 0.950 . S
H142 C166 0.950 . S
H143 C167 0.951 . S
H144 C169 0.951 . S
H145 C171 0.950 . S
H146 C172 0.950 . S
H147 C174 0.950 . S
H148 C177 0.950 . S
H149 C178 0.950 . S
H150 C180 0.950 . S
H151 C181 0.950 . S
C152 H134 0.951 . S
C152 C153 1.366 . S
C152 C154 1.388 . S
C153 C152 1.366 . S
C153 C157 1.385 . S
C154 H135 0.951 . S
C154 C152 1.388 . S
C154 C155 1.366 . S
C155 C154 1.366 . S
C155 C156 1.414 . S
C155 C158 1.499 . S
C156 H136 0.950 . S
C156 C155 1.414 . S
C156 C157 1.374 . S
C157 H137 0.950 . S
C157 C153 1.385 . S
C157 C156 1.374 . S
C158 C155 1.499 . S
C158 C159 1.373 . S
C158 C160 1.389 . S
C159 H138 0.950 . S
C159 C158 1.373 . S
C159 C175 1.377 . S
C160 C158 1.389 . S
C160 C161 1.524 . S
C160 C174 1.377 . S
C161 C160 1.524 . S
C161 C162 1.397 . S
C161 C166 1.363 . S
C162 H139 0.950 . S
C162 C161 1.397 . S
C162 C163 1.334 . S
C163 H140 0.950 . S
C163 C162 1.334 . S
C163 C164 1.287 . S
C164 C163 1.287 . S
C164 C165 1.524 . S
C164 H183 0.913 . S
C165 H141 0.950 . S
C165 C164 1.524 . S
C165 C166 1.415 . S
C166 H142 0.950 . S
C166 C161 1.363 . S
C166 C165 1.415 . S
C167 H143 0.951 . S
C167 C168 1.366 . S
C167 C169 1.388 . S
C168 C167 1.366 . S
C168 C172 1.385 . S
C169 H144 0.951 . S
C169 C167 1.388 . S
C169 C170 1.366 . S
C170 C169 1.366 . S
C170 C171 1.414 . S
C170 C173 1.499 . S
C171 H145 0.950 . S
C171 C170 1.414 . S
C171 C172 1.374 . S
C172 H146 0.950 . S
C172 C168 1.385 . S
C172 C171 1.374 . S
C173 C170 1.499 . S
C173 C174 1.373 . S
C173 C175 1.389 . S
C174 H147 0.950 . S
C174 C160 1.377 . S
C174 C173 1.373 . S
C175 C159 1.377 . S
C175 C173 1.389 . S
C175 C176 1.524 . S
C176 C175 1.524 . S
C176 C177 1.397 . S
C176 C181 1.363 . S
C177 H148 0.950 . S
C177 C176 1.397 . S
C177 C178 1.334 . S
C178 H149 0.950 . S
C178 C177 1.334 . S
C178 C179 1.287 . S
C179 C178 1.287 . S
C179 C180 1.524 . S
C179 H182 0.999 . S
C180 H150 0.950 . S
C180 C179 1.524 . S
C180 C181 1.415 . S
C181 H151 0.950 . S
C181 C176 1.363 . S
C181 C180 1.415 . S
H182 C179 0.999 . S
H183 C164 0.913 . S
H184 C202 0.951 . S
H185 C204 0.951 . S
H186 C206 0.950 . S
H187 C207 0.950 . S
H188 C209 0.950 . S
H189 C212 0.950 . S
H190 C213 0.950 . S
H191 C215 0.950 . S
H192 C216 0.950 . S
H193 C217 0.951 . S
H194 C219 0.951 . S
H195 C221 0.950 . S
H196 C222 0.950 . S
H197 C224 0.950 . S
H198 C227 0.950 . S
H199 C228 0.950 . S
H200 C230 0.950 . S
H201 C231 0.950 . S
C202 H184 0.951 . S
C202 C203 1.366 . S
C202 C204 1.388 . S
C203 C202 1.366 . S
C203 C207 1.385 . S
C204 H185 0.951 . S
C204 C202 1.388 . S
C204 C205 1.366 . S
C205 C204 1.366 . S
C205 C206 1.414 . S
C205 C208 1.499 . S
C206 H186 0.950 . S
C206 C205 1.414 . S
C206 C207 1.374 . S
C207 H187 0.950 . S
C207 C203 1.385 . S
C207 C206 1.374 . S
C208 C205 1.499 . S
C208 C209 1.373 . S
C208 C210 1.389 . S
C209 H188 0.950 . S
C209 C208 1.373 . S
C209 C225 1.377 1_655 S
C210 C208 1.389 . S
C210 C211 1.524 . S
C210 C224 1.377 1_655 S
C211 C210 1.524 . S
C211 C212 1.397 . S
C211 C216 1.363 . S
C212 H189 0.950 . S
C212 C211 1.397 . S
C212 C213 1.334 . S
C213 H190 0.950 . S
C213 C212 1.334 . S
C213 C214 1.287 . S
C214 C213 1.287 . S
C214 C215 1.524 . S
C214 H233 0.913 . S
C215 H191 0.950 . S
C215 C214 1.524 . S
C215 C216 1.415 . S
C216 H192 0.950 . S
C216 C211 1.363 . S
C216 C215 1.415 . S
C217 H193 0.951 . S
C217 C218 1.366 . S
C217 C219 1.388 . S
C218 C217 1.366 . S
C218 C222 1.385 . S
C219 H194 0.951 . S
C219 C217 1.388 . S
C219 C220 1.366 . S
C220 C219 1.366 . S
C220 C221 1.414 . S
C220 C223 1.499 . S
C221 H195 0.950 . S
C221 C220 1.414 . S
C221 C222 1.374 . S
C222 H196 0.950 . S
C222 C218 1.385 . S
C222 C221 1.374 . S
C223 C220 1.499 . S
C223 C224 1.373 . S
C223 C225 1.389 . S
C224 H197 0.950 . S
C224 C210 1.377 1_455 S
C224 C223 1.373 . S
C225 C209 1.377 1_455 S
C225 C223 1.389 . S
C225 C226 1.524 . S
C226 C225 1.524 . S
C226 C227 1.397 . S
C226 C231 1.363 . S
C227 H198 0.950 . S
C227 C226 1.397 . S
C227 C228 1.334 . S
C228 H199 0.950 . S
C228 C227 1.334 . S
C228 C229 1.287 . S
C229 C228 1.287 . S
C229 C230 1.524 . S
C229 H232 0.999 . S
C230 H200 0.950 . S
C230 C229 1.524 . S
C230 C231 1.415 . S
C231 H201 0.950 . S
C231 C226 1.363 . S
C231 C230 1.415 . S
H232 C229 0.999 . S
H233 C214 0.913 . S
H234 C252 0.951 . S
H235 C254 0.951 . S
H236 C256 0.950 1_556 S
H237 C257 0.950 . S
H238 C259 0.950 . S
H239 C262 0.950 . S
H240 C263 0.950 . S
H241 C265 0.949 1_545 S
H242 C266 0.950 . S
H243 C267 0.951 . S
H244 C269 0.951 . S
H245 C271 0.950 1_554 S
H246 C272 0.950 . S
H247 C274 0.950 . S
H248 C277 0.950 . S
H249 C278 0.950 . S
H250 C280 0.950 . S
H251 C281 0.950 . S
C252 H234 0.951 . S
C252 C253 1.366 . S
C252 C254 1.388 . S
C253 C252 1.366 . S
C253 C257 1.385 . S
C254 H235 0.951 . S
C254 C252 1.388 . S
C254 C255 1.366 . S
C255 C254 1.366 . S
C255 C256 1.414 . S
C255 C258 1.499 . S
C256 H236 0.950 1_554 S
C256 C255 1.414 . S
C256 C257 1.374 . S
C257 H237 0.950 . S
C257 C253 1.385 . S
C257 C256 1.374 . S
C258 C255 1.499 . S
C258 C259 1.373 1_554 S
C258 C260 1.389 . S
C259 H238 0.950 . S
C259 C258 1.373 1_556 S
C259 C275 1.377 . S
C260 C258 1.389 . S
C260 C261 1.524 . S
C260 C274 1.377 1_565 S
C261 C260 1.524 . S
C261 C262 1.397 . S
C261 C266 1.363 1_565 S
C262 H239 0.950 . S
C262 C261 1.397 . S
C262 C263 1.334 . S
C263 H240 0.950 . S
C263 C262 1.334 . S
C263 C264 1.287 . S
C264 C263 1.287 . S
C264 C265 1.524 . S
C264 H283 0.913 . S
C265 H241 0.949 1_565 S
C265 C264 1.524 . S
C265 C266 1.415 1_565 S
C266 H242 0.950 . S
C266 C261 1.363 1_545 S
C266 C265 1.415 1_545 S
C267 H243 0.951 . S
C267 C268 1.366 . S
C267 C269 1.388 . S
C268 C267 1.366 . S
C268 C272 1.385 . S
C269 H244 0.951 . S
C269 C267 1.388 . S
C269 C270 1.366 . S
C270 C269 1.366 . S
C270 C271 1.414 . S
C270 C273 1.499 . S
C271 H245 0.950 1_556 S
C271 C270 1.414 . S
C271 C272 1.374 . S
C272 H246 0.950 . S
C272 C268 1.385 . S
C272 C271 1.374 . S
C273 C270 1.499 . S
C273 C274 1.373 1_556 S
C273 C275 1.389 1_545 S
C274 H247 0.950 . S
C274 C260 1.377 1_545 S
C274 C273 1.373 1_554 S
C275 C259 1.377 . S
C275 C273 1.389 1_565 S
C275 C276 1.524 1_565 S
C276 C275 1.524 1_545 S
C276 C277 1.397 . S
C276 C281 1.363 1_545 S
C277 H248 0.950 . S
C277 C276 1.397 . S
C277 C278 1.334 . S
C278 H249 0.950 . S
C278 C277 1.334 . S
C278 C279 1.287 . S
C279 C278 1.287 . S
C279 C280 1.524 1_545 S
C279 H282 0.999 . S
C280 H250 0.950 . S
C280 C279 1.524 1_565 S
C280 C281 1.415 . S
C281 H251 0.950 . S
C281 C276 1.363 1_565 S
C281 C280 1.415 . S
H282 C279 0.999 . S
H283 C264 0.913 . S
H284 C302 0.951 . S
H285 C304 0.951 . S
H286 C306 0.950 . S
H287 C307 0.950 . S
H288 C309 0.950 . S
H289 C312 0.950 . S
H290 C313 0.950 . S
H291 C315 0.950 . S
H292 C316 0.950 . S
H293 C317 0.951 . S
H294 C319 0.951 . S
H295 C321 0.950 . S
H296 C322 0.950 . S
H297 C324 0.950 . S
H298 C327 0.950 . S
H299 C328 0.950 . S
H300 C330 0.950 . S
H301 C331 0.950 . S
C302 H284 0.951 . S
C302 C303 1.366 . S
C302 C304 1.388 . S
C303 C302 1.366 . S
C303 C307 1.385 . S
C304 H285 0.951 . S
C304 C302 1.388 . S
C304 C305 1.366 . S
C305 C304 1.366 . S
C305 C306 1.414 . S
C305 C308 1.499 . S
C306 H286 0.950 . S
C306 C305 1.414 . S
C306 C307 1.374 . S
C307 H287 0.950 . S
C307 C303 1.385 . S
C307 C306 1.374 . S
C308 C305 1.499 . S
C308 C309 1.373 . S
C308 C310 1.389 . S
C309 H288 0.950 . S
C309 C308 1.373 . S
C309 C325 1.377 . S
C310 C308 1.389 . S
C310 C311 1.524 . S
C310 C324 1.377 . S
C311 C310 1.524 . S
C311 C312 1.397 . S
C311 C316 1.363 . S
C312 H289 0.950 . S
C312 C311 1.397 . S
C312 C313 1.334 . S
C313 H290 0.950 . S
C313 C312 1.334 . S
C313 C314 1.287 . S
C314 C313 1.287 . S
C314 C315 1.524 . S
C314 H333 0.913 . S
C315 H291 0.950 . S
C315 C314 1.524 . S
C315 C316 1.415 . S
C316 H292 0.950 . S
C316 C311 1.363 . S
C316 C315 1.415 . S
C317 H293 0.951 . S
C317 C318 1.366 . S
C317 C319 1.388 . S
C318 C317 1.366 . S
C318 C322 1.385 . S
C319 H294 0.951 . S
C319 C317 1.388 . S
C319 C320 1.366 . S
C320 C319 1.366 . S
C320 C321 1.414 . S
C320 C323 1.499 . S
C321 H295 0.950 . S
C321 C320 1.414 . S
C321 C322 1.374 . S
C322 H296 0.950 . S
C322 C318 1.385 . S
C322 C321 1.374 . S
C323 C320 1.499 . S
C323 C324 1.373 . S
C323 C325 1.389 . S
C324 H297 0.950 . S
C324 C310 1.377 . S
C324 C323 1.373 . S
C325 C309 1.377 . S
C325 C323 1.389 . S
C325 C326 1.524 . S
C326 C325 1.524 . S
C326 C327 1.397 . S
C326 C331 1.363 . S
C327 H298 0.950 . S
C327 C326 1.397 . S
C327 C328 1.334 . S
C328 H299 0.950 . S
C328 C327 1.334 . S
C328 C329 1.287 . S
C329 C328 1.287 . S
C329 C330 1.524 . S
C329 H332 0.999 . S
C330 H300 0.950 . S
C330 C329 1.524 . S
C330 C331 1.415 . S
C331 H301 0.950 . S
C331 C326 1.363 . S
C331 C330 1.415 . S
H332 C329 0.999 . S
H333 C314 0.913 . S
H334 C352 0.951 . S
H335 C354 0.951 . S
H336 C356 0.950 . S
H337 C357 0.950 . S
H338 C359 0.950 . S
H339 C362 0.950 . S
H340 C363 0.950 . S
H341 C365 0.950 . S
H342 C366 0.950 . S
H343 C367 0.951 . S
H344 C369 0.951 . S
H345 C371 0.950 . S
H346 C372 0.950 . S
H347 C374 0.950 1_655 S
H348 C377 0.950 . S
H349 C378 0.950 . S
H350 C380 0.950 . S
H351 C381 0.950 . S
C352 H334 0.951 . S
C352 C353 1.366 . S
C352 C354 1.388 . S
C353 C352 1.366 . S
C353 C357 1.385 . S
C354 H335 0.951 . S
C354 C352 1.388 . S
C354 C355 1.366 . S
C355 C354 1.366 . S
C355 C356 1.414 . S
C355 C358 1.499 . S
C356 H336 0.950 . S
C356 C355 1.414 . S
C356 C357 1.374 . S
C357 H337 0.950 . S
C357 C353 1.385 . S
C357 C356 1.374 . S
C358 C355 1.499 . S
C358 C359 1.373 . S
C358 C360 1.389 . S
C359 H338 0.950 . S
C359 C358 1.373 . S
C359 C375 1.377 1_455 S
C360 C358 1.389 . S
C360 C361 1.524 . S
C360 C374 1.377 . S
C361 C360 1.524 . S
C361 C362 1.397 . S
C361 C366 1.363 . S
C362 H339 0.950 . S
C362 C361 1.397 . S
C362 C363 1.334 . S
C363 H340 0.950 . S
C363 C362 1.334 . S
C363 C364 1.287 . S
C364 C363 1.287 . S
C364 C365 1.524 . S
C364 H383 0.913 . S
C365 H341 0.950 . S
C365 C364 1.524 . S
C365 C366 1.415 . S
C366 H342 0.950 . S
C366 C361 1.363 . S
C366 C365 1.415 . S
C367 H343 0.951 . S
C367 C368 1.366 . S
C367 C369 1.388 . S
C368 C367 1.366 . S
C368 C372 1.385 . S
C369 H344 0.951 . S
C369 C367 1.388 . S
C369 C370 1.366 . S
C370 C369 1.366 . S
C370 C371 1.414 . S
C370 C373 1.499 . S
C371 H345 0.950 . S
C371 C370 1.414 . S
C371 C372 1.374 . S
C372 H346 0.950 . S
C372 C368 1.385 . S
C372 C371 1.374 . S
C373 C370 1.499 . S
C373 C374 1.373 1_655 S
C373 C375 1.389 . S
C374 H347 0.950 1_455 S
C374 C360 1.377 . S
C374 C373 1.373 1_455 S
C375 C359 1.377 1_655 S
C375 C373 1.389 . S
C375 C376 1.524 . S
C376 C375 1.524 . S
C376 C377 1.397 . S
C376 C381 1.363 . S
C377 H348 0.950 . S
C377 C376 1.397 . S
C377 C378 1.334 . S
C378 H349 0.950 . S
C378 C377 1.334 . S
C378 C379 1.287 . S
C379 C378 1.287 . S
C379 C380 1.524 . S
C379 H382 0.999 . S
C380 H350 0.950 . S
C380 C379 1.524 . S
C380 C381 1.415 . S
C381 H351 0.950 . S
C381 C376 1.363 . S
C381 C380 1.415 . S
H382 C379 0.999 . S
H383 C364 0.913 . S
H384 C402 0.951 . S
H385 C404 0.951 . S
H386 C406 0.950 . S
H387 C407 0.950 . S
H388 C409 0.950 . S
H389 C412 0.950 . S
H390 C413 0.950 . S
H391 C415 0.950 . S
H392 C416 0.950 . S
H393 C417 0.951 . S
H394 C419 0.951 . S
H395 C421 0.950 . S
H396 C422 0.950 . S
H397 C424 0.950 . S
H398 C427 0.950 . S
H399 C428 0.950 . S
H400 C430 0.950 . S
H401 C431 0.950 . S
C402 H384 0.951 . S
C402 C403 1.366 . S
C402 C404 1.388 . S
C403 C402 1.366 . S
C403 C407 1.385 . S
C404 H385 0.951 . S
C404 C402 1.388 . S
C404 C405 1.366 . S
C405 C404 1.366 . S
C405 C406 1.414 . S
C405 C408 1.499 . S
C406 H386 0.950 . S
C406 C405 1.414 . S
C406 C407 1.374 . S
C407 H387 0.950 . S
C407 C403 1.385 . S
C407 C406 1.374 . S
C408 C405 1.499 . S
C408 C409 1.373 . S
C408 C410 1.389 . S
C409 H388 0.950 . S
C409 C408 1.373 . S
C409 C425 1.377 . S
C410 C408 1.389 . S
C410 C411 1.524 . S
C410 C424 1.377 . S
C411 C410 1.524 . S
C411 C412 1.397 . S
C411 C416 1.363 . S
C412 H389 0.950 . S
C412 C411 1.397 . S
C412 C413 1.334 . S
C413 H390 0.950 . S
C413 C412 1.334 . S
C413 C414 1.287 . S
C414 C413 1.287 . S
C414 C415 1.524 . S
C414 H433 0.913 . S
C415 H391 0.950 . S
C415 C414 1.524 . S
C415 C416 1.415 . S
C416 H392 0.950 . S
C416 C411 1.363 . S
C416 C415 1.415 . S
C417 H393 0.951 . S
C417 C418 1.366 . S
C417 C419 1.388 . S
C418 C417 1.366 . S
C418 C422 1.385 . S
C419 H394 0.951 . S
C419 C417 1.388 . S
C419 C420 1.366 . S
C420 C419 1.366 . S
C420 C421 1.414 . S
C420 C423 1.499 . S
C421 H395 0.950 . S
C421 C420 1.414 . S
C421 C422 1.374 . S
C422 H396 0.950 . S
C422 C418 1.385 . S
C422 C421 1.374 . S
C423 C420 1.499 . S
C423 C424 1.373 . S
C423 C425 1.389 . S
C424 H397 0.950 . S
C424 C410 1.377 . S
C424 C423 1.373 . S
C425 C409 1.377 . S
C425 C423 1.389 . S
C425 C426 1.524 . S
C426 C425 1.524 . S
C426 C427 1.397 . S
C426 C431 1.363 . S
C427 H398 0.950 . S
C427 C426 1.397 . S
C427 C428 1.334 . S
C428 H399 0.950 . S
C428 C427 1.334 . S
C428 C429 1.287 . S
C429 C428 1.287 . S
C429 C430 1.524 . S
C429 H432 0.999 . S
C430 H400 0.950 . S
C430 C429 1.524 . S
C430 C431 1.415 . S
C431 H401 0.950 . S
C431 C426 1.363 . S
C431 C430 1.415 . S
H432 C429 0.999 . S
H433 C414 0.913 . S
H434 C452 0.951 . S
H435 C454 0.951 . S
H436 C456 0.950 . S
H437 C457 0.950 . S
H438 C459 0.950 . S
H439 C462 0.950 . S
H440 C463 0.950 . S
H441 C465 0.950 . S
H442 C466 0.950 . S
H443 C467 0.951 . S
H444 C469 0.951 . S
H445 C471 0.950 . S
H446 C472 0.950 . S
H447 C474 0.950 . S
H448 C477 0.950 . S
H449 C478 0.950 . S
H450 C480 0.950 . S
H451 C481 0.950 . S
C452 H434 0.951 . S
C452 C453 1.366 . S
C452 C454 1.388 . S
C453 C452 1.366 . S
C453 C457 1.385 . S
C454 H435 0.951 . S
C454 C452 1.388 . S
C454 C455 1.366 . S
C455 C454 1.366 . S
C455 C456 1.414 . S
C455 C458 1.499 . S
C456 H436 0.950 . S
C456 C455 1.414 . S
C456 C457 1.374 . S
C457 H437 0.950 . S
C457 C453 1.385 . S
C457 C456 1.374 . S
C458 C455 1.499 . S
C458 C459 1.373 . S
C458 C460 1.389 . S
C459 H438 0.950 . S
C459 C458 1.373 . S
C459 C475 1.377 . S
C460 C458 1.389 . S
C460 C461 1.524 . S
C460 C474 1.377 . S
C461 C460 1.524 . S
C461 C462 1.397 . S
C461 C466 1.363 . S
C462 H439 0.950 . S
C462 C461 1.397 . S
C462 C463 1.334 . S
C463 H440 0.950 . S
C463 C462 1.334 . S
C463 C464 1.287 . S
C464 C463 1.287 . S
C464 C465 1.524 . S
C464 H483 0.913 . S
C465 H441 0.950 . S
C465 C464 1.524 . S
C465 C466 1.415 . S
C466 H442 0.950 . S
C466 C461 1.363 . S
C466 C465 1.415 . S
C467 H443 0.951 . S
C467 C468 1.366 . S
C467 C469 1.388 . S
C468 C467 1.366 . S
C468 C472 1.385 . S
C469 H444 0.951 . S
C469 C467 1.388 . S
C469 C470 1.366 . S
C470 C469 1.366 . S
C470 C471 1.414 . S
C470 C473 1.499 . S
C471 H445 0.950 . S
C471 C470 1.414 . S
C471 C472 1.374 . S
C472 H446 0.950 . S
C472 C468 1.385 . S
C472 C471 1.374 . S
C473 C470 1.499 . S
C473 C474 1.373 . S
C473 C475 1.389 . S
C474 H447 0.950 . S
C474 C460 1.377 . S
C474 C473 1.373 . S
C475 C459 1.377 . S
C475 C473 1.389 . S
C475 C476 1.524 . S
C476 C475 1.524 . S
C476 C477 1.397 . S
C476 C481 1.363 . S
C477 H448 0.950 . S
C477 C476 1.397 . S
C477 C478 1.334 . S
C478 H449 0.950 . S
C478 C477 1.334 . S
C478 C479 1.287 . S
C479 C478 1.287 . S
C479 C480 1.524 . S
C479 H482 0.999 . S
C480 H450 0.950 . S
C480 C479 1.524 . S
C480 C481 1.415 . S
C481 H451 0.950 . S
C481 C476 1.363 . S
C481 C480 1.415 . S
H482 C479 0.999 . S
H483 C464 0.913 . S
H484 C502 0.951 . S
H485 C504 0.951 . S
H486 C506 0.950 . S
H487 C507 0.950 . S
H488 C509 0.950 . S
H489 C512 0.950 . S
H490 C513 0.950 . S
H491 C515 0.950 . S
H492 C516 0.950 . S
H493 C517 0.951 . S
H494 C519 0.951 . S
H495 C521 0.950 . S
H496 C522 0.950 . S
H497 C524 0.950 . S
H498 C527 0.950 . S
H499 C528 0.950 . S
H500 C530 0.950 . S
H501 C531 0.950 . S
C502 H484 0.951 . S
C502 C503 1.366 . S
C502 C504 1.388 . S
C503 C502 1.366 . S
C503 C507 1.385 . S
C504 H485 0.951 . S
C504 C502 1.388 . S
C504 C505 1.366 . S
C505 C504 1.366 . S
C505 C506 1.414 . S
C505 C508 1.499 . S
C506 H486 0.950 . S
C506 C505 1.414 . S
C506 C507 1.374 . S
C507 H487 0.950 . S
C507 C503 1.385 . S
C507 C506 1.374 . S
C508 C505 1.499 . S
C508 C509 1.373 . S
C508 C510 1.389 . S
C509 H488 0.950 . S
C509 C508 1.373 . S
C509 C525 1.377 . S
C510 C508 1.389 . S
C510 C511 1.524 . S
C510 C524 1.377 . S
C511 C510 1.524 . S
C511 C512 1.397 . S
C511 C516 1.363 . S
C512 H489 0.950 . S
C512 C511 1.397 . S
C512 C513 1.334 . S
C513 H490 0.950 . S
C513 C512 1.334 . S
C513 C514 1.287 . S
C514 C513 1.287 . S
C514 C515 1.524 . S
C514 H533 0.913 . S
C515 H491 0.950 . S
C515 C514 1.524 . S
C515 C516 1.415 . S
C516 H492 0.950 . S
C516 C511 1.363 . S
C516 C515 1.415 . S
C517 H493 0.951 . S
C517 C518 1.366 . S
C517 C519 1.388 . S
C518 C517 1.366 . S
C518 C522 1.385 . S
C519 H494 0.951 . S
C519 C517 1.388 . S
C519 C520 1.366 . S
C520 C519 1.366 . S
C520 C521 1.414 . S
C520 C523 1.499 . S
C521 H495 0.950 . S
C521 C520 1.414 . S
C521 C522 1.374 . S
C522 H496 0.950 . S
C522 C518 1.385 . S
C522 C521 1.374 . S
C523 C520 1.499 . S
C523 C524 1.373 . S
C523 C525 1.389 . S
C524 H497 0.950 . S
C524 C510 1.377 . S
C524 C523 1.373 . S
C525 C509 1.377 . S
C525 C523 1.389 . S
C525 C526 1.524 . S
C526 C525 1.524 . S
C526 C527 1.397 . S
C526 C531 1.363 . S
C527 H498 0.950 . S
C527 C526 1.397 . S
C527 C528 1.334 . S
C528 H499 0.950 . S
C528 C527 1.334 . S
C528 C529 1.287 . S
C529 C528 1.287 . S
C529 C530 1.524 . S
C529 H532 0.999 . S
C530 H500 0.950 . S
C530 C529 1.524 . S
C530 C531 1.415 . S
C531 H501 0.950 . S
C531 C526 1.363 . S
C531 C530 1.415 . S
H532 C529 0.999 . S
H533 C514 0.913 . S
H534 C552 0.951 . S
H535 C554 0.951 . S
H536 C556 0.950 . S
H537 C557 0.950 . S
H538 C559 0.950 . S
H539 C562 0.950 . S
H540 C563 0.950 . S
H541 C565 0.950 . S
H542 C566 0.950 . S
H543 C567 0.951 . S
H544 C569 0.951 . S
H545 C571 0.950 . S
H546 C572 0.950 . S
H547 C574 0.950 . S
H548 C577 0.950 . S
H549 C578 0.950 1_554 S
H550 C580 0.950 . S
H551 C581 0.950 . S
C552 H534 0.951 . S
C552 C553 1.366 . S
C552 C554 1.388 . S
C553 C552 1.366 . S
C553 C557 1.385 . S
C554 H535 0.951 . S
C554 C552 1.388 . S
C554 C555 1.366 . S
C555 C554 1.366 . S
C555 C556 1.414 . S
C555 C558 1.499 . S
C556 H536 0.950 . S
C556 C555 1.414 . S
C556 C557 1.374 . S
C557 H537 0.950 . S
C557 C553 1.385 . S
C557 C556 1.374 . S
C558 C555 1.499 . S
C558 C559 1.373 . S
C558 C560 1.389 . S
C559 H538 0.950 . S
C559 C558 1.373 . S
C559 C575 1.377 . S
C560 C558 1.389 . S
C560 C561 1.524 . S
C560 C574 1.377 . S
C561 C560 1.524 . S
C561 C562 1.397 . S
C561 C566 1.363 . S
C562 H539 0.950 . S
C562 C561 1.397 . S
C562 C563 1.334 . S
C563 H540 0.950 . S
C563 C562 1.334 . S
C563 C564 1.287 . S
C564 C563 1.287 . S
C564 C565 1.524 . S
C564 H583 0.913 . S
C565 H541 0.950 . S
C565 C564 1.524 . S
C565 C566 1.415 . S
C566 H542 0.950 . S
C566 C561 1.363 . S
C566 C565 1.415 . S
C567 H543 0.951 . S
C567 C568 1.366 1_556 S
C567 C569 1.388 . S
C568 C567 1.366 1_554 S
C568 C572 1.385 . S
C569 H544 0.951 . S
C569 C567 1.388 . S
C569 C570 1.366 . S
C570 C569 1.366 . S
C570 C571 1.414 . S
C570 C573 1.499 . S
C571 H545 0.950 . S
C571 C570 1.414 . S
C571 C572 1.374 1_556 S
C572 H546 0.950 . S
C572 C568 1.385 . S
C572 C571 1.374 1_554 S
C573 C570 1.499 . S
C573 C574 1.373 . S
C573 C575 1.389 . S
C574 H547 0.950 . S
C574 C560 1.377 . S
C574 C573 1.373 . S
C575 C559 1.377 . S
C575 C573 1.389 . S
C575 C576 1.524 . S
C576 C575 1.524 . S
C576 C577 1.397 . S
C576 C581 1.363 . S
C577 H548 0.950 . S
C577 C576 1.397 . S
C577 C578 1.334 . S
C578 H549 0.950 1_556 S
C578 C577 1.334 . S
C578 C579 1.287 . S
C579 C578 1.287 . S
C579 C580 1.524 . S
C579 H582 0.999 . S
C580 H550 0.950 . S
C580 C579 1.524 . S
C580 C581 1.415 . S
C581 H551 0.950 . S
C581 C576 1.363 . S
C581 C580 1.415 . S
H582 C579 0.999 . S
H583 C564 0.913 . S
H584 C602 0.951 . S
H585 C604 0.951 . S
H586 C606 0.950 . S
H587 C607 0.950 . S
H588 C609 0.950 . S
H589 C612 0.950 . S
H590 C613 0.950 . S
H591 C615 0.950 . S
H592 C616 0.950 . S
H593 C617 0.951 . S
H594 C619 0.951 . S
H595 C621 0.950 . S
H596 C622 0.950 . S
H597 C624 0.950 . S
H598 C627 0.950 . S
H599 C628 0.950 . S
H600 C630 0.950 . S
H601 C631 0.950 . S
C602 H584 0.951 . S
C602 C603 1.366 1_554 S
C602 C604 1.388 . S
C603 C602 1.366 1_556 S
C603 C607 1.385 . S
C604 H585 0.951 . S
C604 C602 1.388 . S
C604 C605 1.366 . S
C605 C604 1.366 . S
C605 C606 1.414 . S
C605 C608 1.499 . S
C606 H586 0.950 . S
C606 C605 1.414 . S
C606 C607 1.374 1_554 S
C607 H587 0.950 . S
C607 C603 1.385 . S
C607 C606 1.374 1_556 S
C608 C605 1.499 . S
C608 C609 1.373 . S
C608 C610 1.389 . S
C609 H588 0.950 . S
C609 C608 1.373 . S
C609 C625 1.377 . S
C610 C608 1.389 . S
C610 C611 1.524 . S
C610 C624 1.377 . S
C611 C610 1.524 . S
C611 C612 1.397 . S
C611 C616 1.363 . S
C612 H589 0.950 . S
C612 C611 1.397 . S
C612 C613 1.334 . S
C613 H590 0.950 . S
C613 C612 1.334 . S
C613 C614 1.287 . S
C614 C613 1.287 . S
C614 C615 1.524 . S
C614 H633 0.913 . S
C615 H591 0.950 . S
C615 C614 1.524 . S
C615 C616 1.415 . S
C616 H592 0.950 . S
C616 C611 1.363 . S
C616 C615 1.415 . S
C617 H593 0.951 . S
C617 C618 1.366 . S
C617 C619 1.388 . S
C618 C617 1.366 . S
C618 C622 1.385 . S
C619 H594 0.951 . S
C619 C617 1.388 . S
C619 C620 1.366 . S
C620 C619 1.366 . S
C620 C621 1.414 . S
C620 C623 1.499 . S
C621 H595 0.950 . S
C621 C620 1.414 . S
C621 C622 1.374 . S
C622 H596 0.950 . S
C622 C618 1.385 . S
C622 C621 1.374 . S
C623 C620 1.499 . S
C623 C624 1.373 . S
C623 C625 1.389 . S
C624 H597 0.950 . S
C624 C610 1.377 . S
C624 C623 1.373 . S
C625 C609 1.377 . S
C625 C623 1.389 . S
C625 C626 1.524 . S
C626 C625 1.524 . S
C626 C627 1.397 . S
C626 C631 1.363 . S
C627 H598 0.950 . S
C627 C626 1.397 . S
C627 C628 1.334 . S
C628 H599 0.950 . S
C628 C627 1.334 . S
C628 C629 1.287 . S
C629 C628 1.287 . S
C629 C630 1.524 . S
C629 H632 0.999 . S
C630 H600 0.950 . S
C630 C629 1.524 . S
C630 C631 1.415 . S
C631 H601 0.950 . S
C631 C626 1.363 . S
C631 C630 1.415 . S
H632 C629 0.999 . S
H633 C614 0.913 . S
H634 C652 0.951 . S
H635 C654 0.951 . S
H636 C656 0.950 . S
H637 C657 0.950 . S
H638 C659 0.950 . S
H639 C662 0.950 . S
H640 C663 0.950 . S
H641 C665 0.950 . S
H642 C666 0.950 . S
H643 C667 0.951 . S
H644 C669 0.951 . S
H645 C671 0.950 . S
H646 C672 0.950 . S
H647 C674 0.950 . S
H648 C677 0.950 . S
H649 C678 0.950 . S
H650 C680 0.950 . S
H651 C681 0.950 . S
C652 H634 0.951 . S
C652 C653 1.366 . S
C652 C654 1.388 . S
C653 C652 1.366 . S
C653 C657 1.385 . S
C654 H635 0.951 . S
C654 C652 1.388 . S
C654 C655 1.366 . S
C655 C654 1.366 . S
C655 C656 1.414 . S
C655 C658 1.499 . S
C656 H636 0.950 . S
C656 C655 1.414 . S
C656 C657 1.374 . S
C657 H637 0.950 . S
C657 C653 1.385 . S
C657 C656 1.374 . S
C658 C655 1.499 . S
C658 C659 1.373 . S
C658 C660 1.389 . S
C659 H638 0.950 . S
C659 C658 1.373 . S
C659 C675 1.377 . S
C660 C658 1.389 . S
C660 C661 1.524 . S
C660 C674 1.377 . S
C661 C660 1.524 . S
C661 C662 1.397 . S
C661 C666 1.363 . S
C662 H639 0.950 . S
C662 C661 1.397 . S
C662 C663 1.334 . S
C663 H640 0.950 . S
C663 C662 1.334 . S
C663 C664 1.287 . S
C664 C663 1.287 . S
C664 C665 1.524 . S
C664 H683 0.913 . S
C665 H641 0.950 . S
C665 C664 1.524 . S
C665 C666 1.415 . S
C666 H642 0.950 . S
C666 C661 1.363 . S
C666 C665 1.415 . S
C667 H643 0.951 . S
C667 C668 1.366 . S
C667 C669 1.388 . S
C668 C667 1.366 . S
C668 C672 1.385 . S
C669 H644 0.951 . S
C669 C667 1.388 . S
C669 C670 1.366 . S
C670 C669 1.366 . S
C670 C671 1.414 . S
C670 C673 1.499 . S
C671 H645 0.950 . S
C671 C670 1.414 . S
C671 C672 1.374 . S
C672 H646 0.950 . S
C672 C668 1.385 . S
C672 C671 1.374 . S
C673 C670 1.499 . S
C673 C674 1.373 . S
C673 C675 1.389 . S
C674 H647 0.950 . S
C674 C660 1.377 . S
C674 C673 1.373 . S
C675 C659 1.377 . S
C675 C673 1.389 . S
C675 C676 1.524 . S
C676 C675 1.524 . S
C676 C677 1.397 . S
C676 C681 1.363 . S
C677 H648 0.950 . S
C677 C676 1.397 . S
C677 C678 1.334 . S
C678 H649 0.950 . S
C678 C677 1.334 . S
C678 C679 1.287 . S
C679 C678 1.287 . S
C679 C680 1.524 . S
C679 H682 0.999 . S
C680 H650 0.950 . S
C680 C679 1.524 . S
C680 C681 1.415 . S
C681 H651 0.950 . S
C681 C676 1.363 . S
C681 C680 1.415 . S
H682 C679 0.999 . S
H683 C664 0.913 . S
C103 C12 1.423 . S
C118 C82 1.422 . S
C153 C5 1.151 . S
C168 C26 1.375 . S
C203 C33 1.116 . S
C218 C19 1.121 . S
C253 C54 1.422 . S
C268 C40 1.422 . S
C303 C68 1.375 . S
C318 C47 1.152 . S
C353 C75 1.116 . S
C368 C61 1.121 . S
C403 C11 1.563 . S
C418 C60 1.536 . S
C453 C81 1.383 . S
C468 C25 1.377 . S
C503 C32 1.704 . S
C518 C4 1.700 . S
C553 C18 1.536 . S
C568 C53 1.562 . S
C603 C39 1.383 . S
C618 C67 1.377 . S
C653 C74 1.704 . S
C668 C46 1.700 . S
